# Generated by pormake.
# Topology wiy, (3)-cn, num edge types: 1
# Building blocks:
#     Node 0, Type 0, BuildingBlock: OLANEW_clean_sbu_2, # of connection points: 3
#     Node 1, Type 0, BuildingBlock: OLANEW_clean_sbu_2, # of connection points: 3
#     Node 2, Type 0, BuildingBlock: OLANEW_clean_sbu_2, # of connection points: 3
#     Node 3, Type 0, BuildingBlock: OLANEW_clean_sbu_2, # of connection points: 3
#     Node 4, Type 0, BuildingBlock: OLANEW_clean_sbu_2, # of connection points: 3
#     Node 5, Type 0, BuildingBlock: OLANEW_clean_sbu_2, # of connection points: 3
#     Node 6, Type 0, BuildingBlock: OLANEW_clean_sbu_2, # of connection points: 3
#     Node 7, Type 0, BuildingBlock: OLANEW_clean_sbu_2, # of connection points: 3
#     Node 8, Type 0, BuildingBlock: OLANEW_clean_sbu_2, # of connection points: 3
#     Node 9, Type 0, BuildingBlock: OLANEW_clean_sbu_2, # of connection points: 3
#     Node 10, Type 0, BuildingBlock: OLANEW_clean_sbu_2, # of connection points: 3
#     Node 11, Type 0, BuildingBlock: OLANEW_clean_sbu_2, # of connection points: 3
#     Edge 12, Type (0, 0), BuildingBlock: ZUJKAS_clean_linker_0, # of connection points: 2
#     Edge 13, Type (0, 0), BuildingBlock: ZUJKAS_clean_linker_0, # of connection points: 2
#     Edge 14, Type (0, 0), BuildingBlock: ZUJKAS_clean_linker_0, # of connection points: 2
#     Edge 15, Type (0, 0), BuildingBlock: ZUJKAS_clean_linker_0, # of connection points: 2
#     Edge 16, Type (0, 0), BuildingBlock: ZUJKAS_clean_linker_0, # of connection points: 2
#     Edge 17, Type (0, 0), BuildingBlock: ZUJKAS_clean_linker_0, # of connection points: 2
#     Edge 18, Type (0, 0), BuildingBlock: ZUJKAS_clean_linker_0, # of connection points: 2
#     Edge 19, Type (0, 0), BuildingBlock: ZUJKAS_clean_linker_0, # of connection points: 2
#     Edge 20, Type (0, 0), BuildingBlock: ZUJKAS_clean_linker_0, # of connection points: 2
#     Edge 21, Type (0, 0), BuildingBlock: ZUJKAS_clean_linker_0, # of connection points: 2
#     Edge 22, Type (0, 0), BuildingBlock: ZUJKAS_clean_linker_0, # of connection points: 2
#     Edge 23, Type (0, 0), BuildingBlock: ZUJKAS_clean_linker_0, # of connection points: 2
#     Edge 24, Type (0, 0), BuildingBlock: ZUJKAS_clean_linker_0, # of connection points: 2
#     Edge 25, Type (0, 0), BuildingBlock: ZUJKAS_clean_linker_0, # of connection points: 2
#     Edge 26, Type (0, 0), BuildingBlock: ZUJKAS_clean_linker_0, # of connection points: 2
#     Edge 27, Type (0, 0), BuildingBlock: ZUJKAS_clean_linker_0, # of connection points: 2
#     Edge 28, Type (0, 0), BuildingBlock: ZUJKAS_clean_linker_0, # of connection points: 2
#     Edge 29, Type (0, 0), BuildingBlock: ZUJKAS_clean_linker_0, # of connection points: 2
# Relax obj value: 0.009
# Max RMSD: 0.041
# Mean RMSD: 0.031
data_MOF--net-wiy--node1-OLANEW_clean_sbu_2--edge1-ZUJKAS_clean_linker_0
_symmetry_space_group_name_H-M    P1
_symmetry_Int_Tables_number       1
_symmetry_cell_setting            triclinic
loop_
_symmetry_equiv_pos_as_xyz
'x, y, z'
_cell_length_a     96.383581
_cell_length_b     95.918187
_cell_length_c     7.703691
_cell_angle_alpha  87.177578
_cell_angle_beta   92.887254
_cell_angle_gamma 120.06398
loop_
_atom_site_label
_atom_site_type_symbol
_atom_site_fract_x
_atom_site_fract_y
_atom_site_fract_z
_atom_type_partial_charge
O0 O 0.1355 0.49097 0.37748 0.0
Cd1 Cd 0.1275 0.46455 0.26382 0.0
O2 O 0.11104 0.48441 0.4462 0.0
Cd3 Cd 0.09913 0.46012 0.34368 0.0
O4 O 0.0793 0.43988 0.20863 0.0
C5 C 0.068 0.42847 0.29325 0.0
O6 O 0.06893 0.42844 0.46404 0.0
C7 C 0.12592 0.49473 0.44066 0.0
C8 C 0.15402 0.46044 0.24021 0.0
O9 O 0.15046 0.46791 0.11977 0.0
O10 O 0.14498 0.45477 0.3718 0.0
O11 O 0.6449 0.13063 0.80974 0.0
Cd12 Cd 0.66653 0.1242 0.82846 0.0
O13 O 0.64639 0.13421 0.09132 0.0
Cd14 Cd 0.65738 0.11917 0.13454 0.0
O15 O 0.64978 0.0935 0.14469 0.0
C16 C 0.63519 0.08458 0.09715 0.0
O17 O 0.62679 0.09149 0.04629 0.0
C18 C 0.6409 0.13527 0.94065 0.0
C19 C 0.69616 0.15235 0.87133 0.0
O20 O 0.6906 0.14688 0.71966 0.0
O21 O 0.6878 0.14442 0.00257 0.0
O22 O 0.50848 0.65222 0.67308 0.0
Cd23 Cd 0.536 0.67486 0.68388 0.0
O24 O 0.51208 0.64214 0.923 0.0
Cd25 Cd 0.53825 0.6559 0.93129 0.0
O26 O 0.55876 0.6521 0.96887 0.0
C27 C 0.56274 0.64677 0.84393 0.0
O28 O 0.55535 0.64514 0.69189 0.0
C29 C 0.50283 0.64196 0.79826 0.0
C30 C 0.53806 0.69839 0.90063 0.0
O31 O 0.535 0.69882 0.73729 0.0
O32 O 0.54033 0.68697 0.96068 0.0
O33 O 0.85964 0.52019 0.83148 0.0
Cd34 Cd 0.86372 0.54745 0.83926 0.0
O35 O 0.87672 0.52457 0.05102 0.0
Cd36 Cd 0.88685 0.55063 0.06254 0.0
O37 O 0.90923 0.57329 0.10468 0.0
C38 C 0.92031 0.57688 0.9987 0.0
O39 O 0.91717 0.56762 0.86519 0.0
C40 C 0.86642 0.51503 0.94138 0.0
C41 C 0.84097 0.54739 0.05027 0.0
O42 O 0.83818 0.54502 0.88684 0.0
O43 O 0.85462 0.55005 0.11324 0.0
O44 O 0.37267 0.86813 0.86521 0.0
Cd45 Cd 0.35053 0.87331 0.79783 0.0
O46 O 0.38176 0.88415 0.08834 0.0
Cd47 Cd 0.36717 0.89529 0.01881 0.0
O48 O 0.36474 0.91545 0.90877 0.0
C49 C 0.37118 0.92847 0.99189 0.0
O50 O 0.378 0.92887 0.14509 0.0
C51 C 0.38238 0.87393 0.99465 0.0
C52 C 0.32141 0.84763 0.91156 0.0
O53 O 0.3262 0.84805 0.75818 0.0
O54 O 0.33035 0.85939 0.01077 0.0
O55 O 0.4916 0.36361 0.07141 0.0
Cd56 Cd 0.46397 0.34119 0.04841 0.0
O57 O 0.48393 0.38123 0.11458 0.0
Cd58 Cd 0.45812 0.36509 0.07988 0.0
O59 O 0.43468 0.36225 0.00564 0.0
C60 C 0.42758 0.35593 0.86317 0.0
O61 O 0.43392 0.34984 0.76551 0.0
C62 C 0.49507 0.37795 0.10096 0.0
C63 C 0.46238 0.31126 0.05379 0.0
O64 O 0.46288 0.31877 0.90979 0.0
O65 O 0.46266 0.31792 0.19517 0.0
O66 O 0.50792 0.82606 0.35213 0.0
Cd67 Cd 0.52889 0.81896 0.40687 0.0
O68 O 0.52604 0.85064 0.27547 0.0
Cd69 Cd 0.53557 0.87618 0.20477 0.0
O70 O 0.54916 0.90229 0.15689 0.0
C71 C 0.54666 0.91158 0.24591 0.0
O72 O 0.53556 0.90524 0.36351 0.0
C73 C 0.51141 0.84019 0.29966 0.0
C74 C 0.53012 0.80067 0.1433 0.0
O75 O 0.5211 0.7939 0.27358 0.0
O76 O 0.53852 0.8161 0.1375 0.0
O77 O 0.66867 0.49779 0.38942 0.0
Cd78 Cd 0.6966 0.51482 0.48658 0.0
O79 O 0.66466 0.51805 0.32496 0.0
Cd80 Cd 0.65191 0.53056 0.22636 0.0
O81 O 0.64161 0.54572 0.14314 0.0
C82 C 0.63829 0.55269 0.25671 0.0
O83 O 0.64092 0.55042 0.42188 0.0
C84 C 0.6593 0.50291 0.33516 0.0
C85 C 0.71858 0.52045 0.23254 0.0
O86 O 0.71195 0.50714 0.32078 0.0
O87 O 0.71477 0.5311 0.26318 0.0
O88 O 0.15007 0.66007 0.6197 0.0
Cd89 Cd 0.14636 0.68354 0.60608 0.0
O90 O 0.12974 0.64705 0.43585 0.0
Cd91 Cd 0.11983 0.66317 0.43043 0.0
O92 O 0.09653 0.66196 0.40568 0.0
C93 C 0.08488 0.64756 0.40265 0.0
O94 O 0.08806 0.63572 0.41616 0.0
C95 C 0.14146 0.64784 0.52738 0.0
C96 C 0.1741 0.71116 0.49484 0.0
O97 O 0.17144 0.70784 0.65722 0.0
O98 O 0.16362 0.7015 0.38549 0.0
O99 O 0.48833 0.13796 0.03863 0.0
Cd100 Cd 0.46073 0.13114 0.08777 0.0
O101 O 0.48167 0.11985 0.83909 0.0
Cd102 Cd 0.4562 0.10716 0.89742 0.0
O103 O 0.43605 0.08543 0.0084 0.0
C104 C 0.43699 0.08267 0.17038 0.0
O105 O 0.44923 0.09346 0.26219 0.0
C106 C 0.4924 0.1316 0.92524 0.0
C107 C 0.45873 0.15923 0.08274 0.0
O108 O 0.46165 0.15352 0.22495 0.0
O109 O 0.45655 0.15152 0.94331 0.0
O110 O 0.35039 0.48776 0.99413 0.0
Cd111 Cd 0.33098 0.46059 0.0964 0.0
O112 O 0.3575 0.48019 0.76581 0.0
Cd113 Cd 0.34414 0.45473 0.84435 0.0
O114 O 0.34324 0.43293 0.95709 0.0
C115 C 0.34729 0.43307 0.11685 0.0
O116 O 0.35073 0.44573 0.20732 0.0
C117 C 0.35856 0.49136 0.85783 0.0
C118 C 0.3008 0.45745 0.12365 0.0
O119 O 0.31155 0.46371 0.24504 0.0
O120 O 0.30425 0.45253 0.9894 0.0
O121 O 0.86242 0.35674 0.07396 0.0
Cd122 Cd 0.86827 0.33502 0.14435 0.0
O123 O 0.88756 0.37447 0.01896 0.0
Cd124 Cd 0.898 0.35944 0.09856 0.0
O125 O 0.9184 0.35826 0.21972 0.0
C126 C 0.91818 0.35388 0.37847 0.0
O127 O 0.90501 0.34884 0.46489 0.0
C128 C 0.87297 0.37088 0.02594 0.0
C129 C 0.84104 0.30478 0.09767 0.0
O130 O 0.84434 0.31168 0.24439 0.0
O131 O 0.85065 0.31215 0.97324 0.0
H132 H 0.17995 0.47811 0.03842 0.0
H133 H 0.20369 0.47536 0.02116 0.0
H134 H 0.18375 0.43541 0.39204 0.0
H135 H 0.16032 0.43868 0.41636 0.0
H136 H 0.21324 0.45281 0.46786 0.0
H137 H 0.20864 0.44342 0.76748 0.0
H138 H 0.21124 0.46303 0.79615 0.0
H139 H 0.19359 0.44527 0.87551 0.0
C140 C 0.1806 0.46869 0.11573 0.0
C141 C 0.16824 0.45854 0.22786 0.0
C142 C 0.19413 0.46705 0.10481 0.0
C143 C 0.19537 0.4549 0.2017 0.0
C144 C 0.18305 0.44481 0.31484 0.0
H145 H 0.27275 0.43696 0.95337 0.0
H146 H 0.24648 0.43464 0.98026 0.0
C147 C 0.16966 0.44667 0.32856 0.0
C148 C 0.2098 0.45316 0.18968 0.0
H149 H 0.23535 0.4529 0.90096 0.0
C150 C 0.21791 0.45254 0.34386 0.0
C151 C 0.21574 0.45237 0.02826 0.0
C152 C 0.20669 0.45088 0.85811 0.0
C153 C 0.23201 0.45168 0.34105 0.0
C154 C 0.23881 0.45253 0.17929 0.0
C155 C 0.2304 0.45259 0.02519 0.0
C156 C 0.25468 0.45361 0.16661 0.0
C157 C 0.23917 0.4495 0.51192 0.0
C158 C 0.26814 0.46515 0.26047 0.0
C159 C 0.28305 0.4662 0.24846 0.0
C160 C 0.28495 0.45611 0.13777 0.0
C161 C 0.27162 0.44488 0.03995 0.0
C162 C 0.25661 0.44356 0.05517 0.0
H163 H 0.22962 0.44223 0.60588 0.0
H164 H 0.24619 0.44337 0.49663 0.0
H165 H 0.24712 0.46147 0.56894 0.0
H166 H 0.26716 0.47345 0.34237 0.0
H167 H 0.29316 0.47514 0.32337 0.0
H168 H 0.83084 0.28715 0.80237 0.0
H169 H 0.80673 0.26093 0.76049 0.0
H170 H 0.79416 0.26013 0.29186 0.0
H171 H 0.81838 0.28625 0.33589 0.0
H172 H 0.7912 0.23119 0.1946 0.0
H173 H 0.76082 0.25228 0.70729 0.0
H174 H 0.7806 0.25705 0.65077 0.0
H175 H 0.77801 0.266 0.8372 0.0
C176 C 0.82294 0.28142 0.91037 0.0
C177 C 0.8265 0.28883 0.07228 0.0
C178 C 0.80911 0.26647 0.88582 0.0
C179 C 0.79851 0.25871 0.02215 0.0
C180 C 0.80213 0.26596 0.18459 0.0
H181 H 0.70906 0.16897 0.17001 0.0
H182 H 0.73411 0.19444 0.20589 0.0
C183 C 0.81597 0.2809 0.2094 0.0
C184 C 0.78375 0.2429 0.99657 0.0
H185 H 0.74852 0.22411 0.76049 0.0
C186 C 0.78184 0.22963 0.10002 0.0
C187 C 0.77161 0.2409 0.87244 0.0
C188 C 0.77274 0.25483 0.76149 0.0
C189 C 0.76818 0.21433 0.08143 0.0
C190 C 0.75593 0.21235 0.95858 0.0
C191 C 0.75791 0.22563 0.85441 0.0
C192 C 0.74084 0.19671 0.93757 0.0
C193 C 0.7672 0.20041 0.19116 0.0
C194 C 0.73601 0.18971 0.77367 0.0
C195 C 0.72155 0.17525 0.75213 0.0
C196 C 0.71163 0.1675 0.89428 0.0
C197 C 0.71649 0.17454 0.05822 0.0
C198 C 0.73088 0.18906 0.07927 0.0
H199 H 0.77929 0.20271 0.23593 0.0
H200 H 0.76022 0.19873 0.30831 0.0
H201 H 0.76116 0.18904 0.11842 0.0
H202 H 0.74345 0.19544 0.66218 0.0
H203 H 0.71814 0.17016 0.62406 0.0
H204 H 0.5492 0.81146 0.86027 0.0
H205 H 0.55077 0.79534 0.63346 0.0
H206 H 0.5145 0.75196 0.88437 0.0
H207 H 0.51284 0.76795 0.11172 0.0
H208 H 0.55822 0.76957 0.69239 0.0
H209 H 0.49855 0.74897 0.3662 0.0
H210 H 0.50811 0.76636 0.50255 0.0
H211 H 0.49869 0.74642 0.59887 0.0
C212 C 0.54151 0.79849 0.86698 0.0
C213 C 0.53089 0.79098 0.00421 0.0
C214 C 0.54243 0.78932 0.7373 0.0
C215 C 0.53266 0.7725 0.74154 0.0
C216 C 0.52199 0.76495 0.87763 0.0
H217 H 0.54177 0.69899 0.25418 0.0
H218 H 0.54138 0.71811 0.44888 0.0
C219 C 0.52112 0.7741 0.00795 0.0
C220 C 0.53409 0.7628 0.6074 0.0
H221 H 0.51349 0.7372 0.27737 0.0
C222 C 0.54849 0.76256 0.60082 0.0
C223 C 0.52141 0.75378 0.48775 0.0
C224 C 0.50583 0.75393 0.4874 0.0
C225 C 0.55042 0.75322 0.4801 0.0
C226 C 0.53755 0.74379 0.36378 0.0
C227 C 0.52331 0.74439 0.36709 0.0
C228 C 0.53836 0.73264 0.24347 0.0
C229 C 0.56621 0.75353 0.47828 0.0
C230 C 0.5366 0.73436 0.063 0.0
C231 C 0.53672 0.72338 0.95076 0.0
C232 C 0.53855 0.71045 0.01754 0.0
C233 C 0.54042 0.70885 0.19834 0.0
C234 C 0.54026 0.7198 0.31 0.0
H235 H 0.5761 0.76462 0.53728 0.0
H236 H 0.56526 0.74301 0.55545 0.0
H237 H 0.56939 0.75279 0.34376 0.0
H238 H 0.53514 0.7442 0.00912 0.0
H239 H 0.53528 0.72498 0.81209 0.0
H240 H 0.81084 0.54173 0.95634 0.0
H241 H 0.78987 0.53839 0.14809 0.0
H242 H 0.82208 0.54779 0.59207 0.0
H243 H 0.84306 0.55095 0.40207 0.0
H244 H 0.79427 0.52135 0.64748 0.0
H245 H 0.78228 0.56948 0.39236 0.0
H246 H 0.78039 0.55591 0.22897 0.0
H247 H 0.79963 0.56848 0.33283 0.0
C248 C 0.81351 0.54321 0.09471 0.0
C249 C 0.8286 0.54652 0.16403 0.0
C250 C 0.80151 0.54136 0.20408 0.0
C251 C 0.80438 0.54286 0.38454 0.0
C252 C 0.81957 0.54653 0.45334 0.0
H253 H 0.74371 0.54938 0.13102 0.0
H254 H 0.76423 0.55428 0.92384 0.0
C255 C 0.83157 0.54836 0.34438 0.0
C256 C 0.79134 0.53957 0.50334 0.0
H257 H 0.76365 0.55032 0.59178 0.0
C258 C 0.78765 0.52777 0.63605 0.0
C259 C 0.7827 0.54794 0.4885 0.0
C260 C 0.78653 0.56126 0.35405 0.0
C261 C 0.77564 0.52413 0.75478 0.0
C262 C 0.76676 0.53228 0.73802 0.0
C263 C 0.77042 0.54404 0.6047 0.0
C264 C 0.754 0.52919 0.86034 0.0
C265 C 0.77287 0.51173 0.89779 0.0
C266 C 0.74124 0.51351 0.89177 0.0
C267 C 0.72976 0.51065 0.0135 0.0
C268 C 0.73049 0.52351 0.10127 0.0
C269 C 0.74285 0.53926 0.0647 0.0
C270 C 0.75456 0.54206 0.94625 0.0
H271 H 0.7839 0.51105 0.92911 0.0
H272 H 0.76891 0.51434 0.01865 0.0
H273 H 0.76345 0.4997 0.85338 0.0
H274 H 0.7402 0.50343 0.82307 0.0
H275 H 0.72022 0.49841 0.03765 0.0
H276 H 0.19578 0.73677 0.687 0.0
H277 H 0.22025 0.7606 0.58709 0.0
H278 H 0.21079 0.74166 0.07096 0.0
H279 H 0.18603 0.71816 0.16821 0.0
H280 H 0.24649 0.76327 0.46137 0.0
H281 H 0.21945 0.78618 0.95589 0.0
H282 H 0.2075 0.77041 0.11068 0.0
H283 H 0.21439 0.76583 0.91999 0.0
C284 C 0.19884 0.73776 0.55182 0.0
C285 C 0.1889 0.72564 0.43512 0.0
C286 C 0.21284 0.75138 0.49489 0.0
C287 C 0.21722 0.75312 0.32052 0.0
C288 C 0.20743 0.74088 0.20465 0.0
H289 H 0.29988 0.82098 0.73192 0.0
H290 H 0.27481 0.79818 0.8357 0.0
C291 C 0.19333 0.72737 0.26084 0.0
C292 C 0.23236 0.76738 0.26179 0.0
H293 H 0.24788 0.79782 0.95415 0.0
C294 C 0.24677 0.7709 0.35135 0.0
C295 C 0.23275 0.77735 0.11796 0.0
C296 C 0.21767 0.77486 0.02174 0.0
C297 C 0.26155 0.78385 0.29894 0.0
C298 C 0.26194 0.79367 0.15389 0.0
C299 C 0.24756 0.79022 0.06476 0.0
C300 C 0.27715 0.80756 0.09198 0.0
C301 C 0.27666 0.78665 0.39686 0.0
C302 C 0.28667 0.82051 0.20073 0.0
C303 C 0.30102 0.83354 0.14204 0.0
C304 C 0.30608 0.83392 0.97283 0.0
C305 C 0.29638 0.82104 0.86319 0.0
C306 C 0.28203 0.80801 0.92217 0.0
H307 H 0.27479 0.77577 0.47371 0.0
H308 H 0.28659 0.79018 0.30663 0.0
H309 H 0.28039 0.79656 0.4887 0.0
H310 H 0.28295 0.82059 0.33089 0.0
H311 H 0.30815 0.8433 0.22943 0.0
H312 H 0.45842 0.29264 0.77713 0.0
H313 H 0.45677 0.26634 0.78294 0.0
H314 H 0.46325 0.26791 0.34131 0.0
H315 H 0.46447 0.29399 0.3371 0.0
H316 H 0.47872 0.25803 0.89327 0.0
H317 H 0.42432 0.22396 0.28485 0.0
H318 H 0.43043 0.24381 0.19319 0.0
H319 H 0.43985 0.24142 0.39134 0.0
C320 C 0.45939 0.28735 0.90134 0.0
C321 C 0.46148 0.29537 0.0568 0.0
C322 C 0.45846 0.27231 0.90441 0.0
C323 C 0.45959 0.26499 0.06281 0.0
C324 C 0.46191 0.27309 0.21796 0.0
H325 H 0.46304 0.17832 0.35605 0.0
H326 H 0.4632 0.20393 0.34744 0.0
C327 C 0.46272 0.28807 0.21518 0.0
C328 C 0.45889 0.24916 0.06483 0.0
H329 H 0.43913 0.21081 0.23709 0.0
C330 C 0.46999 0.24767 0.96748 0.0
C331 C 0.44751 0.23565 0.16196 0.0
C332 C 0.43475 0.23621 0.26239 0.0
C333 C 0.47024 0.23317 0.96732 0.0
C334 C 0.45893 0.21971 0.06535 0.0
C335 C 0.44781 0.22116 0.16239 0.0
C336 C 0.45852 0.20403 0.0698 0.0
C337 C 0.48286 0.2325 0.86549 0.0
C338 C 0.45554 0.19544 0.91702 0.0
C339 C 0.45547 0.18082 0.92139 0.0
C340 C 0.45826 0.17444 0.07899 0.0
C341 C 0.4609 0.18291 0.23243 0.0
C342 C 0.46099 0.19755 0.22784 0.0
H343 H 0.49302 0.24473 0.83525 0.0
H344 H 0.48764 0.22543 0.93805 0.0
H345 H 0.47743 0.22653 0.74052 0.0
H346 H 0.45327 0.20006 0.79425 0.0
H347 H 0.45331 0.17456 0.80103 0.0
H348 H 0.15647 0.52063 0.4252 0.0
H349 H 0.16513 0.54879 0.48079 0.0
H350 H 0.11716 0.53488 0.62587 0.0
H351 H 0.1085 0.5068 0.57425 0.0
H352 H 0.15398 0.56612 0.30411 0.0
H353 H 0.14306 0.56617 1.001 0.0
H354 H 0.14447 0.55006 0.90688 0.0
H355 H 0.12595 0.55044 0.89095 0.0
C356 C 0.14785 0.52352 0.47267 0.0
C357 C 0.13177 0.51144 0.49478 0.0
C358 C 0.15282 0.53963 0.50434 0.0
C359 C 0.14186 0.54393 0.56001 0.0
C360 C 0.12595 0.53183 0.58759 0.0
H361 H 0.12715 0.6217 0.3211 0.0
H362 H 0.13064 0.59824 0.33442 0.0
C363 C 0.12097 0.51575 0.55632 0.0
C364 C 0.14638 0.56112 0.56934 0.0
H365 H 0.14295 0.5875 0.82098 0.0
C366 C 0.15185 0.57089 0.4182 0.0
C367 C 0.14394 0.5675 0.7192 0.0
C368 C 0.1392 0.55804 0.8892 0.0
C369 C 0.15379 0.58641 0.40877 0.0
C370 C 0.14997 0.59222 0.55371 0.0
C371 C 0.14566 0.58294 0.70907 0.0
C372 C 0.1488 0.60707 0.54121 0.0
C373 C 0.15951 0.59626 0.24196 0.0
C374 C 0.15764 0.61975 0.65554 0.0
C375 C 0.15561 0.63325 0.64889 0.0
C376 C 0.14454 0.63416 0.52921 0.0
C377 C 0.13581 0.62145 0.41454 0.0
C378 C 0.13789 0.60805 0.42094 0.0
H379 H 0.16685 0.59271 0.16867 0.0
H380 H 0.14897 0.59413 0.15796 0.0
H381 H 0.16672 0.60935 0.26743 0.0
H382 H 0.16599 0.61913 0.75067 0.0
H383 H 0.16245 0.64279 0.73966 0.0
H384 H 0.51834 0.15377 0.11421 0.0
H385 H 0.5462 0.16011 0.09955 0.0
H386 H 0.53312 0.12764 0.67582 0.0
H387 H 0.50532 0.12135 0.6881 0.0
H388 H 0.55531 0.13737 0.15688 0.0
H389 H 0.57436 0.16628 0.50582 0.0
H390 H 0.55684 0.16414 0.60659 0.0
H391 H 0.55589 0.14744 0.49899 0.0
C392 C 0.52144 0.14823 0.01542 0.0
C393 C 0.50957 0.137 0.90271 0.0
C394 C 0.53738 0.15188 0.00726 0.0
C395 C 0.54178 0.14452 0.88516 0.0
C396 C 0.53008 0.13375 0.76848 0.0
H397 H 0.61813 0.1275 0.68175 0.0
H398 H 0.59532 0.132 0.67254 0.0
C399 C 0.51414 0.13006 0.77673 0.0
C400 C 0.5581 0.14657 0.89287 0.0
H401 H 0.59036 0.15616 0.64753 0.0
C402 C 0.56311 0.1417 0.04654 0.0
C403 C 0.56815 0.15211 0.74816 0.0
C404 C 0.56361 0.15793 0.5811 0.0
C405 C 0.57753 0.14141 0.05716 0.0
C406 C 0.58754 0.1467 0.91123 0.0
C407 C 0.58274 0.15211 0.75934 0.0
C408 C 0.60237 0.14558 0.90894 0.0
C409 C 0.58135 0.13455 0.22161 0.0
C410 C 0.61431 0.15225 0.04082 0.0
C411 C 0.62717 0.14934 0.04863 0.0
C412 C 0.62862 0.14019 0.92114 0.0
C413 C 0.61733 0.13458 0.782 0.0
C414 C 0.60427 0.13715 0.77668 0.0
H415 H 0.57048 0.127 0.29878 0.0
H416 H 0.58672 0.12709 0.19215 0.0
H417 H 0.58999 0.14458 0.30451 0.0
H418 H 0.61348 0.15935 0.1405 0.0
H419 H 0.63583 0.154 0.156 0.0
H420 H 0.48107 0.63288 0.52348 0.0
H421 H 0.45423 0.60899 0.51039 0.0
H422 H 0.4594 0.59782 0.05056 0.0
H423 H 0.48619 0.62143 0.06445 0.0
H424 H 0.45186 0.57279 0.8259 0.0
H425 H 0.41063 0.59738 0.71486 0.0
H426 H 0.42729 0.60516 0.57236 0.0
H427 H 0.43092 0.60933 0.79989 0.0
C428 C 0.47636 0.62551 0.64035 0.0
C429 C 0.48582 0.62898 0.79465 0.0
C430 C 0.46099 0.6119 0.63276 0.0
C431 C 0.45482 0.60169 0.77976 0.0
C432 C 0.46396 0.60555 0.93568 0.0
H433 H 0.36556 0.51798 0.04063 0.0
H434 H 0.38807 0.54533 0.99923 0.0
C435 C 0.47929 0.61906 0.94322 0.0
C436 C 0.43961 0.58612 0.76823 0.0
H437 H 0.39903 0.569 0.70604 0.0
C438 C 0.44031 0.57195 0.79907 0.0
C439 C 0.42459 0.58512 0.73381 0.0
C440 C 0.42319 0.60003 0.70453 0.0
C441 C 0.42639 0.55678 0.79827 0.0
C442 C 0.41137 0.55573 0.76283 0.0
C443 C 0.41061 0.56988 0.73116 0.0
C444 C 0.39633 0.54 0.76922 0.0
C445 C 0.42783 0.54201 0.84049 0.0
C446 C 0.39322 0.52812 0.64971 0.0
C447 C 0.3804 0.51245 0.67319 0.0
C448 C 0.37046 0.50841 0.81656 0.0
C449 C 0.37302 0.52064 0.92942 0.0
C450 C 0.38585 0.5363 0.9058 0.0
H451 H 0.43984 0.54513 0.89722 0.0
H452 H 0.41858 0.5338 0.93344 0.0
H453 H 0.42592 0.53536 0.71961 0.0
H454 H 0.4011 0.53083 0.54231 0.0
H455 H 0.3787 0.50337 0.58299 0.0
H456 H 0.84331 0.36828 0.03892 0.0
H457 H 0.83682 0.38987 0.99221 0.0
H458 H 0.88631 0.42362 0.88365 0.0
H459 H 0.89283 0.40222 0.9264 0.0
H460 H 0.84857 0.41714 0.17687 0.0
H461 H 0.86369 0.43394 0.48681 0.0
H462 H 0.86059 0.41512 0.58379 0.0
H463 H 0.87964 0.43332 0.60974 0.0
C464 C 0.85276 0.38025 0.00241 0.0
C465 C 0.86859 0.3835 0.98605 0.0
C466 C 0.84902 0.39257 0.97591 0.0
C467 C 0.86102 0.40829 0.93134 0.0
C468 C 0.87676 0.41149 0.91316 0.0
H469 H 0.87856 0.50044 0.16243 0.0
H470 H 0.87412 0.4732 0.15222 0.0
C471 C 0.8805 0.39923 0.93917 0.0
C472 C 0.85754 0.42173 0.91727 0.0
H473 H 0.86398 0.45439 0.66134 0.0
C474 C 0.85165 0.42512 0.06291 0.0
C475 C 0.86123 0.43197 0.76738 0.0
C476 C 0.86647 0.42831 0.60249 0.0
C477 C 0.85041 0.43907 0.06689 0.0
C478 C 0.85552 0.45006 0.92302 0.0
C479 C 0.86032 0.4461 0.77277 0.0
C480 C 0.85738 0.46632 0.93201 0.0
C481 C 0.84384 0.44204 0.226 0.0
C482 C 0.84976 0.4717 0.80859 0.0
C483 C 0.8524 0.48744 0.81293 0.0
C484 C 0.86284 0.49809 0.93993 0.0
C485 C 0.87038 0.49258 0.06341 0.0
C486 C 0.86774 0.47692 0.0588 0.0
H487 H 0.83622 0.43065 0.29997 0.0
H488 H 0.85392 0.45012 0.31352 0.0
H489 H 0.83666 0.44794 0.18988 0.0
H490 H 0.84185 0.46376 0.70837 0.0
H491 H 0.84647 0.49132 0.71543 0.0
H492 H 0.40157 0.87971 0.28739 0.0
H493 H 0.42335 0.8738 0.3394 0.0
H494 H 0.41384 0.85276 0.83438 0.0
H495 H 0.39173 0.8582 0.78336 0.0
H496 H 0.41921 0.8348 0.07753 0.0
H497 H 0.46705 0.89867 0.12939 0.0
H498 H 0.45147 0.89287 0.2818 0.0
H499 H 0.44694 0.89286 0.05225 0.0
C500 C 0.40408 0.87378 0.18753 0.0
C501 C 0.39497 0.86952 0.03075 0.0
C502 C 0.41662 0.87052 0.21696 0.0
C503 C 0.42049 0.86319 0.08909 0.0
C504 C 0.41114 0.85853 0.93441 0.0
H505 H 0.50968 0.86111 0.05608 0.0
H506 H 0.48764 0.86671 0.00361 0.0
C507 C 0.39849 0.86163 0.90557 0.0
C508 C 0.43418 0.86026 0.11681 0.0
H509 H 0.47446 0.87894 0.20993 0.0
C510 C 0.4313 0.84446 0.10586 0.0
C511 C 0.45002 0.87292 0.15063 0.0
C512 C 0.45412 0.8903 0.15248 0.0
C513 C 0.44375 0.84091 0.13098 0.0
C514 C 0.45944 0.85346 0.17263 0.0
C515 C 0.46239 0.86931 0.18022 0.0
C516 C 0.47299 0.8504 0.2079 0.0
C517 C 0.43999 0.8238 0.10929 0.0
C518 C 0.47221 0.83962 0.3422 0.0
C519 C 0.48478 0.83643 0.37233 0.0
C520 C 0.49853 0.84421 0.27117 0.0
C521 C 0.49945 0.85526 0.13912 0.0
C522 C 0.48679 0.85835 0.10799 0.0
H523 H 0.42889 0.81687 0.02861 0.0
H524 H 0.45001 0.82347 0.04807 0.0
H525 H 0.43809 0.81765 0.23893 0.0
H526 H 0.46187 0.83365 0.42378 0.0
H527 H 0.48379 0.82791 0.47556 0.0
H528 H 0.5223 0.37569 0.08512 0.0
H529 H 0.55022 0.39748 0.11464 0.0
H530 H 0.53413 0.43146 0.17978 0.0
H531 H 0.5063 0.40986 0.15303 0.0
H532 H 0.56655 0.42666 0.91163 0.0
H533 H 0.56414 0.43886 0.60461 0.0
H534 H 0.5496 0.42026 0.50487 0.0
H535 H 0.54843 0.43825 0.46427 0.0
C536 C 0.5247 0.38779 0.10651 0.0
C537 C 0.51204 0.39099 0.11811 0.0
C538 C 0.54065 0.40022 0.12298 0.0
C539 C 0.54421 0.41602 0.15222 0.0
C540 C 0.53163 0.41929 0.16105 0.0
H541 H 0.6325 0.50598 0.35168 0.0
H542 H 0.60466 0.48556 0.28776 0.0
C543 C 0.51572 0.40691 0.14492 0.0
C544 C 0.56108 0.42917 0.17172 0.0
H545 H 0.58769 0.45691 0.4567 0.0
C546 C 0.57123 0.43326 0.03083 0.0
C547 C 0.56706 0.43778 0.3272 0.0
C548 C 0.55682 0.43353 0.48462 0.0
C549 C 0.5872 0.44592 0.04043 0.0
C550 C 0.59323 0.45447 0.19651 0.0
C551 C 0.58303 0.45039 0.33706 0.0
C552 C 0.61023 0.46732 0.21963 0.0
C553 C 0.59735 0.45021 0.88228 0.0
C554 C 0.62262 0.46388 0.20286 0.0
C555 C 0.63856 0.47565 0.23553 0.0
C556 C 0.64246 0.49109 0.28712 0.0
C557 C 0.63003 0.49451 0.30469 0.0
C558 C 0.61406 0.48274 0.27085 0.0
H559 H 0.58987 0.44575 0.76144 0.0
H560 H 0.60534 0.46345 0.86795 0.0
H561 H 0.60493 0.44452 0.89607 0.0
H562 H 0.61995 0.45194 0.16903 0.0
H563 H 0.64784 0.47256 0.22306 0.0
H564 H 0.06087 0.42722 0.94377 0.0
H565 H 0.03505 0.40991 0.79792 0.0
H566 H 0.0157 0.38541 0.28617 0.0
H567 H 0.04136 0.40289 0.43425 0.0
H568 H 0.01492 0.37598 0.773 0.0
H569 H 0.98619 0.40332 0.1344 0.0
H570 H 0.00766 0.41286 0.11541 0.0
H571 H 0.99741 0.39593 0.26197 0.0
C572 C 0.05118 0.41805 0.02015 0.0
C573 C 0.05312 0.4166 0.20125 0.0
C574 C 0.03644 0.40815 0.93636 0.0
C575 C 0.02337 0.39663 0.03192 0.0
C576 C 0.02553 0.39449 0.21077 0.0
H577 H 0.92202 0.3461 0.71716 0.0
H578 H 0.94722 0.35373 0.87809 0.0
C579 C 0.04024 0.40444 0.29498 0.0
C580 C 0.0073 0.38765 0.94584 0.0
H581 H 0.97008 0.38376 0.93298 0.0
C582 C 0.00505 0.37756 0.80854 0.0
C583 C 0.99448 0.38978 0.99249 0.0
C584 C 0.99647 0.40112 0.13311 0.0
C585 C 0.9903 0.36955 0.71608 0.0
C586 C 0.97759 0.37198 0.76004 0.0
C587 C 0.97978 0.38181 0.89996 0.0
C588 C 0.96226 0.36537 0.65704 0.0
C589 C 0.98845 0.35846 0.57337 0.0
C590 C 0.96227 0.36914 0.47859 0.0
C591 C 0.94788 0.36469 0.38588 0.0
C592 C 0.93317 0.35658 0.47054 0.0
C593 C 0.93313 0.35234 0.64799 0.0
C594 C 0.94754 0.35671 0.74028 0.0
H595 H 0.99699 0.3539 0.59332 0.0
H596 H 0.97606 0.34802 0.56564 0.0
H597 H 0.99105 0.3652 0.44688 0.0
H598 H 0.97344 0.37616 0.41222 0.0
H599 H 0.94837 0.36822 0.24954 0.0
H600 H 0.54389 0.93466 0.41017 0.0
H601 H 0.56026 0.9639 0.37329 0.0
H602 H 0.58824 0.95798 0.99439 0.0
H603 H 0.57172 0.92869 0.0279 0.0
H604 H 0.59226 0.98337 0.43206 0.0
H605 H 0.5765 0.98867 0.73782 0.0
H606 H 0.56561 0.97032 0.86587 0.0
H607 H 0.58461 0.97554 0.77824 0.0
C608 C 0.55345 0.93955 0.31799 0.0
C609 C 0.55642 0.92932 0.22124 0.0
C610 C 0.56282 0.95628 0.29733 0.0
C611 C 0.57533 0.96313 0.17924 0.0
C612 C 0.57843 0.95297 0.08338 0.0
H613 H 0.64881 0.06595 0.19037 0.0
H614 H 0.63542 0.03643 0.20676 0.0
C615 C 0.56902 0.93622 0.10347 0.0
C616 C 0.5853 0.98092 0.16032 0.0
H617 H 0.59657 0.01253 0.86962 0.0
C618 C 0.59326 0.98975 0.30896 0.0
C619 C 0.58651 0.98922 0.99962 0.0
C620 C 0.57775 0.98049 0.83655 0.0
C621 C 0.60227 0.00666 0.30191 0.0
C622 C 0.60355 0.01495 0.14112 0.0
C623 C 0.59571 0.00612 0.99218 0.0
C624 C 0.61201 0.0328 0.12672 0.0
C625 C 0.60985 0.01551 0.46777 0.0
C626 C 0.60342 0.04053 0.07121 0.0
C627 C 0.61103 0.05732 0.0601 0.0
C628 C 0.62745 0.06677 0.10411 0.0
C629 C 0.63613 0.05901 0.15678 0.0
C630 C 0.62848 0.04216 0.16725 0.0
H631 H 0.60511 0.00749 0.58478 0.0
H632 H 0.62299 0.02032 0.46754 0.0
H633 H 0.60777 0.02582 0.47804 0.0
H634 H 0.59071 0.03355 0.03863 0.0
H635 H 0.60397 0.06287 0.01856 0.0
H636 H 0.57574 0.64306 0.15491 0.0
H637 H 0.59095 0.62913 0.20992 0.0
H638 H 0.58998 0.62185 0.66028 0.0
H639 H 0.57444 0.63548 0.60426 0.0
H640 H 0.57998 0.59412 0.85064 0.0
H641 H 0.63708 0.64182 0.13796 0.0
H642 H 0.61984 0.6392 0.24606 0.0
H643 H 0.62287 0.64619 0.02253 0.0
C644 C 0.57901 0.63877 0.04522 0.0
C645 C 0.57383 0.64035 0.87515 0.0
C646 C 0.5878 0.63087 0.07691 0.0
C647 C 0.59178 0.6246 0.93906 0.0
C648 C 0.58709 0.62664 0.76857 0.0
H649 H 0.6327 0.56115 0.92648 0.0
H650 H 0.62197 0.57891 0.84149 0.0
C651 C 0.57822 0.63445 0.73681 0.0
C652 C 0.59956 0.6147 0.97432 0.0
H653 H 0.63186 0.61472 0.17826 0.0
C654 C 0.59142 0.59868 0.92042 0.0
C655 C 0.61446 0.62065 0.06594 0.0
C656 C 0.62415 0.63795 0.12 0.0
C657 C 0.59751 0.58828 0.96042 0.0
C658 C 0.61226 0.59415 0.05479 0.0
C659 C 0.62053 0.61024 0.10642 0.0
C660 C 0.61909 0.58364 0.10524 0.0
C661 C 0.58782 0.57097 0.90642 0.0
C662 C 0.62138 0.58071 0.28163 0.0
C663 C 0.6276 0.57065 0.3307 0.0
C664 C 0.6317 0.56336 0.20411 0.0
C665 C 0.62956 0.56647 0.02729 0.0
C666 C 0.62337 0.57657 0.97839 0.0
H667 H 0.57516 0.56744 0.87285 0.0
H668 H 0.59313 0.56936 0.78985 0.0
H669 H 0.58797 0.56268 0.01142 0.0
H670 H 0.61819 0.58608 0.38157 0.0
H671 H 0.62913 0.56856 0.46797 0.0
H672 H 0.07345 0.66878 0.37343 0.0
H673 H 0.04538 0.66216 0.33063 0.0
H674 H 0.03045 0.61159 0.33311 0.0
H675 H 0.05815 0.61799 0.37872 0.0
H676 H 0.02421 0.64616 0.05945 0.0
H677 H 1.00016 0.61194 0.6759 0.0
H678 H 0.02129 0.62582 0.6477 0.0
H679 H 0.0121 0.60564 0.56909 0.0
C680 C 0.06414 0.65625 0.36652 0.0
C681 C 0.06803 0.64391 0.38046 0.0
C682 C 0.04813 0.6525 0.34212 0.0
C683 C 0.03579 0.63636 0.33256 0.0
C684 C 0.0397 0.62409 0.34529 0.0
H685 H 0.94683 0.58575 0.81023 0.0
H686 H 0.97471 0.60369 0.89588 0.0
C687 C 0.05561 0.6278 0.36999 0.0
C688 C 0.01885 0.63213 0.29919 0.0
H689 H 0.9811 0.60642 0.43919 0.0
C690 C 0.01478 0.63772 0.14403 0.0
C691 C 0.00656 0.62143 0.41145 0.0
C692 C 0.01024 0.616 0.58628 0.0
C693 C 0.99868 0.63196 0.09215 0.0
C694 C 0.98638 0.62001 0.19619 0.0
C695 C 0.99049 0.61537 0.35762 0.0
C696 C 0.96937 0.61098 0.13369 0.0
C697 C 0.99504 0.6386 0.92543 0.0
C698 C 0.95697 0.60897 0.23897 0.0
C699 C 0.94092 0.59847 0.19133 0.0
C700 C 0.93699 0.58972 0.03782 0.0
C701 C 0.94941 0.5923 0.92912 0.0
C702 C 0.96541 0.60272 0.9772 0.0
H703 H 0.00465 0.6512 0.8985 0.0
H704 H 0.99445 0.63127 0.81539 0.0
H705 H 0.98341 0.63833 0.93007 0.0
H706 H 0.95973 0.61513 0.36085 0.0
H707 H 0.93166 0.59676 0.278 0.0
H708 H 0.38575 0.95849 0.12832 0.0
H709 H 0.39163 0.98375 0.97863 0.0
H710 H 0.36635 0.95793 0.51822 0.0
H711 H 0.36068 0.93252 0.66604 0.0
H712 H 0.3958 0.98219 0.4476 0.0
H713 H 0.36606 0.00548 0.8455 0.0
H714 H 0.37876 1.00017 0.97553 0.0
H715 H 0.36148 0.98476 0.86182 0.0
C716 C 0.38118 0.95811 0.99619 0.0
C717 C 0.37281 0.94347 0.9089 0.0
C718 C 0.38445 0.9726 0.91116 0.0
C719 C 0.37924 0.97275 0.73792 0.0
C720 C 0.37039 0.95809 0.65232 0.0
H721 H 0.41205 0.05643 0.01231 0.0
H722 H 0.39556 0.0294 0.14044 0.0
C723 C 0.36716 0.94358 0.73711 0.0
C724 C 0.38454 0.9883 0.64135 0.0
H725 H 0.38711 0.02501 0.66371 0.0
C726 C 0.39364 0.99144 0.49278 0.0
C727 C 0.38176 1.0004 0.70086 0.0
C728 C 0.37134 0.99748 0.85366 0.0
C729 C 0.40075 0.00661 0.40757 0.0
C730 C 0.39843 0.01888 0.4707 0.0
C731 C 0.38887 0.01558 0.61562 0.0
C732 C 0.40691 0.03556 0.39653 0.0
C733 C 0.4115 0.00968 0.25738 0.0
C734 C 0.41819 0.04814 0.50005 0.0
C735 C 0.42751 0.0636 0.42785 0.0
C736 C 0.42571 0.0668 0.25052 0.0
C737 C 0.41382 0.05435 0.14902 0.0
C738 C 0.40446 0.03887 0.2217 0.0
H739 H 0.41423 0.99981 0.24458 0.0
H740 H 0.40553 0.01068 0.13441 0.0
H741 H 0.42297 0.02118 0.27345 0.0
H742 H 0.4202 0.04586 0.63555 0.0
H743 H 0.43647 0.07292 0.51009 0.0
H744 H 0.35706 0.43062 0.45008 0.0
H745 H 0.36521 0.41162 0.56752 0.0
H746 H 0.35192 0.38729 0.07947 0.0
H747 H 0.34403 0.4065 0.95915 0.0
H748 H 0.34987 0.37798 0.60769 0.0
H749 H 0.39937 0.40121 0.13898 0.0
H750 H 0.38862 0.41166 0.17525 0.0
H751 H 0.37957 0.39399 0.04611 0.0
C752 C 0.35571 0.42115 0.36789 0.0
C753 C 0.35011 0.42023 0.19433 0.0
C754 C 0.36034 0.41026 0.43555 0.0
C755 C 0.35947 0.39826 0.33114 0.0
C756 C 0.353 0.39669 0.16105 0.0
H757 H 0.41054 0.34531 0.55624 0.0
H758 H 0.39081 0.35195 0.42691 0.0
C759 C 0.34842 0.40762 0.09287 0.0
C760 C 0.36637 0.3882 0.39799 0.0
H761 H 0.39769 0.38184 0.34583 0.0
C762 C 0.36022 0.37866 0.54955 0.0
C763 C 0.37984 0.38908 0.32145 0.0
C764 C 0.38736 0.3996 0.16229 0.0
C765 C 0.36741 0.37025 0.6289 0.0
C766 C 0.38129 0.3717 0.55655 0.0
C767 C 0.38702 0.3807 0.40105 0.0
C768 C 0.39101 0.36529 0.64656 0.0
C769 C 0.36006 0.35992 0.78941 0.0
C770 C 0.39745 0.37029 0.81454 0.0
C771 C 0.40866 0.36644 0.88919 0.0
C772 C 0.41385 0.35771 0.79619 0.0
C773 C 0.40685 0.35208 0.63122 0.0
C774 C 0.39556 0.35587 0.55703 0.0
H775 H 0.34699 0.35556 0.79161 0.0
H776 H 0.36188 0.34936 0.79768 0.0
H777 H 0.36573 0.36719 0.90658 0.0
H778 H 0.39446 0.3779 0.88471 0.0
H779 H 0.41381 0.37098 0.01643 0.0
loop_
_geom_bond_atom_site_label_1
_geom_bond_atom_site_label_2
_geom_bond_distance
_geom_bond_site_symmetry_2
_ccdc_geom_bond_type
O0 Cd1 2.300 . S
O0 C7 1.275 . S
Cd1 O0 2.300 . S
Cd1 O9 2.381 . S
Cd1 O10 2.378 . S
O2 Cd3 2.385 . S
O2 C7 1.255 . S
Cd3 O2 2.385 . S
Cd3 O4 2.317 . S
O4 Cd3 2.317 . S
O4 C5 1.232 . S
C5 O4 1.232 . S
C5 O6 1.218 . S
O6 C5 1.218 . S
C7 O0 1.275 . S
C7 O2 1.255 . S
C8 O9 1.258 . S
C8 O10 1.256 . S
O9 Cd1 2.381 . S
O9 C8 1.258 . S
O10 Cd1 2.378 . S
O10 C8 1.256 . S
O11 Cd12 2.300 1_556 S
O11 C18 1.275 1_556 S
Cd12 O11 2.300 1_554 S
Cd12 O20 2.381 1_554 S
Cd12 O21 2.378 . S
O13 Cd14 2.385 . S
O13 C18 1.255 . S
Cd14 O13 2.385 . S
Cd14 O15 2.317 . S
O15 Cd14 2.317 . S
O15 C16 1.232 . S
C16 O15 1.232 . S
C16 O17 1.218 . S
O17 C16 1.218 . S
C18 O11 1.275 1_554 S
C18 O13 1.255 . S
C19 O20 1.258 1_554 S
C19 O21 1.256 . S
O20 Cd12 2.381 1_556 S
O20 C19 1.258 1_556 S
O21 Cd12 2.378 . S
O21 C19 1.256 . S
O22 Cd23 2.300 1_556 S
O22 C29 1.275 . S
Cd23 O22 2.300 1_554 S
Cd23 O31 2.381 . S
Cd23 O32 2.378 . S
O24 Cd25 2.385 . S
O24 C29 1.255 1_554 S
Cd25 O24 2.385 . S
Cd25 O26 2.317 . S
O26 Cd25 2.317 . S
O26 C27 1.232 . S
C27 O26 1.232 . S
C27 O28 1.218 . S
O28 C27 1.218 . S
C29 O22 1.275 . S
C29 O24 1.255 1_556 S
C30 O31 1.258 . S
C30 O32 1.256 . S
O31 Cd23 2.381 . S
O31 C30 1.258 . S
O32 Cd23 2.378 . S
O32 C30 1.256 . S
O33 Cd34 2.300 . S
O33 C40 1.275 . S
Cd34 O33 2.300 . S
Cd34 O42 2.381 . S
Cd34 O43 2.378 . S
O35 Cd36 2.385 . S
O35 C40 1.255 . S
Cd36 O35 2.385 . S
Cd36 O37 2.317 . S
O37 Cd36 2.317 . S
O37 C38 1.232 . S
C38 O37 1.232 . S
C38 O39 1.218 . S
O39 C38 1.218 . S
C40 O33 1.275 . S
C40 O35 1.255 . S
C41 O42 1.258 . S
C41 O43 1.256 . S
O42 Cd34 2.381 . S
O42 C41 1.258 . S
O43 Cd34 2.378 . S
O43 C41 1.256 . S
O44 Cd45 2.300 . S
O44 C51 1.275 . S
Cd45 O44 2.300 . S
Cd45 O53 2.381 . S
Cd45 O54 2.378 . S
O46 Cd47 2.385 . S
O46 C51 1.255 . S
Cd47 O46 2.385 . S
Cd47 O48 2.315 1_554 S
O48 Cd47 2.315 1_556 S
O48 C49 1.233 . S
C49 O48 1.233 . S
C49 O50 1.218 . S
O50 C49 1.218 . S
C51 O44 1.275 . S
C51 O46 1.255 . S
C52 O53 1.258 . S
C52 O54 1.256 . S
O53 Cd45 2.381 . S
O53 C52 1.258 . S
O54 Cd45 2.378 . S
O54 C52 1.256 . S
O55 Cd56 2.300 . S
O55 C62 1.275 . S
Cd56 O55 2.300 . S
Cd56 O64 2.381 . S
Cd56 O65 2.378 . S
O57 Cd58 2.385 . S
O57 C62 1.255 . S
Cd58 O57 2.385 . S
Cd58 O59 2.317 . S
O59 Cd58 2.317 . S
O59 C60 1.232 1_554 S
C60 O59 1.232 1_556 S
C60 O61 1.218 1_556 S
O61 C60 1.218 1_554 S
C62 O55 1.275 . S
C62 O57 1.255 . S
C63 O64 1.258 . S
C63 O65 1.256 . S
O64 Cd56 2.381 . S
O64 C63 1.258 . S
O65 Cd56 2.378 . S
O65 C63 1.256 . S
O66 Cd67 2.300 1_554 S
O66 C73 1.275 . S
Cd67 O66 2.300 1_556 S
Cd67 O75 2.381 . S
Cd67 O76 2.378 . S
O68 Cd69 2.385 . S
O68 C73 1.255 1_556 S
Cd69 O68 2.385 . S
Cd69 O70 2.317 . S
O70 Cd69 2.317 . S
O70 C71 1.232 . S
C71 O70 1.232 . S
C71 O72 1.218 . S
O72 C71 1.218 . S
C73 O66 1.275 . S
C73 O68 1.255 1_554 S
C74 O75 1.258 . S
C74 O76 1.256 . S
O75 Cd67 2.381 . S
O75 C74 1.258 . S
O76 Cd67 2.378 . S
O76 C74 1.256 . S
O77 Cd78 2.300 1_554 S
O77 C84 1.275 . S
Cd78 O77 2.300 1_556 S
Cd78 O86 2.381 . S
Cd78 O87 2.378 . S
O79 Cd80 2.385 . S
O79 C84 1.255 1_556 S
Cd80 O79 2.385 . S
Cd80 O81 2.317 . S
O81 Cd80 2.317 . S
O81 C82 1.232 . S
C82 O81 1.232 . S
C82 O83 1.218 . S
O83 C82 1.218 . S
C84 O77 1.275 . S
C84 O79 1.255 1_554 S
C85 O86 1.258 . S
C85 O87 1.256 . S
O86 Cd78 2.381 . S
O86 C85 1.258 . S
O87 Cd78 2.378 . S
O87 C85 1.256 . S
O88 Cd89 2.300 . S
O88 C95 1.275 . S
Cd89 O88 2.300 . S
Cd89 O97 2.381 . S
Cd89 O98 2.378 . S
O90 Cd91 2.385 . S
O90 C95 1.255 . S
Cd91 O90 2.385 . S
Cd91 O92 2.317 . S
O92 Cd91 2.317 . S
O92 C93 1.232 . S
C93 O92 1.232 . S
C93 O94 1.218 . S
O94 C93 1.218 . S
C95 O88 1.275 . S
C95 O90 1.255 . S
C96 O97 1.258 . S
C96 O98 1.256 . S
O97 Cd89 2.381 . S
O97 C96 1.258 . S
O98 Cd89 2.378 . S
O98 C96 1.256 . S
O99 Cd100 2.300 1_554 S
O99 C106 1.275 1_554 S
Cd100 O99 2.300 1_556 S
Cd100 O108 2.381 1_556 S
Cd100 O109 2.378 . S
O101 Cd102 2.385 . S
O101 C106 1.255 . S
Cd102 O101 2.385 . S
Cd102 O103 2.317 1_556 S
O103 Cd102 2.317 1_554 S
O103 C104 1.232 . S
C104 O103 1.232 . S
C104 O105 1.218 . S
O105 C104 1.218 . S
C106 O99 1.275 1_556 S
C106 O101 1.255 . S
C107 O108 1.258 1_556 S
C107 O109 1.256 . S
O108 Cd100 2.381 1_554 S
O108 C107 1.258 1_554 S
O109 Cd100 2.378 . S
O109 C107 1.256 . S
O110 Cd111 2.300 1_554 S
O110 C117 1.275 1_554 S
Cd111 O110 2.300 1_556 S
Cd111 O119 2.381 1_556 S
Cd111 O120 2.378 . S
O112 Cd113 2.385 . S
O112 C117 1.255 . S
Cd113 O112 2.385 . S
Cd113 O114 2.317 1_556 S
O114 Cd113 2.317 1_554 S
O114 C115 1.232 . S
C115 O114 1.232 . S
C115 O116 1.218 . S
O116 C115 1.218 . S
C117 O110 1.275 1_556 S
C117 O112 1.255 . S
C118 O119 1.258 . S
C118 O120 1.256 1_554 S
O119 Cd111 2.381 1_554 S
O119 C118 1.258 . S
O120 Cd111 2.378 . S
O120 C118 1.256 1_556 S
O121 Cd122 2.300 . S
O121 C128 1.275 . S
Cd122 O121 2.300 . S
Cd122 O130 2.381 . S
Cd122 O131 2.378 . S
O123 Cd124 2.385 1_554 S
O123 C128 1.255 . S
Cd124 O123 2.385 1_556 S
Cd124 O125 2.317 1_556 S
O125 Cd124 2.317 1_554 S
O125 C126 1.232 . S
C126 O125 1.232 . S
C126 O127 1.218 . S
O127 C126 1.218 . S
C128 O121 1.275 . S
C128 O123 1.255 . S
C129 O130 1.258 . S
C129 O131 1.256 . S
O130 Cd122 2.381 . S
O130 C129 1.258 . S
O131 Cd122 2.378 . S
O131 C129 1.256 . S
H132 C140 0.929 . S
H133 C142 0.930 . S
H134 C144 0.930 . S
H135 C147 0.929 . S
H136 C150 0.930 . S
H137 C152 0.960 . S
H138 C152 0.960 . S
H139 C152 0.960 . S
C140 H132 0.929 . S
C140 C141 1.377 . S
C140 C142 1.384 . S
C141 C140 1.377 . S
C141 C147 1.390 . S
C142 H133 0.930 . S
C142 C140 1.384 . S
C142 C143 1.372 . S
C143 C142 1.372 . S
C143 C144 1.400 . S
C143 C148 1.490 . S
C144 H134 0.930 . S
C144 C143 1.400 . S
C144 C147 1.386 . S
H145 C161 0.930 . S
H146 C162 0.931 . S
C147 H135 0.929 . S
C147 C141 1.390 . S
C147 C144 1.386 . S
C148 C143 1.490 . S
C148 C150 1.395 . S
C148 C151 1.403 . S
H149 C155 0.930 1_556 S
C150 H136 0.930 . S
C150 C148 1.395 . S
C150 C153 1.403 . S
C151 C148 1.403 . S
C151 C152 1.524 1_554 S
C151 C155 1.400 . S
C152 H137 0.960 . S
C152 H138 0.960 . S
C152 H139 0.960 . S
C152 C151 1.524 1_556 S
C153 C150 1.403 . S
C153 C154 1.392 . S
C153 C157 1.495 . S
C154 C153 1.392 . S
C154 C155 1.385 . S
C154 C156 1.478 . S
C155 H149 0.930 1_554 S
C155 C151 1.400 . S
C155 C154 1.385 . S
C156 C154 1.478 . S
C156 C158 1.381 . S
C156 C162 1.383 . S
C157 C153 1.495 . S
C157 H163 0.959 . S
C157 H164 0.961 . S
C157 H165 0.960 . S
C158 C156 1.381 . S
C158 C159 1.394 . S
C158 H166 0.930 . S
C159 C158 1.394 . S
C159 C160 1.383 . S
C159 H167 0.929 . S
C160 C159 1.383 . S
C160 C161 1.377 . S
C161 H145 0.930 . S
C161 C160 1.377 . S
C161 C162 1.379 . S
C162 H146 0.931 . S
C162 C156 1.383 . S
C162 C161 1.379 . S
H163 C157 0.959 . S
H164 C157 0.961 . S
H165 C157 0.960 . S
H166 C158 0.930 . S
H167 C159 0.929 . S
H168 C176 0.929 1_556 S
H169 C178 0.930 1_556 S
H170 C180 0.930 . S
H171 C183 0.929 . S
H172 C186 0.930 . S
H173 C188 0.960 . S
H174 C188 0.960 . S
H175 C188 0.960 . S
C176 H168 0.929 1_554 S
C176 C177 1.377 . S
C176 C178 1.384 . S
C177 C176 1.377 . S
C177 C183 1.390 . S
C178 H169 0.930 1_554 S
C178 C176 1.384 . S
C178 C179 1.372 . S
C179 C178 1.372 . S
C179 C180 1.400 . S
C179 C184 1.490 . S
C180 H170 0.930 . S
C180 C179 1.400 . S
C180 C183 1.386 . S
H181 C197 0.930 . S
H182 C198 0.931 . S
C183 H171 0.929 . S
C183 C177 1.390 . S
C183 C180 1.386 . S
C184 C179 1.490 . S
C184 C186 1.395 . S
C184 C187 1.403 1_554 S
H185 C191 0.930 . S
C186 H172 0.930 . S
C186 C184 1.395 . S
C186 C189 1.403 . S
C187 C184 1.403 1_556 S
C187 C188 1.524 . S
C187 C191 1.400 . S
C188 H173 0.960 . S
C188 H174 0.960 . S
C188 H175 0.960 . S
C188 C187 1.524 . S
C189 C186 1.403 . S
C189 C190 1.392 . S
C189 C193 1.495 . S
C190 C189 1.392 . S
C190 C191 1.385 1_554 S
C190 C192 1.478 . S
C191 H185 0.930 . S
C191 C187 1.400 . S
C191 C190 1.385 1_556 S
C192 C190 1.478 . S
C192 C194 1.381 1_554 S
C192 C198 1.383 . S
C193 C189 1.495 . S
C193 H199 0.959 . S
C193 H200 0.961 . S
C193 H201 0.960 . S
C194 C192 1.381 1_556 S
C194 C195 1.394 . S
C194 H202 0.930 . S
C195 C194 1.394 . S
C195 C196 1.383 1_556 S
C195 H203 0.929 . S
C196 C195 1.383 1_554 S
C196 C197 1.377 . S
C197 H181 0.930 . S
C197 C196 1.377 . S
C197 C198 1.379 . S
C198 H182 0.931 . S
C198 C192 1.383 . S
C198 C197 1.379 . S
H199 C193 0.959 . S
H200 C193 0.961 . S
H201 C193 0.960 . S
H202 C194 0.930 . S
H203 C195 0.929 . S
H204 C212 0.929 . S
H205 C214 0.930 . S
H206 C216 0.930 . S
H207 C219 0.929 1_554 S
H208 C222 0.930 . S
H209 C224 0.960 . S
H210 C224 0.960 . S
H211 C224 0.960 . S
C212 H204 0.929 . S
C212 C213 1.377 . S
C212 C214 1.384 . S
C213 C212 1.377 . S
C213 C219 1.390 . S
C214 H205 0.930 . S
C214 C212 1.384 . S
C214 C215 1.372 . S
C215 C214 1.372 . S
C215 C216 1.400 . S
C215 C220 1.490 . S
C216 H206 0.930 . S
C216 C215 1.400 . S
C216 C219 1.386 . S
H217 C233 0.930 . S
H218 C234 0.931 . S
C219 H207 0.929 1_556 S
C219 C213 1.390 . S
C219 C216 1.386 . S
C220 C215 1.490 . S
C220 C222 1.395 . S
C220 C223 1.403 . S
H221 C227 0.930 . S
C222 H208 0.930 . S
C222 C220 1.395 . S
C222 C225 1.403 . S
C223 C220 1.403 . S
C223 C224 1.524 . S
C223 C227 1.400 . S
C224 H209 0.960 . S
C224 H210 0.960 . S
C224 H211 0.960 . S
C224 C223 1.524 . S
C225 C222 1.403 . S
C225 C226 1.392 . S
C225 C229 1.495 . S
C226 C225 1.392 . S
C226 C227 1.385 . S
C226 C228 1.478 . S
C227 H221 0.930 . S
C227 C223 1.400 . S
C227 C226 1.385 . S
C228 C226 1.478 . S
C228 C230 1.381 . S
C228 C234 1.383 . S
C229 C225 1.495 . S
C229 H235 0.959 . S
C229 H236 0.961 . S
C229 H237 0.960 . S
C230 C228 1.381 . S
C230 C231 1.394 . S
C230 H238 0.930 . S
C231 C230 1.394 . S
C231 C232 1.383 . S
C231 H239 0.929 1_554 S
C232 C231 1.383 . S
C232 C233 1.377 . S
C233 H217 0.930 . S
C233 C232 1.377 . S
C233 C234 1.379 . S
C234 H218 0.931 . S
C234 C228 1.383 . S
C234 C233 1.379 . S
H235 C229 0.959 . S
H236 C229 0.961 . S
H237 C229 0.960 . S
H238 C230 0.930 . S
H239 C231 0.929 1_556 S
H240 C248 0.929 . S
H241 C250 0.930 . S
H242 C252 0.930 . S
H243 C255 0.929 . S
H244 C258 0.930 . S
H245 C260 0.960 . S
H246 C260 0.960 . S
H247 C260 0.960 . S
C248 H240 0.929 . S
C248 C249 1.377 . S
C248 C250 1.384 . S
C249 C248 1.377 . S
C249 C255 1.390 . S
C250 H241 0.930 . S
C250 C248 1.384 . S
C250 C251 1.372 . S
C251 C250 1.372 . S
C251 C252 1.400 . S
C251 C256 1.490 . S
C252 H242 0.930 . S
C252 C251 1.400 . S
C252 C255 1.386 . S
H253 C269 0.930 . S
H254 C270 0.931 . S
C255 H243 0.929 . S
C255 C249 1.390 . S
C255 C252 1.386 . S
C256 C251 1.490 . S
C256 C258 1.395 . S
C256 C259 1.403 . S
H257 C263 0.930 . S
C258 H244 0.930 . S
C258 C256 1.395 . S
C258 C261 1.403 . S
C259 C256 1.403 . S
C259 C260 1.524 . S
C259 C263 1.400 . S
C260 H245 0.960 . S
C260 H246 0.960 . S
C260 H247 0.960 . S
C260 C259 1.524 . S
C261 C258 1.403 . S
C261 C262 1.392 . S
C261 C265 1.495 . S
C262 C261 1.392 . S
C262 C263 1.385 . S
C262 C264 1.478 . S
C263 H257 0.930 . S
C263 C259 1.400 . S
C263 C262 1.385 . S
C264 C262 1.478 . S
C264 C266 1.381 . S
C264 C270 1.383 . S
C265 C261 1.495 . S
C265 H271 0.959 . S
C265 H272 0.961 1_556 S
C265 H273 0.960 . S
C266 C264 1.381 . S
C266 C267 1.394 . S
C266 H274 0.930 . S
C267 C266 1.394 . S
C267 C268 1.383 . S
C267 H275 0.929 . S
C268 C267 1.383 . S
C268 C269 1.377 . S
C269 H253 0.930 . S
C269 C268 1.377 . S
C269 C270 1.379 . S
C270 H254 0.931 . S
C270 C264 1.383 . S
C270 C269 1.379 . S
H271 C265 0.959 . S
H272 C265 0.961 1_554 S
H273 C265 0.960 . S
H274 C266 0.930 . S
H275 C267 0.929 . S
H276 C284 0.929 . S
H277 C286 0.930 . S
H278 C288 0.930 . S
H279 C291 0.929 . S
H280 C294 0.930 . S
H281 C296 0.960 . S
H282 C296 0.960 . S
H283 C296 0.960 . S
C284 H276 0.929 . S
C284 C285 1.377 . S
C284 C286 1.384 . S
C285 C284 1.377 . S
C285 C291 1.390 . S
C286 H277 0.930 . S
C286 C284 1.384 . S
C286 C287 1.372 . S
C287 C286 1.372 . S
C287 C288 1.400 . S
C287 C292 1.490 . S
C288 H278 0.930 . S
C288 C287 1.400 . S
C288 C291 1.386 . S
H289 C305 0.930 1_556 S
H290 C306 0.931 1_556 S
C291 H279 0.929 . S
C291 C285 1.390 . S
C291 C288 1.386 . S
C292 C287 1.490 . S
C292 C294 1.395 . S
C292 C295 1.403 . S
H293 C299 0.930 . S
C294 H280 0.930 . S
C294 C292 1.395 . S
C294 C297 1.403 . S
C295 C292 1.403 . S
C295 C296 1.524 . S
C295 C299 1.400 . S
C296 H281 0.960 . S
C296 H282 0.960 . S
C296 H283 0.960 . S
C296 C295 1.524 . S
C297 C294 1.403 . S
C297 C298 1.392 . S
C297 C301 1.495 . S
C298 C297 1.392 . S
C298 C299 1.385 . S
C298 C300 1.478 . S
C299 H293 0.930 . S
C299 C295 1.400 . S
C299 C298 1.385 . S
C300 C298 1.478 . S
C300 C302 1.381 . S
C300 C306 1.383 . S
C301 C297 1.495 . S
C301 H307 0.959 . S
C301 H308 0.961 . S
C301 H309 0.960 . S
C302 C300 1.381 . S
C302 C303 1.394 . S
C302 H310 0.930 . S
C303 C302 1.394 . S
C303 C304 1.383 . S
C303 H311 0.929 . S
C304 C303 1.383 . S
C304 C305 1.377 . S
C305 H289 0.930 1_554 S
C305 C304 1.377 . S
C305 C306 1.379 . S
C306 H290 0.931 1_554 S
C306 C300 1.383 . S
C306 C305 1.379 . S
H307 C301 0.959 . S
H308 C301 0.961 . S
H309 C301 0.960 . S
H310 C302 0.930 . S
H311 C303 0.929 . S
H312 C320 0.929 . S
H313 C322 0.930 . S
H314 C324 0.930 . S
H315 C327 0.929 . S
H316 C330 0.930 . S
H317 C332 0.960 . S
H318 C332 0.960 . S
H319 C332 0.960 . S
C320 H312 0.929 . S
C320 C321 1.377 1_556 S
C320 C322 1.384 . S
C321 C320 1.377 1_554 S
C321 C327 1.390 . S
C322 H313 0.930 . S
C322 C320 1.384 . S
C322 C323 1.372 1_556 S
C323 C322 1.372 1_554 S
C323 C324 1.400 . S
C323 C328 1.490 . S
C324 H314 0.930 . S
C324 C323 1.400 . S
C324 C327 1.386 . S
H325 C341 0.930 . S
H326 C342 0.931 . S
C327 H315 0.929 . S
C327 C321 1.390 . S
C327 C324 1.386 . S
C328 C323 1.490 . S
C328 C330 1.395 1_554 S
C328 C331 1.403 . S
H329 C335 0.930 . S
C330 H316 0.930 . S
C330 C328 1.395 1_556 S
C330 C333 1.403 . S
C331 C328 1.403 . S
C331 C332 1.524 . S
C331 C335 1.400 . S
C332 H317 0.960 . S
C332 H318 0.960 . S
C332 H319 0.960 . S
C332 C331 1.524 . S
C333 C330 1.403 . S
C333 C334 1.392 . S
C333 C337 1.495 . S
C334 C333 1.392 . S
C334 C335 1.385 1_556 S
C334 C336 1.478 . S
C335 H329 0.930 . S
C335 C331 1.400 . S
C335 C334 1.385 1_554 S
C336 C334 1.478 . S
C336 C338 1.381 . S
C336 C342 1.383 1_556 S
C337 C333 1.495 . S
C337 H343 0.959 . S
C337 H344 0.961 . S
C337 H345 0.960 . S
C338 C336 1.381 . S
C338 C339 1.394 . S
C338 H346 0.930 . S
C339 C338 1.394 . S
C339 C340 1.383 . S
C339 H347 0.929 . S
C340 C339 1.383 . S
C340 C341 1.377 1_556 S
C341 H325 0.930 . S
C341 C340 1.377 1_554 S
C341 C342 1.379 . S
C342 H326 0.931 . S
C342 C336 1.383 1_554 S
C342 C341 1.379 . S
H343 C337 0.959 . S
H344 C337 0.961 . S
H345 C337 0.960 . S
H346 C338 0.930 . S
H347 C339 0.929 . S
H348 C356 0.929 . S
H349 C358 0.930 . S
H350 C360 0.930 . S
H351 C363 0.929 . S
H352 C366 0.930 . S
H353 C368 0.960 . S
H354 C368 0.960 . S
H355 C368 0.960 . S
C356 H348 0.929 . S
C356 C357 1.377 . S
C356 C358 1.384 . S
C357 C356 1.377 . S
C357 C363 1.390 . S
C358 H349 0.930 . S
C358 C356 1.384 . S
C358 C359 1.372 . S
C359 C358 1.372 . S
C359 C360 1.400 . S
C359 C364 1.490 . S
C360 H350 0.930 . S
C360 C359 1.400 . S
C360 C363 1.386 . S
H361 C377 0.930 . S
H362 C378 0.931 . S
C363 H351 0.929 . S
C363 C357 1.390 . S
C363 C360 1.386 . S
C364 C359 1.490 . S
C364 C366 1.395 . S
C364 C367 1.403 . S
H365 C371 0.930 . S
C366 H352 0.930 . S
C366 C364 1.395 . S
C366 C369 1.403 . S
C367 C364 1.403 . S
C367 C368 1.524 . S
C367 C371 1.400 . S
C368 H353 0.960 . S
C368 H354 0.960 . S
C368 H355 0.960 . S
C368 C367 1.524 . S
C369 C366 1.403 . S
C369 C370 1.392 . S
C369 C373 1.495 . S
C370 C369 1.392 . S
C370 C371 1.385 . S
C370 C372 1.478 . S
C371 H365 0.930 . S
C371 C367 1.400 . S
C371 C370 1.385 . S
C372 C370 1.478 . S
C372 C374 1.381 . S
C372 C378 1.383 . S
C373 C369 1.495 . S
C373 H379 0.959 . S
C373 H380 0.961 . S
C373 H381 0.960 . S
C374 C372 1.381 . S
C374 C375 1.394 . S
C374 H382 0.930 . S
C375 C374 1.394 . S
C375 C376 1.383 . S
C375 H383 0.929 . S
C376 C375 1.383 . S
C376 C377 1.377 . S
C377 H361 0.930 . S
C377 C376 1.377 . S
C377 C378 1.379 . S
C378 H362 0.931 . S
C378 C372 1.383 . S
C378 C377 1.379 . S
H379 C373 0.959 . S
H380 C373 0.961 . S
H381 C373 0.960 . S
H382 C374 0.930 . S
H383 C375 0.929 . S
H384 C392 0.929 . S
H385 C394 0.930 . S
H386 C396 0.930 . S
H387 C399 0.929 . S
H388 C402 0.930 . S
H389 C404 0.960 . S
H390 C404 0.960 . S
H391 C404 0.960 . S
C392 H384 0.929 . S
C392 C393 1.374 1_554 S
C392 C394 1.384 . S
C393 C392 1.374 1_556 S
C393 C399 1.393 . S
C394 H385 0.930 . S
C394 C392 1.384 . S
C394 C395 1.372 . S
C395 C394 1.372 . S
C395 C396 1.400 1_554 S
C395 C400 1.490 . S
C396 H386 0.930 . S
C396 C395 1.400 1_556 S
C396 C399 1.386 . S
H397 C413 0.930 . S
H398 C414 0.931 . S
C399 H387 0.929 . S
C399 C393 1.393 . S
C399 C396 1.386 . S
C400 C395 1.490 . S
C400 C402 1.395 . S
C400 C403 1.403 1_554 S
H401 C407 0.930 . S
C402 H388 0.930 . S
C402 C400 1.395 . S
C402 C405 1.403 . S
C403 C400 1.403 1_556 S
C403 C404 1.524 . S
C403 C407 1.400 . S
C404 H389 0.960 . S
C404 H390 0.960 . S
C404 H391 0.960 . S
C404 C403 1.524 . S
C405 C402 1.403 . S
C405 C406 1.392 . S
C405 C409 1.495 . S
C406 C405 1.392 . S
C406 C407 1.385 1_554 S
C406 C408 1.478 . S
C407 H401 0.930 . S
C407 C403 1.400 . S
C407 C406 1.385 1_556 S
C408 C406 1.478 . S
C408 C410 1.381 . S
C408 C414 1.383 1_554 S
C409 C405 1.495 . S
C409 H415 0.959 . S
C409 H416 0.961 . S
C409 H417 0.960 . S
C410 C408 1.381 . S
C410 C411 1.394 . S
C410 H418 0.930 . S
C411 C410 1.394 . S
C411 C412 1.383 . S
C411 H419 0.929 . S
C412 C411 1.383 . S
C412 C413 1.377 1_554 S
C413 H397 0.930 . S
C413 C412 1.377 1_556 S
C413 C414 1.379 . S
C414 H398 0.931 . S
C414 C408 1.383 1_556 S
C414 C413 1.379 . S
H415 C409 0.959 . S
H416 C409 0.961 . S
H417 C409 0.960 . S
H418 C410 0.930 . S
H419 C411 0.929 . S
H420 C428 0.929 . S
H421 C430 0.930 . S
H422 C432 0.930 . S
H423 C435 0.929 . S
H424 C438 0.930 . S
H425 C440 0.960 . S
H426 C440 0.960 . S
H427 C440 0.960 . S
C428 H420 0.929 . S
C428 C429 1.377 . S
C428 C430 1.384 . S
C429 C428 1.377 . S
C429 C435 1.390 1_556 S
C430 H421 0.930 . S
C430 C428 1.384 . S
C430 C431 1.372 . S
C431 C430 1.372 . S
C431 C432 1.400 1_556 S
C431 C436 1.490 . S
C432 H422 0.930 . S
C432 C431 1.400 1_554 S
C432 C435 1.386 . S
H433 C449 0.930 . S
H434 C450 0.931 . S
C435 H423 0.929 . S
C435 C429 1.390 1_554 S
C435 C432 1.386 . S
C436 C431 1.490 . S
C436 C438 1.395 1_556 S
C436 C439 1.403 . S
H437 C443 0.930 . S
C438 H424 0.930 . S
C438 C436 1.395 1_554 S
C438 C441 1.403 . S
C439 C436 1.403 . S
C439 C440 1.524 . S
C439 C443 1.400 . S
C440 H425 0.960 . S
C440 H426 0.960 . S
C440 H427 0.960 . S
C440 C439 1.524 . S
C441 C438 1.403 . S
C441 C442 1.392 1_554 S
C441 C445 1.495 . S
C442 C441 1.392 1_556 S
C442 C443 1.385 . S
C442 C444 1.478 1_556 S
C443 H437 0.930 . S
C443 C439 1.400 . S
C443 C442 1.385 . S
C444 C442 1.478 1_554 S
C444 C446 1.381 1_554 S
C444 C450 1.383 . S
C445 C441 1.495 . S
C445 H451 0.959 . S
C445 H452 0.961 . S
C445 H453 0.960 . S
C446 C444 1.381 1_556 S
C446 C447 1.394 . S
C446 H454 0.930 . S
C447 C446 1.394 . S
C447 C448 1.383 1_556 S
C447 H455 0.929 . S
C448 C447 1.383 1_554 S
C448 C449 1.377 . S
C449 H433 0.930 . S
C449 C448 1.377 . S
C449 C450 1.379 . S
C450 H434 0.931 . S
C450 C444 1.383 . S
C450 C449 1.379 . S
H451 C445 0.959 . S
H452 C445 0.961 . S
H453 C445 0.960 . S
H454 C446 0.930 . S
H455 C447 0.929 . S
H456 C464 0.929 . S
H457 C466 0.930 . S
H458 C468 0.930 . S
H459 C471 0.929 . S
H460 C474 0.930 . S
H461 C476 0.960 . S
H462 C476 0.960 . S
H463 C476 0.960 . S
C464 H456 0.929 . S
C464 C465 1.377 . S
C464 C466 1.384 . S
C465 C464 1.377 . S
C465 C471 1.390 . S
C466 H457 0.930 . S
C466 C464 1.384 . S
C466 C467 1.372 . S
C467 C466 1.372 . S
C467 C468 1.400 . S
C467 C472 1.490 . S
C468 H458 0.930 . S
C468 C467 1.400 . S
C468 C471 1.386 . S
H469 C485 0.930 . S
H470 C486 0.931 . S
C471 H459 0.929 . S
C471 C465 1.390 . S
C471 C468 1.386 . S
C472 C467 1.490 . S
C472 C474 1.395 . S
C472 C475 1.403 1_554 S
H473 C479 0.930 1_556 S
C474 H460 0.930 . S
C474 C472 1.395 . S
C474 C477 1.403 . S
C475 C472 1.403 1_556 S
C475 C476 1.524 . S
C475 C479 1.400 1_556 S
C476 H461 0.960 . S
C476 H462 0.960 . S
C476 H463 0.960 . S
C476 C475 1.524 . S
C477 C474 1.403 . S
C477 C478 1.392 . S
C477 C481 1.495 . S
C478 C477 1.392 . S
C478 C479 1.385 . S
C478 C480 1.478 . S
C479 H473 0.930 1_554 S
C479 C475 1.400 1_554 S
C479 C478 1.385 . S
C480 C478 1.478 . S
C480 C482 1.381 . S
C480 C486 1.383 . S
C481 C477 1.495 . S
C481 H487 0.959 . S
C481 H488 0.961 . S
C481 H489 0.960 . S
C482 C480 1.381 . S
C482 C483 1.394 . S
C482 H490 0.930 . S
C483 C482 1.394 . S
C483 C484 1.383 . S
C483 H491 0.929 . S
C484 C483 1.383 . S
C484 C485 1.377 . S
C485 H469 0.930 . S
C485 C484 1.377 . S
C485 C486 1.379 . S
C486 H470 0.931 . S
C486 C480 1.383 . S
C486 C485 1.379 . S
H487 C481 0.959 . S
H488 C481 0.961 . S
H489 C481 0.960 . S
H490 C482 0.930 . S
H491 C483 0.929 . S
H492 C500 0.929 . S
H493 C502 0.930 . S
H494 C504 0.930 . S
H495 C507 0.929 . S
H496 C510 0.930 1_556 S
H497 C512 0.960 . S
H498 C512 0.960 . S
H499 C512 0.960 . S
C500 H492 0.929 . S
C500 C501 1.377 . S
C500 C502 1.384 . S
C501 C500 1.377 . S
C501 C507 1.390 1_554 S
C502 H493 0.930 . S
C502 C500 1.384 . S
C502 C503 1.372 . S
C503 C502 1.372 . S
C503 C504 1.400 1_554 S
C503 C508 1.490 . S
C504 H494 0.930 . S
C504 C503 1.400 1_556 S
C504 C507 1.386 . S
H505 C521 0.930 . S
H506 C522 0.931 . S
C507 H495 0.929 . S
C507 C501 1.390 1_556 S
C507 C504 1.386 . S
C508 C503 1.490 . S
C508 C510 1.395 . S
C508 C511 1.403 . S
H509 C515 0.930 . S
C510 H496 0.930 1_554 S
C510 C508 1.395 . S
C510 C513 1.403 . S
C511 C508 1.403 . S
C511 C512 1.524 . S
C511 C515 1.400 . S
C512 H497 0.960 . S
C512 H498 0.960 . S
C512 H499 0.960 . S
C512 C511 1.524 . S
C513 C510 1.403 . S
C513 C514 1.392 . S
C513 C517 1.495 1_554 S
C514 C513 1.392 . S
C514 C515 1.385 . S
C514 C516 1.478 . S
C515 H509 0.930 . S
C515 C511 1.400 . S
C515 C514 1.385 . S
C516 C514 1.478 . S
C516 C518 1.381 . S
C516 C522 1.383 1_554 S
C517 C513 1.495 1_556 S
C517 H523 0.959 . S
C517 H524 0.961 . S
C517 H525 0.960 1_556 S
C518 C516 1.381 . S
C518 C519 1.394 . S
C518 H526 0.930 . S
C519 C518 1.394 . S
C519 C520 1.383 . S
C519 H527 0.929 . S
C520 C519 1.383 . S
C520 C521 1.377 1_554 S
C521 H505 0.930 . S
C521 C520 1.377 1_556 S
C521 C522 1.379 . S
C522 H506 0.931 . S
C522 C516 1.383 1_556 S
C522 C521 1.379 . S
H523 C517 0.959 . S
H524 C517 0.961 . S
H525 C517 0.960 1_554 S
H526 C518 0.930 . S
H527 C519 0.929 . S
H528 C536 0.929 . S
H529 C538 0.930 . S
H530 C540 0.930 1_556 S
H531 C543 0.928 1_556 S
H532 C546 0.930 . S
H533 C548 0.960 . S
H534 C548 0.960 . S
H535 C548 0.960 . S
C536 H528 0.929 . S
C536 C537 1.377 . S
C536 C538 1.384 . S
C537 C536 1.377 . S
C537 C543 1.391 . S
C538 H529 0.930 . S
C538 C536 1.384 . S
C538 C539 1.372 . S
C539 C538 1.372 . S
C539 C540 1.400 . S
C539 C544 1.490 . S
C540 H530 0.930 1_554 S
C540 C539 1.400 . S
C540 C543 1.386 . S
H541 C557 0.930 . S
H542 C558 0.931 . S
C543 H531 0.928 1_554 S
C543 C537 1.391 . S
C543 C540 1.386 . S
C544 C539 1.490 . S
C544 C546 1.395 1_554 S
C544 C547 1.403 . S
H545 C551 0.930 . S
C546 H532 0.930 . S
C546 C544 1.395 1_556 S
C546 C549 1.403 . S
C547 C544 1.403 . S
C547 C548 1.524 . S
C547 C551 1.400 . S
C548 H533 0.960 . S
C548 H534 0.960 . S
C548 H535 0.960 . S
C548 C547 1.524 . S
C549 C546 1.403 . S
C549 C550 1.392 1_556 S
C549 C553 1.495 . S
C550 C549 1.392 1_554 S
C550 C551 1.385 . S
C550 C552 1.478 . S
C551 H545 0.930 . S
C551 C547 1.400 . S
C551 C550 1.385 . S
C552 C550 1.478 . S
C552 C554 1.381 . S
C552 C558 1.383 1_554 S
C553 C549 1.495 . S
C553 H559 0.959 . S
C553 H560 0.961 . S
C553 H561 0.960 . S
C554 C552 1.381 . S
C554 C555 1.394 . S
C554 H562 0.930 . S
C555 C554 1.394 . S
C555 C556 1.383 . S
C555 H563 0.929 . S
C556 C555 1.383 . S
C556 C557 1.377 1_554 S
C557 H541 0.930 . S
C557 C556 1.377 1_556 S
C557 C558 1.379 . S
C558 H542 0.931 . S
C558 C552 1.383 1_556 S
C558 C557 1.379 . S
H559 C553 0.959 . S
H560 C553 0.961 . S
H561 C553 0.960 . S
H562 C554 0.930 . S
H563 C555 0.929 . S
H564 C572 0.929 . S
H565 C574 0.930 . S
H566 C576 0.930 . S
H567 C579 0.929 . S
H568 C582 0.930 . S
H569 C584 0.960 . S
H570 C584 0.960 . S
H571 C584 0.960 . S
C572 H564 0.929 . S
C572 C573 1.377 1_556 S
C572 C574 1.384 . S
C573 C572 1.377 1_554 S
C573 C579 1.390 . S
C574 H565 0.930 . S
C574 C572 1.384 . S
C574 C575 1.372 . S
C575 C574 1.372 . S
C575 C576 1.400 1_556 S
C575 C580 1.490 . S
C576 H566 0.930 . S
C576 C575 1.400 1_554 S
C576 C579 1.386 . S
H577 C593 0.930 . S
H578 C594 0.931 . S
C579 H567 0.929 . S
C579 C573 1.390 . S
C579 C576 1.386 . S
C580 C575 1.490 . S
C580 C582 1.395 . S
C580 C583 1.403 . S
H581 C587 0.930 . S
C582 H568 0.930 . S
C582 C580 1.395 . S
C582 C585 1.403 1_455 S
C583 C580 1.403 . S
C583 C584 1.524 . S
C583 C587 1.400 1_455 S
C584 H569 0.960 . S
C584 H570 0.960 . S
C584 H571 0.960 . S
C584 C583 1.524 . S
C585 C582 1.403 1_655 S
C585 C586 1.392 . S
C585 C589 1.495 . S
C586 C585 1.392 . S
C586 C587 1.385 . S
C586 C588 1.478 . S
C587 H581 0.930 . S
C587 C583 1.400 1_655 S
C587 C586 1.385 . S
C588 C586 1.478 . S
C588 C590 1.381 . S
C588 C594 1.383 . S
C589 C585 1.495 . S
C589 H595 0.959 . S
C589 H596 0.961 . S
C589 H597 0.960 . S
C590 C588 1.381 . S
C590 C591 1.394 . S
C590 H598 0.930 . S
C591 C590 1.394 . S
C591 C592 1.383 . S
C591 H599 0.929 . S
C592 C591 1.383 . S
C592 C593 1.377 . S
C593 H577 0.930 . S
C593 C592 1.377 . S
C593 C594 1.379 . S
C594 H578 0.931 . S
C594 C588 1.383 . S
C594 C593 1.379 . S
H595 C589 0.959 . S
H596 C589 0.961 . S
H597 C589 0.960 . S
H598 C590 0.930 . S
H599 C591 0.929 . S
H600 C608 0.929 . S
H601 C610 0.930 . S
H602 C612 0.930 . S
H603 C615 0.929 . S
H604 C618 0.930 . S
H605 C620 0.960 . S
H606 C620 0.960 . S
H607 C620 0.960 . S
C608 H600 0.929 . S
C608 C609 1.377 . S
C608 C610 1.384 . S
C609 C608 1.377 . S
C609 C615 1.390 1_554 S
C610 H601 0.930 . S
C610 C608 1.384 . S
C610 C611 1.372 . S
C611 C610 1.372 . S
C611 C612 1.400 1_554 S
C611 C616 1.490 . S
C612 H602 0.930 . S
C612 C611 1.400 1_556 S
C612 C615 1.386 . S
H613 C629 0.930 . S
H614 C630 0.931 . S
C615 H603 0.929 . S
C615 C609 1.390 1_556 S
C615 C612 1.386 . S
C616 C611 1.490 . S
C616 C618 1.395 . S
C616 C619 1.403 1_554 S
H617 C623 0.930 . S
C618 H604 0.930 . S
C618 C616 1.395 . S
C618 C621 1.403 1_565 S
C619 C616 1.403 1_556 S
C619 C620 1.524 . S
C619 C623 1.400 1_565 S
C620 H605 0.960 . S
C620 H606 0.960 . S
C620 H607 0.960 . S
C620 C619 1.524 . S
C621 C618 1.403 1_545 S
C621 C622 1.392 . S
C621 C625 1.495 . S
C622 C621 1.392 . S
C622 C623 1.385 1_554 S
C622 C624 1.478 . S
C623 H617 0.930 . S
C623 C619 1.400 1_545 S
C623 C622 1.385 1_556 S
C624 C622 1.478 . S
C624 C626 1.381 . S
C624 C630 1.383 1_554 S
C625 C621 1.495 . S
C625 H631 0.959 . S
C625 H632 0.961 . S
C625 H633 0.960 . S
C626 C624 1.381 . S
C626 C627 1.394 . S
C626 H634 0.930 . S
C627 C626 1.394 . S
C627 C628 1.381 1_554 S
C627 H635 0.929 . S
C628 C627 1.381 1_556 S
C628 C629 1.379 . S
C629 H613 0.930 . S
C629 C628 1.379 . S
C629 C630 1.379 . S
C630 H614 0.931 . S
C630 C624 1.383 1_556 S
C630 C629 1.379 . S
H631 C625 0.959 . S
H632 C625 0.961 . S
H633 C625 0.960 . S
H634 C626 0.930 . S
H635 C627 0.929 . S
H636 C644 0.929 . S
H637 C646 0.930 . S
H638 C648 0.930 . S
H639 C651 0.929 . S
H640 C654 0.930 . S
H641 C656 0.960 . S
H642 C656 0.960 . S
H643 C656 0.960 1_556 S
C644 H636 0.929 . S
C644 C645 1.377 1_554 S
C644 C646 1.384 . S
C645 C644 1.377 1_556 S
C645 C651 1.390 . S
C646 H637 0.930 . S
C646 C644 1.384 . S
C646 C647 1.372 1_554 S
C647 C646 1.372 1_556 S
C647 C648 1.400 . S
C647 C652 1.490 . S
C648 H638 0.930 . S
C648 C647 1.400 . S
C648 C651 1.386 . S
H649 C665 0.930 . S
H650 C666 0.931 . S
C651 H639 0.929 . S
C651 C645 1.390 . S
C651 C648 1.386 . S
C652 C647 1.490 . S
C652 C654 1.395 . S
C652 C655 1.403 1_556 S
H653 C659 0.930 . S
C654 H640 0.930 . S
C654 C652 1.395 . S
C654 C657 1.403 . S
C655 C652 1.403 1_554 S
C655 C656 1.524 . S
C655 C659 1.400 . S
C656 H641 0.960 . S
C656 H642 0.960 . S
C656 H643 0.960 1_554 S
C656 C655 1.524 . S
C657 C654 1.403 . S
C657 C658 1.392 1_556 S
C657 C661 1.495 . S
C658 C657 1.392 1_554 S
C658 C659 1.385 . S
C658 C660 1.478 . S
C659 H653 0.930 . S
C659 C655 1.400 . S
C659 C658 1.385 . S
C660 C658 1.478 . S
C660 C662 1.381 . S
C660 C666 1.383 1_554 S
C661 C657 1.495 . S
C661 H667 0.959 . S
C661 H668 0.961 . S
C661 H669 0.960 1_556 S
C662 C660 1.381 . S
C662 C663 1.394 . S
C662 H670 0.930 . S
C663 C662 1.394 . S
C663 C664 1.383 . S
C663 H671 0.929 . S
C664 C663 1.383 . S
C664 C665 1.377 1_554 S
C665 H649 0.930 . S
C665 C664 1.377 1_556 S
C665 C666 1.379 . S
C666 H650 0.931 . S
C666 C660 1.383 1_556 S
C666 C665 1.379 . S
H667 C661 0.959 . S
H668 C661 0.961 . S
H669 C661 0.960 1_554 S
H670 C662 0.930 . S
H671 C663 0.929 . S
H672 C680 0.929 . S
H673 C682 0.930 . S
H674 C684 0.930 . S
H675 C687 0.929 . S
H676 C690 0.930 . S
H677 C692 0.929 1_655 S
H678 C692 0.960 . S
H679 C692 0.960 . S
C680 H672 0.929 . S
C680 C681 1.377 . S
C680 C682 1.384 . S
C681 C680 1.377 . S
C681 C687 1.390 . S
C682 H673 0.930 . S
C682 C680 1.384 . S
C682 C683 1.372 . S
C683 C682 1.372 . S
C683 C684 1.400 . S
C683 C688 1.490 . S
C684 H674 0.930 . S
C684 C683 1.400 . S
C684 C687 1.386 . S
H685 C701 0.930 . S
H686 C702 0.931 . S
C687 H675 0.929 . S
C687 C681 1.390 . S
C687 C684 1.386 . S
C688 C683 1.490 . S
C688 C690 1.395 . S
C688 C691 1.403 . S
H689 C695 0.930 . S
C690 H676 0.930 . S
C690 C688 1.395 . S
C690 C693 1.403 1_455 S
C691 C688 1.403 . S
C691 C692 1.524 . S
C691 C695 1.400 1_455 S
C692 H677 0.929 1_455 S
C692 H678 0.960 . S
C692 H679 0.960 . S
C692 C691 1.524 . S
C693 C690 1.403 1_655 S
C693 C694 1.392 . S
C693 C697 1.495 . S
C694 C693 1.392 . S
C694 C695 1.385 . S
C694 C696 1.478 . S
C695 H689 0.930 . S
C695 C691 1.400 1_655 S
C695 C694 1.385 . S
C696 C694 1.478 . S
C696 C698 1.381 . S
C696 C702 1.383 . S
C697 C693 1.495 . S
C697 H703 0.959 . S
C697 H704 0.961 1_554 S
C697 H705 0.960 . S
C698 C696 1.381 . S
C698 C699 1.394 . S
C698 H706 0.930 . S
C699 C698 1.394 . S
C699 C700 1.383 . S
C699 H707 0.929 . S
C700 C699 1.383 . S
C700 C701 1.377 . S
C701 H685 0.930 . S
C701 C700 1.377 . S
C701 C702 1.379 . S
C702 H686 0.931 . S
C702 C696 1.383 . S
C702 C701 1.379 . S
H703 C697 0.959 . S
H704 C697 0.961 1_556 S
H705 C697 0.960 . S
H706 C698 0.930 . S
H707 C699 0.929 . S
H708 C716 0.929 . S
H709 C718 0.930 . S
H710 C720 0.930 . S
H711 C723 0.929 . S
H712 C726 0.930 . S
H713 C728 1.024 . S
H714 C728 0.960 . S
H715 C728 0.960 . S
C716 H708 0.929 . S
C716 C717 1.377 . S
C716 C718 1.384 . S
C717 C716 1.377 . S
C717 C723 1.390 . S
C718 H709 0.930 . S
C718 C716 1.384 . S
C718 C719 1.372 . S
C719 C718 1.372 . S
C719 C720 1.400 . S
C719 C724 1.490 . S
C720 H710 0.930 . S
C720 C719 1.400 . S
C720 C723 1.386 . S
H721 C737 0.930 . S
H722 C738 0.931 . S
C723 H711 0.929 . S
C723 C717 1.390 . S
C723 C720 1.386 . S
C724 C719 1.490 . S
C724 C726 1.395 . S
C724 C727 1.403 . S
H725 C731 0.930 . S
C726 H712 0.930 . S
C726 C724 1.395 . S
C726 C729 1.400 1_565 S
C727 C724 1.403 . S
C727 C728 1.524 . S
C727 C731 1.400 1_565 S
C728 H713 1.024 . S
C728 H714 0.960 . S
C728 H715 0.960 . S
C728 C727 1.524 . S
C729 C726 1.400 1_545 S
C729 C730 1.397 . S
C729 C733 1.494 . S
C730 C729 1.397 . S
C730 C731 1.385 . S
C730 C732 1.478 . S
C731 H725 0.930 . S
C731 C727 1.400 1_545 S
C731 C730 1.385 . S
C732 C730 1.478 . S
C732 C734 1.381 . S
C732 C738 1.383 . S
C733 C729 1.494 . S
C733 H739 0.959 1_545 S
C733 H740 0.961 . S
C733 H741 0.960 . S
C734 C732 1.381 . S
C734 C735 1.394 . S
C734 H742 0.930 . S
C735 C734 1.394 . S
C735 C736 1.383 . S
C735 H743 0.929 . S
C736 C735 1.383 . S
C736 C737 1.377 . S
C737 H721 0.930 . S
C737 C736 1.377 . S
C737 C738 1.379 . S
C738 H722 0.931 . S
C738 C732 1.383 . S
C738 C737 1.379 . S
H739 C733 0.959 1_565 S
H740 C733 0.961 . S
H741 C733 0.960 . S
H742 C734 0.930 . S
H743 C735 0.929 . S
H744 C752 0.929 . S
H745 C754 0.930 . S
H746 C756 0.930 . S
H747 C759 0.929 . S
H748 C762 0.930 . S
H749 C764 0.960 . S
H750 C764 0.960 . S
H751 C764 0.960 . S
C752 H744 0.929 . S
C752 C753 1.377 . S
C752 C754 1.384 . S
C753 C752 1.377 . S
C753 C759 1.390 . S
C754 H745 0.930 . S
C754 C752 1.384 . S
C754 C755 1.372 . S
C755 C754 1.372 . S
C755 C756 1.400 . S
C755 C760 1.490 . S
C756 H746 0.930 . S
C756 C755 1.400 . S
C756 C759 1.386 . S
H757 C773 0.930 . S
H758 C774 0.931 . S
C759 H747 0.929 . S
C759 C753 1.390 . S
C759 C756 1.386 . S
C760 C755 1.490 . S
C760 C762 1.395 . S
C760 C763 1.403 . S
H761 C767 0.930 . S
C762 H748 0.930 . S
C762 C760 1.395 . S
C762 C765 1.403 . S
C763 C760 1.403 . S
C763 C764 1.524 . S
C763 C767 1.400 . S
C764 H749 0.960 . S
C764 H750 0.960 . S
C764 H751 0.960 . S
C764 C763 1.524 . S
C765 C762 1.403 . S
C765 C766 1.392 . S
C765 C769 1.495 . S
C766 C765 1.392 . S
C766 C767 1.385 . S
C766 C768 1.478 . S
C767 H761 0.930 . S
C767 C763 1.400 . S
C767 C766 1.385 . S
C768 C766 1.478 . S
C768 C770 1.381 . S
C768 C774 1.383 . S
C769 C765 1.495 . S
C769 H775 0.959 . S
C769 H776 0.961 . S
C769 H777 0.960 . S
C770 C768 1.381 . S
C770 C771 1.394 . S
C770 H778 0.930 . S
C771 C770 1.394 . S
C771 C772 1.383 . S
C771 H779 0.929 1_556 S
C772 C771 1.383 . S
C772 C773 1.377 . S
C773 H757 0.930 . S
C773 C772 1.377 . S
C773 C774 1.379 . S
C774 H758 0.931 . S
C774 C768 1.383 . S
C774 C773 1.379 . S
H775 C769 0.959 . S
H776 C769 0.961 . S
H777 C769 0.960 . S
H778 C770 0.930 . S
H779 C771 0.929 1_554 S
C141 C8 1.581 . S
C160 C118 1.578 . S
C177 C129 1.438 . S
C196 C19 1.426 . S
C213 C74 1.542 . S
C232 C30 1.548 . S
C249 C41 1.552 . S
C268 C85 1.574 . S
C285 C96 1.446 . S
C304 C52 1.451 . S
C321 C63 1.499 . S
C340 C107 1.487 . S
C357 C7 1.592 . S
C376 C95 1.529 . S
C393 C106 1.525 . S
C412 C18 1.511 . S
C429 C29 1.556 . S
C448 C117 1.607 1_554 S
C465 C128 1.547 . S
C484 C40 1.476 . S
C501 C51 1.516 . S
C520 C73 1.469 . S
C537 C62 1.532 . S
C556 C84 1.475 . S
C573 C5 1.463 . S
C592 C126 1.452 . S
C609 C71 1.096 1_554 S
C628 C16 1.101 1_556 S
C645 C27 1.171 1_556 S
C664 C82 1.148 1_554 S
C681 C93 1.183 . S
C700 C38 1.210 . S
C717 C49 1.294 . S
C736 C104 1.282 . S
C753 C115 1.395 . S
C772 C60 1.367 . S
