# Generated by pormake.
# Topology uog, (4)-cn, num edge types: 1
# Building blocks:
#     Node 0, Type 0, BuildingBlock: ESEHIV_clean_sbu_0, # of connection points: 4
#     Node 1, Type 0, BuildingBlock: ESEHIV_clean_sbu_0, # of connection points: 4
#     Node 2, Type 0, BuildingBlock: ESEHIV_clean_sbu_0, # of connection points: 4
#     Node 3, Type 0, BuildingBlock: ESEHIV_clean_sbu_0, # of connection points: 4
#     Node 4, Type 0, BuildingBlock: ESEHIV_clean_sbu_0, # of connection points: 4
#     Node 5, Type 0, BuildingBlock: ESEHIV_clean_sbu_0, # of connection points: 4
#     Edge 6, Type (0, 0), BuildingBlock: CIFDUS_clean_linker_0, # of connection points: 2
#     Edge 7, Type (0, 0), BuildingBlock: CIFDUS_clean_linker_0, # of connection points: 2
#     Edge 8, Type (0, 0), BuildingBlock: CIFDUS_clean_linker_0, # of connection points: 2
#     Edge 9, Type (0, 0), BuildingBlock: CIFDUS_clean_linker_0, # of connection points: 2
#     Edge 10, Type (0, 0), BuildingBlock: CIFDUS_clean_linker_0, # of connection points: 2
#     Edge 11, Type (0, 0), BuildingBlock: CIFDUS_clean_linker_0, # of connection points: 2
#     Edge 12, Type (0, 0), BuildingBlock: CIFDUS_clean_linker_0, # of connection points: 2
#     Edge 13, Type (0, 0), BuildingBlock: CIFDUS_clean_linker_0, # of connection points: 2
#     Edge 14, Type (0, 0), BuildingBlock: CIFDUS_clean_linker_0, # of connection points: 2
#     Edge 15, Type (0, 0), BuildingBlock: CIFDUS_clean_linker_0, # of connection points: 2
#     Edge 16, Type (0, 0), BuildingBlock: CIFDUS_clean_linker_0, # of connection points: 2
#     Edge 17, Type (0, 0), BuildingBlock: CIFDUS_clean_linker_0, # of connection points: 2
# Relax obj value: 0.018
# Max RMSD: 0.213
# Mean RMSD: 0.150
data_MOF--net-uog--node1-ESEHIV_clean_sbu_0--edge1-CIFDUS_clean_linker_0
_symmetry_space_group_name_H-M    P1
_symmetry_Int_Tables_number       1
_symmetry_cell_setting            triclinic
loop_
_symmetry_equiv_pos_as_xyz
'x, y, z'
_cell_length_a     25.796316
_cell_length_b     30.294341
_cell_length_c     39.720245
_cell_angle_alpha  89.941111
_cell_angle_beta   89.632838
_cell_angle_gamma 114.08716
loop_
_atom_site_label
_atom_site_type_symbol
_atom_site_fract_x
_atom_site_fract_y
_atom_site_fract_z
_atom_type_partial_charge
Cu0 Cu 0.55082 0.27824 0.17201 0.0
N1 N 0.50698 0.31396 0.16693 0.0
N2 N 0.48647 0.37877 0.16258 0.0
C3 C 0.52779 0.36256 0.1663 0.0
C4 C 0.43774 0.33839 0.16063 0.0
C5 C 0.45055 0.29855 0.16323 0.0
O6 O 0.59735 0.30092 0.21169 0.0
C7 C 0.57678 0.28616 0.10341 0.0
O8 O 0.52268 0.2774 0.10106 0.0
H9 H 0.57263 0.38532 0.16819 0.0
H10 H 0.42079 0.26109 0.16237 0.0
N11 N 0.50718 0.21206 0.17724 0.0
N12 N 0.4857 0.13264 0.1787 0.0
C13 C 0.52366 0.17671 0.16865 0.0
C14 C 0.45725 0.1898 0.19346 0.0
C15 C 0.44368 0.14079 0.19419 0.0
C16 C 0.57623 0.31107 0.23807 0.0
O17 O 0.52321 0.30611 0.23778 0.0
H18 H 0.5634 0.18348 0.15589 0.0
H19 H 0.43354 0.20805 0.20517 0.0
O20 O 0.59826 0.28811 0.1324 0.0
H21 H 0.39559 0.33741 0.1579 0.0
H22 H 0.40703 0.11361 0.20657 0.0
Cu23 Cu 0.32305 0.61052 0.5126 0.0
N24 N 0.33848 0.64916 0.47384 0.0
N25 N 0.36263 0.67432 0.42077 0.0
C26 C 0.35877 0.64083 0.44428 0.0
C27 C 0.3441 0.70493 0.43613 0.0
C28 C 0.32945 0.68942 0.46889 0.0
O29 O 0.36681 0.57093 0.51035 0.0
C30 C 0.20697 0.5915 0.51843 0.0
O31 O 0.2278 0.63876 0.52133 0.0
H32 H 0.36993 0.6105 0.44 0.0
H33 H 0.31349 0.70642 0.4878 0.0
N34 N 0.34491 0.64855 0.5514 0.0
N35 N 0.34704 0.67182 0.60499 0.0
C36 C 0.31831 0.63869 0.58156 0.0
C37 C 0.39187 0.68945 0.55586 0.0
C38 C 0.39341 0.70381 0.58894 0.0
C39 C 0.42072 0.59146 0.50706 0.0
O40 O 0.44523 0.6388 0.50463 0.0
H41 H 0.27911 0.6074 0.58634 0.0
H42 H 0.42293 0.70751 0.53645 0.0
O43 O 0.24123 0.57108 0.51481 0.0
H44 H 0.34251 0.73682 0.42472 0.0
H45 H 0.42554 0.73573 0.60015 0.0
Cu46 Cu 0.73567 0.28906 0.85455 0.0
N47 N 0.71695 0.22282 0.85488 0.0
N48 N 0.66001 0.14413 0.85242 0.0
C49 C 0.66793 0.18929 0.84306 0.0
C50 C 0.70614 0.14951 0.87071 0.0
C51 C 0.74107 0.19812 0.8723 0.0
O52 O 0.69655 0.30171 0.89255 0.0
C53 C 0.74438 0.31279 0.78669 0.0
O54 O 0.79183 0.30698 0.79003 0.0
H55 H 0.63674 0.19827 0.83005 0.0
H56 H 0.77937 0.21438 0.88696 0.0
N57 N 0.81336 0.32639 0.85919 0.0
N58 N 0.89398 0.39303 0.86202 0.0
C59 C 0.83673 0.37488 0.86147 0.0
C60 C 0.85718 0.31314 0.85824 0.0
C61 C 0.90703 0.35422 0.86013 0.0
C62 C 0.7154 0.29924 0.9217 0.0
O63 O 0.76112 0.29053 0.92425 0.0
H64 H 0.81195 0.39634 0.86225 0.0
H65 H 0.85339 0.27652 0.85512 0.0
O66 O 0.71174 0.30619 0.81212 0.0
H67 H 0.71312 0.12063 0.88316 0.0
H68 H 0.94953 0.35547 0.85885 0.0
Cu69 Cu 0.50233 0.76073 0.16608 0.0
N70 N 0.54743 0.7257 0.16499 0.0
N71 N 0.56882 0.66127 0.16536 0.0
C72 C 0.52725 0.67729 0.16797 0.0
C73 C 0.61714 0.70125 0.16045 0.0
C74 C 0.60374 0.74096 0.15997 0.0
O75 O 0.45039 0.73769 0.20445 0.0
C76 C 0.42032 0.7526 0.11417 0.0
O77 O 0.38836 0.7594 0.13772 0.0
H78 H 0.48282 0.65437 0.17219 0.0
H79 H 0.63286 0.77812 0.15568 0.0
N80 N 0.5449 0.82686 0.17233 0.0
N81 N 0.56547 0.90602 0.17543 0.0
C82 C 0.52771 0.86223 0.16511 0.0
C83 C 0.59502 0.84883 0.18797 0.0
C84 C 0.608 0.89766 0.18971 0.0
C85 C 0.47275 0.73286 0.232 0.0
O86 O 0.5273 0.74278 0.23236 0.0
H87 H 0.48774 0.8557 0.15307 0.0
H88 H 0.61935 0.83047 0.19857 0.0
O89 O 0.46736 0.7514 0.12207 0.0
H90 H 0.65892 0.70165 0.15664 0.0
H91 H 0.64473 0.92454 0.20188 0.0
Cu92 Cu 0.75051 0.45906 0.50934 0.0
N93 N 0.73719 0.42149 0.47055 0.0
N94 N 0.7078 0.39169 0.4194 0.0
C95 C 0.71168 0.42605 0.44209 0.0
C96 C 0.73175 0.36456 0.43415 0.0
C97 C 0.74957 0.38288 0.46574 0.0
O98 O 0.70661 0.49861 0.50752 0.0
C99 C 0.86635 0.47801 0.5179 0.0
O100 O 0.84547 0.43089 0.52191 0.0
H101 H 0.69602 0.4538 0.4382 0.0
H102 H 0.76889 0.36826 0.48421 0.0
N103 N 0.72548 0.41781 0.54644 0.0
N104 N 0.7191 0.38695 0.59807 0.0
C105 C 0.749 0.42391 0.57718 0.0
C106 C 0.67952 0.37546 0.5479 0.0
C107 C 0.67528 0.35645 0.57981 0.0
C108 C 0.65267 0.47819 0.50484 0.0
O109 O 0.628 0.43088 0.50253 0.0
H110 H 0.78714 0.45482 0.58408 0.0
H111 H 0.65143 0.35926 0.52706 0.0
O112 O 0.83227 0.49822 0.5128 0.0
H113 H 0.73434 0.33272 0.42334 0.0
H114 H 0.64344 0.32225 0.58864 0.0
Cu115 Cu 0.3063 0.75119 0.86296 0.0
N116 N 0.32896 0.81754 0.85738 0.0
N117 N 0.38785 0.89587 0.85652 0.0
C118 C 0.37872 0.85134 0.86799 0.0
C119 C 0.34175 0.88978 0.83795 0.0
C120 C 0.30553 0.84134 0.83847 0.0
O121 O 0.33403 0.74071 0.90623 0.0
C122 C 0.30336 0.72216 0.79684 0.0
O123 O 0.25747 0.73081 0.79812 0.0
H124 H 0.40908 0.84292 0.88231 0.0
H125 H 0.26611 0.82444 0.8249 0.0
N126 N 0.22775 0.71777 0.86599 0.0
N127 N 0.14465 0.65382 0.87042 0.0
C128 C 0.20147 0.66933 0.86753 0.0
C129 C 0.18632 0.73385 0.8681 0.0
C130 C 0.13478 0.69431 0.87064 0.0
C131 C 0.38377 0.74552 0.91393 0.0
O132 O 0.4229 0.75586 0.89031 0.0
H133 H 0.22389 0.64598 0.8662 0.0
H134 H 0.19306 0.7715 0.86812 0.0
O135 O 0.3329 0.72791 0.82343 0.0
H136 H 0.33515 0.91803 0.82439 0.0
H137 H 0.09349 0.69536 0.87312 0.0
H138 H 0.58283 0.11896 0.17535 0.0
H139 H 0.40036 0.04316 0.17653 0.0
H140 H 0.40882 0.96578 0.17477 0.0
H141 H 0.46811 0.91957 0.1746 0.0
H142 H 0.65057 0.99556 0.17305 0.0
H143 H 0.64201 0.07289 0.17311 0.0
C144 C 0.54486 0.08562 0.17473 0.0
C145 C 0.49099 0.08707 0.17611 0.0
C146 C 0.55005 0.04119 0.17382 0.0
C147 C 0.44233 0.04322 0.17591 0.0
C148 C 0.44714 0.99891 0.17475 0.0
C149 C 0.50602 0.95297 0.1738 0.0
C150 C 0.55995 0.95158 0.17389 0.0
C151 C 0.50079 0.99743 0.17394 0.0
C152 C 0.60857 0.99545 0.17343 0.0
C153 C 0.60371 0.03974 0.17332 0.0
H154 H 0.53614 0.62602 0.50548 0.0
H155 H 0.38495 0.49288 0.50695 0.0
H156 H 0.44343 0.44651 0.50594 0.0
H157 H 0.53729 0.44372 0.50503 0.0
H158 H 0.68852 0.57682 0.50452 0.0
H159 H 0.63005 0.62322 0.50474 0.0
C160 C 0.51582 0.58684 0.50552 0.0
C161 C 0.45604 0.56304 0.50626 0.0
C162 C 0.54974 0.56039 0.50514 0.0
C163 C 0.43073 0.51222 0.50642 0.0
C164 C 0.46419 0.48566 0.50583 0.0
C165 C 0.55762 0.4829 0.5049 0.0
C166 C 0.61741 0.50668 0.50472 0.0
C167 C 0.52372 0.50935 0.50524 0.0
C168 C 0.64274 0.5575 0.50468 0.0
C169 C 0.60928 0.58407 0.5048 0.0
H170 H 1.00076 0.43056 0.88588 0.0
H171 H 0.87485 0.46923 0.83872 0.0
H172 H 0.94085 0.55416 0.83845 0.0
H173 H 0.03575 0.61739 0.8498 0.0
H174 H 0.16171 0.57835 0.8965 0.0
H175 H 0.09478 0.49376 0.89819 0.0
C176 C 0.98787 0.4575 0.87536 0.0
C177 C 0.93285 0.44335 0.86238 0.0
C178 C 1.02623 0.50632 0.875 0.0
C179 C 0.91659 0.47898 0.84932 0.0
C180 C 0.95448 0.52763 0.84894 0.0
C181 C 0.04831 0.59045 0.86067 0.0
C182 C 0.10384 0.60426 0.87276 0.0
C183 C 1.00951 0.54172 0.86159 0.0
C184 C 0.11961 0.56871 0.88646 0.0
C185 C 0.08124 0.52029 0.88761 0.0
H186 H 0.1246 0.62598 0.51811 0.0
H187 H 0.14829 0.49293 0.51978 0.0
H188 H 0.04535 0.44649 0.52038 0.0
H189 H 0.94871 0.4436 0.51998 0.0
H190 H 0.92501 0.57661 0.51696 0.0
H191 H 0.02794 0.62308 0.51738 0.0
C192 C 0.10737 0.5868 0.51868 0.0
C193 C 0.14438 0.56304 0.51895 0.0
C194 C 0.04808 0.5603 0.51876 0.0
C195 C 0.12101 0.51223 0.51952 0.0
C196 C 0.06208 0.48563 0.51989 0.0
C197 C 0.96593 0.48278 0.51951 0.0
C198 C 0.92892 0.50651 0.51851 0.0
C199 C 1.02521 0.50928 0.51946 0.0
C200 C 0.95229 0.55732 0.51771 0.0
C201 C 1.01122 0.58394 0.51796 0.0
H202 H 0.43083 0.97205 0.81384 0.0
H203 H 0.4599 0.91789 0.90914 0.0
H204 H 0.54833 0.98952 0.91574 0.0
H205 H 0.61706 0.06789 0.89476 0.0
H206 H 0.58798 0.12281 0.79984 0.0
H207 H 0.49953 0.05087 0.79295 0.0
C208 C 0.45612 0.97615 0.83623 0.0
C209 C 0.43865 0.93947 0.86091 0.0
C210 C 0.50702 1.01756 0.8399 0.0
C211 C 0.47259 0.94518 0.88954 0.0
C212 C 0.52312 0.98624 0.8934 0.0
C213 C 0.5918 0.06385 0.87236 0.0
C214 C 0.60927 0.10062 0.84778 0.0
C215 C 0.5409 1.02255 0.86868 0.0
C216 C 0.57529 0.0952 0.81923 0.0
C217 C 0.52478 0.05404 0.81526 0.0
H218 H 0.4786 0.58238 0.14526 0.0
H219 H 0.64504 0.62871 0.18885 0.0
H220 H 0.63412 0.54474 0.19211 0.0
H221 H 0.57666 0.4584 0.18344 0.0
H222 H 0.41132 0.41245 0.13783 0.0
H223 H 0.42195 0.49595 0.13537 0.0
C224 C 0.51228 0.57406 0.15572 0.0
C225 C 0.56249 0.61176 0.16692 0.0
C226 C 0.50578 0.52575 0.15736 0.0
C227 C 0.60621 0.60043 0.1798 0.0
C228 C 0.59984 0.5524 0.18182 0.0
C229 C 0.54306 0.46638 0.17257 0.0
C230 C 0.49313 0.42856 0.16092 0.0
C231 C 0.54979 0.51476 0.17067 0.0
C232 C 0.4499 0.44026 0.14749 0.0
C233 C 0.45607 0.48823 0.14584 0.0
H234 H 0.74911 0.30088 0.98632 0.0
H235 H 0.61143 0.30329 0.92622 0.0
H236 H 0.55707 0.30089 0.97735 0.0
H237 H 0.54699 0.29423 0.03893 0.0
H238 H 0.68503 0.29189 0.09877 0.0
H239 H 0.74095 0.29818 0.04778 0.0
C240 C 0.70733 0.30115 0.98434 0.0
C241 C 0.68422 0.30193 0.95247 0.0
C242 C 0.67627 0.29951 0.01377 0.0
C243 C 0.6302 0.30265 0.95043 0.0
C244 C 0.59901 0.30112 0.97965 0.0
C245 C 0.58937 0.29522 0.04085 0.0
C246 C 0.61161 0.29222 0.07262 0.0
C247 C 0.62134 0.29888 1.01143 0.0
C248 C 0.6668 0.29402 0.07465 0.0
C249 C 0.69881 0.29757 0.0455 0.0
H250 H 0.4974 0.69151 0.28616 0.0
H251 H 0.37524 0.74336 0.24967 0.0
H252 H 0.3291 0.72886 0.30528 0.0
H253 H 0.32736 0.70562 0.36536 0.0
H254 H 0.44871 0.65194 0.40039 0.0
H255 H 0.49125 0.66274 0.34422 0.0
C256 C 0.4604 0.69935 0.29028 0.0
C257 C 0.44007 0.71892 0.26395 0.0
C258 C 0.43421 0.69079 0.32211 0.0
C259 C 0.39163 0.72821 0.26953 0.0
C260 C 0.3655 0.72019 0.30137 0.0
C261 C 0.36306 0.69629 0.36057 0.0
C262 C 0.38516 0.67833 0.38705 0.0
C263 C 0.38705 0.70225 0.32802 0.0
C264 C 0.43078 0.66555 0.38042 0.0
C265 C 0.45527 0.67193 0.34835 0.0
H266 H 0.81697 0.35843 0.73616 0.0
H267 H 0.63921 0.29824 0.76312 0.0
H268 H 0.6155 0.31677 0.70671 0.0
H269 H 0.64554 0.34755 0.64903 0.0
H270 H 0.82363 0.41019 0.6233 0.0
H271 H 0.84727 0.39365 0.6801 0.0
C272 C 0.77302 0.34943 0.72971 0.0
C273 C 0.72981 0.32656 0.75357 0.0
C274 C 0.75991 0.36067 0.69751 0.0
C275 C 0.67317 0.31583 0.74511 0.0
C276 C 0.65963 0.32628 0.71287 0.0
C277 C 0.68944 0.35751 0.65599 0.0
C278 C 0.73282 0.37973 0.63208 0.0
C279 C 0.70263 0.34823 0.68877 0.0
C280 C 0.78965 0.39333 0.64141 0.0
C281 C 0.8031 0.38364 0.67377 0.0
H282 H 0.3177 0.74098 0.96866 0.0
H283 H 0.48214 0.74655 0.94034 0.0
H284 H 0.50694 0.74758 0.99975 0.0
H285 H 0.4831 0.74944 0.05955 0.0
H286 H 0.31979 0.74652 0.08774 0.0
H287 H 0.29345 0.74189 0.02843 0.0
C288 C 0.35889 0.74208 0.97539 0.0
C289 C 0.39799 0.74362 0.94994 0.0
C290 C 0.37316 0.74336 1.00958 0.0
C291 C 0.45123 0.74536 0.9593 0.0
C292 C 0.46546 0.746 0.9933 0.0
C293 C 0.44158 0.74756 0.05281 0.0
C294 C 0.40348 0.74834 0.07821 0.0
C295 C 0.42694 0.74541 0.01863 0.0
C296 C 0.35001 0.74608 0.06884 0.0
C297 C 0.3349 0.74341 0.03489 0.0
H298 H 0.73753 0.35643 0.36402 0.0
H299 H 0.61563 0.40771 0.4026 0.0
H300 H 0.56486 0.38853 0.34918 0.0
H301 H 0.55284 0.35388 0.29248 0.0
H302 H 0.6756 0.30372 0.25331 0.0
H303 H 0.72833 0.32564 0.30603 0.0
C304 C 0.69983 0.36332 0.36066 0.0
C305 C 0.68014 0.38317 0.38723 0.0
C306 C 0.67096 0.35225 0.32987 0.0
C307 C 0.63184 0.3928 0.38242 0.0
C308 C 0.60262 0.38156 0.35197 0.0
C309 C 0.5912 0.34782 0.29544 0.0
C310 C 0.60999 0.3268 0.26915 0.0
C311 C 0.62145 0.36078 0.32568 0.0
C312 C 0.66019 0.31979 0.27319 0.0
C313 C 0.69029 0.3322 0.30335 0.0
H314 H 0.23597 0.68079 0.74403 0.0
H315 H 0.41048 0.73551 0.77582 0.0
H316 H 0.43974 0.72373 0.71881 0.0
H317 H 0.41569 0.70238 0.65891 0.0
H318 H 0.24046 0.64601 0.62848 0.0
H319 H 0.21133 0.65374 0.68601 0.0
C320 C 0.28042 0.6898 0.73859 0.0
C321 C 0.32109 0.70942 0.76402 0.0
C322 C 0.29672 0.68289 0.70593 0.0
C323 C 0.37836 0.72027 0.75669 0.0
C324 C 0.39509 0.71383 0.72406 0.0
C325 C 0.37119 0.69179 0.665 0.0
C326 C 0.33027 0.674 0.63943 0.0
C327 C 0.35472 0.69599 0.69831 0.0
C328 C 0.27264 0.65954 0.64771 0.0
C329 C 0.25602 0.66416 0.68057 0.0
loop_
_geom_bond_atom_site_label_1
_geom_bond_atom_site_label_2
_geom_bond_distance
_geom_bond_site_symmetry_2
_ccdc_geom_bond_type
Cu0 N1 1.999 . S
Cu0 O6 1.974 . S
Cu0 N11 1.985 . S
Cu0 O20 1.959 . S
N1 Cu0 1.999 . S
N1 C3 1.263 . S
N1 C5 1.389 . S
N2 C3 1.358 . S
N2 C4 1.400 . S
C3 N1 1.263 . S
C3 N2 1.358 . S
C3 H9 0.930 . S
C4 N2 1.400 . S
C4 C5 1.351 . S
C4 H21 0.930 . S
C5 N1 1.389 . S
C5 C4 1.351 . S
C5 H10 0.930 . S
O6 Cu0 1.974 . S
O6 C16 1.282 . S
C7 O8 1.261 . S
C7 O20 1.251 . S
O8 C7 1.261 . S
H9 C3 0.930 . S
H10 C5 0.930 . S
N11 Cu0 1.985 . S
N11 C13 1.335 . S
N11 C14 1.390 . S
N12 C13 1.345 . S
N12 C15 1.336 . S
C13 N11 1.335 . S
C13 N12 1.345 . S
C13 H18 0.930 . S
C14 N11 1.390 . S
C14 C15 1.346 . S
C14 H19 0.930 . S
C15 N12 1.336 . S
C15 C14 1.346 . S
C15 H22 0.929 . S
C16 O6 1.282 . S
C16 O17 1.216 . S
O17 C16 1.216 . S
H18 C13 0.930 . S
H19 C14 0.930 . S
O20 Cu0 1.959 . S
O20 C7 1.251 . S
H21 C4 0.930 . S
H22 C15 0.929 . S
Cu23 N24 1.999 . S
Cu23 O29 1.974 . S
Cu23 N34 1.985 . S
Cu23 O43 1.959 . S
N24 Cu23 1.999 . S
N24 C26 1.263 . S
N24 C28 1.389 . S
N25 C26 1.358 . S
N25 C27 1.400 . S
C26 N24 1.263 . S
C26 N25 1.358 . S
C26 H32 0.930 . S
C27 N25 1.400 . S
C27 C28 1.351 . S
C27 H44 0.930 . S
C28 N24 1.389 . S
C28 C27 1.351 . S
C28 H33 0.930 . S
O29 Cu23 1.974 . S
O29 C39 1.282 . S
C30 O31 1.261 . S
C30 O43 1.251 . S
O31 C30 1.261 . S
H32 C26 0.930 . S
H33 C28 0.930 . S
N34 Cu23 1.985 . S
N34 C36 1.335 . S
N34 C37 1.390 . S
N35 C36 1.345 . S
N35 C38 1.336 . S
C36 N34 1.335 . S
C36 N35 1.345 . S
C36 H41 0.930 . S
C37 N34 1.390 . S
C37 C38 1.346 . S
C37 H42 0.930 . S
C38 N35 1.336 . S
C38 C37 1.346 . S
C38 H45 0.929 . S
C39 O29 1.282 . S
C39 O40 1.216 . S
O40 C39 1.216 . S
H41 C36 0.930 . S
H42 C37 0.930 . S
O43 Cu23 1.959 . S
O43 C30 1.251 . S
H44 C27 0.930 . S
H45 C38 0.929 . S
Cu46 N47 1.999 . S
Cu46 O52 1.974 . S
Cu46 N57 1.985 . S
Cu46 O66 1.959 . S
N47 Cu46 1.999 . S
N47 C49 1.263 . S
N47 C51 1.389 . S
N48 C49 1.358 . S
N48 C50 1.400 . S
C49 N47 1.263 . S
C49 N48 1.358 . S
C49 H55 0.930 . S
C50 N48 1.400 . S
C50 C51 1.351 . S
C50 H67 0.930 . S
C51 N47 1.389 . S
C51 C50 1.351 . S
C51 H56 0.930 . S
O52 Cu46 1.974 . S
O52 C62 1.282 . S
C53 O54 1.261 . S
C53 O66 1.251 . S
O54 C53 1.261 . S
H55 C49 0.930 . S
H56 C51 0.930 . S
N57 Cu46 1.985 . S
N57 C59 1.335 . S
N57 C60 1.390 . S
N58 C59 1.345 . S
N58 C61 1.336 . S
C59 N57 1.335 . S
C59 N58 1.345 . S
C59 H64 0.930 . S
C60 N57 1.390 . S
C60 C61 1.346 . S
C60 H65 0.930 . S
C61 N58 1.336 . S
C61 C60 1.346 . S
C61 H68 0.929 . S
C62 O52 1.282 . S
C62 O63 1.216 . S
O63 C62 1.216 . S
H64 C59 0.930 . S
H65 C60 0.930 . S
O66 Cu46 1.959 . S
O66 C53 1.251 . S
H67 C50 0.930 . S
H68 C61 0.929 . S
Cu69 N70 1.999 . S
Cu69 O75 1.974 . S
Cu69 N80 1.985 . S
Cu69 O89 1.959 . S
N70 Cu69 1.999 . S
N70 C72 1.263 . S
N70 C74 1.389 . S
N71 C72 1.358 . S
N71 C73 1.400 . S
C72 N70 1.263 . S
C72 N71 1.358 . S
C72 H78 0.930 . S
C73 N71 1.400 . S
C73 C74 1.351 . S
C73 H90 0.930 . S
C74 N70 1.389 . S
C74 C73 1.351 . S
C74 H79 0.930 . S
O75 Cu69 1.974 . S
O75 C85 1.282 . S
C76 O77 1.261 . S
C76 O89 1.251 . S
O77 C76 1.261 . S
H78 C72 0.930 . S
H79 C74 0.930 . S
N80 Cu69 1.985 . S
N80 C82 1.335 . S
N80 C83 1.390 . S
N81 C82 1.345 . S
N81 C84 1.336 . S
C82 N80 1.335 . S
C82 N81 1.345 . S
C82 H87 0.930 . S
C83 N80 1.390 . S
C83 C84 1.346 . S
C83 H88 0.930 . S
C84 N81 1.336 . S
C84 C83 1.346 . S
C84 H91 0.929 . S
C85 O75 1.282 . S
C85 O86 1.216 . S
O86 C85 1.216 . S
H87 C82 0.930 . S
H88 C83 0.930 . S
O89 Cu69 1.959 . S
O89 C76 1.251 . S
H90 C73 0.930 . S
H91 C84 0.929 . S
Cu92 N93 1.999 . S
Cu92 O98 1.974 . S
Cu92 N103 1.985 . S
Cu92 O112 1.959 . S
N93 Cu92 1.999 . S
N93 C95 1.263 . S
N93 C97 1.389 . S
N94 C95 1.358 . S
N94 C96 1.400 . S
C95 N93 1.263 . S
C95 N94 1.358 . S
C95 H101 0.930 . S
C96 N94 1.400 . S
C96 C97 1.351 . S
C96 H113 0.930 . S
C97 N93 1.389 . S
C97 C96 1.351 . S
C97 H102 0.930 . S
O98 Cu92 1.974 . S
O98 C108 1.282 . S
C99 O100 1.261 . S
C99 O112 1.251 . S
O100 C99 1.261 . S
H101 C95 0.930 . S
H102 C97 0.930 . S
N103 Cu92 1.985 . S
N103 C105 1.335 . S
N103 C106 1.390 . S
N104 C105 1.345 . S
N104 C107 1.336 . S
C105 N103 1.335 . S
C105 N104 1.345 . S
C105 H110 0.930 . S
C106 N103 1.390 . S
C106 C107 1.346 . S
C106 H111 0.930 . S
C107 N104 1.336 . S
C107 C106 1.346 . S
C107 H114 0.929 . S
C108 O98 1.282 . S
C108 O109 1.216 . S
O109 C108 1.216 . S
H110 C105 0.930 . S
H111 C106 0.930 . S
O112 Cu92 1.959 . S
O112 C99 1.251 . S
H113 C96 0.930 . S
H114 C107 0.929 . S
Cu115 N116 1.999 . S
Cu115 O121 1.974 . S
Cu115 N126 1.985 . S
Cu115 O135 1.959 . S
N116 Cu115 1.999 . S
N116 C118 1.263 . S
N116 C120 1.389 . S
N117 C118 1.358 . S
N117 C119 1.400 . S
C118 N116 1.263 . S
C118 N117 1.358 . S
C118 H124 0.930 . S
C119 N117 1.400 . S
C119 C120 1.351 . S
C119 H136 0.930 . S
C120 N116 1.389 . S
C120 C119 1.351 . S
C120 H125 0.930 . S
O121 Cu115 1.974 . S
O121 C131 1.282 . S
C122 O123 1.261 . S
C122 O135 1.251 . S
O123 C122 1.261 . S
H124 C118 0.930 . S
H125 C120 0.930 . S
N126 Cu115 1.985 . S
N126 C128 1.335 . S
N126 C129 1.390 . S
N127 C128 1.345 . S
N127 C130 1.336 . S
C128 N126 1.335 . S
C128 N127 1.345 . S
C128 H133 0.930 . S
C129 N126 1.390 . S
C129 C130 1.346 . S
C129 H134 0.930 . S
C130 N127 1.336 . S
C130 C129 1.346 . S
C130 H137 0.929 . S
C131 O121 1.282 . S
C131 O132 1.216 . S
O132 C131 1.216 . S
H133 C128 0.930 . S
H134 C129 0.930 . S
O135 Cu115 1.959 . S
O135 C122 1.251 . S
H136 C119 0.930 . S
H137 C130 0.929 . S
H138 C144 0.930 . S
H139 C147 0.930 . S
H140 C148 0.930 1_565 S
H141 C149 0.930 . S
H142 C152 0.930 . S
H143 C153 0.930 1_545 S
C144 H138 0.930 . S
C144 C145 1.355 . S
C144 C146 1.415 . S
C145 C144 1.355 . S
C145 C147 1.419 . S
C146 C144 1.415 . S
C146 C151 1.425 1_545 S
C146 C153 1.409 1_545 S
C147 H139 0.930 . S
C147 C145 1.419 . S
C147 C148 1.362 . S
C148 H140 0.930 1_545 S
C148 C147 1.362 . S
C148 C151 1.409 1_545 S
C149 H141 0.930 . S
C149 C150 1.355 . S
C149 C151 1.415 . S
C150 C149 1.355 . S
C150 C152 1.419 . S
C151 C146 1.425 1_565 S
C151 C148 1.409 1_565 S
C151 C149 1.415 . S
C152 H142 0.930 . S
C152 C150 1.419 . S
C152 C153 1.362 . S
C153 H143 0.930 1_565 S
C153 C146 1.409 1_565 S
C153 C152 1.362 . S
H154 C160 0.930 . S
H155 C163 0.930 . S
H156 C164 0.930 . S
H157 C165 0.930 . S
H158 C168 0.930 . S
H159 C169 0.930 . S
C160 H154 0.930 . S
C160 C161 1.355 . S
C160 C162 1.415 . S
C161 C160 1.355 . S
C161 C163 1.419 . S
C162 C160 1.415 . S
C162 C167 1.425 . S
C162 C169 1.409 . S
C163 H155 0.930 . S
C163 C161 1.419 . S
C163 C164 1.362 . S
C164 H156 0.930 . S
C164 C163 1.362 . S
C164 C167 1.409 . S
C165 H157 0.930 . S
C165 C166 1.355 . S
C165 C167 1.415 . S
C166 C165 1.355 . S
C166 C168 1.419 . S
C167 C162 1.425 . S
C167 C164 1.409 . S
C167 C165 1.415 . S
C168 H158 0.930 . S
C168 C166 1.419 . S
C168 C169 1.362 . S
C169 H159 0.930 . S
C169 C162 1.409 . S
C169 C168 1.362 . S
H170 C176 0.930 . S
H171 C179 0.930 . S
H172 C180 0.930 . S
H173 C181 0.930 . S
H174 C184 0.930 . S
H175 C185 0.930 . S
C176 H170 0.930 . S
C176 C177 1.355 . S
C176 C178 1.415 1_655 S
C177 C176 1.355 . S
C177 C179 1.419 . S
C178 C176 1.415 1_455 S
C178 C183 1.425 1_455 S
C178 C185 1.409 . S
C179 H171 0.930 . S
C179 C177 1.419 . S
C179 C180 1.362 . S
C180 H172 0.930 . S
C180 C179 1.362 . S
C180 C183 1.409 . S
C181 H173 0.930 . S
C181 C182 1.355 . S
C181 C183 1.415 1_455 S
C182 C181 1.355 . S
C182 C184 1.419 . S
C183 C178 1.425 1_655 S
C183 C180 1.409 . S
C183 C181 1.415 1_655 S
C184 H174 0.930 . S
C184 C182 1.419 . S
C184 C185 1.362 . S
C185 H175 0.930 . S
C185 C178 1.409 . S
C185 C184 1.362 . S
H186 C192 0.930 . S
H187 C195 0.930 . S
H188 C196 0.930 . S
H189 C197 0.930 . S
H190 C200 0.930 . S
H191 C201 0.930 . S
C192 H186 0.930 . S
C192 C193 1.355 . S
C192 C194 1.415 . S
C193 C192 1.355 . S
C193 C195 1.419 . S
C194 C192 1.415 . S
C194 C199 1.425 1_455 S
C194 C201 1.409 1_455 S
C195 H187 0.930 . S
C195 C193 1.419 . S
C195 C196 1.362 . S
C196 H188 0.930 . S
C196 C195 1.362 . S
C196 C199 1.409 1_455 S
C197 H189 0.930 . S
C197 C198 1.355 . S
C197 C199 1.415 . S
C198 C197 1.355 . S
C198 C200 1.419 . S
C199 C194 1.425 1_655 S
C199 C196 1.409 1_655 S
C199 C197 1.415 . S
C200 H190 0.930 . S
C200 C198 1.419 . S
C200 C201 1.362 . S
C201 H191 0.930 . S
C201 C194 1.409 1_655 S
C201 C200 1.362 . S
H202 C208 0.930 . S
H203 C211 0.930 . S
H204 C212 0.916 1_545 S
H205 C213 0.930 . S
H206 C216 0.930 . S
H207 C217 0.916 1_565 S
C208 H202 0.930 . S
C208 C209 1.355 . S
C208 C210 1.415 . S
C209 C208 1.355 . S
C209 C211 1.419 . S
C210 C208 1.415 . S
C210 C215 1.425 1_565 S
C210 C217 1.409 1_565 S
C211 H203 0.930 . S
C211 C209 1.419 . S
C211 C212 1.362 . S
C212 H204 0.916 1_565 S
C212 C211 1.362 . S
C212 C215 1.409 1_565 S
C213 H205 0.930 . S
C213 C214 1.355 . S
C213 C215 1.415 . S
C214 C213 1.355 . S
C214 C216 1.419 . S
C215 C210 1.425 1_545 S
C215 C212 1.409 1_545 S
C215 C213 1.415 . S
C216 H206 0.930 . S
C216 C214 1.419 . S
C216 C217 1.362 . S
C217 H207 0.916 1_545 S
C217 C210 1.409 1_545 S
C217 C216 1.362 . S
H218 C224 0.930 . S
H219 C227 0.930 . S
H220 C228 0.930 . S
H221 C229 0.930 . S
H222 C232 0.930 . S
H223 C233 0.930 . S
C224 H218 0.930 . S
C224 C225 1.355 . S
C224 C226 1.415 . S
C225 C224 1.355 . S
C225 C227 1.419 . S
C226 C224 1.415 . S
C226 C231 1.425 . S
C226 C233 1.409 . S
C227 H219 0.930 . S
C227 C225 1.419 . S
C227 C228 1.362 . S
C228 H220 0.930 . S
C228 C227 1.362 . S
C228 C231 1.409 . S
C229 H221 0.930 . S
C229 C230 1.355 . S
C229 C231 1.415 . S
C230 C229 1.355 . S
C230 C232 1.419 . S
C231 C226 1.425 . S
C231 C228 1.409 . S
C231 C229 1.415 . S
C232 H222 0.930 . S
C232 C230 1.419 . S
C232 C233 1.362 . S
C233 H223 0.930 . S
C233 C226 1.409 . S
C233 C232 1.362 . S
H234 C240 0.930 . S
H235 C243 0.930 . S
H236 C244 0.930 1_554 S
H237 C245 0.930 . S
H238 C248 0.930 . S
H239 C249 0.930 1_556 S
C240 H234 0.930 . S
C240 C241 1.355 . S
C240 C242 1.415 . S
C241 C240 1.355 . S
C241 C243 1.419 . S
C242 C240 1.415 . S
C242 C247 1.425 1_556 S
C242 C249 1.409 1_556 S
C243 H235 0.930 . S
C243 C241 1.419 . S
C243 C244 1.362 . S
C244 H236 0.930 1_556 S
C244 C243 1.362 . S
C244 C247 1.409 1_556 S
C245 H237 0.930 . S
C245 C246 1.355 . S
C245 C247 1.415 . S
C246 C245 1.355 . S
C246 C248 1.419 . S
C247 C242 1.425 1_554 S
C247 C244 1.409 1_554 S
C247 C245 1.415 . S
C248 H238 0.930 . S
C248 C246 1.419 . S
C248 C249 1.362 . S
C249 H239 0.930 1_554 S
C249 C242 1.409 1_554 S
C249 C248 1.362 . S
H250 C256 0.930 . S
H251 C259 0.930 . S
H252 C260 0.930 . S
H253 C261 0.930 . S
H254 C264 0.930 . S
H255 C265 0.930 . S
C256 H250 0.930 . S
C256 C257 1.355 . S
C256 C258 1.415 . S
C257 C256 1.355 . S
C257 C259 1.419 . S
C258 C256 1.415 . S
C258 C263 1.425 . S
C258 C265 1.409 . S
C259 H251 0.930 . S
C259 C257 1.419 . S
C259 C260 1.362 . S
C260 H252 0.930 . S
C260 C259 1.362 . S
C260 C263 1.409 . S
C261 H253 0.930 . S
C261 C262 1.355 . S
C261 C263 1.415 . S
C262 C261 1.355 . S
C262 C264 1.419 . S
C263 C258 1.425 . S
C263 C260 1.409 . S
C263 C261 1.415 . S
C264 H254 0.930 . S
C264 C262 1.419 . S
C264 C265 1.362 . S
C265 H255 0.930 . S
C265 C258 1.409 . S
C265 C264 1.362 . S
H266 C272 0.930 . S
H267 C275 0.930 . S
H268 C276 0.930 . S
H269 C277 0.930 . S
H270 C280 0.930 . S
H271 C281 0.930 . S
C272 H266 0.930 . S
C272 C273 1.355 . S
C272 C274 1.415 . S
C273 C272 1.355 . S
C273 C275 1.419 . S
C274 C272 1.415 . S
C274 C279 1.425 . S
C274 C281 1.409 . S
C275 H267 0.930 . S
C275 C273 1.419 . S
C275 C276 1.362 . S
C276 H268 0.930 . S
C276 C275 1.362 . S
C276 C279 1.409 . S
C277 H269 0.930 . S
C277 C278 1.355 . S
C277 C279 1.415 . S
C278 C277 1.355 . S
C278 C280 1.419 . S
C279 C274 1.425 . S
C279 C276 1.409 . S
C279 C277 1.415 . S
C280 H270 0.930 . S
C280 C278 1.419 . S
C280 C281 1.362 . S
C281 H271 0.930 . S
C281 C274 1.409 . S
C281 C280 1.362 . S
H282 C288 0.930 . S
H283 C291 0.930 . S
H284 C292 0.930 . S
H285 C293 0.930 . S
H286 C296 0.930 . S
H287 C297 0.930 . S
C288 H282 0.930 . S
C288 C289 1.355 . S
C288 C290 1.415 1_556 S
C289 C288 1.355 . S
C289 C291 1.419 . S
C290 C288 1.415 1_554 S
C290 C295 1.423 1_554 S
C290 C297 1.409 . S
C291 H283 0.930 . S
C291 C289 1.419 . S
C291 C292 1.362 . S
C292 H284 0.930 . S
C292 C291 1.362 . S
C292 C295 1.431 . S
C293 H285 0.930 . S
C293 C294 1.355 . S
C293 C295 1.395 1_554 S
C294 C293 1.355 . S
C294 C296 1.419 . S
C295 C290 1.423 1_556 S
C295 C292 1.431 . S
C295 C293 1.395 1_556 S
C296 H286 0.930 . S
C296 C294 1.419 . S
C296 C297 1.362 . S
C297 H287 0.930 . S
C297 C290 1.409 . S
C297 C296 1.362 . S
H298 C304 0.930 . S
H299 C307 0.930 . S
H300 C308 0.930 . S
H301 C309 0.930 . S
H302 C312 0.930 . S
H303 C313 0.930 . S
C304 H298 0.930 . S
C304 C305 1.355 . S
C304 C306 1.415 . S
C305 C304 1.355 . S
C305 C307 1.419 . S
C306 C304 1.415 . S
C306 C311 1.425 . S
C306 C313 1.409 . S
C307 H299 0.930 . S
C307 C305 1.419 . S
C307 C308 1.362 . S
C308 H300 0.930 . S
C308 C307 1.362 . S
C308 C311 1.409 . S
C309 H301 0.930 . S
C309 C310 1.355 . S
C309 C311 1.415 . S
C310 C309 1.355 . S
C310 C312 1.419 . S
C311 C306 1.425 . S
C311 C308 1.409 . S
C311 C309 1.415 . S
C312 H302 0.930 . S
C312 C310 1.419 . S
C312 C313 1.362 . S
C313 H303 0.930 . S
C313 C306 1.409 . S
C313 C312 1.362 . S
H314 C320 0.930 . S
H315 C323 0.930 . S
H316 C324 0.930 . S
H317 C325 0.930 . S
H318 C328 0.930 . S
H319 C329 0.930 . S
C320 H314 0.930 . S
C320 C321 1.355 . S
C320 C322 1.415 . S
C321 C320 1.355 . S
C321 C323 1.419 . S
C322 C320 1.415 . S
C322 C327 1.425 . S
C322 C329 1.409 . S
C323 H315 0.930 . S
C323 C321 1.419 . S
C323 C324 1.362 . S
C324 H316 0.930 . S
C324 C323 1.362 . S
C324 C327 1.409 . S
C325 H317 0.930 . S
C325 C326 1.355 . S
C325 C327 1.415 . S
C326 C325 1.355 . S
C326 C328 1.419 . S
C327 C322 1.425 . S
C327 C324 1.409 . S
C327 C325 1.415 . S
C328 H318 0.930 . S
C328 C326 1.419 . S
C328 C329 1.362 . S
C329 H319 0.930 . S
C329 C322 1.409 . S
C329 C328 1.362 . S
C145 N12 1.444 . S
C150 N81 1.482 . S
C161 C39 1.723 . S
C166 C108 1.729 . S
C177 N58 1.330 . S
C182 N127 1.343 . S
C193 C30 1.783 . S
C198 C99 1.795 . S
C209 N117 1.490 . S
C214 N48 1.448 . S
C225 N71 1.341 . S
C230 N2 1.325 . S
C241 C62 1.798 . S
C246 C7 1.885 . S
C257 C85 1.849 . S
C262 N25 1.746 . S
C273 C53 1.900 . S
C278 N104 1.916 . S
C289 C131 1.821 . S
C294 C76 1.846 . S
C305 N94 1.818 . S
C310 C16 1.893 . S
C321 C122 1.946 . S
C326 N35 1.890 . S
