# Generated by pormake.
# Topology wkj, (6)-cn, num edge types: 1
# Building blocks:
#     Node 0, Type 0, BuildingBlock: GEDQOX_clean_sbu_0, # of connection points: 6
#     Node 1, Type 0, BuildingBlock: GEDQOX_clean_sbu_0, # of connection points: 6
#     Node 2, Type 0, BuildingBlock: GEDQOX_clean_sbu_0, # of connection points: 6
#     Node 3, Type 0, BuildingBlock: GEDQOX_clean_sbu_0, # of connection points: 6
#     Node 4, Type 0, BuildingBlock: GEDQOX_clean_sbu_0, # of connection points: 6
#     Node 5, Type 0, BuildingBlock: GEDQOX_clean_sbu_0, # of connection points: 6
#     Node 6, Type 0, BuildingBlock: GEDQOX_clean_sbu_0, # of connection points: 6
#     Node 7, Type 0, BuildingBlock: GEDQOX_clean_sbu_0, # of connection points: 6
#     Node 8, Type 0, BuildingBlock: GEDQOX_clean_sbu_0, # of connection points: 6
#     Node 9, Type 0, BuildingBlock: GEDQOX_clean_sbu_0, # of connection points: 6
#     Node 10, Type 0, BuildingBlock: GEDQOX_clean_sbu_0, # of connection points: 6
#     Node 11, Type 0, BuildingBlock: GEDQOX_clean_sbu_0, # of connection points: 6
#     Edge 12, Type (0, 0), BuildingBlock: CIFDUS_clean_linker_0, # of connection points: 2
#     Edge 13, Type (0, 0), BuildingBlock: CIFDUS_clean_linker_0, # of connection points: 2
#     Edge 14, Type (0, 0), BuildingBlock: CIFDUS_clean_linker_0, # of connection points: 2
#     Edge 15, Type (0, 0), BuildingBlock: CIFDUS_clean_linker_0, # of connection points: 2
#     Edge 16, Type (0, 0), BuildingBlock: CIFDUS_clean_linker_0, # of connection points: 2
#     Edge 17, Type (0, 0), BuildingBlock: CIFDUS_clean_linker_0, # of connection points: 2
#     Edge 18, Type (0, 0), BuildingBlock: CIFDUS_clean_linker_0, # of connection points: 2
#     Edge 19, Type (0, 0), BuildingBlock: CIFDUS_clean_linker_0, # of connection points: 2
#     Edge 20, Type (0, 0), BuildingBlock: CIFDUS_clean_linker_0, # of connection points: 2
#     Edge 21, Type (0, 0), BuildingBlock: CIFDUS_clean_linker_0, # of connection points: 2
#     Edge 22, Type (0, 0), BuildingBlock: CIFDUS_clean_linker_0, # of connection points: 2
#     Edge 23, Type (0, 0), BuildingBlock: CIFDUS_clean_linker_0, # of connection points: 2
#     Edge 24, Type (0, 0), BuildingBlock: CIFDUS_clean_linker_0, # of connection points: 2
#     Edge 25, Type (0, 0), BuildingBlock: CIFDUS_clean_linker_0, # of connection points: 2
#     Edge 26, Type (0, 0), BuildingBlock: CIFDUS_clean_linker_0, # of connection points: 2
#     Edge 27, Type (0, 0), BuildingBlock: CIFDUS_clean_linker_0, # of connection points: 2
#     Edge 28, Type (0, 0), BuildingBlock: CIFDUS_clean_linker_0, # of connection points: 2
#     Edge 29, Type (0, 0), BuildingBlock: CIFDUS_clean_linker_0, # of connection points: 2
#     Edge 30, Type (0, 0), BuildingBlock: CIFDUS_clean_linker_0, # of connection points: 2
#     Edge 31, Type (0, 0), BuildingBlock: CIFDUS_clean_linker_0, # of connection points: 2
#     Edge 32, Type (0, 0), BuildingBlock: CIFDUS_clean_linker_0, # of connection points: 2
#     Edge 33, Type (0, 0), BuildingBlock: CIFDUS_clean_linker_0, # of connection points: 2
#     Edge 34, Type (0, 0), BuildingBlock: CIFDUS_clean_linker_0, # of connection points: 2
#     Edge 35, Type (0, 0), BuildingBlock: CIFDUS_clean_linker_0, # of connection points: 2
#     Edge 36, Type (0, 0), BuildingBlock: CIFDUS_clean_linker_0, # of connection points: 2
#     Edge 37, Type (0, 0), BuildingBlock: CIFDUS_clean_linker_0, # of connection points: 2
#     Edge 38, Type (0, 0), BuildingBlock: CIFDUS_clean_linker_0, # of connection points: 2
#     Edge 39, Type (0, 0), BuildingBlock: CIFDUS_clean_linker_0, # of connection points: 2
#     Edge 40, Type (0, 0), BuildingBlock: CIFDUS_clean_linker_0, # of connection points: 2
#     Edge 41, Type (0, 0), BuildingBlock: CIFDUS_clean_linker_0, # of connection points: 2
#     Edge 42, Type (0, 0), BuildingBlock: CIFDUS_clean_linker_0, # of connection points: 2
#     Edge 43, Type (0, 0), BuildingBlock: CIFDUS_clean_linker_0, # of connection points: 2
#     Edge 44, Type (0, 0), BuildingBlock: CIFDUS_clean_linker_0, # of connection points: 2
#     Edge 45, Type (0, 0), BuildingBlock: CIFDUS_clean_linker_0, # of connection points: 2
#     Edge 46, Type (0, 0), BuildingBlock: CIFDUS_clean_linker_0, # of connection points: 2
#     Edge 47, Type (0, 0), BuildingBlock: CIFDUS_clean_linker_0, # of connection points: 2
# Relax obj value: 0.845
# Max RMSD: 0.169
# Mean RMSD: 0.169
data_MOF--net-wkj--node1-GEDQOX_clean_sbu_0--edge1-CIFDUS_clean_linker_0
_symmetry_space_group_name_H-M    P1
_symmetry_Int_Tables_number       1
_symmetry_cell_setting            triclinic
loop_
_symmetry_equiv_pos_as_xyz
'x, y, z'
_cell_length_a     42.794744
_cell_length_b     42.47575
_cell_length_c     26.889318
_cell_angle_alpha  89.791891
_cell_angle_beta   90.402643
_cell_angle_gamma 119.99661
loop_
_atom_site_label
_atom_site_type_symbol
_atom_site_fract_x
_atom_site_fract_y
_atom_site_fract_z
_atom_type_partial_charge
Nd0 Nd 0.49468 0.10469 0.41752 0.0
Nd1 Nd 0.42624 0.0582 0.38963 0.0
C2 C 0.56056 0.15441 0.44245 0.0
C3 C 0.5942 0.17563 0.46931 0.0
C4 C 0.59905 0.16475 0.51629 0.0
C5 C 0.62747 0.18917 0.54617 0.0
C6 C 0.65011 0.2252 0.53011 0.0
C7 C 0.64674 0.23516 0.48158 0.0
C8 C 0.61903 0.21017 0.45096 0.0
C9 C 0.46494 0.14267 0.36829 0.0
C10 C 0.43645 0.05523 0.51582 0.0
C11 C 0.36 0.0287 0.35743 0.0
C12 C 0.32292 0.01224 0.33943 0.0
C13 C 0.30442 0.03169 0.34097 0.0
C14 C 0.26985 0.01669 0.32067 0.0
C15 C 0.2535 0.98213 0.29846 0.0
C16 C 0.27115 0.96168 0.30088 0.0
C17 C 0.30563 0.97669 0.32109 0.0
C18 C 0.45449 0.01973 0.43041 0.0
C19 C 0.49131 0.07669 0.30051 0.0
O20 O 0.55372 0.1245 0.41985 0.0
O21 O 0.532 0.15523 0.45727 0.0
O22 O 0.49311 0.14157 0.35456 0.0
O23 O 0.45026 0.11964 0.40346 0.0
O24 O 0.47043 0.0806 0.5026 0.0
O25 O 0.41286 0.04393 0.47769 0.0
O26 O 0.37397 0.05683 0.38719 0.0
O27 O 0.38204 0.01783 0.34212 0.0
O28 O 0.42065 0.00969 0.4334 0.0
O29 O 0.47068 0.04603 0.40083 0.0
O30 O 0.45619 0.06546 0.30915 0.0
O31 O 0.51282 0.09022 0.34023 0.0
H32 H 0.57923 0.13873 0.53147 0.0
H33 H 0.62884 0.18134 0.58419 0.0
H34 H 0.66323 0.26301 0.46919 0.0
H35 H 0.61507 0.21889 0.41469 0.0
H36 H 0.31724 0.05904 0.35583 0.0
H37 H 0.25691 0.03302 0.31935 0.0
H38 H 0.25972 0.93521 0.28349 0.0
H39 H 0.31923 0.96095 0.32072 0.0
Nd40 Nd 0.39688 0.49099 0.73227 0.0
Nd41 Nd 0.35116 0.42487 0.72165 0.0
C42 C 0.43898 0.55888 0.76114 0.0
C43 C 0.42993 0.58717 0.77043 0.0
C44 C 0.44943 0.61345 0.80649 0.0
C45 C 0.43363 0.6311 0.83018 0.0
C46 C 0.39798 0.62219 0.81832 0.0
C47 C 0.38053 0.59935 0.77768 0.0
C48 C 0.39653 0.58202 0.75373 0.0
C49 C 0.32662 0.48118 0.71028 0.0
C50 C 0.39106 0.44117 0.83446 0.0
C51 C 0.29229 0.3622 0.70174 0.0
C52 C 0.26793 0.34313 0.66022 0.0
C53 C 0.24404 0.3538 0.64097 0.0
C54 C 0.2248 0.338 0.59727 0.0
C55 C 0.22968 0.31182 0.57203 0.0
C56 C 0.25177 0.29962 0.59383 0.0
C57 C 0.27027 0.3148 0.63768 0.0
C58 C 0.41407 0.42598 0.72105 0.0
C59 C 0.39552 0.47936 0.61675 0.0
O60 O 0.42352 0.53156 0.79192 0.0
O61 O 0.43698 0.5485 0.71512 0.0
O62 O 0.35555 0.50052 0.6853 0.0
O63 O 0.3348 0.46587 0.74478 0.0
O64 O 0.41311 0.47093 0.8087 0.0
O65 O 0.36022 0.4196 0.81012 0.0
O66 O 0.29155 0.39 0.7207 0.0
O67 O 0.32495 0.36786 0.6972 0.0
O68 O 0.38779 0.40356 0.74899 0.0
O69 O 0.40806 0.44874 0.69863 0.0
O70 O 0.3662 0.44864 0.63421 0.0
O71 O 0.4176 0.50098 0.65131 0.0
H72 H 0.4751 0.61747 0.82 0.0
H73 H 0.44773 0.64833 0.86169 0.0
H74 H 0.35319 0.59218 0.76766 0.0
H75 H 0.38117 0.56189 0.72574 0.0
H76 H 0.24134 0.37529 0.65832 0.0
H77 H 0.20767 0.34767 0.58193 0.0
H78 H 0.25723 0.28029 0.5754 0.0
H79 H 0.28821 0.30584 0.65234 0.0
Nd80 Nd 0.91116 0.4101 1.0763 0.0
Nd81 Nd 0.94253 0.37112 1.05833 0.0
C82 C 0.87913 0.44553 1.10795 0.0
C83 C 0.84398 0.43191 1.13116 0.0
C84 C 0.8408 0.45157 0.17031 0.0
C85 C 0.81189 0.43459 0.20291 0.0
C86 C 0.78559 0.39761 0.19667 0.0
C87 C 0.78701 0.37925 0.15413 0.0
C88 C 0.8162 0.3962 1.12181 0.0
C89 C 0.85942 0.3367 1.05013 0.0
C90 C 0.95422 0.40013 0.17779 0.0
C91 C 0.95987 0.32117 1.03933 0.0
C92 C 0.95941 0.29229 1.01054 0.0
C93 C 0.94235 0.28237 0.96417 0.0
C94 C 0.94836 0.25955 0.93355 0.0
C95 C 0.97173 0.24702 0.9492 0.0
C96 C 0.98585 0.2544 0.99765 0.0
C97 C 0.97975 0.27707 1.02818 0.0
C98 C -0.00514 0.44009 1.07152 0.0
C99 C 0.93063 0.42054 0.96073 0.0
O100 O 0.90207 0.441 1.13486 0.0
O101 O 0.87888 0.43684 1.06149 0.0
O102 O 0.86219 0.36551 1.02998 0.0
O103 O 0.88429 0.34705 1.08268 0.0
O104 O 0.94008 0.41921 0.15798 0.0
O105 O 0.95466 0.37578 1.14685 0.0
O106 O 0.93066 0.31423 1.06305 0.0
O107 O 0.97786 0.3542 1.02183 0.0
O108 O -0.00394 0.41389 1.09438 0.0
O109 O 0.96654 0.42929 1.04597 0.0
O110 O 0.93317 0.39062 0.97343 0.0
O111 O 0.9276 0.43827 0.99879 0.0
H112 H 0.86229 0.47897 0.17833 0.0
H113 H 0.81235 0.44962 0.23559 0.0
H114 H 0.7671 0.35097 1.14791 0.0
H115 H 0.8184 0.38044 1.09187 0.0
H116 H 0.92654 0.29412 0.9505 0.0
H117 H 0.93774 0.25479 0.89593 0.0
H118 H 0.00424 0.24538 1.01009 0.0
H119 H 0.99295 0.28469 1.06424 0.0
Nd120 Nd 0.51879 0.90668 0.4201 0.0
Nd121 Nd 0.58857 0.94198 0.3893 0.0
C122 C 0.45308 0.87698 0.45764 0.0
C123 C 0.42677 0.84047 0.47389 0.0
C124 C 0.40062 0.83636 0.50802 0.0
C125 C 0.38271 0.80457 0.53579 0.0
C126 C 0.3908 0.77639 0.52978 0.0
C127 C 0.41385 0.77906 0.49095 0.0
C128 C 0.432 0.81111 0.46344 0.0
C129 C 0.53784 0.85501 0.38538 0.0
C130 C 0.57908 0.95437 0.51469 0.0
C131 C 0.65266 0.95547 0.3612 0.0
C132 C 0.66986 0.93897 0.33375 0.0
C133 C 0.6539 0.91859 0.29083 0.0
C134 C 0.67411 0.90967 0.25969 0.0
C135 C 0.71053 0.9214 0.27119 0.0
C136 C 0.72408 0.93648 0.31829 0.0
C137 C 0.70397 0.94578 0.34912 0.0
C138 C 0.57331 0.994 0.41307 0.0
C139 C 0.52376 0.92813 0.30026 0.0
O140 O 0.4824 0.89254 0.48465 0.0
O141 O 0.45958 0.88145 0.41015 0.0
O142 O 0.5076 0.85393 0.37755 0.0
O143 O 0.55701 0.88252 0.41305 0.0
O144 O 0.54492 0.92955 0.50322 0.0
O145 O 0.60201 0.96311 0.47629 0.0
O146 O 0.63809 0.93966 0.40319 0.0
O147 O 0.63334 0.96607 0.33567 0.0
O148 O 0.60552 -0.00125 0.41564 0.0
O149 O 0.55158 0.96427 0.39183 0.0
O150 O 0.55691 0.93225 0.3086 0.0
O151 O 0.50433 0.92289 0.34116 0.0
H152 H 0.39648 0.85894 0.51652 0.0
H153 H 0.36555 0.80406 0.56554 0.0
H154 H 0.42026 0.75775 0.48473 0.0
H155 H 0.45222 0.81398 0.437 0.0
H156 H 0.62697 0.91208 0.27948 0.0
H157 H 0.66251 0.89775 0.22394 0.0
H158 H 0.75172 0.94508 0.32857 0.0
H159 H 0.71608 0.96066 0.38315 0.0
Nd160 Nd 0.59221 0.50725 0.73336 0.0
Nd161 Nd 0.63253 0.5751 0.71855 0.0
C162 C 0.55315 0.4365 0.74824 0.0
C163 C 0.52132 0.40562 0.76943 0.0
C164 C 0.50745 0.40854 0.81484 0.0
C165 C 0.48403 0.37716 0.84074 0.0
C166 C 0.47537 0.34253 0.82212 0.0
C167 C 0.48438 0.34004 0.77272 0.0
C168 C 0.50762 0.37157 0.74666 0.0
C169 C 0.66136 0.52151 0.69779 0.0
C170 C 0.59383 0.55516 0.83476 0.0
C171 C 0.68819 0.6385 0.69426 0.0
C172 C 0.71815 0.64788 0.6604 0.0
C173 C 0.73409 0.62593 0.65803 0.0
C174 C 0.75079 0.62461 0.61439 0.0
C175 C 0.7508 0.64453 0.57253 0.0
C176 C 0.74025 0.67089 0.57837 0.0
C177 C 0.72403 0.67253 0.62215 0.0
C178 C 0.56765 0.56863 0.72782 0.0
C179 C 0.5841 0.51841 0.61905 0.0
O180 O 0.54789 0.45304 0.71118 0.0
O181 O 0.57917 0.45844 0.77832 0.0
O182 O 0.63027 0.49985 0.67871 0.0
O183 O 0.65588 0.53785 0.73373 0.0
O184 O 0.57832 0.52232 0.81379 0.0
O185 O 0.61961 0.58138 0.8064 0.0
O186 O 0.68739 0.62079 0.73449 0.0
O187 O 0.65673 0.62471 0.67228 0.0
O188 O 0.59584 0.59492 0.74876 0.0
O189 O 0.57378 0.54614 0.70504 0.0
O190 O 0.61487 0.5494 0.63188 0.0
O191 O 0.56517 0.49929 0.65714 0.0
H192 H 0.5171 0.43484 0.83218 0.0
H193 H 0.47716 0.38069 0.87818 0.0
H194 H 0.47742 0.31393 0.7568 0.0
H195 H 0.51753 0.36917 0.71071 0.0
H196 H 0.7303 0.60697 0.68758 0.0
H197 H 0.7596 0.60482 0.61151 0.0
H198 H 0.73976 0.68686 0.54723 0.0
H199 H 0.71203 0.68974 0.62355 0.0
Nd200 Nd 0.08618 0.60631 1.08313 0.0
Nd201 Nd 0.06957 0.64988 1.06077 0.0
C202 C 0.11196 0.56608 1.11953 0.0
C203 C 0.14825 0.57453 1.13345 0.0
C204 C 0.15227 0.55342 0.16991 0.0
C205 C 0.1845 0.56744 0.19644 0.0
C206 C 0.21317 0.60292 0.1868 0.0
C207 C 0.21046 0.62178 1.14541 0.0
C208 C 0.17799 0.60779 1.11917 0.0
C209 C 0.14801 0.67543 1.05486 0.0
C210 C 0.04543 0.6187 0.17956 0.0
C211 C 0.06894 0.70719 1.02358 0.0
C212 C 0.03954 0.71301 1.00811 0.0
C213 C 0.0449 0.74823 1.00533 0.0
C214 C 0.01826 0.75401 0.98437 0.0
C215 C 0.98625 0.72456 0.96548 0.0
C216 C 0.9799 0.68898 0.97267 0.0
C217 C 0.00631 0.68327 0.99404 0.0
C218 C 0.00365 0.59298 1.07182 0.0
C219 C 0.06928 0.58959 0.97002 0.0
O220 O 0.0991 0.58214 1.14713 0.0
O221 O 0.10594 0.56753 1.07225 0.0
O222 O 0.13607 0.64494 1.03176 0.0
O223 O 0.12546 0.66926 1.08902 0.0
O224 O 0.05306 0.59496 0.15956 0.0
O225 O 0.05401 0.64718 1.14942 0.0
O226 O 0.07328 0.68424 0.99665 0.0
O227 O 0.07083 0.70229 1.07096 0.0
O228 O 0.01146 0.62501 1.08597 0.0
O229 O 0.02995 0.59114 1.05286 0.0
O230 O 0.07265 0.62277 0.97815 0.0
O231 O 0.06798 0.57261 1.01123 0.0
H232 H 0.12939 0.52777 0.18135 0.0
H233 H 0.18501 0.55192 0.22812 0.0
H234 H 0.23214 0.64877 1.13629 0.0
H235 H 0.17517 0.62439 1.09084 0.0
H236 H 0.07025 0.77132 1.01718 0.0
H237 H 0.02365 0.78163 0.98 0.0
H238 H 0.95587 0.66561 0.95809 0.0
H239 H 0.00159 0.65576 0.99683 0.0
Nd240 Nd 0.90753 0.51344 0.57446 0.0
Nd241 Nd 0.92523 0.57701 0.58755 0.0
C242 C 0.8833 0.44615 0.54355 0.0
C243 C 0.84785 0.41813 0.52626 0.0
C244 C 0.84604 0.39448 0.48905 0.0
C245 C 0.81541 0.37696 0.45907 0.0
C246 C 0.78608 0.38291 0.46598 0.0
C247 C 0.78632 0.40287 0.50775 0.0
C248 C 0.81723 0.42072 0.53743 0.0
C249 C 0.84577 0.51942 0.60432 0.0
C250 C 0.94542 0.56272 0.47058 0.0
C251 C 0.92351 0.63569 0.61481 0.0
C252 C 0.90338 0.6433 0.65136 0.0
C253 C 0.8873 0.61947 0.69126 0.0
C254 C 0.87491 0.63026 0.73172 0.0
C255 C 0.87873 0.66517 0.73268 0.0
C256 C 0.89006 0.6866 0.6893 0.0
C257 C 0.90286 0.67588 0.64899 0.0
C258 C 0.98963 0.58387 0.57676 0.0
C259 C 0.92697 0.52188 0.68658 0.0
O260 O 0.89852 0.47446 0.51444 0.0
O261 O 0.88629 0.45489 0.59043 0.0
O262 O 0.85873 0.50153 0.62662 0.0
O263 O 0.86731 0.53602 0.56866 0.0
O264 O 0.93522 0.53147 0.49387 0.0
O265 O 0.94109 0.58639 0.49845 0.0
O266 O 0.90453 0.61509 0.57793 0.0
O267 O 0.94628 0.62666 0.63307 0.0
O268 O 0.98124 0.60564 0.55448 0.0
O269 O 0.9638 0.55777 0.60037 0.0
O270 O 0.92212 0.55027 0.67317 0.0
O271 O 0.92892 0.50379 0.64864 0.0
H272 H 0.86964 0.39254 0.47977 0.0
H273 H 0.81677 0.36225 0.42716 0.0
H274 H 0.76406 0.40752 0.51471 0.0
H275 H 0.81831 0.43912 0.56607 0.0
H276 H 0.88718 0.59392 0.69296 0.0
H277 H 0.86643 0.61295 0.7643 0.0
H278 H 0.89263 0.71329 0.68864 0.0
H279 H 0.91462 0.69412 0.61767 0.0
Nd280 Nd 0.39612 0.90262 0.90429 0.0
Nd281 Nd 0.36813 0.94378 0.93839 0.0
C282 C 0.42739 0.86335 0.88802 0.0
C283 C 0.41535 0.82818 0.86429 0.0
C284 C 0.43785 0.82535 0.82947 0.0
C285 C 0.42389 0.79614 0.79664 0.0
C286 C 0.38712 0.76903 0.79837 0.0
C287 C 0.36579 0.76997 0.83725 0.0
C288 C 0.37968 0.79958 0.86966 0.0
C289 C 0.3214 0.85613 0.92527 0.0
C290 C 0.38472 0.94993 0.80965 0.0
C291 C 0.3186 0.96075 0.9567 0.0
C292 C 0.28623 0.953 0.98313 0.0
C293 C 0.26616 0.96863 0.96582 0.0
C294 C 0.23863 0.96707 0.99482 0.0
C295 C 0.23126 0.95002 1.04146 0.0
C296 C 0.2491 0.93105 1.05593 0.0
C297 C 0.27657 0.93261 1.02685 0.0
C298 C 0.43389 0.9911 0.90415 0.0
C299 C 0.41719 0.92961 1.02639 0.0
O300 O 0.43047 0.88894 0.85806 0.0
O301 O 0.41185 0.86283 0.92971 0.0
O302 O 0.3374 0.85716 0.88403 0.0
O303 O 0.34438 0.88237 0.95165 0.0
O304 O 0.39504 0.92569 0.82076 0.0
O305 O 0.37063 0.95837 0.84862 0.0
O306 O 0.31484 0.93718 0.92242 0.0
O307 O 0.34889 0.97425 0.98244 0.0
O308 O 0.4088 -0.00073 0.90834 0.0
O309 O 0.42577 0.96159 0.92611 0.0
O310 O 0.39388 0.94186 1.01854 0.0
O311 O 0.42444 0.91564 0.98632 0.0
H312 H 0.46538 0.84727 0.82481 0.0
H313 H 0.44129 0.79702 0.767 0.0
H314 H 0.33762 0.74934 0.84027 0.0
H315 H 0.36179 0.80124 0.8965 0.0
H316 H 0.27329 0.98399 0.93141 0.0
H317 H 0.22528 0.98179 0.98286 0.0
H318 H 0.24449 0.91807 1.092 0.0
H319 H 0.29177 0.92004 1.04001 0.0
Nd320 Nd 0.51713 0.40141 0.21817 0.0
Nd321 Nd 0.45399 0.38711 0.23952 0.0
C322 C 0.57969 0.41118 0.18612 0.0
C323 C 0.59566 0.41747 1.13673 0.0
C324 C 0.58527 0.43579 1.10296 0.0
C325 C 0.56888 0.41871 1.05852 0.0
C326 C 0.56399 0.38415 1.04802 0.0
C327 C 0.58358 0.37156 1.07526 0.0
C328 C 0.60103 0.38945 1.11902 0.0
C329 C 0.48068 0.33385 0.27091 0.0
C330 C 0.46284 0.39867 1.11627 0.0
C331 C 0.38365 0.35862 0.25157 0.0
C332 C 0.35058 0.32939 0.27255 0.0
C333 C 0.35132 0.30973 0.31395 0.0
C334 C 0.31948 0.28752 0.33955 0.0
C335 C 0.28686 0.28504 0.32389 0.0
C336 C 0.28585 0.30171 0.27923 0.0
C337 C 0.31766 0.32395 0.2538 0.0
C338 C 0.4889 0.45818 0.21422 0.0
C339 C 0.51448 0.43025 0.32959 0.0
O340 O 0.57633 0.43726 0.2065 0.0
O341 O 0.55013 0.37969 0.18918 0.0
O342 O 0.50946 0.36282 0.28562 0.0
O343 O 0.4697 0.34317 0.23264 0.0
O344 O 0.49561 0.40444 1.13206 0.0
O345 O 0.4395 0.38993 0.15319 0.0
O346 O 0.39771 0.35038 0.2147 0.0
O347 O 0.4077 0.3818 0.28247 0.0
O348 O 0.47586 0.44694 0.25806 0.0
O349 O 0.49352 0.4347 0.19328 0.0
O350 O 0.48001 0.40429 0.32248 0.0
O351 O 0.53495 0.43879 0.28947 0.0
H352 H 0.58279 0.45882 1.11475 0.0
H353 H 0.55591 0.43003 1.03585 0.0
H354 H 0.58133 0.34559 1.06678 0.0
H355 H 0.61065 0.37601 1.14402 0.0
H356 H 0.3767 0.31358 0.3284 0.0
H357 H 0.32107 0.2753 0.37421 0.0
H358 H 0.26103 0.30017 0.26656 0.0
H359 H 0.31686 0.33887 0.22148 0.0
Nd360 Nd 0.09421 0.50565 0.57227 0.0
Nd361 Nd 0.06465 0.43947 0.59014 0.0
C362 C 0.12762 0.57364 0.54097 0.0
C363 C 0.16303 0.59594 0.51889 0.0
C364 C 0.16651 0.61951 0.48035 0.0
C365 C 0.19542 0.6319 0.44783 0.0
C366 C 0.22147 0.621 0.45358 0.0
C367 C 0.21988 0.60066 0.49583 0.0
C368 C 0.19061 0.58786 0.52802 0.0
C369 C 0.14725 0.4869 0.60373 0.0
C370 C 0.05233 0.45599 0.46988 0.0
C371 C 0.04796 0.37307 0.61585 0.0
C372 C 0.05302 0.3487 0.64846 0.0
C373 C 0.0872 0.35365 0.66007 0.0
C374 C 0.09024 0.32987 0.69316 0.0
C375 C 0.05916 0.30124 0.71498 0.0
C376 C 0.02503 0.29594 0.70106 0.0
C377 C 0.02208 0.31929 0.66795 0.0
C378 C 0.00872 0.44875 0.57207 0.0
C379 C 0.07184 0.50032 0.68434 0.0
O380 O 0.10545 0.54622 0.51335 0.0
O381 O 0.12707 0.56476 0.5875 0.0
O382 O 0.14086 0.51029 0.62474 0.0
O383 O 0.12399 0.47218 0.56907 0.0
O384 O 0.06828 0.48889 0.49022 0.0
O385 O 0.04991 0.43014 0.50093 0.0
O386 O 0.07346 0.3927 0.5844 0.0
O387 O 0.03221 0.38983 0.63452 0.0
O388 O 0.01088 0.42238 0.55204 0.0
O389 O 0.03625 0.47029 0.59766 0.0
O390 O 0.07151 0.46856 0.67497 0.0
O391 O 0.07391 0.51851 0.64387 0.0
H392 H 0.14513 0.6255 0.47253 0.0
H393 H 0.19503 0.64689 0.41543 0.0
H394 H 0.23961 0.59213 0.50176 0.0
H395 H 0.18809 0.5693 0.55752 0.0
H396 H 0.1114 0.37624 0.6447 0.0
H397 H 0.11684 0.33474 0.70319 0.0
H398 H 0.00038 0.27518 0.71802 0.0
H399 H -0.00449 0.31508 0.6589 0.0
Nd400 Nd 0.61609 0.10439 0.90851 0.0
Nd401 Nd 0.6419 0.06041 0.93429 0.0
C402 C 0.59362 0.15071 0.88704 0.0
C403 C 0.58379 0.16772 0.84804 0.0
C404 C 0.58159 0.15613 0.79897 0.0
C405 C 0.58689 0.18011 0.76042 0.0
C406 C 0.59523 0.21589 0.77101 0.0
C407 C 0.59327 0.226 0.81974 0.0
C408 C 0.5872 0.20166 0.85836 0.0
C409 C 0.68464 0.14432 0.95542 0.0
C410 C 0.62751 0.05807 0.80866 0.0
C411 C 0.68242 0.03282 0.9599 0.0
C412 C 0.71226 0.03589 0.98925 0.0
C413 C 0.73145 0.01981 0.97082 0.0
C414 C 0.75647 0.01704 1.00097 0.0
C415 C 0.76204 0.02996 1.05002 0.0
C416 C 0.74532 0.04943 1.06638 0.0
C417 C 0.72042 0.05235 1.03603 0.0
C418 C 0.57504 0.01837 0.89597 0.0
C419 C 0.59493 0.07638 1.02586 0.0
O420 O 0.57143 0.11682 0.89809 0.0
O421 O 0.62719 0.1586 0.88601 0.0
O422 O 0.65499 0.14137 0.97148 0.0
O423 O 0.67635 0.1219 0.91945 0.0
O424 O 0.61884 0.08346 0.82224 0.0
O425 O 0.63976 0.04647 0.84635 0.0
O426 O 0.69079 0.05659 0.92427 0.0
O427 O 0.65234 0.0246 0.98284 0.0
O428 O 0.60001 0.00991 0.89363 0.0
O429 O 0.58412 0.04509 0.92468 0.0
O430 O 0.62015 0.06687 1.01634 0.0
O431 O 0.58498 0.08845 0.98652 0.0
H432 H 0.57982 0.13033 0.79071 0.0
H433 H 0.58857 0.17214 0.72271 0.0
H434 H 0.59989 0.25357 0.82828 0.0
H435 H 0.58933 0.21088 0.89643 0.0
H436 H 0.72552 0.00747 0.93421 0.0
H437 H 0.76908 0.00207 0.98753 0.0
H438 H 0.74872 0.05932 1.10422 0.0
H439 H 0.70599 0.06533 1.05015 0.0
Nd440 Nd 0.48905 0.62332 0.21778 0.0
Nd441 Nd 0.51029 0.58782 0.23545 0.0
C442 C 0.44038 0.64411 0.20828 0.0
C443 C 0.4143 0.64136 0.1711 0.0
C444 C 0.40148 0.61377 1.13533 0.0
C445 C 0.38398 0.61628 1.09306 0.0
C446 C 0.37961 0.64672 1.08585 0.0
C447 C 0.38951 0.67247 1.12404 0.0
C448 C 0.40676 0.66972 0.16663 0.0
C449 C 0.54272 0.67744 0.26885 0.0
C450 C 0.52539 0.59962 1.11705 0.0
C451 C 0.56522 0.57643 0.24008 0.0
C452 C 0.59671 0.58606 0.27141 0.0
C453 C 0.61133 0.6175 0.30076 0.0
C454 C 0.64331 0.62861 0.32694 0.0
C455 C 0.66098 0.60829 0.32448 0.0
C456 C 0.64581 0.57633 0.29591 0.0
C457 C 0.61388 0.56539 0.26925 0.0
C458 C 0.44047 0.54906 0.1927 0.0
C459 C 0.46926 0.57197 0.33127 0.0
O460 O 0.43387 0.61391 0.22976 0.0
O461 O 0.47401 0.66413 0.19535 0.0
O462 O 0.53868 0.67988 0.2214 0.0
O463 O 0.52694 0.64337 0.28123 0.0
O464 O 0.51465 0.62303 1.1332 0.0
O465 O 0.52317 0.57755 0.15292 0.0
O466 O 0.56602 0.60393 0.21643 0.0
O467 O 0.53348 0.55346 0.25856 0.0
O468 O 0.44949 0.54084 0.23502 0.0
O469 O 0.46783 0.5748 0.17419 0.0
O470 O 0.48748 0.55895 0.3097 0.0
O471 O 0.46686 0.59759 0.30368 0.0
H472 H 0.40745 0.59187 1.13811 0.0
H473 H 0.37724 0.59632 1.0639 0.0
H474 H 0.38649 0.69614 1.1192 0.0
H475 H 0.41665 0.69118 0.1942 0.0
H476 H 0.59823 0.63366 0.30295 0.0
H477 H 0.65382 0.65271 0.34995 0.0
H478 H 0.65873 0.56 0.29406 0.0
H479 H 0.60282 0.54106 0.24659 0.0
H480 H 0.48917 0.18714 0.28564 0.0
H481 H 0.4311 0.17344 0.42155 0.0
H482 H 0.42998 0.22979 0.40406 0.0
H483 H 0.44834 0.28586 0.35132 0.0
H484 H 0.50314 0.29641 0.2132 0.0
H485 H 0.50262 0.23944 0.23013 0.0
C486 C 0.47582 0.1961 0.31136 0.0
C487 C 0.4602 0.17527 0.35523 0.0
C488 C 0.47486 0.22866 0.30055 0.0
C489 C 0.44317 0.18808 0.38751 0.0
C490 C 0.44272 0.22072 0.37749 0.0
C491 C 0.45971 0.27545 0.3245 0.0
C492 C 0.47563 0.29601 0.28043 0.0
C493 C 0.45881 0.24167 0.33431 0.0
C494 C 0.49036 0.2816 0.24687 0.0
C495 C 0.49021 0.24883 0.25679 0.0
H496 H 0.29296 0.47577 0.6186 0.0
H497 H 0.27729 0.48265 0.77532 0.0
H498 H 0.2225 0.48573 0.75703 0.0
H499 H 0.179 0.48871 0.69599 0.0
H500 H 0.19061 0.47437 0.5401 0.0
H501 H 0.24566 0.47179 0.55829 0.0
C502 C 0.27744 0.47757 0.64902 0.0
C503 C 0.29018 0.47905 0.69883 0.0
C504 C 0.2447 0.47815 0.63808 0.0
C505 C 0.26883 0.48117 0.73693 0.0
C506 C 0.23727 0.48314 0.72627 0.0
C507 C 0.19333 0.48475 0.66581 0.0
C508 C 0.17994 0.48207 0.61615 0.0
C509 C 0.22489 0.48199 0.67696 0.0
C510 C 0.19942 0.47651 0.57842 0.0
C511 C 0.23132 0.47516 0.58898 0.0
H512 H 0.83366 0.29867 0.96088 0.0
H513 H 0.81214 0.28725 1.11804 0.0
H514 H 0.75754 0.22821 1.10341 0.0
H515 H 0.71351 0.17982 1.04531 0.0
H516 H 0.73863 0.18786 0.88937 0.0
H517 H 0.79329 0.24686 0.90396 0.0
C518 C 0.8173 0.28312 0.99214 0.0
C519 C 0.82768 0.29818 1.04092 0.0
C520 C 0.78607 0.24802 0.98346 0.0
C521 C 0.80564 0.27693 1.08037 0.0
C522 C 0.77404 0.24294 1.07184 0.0
C523 C 0.73118 0.19412 1.01446 0.0
C524 C 0.72126 0.17851 0.96593 0.0
C525 C 0.76364 0.22812 1.02351 0.0
C526 C 0.74507 0.19822 0.92703 0.0
C527 C 0.7765 0.23242 0.93545 0.0
H528 H 0.59378 0.75112 0.29145 0.0
H529 H 0.48259 0.66977 0.31452 0.0
H530 H 0.4708 0.71567 0.35 0.0
H531 H 0.49074 0.7804 0.37197 0.0
H532 H 0.6031 0.86096 0.3588 0.0
H533 H 0.61542 0.81504 0.32319 0.0
C534 C 0.56717 0.74305 0.3056 0.0
C535 C 0.5394 0.7058 0.30082 0.0
C536 C 0.56053 0.77013 0.32773 0.0
C537 C 0.50501 0.69722 0.31853 0.0
C538 C 0.49806 0.72391 0.33856 0.0
C539 C 0.51813 0.78803 0.36202 0.0
C540 C 0.5459 0.82504 0.36848 0.0
C541 C 0.5254 0.76065 0.34307 0.0
C542 C 0.58102 0.83334 0.35493 0.0
C543 C 0.58808 0.80675 0.33425 0.0
H544 H 0.72806 0.53294 0.74184 0.0
H545 H 0.67451 0.51732 0.60033 0.0
H546 H 0.72497 0.51742 0.55851 0.0
H547 H 0.78517 0.52035 0.56 0.0
H548 H 0.83569 0.52884 0.7021 0.0
H549 H 0.7877 0.53386 0.74362 0.0
C550 C 0.72758 0.53033 0.70176 0.0
C551 C 0.69667 0.52599 0.67492 0.0
C552 C 0.75713 0.52932 0.67701 0.0
C553 C 0.69728 0.52125 0.62288 0.0
C554 C 0.72652 0.52122 0.59845 0.0
C555 C 0.78617 0.52388 0.59997 0.0
C556 C 0.81567 0.52517 0.62702 0.0
C557 C 0.75685 0.52516 0.62474 0.0
C558 C 0.81452 0.52841 0.67929 0.0
C559 C 0.78657 0.53114 0.70351 0.0
H560 H 0.28037 0.84032 1.01517 0.0
H561 H 0.28671 0.78975 0.87972 0.0
H562 H 0.23643 0.73177 0.90669 0.0
H563 H 0.18947 0.69327 0.96855 0.0
H564 H 0.17992 0.7426 1.10279 0.0
H565 H 0.23107 0.80138 1.07691 0.0
C566 C 0.27081 0.81674 0.99132 0.0
C567 C 0.28846 0.82062 0.94467 0.0
C568 C 0.24061 0.78233 1.00713 0.0
C569 C 0.27459 0.78881 0.91532 0.0
C570 C 0.24544 0.75508 0.93094 0.0
C571 C 0.19846 0.71675 0.99248 0.0
C572 C 0.18014 0.71242 1.03837 0.0
C573 C 0.22808 0.75119 0.97677 0.0
C574 C 0.19284 0.7441 1.06768 0.0
C575 C 0.22245 0.77814 1.05264 0.0
H576 H 0.529 0.07425 1.06037 0.0
H577 H 0.62354 0.07632 1.12042 0.0
H578 H 0.60284 0.07757 0.20491 0.0
H579 H 0.55765 0.07883 0.26634 0.0
H580 H 0.46073 0.07154 0.20614 0.0
H581 H 0.48203 0.07149 1.12176 0.0
C582 C 0.54547 0.07486 1.09153 0.0
C583 C 0.57903 0.07535 1.08064 0.0
C584 C 0.53251 0.0747 1.14237 0.0
C585 C 0.59815 0.07584 1.12441 0.0
C586 C 0.58603 0.07665 0.17403 0.0
C587 C 0.54071 0.07716 0.23519 0.0
C588 C 0.50655 0.07546 0.24603 0.0
C589 C 0.55319 0.07622 0.18435 0.0
C590 C 0.48656 0.07295 0.20224 0.0
C591 C 0.49909 0.07297 0.15265 0.0
H592 H 0.42603 0.5011 0.37473 0.0
H593 H 0.48122 0.61415 0.4161 0.0
H594 H 0.46589 0.59674 0.50361 0.0
H595 H 0.43694 0.54923 0.57173 0.0
H596 H 0.37591 0.43641 0.5298 0.0
H597 H 0.39262 0.45362 0.4424 0.0
C598 C 0.43434 0.52227 0.40247 0.0
C599 C 0.45487 0.55972 0.38616 0.0
C600 C 0.42411 0.51178 0.45431 0.0
C601 C 0.46507 0.58553 0.42499 0.0
C602 C 0.45633 0.57533 0.47604 0.0
C603 C 0.42682 0.52804 0.54378 0.0
C604 C 0.40458 0.49075 0.56002 0.0
C605 C 0.43581 0.53852 0.49175 0.0
C606 C 0.39254 0.46496 0.52091 0.0
C607 C 0.40239 0.47505 0.46997 0.0
H608 H 0.92271 0.48036 0.92567 0.0
H609 H 0.93971 0.39596 0.86679 0.0
H610 H 0.94058 0.4187 0.78222 0.0
H611 H 0.93621 0.46283 0.72146 0.0
H612 H 0.92003 0.54769 0.78067 0.0
H613 H 0.91978 0.52528 0.86526 0.0
C614 C 0.92701 0.46672 0.8948 0.0
C615 C 0.93138 0.43554 0.90565 0.0
C616 C 0.92768 0.48052 0.84446 0.0
C617 C 0.93626 0.41939 0.8625 0.0
C618 C 0.93679 0.43275 0.81306 0.0
C619 C 0.93269 0.47691 0.75252 0.0
C620 C 0.92815 0.50801 0.74174 0.0
C621 C 0.9325 0.46337 0.80291 0.0
C622 C 0.92369 0.52439 0.78495 0.0
C623 C 0.92347 0.51119 0.83438 0.0
H624 H 0.47851 0.92138 1.06025 0.0
H625 H 0.39671 0.94083 1.12057 0.0
H626 H 0.41952 0.94157 0.20464 0.0
H627 H 0.46292 0.93626 0.26583 0.0
H628 H 0.54729 0.92088 0.20558 0.0
H629 H 0.52397 0.91918 1.12138 0.0
C630 C 0.46529 0.92589 1.09135 0.0
C631 C 0.43457 0.93088 1.08061 0.0
C632 C 0.47953 0.92703 1.14203 0.0
C633 C 0.41969 0.93683 1.12435 0.0
C634 C 0.43306 0.93722 0.17379 0.0
C635 C 0.4767 0.93259 0.23471 0.0
C636 C 0.50797 0.92857 0.2455 0.0
C637 C 0.46304 0.93229 0.18397 0.0
C638 C 0.52389 0.92416 0.20171 0.0
C639 C 0.51014 0.92311 0.15224 0.0
H640 H 0.48842 0.41675 0.43087 0.0
H641 H 0.58015 0.49285 0.34534 0.0
H642 H 0.60943 0.52732 0.42076 0.0
H643 H 0.61111 0.53717 0.51502 0.0
H644 H 0.52044 0.45671 0.59878 0.0
H645 H 0.49065 0.4254 0.52346 0.0
C646 C 0.51478 0.44089 0.42812 0.0
C647 C 0.53118 0.4512 0.38001 0.0
C648 C 0.53257 0.46114 0.47318 0.0
C649 C 0.56585 0.48307 0.38011 0.0
C650 C 0.58305 0.50331 0.42414 0.0
C651 C 0.58472 0.51305 0.51735 0.0
C652 C 0.56847 0.50139 0.56572 0.0
C653 C 0.56704 0.49289 0.47167 0.0
C654 C 0.53429 0.46876 0.56449 0.0
C655 C 0.51678 0.44981 0.52031 0.0
H656 H 0.07415 0.60924 0.86251 0.0
H657 H 0.06408 0.52285 0.95757 0.0
H658 H 0.06176 0.48749 0.88572 0.0
H659 H 0.064 0.47879 0.79199 0.0
H660 H 0.08003 0.56801 0.69787 0.0
H661 H 0.07854 0.60152 0.76937 0.0
C662 C 0.07124 0.58267 0.86827 0.0
C663 C 0.06826 0.56971 0.91877 0.0
C664 C 0.07109 0.56155 0.82477 0.0
C665 C 0.06523 0.53468 0.92154 0.0
C666 C 0.06431 0.51386 0.87929 0.0
C667 C 0.06717 0.50549 0.78635 0.0
C668 C 0.07134 0.51907 0.73598 0.0
C669 C 0.06733 0.52659 0.82997 0.0
C670 C 0.07577 0.5547 0.73355 0.0
C671 C 0.07521 0.57481 0.77565 0.0
H672 H 0.18266 0.90624 1.11028 0.0
H673 H 0.24277 0.01763 1.06094 0.0
H674 H 0.24312 0.03881 1.14449 0.0
H675 H 0.24682 0.02549 0.23119 0.0
H676 H 0.19479 0.91437 0.2821 0.0
H677 H 0.17002 0.89321 0.19903 0.0
C678 C 0.1941 0.93505 1.11761 0.0
C679 C 0.21385 0.96027 1.08027 0.0
C680 C 0.19665 0.94711 0.16659 0.0
C681 C 0.2278 0.99755 1.08928 0.0
C682 C 0.22856 0.00979 1.13742 0.0
C683 C 0.22832 0.99675 0.22507 0.0
C684 C 0.22394 0.97135 0.26191 0.0
C685 C 0.21614 0.98483 0.17673 0.0
C686 C 0.19943 0.93431 0.25359 0.0
C687 C 0.18556 0.9222 0.20598 0.0
H688 H 0.25685 0.32441 0.35042 0.0
H689 H 0.25421 0.22339 0.38105 0.0
H690 H 0.22195 0.21699 0.45862 0.0
H691 H 0.2085 0.2475 0.52477 0.0
H692 H 0.22675 0.35593 0.49965 0.0
H693 H 0.23536 0.35065 0.41184 0.0
C694 C 0.24769 0.30011 0.37289 0.0
C695 C 0.25774 0.27434 0.36032 0.0
C696 C 0.2317 0.29808 0.41871 0.0
C697 C 0.24659 0.24345 0.39024 0.0
C698 C 0.22838 0.23996 0.43459 0.0
C699 C 0.21375 0.26973 0.49986 0.0
C700 C 0.21861 0.3026 0.51931 0.0
C701 C 0.2229 0.26826 0.45048 0.0
C702 C 0.22329 0.33037 0.48625 0.0
C703 C 0.22895 0.32768 0.4359 0.0
H704 H 0.01439 0.23059 0.74008 0.0
H705 H 0.10893 0.32824 0.79068 0.0
H706 H 0.09295 0.30961 0.87637 0.0
H707 H 0.0423 0.27957 0.93267 0.0
H708 H 0.93991 0.19355 0.87902 0.0
H709 H 0.96731 0.19381 0.79937 0.0
C710 C 0.032 0.24717 0.77004 0.0
C711 C 0.06148 0.28166 0.7592 0.0
C712 C 0.01996 0.23893 0.81904 0.0
C713 C 0.08543 0.30196 0.79776 0.0
C714 C 0.07586 0.29167 0.84706 0.0
C715 C 0.02649 0.25958 0.90443 0.0
C716 C 0.98927 0.23658 0.91117 0.0
C717 C 0.04158 0.26227 0.85773 0.0
C718 C 0.96867 0.21133 0.87423 0.0
C719 C 0.98431 0.21175 0.82872 0.0
H720 H 0.77344 0.98354 0.25714 0.0
H721 H 0.70345 0.87898 0.19008 0.0
H722 H 0.72415 0.9052 1.10777 0.0
H723 H 0.74524 0.96021 1.05837 0.0
H724 H 0.80854 0.0655 1.12696 0.0
H725 H 0.80806 0.03649 0.20565 0.0
C726 C 0.76412 0.96583 0.2249 0.0
C727 C 0.73577 0.92967 0.22943 0.0
C728 C 0.77431 0.98164 0.17791 0.0
C729 C 0.72457 0.90716 0.18726 0.0
C730 C 0.73609 0.92228 1.14018 0.0
C731 C 0.76069 0.97688 1.08971 0.0
C732 C 0.77619 0.01489 1.08751 0.0
C733 C 0.75847 0.96 1.13524 0.0
C734 C 0.79596 0.03615 1.12834 0.0
C735 C 0.79542 0.01954 0.17333 0.0
H736 H 0.77754 0.6835 0.4871 0.0
H737 H 0.72022 0.57383 0.54344 0.0
H738 H 0.6939 0.55123 0.46251 0.0
H739 H 0.67256 0.56479 0.38558 0.0
H740 H 0.72044 0.67564 0.33473 0.0
H741 H 0.76398 0.69579 0.40327 0.0
C742 C 0.7602 0.65454 0.48111 0.0
C743 C 0.75017 0.63066 0.52178 0.0
C744 C 0.74209 0.64211 0.43559 0.0
C745 C 0.72871 0.59303 0.51315 0.0
C746 C 0.7128 0.58005 0.46683 0.0
C747 C 0.69342 0.59312 0.38846 0.0
C748 C 0.69303 0.61882 0.35602 0.0
C749 C 0.71704 0.60467 0.4292 0.0
C750 C 0.72001 0.65552 0.36004 0.0
C751 C 0.74486 0.66702 0.39914 0.0
H752 H 0.913 0.68577 0.95405 0.0
H753 H 0.00947 0.77622 0.89331 0.0
H754 H 0.97793 0.77193 0.81639 0.0
H755 H 0.93049 0.73209 0.76027 0.0
H756 H 0.8364 0.63646 0.81576 0.0
H757 H 0.8592 0.65333 0.90077 0.0
C758 C 0.92669 0.70522 0.92447 0.0
C759 C 0.96373 0.73063 0.92905 0.0
C760 C 0.90902 0.70115 0.87889 0.0
C761 C 0.98098 0.75634 0.89105 0.0
C762 C 0.96306 0.75361 0.84655 0.0
C763 C 0.91385 0.7158 0.79091 0.0
C764 C 0.88226 0.6825 0.78162 0.0
C765 C 0.92802 0.72458 0.83902 0.0
C766 C 0.86123 0.66186 0.82202 0.0
C767 C 0.87443 0.67134 0.87055 0.0
H768 H 0.51723 0.06998 0.471 0.0
H769 H 0.43091 0.95948 0.48927 0.0
H770 H 0.4716 0.94658 0.53726 0.0
H771 H 0.51511 0.95742 0.46643 0.0
H772 H 0.60763 0.06367 0.449 0.0
H773 H 0.57925 0.08766 0.50419 0.0
C774 C 0.50677 0.04344 0.48761 0.0
C775 C 0.47263 0.01491 0.47292 0.0
C776 C 0.53061 0.03534 0.51217 0.0
C777 C 0.45804 0.98127 0.4971 0.0
C778 C 0.48122 0.97434 0.52542 0.0
C779 C 0.53152 0.98492 0.47962 0.0
C780 C 0.5621 0.0087 0.45273 0.0
C781 C 0.51789 -0.00233 0.51613 0.0
C782 C 0.58225 0.04528 0.46674 0.0
C783 C 0.56699 0.05856 0.50032 0.0
H784 H 0.46104 0.44305 0.79959 0.0
H785 H 0.45577 0.42238 0.64413 0.0
H786 H 0.48999 0.48779 0.62594 0.0
H787 H 0.51622 0.55029 0.65628 0.0
H788 H 0.53163 0.57177 0.8118 0.0
H789 H 0.49214 0.50712 0.83065 0.0
C790 C 0.46865 0.4532 0.76198 0.0
C791 C 0.45005 0.43065 0.72189 0.0
C792 C 0.48667 0.49065 0.75318 0.0
C793 C 0.46585 0.44144 0.67482 0.0
C794 C 0.4839 0.47858 0.66411 0.0
C795 C 0.50953 0.54057 0.69427 0.0
C796 C 0.53128 0.56269 0.73284 0.0
C797 C 0.49233 0.50331 0.70323 0.0
C798 C 0.51869 0.55281 0.78149 0.0
C799 C 0.49764 0.51583 0.79231 0.0
H800 H 0.01442 0.49255 1.00713 0.0
H801 H 0.02223 0.47401 0.16235 0.0
H802 H -0.00301 0.5132 0.18352 0.0
H803 H 0.96861 0.54925 0.15378 0.0
H804 H 0.94881 0.55357 1.0 0.0
H805 H 0.97381 0.51417 0.97991 0.0
C806 C 0.01196 0.49845 1.04568 0.0
C807 C 0.01662 0.47831 1.083 0.0
C808 C 0.99009 0.51288 1.0564 0.0
C809 C 0.016 0.48749 1.13289 0.0
C810 C -0.00023 0.50798 1.14493 0.0
C811 C 0.96907 0.54044 1.11612 0.0
C812 C 0.9678 0.56086 1.07597 0.0
C813 C 0.98519 0.51935 1.10671 0.0
C814 C 0.95777 0.54287 1.03003 0.0
C815 C 0.97282 0.52129 1.01826 0.0
H816 H 0.97592 0.46908 0.63836 0.0
H817 H 0.97448 0.44769 0.48305 0.0
H818 H -0.00224 0.51237 0.46376 0.0
H819 H 0.02555 0.5763 0.49564 0.0
H820 H 0.04277 0.59682 0.65033 0.0
H821 H 0.01531 0.53146 0.66864 0.0
C822 C 0.97975 0.47875 0.6002 0.0
C823 C 0.97979 0.45637 0.56259 0.0
C824 C 0.00079 0.51579 0.59132 0.0
C825 C 0.97913 0.46651 0.51306 0.0
C826 C -0.00577 0.50345 0.50211 0.0
C827 C 0.02398 0.56605 0.53309 0.0
C828 C 0.02511 0.587 0.57372 0.0
C829 C 0.00722 0.52854 0.54136 0.0
C830 C 0.03385 0.57768 0.61976 0.0
C831 C 0.01731 0.54057 0.63053 0.0
H832 H 0.45404 0.95282 0.85069 0.0
H833 H 0.46558 0.05891 0.86123 0.0
H834 H 0.51733 0.08178 0.8053 0.0
H835 H 0.56012 0.06563 0.85097 0.0
H836 H 0.54182 0.95675 0.83901 0.0
H837 H 0.49021 0.94162 0.78457 0.0
C838 C 0.4648 0.97993 0.83623 0.0
C839 C 0.45747 0.00415 0.86156 0.0
C840 C 0.49212 0.9923 0.80106 0.0
C841 C 0.47291 0.0402 0.84505 0.0
C842 C 0.5013 0.05276 0.81138 0.0
C843 C 0.54603 0.03909 0.8344 0.0
C844 C 0.55214 0.01158 0.85271 0.0
C845 C 0.51605 0.03015 0.80437 0.0
C846 C 0.53546 0.97764 0.82896 0.0
C847 C 0.50688 0.96956 0.79662 0.0
H848 H 0.43245 0.5372 1.09152 0.0
H849 H 0.36607 0.50124 0.2188 0.0
H850 H 0.36665 0.4441 0.21899 0.0
H851 H 0.41921 0.43663 0.225 0.0
H852 H 0.50911 0.49532 1.12652 0.0
H853 H 0.47252 0.51293 1.07513 0.0
C854 C 0.41748 0.51574 1.11835 0.0
C855 C 0.40764 0.52531 0.16295 0.0
C856 C 0.42689 0.48884 1.12502 0.0
C857 C 0.38032 0.49626 0.18954 0.0
C858 C 0.38133 0.46389 0.19017 0.0
C859 C 0.43093 0.45329 0.19228 0.0
C860 C 0.46797 0.46877 0.18251 0.0
C861 C 0.41048 0.4644 0.16548 0.0
C862 C 0.48172 0.48693 1.13735 0.0
C863 C 0.46042 0.49563 1.10718 0.0
H864 H 0.37974 0.93094 0.70063 0.0
H865 H 0.41283 0.02462 0.79363 0.0
H866 H 0.43573 0.06413 0.72064 0.0
H867 H 0.44668 0.07515 0.62553 0.0
H868 H 0.39663 0.98038 0.53206 0.0
H869 H 0.3814 0.9414 0.60538 0.0
C870 C 0.39179 0.95997 0.70599 0.0
C871 C 0.39513 0.97317 0.7572 0.0
C872 C 0.40263 0.98382 0.66099 0.0
C873 C 0.41036 0.01174 0.75811 0.0
C874 C 0.42346 0.03511 0.71484 0.0
C875 C 0.43253 0.046 0.62014 0.0
C876 C 0.42543 0.03249 0.56875 0.0
C877 C 0.42006 0.02207 0.66515 0.0
C878 C 0.40518 0.99366 0.56779 0.0
C879 C 0.39562 0.97053 0.61122 0.0
H880 H 0.39568 0.37803 1.06115 0.0
H881 H 0.51039 0.44501 1.04279 0.0
H882 H 0.50047 0.46357 0.96032 0.0
H883 H 0.45931 0.46323 0.89001 0.0
H884 H 0.34465 0.39379 0.90686 0.0
H885 H 0.35467 0.37558 0.98928 0.0
C886 C 0.41898 0.39659 1.03955 0.0
C887 C 0.45456 0.40882 1.06127 0.0
C888 C 0.41294 0.40778 0.98987 0.0
C889 C 0.4829 0.43341 1.02963 0.0
C890 C 0.47706 0.44475 0.98147 0.0
C891 C 0.43605 0.44416 0.91107 0.0
C892 C 0.40041 0.43086 0.8887 0.0
C893 C 0.44219 0.43247 0.96041 0.0
C894 C 0.37223 0.40552 0.91991 0.0
C895 C 0.3781 0.39477 0.9684 0.0
H896 H 0.98557 0.46229 0.24756 0.0
H897 H 0.96334 0.35179 0.23816 0.0
H898 H 0.98871 0.35695 0.32164 0.0
H899 H 0.01862 0.3925 0.40169 0.0
H900 H 0.04524 0.50454 0.40776 0.0
H901 H 0.01916 0.49896 0.32501 0.0
C902 C 0.98589 0.43893 0.26319 0.0
C903 C 0.97093 0.40598 0.23331 0.0
C904 C 0.0022 0.44238 0.31294 0.0
C905 C 0.97348 0.37744 0.25743 0.0
C906 C 0.98843 0.38045 0.30645 0.0
C907 C 0.01883 0.416 0.38563 0.0
C908 C 0.03493 0.44936 0.41469 0.0
C909 C 0.00312 0.41273 0.33543 0.0
C910 C 0.03385 0.47839 0.3895 0.0
C911 C 0.01821 0.4751 0.34099 0.0
H912 H 0.63408 0.0786 0.69921 0.0
H913 H 0.59808 0.98399 0.79173 0.0
H914 H 0.5766 0.94509 0.7183 0.0
H915 H 0.56762 0.93471 0.62328 0.0
H916 H 0.61993 0.02963 0.53059 0.0
H917 H 0.63386 0.0685 0.60386 0.0
C918 C 0.62147 0.04949 0.70435 0.0
C919 C 0.6168 0.03582 0.75551 0.0
C920 C 0.61142 0.02587 0.65918 0.0
C921 C 0.60134 0.99721 0.75617 0.0
C922 C 0.58909 0.97416 0.7127 0.0
C923 C 0.58219 0.9639 0.61808 0.0
C924 C 0.59054 0.97757 0.56698 0.0
C925 C 0.59374 0.98759 0.66313 0.0
C926 C 0.61075 0.01635 0.56609 0.0
C927 C 0.6195 0.03936 0.60953 0.0
H928 H 0.54094 0.5467 1.0704 0.0
H929 H 0.5408 0.64502 1.03177 0.0
H930 H 0.56187 0.64219 0.94788 0.0
H931 H 0.58182 0.61213 0.88082 0.0
H932 H 0.57554 0.51049 0.91844 0.0
H933 H 0.55677 0.51483 1.00279 0.0
C934 C 0.54503 0.56775 1.04414 0.0
C935 C 0.53833 0.59648 1.06126 0.0
C936 C 0.55691 0.5655 0.99333 0.0
C937 C 0.54493 0.62249 1.02323 0.0
C938 C 0.55737 0.62081 0.97387 0.0
C939 C 0.57671 0.59071 0.90705 0.0
C940 C 0.58193 0.56099 0.8899 0.0
C941 C 0.56384 0.59257 0.95761 0.0
C942 C 0.57319 0.53406 0.92734 0.0
C943 C 0.56196 0.5365 0.97692 0.0
H944 H 0.01201 0.55679 0.24898 0.0
H945 H 0.03602 0.66782 0.23906 0.0
H946 H 0.00991 0.66251 0.32178 0.0
H947 H 0.97908 0.62663 0.40166 0.0
H948 H 0.95226 0.5145 0.40812 0.0
H949 H 0.97826 0.52014 0.32594 0.0
C950 C 0.01174 0.58021 0.2641 0.0
C951 C 0.0274 0.61329 0.23416 0.0
C952 C -0.00461 0.57676 0.31358 0.0
C953 C 0.02526 0.642 0.25812 0.0
C954 C 0.0099 0.63888 0.30678 0.0
C955 C 0.97875 0.60308 0.38582 0.0
C956 C 0.9627 0.5697 0.4152 0.0
C957 C -0.00535 0.60645 0.33581 0.0
C958 C 0.96383 0.54076 0.39008 0.0
C959 C 0.97932 0.54404 0.34172 0.0
H960 H 0.62533 0.2677 0.56019 0.0
H961 H 0.70845 0.24114 0.58912 0.0
H962 H 0.70541 0.25062 0.678 0.0
H963 H 0.66295 0.24141 0.74406 0.0
H964 H 0.56845 0.2493 0.7121 0.0
H965 H 0.5913 0.27255 0.62879 0.0
C966 C 0.64432 0.26636 0.58591 0.0
C967 C 0.66637 0.25288 0.56906 0.0
C968 C 0.63872 0.26685 0.63694 0.0
C969 C 0.69113 0.25127 0.60181 0.0
C970 C 0.68866 0.25581 0.65268 0.0
C971 C 0.64847 0.25007 0.71939 0.0
C972 C 0.6141 0.24344 0.7329 0.0
C973 C 0.66008 0.25979 0.67053 0.0
C974 C 0.59495 0.25426 0.70167 0.0
C975 C 0.6079 0.26713 0.65406 0.0
H976 H 0.41738 0.68469 0.86834 0.0
H977 H 0.33193 0.57326 0.85439 0.0
H978 H 0.31075 0.57522 0.93725 0.0
H979 H 0.32815 0.60215 1.02028 0.0
H980 H 0.41925 0.71034 1.03687 0.0
H981 H 0.42603 0.71654 0.94713 0.0
C982 C 0.39327 0.6614 0.88285 0.0
C983 C 0.37691 0.62874 0.85598 0.0
C984 C 0.38266 0.66192 0.93179 0.0
C985 C 0.34521 0.59881 0.87441 0.0
C986 C 0.33334 0.59969 0.92223 0.0
C987 C 0.34844 0.62758 1.00393 0.0
C988 C 0.3735 0.6554 1.03487 0.0
C989 C 0.35358 0.63013 0.95242 0.0
C990 C 0.39953 0.68849 1.01374 0.0
C991 C 0.40379 0.69189 0.96234 0.0
H992 H 0.75255 0.4199 0.26254 0.0
H993 H 0.7678 0.32924 0.22843 0.0
H994 H 0.75391 0.30805 0.31355 0.0
H995 H 0.75762 0.32634 0.40025 0.0
H996 H 0.75933 0.42644 0.43451 0.0
H997 H 0.74489 0.43186 0.34888 0.0
C998 C 0.75191 0.39498 0.27351 0.0
C999 C 0.76263 0.37717 0.23957 0.0
C1000 C 0.74748 0.38489 0.32369 0.0
C1001 C 0.76009 0.34397 0.25363 0.0
C1002 C 0.75264 0.33201 0.30278 0.0
C1003 C 0.75389 0.34884 0.38918 0.0
C1004 C 0.76126 0.37668 0.42341 0.0
C1005 C 0.74944 0.35399 0.33873 0.0
C1006 C 0.75446 0.40469 0.40917 0.0
C1007 C 0.74675 0.40823 0.35969 0.0
H1008 H 0.3302 0.74319 0.5867 0.0
H1009 H 0.434 0.75118 0.56744 0.0
H1010 H 0.434 0.73423 0.65348 0.0
H1011 H 0.4152 0.73817 0.73754 0.0
H1012 H 0.32067 0.74851 0.75751 0.0
H1013 H 0.30575 0.73599 0.67017 0.0
C1014 C 0.35237 0.74027 0.60108 0.0
C1015 C 0.38269 0.75015 0.57115 0.0
C1016 C 0.35419 0.73451 0.65204 0.0
C1017 C 0.41037 0.74438 0.58947 0.0
C1018 C 0.41075 0.73523 0.63924 0.0
C1019 C 0.39087 0.73685 0.72295 0.0
C1020 C 0.37016 0.74594 0.75378 0.0
C1021 C 0.38447 0.73358 0.67159 0.0
C1022 C 0.33765 0.74218 0.73493 0.0
C1023 C 0.32928 0.73555 0.68447 0.0
H1024 H 0.43347 0.31966 0.90607 0.0
H1025 H 0.50672 0.29929 0.82242 0.0
H1026 H 0.54108 0.30468 0.89697 0.0
H1027 H 0.56369 0.34024 0.97449 0.0
H1028 H 0.49534 0.37022 1.05332 0.0
H1029 H 0.4472 0.33873 0.99256 0.0
C1030 C 0.4559 0.31455 0.90484 0.0
C1031 C 0.47038 0.31392 0.85848 0.0
C1032 C 0.47821 0.32257 0.94672 0.0
C1033 C 0.49675 0.30325 0.85738 0.0
C1034 C 0.51725 0.30734 0.89997 0.0
C1035 C 0.53789 0.33893 0.97885 0.0
C1036 C 0.53353 0.35917 1.01625 0.0
C1037 C 0.51065 0.32136 0.94308 0.0
C1038 C 0.49972 0.35648 1.02285 0.0
C1039 C 0.47199 0.33793 0.98866 0.0
H1040 H 0.25392 0.67648 0.38693 0.0
H1041 H 0.23895 0.57047 0.42156 0.0
H1042 H 0.25101 0.56274 0.33599 0.0
H1043 H 0.24502 0.57653 0.24963 0.0
H1044 H 0.24131 0.67406 0.21572 0.0
H1045 H 0.2588 0.69519 0.30024 0.0
C1046 C 0.2542 0.65207 0.37594 0.0
C1047 C 0.24401 0.62361 0.41028 0.0
C1048 C 0.25722 0.64598 0.32555 0.0
C1049 C 0.24623 0.59287 0.39613 0.0
C1050 C 0.2526 0.58809 0.34671 0.0
C1051 C 0.24896 0.60285 0.26048 0.0
C1052 C 0.24004 0.62261 0.22689 0.0
C1053 C 0.25488 0.61299 0.31063 0.0
C1054 C 0.24725 0.65763 0.24063 0.0
C1055 C 0.25671 0.66961 0.28954 0.0
loop_
_geom_bond_atom_site_label_1
_geom_bond_atom_site_label_2
_geom_bond_distance
_geom_bond_site_symmetry_2
_ccdc_geom_bond_type
Nd0 C2 2.836 . S
Nd0 O20 2.500 . S
Nd0 O21 2.492 . S
Nd0 O22 2.487 . S
Nd0 O23 2.682 . S
Nd0 O24 2.410 . S
Nd0 O29 2.414 . S
Nd0 O31 2.424 . S
Nd1 C11 2.836 . S
Nd1 O23 2.414 . S
Nd1 O25 2.424 . S
Nd1 O26 2.500 . S
Nd1 O27 2.492 . S
Nd1 O28 2.487 . S
Nd1 O29 2.682 . S
Nd1 O30 2.410 . S
C2 Nd0 2.836 . S
C2 C3 1.498 . S
C2 O20 1.258 . S
C2 O21 1.239 . S
C3 C2 1.498 . S
C3 C4 1.366 . S
C3 C8 1.407 . S
C4 C3 1.366 . S
C4 C5 1.392 . S
C4 H32 0.930 . S
C5 C4 1.392 . S
C5 C6 1.398 . S
C5 H33 0.929 . S
C6 C5 1.398 . S
C6 C7 1.352 . S
C7 C6 1.352 . S
C7 C8 1.384 . S
C7 H34 0.930 . S
C8 C3 1.407 . S
C8 C7 1.384 . S
C8 H35 0.929 . S
C9 O22 1.241 . S
C9 O23 1.273 . S
C10 O24 1.251 . S
C10 O25 1.268 . S
C11 Nd1 2.836 . S
C11 C12 1.498 . S
C11 O26 1.258 . S
C11 O27 1.239 . S
C12 C11 1.498 . S
C12 C13 1.366 . S
C12 C17 1.407 . S
C13 C12 1.366 . S
C13 C14 1.392 . S
C13 H36 0.930 . S
C14 C13 1.392 . S
C14 C15 1.398 . S
C14 H37 0.929 . S
C15 C14 1.398 . S
C15 C16 1.337 1_545 S
C16 C15 1.337 1_565 S
C16 C17 1.383 1_565 S
C16 H38 0.946 . S
C17 C12 1.407 . S
C17 C16 1.383 1_545 S
C17 H39 0.929 1_545 S
C18 O28 1.241 . S
C18 O29 1.273 . S
C19 O30 1.251 . S
C19 O31 1.268 . S
O20 Nd0 2.500 . S
O20 C2 1.258 . S
O21 Nd0 2.492 . S
O21 C2 1.239 . S
O22 Nd0 2.487 . S
O22 C9 1.241 . S
O23 Nd0 2.682 . S
O23 Nd1 2.414 . S
O23 C9 1.273 . S
O24 Nd0 2.410 . S
O24 C10 1.251 . S
O25 Nd1 2.424 . S
O25 C10 1.268 . S
O26 Nd1 2.500 . S
O26 C11 1.258 . S
O27 Nd1 2.492 . S
O27 C11 1.239 . S
O28 Nd1 2.487 . S
O28 C18 1.241 . S
O29 Nd0 2.414 . S
O29 Nd1 2.682 . S
O29 C18 1.273 . S
O30 Nd1 2.410 . S
O30 C19 1.251 . S
O31 Nd0 2.424 . S
O31 C19 1.268 . S
H32 C4 0.930 . S
H33 C5 0.929 . S
H34 C7 0.930 . S
H35 C8 0.929 . S
H36 C13 0.930 . S
H37 C14 0.929 . S
H38 C16 0.946 . S
H39 C17 0.929 1_565 S
Nd40 C42 2.836 . S
Nd40 O60 2.500 . S
Nd40 O61 2.492 . S
Nd40 O62 2.487 . S
Nd40 O63 2.682 . S
Nd40 O64 2.410 . S
Nd40 O69 2.414 . S
Nd40 O71 2.424 . S
Nd41 C51 2.836 . S
Nd41 O63 2.414 . S
Nd41 O65 2.424 . S
Nd41 O66 2.500 . S
Nd41 O67 2.492 . S
Nd41 O68 2.487 . S
Nd41 O69 2.682 . S
Nd41 O70 2.410 . S
C42 Nd40 2.836 . S
C42 C43 1.498 . S
C42 O60 1.258 . S
C42 O61 1.239 . S
C43 C42 1.498 . S
C43 C44 1.366 . S
C43 C48 1.407 . S
C44 C43 1.366 . S
C44 C45 1.392 . S
C44 H72 0.930 . S
C45 C44 1.392 . S
C45 C46 1.398 . S
C45 H73 0.929 . S
C46 C45 1.398 . S
C46 C47 1.352 . S
C47 C46 1.352 . S
C47 C48 1.384 . S
C47 H74 0.930 . S
C48 C43 1.407 . S
C48 C47 1.384 . S
C48 H75 0.929 . S
C49 O62 1.241 . S
C49 O63 1.273 . S
C50 O64 1.251 . S
C50 O65 1.268 . S
C51 Nd41 2.836 . S
C51 C52 1.498 . S
C51 O66 1.258 . S
C51 O67 1.239 . S
C52 C51 1.498 . S
C52 C53 1.366 . S
C52 C57 1.407 . S
C53 C52 1.366 . S
C53 C54 1.392 . S
C53 H76 0.930 . S
C54 C53 1.392 . S
C54 C55 1.398 . S
C54 H77 0.929 . S
C55 C54 1.398 . S
C55 C56 1.352 . S
C56 C55 1.352 . S
C56 C57 1.384 . S
C56 H78 0.930 . S
C57 C52 1.407 . S
C57 C56 1.384 . S
C57 H79 0.929 . S
C58 O68 1.241 . S
C58 O69 1.273 . S
C59 O70 1.251 . S
C59 O71 1.268 . S
O60 Nd40 2.500 . S
O60 C42 1.258 . S
O61 Nd40 2.492 . S
O61 C42 1.239 . S
O62 Nd40 2.487 . S
O62 C49 1.241 . S
O63 Nd40 2.682 . S
O63 Nd41 2.414 . S
O63 C49 1.273 . S
O64 Nd40 2.410 . S
O64 C50 1.251 . S
O65 Nd41 2.424 . S
O65 C50 1.268 . S
O66 Nd41 2.500 . S
O66 C51 1.258 . S
O67 Nd41 2.492 . S
O67 C51 1.239 . S
O68 Nd41 2.487 . S
O68 C58 1.241 . S
O69 Nd40 2.414 . S
O69 Nd41 2.682 . S
O69 C58 1.273 . S
O70 Nd41 2.410 . S
O70 C59 1.251 . S
O71 Nd40 2.424 . S
O71 C59 1.268 . S
H72 C44 0.930 . S
H73 C45 0.929 . S
H74 C47 0.930 . S
H75 C48 0.929 . S
H76 C53 0.930 . S
H77 C54 0.929 . S
H78 C56 0.930 . S
H79 C57 0.929 . S
Nd80 C82 2.836 1_556 S
Nd80 O100 2.518 . S
Nd80 O101 2.492 . S
Nd80 O102 2.487 . S
Nd80 O103 2.682 . S
Nd80 O104 2.410 . S
Nd80 O109 2.414 . S
Nd80 O111 2.424 . S
Nd81 C91 2.836 . S
Nd81 O103 2.414 . S
Nd81 O105 2.424 . S
Nd81 O106 2.500 . S
Nd81 O107 2.492 . S
Nd81 O108 2.487 . S
Nd81 O109 2.682 . S
Nd81 O110 2.410 . S
C82 Nd80 2.836 1_554 S
C82 C83 1.498 . S
C82 O100 1.250 1_554 S
C82 O101 1.239 1_554 S
C83 C82 1.498 . S
C83 C84 1.366 . S
C83 C88 1.407 . S
C84 C83 1.366 . S
C84 C85 1.392 . S
C84 H112 0.930 . S
C85 C84 1.392 . S
C85 C86 1.398 . S
C85 H113 0.929 . S
C86 C85 1.398 . S
C86 C87 1.352 . S
C87 C86 1.352 . S
C87 C88 1.384 . S
C87 H114 0.930 . S
C88 C83 1.407 . S
C88 C87 1.384 . S
C88 H115 0.929 . S
C89 O102 1.241 . S
C89 O103 1.273 . S
C90 O104 1.251 . S
C90 O105 1.268 . S
C91 Nd81 2.836 . S
C91 C92 1.498 . S
C91 O106 1.258 . S
C91 O107 1.239 . S
C92 C91 1.498 . S
C92 C93 1.366 . S
C92 C97 1.407 . S
C93 C92 1.366 . S
C93 C94 1.392 . S
C93 H116 0.930 . S
C94 C93 1.392 . S
C94 C95 1.398 . S
C94 H117 0.929 . S
C95 C94 1.398 . S
C95 C96 1.344 1_655 S
C96 C95 1.344 1_455 S
C96 C97 1.378 1_455 S
C96 H118 0.945 . S
C97 C92 1.407 . S
C97 C96 1.378 1_655 S
C97 H119 0.929 1_655 S
C98 O108 1.241 . S
C98 O109 1.273 . S
C99 O110 1.251 . S
C99 O111 1.268 . S
O100 Nd80 2.518 . S
O100 C82 1.250 1_556 S
O101 Nd80 2.492 . S
O101 C82 1.239 1_556 S
O102 Nd80 2.487 . S
O102 C89 1.241 . S
O103 Nd80 2.682 . S
O103 Nd81 2.414 . S
O103 C89 1.273 . S
O104 Nd80 2.410 . S
O104 C90 1.251 . S
O105 Nd81 2.424 . S
O105 C90 1.268 . S
O106 Nd81 2.500 . S
O106 C91 1.258 . S
O107 Nd81 2.492 . S
O107 C91 1.239 . S
O108 Nd81 2.487 . S
O108 C98 1.241 . S
O109 Nd80 2.414 . S
O109 Nd81 2.682 . S
O109 C98 1.273 . S
O110 Nd81 2.410 . S
O110 C99 1.251 . S
O111 Nd80 2.424 . S
O111 C99 1.268 . S
H112 C84 0.930 . S
H113 C85 0.929 . S
H114 C87 0.930 . S
H115 C88 0.929 . S
H116 C93 0.930 . S
H117 C94 0.929 . S
H118 C96 0.945 . S
H119 C97 0.929 1_455 S
Nd120 C122 2.836 . S
Nd120 O140 2.500 . S
Nd120 O141 2.492 . S
Nd120 O142 2.487 . S
Nd120 O143 2.682 . S
Nd120 O144 2.410 . S
Nd120 O149 2.414 . S
Nd120 O151 2.424 . S
Nd121 C131 2.836 . S
Nd121 O143 2.414 . S
Nd121 O145 2.424 . S
Nd121 O146 2.500 . S
Nd121 O147 2.492 . S
Nd121 O148 2.487 . S
Nd121 O149 2.682 . S
Nd121 O150 2.410 . S
C122 Nd120 2.836 . S
C122 C123 1.498 . S
C122 O140 1.258 . S
C122 O141 1.239 . S
C123 C122 1.498 . S
C123 C124 1.366 . S
C123 C128 1.407 . S
C124 C123 1.366 . S
C124 C125 1.392 . S
C124 H152 0.930 . S
C125 C124 1.392 . S
C125 C126 1.398 . S
C125 H153 0.929 . S
C126 C125 1.398 . S
C126 C127 1.352 . S
C127 C126 1.352 . S
C127 C128 1.384 . S
C127 H154 0.930 . S
C128 C123 1.407 . S
C128 C127 1.384 . S
C128 H155 0.929 . S
C129 O142 1.241 . S
C129 O143 1.273 . S
C130 O144 1.251 . S
C130 O145 1.268 . S
C131 Nd121 2.836 . S
C131 C132 1.498 . S
C131 O146 1.258 . S
C131 O147 1.239 . S
C132 C131 1.498 . S
C132 C133 1.366 . S
C132 C137 1.407 . S
C133 C132 1.366 . S
C133 C134 1.392 . S
C133 H156 0.930 . S
C134 C133 1.392 . S
C134 C135 1.398 . S
C134 H157 0.929 . S
C135 C134 1.398 . S
C135 C136 1.337 1_565 S
C136 C135 1.337 1_545 S
C136 C137 1.383 1_545 S
C136 H158 0.946 . S
C137 C132 1.407 . S
C137 C136 1.383 1_565 S
C137 H159 0.929 1_565 S
C138 O148 1.241 . S
C138 O149 1.273 . S
C139 O150 1.251 . S
C139 O151 1.268 . S
O140 Nd120 2.500 . S
O140 C122 1.258 . S
O141 Nd120 2.492 . S
O141 C122 1.239 . S
O142 Nd120 2.487 . S
O142 C129 1.241 . S
O143 Nd120 2.682 . S
O143 Nd121 2.414 . S
O143 C129 1.273 . S
O144 Nd120 2.410 . S
O144 C130 1.251 . S
O145 Nd121 2.424 . S
O145 C130 1.268 . S
O146 Nd121 2.500 . S
O146 C131 1.258 . S
O147 Nd121 2.492 . S
O147 C131 1.239 . S
O148 Nd121 2.487 . S
O148 C138 1.241 . S
O149 Nd120 2.414 . S
O149 Nd121 2.682 . S
O149 C138 1.273 . S
O150 Nd121 2.410 . S
O150 C139 1.251 . S
O151 Nd120 2.424 . S
O151 C139 1.268 . S
H152 C124 0.930 . S
H153 C125 0.929 . S
H154 C127 0.930 . S
H155 C128 0.929 . S
H156 C133 0.930 . S
H157 C134 0.929 . S
H158 C136 0.946 . S
H159 C137 0.929 1_545 S
Nd160 C162 2.836 . S
Nd160 O180 2.500 . S
Nd160 O181 2.492 . S
Nd160 O182 2.487 . S
Nd160 O183 2.682 . S
Nd160 O184 2.410 . S
Nd160 O189 2.414 . S
Nd160 O191 2.424 . S
Nd161 C171 2.836 . S
Nd161 O183 2.414 . S
Nd161 O185 2.424 . S
Nd161 O186 2.500 . S
Nd161 O187 2.492 . S
Nd161 O188 2.487 . S
Nd161 O189 2.682 . S
Nd161 O190 2.410 . S
C162 Nd160 2.836 . S
C162 C163 1.498 . S
C162 O180 1.258 . S
C162 O181 1.239 . S
C163 C162 1.498 . S
C163 C164 1.366 . S
C163 C168 1.407 . S
C164 C163 1.366 . S
C164 C165 1.392 . S
C164 H192 0.930 . S
C165 C164 1.392 . S
C165 C166 1.398 . S
C165 H193 0.929 . S
C166 C165 1.398 . S
C166 C167 1.352 . S
C167 C166 1.352 . S
C167 C168 1.384 . S
C167 H194 0.930 . S
C168 C163 1.407 . S
C168 C167 1.384 . S
C168 H195 0.929 . S
C169 O182 1.241 . S
C169 O183 1.273 . S
C170 O184 1.251 . S
C170 O185 1.268 . S
C171 Nd161 2.836 . S
C171 C172 1.498 . S
C171 O186 1.258 . S
C171 O187 1.239 . S
C172 C171 1.498 . S
C172 C173 1.366 . S
C172 C177 1.407 . S
C173 C172 1.366 . S
C173 C174 1.392 . S
C173 H196 0.930 . S
C174 C173 1.392 . S
C174 C175 1.398 . S
C174 H197 0.929 . S
C175 C174 1.398 . S
C175 C176 1.352 . S
C176 C175 1.352 . S
C176 C177 1.384 . S
C176 H198 0.930 . S
C177 C172 1.407 . S
C177 C176 1.384 . S
C177 H199 0.929 . S
C178 O188 1.241 . S
C178 O189 1.273 . S
C179 O190 1.251 . S
C179 O191 1.268 . S
O180 Nd160 2.500 . S
O180 C162 1.258 . S
O181 Nd160 2.492 . S
O181 C162 1.239 . S
O182 Nd160 2.487 . S
O182 C169 1.241 . S
O183 Nd160 2.682 . S
O183 Nd161 2.414 . S
O183 C169 1.273 . S
O184 Nd160 2.410 . S
O184 C170 1.251 . S
O185 Nd161 2.424 . S
O185 C170 1.268 . S
O186 Nd161 2.500 . S
O186 C171 1.258 . S
O187 Nd161 2.492 . S
O187 C171 1.239 . S
O188 Nd161 2.487 . S
O188 C178 1.241 . S
O189 Nd160 2.414 . S
O189 Nd161 2.682 . S
O189 C178 1.273 . S
O190 Nd161 2.410 . S
O190 C179 1.251 . S
O191 Nd160 2.424 . S
O191 C179 1.268 . S
H192 C164 0.930 . S
H193 C165 0.929 . S
H194 C167 0.930 . S
H195 C168 0.929 . S
H196 C173 0.930 . S
H197 C174 0.929 . S
H198 C176 0.930 . S
H199 C177 0.929 . S
Nd200 C202 2.836 1_556 S
Nd200 O220 2.518 . S
Nd200 O221 2.492 . S
Nd200 O222 2.487 . S
Nd200 O223 2.682 . S
Nd200 O224 2.410 . S
Nd200 O229 2.414 . S
Nd200 O231 2.424 . S
Nd201 C211 2.836 . S
Nd201 O223 2.414 . S
Nd201 O225 2.424 . S
Nd201 O226 2.500 . S
Nd201 O227 2.492 . S
Nd201 O228 2.487 . S
Nd201 O229 2.682 . S
Nd201 O230 2.410 . S
C202 Nd200 2.836 1_554 S
C202 C203 1.498 . S
C202 O220 1.250 1_554 S
C202 O221 1.239 1_554 S
C203 C202 1.498 . S
C203 C204 1.366 . S
C203 C208 1.407 . S
C204 C203 1.366 . S
C204 C205 1.392 . S
C204 H232 0.930 . S
C205 C204 1.392 . S
C205 C206 1.398 . S
C205 H233 0.929 . S
C206 C205 1.398 . S
C206 C207 1.352 . S
C207 C206 1.352 . S
C207 C208 1.384 . S
C207 H234 0.930 . S
C208 C203 1.407 . S
C208 C207 1.384 . S
C208 H235 0.929 . S
C209 O222 1.241 . S
C209 O223 1.273 . S
C210 O224 1.251 . S
C210 O225 1.268 . S
C211 Nd201 2.836 . S
C211 C212 1.498 . S
C211 O226 1.258 . S
C211 O227 1.239 . S
C212 C211 1.498 . S
C212 C213 1.366 . S
C212 C217 1.407 . S
C213 C212 1.366 . S
C213 C214 1.392 . S
C213 H236 0.930 . S
C214 C213 1.392 . S
C214 C215 1.398 . S
C214 H237 0.929 . S
C215 C214 1.398 . S
C215 C216 1.344 1_455 S
C216 C215 1.344 1_655 S
C216 C217 1.378 1_655 S
C216 H238 0.945 . S
C217 C212 1.407 . S
C217 C216 1.378 1_455 S
C217 H239 0.929 1_455 S
C218 O228 1.241 . S
C218 O229 1.273 . S
C219 O230 1.251 . S
C219 O231 1.268 . S
O220 Nd200 2.518 . S
O220 C202 1.250 1_556 S
O221 Nd200 2.492 . S
O221 C202 1.239 1_556 S
O222 Nd200 2.487 . S
O222 C209 1.241 . S
O223 Nd200 2.682 . S
O223 Nd201 2.414 . S
O223 C209 1.273 . S
O224 Nd200 2.410 . S
O224 C210 1.251 . S
O225 Nd201 2.424 . S
O225 C210 1.268 . S
O226 Nd201 2.500 . S
O226 C211 1.258 . S
O227 Nd201 2.492 . S
O227 C211 1.239 . S
O228 Nd201 2.487 . S
O228 C218 1.241 . S
O229 Nd200 2.414 . S
O229 Nd201 2.682 . S
O229 C218 1.273 . S
O230 Nd201 2.410 . S
O230 C219 1.251 . S
O231 Nd200 2.424 . S
O231 C219 1.268 . S
H232 C204 0.930 . S
H233 C205 0.929 . S
H234 C207 0.930 . S
H235 C208 0.929 . S
H236 C213 0.930 . S
H237 C214 0.929 . S
H238 C216 0.945 . S
H239 C217 0.929 1_655 S
Nd240 C242 2.836 . S
Nd240 O260 2.500 . S
Nd240 O261 2.492 . S
Nd240 O262 2.487 . S
Nd240 O263 2.682 . S
Nd240 O264 2.410 . S
Nd240 O269 2.414 . S
Nd240 O271 2.424 . S
Nd241 C251 2.836 . S
Nd241 O263 2.414 . S
Nd241 O265 2.424 . S
Nd241 O266 2.500 . S
Nd241 O267 2.492 . S
Nd241 O268 2.487 . S
Nd241 O269 2.682 . S
Nd241 O270 2.410 . S
C242 Nd240 2.836 . S
C242 C243 1.498 . S
C242 O260 1.258 . S
C242 O261 1.239 . S
C243 C242 1.498 . S
C243 C244 1.366 . S
C243 C248 1.407 . S
C244 C243 1.366 . S
C244 C245 1.392 . S
C244 H272 0.930 . S
C245 C244 1.392 . S
C245 C246 1.398 . S
C245 H273 0.929 . S
C246 C245 1.398 . S
C246 C247 1.352 . S
C247 C246 1.352 . S
C247 C248 1.384 . S
C247 H274 0.930 . S
C248 C243 1.407 . S
C248 C247 1.384 . S
C248 H275 0.929 . S
C249 O262 1.241 . S
C249 O263 1.273 . S
C250 O264 1.251 . S
C250 O265 1.268 . S
C251 Nd241 2.836 . S
C251 C252 1.498 . S
C251 O266 1.258 . S
C251 O267 1.239 . S
C252 C251 1.498 . S
C252 C253 1.366 . S
C252 C257 1.407 . S
C253 C252 1.366 . S
C253 C254 1.392 . S
C253 H276 0.930 . S
C254 C253 1.392 . S
C254 C255 1.398 . S
C254 H277 0.929 . S
C255 C254 1.398 . S
C255 C256 1.337 1_655 S
C256 C255 1.337 1_455 S
C256 C257 1.383 1_455 S
C256 H278 0.946 . S
C257 C252 1.407 . S
C257 C256 1.383 1_655 S
C257 H279 0.929 1_655 S
C258 O268 1.241 . S
C258 O269 1.273 . S
C259 O270 1.251 . S
C259 O271 1.268 . S
O260 Nd240 2.500 . S
O260 C242 1.258 . S
O261 Nd240 2.492 . S
O261 C242 1.239 . S
O262 Nd240 2.487 . S
O262 C249 1.241 . S
O263 Nd240 2.682 . S
O263 Nd241 2.414 . S
O263 C249 1.273 . S
O264 Nd240 2.410 . S
O264 C250 1.251 . S
O265 Nd241 2.424 . S
O265 C250 1.268 . S
O266 Nd241 2.500 . S
O266 C251 1.258 . S
O267 Nd241 2.492 . S
O267 C251 1.239 . S
O268 Nd241 2.487 . S
O268 C258 1.241 . S
O269 Nd240 2.414 . S
O269 Nd241 2.682 . S
O269 C258 1.273 . S
O270 Nd241 2.410 . S
O270 C259 1.251 . S
O271 Nd240 2.424 . S
O271 C259 1.268 . S
H272 C244 0.930 . S
H273 C245 0.929 . S
H274 C247 0.930 . S
H275 C248 0.929 . S
H276 C253 0.930 . S
H277 C254 0.929 . S
H278 C256 0.946 . S
H279 C257 0.929 1_455 S
Nd280 C282 2.836 . S
Nd280 O300 2.500 . S
Nd280 O301 2.492 . S
Nd280 O302 2.487 . S
Nd280 O303 2.682 . S
Nd280 O304 2.410 . S
Nd280 O309 2.414 . S
Nd280 O311 2.424 . S
Nd281 C291 2.836 . S
Nd281 O303 2.414 . S
Nd281 O305 2.424 . S
Nd281 O306 2.500 . S
Nd281 O307 2.492 . S
Nd281 O308 2.487 . S
Nd281 O309 2.682 . S
Nd281 O310 2.410 . S
C282 Nd280 2.836 . S
C282 C283 1.498 . S
C282 O300 1.258 . S
C282 O301 1.239 . S
C283 C282 1.498 . S
C283 C284 1.366 . S
C283 C288 1.407 . S
C284 C283 1.366 . S
C284 C285 1.392 . S
C284 H312 0.930 . S
C285 C284 1.392 . S
C285 C286 1.398 . S
C285 H313 0.929 . S
C286 C285 1.398 . S
C286 C287 1.352 . S
C287 C286 1.352 . S
C287 C288 1.384 . S
C287 H314 0.930 . S
C288 C283 1.407 . S
C288 C287 1.384 . S
C288 H315 0.929 . S
C289 O302 1.241 . S
C289 O303 1.273 . S
C290 O304 1.251 . S
C290 O305 1.268 . S
C291 Nd281 2.836 . S
C291 C292 1.498 . S
C291 O306 1.258 . S
C291 O307 1.239 . S
C292 C291 1.498 . S
C292 C293 1.366 . S
C292 C297 1.407 . S
C293 C292 1.366 . S
C293 C294 1.392 . S
C293 H316 0.930 . S
C294 C293 1.392 . S
C294 C295 1.398 . S
C294 H317 0.929 . S
C295 C294 1.398 . S
C295 C296 1.344 1_565 S
C296 C295 1.344 1_545 S
C296 C297 1.378 1_545 S
C296 H318 0.945 . S
C297 C292 1.407 . S
C297 C296 1.378 1_565 S
C297 H319 0.929 1_565 S
C298 O308 1.241 . S
C298 O309 1.273 . S
C299 O310 1.251 . S
C299 O311 1.268 . S
O300 Nd280 2.500 . S
O300 C282 1.258 . S
O301 Nd280 2.492 . S
O301 C282 1.239 . S
O302 Nd280 2.487 . S
O302 C289 1.241 . S
O303 Nd280 2.682 . S
O303 Nd281 2.414 . S
O303 C289 1.273 . S
O304 Nd280 2.410 . S
O304 C290 1.251 . S
O305 Nd281 2.424 . S
O305 C290 1.268 . S
O306 Nd281 2.500 . S
O306 C291 1.258 . S
O307 Nd281 2.492 . S
O307 C291 1.239 . S
O308 Nd281 2.487 . S
O308 C298 1.241 . S
O309 Nd280 2.414 . S
O309 Nd281 2.682 . S
O309 C298 1.273 . S
O310 Nd281 2.410 . S
O310 C299 1.251 . S
O311 Nd280 2.424 . S
O311 C299 1.268 . S
H312 C284 0.930 . S
H313 C285 0.929 . S
H314 C287 0.930 . S
H315 C288 0.929 . S
H316 C293 0.930 . S
H317 C294 0.929 . S
H318 C296 0.945 . S
H319 C297 0.929 1_545 S
Nd320 C322 2.836 1_554 S
Nd320 O340 2.518 . S
Nd320 O341 2.492 . S
Nd320 O342 2.487 . S
Nd320 O343 2.682 . S
Nd320 O344 2.410 . S
Nd320 O349 2.414 . S
Nd320 O351 2.424 . S
Nd321 C331 2.836 . S
Nd321 O343 2.414 . S
Nd321 O345 2.424 . S
Nd321 O346 2.500 . S
Nd321 O347 2.492 . S
Nd321 O348 2.487 . S
Nd321 O349 2.682 . S
Nd321 O350 2.410 . S
C322 Nd320 2.836 1_556 S
C322 C323 1.498 . S
C322 O340 1.250 1_556 S
C322 O341 1.239 1_556 S
C323 C322 1.498 . S
C323 C324 1.366 . S
C323 C328 1.407 . S
C324 C323 1.366 . S
C324 C325 1.392 . S
C324 H352 0.930 . S
C325 C324 1.392 . S
C325 C326 1.398 . S
C325 H353 0.929 . S
C326 C325 1.398 . S
C326 C327 1.352 . S
C327 C326 1.352 . S
C327 C328 1.384 . S
C327 H354 0.930 . S
C328 C323 1.407 . S
C328 C327 1.384 . S
C328 H355 0.929 . S
C329 O342 1.241 . S
C329 O343 1.273 . S
C330 O344 1.251 . S
C330 O345 1.268 . S
C331 Nd321 2.836 . S
C331 C332 1.498 . S
C331 O346 1.258 . S
C331 O347 1.239 . S
C332 C331 1.498 . S
C332 C333 1.366 . S
C332 C337 1.407 . S
C333 C332 1.366 . S
C333 C334 1.392 . S
C333 H356 0.930 . S
C334 C333 1.392 . S
C334 C335 1.398 . S
C334 H357 0.929 . S
C335 C334 1.398 . S
C335 C336 1.352 . S
C336 C335 1.352 . S
C336 C337 1.384 . S
C336 H358 0.930 . S
C337 C332 1.407 . S
C337 C336 1.384 . S
C337 H359 0.929 . S
C338 O348 1.241 . S
C338 O349 1.273 . S
C339 O350 1.251 . S
C339 O351 1.268 . S
O340 Nd320 2.518 . S
O340 C322 1.250 1_554 S
O341 Nd320 2.492 . S
O341 C322 1.239 1_554 S
O342 Nd320 2.487 . S
O342 C329 1.241 . S
O343 Nd320 2.682 . S
O343 Nd321 2.414 . S
O343 C329 1.273 . S
O344 Nd320 2.410 . S
O344 C330 1.251 . S
O345 Nd321 2.424 . S
O345 C330 1.268 . S
O346 Nd321 2.500 . S
O346 C331 1.258 . S
O347 Nd321 2.492 . S
O347 C331 1.239 . S
O348 Nd321 2.487 . S
O348 C338 1.241 . S
O349 Nd320 2.414 . S
O349 Nd321 2.682 . S
O349 C338 1.273 . S
O350 Nd321 2.410 . S
O350 C339 1.251 . S
O351 Nd320 2.424 . S
O351 C339 1.268 . S
H352 C324 0.930 . S
H353 C325 0.929 . S
H354 C327 0.930 . S
H355 C328 0.929 . S
H356 C333 0.930 . S
H357 C334 0.929 . S
H358 C336 0.930 . S
H359 C337 0.929 . S
Nd360 C362 2.836 . S
Nd360 O380 2.500 . S
Nd360 O381 2.492 . S
Nd360 O382 2.487 . S
Nd360 O383 2.682 . S
Nd360 O384 2.410 . S
Nd360 O389 2.414 . S
Nd360 O391 2.424 . S
Nd361 C371 2.836 . S
Nd361 O383 2.414 . S
Nd361 O385 2.424 . S
Nd361 O386 2.500 . S
Nd361 O387 2.492 . S
Nd361 O388 2.487 . S
Nd361 O389 2.682 . S
Nd361 O390 2.410 . S
C362 Nd360 2.836 . S
C362 C363 1.498 . S
C362 O380 1.258 . S
C362 O381 1.239 . S
C363 C362 1.498 . S
C363 C364 1.366 . S
C363 C368 1.407 . S
C364 C363 1.366 . S
C364 C365 1.392 . S
C364 H392 0.930 . S
C365 C364 1.392 . S
C365 C366 1.398 . S
C365 H393 0.929 . S
C366 C365 1.398 . S
C366 C367 1.352 . S
C367 C366 1.352 . S
C367 C368 1.384 . S
C367 H394 0.930 . S
C368 C363 1.407 . S
C368 C367 1.384 . S
C368 H395 0.929 . S
C369 O382 1.241 . S
C369 O383 1.273 . S
C370 O384 1.251 . S
C370 O385 1.268 . S
C371 Nd361 2.836 . S
C371 C372 1.498 . S
C371 O386 1.258 . S
C371 O387 1.239 . S
C372 C371 1.498 . S
C372 C373 1.366 . S
C372 C377 1.407 . S
C373 C372 1.366 . S
C373 C374 1.392 . S
C373 H396 0.930 . S
C374 C373 1.392 . S
C374 C375 1.398 . S
C374 H397 0.929 . S
C375 C374 1.398 . S
C375 C376 1.337 1_455 S
C376 C375 1.337 1_655 S
C376 C377 1.383 1_655 S
C376 H398 0.946 . S
C377 C372 1.407 . S
C377 C376 1.383 1_455 S
C377 H399 0.929 1_455 S
C378 O388 1.241 . S
C378 O389 1.273 . S
C379 O390 1.251 . S
C379 O391 1.268 . S
O380 Nd360 2.500 . S
O380 C362 1.258 . S
O381 Nd360 2.492 . S
O381 C362 1.239 . S
O382 Nd360 2.487 . S
O382 C369 1.241 . S
O383 Nd360 2.682 . S
O383 Nd361 2.414 . S
O383 C369 1.273 . S
O384 Nd360 2.410 . S
O384 C370 1.251 . S
O385 Nd361 2.424 . S
O385 C370 1.268 . S
O386 Nd361 2.500 . S
O386 C371 1.258 . S
O387 Nd361 2.492 . S
O387 C371 1.239 . S
O388 Nd361 2.487 . S
O388 C378 1.241 . S
O389 Nd360 2.414 . S
O389 Nd361 2.682 . S
O389 C378 1.273 . S
O390 Nd361 2.410 . S
O390 C379 1.251 . S
O391 Nd360 2.424 . S
O391 C379 1.268 . S
H392 C364 0.930 . S
H393 C365 0.929 . S
H394 C367 0.930 . S
H395 C368 0.929 . S
H396 C373 0.930 . S
H397 C374 0.929 . S
H398 C376 0.946 . S
H399 C377 0.929 1_655 S
Nd400 C402 2.836 . S
Nd400 O420 2.500 . S
Nd400 O421 2.492 . S
Nd400 O422 2.487 . S
Nd400 O423 2.682 . S
Nd400 O424 2.410 . S
Nd400 O429 2.414 . S
Nd400 O431 2.424 . S
Nd401 C411 2.836 . S
Nd401 O423 2.414 . S
Nd401 O425 2.424 . S
Nd401 O426 2.500 . S
Nd401 O427 2.492 . S
Nd401 O428 2.487 . S
Nd401 O429 2.682 . S
Nd401 O430 2.410 . S
C402 Nd400 2.836 . S
C402 C403 1.498 . S
C402 O420 1.258 . S
C402 O421 1.239 . S
C403 C402 1.498 . S
C403 C404 1.366 . S
C403 C408 1.407 . S
C404 C403 1.366 . S
C404 C405 1.392 . S
C404 H432 0.930 . S
C405 C404 1.392 . S
C405 C406 1.398 . S
C405 H433 0.929 . S
C406 C405 1.398 . S
C406 C407 1.352 . S
C407 C406 1.352 . S
C407 C408 1.384 . S
C407 H434 0.930 . S
C408 C403 1.407 . S
C408 C407 1.384 . S
C408 H435 0.929 . S
C409 O422 1.241 . S
C409 O423 1.273 . S
C410 O424 1.251 . S
C410 O425 1.268 . S
C411 Nd401 2.836 . S
C411 C412 1.498 . S
C411 O426 1.258 . S
C411 O427 1.239 . S
C412 C411 1.498 . S
C412 C413 1.366 . S
C412 C417 1.407 . S
C413 C412 1.366 . S
C413 C414 1.392 . S
C413 H436 0.930 . S
C414 C413 1.392 . S
C414 C415 1.398 . S
C414 H437 0.929 . S
C415 C414 1.398 . S
C415 C416 1.344 1_545 S
C416 C415 1.344 1_565 S
C416 C417 1.378 1_565 S
C416 H438 0.945 . S
C417 C412 1.407 . S
C417 C416 1.378 1_545 S
C417 H439 0.929 1_545 S
C418 O428 1.241 . S
C418 O429 1.273 . S
C419 O430 1.251 . S
C419 O431 1.268 . S
O420 Nd400 2.500 . S
O420 C402 1.258 . S
O421 Nd400 2.492 . S
O421 C402 1.239 . S
O422 Nd400 2.487 . S
O422 C409 1.241 . S
O423 Nd400 2.682 . S
O423 Nd401 2.414 . S
O423 C409 1.273 . S
O424 Nd400 2.410 . S
O424 C410 1.251 . S
O425 Nd401 2.424 . S
O425 C410 1.268 . S
O426 Nd401 2.500 . S
O426 C411 1.258 . S
O427 Nd401 2.492 . S
O427 C411 1.239 . S
O428 Nd401 2.487 . S
O428 C418 1.241 . S
O429 Nd400 2.414 . S
O429 Nd401 2.682 . S
O429 C418 1.273 . S
O430 Nd401 2.410 . S
O430 C419 1.251 . S
O431 Nd400 2.424 . S
O431 C419 1.268 . S
H432 C404 0.930 . S
H433 C405 0.929 . S
H434 C407 0.930 . S
H435 C408 0.929 . S
H436 C413 0.930 . S
H437 C414 0.929 . S
H438 C416 0.945 . S
H439 C417 0.929 1_565 S
Nd440 C442 2.836 1_554 S
Nd440 O460 2.518 . S
Nd440 O461 2.492 . S
Nd440 O462 2.487 . S
Nd440 O463 2.682 . S
Nd440 O464 2.410 . S
Nd440 O469 2.414 . S
Nd440 O471 2.424 . S
Nd441 C451 2.836 . S
Nd441 O463 2.414 . S
Nd441 O465 2.424 . S
Nd441 O466 2.500 . S
Nd441 O467 2.492 . S
Nd441 O468 2.487 . S
Nd441 O469 2.682 . S
Nd441 O470 2.410 . S
C442 Nd440 2.836 1_556 S
C442 C443 1.498 . S
C442 O460 1.250 1_556 S
C442 O461 1.239 1_556 S
C443 C442 1.498 . S
C443 C444 1.366 . S
C443 C448 1.407 . S
C444 C443 1.366 . S
C444 C445 1.392 . S
C444 H472 0.930 . S
C445 C444 1.392 . S
C445 C446 1.398 . S
C445 H473 0.929 . S
C446 C445 1.398 . S
C446 C447 1.352 . S
C447 C446 1.352 . S
C447 C448 1.384 . S
C447 H474 0.930 . S
C448 C443 1.407 . S
C448 C447 1.384 . S
C448 H475 0.929 . S
C449 O462 1.241 . S
C449 O463 1.273 . S
C450 O464 1.251 . S
C450 O465 1.268 . S
C451 Nd441 2.836 . S
C451 C452 1.498 . S
C451 O466 1.258 . S
C451 O467 1.239 . S
C452 C451 1.498 . S
C452 C453 1.366 . S
C452 C457 1.407 . S
C453 C452 1.366 . S
C453 C454 1.392 . S
C453 H476 0.930 . S
C454 C453 1.392 . S
C454 C455 1.398 . S
C454 H477 0.929 . S
C455 C454 1.398 . S
C455 C456 1.352 . S
C456 C455 1.352 . S
C456 C457 1.384 . S
C456 H478 0.930 . S
C457 C452 1.407 . S
C457 C456 1.384 . S
C457 H479 0.929 . S
C458 O468 1.241 . S
C458 O469 1.273 . S
C459 O470 1.251 . S
C459 O471 1.268 . S
O460 Nd440 2.518 . S
O460 C442 1.250 1_554 S
O461 Nd440 2.492 . S
O461 C442 1.239 1_554 S
O462 Nd440 2.487 . S
O462 C449 1.241 . S
O463 Nd440 2.682 . S
O463 Nd441 2.414 . S
O463 C449 1.273 . S
O464 Nd440 2.410 . S
O464 C450 1.251 . S
O465 Nd441 2.424 . S
O465 C450 1.268 . S
O466 Nd441 2.500 . S
O466 C451 1.258 . S
O467 Nd441 2.492 . S
O467 C451 1.239 . S
O468 Nd441 2.487 . S
O468 C458 1.241 . S
O469 Nd440 2.414 . S
O469 Nd441 2.682 . S
O469 C458 1.273 . S
O470 Nd441 2.410 . S
O470 C459 1.251 . S
O471 Nd440 2.424 . S
O471 C459 1.268 . S
H472 C444 0.930 . S
H473 C445 0.929 . S
H474 C447 0.930 . S
H475 C448 0.929 . S
H476 C453 0.930 . S
H477 C454 0.929 . S
H478 C456 0.930 . S
H479 C457 0.929 . S
H480 C486 0.930 . S
H481 C489 0.930 . S
H482 C490 0.930 . S
H483 C491 0.930 . S
H484 C494 0.930 . S
H485 C495 0.930 . S
C486 H480 0.930 . S
C486 C487 1.355 . S
C486 C488 1.415 . S
C487 C486 1.355 . S
C487 C489 1.419 . S
C488 C486 1.415 . S
C488 C493 1.425 . S
C488 C495 1.409 . S
C489 H481 0.930 . S
C489 C487 1.419 . S
C489 C490 1.362 . S
C490 H482 0.930 . S
C490 C489 1.362 . S
C490 C493 1.409 . S
C491 H483 0.930 . S
C491 C492 1.355 . S
C491 C493 1.415 . S
C492 C491 1.355 . S
C492 C494 1.419 . S
C493 C488 1.425 . S
C493 C490 1.409 . S
C493 C491 1.415 . S
C494 H484 0.930 . S
C494 C492 1.419 . S
C494 C495 1.362 . S
C495 H485 0.930 . S
C495 C488 1.409 . S
C495 C494 1.362 . S
H496 C502 0.930 . S
H497 C505 0.930 . S
H498 C506 0.930 . S
H499 C507 0.930 . S
H500 C510 0.930 . S
H501 C511 0.930 . S
C502 H496 0.930 . S
C502 C503 1.355 . S
C502 C504 1.415 . S
C503 C502 1.355 . S
C503 C505 1.419 . S
C504 C502 1.415 . S
C504 C509 1.425 . S
C504 C511 1.409 . S
C505 H497 0.930 . S
C505 C503 1.419 . S
C505 C506 1.362 . S
C506 H498 0.930 . S
C506 C505 1.362 . S
C506 C509 1.409 . S
C507 H499 0.930 . S
C507 C508 1.355 . S
C507 C509 1.415 . S
C508 C507 1.355 . S
C508 C510 1.419 . S
C509 C504 1.425 . S
C509 C506 1.409 . S
C509 C507 1.415 . S
C510 H500 0.930 . S
C510 C508 1.419 . S
C510 C511 1.362 . S
C511 H501 0.930 . S
C511 C504 1.409 . S
C511 C510 1.362 . S
H512 C518 0.930 . S
H513 C521 0.930 . S
H514 C522 0.930 . S
H515 C523 0.930 . S
H516 C526 0.930 . S
H517 C527 0.930 . S
C518 H512 0.930 . S
C518 C519 1.355 . S
C518 C520 1.415 . S
C519 C518 1.355 . S
C519 C521 1.419 . S
C520 C518 1.415 . S
C520 C525 1.425 . S
C520 C527 1.409 . S
C521 H513 0.930 . S
C521 C519 1.419 . S
C521 C522 1.362 . S
C522 H514 0.930 . S
C522 C521 1.362 . S
C522 C525 1.409 . S
C523 H515 0.930 . S
C523 C524 1.355 . S
C523 C525 1.415 . S
C524 C523 1.355 . S
C524 C526 1.419 . S
C525 C520 1.425 . S
C525 C522 1.409 . S
C525 C523 1.415 . S
C526 H516 0.930 . S
C526 C524 1.419 . S
C526 C527 1.362 . S
C527 H517 0.930 . S
C527 C520 1.409 . S
C527 C526 1.362 . S
H528 C534 0.930 . S
H529 C537 0.930 . S
H530 C538 0.930 . S
H531 C539 0.930 . S
H532 C542 0.930 . S
H533 C543 0.930 . S
C534 H528 0.930 . S
C534 C535 1.355 . S
C534 C536 1.415 . S
C535 C534 1.355 . S
C535 C537 1.419 . S
C536 C534 1.415 . S
C536 C541 1.425 . S
C536 C543 1.409 . S
C537 H529 0.930 . S
C537 C535 1.419 . S
C537 C538 1.362 . S
C538 H530 0.930 . S
C538 C537 1.362 . S
C538 C541 1.409 . S
C539 H531 0.930 . S
C539 C540 1.355 . S
C539 C541 1.415 . S
C540 C539 1.355 . S
C540 C542 1.419 . S
C541 C536 1.425 . S
C541 C538 1.409 . S
C541 C539 1.415 . S
C542 H532 0.930 . S
C542 C540 1.419 . S
C542 C543 1.362 . S
C543 H533 0.930 . S
C543 C536 1.409 . S
C543 C542 1.362 . S
H544 C550 0.930 . S
H545 C553 0.930 . S
H546 C554 0.930 . S
H547 C555 0.930 . S
H548 C558 0.930 . S
H549 C559 0.930 . S
C550 H544 0.930 . S
C550 C551 1.355 . S
C550 C552 1.415 . S
C551 C550 1.355 . S
C551 C553 1.419 . S
C552 C550 1.415 . S
C552 C557 1.425 . S
C552 C559 1.409 . S
C553 H545 0.930 . S
C553 C551 1.419 . S
C553 C554 1.362 . S
C554 H546 0.930 . S
C554 C553 1.362 . S
C554 C557 1.409 . S
C555 H547 0.930 . S
C555 C556 1.355 . S
C555 C557 1.415 . S
C556 C555 1.355 . S
C556 C558 1.419 . S
C557 C552 1.425 . S
C557 C554 1.409 . S
C557 C555 1.415 . S
C558 H548 0.930 . S
C558 C556 1.419 . S
C558 C559 1.362 . S
C559 H549 0.930 . S
C559 C552 1.409 . S
C559 C558 1.362 . S
H560 C566 0.930 . S
H561 C569 0.930 . S
H562 C570 0.930 . S
H563 C571 0.930 . S
H564 C574 0.930 . S
H565 C575 0.930 . S
C566 H560 0.930 . S
C566 C567 1.355 . S
C566 C568 1.415 . S
C567 C566 1.355 . S
C567 C569 1.419 . S
C568 C566 1.415 . S
C568 C573 1.425 . S
C568 C575 1.409 . S
C569 H561 0.930 . S
C569 C567 1.419 . S
C569 C570 1.362 . S
C570 H562 0.930 . S
C570 C569 1.362 . S
C570 C573 1.409 . S
C571 H563 0.930 . S
C571 C572 1.355 . S
C571 C573 1.415 . S
C572 C571 1.355 . S
C572 C574 1.419 . S
C573 C568 1.425 . S
C573 C570 1.409 . S
C573 C571 1.415 . S
C574 H564 0.930 . S
C574 C572 1.419 . S
C574 C575 1.362 . S
C575 H565 0.930 . S
C575 C568 1.409 . S
C575 C574 1.362 . S
H576 C582 0.930 . S
H577 C585 0.930 . S
H578 C586 0.927 1_554 S
H579 C587 0.930 . S
H580 C590 0.930 . S
H581 C591 0.927 1_556 S
C582 H576 0.930 . S
C582 C583 1.355 . S
C582 C584 1.415 . S
C583 C582 1.355 . S
C583 C585 1.419 . S
C584 C582 1.415 . S
C584 C589 1.425 1_556 S
C584 C591 1.407 1_556 S
C585 H577 0.930 . S
C585 C583 1.419 . S
C585 C586 1.367 . S
C586 H578 0.927 1_556 S
C586 C585 1.367 . S
C586 C589 1.407 1_556 S
C587 H579 0.930 . S
C587 C588 1.355 . S
C587 C589 1.415 . S
C588 C587 1.355 . S
C588 C590 1.419 . S
C589 C584 1.425 1_554 S
C589 C586 1.407 1_554 S
C589 C587 1.415 . S
C590 H580 0.930 . S
C590 C588 1.419 . S
C590 C591 1.368 . S
C591 H581 0.927 1_554 S
C591 C584 1.407 1_554 S
C591 C590 1.368 . S
H592 C598 0.930 . S
H593 C601 0.930 . S
H594 C602 0.930 . S
H595 C603 0.930 . S
H596 C606 0.930 . S
H597 C607 0.930 . S
C598 H592 0.930 . S
C598 C599 1.355 . S
C598 C600 1.415 . S
C599 C598 1.355 . S
C599 C601 1.419 . S
C600 C598 1.415 . S
C600 C605 1.425 . S
C600 C607 1.409 . S
C601 H593 0.930 . S
C601 C599 1.419 . S
C601 C602 1.362 . S
C602 H594 0.930 . S
C602 C601 1.362 . S
C602 C605 1.409 . S
C603 H595 0.930 . S
C603 C604 1.355 . S
C603 C605 1.415 . S
C604 C603 1.355 . S
C604 C606 1.419 . S
C605 C600 1.425 . S
C605 C602 1.409 . S
C605 C603 1.415 . S
C606 H596 0.930 . S
C606 C604 1.419 . S
C606 C607 1.362 . S
C607 H597 0.930 . S
C607 C600 1.409 . S
C607 C606 1.362 . S
H608 C614 0.930 . S
H609 C617 0.930 . S
H610 C618 0.930 . S
H611 C619 0.930 . S
H612 C622 0.930 . S
H613 C623 0.930 . S
C614 H608 0.930 . S
C614 C615 1.355 . S
C614 C616 1.415 . S
C615 C614 1.355 . S
C615 C617 1.419 . S
C616 C614 1.415 . S
C616 C621 1.425 . S
C616 C623 1.409 . S
C617 H609 0.930 . S
C617 C615 1.419 . S
C617 C618 1.362 . S
C618 H610 0.930 . S
C618 C617 1.362 . S
C618 C621 1.409 . S
C619 H611 0.930 . S
C619 C620 1.355 . S
C619 C621 1.415 . S
C620 C619 1.355 . S
C620 C622 1.419 . S
C621 C616 1.425 . S
C621 C618 1.409 . S
C621 C619 1.415 . S
C622 H612 0.930 . S
C622 C620 1.419 . S
C622 C623 1.362 . S
C623 H613 0.930 . S
C623 C616 1.409 . S
C623 C622 1.362 . S
H624 C630 0.930 . S
H625 C633 0.930 . S
H626 C634 0.930 . S
H627 C635 0.930 . S
H628 C638 0.930 . S
H629 C639 0.930 . S
C630 H624 0.930 . S
C630 C631 1.355 . S
C630 C632 1.415 . S
C631 C630 1.355 . S
C631 C633 1.419 . S
C632 C630 1.415 . S
C632 C637 1.425 1_556 S
C632 C639 1.409 . S
C633 H625 0.930 . S
C633 C631 1.419 . S
C633 C634 1.362 1_556 S
C634 H626 0.930 . S
C634 C633 1.362 1_554 S
C634 C637 1.409 . S
C635 H627 0.930 . S
C635 C636 1.355 . S
C635 C637 1.415 . S
C636 C635 1.355 . S
C636 C638 1.419 . S
C637 C632 1.425 1_554 S
C637 C634 1.409 . S
C637 C635 1.415 . S
C638 H628 0.930 . S
C638 C636 1.419 . S
C638 C639 1.362 1_554 S
C639 H629 0.930 . S
C639 C632 1.409 . S
C639 C638 1.362 1_556 S
H640 C646 0.930 . S
H641 C649 0.930 . S
H642 C650 0.930 . S
H643 C651 0.930 . S
H644 C654 0.930 . S
H645 C655 0.930 . S
C646 H640 0.930 . S
C646 C647 1.355 . S
C646 C648 1.415 . S
C647 C646 1.355 . S
C647 C649 1.419 . S
C648 C646 1.415 . S
C648 C653 1.425 . S
C648 C655 1.409 . S
C649 H641 0.930 . S
C649 C647 1.419 . S
C649 C650 1.362 . S
C650 H642 0.930 . S
C650 C649 1.362 . S
C650 C653 1.409 . S
C651 H643 0.930 . S
C651 C652 1.355 . S
C651 C653 1.415 . S
C652 C651 1.355 . S
C652 C654 1.419 . S
C653 C648 1.425 . S
C653 C650 1.409 . S
C653 C651 1.415 . S
C654 H644 0.930 . S
C654 C652 1.419 . S
C654 C655 1.362 . S
C655 H645 0.930 . S
C655 C648 1.409 . S
C655 C654 1.362 . S
H656 C662 0.930 . S
H657 C665 0.930 . S
H658 C666 0.930 . S
H659 C667 0.930 . S
H660 C670 0.930 . S
H661 C671 0.930 . S
C662 H656 0.930 . S
C662 C663 1.355 . S
C662 C664 1.415 . S
C663 C662 1.355 . S
C663 C665 1.419 . S
C664 C662 1.415 . S
C664 C669 1.425 . S
C664 C671 1.409 . S
C665 H657 0.930 . S
C665 C663 1.419 . S
C665 C666 1.362 . S
C666 H658 0.930 . S
C666 C665 1.362 . S
C666 C669 1.409 . S
C667 H659 0.930 . S
C667 C668 1.355 . S
C667 C669 1.415 . S
C668 C667 1.355 . S
C668 C670 1.419 . S
C669 C664 1.425 . S
C669 C666 1.409 . S
C669 C667 1.415 . S
C670 H660 0.930 . S
C670 C668 1.419 . S
C670 C671 1.362 . S
C671 H661 0.930 . S
C671 C664 1.409 . S
C671 C670 1.362 . S
H672 C678 0.930 . S
H673 C681 0.930 . S
H674 C682 0.930 1_545 S
H675 C683 0.930 . S
H676 C686 0.930 . S
H677 C687 0.930 1_565 S
C678 H672 0.930 . S
C678 C679 1.355 1_554 S
C678 C680 1.415 . S
C679 C678 1.355 1_556 S
C679 C681 1.419 . S
C680 C678 1.415 . S
C680 C685 1.425 1_564 S
C680 C687 1.409 1_565 S
C681 H673 0.930 . S
C681 C679 1.419 . S
C681 C682 1.362 . S
C682 H674 0.930 1_565 S
C682 C681 1.362 . S
C682 C685 1.409 1_565 S
C683 H675 0.930 . S
C683 C684 1.355 1_556 S
C683 C685 1.415 . S
C684 C683 1.355 1_554 S
C684 C686 1.419 . S
C685 C680 1.425 1_546 S
C685 C682 1.409 1_545 S
C685 C683 1.415 . S
C686 H676 0.930 . S
C686 C684 1.419 . S
C686 C687 1.362 . S
C687 H677 0.930 1_545 S
C687 C680 1.409 1_545 S
C687 C686 1.362 . S
H688 C694 0.930 . S
H689 C697 0.930 . S
H690 C698 0.930 . S
H691 C699 0.930 . S
H692 C702 0.930 . S
H693 C703 0.930 . S
C694 H688 0.930 . S
C694 C695 1.355 . S
C694 C696 1.415 . S
C695 C694 1.355 . S
C695 C697 1.419 . S
C696 C694 1.415 . S
C696 C701 1.425 . S
C696 C703 1.409 . S
C697 H689 0.930 . S
C697 C695 1.419 . S
C697 C698 1.362 . S
C698 H690 0.930 . S
C698 C697 1.362 . S
C698 C701 1.409 . S
C699 H691 0.930 . S
C699 C700 1.355 . S
C699 C701 1.415 . S
C700 C699 1.355 . S
C700 C702 1.419 . S
C701 C696 1.425 . S
C701 C698 1.409 . S
C701 C699 1.415 . S
C702 H692 0.930 . S
C702 C700 1.419 . S
C702 C703 1.362 . S
C703 H693 0.930 . S
C703 C696 1.409 . S
C703 C702 1.362 . S
H704 C710 0.930 . S
H705 C713 0.930 . S
H706 C714 0.930 . S
H707 C715 0.930 . S
H708 C718 0.930 . S
H709 C719 0.930 . S
C710 H704 0.930 . S
C710 C711 1.355 . S
C710 C712 1.415 . S
C711 C710 1.355 . S
C711 C713 1.419 . S
C712 C710 1.415 . S
C712 C717 1.425 1_455 S
C712 C719 1.409 1_455 S
C713 H705 0.930 . S
C713 C711 1.419 . S
C713 C714 1.362 . S
C714 H706 0.930 . S
C714 C713 1.362 . S
C714 C717 1.409 1_455 S
C715 H707 0.930 . S
C715 C716 1.355 . S
C715 C717 1.415 . S
C716 C715 1.355 . S
C716 C718 1.419 . S
C717 C712 1.425 1_655 S
C717 C714 1.409 1_655 S
C717 C715 1.415 . S
C718 H708 0.930 . S
C718 C716 1.419 . S
C718 C719 1.362 . S
C719 H709 0.930 . S
C719 C712 1.409 1_655 S
C719 C718 1.362 . S
H720 C726 0.930 . S
H721 C729 0.930 . S
H722 C730 0.930 . S
H723 C731 0.930 . S
H724 C734 0.930 . S
H725 C735 0.930 . S
C726 H720 0.930 . S
C726 C727 1.355 . S
C726 C728 1.415 . S
C727 C726 1.355 . S
C727 C729 1.419 1_554 S
C728 C726 1.415 . S
C728 C733 1.425 1_564 S
C728 C735 1.409 1_565 S
C729 H721 0.930 . S
C729 C727 1.419 1_556 S
C729 C730 1.362 . S
C730 H722 0.930 . S
C730 C729 1.362 . S
C730 C733 1.409 1_565 S
C731 H723 0.930 . S
C731 C732 1.355 . S
C731 C733 1.415 . S
C732 C731 1.355 . S
C732 C734 1.419 1_556 S
C733 C728 1.425 1_546 S
C733 C730 1.409 1_545 S
C733 C731 1.415 . S
C734 H724 0.930 . S
C734 C732 1.419 1_554 S
C734 C735 1.362 . S
C735 H725 0.930 . S
C735 C728 1.409 1_545 S
C735 C734 1.362 . S
H736 C742 0.930 . S
H737 C745 0.930 . S
H738 C746 0.930 . S
H739 C747 0.930 . S
H740 C750 0.930 . S
H741 C751 0.930 . S
C742 H736 0.930 . S
C742 C743 1.355 . S
C742 C744 1.415 . S
C743 C742 1.355 . S
C743 C745 1.419 . S
C744 C742 1.415 . S
C744 C749 1.425 . S
C744 C751 1.409 . S
C745 H737 0.930 . S
C745 C743 1.419 . S
C745 C746 1.362 . S
C746 H738 0.930 . S
C746 C745 1.362 . S
C746 C749 1.409 . S
C747 H739 0.930 . S
C747 C748 1.355 . S
C747 C749 1.415 . S
C748 C747 1.355 . S
C748 C750 1.419 . S
C749 C744 1.425 . S
C749 C746 1.409 . S
C749 C747 1.415 . S
C750 H740 0.930 . S
C750 C748 1.419 . S
C750 C751 1.362 . S
C751 H741 0.930 . S
C751 C744 1.409 . S
C751 C750 1.362 . S
H752 C758 0.930 . S
H753 C761 0.930 . S
H754 C762 0.930 . S
H755 C763 0.930 . S
H756 C766 0.930 . S
H757 C767 0.930 . S
C758 H752 0.930 . S
C758 C759 1.355 . S
C758 C760 1.415 . S
C759 C758 1.355 . S
C759 C761 1.419 . S
C760 C758 1.415 . S
C760 C765 1.425 1_455 S
C760 C767 1.409 1_455 S
C761 H753 0.930 . S
C761 C759 1.419 . S
C761 C762 1.362 . S
C762 H754 0.930 . S
C762 C761 1.362 . S
C762 C765 1.409 1_455 S
C763 H755 0.930 . S
C763 C764 1.355 . S
C763 C765 1.415 . S
C764 C763 1.355 . S
C764 C766 1.419 . S
C765 C760 1.425 1_655 S
C765 C762 1.409 1_655 S
C765 C763 1.415 . S
C766 H756 0.930 . S
C766 C764 1.419 . S
C766 C767 1.362 . S
C767 H757 0.930 . S
C767 C760 1.409 1_655 S
C767 C766 1.362 . S
H768 C774 0.930 . S
H769 C777 0.930 . S
H770 C778 0.930 . S
H771 C779 0.930 . S
H772 C782 0.930 . S
H773 C783 0.930 . S
C774 H768 0.930 . S
C774 C775 1.355 . S
C774 C776 1.415 . S
C775 C774 1.355 . S
C775 C777 1.419 1_545 S
C776 C774 1.415 . S
C776 C781 1.425 1_545 S
C776 C783 1.409 . S
C777 H769 0.930 . S
C777 C775 1.419 1_565 S
C777 C778 1.362 . S
C778 H770 0.930 . S
C778 C777 1.362 . S
C778 C781 1.409 . S
C779 H771 0.930 . S
C779 C780 1.355 . S
C779 C781 1.415 . S
C780 C779 1.355 . S
C780 C782 1.419 1_565 S
C781 C776 1.425 1_565 S
C781 C778 1.409 . S
C781 C779 1.415 . S
C782 H772 0.930 . S
C782 C780 1.419 1_545 S
C782 C783 1.362 . S
C783 H773 0.930 . S
C783 C776 1.409 . S
C783 C782 1.362 . S
H784 C790 0.930 . S
H785 C793 0.930 . S
H786 C794 0.930 . S
H787 C795 0.930 . S
H788 C798 0.930 . S
H789 C799 0.930 . S
C790 H784 0.930 . S
C790 C791 1.355 . S
C790 C792 1.415 . S
C791 C790 1.355 . S
C791 C793 1.419 . S
C792 C790 1.415 . S
C792 C797 1.425 . S
C792 C799 1.409 . S
C793 H785 0.930 . S
C793 C791 1.419 . S
C793 C794 1.362 . S
C794 H786 0.930 . S
C794 C793 1.362 . S
C794 C797 1.409 . S
C795 H787 0.930 . S
C795 C796 1.355 . S
C795 C797 1.415 . S
C796 C795 1.355 . S
C796 C798 1.419 . S
C797 C792 1.425 . S
C797 C794 1.409 . S
C797 C795 1.415 . S
C798 H788 0.930 . S
C798 C796 1.419 . S
C798 C799 1.362 . S
C799 H789 0.930 . S
C799 C792 1.409 . S
C799 C798 1.362 . S
H800 C806 0.930 . S
H801 C809 0.930 . S
H802 C810 0.930 1_455 S
H803 C811 0.930 . S
H804 C814 0.930 . S
H805 C815 0.930 1_655 S
C806 H800 0.930 . S
C806 C807 1.355 . S
C806 C808 1.415 . S
C807 C806 1.355 . S
C807 C809 1.419 . S
C808 C806 1.415 . S
C808 C813 1.425 1_655 S
C808 C815 1.409 1_655 S
C809 H801 0.930 . S
C809 C807 1.419 . S
C809 C810 1.362 . S
C810 H802 0.930 1_655 S
C810 C809 1.362 . S
C810 C813 1.409 1_655 S
C811 H803 0.930 . S
C811 C812 1.355 . S
C811 C813 1.415 . S
C812 C811 1.355 . S
C812 C814 1.419 . S
C813 C808 1.425 1_455 S
C813 C810 1.409 1_455 S
C813 C811 1.415 . S
C814 H804 0.930 . S
C814 C812 1.419 . S
C814 C815 1.362 . S
C815 H805 0.930 1_455 S
C815 C808 1.409 1_455 S
C815 C814 1.362 . S
H816 C822 0.930 . S
H817 C825 0.930 . S
H818 C826 0.930 . S
H819 C827 0.930 . S
H820 C830 0.930 . S
H821 C831 0.930 . S
C822 H816 0.930 . S
C822 C823 1.355 . S
C822 C824 1.415 1_455 S
C823 C822 1.355 . S
C823 C825 1.419 . S
C824 C822 1.415 1_655 S
C824 C829 1.425 1_655 S
C824 C831 1.409 . S
C825 H817 0.930 . S
C825 C823 1.419 . S
C825 C826 1.362 . S
C826 H818 0.930 . S
C826 C825 1.362 . S
C826 C829 1.409 . S
C827 H819 0.930 . S
C827 C828 1.355 . S
C827 C829 1.415 1_655 S
C828 C827 1.355 . S
C828 C830 1.419 . S
C829 C824 1.425 1_455 S
C829 C826 1.409 . S
C829 C827 1.415 1_455 S
C830 H820 0.930 . S
C830 C828 1.419 . S
C830 C831 1.362 . S
C831 H821 0.930 . S
C831 C824 1.409 . S
C831 C830 1.362 . S
H832 C838 0.930 . S
H833 C841 0.930 . S
H834 C842 0.930 . S
H835 C843 0.930 . S
H836 C846 0.930 . S
H837 C847 0.930 . S
C838 H832 0.930 . S
C838 C839 1.355 . S
C838 C840 1.415 . S
C839 C838 1.355 . S
C839 C841 1.419 1_565 S
C840 C838 1.415 . S
C840 C845 1.425 1_565 S
C840 C847 1.409 . S
C841 H833 0.930 . S
C841 C839 1.419 1_545 S
C841 C842 1.362 . S
C842 H834 0.930 . S
C842 C841 1.362 . S
C842 C845 1.409 . S
C843 H835 0.930 . S
C843 C844 1.355 . S
C843 C845 1.415 . S
C844 C843 1.355 . S
C844 C846 1.419 1_545 S
C845 C840 1.425 1_545 S
C845 C842 1.409 . S
C845 C843 1.415 . S
C846 H836 0.930 . S
C846 C844 1.419 1_565 S
C846 C847 1.362 . S
C847 H837 0.930 . S
C847 C840 1.409 . S
C847 C846 1.362 . S
H848 C854 0.930 . S
H849 C857 0.930 . S
H850 C858 0.930 . S
H851 C859 0.930 . S
H852 C862 0.930 . S
H853 C863 0.930 . S
C854 H848 0.930 . S
C854 C855 1.355 . S
C854 C856 1.415 . S
C855 C854 1.355 . S
C855 C857 1.419 . S
C856 C854 1.415 . S
C856 C861 1.425 . S
C856 C863 1.409 . S
C857 H849 0.930 . S
C857 C855 1.419 . S
C857 C858 1.362 . S
C858 H850 0.930 . S
C858 C857 1.362 . S
C858 C861 1.409 . S
C859 H851 0.930 . S
C859 C860 1.355 . S
C859 C861 1.415 . S
C860 C859 1.355 . S
C860 C862 1.419 . S
C861 C856 1.425 . S
C861 C858 1.409 . S
C861 C859 1.415 . S
C862 H852 0.930 . S
C862 C860 1.419 . S
C862 C863 1.362 . S
C863 H853 0.930 . S
C863 C856 1.409 . S
C863 C862 1.362 . S
H864 C870 0.930 . S
H865 C873 0.930 . S
H866 C874 0.930 . S
H867 C875 0.930 . S
H868 C878 0.930 . S
H869 C879 0.930 . S
C870 H864 0.930 . S
C870 C871 1.355 . S
C870 C872 1.415 . S
C871 C870 1.355 . S
C871 C873 1.419 1_565 S
C872 C870 1.415 . S
C872 C877 1.425 1_565 S
C872 C879 1.409 . S
C873 H865 0.930 . S
C873 C871 1.419 1_545 S
C873 C874 1.362 . S
C874 H866 0.930 . S
C874 C873 1.362 . S
C874 C877 1.409 . S
C875 H867 0.930 . S
C875 C876 1.355 . S
C875 C877 1.415 . S
C876 C875 1.355 . S
C876 C878 1.419 1_545 S
C877 C872 1.425 1_545 S
C877 C874 1.409 . S
C877 C875 1.415 . S
C878 H868 0.930 . S
C878 C876 1.419 1_565 S
C878 C879 1.362 . S
C879 H869 0.930 . S
C879 C872 1.409 . S
C879 C878 1.362 . S
H880 C886 0.930 . S
H881 C889 0.930 . S
H882 C890 0.930 . S
H883 C891 0.930 . S
H884 C894 0.930 . S
H885 C895 0.930 . S
C886 H880 0.930 . S
C886 C887 1.355 . S
C886 C888 1.415 . S
C887 C886 1.355 . S
C887 C889 1.419 . S
C888 C886 1.415 . S
C888 C893 1.425 . S
C888 C895 1.409 . S
C889 H881 0.930 . S
C889 C887 1.419 . S
C889 C890 1.362 . S
C890 H882 0.930 . S
C890 C889 1.362 . S
C890 C893 1.409 . S
C891 H883 0.930 . S
C891 C892 1.355 . S
C891 C893 1.415 . S
C892 C891 1.355 . S
C892 C894 1.419 . S
C893 C888 1.425 . S
C893 C890 1.409 . S
C893 C891 1.415 . S
C894 H884 0.930 . S
C894 C892 1.419 . S
C894 C895 1.362 . S
C895 H885 0.930 . S
C895 C888 1.409 . S
C895 C894 1.362 . S
H896 C902 0.929 1_455 S
H897 C905 0.930 . S
H898 C906 0.930 . S
H899 C907 0.929 1_655 S
H900 C910 0.930 . S
H901 C911 0.930 . S
C902 H896 0.929 1_655 S
C902 C903 1.355 . S
C902 C904 1.415 1_655 S
C903 C902 1.355 . S
C903 C905 1.419 . S
C904 C902 1.415 1_455 S
C904 C909 1.425 1_455 S
C904 C911 1.409 . S
C905 H897 0.930 . S
C905 C903 1.419 . S
C905 C906 1.362 . S
C906 H898 0.930 . S
C906 C905 1.362 . S
C906 C909 1.409 . S
C907 H899 0.929 1_455 S
C907 C908 1.355 . S
C907 C909 1.415 1_455 S
C908 C907 1.355 . S
C908 C910 1.419 . S
C909 C904 1.425 1_655 S
C909 C906 1.409 . S
C909 C907 1.415 1_655 S
C910 H900 0.930 . S
C910 C908 1.419 . S
C910 C911 1.362 . S
C911 H901 0.930 . S
C911 C904 1.409 . S
C911 C910 1.362 . S
H912 C918 0.930 . S
H913 C921 0.930 . S
H914 C922 0.930 . S
H915 C923 0.930 . S
H916 C926 0.930 . S
H917 C927 0.930 . S
C918 H912 0.930 . S
C918 C919 1.355 . S
C918 C920 1.415 . S
C919 C918 1.355 . S
C919 C921 1.419 1_545 S
C920 C918 1.415 . S
C920 C925 1.425 1_545 S
C920 C927 1.409 . S
C921 H913 0.930 . S
C921 C919 1.419 1_565 S
C921 C922 1.362 . S
C922 H914 0.930 . S
C922 C921 1.362 . S
C922 C925 1.409 . S
C923 H915 0.930 . S
C923 C924 1.355 . S
C923 C925 1.415 . S
C924 C923 1.355 . S
C924 C926 1.419 1_565 S
C925 C920 1.425 1_565 S
C925 C922 1.409 . S
C925 C923 1.415 . S
C926 H916 0.930 . S
C926 C924 1.419 1_545 S
C926 C927 1.362 . S
C927 H917 0.930 . S
C927 C920 1.409 . S
C927 C926 1.362 . S
H928 C934 0.930 . S
H929 C937 0.930 . S
H930 C938 0.930 . S
H931 C939 0.930 . S
H932 C942 0.930 . S
H933 C943 0.930 . S
C934 H928 0.930 . S
C934 C935 1.355 . S
C934 C936 1.415 . S
C935 C934 1.355 . S
C935 C937 1.419 . S
C936 C934 1.415 . S
C936 C941 1.425 . S
C936 C943 1.409 . S
C937 H929 0.930 . S
C937 C935 1.419 . S
C937 C938 1.362 . S
C938 H930 0.930 . S
C938 C937 1.362 . S
C938 C941 1.409 . S
C939 H931 0.930 . S
C939 C940 1.355 . S
C939 C941 1.415 . S
C940 C939 1.355 . S
C940 C942 1.419 . S
C941 C936 1.425 . S
C941 C938 1.409 . S
C941 C939 1.415 . S
C942 H932 0.930 . S
C942 C940 1.419 . S
C942 C943 1.362 . S
C943 H933 0.930 . S
C943 C936 1.409 . S
C943 C942 1.362 . S
H944 C950 0.930 . S
H945 C953 0.930 . S
H946 C954 0.930 . S
H947 C955 0.930 . S
H948 C958 0.930 . S
H949 C959 0.930 . S
C950 H944 0.930 . S
C950 C951 1.355 . S
C950 C952 1.415 . S
C951 C950 1.355 . S
C951 C953 1.419 . S
C952 C950 1.415 . S
C952 C957 1.425 1_455 S
C952 C959 1.409 . S
C953 H945 0.930 . S
C953 C951 1.419 . S
C953 C954 1.362 1_455 S
C954 H946 0.930 . S
C954 C953 1.362 1_655 S
C954 C957 1.409 . S
C955 H947 0.930 . S
C955 C956 1.355 . S
C955 C957 1.415 . S
C956 C955 1.355 . S
C956 C958 1.419 . S
C957 C952 1.425 1_655 S
C957 C954 1.409 . S
C957 C955 1.415 . S
C958 H948 0.930 . S
C958 C956 1.419 . S
C958 C959 1.362 1_655 S
C959 H949 0.930 . S
C959 C952 1.409 . S
C959 C958 1.362 1_455 S
H960 C966 0.930 . S
H961 C969 0.930 . S
H962 C970 0.930 . S
H963 C971 0.930 . S
H964 C974 0.930 . S
H965 C975 0.930 . S
C966 H960 0.930 . S
C966 C967 1.355 . S
C966 C968 1.415 . S
C967 C966 1.355 . S
C967 C969 1.419 . S
C968 C966 1.415 . S
C968 C973 1.425 . S
C968 C975 1.409 . S
C969 H961 0.930 . S
C969 C967 1.419 . S
C969 C970 1.362 . S
C970 H962 0.930 . S
C970 C969 1.362 . S
C970 C973 1.409 . S
C971 H963 0.930 . S
C971 C972 1.355 . S
C971 C973 1.415 . S
C972 C971 1.355 . S
C972 C974 1.419 . S
C973 C968 1.425 . S
C973 C970 1.409 . S
C973 C971 1.415 . S
C974 H964 0.930 . S
C974 C972 1.419 . S
C974 C975 1.362 . S
C975 H965 0.930 . S
C975 C968 1.409 . S
C975 C974 1.362 . S
H976 C982 0.930 . S
H977 C985 0.930 . S
H978 C986 0.930 . S
H979 C987 0.930 . S
H980 C990 0.930 . S
H981 C991 0.930 . S
C982 H976 0.930 . S
C982 C983 1.355 . S
C982 C984 1.415 . S
C983 C982 1.355 . S
C983 C985 1.419 . S
C984 C982 1.415 . S
C984 C989 1.425 . S
C984 C991 1.409 . S
C985 H977 0.930 . S
C985 C983 1.419 . S
C985 C986 1.362 . S
C986 H978 0.930 . S
C986 C985 1.362 . S
C986 C989 1.409 . S
C987 H979 0.930 . S
C987 C988 1.355 . S
C987 C989 1.415 . S
C988 C987 1.355 . S
C988 C990 1.419 . S
C989 C984 1.425 . S
C989 C986 1.409 . S
C989 C987 1.415 . S
C990 H980 0.930 . S
C990 C988 1.419 . S
C990 C991 1.362 . S
C991 H981 0.930 . S
C991 C984 1.409 . S
C991 C990 1.362 . S
H992 C998 0.930 . S
H993 C1001 0.930 . S
H994 C1002 0.930 . S
H995 C1003 0.930 . S
H996 C1006 0.930 . S
H997 C1007 0.930 . S
C998 H992 0.930 . S
C998 C999 1.355 . S
C998 C1000 1.415 . S
C999 C998 1.355 . S
C999 C1001 1.419 . S
C1000 C998 1.415 . S
C1000 C1005 1.425 . S
C1000 C1007 1.409 . S
C1001 H993 0.930 . S
C1001 C999 1.419 . S
C1001 C1002 1.362 . S
C1002 H994 0.930 . S
C1002 C1001 1.362 . S
C1002 C1005 1.409 . S
C1003 H995 0.930 . S
C1003 C1004 1.355 . S
C1003 C1005 1.415 . S
C1004 C1003 1.355 . S
C1004 C1006 1.419 . S
C1005 C1000 1.425 . S
C1005 C1002 1.409 . S
C1005 C1003 1.415 . S
C1006 H996 0.930 . S
C1006 C1004 1.419 . S
C1006 C1007 1.362 . S
C1007 H997 0.930 . S
C1007 C1000 1.409 . S
C1007 C1006 1.362 . S
H1008 C1014 0.930 . S
H1009 C1017 0.930 . S
H1010 C1018 0.930 . S
H1011 C1019 0.930 . S
H1012 C1022 0.930 . S
H1013 C1023 0.930 . S
C1014 H1008 0.930 . S
C1014 C1015 1.355 . S
C1014 C1016 1.415 . S
C1015 C1014 1.355 . S
C1015 C1017 1.419 . S
C1016 C1014 1.415 . S
C1016 C1021 1.425 . S
C1016 C1023 1.409 . S
C1017 H1009 0.930 . S
C1017 C1015 1.419 . S
C1017 C1018 1.362 . S
C1018 H1010 0.930 . S
C1018 C1017 1.362 . S
C1018 C1021 1.409 . S
C1019 H1011 0.930 . S
C1019 C1020 1.355 . S
C1019 C1021 1.415 . S
C1020 C1019 1.355 . S
C1020 C1022 1.419 . S
C1021 C1016 1.425 . S
C1021 C1018 1.409 . S
C1021 C1019 1.415 . S
C1022 H1012 0.930 . S
C1022 C1020 1.419 . S
C1022 C1023 1.362 . S
C1023 H1013 0.930 . S
C1023 C1016 1.409 . S
C1023 C1022 1.362 . S
H1024 C1030 0.930 . S
H1025 C1033 0.930 . S
H1026 C1034 0.930 . S
H1027 C1035 0.930 . S
H1028 C1038 0.930 . S
H1029 C1039 0.930 . S
C1030 H1024 0.930 . S
C1030 C1031 1.355 . S
C1030 C1032 1.415 . S
C1031 C1030 1.355 . S
C1031 C1033 1.419 . S
C1032 C1030 1.415 . S
C1032 C1037 1.425 . S
C1032 C1039 1.409 . S
C1033 H1025 0.930 . S
C1033 C1031 1.419 . S
C1033 C1034 1.362 . S
C1034 H1026 0.930 . S
C1034 C1033 1.362 . S
C1034 C1037 1.409 . S
C1035 H1027 0.930 . S
C1035 C1036 1.355 . S
C1035 C1037 1.415 . S
C1036 C1035 1.355 . S
C1036 C1038 1.419 . S
C1037 C1032 1.425 . S
C1037 C1034 1.409 . S
C1037 C1035 1.415 . S
C1038 H1028 0.930 . S
C1038 C1036 1.419 . S
C1038 C1039 1.362 . S
C1039 H1029 0.930 . S
C1039 C1032 1.409 . S
C1039 C1038 1.362 . S
H1040 C1046 0.930 . S
H1041 C1049 0.930 . S
H1042 C1050 0.930 . S
H1043 C1051 0.930 . S
H1044 C1054 0.930 . S
H1045 C1055 0.930 . S
C1046 H1040 0.930 . S
C1046 C1047 1.355 . S
C1046 C1048 1.415 . S
C1047 C1046 1.355 . S
C1047 C1049 1.419 . S
C1048 C1046 1.415 . S
C1048 C1053 1.425 . S
C1048 C1055 1.409 . S
C1049 H1041 0.930 . S
C1049 C1047 1.419 . S
C1049 C1050 1.362 . S
C1050 H1042 0.930 . S
C1050 C1049 1.362 . S
C1050 C1053 1.409 . S
C1051 H1043 0.930 . S
C1051 C1052 1.355 . S
C1051 C1053 1.415 . S
C1052 C1051 1.355 . S
C1052 C1054 1.419 . S
C1053 C1048 1.425 . S
C1053 C1050 1.409 . S
C1053 C1051 1.415 . S
C1054 H1044 0.930 . S
C1054 C1052 1.419 . S
C1054 C1055 1.362 . S
C1055 H1045 0.930 . S
C1055 C1048 1.409 . S
C1055 C1054 1.362 . S
C487 C9 1.170 . S
C492 C329 1.098 . S
C503 C49 1.124 . S
C508 C369 1.203 . S
C519 C89 1.106 . S
C524 C409 1.155 . S
C535 C449 1.096 . S
C540 C129 1.184 . S
C551 C169 1.149 . S
C556 C249 1.108 . S
C567 C289 1.098 . S
C572 C209 1.193 . S
C583 C419 4.369 . S
C588 C19 4.356 . S
C599 C459 4.358 . S
C604 C59 4.370 . S
C615 C99 4.369 . S
C620 C259 4.354 . S
C631 C299 4.368 . S
C636 C139 4.364 . S
C647 C339 4.350 . S
C652 C179 4.366 . S
C663 C219 4.348 . S
C668 C379 4.360 . S
C679 C295 1.529 . S
C684 C15 1.525 . S
C695 C335 1.595 . S
C700 C55 1.560 . S
C711 C375 1.532 . S
C716 C95 1.558 . S
C727 C135 1.633 . S
C732 C415 1.609 . S
C743 C175 1.527 . S
C748 C455 1.548 . S
C759 C215 1.586 . S
C764 C255 1.618 . S
C775 C18 0.733 . S
C780 C138 0.733 . S
C791 C58 0.700 . S
C796 C178 0.807 . S
C807 C98 0.792 . S
C812 C218 0.692 . S
C823 C378 0.806 . S
C828 C258 0.697 . S
C839 C298 0.708 . S
C844 C418 0.762 . S
C855 C458 0.765 . S
C860 C338 0.776 . S
C871 C290 4.703 . S
C876 C10 4.709 . S
C887 C330 4.708 1_556 S
C892 C50 4.710 . S
C903 C90 4.711 1_554 S
C908 C370 4.704 . S
C919 C410 4.703 . S
C924 C130 4.708 . S
C935 C450 4.711 1_556 S
C940 C170 4.707 . S
C951 C210 4.707 1_554 S
C956 C250 4.703 . S
C967 C6 0.785 . S
C972 C406 0.790 . S
C983 C46 0.814 . S
C988 C446 0.868 . S
C999 C86 0.808 . S
C1004 C246 0.860 . S
C1015 C126 0.942 . S
C1020 C286 0.962 . S
C1031 C166 0.948 . S
C1036 C326 0.906 . S
C1047 C366 0.805 . S
C1052 C206 0.856 . S
