# Generated by pormake.
# Topology uow, (4)-cn, num edge types: 1
# Building blocks:
#     Node 0, Type 0, BuildingBlock: ICAMEG_clean_sbu_1, # of connection points: 4
#     Node 1, Type 0, BuildingBlock: ICAMEG_clean_sbu_1, # of connection points: 4
#     Node 2, Type 0, BuildingBlock: ICAMEG_clean_sbu_1, # of connection points: 4
#     Node 3, Type 0, BuildingBlock: ICAMEG_clean_sbu_1, # of connection points: 4
#     Node 4, Type 0, BuildingBlock: ICAMEG_clean_sbu_1, # of connection points: 4
#     Node 5, Type 0, BuildingBlock: ICAMEG_clean_sbu_1, # of connection points: 4
#     Node 6, Type 0, BuildingBlock: ICAMEG_clean_sbu_1, # of connection points: 4
#     Node 7, Type 0, BuildingBlock: ICAMEG_clean_sbu_1, # of connection points: 4
#     Node 8, Type 0, BuildingBlock: ICAMEG_clean_sbu_1, # of connection points: 4
#     Node 9, Type 0, BuildingBlock: ICAMEG_clean_sbu_1, # of connection points: 4
#     Node 10, Type 0, BuildingBlock: ICAMEG_clean_sbu_1, # of connection points: 4
#     Node 11, Type 0, BuildingBlock: ICAMEG_clean_sbu_1, # of connection points: 4
#     Node 12, Type 0, BuildingBlock: ICAMEG_clean_sbu_1, # of connection points: 4
#     Node 13, Type 0, BuildingBlock: ICAMEG_clean_sbu_1, # of connection points: 4
#     Node 14, Type 0, BuildingBlock: ICAMEG_clean_sbu_1, # of connection points: 4
#     Node 15, Type 0, BuildingBlock: ICAMEG_clean_sbu_1, # of connection points: 4
#     Node 16, Type 0, BuildingBlock: ICAMEG_clean_sbu_1, # of connection points: 4
#     Node 17, Type 0, BuildingBlock: ICAMEG_clean_sbu_1, # of connection points: 4
#     Node 18, Type 0, BuildingBlock: ICAMEG_clean_sbu_1, # of connection points: 4
#     Node 19, Type 0, BuildingBlock: ICAMEG_clean_sbu_1, # of connection points: 4
#     Node 20, Type 0, BuildingBlock: ICAMEG_clean_sbu_1, # of connection points: 4
#     Node 21, Type 0, BuildingBlock: ICAMEG_clean_sbu_1, # of connection points: 4
#     Node 22, Type 0, BuildingBlock: ICAMEG_clean_sbu_1, # of connection points: 4
#     Node 23, Type 0, BuildingBlock: ICAMEG_clean_sbu_1, # of connection points: 4
#     Node 24, Type 0, BuildingBlock: ICAMEG_clean_sbu_1, # of connection points: 4
#     Node 25, Type 0, BuildingBlock: ICAMEG_clean_sbu_1, # of connection points: 4
#     Node 26, Type 0, BuildingBlock: ICAMEG_clean_sbu_1, # of connection points: 4
#     Node 27, Type 0, BuildingBlock: ICAMEG_clean_sbu_1, # of connection points: 4
#     Node 28, Type 0, BuildingBlock: ICAMEG_clean_sbu_1, # of connection points: 4
#     Node 29, Type 0, BuildingBlock: ICAMEG_clean_sbu_1, # of connection points: 4
#     Node 30, Type 0, BuildingBlock: ICAMEG_clean_sbu_1, # of connection points: 4
#     Node 31, Type 0, BuildingBlock: ICAMEG_clean_sbu_1, # of connection points: 4
#     Edge 32, Type (0, 0), BuildingBlock: OJICUG_clean_linker_0, # of connection points: 2
#     Edge 33, Type (0, 0), BuildingBlock: OJICUG_clean_linker_0, # of connection points: 2
#     Edge 34, Type (0, 0), BuildingBlock: OJICUG_clean_linker_0, # of connection points: 2
#     Edge 35, Type (0, 0), BuildingBlock: OJICUG_clean_linker_0, # of connection points: 2
#     Edge 36, Type (0, 0), BuildingBlock: OJICUG_clean_linker_0, # of connection points: 2
#     Edge 37, Type (0, 0), BuildingBlock: OJICUG_clean_linker_0, # of connection points: 2
#     Edge 38, Type (0, 0), BuildingBlock: OJICUG_clean_linker_0, # of connection points: 2
#     Edge 39, Type (0, 0), BuildingBlock: OJICUG_clean_linker_0, # of connection points: 2
#     Edge 40, Type (0, 0), BuildingBlock: OJICUG_clean_linker_0, # of connection points: 2
#     Edge 41, Type (0, 0), BuildingBlock: OJICUG_clean_linker_0, # of connection points: 2
#     Edge 42, Type (0, 0), BuildingBlock: OJICUG_clean_linker_0, # of connection points: 2
#     Edge 43, Type (0, 0), BuildingBlock: OJICUG_clean_linker_0, # of connection points: 2
#     Edge 44, Type (0, 0), BuildingBlock: OJICUG_clean_linker_0, # of connection points: 2
#     Edge 45, Type (0, 0), BuildingBlock: OJICUG_clean_linker_0, # of connection points: 2
#     Edge 46, Type (0, 0), BuildingBlock: OJICUG_clean_linker_0, # of connection points: 2
#     Edge 47, Type (0, 0), BuildingBlock: OJICUG_clean_linker_0, # of connection points: 2
#     Edge 48, Type (0, 0), BuildingBlock: OJICUG_clean_linker_0, # of connection points: 2
#     Edge 49, Type (0, 0), BuildingBlock: OJICUG_clean_linker_0, # of connection points: 2
#     Edge 50, Type (0, 0), BuildingBlock: OJICUG_clean_linker_0, # of connection points: 2
#     Edge 51, Type (0, 0), BuildingBlock: OJICUG_clean_linker_0, # of connection points: 2
#     Edge 52, Type (0, 0), BuildingBlock: OJICUG_clean_linker_0, # of connection points: 2
#     Edge 53, Type (0, 0), BuildingBlock: OJICUG_clean_linker_0, # of connection points: 2
#     Edge 54, Type (0, 0), BuildingBlock: OJICUG_clean_linker_0, # of connection points: 2
#     Edge 55, Type (0, 0), BuildingBlock: OJICUG_clean_linker_0, # of connection points: 2
#     Edge 56, Type (0, 0), BuildingBlock: OJICUG_clean_linker_0, # of connection points: 2
#     Edge 57, Type (0, 0), BuildingBlock: OJICUG_clean_linker_0, # of connection points: 2
#     Edge 58, Type (0, 0), BuildingBlock: OJICUG_clean_linker_0, # of connection points: 2
#     Edge 59, Type (0, 0), BuildingBlock: OJICUG_clean_linker_0, # of connection points: 2
#     Edge 60, Type (0, 0), BuildingBlock: OJICUG_clean_linker_0, # of connection points: 2
#     Edge 61, Type (0, 0), BuildingBlock: OJICUG_clean_linker_0, # of connection points: 2
#     Edge 62, Type (0, 0), BuildingBlock: OJICUG_clean_linker_0, # of connection points: 2
#     Edge 63, Type (0, 0), BuildingBlock: OJICUG_clean_linker_0, # of connection points: 2
#     Edge 64, Type (0, 0), BuildingBlock: OJICUG_clean_linker_0, # of connection points: 2
#     Edge 65, Type (0, 0), BuildingBlock: OJICUG_clean_linker_0, # of connection points: 2
#     Edge 66, Type (0, 0), BuildingBlock: OJICUG_clean_linker_0, # of connection points: 2
#     Edge 67, Type (0, 0), BuildingBlock: OJICUG_clean_linker_0, # of connection points: 2
#     Edge 68, Type (0, 0), BuildingBlock: OJICUG_clean_linker_0, # of connection points: 2
#     Edge 69, Type (0, 0), BuildingBlock: OJICUG_clean_linker_0, # of connection points: 2
#     Edge 70, Type (0, 0), BuildingBlock: OJICUG_clean_linker_0, # of connection points: 2
#     Edge 71, Type (0, 0), BuildingBlock: OJICUG_clean_linker_0, # of connection points: 2
#     Edge 72, Type (0, 0), BuildingBlock: OJICUG_clean_linker_0, # of connection points: 2
#     Edge 73, Type (0, 0), BuildingBlock: OJICUG_clean_linker_0, # of connection points: 2
#     Edge 74, Type (0, 0), BuildingBlock: OJICUG_clean_linker_0, # of connection points: 2
#     Edge 75, Type (0, 0), BuildingBlock: OJICUG_clean_linker_0, # of connection points: 2
#     Edge 76, Type (0, 0), BuildingBlock: OJICUG_clean_linker_0, # of connection points: 2
#     Edge 77, Type (0, 0), BuildingBlock: OJICUG_clean_linker_0, # of connection points: 2
#     Edge 78, Type (0, 0), BuildingBlock: OJICUG_clean_linker_0, # of connection points: 2
#     Edge 79, Type (0, 0), BuildingBlock: OJICUG_clean_linker_0, # of connection points: 2
#     Edge 80, Type (0, 0), BuildingBlock: OJICUG_clean_linker_0, # of connection points: 2
#     Edge 81, Type (0, 0), BuildingBlock: OJICUG_clean_linker_0, # of connection points: 2
#     Edge 82, Type (0, 0), BuildingBlock: OJICUG_clean_linker_0, # of connection points: 2
#     Edge 83, Type (0, 0), BuildingBlock: OJICUG_clean_linker_0, # of connection points: 2
#     Edge 84, Type (0, 0), BuildingBlock: OJICUG_clean_linker_0, # of connection points: 2
#     Edge 85, Type (0, 0), BuildingBlock: OJICUG_clean_linker_0, # of connection points: 2
#     Edge 86, Type (0, 0), BuildingBlock: OJICUG_clean_linker_0, # of connection points: 2
#     Edge 87, Type (0, 0), BuildingBlock: OJICUG_clean_linker_0, # of connection points: 2
#     Edge 88, Type (0, 0), BuildingBlock: OJICUG_clean_linker_0, # of connection points: 2
#     Edge 89, Type (0, 0), BuildingBlock: OJICUG_clean_linker_0, # of connection points: 2
#     Edge 90, Type (0, 0), BuildingBlock: OJICUG_clean_linker_0, # of connection points: 2
#     Edge 91, Type (0, 0), BuildingBlock: OJICUG_clean_linker_0, # of connection points: 2
#     Edge 92, Type (0, 0), BuildingBlock: OJICUG_clean_linker_0, # of connection points: 2
#     Edge 93, Type (0, 0), BuildingBlock: OJICUG_clean_linker_0, # of connection points: 2
#     Edge 94, Type (0, 0), BuildingBlock: OJICUG_clean_linker_0, # of connection points: 2
#     Edge 95, Type (0, 0), BuildingBlock: OJICUG_clean_linker_0, # of connection points: 2
# Relax obj value: 0.077
# Max RMSD: 0.095
# Mean RMSD: 0.095
data_MOF--net-uow--node1-ICAMEG_clean_sbu_1--edge1-OJICUG_clean_linker_0
_symmetry_space_group_name_H-M    P1
_symmetry_Int_Tables_number       1
_symmetry_cell_setting            triclinic
loop_
_symmetry_equiv_pos_as_xyz
'x, y, z'
_cell_length_a     48.247593
_cell_length_b     48.362003
_cell_length_c     34.573768
_cell_angle_alpha  90.000354
_cell_angle_beta   90.020313
_cell_angle_gamma 90.015836
loop_
_atom_site_label
_atom_site_type_symbol
_atom_site_fract_x
_atom_site_fract_y
_atom_site_fract_z
_atom_type_partial_charge
Co0 Co 0.03461 0.34848 0.25824 0.0
Co1 Co 0.04237 0.40365 0.31742 0.0
O2 O 0.04088 0.3876 0.26592 0.0
C3 C 0.0837 0.3582 0.20636 0.0
O4 O 0.09904 0.36674 0.23538 0.0
C5 C 0.00905 0.45539 0.30225 0.0
O6 O 0.99332 0.45001 0.33233 0.0
O7 O 1.0039 0.39006 0.32717 0.0
O8 O 0.00851 0.3468 0.30388 0.0
H9 H 0.02632 0.40662 0.46097 0.0
H10 H 0.02441 0.38894 0.19527 0.0
O11 O 0.05899 0.34994 0.21181 0.0
H12 H 0.93742 0.33617 0.20805 0.0
H13 H 0.03015 0.26233 0.17733 0.0
H14 H 0.03297 0.29963 0.31001 0.0
H15 H 0.97752 0.32591 0.2499 0.0
H16 H 0.02718 0.31256 0.18874 0.0
O17 O 0.02847 0.4388 0.29288 0.0
H18 H 0.02625 0.3854 0.39614 0.0
H19 H 0.05997 0.45877 0.34777 0.0
H20 H 0.0362 0.24924 0.29985 0.0
H21 H 0.98495 0.3999 0.15254 0.0
H22 H 0.03572 0.23047 0.23297 0.0
H23 H 0.94105 0.3734 0.15878 0.0
O24 O 0.06683 0.34017 0.29223 0.0
H25 H 0.11864 0.44575 0.23765 0.0
H26 H 0.0954 0.40123 0.36179 0.0
H27 H 0.14363 0.41534 0.34898 0.0
H28 H 0.1555 0.43787 0.28658 0.0
H29 H 0.07074 0.43105 0.25144 0.0
H30 H 0.06039 0.48083 0.41211 0.0
H31 H 0.04347 0.45469 0.46927 0.0
O32 O 0.05702 0.36848 0.34153 0.0
C33 C 0.99571 0.36492 0.32428 0.0
C34 C 0.03372 0.41823 0.43629 0.0
C35 C 0.05283 0.45988 0.40886 0.0
N36 N 0.04298 0.42085 0.36817 0.0
C37 C 0.03371 0.40633 0.39949 0.0
C38 C 0.05251 0.4473 0.3725 0.0
C39 C 0.04335 0.4452 0.44092 0.0
C40 C 1.00537 0.37734 0.19818 0.0
N41 N 1.00321 0.3568 0.22514 0.0
C42 C 0.98309 0.38364 0.1739 0.0
C43 C 0.95847 0.36878 0.17743 0.0
C44 C 0.9564 0.34791 0.20508 0.0
C45 C 0.97911 0.34223 0.22883 0.0
C46 C 0.03073 0.27035 0.20655 0.0
C47 C 0.032 0.29153 0.28092 0.0
C48 C 0.02884 0.29876 0.21323 0.0
N49 N 0.03006 0.30905 0.25002 0.0
C50 C 0.03412 0.263 0.27533 0.0
C51 C 0.03384 0.25245 0.23782 0.0
C52 C 0.06909 0.34716 0.32758 0.0
C53 C 0.1137 0.43608 0.26503 0.0
C54 C 0.10038 0.41098 0.33453 0.0
C55 C 0.12774 0.41896 0.32747 0.0
C56 C 0.13438 0.43161 0.29246 0.0
N57 N 0.08016 0.41557 0.30757 0.0
C58 C 0.08657 0.42783 0.2731 0.0
Co59 Co 0.91167 0.78662 0.50972 0.0
Co60 Co 0.85836 0.79342 0.57278 0.0
O61 O 0.87258 0.79288 0.51996 0.0
C62 C 0.90328 0.83666 0.45836 0.0
O63 O 0.8981 0.85309 0.48772 0.0
C64 C 0.81677 0.76102 0.52718 0.0
O65 O 0.83723 0.74616 0.51326 0.0
O66 O 0.87226 0.75507 0.58034 0.0
O67 O 0.91486 0.7601 0.55479 0.0
H68 H 0.86192 0.77596 0.71602 0.0
H69 H 0.86976 0.77731 0.44822 0.0
O70 O 0.90886 0.81126 0.46365 0.0
H71 H 0.92179 0.68984 0.45799 0.0
H72 H 0.99534 0.78337 0.42348 0.0
H73 H 0.96226 0.78476 0.55838 0.0
H74 H 0.93349 0.72948 0.4998 0.0
H75 H 0.94547 0.77961 0.43798 0.0
O76 O 0.82167 0.77958 0.55252 0.0
H77 H 0.88045 0.77706 0.64961 0.0
H78 H 0.804 0.80874 0.60777 0.0
H79 H 0.01234 0.78876 0.54513 0.0
H80 H 0.85739 0.73833 0.40556 0.0
H81 H 0.029 0.78901 0.47715 0.0
H82 H 0.88348 0.69417 0.41033 0.0
O83 O 0.92119 0.81845 0.54375 0.0
H84 H 0.81264 0.87024 0.49857 0.0
H85 H 0.86212 0.84562 0.61855 0.0
H86 H 0.84719 0.89382 0.60817 0.0
H87 H 0.82219 0.90638 0.54786 0.0
H88 H 0.82812 0.82234 0.50998 0.0
H89 H 0.78457 0.80781 0.67374 0.0
H90 H 0.81363 0.79141 0.72844 0.0
O91 O 0.89448 0.80793 0.59444 0.0
C92 C 0.89729 0.74695 0.57573 0.0
C93 C 0.84906 0.78321 0.69244 0.0
C94 C 0.80564 0.80104 0.6687 0.0
N95 N 0.84337 0.79306 0.62485 0.0
C96 C 0.85946 0.78393 0.65476 0.0
C97 C 0.81673 0.80144 0.63139 0.0
C98 C 0.82196 0.79185 0.69938 0.0
C99 C 0.88126 0.75819 0.45039 0.0
N100 N 0.9023 0.7556 0.4766 0.0
C101 C 0.87413 0.73618 0.42619 0.0
C102 C 0.88875 0.7114 0.42892 0.0
C103 C 0.91021 0.70894 0.45568 0.0
C104 C 0.9167 0.73139 0.47942 0.0
C105 C 0.98826 0.78364 0.45318 0.0
C106 C 0.96944 0.78409 0.5288 0.0
C107 C 0.96005 0.78128 0.4616 0.0
N108 N 0.95091 0.78216 0.49902 0.0
C109 C 0.9978 0.78667 0.52147 0.0
C110 C 0.00715 0.78682 0.48334 0.0
C111 C 0.91537 0.8202 0.57957 0.0
C112 C 0.82343 0.86501 0.52503 0.0
C113 C 0.85129 0.85092 0.59221 0.0
C114 C 0.84285 0.87825 0.58652 0.0
C115 C 0.82882 0.88528 0.55268 0.0
N116 N 0.84581 0.83113 0.56503 0.0
C117 C 0.83216 0.8379 0.53171 0.0
Co118 Co 0.47128 0.65961 0.76227 0.0
Co119 Co 0.46578 0.60552 0.82491 0.0
O120 O 0.46614 0.6202 0.77201 0.0
C121 C 0.43121 0.63943 0.70005 0.0
O122 O 0.43165 0.61382 0.71249 0.0
C123 C 0.49944 0.56544 0.77879 0.0
O124 O 0.51358 0.58639 0.76485 0.0
O125 O 0.50374 0.62031 0.83332 0.0
O126 O 0.49837 0.6625 0.80695 0.0
H127 H 0.48176 0.6086 0.96857 0.0
H128 H 0.48315 0.61736 0.70094 0.0
O129 O 0.44498 0.65836 0.71718 0.0
H130 H 0.56714 0.67494 0.7092 0.0
H131 H 0.47394 0.74531 0.67979 0.0
H132 H 0.47318 0.70899 0.81304 0.0
H133 H 0.52712 0.68419 0.75146 0.0
H134 H 0.4767 0.69513 0.69181 0.0
O135 O 0.4809 0.56957 0.80444 0.0
H136 H 0.48061 0.62756 0.90243 0.0
H137 H 0.45196 0.55054 0.85891 0.0
H138 H 0.47017 0.75931 0.80229 0.0
H139 H 0.52241 0.60756 0.65785 0.0
H140 H 0.46985 0.77769 0.73522 0.0
H141 H 0.56489 0.63644 0.66173 0.0
O142 O 0.43937 0.66782 0.79659 0.0
H143 H 0.39107 0.55502 0.75202 0.0
H144 H 0.41284 0.60882 0.8693 0.0
H145 H 0.36519 0.59198 0.85896 0.0
H146 H 0.35405 0.56481 0.80001 0.0
H147 H 0.43837 0.5725 0.76329 0.0
H148 H 0.45296 0.53069 0.92459 0.0
H149 H 0.46788 0.55981 0.98 0.0
O150 O 0.45025 0.64098 0.84686 0.0
C151 C 0.51143 0.64539 0.82874 0.0
C152 C 0.47519 0.59571 0.94467 0.0
C153 C 0.45907 0.55197 0.91998 0.0
N154 N 0.46621 0.5902 0.8768 0.0
C155 C 0.47446 0.60634 0.90713 0.0
C156 C 0.45864 0.56331 0.88282 0.0
C157 C 0.46742 0.56833 0.95106 0.0
C158 C 0.50121 0.63036 0.70252 0.0
N159 N 0.50248 0.65171 0.72834 0.0
C160 C 0.52356 0.62455 0.67817 0.0
C161 C 0.54742 0.6407 0.68043 0.0
C162 C 0.5487 0.66228 0.70705 0.0
C163 C 0.52597 0.66742 0.73097 0.0
C164 C 0.47377 0.73751 0.70913 0.0
C165 C 0.47363 0.71686 0.7838 0.0
C166 C 0.47551 0.70912 0.71614 0.0
N167 N 0.47497 0.69909 0.75312 0.0
C168 C 0.47167 0.74536 0.77789 0.0
C169 C 0.47145 0.75567 0.74025 0.0
C170 C 0.43759 0.66165 0.8322 0.0
C171 C 0.39565 0.56687 0.7778 0.0
C172 C 0.40813 0.59725 0.84337 0.0
C173 C 0.38112 0.58765 0.83778 0.0
C174 C 0.37489 0.57238 0.80472 0.0
N175 N 0.42838 0.59184 0.81678 0.0
C176 C 0.42243 0.5768 0.78437 0.0
Co177 Co 0.603 0.22456 0.0059 0.0
Co178 Co 0.65967 0.21842 0.06276 0.0
O179 O 0.6425 0.2192 0.0118 0.0
C180 C 0.60995 0.17454 0.95431 0.0
O181 O 0.61706 0.15846 0.98326 0.0
C182 C 0.71095 0.2517 0.04517 0.0
O183 O 0.70563 0.26781 0.07485 0.0
O184 O 0.64603 0.2568 0.07177 0.0
O185 O 0.6021 0.25122 0.05097 0.0
H186 H 0.66558 0.23678 0.2056 0.0
H187 H 0.64193 0.23523 0.94116 0.0
O188 O 0.60384 0.19981 0.95984 0.0
H189 H 0.58613 0.3202 0.9535 0.0
H190 H 0.51417 0.2236 0.93014 0.0
H191 H 0.55566 0.22656 0.06041 0.0
H192 H 0.57812 0.2805 0.99685 0.0
H193 H 0.56462 0.22915 0.93823 0.0
O194 O 0.69437 0.23208 0.03658 0.0
H195 H 0.64302 0.23585 0.14163 0.0
H196 H 0.71552 0.20133 0.09149 0.0
H197 H 0.50505 0.22129 0.05361 0.0
H198 H 0.65065 0.27433 0.89696 0.0
H199 H 0.48416 0.2188 0.98803 0.0
H200 H 0.62261 0.3172 0.90297 0.0
O201 O 0.59631 0.19268 0.04083 0.0
H202 H 0.69992 0.14129 0.98307 0.0
H203 H 0.65862 0.16617 0.10878 0.0
H204 H 0.67245 0.11789 0.09654 0.0
H205 H 0.69335 0.10519 0.03334 0.0
H206 H 0.68556 0.18926 0.99635 0.0
H207 H 0.73891 0.20191 0.15495 0.0
H208 H 0.71389 0.21972 0.21257 0.0
O209 O 0.62508 0.20398 0.08893 0.0
C210 C 0.62071 0.26469 0.06971 0.0
C211 C 0.67671 0.22898 0.18071 0.0
C212 C 0.71787 0.20942 0.15228 0.0
N213 N 0.67795 0.21864 0.11283 0.0
C214 C 0.66404 0.22842 0.1444 0.0
C215 C 0.70454 0.20918 0.11642 0.0
C216 C 0.70382 0.21941 0.1846 0.0
C217 C 0.62972 0.25385 0.94402 0.0
N218 N 0.6096 0.25568 0.97171 0.0
C219 C 0.63472 0.27592 0.91889 0.0
C220 C 0.619 0.29996 0.92228 0.0
C221 C 0.59855 0.30167 0.95064 0.0
C222 C 0.59416 0.2792 0.97525 0.0
C223 C 0.52311 0.22431 0.95884 0.0
C224 C 0.54662 0.2264 0.03181 0.0
C225 C 0.55165 0.22765 0.96363 0.0
N226 N 0.56314 0.22799 0.99979 0.0
C227 C 0.51798 0.22307 0.02815 0.0
C228 C 0.50626 0.22162 0.99136 0.0
C229 C 0.60385 0.19118 0.07601 0.0
C230 C 0.69096 0.14659 0.01079 0.0
C231 C 0.66768 0.16083 0.08118 0.0
C232 C 0.6755 0.13345 0.07444 0.0
C233 C 0.68723 0.12634 0.03899 0.0
N234 N 0.67155 0.18062 0.05347 0.0
C235 C 0.6829 0.17376 0.01856 0.0
Co236 Co 0.03751 0.65792 0.24262 0.0
Co237 Co 0.04285 0.60345 0.18062 0.0
O238 O 0.04286 0.61847 0.23337 0.0
C239 C 0.07857 0.63864 0.30407 0.0
O240 O 0.07849 0.613 0.29171 0.0
C241 C 0.01006 0.56313 0.22781 0.0
O242 O 0.99587 0.58396 0.24195 0.0
O243 O 1.00464 0.61772 0.17298 0.0
O244 O 0.00993 0.6602 0.1985 0.0
H245 H 0.02526 0.60545 0.0373 0.0
H246 H 0.02663 0.61609 0.30468 0.0
O247 O 0.06425 0.65724 0.28717 0.0
H248 H 0.94222 0.67313 0.29774 0.0
H249 H 0.03565 0.74445 0.32349 0.0
H250 H 0.03467 0.70677 0.19098 0.0
H251 H 0.98167 0.6824 0.25447 0.0
H252 H 0.03274 0.69414 0.31255 0.0
O253 O 0.02836 0.56741 0.20186 0.0
H254 H 0.02688 0.62482 0.10318 0.0
H255 H 0.05693 0.54844 0.14698 0.0
H256 H 0.03772 0.7572 0.20064 0.0
H257 H 0.9879 0.60628 0.34876 0.0
H258 H 0.03894 0.77627 0.26731 0.0
H259 H 0.94522 0.63489 0.34553 0.0
O260 O 0.06899 0.66604 0.20762 0.0
H261 H 0.11895 0.55434 0.25246 0.0
H262 H 0.09524 0.60711 0.13501 0.0
H263 H 0.1432 0.59096 0.14454 0.0
H264 H 0.15533 0.56431 0.20359 0.0
H265 H 0.07132 0.57113 0.24199 0.0
H266 H 0.05548 0.52819 0.08156 0.0
H267 H 0.03962 0.55678 0.02613 0.0
O268 O 0.05775 0.63899 0.15775 0.0
C269 C 0.99673 0.64274 0.17744 0.0
C270 C 0.03224 0.59279 0.0612 0.0
C271 C 0.04916 0.54941 0.08606 0.0
N272 N 0.042 0.58781 0.12894 0.0
C273 C 0.03324 0.60366 0.0986 0.0
C274 C 0.04985 0.56097 0.12307 0.0
C275 C 0.04028 0.56547 0.05496 0.0
C276 C 0.00844 0.62894 0.30335 0.0
N277 N 0.00674 0.65012 0.27731 0.0
C278 C 0.98641 0.62314 0.32828 0.0
C279 C 0.96245 0.63914 0.32638 0.0
C280 C 0.96074 0.66057 0.29957 0.0
C281 C 0.98316 0.6657 0.27507 0.0
C282 C 0.03543 0.73634 0.29431 0.0
C283 C 0.03456 0.71493 0.22007 0.0
C284 C 0.0336 0.70788 0.28791 0.0
N285 N 0.03367 0.69747 0.25113 0.0
C286 C 0.03657 0.7435 0.22536 0.0
C287 C 0.03732 0.75419 0.26277 0.0
C288 C 0.07046 0.65978 0.17203 0.0
C289 C 0.11395 0.56597 0.22664 0.0
C290 C 0.10038 0.59578 0.16098 0.0
C291 C 0.12756 0.58656 0.16612 0.0
C292 C 0.13435 0.57158 0.19922 0.0
N293 N 0.08049 0.59027 0.18808 0.0
C294 C 0.08698 0.57551 0.22052 0.0
Co295 Co 0.60029 0.78789 0.49322 0.0
Co296 Co 0.65721 0.79457 0.43695 0.0
O297 O 0.63988 0.79304 0.48781 0.0
C298 C 0.60888 0.83632 0.54714 0.0
O299 O 0.61789 0.85245 0.5193 0.0
C300 C 0.70837 0.76081 0.45367 0.0
O301 O 0.70302 0.74523 0.42345 0.0
O302 O 0.64334 0.75641 0.42651 0.0
O303 O 0.59941 0.76203 0.44729 0.0
H304 H 0.66341 0.77852 0.2936 0.0
H305 H 0.63926 0.77565 0.55738 0.0
O306 O 0.60108 0.81172 0.54016 0.0
H307 H 0.58207 0.69175 0.54297 0.0
H308 H 0.51082 0.78882 0.56758 0.0
H309 H 0.55335 0.78632 0.43801 0.0
H310 H 0.57442 0.73226 0.50099 0.0
H311 H 0.56131 0.78318 0.56032 0.0
O312 O 0.69182 0.7803 0.46287 0.0
H313 H 0.64067 0.77855 0.35744 0.0
H314 H 0.71321 0.8119 0.40911 0.0
H315 H 0.50268 0.79125 0.44398 0.0
H316 H 0.64759 0.73574 0.60028 0.0
H317 H 0.48126 0.79354 0.50918 0.0
H318 H 0.61888 0.69339 0.5932 0.0
O319 O 0.59398 0.82048 0.45937 0.0
H320 H 0.698 0.87005 0.51926 0.0
H321 H 0.65646 0.84762 0.39275 0.0
H322 H 0.67066 0.89558 0.40661 0.0
H323 H 0.69169 0.90704 0.47021 0.0
H324 H 0.68325 0.82243 0.50438 0.0
H325 H 0.73677 0.81222 0.3458 0.0
H326 H 0.71183 0.79544 0.28747 0.0
O327 O 0.62272 0.8096 0.4111 0.0
C328 C 0.61793 0.74871 0.42818 0.0
C329 C 0.67451 0.78586 0.3188 0.0
C330 C 0.71568 0.80477 0.34809 0.0
N331 N 0.67561 0.79512 0.387 0.0
C332 C 0.66174 0.78591 0.35504 0.0
C333 C 0.70225 0.80451 0.38386 0.0
C334 C 0.70168 0.79536 0.31538 0.0
C335 C 0.62677 0.75725 0.55402 0.0
N336 N 0.60651 0.75615 0.52643 0.0
C337 C 0.63155 0.73473 0.57843 0.0
C338 C 0.61544 0.71097 0.57445 0.0
C339 C 0.59481 0.71002 0.54625 0.0
C340 C 0.59065 0.73294 0.52238 0.0
C341 C 0.51999 0.78818 0.53903 0.0
C342 C 0.54409 0.78631 0.46645 0.0
C343 C 0.54857 0.78484 0.5347 0.0
N344 N 0.56036 0.78463 0.49874 0.0
C345 C 0.51541 0.78947 0.46965 0.0
C346 C 0.50339 0.7908 0.50624 0.0
C347 C 0.60151 0.82234 0.42422 0.0
C348 C 0.68899 0.86529 0.49137 0.0
C349 C 0.66556 0.85243 0.42052 0.0
C350 C 0.6736 0.87963 0.42818 0.0
C351 C 0.6854 0.88604 0.46386 0.0
N352 N 0.66929 0.83213 0.44756 0.0
C353 C 0.68071 0.83832 0.48269 0.0
Co354 Co 0.46958 0.35183 0.7432 0.0
Co355 Co 0.46488 0.40819 0.68479 0.0
O356 O 0.46479 0.39142 0.73631 0.0
C357 C 0.42913 0.37016 0.8058 0.0
O358 O 0.42969 0.39601 0.79444 0.0
C359 C 0.49942 0.45864 0.70233 0.0
O360 O 0.51545 0.45312 0.67261 0.0
O361 O 0.50311 0.39393 0.67655 0.0
O362 O 0.49722 0.35067 0.69918 0.0
H363 H 0.48382 0.41223 0.54194 0.0
H364 H 0.48153 0.39236 0.80664 0.0
O365 O 0.4428 0.35158 0.78781 0.0
H366 H 0.56408 0.33274 0.79868 0.0
H367 H 0.46958 0.2627 0.8184 0.0
H368 H 0.47224 0.30472 0.68852 0.0
H369 H 0.52465 0.3256 0.75457 0.0
H370 H 0.4732 0.31327 0.8108 0.0
O371 O 0.47928 0.44263 0.71064 0.0
H372 H 0.48198 0.39031 0.60626 0.0
H373 H 0.44955 0.46411 0.655 0.0
H374 H 0.46871 0.25405 0.69483 0.0
H375 H 0.52028 0.40009 0.85153 0.0
H376 H 0.46662 0.23282 0.76015 0.0
H377 H 0.56199 0.37013 0.84786 0.0
O378 O 0.43814 0.34544 0.70747 0.0
H379 H 0.38834 0.45488 0.7591 0.0
H380 H 0.41262 0.40602 0.63865 0.0
H381 H 0.3646 0.42171 0.64879 0.0
H382 H 0.35218 0.44641 0.70934 0.0
H383 H 0.43602 0.43854 0.74803 0.0
H384 H 0.45102 0.48686 0.59118 0.0
H385 H 0.46827 0.46087 0.53409 0.0
O386 O 0.45002 0.37362 0.65901 0.0
C387 C 0.51075 0.36868 0.67949 0.0
C388 C 0.47631 0.42379 0.56661 0.0
C389 C 0.45791 0.46567 0.59424 0.0
N390 N 0.46586 0.42596 0.63442 0.0
C391 C 0.47526 0.4115 0.60312 0.0
C392 C 0.45717 0.4527 0.63032 0.0
C393 C 0.46758 0.45108 0.56222 0.0
C394 C 0.49931 0.37897 0.80503 0.0
N395 N 0.50041 0.35811 0.77842 0.0
C396 C 0.52135 0.38358 0.83045 0.0
C397 C 0.54477 0.36681 0.82833 0.0
C398 C 0.54596 0.34584 0.80077 0.0
C399 C 0.52354 0.34188 0.77583 0.0
C400 C 0.47017 0.27176 0.78978 0.0
C401 C 0.47201 0.2956 0.71704 0.0
C402 C 0.47238 0.30038 0.78528 0.0
N403 N 0.47279 0.312 0.74921 0.0
C404 C 0.46973 0.2669 0.72042 0.0
C405 C 0.4685 0.25499 0.75708 0.0
C406 C 0.43698 0.35264 0.67217 0.0
C407 C 0.39348 0.4441 0.73262 0.0
C408 C 0.40737 0.41645 0.6653 0.0
C409 C 0.38015 0.42544 0.67077 0.0
C410 C 0.3732 0.43932 0.70471 0.0
N411 N 0.42716 0.4211 0.69288 0.0
C412 C 0.42049 0.43481 0.72615 0.0
Co413 Co 0.91382 0.22334 0.99248 0.0
Co414 Co 0.86059 0.21455 0.92948 0.0
O415 O 0.87468 0.21711 0.98231 0.0
C416 C 0.90265 0.17579 0.04681 0.0
O417 O 0.895 0.15948 0.01838 0.0
C418 C 0.81935 0.24918 0.97223 0.0
O419 O 0.83996 0.26418 0.98547 0.0
O420 O 0.8751 0.25231 0.91862 0.0
O421 O 0.91738 0.24807 0.94555 0.0
H422 H 0.86481 0.22559 0.78502 0.0
H423 H 0.87176 0.2352 0.05283 0.0
O424 O 0.9107 0.20037 0.04019 0.0
H425 H 0.92465 0.32177 0.03752 0.0
H426 H 0.99737 0.23004 0.07884 0.0
H427 H 0.96455 0.22331 0.9441 0.0
H428 H 0.9362 0.28058 0.99871 0.0
H429 H 0.94747 0.23266 0.06391 0.0
O430 O 0.82408 0.22975 0.94817 0.0
H431 H 0.88316 0.2271 0.85152 0.0
H432 H 0.8061 0.19851 0.89545 0.0
H433 H 0.01464 0.22041 0.9578 0.0
H434 H 0.85955 0.27576 0.09257 0.0
H435 H 0.0312 0.22293 0.02575 0.0
H436 H 0.88606 0.31947 0.08499 0.0
O437 O 0.92324 0.1902 0.96093 0.0
H438 H 0.81323 0.14179 0.0095 0.0
H439 H 0.86389 0.16039 0.88839 0.0
H440 H 0.84815 0.11295 0.90267 0.0
H441 H 0.82256 0.10342 0.96356 0.0
H442 H 0.82954 0.18887 0.99425 0.0
H443 H 0.78685 0.19685 0.8294 0.0
H444 H 0.8163 0.21039 0.77361 0.0
O445 O 0.89654 0.19873 0.90948 0.0
C446 C 0.90022 0.26029 0.9229 0.0
C447 C 0.85178 0.21959 0.80908 0.0
C448 C 0.80802 0.20351 0.834 0.0
N449 N 0.84577 0.21283 0.87736 0.0
C450 C 0.86208 0.22035 0.84682 0.0
C451 C 0.81901 0.20457 0.87135 0.0
C452 C 0.82456 0.21109 0.80271 0.0
C453 C 0.88342 0.25412 0.04943 0.0
N454 N 0.90459 0.2556 0.02326 0.0
C455 C 0.87639 0.27704 0.07198 0.0
C456 C 0.89125 0.30156 0.06768 0.0
C457 C 0.91287 0.30288 0.04102 0.0
C458 C 0.91925 0.27956 0.01893 0.0
C459 C 0.99033 0.22858 0.04918 0.0
C460 C 0.97166 0.22511 0.97362 0.0
C461 C 0.96212 0.23026 0.0405 0.0
N462 N 0.95306 0.22796 0.00316 0.0
C463 C 1.00003 0.22318 0.98124 0.0
C464 C 0.00933 0.22457 0.01935 0.0
C465 C 0.91741 0.18708 0.92529 0.0
C466 C 0.82428 0.1457 0.98281 0.0
C467 C 0.85281 0.1564 0.91499 0.0
C468 C 0.84391 0.1295 0.92288 0.0
C469 C 0.82955 0.12418 0.95704 0.0
N470 N 0.84746 0.17743 0.94033 0.0
C471 C 0.83348 0.17234 0.97395 0.0
Co472 Co 0.9744 0.65874 0.74163 0.0
Co473 Co 0.969 0.60309 0.68199 0.0
O474 O 0.96901 0.61929 0.73385 0.0
C475 C 0.9333 0.64042 0.80345 0.0
O476 O 0.93345 0.61466 0.79168 0.0
C477 C 1.00317 0.55226 0.69844 0.0
O478 O 0.01945 0.55838 0.66922 0.0
O479 O 0.00743 0.61699 0.67418 0.0
O480 O 1.00215 0.66005 0.69778 0.0
H481 H 0.98815 0.60057 0.53913 0.0
H482 H 0.98539 0.61742 0.80434 0.0
O483 O 0.9475 0.65889 0.78604 0.0
H484 H 0.06916 0.67547 0.79777 0.0
H485 H 0.97576 0.74689 0.81901 0.0
H486 H 0.97778 0.70649 0.68811 0.0
H487 H 0.02993 0.68386 0.75375 0.0
H488 H 0.97862 0.69638 0.81016 0.0
O489 O 0.98297 0.56813 0.70703 0.0
H490 H 0.98644 0.62173 0.60395 0.0
H491 H 0.95314 0.54769 0.65086 0.0
H492 H 0.97495 0.75712 0.69568 0.0
H493 H 0.02393 0.60844 0.84913 0.0
H494 H 0.97318 0.77754 0.76153 0.0
H495 H 0.06626 0.63759 0.84614 0.0
O496 O 0.94313 0.66606 0.70595 0.0
H497 H 0.89179 0.55651 0.75507 0.0
H498 H 0.91686 0.60636 0.63571 0.0
H499 H 0.86864 0.59111 0.64538 0.0
H500 H 0.85582 0.56593 0.70537 0.0
H501 H 0.93968 0.57242 0.74447 0.0
H502 H 0.95448 0.52569 0.58652 0.0
H503 H 0.9721 0.55219 0.53009 0.0
O504 O 0.95458 0.63815 0.65699 0.0
C505 C 0.01545 0.64209 0.67771 0.0
C506 C 0.98047 0.58879 0.5635 0.0
C507 C 0.96158 0.54677 0.59009 0.0
N508 N 0.96987 0.58593 0.63122 0.0
C509 C 0.97948 0.60066 0.60029 0.0
C510 C 0.96091 0.55932 0.62646 0.0
C511 C 0.97146 0.56165 0.55845 0.0
C512 C 1.00345 0.63046 0.80303 0.0
N513 N 1.00502 0.65156 0.77685 0.0
C514 C 0.02537 0.62515 0.8284 0.0
C515 C 0.04913 0.64147 0.82666 0.0
C516 C 0.05077 0.66271 0.79955 0.0
C517 C 0.02847 0.66737 0.77465 0.0
C518 C 0.97622 0.73818 0.79018 0.0
C519 C 0.97768 0.71525 0.71685 0.0
C520 C 0.978 0.7096 0.78496 0.0
N521 N 0.97823 0.69844 0.74862 0.0
C522 C 0.9758 0.74393 0.72095 0.0
C523 C 0.97475 0.75539 0.7579 0.0
C524 C 0.94185 0.65921 0.67052 0.0
C525 C 0.8971 0.56751 0.72883 0.0
C526 C 0.91144 0.5957 0.66212 0.0
C527 C 0.8841 0.58697 0.66732 0.0
C528 C 0.87693 0.57281 0.70095 0.0
N529 N 0.93112 0.59052 0.68967 0.0
C530 C 0.92423 0.57655 0.72263 0.0
Co531 Co 0.09557 0.22278 0.49322 0.0
Co532 Co 0.15186 0.21528 0.43591 0.0
O533 O 0.135 0.21726 0.48691 0.0
C534 C 0.10639 0.17518 0.54716 0.0
O535 O 0.11608 0.15973 0.51902 0.0
C536 C 0.20275 0.24978 0.4521 0.0
O537 O 0.19742 0.26515 0.42167 0.0
O538 O 0.13784 0.25327 0.42475 0.0
O539 O 0.09419 0.24819 0.44682 0.0
H540 H 0.15687 0.22936 0.29207 0.0
H541 H 0.13525 0.23504 0.5566 0.0
O542 O 0.09689 0.19922 0.54047 0.0
H543 H 0.07956 0.3198 0.541 0.0
H544 H 0.00743 0.22509 0.57055 0.0
H545 H 0.0477 0.22365 0.43953 0.0
H546 H 0.07101 0.27901 0.49986 0.0
H547 H 0.05792 0.22924 0.56133 0.0
O548 O 0.18649 0.23002 0.46118 0.0
H549 H 0.13454 0.22991 0.35619 0.0
H550 H 0.20788 0.19836 0.40783 0.0
H551 H 0.99706 0.21976 0.44745 0.0
H552 H 0.14451 0.27522 0.59863 0.0
H553 H 0.97677 0.21951 0.51344 0.0
H554 H 0.11653 0.31799 0.59099 0.0
O555 O 0.08849 0.18999 0.45999 0.0
H556 H 0.19413 0.14094 0.51882 0.0
H557 H 0.15084 0.16177 0.39293 0.0
H558 H 0.16553 0.11405 0.4074 0.0
H559 H 0.18745 0.1034 0.47068 0.0
H560 H 0.17883 0.18829 0.50338 0.0
H561 H 0.23104 0.19749 0.34424 0.0
H562 H 0.20549 0.21307 0.28579 0.0
O563 O 0.11715 0.19981 0.41106 0.0
C564 C 0.11248 0.26104 0.4267 0.0
C565 C 0.16824 0.22254 0.31732 0.0
C566 C 0.20986 0.20466 0.3466 0.0
N567 N 0.16991 0.21427 0.38574 0.0
C568 C 0.1557 0.22281 0.35372 0.0
C569 C 0.19666 0.20524 0.38253 0.0
C570 C 0.19551 0.2134 0.31382 0.0
C571 C 0.12304 0.2536 0.55304 0.0
N572 N 0.10263 0.25475 0.52568 0.0
C573 C 0.12837 0.27628 0.57694 0.0
C574 C 0.11267 0.30028 0.57263 0.0
C575 C 0.09195 0.30132 0.54458 0.0
C576 C 0.08725 0.27823 0.52122 0.0
C577 C 0.0161 0.22483 0.54169 0.0
C578 C 0.03895 0.22442 0.46827 0.0
C579 C 0.04467 0.22734 0.53625 0.0
N580 N 0.0558 0.22651 0.49991 0.0
C581 C 0.01028 0.22189 0.47259 0.0
C582 C 0.99888 0.22173 0.50961 0.0
C583 C 0.09582 0.18756 0.4248 0.0
C584 C 0.18473 0.14535 0.49107 0.0
C585 C 0.1603 0.15731 0.42058 0.0
C586 C 0.16862 0.13025 0.42857 0.0
C587 C 0.18093 0.12429 0.46408 0.0
N588 N 0.16422 0.1779 0.44712 0.0
C589 C 0.17615 0.17217 0.48206 0.0
Co590 Co 0.54634 0.35041 0.23806 0.0
Co591 Co 0.55012 0.40732 0.1806 0.0
O592 O 0.55047 0.39015 0.23185 0.0
C593 C 0.58606 0.36908 0.30126 0.0
O594 O 0.58539 0.3949 0.28983 0.0
C595 C 0.51531 0.45754 0.19898 0.0
O596 O 0.49923 0.45213 0.16925 0.0
O597 O 0.51199 0.39267 0.17227 0.0
O598 O 0.5186 0.34929 0.19415 0.0
H599 H 0.53072 0.41222 0.03792 0.0
H600 H 0.53331 0.39085 0.30115 0.0
O601 O 0.57303 0.3503 0.28273 0.0
H602 H 0.4528 0.32835 0.29476 0.0
H603 H 0.54877 0.26027 0.31101 0.0
H604 H 0.54331 0.3039 0.18238 0.0
H605 H 0.49224 0.32216 0.25052 0.0
H606 H 0.54443 0.31087 0.30486 0.0
O607 O 0.53549 0.44151 0.20705 0.0
H608 H 0.53294 0.38986 0.10191 0.0
H609 H 0.56493 0.46359 0.15153 0.0
H610 H 0.54694 0.25318 0.18728 0.0
H611 H 0.49451 0.39761 0.34617 0.0
H612 H 0.55045 0.2311 0.25193 0.0
H613 H 0.45381 0.36622 0.34328 0.0
O614 O 0.57789 0.34483 0.20225 0.0
H615 H 0.62639 0.45429 0.25523 0.0
H616 H 0.60229 0.40596 0.13426 0.0
H617 H 0.65018 0.42206 0.14443 0.0
H618 H 0.66251 0.44649 0.20524 0.0
H619 H 0.57885 0.43755 0.24412 0.0
H620 H 0.56307 0.48678 0.08804 0.0
H621 H 0.54584 0.46105 0.03067 0.0
O622 O 0.56522 0.37305 0.15429 0.0
C623 C 0.50469 0.36729 0.17494 0.0
C624 C 0.53821 0.42367 0.0627 0.0
C625 C 0.55636 0.46551 0.09083 0.0
N626 N 0.54885 0.42544 0.1305 0.0
C627 C 0.53948 0.41113 0.09904 0.0
C628 C 0.55732 0.45229 0.12672 0.0
C629 C 0.54671 0.45107 0.05866 0.0
C630 C 0.51596 0.37687 0.29981 0.0
N631 N 0.51544 0.3558 0.27348 0.0
C632 C 0.49389 0.38091 0.32534 0.0
C633 C 0.47104 0.36334 0.32366 0.0
C634 C 0.47046 0.34211 0.29646 0.0
C635 C 0.4929 0.33872 0.2714 0.0
C636 C 0.54755 0.26969 0.28266 0.0
C637 C 0.54409 0.29444 0.21065 0.0
C638 C 0.54501 0.29834 0.27898 0.0
N639 N 0.54382 0.31043 0.24325 0.0
C640 C 0.54644 0.2657 0.21322 0.0
C641 C 0.54852 0.25333 0.2495 0.0
C642 C 0.57867 0.35216 0.167 0.0
C643 C 0.6213 0.44362 0.22864 0.0
C644 C 0.6075 0.41626 0.16103 0.0
C645 C 0.63466 0.42549 0.16651 0.0
C646 C 0.64155 0.43923 0.2006 0.0
N647 N 0.58774 0.42054 0.18874 0.0
C648 C 0.59436 0.43411 0.22215 0.0
Co649 Co 0.41249 0.78902 0.99292 0.0
Co650 Co 0.35546 0.79564 0.93687 0.0
O651 O 0.37287 0.79402 0.98766 0.0
C652 C 0.4034 0.83699 0.04737 0.0
O653 O 0.39401 0.85315 0.0198 0.0
C654 C 0.30449 0.76155 0.95362 0.0
O655 O 0.30981 0.74608 0.92329 0.0
O656 O 0.36944 0.75758 0.92619 0.0
O657 O 0.41339 0.76337 0.9468 0.0
H658 H 0.34907 0.77997 0.79344 0.0
H659 H 0.37353 0.77622 0.05686 0.0
O660 O 0.41167 0.81262 0.04003 0.0
H661 H 0.4314 0.69286 0.0421 0.0
H662 H 0.50216 0.79021 0.06695 0.0
H663 H 0.45931 0.78776 0.93754 0.0
H664 H 0.43882 0.73359 1.00048 0.0
H665 H 0.45167 0.7844 0.05988 0.0
O666 O 0.32096 0.78113 0.9628 0.0
H667 H 0.37192 0.77992 0.85724 0.0
H668 H 0.29933 0.81277 0.90926 0.0
H669 H 0.50999 0.79279 0.94333 0.0
H670 H 0.36542 0.73609 0.09941 0.0
H671 H 0.53157 0.79505 0.00846 0.0
H672 H 0.39447 0.694 0.09216 0.0
O673 O 0.41859 0.82179 0.95935 0.0
H674 H 0.31443 0.87068 0.01966 0.0
H675 H 0.35593 0.84883 0.89298 0.0
H676 H 0.34154 0.89667 0.90714 0.0
H677 H 0.32052 0.90784 0.97082 0.0
H678 H 0.32938 0.82317 0.0045 0.0
H679 H 0.27566 0.81317 0.846 0.0
H680 H 0.30058 0.79668 0.78753 0.0
O681 O 0.38986 0.81092 0.91103 0.0
C682 C 0.39488 0.74999 0.92774 0.0
C683 C 0.33799 0.78719 0.81871 0.0
C684 C 0.29678 0.80582 0.84821 0.0
N685 N 0.33697 0.79625 0.88696 0.0
C686 C 0.35082 0.7872 0.85492 0.0
C687 C 0.31028 0.80551 0.88395 0.0
C688 C 0.31078 0.79657 0.81541 0.0
C689 C 0.38616 0.75794 0.0534 0.0
N690 N 0.40648 0.75711 0.02589 0.0
C691 C 0.38151 0.73529 0.07762 0.0
C692 C 0.39781 0.71168 0.07354 0.0
C693 C 0.4185 0.71101 0.04544 0.0
C694 C 0.42253 0.73405 0.02176 0.0
C695 C 0.49292 0.78958 0.03844 0.0
C696 C 0.46864 0.78773 0.96595 0.0
C697 C 0.46433 0.78616 0.03421 0.0
N698 N 0.45246 0.78595 0.9983 0.0
C699 C 0.49733 0.79095 0.96905 0.0
C700 C 0.50943 0.79227 0.00559 0.0
C701 C 0.41103 0.82371 0.92421 0.0
C702 C 0.32343 0.86604 0.99174 0.0
C703 C 0.34685 0.85351 0.9208 0.0
C704 C 0.33869 0.88064 0.92862 0.0
C705 C 0.3269 0.88689 0.96435 0.0
N706 N 0.34324 0.83312 0.94772 0.0
C707 C 0.33182 0.83914 0.9829 0.0
Co708 Co 0.98019 0.3494 0.75478 0.0
Co709 Co 0.97278 0.40263 0.8178 0.0
O710 O 0.9735 0.38835 0.76505 0.0
C711 C 0.92984 0.3592 0.70523 0.0
O712 O 0.91489 0.3663 0.73538 0.0
C713 C 1.00487 0.44428 0.77208 0.0
O714 O 0.01987 0.42399 0.758 0.0
O715 O 0.01129 0.38904 0.82561 0.0
O716 O 0.00697 0.34655 0.79972 0.0
H717 H 0.98981 0.39935 0.96118 0.0
H718 H 0.98863 0.39106 0.69291 0.0
O719 O 0.955 0.35186 0.70913 0.0
H720 H 0.07728 0.34081 0.7028 0.0
H721 H 0.98625 0.26607 0.66834 0.0
H722 H 0.98245 0.29886 0.80328 0.0
H723 H 0.03787 0.32854 0.74483 0.0
H724 H 0.98791 0.31593 0.683 0.0
O725 O 0.98644 0.43926 0.79757 0.0
H726 H 0.98904 0.38078 0.8948 0.0
H727 H 0.95702 0.45683 0.8526 0.0
H728 H 0.98009 0.24881 0.78983 0.0
H729 H 0.0274 0.40392 0.65002 0.0
H730 H 0.98132 0.23223 0.72185 0.0
H731 H 0.07214 0.37873 0.65485 0.0
O732 O 0.94856 0.33947 0.78894 0.0
H733 H 0.89569 0.44789 0.74331 0.0
H734 H 0.92035 0.3985 0.86327 0.0
H735 H 0.87199 0.41314 0.85269 0.0
H736 H 0.8594 0.4381 0.79239 0.0
H737 H 0.94375 0.43267 0.7549 0.0
H738 H 0.95761 0.47629 0.91853 0.0
H739 H 0.97402 0.44745 0.9734 0.0
O740 O 0.95845 0.36658 0.83943 0.0
C741 C 0.01975 0.36417 0.82102 0.0
C742 C 0.98257 0.41211 0.93753 0.0
C743 C 0.96454 0.4553 0.91358 0.0
N744 N 0.97292 0.41766 0.86985 0.0
C745 C 0.98203 0.40169 0.89987 0.0
C746 C 0.96433 0.44419 0.87629 0.0
C747 C 0.97373 0.4391 0.94436 0.0
C748 C 0.00801 0.37995 0.69509 0.0
N749 N 0.01104 0.35913 0.72146 0.0
C750 C 0.0299 0.38735 0.67077 0.0
C751 C 0.05501 0.37324 0.67354 0.0
C752 C 0.05792 0.35199 0.70046 0.0
C753 C 0.03559 0.3452 0.72433 0.0
C754 C 0.98542 0.27309 0.69804 0.0
C755 C 0.98354 0.29176 0.77369 0.0
C756 C 0.9866 0.30129 0.70656 0.0
N757 N 0.98519 0.31033 0.74399 0.0
C758 C 0.98194 0.26341 0.76624 0.0
C759 C 0.98261 0.2541 0.7281 0.0
C760 C 0.94648 0.34555 0.82462 0.0
C761 C 0.90093 0.43712 0.76976 0.0
C762 C 0.91504 0.40931 0.83692 0.0
C763 C 0.88762 0.41758 0.83112 0.0
C764 C 0.88058 0.43159 0.79729 0.0
N765 N 0.93491 0.41491 0.80986 0.0
C766 C 0.92814 0.42854 0.77655 0.0
Co767 Co 0.40302 0.22521 0.51228 0.0
Co768 Co 0.35037 0.22047 0.57695 0.0
O769 O 0.36407 0.21963 0.52396 0.0
C770 C 0.41291 0.17795 0.45911 0.0
O771 O 0.43165 0.16874 0.48349 0.0
C772 C 0.30939 0.25257 0.53018 0.0
O773 O 0.33014 0.26688 0.51592 0.0
O774 O 0.36513 0.25861 0.58264 0.0
O775 O 0.40733 0.25271 0.55605 0.0
H776 H 0.35567 0.24053 0.71942 0.0
H777 H 0.36059 0.23342 0.45113 0.0
O778 O 0.39841 0.19904 0.46784 0.0
H779 H 0.41277 0.32101 0.45683 0.0
H780 H 0.48533 0.22912 0.42309 0.0
H781 H 0.45455 0.22601 0.55899 0.0
H782 H 0.42487 0.28219 0.49985 0.0
H783 H 0.4357 0.23254 0.43934 0.0
O784 O 0.31387 0.23462 0.55652 0.0
H785 H 0.37359 0.23765 0.65279 0.0
H786 H 0.29591 0.20736 0.61337 0.0
H787 H 0.50438 0.22214 0.544 0.0
H788 H 0.34792 0.27158 0.40724 0.0
H789 H 0.51993 0.22283 0.47553 0.0
H790 H 0.37407 0.3158 0.40997 0.0
O791 O 0.41244 0.19413 0.54762 0.0
H792 H 0.30178 0.14314 0.50735 0.0
H793 H 0.35347 0.16925 0.62489 0.0
H794 H 0.33707 0.12127 0.61718 0.0
H795 H 0.31093 0.10797 0.55813 0.0
H796 H 0.31879 0.19082 0.51604 0.0
H797 H 0.27709 0.21008 0.67957 0.0
H798 H 0.30708 0.22669 0.73318 0.0
O799 O 0.3864 0.20564 0.59857 0.0
C800 C 0.39021 0.26631 0.57719 0.0
C801 C 0.34241 0.23321 0.69633 0.0
C802 C 0.2983 0.21617 0.67395 0.0
N803 N 0.33586 0.22227 0.62922 0.0
C804 C 0.35246 0.23148 0.65853 0.0
C805 C 0.30905 0.21475 0.6365 0.0
C806 C 0.31514 0.22547 0.70402 0.0
C807 C 0.37219 0.25253 0.45232 0.0
N808 N 0.39347 0.25558 0.47806 0.0
C809 C 0.36486 0.2741 0.42748 0.0
C810 C 0.37951 0.29891 0.42907 0.0
C811 C 0.40119 0.30187 0.45539 0.0
C812 C 0.40788 0.27987 0.47982 0.0
C813 C 0.47876 0.22845 0.453 0.0
C814 C 0.46121 0.22691 0.52919 0.0
C815 C 0.4507 0.23069 0.46242 0.0
N816 N 0.44217 0.22916 0.50009 0.0
C817 C 0.48944 0.22447 0.52086 0.0
C818 C 0.49816 0.22485 0.48245 0.0
C819 C 0.40693 0.19288 0.58356 0.0
C820 C 0.31307 0.1487 0.53326 0.0
C821 C 0.34219 0.16361 0.59905 0.0
C822 C 0.33291 0.13642 0.59488 0.0
C823 C 0.31824 0.12897 0.56175 0.0
N824 N 0.33692 0.18288 0.57107 0.0
C825 C 0.32269 0.17569 0.53841 0.0
Co826 Co 0.54173 0.65881 0.26188 0.0
Co827 Co 0.54734 0.60432 0.32382 0.0
O828 O 0.54705 0.61936 0.2711 0.0
C829 C 0.58209 0.63943 0.19955 0.0
O830 O 0.58181 0.6137 0.21153 0.0
C831 C 0.51433 0.56409 0.27669 0.0
O832 O 0.50007 0.58494 0.26274 0.0
O833 O 0.50922 0.61882 0.3322 0.0
O834 O 0.51452 0.66122 0.30644 0.0
H835 H 0.53098 0.60633 0.46742 0.0
H836 H 0.53026 0.61694 0.19992 0.0
O837 O 0.56815 0.65808 0.21694 0.0
H838 H 0.44597 0.67403 0.20833 0.0
H839 H 0.53884 0.74512 0.18065 0.0
H840 H 0.53944 0.7078 0.31336 0.0
H841 H 0.48581 0.68319 0.25099 0.0
H842 H 0.53631 0.69484 0.19191 0.0
O843 O 0.53259 0.56831 0.30274 0.0
H844 H 0.53217 0.62573 0.40154 0.0
H845 H 0.56142 0.54921 0.35719 0.0
H846 H 0.54219 0.75822 0.30338 0.0
H847 H 0.49118 0.60723 0.15641 0.0
H848 H 0.54261 0.77709 0.23657 0.0
H849 H 0.44855 0.63586 0.16037 0.0
O850 O 0.57351 0.66694 0.2965 0.0
H851 H 0.62266 0.55501 0.2507 0.0
H852 H 0.60009 0.60765 0.36869 0.0
H853 H 0.6479 0.59126 0.35846 0.0
H854 H 0.65944 0.56467 0.29915 0.0
H855 H 0.5752 0.57203 0.26188 0.0
H856 H 0.56039 0.52892 0.4226 0.0
H857 H 0.54514 0.55756 0.4783 0.0
O858 O 0.56258 0.63977 0.34638 0.0
C859 C 0.50146 0.64393 0.32793 0.0
C860 C 0.53768 0.59364 0.44339 0.0
C861 C 0.55415 0.55019 0.41823 0.0
N862 N 0.54686 0.58865 0.3755 0.0
C863 C 0.53844 0.60453 0.406 0.0
C864 C 0.5546 0.56177 0.38123 0.0
C865 C 0.54561 0.56627 0.44947 0.0
C866 C 0.51212 0.62983 0.20154 0.0
N867 N 0.51067 0.65099 0.22765 0.0
C868 C 0.48988 0.62407 0.17695 0.0
C869 C 0.46594 0.64009 0.17925 0.0
C870 C 0.46447 0.66147 0.20615 0.0
C871 C 0.4871 0.66656 0.23031 0.0
C872 C 0.53897 0.73709 0.20988 0.0
C873 C 0.53901 0.71588 0.28424 0.0
C874 C 0.53736 0.70865 0.21646 0.0
N875 N 0.53785 0.69834 0.25329 0.0
C876 C 0.54084 0.74444 0.27876 0.0
C877 C 0.54111 0.75503 0.24128 0.0
C878 C 0.57523 0.66058 0.33205 0.0
C879 C 0.61791 0.5666 0.27664 0.0
C880 C 0.60498 0.59633 0.34261 0.0
C881 C 0.63207 0.58699 0.33708 0.0
C882 C 0.63853 0.57205 0.30382 0.0
N883 N 0.58486 0.59098 0.31577 0.0
C884 C 0.59104 0.57628 0.28316 0.0
Co885 Co 0.10169 0.78678 0.0108 0.0
Co886 Co 0.15511 0.79351 0.07376 0.0
O887 O 0.14085 0.79275 0.02093 0.0
C888 C 0.11025 0.83648 0.95874 0.0
O889 O 0.11543 0.85313 0.98787 0.0
C890 C 0.19651 0.76088 0.02819 0.0
O891 O 0.176 0.7461 0.01423 0.0
O892 O 0.14093 0.75529 0.08181 0.0
O893 O 0.09835 0.76053 0.05619 0.0
H894 H 0.15157 0.77697 0.21721 0.0
H895 H 0.14346 0.77674 0.94939 0.0
O896 O 0.10467 0.81111 0.96442 0.0
H897 H 0.09047 0.68987 0.95997 0.0
H898 H 0.01783 0.78423 0.92481 0.0
H899 H 0.05119 0.78545 0.05961 0.0
H900 H 0.07923 0.72983 1.00139 0.0
H901 H 0.06767 0.77985 0.93918 0.0
O902 O 0.1917 0.77938 0.05363 0.0
H903 H 0.13298 0.77779 0.15082 0.0
H904 H 0.2096 0.80871 0.10853 0.0
H905 H 1.00114 0.78998 0.0465 0.0
H906 H 0.15538 0.73742 0.90709 0.0
H907 H 0.98435 0.79035 0.97856 0.0
H908 H 0.12881 0.69357 0.91227 0.0
O909 O 0.09251 0.81887 0.04448 0.0
H910 H 0.20119 0.86967 0.99862 0.0
H911 H 0.15173 0.84599 0.11895 0.0
H912 H 0.16694 0.89405 0.10802 0.0
H913 H 0.19193 0.90613 0.04754 0.0
H914 H 0.18543 0.82192 0.01058 0.0
H915 H 0.2291 0.80805 0.17447 0.0
H916 H 0.19998 0.79217 0.2294 0.0
O917 O 0.1191 0.80834 0.09528 0.0
C918 C 0.1158 0.74738 0.07734 0.0
C919 C 0.16446 0.78399 0.19354 0.0
C920 C 0.20798 0.80139 0.16954 0.0
N921 N 0.17014 0.79338 0.12582 0.0
C922 C 0.15402 0.78455 0.15587 0.0
C923 C 0.19685 0.80163 0.13224 0.0
C924 C 0.19162 0.79249 0.20035 0.0
C925 C 0.13177 0.75775 0.95174 0.0
N926 N 0.11072 0.7555 0.97799 0.0
C927 C 0.13863 0.73554 0.92775 0.0
C928 C 0.12374 0.71093 0.9307 0.0
C929 C 0.10226 0.70883 0.95748 0.0
C930 C 0.09604 0.73145 0.98102 0.0
C931 C 0.02498 0.78446 0.95449 0.0
C932 C 0.04395 0.78479 0.03005 0.0
C933 C 0.05316 0.78176 0.96284 0.0
N934 N 0.06239 0.78261 1.00022 0.0
C935 C 0.01561 0.78768 0.02279 0.0
C936 C 1.00618 0.78791 0.98469 0.0
C937 C 0.09832 0.8207 0.0803 0.0
C938 C 0.19041 0.86464 0.02516 0.0
C939 C 0.16256 0.85109 0.09253 0.0
C940 C 0.17115 0.87833 0.08653 0.0
C941 C 0.18518 0.88509 0.05259 0.0
N942 N 0.16788 0.83111 0.06557 0.0
C943 C 0.18152 0.83762 0.03215 0.0
Co944 Co 0.53821 0.85185 0.76264 0.0
Co945 Co 0.54303 0.90803 0.82139 0.0
O946 O 0.54322 0.89139 0.76981 0.0
C947 C 0.57926 0.87011 0.70076 0.0
O948 O 0.579 0.89589 0.71246 0.0
C949 C 0.50854 0.95851 0.80393 0.0
O950 O 0.49242 0.95283 0.83349 0.0
O951 O 0.50472 0.89386 0.82937 0.0
O952 O 0.51038 0.85067 0.80644 0.0
H953 H 0.52373 0.9117 0.96416 0.0
H954 H 0.52697 0.89253 0.69923 0.0
O955 O 0.56517 0.85161 0.71827 0.0
H956 H 0.44374 0.83374 0.70638 0.0
H957 H 0.53797 0.76303 0.68677 0.0
H958 H 0.53504 0.80454 0.81695 0.0
H959 H 0.48294 0.82612 0.75074 0.0
H960 H 0.53458 0.81358 0.69473 0.0
O961 O 0.52876 0.94259 0.79565 0.0
H962 H 0.52567 0.88996 0.89973 0.0
H963 H 0.55841 0.96384 0.85155 0.0
H964 H 0.5383 0.75388 0.81027 0.0
H965 H 0.48845 0.90075 0.6541 0.0
H966 H 0.54055 0.73291 0.7448 0.0
H967 H 0.4464 0.87121 0.65738 0.0
O968 O 0.56948 0.84512 0.79854 0.0
H969 H 0.61985 0.95489 0.74782 0.0
H970 H 0.59518 0.90554 0.86773 0.0
H971 H 0.64326 0.92118 0.85793 0.0
H972 H 0.65588 0.94612 0.79765 0.0
H973 H 0.57211 0.93859 0.75854 0.0
H974 H 0.55684 0.98641 0.9155 0.0
H975 H 0.53938 0.96029 0.97236 0.0
O976 O 0.55773 0.87332 0.84704 0.0
C977 C 0.49691 0.86868 0.82619 0.0
C978 C 0.53134 0.92332 0.9396 0.0
C979 C 0.54991 0.96524 0.91229 0.0
N980 N 0.54196 0.92565 0.87185 0.0
C981 C 0.53245 0.91112 0.90302 0.0
C982 C 0.5507 0.95237 0.87614 0.0
C983 C 0.54012 0.95058 0.94418 0.0
C984 C 0.50902 0.87934 0.70067 0.0
N985 N 0.50758 0.85845 0.72721 0.0
C986 C 0.48712 0.88421 0.67511 0.0
C987 C 0.46351 0.86768 0.67701 0.0
C988 C 0.46201 0.84667 0.70448 0.0
C989 C 0.48429 0.84244 0.72957 0.0
C990 C 0.53731 0.77198 0.71545 0.0
C991 C 0.53532 0.79553 0.78836 0.0
C992 C 0.53523 0.80059 0.72016 0.0
N993 N 0.53476 0.81207 0.7563 0.0
C994 C 0.53745 0.76684 0.78477 0.0
C995 C 0.53877 0.75507 0.74803 0.0
C996 C 0.57064 0.85225 0.83387 0.0
C997 C 0.61463 0.944 0.77418 0.0
C998 C 0.60052 0.91607 0.84119 0.0
C999 C 0.62778 0.92503 0.83592 0.0
C1000 C 0.63483 0.93906 0.80213 0.0
N1001 N 0.5808 0.92089 0.81357 0.0
C1002 C 0.58758 0.93474 0.78045 0.0
Co1003 Co 0.41319 0.28678 0.01267 0.0
Co1004 Co 0.36009 0.29347 0.07613 0.0
O1005 O 0.37402 0.2922 0.02315 0.0
C1006 C 0.40259 0.33557 0.96001 0.0
O1007 O 0.39629 0.35198 0.98897 0.0
C1008 C 0.31902 0.25967 0.03179 0.0
O1009 O 0.33968 0.24492 0.01821 0.0
O1010 O 0.37494 0.2556 0.08512 0.0
O1011 O 0.41719 0.26108 0.05856 0.0
H1012 H 0.36471 0.27895 0.21996 0.0
H1013 H 0.37106 0.27534 0.95218 0.0
O1014 O 0.40955 0.31058 0.96589 0.0
H1015 H 0.42591 0.18969 0.96327 0.0
H1016 H 0.49672 0.28509 0.92603 0.0
H1017 H 0.46391 0.28643 0.06106 0.0
H1018 H 0.43675 0.23026 0.00378 0.0
H1019 H 0.447 0.28006 0.9408 0.0
O1020 O 0.32365 0.27852 0.05679 0.0
H1021 H 0.38291 0.27916 0.15336 0.0
H1022 H 0.30558 0.30831 0.11108 0.0
H1023 H 0.51386 0.29145 0.04756 0.0
H1024 H 0.35953 0.23541 0.9108 0.0
H1025 H 0.53037 0.29174 0.97952 0.0
H1026 H 0.38704 0.19216 0.91624 0.0
O1027 O 0.42208 0.31942 0.04545 0.0
H1028 H 0.31229 0.3678 0.99949 0.0
H1029 H 0.36294 0.34663 0.11982 0.0
H1030 H 0.34689 0.39427 0.10776 0.0
H1031 H 0.3213 0.40509 0.04727 0.0
H1032 H 0.3289 0.3205 0.01254 0.0
H1033 H 0.28648 0.30825 0.17724 0.0
H1034 H 0.31615 0.29357 0.23226 0.0
O1035 O 0.39596 0.30914 0.09679 0.0
C1036 C 0.40013 0.248 0.08043 0.0
C1037 C 0.35159 0.28545 0.19625 0.0
C1038 C 0.30767 0.30185 0.17225 0.0
N1039 N 0.34537 0.29383 0.12835 0.0
C1040 C 0.3618 0.28566 0.15846 0.0
C1041 C 0.31858 0.30176 0.13484 0.0
C1042 C 0.32433 0.29362 0.20312 0.0
C1043 C 0.38315 0.25661 0.95468 0.0
N1044 N 0.40447 0.25502 0.98059 0.0
C1045 C 0.3765 0.23406 0.93119 0.0
C1046 C 0.39192 0.20979 0.93429 0.0
C1047 C 0.4137 0.20837 0.96071 0.0
C1048 C 0.41968 0.23133 0.98374 0.0
C1049 C 0.48969 0.28535 0.95576 0.0
C1050 C 0.47104 0.28571 0.03146 0.0
C1051 C 0.46158 0.28228 0.96434 0.0
N1052 N 0.4525 0.28316 1.00178 0.0
C1053 C 0.49931 0.28889 0.02397 0.0
C1054 C 0.50858 0.28909 0.98581 0.0
C1055 C 0.41644 0.32164 0.08125 0.0
C1056 C 0.32333 0.36332 0.02602 0.0
C1057 C 0.35185 0.35118 0.0934 0.0
C1058 C 0.34278 0.37819 0.08676 0.0
C1059 C 0.32842 0.38424 0.05282 0.0
N1060 N 0.34667 0.33074 0.06705 0.0
C1061 C 0.33271 0.33655 0.03364 0.0
Co1062 Co 0.96731 0.15982 0.26498 0.0
Co1063 Co 0.96246 0.10373 0.32377 0.0
O1064 O 0.96214 0.12032 0.27217 0.0
C1065 C 0.92657 0.14181 0.20236 0.0
O1066 O 0.92667 0.11597 0.21382 0.0
C1067 C 0.99675 0.05313 0.30597 0.0
O1068 O 0.01308 0.05882 0.33532 0.0
O1069 O 1.00087 0.11772 0.33154 0.0
O1070 O 0.9952 0.16093 0.30875 0.0
H1071 H 0.98234 0.09998 0.4664 0.0
H1072 H 0.97847 0.11894 0.20164 0.0
O1073 O 0.94038 0.16021 0.22052 0.0
H1074 H 0.06183 0.17752 0.20885 0.0
H1075 H 0.96661 0.24853 0.1891 0.0
H1076 H 0.97084 0.20711 0.31926 0.0
H1077 H 0.02262 0.18521 0.25319 0.0
H1078 H 0.97086 0.19806 0.19704 0.0
O1079 O 0.97648 0.06907 0.29795 0.0
H1080 H 0.98018 0.12174 0.40199 0.0
H1081 H 0.94701 0.04797 0.35403 0.0
H1082 H 0.96699 0.25773 0.3126 0.0
H1083 H 0.01694 0.11063 0.15654 0.0
H1084 H 0.96391 0.27861 0.24714 0.0
H1085 H 0.05907 0.14007 0.15983 0.0
O1086 O 0.93611 0.16667 0.30096 0.0
H1087 H 0.88513 0.05752 0.2504 0.0
H1088 H 0.91052 0.10628 0.37052 0.0
H1089 H 0.86233 0.09089 0.36095 0.0
H1090 H 0.84935 0.06624 0.30057 0.0
H1091 H 0.93299 0.07356 0.26092 0.0
H1092 H 0.9488 0.02538 0.41795 0.0
H1093 H 0.96659 0.05143 0.47469 0.0
O1094 O 0.94797 0.13855 0.3495 0.0
C1095 C 0.00873 0.14289 0.32836 0.0
C1096 C 0.97459 0.08839 0.44189 0.0
C1097 C 0.95577 0.04653 0.4147 0.0
N1098 N 0.96365 0.08611 0.37423 0.0
C1099 C 0.97335 0.1006 0.40533 0.0
C1100 C 0.95485 0.05941 0.37857 0.0
C1101 C 0.96575 0.06116 0.44652 0.0
C1102 C 0.99641 0.13213 0.20305 0.0
N1103 N 0.99788 0.15305 0.22953 0.0
C1104 C 0.0183 0.12718 0.17752 0.0
C1105 C 0.04195 0.14366 0.17942 0.0
C1106 C 0.04352 0.16466 0.2069 0.0
C1107 C 0.02123 0.16896 0.23194 0.0
C1108 C 0.96759 0.23961 0.21777 0.0
C1109 C 0.97035 0.21611 0.29067 0.0
C1110 C 0.97016 0.21104 0.22247 0.0
N1111 N 0.97089 0.19958 0.25862 0.0
C1112 C 0.96787 0.24477 0.28709 0.0
C1113 C 0.96611 0.25649 0.25036 0.0
C1114 C 0.93509 0.15966 0.33635 0.0
C1115 C 0.89051 0.06827 0.27682 0.0
C1116 C 0.90503 0.09586 0.34396 0.0
C1117 C 0.87771 0.08705 0.33881 0.0
C1118 C 0.87045 0.07319 0.30496 0.0
N1119 N 0.92461 0.09105 0.31616 0.0
C1120 C 0.91763 0.07738 0.28297 0.0
Co1121 Co 0.10035 0.72162 0.51064 0.0
Co1122 Co 0.1571 0.71488 0.56731 0.0
O1123 O 0.13989 0.71634 0.51638 0.0
C1124 C 0.10849 0.67274 0.45736 0.0
O1125 O 0.11681 0.65658 0.4856 0.0
C1126 C 0.2082 0.74875 0.55076 0.0
O1127 O 0.2027 0.76437 0.58089 0.0
O1128 O 0.14326 0.75306 0.5776 0.0
O1129 O 0.09939 0.74763 0.55644 0.0
H1130 H 0.16298 0.73107 0.71067 0.0
H1131 H 0.13944 0.73342 0.44649 0.0
O1132 O 0.10123 0.69757 0.46387 0.0
H1133 H 0.08295 0.81779 0.4605 0.0
H1134 H 0.01123 0.72128 0.43536 0.0
H1135 H 0.05316 0.72334 0.56538 0.0
H1136 H 0.07499 0.77744 0.50267 0.0
H1137 H 0.06174 0.72649 0.44317 0.0
O1138 O 0.19177 0.72915 0.54156 0.0
H1139 H 0.14037 0.73096 0.64671 0.0
H1140 H 0.21305 0.69764 0.59548 0.0
H1141 H 1.00247 0.71874 0.55887 0.0
H1142 H 0.14809 0.77317 0.40342 0.0
H1143 H 0.98135 0.7167 0.49342 0.0
H1144 H 0.11973 0.81575 0.41028 0.0
O1145 O 0.09375 0.68917 0.54464 0.0
H1146 H 0.19796 0.6393 0.48534 0.0
H1147 H 0.15624 0.66189 0.61163 0.0
H1148 H 0.1704 0.6139 0.59793 0.0
H1149 H 0.19152 0.60236 0.53444 0.0
H1150 H 0.18325 0.68695 0.50007 0.0
H1151 H 0.23647 0.6974 0.65891 0.0
H1152 H 0.21139 0.71421 0.71707 0.0
O1153 O 0.12253 0.69986 0.593 0.0
C1154 C 0.1179 0.76087 0.57572 0.0
C1155 C 0.17413 0.72371 0.68554 0.0
C1156 C 0.21538 0.70482 0.65649 0.0
N1157 N 0.17539 0.71439 0.61737 0.0
C1158 C 0.16144 0.72361 0.64923 0.0
C1159 C 0.20203 0.70504 0.62065 0.0
C1160 C 0.2013 0.71425 0.68911 0.0
C1161 C 0.12709 0.75192 0.44975 0.0
N1162 N 0.10684 0.75323 0.4773 0.0
C1163 C 0.13206 0.77434 0.42524 0.0
C1164 C 0.11614 0.79823 0.42911 0.0
C1165 C 0.09554 0.79941 0.4573 0.0
C1166 C 0.09119 0.77658 0.48127 0.0
C1167 C 0.02027 0.72181 0.46401 0.0
C1168 C 0.04403 0.72342 0.53684 0.0
C1169 C 0.04886 0.72492 0.46864 0.0
N1170 N 0.06046 0.72503 0.50473 0.0
C1171 C 0.01534 0.72046 0.53333 0.0
C1172 C 1.00349 0.71926 0.49662 0.0
C1173 C 0.10128 0.68723 0.57979 0.0
C1174 C 0.18891 0.6441 0.51319 0.0
C1175 C 0.16538 0.65704 0.58391 0.0
C1176 C 0.17339 0.62983 0.57634 0.0
C1177 C 0.18525 0.62337 0.54072 0.0
N1178 N 0.16918 0.67731 0.55684 0.0
C1179 C 0.18065 0.67108 0.52177 0.0
Co1180 Co 0.53548 0.15933 0.74279 0.0
Co1181 Co 0.5398 0.10542 0.67966 0.0
O1182 O 0.54044 0.11996 0.73264 0.0
C1183 C 0.57709 0.13922 0.80302 0.0
O1184 O 0.57649 0.11359 0.79068 0.0
C1185 C 0.50707 0.06521 0.72694 0.0
O1186 O 0.49315 0.08611 0.74142 0.0
O1187 O 0.50169 0.12028 0.67269 0.0
O1188 O 0.50754 0.16236 0.6992 0.0
H1189 H 0.52122 0.10892 0.53663 0.0
H1190 H 0.52504 0.11705 0.80447 0.0
O1191 O 0.56268 0.15801 0.78672 0.0
H1192 H 0.44064 0.1742 0.79956 0.0
H1193 H 0.53423 0.24474 0.82591 0.0
H1194 H 0.53295 0.20887 0.69242 0.0
H1195 H 0.47978 0.18371 0.75582 0.0
H1196 H 0.53118 0.1946 0.81363 0.0
O1197 O 0.52504 0.06941 0.70053 0.0
H1198 H 0.52357 0.12769 0.60282 0.0
H1199 H 0.55289 0.05052 0.64489 0.0
H1200 H 0.53636 0.25915 0.70343 0.0
H1201 H 0.48666 0.10698 0.84902 0.0
H1202 H 0.53767 0.27729 0.77061 0.0
H1203 H 0.44399 0.13565 0.84682 0.0
O1204 O 0.56671 0.16762 0.7074 0.0
H1205 H 0.61577 0.05473 0.74964 0.0
H1206 H 0.59189 0.10873 0.63335 0.0
H1207 H 0.63969 0.09184 0.6419 0.0
H1208 H 0.65189 0.06457 0.70035 0.0
H1209 H 0.56831 0.07228 0.74016 0.0
H1210 H 0.5507 0.03087 0.57915 0.0
H1211 H 0.53484 0.06017 0.52443 0.0
O1212 O 0.55503 0.14093 0.65732 0.0
C1213 C 0.49408 0.14535 0.67777 0.0
C1214 C 0.5282 0.09596 0.56022 0.0
C1215 C 0.5447 0.05214 0.58409 0.0
N1216 N 0.53838 0.09025 0.62773 0.0
C1217 C 0.52961 0.10648 0.59779 0.0
C1218 C 0.54581 0.06336 0.62129 0.0
C1219 C 0.53582 0.0686 0.5534 0.0
C1220 C 0.50687 0.12994 0.8036 0.0
N1221 N 0.50499 0.1513 0.77787 0.0
C1222 C 0.48503 0.12399 0.82879 0.0
C1223 C 0.46106 0.14002 0.82747 0.0
C1224 C 0.45917 0.16163 0.80096 0.0
C1225 C 0.4814 0.1669 0.77619 0.0
C1226 C 0.53395 0.23704 0.79652 0.0
C1227 C 0.53294 0.21664 0.72172 0.0
C1228 C 0.53202 0.20868 0.78936 0.0
N1229 N 0.53198 0.19877 0.75231 0.0
C1230 C 0.53513 0.24512 0.72777 0.0
C1231 C 0.53591 0.2553 0.76546 0.0
C1232 C 0.56803 0.16148 0.67176 0.0
C1233 C 0.61072 0.06663 0.72407 0.0
C1234 C 0.59707 0.09712 0.65907 0.0
C1235 C 0.62416 0.08749 0.66365 0.0
C1236 C 0.63098 0.07216 0.69642 0.0
N1237 N 0.57731 0.09168 0.68637 0.0
C1238 C 0.58385 0.0766 0.71851 0.0
Co1239 Co 0.10421 0.28967 0.99285 0.0
Co1240 Co 0.16123 0.29308 0.93546 0.0
O1241 O 0.14394 0.29461 0.9866 0.0
C1242 C 0.12146 0.33178 0.05384 0.0
O1243 O 0.14758 0.33119 0.04341 0.0
C1244 C 0.21171 0.25941 0.95556 0.0
O1245 O 0.206 0.24246 0.92696 0.0
O1246 O 0.14739 0.25458 0.92947 0.0
O1247 O 0.10369 0.26076 0.95049 0.0
H1248 H 0.16667 0.26931 0.79415 0.0
H1249 H 0.14425 0.27988 0.05777 0.0
O1250 O 0.10326 0.31761 0.03584 0.0
H1251 H 0.08508 0.19694 0.05315 0.0
H1252 H 0.01409 0.29243 0.0659 0.0
H1253 H 0.05763 0.28494 0.93734 0.0
H1254 H 0.07819 0.23494 0.00672 0.0
H1255 H 0.0648 0.28798 0.05974 0.0
O1256 O 0.19574 0.27982 0.96263 0.0
H1257 H 0.1442 0.27298 0.85797 0.0
H1258 H 0.21733 0.30813 0.90553 0.0
H1259 H 0.00681 0.289 0.94224 0.0
H1260 H 0.15174 0.24261 0.10494 0.0
H1261 H 0.98483 0.29364 0.00684 0.0
H1262 H 0.12201 0.2007 0.10297 0.0
O1263 O 0.09796 0.31994 0.95532 0.0
H1264 H 0.20642 0.37212 0.00615 0.0
H1265 H 0.15917 0.34371 0.88609 0.0
H1266 H 0.17432 0.39205 0.89375 0.0
H1267 H 0.19821 0.40655 0.95409 0.0
H1268 H 0.19063 0.32408 0.99752 0.0
H1269 H 0.24062 0.30484 0.84219 0.0
H1270 H 0.21525 0.2853 0.78595 0.0
O1271 O 0.12666 0.30682 0.90812 0.0
C1272 C 0.12216 0.2467 0.93244 0.0
C1273 C 0.17796 0.27783 0.81844 0.0
C1274 C 0.21946 0.29777 0.84541 0.0
N1275 N 0.17945 0.29065 0.88549 0.0
C1276 C 0.16534 0.27995 0.85467 0.0
C1277 C 0.20618 0.29955 0.8812 0.0
C1278 C 0.20521 0.28681 0.81386 0.0
C1279 C 0.13094 0.26203 0.05689 0.0
N1280 N 0.11032 0.26002 0.02994 0.0
C1281 C 0.13542 0.24082 0.08361 0.0
C1282 C 0.11877 0.21729 0.08244 0.0
C1283 C 0.09806 0.21517 0.05452 0.0
C1284 C 0.09423 0.23678 0.02828 0.0
C1285 C 0.02348 0.29074 0.03757 0.0
C1286 C 0.04817 0.28615 0.9656 0.0
C1287 C 0.05218 0.28805 0.03389 0.0
N1288 N 0.06424 0.28637 0.99817 0.0
C1289 C 0.01939 0.28876 0.96817 0.0
C1290 C 0.00706 0.29142 0.00442 0.0
C1291 C 0.10548 0.32016 0.92013 0.0
C1292 C 0.196 0.36607 0.97974 0.0
C1293 C 0.16926 0.34987 0.91264 0.0
C1294 C 0.17794 0.37727 0.9167 0.0
C1295 C 0.19137 0.38538 0.95054 0.0
N1296 N 0.17378 0.33104 0.94148 0.0
C1297 C 0.18703 0.33885 0.97465 0.0
Co1298 Co 0.97094 0.85175 0.24217 0.0
Co1299 Co 0.96581 0.90645 0.18057 0.0
O1300 O 0.96597 0.89128 0.23324 0.0
C1301 C 0.9308 0.87139 0.30454 0.0
O1302 O 0.93137 0.89711 0.29256 0.0
C1303 C 0.99852 0.94664 0.22817 0.0
O1304 O 0.01276 0.92582 0.24226 0.0
O1305 O 1.00393 0.89194 0.17249 0.0
O1306 O 0.99827 0.84939 0.1977 0.0
H1307 H 0.98275 0.90478 0.03709 0.0
H1308 H 0.9829 0.89343 0.30419 0.0
O1309 O 0.94447 0.85257 0.28707 0.0
H1310 H 0.06626 0.83495 0.29636 0.0
H1311 H 0.9722 0.76483 0.32228 0.0
H1312 H 0.97328 0.8031 0.19011 0.0
H1313 H 0.02643 0.82641 0.25345 0.0
H1314 H 0.97544 0.81516 0.31179 0.0
O1315 O 0.98044 0.9424 0.2019 0.0
H1316 H 0.9813 0.88522 0.10287 0.0
H1317 H 0.95183 0.96163 0.14733 0.0
H1318 H 0.96998 0.75265 0.19933 0.0
H1319 H 0.02199 0.90251 0.34794 0.0
H1320 H 0.96873 0.73327 0.26582 0.0
H1321 H 0.06416 0.87317 0.34427 0.0
O1322 O 0.93914 0.84408 0.20743 0.0
H1323 H 0.89019 0.95562 0.2533 0.0
H1324 H 0.91322 0.90323 0.13528 0.0
H1325 H 0.86538 0.91958 0.14522 0.0
H1326 H 0.8536 0.94604 0.20455 0.0
H1327 H 0.93769 0.93863 0.24241 0.0
H1328 H 0.95311 0.98207 0.08201 0.0
H1329 H 0.9686 0.95355 0.02631 0.0
O1330 O 0.95067 0.87108 0.15769 0.0
C1331 C 0.01155 0.86678 0.17659 0.0
C1332 C 0.97594 0.91741 0.06112 0.0
C1333 C 0.95935 0.96079 0.08634 0.0
N1334 N 0.96649 0.92224 0.12896 0.0
C1335 C 0.97504 0.90643 0.09846 0.0
C1336 C 0.95875 0.94913 0.12329 0.0
C1337 C 0.96802 0.94478 0.0551 0.0
C1338 C 1.00083 0.88025 0.30267 0.0
N1339 N 1.00202 0.85907 0.27658 0.0
C1340 C 0.02309 0.88565 0.32741 0.0
C1341 C 0.04676 0.86924 0.32527 0.0
C1342 C 0.04796 0.84782 0.2984 0.0
C1343 C 0.02533 0.8431 0.27409 0.0
C1344 C 0.97243 0.77307 0.29317 0.0
C1345 C 0.97336 0.79481 0.21913 0.0
C1346 C 0.97444 0.80155 0.28702 0.0
N1347 N 0.9744 0.81212 0.25034 0.0
C1348 C 0.97121 0.76623 0.22416 0.0
C1349 C 0.97044 0.75536 0.26148 0.0
C1350 C 0.93773 0.85041 0.17186 0.0
C1351 C 0.89505 0.94407 0.22736 0.0
C1352 C 0.90824 0.91448 0.16137 0.0
C1353 C 0.88112 0.92381 0.16674 0.0
C1354 C 0.87453 0.93868 0.20001 0.0
N1355 N 0.92825 0.91977 0.18839 0.0
C1356 C 0.92194 0.93442 0.22101 0.0
Co1357 Co 0.41149 0.72383 0.49483 0.0
Co1358 Co 0.35827 0.71729 0.43156 0.0
O1359 O 0.37241 0.71765 0.48443 0.0
C1360 C 0.40355 0.67358 0.54605 0.0
O1361 O 0.39913 0.65699 0.51661 0.0
C1362 C 0.31659 0.74942 0.47729 0.0
O1363 O 0.337 0.76426 0.49145 0.0
O1364 O 0.37222 0.75566 0.42435 0.0
O1365 O 0.41482 0.75044 0.44986 0.0
H1366 H 0.3621 0.73533 0.28848 0.0
H1367 H 0.36956 0.73308 0.55628 0.0
O1368 O 0.40853 0.69912 0.54082 0.0
H1369 H 0.42171 0.82053 0.54686 0.0
H1370 H 0.49497 0.72675 0.58151 0.0
H1371 H 0.4622 0.72555 0.44642 0.0
H1372 H 0.43336 0.78095 0.50493 0.0
H1373 H 0.44515 0.73075 0.56674 0.0
O1374 O 0.32155 0.73103 0.45176 0.0
H1375 H 0.38051 0.73396 0.35496 0.0
H1376 H 0.30397 0.7021 0.39619 0.0
H1377 H 0.51222 0.72123 0.45995 0.0
H1378 H 0.35724 0.772 0.59905 0.0
H1379 H 0.52872 0.72089 0.52803 0.0
H1380 H 0.38339 0.81614 0.59447 0.0
O1381 O 0.42098 0.69206 0.46069 0.0
H1382 H 0.31244 0.64018 0.50505 0.0
H1383 H 0.36203 0.66526 0.38538 0.0
H1384 H 0.34705 0.61703 0.39535 0.0
H1385 H 0.322 0.60424 0.4555 0.0
H1386 H 0.32797 0.68812 0.49405 0.0
H1387 H 0.28466 0.70329 0.33015 0.0
H1388 H 0.31383 0.71992 0.27571 0.0
O1389 O 0.39441 0.70282 0.40995 0.0
C1390 C 0.39727 0.76373 0.42904 0.0
C1391 C 0.3492 0.72798 0.31194 0.0
C1392 C 0.30573 0.71004 0.33534 0.0
N1393 N 0.34338 0.71785 0.37943 0.0
C1394 C 0.35953 0.7271 0.34966 0.0
C1395 C 0.31675 0.70949 0.37269 0.0
C1396 C 0.32211 0.71936 0.3048 0.0
C1397 C 0.38109 0.75219 0.55419 0.0
N1398 N 0.40214 0.75481 0.52803 0.0
C1399 C 0.37398 0.77418 0.57845 0.0
C1400 C 0.38864 0.79895 0.57583 0.0
C1401 C 0.41011 0.80143 0.5491 0.0
C1402 C 0.41657 0.77902 0.5253 0.0
C1403 C 0.48795 0.72651 0.55177 0.0
C1404 C 0.46931 0.72617 0.47604 0.0
C1405 C 0.45978 0.72902 0.54319 0.0
N1406 N 0.45072 0.72819 0.50573 0.0
C1407 C 0.49763 0.72342 0.48354 0.0
C1408 C 0.5069 0.72321 0.52172 0.0
C1409 C 0.4152 0.6904 0.42484 0.0
C1410 C 0.32325 0.64551 0.47866 0.0
C1411 C 0.35117 0.65986 0.41166 0.0
C1412 C 0.34271 0.63252 0.41712 0.0
C1413 C 0.32865 0.62535 0.45087 0.0
N1414 N 0.34568 0.67955 0.43898 0.0
C1415 C 0.33201 0.67265 0.47221 0.0
Co1416 Co 0.48109 0.15566 0.24299 0.0
Co1417 Co 0.4746 0.10348 0.17796 0.0
O1418 O 0.47526 0.1169 0.23108 0.0
C1419 C 0.43417 0.16415 0.29757 0.0
O1420 O 0.42423 0.18291 0.27385 0.0
C1421 C 0.5079 0.06252 0.22285 0.0
O1422 O 0.52265 0.08317 0.23642 0.0
O1423 O 0.51262 0.11832 0.17021 0.0
O1424 O 0.50757 0.16019 0.19795 0.0
H1425 H 0.49025 0.1094 0.03443 0.0
H1426 H 0.49084 0.11295 0.30316 0.0
O1427 O 0.45588 0.15068 0.28849 0.0
H1428 H 0.57835 0.16525 0.29415 0.0
H1429 H 0.48776 0.23736 0.3328 0.0
H1430 H 0.4813 0.20729 0.19682 0.0
H1431 H 0.53841 0.17755 0.25311 0.0
H1432 H 0.48955 0.18781 0.31605 0.0
O1433 O 0.48934 0.06703 0.1973 0.0
H1434 H 0.48934 0.12702 0.10131 0.0
H1435 H 0.46059 0.04924 0.1419 0.0
H1436 H 0.47888 0.25702 0.21234 0.0
H1437 H 0.53014 0.1001 0.34508 0.0
H1438 H 0.48145 0.27226 0.28084 0.0
H1439 H 0.57432 0.12631 0.34068 0.0
O1440 O 0.44913 0.16533 0.20924 0.0
H1441 H 0.39914 0.0546 0.25128 0.0
H1442 H 0.42194 0.10677 0.13294 0.0
H1443 H 0.37412 0.0903 0.14307 0.0
H1444 H 0.36248 0.06391 0.20253 0.0
H1445 H 0.44663 0.07168 0.24018 0.0
H1446 H 0.46137 0.03071 0.07545 0.0
H1447 H 0.4762 0.0609 0.02114 0.0
O1448 O 0.4592 0.13948 0.15756 0.0
C1449 C 0.52043 0.14334 0.17553 0.0
C1450 C 0.48371 0.09605 0.05784 0.0
C1451 C 0.46754 0.05188 0.08087 0.0
N1452 N 0.47488 0.08921 0.1255 0.0
C1453 C 0.4831 0.10593 0.09578 0.0
C1454 C 0.46724 0.06246 0.11846 0.0
C1455 C 0.47585 0.06883 0.05041 0.0
C1456 C 0.50993 0.12457 0.30124 0.0
N1457 N 0.51233 0.14597 0.27566 0.0
C1458 C 0.53215 0.11714 0.32497 0.0
C1459 C 0.55694 0.13182 0.32244 0.0
C1460 C 0.55923 0.15364 0.29631 0.0
C1461 C 0.53659 0.16043 0.27299 0.0
C1462 C 0.48633 0.23093 0.30287 0.0
C1463 C 0.48289 0.21379 0.22664 0.0
C1464 C 0.4876 0.20292 0.29317 0.0
N1465 N 0.48532 0.19463 0.25549 0.0
C1466 C 0.4813 0.24196 0.23527 0.0
C1467 C 0.48272 0.25051 0.27371 0.0
C1468 C 0.44699 0.16 0.17334 0.0
C1469 C 0.40397 0.066 0.2252 0.0
C1470 C 0.41703 0.09538 0.15895 0.0
C1471 C 0.38992 0.08606 0.16449 0.0
C1472 C 0.38341 0.07125 0.19785 0.0
N1473 N 0.43713 0.09001 0.1858 0.0
C1474 C 0.43086 0.07565 0.21869 0.0
Co1475 Co 0.60156 0.72539 0.99537 0.0
Co1476 Co 0.65472 0.71883 0.93201 0.0
O1477 O 0.64063 0.71924 0.9849 0.0
C1478 C 0.60993 0.67513 0.04629 0.0
O1479 O 0.61489 0.65882 0.01672 0.0
C1480 C 0.69632 0.75117 0.97756 0.0
O1481 O 0.67587 0.76594 0.9917 0.0
O1482 O 0.64073 0.75715 0.92467 0.0
O1483 O 0.5982 0.75202 0.95042 0.0
H1484 H 0.65077 0.73653 0.78884 0.0
H1485 H 0.64352 0.73459 0.05683 0.0
O1486 O 0.60453 0.70061 0.04129 0.0
H1487 H 0.59146 0.82207 0.04748 0.0
H1488 H 0.51818 0.72826 0.08214 0.0
H1489 H 0.5508 0.7271 0.94701 0.0
H1490 H 0.57974 0.78252 0.00552 0.0
H1491 H 0.56798 0.73229 0.06731 0.0
O1492 O 0.69139 0.73269 0.95212 0.0
H1493 H 0.6324 0.73527 0.85533 0.0
H1494 H 0.70902 0.70369 0.89669 0.0
H1495 H 0.50079 0.72273 0.9606 0.0
H1496 H 0.65591 0.77349 0.09963 0.0
H1497 H 0.48437 0.72237 0.0287 0.0
H1498 H 0.6298 0.81765 0.09508 0.0
O1499 O 0.59202 0.69365 0.96123 0.0
H1500 H 0.70076 0.64194 0.0057 0.0
H1501 H 0.65094 0.66671 0.88604 0.0
H1502 H 0.66599 0.61852 0.89616 0.0
H1503 H 0.69116 0.60589 0.95631 0.0
H1504 H 0.68516 0.68983 0.99455 0.0
H1505 H 0.72829 0.70479 0.83064 0.0
H1506 H 0.69906 0.72122 0.77614 0.0
O1507 O 0.61859 0.7043 0.91046 0.0
C1508 C 0.6157 0.76522 0.92941 0.0
C1509 C 0.6637 0.72927 0.81233 0.0
C1510 C 0.70722 0.7115 0.83581 0.0
N1511 N 0.66957 0.71932 0.87987 0.0
C1512 C 0.65339 0.72846 0.85005 0.0
C1513 C 0.69622 0.711 0.87317 0.0
C1514 C 0.6908 0.72071 0.80523 0.0
C1515 C 0.63201 0.75371 0.05476 0.0
N1516 N 0.61095 0.75635 0.02859 0.0
C1517 C 0.63915 0.77568 0.07903 0.0
C1518 C 0.62452 0.80046 0.07643 0.0
C1519 C 0.60304 0.80297 0.04971 0.0
C1520 C 0.59654 0.78057 0.02588 0.0
C1521 C 0.52516 0.72803 0.05239 0.0
C1522 C 0.54372 0.72771 0.97664 0.0
C1523 C 0.55332 0.73056 0.04378 0.0
N1524 N 0.56234 0.72974 0.00631 0.0
C1525 C 0.51541 0.72493 0.98417 0.0
C1526 C 0.50619 0.72471 0.02236 0.0
C1527 C 0.59778 0.69196 0.92539 0.0
C1528 C 0.6899 0.64721 0.97931 0.0
C1529 C 0.66185 0.66137 0.91232 0.0
C1530 C 0.67035 0.63406 0.91786 0.0
C1531 C 0.68448 0.62698 0.95161 0.0
N1532 N 0.66736 0.68112 0.93955 0.0
C1533 C 0.68109 0.67432 0.97278 0.0
Co1534 Co 0.0425 0.85102 0.74215 0.0
Co1535 Co 0.04803 0.9056 0.68038 0.0
O1536 O 0.04782 0.89048 0.73304 0.0
C1537 C 0.08289 0.87047 0.80442 0.0
O1538 O 0.08267 0.89612 0.79214 0.0
C1539 C 0.01533 0.94581 0.72787 0.0
O1540 O 1.001 0.92496 0.74171 0.0
O1541 O 0.00985 0.89121 0.67219 0.0
O1542 O 0.0152 0.84871 0.69764 0.0
H1543 H 0.0312 0.90388 0.53686 0.0
H1544 H 0.03108 0.89281 0.80422 0.0
O1545 O 0.06897 0.85173 0.78711 0.0
H1546 H 0.94688 0.83553 0.79595 0.0
H1547 H 0.03998 0.76449 0.82296 0.0
H1548 H 0.04 0.80217 0.69045 0.0
H1549 H 0.98664 0.8265 0.75314 0.0
H1550 H 0.03733 0.8148 0.81199 0.0
O1551 O 0.03348 0.94161 0.70169 0.0
H1552 H 0.03255 0.88435 0.60266 0.0
H1553 H 0.06218 0.96072 0.64713 0.0
H1554 H 0.04283 0.75173 0.70015 0.0
H1555 H 0.99208 0.90238 0.84787 0.0
H1556 H 0.04353 0.73267 0.76684 0.0
H1557 H 0.94949 0.87364 0.84399 0.0
O1558 O 0.07423 0.84298 0.70742 0.0
H1559 H 0.12378 0.95467 0.7531 0.0
H1560 H 0.10063 0.90212 0.63523 0.0
H1561 H 0.14852 0.91835 0.64521 0.0
H1562 H 0.16036 0.9449 0.70447 0.0
H1563 H 0.07622 0.9378 0.74218 0.0
H1564 H 0.061 0.98113 0.58179 0.0
H1565 H 0.04548 0.95263 0.52607 0.0
O1566 O 0.06307 0.87011 0.6576 0.0
C1567 C 1.00207 0.8661 0.67635 0.0
C1568 C 0.03802 0.91651 0.56089 0.0
C1569 C 0.0547 0.95988 0.58612 0.0
N1570 N 0.04743 0.92135 0.62875 0.0
C1571 C 0.03887 0.90555 0.59825 0.0
C1572 C 0.05524 0.94822 0.62308 0.0
C1573 C 0.04602 0.94387 0.55487 0.0
C1574 C 0.01296 0.87988 0.80262 0.0
N1575 N 0.0115 0.85874 0.77648 0.0
C1576 C 0.99076 0.88556 0.8273 0.0
C1577 C 0.96685 0.86949 0.82504 0.0
C1578 C 0.96536 0.84813 0.79809 0.0
C1579 C 0.98795 0.84312 0.77385 0.0
C1580 C 0.03999 0.77259 0.79378 0.0
C1581 C 0.0397 0.79401 0.71953 0.0
C1582 C 0.03831 0.80106 0.78736 0.0
N1583 N 0.03866 0.81147 0.75058 0.0
C1584 C 0.04157 0.76543 0.72485 0.0
C1585 C 0.04201 0.75474 0.76227 0.0
C1586 C 0.07575 0.84928 0.67183 0.0
C1587 C 0.11889 0.94309 0.72719 0.0
C1588 C 0.10564 0.9134 0.66129 0.0
C1589 C 0.13279 0.92267 0.66668 0.0
C1590 C 0.13941 0.93759 0.69991 0.0
N1591 N 0.08563 0.91881 0.68825 0.0
C1592 C 0.09197 0.9335 0.72082 0.0
Co1593 Co 0.90679 0.28963 0.49411 0.0
Co1594 Co 0.85212 0.2944 0.43221 0.0
O1595 O 0.86731 0.29546 0.48484 0.0
C1596 C 0.8888 0.33198 0.55477 0.0
O1597 O 0.86274 0.33194 0.54394 0.0
C1598 C 0.81144 0.26266 0.4803 0.0
O1599 O 0.83222 0.2485 0.49476 0.0
O1600 O 0.86598 0.25595 0.42614 0.0
O1601 O 0.90867 0.26118 0.45117 0.0
H1602 H 0.85359 0.27332 0.28984 0.0
H1603 H 0.86485 0.28083 0.55695 0.0
O1604 O 0.9068 0.31722 0.53741 0.0
H1605 H 0.92005 0.19527 0.55241 0.0
H1606 H 0.99308 0.28874 0.57551 0.0
H1607 H 0.95584 0.28557 0.44274 0.0
H1608 H 0.92987 0.23363 0.5076 0.0
H1609 H 0.94276 0.28521 0.56425 0.0
O1610 O 0.81589 0.28072 0.45412 0.0
H1611 H 0.87314 0.27626 0.35558 0.0
H1612 H 0.79709 0.3084 0.39808 0.0
H1613 H 1.00634 0.28926 0.45273 0.0
H1614 H 0.85444 0.24328 0.60254 0.0
H1615 H 0.0251 0.29177 0.51956 0.0
H1616 H 0.88213 0.20001 0.60056 0.0
O1617 O 0.9154 0.32018 0.45776 0.0
H1618 H 0.8044 0.37232 0.50165 0.0
H1619 H 0.85583 0.3456 0.38424 0.0
H1620 H 0.84019 0.3938 0.39202 0.0
H1621 H 0.81422 0.40743 0.45103 0.0
H1622 H 0.82066 0.32441 0.49287 0.0
H1623 H 0.77665 0.30564 0.3328 0.0
H1624 H 0.80499 0.28807 0.2781 0.0
O1625 O 0.8878 0.30853 0.40859 0.0
C1626 C 0.89093 0.24774 0.4309 0.0
C1627 C 0.84104 0.28106 0.31342 0.0
C1628 C 0.79785 0.29916 0.33755 0.0
N1629 N 0.83632 0.29256 0.38065 0.0
C1630 C 0.85202 0.28282 0.35072 0.0
C1631 C 0.80952 0.30059 0.37448 0.0
C1632 C 0.81377 0.28931 0.30686 0.0
C1633 C 0.87736 0.26243 0.5562 0.0
N1634 N 0.89842 0.25981 0.53006 0.0
C1635 C 0.87119 0.24104 0.58197 0.0
C1636 C 0.88668 0.21675 0.58077 0.0
C1637 C 0.90793 0.21407 0.55378 0.0
C1638 C 0.91343 0.23588 0.52844 0.0
C1639 C 0.98508 0.28799 0.54627 0.0
C1640 C 0.96393 0.28589 0.47189 0.0
C1641 C 0.95662 0.28577 0.53969 0.0
N1642 N 0.94633 0.28534 0.50283 0.0
C1643 C 0.99252 0.28828 0.47735 0.0
C1644 C 1.00306 0.28969 0.51483 0.0
C1645 C 0.90883 0.32126 0.42223 0.0
C1646 C 0.81571 0.36664 0.47581 0.0
C1647 C 0.84475 0.35139 0.41016 0.0
C1648 C 0.83584 0.37871 0.41432 0.0
C1649 C 0.82124 0.38633 0.44742 0.0
N1650 N 0.83929 0.3322 0.43818 0.0
C1651 C 0.82495 0.33953 0.47065 0.0
Co1652 Co 0.47425 0.85081 0.26264 0.0
Co1653 Co 0.46989 0.90695 0.32146 0.0
O1654 O 0.46934 0.89033 0.26994 0.0
C1655 C 0.43283 0.86936 0.20148 0.0
O1656 O 0.43305 0.89501 0.21369 0.0
C1657 C 0.50484 0.95697 0.3028 0.0
O1658 O 0.52139 0.95118 0.33188 0.0
O1659 O 0.50816 0.89264 0.32909 0.0
O1660 O 0.50222 0.84946 0.30627 0.0
H1661 H 0.48984 0.91059 0.46408 0.0
H1662 H 0.48515 0.8914 0.19902 0.0
O1663 O 0.44712 0.85075 0.21846 0.0
H1664 H 0.56859 0.83292 0.20596 0.0
H1665 H 0.47441 0.76219 0.18632 0.0
H1666 H 0.47741 0.80336 0.31671 0.0
H1667 H 0.52955 0.82527 0.25059 0.0
H1668 H 0.47768 0.81273 0.19454 0.0
O1669 O 0.48418 0.94139 0.29543 0.0
H1670 H 0.48735 0.88877 0.39973 0.0
H1671 H 0.45534 0.96296 0.35154 0.0
H1672 H 0.47421 0.75271 0.30977 0.0
H1673 H 0.52349 0.89966 0.15364 0.0
H1674 H 0.47196 0.7319 0.24419 0.0
H1675 H 0.56565 0.87028 0.1568 0.0
O1676 O 0.44313 0.8441 0.29874 0.0
H1677 H 0.39285 0.95435 0.24893 0.0
H1678 H 0.41804 0.90466 0.36838 0.0
H1679 H 0.36999 0.92056 0.3592 0.0
H1680 H 0.35711 0.94567 0.29917 0.0
H1681 H 0.44056 0.93778 0.25901 0.0
H1682 H 0.45749 0.98562 0.4154 0.0
H1683 H 0.47485 0.95938 0.47222 0.0
O1684 O 0.45512 0.87226 0.34723 0.0
C1685 C 0.51583 0.86742 0.32595 0.0
C1686 C 0.48227 0.92226 0.43953 0.0
C1687 C 0.46413 0.96437 0.41221 0.0
N1688 N 0.47137 0.92461 0.37186 0.0
C1689 C 0.48084 0.91001 0.403 0.0
C1690 C 0.46301 0.95144 0.37612 0.0
C1691 C 0.47386 0.94963 0.44408 0.0
C1692 C 0.50315 0.87827 0.20042 0.0
N1693 N 0.50474 0.85745 0.22703 0.0
C1694 C 0.52494 0.88317 0.17472 0.0
C1695 C 0.54861 0.86672 0.17655 0.0
C1696 C 0.55028 0.84578 0.20411 0.0
C1697 C 0.52809 0.84153 0.22933 0.0
C1698 C 0.47509 0.77106 0.21504 0.0
C1699 C 0.4771 0.79443 0.28807 0.0
C1700 C 0.47709 0.79966 0.21989 0.0
N1701 N 0.47761 0.81104 0.2561 0.0
C1702 C 0.47501 0.76574 0.28433 0.0
C1703 C 0.4737 0.75406 0.24753 0.0
C1704 C 0.4421 0.85122 0.33408 0.0
C1705 C 0.39819 0.94338 0.27519 0.0
C1706 C 0.41258 0.91525 0.34193 0.0
C1707 C 0.38534 0.92436 0.33702 0.0
C1708 C 0.37814 0.93848 0.30336 0.0
N1709 N 0.43214 0.91999 0.31407 0.0
C1710 C 0.42522 0.93396 0.2811 0.0
Co1711 Co 0.91239 0.72331 0.01033 0.0
Co1712 Co 0.85572 0.71663 0.0671 0.0
O1713 O 0.87284 0.71813 0.01611 0.0
C1714 C 0.9037 0.67473 0.95677 0.0
O1715 O 0.89497 0.65865 0.98485 0.0
C1716 C 0.80473 0.75063 0.05078 0.0
O1717 O 0.81029 0.76617 0.08098 0.0
O1718 O 0.86966 0.75475 0.07741 0.0
O1719 O 0.91349 0.7492 0.05622 0.0
H1720 H 0.85013 0.73263 0.21051 0.0
H1721 H 0.87324 0.73539 0.94632 0.0
O1722 O 0.91139 0.6994 0.96348 0.0
H1723 H 0.93014 0.8195 0.96049 0.0
H1724 H 1.0014 0.7226 0.93494 0.0
H1725 H 0.95965 0.72472 0.06503 0.0
H1726 H 0.93799 0.77905 0.0025 0.0
H1727 H 0.95095 0.72822 0.94284 0.0
O1728 O 0.82108 0.731 0.04148 0.0
H1729 H 0.87262 0.73259 0.14649 0.0
H1730 H 0.79979 0.69944 0.09535 0.0
H1731 H 0.01028 0.71969 0.05842 0.0
H1732 H 0.86469 0.77525 0.90342 0.0
H1733 H 0.0313 0.7176 0.99294 0.0
H1734 H 0.89327 0.81771 0.91036 0.0
O1735 O 0.91889 0.69079 0.0442 0.0
H1736 H 0.81446 0.64124 0.98509 0.0
H1737 H 0.85657 0.66357 0.11127 0.0
H1738 H 0.84225 0.61563 0.09749 0.0
H1739 H 0.82093 0.60422 0.03406 0.0
H1740 H 0.82933 0.68884 0.99989 0.0
H1741 H 0.77648 0.69913 0.15885 0.0
H1742 H 0.8017 0.71581 0.217 0.0
O1743 O 0.89027 0.70154 0.09268 0.0
C1744 C 0.89504 0.76247 0.07551 0.0
C1745 C 0.83891 0.72532 0.1854 0.0
C1746 C 0.79758 0.70653 0.1564 0.0
N1747 N 0.83752 0.71611 0.11719 0.0
C1748 C 0.85154 0.72527 0.14905 0.0
C1749 C 0.81087 0.70679 0.12052 0.0
C1750 C 0.81174 0.71589 0.18901 0.0
C1751 C 0.88568 0.75384 0.94962 0.0
N1752 N 0.90598 0.75501 0.97713 0.0
C1753 C 0.88077 0.77633 0.92521 0.0
C1754 C 0.8968 0.80014 0.92912 0.0
C1755 C 0.91747 0.80118 0.95725 0.0
C1756 C 0.92175 0.77829 0.98113 0.0
C1757 C 0.9924 0.72314 0.9636 0.0
C1758 C 0.96874 0.7248 0.03648 0.0
C1759 C 0.96385 0.72649 0.96829 0.0
N1760 N 0.95228 0.72659 0.00439 0.0
C1761 C 0.9974 0.72158 0.03291 0.0
C1762 C 0.00919 0.72036 0.99617 0.0
C1763 C 0.91147 0.68889 0.07939 0.0
C1764 C 0.82359 0.64598 0.01291 0.0
C1765 C 0.84735 0.65878 0.08357 0.0
C1766 C 0.83924 0.6316 0.07596 0.0
C1767 C 0.82728 0.62521 0.04037 0.0
N1768 N 0.84353 0.67909 0.05657 0.0
C1769 C 0.83194 0.67294 0.02153 0.0
Co1770 Co 0.04694 0.15933 0.76769 0.0
Co1771 Co 0.05148 0.1024 0.82497 0.0
O1772 O 0.05139 0.11964 0.77374 0.0
C1773 C 0.08632 0.14124 0.70366 0.0
O1774 O 0.08581 0.1153 0.71462 0.0
C1775 C 0.01684 0.05202 0.80659 0.0
O1776 O 1.0008 0.05732 0.83638 0.0
O1777 O 0.01328 0.11673 0.83381 0.0
O1778 O 0.01946 0.16018 0.81192 0.0
H1779 H 0.03303 0.09703 0.96786 0.0
H1780 H 0.03379 0.11888 0.70459 0.0
O1781 O 0.07337 0.15977 0.72273 0.0
H1782 H 0.95286 0.18068 0.71229 0.0
H1783 H 0.04934 0.24951 0.69502 0.0
H1784 H 0.04393 0.20573 0.82356 0.0
H1785 H 0.9926 0.18711 0.75602 0.0
H1786 H 0.04446 0.19896 0.70104 0.0
O1787 O 0.03696 0.06814 0.79853 0.0
H1788 H 0.03472 0.11957 0.90396 0.0
H1789 H 0.06679 0.04617 0.85359 0.0
H1790 H 0.04795 0.25644 0.81878 0.0
H1791 H 0.99474 0.1119 0.66003 0.0
H1792 H 0.05152 0.27856 0.75416 0.0
H1793 H 0.95382 0.14293 0.66359 0.0
O1794 O 0.07866 0.16505 0.80317 0.0
H1795 H 0.12771 0.05647 0.74915 0.0
H1796 H 0.10388 0.10399 0.87082 0.0
H1797 H 0.15185 0.08836 0.86003 0.0
H1798 H 0.16404 0.06434 0.79886 0.0
H1799 H 0.08009 0.07272 0.76091 0.0
H1800 H 0.06546 0.0228 0.91698 0.0
H1801 H 0.04846 0.04827 0.97468 0.0
O1802 O 0.06648 0.13677 0.85129 0.0
C1803 C 1.00581 0.14207 0.8313 0.0
C1804 C 0.04043 0.08569 0.94293 0.0
C1805 C 0.05862 0.04403 0.91437 0.0
N1806 N 0.05064 0.08416 0.87501 0.0
C1807 C 0.04139 0.09834 0.90664 0.0
C1808 C 0.05928 0.05735 0.87855 0.0
C1809 C 0.04909 0.05833 0.94673 0.0
C1810 C 0.01637 0.13273 0.70619 0.0
N1811 N 0.01588 0.15375 0.73259 0.0
C1812 C 0.99415 0.12855 0.68093 0.0
C1813 C 0.97117 0.14593 0.68298 0.0
C1814 C 0.97062 0.16709 0.71028 0.0
C1815 C 0.99322 0.17062 0.73505 0.0
C1816 C 0.04811 0.24006 0.72334 0.0
C1817 C 0.04464 0.21524 0.7953 0.0
C1818 C 0.04526 0.21143 0.72696 0.0
N1819 N 0.04416 0.19929 0.76266 0.0
C1820 C 0.04723 0.24396 0.7928 0.0
C1821 C 0.04933 0.25636 0.75654 0.0
C1822 C 0.07968 0.15775 0.83842 0.0
C1823 C 0.12267 0.06695 0.7759 0.0
C1824 C 0.10903 0.09385 0.84392 0.0
C1825 C 0.13623 0.0849 0.83808 0.0
C1826 C 0.14305 0.07139 0.80378 0.0
N1827 N 0.08915 0.08952 0.81637 0.0
C1828 C 0.09569 0.07619 0.78276 0.0
Co1829 Co 0.59477 0.289 0.51179 0.0
Co1830 Co 0.65151 0.29508 0.56865 0.0
O1831 O 0.63443 0.29373 0.51763 0.0
C1832 C 0.60628 0.33659 0.45806 0.0
O1833 O 0.61648 0.35187 0.48604 0.0
C1834 C 0.70277 0.26123 0.55279 0.0
O1835 O 0.69748 0.2459 0.58328 0.0
O1836 O 0.63723 0.25705 0.57877 0.0
O1837 O 0.59342 0.26314 0.55766 0.0
H1838 H 0.65671 0.27872 0.71202 0.0
H1839 H 0.63436 0.27598 0.44869 0.0
O1840 O 0.5962 0.31281 0.46489 0.0
H1841 H 0.5752 0.19331 0.4612 0.0
H1842 H 0.50544 0.28987 0.43667 0.0
H1843 H 0.54758 0.28771 0.56655 0.0
H1844 H 0.5678 0.23387 0.50308 0.0
H1845 H 0.556 0.28489 0.4443 0.0
O1846 O 0.68611 0.28051 0.54313 0.0
H1847 H 0.6344 0.27897 0.64786 0.0
H1848 H 0.70745 0.31209 0.59734 0.0
H1849 H 0.49687 0.29204 0.56022 0.0
H1850 H 0.64244 0.23596 0.40593 0.0
H1851 H 0.47558 0.29399 0.49488 0.0
H1852 H 0.61273 0.19423 0.41203 0.0
O1853 O 0.58865 0.32167 0.54557 0.0
H1854 H 0.69409 0.37009 0.4873 0.0
H1855 H 0.65083 0.34817 0.61281 0.0
H1856 H 0.66577 0.39595 0.5993 0.0
H1857 H 0.68768 0.40715 0.53622 0.0
H1858 H 0.67852 0.32267 0.50177 0.0
H1859 H 0.73057 0.3122 0.66098 0.0
H1860 H 0.70516 0.29542 0.71889 0.0
O1861 O 0.61704 0.3104 0.5941 0.0
C1862 C 0.61177 0.24957 0.57677 0.0
C1863 C 0.66802 0.28606 0.687 0.0
C1864 C 0.70947 0.30485 0.65836 0.0
N1865 N 0.66962 0.29543 0.61885 0.0
C1866 C 0.65549 0.28623 0.65058 0.0
C1867 C 0.69627 0.30471 0.6224 0.0
C1868 C 0.6952 0.29543 0.69083 0.0
C1869 C 0.62144 0.25784 0.45166 0.0
N1870 N 0.60078 0.25715 0.47866 0.0
C1871 C 0.62608 0.23527 0.42731 0.0
C1872 C 0.60941 0.21186 0.43075 0.0
C1873 C 0.58838 0.21131 0.45836 0.0
C1874 C 0.58437 0.23427 0.48219 0.0
C1875 C 0.51453 0.28935 0.46529 0.0
C1876 C 0.53842 0.28768 0.53804 0.0
C1877 C 0.54315 0.2864 0.46982 0.0
N1878 N 0.55482 0.28617 0.50587 0.0
C1879 C 0.50971 0.29048 0.53463 0.0
C1880 C 0.49778 0.29167 0.49796 0.0
C1881 C 0.59604 0.32339 0.58081 0.0
C1882 C 0.6847 0.36544 0.51497 0.0
C1883 C 0.66027 0.35287 0.58523 0.0
C1884 C 0.66874 0.37996 0.57779 0.0
C1885 C 0.68105 0.38623 0.5424 0.0
N1886 N 0.66405 0.33253 0.55827 0.0
C1887 C 0.67597 0.33858 0.52343 0.0
C1888 C 0.07581 0.35484 0.13558 0.0
C1889 C 0.09466 0.35665 0.16649 0.0
H1890 H 0.06963 0.34628 0.07572 0.0
C1891 C 0.12317 0.35447 0.15878 0.0
H1892 H 0.05371 0.35696 0.14035 0.0
C1893 C 0.1324 0.34832 0.12122 0.0
C1894 C 0.11318 0.34436 0.09105 0.0
H1895 H 0.13816 0.35592 0.18203 0.0
H1896 H 0.15432 0.34499 0.11639 0.0
C1897 C 0.08494 0.3488 0.0984 0.0
C1898 C 0.91211 0.83644 0.35017 0.0
C1899 C 0.91827 0.86421 0.34226 0.0
H1900 H 0.90201 0.80625 0.39265 0.0
C1901 C 0.91575 0.88384 0.37213 0.0
H1902 H 0.91355 0.82087 0.32772 0.0
C1903 C 0.90924 0.87537 0.40994 0.0
C1904 C 0.90514 0.8472 0.4182 0.0
H1905 H 0.92045 0.90541 0.36684 0.0
H1906 H 0.90897 0.89059 0.43292 0.0
C1907 C 0.90556 0.82807 0.38755 0.0
C1908 C 0.41209 0.67403 0.65429 0.0
C1909 C 0.41863 0.64636 0.66228 0.0
H1910 H 0.40162 0.70402 0.61172 0.0
C1911 C 0.41646 0.62666 0.63245 0.0
H1912 H 0.41327 0.68964 0.67672 0.0
C1913 C 0.40993 0.635 0.59458 0.0
C1914 C 0.40542 0.6631 0.58624 0.0
H1915 H 0.42148 0.60518 0.63781 0.0
H1916 H 0.40994 0.61976 0.57163 0.0
C1917 C 0.40548 0.68226 0.61687 0.0
C1918 C 0.59753 0.17421 0.84694 0.0
C1919 C 0.59099 0.14643 0.83975 0.0
H1920 H 0.60916 0.20459 0.88839 0.0
C1921 C 0.59449 0.12692 0.86957 0.0
H1922 H 0.59537 0.18968 0.82446 0.0
C1923 C 0.60234 0.13556 0.90682 0.0
C1924 C 0.60677 0.16377 0.91448 0.0
H1925 H 0.58952 0.10535 0.86479 0.0
H1926 H 0.60336 0.12048 0.92992 0.0
C1927 C 0.60538 0.18275 0.88373 0.0
C1928 C 0.09646 0.67387 0.34985 0.0
C1929 C 0.09152 0.64593 0.34147 0.0
H1930 H 0.10612 0.70399 0.39264 0.0
C1931 C 0.0958 0.62607 0.37065 0.0
H1932 H 0.09371 0.68966 0.32793 0.0
C1933 C 0.10291 0.63437 0.40834 0.0
C1934 C 0.10578 0.66261 0.41713 0.0
H1935 H 0.09209 0.60435 0.36498 0.0
H1936 H 0.10464 0.61891 0.43086 0.0
C1937 C 0.10352 0.68209 0.3871 0.0
C1938 C 0.60312 0.82652 0.61718 0.0
C1939 C 0.60613 0.84618 0.58748 0.0
H1940 H 0.59284 0.81876 0.67614 0.0
C1941 C 0.60402 0.8744 0.59669 0.0
H1942 H 0.60512 0.8046 0.61132 0.0
C1943 C 0.59697 0.88259 0.63442 0.0
C1944 C 0.59199 0.86264 0.66327 0.0
H1945 H 0.60635 0.88999 0.57443 0.0
H1946 H 0.59392 0.90437 0.64037 0.0
C1947 C 0.59613 0.83463 0.65449 0.0
C1948 C 0.40552 0.32641 0.88939 0.0
C1949 C 0.40412 0.34578 0.91969 0.0
H1950 H 0.41403 0.31903 0.82974 0.0
C1951 C 0.40701 0.37402 0.91097 0.0
H1952 H 0.4029 0.3045 0.89488 0.0
C1953 C 0.41332 0.38242 0.87309 0.0
C1954 C 0.41684 0.36267 0.84356 0.0
H1955 H 0.40596 0.38941 0.93368 0.0
H1956 H 0.41707 0.40414 0.86749 0.0
C1957 C 0.41184 0.33473 0.8519 0.0
C1958 C 0.90587 0.18563 0.11726 0.0
C1959 C 0.90379 0.166 0.08738 0.0
H1960 H 0.91403 0.1933 0.17692 0.0
C1961 C 0.90528 0.13776 0.09677 0.0
H1962 H 0.90431 0.20757 0.11123 0.0
C1963 C 0.91085 0.12951 0.13496 0.0
C1964 C 0.91496 0.14941 0.16416 0.0
H1965 H 0.90364 0.12218 0.07439 0.0
H1966 H 0.91352 0.10771 0.14109 0.0
C1967 C 0.91137 0.17745 0.15507 0.0
C1968 C 0.91614 0.67597 0.84936 0.0
C1969 C 0.9205 0.64795 0.84085 0.0
H1970 H 0.90699 0.70614 0.89227 0.0
C1971 C 0.91571 0.6281 0.86991 0.0
H1972 H 0.91928 0.69176 0.82755 0.0
C1973 C 0.90867 0.63643 0.90758 0.0
C1974 C 0.90636 0.66468 0.91652 0.0
H1975 H 0.91894 0.60633 0.86415 0.0
H1976 H 0.90653 0.62094 0.93 0.0
C1977 C 0.90915 0.68421 0.88662 0.0
C1978 C 0.10422 0.18512 0.61752 0.0
C1979 C 0.10597 0.16544 0.5877 0.0
H1980 H 0.09759 0.19284 0.67748 0.0
C1981 C 0.10527 0.13721 0.59725 0.0
H1982 H 0.10525 0.20706 0.61131 0.0
C1983 C 0.10071 0.12897 0.63569 0.0
C1984 C 0.09699 0.14888 0.66497 0.0
H1985 H 0.10673 0.12162 0.57486 0.0
H1986 H 0.09857 0.10714 0.64203 0.0
C1987 C 0.09991 0.17697 0.6556 0.0
C1988 C 0.60468 0.32614 0.3879 0.0
C1989 C 0.60611 0.34607 0.41743 0.0
H1990 H 0.59813 0.31787 0.32807 0.0
C1991 C 0.60513 0.37421 0.40749 0.0
H1992 H 0.60593 0.30427 0.39445 0.0
C1993 C 0.60051 0.3821 0.36892 0.0
C1994 C 0.597 0.3619 0.33995 0.0
H1995 H 0.60634 0.38998 0.42967 0.0
H1996 H 0.59808 0.40384 0.36225 0.0
C1997 C 0.60029 0.33394 0.34971 0.0
C1998 C 0.41506 0.88248 0.13544 0.0
C1999 C 0.42001 0.86225 0.16394 0.0
H2000 H 0.4058 0.89042 0.07555 0.0
C2001 C 0.41579 0.83434 0.1547 0.0
H2002 H 0.41817 0.90419 0.14178 0.0
C2003 C 0.40882 0.82658 0.11723 0.0
C2004 C 0.40592 0.84651 0.08787 0.0
H2005 H 0.41903 0.81828 0.17608 0.0
H2006 H 0.4068 0.80472 0.11098 0.0
C2007 C 0.40804 0.87464 0.09756 0.0
C2008 C 0.88911 0.3544 0.65982 0.0
C2009 C 0.91773 0.35772 0.66595 0.0
H2010 H 0.85713 0.34375 0.61908 0.0
C2011 C 0.93568 0.35692 0.63397 0.0
H2012 H 0.87479 0.35502 0.68393 0.0
C2013 C 0.92568 0.35067 0.59728 0.0
C2014 C 0.89745 0.34505 0.59149 0.0
H2015 H 0.9578 0.35991 0.63751 0.0
H2016 H 0.94038 0.34883 0.57372 0.0
C2017 C 0.879 0.34807 0.62273 0.0
C2018 C 0.43886 0.14701 0.36566 0.0
C2019 C 0.42437 0.16291 0.33815 0.0
H2020 H 0.44642 0.13902 0.42562 0.0
C2021 C 0.40281 0.18015 0.35083 0.0
H2022 H 0.45545 0.13328 0.35691 0.0
C2023 C 0.39749 0.18324 0.39032 0.0
C2024 C 0.41376 0.16932 0.41799 0.0
H2025 H 0.39105 0.19245 0.33043 0.0
H2026 H 0.38176 0.19792 0.39912 0.0
C2027 C 0.43366 0.15024 0.40517 0.0
C2028 C 0.60087 0.67465 0.15445 0.0
C2029 C 0.59471 0.64683 0.16199 0.0
H2030 H 0.61106 0.70513 0.1124 0.0
C2031 C 0.59731 0.62739 0.13189 0.0
H2032 H 0.59937 0.69008 0.17709 0.0
C2033 C 0.60389 0.63611 0.09421 0.0
C2034 C 0.608 0.66434 0.08632 0.0
H2035 H 0.5926 0.60579 0.1369 0.0
H2036 H 0.60422 0.62104 0.07105 0.0
C2037 C 0.60751 0.68327 0.11721 0.0
C2038 C 0.10101 0.83556 0.85058 0.0
C2039 C 0.09529 0.86336 0.84226 0.0
H2040 H 0.11076 0.80554 0.89345 0.0
C2041 C 0.09817 0.88317 0.87184 0.0
H2042 H 0.09928 0.81984 0.82836 0.0
C2043 C 0.10463 0.87489 0.90976 0.0
C2044 C 0.10834 0.84673 0.91843 0.0
H2045 H 0.09381 0.90477 0.86624 0.0
H2046 H 0.10522 0.89028 0.9325 0.0
C2047 C 0.10753 0.82737 0.88805 0.0
C2048 C 0.10673 0.31344 0.3448 0.0
C2049 C 0.08208 0.32727 0.35449 0.0
H2050 H 0.13639 0.28242 0.36083 0.0
C2051 C 0.06833 0.32014 0.3888 0.0
H2052 H 0.11759 0.31848 0.31831 0.0
C2053 C 0.07839 0.29886 0.41224 0.0
C2054 C 0.10303 0.28482 0.40277 0.0
H2055 H 0.04902 0.33014 0.39658 0.0
H2056 H 0.06648 0.29316 0.43746 0.0
C2057 C 0.11742 0.29279 0.36913 0.0
C2058 C 0.9429 0.82072 0.64077 0.0
C2059 C 0.93574 0.8335 0.60568 0.0
H2060 H 0.96982 0.82045 0.68991 0.0
C2061 C 0.94957 0.85785 0.59482 0.0
H2062 H 0.93283 0.80171 0.64961 0.0
C2063 C 0.9702 0.86918 0.61864 0.0
C2064 C 0.9782 0.85581 0.65309 0.0
H2065 H 0.94447 0.86805 0.56785 0.0
H2066 H 0.98048 0.88794 0.60937 0.0
C2067 C 0.96417 0.83147 0.66386 0.0
C2068 C 0.42896 0.71205 0.91438 0.0
C2069 C 0.40414 0.72571 0.90473 0.0
H2070 H 0.45828 0.68051 0.8998 0.0
C2071 C 0.38937 0.7168 0.87189 0.0
H2072 H 0.44118 0.7185 0.93893 0.0
C2073 C 0.39986 0.69551 0.84848 0.0
C2074 C 0.42468 0.68204 0.85838 0.0
H2075 H 0.37028 0.7269 0.86347 0.0
H2076 H 0.38873 0.68973 0.82249 0.0
C2077 C 0.43881 0.69017 0.89193 0.0
C2078 C 0.57817 0.18998 0.13873 0.0
C2079 C 0.58504 0.17725 0.10351 0.0
H2080 H 0.55189 0.18973 0.18859 0.0
C2081 C 0.57179 0.15247 0.09325 0.0
H2082 H 0.58783 0.20933 0.14703 0.0
C2083 C 0.55181 0.14075 0.11759 0.0
C2084 C 0.54389 0.15411 0.15205 0.0
H2085 H 0.57669 0.14234 0.06615 0.0
H2086 H 0.54187 0.12174 0.10861 0.0
C2087 C 0.55751 0.17877 0.16246 0.0
C2088 C 0.0705 0.68783 0.11147 0.0
C2089 C 0.08386 0.67983 0.14575 0.0
H2090 H 0.06946 0.71596 0.06387 0.0
C2091 C 0.10853 0.69321 0.15648 0.0
H2092 H 0.05117 0.67819 0.10291 0.0
C2093 C 0.1196 0.71433 0.1334 0.0
C2094 C 0.10565 0.72319 0.09985 0.0
H2095 H 0.1191 0.68753 0.18297 0.0
H2096 H 0.13854 0.72435 0.14265 0.0
C2097 C 0.08101 0.70957 0.08914 0.0
C2098 C 0.55371 0.83295 0.33898 0.0
C2099 C 0.54007 0.85769 0.34884 0.0
H2100 H 0.58451 0.80295 0.35451 0.0
C2101 C 0.5486 0.8719 0.38235 0.0
H2102 H 0.54767 0.82135 0.31359 0.0
C2103 C 0.56913 0.8608 0.40649 0.0
C2104 C 0.58233 0.83588 0.3968 0.0
H2105 H 0.53868 0.89103 0.39083 0.0
H2106 H 0.57443 0.87149 0.43302 0.0
C2107 C 0.57492 0.82242 0.36235 0.0
C2108 C 0.38664 0.30002 0.63225 0.0
C2109 C 0.40068 0.29064 0.59906 0.0
H2110 H 0.3874 0.32684 0.68168 0.0
C2111 C 0.42563 0.30372 0.58847 0.0
H2112 H 0.3674 0.29051 0.64133 0.0
C2113 C 0.43652 0.32524 0.61093 0.0
C2114 C 0.42313 0.33353 0.64506 0.0
H2115 H 0.43712 0.29698 0.5633 0.0
H2116 H 0.45618 0.33437 0.60275 0.0
C2117 C 0.39801 0.32089 0.65534 0.0
C2118 C 0.96716 0.17578 0.84256 0.0
C2119 C 0.98145 0.15177 0.85393 0.0
H2120 H 0.93528 0.20511 0.85562 0.0
C2121 C 0.97326 0.13839 0.88827 0.0
H2122 H 0.97291 0.18677 0.81657 0.0
C2123 C 0.95218 0.14957 0.91152 0.0
C2124 C 0.93815 0.17365 0.90001 0.0
H2125 H 0.98374 0.11986 0.89793 0.0
H2126 H 0.94693 0.1395 0.93852 0.0
C2127 C 0.94549 0.1863 0.86494 0.0
C2128 C 0.90371 0.69219 0.65407 0.0
C2129 C 0.9285 0.6789 0.6437 0.0
H2130 H 0.8739 0.72343 0.64013 0.0
C2131 C 0.94215 0.68702 0.60973 0.0
H2132 H 0.89294 0.68642 0.68036 0.0
C2133 C 0.93186 0.70889 0.58743 0.0
C2134 C 0.90718 0.72251 0.59792 0.0
H2135 H 0.96159 0.67746 0.60151 0.0
H2136 H 0.94362 0.71543 0.56244 0.0
C2137 C 0.89289 0.71343 0.63106 0.0
C2138 C 0.04176 0.13841 0.38456 0.0
C2139 C 0.03321 0.15246 0.35093 0.0
H2140 H 0.06799 0.13886 0.43486 0.0
C2141 C 0.04717 0.17692 0.34051 0.0
H2142 H 0.03158 0.11952 0.39349 0.0
C2143 C 0.06873 0.18731 0.36338 0.0
C2144 C 0.07622 0.17402 0.39791 0.0
H2145 H 0.04113 0.18844 0.31507 0.0
H2146 H 0.07856 0.20657 0.35507 0.0
C2147 C 0.06266 0.1494 0.40822 0.0
C2148 C 0.58671 0.30285 0.0833 0.0
C2149 C 0.61172 0.28927 0.09235 0.0
H2150 H 0.55729 0.33411 0.09904 0.0
C2151 C 0.627 0.29844 0.12457 0.0
H2152 H 0.57417 0.29625 0.05909 0.0
C2153 C 0.61676 0.31964 0.14824 0.0
C2154 C 0.59161 0.33282 0.13932 0.0
H2155 H 0.64629 0.2885 0.13248 0.0
H2156 H 0.62824 0.32542 0.17394 0.0
C2157 C 0.57703 0.32468 0.10612 0.0
C2158 C 0.44365 0.86208 0.90676 0.0
C2159 C 0.43022 0.8373 0.89684 0.0
H2160 H 0.47435 0.89214 0.89137 0.0
C2161 C 0.43749 0.82396 0.86225 0.0
H2162 H 0.43847 0.87267 0.93341 0.0
C2163 C 0.45876 0.83445 0.83896 0.0
C2164 C 0.47263 0.85904 0.84905 0.0
H2165 H 0.42774 0.8046 0.85423 0.0
H2166 H 0.46467 0.82292 0.81347 0.0
C2167 C 0.46425 0.87314 0.8827 0.0
C2168 C 0.89751 0.29093 0.86398 0.0
C2169 C 0.91074 0.2835 0.89878 0.0
H2170 H 0.8988 0.31606 0.81267 0.0
C2171 C 0.9351 0.29762 0.90941 0.0
H2172 H 0.8788 0.28045 0.85476 0.0
C2173 C 0.94589 0.31859 0.88603 0.0
C2174 C 0.93317 0.32533 0.85075 0.0
H2175 H 0.94613 0.2923 0.93559 0.0
H2176 H 0.96488 0.32879 0.89483 0.0
C2177 C 0.90891 0.31129 0.83985 0.0
C2178 C 0.45632 0.18042 0.66687 0.0
C2179 C 0.46996 0.15604 0.65539 0.0
H2180 H 0.42516 0.21064 0.65374 0.0
C2181 C 0.46138 0.14298 0.62099 0.0
H2182 H 0.46242 0.1912 0.69293 0.0
C2183 C 0.44059 0.15468 0.59787 0.0
C2184 C 0.42719 0.17912 0.60934 0.0
H2185 H 0.47135 0.1242 0.61118 0.0
H2186 H 0.43509 0.14472 0.57086 0.0
C2187 C 0.43488 0.19157 0.64444 0.0
C2188 C 0.62344 0.7156 0.37223 0.0
C2189 C 0.60869 0.7244 0.40514 0.0
H2190 H 0.62407 0.68871 0.32265 0.0
C2191 C 0.58392 0.71064 0.41474 0.0
H2192 H 0.64251 0.72575 0.36384 0.0
C2193 C 0.57406 0.68881 0.39214 0.0
C2194 C 0.58815 0.68083 0.35849 0.0
H2195 H 0.57172 0.71699 0.43937 0.0
H2196 H 0.5546 0.67909 0.39995 0.0
C2197 C 0.61295 0.69437 0.3487 0.0
C2198 C 0.06418 0.85842 0.09532 0.0
C2199 C 0.07795 0.83407 0.10629 0.0
H2200 H 0.03329 0.88855 0.10967 0.0
C2201 C 0.07071 0.82133 0.14138 0.0
H2202 H 0.06934 0.86859 0.06835 0.0
C2203 C 0.04941 0.83212 0.16434 0.0
C2204 C 0.03544 0.85645 0.15345 0.0
H2205 H 0.08073 0.80232 0.1503 0.0
H2206 H 0.0437 0.82113 0.19038 0.0
C2207 C 0.04352 0.86979 0.11902 0.0
C2208 C 0.61997 0.79865 0.87398 0.0
C2209 C 0.6057 0.78959 0.90715 0.0
H2210 H 0.61979 0.82545 0.82448 0.0
C2211 C 0.58094 0.80311 0.91753 0.0
H2212 H 0.63903 0.78874 0.86502 0.0
C2213 C 0.57052 0.82482 0.89503 0.0
C2214 C 0.58414 0.83288 0.86099 0.0
H2215 H 0.56922 0.79659 0.94258 0.0
H2216 H 0.551 0.83428 0.90312 0.0
C2217 C 0.60903 0.81973 0.8508 0.0
C2218 C 0.4717 0.37088 0.11848 0.0
C2219 C 0.48027 0.35741 0.15257 0.0
H2220 H 0.44514 0.36971 0.0685 0.0
C2221 C 0.46631 0.33318 0.16387 0.0
H2222 H 0.48191 0.38959 0.10889 0.0
C2223 C 0.44465 0.32249 0.14159 0.0
C2224 C 0.43698 0.33522 0.10671 0.0
H2225 H 0.47236 0.32213 0.1897 0.0
H2226 H 0.43472 0.3035 0.15079 0.0
C2227 C 0.45064 0.35956 0.09535 0.0
C2228 C 0.92524 0.20926 0.41973 0.0
C2229 C 0.90057 0.22293 0.40924 0.0
H2230 H 0.95496 0.17781 0.40554 0.0
C2231 C 0.88614 0.21368 0.37629 0.0
H2232 H 0.93703 0.21586 0.4447 0.0
C2233 C 0.89687 0.19239 0.35331 0.0
C2234 C 0.92174 0.17917 0.36348 0.0
H2235 H 0.86711 0.22363 0.36726 0.0
H2236 H 0.886 0.18658 0.32711 0.0
C2237 C 0.93548 0.18734 0.39742 0.0
C2238 C 0.06855 0.64891 0.597 0.0
C2239 C 0.08208 0.67359 0.6071 0.0
H2240 H 0.03778 0.61888 0.61222 0.0
C2241 C 0.07496 0.68677 0.64187 0.0
H2242 H 0.07362 0.63844 0.57022 0.0
C2243 C 0.05372 0.67622 0.66516 0.0
C2244 C 0.03973 0.65174 0.65487 0.0
H2245 H 0.0848 0.70605 0.65005 0.0
H2246 H 0.04792 0.68763 0.69081 0.0
C2247 C 0.04798 0.63779 0.62103 0.0
C2248 C 0.61681 0.21618 0.63239 0.0
C2249 C 0.60226 0.22524 0.59945 0.0
H2250 H 0.61704 0.18909 0.68172 0.0
C2251 C 0.57744 0.21168 0.58945 0.0
H2252 H 0.63592 0.22617 0.64105 0.0
C2253 C 0.56732 0.18984 0.61178 0.0
C2254 C 0.5812 0.18165 0.6455 0.0
H2255 H 0.56543 0.21822 0.56473 0.0
H2256 H 0.54783 0.18029 0.60371 0.0
C2257 C 0.60608 0.19494 0.65563 0.0
C2258 C 0.05777 0.32975 0.83438 0.0
C2259 C 0.04397 0.35449 0.844 0.0
H2260 H 0.08877 0.3 0.85033 0.0
C2261 C 0.05249 0.36897 0.87725 0.0
H2262 H 0.0517 0.31791 0.80922 0.0
C2263 C 0.07321 0.35827 0.9013 0.0
C2264 C 0.08656 0.33334 0.89199 0.0
H2265 H 0.04239 0.38804 0.88563 0.0
H2266 H 0.07847 0.36922 0.92763 0.0
C2267 C 0.07913 0.31951 0.85783 0.0
C2268 C 0.88952 0.79556 0.13142 0.0
C2269 C 0.90432 0.78674 0.09856 0.0
H2270 H 0.88884 0.82242 0.181 0.0
C2271 C 0.92912 0.80047 0.08902 0.0
H2272 H 0.87042 0.78543 0.13974 0.0
C2273 C 0.93898 0.82226 0.11169 0.0
C2274 C 0.92483 0.83024 0.1453 0.0
H2275 H 0.94134 0.79411 0.06441 0.0
H2276 H 0.95846 0.83196 0.10396 0.0
C2277 C 0.89999 0.81675 0.15499 0.0
C2278 C 0.44927 0.65263 0.40971 0.0
C2279 C 0.43549 0.67698 0.39876 0.0
H2280 H 0.48003 0.62239 0.39521 0.0
C2281 C 0.44258 0.6896 0.36352 0.0
H2282 H 0.44423 0.64253 0.43678 0.0
C2283 C 0.46372 0.67869 0.34039 0.0
C2284 C 0.47769 0.65435 0.35126 0.0
H2285 H 0.43254 0.7086 0.35459 0.0
H2286 H 0.46931 0.6896 0.31423 0.0
C2287 C 0.46978 0.64113 0.38586 0.0
C2288 C 0.4461 0.18873 0.11351 0.0
C2289 C 0.4334 0.18074 0.14827 0.0
H2290 H 0.44628 0.21672 0.06582 0.0
C2291 C 0.40909 0.19431 0.16006 0.0
H2292 H 0.46515 0.17896 0.1041 0.0
C2293 C 0.39762 0.21543 0.13732 0.0
C2294 C 0.41083 0.2241 0.10307 0.0
H2295 H 0.39904 0.18864 0.18693 0.0
H2296 H 0.37889 0.22552 0.14722 0.0
C2297 C 0.43524 0.21045 0.09156 0.0
C2298 C 0.5491 0.68029 0.84109 0.0
C2299 C 0.53515 0.65595 0.85203 0.0
H2300 H 0.58033 0.7102 0.85519 0.0
C2301 C 0.54312 0.64275 0.88662 0.0
H2302 H 0.54346 0.69117 0.81492 0.0
C2303 C 0.56368 0.65423 0.91039 0.0
C2304 C 0.57744 0.67857 0.89936 0.0
H2305 H 0.53289 0.624 0.89602 0.0
H2306 H 0.56877 0.64414 0.93745 0.0
C2307 C 0.57029 0.6912 0.86416 0.0
C2308 C 0.07431 0.821 0.61172 0.0
C2309 C 0.08851 0.82896 0.64532 0.0
H2310 H 0.07177 0.79277 0.56452 0.0
C2311 C 0.11325 0.81532 0.65508 0.0
H2312 H 0.0549 0.83081 0.60394 0.0
C2313 C 0.12358 0.79401 0.63158 0.0
C2314 C 0.10874 0.78523 0.59873 0.0
H2315 H 0.12444 0.82096 0.68108 0.0
H2316 H 0.14262 0.78379 0.63996 0.0
C2317 C 0.08402 0.79909 0.58913 0.0
C2318 C 0.93616 0.32063 0.36101 0.0
C2319 C 0.92872 0.3343 0.39525 0.0
H2320 H 0.96359 0.31896 0.31269 0.0
C2321 C 0.94239 0.359 0.40506 0.0
H2322 H 0.92629 0.3013 0.3531 0.0
C2323 C 0.96323 0.36976 0.38109 0.0
C2324 C 0.97156 0.35544 0.3476 0.0
H2325 H 0.93712 0.36983 0.43148 0.0
H2326 H 0.9735 0.38871 0.3896 0.0
C2327 C 0.95762 0.3308 0.33785 0.0
C2328 C 0.40366 0.81876 0.35107 0.0
C2329 C 0.42863 0.83181 0.3612 0.0
H2330 H 0.37367 0.7877 0.36513 0.0
C2331 C 0.44241 0.8235 0.395 0.0
H2332 H 0.39279 0.82466 0.32491 0.0
C2333 C 0.43205 0.80165 0.41731 0.0
C2334 C 0.40721 0.78822 0.40698 0.0
H2335 H 0.462 0.83286 0.40303 0.0
H2336 H 0.44391 0.79494 0.44214 0.0
C2337 C 0.3928 0.79753 0.37407 0.0
C2338 C 0.96464 0.63924 0.12024 0.0
C2339 C 0.97272 0.65286 0.15444 0.0
H2340 H 0.93921 0.64031 0.06924 0.0
C2341 C 0.95877 0.67728 0.165 0.0
H2342 H 0.97483 0.62039 0.11118 0.0
C2343 C 0.93766 0.68805 0.14165 0.0
C2344 C 0.93064 0.67514 0.10662 0.0
H2345 H 0.96448 0.68843 0.19093 0.0
H2346 H 0.9278 0.70727 0.15005 0.0
C2347 C 0.94419 0.65056 0.09622 0.0
C2348 C 0.12837 0.21163 0.87937 0.0
C2349 C 0.11313 0.2215 0.91121 0.0
H2350 H 0.12944 0.18382 0.83095 0.0
C2351 C 0.08816 0.2081 0.92093 0.0
H2352 H 0.14767 0.22134 0.87102 0.0
C2353 C 0.07834 0.1859 0.89883 0.0
C2354 C 0.09281 0.17719 0.86582 0.0
H2355 H 0.07577 0.21515 0.94504 0.0
H2356 H 0.05858 0.17665 0.90623 0.0
C2357 C 0.11803 0.19006 0.85649 0.0
C2358 C 0.56358 0.36186 0.59841 0.0
C2359 C 0.57687 0.33699 0.60818 0.0
H2360 H 0.53319 0.39212 0.61417 0.0
C2361 C 0.56966 0.32366 0.6428 0.0
H2362 H 0.56875 0.37246 0.57177 0.0
C2363 C 0.54859 0.33426 0.66629 0.0
C2364 C 0.53486 0.35895 0.65638 0.0
H2365 H 0.57932 0.30424 0.65072 0.0
H2366 H 0.54271 0.32274 0.69181 0.0
C2367 C 0.54318 0.37304 0.62268 0.0
C2368 C 0.02299 0.48704 0.24811 0.0
C2369 C 0.00676 0.48223 0.28126 0.0
H2370 H 0.03657 0.51589 0.20528 0.0
C2371 C 0.98995 0.50386 0.29511 0.0
H2372 H 0.03609 0.47091 0.23637 0.0
C2373 C 0.99023 0.52992 0.27709 0.0
C2374 C 0.00727 0.53491 0.24475 0.0
H2375 H 0.97721 0.50094 0.32057 0.0
H2376 H 0.97767 0.54635 0.28918 0.0
C2377 C 0.02324 0.51295 0.23015 0.0
C2378 C 0.78277 0.74103 0.47903 0.0
C2379 C 0.78832 0.75855 0.51064 0.0
H2380 H 0.75326 0.72777 0.43634 0.0
C2381 C 0.76671 0.77524 0.5248 0.0
H2382 H 0.7989 0.72791 0.46728 0.0
C2383 C 0.74063 0.77517 0.50709 0.0
C2384 C 0.73529 0.75841 0.47464 0.0
H2385 H 0.77009 0.78898 0.5491 0.0
H2386 H 0.7248 0.78883 0.51843 0.0
C2387 C 0.75656 0.74094 0.46126 0.0
C2388 C 0.48631 0.4896 0.75753 0.0
C2389 C 0.50224 0.48511 0.72403 0.0
H2390 H 0.47317 0.51805 0.8011 0.0
C2391 C 0.51914 0.50675 0.71044 0.0
H2392 H 0.47321 0.47341 0.76911 0.0
C2393 C 0.51913 0.53261 0.72899 0.0
C2394 C 0.50228 0.53735 0.76159 0.0
H2395 H 0.53166 0.50404 0.68473 0.0
H2396 H 0.53166 0.54912 0.71704 0.0
C2397 C 0.48633 0.5153 0.77601 0.0
C2398 C 0.76909 0.23584 0.97453 0.0
C2399 C 0.7909 0.25241 0.9884 0.0
H2400 H 0.72702 0.22285 0.98106 0.0
C2401 C 0.78554 0.27044 0.01951 0.0
H2402 H 0.77232 0.22175 0.95059 0.0
C2403 C 0.75932 0.27107 0.03718 0.0
C2404 C 0.73787 0.25365 0.02417 0.0
H2405 H 0.80184 0.28347 0.03101 0.0
H2406 H 0.75615 0.28456 0.06178 0.0
C2407 C 0.743 0.23645 0.99212 0.0
C2408 C 0.98981 0.49393 0.76962 0.0
C2409 C 0.00689 0.47265 0.75546 0.0
H2410 H 0.97547 0.53547 0.7632 0.0
C2411 C 0.02429 0.47841 0.72377 0.0
H2412 H 0.97616 0.49038 0.79399 0.0
C2413 C 0.02389 0.50452 0.70593 0.0
C2414 C 1.006 0.52543 0.7193 0.0
H2415 H 0.03769 0.46252 0.71203 0.0
H2416 H 0.03698 0.50802 0.68097 0.0
C2417 C 0.98937 0.51989 0.75182 0.0
C2418 C 0.2595 0.23798 0.52655 0.0
C2419 C 0.28127 0.2545 0.51248 0.0
H2420 H 0.21792 0.22376 0.51898 0.0
C2421 C 0.27633 0.27109 0.4797 0.0
H2422 H 0.26243 0.22495 0.5517 0.0
C2423 C 0.25056 0.2704 0.46074 0.0
C2424 C 0.22918 0.25303 0.47404 0.0
H2425 H 0.29262 0.28402 0.46798 0.0
H2426 H 0.24772 0.28282 0.43499 0.0
C2427 C 0.23388 0.23725 0.50763 0.0
C2428 C 0.49489 0.53118 0.22669 0.0
C2429 C 0.51192 0.53603 0.25911 0.0
H2430 H 0.48239 0.50264 0.18236 0.0
C2431 C 0.52836 0.51415 0.27299 0.0
H2432 H 0.48199 0.54753 0.21513 0.0
C2433 C 0.52862 0.48853 0.25422 0.0
C2434 C 0.51243 0.48393 0.22095 0.0
H2435 H 0.5417 0.51698 0.29789 0.0
H2436 H 0.54206 0.47249 0.26541 0.0
C2437 C 0.49511 0.5054 0.20788 0.0
C2438 C 0.24653 0.77523 0.02557 0.0
C2439 C 0.2249 0.75855 0.01142 0.0
H2440 H 0.28834 0.78904 0.01892 0.0
C2441 C 0.23032 0.74124 0.97954 0.0
H2442 H 0.24325 0.7888 0.05007 0.0
C2443 C 0.25643 0.74139 0.96149 0.0
C2444 C 0.2777 0.75888 0.97485 0.0
H2445 H 0.21417 0.72814 0.96778 0.0
H2446 H 0.25964 0.7284 0.93637 0.0
C2447 C 0.27251 0.77539 0.00758 0.0
C2448 C 0.48833 0.0064 0.79568 0.0
C2449 C 0.50553 0.98496 0.78221 0.0
H2450 H 0.47519 0.04856 0.78887 0.0
C2451 C 0.52144 0.98963 0.74874 0.0
H2452 H 0.47582 1.00356 0.82138 0.0
C2453 C 0.52103 0.01528 0.73009 0.0
C2454 C 0.50473 0.03712 0.74437 0.0
H2455 H 0.53478 0.9736 0.73726 0.0
H2456 H 0.53416 0.01816 0.70501 0.0
C2457 C 0.48797 0.03222 0.77701 0.0
C2458 C 0.28541 0.23906 0.98367 0.0
C2459 C 0.29074 0.25709 0.01478 0.0
H2460 H 0.25631 0.22543 0.94066 0.0
C2461 C 0.26918 0.27432 0.02776 0.0
H2462 H 0.30152 0.22553 0.97282 0.0
C2463 C 0.24338 0.27432 0.0093 0.0
C2464 C 0.23829 0.25706 0.97731 0.0
H2465 H 0.2724 0.28846 0.05164 0.0
H2466 H 0.22758 0.28838 0.01969 0.0
C2467 C 0.25946 0.239 0.96519 0.0
C2468 C 0.98346 0.02198 0.25094 0.0
C2469 C 0.99969 0.02672 0.28412 0.0
H2470 H 0.9706 0.99346 0.20725 0.0
C2471 C 0.01725 0.00541 0.2971 0.0
H2472 H 0.96983 0.0379 0.23984 0.0
C2473 C 0.01769 0.97965 0.27823 0.0
C2474 C 1.00067 0.97468 0.24586 0.0
H2475 H 0.03003 0.00829 0.32254 0.0
H2476 H 0.03079 0.96342 0.2897 0.0
C2477 C 0.98396 0.9964 0.2321 0.0
C2478 C 0.26663 0.73482 0.47963 0.0
C2479 C 0.28812 0.75166 0.49383 0.0
H2480 H 0.22482 0.72089 0.48599 0.0
C2481 C 0.28247 0.7691 0.5255 0.0
H2482 H 0.27009 0.72114 0.4553 0.0
C2483 C 0.25627 0.76896 0.54326 0.0
C2484 C 0.23512 0.75134 0.52984 0.0
H2485 H 0.29851 0.78232 0.53728 0.0
H2486 H 0.25288 0.78207 0.5682 0.0
C2487 C 0.24056 0.73466 0.49735 0.0
C2488 C 0.49263 0.01303 0.22777 0.0
C2489 C 0.50983 0.03458 0.24083 0.0
H2490 H 0.47779 0.97189 0.23665 0.0
C2491 C 0.52702 0.02966 0.27305 0.0
H2492 H 0.47913 0.01594 0.20306 0.0
C2493 C 0.52623 1.00416 0.29252 0.0
C2494 C 0.50814 0.98305 0.2803 0.0
H2495 H 0.54048 0.04579 0.284 0.0
H2496 H 0.53912 1.00133 0.31786 0.0
C2497 C 0.49179 0.98768 0.24721 0.0
C2498 C 0.77243 0.7368 0.9972 0.0
C2499 C 0.77781 0.75329 0.0299 0.0
H2500 H 0.74292 0.72338 0.95504 0.0
C2501 C 0.75661 0.77072 0.04358 0.0
H2502 H 0.78822 0.72321 0.98563 0.0
C2503 C 0.73038 0.77082 0.02586 0.0
C2504 C 0.72478 0.75354 0.99402 0.0
H2505 H 0.75997 0.78368 0.06869 0.0
H2506 H 0.71429 0.78387 0.03784 0.0
C2507 C 0.74635 0.73693 0.97954 0.0
C2508 C 0.03012 0.02117 0.75117 0.0
C2509 C 0.01392 0.02571 0.78442 0.0
H2510 H 0.04306 0.99286 0.70725 0.0
C2511 C 0.99647 1.00426 0.79725 0.0
H2512 H 0.04367 0.0372 0.74017 0.0
C2513 C 0.9961 0.97858 0.77818 0.0
C2514 C 0.01311 0.9738 0.74575 0.0
H2515 H 0.98372 0.00698 0.82274 0.0
H2516 H 0.98308 0.96225 0.78955 0.0
C2517 C 0.02971 0.99565 0.73213 0.0
C2518 C 0.73488 0.2752 0.49909 0.0
C2519 C 0.72982 0.25898 0.53215 0.0
H2520 H 0.76418 0.28893 0.45687 0.0
C2521 C 0.75147 0.24237 0.54648 0.0
H2522 H 0.71876 0.28817 0.48702 0.0
C2523 C 0.77778 0.24282 0.52902 0.0
C2524 C 0.78302 0.25984 0.49679 0.0
H2525 H 0.74837 0.22966 0.5719 0.0
H2526 H 0.79419 0.23039 0.54146 0.0
C2527 C 0.76105 0.27563 0.4817 0.0
loop_
_geom_bond_atom_site_label_1
_geom_bond_atom_site_label_2
_geom_bond_distance
_geom_bond_site_symmetry_2
_ccdc_geom_bond_type
Co0 O2 2.143 . S
Co0 O8 2.074 . S
Co0 O11 2.093 . S
Co0 O24 2.097 . S
Co0 N41 2.151 . S
Co0 N49 2.214 . S
Co1 O2 2.160 . S
Co1 O7 2.058 . S
Co1 O17 2.057 . S
Co1 O32 2.037 . S
Co1 N36 2.145 . S
Co1 N57 2.257 . S
O2 Co0 2.143 . S
O2 Co1 2.160 . S
C3 O4 1.278 . S
C3 O11 1.224 . S
O4 C3 1.278 . S
C5 O6 1.245 . S
C5 O17 1.232 . S
O6 C5 1.245 . S
O7 Co1 2.058 . S
O7 C33 1.269 . S
O8 Co0 2.074 . S
O8 C33 1.257 . S
H9 C34 0.930 . S
H10 C40 0.930 . S
O11 Co0 2.093 . S
O11 C3 1.224 . S
H12 C44 0.929 . S
H13 C46 0.930 1_655 S
H14 C47 0.930 . S
H15 C45 0.929 . S
H16 C48 0.928 . S
O17 Co1 2.057 . S
O17 C5 1.232 . S
H18 C37 0.929 . S
H19 C38 0.929 . S
H20 C50 0.931 . S
H21 C42 0.929 . S
H22 C51 0.923 1_655 S
H23 C43 0.931 . S
O24 Co0 2.097 . S
O24 C52 1.214 . S
H25 C53 0.929 . S
H26 C54 0.929 . S
H27 C55 0.930 . S
H28 C56 0.929 . S
H29 C58 0.930 . S
H30 C35 0.930 . S
H31 C39 0.930 . S
O32 Co1 2.037 . S
O32 C52 1.234 . S
C33 O7 1.269 . S
C33 O8 1.257 . S
C34 H9 0.930 . S
C34 C37 1.388 . S
C34 C39 1.418 . S
C35 H30 0.930 . S
C35 C38 1.404 . S
C35 C39 1.353 . S
N36 Co1 2.145 . S
N36 C37 1.397 . S
N36 C38 1.334 . S
C37 H18 0.929 . S
C37 C34 1.388 . S
C37 N36 1.397 . S
C38 H19 0.929 . S
C38 C35 1.404 . S
C38 N36 1.334 . S
C39 H31 0.930 . S
C39 C34 1.418 . S
C39 C35 1.353 . S
C40 H10 0.930 . S
C40 N41 1.330 . S
C40 C42 1.446 1_455 S
N41 Co0 2.151 . S
N41 C40 1.330 . S
N41 C45 1.418 1_455 S
C42 H21 0.929 . S
C42 C40 1.446 1_655 S
C42 C43 1.332 . S
C43 H23 0.931 . S
C43 C42 1.332 . S
C43 C44 1.267 . S
C44 H12 0.929 . S
C44 C43 1.267 . S
C44 C45 1.251 . S
C45 H15 0.929 . S
C45 N41 1.418 1_655 S
C45 C44 1.251 . S
C46 H13 0.930 1_455 S
C46 C48 1.406 . S
C46 C51 1.262 . S
C47 H14 0.930 . S
C47 N49 1.325 . S
C47 C50 1.357 . S
C48 H16 0.928 . S
C48 C46 1.406 . S
C48 N49 1.261 . S
N49 Co0 2.214 . S
N49 C47 1.325 . S
N49 C48 1.261 . S
C50 H20 0.931 . S
C50 C47 1.357 . S
C50 C51 1.318 . S
C51 H22 0.923 1_455 S
C51 C46 1.262 . S
C51 C50 1.318 . S
C52 O24 1.214 . S
C52 O32 1.234 . S
C53 H25 0.929 . S
C53 C56 1.391 . S
C53 C58 1.391 . S
C54 H26 0.929 . S
C54 C55 1.390 . S
C54 N57 1.391 . S
C55 H27 0.930 . S
C55 C54 1.390 . S
C55 C56 1.392 . S
C56 H28 0.929 . S
C56 C53 1.391 . S
C56 C55 1.392 . S
N57 Co1 2.257 . S
N57 C54 1.391 . S
N57 C58 1.388 . S
C58 H29 0.930 . S
C58 C53 1.391 . S
C58 N57 1.388 . S
Co59 O61 2.143 . S
Co59 O67 2.074 . S
Co59 O70 2.093 . S
Co59 O83 2.097 . S
Co59 N100 2.151 . S
Co59 N108 2.214 . S
Co60 O61 2.160 . S
Co60 O66 2.058 . S
Co60 O76 2.057 . S
Co60 O91 2.037 . S
Co60 N95 2.145 . S
Co60 N116 2.257 . S
O61 Co59 2.143 . S
O61 Co60 2.160 . S
C62 O63 1.278 . S
C62 O70 1.224 . S
O63 C62 1.278 . S
C64 O65 1.245 . S
C64 O76 1.232 . S
O65 C64 1.245 . S
O66 Co60 2.058 . S
O66 C92 1.269 . S
O67 Co59 2.074 . S
O67 C92 1.257 . S
H68 C93 0.930 . S
H69 C99 0.930 . S
O70 Co59 2.093 . S
O70 C62 1.224 . S
H71 C103 0.929 . S
H72 C105 0.930 . S
H73 C106 0.930 . S
H74 C104 0.929 . S
H75 C107 0.928 . S
O76 Co60 2.057 . S
O76 C64 1.232 . S
H77 C96 0.929 . S
H78 C97 0.929 . S
H79 C109 0.931 . S
H80 C101 0.929 . S
H81 C110 0.930 . S
H82 C102 0.931 . S
O83 Co59 2.097 . S
O83 C111 1.214 . S
H84 C112 0.929 . S
H85 C113 0.929 . S
H86 C114 0.930 . S
H87 C115 0.929 . S
H88 C117 0.930 . S
H89 C94 0.930 . S
H90 C98 0.930 . S
O91 Co60 2.037 . S
O91 C111 1.234 . S
C92 O66 1.269 . S
C92 O67 1.257 . S
C93 H68 0.930 . S
C93 C96 1.388 . S
C93 C98 1.418 . S
C94 H89 0.930 . S
C94 C97 1.404 . S
C94 C98 1.353 . S
N95 Co60 2.145 . S
N95 C96 1.397 . S
N95 C97 1.334 . S
C96 H77 0.929 . S
C96 C93 1.388 . S
C96 N95 1.397 . S
C97 H78 0.929 . S
C97 C94 1.404 . S
C97 N95 1.334 . S
C98 H90 0.930 . S
C98 C93 1.418 . S
C98 C94 1.353 . S
C99 H69 0.930 . S
C99 N100 1.330 . S
C99 C101 1.446 . S
N100 Co59 2.151 . S
N100 C99 1.330 . S
N100 C104 1.418 . S
C101 H80 0.929 . S
C101 C99 1.446 . S
C101 C102 1.332 . S
C102 H82 0.931 . S
C102 C101 1.332 . S
C102 C103 1.267 . S
C103 H71 0.929 . S
C103 C102 1.267 . S
C103 C104 1.251 . S
C104 H74 0.929 . S
C104 N100 1.418 . S
C104 C103 1.251 . S
C105 H72 0.930 . S
C105 C107 1.406 . S
C105 C110 1.261 1_655 S
C106 H73 0.930 . S
C106 N108 1.325 . S
C106 C109 1.357 . S
C107 H75 0.928 . S
C107 C105 1.406 . S
C107 N108 1.261 . S
N108 Co59 2.214 . S
N108 C106 1.325 . S
N108 C107 1.261 . S
C109 H79 0.931 . S
C109 C106 1.357 . S
C109 C110 1.312 1_655 S
C110 H81 0.930 . S
C110 C105 1.261 1_455 S
C110 C109 1.312 1_455 S
C111 O83 1.214 . S
C111 O91 1.234 . S
C112 H84 0.929 . S
C112 C115 1.391 . S
C112 C117 1.391 . S
C113 H85 0.929 . S
C113 C114 1.390 . S
C113 N116 1.391 . S
C114 H86 0.930 . S
C114 C113 1.390 . S
C114 C115 1.392 . S
C115 H87 0.929 . S
C115 C112 1.391 . S
C115 C114 1.392 . S
N116 Co60 2.257 . S
N116 C113 1.391 . S
N116 C117 1.388 . S
C117 H88 0.930 . S
C117 C112 1.391 . S
C117 N116 1.388 . S
Co118 O120 2.143 . S
Co118 O126 2.074 . S
Co118 O129 2.093 . S
Co118 O142 2.097 . S
Co118 N159 2.151 . S
Co118 N167 2.214 . S
Co119 O120 2.160 . S
Co119 O125 2.058 . S
Co119 O135 2.057 . S
Co119 O150 2.037 . S
Co119 N154 2.145 . S
Co119 N175 2.257 . S
O120 Co118 2.143 . S
O120 Co119 2.160 . S
C121 O122 1.278 . S
C121 O129 1.224 . S
O122 C121 1.278 . S
C123 O124 1.245 . S
C123 O135 1.232 . S
O124 C123 1.245 . S
O125 Co119 2.058 . S
O125 C151 1.269 . S
O126 Co118 2.074 . S
O126 C151 1.257 . S
H127 C152 0.930 . S
H128 C158 0.930 . S
O129 Co118 2.093 . S
O129 C121 1.224 . S
H130 C162 0.929 . S
H131 C164 0.930 . S
H132 C165 0.930 . S
H133 C163 0.929 . S
H134 C166 0.928 . S
O135 Co119 2.057 . S
O135 C123 1.232 . S
H136 C155 0.929 . S
H137 C156 0.929 . S
H138 C168 0.931 . S
H139 C160 0.929 . S
H140 C169 0.930 . S
H141 C161 0.931 . S
O142 Co118 2.097 . S
O142 C170 1.214 . S
H143 C171 0.929 . S
H144 C172 0.929 . S
H145 C173 0.930 . S
H146 C174 0.929 . S
H147 C176 0.930 . S
H148 C153 0.930 . S
H149 C157 0.930 . S
O150 Co119 2.037 . S
O150 C170 1.234 . S
C151 O125 1.269 . S
C151 O126 1.257 . S
C152 H127 0.930 . S
C152 C155 1.388 . S
C152 C157 1.418 . S
C153 H148 0.930 . S
C153 C156 1.404 . S
C153 C157 1.353 . S
N154 Co119 2.145 . S
N154 C155 1.397 . S
N154 C156 1.334 . S
C155 H136 0.929 . S
C155 C152 1.388 . S
C155 N154 1.397 . S
C156 H137 0.929 . S
C156 C153 1.404 . S
C156 N154 1.334 . S
C157 H149 0.930 . S
C157 C152 1.418 . S
C157 C153 1.353 . S
C158 H128 0.930 . S
C158 N159 1.330 . S
C158 C160 1.446 . S
N159 Co118 2.151 . S
N159 C158 1.330 . S
N159 C163 1.418 . S
C160 H139 0.929 . S
C160 C158 1.446 . S
C160 C161 1.332 . S
C161 H141 0.931 . S
C161 C160 1.332 . S
C161 C162 1.267 . S
C162 H130 0.929 . S
C162 C161 1.267 . S
C162 C163 1.251 . S
C163 H133 0.929 . S
C163 N159 1.418 . S
C163 C162 1.251 . S
C164 H131 0.930 . S
C164 C166 1.406 . S
C164 C169 1.261 . S
C165 H132 0.930 . S
C165 N167 1.325 . S
C165 C168 1.357 . S
C166 H134 0.928 . S
C166 C164 1.406 . S
C166 N167 1.261 . S
N167 Co118 2.214 . S
N167 C165 1.325 . S
N167 C166 1.261 . S
C168 H138 0.931 . S
C168 C165 1.357 . S
C168 C169 1.312 . S
C169 H140 0.930 . S
C169 C164 1.261 . S
C169 C168 1.312 . S
C170 O142 1.214 . S
C170 O150 1.234 . S
C171 H143 0.929 . S
C171 C174 1.391 . S
C171 C176 1.391 . S
C172 H144 0.929 . S
C172 C173 1.390 . S
C172 N175 1.391 . S
C173 H145 0.930 . S
C173 C172 1.390 . S
C173 C174 1.392 . S
C174 H146 0.929 . S
C174 C171 1.391 . S
C174 C173 1.392 . S
N175 Co119 2.257 . S
N175 C172 1.391 . S
N175 C176 1.388 . S
C176 H147 0.930 . S
C176 C171 1.391 . S
C176 N175 1.388 . S
Co177 O179 2.143 . S
Co177 O185 2.074 . S
Co177 O188 2.093 1_554 S
Co177 O201 2.097 . S
Co177 N218 2.151 1_554 S
Co177 N226 2.214 . S
Co178 O179 2.160 . S
Co178 O184 2.058 . S
Co178 O194 2.057 . S
Co178 O209 2.037 . S
Co178 N213 2.145 . S
Co178 N234 2.257 . S
O179 Co177 2.143 . S
O179 Co178 2.160 . S
C180 O181 1.278 . S
C180 O188 1.224 . S
O181 C180 1.278 . S
C182 O183 1.245 . S
C182 O194 1.232 . S
O183 C182 1.245 . S
O184 Co178 2.058 . S
O184 C210 1.269 . S
O185 Co177 2.074 . S
O185 C210 1.257 . S
H186 C211 0.930 . S
H187 C217 0.930 . S
O188 Co177 2.093 1_556 S
O188 C180 1.224 . S
H189 C221 0.929 . S
H190 C223 0.930 . S
H191 C224 0.930 . S
H192 C222 0.913 1_554 S
H193 C225 0.928 . S
O194 Co178 2.057 . S
O194 C182 1.232 . S
H195 C214 0.929 . S
H196 C215 0.929 . S
H197 C227 0.931 . S
H198 C219 0.929 . S
H199 C228 0.930 . S
H200 C220 0.931 . S
O201 Co177 2.097 . S
O201 C229 1.214 . S
H202 C230 0.929 1_556 S
H203 C231 0.929 . S
H204 C232 0.930 . S
H205 C233 0.929 . S
H206 C235 0.930 . S
H207 C212 0.930 . S
H208 C216 0.930 . S
O209 Co178 2.037 . S
O209 C229 1.234 . S
C210 O184 1.269 . S
C210 O185 1.257 . S
C211 H186 0.930 . S
C211 C214 1.388 . S
C211 C216 1.418 . S
C212 H207 0.930 . S
C212 C215 1.404 . S
C212 C216 1.353 . S
N213 Co178 2.145 . S
N213 C214 1.397 . S
N213 C215 1.334 . S
C214 H195 0.929 . S
C214 C211 1.388 . S
C214 N213 1.397 . S
C215 H196 0.929 . S
C215 C212 1.404 . S
C215 N213 1.334 . S
C216 H208 0.930 . S
C216 C211 1.418 . S
C216 C212 1.353 . S
C217 H187 0.930 . S
C217 N218 1.330 . S
C217 C219 1.446 . S
N218 Co177 2.151 1_556 S
N218 C217 1.330 . S
N218 C222 1.418 . S
C219 H198 0.929 . S
C219 C217 1.446 . S
C219 C220 1.332 . S
C220 H200 0.931 . S
C220 C219 1.332 . S
C220 C221 1.267 . S
C221 H189 0.929 . S
C221 C220 1.267 . S
C221 C222 1.251 . S
C222 H192 0.913 1_556 S
C222 N218 1.418 . S
C222 C221 1.251 . S
C223 H190 0.930 . S
C223 C225 1.406 . S
C223 C228 1.261 1_556 S
C224 H191 0.930 . S
C224 N226 1.325 . S
C224 C227 1.357 . S
C225 H193 0.928 . S
C225 C223 1.406 . S
C225 N226 1.261 1_556 S
N226 Co177 2.214 . S
N226 C224 1.325 . S
N226 C225 1.261 1_554 S
C227 H197 0.931 . S
C227 C224 1.357 . S
C227 C228 1.312 . S
C228 H199 0.930 . S
C228 C223 1.261 1_554 S
C228 C227 1.312 . S
C229 O201 1.214 . S
C229 O209 1.234 . S
C230 H202 0.929 1_554 S
C230 C233 1.391 . S
C230 C235 1.391 . S
C231 H203 0.929 . S
C231 C232 1.390 . S
C231 N234 1.391 . S
C232 H204 0.930 . S
C232 C231 1.390 . S
C232 C233 1.392 . S
C233 H205 0.929 . S
C233 C230 1.391 . S
C233 C232 1.392 . S
N234 Co178 2.257 . S
N234 C231 1.391 . S
N234 C235 1.388 . S
C235 H206 0.930 . S
C235 C230 1.391 . S
C235 N234 1.388 . S
Co236 O238 2.143 . S
Co236 O244 2.074 . S
Co236 O247 2.093 . S
Co236 O260 2.097 . S
Co236 N277 2.151 . S
Co236 N285 2.214 . S
Co237 O238 2.160 . S
Co237 O243 2.058 . S
Co237 O253 2.057 . S
Co237 O268 2.037 . S
Co237 N272 2.145 . S
Co237 N293 2.257 . S
O238 Co236 2.143 . S
O238 Co237 2.160 . S
C239 O240 1.278 . S
C239 O247 1.224 . S
O240 C239 1.278 . S
C241 O242 1.245 . S
C241 O253 1.232 . S
O242 C241 1.245 . S
O243 Co237 2.058 . S
O243 C269 1.269 . S
O244 Co236 2.074 . S
O244 C269 1.257 . S
H245 C270 0.930 . S
H246 C276 0.930 . S
O247 Co236 2.093 . S
O247 C239 1.224 . S
H248 C280 0.929 . S
H249 C282 0.930 1_655 S
H250 C283 0.930 . S
H251 C281 0.929 . S
H252 C284 0.928 . S
O253 Co237 2.057 . S
O253 C241 1.232 . S
H254 C273 0.929 . S
H255 C274 0.929 . S
H256 C286 0.931 . S
H257 C278 0.929 . S
H258 C287 0.923 1_655 S
H259 C279 0.931 . S
O260 Co236 2.097 . S
O260 C288 1.214 . S
H261 C289 0.929 . S
H262 C290 0.929 . S
H263 C291 0.930 . S
H264 C292 0.929 . S
H265 C294 0.930 . S
H266 C271 0.930 . S
H267 C275 0.930 . S
O268 Co237 2.037 . S
O268 C288 1.234 . S
C269 O243 1.269 . S
C269 O244 1.257 . S
C270 H245 0.930 . S
C270 C273 1.388 . S
C270 C275 1.418 . S
C271 H266 0.930 . S
C271 C274 1.404 . S
C271 C275 1.353 . S
N272 Co237 2.145 . S
N272 C273 1.397 . S
N272 C274 1.334 . S
C273 H254 0.929 . S
C273 C270 1.388 . S
C273 N272 1.397 . S
C274 H255 0.929 . S
C274 C271 1.404 . S
C274 N272 1.334 . S
C275 H267 0.930 . S
C275 C270 1.418 . S
C275 C271 1.353 . S
C276 H246 0.930 . S
C276 N277 1.330 . S
C276 C278 1.446 1_455 S
N277 Co236 2.151 . S
N277 C276 1.330 . S
N277 C281 1.418 1_455 S
C278 H257 0.929 . S
C278 C276 1.446 1_655 S
C278 C279 1.332 . S
C279 H259 0.931 . S
C279 C278 1.332 . S
C279 C280 1.267 . S
C280 H248 0.929 . S
C280 C279 1.267 . S
C280 C281 1.251 . S
C281 H251 0.929 . S
C281 N277 1.418 1_655 S
C281 C280 1.251 . S
C282 H249 0.930 1_455 S
C282 C284 1.406 . S
C282 C287 1.262 . S
C283 H250 0.930 . S
C283 N285 1.325 . S
C283 C286 1.357 . S
C284 H252 0.928 . S
C284 C282 1.406 . S
C284 N285 1.261 . S
N285 Co236 2.214 . S
N285 C283 1.325 . S
N285 C284 1.261 . S
C286 H256 0.931 . S
C286 C283 1.357 . S
C286 C287 1.318 . S
C287 H258 0.923 1_455 S
C287 C282 1.262 . S
C287 C286 1.318 . S
C288 O260 1.214 . S
C288 O268 1.234 . S
C289 H261 0.929 . S
C289 C292 1.391 . S
C289 C294 1.391 . S
C290 H262 0.929 . S
C290 C291 1.390 . S
C290 N293 1.391 . S
C291 H263 0.930 . S
C291 C290 1.390 . S
C291 C292 1.392 . S
C292 H264 0.929 . S
C292 C289 1.391 . S
C292 C291 1.392 . S
N293 Co237 2.257 . S
N293 C290 1.391 . S
N293 C294 1.388 . S
C294 H265 0.930 . S
C294 C289 1.391 . S
C294 N293 1.388 . S
Co295 O297 2.143 . S
Co295 O303 2.074 . S
Co295 O306 2.093 . S
Co295 O319 2.097 . S
Co295 N336 2.151 . S
Co295 N344 2.214 . S
Co296 O297 2.160 . S
Co296 O302 2.058 . S
Co296 O312 2.057 . S
Co296 O327 2.037 . S
Co296 N331 2.145 . S
Co296 N352 2.257 . S
O297 Co295 2.143 . S
O297 Co296 2.160 . S
C298 O299 1.278 . S
C298 O306 1.224 . S
O299 C298 1.278 . S
C300 O301 1.245 . S
C300 O312 1.232 . S
O301 C300 1.245 . S
O302 Co296 2.058 . S
O302 C328 1.269 . S
O303 Co295 2.074 . S
O303 C328 1.257 . S
H304 C329 0.930 . S
H305 C335 0.930 . S
O306 Co295 2.093 . S
O306 C298 1.224 . S
H307 C339 0.929 . S
H308 C341 0.930 . S
H309 C342 0.930 . S
H310 C340 0.929 . S
H311 C343 0.928 . S
O312 Co296 2.057 . S
O312 C300 1.232 . S
H313 C332 0.929 . S
H314 C333 0.929 . S
H315 C345 0.931 . S
H316 C337 0.929 . S
H317 C346 0.930 . S
H318 C338 0.931 . S
O319 Co295 2.097 . S
O319 C347 1.214 . S
H320 C348 0.929 . S
H321 C349 0.929 . S
H322 C350 0.930 . S
H323 C351 0.929 . S
H324 C353 0.930 . S
H325 C330 0.930 . S
H326 C334 0.930 . S
O327 Co296 2.037 . S
O327 C347 1.234 . S
C328 O302 1.269 . S
C328 O303 1.257 . S
C329 H304 0.930 . S
C329 C332 1.388 . S
C329 C334 1.418 . S
C330 H325 0.930 . S
C330 C333 1.404 . S
C330 C334 1.353 . S
N331 Co296 2.145 . S
N331 C332 1.397 . S
N331 C333 1.334 . S
C332 H313 0.929 . S
C332 C329 1.388 . S
C332 N331 1.397 . S
C333 H314 0.929 . S
C333 C330 1.404 . S
C333 N331 1.334 . S
C334 H326 0.930 . S
C334 C329 1.418 . S
C334 C330 1.353 . S
C335 H305 0.930 . S
C335 N336 1.330 . S
C335 C337 1.446 . S
N336 Co295 2.151 . S
N336 C335 1.330 . S
N336 C340 1.418 . S
C337 H316 0.929 . S
C337 C335 1.446 . S
C337 C338 1.332 . S
C338 H318 0.931 . S
C338 C337 1.332 . S
C338 C339 1.267 . S
C339 H307 0.929 . S
C339 C338 1.267 . S
C339 C340 1.251 . S
C340 H310 0.929 . S
C340 N336 1.418 . S
C340 C339 1.251 . S
C341 H308 0.930 . S
C341 C343 1.406 . S
C341 C346 1.261 . S
C342 H309 0.930 . S
C342 N344 1.325 . S
C342 C345 1.357 . S
C343 H311 0.928 . S
C343 C341 1.406 . S
C343 N344 1.261 . S
N344 Co295 2.214 . S
N344 C342 1.325 . S
N344 C343 1.261 . S
C345 H315 0.931 . S
C345 C342 1.357 . S
C345 C346 1.312 . S
C346 H317 0.930 . S
C346 C341 1.261 . S
C346 C345 1.312 . S
C347 O319 1.214 . S
C347 O327 1.234 . S
C348 H320 0.929 . S
C348 C351 1.391 . S
C348 C353 1.391 . S
C349 H321 0.929 . S
C349 C350 1.390 . S
C349 N352 1.391 . S
C350 H322 0.930 . S
C350 C349 1.390 . S
C350 C351 1.392 . S
C351 H323 0.929 . S
C351 C348 1.391 . S
C351 C350 1.392 . S
N352 Co296 2.257 . S
N352 C349 1.391 . S
N352 C353 1.388 . S
C353 H324 0.930 . S
C353 C348 1.391 . S
C353 N352 1.388 . S
Co354 O356 2.143 . S
Co354 O362 2.074 . S
Co354 O365 2.093 . S
Co354 O378 2.097 . S
Co354 N395 2.151 . S
Co354 N403 2.214 . S
Co355 O356 2.160 . S
Co355 O361 2.058 . S
Co355 O371 2.057 . S
Co355 O386 2.037 . S
Co355 N390 2.145 . S
Co355 N411 2.257 . S
O356 Co354 2.143 . S
O356 Co355 2.160 . S
C357 O358 1.278 . S
C357 O365 1.224 . S
O358 C357 1.278 . S
C359 O360 1.245 . S
C359 O371 1.232 . S
O360 C359 1.245 . S
O361 Co355 2.058 . S
O361 C387 1.269 . S
O362 Co354 2.074 . S
O362 C387 1.257 . S
H363 C388 0.930 . S
H364 C394 0.930 . S
O365 Co354 2.093 . S
O365 C357 1.224 . S
H366 C398 0.929 . S
H367 C400 0.930 . S
H368 C401 0.930 . S
H369 C399 0.929 . S
H370 C402 0.928 . S
O371 Co355 2.057 . S
O371 C359 1.232 . S
H372 C391 0.929 . S
H373 C392 0.929 . S
H374 C404 0.931 . S
H375 C396 0.929 . S
H376 C405 0.930 . S
H377 C397 0.931 . S
O378 Co354 2.097 . S
O378 C406 1.214 . S
H379 C407 0.929 . S
H380 C408 0.929 . S
H381 C409 0.930 . S
H382 C410 0.929 . S
H383 C412 0.930 . S
H384 C389 0.930 . S
H385 C393 0.930 . S
O386 Co355 2.037 . S
O386 C406 1.234 . S
C387 O361 1.269 . S
C387 O362 1.257 . S
C388 H363 0.930 . S
C388 C391 1.388 . S
C388 C393 1.418 . S
C389 H384 0.930 . S
C389 C392 1.404 . S
C389 C393 1.353 . S
N390 Co355 2.145 . S
N390 C391 1.397 . S
N390 C392 1.334 . S
C391 H372 0.929 . S
C391 C388 1.388 . S
C391 N390 1.397 . S
C392 H373 0.929 . S
C392 C389 1.404 . S
C392 N390 1.334 . S
C393 H385 0.930 . S
C393 C388 1.418 . S
C393 C389 1.353 . S
C394 H364 0.930 . S
C394 N395 1.330 . S
C394 C396 1.446 . S
N395 Co354 2.151 . S
N395 C394 1.330 . S
N395 C399 1.418 . S
C396 H375 0.929 . S
C396 C394 1.446 . S
C396 C397 1.332 . S
C397 H377 0.931 . S
C397 C396 1.332 . S
C397 C398 1.267 . S
C398 H366 0.929 . S
C398 C397 1.267 . S
C398 C399 1.251 . S
C399 H369 0.929 . S
C399 N395 1.418 . S
C399 C398 1.251 . S
C400 H367 0.930 . S
C400 C402 1.406 . S
C400 C405 1.261 . S
C401 H368 0.930 . S
C401 N403 1.325 . S
C401 C404 1.357 . S
C402 H370 0.928 . S
C402 C400 1.406 . S
C402 N403 1.261 . S
N403 Co354 2.214 . S
N403 C401 1.325 . S
N403 C402 1.261 . S
C404 H374 0.931 . S
C404 C401 1.357 . S
C404 C405 1.312 . S
C405 H376 0.930 . S
C405 C400 1.261 . S
C405 C404 1.312 . S
C406 O378 1.214 . S
C406 O386 1.234 . S
C407 H379 0.929 . S
C407 C410 1.391 . S
C407 C412 1.391 . S
C408 H380 0.929 . S
C408 C409 1.390 . S
C408 N411 1.391 . S
C409 H381 0.930 . S
C409 C408 1.390 . S
C409 C410 1.392 . S
C410 H382 0.929 . S
C410 C407 1.391 . S
C410 C409 1.392 . S
N411 Co355 2.257 . S
N411 C408 1.391 . S
N411 C412 1.388 . S
C412 H383 0.930 . S
C412 C407 1.391 . S
C412 N411 1.388 . S
Co413 O415 2.143 . S
Co413 O421 2.074 . S
Co413 O424 2.093 1_556 S
Co413 O437 2.097 . S
Co413 N454 2.151 1_556 S
Co413 N462 2.214 . S
Co414 O415 2.160 . S
Co414 O420 2.058 . S
Co414 O430 2.057 . S
Co414 O445 2.037 . S
Co414 N449 2.145 . S
Co414 N470 2.257 . S
O415 Co413 2.143 . S
O415 Co414 2.160 . S
C416 O417 1.278 . S
C416 O424 1.224 . S
O417 C416 1.278 . S
C418 O419 1.245 . S
C418 O430 1.232 . S
O419 C418 1.245 . S
O420 Co414 2.058 . S
O420 C446 1.269 . S
O421 Co413 2.074 . S
O421 C446 1.257 . S
H422 C447 0.930 . S
H423 C453 0.930 . S
O424 Co413 2.093 1_554 S
O424 C416 1.224 . S
H425 C457 0.929 . S
H426 C459 0.930 . S
H427 C460 0.930 . S
H428 C458 0.913 1_556 S
H429 C461 0.928 . S
O430 Co414 2.057 . S
O430 C418 1.232 . S
H431 C450 0.929 . S
H432 C451 0.929 . S
H433 C463 0.931 . S
H434 C455 0.929 . S
H435 C464 0.930 . S
H436 C456 0.931 . S
O437 Co413 2.097 . S
O437 C465 1.214 . S
H438 C466 0.929 1_554 S
H439 C467 0.929 . S
H440 C468 0.930 . S
H441 C469 0.929 . S
H442 C471 0.930 . S
H443 C448 0.930 . S
H444 C452 0.930 . S
O445 Co414 2.037 . S
O445 C465 1.234 . S
C446 O420 1.269 . S
C446 O421 1.257 . S
C447 H422 0.930 . S
C447 C450 1.388 . S
C447 C452 1.418 . S
C448 H443 0.930 . S
C448 C451 1.404 . S
C448 C452 1.353 . S
N449 Co414 2.145 . S
N449 C450 1.397 . S
N449 C451 1.334 . S
C450 H431 0.929 . S
C450 C447 1.388 . S
C450 N449 1.397 . S
C451 H432 0.929 . S
C451 C448 1.404 . S
C451 N449 1.334 . S
C452 H444 0.930 . S
C452 C447 1.418 . S
C452 C448 1.353 . S
C453 H423 0.930 . S
C453 N454 1.330 . S
C453 C455 1.446 . S
N454 Co413 2.151 1_554 S
N454 C453 1.330 . S
N454 C458 1.418 . S
C455 H434 0.929 . S
C455 C453 1.446 . S
C455 C456 1.332 . S
C456 H436 0.931 . S
C456 C455 1.332 . S
C456 C457 1.267 . S
C457 H425 0.929 . S
C457 C456 1.267 . S
C457 C458 1.251 . S
C458 H428 0.913 1_554 S
C458 N454 1.418 . S
C458 C457 1.251 . S
C459 H426 0.930 . S
C459 C461 1.406 . S
C459 C464 1.261 1_654 S
C460 H427 0.930 . S
C460 N462 1.325 . S
C460 C463 1.357 . S
C461 H429 0.928 . S
C461 C459 1.406 . S
C461 N462 1.261 1_554 S
N462 Co413 2.214 . S
N462 C460 1.325 . S
N462 C461 1.261 1_556 S
C463 H433 0.931 . S
C463 C460 1.357 . S
C463 C464 1.312 1_655 S
C464 H435 0.930 . S
C464 C459 1.261 1_456 S
C464 C463 1.312 1_455 S
C465 O437 1.214 . S
C465 O445 1.234 . S
C466 H438 0.929 1_556 S
C466 C469 1.391 . S
C466 C471 1.391 . S
C467 H439 0.929 . S
C467 C468 1.390 . S
C467 N470 1.391 . S
C468 H440 0.930 . S
C468 C467 1.390 . S
C468 C469 1.392 . S
C469 H441 0.929 . S
C469 C466 1.391 . S
C469 C468 1.392 . S
N470 Co414 2.257 . S
N470 C467 1.391 . S
N470 C471 1.388 . S
C471 H442 0.930 . S
C471 C466 1.391 . S
C471 N470 1.388 . S
Co472 O474 2.143 . S
Co472 O480 2.074 . S
Co472 O483 2.093 . S
Co472 O496 2.097 . S
Co472 N513 2.151 . S
Co472 N521 2.214 . S
Co473 O474 2.160 . S
Co473 O479 2.058 . S
Co473 O489 2.057 . S
Co473 O504 2.037 . S
Co473 N508 2.145 . S
Co473 N529 2.257 . S
O474 Co472 2.143 . S
O474 Co473 2.160 . S
C475 O476 1.278 . S
C475 O483 1.224 . S
O476 C475 1.278 . S
C477 O478 1.245 . S
C477 O489 1.232 . S
O478 C477 1.245 . S
O479 Co473 2.058 . S
O479 C505 1.269 . S
O480 Co472 2.074 . S
O480 C505 1.257 . S
H481 C506 0.930 . S
H482 C512 0.930 . S
O483 Co472 2.093 . S
O483 C475 1.224 . S
H484 C516 0.929 . S
H485 C518 0.930 1_455 S
H486 C519 0.930 . S
H487 C517 0.929 . S
H488 C520 0.928 . S
O489 Co473 2.057 . S
O489 C477 1.232 . S
H490 C509 0.929 . S
H491 C510 0.929 . S
H492 C522 0.931 . S
H493 C514 0.929 . S
H494 C523 0.923 1_455 S
H495 C515 0.931 . S
O496 Co472 2.097 . S
O496 C524 1.214 . S
H497 C525 0.929 . S
H498 C526 0.929 . S
H499 C527 0.930 . S
H500 C528 0.929 . S
H501 C530 0.930 . S
H502 C507 0.930 . S
H503 C511 0.930 . S
O504 Co473 2.037 . S
O504 C524 1.234 . S
C505 O479 1.269 . S
C505 O480 1.257 . S
C506 H481 0.930 . S
C506 C509 1.388 . S
C506 C511 1.418 . S
C507 H502 0.930 . S
C507 C510 1.404 . S
C507 C511 1.353 . S
N508 Co473 2.145 . S
N508 C509 1.397 . S
N508 C510 1.334 . S
C509 H490 0.929 . S
C509 C506 1.388 . S
C509 N508 1.397 . S
C510 H491 0.929 . S
C510 C507 1.404 . S
C510 N508 1.334 . S
C511 H503 0.930 . S
C511 C506 1.418 . S
C511 C507 1.353 . S
C512 H482 0.930 . S
C512 N513 1.330 . S
C512 C514 1.446 1_655 S
N513 Co472 2.151 . S
N513 C512 1.330 . S
N513 C517 1.418 1_655 S
C514 H493 0.929 . S
C514 C512 1.446 1_455 S
C514 C515 1.332 . S
C515 H495 0.931 . S
C515 C514 1.332 . S
C515 C516 1.267 . S
C516 H484 0.929 . S
C516 C515 1.267 . S
C516 C517 1.251 . S
C517 H487 0.929 . S
C517 N513 1.418 1_455 S
C517 C516 1.251 . S
C518 H485 0.930 1_655 S
C518 C520 1.406 . S
C518 C523 1.262 . S
C519 H486 0.930 . S
C519 N521 1.325 . S
C519 C522 1.357 . S
C520 H488 0.928 . S
C520 C518 1.406 . S
C520 N521 1.261 . S
N521 Co472 2.214 . S
N521 C519 1.325 . S
N521 C520 1.261 . S
C522 H492 0.931 . S
C522 C519 1.357 . S
C522 C523 1.318 . S
C523 H494 0.923 1_655 S
C523 C518 1.262 . S
C523 C522 1.318 . S
C524 O496 1.214 . S
C524 O504 1.234 . S
C525 H497 0.929 . S
C525 C528 1.391 . S
C525 C530 1.391 . S
C526 H498 0.929 . S
C526 C527 1.390 . S
C526 N529 1.391 . S
C527 H499 0.930 . S
C527 C526 1.390 . S
C527 C528 1.392 . S
C528 H500 0.929 . S
C528 C525 1.391 . S
C528 C527 1.392 . S
N529 Co473 2.257 . S
N529 C526 1.391 . S
N529 C530 1.388 . S
C530 H501 0.930 . S
C530 C525 1.391 . S
C530 N529 1.388 . S
Co531 O533 2.143 . S
Co531 O539 2.074 . S
Co531 O542 2.093 . S
Co531 O555 2.097 . S
Co531 N572 2.151 . S
Co531 N580 2.214 . S
Co532 O533 2.160 . S
Co532 O538 2.058 . S
Co532 O548 2.057 . S
Co532 O563 2.037 . S
Co532 N567 2.145 . S
Co532 N588 2.257 . S
O533 Co531 2.143 . S
O533 Co532 2.160 . S
C534 O535 1.278 . S
C534 O542 1.224 . S
O535 C534 1.278 . S
C536 O537 1.245 . S
C536 O548 1.232 . S
O537 C536 1.245 . S
O538 Co532 2.058 . S
O538 C564 1.269 . S
O539 Co531 2.074 . S
O539 C564 1.257 . S
H540 C565 0.930 . S
H541 C571 0.930 . S
O542 Co531 2.093 . S
O542 C534 1.224 . S
H543 C575 0.929 . S
H544 C577 0.930 . S
H545 C578 0.930 . S
H546 C576 0.929 . S
H547 C579 0.928 . S
O548 Co532 2.057 . S
O548 C536 1.232 . S
H549 C568 0.929 . S
H550 C569 0.929 . S
H551 C581 0.931 . S
H552 C573 0.929 . S
H553 C582 0.930 . S
H554 C574 0.931 . S
O555 Co531 2.097 . S
O555 C583 1.214 . S
H556 C584 0.929 . S
H557 C585 0.929 . S
H558 C586 0.930 . S
H559 C587 0.929 . S
H560 C589 0.930 . S
H561 C566 0.930 . S
H562 C570 0.930 . S
O563 Co532 2.037 . S
O563 C583 1.234 . S
C564 O538 1.269 . S
C564 O539 1.257 . S
C565 H540 0.930 . S
C565 C568 1.388 . S
C565 C570 1.418 . S
C566 H561 0.930 . S
C566 C569 1.404 . S
C566 C570 1.353 . S
N567 Co532 2.145 . S
N567 C568 1.397 . S
N567 C569 1.334 . S
C568 H549 0.929 . S
C568 C565 1.388 . S
C568 N567 1.397 . S
C569 H550 0.929 . S
C569 C566 1.404 . S
C569 N567 1.334 . S
C570 H562 0.930 . S
C570 C565 1.418 . S
C570 C566 1.353 . S
C571 H541 0.930 . S
C571 N572 1.330 . S
C571 C573 1.446 . S
N572 Co531 2.151 . S
N572 C571 1.330 . S
N572 C576 1.418 . S
C573 H552 0.929 . S
C573 C571 1.446 . S
C573 C574 1.332 . S
C574 H554 0.931 . S
C574 C573 1.332 . S
C574 C575 1.267 . S
C575 H543 0.929 . S
C575 C574 1.267 . S
C575 C576 1.251 . S
C576 H546 0.929 . S
C576 N572 1.418 . S
C576 C575 1.251 . S
C577 H544 0.930 . S
C577 C579 1.406 . S
C577 C582 1.261 1_455 S
C578 H545 0.930 . S
C578 N580 1.325 . S
C578 C581 1.357 . S
C579 H547 0.928 . S
C579 C577 1.406 . S
C579 N580 1.261 . S
N580 Co531 2.214 . S
N580 C578 1.325 . S
N580 C579 1.261 . S
C581 H551 0.931 . S
C581 C578 1.357 . S
C581 C582 1.312 1_455 S
C582 H553 0.930 . S
C582 C577 1.261 1_655 S
C582 C581 1.312 1_655 S
C583 O555 1.214 . S
C583 O563 1.234 . S
C584 H556 0.929 . S
C584 C587 1.391 . S
C584 C589 1.391 . S
C585 H557 0.929 . S
C585 C586 1.390 . S
C585 N588 1.391 . S
C586 H558 0.930 . S
C586 C585 1.390 . S
C586 C587 1.392 . S
C587 H559 0.929 . S
C587 C584 1.391 . S
C587 C586 1.392 . S
N588 Co532 2.257 . S
N588 C585 1.391 . S
N588 C589 1.388 . S
C589 H560 0.930 . S
C589 C584 1.391 . S
C589 N588 1.388 . S
Co590 O592 2.143 . S
Co590 O598 2.074 . S
Co590 O601 2.093 . S
Co590 O614 2.097 . S
Co590 N631 2.151 . S
Co590 N639 2.214 . S
Co591 O592 2.160 . S
Co591 O597 2.058 . S
Co591 O607 2.057 . S
Co591 O622 2.037 . S
Co591 N626 2.145 . S
Co591 N647 2.257 . S
O592 Co590 2.143 . S
O592 Co591 2.160 . S
C593 O594 1.278 . S
C593 O601 1.224 . S
O594 C593 1.278 . S
C595 O596 1.245 . S
C595 O607 1.232 . S
O596 C595 1.245 . S
O597 Co591 2.058 . S
O597 C623 1.269 . S
O598 Co590 2.074 . S
O598 C623 1.257 . S
H599 C624 0.930 . S
H600 C630 0.930 . S
O601 Co590 2.093 . S
O601 C593 1.224 . S
H602 C634 0.929 . S
H603 C636 0.930 . S
H604 C637 0.930 . S
H605 C635 0.929 . S
H606 C638 0.928 . S
O607 Co591 2.057 . S
O607 C595 1.232 . S
H608 C627 0.929 . S
H609 C628 0.929 . S
H610 C640 0.931 . S
H611 C632 0.929 . S
H612 C641 0.930 . S
H613 C633 0.931 . S
O614 Co590 2.097 . S
O614 C642 1.214 . S
H615 C643 0.929 . S
H616 C644 0.929 . S
H617 C645 0.930 . S
H618 C646 0.929 . S
H619 C648 0.930 . S
H620 C625 0.930 . S
H621 C629 0.930 . S
O622 Co591 2.037 . S
O622 C642 1.234 . S
C623 O597 1.269 . S
C623 O598 1.257 . S
C624 H599 0.930 . S
C624 C627 1.388 . S
C624 C629 1.418 . S
C625 H620 0.930 . S
C625 C628 1.404 . S
C625 C629 1.353 . S
N626 Co591 2.145 . S
N626 C627 1.397 . S
N626 C628 1.334 . S
C627 H608 0.929 . S
C627 C624 1.388 . S
C627 N626 1.397 . S
C628 H609 0.929 . S
C628 C625 1.404 . S
C628 N626 1.334 . S
C629 H621 0.930 . S
C629 C624 1.418 . S
C629 C625 1.353 . S
C630 H600 0.930 . S
C630 N631 1.330 . S
C630 C632 1.446 . S
N631 Co590 2.151 . S
N631 C630 1.330 . S
N631 C635 1.418 . S
C632 H611 0.929 . S
C632 C630 1.446 . S
C632 C633 1.332 . S
C633 H613 0.931 . S
C633 C632 1.332 . S
C633 C634 1.267 . S
C634 H602 0.929 . S
C634 C633 1.267 . S
C634 C635 1.251 . S
C635 H605 0.929 . S
C635 N631 1.418 . S
C635 C634 1.251 . S
C636 H603 0.930 . S
C636 C638 1.406 . S
C636 C641 1.261 . S
C637 H604 0.930 . S
C637 N639 1.325 . S
C637 C640 1.357 . S
C638 H606 0.928 . S
C638 C636 1.406 . S
C638 N639 1.261 . S
N639 Co590 2.214 . S
N639 C637 1.325 . S
N639 C638 1.261 . S
C640 H610 0.931 . S
C640 C637 1.357 . S
C640 C641 1.312 . S
C641 H612 0.930 . S
C641 C636 1.261 . S
C641 C640 1.312 . S
C642 O614 1.214 . S
C642 O622 1.234 . S
C643 H615 0.929 . S
C643 C646 1.391 . S
C643 C648 1.391 . S
C644 H616 0.929 . S
C644 C645 1.390 . S
C644 N647 1.391 . S
C645 H617 0.930 . S
C645 C644 1.390 . S
C645 C646 1.392 . S
C646 H618 0.929 . S
C646 C643 1.391 . S
C646 C645 1.392 . S
N647 Co591 2.257 . S
N647 C644 1.391 . S
N647 C648 1.388 . S
C648 H619 0.930 . S
C648 C643 1.391 . S
C648 N647 1.388 . S
Co649 O651 2.143 . S
Co649 O657 2.074 . S
Co649 O660 2.093 1_556 S
Co649 O673 2.097 . S
Co649 N690 2.151 1_556 S
Co649 N698 2.214 . S
Co650 O651 2.160 . S
Co650 O656 2.058 . S
Co650 O666 2.057 . S
Co650 O681 2.037 . S
Co650 N685 2.145 . S
Co650 N706 2.257 . S
O651 Co649 2.143 . S
O651 Co650 2.160 . S
C652 O653 1.278 . S
C652 O660 1.224 . S
O653 C652 1.278 . S
C654 O655 1.245 . S
C654 O666 1.232 . S
O655 C654 1.245 . S
O656 Co650 2.058 . S
O656 C682 1.269 . S
O657 Co649 2.074 . S
O657 C682 1.257 . S
H658 C683 0.930 . S
H659 C689 0.930 . S
O660 Co649 2.093 1_554 S
O660 C652 1.224 . S
H661 C693 0.929 . S
H662 C695 0.930 . S
H663 C696 0.930 . S
H664 C694 0.913 1_556 S
H665 C697 0.928 . S
O666 Co650 2.057 . S
O666 C654 1.232 . S
H667 C686 0.929 . S
H668 C687 0.929 . S
H669 C699 0.931 . S
H670 C691 0.929 . S
H671 C700 0.930 . S
H672 C692 0.931 . S
O673 Co649 2.097 . S
O673 C701 1.214 . S
H674 C702 0.929 1_554 S
H675 C703 0.929 . S
H676 C704 0.930 . S
H677 C705 0.929 . S
H678 C707 0.930 . S
H679 C684 0.930 . S
H680 C688 0.930 . S
O681 Co650 2.037 . S
O681 C701 1.234 . S
C682 O656 1.269 . S
C682 O657 1.257 . S
C683 H658 0.930 . S
C683 C686 1.388 . S
C683 C688 1.418 . S
C684 H679 0.930 . S
C684 C687 1.404 . S
C684 C688 1.353 . S
N685 Co650 2.145 . S
N685 C686 1.397 . S
N685 C687 1.334 . S
C686 H667 0.929 . S
C686 C683 1.388 . S
C686 N685 1.397 . S
C687 H668 0.929 . S
C687 C684 1.404 . S
C687 N685 1.334 . S
C688 H680 0.930 . S
C688 C683 1.418 . S
C688 C684 1.353 . S
C689 H659 0.930 . S
C689 N690 1.330 . S
C689 C691 1.446 . S
N690 Co649 2.151 1_554 S
N690 C689 1.330 . S
N690 C694 1.418 . S
C691 H670 0.929 . S
C691 C689 1.446 . S
C691 C692 1.332 . S
C692 H672 0.931 . S
C692 C691 1.332 . S
C692 C693 1.267 . S
C693 H661 0.929 . S
C693 C692 1.267 . S
C693 C694 1.251 . S
C694 H664 0.913 1_554 S
C694 N690 1.418 . S
C694 C693 1.251 . S
C695 H662 0.930 . S
C695 C697 1.406 . S
C695 C700 1.261 1_554 S
C696 H663 0.930 . S
C696 N698 1.325 . S
C696 C699 1.357 . S
C697 H665 0.928 . S
C697 C695 1.406 . S
C697 N698 1.261 1_554 S
N698 Co649 2.214 . S
N698 C696 1.325 . S
N698 C697 1.261 1_556 S
C699 H669 0.931 . S
C699 C696 1.357 . S
C699 C700 1.312 . S
C700 H671 0.930 . S
C700 C695 1.261 1_556 S
C700 C699 1.312 . S
C701 O673 1.214 . S
C701 O681 1.234 . S
C702 H674 0.929 1_556 S
C702 C705 1.391 . S
C702 C707 1.391 . S
C703 H675 0.929 . S
C703 C704 1.390 . S
C703 N706 1.391 . S
C704 H676 0.930 . S
C704 C703 1.390 . S
C704 C705 1.392 . S
C705 H677 0.929 . S
C705 C702 1.391 . S
C705 C704 1.392 . S
N706 Co650 2.257 . S
N706 C703 1.391 . S
N706 C707 1.388 . S
C707 H678 0.930 . S
C707 C702 1.391 . S
C707 N706 1.388 . S
Co708 O710 2.143 . S
Co708 O716 2.074 . S
Co708 O719 2.093 . S
Co708 O732 2.097 . S
Co708 N749 2.151 . S
Co708 N757 2.214 . S
Co709 O710 2.160 . S
Co709 O715 2.058 . S
Co709 O725 2.057 . S
Co709 O740 2.037 . S
Co709 N744 2.145 . S
Co709 N765 2.257 . S
O710 Co708 2.143 . S
O710 Co709 2.160 . S
C711 O712 1.278 . S
C711 O719 1.224 . S
O712 C711 1.278 . S
C713 O714 1.245 . S
C713 O725 1.232 . S
O714 C713 1.245 . S
O715 Co709 2.058 . S
O715 C741 1.269 . S
O716 Co708 2.074 . S
O716 C741 1.257 . S
H717 C742 0.930 . S
H718 C748 0.930 . S
O719 Co708 2.093 . S
O719 C711 1.224 . S
H720 C752 0.929 . S
H721 C754 0.930 1_455 S
H722 C755 0.930 . S
H723 C753 0.929 . S
H724 C756 0.928 . S
O725 Co709 2.057 . S
O725 C713 1.232 . S
H726 C745 0.929 . S
H727 C746 0.929 . S
H728 C758 0.931 . S
H729 C750 0.929 . S
H730 C759 0.923 1_455 S
H731 C751 0.931 . S
O732 Co708 2.097 . S
O732 C760 1.214 . S
H733 C761 0.929 . S
H734 C762 0.929 . S
H735 C763 0.930 . S
H736 C764 0.929 . S
H737 C766 0.930 . S
H738 C743 0.930 . S
H739 C747 0.930 . S
O740 Co709 2.037 . S
O740 C760 1.234 . S
C741 O715 1.269 . S
C741 O716 1.257 . S
C742 H717 0.930 . S
C742 C745 1.388 . S
C742 C747 1.418 . S
C743 H738 0.930 . S
C743 C746 1.404 . S
C743 C747 1.353 . S
N744 Co709 2.145 . S
N744 C745 1.397 . S
N744 C746 1.334 . S
C745 H726 0.929 . S
C745 C742 1.388 . S
C745 N744 1.397 . S
C746 H727 0.929 . S
C746 C743 1.404 . S
C746 N744 1.334 . S
C747 H739 0.930 . S
C747 C742 1.418 . S
C747 C743 1.353 . S
C748 H718 0.930 . S
C748 N749 1.330 . S
C748 C750 1.446 1_655 S
N749 Co708 2.151 . S
N749 C748 1.330 . S
N749 C753 1.418 1_655 S
C750 H729 0.929 . S
C750 C748 1.446 1_455 S
C750 C751 1.332 . S
C751 H731 0.931 . S
C751 C750 1.332 . S
C751 C752 1.267 . S
C752 H720 0.929 . S
C752 C751 1.267 . S
C752 C753 1.251 . S
C753 H723 0.929 . S
C753 N749 1.418 1_455 S
C753 C752 1.251 . S
C754 H721 0.930 1_655 S
C754 C756 1.406 . S
C754 C759 1.262 . S
C755 H722 0.930 . S
C755 N757 1.325 . S
C755 C758 1.357 . S
C756 H724 0.928 . S
C756 C754 1.406 . S
C756 N757 1.261 . S
N757 Co708 2.214 . S
N757 C755 1.325 . S
N757 C756 1.261 . S
C758 H728 0.931 . S
C758 C755 1.357 . S
C758 C759 1.318 . S
C759 H730 0.923 1_655 S
C759 C754 1.262 . S
C759 C758 1.318 . S
C760 O732 1.214 . S
C760 O740 1.234 . S
C761 H733 0.929 . S
C761 C764 1.391 . S
C761 C766 1.391 . S
C762 H734 0.929 . S
C762 C763 1.390 . S
C762 N765 1.391 . S
C763 H735 0.930 . S
C763 C762 1.390 . S
C763 C764 1.392 . S
C764 H736 0.929 . S
C764 C761 1.391 . S
C764 C763 1.392 . S
N765 Co709 2.257 . S
N765 C762 1.391 . S
N765 C766 1.388 . S
C766 H737 0.930 . S
C766 C761 1.391 . S
C766 N765 1.388 . S
Co767 O769 2.143 . S
Co767 O775 2.074 . S
Co767 O778 2.093 . S
Co767 O791 2.097 . S
Co767 N808 2.151 . S
Co767 N816 2.214 . S
Co768 O769 2.160 . S
Co768 O774 2.058 . S
Co768 O784 2.057 . S
Co768 O799 2.037 . S
Co768 N803 2.145 . S
Co768 N824 2.257 . S
O769 Co767 2.143 . S
O769 Co768 2.160 . S
C770 O771 1.278 . S
C770 O778 1.224 . S
O771 C770 1.278 . S
C772 O773 1.245 . S
C772 O784 1.232 . S
O773 C772 1.245 . S
O774 Co768 2.058 . S
O774 C800 1.269 . S
O775 Co767 2.074 . S
O775 C800 1.257 . S
H776 C801 0.930 . S
H777 C807 0.930 . S
O778 Co767 2.093 . S
O778 C770 1.224 . S
H779 C811 0.929 . S
H780 C813 0.930 . S
H781 C814 0.930 . S
H782 C812 0.929 . S
H783 C815 0.928 . S
O784 Co768 2.057 . S
O784 C772 1.232 . S
H785 C804 0.929 . S
H786 C805 0.929 . S
H787 C817 0.931 . S
H788 C809 0.929 . S
H789 C818 0.930 . S
H790 C810 0.931 . S
O791 Co767 2.097 . S
O791 C819 1.214 . S
H792 C820 0.929 . S
H793 C821 0.929 . S
H794 C822 0.930 . S
H795 C823 0.929 . S
H796 C825 0.930 . S
H797 C802 0.930 . S
H798 C806 0.930 . S
O799 Co768 2.037 . S
O799 C819 1.234 . S
C800 O774 1.269 . S
C800 O775 1.257 . S
C801 H776 0.930 . S
C801 C804 1.388 . S
C801 C806 1.418 . S
C802 H797 0.930 . S
C802 C805 1.404 . S
C802 C806 1.353 . S
N803 Co768 2.145 . S
N803 C804 1.397 . S
N803 C805 1.334 . S
C804 H785 0.929 . S
C804 C801 1.388 . S
C804 N803 1.397 . S
C805 H786 0.929 . S
C805 C802 1.404 . S
C805 N803 1.334 . S
C806 H798 0.930 . S
C806 C801 1.418 . S
C806 C802 1.353 . S
C807 H777 0.930 . S
C807 N808 1.330 . S
C807 C809 1.446 . S
N808 Co767 2.151 . S
N808 C807 1.330 . S
N808 C812 1.418 . S
C809 H788 0.929 . S
C809 C807 1.446 . S
C809 C810 1.332 . S
C810 H790 0.931 . S
C810 C809 1.332 . S
C810 C811 1.267 . S
C811 H779 0.929 . S
C811 C810 1.267 . S
C811 C812 1.251 . S
C812 H782 0.929 . S
C812 N808 1.418 . S
C812 C811 1.251 . S
C813 H780 0.930 . S
C813 C815 1.406 . S
C813 C818 1.261 . S
C814 H781 0.930 . S
C814 N816 1.325 . S
C814 C817 1.357 . S
C815 H783 0.928 . S
C815 C813 1.406 . S
C815 N816 1.261 . S
N816 Co767 2.214 . S
N816 C814 1.325 . S
N816 C815 1.261 . S
C817 H787 0.931 . S
C817 C814 1.357 . S
C817 C818 1.312 . S
C818 H789 0.930 . S
C818 C813 1.261 . S
C818 C817 1.312 . S
C819 O791 1.214 . S
C819 O799 1.234 . S
C820 H792 0.929 . S
C820 C823 1.391 . S
C820 C825 1.391 . S
C821 H793 0.929 . S
C821 C822 1.390 . S
C821 N824 1.391 . S
C822 H794 0.930 . S
C822 C821 1.390 . S
C822 C823 1.392 . S
C823 H795 0.929 . S
C823 C820 1.391 . S
C823 C822 1.392 . S
N824 Co768 2.257 . S
N824 C821 1.391 . S
N824 C825 1.388 . S
C825 H796 0.930 . S
C825 C820 1.391 . S
C825 N824 1.388 . S
Co826 O828 2.143 . S
Co826 O834 2.074 . S
Co826 O837 2.093 . S
Co826 O850 2.097 . S
Co826 N867 2.151 . S
Co826 N875 2.214 . S
Co827 O828 2.160 . S
Co827 O833 2.058 . S
Co827 O843 2.057 . S
Co827 O858 2.037 . S
Co827 N862 2.145 . S
Co827 N883 2.257 . S
O828 Co826 2.143 . S
O828 Co827 2.160 . S
C829 O830 1.278 . S
C829 O837 1.224 . S
O830 C829 1.278 . S
C831 O832 1.245 . S
C831 O843 1.232 . S
O832 C831 1.245 . S
O833 Co827 2.058 . S
O833 C859 1.269 . S
O834 Co826 2.074 . S
O834 C859 1.257 . S
H835 C860 0.930 . S
H836 C866 0.930 . S
O837 Co826 2.093 . S
O837 C829 1.224 . S
H838 C870 0.929 . S
H839 C872 0.930 . S
H840 C873 0.930 . S
H841 C871 0.929 . S
H842 C874 0.928 . S
O843 Co827 2.057 . S
O843 C831 1.232 . S
H844 C863 0.929 . S
H845 C864 0.929 . S
H846 C876 0.931 . S
H847 C868 0.929 . S
H848 C877 0.930 . S
H849 C869 0.931 . S
O850 Co826 2.097 . S
O850 C878 1.214 . S
H851 C879 0.929 . S
H852 C880 0.929 . S
H853 C881 0.930 . S
H854 C882 0.929 . S
H855 C884 0.930 . S
H856 C861 0.930 . S
H857 C865 0.930 . S
O858 Co827 2.037 . S
O858 C878 1.234 . S
C859 O833 1.269 . S
C859 O834 1.257 . S
C860 H835 0.930 . S
C860 C863 1.388 . S
C860 C865 1.418 . S
C861 H856 0.930 . S
C861 C864 1.404 . S
C861 C865 1.353 . S
N862 Co827 2.145 . S
N862 C863 1.397 . S
N862 C864 1.334 . S
C863 H844 0.929 . S
C863 C860 1.388 . S
C863 N862 1.397 . S
C864 H845 0.929 . S
C864 C861 1.404 . S
C864 N862 1.334 . S
C865 H857 0.930 . S
C865 C860 1.418 . S
C865 C861 1.353 . S
C866 H836 0.930 . S
C866 N867 1.330 . S
C866 C868 1.446 . S
N867 Co826 2.151 . S
N867 C866 1.330 . S
N867 C871 1.418 . S
C868 H847 0.929 . S
C868 C866 1.446 . S
C868 C869 1.332 . S
C869 H849 0.931 . S
C869 C868 1.332 . S
C869 C870 1.267 . S
C870 H838 0.929 . S
C870 C869 1.267 . S
C870 C871 1.251 . S
C871 H841 0.929 . S
C871 N867 1.418 . S
C871 C870 1.251 . S
C872 H839 0.930 . S
C872 C874 1.406 . S
C872 C877 1.261 . S
C873 H840 0.930 . S
C873 N875 1.325 . S
C873 C876 1.357 . S
C874 H842 0.928 . S
C874 C872 1.406 . S
C874 N875 1.261 . S
N875 Co826 2.214 . S
N875 C873 1.325 . S
N875 C874 1.261 . S
C876 H846 0.931 . S
C876 C873 1.357 . S
C876 C877 1.312 . S
C877 H848 0.930 . S
C877 C872 1.261 . S
C877 C876 1.312 . S
C878 O850 1.214 . S
C878 O858 1.234 . S
C879 H851 0.929 . S
C879 C882 1.391 . S
C879 C884 1.391 . S
C880 H852 0.929 . S
C880 C881 1.390 . S
C880 N883 1.391 . S
C881 H853 0.930 . S
C881 C880 1.390 . S
C881 C882 1.392 . S
C882 H854 0.929 . S
C882 C879 1.391 . S
C882 C881 1.392 . S
N883 Co827 2.257 . S
N883 C880 1.391 . S
N883 C884 1.388 . S
C884 H855 0.930 . S
C884 C879 1.391 . S
C884 N883 1.388 . S
Co885 O887 2.143 . S
Co885 O893 2.074 . S
Co885 O896 2.093 1_554 S
Co885 O909 2.097 . S
Co885 N926 2.151 1_554 S
Co885 N934 2.214 . S
Co886 O887 2.160 . S
Co886 O892 2.058 . S
Co886 O902 2.057 . S
Co886 O917 2.037 . S
Co886 N921 2.145 . S
Co886 N942 2.257 . S
O887 Co885 2.143 . S
O887 Co886 2.160 . S
C888 O889 1.278 . S
C888 O896 1.224 . S
O889 C888 1.278 . S
C890 O891 1.245 . S
C890 O902 1.232 . S
O891 C890 1.245 . S
O892 Co886 2.058 . S
O892 C918 1.269 . S
O893 Co885 2.074 . S
O893 C918 1.257 . S
H894 C919 0.930 . S
H895 C925 0.930 . S
O896 Co885 2.093 1_556 S
O896 C888 1.224 . S
H897 C929 0.929 . S
H898 C931 0.930 . S
H899 C932 0.930 . S
H900 C930 0.913 1_554 S
H901 C933 0.928 . S
O902 Co886 2.057 . S
O902 C890 1.232 . S
H903 C922 0.929 . S
H904 C923 0.929 . S
H905 C935 0.931 . S
H906 C927 0.929 . S
H907 C936 0.930 . S
H908 C928 0.931 . S
O909 Co885 2.097 . S
O909 C937 1.214 . S
H910 C938 0.929 1_556 S
H911 C939 0.929 . S
H912 C940 0.930 . S
H913 C941 0.929 . S
H914 C943 0.930 . S
H915 C920 0.930 . S
H916 C924 0.930 . S
O917 Co886 2.037 . S
O917 C937 1.234 . S
C918 O892 1.269 . S
C918 O893 1.257 . S
C919 H894 0.930 . S
C919 C922 1.388 . S
C919 C924 1.418 . S
C920 H915 0.930 . S
C920 C923 1.404 . S
C920 C924 1.353 . S
N921 Co886 2.145 . S
N921 C922 1.397 . S
N921 C923 1.334 . S
C922 H903 0.929 . S
C922 C919 1.388 . S
C922 N921 1.397 . S
C923 H904 0.929 . S
C923 C920 1.404 . S
C923 N921 1.334 . S
C924 H916 0.930 . S
C924 C919 1.418 . S
C924 C920 1.353 . S
C925 H895 0.930 . S
C925 N926 1.330 . S
C925 C927 1.446 . S
N926 Co885 2.151 1_556 S
N926 C925 1.330 . S
N926 C930 1.418 . S
C927 H906 0.929 . S
C927 C925 1.446 . S
C927 C928 1.332 . S
C928 H908 0.931 . S
C928 C927 1.332 . S
C928 C929 1.267 . S
C929 H897 0.929 . S
C929 C928 1.267 . S
C929 C930 1.251 . S
C930 H900 0.913 1_556 S
C930 N926 1.418 . S
C930 C929 1.251 . S
C931 H898 0.930 . S
C931 C933 1.406 . S
C931 C936 1.261 1_456 S
C932 H899 0.930 . S
C932 N934 1.325 . S
C932 C935 1.357 . S
C933 H901 0.928 . S
C933 C931 1.406 . S
C933 N934 1.261 1_556 S
N934 Co885 2.214 . S
N934 C932 1.325 . S
N934 C933 1.261 1_554 S
C935 H905 0.931 . S
C935 C932 1.357 . S
C935 C936 1.312 1_455 S
C936 H907 0.930 . S
C936 C931 1.261 1_654 S
C936 C935 1.312 1_655 S
C937 O909 1.214 . S
C937 O917 1.234 . S
C938 H910 0.929 1_554 S
C938 C941 1.391 . S
C938 C943 1.391 . S
C939 H911 0.929 . S
C939 C940 1.390 . S
C939 N942 1.391 . S
C940 H912 0.930 . S
C940 C939 1.390 . S
C940 C941 1.392 . S
C941 H913 0.929 . S
C941 C938 1.391 . S
C941 C940 1.392 . S
N942 Co886 2.257 . S
N942 C939 1.391 . S
N942 C943 1.388 . S
C943 H914 0.930 . S
C943 C938 1.391 . S
C943 N942 1.388 . S
Co944 O946 2.143 . S
Co944 O952 2.074 . S
Co944 O955 2.093 . S
Co944 O968 2.097 . S
Co944 N985 2.151 . S
Co944 N993 2.214 . S
Co945 O946 2.160 . S
Co945 O951 2.058 . S
Co945 O961 2.057 . S
Co945 O976 2.037 . S
Co945 N980 2.145 . S
Co945 N1001 2.257 . S
O946 Co944 2.143 . S
O946 Co945 2.160 . S
C947 O948 1.278 . S
C947 O955 1.224 . S
O948 C947 1.278 . S
C949 O950 1.245 . S
C949 O961 1.232 . S
O950 C949 1.245 . S
O951 Co945 2.058 . S
O951 C977 1.269 . S
O952 Co944 2.074 . S
O952 C977 1.257 . S
H953 C978 0.930 . S
H954 C984 0.930 . S
O955 Co944 2.093 . S
O955 C947 1.224 . S
H956 C988 0.929 . S
H957 C990 0.930 . S
H958 C991 0.930 . S
H959 C989 0.929 . S
H960 C992 0.928 . S
O961 Co945 2.057 . S
O961 C949 1.232 . S
H962 C981 0.929 . S
H963 C982 0.929 . S
H964 C994 0.931 . S
H965 C986 0.929 . S
H966 C995 0.930 . S
H967 C987 0.931 . S
O968 Co944 2.097 . S
O968 C996 1.214 . S
H969 C997 0.929 . S
H970 C998 0.929 . S
H971 C999 0.930 . S
H972 C1000 0.929 . S
H973 C1002 0.930 . S
H974 C979 0.930 . S
H975 C983 0.930 . S
O976 Co945 2.037 . S
O976 C996 1.234 . S
C977 O951 1.269 . S
C977 O952 1.257 . S
C978 H953 0.930 . S
C978 C981 1.388 . S
C978 C983 1.418 . S
C979 H974 0.930 . S
C979 C982 1.404 . S
C979 C983 1.353 . S
N980 Co945 2.145 . S
N980 C981 1.397 . S
N980 C982 1.334 . S
C981 H962 0.929 . S
C981 C978 1.388 . S
C981 N980 1.397 . S
C982 H963 0.929 . S
C982 C979 1.404 . S
C982 N980 1.334 . S
C983 H975 0.930 . S
C983 C978 1.418 . S
C983 C979 1.353 . S
C984 H954 0.930 . S
C984 N985 1.330 . S
C984 C986 1.446 . S
N985 Co944 2.151 . S
N985 C984 1.330 . S
N985 C989 1.418 . S
C986 H965 0.929 . S
C986 C984 1.446 . S
C986 C987 1.332 . S
C987 H967 0.931 . S
C987 C986 1.332 . S
C987 C988 1.267 . S
C988 H956 0.929 . S
C988 C987 1.267 . S
C988 C989 1.251 . S
C989 H959 0.929 . S
C989 N985 1.418 . S
C989 C988 1.251 . S
C990 H957 0.930 . S
C990 C992 1.406 . S
C990 C995 1.261 . S
C991 H958 0.930 . S
C991 N993 1.325 . S
C991 C994 1.357 . S
C992 H960 0.928 . S
C992 C990 1.406 . S
C992 N993 1.261 . S
N993 Co944 2.214 . S
N993 C991 1.325 . S
N993 C992 1.261 . S
C994 H964 0.931 . S
C994 C991 1.357 . S
C994 C995 1.312 . S
C995 H966 0.930 . S
C995 C990 1.261 . S
C995 C994 1.312 . S
C996 O968 1.214 . S
C996 O976 1.234 . S
C997 H969 0.929 . S
C997 C1000 1.391 . S
C997 C1002 1.391 . S
C998 H970 0.929 . S
C998 C999 1.390 . S
C998 N1001 1.391 . S
C999 H971 0.930 . S
C999 C998 1.390 . S
C999 C1000 1.392 . S
C1000 H972 0.929 . S
C1000 C997 1.391 . S
C1000 C999 1.392 . S
N1001 Co945 2.257 . S
N1001 C998 1.391 . S
N1001 C1002 1.388 . S
C1002 H973 0.930 . S
C1002 C997 1.391 . S
C1002 N1001 1.388 . S
Co1003 O1005 2.143 . S
Co1003 O1011 2.074 . S
Co1003 O1014 2.093 1_554 S
Co1003 O1027 2.097 . S
Co1003 N1044 2.151 1_554 S
Co1003 N1052 2.214 . S
Co1004 O1005 2.160 . S
Co1004 O1010 2.058 . S
Co1004 O1020 2.057 . S
Co1004 O1035 2.037 . S
Co1004 N1039 2.145 . S
Co1004 N1060 2.257 . S
O1005 Co1003 2.143 . S
O1005 Co1004 2.160 . S
C1006 O1007 1.278 . S
C1006 O1014 1.224 . S
O1007 C1006 1.278 . S
C1008 O1009 1.245 . S
C1008 O1020 1.232 . S
O1009 C1008 1.245 . S
O1010 Co1004 2.058 . S
O1010 C1036 1.269 . S
O1011 Co1003 2.074 . S
O1011 C1036 1.257 . S
H1012 C1037 0.930 . S
H1013 C1043 0.930 . S
O1014 Co1003 2.093 1_556 S
O1014 C1006 1.224 . S
H1015 C1047 0.929 . S
H1016 C1049 0.930 . S
H1017 C1050 0.930 . S
H1018 C1048 0.913 1_554 S
H1019 C1051 0.928 . S
O1020 Co1004 2.057 . S
O1020 C1008 1.232 . S
H1021 C1040 0.929 . S
H1022 C1041 0.929 . S
H1023 C1053 0.931 . S
H1024 C1045 0.929 . S
H1025 C1054 0.930 . S
H1026 C1046 0.931 . S
O1027 Co1003 2.097 . S
O1027 C1055 1.214 . S
H1028 C1056 0.929 1_556 S
H1029 C1057 0.929 . S
H1030 C1058 0.930 . S
H1031 C1059 0.929 . S
H1032 C1061 0.930 . S
H1033 C1038 0.930 . S
H1034 C1042 0.930 . S
O1035 Co1004 2.037 . S
O1035 C1055 1.234 . S
C1036 O1010 1.269 . S
C1036 O1011 1.257 . S
C1037 H1012 0.930 . S
C1037 C1040 1.388 . S
C1037 C1042 1.418 . S
C1038 H1033 0.930 . S
C1038 C1041 1.404 . S
C1038 C1042 1.353 . S
N1039 Co1004 2.145 . S
N1039 C1040 1.397 . S
N1039 C1041 1.334 . S
C1040 H1021 0.929 . S
C1040 C1037 1.388 . S
C1040 N1039 1.397 . S
C1041 H1022 0.929 . S
C1041 C1038 1.404 . S
C1041 N1039 1.334 . S
C1042 H1034 0.930 . S
C1042 C1037 1.418 . S
C1042 C1038 1.353 . S
C1043 H1013 0.930 . S
C1043 N1044 1.330 . S
C1043 C1045 1.446 . S
N1044 Co1003 2.151 1_556 S
N1044 C1043 1.330 . S
N1044 C1048 1.418 . S
C1045 H1024 0.929 . S
C1045 C1043 1.446 . S
C1045 C1046 1.332 . S
C1046 H1026 0.931 . S
C1046 C1045 1.332 . S
C1046 C1047 1.267 . S
C1047 H1015 0.929 . S
C1047 C1046 1.267 . S
C1047 C1048 1.251 . S
C1048 H1018 0.913 1_556 S
C1048 N1044 1.418 . S
C1048 C1047 1.251 . S
C1049 H1016 0.930 . S
C1049 C1051 1.406 . S
C1049 C1054 1.261 1_556 S
C1050 H1017 0.930 . S
C1050 N1052 1.325 . S
C1050 C1053 1.357 . S
C1051 H1019 0.928 . S
C1051 C1049 1.406 . S
C1051 N1052 1.261 1_556 S
N1052 Co1003 2.214 . S
N1052 C1050 1.325 . S
N1052 C1051 1.261 1_554 S
C1053 H1023 0.931 . S
C1053 C1050 1.357 . S
C1053 C1054 1.312 . S
C1054 H1025 0.930 . S
C1054 C1049 1.261 1_554 S
C1054 C1053 1.312 . S
C1055 O1027 1.214 . S
C1055 O1035 1.234 . S
C1056 H1028 0.929 1_554 S
C1056 C1059 1.391 . S
C1056 C1061 1.391 . S
C1057 H1029 0.929 . S
C1057 C1058 1.390 . S
C1057 N1060 1.391 . S
C1058 H1030 0.930 . S
C1058 C1057 1.390 . S
C1058 C1059 1.392 . S
C1059 H1031 0.929 . S
C1059 C1056 1.391 . S
C1059 C1058 1.392 . S
N1060 Co1004 2.257 . S
N1060 C1057 1.391 . S
N1060 C1061 1.388 . S
C1061 H1032 0.930 . S
C1061 C1056 1.391 . S
C1061 N1060 1.388 . S
Co1062 O1064 2.143 . S
Co1062 O1070 2.074 . S
Co1062 O1073 2.093 . S
Co1062 O1086 2.097 . S
Co1062 N1103 2.151 . S
Co1062 N1111 2.214 . S
Co1063 O1064 2.160 . S
Co1063 O1069 2.058 . S
Co1063 O1079 2.057 . S
Co1063 O1094 2.037 . S
Co1063 N1098 2.145 . S
Co1063 N1119 2.257 . S
O1064 Co1062 2.143 . S
O1064 Co1063 2.160 . S
C1065 O1066 1.278 . S
C1065 O1073 1.224 . S
O1066 C1065 1.278 . S
C1067 O1068 1.245 . S
C1067 O1079 1.232 . S
O1068 C1067 1.245 . S
O1069 Co1063 2.058 . S
O1069 C1095 1.269 . S
O1070 Co1062 2.074 . S
O1070 C1095 1.257 . S
H1071 C1096 0.930 . S
H1072 C1102 0.930 . S
O1073 Co1062 2.093 . S
O1073 C1065 1.224 . S
H1074 C1106 0.929 . S
H1075 C1108 0.930 1_455 S
H1076 C1109 0.930 . S
H1077 C1107 0.929 . S
H1078 C1110 0.928 . S
O1079 Co1063 2.057 . S
O1079 C1067 1.232 . S
H1080 C1099 0.929 . S
H1081 C1100 0.929 . S
H1082 C1112 0.931 . S
H1083 C1104 0.929 . S
H1084 C1113 0.923 1_455 S
H1085 C1105 0.931 . S
O1086 Co1062 2.097 . S
O1086 C1114 1.214 . S
H1087 C1115 0.929 . S
H1088 C1116 0.929 . S
H1089 C1117 0.930 . S
H1090 C1118 0.929 . S
H1091 C1120 0.930 . S
H1092 C1097 0.930 . S
H1093 C1101 0.930 . S
O1094 Co1063 2.037 . S
O1094 C1114 1.234 . S
C1095 O1069 1.269 . S
C1095 O1070 1.257 . S
C1096 H1071 0.930 . S
C1096 C1099 1.388 . S
C1096 C1101 1.418 . S
C1097 H1092 0.930 . S
C1097 C1100 1.404 . S
C1097 C1101 1.353 . S
N1098 Co1063 2.145 . S
N1098 C1099 1.397 . S
N1098 C1100 1.334 . S
C1099 H1080 0.929 . S
C1099 C1096 1.388 . S
C1099 N1098 1.397 . S
C1100 H1081 0.929 . S
C1100 C1097 1.404 . S
C1100 N1098 1.334 . S
C1101 H1093 0.930 . S
C1101 C1096 1.418 . S
C1101 C1097 1.353 . S
C1102 H1072 0.930 . S
C1102 N1103 1.330 . S
C1102 C1104 1.446 1_655 S
N1103 Co1062 2.151 . S
N1103 C1102 1.330 . S
N1103 C1107 1.418 1_655 S
C1104 H1083 0.929 . S
C1104 C1102 1.446 1_455 S
C1104 C1105 1.332 . S
C1105 H1085 0.931 . S
C1105 C1104 1.332 . S
C1105 C1106 1.267 . S
C1106 H1074 0.929 . S
C1106 C1105 1.267 . S
C1106 C1107 1.251 . S
C1107 H1077 0.929 . S
C1107 N1103 1.418 1_455 S
C1107 C1106 1.251 . S
C1108 H1075 0.930 1_655 S
C1108 C1110 1.406 . S
C1108 C1113 1.262 . S
C1109 H1076 0.930 . S
C1109 N1111 1.325 . S
C1109 C1112 1.357 . S
C1110 H1078 0.928 . S
C1110 C1108 1.406 . S
C1110 N1111 1.261 . S
N1111 Co1062 2.214 . S
N1111 C1109 1.325 . S
N1111 C1110 1.261 . S
C1112 H1082 0.931 . S
C1112 C1109 1.357 . S
C1112 C1113 1.318 . S
C1113 H1084 0.923 1_655 S
C1113 C1108 1.262 . S
C1113 C1112 1.318 . S
C1114 O1086 1.214 . S
C1114 O1094 1.234 . S
C1115 H1087 0.929 . S
C1115 C1118 1.391 . S
C1115 C1120 1.391 . S
C1116 H1088 0.929 . S
C1116 C1117 1.390 . S
C1116 N1119 1.391 . S
C1117 H1089 0.930 . S
C1117 C1116 1.390 . S
C1117 C1118 1.392 . S
C1118 H1090 0.929 . S
C1118 C1115 1.391 . S
C1118 C1117 1.392 . S
N1119 Co1063 2.257 . S
N1119 C1116 1.391 . S
N1119 C1120 1.388 . S
C1120 H1091 0.930 . S
C1120 C1115 1.391 . S
C1120 N1119 1.388 . S
Co1121 O1123 2.143 . S
Co1121 O1129 2.074 . S
Co1121 O1132 2.093 . S
Co1121 O1145 2.097 . S
Co1121 N1162 2.151 . S
Co1121 N1170 2.214 . S
Co1122 O1123 2.160 . S
Co1122 O1128 2.058 . S
Co1122 O1138 2.057 . S
Co1122 O1153 2.037 . S
Co1122 N1157 2.145 . S
Co1122 N1178 2.257 . S
O1123 Co1121 2.143 . S
O1123 Co1122 2.160 . S
C1124 O1125 1.278 . S
C1124 O1132 1.224 . S
O1125 C1124 1.278 . S
C1126 O1127 1.245 . S
C1126 O1138 1.232 . S
O1127 C1126 1.245 . S
O1128 Co1122 2.058 . S
O1128 C1154 1.269 . S
O1129 Co1121 2.074 . S
O1129 C1154 1.257 . S
H1130 C1155 0.930 . S
H1131 C1161 0.930 . S
O1132 Co1121 2.093 . S
O1132 C1124 1.224 . S
H1133 C1165 0.929 . S
H1134 C1167 0.930 . S
H1135 C1168 0.930 . S
H1136 C1166 0.929 . S
H1137 C1169 0.928 . S
O1138 Co1122 2.057 . S
O1138 C1126 1.232 . S
H1139 C1158 0.929 . S
H1140 C1159 0.929 . S
H1141 C1171 0.931 . S
H1142 C1163 0.929 . S
H1143 C1172 0.930 . S
H1144 C1164 0.931 . S
O1145 Co1121 2.097 . S
O1145 C1173 1.214 . S
H1146 C1174 0.929 . S
H1147 C1175 0.929 . S
H1148 C1176 0.930 . S
H1149 C1177 0.929 . S
H1150 C1179 0.930 . S
H1151 C1156 0.930 . S
H1152 C1160 0.930 . S
O1153 Co1122 2.037 . S
O1153 C1173 1.234 . S
C1154 O1128 1.269 . S
C1154 O1129 1.257 . S
C1155 H1130 0.930 . S
C1155 C1158 1.388 . S
C1155 C1160 1.418 . S
C1156 H1151 0.930 . S
C1156 C1159 1.404 . S
C1156 C1160 1.353 . S
N1157 Co1122 2.145 . S
N1157 C1158 1.397 . S
N1157 C1159 1.334 . S
C1158 H1139 0.929 . S
C1158 C1155 1.388 . S
C1158 N1157 1.397 . S
C1159 H1140 0.929 . S
C1159 C1156 1.404 . S
C1159 N1157 1.334 . S
C1160 H1152 0.930 . S
C1160 C1155 1.418 . S
C1160 C1156 1.353 . S
C1161 H1131 0.930 . S
C1161 N1162 1.330 . S
C1161 C1163 1.446 . S
N1162 Co1121 2.151 . S
N1162 C1161 1.330 . S
N1162 C1166 1.418 . S
C1163 H1142 0.929 . S
C1163 C1161 1.446 . S
C1163 C1164 1.332 . S
C1164 H1144 0.931 . S
C1164 C1163 1.332 . S
C1164 C1165 1.267 . S
C1165 H1133 0.929 . S
C1165 C1164 1.267 . S
C1165 C1166 1.251 . S
C1166 H1136 0.929 . S
C1166 N1162 1.418 . S
C1166 C1165 1.251 . S
C1167 H1134 0.930 . S
C1167 C1169 1.406 . S
C1167 C1172 1.261 1_455 S
C1168 H1135 0.930 . S
C1168 N1170 1.325 . S
C1168 C1171 1.357 . S
C1169 H1137 0.928 . S
C1169 C1167 1.406 . S
C1169 N1170 1.261 . S
N1170 Co1121 2.214 . S
N1170 C1168 1.325 . S
N1170 C1169 1.261 . S
C1171 H1141 0.931 . S
C1171 C1168 1.357 . S
C1171 C1172 1.312 1_455 S
C1172 H1143 0.930 . S
C1172 C1167 1.261 1_655 S
C1172 C1171 1.312 1_655 S
C1173 O1145 1.214 . S
C1173 O1153 1.234 . S
C1174 H1146 0.929 . S
C1174 C1177 1.391 . S
C1174 C1179 1.391 . S
C1175 H1147 0.929 . S
C1175 C1176 1.390 . S
C1175 N1178 1.391 . S
C1176 H1148 0.930 . S
C1176 C1175 1.390 . S
C1176 C1177 1.392 . S
C1177 H1149 0.929 . S
C1177 C1174 1.391 . S
C1177 C1176 1.392 . S
N1178 Co1122 2.257 . S
N1178 C1175 1.391 . S
N1178 C1179 1.388 . S
C1179 H1150 0.930 . S
C1179 C1174 1.391 . S
C1179 N1178 1.388 . S
Co1180 O1182 2.143 . S
Co1180 O1188 2.074 . S
Co1180 O1191 2.093 . S
Co1180 O1204 2.097 . S
Co1180 N1221 2.151 . S
Co1180 N1229 2.214 . S
Co1181 O1182 2.160 . S
Co1181 O1187 2.058 . S
Co1181 O1197 2.057 . S
Co1181 O1212 2.037 . S
Co1181 N1216 2.145 . S
Co1181 N1237 2.257 . S
O1182 Co1180 2.143 . S
O1182 Co1181 2.160 . S
C1183 O1184 1.278 . S
C1183 O1191 1.224 . S
O1184 C1183 1.278 . S
C1185 O1186 1.245 . S
C1185 O1197 1.232 . S
O1186 C1185 1.245 . S
O1187 Co1181 2.058 . S
O1187 C1213 1.269 . S
O1188 Co1180 2.074 . S
O1188 C1213 1.257 . S
H1189 C1214 0.930 . S
H1190 C1220 0.930 . S
O1191 Co1180 2.093 . S
O1191 C1183 1.224 . S
H1192 C1224 0.929 . S
H1193 C1226 0.930 . S
H1194 C1227 0.930 . S
H1195 C1225 0.929 . S
H1196 C1228 0.928 . S
O1197 Co1181 2.057 . S
O1197 C1185 1.232 . S
H1198 C1217 0.929 . S
H1199 C1218 0.929 . S
H1200 C1230 0.931 . S
H1201 C1222 0.929 . S
H1202 C1231 0.930 . S
H1203 C1223 0.931 . S
O1204 Co1180 2.097 . S
O1204 C1232 1.214 . S
H1205 C1233 0.929 . S
H1206 C1234 0.929 . S
H1207 C1235 0.930 . S
H1208 C1236 0.929 . S
H1209 C1238 0.930 . S
H1210 C1215 0.930 . S
H1211 C1219 0.930 . S
O1212 Co1181 2.037 . S
O1212 C1232 1.234 . S
C1213 O1187 1.269 . S
C1213 O1188 1.257 . S
C1214 H1189 0.930 . S
C1214 C1217 1.388 . S
C1214 C1219 1.418 . S
C1215 H1210 0.930 . S
C1215 C1218 1.404 . S
C1215 C1219 1.353 . S
N1216 Co1181 2.145 . S
N1216 C1217 1.397 . S
N1216 C1218 1.334 . S
C1217 H1198 0.929 . S
C1217 C1214 1.388 . S
C1217 N1216 1.397 . S
C1218 H1199 0.929 . S
C1218 C1215 1.404 . S
C1218 N1216 1.334 . S
C1219 H1211 0.930 . S
C1219 C1214 1.418 . S
C1219 C1215 1.353 . S
C1220 H1190 0.930 . S
C1220 N1221 1.330 . S
C1220 C1222 1.446 . S
N1221 Co1180 2.151 . S
N1221 C1220 1.330 . S
N1221 C1225 1.418 . S
C1222 H1201 0.929 . S
C1222 C1220 1.446 . S
C1222 C1223 1.332 . S
C1223 H1203 0.931 . S
C1223 C1222 1.332 . S
C1223 C1224 1.267 . S
C1224 H1192 0.929 . S
C1224 C1223 1.267 . S
C1224 C1225 1.251 . S
C1225 H1195 0.929 . S
C1225 N1221 1.418 . S
C1225 C1224 1.251 . S
C1226 H1193 0.930 . S
C1226 C1228 1.406 . S
C1226 C1231 1.261 . S
C1227 H1194 0.930 . S
C1227 N1229 1.325 . S
C1227 C1230 1.357 . S
C1228 H1196 0.928 . S
C1228 C1226 1.406 . S
C1228 N1229 1.261 . S
N1229 Co1180 2.214 . S
N1229 C1227 1.325 . S
N1229 C1228 1.261 . S
C1230 H1200 0.931 . S
C1230 C1227 1.357 . S
C1230 C1231 1.312 . S
C1231 H1202 0.930 . S
C1231 C1226 1.261 . S
C1231 C1230 1.312 . S
C1232 O1204 1.214 . S
C1232 O1212 1.234 . S
C1233 H1205 0.929 . S
C1233 C1236 1.391 . S
C1233 C1238 1.391 . S
C1234 H1206 0.929 . S
C1234 C1235 1.390 . S
C1234 N1237 1.391 . S
C1235 H1207 0.930 . S
C1235 C1234 1.390 . S
C1235 C1236 1.392 . S
C1236 H1208 0.929 . S
C1236 C1233 1.391 . S
C1236 C1235 1.392 . S
N1237 Co1181 2.257 . S
N1237 C1234 1.391 . S
N1237 C1238 1.388 . S
C1238 H1209 0.930 . S
C1238 C1233 1.391 . S
C1238 N1237 1.388 . S
Co1239 O1241 2.143 . S
Co1239 O1247 2.074 . S
Co1239 O1250 2.093 1_556 S
Co1239 O1263 2.097 . S
Co1239 N1280 2.151 1_556 S
Co1239 N1288 2.214 . S
Co1240 O1241 2.160 . S
Co1240 O1246 2.058 . S
Co1240 O1256 2.057 . S
Co1240 O1271 2.037 . S
Co1240 N1275 2.145 . S
Co1240 N1296 2.257 . S
O1241 Co1239 2.143 . S
O1241 Co1240 2.160 . S
C1242 O1243 1.278 . S
C1242 O1250 1.224 . S
O1243 C1242 1.278 . S
C1244 O1245 1.245 . S
C1244 O1256 1.232 . S
O1245 C1244 1.245 . S
O1246 Co1240 2.058 . S
O1246 C1272 1.269 . S
O1247 Co1239 2.074 . S
O1247 C1272 1.257 . S
H1248 C1273 0.930 . S
H1249 C1279 0.930 . S
O1250 Co1239 2.093 1_554 S
O1250 C1242 1.224 . S
H1251 C1283 0.929 . S
H1252 C1285 0.930 . S
H1253 C1286 0.930 . S
H1254 C1284 0.913 1_556 S
H1255 C1287 0.928 . S
O1256 Co1240 2.057 . S
O1256 C1244 1.232 . S
H1257 C1276 0.929 . S
H1258 C1277 0.929 . S
H1259 C1289 0.931 . S
H1260 C1281 0.929 . S
H1261 C1290 0.930 . S
H1262 C1282 0.931 . S
O1263 Co1239 2.097 . S
O1263 C1291 1.214 . S
H1264 C1292 0.929 1_554 S
H1265 C1293 0.929 . S
H1266 C1294 0.930 . S
H1267 C1295 0.929 . S
H1268 C1297 0.930 . S
H1269 C1274 0.930 . S
H1270 C1278 0.930 . S
O1271 Co1240 2.037 . S
O1271 C1291 1.234 . S
C1272 O1246 1.269 . S
C1272 O1247 1.257 . S
C1273 H1248 0.930 . S
C1273 C1276 1.388 . S
C1273 C1278 1.418 . S
C1274 H1269 0.930 . S
C1274 C1277 1.404 . S
C1274 C1278 1.353 . S
N1275 Co1240 2.145 . S
N1275 C1276 1.397 . S
N1275 C1277 1.334 . S
C1276 H1257 0.929 . S
C1276 C1273 1.388 . S
C1276 N1275 1.397 . S
C1277 H1258 0.929 . S
C1277 C1274 1.404 . S
C1277 N1275 1.334 . S
C1278 H1270 0.930 . S
C1278 C1273 1.418 . S
C1278 C1274 1.353 . S
C1279 H1249 0.930 . S
C1279 N1280 1.330 . S
C1279 C1281 1.446 . S
N1280 Co1239 2.151 1_554 S
N1280 C1279 1.330 . S
N1280 C1284 1.418 . S
C1281 H1260 0.929 . S
C1281 C1279 1.446 . S
C1281 C1282 1.332 . S
C1282 H1262 0.931 . S
C1282 C1281 1.332 . S
C1282 C1283 1.267 . S
C1283 H1251 0.929 . S
C1283 C1282 1.267 . S
C1283 C1284 1.251 . S
C1284 H1254 0.913 1_554 S
C1284 N1280 1.418 . S
C1284 C1283 1.251 . S
C1285 H1252 0.930 . S
C1285 C1287 1.406 . S
C1285 C1290 1.261 1_454 S
C1286 H1253 0.930 . S
C1286 N1288 1.325 . S
C1286 C1289 1.357 . S
C1287 H1255 0.928 . S
C1287 C1285 1.406 . S
C1287 N1288 1.261 1_554 S
N1288 Co1239 2.214 . S
N1288 C1286 1.325 . S
N1288 C1287 1.261 1_556 S
C1289 H1259 0.931 . S
C1289 C1286 1.357 . S
C1289 C1290 1.312 1_455 S
C1290 H1261 0.930 . S
C1290 C1285 1.261 1_656 S
C1290 C1289 1.312 1_655 S
C1291 O1263 1.214 . S
C1291 O1271 1.234 . S
C1292 H1264 0.929 1_556 S
C1292 C1295 1.391 . S
C1292 C1297 1.391 . S
C1293 H1265 0.929 . S
C1293 C1294 1.390 . S
C1293 N1296 1.391 . S
C1294 H1266 0.930 . S
C1294 C1293 1.390 . S
C1294 C1295 1.392 . S
C1295 H1267 0.929 . S
C1295 C1292 1.391 . S
C1295 C1294 1.392 . S
N1296 Co1240 2.257 . S
N1296 C1293 1.391 . S
N1296 C1297 1.388 . S
C1297 H1268 0.930 . S
C1297 C1292 1.391 . S
C1297 N1296 1.388 . S
Co1298 O1300 2.143 . S
Co1298 O1306 2.074 . S
Co1298 O1309 2.093 . S
Co1298 O1322 2.097 . S
Co1298 N1339 2.151 . S
Co1298 N1347 2.214 . S
Co1299 O1300 2.160 . S
Co1299 O1305 2.058 . S
Co1299 O1315 2.057 . S
Co1299 O1330 2.037 . S
Co1299 N1334 2.145 . S
Co1299 N1355 2.257 . S
O1300 Co1298 2.143 . S
O1300 Co1299 2.160 . S
C1301 O1302 1.278 . S
C1301 O1309 1.224 . S
O1302 C1301 1.278 . S
C1303 O1304 1.245 . S
C1303 O1315 1.232 . S
O1304 C1303 1.245 . S
O1305 Co1299 2.058 . S
O1305 C1331 1.269 . S
O1306 Co1298 2.074 . S
O1306 C1331 1.257 . S
H1307 C1332 0.930 . S
H1308 C1338 0.930 . S
O1309 Co1298 2.093 . S
O1309 C1301 1.224 . S
H1310 C1342 0.929 . S
H1311 C1344 0.930 1_455 S
H1312 C1345 0.930 . S
H1313 C1343 0.929 . S
H1314 C1346 0.928 . S
O1315 Co1299 2.057 . S
O1315 C1303 1.232 . S
H1316 C1335 0.929 . S
H1317 C1336 0.929 . S
H1318 C1348 0.931 . S
H1319 C1340 0.929 . S
H1320 C1349 0.923 1_455 S
H1321 C1341 0.931 . S
O1322 Co1298 2.097 . S
O1322 C1350 1.214 . S
H1323 C1351 0.929 . S
H1324 C1352 0.929 . S
H1325 C1353 0.930 . S
H1326 C1354 0.929 . S
H1327 C1356 0.930 . S
H1328 C1333 0.930 . S
H1329 C1337 0.930 . S
O1330 Co1299 2.037 . S
O1330 C1350 1.234 . S
C1331 O1305 1.269 . S
C1331 O1306 1.257 . S
C1332 H1307 0.930 . S
C1332 C1335 1.388 . S
C1332 C1337 1.418 . S
C1333 H1328 0.930 . S
C1333 C1336 1.404 . S
C1333 C1337 1.353 . S
N1334 Co1299 2.145 . S
N1334 C1335 1.397 . S
N1334 C1336 1.334 . S
C1335 H1316 0.929 . S
C1335 C1332 1.388 . S
C1335 N1334 1.397 . S
C1336 H1317 0.929 . S
C1336 C1333 1.404 . S
C1336 N1334 1.334 . S
C1337 H1329 0.930 . S
C1337 C1332 1.418 . S
C1337 C1333 1.353 . S
C1338 H1308 0.930 . S
C1338 N1339 1.330 . S
C1338 C1340 1.446 1_655 S
N1339 Co1298 2.151 . S
N1339 C1338 1.330 . S
N1339 C1343 1.418 1_655 S
C1340 H1319 0.929 . S
C1340 C1338 1.446 1_455 S
C1340 C1341 1.332 . S
C1341 H1321 0.931 . S
C1341 C1340 1.332 . S
C1341 C1342 1.267 . S
C1342 H1310 0.929 . S
C1342 C1341 1.267 . S
C1342 C1343 1.251 . S
C1343 H1313 0.929 . S
C1343 N1339 1.418 1_455 S
C1343 C1342 1.251 . S
C1344 H1311 0.930 1_655 S
C1344 C1346 1.406 . S
C1344 C1349 1.262 . S
C1345 H1312 0.930 . S
C1345 N1347 1.325 . S
C1345 C1348 1.357 . S
C1346 H1314 0.928 . S
C1346 C1344 1.406 . S
C1346 N1347 1.261 . S
N1347 Co1298 2.214 . S
N1347 C1345 1.325 . S
N1347 C1346 1.261 . S
C1348 H1318 0.931 . S
C1348 C1345 1.357 . S
C1348 C1349 1.318 . S
C1349 H1320 0.923 1_655 S
C1349 C1344 1.262 . S
C1349 C1348 1.318 . S
C1350 O1322 1.214 . S
C1350 O1330 1.234 . S
C1351 H1323 0.929 . S
C1351 C1354 1.391 . S
C1351 C1356 1.391 . S
C1352 H1324 0.929 . S
C1352 C1353 1.390 . S
C1352 N1355 1.391 . S
C1353 H1325 0.930 . S
C1353 C1352 1.390 . S
C1353 C1354 1.392 . S
C1354 H1326 0.929 . S
C1354 C1351 1.391 . S
C1354 C1353 1.392 . S
N1355 Co1299 2.257 . S
N1355 C1352 1.391 . S
N1355 C1356 1.388 . S
C1356 H1327 0.930 . S
C1356 C1351 1.391 . S
C1356 N1355 1.388 . S
Co1357 O1359 2.143 . S
Co1357 O1365 2.074 . S
Co1357 O1368 2.093 . S
Co1357 O1381 2.097 . S
Co1357 N1398 2.151 . S
Co1357 N1406 2.214 . S
Co1358 O1359 2.160 . S
Co1358 O1364 2.058 . S
Co1358 O1374 2.057 . S
Co1358 O1389 2.037 . S
Co1358 N1393 2.145 . S
Co1358 N1414 2.257 . S
O1359 Co1357 2.143 . S
O1359 Co1358 2.160 . S
C1360 O1361 1.278 . S
C1360 O1368 1.224 . S
O1361 C1360 1.278 . S
C1362 O1363 1.245 . S
C1362 O1374 1.232 . S
O1363 C1362 1.245 . S
O1364 Co1358 2.058 . S
O1364 C1390 1.269 . S
O1365 Co1357 2.074 . S
O1365 C1390 1.257 . S
H1366 C1391 0.930 . S
H1367 C1397 0.930 . S
O1368 Co1357 2.093 . S
O1368 C1360 1.224 . S
H1369 C1401 0.929 . S
H1370 C1403 0.930 . S
H1371 C1404 0.930 . S
H1372 C1402 0.929 . S
H1373 C1405 0.928 . S
O1374 Co1358 2.057 . S
O1374 C1362 1.232 . S
H1375 C1394 0.929 . S
H1376 C1395 0.929 . S
H1377 C1407 0.931 . S
H1378 C1399 0.929 . S
H1379 C1408 0.930 . S
H1380 C1400 0.931 . S
O1381 Co1357 2.097 . S
O1381 C1409 1.214 . S
H1382 C1410 0.929 . S
H1383 C1411 0.929 . S
H1384 C1412 0.930 . S
H1385 C1413 0.929 . S
H1386 C1415 0.930 . S
H1387 C1392 0.930 . S
H1388 C1396 0.930 . S
O1389 Co1358 2.037 . S
O1389 C1409 1.234 . S
C1390 O1364 1.269 . S
C1390 O1365 1.257 . S
C1391 H1366 0.930 . S
C1391 C1394 1.388 . S
C1391 C1396 1.418 . S
C1392 H1387 0.930 . S
C1392 C1395 1.404 . S
C1392 C1396 1.353 . S
N1393 Co1358 2.145 . S
N1393 C1394 1.397 . S
N1393 C1395 1.334 . S
C1394 H1375 0.929 . S
C1394 C1391 1.388 . S
C1394 N1393 1.397 . S
C1395 H1376 0.929 . S
C1395 C1392 1.404 . S
C1395 N1393 1.334 . S
C1396 H1388 0.930 . S
C1396 C1391 1.418 . S
C1396 C1392 1.353 . S
C1397 H1367 0.930 . S
C1397 N1398 1.330 . S
C1397 C1399 1.446 . S
N1398 Co1357 2.151 . S
N1398 C1397 1.330 . S
N1398 C1402 1.418 . S
C1399 H1378 0.929 . S
C1399 C1397 1.446 . S
C1399 C1400 1.332 . S
C1400 H1380 0.931 . S
C1400 C1399 1.332 . S
C1400 C1401 1.267 . S
C1401 H1369 0.929 . S
C1401 C1400 1.267 . S
C1401 C1402 1.251 . S
C1402 H1372 0.929 . S
C1402 N1398 1.418 . S
C1402 C1401 1.251 . S
C1403 H1370 0.930 . S
C1403 C1405 1.406 . S
C1403 C1408 1.261 . S
C1404 H1371 0.930 . S
C1404 N1406 1.325 . S
C1404 C1407 1.357 . S
C1405 H1373 0.928 . S
C1405 C1403 1.406 . S
C1405 N1406 1.261 . S
N1406 Co1357 2.214 . S
N1406 C1404 1.325 . S
N1406 C1405 1.261 . S
C1407 H1377 0.931 . S
C1407 C1404 1.357 . S
C1407 C1408 1.312 . S
C1408 H1379 0.930 . S
C1408 C1403 1.261 . S
C1408 C1407 1.312 . S
C1409 O1381 1.214 . S
C1409 O1389 1.234 . S
C1410 H1382 0.929 . S
C1410 C1413 1.391 . S
C1410 C1415 1.391 . S
C1411 H1383 0.929 . S
C1411 C1412 1.390 . S
C1411 N1414 1.391 . S
C1412 H1384 0.930 . S
C1412 C1411 1.390 . S
C1412 C1413 1.392 . S
C1413 H1385 0.929 . S
C1413 C1410 1.391 . S
C1413 C1412 1.392 . S
N1414 Co1358 2.257 . S
N1414 C1411 1.391 . S
N1414 C1415 1.388 . S
C1415 H1386 0.930 . S
C1415 C1410 1.391 . S
C1415 N1414 1.388 . S
Co1416 O1418 2.143 . S
Co1416 O1424 2.074 . S
Co1416 O1427 2.093 . S
Co1416 O1440 2.097 . S
Co1416 N1457 2.151 . S
Co1416 N1465 2.214 . S
Co1417 O1418 2.160 . S
Co1417 O1423 2.058 . S
Co1417 O1433 2.057 . S
Co1417 O1448 2.037 . S
Co1417 N1452 2.145 . S
Co1417 N1473 2.257 . S
O1418 Co1416 2.143 . S
O1418 Co1417 2.160 . S
C1419 O1420 1.278 . S
C1419 O1427 1.224 . S
O1420 C1419 1.278 . S
C1421 O1422 1.245 . S
C1421 O1433 1.232 . S
O1422 C1421 1.245 . S
O1423 Co1417 2.058 . S
O1423 C1449 1.269 . S
O1424 Co1416 2.074 . S
O1424 C1449 1.257 . S
H1425 C1450 0.930 . S
H1426 C1456 0.930 . S
O1427 Co1416 2.093 . S
O1427 C1419 1.224 . S
H1428 C1460 0.929 . S
H1429 C1462 0.930 . S
H1430 C1463 0.930 . S
H1431 C1461 0.929 . S
H1432 C1464 0.928 . S
O1433 Co1417 2.057 . S
O1433 C1421 1.232 . S
H1434 C1453 0.929 . S
H1435 C1454 0.929 . S
H1436 C1466 0.931 . S
H1437 C1458 0.929 . S
H1438 C1467 0.930 . S
H1439 C1459 0.931 . S
O1440 Co1416 2.097 . S
O1440 C1468 1.214 . S
H1441 C1469 0.929 . S
H1442 C1470 0.929 . S
H1443 C1471 0.930 . S
H1444 C1472 0.929 . S
H1445 C1474 0.930 . S
H1446 C1451 0.930 . S
H1447 C1455 0.930 . S
O1448 Co1417 2.037 . S
O1448 C1468 1.234 . S
C1449 O1423 1.269 . S
C1449 O1424 1.257 . S
C1450 H1425 0.930 . S
C1450 C1453 1.388 . S
C1450 C1455 1.418 . S
C1451 H1446 0.930 . S
C1451 C1454 1.404 . S
C1451 C1455 1.353 . S
N1452 Co1417 2.145 . S
N1452 C1453 1.397 . S
N1452 C1454 1.334 . S
C1453 H1434 0.929 . S
C1453 C1450 1.388 . S
C1453 N1452 1.397 . S
C1454 H1435 0.929 . S
C1454 C1451 1.404 . S
C1454 N1452 1.334 . S
C1455 H1447 0.930 . S
C1455 C1450 1.418 . S
C1455 C1451 1.353 . S
C1456 H1426 0.930 . S
C1456 N1457 1.330 . S
C1456 C1458 1.446 . S
N1457 Co1416 2.151 . S
N1457 C1456 1.330 . S
N1457 C1461 1.418 . S
C1458 H1437 0.929 . S
C1458 C1456 1.446 . S
C1458 C1459 1.332 . S
C1459 H1439 0.931 . S
C1459 C1458 1.332 . S
C1459 C1460 1.267 . S
C1460 H1428 0.929 . S
C1460 C1459 1.267 . S
C1460 C1461 1.251 . S
C1461 H1431 0.929 . S
C1461 N1457 1.418 . S
C1461 C1460 1.251 . S
C1462 H1429 0.930 . S
C1462 C1464 1.406 . S
C1462 C1467 1.261 . S
C1463 H1430 0.930 . S
C1463 N1465 1.325 . S
C1463 C1466 1.357 . S
C1464 H1432 0.928 . S
C1464 C1462 1.406 . S
C1464 N1465 1.261 . S
N1465 Co1416 2.214 . S
N1465 C1463 1.325 . S
N1465 C1464 1.261 . S
C1466 H1436 0.931 . S
C1466 C1463 1.357 . S
C1466 C1467 1.312 . S
C1467 H1438 0.930 . S
C1467 C1462 1.261 . S
C1467 C1466 1.312 . S
C1468 O1440 1.214 . S
C1468 O1448 1.234 . S
C1469 H1441 0.929 . S
C1469 C1472 1.391 . S
C1469 C1474 1.391 . S
C1470 H1442 0.929 . S
C1470 C1471 1.390 . S
C1470 N1473 1.391 . S
C1471 H1443 0.930 . S
C1471 C1470 1.390 . S
C1471 C1472 1.392 . S
C1472 H1444 0.929 . S
C1472 C1469 1.391 . S
C1472 C1471 1.392 . S
N1473 Co1417 2.257 . S
N1473 C1470 1.391 . S
N1473 C1474 1.388 . S
C1474 H1445 0.930 . S
C1474 C1469 1.391 . S
C1474 N1473 1.388 . S
Co1475 O1477 2.143 . S
Co1475 O1483 2.074 . S
Co1475 O1486 2.093 1_556 S
Co1475 O1499 2.097 . S
Co1475 N1516 2.151 1_556 S
Co1475 N1524 2.214 . S
Co1476 O1477 2.160 . S
Co1476 O1482 2.058 . S
Co1476 O1492 2.057 . S
Co1476 O1507 2.037 . S
Co1476 N1511 2.145 . S
Co1476 N1532 2.257 . S
O1477 Co1475 2.143 . S
O1477 Co1476 2.160 . S
C1478 O1479 1.278 . S
C1478 O1486 1.224 . S
O1479 C1478 1.278 . S
C1480 O1481 1.245 . S
C1480 O1492 1.232 . S
O1481 C1480 1.245 . S
O1482 Co1476 2.058 . S
O1482 C1508 1.269 . S
O1483 Co1475 2.074 . S
O1483 C1508 1.257 . S
H1484 C1509 0.930 . S
H1485 C1515 0.930 . S
O1486 Co1475 2.093 1_554 S
O1486 C1478 1.224 . S
H1487 C1519 0.929 . S
H1488 C1521 0.930 . S
H1489 C1522 0.930 . S
H1490 C1520 0.913 1_556 S
H1491 C1523 0.928 . S
O1492 Co1476 2.057 . S
O1492 C1480 1.232 . S
H1493 C1512 0.929 . S
H1494 C1513 0.929 . S
H1495 C1525 0.931 . S
H1496 C1517 0.929 . S
H1497 C1526 0.930 . S
H1498 C1518 0.931 . S
O1499 Co1475 2.097 . S
O1499 C1527 1.214 . S
H1500 C1528 0.929 1_554 S
H1501 C1529 0.929 . S
H1502 C1530 0.930 . S
H1503 C1531 0.929 . S
H1504 C1533 0.930 . S
H1505 C1510 0.930 . S
H1506 C1514 0.930 . S
O1507 Co1476 2.037 . S
O1507 C1527 1.234 . S
C1508 O1482 1.269 . S
C1508 O1483 1.257 . S
C1509 H1484 0.930 . S
C1509 C1512 1.388 . S
C1509 C1514 1.418 . S
C1510 H1505 0.930 . S
C1510 C1513 1.404 . S
C1510 C1514 1.353 . S
N1511 Co1476 2.145 . S
N1511 C1512 1.397 . S
N1511 C1513 1.334 . S
C1512 H1493 0.929 . S
C1512 C1509 1.388 . S
C1512 N1511 1.397 . S
C1513 H1494 0.929 . S
C1513 C1510 1.404 . S
C1513 N1511 1.334 . S
C1514 H1506 0.930 . S
C1514 C1509 1.418 . S
C1514 C1510 1.353 . S
C1515 H1485 0.930 . S
C1515 N1516 1.330 . S
C1515 C1517 1.446 . S
N1516 Co1475 2.151 1_554 S
N1516 C1515 1.330 . S
N1516 C1520 1.418 . S
C1517 H1496 0.929 . S
C1517 C1515 1.446 . S
C1517 C1518 1.332 . S
C1518 H1498 0.931 . S
C1518 C1517 1.332 . S
C1518 C1519 1.267 . S
C1519 H1487 0.929 . S
C1519 C1518 1.267 . S
C1519 C1520 1.251 . S
C1520 H1490 0.913 1_554 S
C1520 N1516 1.418 . S
C1520 C1519 1.251 . S
C1521 H1488 0.930 . S
C1521 C1523 1.406 . S
C1521 C1526 1.261 1_554 S
C1522 H1489 0.930 . S
C1522 N1524 1.325 . S
C1522 C1525 1.357 . S
C1523 H1491 0.928 . S
C1523 C1521 1.406 . S
C1523 N1524 1.261 1_554 S
N1524 Co1475 2.214 . S
N1524 C1522 1.325 . S
N1524 C1523 1.261 1_556 S
C1525 H1495 0.931 . S
C1525 C1522 1.357 . S
C1525 C1526 1.312 . S
C1526 H1497 0.930 . S
C1526 C1521 1.261 1_556 S
C1526 C1525 1.312 . S
C1527 O1499 1.214 . S
C1527 O1507 1.234 . S
C1528 H1500 0.929 1_556 S
C1528 C1531 1.391 . S
C1528 C1533 1.391 . S
C1529 H1501 0.929 . S
C1529 C1530 1.390 . S
C1529 N1532 1.391 . S
C1530 H1502 0.930 . S
C1530 C1529 1.390 . S
C1530 C1531 1.392 . S
C1531 H1503 0.929 . S
C1531 C1528 1.391 . S
C1531 C1530 1.392 . S
N1532 Co1476 2.257 . S
N1532 C1529 1.391 . S
N1532 C1533 1.388 . S
C1533 H1504 0.930 . S
C1533 C1528 1.391 . S
C1533 N1532 1.388 . S
Co1534 O1536 2.143 . S
Co1534 O1542 2.074 . S
Co1534 O1545 2.093 . S
Co1534 O1558 2.097 . S
Co1534 N1575 2.151 . S
Co1534 N1583 2.214 . S
Co1535 O1536 2.160 . S
Co1535 O1541 2.058 . S
Co1535 O1551 2.057 . S
Co1535 O1566 2.037 . S
Co1535 N1570 2.145 . S
Co1535 N1591 2.257 . S
O1536 Co1534 2.143 . S
O1536 Co1535 2.160 . S
C1537 O1538 1.278 . S
C1537 O1545 1.224 . S
O1538 C1537 1.278 . S
C1539 O1540 1.245 . S
C1539 O1551 1.232 . S
O1540 C1539 1.245 . S
O1541 Co1535 2.058 . S
O1541 C1567 1.269 . S
O1542 Co1534 2.074 . S
O1542 C1567 1.257 . S
H1543 C1568 0.930 . S
H1544 C1574 0.930 . S
O1545 Co1534 2.093 . S
O1545 C1537 1.224 . S
H1546 C1578 0.929 . S
H1547 C1580 0.930 1_655 S
H1548 C1581 0.930 . S
H1549 C1579 0.929 . S
H1550 C1582 0.928 . S
O1551 Co1535 2.057 . S
O1551 C1539 1.232 . S
H1552 C1571 0.929 . S
H1553 C1572 0.929 . S
H1554 C1584 0.931 . S
H1555 C1576 0.929 . S
H1556 C1585 0.923 1_655 S
H1557 C1577 0.931 . S
O1558 Co1534 2.097 . S
O1558 C1586 1.214 . S
H1559 C1587 0.929 . S
H1560 C1588 0.929 . S
H1561 C1589 0.930 . S
H1562 C1590 0.929 . S
H1563 C1592 0.930 . S
H1564 C1569 0.930 . S
H1565 C1573 0.930 . S
O1566 Co1535 2.037 . S
O1566 C1586 1.234 . S
C1567 O1541 1.269 . S
C1567 O1542 1.257 . S
C1568 H1543 0.930 . S
C1568 C1571 1.388 . S
C1568 C1573 1.418 . S
C1569 H1564 0.930 . S
C1569 C1572 1.404 . S
C1569 C1573 1.353 . S
N1570 Co1535 2.145 . S
N1570 C1571 1.397 . S
N1570 C1572 1.334 . S
C1571 H1552 0.929 . S
C1571 C1568 1.388 . S
C1571 N1570 1.397 . S
C1572 H1553 0.929 . S
C1572 C1569 1.404 . S
C1572 N1570 1.334 . S
C1573 H1565 0.930 . S
C1573 C1568 1.418 . S
C1573 C1569 1.353 . S
C1574 H1544 0.930 . S
C1574 N1575 1.330 . S
C1574 C1576 1.446 1_455 S
N1575 Co1534 2.151 . S
N1575 C1574 1.330 . S
N1575 C1579 1.418 1_455 S
C1576 H1555 0.929 . S
C1576 C1574 1.446 1_655 S
C1576 C1577 1.332 . S
C1577 H1557 0.931 . S
C1577 C1576 1.332 . S
C1577 C1578 1.267 . S
C1578 H1546 0.929 . S
C1578 C1577 1.267 . S
C1578 C1579 1.251 . S
C1579 H1549 0.929 . S
C1579 N1575 1.418 1_655 S
C1579 C1578 1.251 . S
C1580 H1547 0.930 1_455 S
C1580 C1582 1.406 . S
C1580 C1585 1.262 . S
C1581 H1548 0.930 . S
C1581 N1583 1.325 . S
C1581 C1584 1.357 . S
C1582 H1550 0.928 . S
C1582 C1580 1.406 . S
C1582 N1583 1.261 . S
N1583 Co1534 2.214 . S
N1583 C1581 1.325 . S
N1583 C1582 1.261 . S
C1584 H1554 0.931 . S
C1584 C1581 1.357 . S
C1584 C1585 1.318 . S
C1585 H1556 0.923 1_455 S
C1585 C1580 1.262 . S
C1585 C1584 1.318 . S
C1586 O1558 1.214 . S
C1586 O1566 1.234 . S
C1587 H1559 0.929 . S
C1587 C1590 1.391 . S
C1587 C1592 1.391 . S
C1588 H1560 0.929 . S
C1588 C1589 1.390 . S
C1588 N1591 1.391 . S
C1589 H1561 0.930 . S
C1589 C1588 1.390 . S
C1589 C1590 1.392 . S
C1590 H1562 0.929 . S
C1590 C1587 1.391 . S
C1590 C1589 1.392 . S
N1591 Co1535 2.257 . S
N1591 C1588 1.391 . S
N1591 C1592 1.388 . S
C1592 H1563 0.930 . S
C1592 C1587 1.391 . S
C1592 N1591 1.388 . S
Co1593 O1595 2.143 . S
Co1593 O1601 2.074 . S
Co1593 O1604 2.093 . S
Co1593 O1617 2.097 . S
Co1593 N1634 2.151 . S
Co1593 N1642 2.214 . S
Co1594 O1595 2.160 . S
Co1594 O1600 2.058 . S
Co1594 O1610 2.057 . S
Co1594 O1625 2.037 . S
Co1594 N1629 2.145 . S
Co1594 N1650 2.257 . S
O1595 Co1593 2.143 . S
O1595 Co1594 2.160 . S
C1596 O1597 1.278 . S
C1596 O1604 1.224 . S
O1597 C1596 1.278 . S
C1598 O1599 1.245 . S
C1598 O1610 1.232 . S
O1599 C1598 1.245 . S
O1600 Co1594 2.058 . S
O1600 C1626 1.269 . S
O1601 Co1593 2.074 . S
O1601 C1626 1.257 . S
H1602 C1627 0.930 . S
H1603 C1633 0.930 . S
O1604 Co1593 2.093 . S
O1604 C1596 1.224 . S
H1605 C1637 0.929 . S
H1606 C1639 0.930 . S
H1607 C1640 0.930 . S
H1608 C1638 0.929 . S
H1609 C1641 0.928 . S
O1610 Co1594 2.057 . S
O1610 C1598 1.232 . S
H1611 C1630 0.929 . S
H1612 C1631 0.929 . S
H1613 C1643 0.931 . S
H1614 C1635 0.929 . S
H1615 C1644 0.930 . S
H1616 C1636 0.931 . S
O1617 Co1593 2.097 . S
O1617 C1645 1.214 . S
H1618 C1646 0.929 . S
H1619 C1647 0.929 . S
H1620 C1648 0.930 . S
H1621 C1649 0.929 . S
H1622 C1651 0.930 . S
H1623 C1628 0.930 . S
H1624 C1632 0.930 . S
O1625 Co1594 2.037 . S
O1625 C1645 1.234 . S
C1626 O1600 1.269 . S
C1626 O1601 1.257 . S
C1627 H1602 0.930 . S
C1627 C1630 1.388 . S
C1627 C1632 1.418 . S
C1628 H1623 0.930 . S
C1628 C1631 1.404 . S
C1628 C1632 1.353 . S
N1629 Co1594 2.145 . S
N1629 C1630 1.397 . S
N1629 C1631 1.334 . S
C1630 H1611 0.929 . S
C1630 C1627 1.388 . S
C1630 N1629 1.397 . S
C1631 H1612 0.929 . S
C1631 C1628 1.404 . S
C1631 N1629 1.334 . S
C1632 H1624 0.930 . S
C1632 C1627 1.418 . S
C1632 C1628 1.353 . S
C1633 H1603 0.930 . S
C1633 N1634 1.330 . S
C1633 C1635 1.446 . S
N1634 Co1593 2.151 . S
N1634 C1633 1.330 . S
N1634 C1638 1.418 . S
C1635 H1614 0.929 . S
C1635 C1633 1.446 . S
C1635 C1636 1.332 . S
C1636 H1616 0.931 . S
C1636 C1635 1.332 . S
C1636 C1637 1.267 . S
C1637 H1605 0.929 . S
C1637 C1636 1.267 . S
C1637 C1638 1.251 . S
C1638 H1608 0.929 . S
C1638 N1634 1.418 . S
C1638 C1637 1.251 . S
C1639 H1606 0.930 . S
C1639 C1641 1.406 . S
C1639 C1644 1.261 1_655 S
C1640 H1607 0.930 . S
C1640 N1642 1.325 . S
C1640 C1643 1.357 . S
C1641 H1609 0.928 . S
C1641 C1639 1.406 . S
C1641 N1642 1.261 . S
N1642 Co1593 2.214 . S
N1642 C1640 1.325 . S
N1642 C1641 1.261 . S
C1643 H1613 0.931 . S
C1643 C1640 1.357 . S
C1643 C1644 1.312 1_655 S
C1644 H1615 0.930 . S
C1644 C1639 1.261 1_455 S
C1644 C1643 1.312 1_455 S
C1645 O1617 1.214 . S
C1645 O1625 1.234 . S
C1646 H1618 0.929 . S
C1646 C1649 1.391 . S
C1646 C1651 1.391 . S
C1647 H1619 0.929 . S
C1647 C1648 1.390 . S
C1647 N1650 1.391 . S
C1648 H1620 0.930 . S
C1648 C1647 1.390 . S
C1648 C1649 1.392 . S
C1649 H1621 0.929 . S
C1649 C1646 1.391 . S
C1649 C1648 1.392 . S
N1650 Co1594 2.257 . S
N1650 C1647 1.391 . S
N1650 C1651 1.388 . S
C1651 H1622 0.930 . S
C1651 C1646 1.391 . S
C1651 N1650 1.388 . S
Co1652 O1654 2.143 . S
Co1652 O1660 2.074 . S
Co1652 O1663 2.093 . S
Co1652 O1676 2.097 . S
Co1652 N1693 2.151 . S
Co1652 N1701 2.214 . S
Co1653 O1654 2.160 . S
Co1653 O1659 2.058 . S
Co1653 O1669 2.057 . S
Co1653 O1684 2.037 . S
Co1653 N1688 2.145 . S
Co1653 N1709 2.257 . S
O1654 Co1652 2.143 . S
O1654 Co1653 2.160 . S
C1655 O1656 1.278 . S
C1655 O1663 1.224 . S
O1656 C1655 1.278 . S
C1657 O1658 1.245 . S
C1657 O1669 1.232 . S
O1658 C1657 1.245 . S
O1659 Co1653 2.058 . S
O1659 C1685 1.269 . S
O1660 Co1652 2.074 . S
O1660 C1685 1.257 . S
H1661 C1686 0.930 . S
H1662 C1692 0.930 . S
O1663 Co1652 2.093 . S
O1663 C1655 1.224 . S
H1664 C1696 0.929 . S
H1665 C1698 0.930 . S
H1666 C1699 0.930 . S
H1667 C1697 0.929 . S
H1668 C1700 0.928 . S
O1669 Co1653 2.057 . S
O1669 C1657 1.232 . S
H1670 C1689 0.929 . S
H1671 C1690 0.929 . S
H1672 C1702 0.931 . S
H1673 C1694 0.929 . S
H1674 C1703 0.930 . S
H1675 C1695 0.931 . S
O1676 Co1652 2.097 . S
O1676 C1704 1.214 . S
H1677 C1705 0.929 . S
H1678 C1706 0.929 . S
H1679 C1707 0.930 . S
H1680 C1708 0.929 . S
H1681 C1710 0.930 . S
H1682 C1687 0.930 . S
H1683 C1691 0.930 . S
O1684 Co1653 2.037 . S
O1684 C1704 1.234 . S
C1685 O1659 1.269 . S
C1685 O1660 1.257 . S
C1686 H1661 0.930 . S
C1686 C1689 1.388 . S
C1686 C1691 1.418 . S
C1687 H1682 0.930 . S
C1687 C1690 1.404 . S
C1687 C1691 1.353 . S
N1688 Co1653 2.145 . S
N1688 C1689 1.397 . S
N1688 C1690 1.334 . S
C1689 H1670 0.929 . S
C1689 C1686 1.388 . S
C1689 N1688 1.397 . S
C1690 H1671 0.929 . S
C1690 C1687 1.404 . S
C1690 N1688 1.334 . S
C1691 H1683 0.930 . S
C1691 C1686 1.418 . S
C1691 C1687 1.353 . S
C1692 H1662 0.930 . S
C1692 N1693 1.330 . S
C1692 C1694 1.446 . S
N1693 Co1652 2.151 . S
N1693 C1692 1.330 . S
N1693 C1697 1.418 . S
C1694 H1673 0.929 . S
C1694 C1692 1.446 . S
C1694 C1695 1.332 . S
C1695 H1675 0.931 . S
C1695 C1694 1.332 . S
C1695 C1696 1.267 . S
C1696 H1664 0.929 . S
C1696 C1695 1.267 . S
C1696 C1697 1.251 . S
C1697 H1667 0.929 . S
C1697 N1693 1.418 . S
C1697 C1696 1.251 . S
C1698 H1665 0.930 . S
C1698 C1700 1.406 . S
C1698 C1703 1.261 . S
C1699 H1666 0.930 . S
C1699 N1701 1.325 . S
C1699 C1702 1.357 . S
C1700 H1668 0.928 . S
C1700 C1698 1.406 . S
C1700 N1701 1.261 . S
N1701 Co1652 2.214 . S
N1701 C1699 1.325 . S
N1701 C1700 1.261 . S
C1702 H1672 0.931 . S
C1702 C1699 1.357 . S
C1702 C1703 1.312 . S
C1703 H1674 0.930 . S
C1703 C1698 1.261 . S
C1703 C1702 1.312 . S
C1704 O1676 1.214 . S
C1704 O1684 1.234 . S
C1705 H1677 0.929 . S
C1705 C1708 1.391 . S
C1705 C1710 1.391 . S
C1706 H1678 0.929 . S
C1706 C1707 1.390 . S
C1706 N1709 1.391 . S
C1707 H1679 0.930 . S
C1707 C1706 1.390 . S
C1707 C1708 1.392 . S
C1708 H1680 0.929 . S
C1708 C1705 1.391 . S
C1708 C1707 1.392 . S
N1709 Co1653 2.257 . S
N1709 C1706 1.391 . S
N1709 C1710 1.388 . S
C1710 H1681 0.930 . S
C1710 C1705 1.391 . S
C1710 N1709 1.388 . S
Co1711 O1713 2.143 . S
Co1711 O1719 2.074 . S
Co1711 O1722 2.093 1_554 S
Co1711 O1735 2.097 . S
Co1711 N1752 2.151 1_554 S
Co1711 N1760 2.214 . S
Co1712 O1713 2.160 . S
Co1712 O1718 2.058 . S
Co1712 O1728 2.057 . S
Co1712 O1743 2.037 . S
Co1712 N1747 2.145 . S
Co1712 N1768 2.257 . S
O1713 Co1711 2.143 . S
O1713 Co1712 2.160 . S
C1714 O1715 1.278 . S
C1714 O1722 1.224 . S
O1715 C1714 1.278 . S
C1716 O1717 1.245 . S
C1716 O1728 1.232 . S
O1717 C1716 1.245 . S
O1718 Co1712 2.058 . S
O1718 C1744 1.269 . S
O1719 Co1711 2.074 . S
O1719 C1744 1.257 . S
H1720 C1745 0.930 . S
H1721 C1751 0.930 . S
O1722 Co1711 2.093 1_556 S
O1722 C1714 1.224 . S
H1723 C1755 0.929 . S
H1724 C1757 0.930 . S
H1725 C1758 0.930 . S
H1726 C1756 0.913 1_554 S
H1727 C1759 0.928 . S
O1728 Co1712 2.057 . S
O1728 C1716 1.232 . S
H1729 C1748 0.929 . S
H1730 C1749 0.929 . S
H1731 C1761 0.931 . S
H1732 C1753 0.929 . S
H1733 C1762 0.930 . S
H1734 C1754 0.931 . S
O1735 Co1711 2.097 . S
O1735 C1763 1.214 . S
H1736 C1764 0.929 1_556 S
H1737 C1765 0.929 . S
H1738 C1766 0.930 . S
H1739 C1767 0.929 . S
H1740 C1769 0.930 . S
H1741 C1746 0.930 . S
H1742 C1750 0.930 . S
O1743 Co1712 2.037 . S
O1743 C1763 1.234 . S
C1744 O1718 1.269 . S
C1744 O1719 1.257 . S
C1745 H1720 0.930 . S
C1745 C1748 1.388 . S
C1745 C1750 1.418 . S
C1746 H1741 0.930 . S
C1746 C1749 1.404 . S
C1746 C1750 1.353 . S
N1747 Co1712 2.145 . S
N1747 C1748 1.397 . S
N1747 C1749 1.334 . S
C1748 H1729 0.929 . S
C1748 C1745 1.388 . S
C1748 N1747 1.397 . S
C1749 H1730 0.929 . S
C1749 C1746 1.404 . S
C1749 N1747 1.334 . S
C1750 H1742 0.930 . S
C1750 C1745 1.418 . S
C1750 C1746 1.353 . S
C1751 H1721 0.930 . S
C1751 N1752 1.330 . S
C1751 C1753 1.446 . S
N1752 Co1711 2.151 1_556 S
N1752 C1751 1.330 . S
N1752 C1756 1.418 . S
C1753 H1732 0.929 . S
C1753 C1751 1.446 . S
C1753 C1754 1.332 . S
C1754 H1734 0.931 . S
C1754 C1753 1.332 . S
C1754 C1755 1.267 . S
C1755 H1723 0.929 . S
C1755 C1754 1.267 . S
C1755 C1756 1.251 . S
C1756 H1726 0.913 1_556 S
C1756 N1752 1.418 . S
C1756 C1755 1.251 . S
C1757 H1724 0.930 . S
C1757 C1759 1.406 . S
C1757 C1762 1.261 1_656 S
C1758 H1725 0.930 . S
C1758 N1760 1.325 . S
C1758 C1761 1.357 . S
C1759 H1727 0.928 . S
C1759 C1757 1.406 . S
C1759 N1760 1.261 1_556 S
N1760 Co1711 2.214 . S
N1760 C1758 1.325 . S
N1760 C1759 1.261 1_554 S
C1761 H1731 0.931 . S
C1761 C1758 1.357 . S
C1761 C1762 1.312 1_655 S
C1762 H1733 0.930 . S
C1762 C1757 1.261 1_454 S
C1762 C1761 1.312 1_455 S
C1763 O1735 1.214 . S
C1763 O1743 1.234 . S
C1764 H1736 0.929 1_554 S
C1764 C1767 1.391 . S
C1764 C1769 1.391 . S
C1765 H1737 0.929 . S
C1765 C1766 1.390 . S
C1765 N1768 1.391 . S
C1766 H1738 0.930 . S
C1766 C1765 1.390 . S
C1766 C1767 1.392 . S
C1767 H1739 0.929 . S
C1767 C1764 1.391 . S
C1767 C1766 1.392 . S
N1768 Co1712 2.257 . S
N1768 C1765 1.391 . S
N1768 C1769 1.388 . S
C1769 H1740 0.930 . S
C1769 C1764 1.391 . S
C1769 N1768 1.388 . S
Co1770 O1772 2.143 . S
Co1770 O1778 2.074 . S
Co1770 O1781 2.093 . S
Co1770 O1794 2.097 . S
Co1770 N1811 2.151 . S
Co1770 N1819 2.214 . S
Co1771 O1772 2.160 . S
Co1771 O1777 2.058 . S
Co1771 O1787 2.057 . S
Co1771 O1802 2.037 . S
Co1771 N1806 2.145 . S
Co1771 N1827 2.257 . S
O1772 Co1770 2.143 . S
O1772 Co1771 2.160 . S
C1773 O1774 1.278 . S
C1773 O1781 1.224 . S
O1774 C1773 1.278 . S
C1775 O1776 1.245 . S
C1775 O1787 1.232 . S
O1776 C1775 1.245 . S
O1777 Co1771 2.058 . S
O1777 C1803 1.269 . S
O1778 Co1770 2.074 . S
O1778 C1803 1.257 . S
H1779 C1804 0.930 . S
H1780 C1810 0.930 . S
O1781 Co1770 2.093 . S
O1781 C1773 1.224 . S
H1782 C1814 0.929 . S
H1783 C1816 0.930 1_655 S
H1784 C1817 0.930 . S
H1785 C1815 0.929 . S
H1786 C1818 0.928 . S
O1787 Co1771 2.057 . S
O1787 C1775 1.232 . S
H1788 C1807 0.929 . S
H1789 C1808 0.929 . S
H1790 C1820 0.931 . S
H1791 C1812 0.929 . S
H1792 C1821 0.923 1_655 S
H1793 C1813 0.931 . S
O1794 Co1770 2.097 . S
O1794 C1822 1.214 . S
H1795 C1823 0.929 . S
H1796 C1824 0.929 . S
H1797 C1825 0.930 . S
H1798 C1826 0.929 . S
H1799 C1828 0.930 . S
H1800 C1805 0.930 . S
H1801 C1809 0.930 . S
O1802 Co1771 2.037 . S
O1802 C1822 1.234 . S
C1803 O1777 1.269 . S
C1803 O1778 1.257 . S
C1804 H1779 0.930 . S
C1804 C1807 1.388 . S
C1804 C1809 1.418 . S
C1805 H1800 0.930 . S
C1805 C1808 1.404 . S
C1805 C1809 1.353 . S
N1806 Co1771 2.145 . S
N1806 C1807 1.397 . S
N1806 C1808 1.334 . S
C1807 H1788 0.929 . S
C1807 C1804 1.388 . S
C1807 N1806 1.397 . S
C1808 H1789 0.929 . S
C1808 C1805 1.404 . S
C1808 N1806 1.334 . S
C1809 H1801 0.930 . S
C1809 C1804 1.418 . S
C1809 C1805 1.353 . S
C1810 H1780 0.930 . S
C1810 N1811 1.330 . S
C1810 C1812 1.446 1_455 S
N1811 Co1770 2.151 . S
N1811 C1810 1.330 . S
N1811 C1815 1.418 1_455 S
C1812 H1791 0.929 . S
C1812 C1810 1.446 1_655 S
C1812 C1813 1.332 . S
C1813 H1793 0.931 . S
C1813 C1812 1.332 . S
C1813 C1814 1.267 . S
C1814 H1782 0.929 . S
C1814 C1813 1.267 . S
C1814 C1815 1.251 . S
C1815 H1785 0.929 . S
C1815 N1811 1.418 1_655 S
C1815 C1814 1.251 . S
C1816 H1783 0.930 1_455 S
C1816 C1818 1.406 . S
C1816 C1821 1.262 . S
C1817 H1784 0.930 . S
C1817 N1819 1.325 . S
C1817 C1820 1.357 . S
C1818 H1786 0.928 . S
C1818 C1816 1.406 . S
C1818 N1819 1.261 . S
N1819 Co1770 2.214 . S
N1819 C1817 1.325 . S
N1819 C1818 1.261 . S
C1820 H1790 0.931 . S
C1820 C1817 1.357 . S
C1820 C1821 1.318 . S
C1821 H1792 0.923 1_455 S
C1821 C1816 1.262 . S
C1821 C1820 1.318 . S
C1822 O1794 1.214 . S
C1822 O1802 1.234 . S
C1823 H1795 0.929 . S
C1823 C1826 1.391 . S
C1823 C1828 1.391 . S
C1824 H1796 0.929 . S
C1824 C1825 1.390 . S
C1824 N1827 1.391 . S
C1825 H1797 0.930 . S
C1825 C1824 1.390 . S
C1825 C1826 1.392 . S
C1826 H1798 0.929 . S
C1826 C1823 1.391 . S
C1826 C1825 1.392 . S
N1827 Co1771 2.257 . S
N1827 C1824 1.391 . S
N1827 C1828 1.388 . S
C1828 H1799 0.930 . S
C1828 C1823 1.391 . S
C1828 N1827 1.388 . S
Co1829 O1831 2.143 . S
Co1829 O1837 2.074 . S
Co1829 O1840 2.093 . S
Co1829 O1853 2.097 . S
Co1829 N1870 2.151 . S
Co1829 N1878 2.214 . S
Co1830 O1831 2.160 . S
Co1830 O1836 2.058 . S
Co1830 O1846 2.057 . S
Co1830 O1861 2.037 . S
Co1830 N1865 2.145 . S
Co1830 N1886 2.257 . S
O1831 Co1829 2.143 . S
O1831 Co1830 2.160 . S
C1832 O1833 1.278 . S
C1832 O1840 1.224 . S
O1833 C1832 1.278 . S
C1834 O1835 1.245 . S
C1834 O1846 1.232 . S
O1835 C1834 1.245 . S
O1836 Co1830 2.058 . S
O1836 C1862 1.269 . S
O1837 Co1829 2.074 . S
O1837 C1862 1.257 . S
H1838 C1863 0.930 . S
H1839 C1869 0.930 . S
O1840 Co1829 2.093 . S
O1840 C1832 1.224 . S
H1841 C1873 0.929 . S
H1842 C1875 0.930 . S
H1843 C1876 0.930 . S
H1844 C1874 0.929 . S
H1845 C1877 0.928 . S
O1846 Co1830 2.057 . S
O1846 C1834 1.232 . S
H1847 C1866 0.929 . S
H1848 C1867 0.929 . S
H1849 C1879 0.931 . S
H1850 C1871 0.929 . S
H1851 C1880 0.930 . S
H1852 C1872 0.931 . S
O1853 Co1829 2.097 . S
O1853 C1881 1.214 . S
H1854 C1882 0.929 . S
H1855 C1883 0.929 . S
H1856 C1884 0.930 . S
H1857 C1885 0.929 . S
H1858 C1887 0.930 . S
H1859 C1864 0.930 . S
H1860 C1868 0.930 . S
O1861 Co1830 2.037 . S
O1861 C1881 1.234 . S
C1862 O1836 1.269 . S
C1862 O1837 1.257 . S
C1863 H1838 0.930 . S
C1863 C1866 1.388 . S
C1863 C1868 1.418 . S
C1864 H1859 0.930 . S
C1864 C1867 1.404 . S
C1864 C1868 1.353 . S
N1865 Co1830 2.145 . S
N1865 C1866 1.397 . S
N1865 C1867 1.334 . S
C1866 H1847 0.929 . S
C1866 C1863 1.388 . S
C1866 N1865 1.397 . S
C1867 H1848 0.929 . S
C1867 C1864 1.404 . S
C1867 N1865 1.334 . S
C1868 H1860 0.930 . S
C1868 C1863 1.418 . S
C1868 C1864 1.353 . S
C1869 H1839 0.930 . S
C1869 N1870 1.330 . S
C1869 C1871 1.446 . S
N1870 Co1829 2.151 . S
N1870 C1869 1.330 . S
N1870 C1874 1.418 . S
C1871 H1850 0.929 . S
C1871 C1869 1.446 . S
C1871 C1872 1.332 . S
C1872 H1852 0.931 . S
C1872 C1871 1.332 . S
C1872 C1873 1.267 . S
C1873 H1841 0.929 . S
C1873 C1872 1.267 . S
C1873 C1874 1.251 . S
C1874 H1844 0.929 . S
C1874 N1870 1.418 . S
C1874 C1873 1.251 . S
C1875 H1842 0.930 . S
C1875 C1877 1.406 . S
C1875 C1880 1.261 . S
C1876 H1843 0.930 . S
C1876 N1878 1.325 . S
C1876 C1879 1.357 . S
C1877 H1845 0.928 . S
C1877 C1875 1.406 . S
C1877 N1878 1.261 . S
N1878 Co1829 2.214 . S
N1878 C1876 1.325 . S
N1878 C1877 1.261 . S
C1879 H1849 0.931 . S
C1879 C1876 1.357 . S
C1879 C1880 1.312 . S
C1880 H1851 0.930 . S
C1880 C1875 1.261 . S
C1880 C1879 1.312 . S
C1881 O1853 1.214 . S
C1881 O1861 1.234 . S
C1882 H1854 0.929 . S
C1882 C1885 1.391 . S
C1882 C1887 1.391 . S
C1883 H1855 0.929 . S
C1883 C1884 1.390 . S
C1883 N1886 1.391 . S
C1884 H1856 0.930 . S
C1884 C1883 1.390 . S
C1884 C1885 1.392 . S
C1885 H1857 0.929 . S
C1885 C1882 1.391 . S
C1885 C1884 1.392 . S
N1886 Co1830 2.257 . S
N1886 C1883 1.391 . S
N1886 C1887 1.388 . S
C1887 H1858 0.930 . S
C1887 C1882 1.391 . S
C1887 N1886 1.388 . S
C1888 C1889 1.387 . S
C1888 H1892 0.950 . S
C1888 C1897 1.390 . S
C1889 C1888 1.387 . S
C1889 C1891 1.387 . S
H1890 C1897 0.950 . S
C1891 C1889 1.387 . S
C1891 C1893 1.390 . S
C1891 H1895 0.950 . S
H1892 C1888 0.950 . S
C1893 C1891 1.390 . S
C1893 C1894 1.387 . S
C1893 H1896 0.950 . S
C1894 C1893 1.387 . S
C1894 C1897 1.387 . S
H1895 C1891 0.950 . S
H1896 C1893 0.950 . S
C1897 C1888 1.390 . S
C1897 H1890 0.950 . S
C1897 C1894 1.387 . S
C1898 C1899 1.387 . S
C1898 H1902 0.950 . S
C1898 C1907 1.390 . S
C1899 C1898 1.387 . S
C1899 C1901 1.387 . S
H1900 C1907 0.950 . S
C1901 C1899 1.387 . S
C1901 C1903 1.390 . S
C1901 H1905 0.950 . S
H1902 C1898 0.950 . S
C1903 C1901 1.390 . S
C1903 C1904 1.387 . S
C1903 H1906 0.950 . S
C1904 C1903 1.387 . S
C1904 C1907 1.387 . S
H1905 C1901 0.950 . S
H1906 C1903 0.950 . S
C1907 C1898 1.390 . S
C1907 H1900 0.950 . S
C1907 C1904 1.387 . S
C1908 C1909 1.387 . S
C1908 H1912 0.950 . S
C1908 C1917 1.390 . S
C1909 C1908 1.387 . S
C1909 C1911 1.387 . S
H1910 C1917 0.950 . S
C1911 C1909 1.387 . S
C1911 C1913 1.390 . S
C1911 H1915 0.950 . S
H1912 C1908 0.950 . S
C1913 C1911 1.390 . S
C1913 C1914 1.387 . S
C1913 H1916 0.950 . S
C1914 C1913 1.387 . S
C1914 C1917 1.387 . S
H1915 C1911 0.950 . S
H1916 C1913 0.950 . S
C1917 C1908 1.390 . S
C1917 H1910 0.950 . S
C1917 C1914 1.387 . S
C1918 C1919 1.387 . S
C1918 H1922 0.950 . S
C1918 C1927 1.390 . S
C1919 C1918 1.387 . S
C1919 C1921 1.387 . S
H1920 C1927 0.950 . S
C1921 C1919 1.387 . S
C1921 C1923 1.390 . S
C1921 H1925 0.950 . S
H1922 C1918 0.950 . S
C1923 C1921 1.390 . S
C1923 C1924 1.387 . S
C1923 H1926 0.950 . S
C1924 C1923 1.387 . S
C1924 C1927 1.387 . S
H1925 C1921 0.950 . S
H1926 C1923 0.950 . S
C1927 C1918 1.390 . S
C1927 H1920 0.950 . S
C1927 C1924 1.387 . S
C1928 C1929 1.387 . S
C1928 H1932 0.950 . S
C1928 C1937 1.390 . S
C1929 C1928 1.387 . S
C1929 C1931 1.387 . S
H1930 C1937 0.950 . S
C1931 C1929 1.387 . S
C1931 C1933 1.390 . S
C1931 H1935 0.950 . S
H1932 C1928 0.950 . S
C1933 C1931 1.390 . S
C1933 C1934 1.387 . S
C1933 H1936 0.950 . S
C1934 C1933 1.387 . S
C1934 C1937 1.387 . S
H1935 C1931 0.950 . S
H1936 C1933 0.950 . S
C1937 C1928 1.390 . S
C1937 H1930 0.950 . S
C1937 C1934 1.387 . S
C1938 C1939 1.387 . S
C1938 H1942 0.950 . S
C1938 C1947 1.390 . S
C1939 C1938 1.387 . S
C1939 C1941 1.387 . S
H1940 C1947 0.950 . S
C1941 C1939 1.387 . S
C1941 C1943 1.390 . S
C1941 H1945 0.950 . S
H1942 C1938 0.950 . S
C1943 C1941 1.390 . S
C1943 C1944 1.387 . S
C1943 H1946 0.950 . S
C1944 C1943 1.387 . S
C1944 C1947 1.387 . S
H1945 C1941 0.950 . S
H1946 C1943 0.950 . S
C1947 C1938 1.390 . S
C1947 H1940 0.950 . S
C1947 C1944 1.387 . S
C1948 C1949 1.387 . S
C1948 H1952 0.950 . S
C1948 C1957 1.390 . S
C1949 C1948 1.387 . S
C1949 C1951 1.387 . S
H1950 C1957 0.950 . S
C1951 C1949 1.387 . S
C1951 C1953 1.390 . S
C1951 H1955 0.950 . S
H1952 C1948 0.950 . S
C1953 C1951 1.390 . S
C1953 C1954 1.387 . S
C1953 H1956 0.950 . S
C1954 C1953 1.387 . S
C1954 C1957 1.387 . S
H1955 C1951 0.950 . S
H1956 C1953 0.950 . S
C1957 C1948 1.390 . S
C1957 H1950 0.950 . S
C1957 C1954 1.387 . S
C1958 C1959 1.387 . S
C1958 H1962 0.950 . S
C1958 C1967 1.390 . S
C1959 C1958 1.387 . S
C1959 C1961 1.387 . S
H1960 C1967 0.950 . S
C1961 C1959 1.387 . S
C1961 C1963 1.390 . S
C1961 H1965 0.950 . S
H1962 C1958 0.950 . S
C1963 C1961 1.390 . S
C1963 C1964 1.387 . S
C1963 H1966 0.950 . S
C1964 C1963 1.387 . S
C1964 C1967 1.387 . S
H1965 C1961 0.950 . S
H1966 C1963 0.950 . S
C1967 C1958 1.390 . S
C1967 H1960 0.950 . S
C1967 C1964 1.387 . S
C1968 C1969 1.387 . S
C1968 H1972 0.950 . S
C1968 C1977 1.390 . S
C1969 C1968 1.387 . S
C1969 C1971 1.387 . S
H1970 C1977 0.950 . S
C1971 C1969 1.387 . S
C1971 C1973 1.390 . S
C1971 H1975 0.950 . S
H1972 C1968 0.950 . S
C1973 C1971 1.390 . S
C1973 C1974 1.387 . S
C1973 H1976 0.950 . S
C1974 C1973 1.387 . S
C1974 C1977 1.387 . S
H1975 C1971 0.950 . S
H1976 C1973 0.950 . S
C1977 C1968 1.390 . S
C1977 H1970 0.950 . S
C1977 C1974 1.387 . S
C1978 C1979 1.387 . S
C1978 H1982 0.950 . S
C1978 C1987 1.390 . S
C1979 C1978 1.387 . S
C1979 C1981 1.387 . S
H1980 C1987 0.950 . S
C1981 C1979 1.387 . S
C1981 C1983 1.390 . S
C1981 H1985 0.950 . S
H1982 C1978 0.950 . S
C1983 C1981 1.390 . S
C1983 C1984 1.387 . S
C1983 H1986 0.950 . S
C1984 C1983 1.387 . S
C1984 C1987 1.387 . S
H1985 C1981 0.950 . S
H1986 C1983 0.950 . S
C1987 C1978 1.390 . S
C1987 H1980 0.950 . S
C1987 C1984 1.387 . S
C1988 C1989 1.387 . S
C1988 H1992 0.950 . S
C1988 C1997 1.390 . S
C1989 C1988 1.387 . S
C1989 C1991 1.387 . S
H1990 C1997 0.950 . S
C1991 C1989 1.387 . S
C1991 C1993 1.390 . S
C1991 H1995 0.950 . S
H1992 C1988 0.950 . S
C1993 C1991 1.390 . S
C1993 C1994 1.387 . S
C1993 H1996 0.950 . S
C1994 C1993 1.387 . S
C1994 C1997 1.387 . S
H1995 C1991 0.950 . S
H1996 C1993 0.950 . S
C1997 C1988 1.390 . S
C1997 H1990 0.950 . S
C1997 C1994 1.387 . S
C1998 C1999 1.387 . S
C1998 H2002 0.950 . S
C1998 C2007 1.390 . S
C1999 C1998 1.387 . S
C1999 C2001 1.387 . S
H2000 C2007 0.950 . S
C2001 C1999 1.387 . S
C2001 C2003 1.390 . S
C2001 H2005 0.950 . S
H2002 C1998 0.950 . S
C2003 C2001 1.390 . S
C2003 C2004 1.387 . S
C2003 H2006 0.950 . S
C2004 C2003 1.387 . S
C2004 C2007 1.387 . S
H2005 C2001 0.950 . S
H2006 C2003 0.950 . S
C2007 C1998 1.390 . S
C2007 H2000 0.950 . S
C2007 C2004 1.387 . S
C2008 C2009 1.387 . S
C2008 H2012 0.950 . S
C2008 C2017 1.390 . S
C2009 C2008 1.387 . S
C2009 C2011 1.387 . S
H2010 C2017 0.950 . S
C2011 C2009 1.387 . S
C2011 C2013 1.390 . S
C2011 H2015 0.950 . S
H2012 C2008 0.950 . S
C2013 C2011 1.390 . S
C2013 C2014 1.387 . S
C2013 H2016 0.950 . S
C2014 C2013 1.387 . S
C2014 C2017 1.387 . S
H2015 C2011 0.950 . S
H2016 C2013 0.950 . S
C2017 C2008 1.390 . S
C2017 H2010 0.950 . S
C2017 C2014 1.387 . S
C2018 C2019 1.387 . S
C2018 H2022 0.950 . S
C2018 C2027 1.390 . S
C2019 C2018 1.387 . S
C2019 C2021 1.387 . S
H2020 C2027 0.950 . S
C2021 C2019 1.387 . S
C2021 C2023 1.390 . S
C2021 H2025 0.950 . S
H2022 C2018 0.950 . S
C2023 C2021 1.390 . S
C2023 C2024 1.387 . S
C2023 H2026 0.950 . S
C2024 C2023 1.387 . S
C2024 C2027 1.387 . S
H2025 C2021 0.950 . S
H2026 C2023 0.950 . S
C2027 C2018 1.390 . S
C2027 H2020 0.950 . S
C2027 C2024 1.387 . S
C2028 C2029 1.387 . S
C2028 H2032 0.950 . S
C2028 C2037 1.390 . S
C2029 C2028 1.387 . S
C2029 C2031 1.387 . S
H2030 C2037 0.950 . S
C2031 C2029 1.387 . S
C2031 C2033 1.390 . S
C2031 H2035 0.950 . S
H2032 C2028 0.950 . S
C2033 C2031 1.390 . S
C2033 C2034 1.387 . S
C2033 H2036 0.950 . S
C2034 C2033 1.387 . S
C2034 C2037 1.387 . S
H2035 C2031 0.950 . S
H2036 C2033 0.950 . S
C2037 C2028 1.390 . S
C2037 H2030 0.950 . S
C2037 C2034 1.387 . S
C2038 C2039 1.387 . S
C2038 H2042 0.950 . S
C2038 C2047 1.390 . S
C2039 C2038 1.387 . S
C2039 C2041 1.387 . S
H2040 C2047 0.950 . S
C2041 C2039 1.387 . S
C2041 C2043 1.390 . S
C2041 H2045 0.950 . S
H2042 C2038 0.950 . S
C2043 C2041 1.390 . S
C2043 C2044 1.387 . S
C2043 H2046 0.950 . S
C2044 C2043 1.387 . S
C2044 C2047 1.387 . S
H2045 C2041 0.950 . S
H2046 C2043 0.950 . S
C2047 C2038 1.390 . S
C2047 H2040 0.950 . S
C2047 C2044 1.387 . S
C2048 C2049 1.387 . S
C2048 H2052 0.950 . S
C2048 C2057 1.390 . S
C2049 C2048 1.387 . S
C2049 C2051 1.387 . S
H2050 C2057 0.950 . S
C2051 C2049 1.387 . S
C2051 C2053 1.390 . S
C2051 H2055 0.950 . S
H2052 C2048 0.950 . S
C2053 C2051 1.390 . S
C2053 C2054 1.387 . S
C2053 H2056 0.950 . S
C2054 C2053 1.387 . S
C2054 C2057 1.387 . S
H2055 C2051 0.950 . S
H2056 C2053 0.950 . S
C2057 C2048 1.390 . S
C2057 H2050 0.950 . S
C2057 C2054 1.387 . S
C2058 C2059 1.387 . S
C2058 H2062 0.950 . S
C2058 C2067 1.390 . S
C2059 C2058 1.387 . S
C2059 C2061 1.387 . S
H2060 C2067 0.950 . S
C2061 C2059 1.387 . S
C2061 C2063 1.390 . S
C2061 H2065 0.950 . S
H2062 C2058 0.950 . S
C2063 C2061 1.390 . S
C2063 C2064 1.387 . S
C2063 H2066 0.950 . S
C2064 C2063 1.387 . S
C2064 C2067 1.387 . S
H2065 C2061 0.950 . S
H2066 C2063 0.950 . S
C2067 C2058 1.390 . S
C2067 H2060 0.950 . S
C2067 C2064 1.387 . S
C2068 C2069 1.387 . S
C2068 H2072 0.950 . S
C2068 C2077 1.390 . S
C2069 C2068 1.387 . S
C2069 C2071 1.387 . S
H2070 C2077 0.950 . S
C2071 C2069 1.387 . S
C2071 C2073 1.390 . S
C2071 H2075 0.950 . S
H2072 C2068 0.950 . S
C2073 C2071 1.390 . S
C2073 C2074 1.387 . S
C2073 H2076 0.950 . S
C2074 C2073 1.387 . S
C2074 C2077 1.387 . S
H2075 C2071 0.950 . S
H2076 C2073 0.950 . S
C2077 C2068 1.390 . S
C2077 H2070 0.950 . S
C2077 C2074 1.387 . S
C2078 C2079 1.387 . S
C2078 H2082 0.950 . S
C2078 C2087 1.390 . S
C2079 C2078 1.387 . S
C2079 C2081 1.387 . S
H2080 C2087 0.950 . S
C2081 C2079 1.387 . S
C2081 C2083 1.390 . S
C2081 H2085 0.950 . S
H2082 C2078 0.950 . S
C2083 C2081 1.390 . S
C2083 C2084 1.387 . S
C2083 H2086 0.950 . S
C2084 C2083 1.387 . S
C2084 C2087 1.387 . S
H2085 C2081 0.950 . S
H2086 C2083 0.950 . S
C2087 C2078 1.390 . S
C2087 H2080 0.950 . S
C2087 C2084 1.387 . S
C2088 C2089 1.387 . S
C2088 H2092 0.950 . S
C2088 C2097 1.390 . S
C2089 C2088 1.387 . S
C2089 C2091 1.387 . S
H2090 C2097 0.950 . S
C2091 C2089 1.387 . S
C2091 C2093 1.390 . S
C2091 H2095 0.950 . S
H2092 C2088 0.950 . S
C2093 C2091 1.390 . S
C2093 C2094 1.387 . S
C2093 H2096 0.950 . S
C2094 C2093 1.387 . S
C2094 C2097 1.387 . S
H2095 C2091 0.950 . S
H2096 C2093 0.950 . S
C2097 C2088 1.390 . S
C2097 H2090 0.950 . S
C2097 C2094 1.387 . S
C2098 C2099 1.387 . S
C2098 H2102 0.950 . S
C2098 C2107 1.390 . S
C2099 C2098 1.387 . S
C2099 C2101 1.387 . S
H2100 C2107 0.950 . S
C2101 C2099 1.387 . S
C2101 C2103 1.390 . S
C2101 H2105 0.950 . S
H2102 C2098 0.950 . S
C2103 C2101 1.390 . S
C2103 C2104 1.387 . S
C2103 H2106 0.950 . S
C2104 C2103 1.387 . S
C2104 C2107 1.387 . S
H2105 C2101 0.950 . S
H2106 C2103 0.950 . S
C2107 C2098 1.390 . S
C2107 H2100 0.950 . S
C2107 C2104 1.387 . S
C2108 C2109 1.387 . S
C2108 H2112 0.950 . S
C2108 C2117 1.390 . S
C2109 C2108 1.387 . S
C2109 C2111 1.387 . S
H2110 C2117 0.950 . S
C2111 C2109 1.387 . S
C2111 C2113 1.390 . S
C2111 H2115 0.950 . S
H2112 C2108 0.950 . S
C2113 C2111 1.390 . S
C2113 C2114 1.387 . S
C2113 H2116 0.950 . S
C2114 C2113 1.387 . S
C2114 C2117 1.387 . S
H2115 C2111 0.950 . S
H2116 C2113 0.950 . S
C2117 C2108 1.390 . S
C2117 H2110 0.950 . S
C2117 C2114 1.387 . S
C2118 C2119 1.387 . S
C2118 H2122 0.950 . S
C2118 C2127 1.390 . S
C2119 C2118 1.387 . S
C2119 C2121 1.387 . S
H2120 C2127 0.950 . S
C2121 C2119 1.387 . S
C2121 C2123 1.390 . S
C2121 H2125 0.950 . S
H2122 C2118 0.950 . S
C2123 C2121 1.390 . S
C2123 C2124 1.387 . S
C2123 H2126 0.950 . S
C2124 C2123 1.387 . S
C2124 C2127 1.387 . S
H2125 C2121 0.950 . S
H2126 C2123 0.950 . S
C2127 C2118 1.390 . S
C2127 H2120 0.950 . S
C2127 C2124 1.387 . S
C2128 C2129 1.387 . S
C2128 H2132 0.950 . S
C2128 C2137 1.390 . S
C2129 C2128 1.387 . S
C2129 C2131 1.387 . S
H2130 C2137 0.950 . S
C2131 C2129 1.387 . S
C2131 C2133 1.390 . S
C2131 H2135 0.950 . S
H2132 C2128 0.950 . S
C2133 C2131 1.390 . S
C2133 C2134 1.387 . S
C2133 H2136 0.950 . S
C2134 C2133 1.387 . S
C2134 C2137 1.387 . S
H2135 C2131 0.950 . S
H2136 C2133 0.950 . S
C2137 C2128 1.390 . S
C2137 H2130 0.950 . S
C2137 C2134 1.387 . S
C2138 C2139 1.387 . S
C2138 H2142 0.950 . S
C2138 C2147 1.390 . S
C2139 C2138 1.387 . S
C2139 C2141 1.387 . S
H2140 C2147 0.950 . S
C2141 C2139 1.387 . S
C2141 C2143 1.390 . S
C2141 H2145 0.950 . S
H2142 C2138 0.950 . S
C2143 C2141 1.390 . S
C2143 C2144 1.387 . S
C2143 H2146 0.950 . S
C2144 C2143 1.387 . S
C2144 C2147 1.387 . S
H2145 C2141 0.950 . S
H2146 C2143 0.950 . S
C2147 C2138 1.390 . S
C2147 H2140 0.950 . S
C2147 C2144 1.387 . S
C2148 C2149 1.387 . S
C2148 H2152 0.950 . S
C2148 C2157 1.390 . S
C2149 C2148 1.387 . S
C2149 C2151 1.387 . S
H2150 C2157 0.950 . S
C2151 C2149 1.387 . S
C2151 C2153 1.390 . S
C2151 H2155 0.950 . S
H2152 C2148 0.950 . S
C2153 C2151 1.390 . S
C2153 C2154 1.387 . S
C2153 H2156 0.950 . S
C2154 C2153 1.387 . S
C2154 C2157 1.387 . S
H2155 C2151 0.950 . S
H2156 C2153 0.950 . S
C2157 C2148 1.390 . S
C2157 H2150 0.950 . S
C2157 C2154 1.387 . S
C2158 C2159 1.387 . S
C2158 H2162 0.950 . S
C2158 C2167 1.390 . S
C2159 C2158 1.387 . S
C2159 C2161 1.387 . S
H2160 C2167 0.950 . S
C2161 C2159 1.387 . S
C2161 C2163 1.390 . S
C2161 H2165 0.950 . S
H2162 C2158 0.950 . S
C2163 C2161 1.390 . S
C2163 C2164 1.387 . S
C2163 H2166 0.950 . S
C2164 C2163 1.387 . S
C2164 C2167 1.387 . S
H2165 C2161 0.950 . S
H2166 C2163 0.950 . S
C2167 C2158 1.390 . S
C2167 H2160 0.950 . S
C2167 C2164 1.387 . S
C2168 C2169 1.387 . S
C2168 H2172 0.950 . S
C2168 C2177 1.390 . S
C2169 C2168 1.387 . S
C2169 C2171 1.387 . S
H2170 C2177 0.950 . S
C2171 C2169 1.387 . S
C2171 C2173 1.390 . S
C2171 H2175 0.950 . S
H2172 C2168 0.950 . S
C2173 C2171 1.390 . S
C2173 C2174 1.387 . S
C2173 H2176 0.950 . S
C2174 C2173 1.387 . S
C2174 C2177 1.387 . S
H2175 C2171 0.950 . S
H2176 C2173 0.950 . S
C2177 C2168 1.390 . S
C2177 H2170 0.950 . S
C2177 C2174 1.387 . S
C2178 C2179 1.387 . S
C2178 H2182 0.950 . S
C2178 C2187 1.390 . S
C2179 C2178 1.387 . S
C2179 C2181 1.387 . S
H2180 C2187 0.950 . S
C2181 C2179 1.387 . S
C2181 C2183 1.390 . S
C2181 H2185 0.950 . S
H2182 C2178 0.950 . S
C2183 C2181 1.390 . S
C2183 C2184 1.387 . S
C2183 H2186 0.950 . S
C2184 C2183 1.387 . S
C2184 C2187 1.387 . S
H2185 C2181 0.950 . S
H2186 C2183 0.950 . S
C2187 C2178 1.390 . S
C2187 H2180 0.950 . S
C2187 C2184 1.387 . S
C2188 C2189 1.387 . S
C2188 H2192 0.950 . S
C2188 C2197 1.390 . S
C2189 C2188 1.387 . S
C2189 C2191 1.387 . S
H2190 C2197 0.950 . S
C2191 C2189 1.387 . S
C2191 C2193 1.390 . S
C2191 H2195 0.950 . S
H2192 C2188 0.950 . S
C2193 C2191 1.390 . S
C2193 C2194 1.387 . S
C2193 H2196 0.950 . S
C2194 C2193 1.387 . S
C2194 C2197 1.387 . S
H2195 C2191 0.950 . S
H2196 C2193 0.950 . S
C2197 C2188 1.390 . S
C2197 H2190 0.950 . S
C2197 C2194 1.387 . S
C2198 C2199 1.387 . S
C2198 H2202 0.950 . S
C2198 C2207 1.390 . S
C2199 C2198 1.387 . S
C2199 C2201 1.387 . S
H2200 C2207 0.950 1_655 S
C2201 C2199 1.387 . S
C2201 C2203 1.390 . S
C2201 H2205 0.950 . S
H2202 C2198 0.950 . S
C2203 C2201 1.390 . S
C2203 C2204 1.387 . S
C2203 H2206 0.950 . S
C2204 C2203 1.387 . S
C2204 C2207 1.387 . S
H2205 C2201 0.950 . S
H2206 C2203 0.950 . S
C2207 C2198 1.390 . S
C2207 H2200 0.950 1_455 S
C2207 C2204 1.387 . S
C2208 C2209 1.387 . S
C2208 H2212 0.950 . S
C2208 C2217 1.390 . S
C2209 C2208 1.387 . S
C2209 C2211 1.387 . S
H2210 C2217 0.950 . S
C2211 C2209 1.387 . S
C2211 C2213 1.390 . S
C2211 H2215 0.950 . S
H2212 C2208 0.950 . S
C2213 C2211 1.390 . S
C2213 C2214 1.387 . S
C2213 H2216 0.950 . S
C2214 C2213 1.387 . S
C2214 C2217 1.387 . S
H2215 C2211 0.950 . S
H2216 C2213 0.950 . S
C2217 C2208 1.390 . S
C2217 H2210 0.950 . S
C2217 C2214 1.387 . S
C2218 C2219 1.387 . S
C2218 H2222 0.950 . S
C2218 C2227 1.390 . S
C2219 C2218 1.387 . S
C2219 C2221 1.387 . S
H2220 C2227 0.950 . S
C2221 C2219 1.387 . S
C2221 C2223 1.390 . S
C2221 H2225 0.950 . S
H2222 C2218 0.950 . S
C2223 C2221 1.390 . S
C2223 C2224 1.387 . S
C2223 H2226 0.950 . S
C2224 C2223 1.387 . S
C2224 C2227 1.387 . S
H2225 C2221 0.950 . S
H2226 C2223 0.950 . S
C2227 C2218 1.390 . S
C2227 H2220 0.950 . S
C2227 C2224 1.387 . S
C2228 C2229 1.387 . S
C2228 H2232 0.950 . S
C2228 C2237 1.390 . S
C2229 C2228 1.387 . S
C2229 C2231 1.387 . S
H2230 C2237 0.950 . S
C2231 C2229 1.387 . S
C2231 C2233 1.390 . S
C2231 H2235 0.950 . S
H2232 C2228 0.950 . S
C2233 C2231 1.390 . S
C2233 C2234 1.387 . S
C2233 H2236 0.950 . S
C2234 C2233 1.387 . S
C2234 C2237 1.387 . S
H2235 C2231 0.950 . S
H2236 C2233 0.950 . S
C2237 C2228 1.390 . S
C2237 H2230 0.950 . S
C2237 C2234 1.387 . S
C2238 C2239 1.387 . S
C2238 H2242 0.950 . S
C2238 C2247 1.390 . S
C2239 C2238 1.387 . S
C2239 C2241 1.387 . S
H2240 C2247 0.950 . S
C2241 C2239 1.387 . S
C2241 C2243 1.390 . S
C2241 H2245 0.950 . S
H2242 C2238 0.950 . S
C2243 C2241 1.390 . S
C2243 C2244 1.387 . S
C2243 H2246 0.950 . S
C2244 C2243 1.387 . S
C2244 C2247 1.387 . S
H2245 C2241 0.950 . S
H2246 C2243 0.950 . S
C2247 C2238 1.390 . S
C2247 H2240 0.950 . S
C2247 C2244 1.387 . S
C2248 C2249 1.387 . S
C2248 H2252 0.950 . S
C2248 C2257 1.390 . S
C2249 C2248 1.387 . S
C2249 C2251 1.387 . S
H2250 C2257 0.950 . S
C2251 C2249 1.387 . S
C2251 C2253 1.390 . S
C2251 H2255 0.950 . S
H2252 C2248 0.950 . S
C2253 C2251 1.390 . S
C2253 C2254 1.387 . S
C2253 H2256 0.950 . S
C2254 C2253 1.387 . S
C2254 C2257 1.387 . S
H2255 C2251 0.950 . S
H2256 C2253 0.950 . S
C2257 C2248 1.390 . S
C2257 H2250 0.950 . S
C2257 C2254 1.387 . S
C2258 C2259 1.387 . S
C2258 H2262 0.950 . S
C2258 C2267 1.390 . S
C2259 C2258 1.387 . S
C2259 C2261 1.387 . S
H2260 C2267 0.950 . S
C2261 C2259 1.387 . S
C2261 C2263 1.390 . S
C2261 H2265 0.950 . S
H2262 C2258 0.950 . S
C2263 C2261 1.390 . S
C2263 C2264 1.387 . S
C2263 H2266 0.950 . S
C2264 C2263 1.387 . S
C2264 C2267 1.387 . S
H2265 C2261 0.950 . S
H2266 C2263 0.950 . S
C2267 C2258 1.390 . S
C2267 H2260 0.950 . S
C2267 C2264 1.387 . S
C2268 C2269 1.387 . S
C2268 H2272 0.950 . S
C2268 C2277 1.390 . S
C2269 C2268 1.387 . S
C2269 C2271 1.387 . S
H2270 C2277 0.950 . S
C2271 C2269 1.387 . S
C2271 C2273 1.390 . S
C2271 H2275 0.950 . S
H2272 C2268 0.950 . S
C2273 C2271 1.390 . S
C2273 C2274 1.387 . S
C2273 H2276 0.950 . S
C2274 C2273 1.387 . S
C2274 C2277 1.387 . S
H2275 C2271 0.950 . S
H2276 C2273 0.950 . S
C2277 C2268 1.390 . S
C2277 H2270 0.950 . S
C2277 C2274 1.387 . S
C2278 C2279 1.387 . S
C2278 H2282 0.950 . S
C2278 C2287 1.390 . S
C2279 C2278 1.387 . S
C2279 C2281 1.387 . S
H2280 C2287 0.950 . S
C2281 C2279 1.387 . S
C2281 C2283 1.390 . S
C2281 H2285 0.950 . S
H2282 C2278 0.950 . S
C2283 C2281 1.390 . S
C2283 C2284 1.387 . S
C2283 H2286 0.950 . S
C2284 C2283 1.387 . S
C2284 C2287 1.387 . S
H2285 C2281 0.950 . S
H2286 C2283 0.950 . S
C2287 C2278 1.390 . S
C2287 H2280 0.950 . S
C2287 C2284 1.387 . S
C2288 C2289 1.387 . S
C2288 H2292 0.950 . S
C2288 C2297 1.390 . S
C2289 C2288 1.387 . S
C2289 C2291 1.387 . S
H2290 C2297 0.950 . S
C2291 C2289 1.387 . S
C2291 C2293 1.390 . S
C2291 H2295 0.950 . S
H2292 C2288 0.950 . S
C2293 C2291 1.390 . S
C2293 C2294 1.387 . S
C2293 H2296 0.950 . S
C2294 C2293 1.387 . S
C2294 C2297 1.387 . S
H2295 C2291 0.950 . S
H2296 C2293 0.950 . S
C2297 C2288 1.390 . S
C2297 H2290 0.950 . S
C2297 C2294 1.387 . S
C2298 C2299 1.387 . S
C2298 H2302 0.950 . S
C2298 C2307 1.390 . S
C2299 C2298 1.387 . S
C2299 C2301 1.387 . S
H2300 C2307 0.950 . S
C2301 C2299 1.387 . S
C2301 C2303 1.390 . S
C2301 H2305 0.950 . S
H2302 C2298 0.950 . S
C2303 C2301 1.390 . S
C2303 C2304 1.387 . S
C2303 H2306 0.950 . S
C2304 C2303 1.387 . S
C2304 C2307 1.387 . S
H2305 C2301 0.950 . S
H2306 C2303 0.950 . S
C2307 C2298 1.390 . S
C2307 H2300 0.950 . S
C2307 C2304 1.387 . S
C2308 C2309 1.387 . S
C2308 H2312 0.950 . S
C2308 C2317 1.390 . S
C2309 C2308 1.387 . S
C2309 C2311 1.387 . S
H2310 C2317 0.950 . S
C2311 C2309 1.387 . S
C2311 C2313 1.390 . S
C2311 H2315 0.950 . S
H2312 C2308 0.950 . S
C2313 C2311 1.390 . S
C2313 C2314 1.387 . S
C2313 H2316 0.950 . S
C2314 C2313 1.387 . S
C2314 C2317 1.387 . S
H2315 C2311 0.950 . S
H2316 C2313 0.950 . S
C2317 C2308 1.390 . S
C2317 H2310 0.950 . S
C2317 C2314 1.387 . S
C2318 C2319 1.387 . S
C2318 H2322 0.950 . S
C2318 C2327 1.390 . S
C2319 C2318 1.387 . S
C2319 C2321 1.387 . S
H2320 C2327 0.950 . S
C2321 C2319 1.387 . S
C2321 C2323 1.390 . S
C2321 H2325 0.950 . S
H2322 C2318 0.950 . S
C2323 C2321 1.390 . S
C2323 C2324 1.387 . S
C2323 H2326 0.923 1_655 S
C2324 C2323 1.387 . S
C2324 C2327 1.387 . S
H2325 C2321 0.950 . S
H2326 C2323 0.923 1_455 S
C2327 C2318 1.390 . S
C2327 H2320 0.950 . S
C2327 C2324 1.387 . S
C2328 C2329 1.387 . S
C2328 H2332 0.950 . S
C2328 C2337 1.390 . S
C2329 C2328 1.387 . S
C2329 C2331 1.387 . S
H2330 C2337 0.950 . S
C2331 C2329 1.387 . S
C2331 C2333 1.390 . S
C2331 H2335 0.950 . S
H2332 C2328 0.950 . S
C2333 C2331 1.390 . S
C2333 C2334 1.387 . S
C2333 H2336 0.950 . S
C2334 C2333 1.387 . S
C2334 C2337 1.387 . S
H2335 C2331 0.950 . S
H2336 C2333 0.950 . S
C2337 C2328 1.390 . S
C2337 H2330 0.950 . S
C2337 C2334 1.387 . S
C2338 C2339 1.387 . S
C2338 H2342 0.950 . S
C2338 C2347 1.390 . S
C2339 C2338 1.387 . S
C2339 C2341 1.387 . S
H2340 C2347 0.950 . S
C2341 C2339 1.387 . S
C2341 C2343 1.390 . S
C2341 H2345 0.950 . S
H2342 C2338 0.950 . S
C2343 C2341 1.390 . S
C2343 C2344 1.387 . S
C2343 H2346 0.950 . S
C2344 C2343 1.387 . S
C2344 C2347 1.387 . S
H2345 C2341 0.950 . S
H2346 C2343 0.950 . S
C2347 C2338 1.390 . S
C2347 H2340 0.950 . S
C2347 C2344 1.387 . S
C2348 C2349 1.387 . S
C2348 H2352 0.950 . S
C2348 C2357 1.390 . S
C2349 C2348 1.387 . S
C2349 C2351 1.387 . S
H2350 C2357 0.950 . S
C2351 C2349 1.387 . S
C2351 C2353 1.390 . S
C2351 H2355 0.950 . S
H2352 C2348 0.950 . S
C2353 C2351 1.390 . S
C2353 C2354 1.387 . S
C2353 H2356 0.950 . S
C2354 C2353 1.387 . S
C2354 C2357 1.387 . S
H2355 C2351 0.950 . S
H2356 C2353 0.950 . S
C2357 C2348 1.390 . S
C2357 H2350 0.950 . S
C2357 C2354 1.387 . S
C2358 C2359 1.387 . S
C2358 H2362 0.950 . S
C2358 C2367 1.390 . S
C2359 C2358 1.387 . S
C2359 C2361 1.387 . S
H2360 C2367 0.950 . S
C2361 C2359 1.387 . S
C2361 C2363 1.390 . S
C2361 H2365 0.950 . S
H2362 C2358 0.950 . S
C2363 C2361 1.390 . S
C2363 C2364 1.387 . S
C2363 H2366 0.950 . S
C2364 C2363 1.387 . S
C2364 C2367 1.387 . S
H2365 C2361 0.950 . S
H2366 C2363 0.950 . S
C2367 C2358 1.390 . S
C2367 H2360 0.950 . S
C2367 C2364 1.387 . S
C2368 C2369 1.387 . S
C2368 H2372 0.950 . S
C2368 C2377 1.390 . S
C2369 C2368 1.387 . S
C2369 C2371 1.387 . S
H2370 C2377 0.950 . S
C2371 C2369 1.387 . S
C2371 C2373 1.390 . S
C2371 H2375 0.950 . S
H2372 C2368 0.950 . S
C2373 C2371 1.390 . S
C2373 C2374 1.387 . S
C2373 H2376 0.950 . S
C2374 C2373 1.387 . S
C2374 C2377 1.387 . S
H2375 C2371 0.950 . S
H2376 C2373 0.950 . S
C2377 C2368 1.390 . S
C2377 H2370 0.950 . S
C2377 C2374 1.387 . S
C2378 C2379 1.387 . S
C2378 H2382 0.950 . S
C2378 C2387 1.390 . S
C2379 C2378 1.387 . S
C2379 C2381 1.387 . S
H2380 C2387 0.950 . S
C2381 C2379 1.387 . S
C2381 C2383 1.390 . S
C2381 H2385 0.950 . S
H2382 C2378 0.950 . S
C2383 C2381 1.390 . S
C2383 C2384 1.387 . S
C2383 H2386 0.950 . S
C2384 C2383 1.387 . S
C2384 C2387 1.387 . S
H2385 C2381 0.950 . S
H2386 C2383 0.950 . S
C2387 C2378 1.390 . S
C2387 H2380 0.950 . S
C2387 C2384 1.387 . S
C2388 C2389 1.387 . S
C2388 H2392 0.950 . S
C2388 C2397 1.390 . S
C2389 C2388 1.387 . S
C2389 C2391 1.387 . S
H2390 C2397 0.950 . S
C2391 C2389 1.387 . S
C2391 C2393 1.390 . S
C2391 H2395 0.950 . S
H2392 C2388 0.950 . S
C2393 C2391 1.390 . S
C2393 C2394 1.387 . S
C2393 H2396 0.950 . S
C2394 C2393 1.387 . S
C2394 C2397 1.387 . S
H2395 C2391 0.950 . S
H2396 C2393 0.950 . S
C2397 C2388 1.390 . S
C2397 H2390 0.950 . S
C2397 C2394 1.387 . S
C2398 C2399 1.387 . S
C2398 H2402 0.950 . S
C2398 C2407 1.390 1_556 S
C2399 C2398 1.387 . S
C2399 C2401 1.387 . S
H2400 C2407 0.950 . S
C2401 C2399 1.387 . S
C2401 C2403 1.390 1_556 S
C2401 H2405 0.950 . S
H2402 C2398 0.950 . S
C2403 C2401 1.390 1_554 S
C2403 C2404 1.387 . S
C2403 H2406 0.950 . S
C2404 C2403 1.387 . S
C2404 C2407 1.387 . S
H2405 C2401 0.950 . S
H2406 C2403 0.950 . S
C2407 C2398 1.390 1_554 S
C2407 H2400 0.950 . S
C2407 C2404 1.387 . S
C2408 C2409 1.387 . S
C2408 H2412 0.950 . S
C2408 C2417 1.390 . S
C2409 C2408 1.387 . S
C2409 C2411 1.387 . S
H2410 C2417 0.950 . S
C2411 C2409 1.387 . S
C2411 C2413 1.390 . S
C2411 H2415 0.950 . S
H2412 C2408 0.950 . S
C2413 C2411 1.390 . S
C2413 C2414 1.387 . S
C2413 H2416 0.950 . S
C2414 C2413 1.387 . S
C2414 C2417 1.387 . S
H2415 C2411 0.950 . S
H2416 C2413 0.950 . S
C2417 C2408 1.390 . S
C2417 H2410 0.950 . S
C2417 C2414 1.387 . S
C2418 C2419 1.387 . S
C2418 H2422 0.950 . S
C2418 C2427 1.390 . S
C2419 C2418 1.387 . S
C2419 C2421 1.387 . S
H2420 C2427 0.950 . S
C2421 C2419 1.387 . S
C2421 C2423 1.390 . S
C2421 H2425 0.950 . S
H2422 C2418 0.950 . S
C2423 C2421 1.390 . S
C2423 C2424 1.387 . S
C2423 H2426 0.950 . S
C2424 C2423 1.387 . S
C2424 C2427 1.387 . S
H2425 C2421 0.950 . S
H2426 C2423 0.950 . S
C2427 C2418 1.390 . S
C2427 H2420 0.950 . S
C2427 C2424 1.387 . S
C2428 C2429 1.387 . S
C2428 H2432 0.950 . S
C2428 C2437 1.390 . S
C2429 C2428 1.387 . S
C2429 C2431 1.387 . S
H2430 C2437 0.950 . S
C2431 C2429 1.387 . S
C2431 C2433 1.390 . S
C2431 H2435 0.950 . S
H2432 C2428 0.950 . S
C2433 C2431 1.390 . S
C2433 C2434 1.387 . S
C2433 H2436 0.950 . S
C2434 C2433 1.387 . S
C2434 C2437 1.387 . S
H2435 C2431 0.950 . S
H2436 C2433 0.950 . S
C2437 C2428 1.390 . S
C2437 H2430 0.950 . S
C2437 C2434 1.387 . S
C2438 C2439 1.387 . S
C2438 H2442 0.950 . S
C2438 C2447 1.390 1_554 S
C2439 C2438 1.387 . S
C2439 C2441 1.387 . S
H2440 C2447 0.950 . S
C2441 C2439 1.387 . S
C2441 C2443 1.390 1_554 S
C2441 H2445 0.950 . S
H2442 C2438 0.950 . S
C2443 C2441 1.390 1_556 S
C2443 C2444 1.387 . S
C2443 H2446 0.950 . S
C2444 C2443 1.387 . S
C2444 C2447 1.387 . S
H2445 C2441 0.950 . S
H2446 C2443 0.950 . S
C2447 C2438 1.390 1_556 S
C2447 H2440 0.950 . S
C2447 C2444 1.387 . S
C2448 C2449 1.387 . S
C2448 H2452 0.950 . S
C2448 C2457 1.390 1_565 S
C2449 C2448 1.387 . S
C2449 C2451 1.387 . S
H2450 C2457 0.950 . S
C2451 C2449 1.387 . S
C2451 C2453 1.390 1_565 S
C2451 H2455 0.950 . S
H2452 C2448 0.950 . S
C2453 C2451 1.390 1_545 S
C2453 C2454 1.387 . S
C2453 H2456 0.950 . S
C2454 C2453 1.387 . S
C2454 C2457 1.387 . S
H2455 C2451 0.950 . S
H2456 C2453 0.950 . S
C2457 C2448 1.390 1_545 S
C2457 H2450 0.950 . S
C2457 C2454 1.387 . S
C2458 C2459 1.387 . S
C2458 H2462 0.950 . S
C2458 C2467 1.390 1_554 S
C2459 C2458 1.387 . S
C2459 C2461 1.387 . S
H2460 C2467 0.950 . S
C2461 C2459 1.387 . S
C2461 C2463 1.390 1_554 S
C2461 H2465 0.950 . S
H2462 C2458 0.950 . S
C2463 C2461 1.390 1_556 S
C2463 C2464 1.387 . S
C2463 H2466 0.950 . S
C2464 C2463 1.387 . S
C2464 C2467 1.387 . S
H2465 C2461 0.950 . S
H2466 C2463 0.950 . S
C2467 C2458 1.390 1_556 S
C2467 H2460 0.950 . S
C2467 C2464 1.387 . S
C2468 C2469 1.387 . S
C2468 H2472 0.950 . S
C2468 C2477 1.390 1_545 S
C2469 C2468 1.387 . S
C2469 C2471 1.387 . S
H2470 C2477 0.950 . S
C2471 C2469 1.387 . S
C2471 C2473 1.390 1_545 S
C2471 H2475 0.950 . S
H2472 C2468 0.950 . S
C2473 C2471 1.390 1_565 S
C2473 C2474 1.387 . S
C2473 H2476 0.950 . S
C2474 C2473 1.387 . S
C2474 C2477 1.387 . S
H2475 C2471 0.950 . S
H2476 C2473 0.950 . S
C2477 C2468 1.390 1_565 S
C2477 H2470 0.950 . S
C2477 C2474 1.387 . S
C2478 C2479 1.387 . S
C2478 H2482 0.950 . S
C2478 C2487 1.390 . S
C2479 C2478 1.387 . S
C2479 C2481 1.387 . S
H2480 C2487 0.950 . S
C2481 C2479 1.387 . S
C2481 C2483 1.390 . S
C2481 H2485 0.950 . S
H2482 C2478 0.950 . S
C2483 C2481 1.390 . S
C2483 C2484 1.387 . S
C2483 H2486 0.950 . S
C2484 C2483 1.387 . S
C2484 C2487 1.387 . S
H2485 C2481 0.950 . S
H2486 C2483 0.950 . S
C2487 C2478 1.390 . S
C2487 H2480 0.950 . S
C2487 C2484 1.387 . S
C2488 C2489 1.387 . S
C2488 H2492 0.950 . S
C2488 C2497 1.390 1_545 S
C2489 C2488 1.387 . S
C2489 C2491 1.387 . S
H2490 C2497 0.950 . S
C2491 C2489 1.387 . S
C2491 C2493 1.390 1_545 S
C2491 H2495 0.950 . S
H2492 C2488 0.950 . S
C2493 C2491 1.390 1_565 S
C2493 C2494 1.387 . S
C2493 H2496 0.950 . S
C2494 C2493 1.387 . S
C2494 C2497 1.387 . S
H2495 C2491 0.950 . S
H2496 C2493 0.950 . S
C2497 C2488 1.390 1_565 S
C2497 H2490 0.950 . S
C2497 C2494 1.387 . S
C2498 C2499 1.387 . S
C2498 H2502 0.950 . S
C2498 C2507 1.390 1_554 S
C2499 C2498 1.387 . S
C2499 C2501 1.387 . S
H2500 C2507 0.950 . S
C2501 C2499 1.387 . S
C2501 C2503 1.390 1_554 S
C2501 H2505 0.950 . S
H2502 C2498 0.950 . S
C2503 C2501 1.390 1_556 S
C2503 C2504 1.387 . S
C2503 H2506 0.950 . S
C2504 C2503 1.387 . S
C2504 C2507 1.387 . S
H2505 C2501 0.950 . S
H2506 C2503 0.950 . S
C2507 C2498 1.390 1_556 S
C2507 H2500 0.950 . S
C2507 C2504 1.387 . S
C2508 C2509 1.387 . S
C2508 H2512 0.950 . S
C2508 C2517 1.390 1_545 S
C2509 C2508 1.387 . S
C2509 C2511 1.387 . S
H2510 C2517 0.950 . S
C2511 C2509 1.387 . S
C2511 C2513 1.390 1_545 S
C2511 H2515 0.950 . S
H2512 C2508 0.950 . S
C2513 C2511 1.390 1_565 S
C2513 C2514 1.387 . S
C2513 H2516 0.950 . S
C2514 C2513 1.387 . S
C2514 C2517 1.387 . S
H2515 C2511 0.950 . S
H2516 C2513 0.950 . S
C2517 C2508 1.390 1_565 S
C2517 H2510 0.950 . S
C2517 C2514 1.387 . S
C2518 C2519 1.387 . S
C2518 H2522 0.950 . S
C2518 C2527 1.390 . S
C2519 C2518 1.387 . S
C2519 C2521 1.387 . S
H2520 C2527 0.950 . S
C2521 C2519 1.387 . S
C2521 C2523 1.390 . S
C2521 H2525 0.950 . S
H2522 C2518 0.950 . S
C2523 C2521 1.390 . S
C2523 C2524 1.387 . S
C2523 H2526 0.950 . S
C2524 C2523 1.387 . S
C2524 C2527 1.387 . S
H2525 C2521 0.950 . S
H2526 C2523 0.950 . S
C2527 C2518 1.390 . S
C2527 H2520 0.950 . S
C2527 C2524 1.387 . S
C1889 C3 1.338 . S
C1894 C1242 1.339 . S
C1899 C1301 1.339 . S
C1904 C62 1.338 . S
C1909 C121 1.339 . S
C1914 C1360 1.338 . S
C1919 C1183 1.338 . S
C1924 C180 1.338 . S
C1929 C239 1.339 . S
C1934 C1124 1.338 . S
C1939 C298 1.338 . S
C1944 C947 1.339 . S
C1949 C1006 1.338 . S
C1954 C357 1.339 . S
C1959 C416 1.338 . S
C1964 C1065 1.339 . S
C1969 C475 1.339 . S
C1974 C1714 1.339 . S
C1979 C534 1.339 . S
C1984 C1773 1.339 . S
C1989 C1832 1.339 . S
C1994 C593 1.338 . S
C1999 C1655 1.339 . S
C2004 C652 1.338 . S
C2009 C711 1.338 . S
C2014 C1596 1.339 . S
C2019 C1419 1.339 . S
C2024 C770 1.338 . S
C2029 C829 1.339 . S
C2034 C1478 1.339 . S
C2039 C1537 1.339 . S
C2044 C888 1.339 . S
C2049 C52 1.531 . S
C2054 C564 1.519 . S
C2059 C111 1.531 . S
C2064 C1567 1.518 1_655 S
C2069 C682 1.518 . S
C2074 C170 1.531 . S
C2079 C229 1.530 . S
C2084 C1449 1.518 . S
C2089 C288 1.531 . S
C2094 C918 1.518 . S
C2099 C1685 1.518 . S
C2104 C347 1.531 . S
C2109 C800 1.519 . S
C2114 C406 1.530 . S
C2119 C1803 1.518 1_655 S
C2124 C465 1.531 . S
C2129 C524 1.531 . S
C2134 C92 1.519 . S
C2139 C1095 1.518 1_455 S
C2144 C583 1.531 . S
C2149 C210 1.519 . S
C2154 C642 1.531 . S
C2159 C701 1.531 . S
C2164 C977 1.518 . S
C2169 C446 1.518 . S
C2174 C760 1.530 . S
C2179 C1213 1.519 . S
C2184 C819 1.530 . S
C2189 C328 1.519 . S
C2194 C878 1.531 . S
C2199 C937 1.531 . S
C2204 C1331 1.518 1_455 S
C2209 C1508 1.519 . S
C2214 C996 1.530 . S
C2219 C623 1.519 . S
C2224 C1055 1.530 . S
C2229 C1626 1.519 . S
C2234 C1114 1.531 . S
C2239 C1173 1.530 . S
C2244 C505 1.519 1_455 S
C2249 C1862 1.519 . S
C2254 C1232 1.530 . S
C2259 C741 1.518 1_455 S
C2264 C1291 1.531 . S
C2269 C1744 1.519 . S
C2274 C1350 1.530 . S
C2279 C1409 1.530 . S
C2284 C859 1.519 . S
C2289 C1468 1.530 . S
C2294 C1036 1.519 . S
C2299 C151 1.519 . S
C2304 C1527 1.530 . S
C2309 C1586 1.531 . S
C2314 C1154 1.519 . S
C2319 C1645 1.531 . S
C2324 C33 1.519 1_655 S
C2329 C1704 1.531 . S
C2334 C1390 1.519 . S
C2339 C269 1.518 1_655 S
C2344 C1763 1.531 . S
C2349 C1272 1.518 . S
C2354 C1822 1.530 . S
C2359 C1881 1.531 . S
C2364 C387 1.519 . S
C2369 C5 1.454 . S
C2374 C241 1.454 . S
C2379 C64 1.452 . S
C2384 C300 1.452 . S
C2389 C359 1.454 . S
C2394 C123 1.454 . S
C2399 C418 1.454 . S
C2404 C182 1.454 . S
C2409 C713 1.452 . S
C2414 C477 1.452 . S
C2419 C772 1.452 . S
C2424 C536 1.452 . S
C2429 C831 1.454 . S
C2434 C595 1.454 . S
C2439 C890 1.452 . S
C2444 C654 1.452 . S
C2449 C949 1.452 . S
C2454 C1185 1.452 . S
C2459 C1008 1.452 . S
C2464 C1244 1.452 . S
C2469 C1067 1.454 . S
C2474 C1303 1.454 . S
C2479 C1362 1.454 . S
C2484 C1126 1.454 . S
C2489 C1421 1.452 . S
C2494 C1657 1.452 . S
C2499 C1716 1.452 . S
C2504 C1480 1.452 . S
C2509 C1775 1.452 . S
C2514 C1539 1.452 . S
C2519 C1834 1.452 . S
C2524 C1598 1.452 . S
