# Generated by pormake.
# Topology xfe, (7)-cn, num edge types: 1
# Building blocks:
#     Node 0, Type 0, BuildingBlock: NUHQUE_clean_sbu_2, # of connection points: 7
#     Node 1, Type 0, BuildingBlock: NUHQUE_clean_sbu_2, # of connection points: 7
#     Node 2, Type 0, BuildingBlock: NUHQUE_clean_sbu_2, # of connection points: 7
#     Node 3, Type 0, BuildingBlock: NUHQUE_clean_sbu_2, # of connection points: 7
#     Node 4, Type 0, BuildingBlock: NUHQUE_clean_sbu_2, # of connection points: 7
#     Node 5, Type 0, BuildingBlock: NUHQUE_clean_sbu_2, # of connection points: 7
#     Node 6, Type 0, BuildingBlock: NUHQUE_clean_sbu_2, # of connection points: 7
#     Node 7, Type 0, BuildingBlock: NUHQUE_clean_sbu_2, # of connection points: 7
#     Node 8, Type 0, BuildingBlock: NUHQUE_clean_sbu_2, # of connection points: 7
#     Node 9, Type 0, BuildingBlock: NUHQUE_clean_sbu_2, # of connection points: 7
#     Node 10, Type 0, BuildingBlock: NUHQUE_clean_sbu_2, # of connection points: 7
#     Node 11, Type 0, BuildingBlock: NUHQUE_clean_sbu_2, # of connection points: 7
#     Node 12, Type 0, BuildingBlock: NUHQUE_clean_sbu_2, # of connection points: 7
#     Node 13, Type 0, BuildingBlock: NUHQUE_clean_sbu_2, # of connection points: 7
#     Node 14, Type 0, BuildingBlock: NUHQUE_clean_sbu_2, # of connection points: 7
#     Node 15, Type 0, BuildingBlock: NUHQUE_clean_sbu_2, # of connection points: 7
#     Edge 16, Type (0, 0), BuildingBlock: XIVTED_clean_linker_0, # of connection points: 2
#     Edge 17, Type (0, 0), BuildingBlock: XIVTED_clean_linker_0, # of connection points: 2
#     Edge 18, Type (0, 0), BuildingBlock: XIVTED_clean_linker_0, # of connection points: 2
#     Edge 19, Type (0, 0), BuildingBlock: XIVTED_clean_linker_0, # of connection points: 2
#     Edge 20, Type (0, 0), BuildingBlock: XIVTED_clean_linker_0, # of connection points: 2
#     Edge 21, Type (0, 0), BuildingBlock: XIVTED_clean_linker_0, # of connection points: 2
#     Edge 22, Type (0, 0), BuildingBlock: XIVTED_clean_linker_0, # of connection points: 2
#     Edge 23, Type (0, 0), BuildingBlock: XIVTED_clean_linker_0, # of connection points: 2
#     Edge 24, Type (0, 0), BuildingBlock: XIVTED_clean_linker_0, # of connection points: 2
#     Edge 25, Type (0, 0), BuildingBlock: XIVTED_clean_linker_0, # of connection points: 2
#     Edge 26, Type (0, 0), BuildingBlock: XIVTED_clean_linker_0, # of connection points: 2
#     Edge 27, Type (0, 0), BuildingBlock: XIVTED_clean_linker_0, # of connection points: 2
#     Edge 28, Type (0, 0), BuildingBlock: XIVTED_clean_linker_0, # of connection points: 2
#     Edge 29, Type (0, 0), BuildingBlock: XIVTED_clean_linker_0, # of connection points: 2
#     Edge 30, Type (0, 0), BuildingBlock: XIVTED_clean_linker_0, # of connection points: 2
#     Edge 31, Type (0, 0), BuildingBlock: XIVTED_clean_linker_0, # of connection points: 2
#     Edge 32, Type (0, 0), BuildingBlock: XIVTED_clean_linker_0, # of connection points: 2
#     Edge 33, Type (0, 0), BuildingBlock: XIVTED_clean_linker_0, # of connection points: 2
#     Edge 34, Type (0, 0), BuildingBlock: XIVTED_clean_linker_0, # of connection points: 2
#     Edge 35, Type (0, 0), BuildingBlock: XIVTED_clean_linker_0, # of connection points: 2
#     Edge 36, Type (0, 0), BuildingBlock: XIVTED_clean_linker_0, # of connection points: 2
#     Edge 37, Type (0, 0), BuildingBlock: XIVTED_clean_linker_0, # of connection points: 2
#     Edge 38, Type (0, 0), BuildingBlock: XIVTED_clean_linker_0, # of connection points: 2
#     Edge 39, Type (0, 0), BuildingBlock: XIVTED_clean_linker_0, # of connection points: 2
#     Edge 40, Type (0, 0), BuildingBlock: XIVTED_clean_linker_0, # of connection points: 2
#     Edge 41, Type (0, 0), BuildingBlock: XIVTED_clean_linker_0, # of connection points: 2
#     Edge 42, Type (0, 0), BuildingBlock: XIVTED_clean_linker_0, # of connection points: 2
#     Edge 43, Type (0, 0), BuildingBlock: XIVTED_clean_linker_0, # of connection points: 2
#     Edge 44, Type (0, 0), BuildingBlock: XIVTED_clean_linker_0, # of connection points: 2
#     Edge 45, Type (0, 0), BuildingBlock: XIVTED_clean_linker_0, # of connection points: 2
#     Edge 46, Type (0, 0), BuildingBlock: XIVTED_clean_linker_0, # of connection points: 2
#     Edge 47, Type (0, 0), BuildingBlock: XIVTED_clean_linker_0, # of connection points: 2
#     Edge 48, Type (0, 0), BuildingBlock: XIVTED_clean_linker_0, # of connection points: 2
#     Edge 49, Type (0, 0), BuildingBlock: XIVTED_clean_linker_0, # of connection points: 2
#     Edge 50, Type (0, 0), BuildingBlock: XIVTED_clean_linker_0, # of connection points: 2
#     Edge 51, Type (0, 0), BuildingBlock: XIVTED_clean_linker_0, # of connection points: 2
#     Edge 52, Type (0, 0), BuildingBlock: XIVTED_clean_linker_0, # of connection points: 2
#     Edge 53, Type (0, 0), BuildingBlock: XIVTED_clean_linker_0, # of connection points: 2
#     Edge 54, Type (0, 0), BuildingBlock: XIVTED_clean_linker_0, # of connection points: 2
#     Edge 55, Type (0, 0), BuildingBlock: XIVTED_clean_linker_0, # of connection points: 2
#     Edge 56, Type (0, 0), BuildingBlock: XIVTED_clean_linker_0, # of connection points: 2
#     Edge 57, Type (0, 0), BuildingBlock: XIVTED_clean_linker_0, # of connection points: 2
#     Edge 58, Type (0, 0), BuildingBlock: XIVTED_clean_linker_0, # of connection points: 2
#     Edge 59, Type (0, 0), BuildingBlock: XIVTED_clean_linker_0, # of connection points: 2
#     Edge 60, Type (0, 0), BuildingBlock: XIVTED_clean_linker_0, # of connection points: 2
#     Edge 61, Type (0, 0), BuildingBlock: XIVTED_clean_linker_0, # of connection points: 2
#     Edge 62, Type (0, 0), BuildingBlock: XIVTED_clean_linker_0, # of connection points: 2
#     Edge 63, Type (0, 0), BuildingBlock: XIVTED_clean_linker_0, # of connection points: 2
#     Edge 64, Type (0, 0), BuildingBlock: XIVTED_clean_linker_0, # of connection points: 2
#     Edge 65, Type (0, 0), BuildingBlock: XIVTED_clean_linker_0, # of connection points: 2
#     Edge 66, Type (0, 0), BuildingBlock: XIVTED_clean_linker_0, # of connection points: 2
#     Edge 67, Type (0, 0), BuildingBlock: XIVTED_clean_linker_0, # of connection points: 2
#     Edge 68, Type (0, 0), BuildingBlock: XIVTED_clean_linker_0, # of connection points: 2
#     Edge 69, Type (0, 0), BuildingBlock: XIVTED_clean_linker_0, # of connection points: 2
#     Edge 70, Type (0, 0), BuildingBlock: XIVTED_clean_linker_0, # of connection points: 2
#     Edge 71, Type (0, 0), BuildingBlock: XIVTED_clean_linker_0, # of connection points: 2
# Relax obj value: 0.213
# Max RMSD: 0.239
# Mean RMSD: 0.239
data_MOF--net-xfe--node1-NUHQUE_clean_sbu_2--edge1-XIVTED_clean_linker_0
_symmetry_space_group_name_H-M    P1
_symmetry_Int_Tables_number       1
_symmetry_cell_setting            triclinic
loop_
_symmetry_equiv_pos_as_xyz
'x, y, z'
_cell_length_a     38.465571
_cell_length_b     38.511717
_cell_length_c     50.877486
_cell_angle_alpha  90.046481
_cell_angle_beta   89.944651
_cell_angle_gamma 90.052639
loop_
_atom_site_label
_atom_site_type_symbol
_atom_site_fract_x
_atom_site_fract_y
_atom_site_fract_z
_atom_type_partial_charge
O0 O 0.08091 0.09209 0.09322 0.0
Tb1 Tb 1.03395 0.09051 0.11747 0.0
Eu2 Eu 1.01988 0.08229 0.18247 0.0
C3 C 0.11097 0.10273 0.10283 0.0
O4 O 0.11412 0.10761 0.12826 0.0
C5 C 0.03804 0.15519 0.15696 0.0
O6 O 0.99079 0.07235 0.22005 0.0
C7 C 0.08175 0.05672 0.18901 0.0
C8 C 0.95705 0.06718 0.22013 0.0
O9 O 0.93932 0.07277 0.19849 0.0
C10 C 0.99557 1.02657 0.14001 0.0
C11 C 0.09825 1.02207 0.192 0.0
C12 C 0.101 0.99964 0.17022 0.0
C13 C 0.11783 0.96758 0.17256 0.0
C14 C 0.13198 0.95782 0.19668 0.0
C15 C 0.13109 0.98015 0.21836 0.0
C16 C 0.11356 1.01214 0.21619 0.0
O17 O 0.05263 0.13705 0.13793 0.0
O18 O 1.01875 0.14018 0.17511 0.0
O19 O 1.00803 0.0961 0.0797 0.0
O20 O 0.98125 0.11157 0.1145 0.0
C21 C 0.97913 0.10861 0.08903 0.0
O22 O 0.98493 0.04541 0.16001 0.0
O23 O 1.02376 0.03589 0.12698 0.0
O24 O 0.06226 0.06747 0.20859 0.0
O25 O 0.06882 0.06465 0.1658 0.0
H26 H 0.09094 1.0073 0.15119 0.0
H27 H 0.14591 0.93339 0.19815 0.0
H28 H 0.11302 1.0297 0.23284 0.0
O29 O 0.24947 0.802 0.34436 0.0
Tb30 Tb 0.25146 0.7545 0.36789 0.0
Eu31 Eu 0.26103 0.74512 0.43395 0.0
C32 C 0.2382 0.83161 0.35434 0.0
O33 O 0.23216 0.83379 0.37968 0.0
C34 C 0.18743 0.75581 0.40792 0.0
O35 O 0.27557 0.72025 0.47231 0.0
C36 C 0.27744 0.81047 0.43668 0.0
C37 C 0.27943 0.68645 0.47393 0.0
O38 O 0.27076 0.66705 0.45372 0.0
C39 C 0.31685 0.71883 0.3915 0.0
C40 C 0.30486 0.83717 0.44015 0.0
C41 C 0.31049 0.86036 0.41926 0.0
C42 C 0.33389 0.88805 0.42174 0.0
C43 C 0.35193 0.89223 0.44539 0.0
C44 C 0.34573 0.87071 0.46707 0.0
C45 C 0.32248 0.84255 0.4643 0.0
O46 O 0.20464 0.77142 0.38887 0.0
O47 O 0.20368 0.73784 0.42618 0.0
O48 O 0.2454 0.72902 0.32991 0.0
O49 O 0.23125 0.7015 0.36465 0.0
C50 C 0.23353 0.69981 0.33913 0.0
O51 O 0.2996 0.71042 0.41289 0.0
O52 O 0.30643 0.74522 0.37697 0.0
O53 O 0.26765 0.79215 0.45717 0.0
O54 O 0.27682 0.79291 0.41444 0.0
H55 H 0.29587 0.85729 0.40121 0.0
H56 H 0.37138 0.9125 0.44703 0.0
H57 H 0.31741 0.82577 0.48095 0.0
O58 O 0.54558 0.96411 0.5915 0.0
Tb59 Tb 0.5944 0.96971 0.61329 0.0
Eu60 Eu 0.59388 0.98147 0.68014 0.0
C61 C 0.51934 0.9459 0.60109 0.0
O62 O 0.52081 0.93447 0.62536 0.0
C63 C 0.59479 0.90512 0.65479 0.0
O64 O 0.61047 1.00097 0.71975 0.0
C65 C 0.52818 0.99631 0.67758 0.0
C66 C 0.64302 1.00253 0.7274 0.0
O67 O 0.66747 0.98894 0.71259 0.0
C68 C 0.62474 0.03587 0.63912 0.0
C69 C 0.50192 1.02391 0.68138 0.0
C70 C 0.4755 1.0267 0.66252 0.0
C71 C 0.44826 0.05055 0.66571 0.0
C72 C 0.44756 0.07139 0.68831 0.0
C73 C 0.47314 0.06869 0.70774 0.0
C74 C 0.50086 0.04522 0.70409 0.0
O75 O 0.58688 0.91891 0.63182 0.0
O76 O 0.60354 0.92391 0.67546 0.0
O77 O 0.61935 0.96826 0.57475 0.0
O78 O 0.64945 0.95728 0.60893 0.0
C79 C 0.6502 0.9604 0.58346 0.0
O80 O 0.63149 1.01932 0.66112 0.0
O81 O 0.59948 1.02465 0.62383 0.0
O82 O 0.54327 0.9839 0.69872 0.0
O83 O 0.54897 0.99827 0.65703 0.0
H84 H 0.47597 1.00981 0.64545 0.0
H85 H 0.42744 0.09084 0.69061 0.0
H86 H 0.5208 0.04299 0.71901 0.0
O87 O 0.38113 0.2683 0.83915 0.0
Tb88 Tb 0.37347 0.3134 0.86467 0.0
Eu89 Eu 0.36111 0.32584 0.93069 0.0
C90 C 0.41138 0.26532 0.82705 0.0
O91 O 0.434 0.29068 0.82955 0.0
C92 C 0.43426 0.30673 0.90667 0.0
O93 O 0.35011 0.3562 0.96754 0.0
C94 C 0.33651 0.26383 0.93843 0.0
C95 C 0.34335 0.3896 0.96679 0.0
O96 O 0.34797 0.4066 0.94469 0.0
C97 C 0.30679 0.34828 0.88632 0.0
C98 C 0.30216 0.24658 0.94135 0.0
C99 C 0.28079 0.2418 0.91918 0.0
C100 C 0.24908 0.22432 0.92142 0.0
C101 C 0.23848 0.21146 0.94575 0.0
C102 C 0.25988 0.21415 0.96788 0.0
C103 C 0.29156 0.23244 0.96582 0.0
O104 O 0.41615 0.29142 0.88793 0.0
O105 O 0.41908 0.32742 0.92379 0.0
O106 O 0.37929 0.34224 0.82824 0.0
O107 O 0.39541 0.366 0.86411 0.0
C108 C 0.3922 0.37019 0.83877 0.0
O109 O 0.32418 0.35903 0.90703 0.0
O110 O 0.31792 0.32113 0.8728 0.0
O111 O 0.3463 0.28439 0.95766 0.0
O112 O 0.34476 0.27594 0.91501 0.0
H113 H 0.28903 0.25078 0.89997 0.0
H114 H 0.21425 0.1971 0.94707 0.0
H115 H 0.30842 0.23442 -0.01719 0.0
O116 O 0.07846 0.97213 0.86804 0.0
Tb117 Tb 1.03164 0.97318 0.84365 0.0
Eu118 Eu 1.01615 0.97997 0.77853 0.0
C119 C 0.1088 0.96214 0.85851 0.0
O120 O 0.11232 0.95769 0.83306 0.0
C121 C 0.0359 0.90835 0.80461 0.0
O122 O 0.98651 0.99024 0.74129 0.0
C123 C 0.07774 1.00608 0.7716 0.0
C124 C 0.95283 0.99579 0.74165 0.0
O125 O 0.93541 0.98991 0.76342 0.0
C126 C 0.99221 0.03621 0.82072 0.0
C127 C 0.09325 0.04112 0.76802 0.0
C128 C 0.10334 0.0604 0.79026 0.0
C129 C 0.11735 0.0937 0.78746 0.0
C130 C 0.12159 0.10789 0.76248 0.0
C131 C 0.11331 0.08882 0.73994 0.0
C132 C 0.09925 0.0552 0.74266 0.0
O133 O 0.05133 0.92747 0.82269 0.0
O134 O 1.01542 0.92242 0.78684 0.0
O135 O 1.00577 0.96738 0.88146 0.0
O136 O 0.97946 0.9507 0.84682 0.0
C137 C 0.97722 0.95395 0.87227 0.0
O138 O 0.9814 1.01664 0.80119 0.0
O139 O 1.02053 1.02752 0.8338 0.0
O140 O 0.05865 0.99397 0.75224 0.0
O141 O 0.06476 0.99886 0.79494 0.0
H142 H 0.10065 0.04954 0.80981 0.0
H143 H 0.13358 0.13329 0.76052 0.0
H144 H 0.09302 0.04028 0.72522 0.0
O145 O 0.37893 0.79349 0.12268 0.0
Tb146 Tb 0.37218 0.75061 0.09506 0.0
Eu147 Eu 0.36111 0.73988 0.02936 0.0
C148 C 0.38576 0.82541 0.1148 0.0
O149 O 0.38227 0.83325 0.08981 0.0
C150 C 0.43411 0.75876 0.05413 0.0
O151 O 0.35121 0.70987 -0.00779 0.0
C152 C 0.33514 0.80139 0.02206 0.0
C153 C 0.34525 0.6763 -0.00733 0.0
O154 O 0.35015 0.65911 0.01465 0.0
C155 C 0.30605 0.71589 0.0728 0.0
C156 C 0.30029 0.81761 0.01913 0.0
C157 C 0.27805 0.82046 0.04103 0.0
C158 C 0.24584 0.83706 0.0388 0.0
C159 C 0.23565 0.8508 0.01464 0.0
C160 C 0.25778 0.84989 -0.00718 0.0
C161 C 0.28998 0.8326 -0.0051 0.0
O162 O 0.41571 0.77313 0.07309 0.0
O163 O 0.41918 0.73895 0.03629 0.0
O164 O 0.37875 0.72171 0.13131 0.0
O165 O 0.39345 0.69771 0.0952 0.0
C166 C 0.39101 0.69362 0.12061 0.0
O167 O 0.32409 0.70562 0.05224 0.0
O168 O 0.31676 0.74284 0.08671 0.0
O169 O 0.34571 0.78143 0.0027 0.0
O170 O 0.34352 0.78915 0.04541 0.0
H171 H 0.286 0.81069 0.06007 0.0
H172 H 0.21108 0.86451 0.01326 0.0
H173 H 0.3074 0.83203 0.97815 0.0
O174 O 0.54745 0.10259 0.37214 0.0
Tb175 Tb 0.59148 0.09489 0.34569 0.0
Eu176 Eu 0.60251 0.08398 0.27949 0.0
C177 C 0.51596 0.10968 0.36346 0.0
O178 O 0.50932 0.10674 0.33824 0.0
C179 C 0.58866 0.15695 0.30499 0.0
O180 O 0.6312 0.06857 0.24275 0.0
C181 C 0.53761 0.0671 0.2735 0.0
C182 C 0.66463 0.0617 0.24351 0.0
O183 O 0.68219 0.06885 0.26499 0.0
C184 C 0.62439 1.02783 0.32308 0.0
C185 C 0.51267 0.03839 0.26894 0.0
C186 C 0.48606 1.03372 0.28755 0.0
C187 C 0.46093 1.00765 0.28436 0.0
C188 C 0.4628 0.98609 0.26224 0.0
C189 C 0.48829 0.99081 0.24295 0.0
C190 C 0.51332 1.01722 0.24616 0.0
O191 O 0.57175 0.13888 0.3229 0.0
O192 O 0.60878 0.14132 0.28767 0.0
O193 O 0.61928 0.09954 0.38264 0.0
O194 O 0.6445 0.11594 0.34742 0.0
C195 C 0.64773 0.11229 0.3728 0.0
O196 O 0.63459 0.04488 0.30207 0.0
O197 O 0.59802 0.03943 0.33721 0.0
O198 O 0.55775 0.07682 0.25395 0.0
O199 O 0.55292 0.06863 0.29663 0.0
H200 H 0.48475 0.05086 0.30444 0.0
H201 H 0.44426 0.96511 0.25985 0.0
H202 H 0.53305 1.02102 0.23123 0.0
O203 O 0.24034 0.27163 0.62048 0.0
Tb204 Tb 0.24774 0.31479 0.59336 0.0
Eu205 Eu 0.25685 0.32399 0.52746 0.0
C206 C 0.23593 0.23942 0.61234 0.0
O207 O 0.24173 0.23173 0.58759 0.0
C208 C 0.18475 0.3098 0.55391 0.0
O209 O 0.26988 0.35088 0.48956 0.0
C210 C 0.27318 0.2589 0.52248 0.0
C211 C 0.27434 0.38467 0.4889 0.0
O212 O 0.26696 0.40306 0.50994 0.0
C213 C 0.31422 0.34766 0.56971 0.0
C214 C 0.30092 0.23302 0.51783 0.0
C215 C 0.30358 0.20544 0.53576 0.0
C216 C 0.32852 0.17927 0.53241 0.0
C217 C 0.35093 0.18103 0.51073 0.0
C218 C 0.34821 0.20763 0.49215 0.0
C219 C 0.32301 0.23378 0.49558 0.0
O220 O 0.20372 0.29331 0.57146 0.0
O221 O 0.19965 0.33019 0.53645 0.0
O222 O 0.24346 0.34387 0.62977 0.0
O223 O 0.22606 0.36748 0.59423 0.0
C224 C 0.23017 0.37173 0.61949 0.0
O225 O 0.29675 0.35706 0.54866 0.0
O226 O 0.30305 0.32153 0.58426 0.0
O227 O 0.26315 0.27838 0.50271 0.0
O228 O 0.27283 0.27511 0.54529 0.0
H229 H 0.28578 0.20419 0.55224 0.0
H230 H 0.37109 0.16165 0.50822 0.0
H231 H 0.32081 0.25441 0.48121 0.0
O232 O 0.87559 0.2913 0.6306 0.0
Tb233 Tb 0.86714 0.24912 0.60266 0.0
Eu234 Eu 0.85352 0.24399 0.53631 0.0
C235 C 0.88142 0.32343 0.62278 0.0
O236 O 0.87676 0.33144 0.59795 0.0
C237 C 0.92757 0.25582 0.56078 0.0
O238 O 0.83807 0.21891 0.49814 0.0
C239 C 0.8372 0.30933 0.53353 0.0
C240 C 0.83296 0.18524 0.49667 0.0
O241 O 0.84048 0.16575 0.51707 0.0
C242 C 0.79949 0.21735 0.58025 0.0
C243 C 0.80976 0.33572 0.52942 0.0
C244 C 0.80844 0.36373 0.54713 0.0
C245 C 0.78439 0.39074 0.54376 0.0
C246 C 0.76117 0.38908 0.52259 0.0
C247 C 0.76239 0.36196 0.5043 0.0
C248 C 0.78701 0.33521 0.50755 0.0
O249 O 0.91026 0.271 0.57994 0.0
O250 O 0.9112 0.23704 0.54303 0.0
O251 O 0.87351 0.21819 0.63798 0.0
O252 O 0.88783 0.19607 0.60109 0.0
C253 C 0.88538 0.19059 0.62633 0.0
O254 O 0.81529 0.20956 0.55806 0.0
O255 O 0.81141 0.24281 0.59514 0.0
O256 O 0.84736 0.29092 0.51318 0.0
O257 O 0.8373 0.2919 0.5558 0.0
H258 H 0.82675 0.36475 0.56329 0.0
H259 H 0.74171 0.40916 0.52016 0.0
H260 H 0.7883 0.31431 0.49332 0.0
O261 O 0.75 0.7654 0.12289 0.0
Tb262 Tb 0.75383 0.81216 0.09863 0.0
Eu263 Eu 0.76545 0.82517 0.03336 0.0
C264 C 0.73969 0.73541 0.11297 0.0
O265 O 0.73584 0.73236 0.08743 0.0
C266 C 0.69166 0.8118 0.05768 0.0
O267 O 0.78191 0.85222 -0.00381 0.0
C268 C 0.7814 0.75992 0.0288 0.0
C269 C 0.78899 0.8856 -0.00385 0.0
O270 O 0.78212 0.90409 0.01724 0.0
C271 C 0.82047 0.8483 0.07757 0.0
C272 C 0.80905 0.7338 0.02449 0.0
C273 C 0.81172 0.70666 0.04282 0.0
C274 C 0.83627 0.68011 0.03955 0.0
C275 C 0.85849 0.68119 0.01775 0.0
C276 C 0.85595 0.70745 -0.00113 0.0
C277 C 0.83092 0.73383 0.00208 0.0
O278 O 0.70919 0.79429 0.07554 0.0
O279 O 0.70791 0.832 0.04077 0.0
O280 O 0.74523 0.83871 0.13589 0.0
O281 O 0.7334 0.86516 0.10021 0.0
C282 C 0.73406 0.86763 0.12575 0.0
O283 O 0.8038 0.85801 0.05626 0.0
O284 O 0.80929 0.82146 0.09134 0.0
O285 O 0.77182 0.77934 0.00886 0.0
O286 O 0.78073 0.77626 0.05155 0.0
H287 H 0.79418 0.70601 0.0595 0.0
H288 H 0.87834 0.66147 0.01536 0.0
H289 H 0.82871 0.7541 -0.01257 0.0
O290 O 0.74456 0.29002 0.83759 0.0
Tb291 Tb 0.74809 0.24806 0.86613 0.0
Eu292 Eu 0.76485 0.23728 0.93063 0.0
C293 C 0.74069 0.32249 0.84522 0.0
O294 O 0.74411 0.33014 0.87024 0.0
C295 C 0.69149 0.25389 0.90909 0.0
O296 O 0.78213 0.20922 0.96709 0.0
C297 C 0.78134 0.30233 0.93583 0.0
C298 C 0.78972 0.17597 0.96643 0.0
O299 O 0.78305 0.15808 0.94503 0.0
C300 C 0.81741 0.21359 0.88383 0.0
C301 C 0.80886 0.32852 0.9405 0.0
C302 C 0.81158 0.35603 0.92247 0.0
C303 C 0.83557 0.38296 0.9264 0.0
C304 C 0.85719 0.38195 0.9485 0.0
C305 C 0.85474 0.35518 0.96693 0.0
C306 C 0.83033 0.32835 0.9631 0.0
O307 O 0.7105 0.27203 0.89261 0.0
O308 O 0.70685 0.23145 0.9247 0.0
O309 O 0.72264 0.22108 0.83387 0.0
O310 O 0.73285 0.19333 0.86925 0.0
C311 C 0.71987 0.1913 0.84567 0.0
O312 O 0.80289 0.20545 0.9065 0.0
O313 O 0.80405 0.23804 0.86867 0.0
O314 O 0.77167 0.28257 0.95558 0.0
O315 O 0.7807 0.28641 0.9129 0.0
H316 H 0.79452 0.35673 0.90554 0.0
H317 H 0.87661 0.40203 0.95137 0.0
H318 H 0.82818 0.30772 0.97747 0.0
O319 O 0.87848 0.77609 0.3345 0.0
Tb320 Tb 0.86973 0.81809 0.36263 0.0
Eu321 Eu 0.85869 0.83451 0.42735 0.0
C322 C 0.88516 0.744 0.34203 0.0
O323 O 0.88076 0.73548 0.36681 0.0
C324 C 0.93076 0.81133 0.40385 0.0
O325 O 0.84846 0.86875 0.46234 0.0
C326 C 0.83219 0.77415 0.43832 0.0
C327 C 0.83976 0.90155 0.45959 0.0
O328 O 0.84287 0.91634 0.43645 0.0
C329 C 0.80311 0.85335 0.38295 0.0
C330 C 0.79692 0.75917 0.44222 0.0
C331 C 0.776 0.75152 0.42026 0.0
C332 C 0.74267 0.7377 0.4236 0.0
C333 C 0.72993 0.73152 0.44881 0.0
C334 C 0.7506 0.73728 0.47097 0.0
C335 C 0.78434 0.75102 0.4677 0.0
O336 O 0.91156 0.79531 0.38616 0.0
O337 O 0.91669 0.83387 0.42016 0.0
O338 O 0.87628 0.84861 0.32716 0.0
O339 O 0.89166 0.87074 0.36379 0.0
C340 C 0.88889 0.87606 0.33855 0.0
O341 O 0.82151 0.86587 0.40255 0.0
O342 O 0.81407 0.82551 0.37019 0.0
O343 O 0.84326 0.79585 0.45642 0.0
O344 O 0.84066 0.78385 0.41431 0.0
H345 H 0.78567 0.75558 0.40048 0.0
H346 H 0.70453 0.71956 0.45106 0.0
H347 H 0.80059 0.75521 0.4848 0.0
O348 O 0.57169 0.59723 0.5853 0.0
Tb349 Tb 0.52935 0.58893 0.61315 0.0
Eu350 Eu 0.51539 0.57637 0.67744 0.0
C351 C 0.60434 0.60028 0.59281 0.0
O352 O 0.61291 0.59186 0.61693 0.0
C353 C 0.53947 0.64858 0.65511 0.0
O354 O 0.48528 0.56845 0.71492 0.0
C355 C 0.57598 0.54949 0.68543 0.0
C356 C 0.45258 0.55857 0.71491 0.0
O357 O 0.43509 0.55891 0.69275 0.0
C358 C 0.49141 0.52325 0.63286 0.0
C359 C 0.61025 0.53357 0.69084 0.0
C360 C 0.6374 0.53708 0.67252 0.0
C361 C 0.66893 0.5191 0.67582 0.0
C362 C 0.67314 0.49824 0.69822 0.0
C363 C 0.64673 0.49493 0.71691 0.0
C364 C 0.61525 0.5127 0.71332 0.0
O365 O 0.55436 0.62949 0.63679 0.0
O366 O 0.51714 0.63451 0.67157 0.0
O367 O 0.49947 0.59715 0.57762 0.0
O368 O 0.47775 0.61328 0.61425 0.0
C369 C 0.47254 0.61096 0.58895 0.0
O370 O 0.48075 0.54121 0.65333 0.0
O371 O 0.51927 0.53346 0.6197 0.0
O372 O 0.55383 0.55577 0.70448 0.0
O373 O 0.5655 0.55845 0.66175 0.0
H374 H 0.63359 0.55316 0.65537 0.0
H375 H 0.69638 0.48269 0.70065 0.0
H376 H 0.59434 0.50909 0.72735 0.0
O377 O 0.05258 0.46437 0.08615 0.0
Tb378 Tb 0.0957 0.47338 0.11319 0.0
Eu379 Eu 0.10434 0.48641 0.1794 0.0
C380 C 1.02078 0.45788 0.09455 0.0
O381 O 1.01345 0.46222 0.11955 0.0
C382 C 0.0915 0.41258 0.15498 0.0
O383 O 0.13174 0.50315 0.21638 0.0
C384 C 0.03908 0.50256 0.18409 0.0
C385 C 0.16511 0.51054 0.21612 0.0
O386 O 0.18342 0.50354 0.19497 0.0
C387 C 0.12753 0.54136 0.1351 0.0
C388 C 1.01313 0.53042 0.18829 0.0
C389 C 0.98585 0.53303 0.17004 0.0
C390 C 0.95945 0.55777 0.17322 0.0
C391 C 0.96082 0.58024 0.19484 0.0
C392 C 0.98718 0.57778 0.21365 0.0
C393 C 1.01341 0.55256 0.21055 0.0
O394 O 0.07523 0.43005 0.13643 0.0
O395 O 0.11117 0.42885 0.17225 0.0
O396 O 0.12496 0.46746 0.07697 0.0
O397 O 0.14914 0.4534 0.11312 0.0
C398 C 0.15331 0.45595 0.08774 0.0
O399 O 0.1369 0.52507 0.15665 0.0
O400 O 0.10177 0.52918 0.12061 0.0
O401 O 0.05863 0.49318 0.20403 0.0
O402 O 0.05526 0.50146 0.16127 0.0
H403 H 0.98497 0.5153 0.15349 0.0
H404 H 0.9412 0.60022 0.19715 0.0
H405 H 1.03376 0.55039 0.22516 0.0
O406 O 0.56692 0.4664 0.37808 0.0
Tb407 Tb 0.52576 0.47439 0.34913 0.0
Eu408 Eu 0.51491 0.48647 0.28337 0.0
C409 C 0.59918 0.459 0.37126 0.0
O410 O 0.6085 0.46203 0.34652 0.0
C411 C 0.53397 0.41366 0.3077 0.0
O412 O 0.48645 0.49703 0.24558 0.0
C413 C 0.57717 0.51119 0.27668 0.0
C414 C 0.45368 0.50662 0.24522 0.0
O415 O 0.43541 0.50514 0.26701 0.0
C416 C 0.49137 0.54092 0.32756 0.0
C417 C 0.5941 0.54566 0.2738 0.0
C418 C 0.59684 0.56794 0.29565 0.0
C419 C 0.61397 0.59986 0.29345 0.0
C420 C 0.62839 0.60971 0.26942 0.0
C421 C 0.62756 0.5875 0.24767 0.0
C422 C 0.60974 0.55559 0.24969 0.0
O423 O 0.54903 0.43219 0.32625 0.0
O424 O 0.51343 0.42849 0.29032 0.0
O425 O 0.49423 0.468 0.38415 0.0
O426 O 0.47319 0.45226 0.34725 0.0
C427 C 0.46716 0.45514 0.3724 0.0
O428 O 0.48112 0.52354 0.30667 0.0
O429 O 0.51833 0.52989 0.3413 0.0
O430 O 0.55735 0.50097 0.25715 0.0
O431 O 0.56427 0.50316 0.29991 0.0
H432 H 0.58657 0.56027 0.31462 0.0
H433 H 0.64253 0.63406 0.26811 0.0
H434 H 0.60922 0.5381 0.233 0.0
O435 O 0.05283 0.59858 0.8768 0.0
Tb436 Tb 0.09563 0.59033 0.84926 0.0
Eu437 Eu 0.10331 0.57848 0.78322 0.0
C438 C 1.02126 0.60698 0.86894 0.0
O439 O 1.01357 0.60506 0.84384 0.0
C440 C 0.09173 0.65203 0.80812 0.0
O441 O 0.12868 0.56337 0.74508 0.0
C442 C 0.03771 0.56305 0.78008 0.0
C443 C 0.16233 0.55785 0.74386 0.0
O444 O 0.18161 0.56495 0.76449 0.0
C445 C 0.12732 0.52284 0.82641 0.0
C446 C 1.01157 0.53522 0.77657 0.0
C447 C 0.98525 0.53239 0.7956 0.0
C448 C 0.95884 0.50746 0.79319 0.0
C449 C 0.95919 0.48512 0.77145 0.0
C450 C 0.98455 0.48794 0.75186 0.0
C451 C 1.01083 0.51323 0.75427 0.0
O452 O 0.07575 0.63467 0.8269 0.0
O453 O 0.11097 0.63576 0.7906 0.0
O454 O 0.12508 0.59509 0.88544 0.0
O455 O 0.14924 0.60992 0.84941 0.0
C456 C 0.15348 0.60669 0.87473 0.0
O457 O 0.13649 0.53933 0.80487 0.0
O458 O 0.10145 0.53474 0.84095 0.0
O459 O 0.05662 0.57213 0.75968 0.0
O460 O 0.05474 0.56415 0.80252 0.0
H461 H 0.98514 0.55007 0.81219 0.0
H462 H 0.93962 0.46497 0.76966 0.0
H463 H 1.03045 0.51555 0.73908 0.0
H464 H 0.05598 0.19699 0.11606 0.0
H465 H 0.09862 0.36869 0.19803 0.0
H466 H 0.0372 0.20052 0.19961 0.0
H467 H 0.06834 0.36931 0.11642 0.0
H468 H 0.08483 0.30607 0.19987 0.0
H469 H 0.0693 0.25889 0.11664 0.0
C470 C 0.0547 0.21075 0.13461 0.0
C471 C 0.04534 0.19332 0.15782 0.0
C472 C 0.08122 0.32006 0.18163 0.0
C473 C 0.06117 0.2648 0.15864 0.0
C474 C 0.08928 0.35573 0.1805 0.0
C475 C 0.08465 0.37445 0.15703 0.0
C476 C 0.06918 0.30286 0.15897 0.0
C477 C 0.07224 0.35618 0.13499 0.0
C478 C 0.06224 0.24624 0.13489 0.0
C479 C 0.04406 0.21286 0.18121 0.0
N480 N 0.06525 0.3216 0.13647 0.0
N481 N 0.05217 0.24749 0.18108 0.0
H482 H 0.97082 0.78041 0.36634 0.0
H483 H 0.14375 0.75712 0.4514 0.0
H484 H 0.97674 0.82071 0.44536 0.0
H485 H 0.14364 0.76784 0.36704 0.0
H486 H 0.08089 0.77036 0.45174 0.0
H487 H 1.03236 0.7654 0.36848 0.0
C488 C 0.98499 0.78601 0.38424 0.0
C489 C 0.96839 0.80204 0.40568 0.0
C490 C 0.09475 0.7697 0.43321 0.0
C491 C 0.03936 0.78435 0.40832 0.0
C492 C 0.13052 0.76191 0.43298 0.0
C493 C 0.14908 0.76141 0.40915 0.0
C494 C 0.07733 0.77616 0.4094 0.0
C495 C 0.13056 0.7681 0.38589 0.0
C496 C 1.02025 0.77749 0.38539 0.0
C497 C 0.98842 0.80862 0.4283 0.0
N498 N 0.09588 0.77492 0.3866 0.0
N499 N 1.0228 0.79958 0.4291 0.0
H500 H 0.60309 0.85735 0.61582 0.0
H501 H 0.5233 0.69609 0.69435 0.0
H502 H 0.57761 0.86489 0.69818 0.0
H503 H 0.57896 0.68682 0.621 0.0
H504 H 0.5397 0.7579 0.69618 0.0
H505 H 0.59155 0.79516 0.61735 0.0
C506 C 0.59532 0.84587 0.63436 0.0
C507 C 0.59143 0.86656 0.65692 0.0
C508 C 0.54845 0.7422 0.6798 0.0
C509 C 0.57741 0.79473 0.65871 0.0
C510 C 0.53901 0.7069 0.67869 0.0
C511 C 0.54967 0.68598 0.65747 0.0
C512 C 0.5683 0.75687 0.65938 0.0
C513 C 0.57006 0.70164 0.63779 0.0
C514 C 0.5887 0.81021 0.63521 0.0
C515 C 0.58126 0.84998 0.68035 0.0
N516 N 0.57841 0.73595 0.63915 0.0
N517 N 0.57422 0.81513 0.68058 0.0
H518 H 0.47793 0.31303 0.94984 0.0
H519 H 0.65064 0.27608 0.86911 0.0
H520 H 0.47718 0.28111 0.86858 0.0
H521 H 0.64527 0.24684 0.95081 0.0
H522 H 0.58835 0.28826 0.8697 0.0
H523 H 0.54042 0.2986 0.95192 0.0
C524 C 0.4908 0.30313 0.93244 0.0
C525 C 0.47209 0.2984 0.90894 0.0
C526 C 0.60072 0.27915 0.88752 0.0
C527 C 0.54354 0.28241 0.91114 0.0
C528 C 0.63635 0.27227 0.88725 0.0
C529 C 0.65329 0.26031 0.90994 0.0
C530 C 0.58163 0.2749 0.91082 0.0
C531 C 0.63323 0.25579 0.93283 0.0
C532 C 0.52638 0.29474 0.93371 0.0
C533 C 0.49026 0.28527 0.8871 0.0
N534 N 0.59848 0.26343 0.93278 0.0
N535 N 0.52483 0.27816 0.88866 0.0
H536 H 0.09662 0.69504 0.76451 0.0
H537 H 0.05757 0.86826 0.8454 0.0
H538 H 0.07078 0.69584 0.84703 0.0
H539 H 1.03285 0.86189 0.76285 0.0
H540 H 0.07174 0.80654 0.84527 0.0
H541 H 0.08244 0.7575 0.7624 0.0
C542 C 0.08821 0.70831 0.78218 0.0
C543 C 0.08489 0.69006 0.80599 0.0
C544 C 0.0632 0.81855 0.82715 0.0
C545 C 0.06901 0.7614 0.80373 0.0
C546 C 0.05518 0.85391 0.82716 0.0
C547 C 0.04388 0.87044 0.8041 0.0
C548 C 0.06065 0.7993 0.80379 0.0
C549 C 0.04123 0.85022 0.78112 0.0
C550 C 0.07992 0.74386 0.7809 0.0
C551 C 0.07364 0.70865 0.82821 0.0
N552 N 0.04982 0.81576 0.78148 0.0
N553 N 0.0664 0.74315 0.82657 0.0
H554 H 0.4794 0.75436 0.01164 0.0
H555 H 0.64841 0.7927 0.09735 0.0
H556 H 0.47565 0.78208 0.09377 0.0
H557 H 0.64749 0.81664 0.01457 0.0
H558 H 0.58624 0.78041 0.0954 0.0
H559 H 0.54194 0.76896 0.01119 0.0
C560 C 0.49164 0.76339 0.02955 0.0
C561 C 0.47207 0.76698 0.05278 0.0
C562 C 0.59951 0.78844 0.07763 0.0
C563 C 0.54359 0.78327 0.05243 0.0
C564 C 0.63512 0.79541 0.07869 0.0
C565 C 0.65335 0.80586 0.0561 0.0
C566 C 0.58166 0.79114 0.05367 0.0
C567 C 0.63449 0.80893 0.03251 0.0
C568 C 0.52726 0.7719 0.02922 0.0
C569 C 0.48943 0.77898 0.07535 0.0
N570 N 0.59973 0.80127 0.03183 0.0
N571 N 0.52403 0.78634 0.07465 0.0
H572 H 0.55743 0.37215 0.34714 0.0
H573 H 0.59378 0.20165 0.26234 0.0
H574 H 0.52979 0.36872 0.26502 0.0
H575 H 0.56826 0.19937 0.34488 0.0
H576 H 0.58015 0.26433 0.2617 0.0
H577 H 0.57148 0.31041 0.34546 0.0
C578 C 0.5544 0.35846 0.32867 0.0
C579 C 0.54227 0.37582 0.30619 0.0
C580 C 0.57758 0.24996 0.27989 0.0
C581 C 0.55891 0.30466 0.3041 0.0
C582 C 0.58557 0.21429 0.28032 0.0
C583 C 0.58214 0.19512 0.3037 0.0
C584 C 0.56695 0.2667 0.30314 0.0
C585 C 0.57115 0.21292 0.32636 0.0
C586 C 0.56236 0.32309 0.32777 0.0
C587 C 0.53883 0.35642 0.28287 0.0
N588 N 0.56427 0.24755 0.32555 0.0
N589 N 0.54736 0.32193 0.28236 0.0
H590 H 0.13816 0.31686 0.51257 0.0
H591 H 0.97159 0.27392 0.60027 0.0
H592 H 0.1442 0.28604 0.59393 0.0
H593 H 0.97054 0.25416 0.51682 0.0
H594 H 1.03352 0.28724 0.59762 0.0
H595 H 0.07551 0.3027 0.51296 0.0
C596 C 0.12637 0.30732 0.5305 0.0
C597 C 0.1466 0.30263 0.55325 0.0
C598 C 1.01984 0.27993 0.57985 0.0
C599 C 0.07502 0.28679 0.55387 0.0
C600 C 0.98437 0.27238 0.58132 0.0
C601 C 0.96568 0.26276 0.55874 0.0
C602 C 0.03706 0.27863 0.55553 0.0
C603 C 0.98391 0.2612 0.53476 0.0
C604 C 0.0907 0.29905 0.53065 0.0
C605 C 0.12984 0.28998 0.57588 0.0
N606 N 1.01852 0.26935 0.53372 0.0
N607 N 0.0952 0.28282 0.57565 0.0
H608 H 0.24969 0.23876 0.01833 0.0
H609 H 0.12215 0.08408 0.05151 0.0
H610 H 0.24386 0.1458 0.9713 0.0
H611 H 0.16309 0.1492 0.1132 0.0
H612 H 0.16533 0.10839 0.02126 0.0
H613 H 0.21812 0.20833 0.05373 0.0
C614 C 0.24262 0.21174 0.01577 0.0
C615 C 0.24906 0.19484 -0.00818 0.0
C616 C 0.16515 0.11706 0.04151 0.0
C617 C 0.21228 0.16039 0.0316 0.0
C618 C 0.14044 0.10322 0.05874 0.0
C619 C 0.13905 0.11451 0.08491 0.0
C620 C 0.18814 0.14302 0.0503 0.0
C621 C 0.16339 0.13954 0.09321 0.0
C622 C 0.2244 0.19447 0.03582 0.0
C623 C 0.23902 0.15989 -0.01063 0.0
N624 N 0.1866 0.15334 0.07588 0.0
N625 N 0.22063 0.14407 0.00874 0.0
H626 H 0.19939 0.96327 0.22036 0.0
H627 H 0.19342 0.88478 0.36559 0.0
H628 H 0.10848 0.97186 0.2695 0.0
H629 H 0.25715 0.8436 0.30309 0.0
H630 H 0.17026 0.9282 0.33506 0.0
H631 H 0.22927 0.93221 0.25555 0.0
C632 C 0.18601 0.95928 0.23886 0.0
C633 C 0.15128 0.9698 0.24197 0.0
C634 C 0.18958 0.90988 0.32817 0.0
C635 C 0.18531 0.93398 0.28227 0.0
C636 C 0.20299 0.88519 0.34556 0.0
C637 C 0.2272 0.86035 0.33683 0.0
C638 C 0.20093 0.91021 0.30198 0.0
C639 C 0.23842 0.86207 0.31063 0.0
C640 C 0.20299 0.94134 0.25883 0.0
C641 C 0.13523 0.96419 0.26636 0.0
N642 N 0.22521 0.88654 0.29415 0.0
N643 N 0.15227 0.94625 0.28556 0.0
H644 H 0.3502 0.93426 0.4901 0.0
H645 H 0.48155 0.88608 0.60462 0.0
H646 H 0.38304 0.82815 0.50073 0.0
H647 H 0.49149 0.97938 0.55838 0.0
H648 H 0.43534 0.86593 0.57498 0.0
H649 H 0.39053 0.95241 0.52448 0.0
C650 C 0.36552 0.91464 0.50001 0.0
C651 C 0.36372 0.87965 0.49214 0.0
C652 C 0.44756 0.89085 0.57147 0.0
C653 C 0.40973 0.90043 0.53182 0.0
C654 C 0.47374 0.90251 0.5884 0.0
C655 C 0.49034 0.93453 0.58394 0.0
C656 C 0.43722 0.9118 0.55039 0.0
C657 C 0.47946 0.95454 0.56248 0.0
C658 C 0.38863 0.92511 0.51951 0.0
C659 C 0.38367 0.85534 0.50609 0.0
N660 N 0.45337 0.94299 0.54663 0.0
N661 N 0.40613 0.86623 0.5252 0.0
H662 H 0.37288 0.20596 0.81796 0.0
H663 H 0.51884 0.11772 0.72654 0.0
H664 H 0.47282 0.25236 0.80187 0.0
H665 H 0.41815 0.07262 0.74119 0.0
H666 H 0.50528 0.16396 0.75829 0.0
H667 H 0.39087 0.15441 0.79307 0.0
C668 C 0.39855 0.20536 0.80921 0.0
C669 C 0.42119 0.23372 0.8119 0.0
C670 C 0.48635 0.14362 0.7549 0.0
C671 C 0.44218 0.17462 0.78351 0.0
C672 C 0.49432 0.11702 0.73702 0.0
C673 C 0.46959 0.09137 0.73128 0.0
C674 C 0.45339 0.14454 0.76702 0.0
C675 C 0.43791 0.09199 0.74508 0.0
C676 C 0.4089 0.17585 0.79507 0.0
C677 C 0.45431 0.23129 0.80023 0.0
N678 N 0.43059 0.11828 0.76205 0.0
N679 N 0.46371 0.20242 0.78653 0.0
H680 H 0.24971 0.82721 0.94164 0.0
H681 H 0.11868 0.97958 0.91024 0.0
H682 H 0.23965 0.91781 -0.00917 0.0
H683 H 0.16222 0.91729 0.84788 0.0
H684 H 0.16185 0.95544 0.94048 0.0
H685 H 0.21811 0.85809 0.90656 0.0
C686 C 0.24171 0.85386 0.94476 0.0
C687 C 0.24699 0.8699 0.9692 0.0
C688 C 0.16223 0.94736 0.92009 0.0
C689 C 0.21014 0.90484 0.92975 0.0
C690 C 0.13753 0.9611 0.90286 0.0
C691 C 0.13686 0.95055 0.87649 0.0
C692 C 0.18597 0.92222 0.91111 0.0
C693 C 0.16192 0.92637 0.86802 0.0
C694 C 0.22347 0.87137 0.92488 0.0
C695 C 0.23575 0.90437 0.97236 0.0
N696 N 0.18513 0.91264 0.88534 0.0
N697 N 0.21737 0.92041 0.95312 0.0
H698 H 0.47083 1.00809 0.19253 0.0
H699 H 0.40976 0.81347 0.16465 0.0
H700 H 0.49759 0.92105 0.24153 0.0
H701 H 0.4014 0.89423 0.10624 0.0
H702 H 0.44199 0.85335 0.19285 0.0
H703 H 0.44804 0.96757 0.15934 0.0
C704 C 0.4732 0.9804 0.19578 0.0
C705 C 0.48641 0.96781 0.21962 0.0
C706 C 0.43317 0.86242 0.17386 0.0
C707 C 0.459 0.92145 0.1825 0.0
C708 C 0.4144 0.8397 0.15781 0.0
C709 C 0.40261 0.85048 0.13303 0.0
C710 C 0.44007 0.89644 0.16528 0.0
C711 C 0.40984 0.88478 0.12522 0.0
C712 C 0.45969 0.95728 0.17706 0.0
C713 C 0.48793 0.93173 0.22325 0.0
N714 N 0.42795 0.90656 0.14131 0.0
N715 N 0.47392 0.90989 0.20513 0.0
H716 H 0.41791 0.21766 0.49258 0.0
H717 H 0.44711 0.12375 0.3536 0.0
H718 H 0.33326 0.19025 0.44129 0.0
H719 H 0.52566 0.13348 0.41368 0.0
H720 H 0.4061 0.15465 0.38221 0.0
H721 H 0.45913 0.1963 0.4597 0.0
C722 C 0.40813 0.2083 0.4739 0.0
C723 C 0.37224 0.20612 0.46943 0.0
C724 C 0.43231 0.14998 0.3891 0.0
C725 C 0.41911 0.18018 0.43212 0.0
C726 C 0.45571 0.13219 0.37284 0.0
C727 C 0.4899 0.12577 0.38128 0.0
C728 C 0.44325 0.16181 0.41388 0.0
C729 C 0.49956 0.13752 0.40637 0.0
C730 C 0.4316 0.19555 0.45532 0.0
C731 C 0.36079 0.19292 0.44523 0.0
N732 N 0.47644 0.15501 0.42168 0.0
N733 N 0.38414 0.18005 0.42756 0.0
H734 H 0.09006 0.14986 0.72025 0.0
H735 H 0.23396 0.16816 0.60784 0.0
H736 H 0.15939 0.06512 0.70279 0.0
H737 H 0.19639 0.25282 0.65563 0.0
H738 H 0.19945 0.12754 0.63474 0.0
H739 H 0.11901 0.18489 0.68669 0.0
C740 C 0.11064 0.13826 0.70864 0.0
C741 C 0.12238 0.1046 0.71426 0.0
C742 C 0.19895 0.15502 0.63926 0.0
C743 C 0.1563 0.14484 0.67633 0.0
C744 C 0.21866 0.17816 0.62405 0.0
C745 C 0.21825 0.21393 0.62963 0.0
C746 C 0.17804 0.16793 0.65968 0.0
C747 C 0.19785 0.22549 0.65076 0.0
C748 C 0.12749 0.1584 0.6898 0.0
C749 C 0.14941 0.09087 0.69886 0.0
N750 N 0.17839 0.20265 0.66481 0.0
N751 N 0.16584 0.11123 0.68074 0.0
H752 H 0.92017 0.91524 0.85863 0.0
H753 H 0.82479 0.94695 -0.00368 0.0
H754 H 0.96442 0.9744 0.92238 0.0
H755 H 0.80342 0.85736 0.94787 0.0
H756 H 0.8679 0.96618 0.96417 0.0
H757 H 0.86975 0.90168 0.88665 0.0
C758 C 0.91916 0.92543 0.87847 0.0
C759 C 0.94649 0.94567 0.88837 0.0
C760 C 0.85349 0.9425 0.96047 0.0
C761 C 0.88904 0.93095 0.92011 0.0
C762 C 0.82868 0.93163 0.9787 0.0
C763 C 0.81069 0.90032 0.97489 0.0
C764 C 0.86011 0.92215 0.93812 0.0
C765 C 0.81692 0.88152 0.95168 0.0
C766 C 0.8905 0.91772 0.89438 0.0
C767 C 0.944 0.95841 0.91412 0.0
N768 N 0.84128 0.89263 0.9342 0.0
N769 N 0.91574 0.95092 0.92908 0.0
H770 H 0.92354 0.13468 0.60907 0.0
H771 H 0.88938 1.02775 0.74145 0.0
H772 H 0.86263 0.17175 0.67453 0.0
H773 H 0.9805 1.01144 0.69337 0.0
H774 H 0.86922 0.07128 0.71013 0.0
H775 H 0.93576 0.08105 0.63384 0.0
C776 C 0.91261 0.13138 0.62854 0.0
C777 C 0.89242 0.15766 0.63998 0.0
C778 C 0.8934 0.05779 0.70627 0.0
C779 C 0.90548 0.09666 0.66792 0.0
C780 C 0.90482 1.03274 0.72403 0.0
C781 C 0.93695 1.01629 0.72023 0.0
C782 C 0.9141 0.06629 0.68445 0.0
C783 C 0.95576 1.02383 0.69723 0.0
C784 C 0.91953 0.10091 0.6426 0.0
C785 C 0.87867 0.15223 0.66516 0.0
N786 N 0.94423 0.04858 0.6803 0.0
N787 N 0.88542 0.12235 0.67826 0.0
H788 H 0.66277 0.08765 0.42117 0.0
H789 H 0.81747 0.21629 0.44963 0.0
H790 H 0.70344 0.15384 0.36009 0.0
H791 H 0.80189 0.12153 0.49339 0.0
H792 H 0.77618 0.19543 0.41653 0.0
H793 H 0.71301 0.10154 0.44842 0.0
C794 C 0.68243 0.10509 0.41349 0.0
C795 C 0.67898 0.11984 0.38847 0.0
C796 C 0.78229 0.17902 0.43316 0.0
C797 C 0.73644 0.13608 0.41963 0.0
C798 C 0.80581 0.19088 0.45208 0.0
C799 C 0.81288 0.17076 0.47445 0.0
C800 C 0.76534 0.14713 0.43694 0.0
C801 C 0.79713 0.138 0.47655 0.0
C802 C 0.7112 0.11283 0.42898 0.0
C803 C 0.70525 0.14203 0.37935 0.0
N804 N 0.77369 0.12747 0.45826 0.0
N805 N 0.73277 0.14992 0.39511 0.0
H806 H 0.69901 0.92563 0.10949 0.0
H807 H 0.72506 1.02464 0.24618 0.0
H808 H 0.75069 0.88093 0.17659 0.0
H809 H 0.63883 0.0467 0.19458 0.0
H810 H 0.74468 0.97983 0.21558 0.0
H811 H 0.68552 0.97741 0.13598 0.0
C812 C 0.70757 0.92682 0.12975 0.0
C813 C 0.72569 0.89901 0.14103 0.0
C814 C 0.72169 0.99478 0.21084 0.0
C815 C 0.71112 0.95799 0.17102 0.0
C816 C 0.71062 1.02057 0.22817 0.0
C817 C 0.68007 0.03924 0.22303 0.0
C818 C 0.70234 0.98788 0.18805 0.0
C819 C 0.66237 1.0327 0.1994 0.0
C820 C 0.6999 0.95625 0.14479 0.0
C821 C 0.73637 0.90174 0.16728 0.0
N822 N 0.67366 1.0074 0.1828 0.0
N823 N 0.72902 0.93076 0.18137 0.0
H824 H 0.8272 0.11573 0.9648 0.0
H825 H 0.92102 0.14514 0.10329 0.0
H826 H 0.803 0.20246 0.01541 0.0
H827 H 0.96701 0.08915 0.03858 0.0
H828 H 0.87033 0.15805 0.07551 0.0
H829 H 0.87063 0.09639 -0.00342 0.0
C830 C 0.83054 0.13037 -0.01719 0.0
C831 C 0.81166 0.16095 -0.01264 0.0
C832 C 0.89151 0.14284 0.06751 0.0
C833 C 0.86144 0.13901 0.02369 0.0
C834 C 0.92034 0.13551 0.08328 0.0
C835 C 0.94822 0.11637 0.07304 0.0
C836 C 0.89049 0.13036 0.04156 0.0
C837 C 0.94614 0.10429 0.0471 0.0
C838 C 0.85553 0.11944 0.00083 0.0
C839 C 0.81721 0.1789 0.01103 0.0
N840 N 0.91773 0.11142 0.03225 0.0
N841 N 0.84175 0.16776 0.02828 0.0
H842 H 0.60066 0.04799 0.75303 0.0
H843 H 0.73976 0.12379 0.85316 0.0
H844 H 0.70565 1.00825 0.75333 0.0
H845 H 0.66869 0.1881 0.80945 0.0
H846 H 0.71953 0.07287 0.82786 0.0
H847 H 0.61737 0.0908 0.78601 0.0
C848 C 0.6271 0.04778 0.76035 0.0
C849 C 0.65196 1.02473 0.75014 0.0
C850 C 0.7082 0.09814 0.82416 0.0
C851 C 0.67092 0.07352 0.7881 0.0
C852 C 0.71949 0.12698 0.8386 0.0
C853 C 0.70578 0.15993 0.8332 0.0
C854 C 0.6824 0.10247 0.80496 0.0
C855 C 0.6799 0.16304 0.81404 0.0
C856 C 0.63656 0.07233 0.7791 0.0
C857 C 0.6858 1.02578 0.76048 0.0
N858 N 0.66888 0.13461 0.80068 0.0
N859 N 0.6944 0.04998 0.7789 0.0
H860 H 0.79675 0.95775 0.45498 0.0
H861 H 0.71315 0.93404 0.59786 0.0
H862 H 0.83382 0.88252 0.5112 0.0
H863 H 0.65816 0.97762 0.53185 0.0
H864 H 0.76426 0.92564 0.56968 0.0
H865 H 0.75326 0.97693 0.48691 0.0
C866 C 0.79631 0.9458 0.47424 0.0
C867 C 0.81872 0.91823 0.48036 0.0
C868 C 0.74105 0.93722 0.56144 0.0
C869 C 0.76887 0.93988 0.51681 0.0
C870 C 0.71195 0.94199 0.57747 0.0
C871 C 0.68141 0.95618 0.56701 0.0
C872 C 0.73965 0.94718 0.53492 0.0
C873 C 0.68116 0.96624 0.54054 0.0
C874 C 0.77126 0.95657 0.49235 0.0
C875 C 0.81682 0.90364 0.5056 0.0
N876 N 0.70986 0.96153 0.52537 0.0
N877 N 0.79211 0.91446 0.52285 0.0
H878 H 0.89284 0.0367 0.22183 0.0
H879 H 0.92853 0.9316 0.35477 0.0
H880 H 0.98552 0.05222 0.26821 0.0
H881 H 0.86486 0.89482 0.29079 0.0
H882 H 0.94095 0.98473 0.32936 0.0
H883 H 0.87245 0.99447 0.25412 0.0
C884 C 0.90859 1.03181 0.23907 0.0
C885 C 0.94121 0.0476 0.2421 0.0
C886 C 0.92406 0.96505 0.32108 0.0
C887 C 0.9181 0.99909 0.27899 0.0
C888 C 0.91704 0.93487 0.3355 0.0
C889 C 0.89604 0.90879 0.32464 0.0
C890 C 0.90932 0.96921 0.29601 0.0
C891 C 0.88157 0.91416 0.29971 0.0
C892 C 0.89703 1.00751 0.2574 0.0
C893 C 0.96041 0.04028 0.26493 0.0
N894 N 0.88844 0.94374 0.28625 0.0
N895 N 0.94874 1.01623 0.28241 0.0
H896 H 0.69158 0.75915 0.49492 0.0
H897 H 0.67589 0.60057 0.59531 0.0
H898 H 0.7756 0.68617 0.5034 0.0
H899 H 0.58968 0.64549 0.55317 0.0
H900 H 0.7159 0.63802 0.57015 0.0
H901 H 0.65774 0.72618 0.52706 0.0
C902 C 0.70338 0.73687 0.50435 0.0
C903 C 0.73642 0.72538 0.49656 0.0
C904 C 0.68822 0.63948 0.56647 0.0
C905 C 0.69746 0.6869 0.53278 0.0
C906 C 0.66541 0.61809 0.58068 0.0
C907 C 0.62938 0.61969 0.57617 0.0
C908 C 0.67473 0.66324 0.54821 0.0
C909 C 0.61721 0.64301 0.55711 0.0
C910 C 0.68387 0.71775 0.52235 0.0
C911 C 0.75035 0.69604 0.5091 0.0
N912 N 0.63976 0.66402 0.54406 0.0
N913 N 0.73061 0.67746 0.52642 0.0
H914 H 0.64101 0.42504 0.71415 0.0
H915 H 0.73223 0.39238 0.85363 0.0
H916 H 0.66771 0.50787 0.76731 0.0
H917 H 0.71767 0.31297 0.79473 0.0
H918 H 0.70494 0.43455 0.82417 0.0
H919 H 0.66309 0.38282 0.74598 0.0
C920 C 0.65066 0.43415 0.73294 0.0
C921 C 0.65204 0.46977 0.73844 0.0
C922 C 0.70781 0.40792 0.81768 0.0
C923 C 0.67855 0.4219 0.77457 0.0
C924 C 0.72354 0.38383 0.83444 0.0
C925 C 0.72736 0.34903 0.82665 0.0
C926 C 0.69555 0.39714 0.79298 0.0
C927 C 0.71549 0.33951 0.80156 0.0
C928 C 0.66369 0.41016 0.75095 0.0
C929 C 0.66564 0.48051 0.76266 0.0
N930 N 0.70003 0.36336 0.78572 0.0
N931 N 0.67858 0.45666 0.77983 0.0
H932 H 0.95156 0.44499 0.10386 0.0
H933 H 0.92427 0.3443 0.9674 0.0
H934 H 1.03155 0.43115 0.04525 0.0
H935 H 0.83903 0.37481 0.01717 0.0
H936 H 0.96515 0.36687 5e-05 0.0
H937 H 0.91094 0.41293 0.07572 0.0
C938 C 0.96057 0.43539 0.08503 0.0
C939 C 0.99505 0.44101 0.07687 0.0
C940 C 0.93755 0.368 0.00418 0.0
C941 C 0.94879 0.40365 0.0448 0.0
C942 C 0.91428 0.35455 -0.01425 0.0
C943 C 0.87832 0.3572 -0.01014 0.0
C944 C 0.92482 0.38458 0.02684 0.0
C945 C 0.8666 0.37168 0.01356 0.0
C946 C 0.93738 0.41694 0.06904 0.0
C947 C 1.00521 0.42777 0.05231 0.0
N948 N 0.88978 0.3852 0.03107 0.0
N949 N 0.98227 0.40968 0.03724 0.0
H950 H 0.90858 0.75634 0.29197 0.0
H951 H 0.97319 0.56215 0.26507 0.0
H952 H 0.90178 0.67543 0.35039 0.0
H953 H 0.99255 0.64801 0.2129 0.0
H954 H 0.95069 0.60308 0.29808 0.0
H955 H 0.94054 0.71672 0.26333 0.0
C956 C 0.91354 0.73015 0.29873 0.0
C957 C 0.90221 0.71923 0.32363 0.0
C958 C 0.96061 0.61307 0.27965 0.0
C959 C 0.93936 0.67357 0.29088 0.0
C960 C 0.97396 0.58975 0.26101 0.0
C961 C 0.98505 0.60182 0.23639 0.0
C962 C 0.95801 0.64859 0.27341 0.0
C963 C 0.98455 0.63775 0.23178 0.0
C964 C 0.93212 0.70756 0.28242 0.0
C965 C 0.90983 0.68499 0.33133 0.0
N966 N 0.97082 0.65976 0.24991 0.0
N967 N 0.92778 0.66338 0.31501 0.0
H968 H 0.58564 0.4399 0.42219 0.0
H969 H 0.77779 0.37033 0.45209 0.0
H970 H 0.66748 0.44003 0.3641 0.0
H971 H 0.69183 0.36152 0.50596 0.0
H972 H 0.73753 0.39161 0.4182 0.0
H973 H 0.62419 0.4094 0.45245 0.0
C974 C 0.61181 0.43378 0.41583 0.0
C975 C 0.6233 0.44282 0.39054 0.0
C976 C 0.72734 0.38432 0.43726 0.0
C977 C 0.66772 0.40732 0.42518 0.0
C978 C 0.75025 0.37168 0.45644 0.0
C979 C 0.73802 0.36393 0.48174 0.0
C980 C 0.69207 0.3895 0.44359 0.0
C981 C 0.70222 0.367 0.48661 0.0
C982 C 0.63378 0.41605 0.43309 0.0
C983 C 0.65748 0.43378 0.38342 0.0
N984 N 0.68064 0.37991 0.46788 0.0
N985 N 0.67847 0.41665 0.40064 0.0
H986 H 0.99259 0.41804 0.75189 0.0
H987 H 0.89433 0.39272 0.61429 0.0
H988 H 0.96611 0.5036 0.70133 0.0
H989 H 0.90756 0.31188 0.67212 0.0
H990 H 0.92615 0.43281 0.64299 0.0
H991 H 0.96981 0.3776 0.71905 0.0
C992 C 0.98304 0.42817 0.73339 0.0
C993 C 0.98157 0.4641 0.72911 0.0
C994 C 0.92205 0.40631 0.64938 0.0
C995 C 0.95406 0.41813 0.69183 0.0
C996 C 0.90373 0.38342 0.63307 0.0
C997 C 0.89804 0.34885 0.64083 0.0
C998 C 0.93508 0.39452 0.67356 0.0
C999 C 0.91102 0.3383 0.66534 0.0
C1000 C 0.96953 0.40515 0.71482 0.0
C1001 C 0.9682 0.47602 0.70513 0.0
N1002 N 0.92895 0.36097 0.68074 0.0
N1003 N 0.95457 0.4531 0.68747 0.0
H1004 H 0.83975 0.69398 0.94746 0.0
H1005 H 1.0331 0.62741 0.91975 0.0
H1006 H 0.92628 0.71208 -0.00067 0.0
H1007 H 0.95297 0.62498 0.86046 0.0
H1008 H 0.99361 0.65871 0.94887 0.0
H1009 H 0.88032 0.67156 0.9141 0.0
C1010 C 0.86742 0.69447 0.95139 0.0
C1011 C 0.87979 0.70518 0.97602 0.0
C1012 C 0.98459 0.65139 0.92948 0.0
C1013 C 0.92611 0.67826 0.93862 0.0
C1014 C 1.00709 0.63318 0.91289 0.0
C1015 C 0.99638 0.62336 0.88759 0.0
C1016 C 0.95088 0.65975 0.92091 0.0
C1017 C 0.96237 0.63194 0.87981 0.0
C1018 C 0.89052 0.68119 0.93255 0.0
C1019 C 0.91579 0.70436 0.98046 0.0
N1020 N 0.94081 0.64952 0.89641 0.0
N1021 N 0.93757 0.69069 0.96214 0.0
H1022 H 0.69605 0.60373 0.24628 0.0
H1023 H 0.69512 0.68223 0.10105 0.0
H1024 H 0.6059 0.59645 0.19635 0.0
H1025 H 0.75579 0.72438 0.16485 0.0
H1026 H 0.67045 0.63918 0.13132 0.0
H1027 H 0.72682 0.63497 0.21155 0.0
C1028 C 0.68303 0.60803 0.22769 0.0
C1029 C 0.64825 0.59782 0.22425 0.0
C1030 C 0.68943 0.65764 0.13856 0.0
C1031 C 0.68332 0.63382 0.18445 0.0
C1032 C 0.7037 0.68212 0.12132 0.0
C1033 C 0.72753 0.70707 0.13047 0.0
C1034 C 0.69959 0.65762 0.16501 0.0
C1035 C 0.73742 0.70578 0.15697 0.0
C1036 C 0.70052 0.62608 0.20799 0.0
C1037 C 0.63267 0.60385 0.19975 0.0
N1038 N 0.72346 0.68147 0.17328 0.0
N1039 N 0.65023 0.62185 0.1808 0.0
H1040 H 0.30322 0.44948 0.48678 0.0
H1041 H 0.41294 0.414 0.35578 0.0
H1042 H 0.29218 0.35504 0.44174 0.0
H1043 H 0.44656 0.47962 0.41963 0.0
H1044 H 0.35953 0.40056 0.38068 0.0
H1045 H 0.34585 0.47023 0.45487 0.0
C1046 C 0.3092 0.43338 0.46992 0.0
C1047 C 0.29452 0.40023 0.46715 0.0
C1048 C 0.37857 0.41811 0.38903 0.0
C1049 C 0.34343 0.42379 0.43067 0.0
C1050 C 0.4089 0.42573 0.37489 0.0
C1051 C 0.43418 0.44756 0.38589 0.0
C1052 C 0.37346 0.43311 0.41393 0.0
C1053 C 0.42785 0.46229 0.41063 0.0
C1054 C 0.33371 0.44516 0.4518 0.0
C1055 C 0.30323 0.38059 0.4448 0.0
N1056 N 0.39813 0.45483 0.4238 0.0
N1057 N 0.32743 0.39251 0.42751 0.0
H1058 H 0.48395 0.51409 0.19672 0.0
H1059 H 0.4235 0.63411 0.10342 0.0
H1060 H 0.3937 0.54443 0.24167 0.0
H1061 H 0.37524 0.68051 0.17145 0.0
H1062 H 0.43598 0.58197 0.12964 0.0
H1063 H 0.46739 0.55533 0.16255 0.0
C1064 C 0.46018 0.52881 0.19912 0.0
C1065 C 0.44033 0.52596 0.22222 0.0
C1066 C 0.42294 0.60368 0.13886 0.0
C1067 C 0.42113 0.57323 0.18311 0.0
C1068 C 0.41569 0.63331 0.12387 0.0
C1069 C 0.39878 0.66172 0.13545 0.0
C1070 C 0.41291 0.60263 0.16547 0.0
C1071 C 0.38874 0.65933 0.16187 0.0
C1072 C 0.45063 0.55228 0.17949 0.0
C1073 C 0.40986 0.54577 0.22426 0.0
N1074 N 0.39589 0.63033 0.17594 0.0
N1075 N 0.40157 0.56899 0.2052 0.0
H1076 H 0.16921 0.58334 0.92335 0.0
H1077 H 0.33306 0.70292 0.94358 0.0
H1078 H 0.21108 0.64396 0.85948 0.0
H1079 H 0.31128 0.6139 -0.00756 0.0
H1080 H 0.29026 0.68191 0.91174 0.0
H1081 H 0.22158 0.59491 0.94881 0.0
C1082 C 0.18956 0.59909 0.91469 0.0
C1083 C 0.18582 0.613 0.88942 0.0
C1084 C 0.29536 0.66667 0.92919 0.0
C1085 C 0.24583 0.62652 0.9185 0.0
C1086 C 0.3198 0.67861 0.94738 0.0
C1087 C 0.32543 0.66036 0.97089 0.0
C1088 C 0.2761 0.63661 0.93479 0.0
C1089 C 0.30764 0.62895 0.9747 0.0
C1090 C 0.21957 0.60547 0.92915 0.0
C1091 C 0.21305 0.63292 0.87899 0.0
N1092 N 0.28334 0.6184 0.95707 0.0
N1093 N 0.24183 0.63953 0.89375 0.0
H1094 H 0.18833 0.42672 0.60592 0.0
H1095 H 0.22639 0.52749 0.74051 0.0
H1096 H 0.25549 0.38876 0.66732 0.0
H1097 H 0.13119 0.54166 0.69693 0.0
H1098 H 0.24602 0.48619 0.70724 0.0
H1099 H 0.17496 0.47783 0.63335 0.0
C1100 C 0.20041 0.42934 0.62504 0.0
C1101 C 0.22272 0.40349 0.63458 0.0
C1102 C 0.22101 0.49868 0.70482 0.0
C1103 C 0.20824 0.46162 0.66554 0.0
C1104 C 0.20985 0.52242 0.72372 0.0
C1105 C 0.17689 0.53771 0.72168 0.0
C1106 C 0.1992 0.49036 0.68361 0.0
C1107 C 0.15664 0.53015 0.69941 0.0
C1108 C 0.1928 0.45835 0.64062 0.0
C1109 C 0.23784 0.40797 0.6594 0.0
N1110 N 0.16801 0.50676 0.6813 0.0
N1111 N 0.23036 0.43647 0.674 0.0
H1112 H 0.29892 0.71791 0.52004 0.0
H1113 H 0.45295 0.58728 0.54132 0.0
H1114 H 0.30802 0.62168 0.477 0.0
H1115 H 0.41895 0.65366 0.60462 0.0
H1116 H 0.40056 0.60179 0.51687 0.0
H1117 H 0.34222 0.69666 0.55145 0.0
C1118 C 0.30953 0.69209 0.51745 0.0
C1119 C 0.30015 0.67169 0.49567 0.0
C1120 C 0.4043 0.61301 0.53619 0.0
C1121 C 0.34995 0.64764 0.5312 0.0
C1122 C 0.43434 0.60496 0.55007 0.0
C1123 C 0.44027 0.61953 0.57489 0.0
C1124 C 0.38026 0.63642 0.54694 0.0
C1125 C 0.41522 0.64201 0.58545 0.0
C1126 C 0.3342 0.68002 0.53539 0.0
C1127 C 0.3146 0.6384 0.49336 0.0
N1128 N 0.38638 0.65022 0.57122 0.0
N1129 N 0.33921 0.62767 0.51064 0.0
H1130 H 0.19697 0.6417 0.3533 0.0
H1131 H 0.22555 0.54785 0.21475 0.0
H1132 H 0.25207 0.68816 0.28836 0.0
H1133 H 0.13788 0.52464 0.26481 0.0
H1134 H 0.24478 0.59149 0.24646 0.0
H1135 H 0.18335 0.59137 0.32531 0.0
C1136 C 0.20628 0.64119 0.3332 0.0
C1137 C 0.2254 0.6691 0.32297 0.0
C1138 C 0.22153 0.57656 0.25061 0.0
C1139 C 0.2106 0.61174 0.29124 0.0
C1140 C 0.21067 0.55145 0.23263 0.0
C1141 C 0.17989 0.53274 0.23705 0.0
C1142 C 0.20175 0.58275 0.27332 0.0
C1143 C 0.16162 0.53867 0.26055 0.0
C1144 C 0.19852 0.61258 0.3173 0.0
C1145 C 0.23699 0.66725 0.29689 0.0
N1146 N 0.17275 0.56329 0.27779 0.0
N1147 N 0.2295 0.63901 0.28193 0.0
H1148 H 0.21087 0.41904 0.10336 0.0
H1149 H 0.30951 0.45204 0.96699 0.0
H1150 H 0.16908 0.47823 0.03879 0.0
H1151 H 0.33079 0.36298 0.01589 0.0
H1152 H 0.2672 0.47208 -0.00058 0.0
H1153 H 0.26327 0.40728 0.07686 0.0
C1154 C 0.21288 0.4297 0.08372 0.0
C1155 C 0.18562 0.44926 0.07305 0.0
C1156 C 0.2815 0.44839 0.00319 0.0
C1157 C 0.24521 0.43667 0.04312 0.0
C1158 C 0.30585 0.43704 -0.01522 0.0
C1159 C 0.32335 0.4055 -0.01146 0.0
C1160 C 0.27477 0.42822 0.02561 0.0
C1161 C 0.31754 0.38724 0.01205 0.0
C1162 C 0.24265 0.42303 0.06867 0.0
C1163 C 0.18938 0.46267 0.0476 0.0
N1164 N 0.29346 0.39869 0.02962 0.0
N1165 N 0.21861 0.45615 0.03352 0.0
H1166 H 0.48165 0.55255 0.76387 0.0
H1167 H 0.42364 0.4301 0.85614 0.0
H1168 H 0.39309 0.51977 0.71803 0.0
H1169 H 0.37649 0.38323 0.78789 0.0
H1170 H 0.43496 0.48277 0.83027 0.0
H1171 H 0.46546 0.51092 0.79786 0.0
C1172 C 0.45827 0.53723 0.76125 0.0
C1173 C 0.43888 0.53946 0.73792 0.0
C1174 C 0.42246 0.46084 0.8209 0.0
C1175 C 0.4201 0.49171 0.77685 0.0
C1176 C 0.41588 0.43089 0.83569 0.0
C1177 C 0.3996 0.40222 0.82397 0.0
C1178 C 0.41244 0.46194 0.79431 0.0
C1179 C 0.38954 0.40462 0.79757 0.0
C1180 C 0.44894 0.5135 0.78078 0.0
C1181 C 0.4089 0.51891 0.73561 0.0
N1182 N 0.39608 0.43394 0.78367 0.0
N1183 N 0.40084 0.49546 0.75459 0.0
H1184 H 0.2684 0.87196 0.08164 0.0
H1185 H 0.15205 0.98934 0.12914 0.0
H1186 H 0.17652 0.82576 0.04784 0.0
H1187 H 0.10624 0.89825 0.16433 0.0
H1188 H 0.18208 0.95197 0.0974 0.0
H1189 H 0.2316 0.90267 0.11338 0.0
C1190 C 0.24062 0.8673 0.08156 0.0
C1191 C 0.22531 0.84646 0.0622 0.0
C1192 C 0.16477 0.9404 0.11177 0.0
C1193 C 0.18353 0.8817 0.0978 0.0
C1194 C 0.14732 0.9616 0.12954 0.0
C1195 C 0.12681 0.94668 0.14927 0.0
C1196 C 0.16127 0.90427 0.11368 0.0
C1197 C 0.12198 0.91051 0.14932 0.0
C1198 C 0.21974 0.88514 0.09933 0.0
C1199 C 0.18908 0.84174 0.06256 0.0
N1200 N 0.1394 0.89028 0.13181 0.0
N1201 N 0.16917 0.85954 0.08006 0.0
H1202 H 0.4658 1.01456 0.3381 0.0
H1203 H 0.33604 0.87411 0.36864 0.0
H1204 H 0.39335 0.98621 0.27677 0.0
H1205 H 0.34665 0.95817 0.42445 0.0
H1206 H 0.35744 0.91269 0.33412 0.0
H1207 H 0.42427 0.99364 0.37068 0.0
C1208 C 0.44099 1.0047 0.3314 0.0
C1209 C 0.43362 1.00127 0.3045 0.0
C1210 C 0.3544 0.92272 0.35389 0.0
C1211 C 0.38668 0.97634 0.34172 0.0
C1212 C 0.34214 0.90076 0.37362 0.0
C1213 C 0.34056 0.9125 0.39972 0.0
C1214 C 0.36586 0.95619 0.3605 0.0
C1215 C 0.34892 0.94745 0.40485 0.0
C1216 C 0.41735 0.99265 0.35006 0.0
C1217 C 0.40089 0.98798 0.29721 0.0
N1218 N 0.36219 0.96781 0.38556 0.0
N1219 N 0.37901 0.97503 0.31568 0.0
H1220 H 0.32061 0.18287 0.58613 0.0
H1221 H 0.45662 0.04701 0.61206 0.0
H1222 H 0.3465 0.11103 0.52378 0.0
H1223 H 0.37884 0.06609 0.67173 0.0
H1224 H 0.41613 0.068 0.57893 0.0
H1225 H 0.3395 0.13987 0.61814 0.0
C1226 C 0.32945 0.15785 0.57908 0.0
C1227 C 0.33298 0.1511 0.55208 0.0
C1228 C 0.40772 0.06683 0.59924 0.0
C1229 C 0.35553 0.10229 0.58871 0.0
C1230 C 0.43081 0.05475 0.61822 0.0
C1231 C 0.42163 0.05578 0.64493 0.0
C1232 C 0.37568 0.0808 0.6071 0.0
C1233 C 0.38768 0.06627 0.65153 0.0
C1234 C 0.34031 0.13332 0.59744 0.0
C1235 C 0.34477 0.11805 0.54434 0.0
N1236 N 0.36627 0.07938 0.63283 0.0
N1237 N 0.35661 0.09523 0.56254 0.0
H1238 H 0.18142 0.23833 0.90916 0.0
H1239 H 0.16891 0.07227 0.81965 0.0
H1240 H 0.27213 0.18295 0.88236 0.0
H1241 H 0.10017 0.15844 0.80494 0.0
H1242 H 0.2014 0.10833 0.85086 0.0
H1243 H 0.14619 0.20689 0.8765 0.0
C1244 C 0.19395 0.22028 0.89585 0.0
C1245 C 0.22959 0.2133 0.89806 0.0
C1246 C 0.17897 0.11916 0.84097 0.0
C1247 C 0.18969 0.17648 0.86209 0.0
C1248 C 0.16021 0.09852 0.82358 0.0
C1249 C 0.13192 0.11256 0.81001 0.0
C1250 C 0.16894 0.15378 0.84499 0.0
C1251 C 0.12187 0.14687 0.81526 0.0
C1252 C 0.17393 0.20224 0.8775 0.0
C1253 C 0.24477 0.18928 0.88089 0.0
N1254 N 0.14041 0.16648 0.83248 0.0
N1255 N 0.22458 0.17119 0.86388 0.0
H1256 H 0.94344 0.07146 0.79181 0.0
H1257 H 0.86218 0.17411 0.91334 0.0
H1258 H 0.99046 0.06994 0.8687 0.0
H1259 H 0.84099 0.20301 0.83308 0.0
H1260 H 0.90741 0.13432 0.89777 0.0
H1261 H 0.9042 0.11763 0.80661 0.0
C1262 C 0.94576 0.081 0.81177 0.0
C1263 C 0.97052 0.06666 0.82898 0.0
C1264 C 0.89316 0.14961 0.88355 0.0
C1265 C 0.92486 0.11946 0.84628 0.0
C1266 C 0.86723 0.17241 0.89243 0.0
C1267 C 0.84763 0.19223 0.87455 0.0
C1268 C 0.89931 0.14578 0.85647 0.0
C1269 C 0.85549 0.1886 0.84766 0.0
C1270 C 0.92329 0.10747 0.8202 0.0
C1271 C 0.97206 0.08024 0.85464 0.0
N1272 N 0.88032 0.1656 0.83946 0.0
N1273 N 0.94935 0.10548 0.86256 0.0
H1274 H 0.77398 0.20826 0.63064 0.0
H1275 H 0.63098 0.06515 0.58995 0.0
H1276 H 0.75833 0.17363 0.55091 0.0
H1277 H 0.67045 0.07486 0.66891 0.0
H1278 H 0.67093 0.11123 0.57587 0.0
H1279 H 0.72982 0.16629 0.64538 0.0
C1280 C 0.76093 0.19229 0.61615 0.0
C1281 C 0.77 0.19476 0.58941 0.0
C1282 C 0.67072 0.10346 0.59632 0.0
C1283 C 0.71918 0.14636 0.60627 0.0
C1284 C 0.6477 0.07721 0.60444 0.0
C1285 C 0.64711 0.06592 0.63074 0.0
C1286 C 0.69324 0.11917 0.6146 0.0
C1287 C 0.66986 0.08253 0.64845 0.0
C1288 C 0.73587 0.16808 0.62464 0.0
C1289 C 0.75235 0.17282 0.5717 0.0
N1290 N 0.69181 0.10824 0.64011 0.0
N1291 N 0.7279 0.14978 0.58039 0.0
H1292 H 0.77315 0.85606 0.33353 0.0
H1293 H 0.62985 0.99959 0.3728 0.0
H1294 H 0.76257 0.8977 0.41182 0.0
H1295 H 0.66801 0.98671 0.29368 0.0
H1296 H 0.67003 0.95389 0.38742 0.0
H1297 H 0.72652 0.89525 0.31875 0.0
C1298 C 0.76066 0.87293 0.34772 0.0
C1299 C 0.77195 0.87345 0.374 0.0
C1300 C 0.66933 0.96083 0.36681 0.0
C1301 C 0.71835 0.91846 0.35717 0.0
C1302 C 0.64618 0.98679 0.3584 0.0
C1303 C 0.64538 0.99718 0.33192 0.0
C1304 C 0.69162 0.94456 0.3486 0.0
C1305 C 0.66764 0.97975 0.31429 0.0
C1306 C 0.7342 0.89552 0.33922 0.0
C1307 C 0.75492 0.89634 0.39136 0.0
N1308 N 0.68969 0.95442 0.3229 0.0
N1309 N 0.72911 0.91775 0.3827 0.0
H1310 H 0.99354 0.99539 0.09116 0.0
H1311 H 0.84627 0.85505 0.12797 0.0
H1312 H 0.94716 0.98928 0.16819 0.0
H1313 H 0.86229 0.89229 0.04899 0.0
H1314 H 0.89103 0.89586 0.14351 0.0
H1315 H 0.95363 0.94965 0.07601 0.0
C1316 C 0.97536 0.98414 0.10502 0.0
C1317 C 0.97387 0.99638 0.13105 0.0
C1318 C 0.88495 0.89485 0.12274 0.0
C1319 C 0.928 0.9436 0.11377 0.0
C1320 C 0.85955 0.87133 0.1138 0.0
C1321 C 0.85038 0.87001 0.08706 0.0
C1322 C 0.90195 0.91694 0.10481 0.0
C1323 C 0.86835 0.89227 0.06977 0.0
C1324 C 0.95239 0.95814 0.09628 0.0
C1325 C 0.94934 0.98085 0.14795 0.0
N1326 N 0.8932 0.9146 0.07888 0.0
N1327 N 0.92758 0.95534 0.13909 0.0
H1328 H 0.65875 0.52164 0.62219 0.0
H1329 H 0.7937 0.38951 0.59744 0.0
H1330 H 0.74019 0.51246 0.68031 0.0
H1331 H 0.76935 0.45928 0.53356 0.0
H1332 H 0.77683 0.43472 0.62853 0.0
H1333 H 0.69939 0.50217 0.58876 0.0
C1334 C 0.68533 0.51661 0.62797 0.0
C1335 C 0.6955 0.51747 0.6545 0.0
C1336 C 0.77602 0.44032 0.60767 0.0
C1337 C 0.74168 0.49382 0.61622 0.0
C1338 C 0.78568 0.41451 0.58986 0.0
C1339 C 0.7818 0.42005 0.56275 0.0
C1340 C 0.76165 0.47141 0.59829 0.0
C1341 C 0.7712 0.45319 0.55428 0.0
C1342 C 0.70854 0.50528 0.60876 0.0
C1343 C 0.73058 0.51048 0.66038 0.0
N1344 N 0.7604 0.47725 0.57197 0.0
N1345 N 0.75209 0.49765 0.64158 0.0
H1346 H 0.84798 0.45212 0.93574 0.0
H1347 H 0.966 0.51429 0.84671 0.0
H1348 H 0.83341 0.37854 0.87256 0.0
H1349 H 0.88996 0.49009 0.78693 0.0
H1350 H 0.92498 0.49503 0.8801 0.0
H1351 H 0.86988 0.49443 0.90392 0.0
C1352 C 0.84895 0.44498 0.91515 0.0
C1353 C 0.84014 0.41124 0.90692 0.0
C1354 C 0.91691 0.49492 0.85972 0.0
C1355 C 0.86448 0.45962 0.87064 0.0
C1356 C 0.94039 0.5059 0.84056 0.0
C1357 C 0.93187 0.50295 0.81383 0.0
C1358 C 0.88501 0.48038 0.85203 0.0
C1359 C 0.89823 0.49152 0.80722 0.0
C1360 C 0.86134 0.46918 0.8971 0.0
C1361 C 0.8404 0.404 0.87988 0.0
N1362 N 0.87641 0.47961 0.82615 0.0
N1363 N 0.85296 0.42788 0.8627 0.0
H1364 H 0.89079 0.57416 0.18186 0.0
H1365 H 0.85238 0.6114 0.03116 0.0
H1366 H 0.96348 0.55091 0.11946 0.0
H1367 H 0.82993 0.6846 0.09334 0.0
H1368 H 0.87368 0.57037 0.06404 0.0
H1369 H 0.84952 0.5953 0.14907 0.0
C1370 C 0.89795 0.57297 0.16129 0.0
C1371 C 0.9313 0.56202 0.1535 0.0
C1372 C 0.86325 0.59513 0.07036 0.0
C1373 C 0.88354 0.58461 0.11611 0.0
C1374 C 0.85141 0.61873 0.0517 0.0
C1375 C 0.84064 0.65215 0.05938 0.0
C1376 C 0.8634 0.60465 0.09689 0.0
C1377 C 0.83838 0.65942 0.08638 0.0
C1378 C 0.87422 0.58473 0.14268 0.0
C1379 C 0.93836 0.5595 0.12649 0.0
N1380 N 0.8502 0.63601 0.10419 0.0
N1381 N 0.91482 0.57125 0.10873 0.0
H1382 H 0.64935 0.57756 0.336 0.0
H1383 H 0.6786 0.75769 0.40615 0.0
H1384 H 0.60174 0.66877 0.30267 0.0
H1385 H 0.76111 0.68417 0.39258 0.0
H1386 H 0.64115 0.72435 0.37592 0.0
H1387 H 0.67964 0.61446 0.36779 0.0
C1388 C 0.64433 0.60524 0.33605 0.0
C1389 C 0.62317 0.62033 0.31684 0.0
C1390 C 0.66764 0.71599 0.37935 0.0
C1391 C 0.65798 0.66238 0.35251 0.0
C1392 C 0.68897 0.73505 0.39623 0.0
C1393 C 0.72294 0.72373 0.40132 0.0
C1394 C 0.68024 0.68501 0.36848 0.0
C1395 C 0.73522 0.6939 0.38868 0.0
C1396 C 0.66199 0.62624 0.35382 0.0
C1397 C 0.61794 0.65639 0.31731 0.0
N1398 N 0.71364 0.67518 0.37311 0.0
N1399 N 0.6355 0.67642 0.33484 0.0
H1400 H 0.35558 0.67314 0.42103 0.0
H1401 H 0.44741 0.58168 0.29845 0.0
H1402 H 0.34592 0.71245 0.34206 0.0
H1403 H 0.48532 0.56878 0.37755 0.0
H1404 H 0.40815 0.62738 0.31401 0.0
H1405 H 0.40079 0.63292 0.40581 0.0
C1406 C 0.36313 0.6736 0.40052 0.0
C1407 C 0.34681 0.69654 0.38288 0.0
C1408 C 0.42526 0.61484 0.32796 0.0
C1409 C 0.39845 0.64967 0.36513 0.0
C1410 C 0.44776 0.58864 0.31909 0.0
C1411 C 0.47001 0.57126 0.33664 0.0
C1412 C 0.42416 0.62352 0.3548 0.0
C1413 C 0.46898 0.58155 0.3632 0.0
C1414 C 0.38905 0.65056 0.39184 0.0
C1415 C 0.35782 0.6956 0.35649 0.0
N1416 N 0.44623 0.60659 0.37148 0.0
N1417 N 0.38253 0.67239 0.34841 0.0
H1418 H 0.16928 0.58372 0.16489 0.0
H1419 H 0.26733 0.67046 0.04325 0.0
H1420 H 0.13593 0.56781 0.0849 0.0
H1421 H 0.27503 0.71171 0.12183 0.0
H1422 H 0.22086 0.63151 0.05802 0.0
H1423 H 0.20928 0.62906 0.14976 0.0
C1424 C 0.17003 0.58998 0.14414 0.0
C1425 C 0.14889 0.57182 0.1262 0.0
C1426 C 0.23243 0.64929 0.07201 0.0
C1427 C 0.19561 0.62365 0.10858 0.0
C1428 C 0.25907 0.67161 0.06359 0.0
C1429 C 0.27527 0.69466 0.08126 0.0
C1430 C 0.22207 0.64925 0.09852 0.0
C1431 C 0.26328 0.69469 0.10741 0.0
C1432 C 0.19297 0.61597 0.13551 0.0
C1433 C 0.15135 0.5812 0.09953 0.0
N1434 N 0.23782 0.67213 0.11527 0.0
N1435 N 0.1745 0.60605 0.09153 0.0
H1436 H 0.27726 0.35204 0.83682 0.0
H1437 H 0.13413 0.49563 0.87638 0.0
H1438 H 0.26658 0.39311 0.91527 0.0
H1439 H 0.17081 0.48153 0.79698 0.0
H1440 H 0.17483 0.45043 0.89104 0.0
H1441 H 0.23087 0.39149 0.82211 0.0
C1442 C 0.26485 0.3689 0.85105 0.0
C1443 C 0.27602 0.3691 0.87737 0.0
C1444 C 0.17373 0.45701 0.87036 0.0
C1445 C 0.22261 0.41446 0.86061 0.0
C1446 C 0.15026 0.48268 0.86193 0.0
C1447 C 0.14883 0.49256 0.83535 0.0
C1448 C 0.19574 0.4405 0.85209 0.0
C1449 C 0.1709 0.47495 0.81767 0.0
C1450 C 0.23849 0.39163 0.84259 0.0
C1451 C 0.25904 0.39197 0.89479 0.0
N1452 N 0.19326 0.4499 0.82631 0.0
N1453 N 0.23332 0.41354 0.88615 0.0
H1454 H 0.35416 0.39202 0.5399 0.0
H1455 H 0.4466 0.48346 0.66197 0.0
H1456 H 0.34354 0.3536 0.61908 0.0
H1457 H 0.48562 0.49479 0.58299 0.0
H1458 H 0.40689 0.43804 0.64661 0.0
H1459 H 0.40017 0.43151 0.5549 0.0
C1460 C 0.3617 0.39157 0.56041 0.0
C1461 C 0.34484 0.36914 0.57818 0.0
C1462 C 0.42434 0.45016 0.63263 0.0
C1463 C 0.39738 0.41519 0.59566 0.0
C1464 C 0.44709 0.47621 0.6414 0.0
C1465 C 0.46979 0.49306 0.62382 0.0
C1466 C 0.42342 0.44111 0.60587 0.0
C1467 C 0.46894 0.48241 0.59735 0.0
C1468 C 0.38806 0.4142 0.56895 0.0
C1469 C 0.35584 0.37007 0.60456 0.0
N1470 N 0.44592 0.45753 0.58916 0.0
N1471 N 0.38098 0.39291 0.6125 0.0
loop_
_geom_bond_atom_site_label_1
_geom_bond_atom_site_label_2
_geom_bond_distance
_geom_bond_site_symmetry_2
_ccdc_geom_bond_type
O0 Tb1 2.292 1_455 S
O0 C3 1.255 . S
Tb1 O0 2.292 1_655 S
Tb1 O17 2.326 . S
Tb1 O19 2.500 . S
Tb1 O20 2.473 . S
Tb1 O23 2.324 . S
Eu2 O6 2.292 . S
Eu2 C7 2.852 1_645 S
Eu2 O18 2.324 . S
Eu2 O22 2.326 . S
Eu2 O24 2.500 1_645 S
Eu2 O25 2.473 1_655 S
C3 O0 1.255 . S
C3 O4 1.247 . S
O4 C3 1.247 . S
C5 O17 1.242 . S
C5 O18 1.258 . S
O6 Eu2 2.292 . S
O6 C8 1.255 . S
C7 Eu2 2.852 1_465 S
C7 C11 1.503 . S
C7 O24 1.273 . S
C7 O25 1.257 1_565 S
C8 O6 1.255 . S
C8 O9 1.247 . S
O9 C8 1.247 . S
C10 O22 1.242 1_565 S
C10 O23 1.258 1_565 S
C11 C7 1.503 . S
C11 C12 1.379 . S
C11 C16 1.392 . S
C12 C11 1.379 . S
C12 C13 1.404 . S
C12 H26 0.929 . S
C13 C12 1.404 . S
C13 C14 1.389 . S
C14 C13 1.389 . S
C14 C15 1.399 . S
C14 H27 0.931 . S
C15 C14 1.399 . S
C15 C16 1.390 . S
C16 C11 1.392 . S
C16 C15 1.390 . S
C16 H28 0.929 . S
O17 Tb1 2.326 . S
O17 C5 1.242 . S
O18 Eu2 2.324 . S
O18 C5 1.258 . S
O19 Tb1 2.500 . S
O19 C21 1.273 . S
O20 Tb1 2.473 . S
O20 C21 1.257 . S
C21 O19 1.273 . S
C21 O20 1.257 . S
O22 Eu2 2.326 . S
O22 C10 1.242 1_545 S
O23 Tb1 2.324 . S
O23 C10 1.258 1_545 S
O24 Eu2 2.500 1_465 S
O24 C7 1.273 . S
O25 Eu2 2.473 1_455 S
O25 C7 1.257 1_545 S
H26 C12 0.929 . S
H27 C14 0.931 . S
H28 C16 0.929 . S
O29 Tb30 2.292 . S
O29 C32 1.255 . S
Tb30 O29 2.292 . S
Tb30 O46 2.326 . S
Tb30 O48 2.500 . S
Tb30 O49 2.473 . S
Tb30 O52 2.324 . S
Eu31 O35 2.292 . S
Eu31 C36 2.852 . S
Eu31 O47 2.324 . S
Eu31 O51 2.326 . S
Eu31 O53 2.500 . S
Eu31 O54 2.473 . S
C32 O29 1.255 . S
C32 O33 1.247 . S
O33 C32 1.247 . S
C34 O46 1.242 . S
C34 O47 1.258 . S
O35 Eu31 2.292 . S
O35 C37 1.255 . S
C36 Eu31 2.852 . S
C36 C40 1.503 . S
C36 O53 1.273 . S
C36 O54 1.257 . S
C37 O35 1.255 . S
C37 O38 1.247 . S
O38 C37 1.247 . S
C39 O51 1.242 . S
C39 O52 1.258 . S
C40 C36 1.503 . S
C40 C41 1.379 . S
C40 C45 1.392 . S
C41 C40 1.379 . S
C41 C42 1.404 . S
C41 H55 0.929 . S
C42 C41 1.404 . S
C42 C43 1.389 . S
C43 C42 1.389 . S
C43 C44 1.399 . S
C43 H56 0.931 . S
C44 C43 1.399 . S
C44 C45 1.390 . S
C45 C40 1.392 . S
C45 C44 1.390 . S
C45 H57 0.929 . S
O46 Tb30 2.326 . S
O46 C34 1.242 . S
O47 Eu31 2.324 . S
O47 C34 1.258 . S
O48 Tb30 2.500 . S
O48 C50 1.273 . S
O49 Tb30 2.473 . S
O49 C50 1.257 . S
C50 O48 1.273 . S
C50 O49 1.257 . S
O51 Eu31 2.326 . S
O51 C39 1.242 . S
O52 Tb30 2.324 . S
O52 C39 1.258 . S
O53 Eu31 2.500 . S
O53 C36 1.273 . S
O54 Eu31 2.473 . S
O54 C36 1.257 . S
H55 C41 0.929 . S
H56 C43 0.931 . S
H57 C45 0.929 . S
O58 Tb59 2.292 . S
O58 C61 1.255 . S
Tb59 O58 2.292 . S
Tb59 O75 2.326 . S
Tb59 O77 2.500 . S
Tb59 O78 2.473 . S
Tb59 O81 2.324 . S
Eu60 O64 2.292 . S
Eu60 C65 2.852 1_565 S
Eu60 O76 2.324 . S
Eu60 O80 2.326 . S
Eu60 O82 2.500 1_565 S
Eu60 O83 2.473 . S
C61 O58 1.255 . S
C61 O62 1.247 . S
O62 C61 1.247 . S
C63 O75 1.242 . S
C63 O76 1.258 . S
O64 Eu60 2.292 . S
O64 C66 1.255 . S
C65 Eu60 2.852 1_545 S
C65 C69 1.503 . S
C65 O82 1.273 . S
C65 O83 1.257 1_545 S
C66 O64 1.255 . S
C66 O67 1.247 . S
O67 C66 1.247 . S
C68 O80 1.242 1_545 S
C68 O81 1.258 1_545 S
C69 C65 1.503 . S
C69 C70 1.379 . S
C69 C74 1.392 . S
C70 C69 1.379 . S
C70 C71 1.404 . S
C70 H84 0.929 . S
C71 C70 1.404 . S
C71 C72 1.389 . S
C72 C71 1.389 . S
C72 C73 1.399 . S
C72 H85 0.931 . S
C73 C72 1.399 . S
C73 C74 1.390 . S
C74 C69 1.392 . S
C74 C73 1.390 . S
C74 H86 0.929 . S
O75 Tb59 2.326 . S
O75 C63 1.242 . S
O76 Eu60 2.324 . S
O76 C63 1.258 . S
O77 Tb59 2.500 . S
O77 C79 1.273 . S
O78 Tb59 2.473 . S
O78 C79 1.257 . S
C79 O77 1.273 . S
C79 O78 1.257 . S
O80 Eu60 2.326 . S
O80 C68 1.242 1_565 S
O81 Tb59 2.324 . S
O81 C68 1.258 1_565 S
O82 Eu60 2.500 1_545 S
O82 C65 1.273 . S
O83 Eu60 2.473 . S
O83 C65 1.257 1_565 S
H84 C70 0.929 . S
H85 C72 0.931 . S
H86 C74 0.929 . S
O87 Tb88 2.292 . S
O87 C90 1.255 . S
Tb88 O87 2.292 . S
Tb88 O104 2.326 . S
Tb88 O106 2.500 . S
Tb88 O107 2.473 . S
Tb88 O110 2.324 . S
Eu89 O93 2.292 . S
Eu89 C94 2.852 . S
Eu89 O105 2.324 . S
Eu89 O109 2.326 . S
Eu89 O111 2.500 . S
Eu89 O112 2.473 . S
C90 O87 1.255 . S
C90 O91 1.247 . S
O91 C90 1.247 . S
C92 O104 1.242 . S
C92 O105 1.258 . S
O93 Eu89 2.292 . S
O93 C95 1.255 . S
C94 Eu89 2.852 . S
C94 C98 1.503 . S
C94 O111 1.273 . S
C94 O112 1.257 . S
C95 O93 1.255 . S
C95 O96 1.247 . S
O96 C95 1.247 . S
C97 O109 1.242 . S
C97 O110 1.258 . S
C98 C94 1.503 . S
C98 C99 1.379 . S
C98 C103 1.392 . S
C99 C98 1.379 . S
C99 C100 1.404 . S
C99 H113 0.929 . S
C100 C99 1.404 . S
C100 C101 1.389 . S
C101 C100 1.389 . S
C101 C102 1.399 . S
C101 H114 0.931 . S
C102 C101 1.399 . S
C102 C103 1.390 . S
C103 C98 1.392 . S
C103 C102 1.390 . S
C103 H115 0.929 . S
O104 Tb88 2.326 . S
O104 C92 1.242 . S
O105 Eu89 2.324 . S
O105 C92 1.258 . S
O106 Tb88 2.500 . S
O106 C108 1.273 . S
O107 Tb88 2.473 . S
O107 C108 1.257 . S
C108 O106 1.273 . S
C108 O107 1.257 . S
O109 Eu89 2.326 . S
O109 C97 1.242 . S
O110 Tb88 2.324 . S
O110 C97 1.258 . S
O111 Eu89 2.500 . S
O111 C94 1.273 . S
O112 Eu89 2.473 . S
O112 C94 1.257 . S
H113 C99 0.929 . S
H114 C101 0.931 . S
H115 C103 0.929 . S
O116 Tb117 2.292 1_455 S
O116 C119 1.255 . S
Tb117 O116 2.292 1_655 S
Tb117 O133 2.326 . S
Tb117 O135 2.500 . S
Tb117 O136 2.473 . S
Tb117 O139 2.324 . S
Eu118 O122 2.292 . S
Eu118 C123 2.852 1_665 S
Eu118 O134 2.324 . S
Eu118 O138 2.326 . S
Eu118 O140 2.500 1_665 S
Eu118 O141 2.473 1_655 S
C119 O116 1.255 . S
C119 O120 1.247 . S
O120 C119 1.247 . S
C121 O133 1.242 . S
C121 O134 1.258 . S
O122 Eu118 2.292 . S
O122 C124 1.255 . S
C123 Eu118 2.852 1_445 S
C123 C127 1.503 . S
C123 O140 1.273 . S
C123 O141 1.257 1_545 S
C124 O122 1.255 . S
C124 O125 1.247 . S
O125 C124 1.247 . S
C126 O138 1.242 1_545 S
C126 O139 1.258 1_545 S
C127 C123 1.503 . S
C127 C128 1.379 . S
C127 C132 1.392 . S
C128 C127 1.379 . S
C128 C129 1.404 . S
C128 H142 0.929 . S
C129 C128 1.404 . S
C129 C130 1.389 . S
C130 C129 1.389 . S
C130 C131 1.399 . S
C130 H143 0.931 . S
C131 C130 1.399 . S
C131 C132 1.390 . S
C132 C127 1.392 . S
C132 C131 1.390 . S
C132 H144 0.929 . S
O133 Tb117 2.326 . S
O133 C121 1.242 . S
O134 Eu118 2.324 . S
O134 C121 1.258 . S
O135 Tb117 2.500 . S
O135 C137 1.273 . S
O136 Tb117 2.473 . S
O136 C137 1.257 . S
C137 O135 1.273 . S
C137 O136 1.257 . S
O138 Eu118 2.326 . S
O138 C126 1.242 1_565 S
O139 Tb117 2.324 . S
O139 C126 1.258 1_565 S
O140 Eu118 2.500 1_445 S
O140 C123 1.273 . S
O141 Eu118 2.473 1_455 S
O141 C123 1.257 1_565 S
H142 C128 0.929 . S
H143 C130 0.931 . S
H144 C132 0.929 . S
O145 Tb146 2.292 . S
O145 C148 1.255 . S
Tb146 O145 2.292 . S
Tb146 O162 2.326 . S
Tb146 O164 2.500 . S
Tb146 O165 2.473 . S
Tb146 O168 2.324 . S
Eu147 O151 2.292 . S
Eu147 C152 2.852 . S
Eu147 O163 2.324 . S
Eu147 O167 2.326 . S
Eu147 O169 2.500 . S
Eu147 O170 2.473 . S
C148 O145 1.255 . S
C148 O149 1.247 . S
O149 C148 1.247 . S
C150 O162 1.242 . S
C150 O163 1.258 . S
O151 Eu147 2.292 . S
O151 C153 1.255 . S
C152 Eu147 2.852 . S
C152 C156 1.503 . S
C152 O169 1.273 . S
C152 O170 1.257 . S
C153 O151 1.255 . S
C153 O154 1.247 . S
O154 C153 1.247 . S
C155 O167 1.242 . S
C155 O168 1.258 . S
C156 C152 1.503 . S
C156 C157 1.379 . S
C156 C161 1.392 . S
C157 C156 1.379 . S
C157 C158 1.404 . S
C157 H171 0.929 . S
C158 C157 1.404 . S
C158 C159 1.389 . S
C159 C158 1.389 . S
C159 C160 1.399 . S
C159 H172 0.931 . S
C160 C159 1.399 . S
C160 C161 1.390 . S
C161 C156 1.392 . S
C161 C160 1.390 . S
C161 H173 0.929 . S
O162 Tb146 2.326 . S
O162 C150 1.242 . S
O163 Eu147 2.324 . S
O163 C150 1.258 . S
O164 Tb146 2.500 . S
O164 C166 1.273 . S
O165 Tb146 2.473 . S
O165 C166 1.257 . S
C166 O164 1.273 . S
C166 O165 1.257 . S
O167 Eu147 2.326 . S
O167 C155 1.242 . S
O168 Tb146 2.324 . S
O168 C155 1.258 . S
O169 Eu147 2.500 . S
O169 C152 1.273 . S
O170 Eu147 2.473 . S
O170 C152 1.257 . S
H171 C157 0.929 . S
H172 C159 0.931 . S
H173 C161 0.929 . S
O174 Tb175 2.292 . S
O174 C177 1.255 . S
Tb175 O174 2.292 . S
Tb175 O191 2.326 . S
Tb175 O193 2.500 . S
Tb175 O194 2.473 . S
Tb175 O197 2.324 . S
Eu176 O180 2.292 . S
Eu176 C181 2.852 1_545 S
Eu176 O192 2.324 . S
Eu176 O196 2.326 . S
Eu176 O198 2.500 1_545 S
Eu176 O199 2.473 . S
C177 O174 1.255 . S
C177 O178 1.247 . S
O178 C177 1.247 . S
C179 O191 1.242 . S
C179 O192 1.258 . S
O180 Eu176 2.292 . S
O180 C182 1.255 . S
C181 Eu176 2.852 1_565 S
C181 C185 1.503 . S
C181 O198 1.273 . S
C181 O199 1.257 1_565 S
C182 O180 1.255 . S
C182 O183 1.247 . S
O183 C182 1.247 . S
C184 O196 1.242 1_565 S
C184 O197 1.258 1_565 S
C185 C181 1.503 . S
C185 C186 1.379 . S
C185 C190 1.392 . S
C186 C185 1.379 . S
C186 C187 1.404 . S
C186 H200 0.929 . S
C187 C186 1.404 . S
C187 C188 1.389 . S
C188 C187 1.389 . S
C188 C189 1.399 . S
C188 H201 0.931 . S
C189 C188 1.399 . S
C189 C190 1.390 . S
C190 C185 1.392 . S
C190 C189 1.390 . S
C190 H202 0.929 . S
O191 Tb175 2.326 . S
O191 C179 1.242 . S
O192 Eu176 2.324 . S
O192 C179 1.258 . S
O193 Tb175 2.500 . S
O193 C195 1.273 . S
O194 Tb175 2.473 . S
O194 C195 1.257 . S
C195 O193 1.273 . S
C195 O194 1.257 . S
O196 Eu176 2.326 . S
O196 C184 1.242 1_545 S
O197 Tb175 2.324 . S
O197 C184 1.258 1_545 S
O198 Eu176 2.500 1_565 S
O198 C181 1.273 . S
O199 Eu176 2.473 . S
O199 C181 1.257 1_545 S
H200 C186 0.929 . S
H201 C188 0.931 . S
H202 C190 0.929 . S
O203 Tb204 2.292 . S
O203 C206 1.255 . S
Tb204 O203 2.292 . S
Tb204 O220 2.326 . S
Tb204 O222 2.500 . S
Tb204 O223 2.473 . S
Tb204 O226 2.324 . S
Eu205 O209 2.292 . S
Eu205 C210 2.852 . S
Eu205 O221 2.324 . S
Eu205 O225 2.326 . S
Eu205 O227 2.500 . S
Eu205 O228 2.473 . S
C206 O203 1.255 . S
C206 O207 1.247 . S
O207 C206 1.247 . S
C208 O220 1.242 . S
C208 O221 1.258 . S
O209 Eu205 2.292 . S
O209 C211 1.255 . S
C210 Eu205 2.852 . S
C210 C214 1.503 . S
C210 O227 1.273 . S
C210 O228 1.257 . S
C211 O209 1.255 . S
C211 O212 1.247 . S
O212 C211 1.247 . S
C213 O225 1.242 . S
C213 O226 1.258 . S
C214 C210 1.503 . S
C214 C215 1.379 . S
C214 C219 1.392 . S
C215 C214 1.379 . S
C215 C216 1.404 . S
C215 H229 0.929 . S
C216 C215 1.404 . S
C216 C217 1.389 . S
C217 C216 1.389 . S
C217 C218 1.399 . S
C217 H230 0.931 . S
C218 C217 1.399 . S
C218 C219 1.390 . S
C219 C214 1.392 . S
C219 C218 1.390 . S
C219 H231 0.929 . S
O220 Tb204 2.326 . S
O220 C208 1.242 . S
O221 Eu205 2.324 . S
O221 C208 1.258 . S
O222 Tb204 2.500 . S
O222 C224 1.273 . S
O223 Tb204 2.473 . S
O223 C224 1.257 . S
C224 O222 1.273 . S
C224 O223 1.257 . S
O225 Eu205 2.326 . S
O225 C213 1.242 . S
O226 Tb204 2.324 . S
O226 C213 1.258 . S
O227 Eu205 2.500 . S
O227 C210 1.273 . S
O228 Eu205 2.473 . S
O228 C210 1.257 . S
H229 C215 0.929 . S
H230 C217 0.931 . S
H231 C219 0.929 . S
O232 Tb233 2.292 . S
O232 C235 1.255 . S
Tb233 O232 2.292 . S
Tb233 O249 2.326 . S
Tb233 O251 2.500 . S
Tb233 O252 2.473 . S
Tb233 O255 2.324 . S
Eu234 O238 2.292 . S
Eu234 C239 2.852 . S
Eu234 O250 2.324 . S
Eu234 O254 2.326 . S
Eu234 O256 2.500 . S
Eu234 O257 2.473 . S
C235 O232 1.255 . S
C235 O236 1.247 . S
O236 C235 1.247 . S
C237 O249 1.242 . S
C237 O250 1.258 . S
O238 Eu234 2.292 . S
O238 C240 1.255 . S
C239 Eu234 2.852 . S
C239 C243 1.503 . S
C239 O256 1.273 . S
C239 O257 1.257 . S
C240 O238 1.255 . S
C240 O241 1.247 . S
O241 C240 1.247 . S
C242 O254 1.242 . S
C242 O255 1.258 . S
C243 C239 1.503 . S
C243 C244 1.379 . S
C243 C248 1.392 . S
C244 C243 1.379 . S
C244 C245 1.404 . S
C244 H258 0.929 . S
C245 C244 1.404 . S
C245 C246 1.389 . S
C246 C245 1.389 . S
C246 C247 1.399 . S
C246 H259 0.931 . S
C247 C246 1.399 . S
C247 C248 1.390 . S
C248 C243 1.392 . S
C248 C247 1.390 . S
C248 H260 0.929 . S
O249 Tb233 2.326 . S
O249 C237 1.242 . S
O250 Eu234 2.324 . S
O250 C237 1.258 . S
O251 Tb233 2.500 . S
O251 C253 1.273 . S
O252 Tb233 2.473 . S
O252 C253 1.257 . S
C253 O251 1.273 . S
C253 O252 1.257 . S
O254 Eu234 2.326 . S
O254 C242 1.242 . S
O255 Tb233 2.324 . S
O255 C242 1.258 . S
O256 Eu234 2.500 . S
O256 C239 1.273 . S
O257 Eu234 2.473 . S
O257 C239 1.257 . S
H258 C244 0.929 . S
H259 C246 0.931 . S
H260 C248 0.929 . S
O261 Tb262 2.292 . S
O261 C264 1.255 . S
Tb262 O261 2.292 . S
Tb262 O278 2.326 . S
Tb262 O280 2.500 . S
Tb262 O281 2.473 . S
Tb262 O284 2.324 . S
Eu263 O267 2.292 . S
Eu263 C268 2.852 . S
Eu263 O279 2.324 . S
Eu263 O283 2.326 . S
Eu263 O285 2.500 . S
Eu263 O286 2.473 . S
C264 O261 1.255 . S
C264 O265 1.247 . S
O265 C264 1.247 . S
C266 O278 1.242 . S
C266 O279 1.258 . S
O267 Eu263 2.292 . S
O267 C269 1.255 . S
C268 Eu263 2.852 . S
C268 C272 1.503 . S
C268 O285 1.273 . S
C268 O286 1.257 . S
C269 O267 1.255 . S
C269 O270 1.247 . S
O270 C269 1.247 . S
C271 O283 1.242 . S
C271 O284 1.258 . S
C272 C268 1.503 . S
C272 C273 1.379 . S
C272 C277 1.392 . S
C273 C272 1.379 . S
C273 C274 1.404 . S
C273 H287 0.929 . S
C274 C273 1.404 . S
C274 C275 1.389 . S
C275 C274 1.389 . S
C275 C276 1.399 . S
C275 H288 0.931 . S
C276 C275 1.399 . S
C276 C277 1.390 . S
C277 C272 1.392 . S
C277 C276 1.390 . S
C277 H289 0.929 . S
O278 Tb262 2.326 . S
O278 C266 1.242 . S
O279 Eu263 2.324 . S
O279 C266 1.258 . S
O280 Tb262 2.500 . S
O280 C282 1.273 . S
O281 Tb262 2.473 . S
O281 C282 1.257 . S
C282 O280 1.273 . S
C282 O281 1.257 . S
O283 Eu263 2.326 . S
O283 C271 1.242 . S
O284 Tb262 2.324 . S
O284 C271 1.258 . S
O285 Eu263 2.500 . S
O285 C268 1.273 . S
O286 Eu263 2.473 . S
O286 C268 1.257 . S
H287 C273 0.929 . S
H288 C275 0.931 . S
H289 C277 0.929 . S
O290 Tb291 2.292 . S
O290 C293 1.255 . S
Tb291 O290 2.292 . S
Tb291 O307 2.326 . S
Tb291 O309 2.500 . S
Tb291 O310 2.473 . S
Tb291 O313 2.324 . S
Eu292 O296 2.292 . S
Eu292 C297 2.852 . S
Eu292 O308 2.324 . S
Eu292 O312 2.326 . S
Eu292 O314 2.500 . S
Eu292 O315 2.473 . S
C293 O290 1.255 . S
C293 O294 1.247 . S
O294 C293 1.247 . S
C295 O307 1.242 . S
C295 O308 1.258 . S
O296 Eu292 2.292 . S
O296 C298 1.255 . S
C297 Eu292 2.852 . S
C297 C301 1.503 . S
C297 O314 1.273 . S
C297 O315 1.257 . S
C298 O296 1.255 . S
C298 O299 1.247 . S
O299 C298 1.247 . S
C300 O312 1.242 . S
C300 O313 1.258 . S
C301 C297 1.503 . S
C301 C302 1.379 . S
C301 C306 1.392 . S
C302 C301 1.379 . S
C302 C303 1.404 . S
C302 H316 0.929 . S
C303 C302 1.404 . S
C303 C304 1.389 . S
C304 C303 1.389 . S
C304 C305 1.399 . S
C304 H317 0.931 . S
C305 C304 1.399 . S
C305 C306 1.390 . S
C306 C301 1.392 . S
C306 C305 1.390 . S
C306 H318 0.929 . S
O307 Tb291 2.326 . S
O307 C295 1.242 . S
O308 Eu292 2.324 . S
O308 C295 1.258 . S
O309 Tb291 2.500 . S
O309 C311 1.273 . S
O310 Tb291 2.473 . S
O310 C311 1.257 . S
C311 O309 1.273 . S
C311 O310 1.257 . S
O312 Eu292 2.326 . S
O312 C300 1.242 . S
O313 Tb291 2.324 . S
O313 C300 1.258 . S
O314 Eu292 2.500 . S
O314 C297 1.273 . S
O315 Eu292 2.473 . S
O315 C297 1.257 . S
H316 C302 0.929 . S
H317 C304 0.931 . S
H318 C306 0.929 . S
O319 Tb320 2.292 . S
O319 C322 1.255 . S
Tb320 O319 2.292 . S
Tb320 O336 2.326 . S
Tb320 O338 2.500 . S
Tb320 O339 2.473 . S
Tb320 O342 2.324 . S
Eu321 O325 2.292 . S
Eu321 C326 2.852 . S
Eu321 O337 2.324 . S
Eu321 O341 2.326 . S
Eu321 O343 2.500 . S
Eu321 O344 2.473 . S
C322 O319 1.255 . S
C322 O323 1.247 . S
O323 C322 1.247 . S
C324 O336 1.242 . S
C324 O337 1.258 . S
O325 Eu321 2.292 . S
O325 C327 1.255 . S
C326 Eu321 2.852 . S
C326 C330 1.503 . S
C326 O343 1.273 . S
C326 O344 1.257 . S
C327 O325 1.255 . S
C327 O328 1.247 . S
O328 C327 1.247 . S
C329 O341 1.242 . S
C329 O342 1.258 . S
C330 C326 1.503 . S
C330 C331 1.379 . S
C330 C335 1.392 . S
C331 C330 1.379 . S
C331 C332 1.404 . S
C331 H345 0.929 . S
C332 C331 1.404 . S
C332 C333 1.389 . S
C333 C332 1.389 . S
C333 C334 1.399 . S
C333 H346 0.931 . S
C334 C333 1.399 . S
C334 C335 1.390 . S
C335 C330 1.392 . S
C335 C334 1.390 . S
C335 H347 0.929 . S
O336 Tb320 2.326 . S
O336 C324 1.242 . S
O337 Eu321 2.324 . S
O337 C324 1.258 . S
O338 Tb320 2.500 . S
O338 C340 1.273 . S
O339 Tb320 2.473 . S
O339 C340 1.257 . S
C340 O338 1.273 . S
C340 O339 1.257 . S
O341 Eu321 2.326 . S
O341 C329 1.242 . S
O342 Tb320 2.324 . S
O342 C329 1.258 . S
O343 Eu321 2.500 . S
O343 C326 1.273 . S
O344 Eu321 2.473 . S
O344 C326 1.257 . S
H345 C331 0.929 . S
H346 C333 0.931 . S
H347 C335 0.929 . S
O348 Tb349 2.292 . S
O348 C351 1.255 . S
Tb349 O348 2.292 . S
Tb349 O365 2.326 . S
Tb349 O367 2.500 . S
Tb349 O368 2.473 . S
Tb349 O371 2.324 . S
Eu350 O354 2.292 . S
Eu350 C355 2.852 . S
Eu350 O366 2.324 . S
Eu350 O370 2.326 . S
Eu350 O372 2.500 . S
Eu350 O373 2.473 . S
C351 O348 1.255 . S
C351 O352 1.247 . S
O352 C351 1.247 . S
C353 O365 1.242 . S
C353 O366 1.258 . S
O354 Eu350 2.292 . S
O354 C356 1.255 . S
C355 Eu350 2.852 . S
C355 C359 1.503 . S
C355 O372 1.273 . S
C355 O373 1.257 . S
C356 O354 1.255 . S
C356 O357 1.247 . S
O357 C356 1.247 . S
C358 O370 1.242 . S
C358 O371 1.258 . S
C359 C355 1.503 . S
C359 C360 1.379 . S
C359 C364 1.392 . S
C360 C359 1.379 . S
C360 C361 1.404 . S
C360 H374 0.929 . S
C361 C360 1.404 . S
C361 C362 1.389 . S
C362 C361 1.389 . S
C362 C363 1.399 . S
C362 H375 0.931 . S
C363 C362 1.399 . S
C363 C364 1.390 . S
C364 C359 1.392 . S
C364 C363 1.390 . S
C364 H376 0.929 . S
O365 Tb349 2.326 . S
O365 C353 1.242 . S
O366 Eu350 2.324 . S
O366 C353 1.258 . S
O367 Tb349 2.500 . S
O367 C369 1.273 . S
O368 Tb349 2.473 . S
O368 C369 1.257 . S
C369 O367 1.273 . S
C369 O368 1.257 . S
O370 Eu350 2.326 . S
O370 C358 1.242 . S
O371 Tb349 2.324 . S
O371 C358 1.258 . S
O372 Eu350 2.500 . S
O372 C355 1.273 . S
O373 Eu350 2.473 . S
O373 C355 1.257 . S
H374 C360 0.929 . S
H375 C362 0.931 . S
H376 C364 0.929 . S
O377 Tb378 2.292 . S
O377 C380 1.255 1_455 S
Tb378 O377 2.292 . S
Tb378 O394 2.326 . S
Tb378 O396 2.500 . S
Tb378 O397 2.473 . S
Tb378 O400 2.324 . S
Eu379 O383 2.292 . S
Eu379 C384 2.852 . S
Eu379 O395 2.324 . S
Eu379 O399 2.326 . S
Eu379 O401 2.500 . S
Eu379 O402 2.473 . S
C380 O377 1.255 1_655 S
C380 O381 1.247 . S
O381 C380 1.247 . S
C382 O394 1.242 . S
C382 O395 1.258 . S
O383 Eu379 2.292 . S
O383 C385 1.255 . S
C384 Eu379 2.852 . S
C384 C388 1.503 1_455 S
C384 O401 1.273 . S
C384 O402 1.257 . S
C385 O383 1.255 . S
C385 O386 1.247 . S
O386 C385 1.247 . S
C387 O399 1.242 . S
C387 O400 1.258 . S
C388 C384 1.503 1_655 S
C388 C389 1.379 . S
C388 C393 1.392 . S
C389 C388 1.379 . S
C389 C390 1.404 . S
C389 H403 0.929 . S
C390 C389 1.404 . S
C390 C391 1.389 . S
C391 C390 1.389 . S
C391 C392 1.399 . S
C391 H404 0.931 . S
C392 C391 1.399 . S
C392 C393 1.390 . S
C393 C388 1.392 . S
C393 C392 1.390 . S
C393 H405 0.929 1_655 S
O394 Tb378 2.326 . S
O394 C382 1.242 . S
O395 Eu379 2.324 . S
O395 C382 1.258 . S
O396 Tb378 2.500 . S
O396 C398 1.273 . S
O397 Tb378 2.473 . S
O397 C398 1.257 . S
C398 O396 1.273 . S
C398 O397 1.257 . S
O399 Eu379 2.326 . S
O399 C387 1.242 . S
O400 Tb378 2.324 . S
O400 C387 1.258 . S
O401 Eu379 2.500 . S
O401 C384 1.273 . S
O402 Eu379 2.473 . S
O402 C384 1.257 . S
H403 C389 0.929 . S
H404 C391 0.931 . S
H405 C393 0.929 1_455 S
O406 Tb407 2.292 . S
O406 C409 1.255 . S
Tb407 O406 2.292 . S
Tb407 O423 2.326 . S
Tb407 O425 2.500 . S
Tb407 O426 2.473 . S
Tb407 O429 2.324 . S
Eu408 O412 2.292 . S
Eu408 C413 2.852 . S
Eu408 O424 2.324 . S
Eu408 O428 2.326 . S
Eu408 O430 2.500 . S
Eu408 O431 2.473 . S
C409 O406 1.255 . S
C409 O410 1.247 . S
O410 C409 1.247 . S
C411 O423 1.242 . S
C411 O424 1.258 . S
O412 Eu408 2.292 . S
O412 C414 1.255 . S
C413 Eu408 2.852 . S
C413 C417 1.503 . S
C413 O430 1.273 . S
C413 O431 1.257 . S
C414 O412 1.255 . S
C414 O415 1.247 . S
O415 C414 1.247 . S
C416 O428 1.242 . S
C416 O429 1.258 . S
C417 C413 1.503 . S
C417 C418 1.379 . S
C417 C422 1.392 . S
C418 C417 1.379 . S
C418 C419 1.404 . S
C418 H432 0.929 . S
C419 C418 1.404 . S
C419 C420 1.389 . S
C420 C419 1.389 . S
C420 C421 1.399 . S
C420 H433 0.931 . S
C421 C420 1.399 . S
C421 C422 1.390 . S
C422 C417 1.392 . S
C422 C421 1.390 . S
C422 H434 0.929 . S
O423 Tb407 2.326 . S
O423 C411 1.242 . S
O424 Eu408 2.324 . S
O424 C411 1.258 . S
O425 Tb407 2.500 . S
O425 C427 1.273 . S
O426 Tb407 2.473 . S
O426 C427 1.257 . S
C427 O425 1.273 . S
C427 O426 1.257 . S
O428 Eu408 2.326 . S
O428 C416 1.242 . S
O429 Tb407 2.324 . S
O429 C416 1.258 . S
O430 Eu408 2.500 . S
O430 C413 1.273 . S
O431 Eu408 2.473 . S
O431 C413 1.257 . S
H432 C418 0.929 . S
H433 C420 0.931 . S
H434 C422 0.929 . S
O435 Tb436 2.292 . S
O435 C438 1.255 1_455 S
Tb436 O435 2.292 . S
Tb436 O452 2.326 . S
Tb436 O454 2.500 . S
Tb436 O455 2.473 . S
Tb436 O458 2.324 . S
Eu437 O441 2.292 . S
Eu437 C442 2.852 . S
Eu437 O453 2.324 . S
Eu437 O457 2.326 . S
Eu437 O459 2.500 . S
Eu437 O460 2.473 . S
C438 O435 1.255 1_655 S
C438 O439 1.247 . S
O439 C438 1.247 . S
C440 O452 1.242 . S
C440 O453 1.258 . S
O441 Eu437 2.292 . S
O441 C443 1.255 . S
C442 Eu437 2.852 . S
C442 C446 1.503 1_455 S
C442 O459 1.273 . S
C442 O460 1.257 . S
C443 O441 1.255 . S
C443 O444 1.247 . S
O444 C443 1.247 . S
C445 O457 1.242 . S
C445 O458 1.258 . S
C446 C442 1.503 1_655 S
C446 C447 1.379 . S
C446 C451 1.392 . S
C447 C446 1.379 . S
C447 C448 1.404 . S
C447 H461 0.929 . S
C448 C447 1.404 . S
C448 C449 1.389 . S
C449 C448 1.389 . S
C449 C450 1.399 . S
C449 H462 0.931 . S
C450 C449 1.399 . S
C450 C451 1.390 . S
C451 C446 1.392 . S
C451 C450 1.390 . S
C451 H463 0.929 1_655 S
O452 Tb436 2.326 . S
O452 C440 1.242 . S
O453 Eu437 2.324 . S
O453 C440 1.258 . S
O454 Tb436 2.500 . S
O454 C456 1.273 . S
O455 Tb436 2.473 . S
O455 C456 1.257 . S
C456 O454 1.273 . S
C456 O455 1.257 . S
O457 Eu437 2.326 . S
O457 C445 1.242 . S
O458 Tb436 2.324 . S
O458 C445 1.258 . S
O459 Eu437 2.500 . S
O459 C442 1.273 . S
O460 Eu437 2.473 . S
O460 C442 1.257 . S
H461 C447 0.929 . S
H462 C449 0.931 . S
H463 C451 0.929 1_455 S
H464 C470 0.930 . S
H465 C474 0.930 . S
H466 C479 0.929 . S
H467 C477 0.929 1_655 S
H468 C472 0.929 . S
H469 C478 0.929 . S
C470 H464 0.930 . S
C470 C471 1.367 1_655 S
C470 C478 1.378 . S
C471 C470 1.367 1_455 S
C471 C479 1.433 . S
C472 H468 0.929 . S
C472 C474 1.378 . S
C472 C476 1.350 . S
C473 C476 1.463 . S
C473 C478 1.350 1_455 S
C473 N481 1.427 . S
C474 H465 0.930 . S
C474 C472 1.378 . S
C474 C475 1.367 . S
C475 C474 1.367 . S
C475 C477 1.433 . S
C476 C472 1.350 . S
C476 C473 1.463 . S
C476 N480 1.427 . S
C477 H467 0.929 1_455 S
C477 C475 1.433 . S
C477 N480 1.384 . S
C478 H469 0.929 . S
C478 C470 1.378 . S
C478 C473 1.350 1_655 S
C479 H466 0.929 . S
C479 C471 1.433 . S
C479 N481 1.384 . S
N480 C476 1.427 . S
N480 C477 1.384 . S
N481 C473 1.427 . S
N481 C479 1.384 . S
H482 C488 0.930 . S
H483 C492 0.930 . S
H484 C497 0.929 . S
H485 C495 0.929 . S
H486 C490 0.929 . S
H487 C496 0.929 1_455 S
C488 H482 0.930 . S
C488 C489 1.367 . S
C488 C496 1.378 . S
C489 C488 1.367 . S
C489 C497 1.433 . S
C490 H486 0.929 . S
C490 C492 1.378 . S
C490 C494 1.350 . S
C491 C494 1.463 . S
C491 C496 1.350 1_455 S
C491 N499 1.427 1_455 S
C492 H483 0.930 . S
C492 C490 1.378 . S
C492 C493 1.367 . S
C493 C492 1.367 . S
C493 C495 1.433 . S
C494 C490 1.350 . S
C494 C491 1.463 . S
C494 N498 1.427 . S
C495 H485 0.929 . S
C495 C493 1.433 . S
C495 N498 1.384 . S
C496 H487 0.929 1_655 S
C496 C488 1.378 . S
C496 C491 1.350 1_655 S
C497 H484 0.929 . S
C497 C489 1.433 . S
C497 N499 1.384 . S
N498 C494 1.427 . S
N498 C495 1.384 . S
N499 C491 1.427 1_655 S
N499 C497 1.384 . S
H500 C506 0.930 . S
H501 C510 0.930 . S
H502 C515 0.929 . S
H503 C513 0.929 . S
H504 C508 0.929 . S
H505 C514 0.929 . S
C506 H500 0.930 . S
C506 C507 1.367 . S
C506 C514 1.378 . S
C507 C506 1.367 . S
C507 C515 1.433 . S
C508 H504 0.929 . S
C508 C510 1.378 . S
C508 C512 1.350 . S
C509 C512 1.463 . S
C509 C514 1.350 . S
C509 N517 1.427 . S
C510 H501 0.930 . S
C510 C508 1.378 . S
C510 C511 1.367 . S
C511 C510 1.367 . S
C511 C513 1.433 . S
C512 C508 1.350 . S
C512 C509 1.463 . S
C512 N516 1.427 . S
C513 H503 0.929 . S
C513 C511 1.433 . S
C513 N516 1.384 . S
C514 H505 0.929 . S
C514 C506 1.378 . S
C514 C509 1.350 . S
C515 H502 0.929 . S
C515 C507 1.433 . S
C515 N517 1.384 . S
N516 C512 1.427 . S
N516 C513 1.384 . S
N517 C509 1.427 . S
N517 C515 1.384 . S
H518 C524 0.930 . S
H519 C528 0.930 . S
H520 C533 0.929 . S
H521 C531 0.929 . S
H522 C526 0.929 . S
H523 C532 0.929 . S
C524 H518 0.930 . S
C524 C525 1.367 . S
C524 C532 1.378 . S
C525 C524 1.367 . S
C525 C533 1.433 . S
C526 H522 0.929 . S
C526 C528 1.378 . S
C526 C530 1.350 . S
C527 C530 1.463 . S
C527 C532 1.350 . S
C527 N535 1.427 . S
C528 H519 0.930 . S
C528 C526 1.378 . S
C528 C529 1.367 . S
C529 C528 1.367 . S
C529 C531 1.433 . S
C530 C526 1.350 . S
C530 C527 1.463 . S
C530 N534 1.427 . S
C531 H521 0.929 . S
C531 C529 1.433 . S
C531 N534 1.384 . S
C532 H523 0.929 . S
C532 C524 1.378 . S
C532 C527 1.350 . S
C533 H520 0.929 . S
C533 C525 1.433 . S
C533 N535 1.384 . S
N534 C530 1.427 . S
N534 C531 1.384 . S
N535 C527 1.427 . S
N535 C533 1.384 . S
H536 C542 0.930 . S
H537 C546 0.930 . S
H538 C551 0.929 . S
H539 C549 0.928 . S
H540 C544 0.929 . S
H541 C550 0.929 . S
C542 H536 0.930 . S
C542 C543 1.367 . S
C542 C550 1.378 . S
C543 C542 1.367 . S
C543 C551 1.433 . S
C544 H540 0.929 . S
C544 C546 1.378 . S
C544 C548 1.350 . S
C545 C548 1.463 . S
C545 C550 1.350 . S
C545 N553 1.427 . S
C546 H537 0.930 . S
C546 C544 1.378 . S
C546 C547 1.367 . S
C547 C546 1.367 . S
C547 C549 1.434 1_455 S
C548 C544 1.350 . S
C548 C545 1.463 . S
C548 N552 1.427 . S
C549 H539 0.928 . S
C549 C547 1.434 1_655 S
C549 N552 1.384 1_655 S
C550 H541 0.929 . S
C550 C542 1.378 . S
C550 C545 1.350 . S
C551 H538 0.929 . S
C551 C543 1.433 . S
C551 N553 1.384 . S
N552 C548 1.427 . S
N552 C549 1.384 1_455 S
N553 C545 1.427 . S
N553 C551 1.384 . S
H554 C560 0.930 . S
H555 C564 0.930 . S
H556 C569 0.929 . S
H557 C567 0.929 . S
H558 C562 0.929 . S
H559 C568 0.929 . S
C560 H554 0.930 . S
C560 C561 1.367 . S
C560 C568 1.378 . S
C561 C560 1.367 . S
C561 C569 1.433 . S
C562 H558 0.929 . S
C562 C564 1.378 . S
C562 C566 1.350 . S
C563 C566 1.463 . S
C563 C568 1.350 . S
C563 N571 1.427 . S
C564 H555 0.930 . S
C564 C562 1.378 . S
C564 C565 1.367 . S
C565 C564 1.367 . S
C565 C567 1.433 . S
C566 C562 1.350 . S
C566 C563 1.463 . S
C566 N570 1.427 . S
C567 H557 0.929 . S
C567 C565 1.433 . S
C567 N570 1.384 . S
C568 H559 0.929 . S
C568 C560 1.378 . S
C568 C563 1.350 . S
C569 H556 0.929 . S
C569 C561 1.433 . S
C569 N571 1.384 . S
N570 C566 1.427 . S
N570 C567 1.384 . S
N571 C563 1.427 . S
N571 C569 1.384 . S
H572 C578 0.930 . S
H573 C582 0.930 . S
H574 C587 0.929 . S
H575 C585 0.929 . S
H576 C580 0.929 . S
H577 C586 0.929 . S
C578 H572 0.930 . S
C578 C579 1.367 . S
C578 C586 1.378 . S
C579 C578 1.367 . S
C579 C587 1.433 . S
C580 H576 0.929 . S
C580 C582 1.378 . S
C580 C584 1.350 . S
C581 C584 1.463 . S
C581 C586 1.350 . S
C581 N589 1.427 . S
C582 H573 0.930 . S
C582 C580 1.378 . S
C582 C583 1.367 . S
C583 C582 1.367 . S
C583 C585 1.433 . S
C584 C580 1.350 . S
C584 C581 1.463 . S
C584 N588 1.427 . S
C585 H575 0.929 . S
C585 C583 1.433 . S
C585 N588 1.384 . S
C586 H577 0.929 . S
C586 C578 1.378 . S
C586 C581 1.350 . S
C587 H574 0.929 . S
C587 C579 1.433 . S
C587 N589 1.384 . S
N588 C584 1.427 . S
N588 C585 1.384 . S
N589 C581 1.427 . S
N589 C587 1.384 . S
H590 C596 0.930 . S
H591 C600 0.930 . S
H592 C605 0.929 . S
H593 C603 0.929 . S
H594 C598 0.929 . S
H595 C604 0.929 . S
C596 H590 0.930 . S
C596 C597 1.367 . S
C596 C604 1.378 . S
C597 C596 1.367 . S
C597 C605 1.433 . S
C598 H594 0.929 . S
C598 C600 1.378 . S
C598 C602 1.350 1_655 S
C599 C602 1.463 . S
C599 C604 1.350 . S
C599 N607 1.427 . S
C600 H591 0.930 . S
C600 C598 1.378 . S
C600 C601 1.367 . S
C601 C600 1.367 . S
C601 C603 1.433 . S
C602 C598 1.350 1_455 S
C602 C599 1.463 . S
C602 N606 1.427 1_455 S
C603 H593 0.929 . S
C603 C601 1.433 . S
C603 N606 1.384 . S
C604 H595 0.929 . S
C604 C596 1.378 . S
C604 C599 1.350 . S
C605 H592 0.929 . S
C605 C597 1.433 . S
C605 N607 1.384 . S
N606 C602 1.427 1_655 S
N606 C603 1.384 . S
N607 C599 1.427 . S
N607 C605 1.384 . S
H608 C614 0.930 . S
H609 C618 0.930 . S
H610 C623 0.929 . S
H611 C621 0.929 . S
H612 C616 0.902 1_556 S
H613 C622 0.934 . S
C614 H608 0.930 . S
C614 C615 1.367 . S
C614 C622 1.373 1_556 S
C615 C614 1.367 . S
C615 C623 1.433 . S
C616 H612 0.902 1_554 S
C616 C618 1.378 . S
C616 C620 1.350 . S
C617 C620 1.463 1_556 S
C617 C622 1.349 1_556 S
C617 N625 1.427 . S
C618 H609 0.930 . S
C618 C616 1.378 . S
C618 C619 1.367 . S
C619 C618 1.367 . S
C619 C621 1.433 . S
C620 C616 1.350 . S
C620 C617 1.463 1_554 S
C620 N624 1.427 . S
C621 H611 0.929 . S
C621 C619 1.433 . S
C621 N624 1.384 . S
C622 H613 0.934 . S
C622 C614 1.373 1_554 S
C622 C617 1.349 1_554 S
C623 H610 0.929 . S
C623 C615 1.433 . S
C623 N625 1.384 . S
N624 C620 1.427 . S
N624 C621 1.384 . S
N625 C617 1.427 . S
N625 C623 1.384 . S
H626 C632 0.930 . S
H627 C636 0.930 . S
H628 C641 0.929 . S
H629 C639 0.929 . S
H630 C634 0.929 . S
H631 C640 0.929 . S
C632 H626 0.930 . S
C632 C633 1.367 . S
C632 C640 1.378 . S
C633 C632 1.367 . S
C633 C641 1.433 . S
C634 H630 0.929 . S
C634 C636 1.378 . S
C634 C638 1.350 . S
C635 C638 1.463 . S
C635 C640 1.350 . S
C635 N643 1.427 . S
C636 H627 0.930 . S
C636 C634 1.378 . S
C636 C637 1.367 . S
C637 C636 1.367 . S
C637 C639 1.433 . S
C638 C634 1.350 . S
C638 C635 1.463 . S
C638 N642 1.427 . S
C639 H629 0.929 . S
C639 C637 1.433 . S
C639 N642 1.384 . S
C640 H631 0.929 . S
C640 C632 1.378 . S
C640 C635 1.350 . S
C641 H628 0.929 . S
C641 C633 1.433 . S
C641 N643 1.384 . S
N642 C638 1.427 . S
N642 C639 1.384 . S
N643 C635 1.427 . S
N643 C641 1.384 . S
H644 C650 0.930 . S
H645 C654 0.930 . S
H646 C659 0.929 . S
H647 C657 0.929 . S
H648 C652 0.929 . S
H649 C658 0.929 . S
C650 H644 0.930 . S
C650 C651 1.367 . S
C650 C658 1.378 . S
C651 C650 1.367 . S
C651 C659 1.433 . S
C652 H648 0.929 . S
C652 C654 1.378 . S
C652 C656 1.350 . S
C653 C656 1.463 . S
C653 C658 1.350 . S
C653 N661 1.427 . S
C654 H645 0.930 . S
C654 C652 1.378 . S
C654 C655 1.367 . S
C655 C654 1.367 . S
C655 C657 1.433 . S
C656 C652 1.350 . S
C656 C653 1.463 . S
C656 N660 1.427 . S
C657 H647 0.929 . S
C657 C655 1.433 . S
C657 N660 1.384 . S
C658 H649 0.929 . S
C658 C650 1.378 . S
C658 C653 1.350 . S
C659 H646 0.929 . S
C659 C651 1.433 . S
C659 N661 1.384 . S
N660 C656 1.427 . S
N660 C657 1.384 . S
N661 C653 1.427 . S
N661 C659 1.384 . S
H662 C668 0.930 . S
H663 C672 0.930 . S
H664 C677 0.929 . S
H665 C675 0.929 . S
H666 C670 0.929 . S
H667 C676 0.929 . S
C668 H662 0.930 . S
C668 C669 1.367 . S
C668 C676 1.378 . S
C669 C668 1.367 . S
C669 C677 1.433 . S
C670 H666 0.929 . S
C670 C672 1.378 . S
C670 C674 1.350 . S
C671 C674 1.463 . S
C671 C676 1.350 . S
C671 N679 1.427 . S
C672 H663 0.930 . S
C672 C670 1.378 . S
C672 C673 1.367 . S
C673 C672 1.367 . S
C673 C675 1.433 . S
C674 C670 1.350 . S
C674 C671 1.463 . S
C674 N678 1.427 . S
C675 H665 0.929 . S
C675 C673 1.433 . S
C675 N678 1.384 . S
C676 H667 0.929 . S
C676 C668 1.378 . S
C676 C671 1.350 . S
C677 H664 0.929 . S
C677 C669 1.433 . S
C677 N679 1.384 . S
N678 C674 1.427 . S
N678 C675 1.384 . S
N679 C671 1.427 . S
N679 C677 1.384 . S
H680 C686 0.930 . S
H681 C690 0.930 . S
H682 C695 0.929 . S
H683 C693 0.929 . S
H684 C688 0.929 1_554 S
H685 C694 0.929 . S
C686 H680 0.930 . S
C686 C687 1.367 . S
C686 C694 1.378 1_554 S
C687 C686 1.367 . S
C687 C695 1.433 . S
C688 H684 0.929 1_556 S
C688 C690 1.378 . S
C688 C692 1.350 . S
C689 C692 1.463 1_554 S
C689 C694 1.350 1_554 S
C689 N697 1.427 . S
C690 H681 0.930 . S
C690 C688 1.378 . S
C690 C691 1.367 . S
C691 C690 1.367 . S
C691 C693 1.433 . S
C692 C688 1.350 . S
C692 C689 1.463 1_556 S
C692 N696 1.427 . S
C693 H683 0.929 . S
C693 C691 1.433 . S
C693 N696 1.384 . S
C694 H685 0.929 . S
C694 C686 1.378 1_556 S
C694 C689 1.350 1_556 S
C695 H682 0.929 . S
C695 C687 1.433 . S
C695 N697 1.384 . S
N696 C692 1.427 . S
N696 C693 1.384 . S
N697 C689 1.427 . S
N697 C695 1.384 . S
H698 C704 0.930 . S
H699 C708 0.930 . S
H700 C713 0.929 . S
H701 C711 0.929 . S
H702 C706 0.929 . S
H703 C712 0.929 . S
C704 H698 0.930 . S
C704 C705 1.367 . S
C704 C712 1.378 . S
C705 C704 1.367 . S
C705 C713 1.433 . S
C706 H702 0.929 . S
C706 C708 1.378 . S
C706 C710 1.350 . S
C707 C710 1.463 . S
C707 C712 1.350 . S
C707 N715 1.427 . S
C708 H699 0.930 . S
C708 C706 1.378 . S
C708 C709 1.367 . S
C709 C708 1.367 . S
C709 C711 1.433 . S
C710 C706 1.350 . S
C710 C707 1.463 . S
C710 N714 1.427 . S
C711 H701 0.929 . S
C711 C709 1.433 . S
C711 N714 1.384 . S
C712 H703 0.929 . S
C712 C704 1.378 . S
C712 C707 1.350 . S
C713 H700 0.929 . S
C713 C705 1.433 . S
C713 N715 1.384 . S
N714 C710 1.427 . S
N714 C711 1.384 . S
N715 C707 1.427 . S
N715 C713 1.384 . S
H716 C722 0.930 . S
H717 C726 0.930 . S
H718 C731 0.929 . S
H719 C729 0.929 . S
H720 C724 0.929 . S
H721 C730 0.929 . S
C722 H716 0.930 . S
C722 C723 1.367 . S
C722 C730 1.378 . S
C723 C722 1.367 . S
C723 C731 1.433 . S
C724 H720 0.929 . S
C724 C726 1.378 . S
C724 C728 1.350 . S
C725 C728 1.463 . S
C725 C730 1.350 . S
C725 N733 1.427 . S
C726 H717 0.930 . S
C726 C724 1.378 . S
C726 C727 1.367 . S
C727 C726 1.367 . S
C727 C729 1.433 . S
C728 C724 1.350 . S
C728 C725 1.463 . S
C728 N732 1.427 . S
C729 H719 0.929 . S
C729 C727 1.433 . S
C729 N732 1.384 . S
C730 H721 0.929 . S
C730 C722 1.378 . S
C730 C725 1.350 . S
C731 H718 0.929 . S
C731 C723 1.433 . S
C731 N733 1.384 . S
N732 C728 1.427 . S
N732 C729 1.384 . S
N733 C725 1.427 . S
N733 C731 1.384 . S
H734 C740 0.930 . S
H735 C744 0.930 . S
H736 C749 0.929 . S
H737 C747 0.929 . S
H738 C742 0.929 . S
H739 C748 0.929 . S
C740 H734 0.930 . S
C740 C741 1.367 . S
C740 C748 1.378 . S
C741 C740 1.367 . S
C741 C749 1.433 . S
C742 H738 0.929 . S
C742 C744 1.378 . S
C742 C746 1.350 . S
C743 C746 1.463 . S
C743 C748 1.350 . S
C743 N751 1.427 . S
C744 H735 0.930 . S
C744 C742 1.378 . S
C744 C745 1.367 . S
C745 C744 1.367 . S
C745 C747 1.433 . S
C746 C742 1.350 . S
C746 C743 1.463 . S
C746 N750 1.427 . S
C747 H737 0.929 . S
C747 C745 1.433 . S
C747 N750 1.384 . S
C748 H739 0.929 . S
C748 C740 1.378 . S
C748 C743 1.350 . S
C749 H736 0.929 . S
C749 C741 1.433 . S
C749 N751 1.384 . S
N750 C746 1.427 . S
N750 C747 1.384 . S
N751 C743 1.427 . S
N751 C749 1.384 . S
H752 C758 0.930 . S
H753 C762 0.930 . S
H754 C767 0.929 . S
H755 C765 0.926 1_556 S
H756 C760 0.929 . S
H757 C766 0.929 . S
C758 H752 0.930 . S
C758 C759 1.367 . S
C758 C766 1.378 . S
C759 C758 1.367 . S
C759 C767 1.433 . S
C760 H756 0.929 . S
C760 C762 1.378 . S
C760 C764 1.350 1_554 S
C761 C764 1.463 . S
C761 C766 1.350 . S
C761 N769 1.427 . S
C762 H753 0.930 . S
C762 C760 1.378 . S
C762 C763 1.367 . S
C763 C762 1.367 . S
C763 C765 1.433 . S
C764 C760 1.350 1_556 S
C764 C761 1.463 . S
C764 N768 1.427 . S
C765 H755 0.926 1_554 S
C765 C763 1.433 . S
C765 N768 1.384 1_554 S
C766 H757 0.929 . S
C766 C758 1.378 . S
C766 C761 1.350 . S
C767 H754 0.929 . S
C767 C759 1.433 . S
C767 N769 1.384 . S
N768 C764 1.427 . S
N768 C765 1.384 1_556 S
N769 C761 1.427 . S
N769 C767 1.384 . S
H770 C776 0.930 . S
H771 C780 0.930 . S
H772 C785 0.929 . S
H773 C783 0.929 1_565 S
H774 C778 0.929 . S
H775 C784 0.929 . S
C776 H770 0.930 . S
C776 C777 1.367 . S
C776 C784 1.378 . S
C777 C776 1.367 . S
C777 C785 1.433 . S
C778 H774 0.929 . S
C778 C780 1.378 . S
C778 C782 1.350 . S
C779 C782 1.463 . S
C779 C784 1.350 . S
C779 N787 1.427 . S
C780 H771 0.930 . S
C780 C778 1.378 . S
C780 C781 1.367 . S
C781 C780 1.367 . S
C781 C783 1.433 . S
C782 C778 1.350 . S
C782 C779 1.463 . S
C782 N786 1.427 . S
C783 H773 0.929 1_545 S
C783 C781 1.433 . S
C783 N786 1.384 . S
C784 H775 0.929 . S
C784 C776 1.378 . S
C784 C779 1.350 . S
C785 H772 0.929 . S
C785 C777 1.433 . S
C785 N787 1.384 . S
N786 C782 1.427 . S
N786 C783 1.384 . S
N787 C779 1.427 . S
N787 C785 1.384 . S
H788 C794 0.930 . S
H789 C798 0.930 . S
H790 C803 0.929 . S
H791 C801 0.929 . S
H792 C796 0.929 . S
H793 C802 0.929 . S
C794 H788 0.930 . S
C794 C795 1.367 . S
C794 C802 1.378 . S
C795 C794 1.367 . S
C795 C803 1.433 . S
C796 H792 0.929 . S
C796 C798 1.378 . S
C796 C800 1.350 . S
C797 C800 1.463 . S
C797 C802 1.350 . S
C797 N805 1.427 . S
C798 H789 0.930 . S
C798 C796 1.378 . S
C798 C799 1.367 . S
C799 C798 1.367 . S
C799 C801 1.433 . S
C800 C796 1.350 . S
C800 C797 1.463 . S
C800 N804 1.427 . S
C801 H791 0.929 . S
C801 C799 1.433 . S
C801 N804 1.384 . S
C802 H793 0.929 . S
C802 C794 1.378 . S
C802 C797 1.350 . S
C803 H790 0.929 . S
C803 C795 1.433 . S
C803 N805 1.384 . S
N804 C800 1.427 . S
N804 C801 1.384 . S
N805 C797 1.427 . S
N805 C803 1.384 . S
H806 C812 0.930 . S
H807 C816 0.930 . S
H808 C821 0.929 . S
H809 C819 0.929 1_545 S
H810 C814 0.929 . S
H811 C820 0.929 . S
C812 H806 0.930 . S
C812 C813 1.367 . S
C812 C820 1.378 . S
C813 C812 1.367 . S
C813 C821 1.433 . S
C814 H810 0.929 . S
C814 C816 1.378 . S
C814 C818 1.350 . S
C815 C818 1.463 . S
C815 C820 1.350 . S
C815 N823 1.427 . S
C816 H807 0.930 . S
C816 C814 1.378 . S
C816 C817 1.367 . S
C817 C816 1.367 . S
C817 C819 1.433 . S
C818 C814 1.350 . S
C818 C815 1.463 . S
C818 N822 1.427 . S
C819 H809 0.929 1_565 S
C819 C817 1.433 . S
C819 N822 1.384 . S
C820 H811 0.929 . S
C820 C812 1.378 . S
C820 C815 1.350 . S
C821 H808 0.929 . S
C821 C813 1.433 . S
C821 N823 1.384 . S
N822 C818 1.427 . S
N822 C819 1.384 . S
N823 C815 1.427 . S
N823 C821 1.384 . S
H824 C830 0.930 . S
H825 C834 0.930 . S
H826 C839 0.929 . S
H827 C837 0.929 . S
H828 C832 0.929 . S
H829 C838 0.925 1_554 S
C830 H824 0.930 . S
C830 C831 1.367 . S
C830 C838 1.378 . S
C831 C830 1.367 . S
C831 C839 1.433 . S
C832 H828 0.929 . S
C832 C834 1.378 . S
C832 C836 1.350 . S
C833 C836 1.463 . S
C833 C838 1.350 1_554 S
C833 N841 1.427 . S
C834 H825 0.930 . S
C834 C832 1.378 . S
C834 C835 1.367 . S
C835 C834 1.367 . S
C835 C837 1.433 . S
C836 C832 1.350 . S
C836 C833 1.463 . S
C836 N840 1.427 . S
C837 H827 0.929 . S
C837 C835 1.433 . S
C837 N840 1.384 . S
C838 H829 0.925 1_556 S
C838 C830 1.378 . S
C838 C833 1.350 1_556 S
C839 H826 0.929 . S
C839 C831 1.433 . S
C839 N841 1.384 1_556 S
N840 C836 1.427 . S
N840 C837 1.384 . S
N841 C833 1.427 . S
N841 C839 1.384 1_554 S
H842 C848 0.930 . S
H843 C852 0.930 . S
H844 C857 0.929 1_565 S
H845 C855 0.929 . S
H846 C850 0.929 . S
H847 C856 0.929 . S
C848 H842 0.930 . S
C848 C849 1.367 . S
C848 C856 1.378 . S
C849 C848 1.367 . S
C849 C857 1.433 . S
C850 H846 0.929 . S
C850 C852 1.378 . S
C850 C854 1.350 . S
C851 C854 1.463 . S
C851 C856 1.350 . S
C851 N859 1.427 . S
C852 H843 0.930 . S
C852 C850 1.378 . S
C852 C853 1.367 . S
C853 C852 1.367 . S
C853 C855 1.433 . S
C854 C850 1.350 . S
C854 C851 1.463 . S
C854 N858 1.427 . S
C855 H845 0.929 . S
C855 C853 1.433 . S
C855 N858 1.384 . S
C856 H847 0.929 . S
C856 C848 1.378 . S
C856 C851 1.350 . S
C857 H844 0.929 1_545 S
C857 C849 1.433 . S
C857 N859 1.384 . S
N858 C854 1.427 . S
N858 C855 1.384 . S
N859 C851 1.427 . S
N859 C857 1.384 . S
H860 C866 0.930 . S
H861 C870 0.930 . S
H862 C875 0.929 . S
H863 C873 0.929 . S
H864 C868 0.929 . S
H865 C874 0.929 . S
C866 H860 0.930 . S
C866 C867 1.367 . S
C866 C874 1.378 . S
C867 C866 1.367 . S
C867 C875 1.433 . S
C868 H864 0.929 . S
C868 C870 1.378 . S
C868 C872 1.350 . S
C869 C872 1.463 . S
C869 C874 1.350 . S
C869 N877 1.427 . S
C870 H861 0.930 . S
C870 C868 1.378 . S
C870 C871 1.367 . S
C871 C870 1.367 . S
C871 C873 1.433 . S
C872 C868 1.350 . S
C872 C869 1.463 . S
C872 N876 1.427 . S
C873 H863 0.929 . S
C873 C871 1.433 . S
C873 N876 1.384 . S
C874 H865 0.929 . S
C874 C866 1.378 . S
C874 C869 1.350 . S
C875 H862 0.929 . S
C875 C867 1.433 . S
C875 N877 1.384 . S
N876 C872 1.427 . S
N876 C873 1.384 . S
N877 C869 1.427 . S
N877 C875 1.384 . S
H878 C884 0.930 . S
H879 C888 0.930 . S
H880 C893 0.929 1_545 S
H881 C891 0.929 . S
H882 C886 0.929 . S
H883 C892 0.929 . S
C884 H878 0.930 . S
C884 C885 1.367 . S
C884 C892 1.378 . S
C885 C884 1.367 . S
C885 C893 1.433 . S
C886 H882 0.929 . S
C886 C888 1.378 . S
C886 C890 1.350 . S
C887 C890 1.463 . S
C887 C892 1.350 . S
C887 N895 1.427 . S
C888 H879 0.930 . S
C888 C886 1.378 . S
C888 C889 1.367 . S
C889 C888 1.367 . S
C889 C891 1.433 . S
C890 C886 1.350 . S
C890 C887 1.463 . S
C890 N894 1.427 . S
C891 H881 0.929 . S
C891 C889 1.433 . S
C891 N894 1.384 . S
C892 H883 0.929 . S
C892 C884 1.378 . S
C892 C887 1.350 . S
C893 H880 0.929 1_565 S
C893 C885 1.433 . S
C893 N895 1.384 . S
N894 C890 1.427 . S
N894 C891 1.384 . S
N895 C887 1.427 . S
N895 C893 1.384 . S
H896 C902 0.930 . S
H897 C906 0.930 . S
H898 C911 0.929 . S
H899 C909 0.929 . S
H900 C904 0.929 . S
H901 C910 0.929 . S
C902 H896 0.930 . S
C902 C903 1.367 . S
C902 C910 1.378 . S
C903 C902 1.367 . S
C903 C911 1.433 . S
C904 H900 0.929 . S
C904 C906 1.378 . S
C904 C908 1.350 . S
C905 C908 1.463 . S
C905 C910 1.350 . S
C905 N913 1.427 . S
C906 H897 0.930 . S
C906 C904 1.378 . S
C906 C907 1.367 . S
C907 C906 1.367 . S
C907 C909 1.433 . S
C908 C904 1.350 . S
C908 C905 1.463 . S
C908 N912 1.427 . S
C909 H899 0.929 . S
C909 C907 1.433 . S
C909 N912 1.384 . S
C910 H901 0.929 . S
C910 C902 1.378 . S
C910 C905 1.350 . S
C911 H898 0.929 . S
C911 C903 1.433 . S
C911 N913 1.384 . S
N912 C908 1.427 . S
N912 C909 1.384 . S
N913 C905 1.427 . S
N913 C911 1.384 . S
H914 C920 0.930 . S
H915 C924 0.930 . S
H916 C929 0.929 . S
H917 C927 0.929 . S
H918 C922 0.929 . S
H919 C928 0.929 . S
C920 H914 0.930 . S
C920 C921 1.367 . S
C920 C928 1.378 . S
C921 C920 1.367 . S
C921 C929 1.433 . S
C922 H918 0.929 . S
C922 C924 1.378 . S
C922 C926 1.350 . S
C923 C926 1.463 . S
C923 C928 1.350 . S
C923 N931 1.427 . S
C924 H915 0.930 . S
C924 C922 1.378 . S
C924 C925 1.367 . S
C925 C924 1.367 . S
C925 C927 1.433 . S
C926 C922 1.350 . S
C926 C923 1.463 . S
C926 N930 1.427 . S
C927 H917 0.929 . S
C927 C925 1.433 . S
C927 N930 1.384 . S
C928 H919 0.929 . S
C928 C920 1.378 . S
C928 C923 1.350 . S
C929 H916 0.929 . S
C929 C921 1.433 . S
C929 N931 1.384 . S
N930 C926 1.427 . S
N930 C927 1.384 . S
N931 C923 1.427 . S
N931 C929 1.384 . S
H932 C938 0.930 . S
H933 C942 0.930 . S
H934 C947 0.929 . S
H935 C945 0.929 . S
H936 C940 0.929 . S
H937 C946 0.929 . S
C938 H932 0.930 . S
C938 C939 1.367 . S
C938 C946 1.378 . S
C939 C938 1.367 . S
C939 C947 1.433 . S
C940 H936 0.929 . S
C940 C942 1.378 . S
C940 C944 1.350 . S
C941 C944 1.463 1_554 S
C941 C946 1.350 . S
C941 N949 1.427 . S
C942 H933 0.930 . S
C942 C940 1.378 . S
C942 C943 1.367 . S
C943 C942 1.367 . S
C943 C945 1.433 . S
C944 C940 1.350 . S
C944 C941 1.463 1_556 S
C944 N948 1.427 1_556 S
C945 H935 0.929 . S
C945 C943 1.433 . S
C945 N948 1.384 1_556 S
C946 H937 0.929 . S
C946 C938 1.378 . S
C946 C941 1.350 . S
C947 H934 0.929 . S
C947 C939 1.433 . S
C947 N949 1.384 . S
N948 C944 1.427 1_554 S
N948 C945 1.384 1_554 S
N949 C941 1.427 . S
N949 C947 1.384 . S
H950 C956 0.930 . S
H951 C960 0.930 . S
H952 C965 0.929 . S
H953 C963 0.929 . S
H954 C958 0.929 . S
H955 C964 0.929 . S
C956 H950 0.930 . S
C956 C957 1.367 . S
C956 C964 1.378 . S
C957 C956 1.367 . S
C957 C965 1.433 . S
C958 H954 0.929 . S
C958 C960 1.378 . S
C958 C962 1.350 . S
C959 C962 1.463 . S
C959 C964 1.350 . S
C959 N967 1.427 . S
C960 H951 0.930 . S
C960 C958 1.378 . S
C960 C961 1.367 . S
C961 C960 1.367 . S
C961 C963 1.433 . S
C962 C958 1.350 . S
C962 C959 1.463 . S
C962 N966 1.427 . S
C963 H953 0.929 . S
C963 C961 1.433 . S
C963 N966 1.384 . S
C964 H955 0.929 . S
C964 C956 1.378 . S
C964 C959 1.350 . S
C965 H952 0.929 . S
C965 C957 1.433 . S
C965 N967 1.384 . S
N966 C962 1.427 . S
N966 C963 1.384 . S
N967 C959 1.427 . S
N967 C965 1.384 . S
H968 C974 0.930 . S
H969 C978 0.930 . S
H970 C983 0.929 . S
H971 C981 0.929 . S
H972 C976 0.929 . S
H973 C982 0.929 . S
C974 H968 0.930 . S
C974 C975 1.367 . S
C974 C982 1.378 . S
C975 C974 1.367 . S
C975 C983 1.433 . S
C976 H972 0.929 . S
C976 C978 1.378 . S
C976 C980 1.350 . S
C977 C980 1.463 . S
C977 C982 1.350 . S
C977 N985 1.427 . S
C978 H969 0.930 . S
C978 C976 1.378 . S
C978 C979 1.367 . S
C979 C978 1.367 . S
C979 C981 1.433 . S
C980 C976 1.350 . S
C980 C977 1.463 . S
C980 N984 1.427 . S
C981 H971 0.929 . S
C981 C979 1.433 . S
C981 N984 1.384 . S
C982 H973 0.929 . S
C982 C974 1.378 . S
C982 C977 1.350 . S
C983 H970 0.929 . S
C983 C975 1.433 . S
C983 N985 1.384 . S
N984 C980 1.427 . S
N984 C981 1.384 . S
N985 C977 1.427 . S
N985 C983 1.384 . S
H986 C992 0.930 . S
H987 C996 0.930 . S
H988 C1001 0.929 . S
H989 C999 0.929 . S
H990 C994 0.929 . S
H991 C1000 0.929 . S
C992 H986 0.930 . S
C992 C993 1.367 . S
C992 C1000 1.378 . S
C993 C992 1.367 . S
C993 C1001 1.433 . S
C994 H990 0.929 . S
C994 C996 1.378 . S
C994 C998 1.350 . S
C995 C998 1.463 . S
C995 C1000 1.350 . S
C995 N1003 1.427 . S
C996 H987 0.930 . S
C996 C994 1.378 . S
C996 C997 1.367 . S
C997 C996 1.367 . S
C997 C999 1.433 . S
C998 C994 1.350 . S
C998 C995 1.463 . S
C998 N1002 1.427 . S
C999 H989 0.929 . S
C999 C997 1.433 . S
C999 N1002 1.384 . S
C1000 H991 0.929 . S
C1000 C992 1.378 . S
C1000 C995 1.350 . S
C1001 H988 0.929 . S
C1001 C993 1.433 . S
C1001 N1003 1.384 . S
N1002 C998 1.427 . S
N1002 C999 1.384 . S
N1003 C995 1.427 . S
N1003 C1001 1.384 . S
H1004 C1010 0.930 . S
H1005 C1014 0.930 1_455 S
H1006 C1019 0.929 . S
H1007 C1017 0.929 . S
H1008 C1012 0.929 . S
H1009 C1018 0.929 . S
C1010 H1004 0.930 . S
C1010 C1011 1.367 . S
C1010 C1018 1.378 . S
C1011 C1010 1.367 . S
C1011 C1019 1.433 . S
C1012 H1008 0.929 . S
C1012 C1014 1.378 . S
C1012 C1016 1.350 . S
C1013 C1016 1.463 1_554 S
C1013 C1018 1.350 . S
C1013 N1021 1.427 . S
C1014 H1005 0.930 1_655 S
C1014 C1012 1.378 . S
C1014 C1015 1.367 . S
C1015 C1014 1.367 . S
C1015 C1017 1.433 . S
C1016 C1012 1.350 . S
C1016 C1013 1.463 1_556 S
C1016 N1020 1.427 . S
C1017 H1007 0.929 . S
C1017 C1015 1.433 . S
C1017 N1020 1.384 . S
C1018 H1009 0.929 . S
C1018 C1010 1.378 . S
C1018 C1013 1.350 . S
C1019 H1006 0.929 . S
C1019 C1011 1.433 . S
C1019 N1021 1.384 . S
N1020 C1016 1.427 . S
N1020 C1017 1.384 . S
N1021 C1013 1.427 . S
N1021 C1019 1.384 . S
H1022 C1028 0.930 . S
H1023 C1032 0.930 . S
H1024 C1037 0.929 . S
H1025 C1035 0.929 . S
H1026 C1030 0.929 . S
H1027 C1036 0.929 . S
C1028 H1022 0.930 . S
C1028 C1029 1.367 . S
C1028 C1036 1.378 . S
C1029 C1028 1.367 . S
C1029 C1037 1.433 . S
C1030 H1026 0.929 . S
C1030 C1032 1.378 . S
C1030 C1034 1.350 . S
C1031 C1034 1.463 . S
C1031 C1036 1.350 . S
C1031 N1039 1.427 . S
C1032 H1023 0.930 . S
C1032 C1030 1.378 . S
C1032 C1033 1.367 . S
C1033 C1032 1.367 . S
C1033 C1035 1.433 . S
C1034 C1030 1.350 . S
C1034 C1031 1.463 . S
C1034 N1038 1.427 . S
C1035 H1025 0.929 . S
C1035 C1033 1.433 . S
C1035 N1038 1.384 . S
C1036 H1027 0.929 . S
C1036 C1028 1.378 . S
C1036 C1031 1.350 . S
C1037 H1024 0.929 . S
C1037 C1029 1.433 . S
C1037 N1039 1.384 . S
N1038 C1034 1.427 . S
N1038 C1035 1.384 . S
N1039 C1031 1.427 . S
N1039 C1037 1.384 . S
H1040 C1046 0.930 . S
H1041 C1050 0.930 . S
H1042 C1055 0.929 . S
H1043 C1053 0.929 . S
H1044 C1048 0.929 . S
H1045 C1054 0.929 . S
C1046 H1040 0.930 . S
C1046 C1047 1.367 . S
C1046 C1054 1.378 . S
C1047 C1046 1.367 . S
C1047 C1055 1.433 . S
C1048 H1044 0.929 . S
C1048 C1050 1.378 . S
C1048 C1052 1.350 . S
C1049 C1052 1.463 . S
C1049 C1054 1.350 . S
C1049 N1057 1.427 . S
C1050 H1041 0.930 . S
C1050 C1048 1.378 . S
C1050 C1051 1.367 . S
C1051 C1050 1.367 . S
C1051 C1053 1.433 . S
C1052 C1048 1.350 . S
C1052 C1049 1.463 . S
C1052 N1056 1.427 . S
C1053 H1043 0.929 . S
C1053 C1051 1.433 . S
C1053 N1056 1.384 . S
C1054 H1045 0.929 . S
C1054 C1046 1.378 . S
C1054 C1049 1.350 . S
C1055 H1042 0.929 . S
C1055 C1047 1.433 . S
C1055 N1057 1.384 . S
N1056 C1052 1.427 . S
N1056 C1053 1.384 . S
N1057 C1049 1.427 . S
N1057 C1055 1.384 . S
H1058 C1064 0.930 . S
H1059 C1068 0.930 . S
H1060 C1073 0.929 . S
H1061 C1071 0.929 . S
H1062 C1066 0.929 . S
H1063 C1072 0.929 . S
C1064 H1058 0.930 . S
C1064 C1065 1.367 . S
C1064 C1072 1.378 . S
C1065 C1064 1.367 . S
C1065 C1073 1.433 . S
C1066 H1062 0.929 . S
C1066 C1068 1.378 . S
C1066 C1070 1.350 . S
C1067 C1070 1.463 . S
C1067 C1072 1.350 . S
C1067 N1075 1.427 . S
C1068 H1059 0.930 . S
C1068 C1066 1.378 . S
C1068 C1069 1.367 . S
C1069 C1068 1.367 . S
C1069 C1071 1.433 . S
C1070 C1066 1.350 . S
C1070 C1067 1.463 . S
C1070 N1074 1.427 . S
C1071 H1061 0.929 . S
C1071 C1069 1.433 . S
C1071 N1074 1.384 . S
C1072 H1063 0.929 . S
C1072 C1064 1.378 . S
C1072 C1067 1.350 . S
C1073 H1060 0.929 . S
C1073 C1065 1.433 . S
C1073 N1075 1.384 . S
N1074 C1070 1.427 . S
N1074 C1071 1.384 . S
N1075 C1067 1.427 . S
N1075 C1073 1.384 . S
H1076 C1082 0.930 . S
H1077 C1086 0.930 . S
H1078 C1091 0.929 . S
H1079 C1089 0.929 . S
H1080 C1084 0.940 . S
H1081 C1090 0.929 . S
C1082 H1076 0.930 . S
C1082 C1083 1.367 . S
C1082 C1090 1.378 . S
C1083 C1082 1.367 . S
C1083 C1091 1.433 . S
C1084 H1080 0.940 . S
C1084 C1086 1.346 1_556 S
C1084 C1088 1.372 . S
C1085 C1088 1.463 . S
C1085 C1090 1.350 . S
C1085 N1093 1.427 . S
C1086 H1077 0.930 . S
C1086 C1084 1.346 1_554 S
C1086 C1087 1.367 . S
C1087 C1086 1.367 . S
C1087 C1089 1.433 . S
C1088 C1084 1.372 . S
C1088 C1085 1.463 . S
C1088 N1092 1.427 . S
C1089 H1079 0.929 . S
C1089 C1087 1.433 . S
C1089 N1092 1.384 1_554 S
C1090 H1081 0.929 . S
C1090 C1082 1.378 . S
C1090 C1085 1.350 . S
C1091 H1078 0.929 . S
C1091 C1083 1.433 . S
C1091 N1093 1.384 . S
N1092 C1088 1.427 . S
N1092 C1089 1.384 1_556 S
N1093 C1085 1.427 . S
N1093 C1091 1.384 . S
H1094 C1100 0.930 . S
H1095 C1104 0.930 . S
H1096 C1109 0.929 . S
H1097 C1107 0.929 . S
H1098 C1102 0.929 . S
H1099 C1108 0.929 . S
C1100 H1094 0.930 . S
C1100 C1101 1.367 . S
C1100 C1108 1.378 . S
C1101 C1100 1.367 . S
C1101 C1109 1.433 . S
C1102 H1098 0.929 . S
C1102 C1104 1.378 . S
C1102 C1106 1.350 . S
C1103 C1106 1.463 . S
C1103 C1108 1.350 . S
C1103 N1111 1.427 . S
C1104 H1095 0.930 . S
C1104 C1102 1.378 . S
C1104 C1105 1.367 . S
C1105 C1104 1.367 . S
C1105 C1107 1.433 . S
C1106 C1102 1.350 . S
C1106 C1103 1.463 . S
C1106 N1110 1.427 . S
C1107 H1097 0.929 . S
C1107 C1105 1.433 . S
C1107 N1110 1.384 . S
C1108 H1099 0.929 . S
C1108 C1100 1.378 . S
C1108 C1103 1.350 . S
C1109 H1096 0.929 . S
C1109 C1101 1.433 . S
C1109 N1111 1.384 . S
N1110 C1106 1.427 . S
N1110 C1107 1.384 . S
N1111 C1103 1.427 . S
N1111 C1109 1.384 . S
H1112 C1118 0.930 . S
H1113 C1122 0.930 . S
H1114 C1127 0.929 . S
H1115 C1125 0.929 . S
H1116 C1120 0.929 . S
H1117 C1126 0.929 . S
C1118 H1112 0.930 . S
C1118 C1119 1.367 . S
C1118 C1126 1.378 . S
C1119 C1118 1.367 . S
C1119 C1127 1.433 . S
C1120 H1116 0.929 . S
C1120 C1122 1.378 . S
C1120 C1124 1.350 . S
C1121 C1124 1.463 . S
C1121 C1126 1.350 . S
C1121 N1129 1.427 . S
C1122 H1113 0.930 . S
C1122 C1120 1.378 . S
C1122 C1123 1.367 . S
C1123 C1122 1.367 . S
C1123 C1125 1.433 . S
C1124 C1120 1.350 . S
C1124 C1121 1.463 . S
C1124 N1128 1.427 . S
C1125 H1115 0.929 . S
C1125 C1123 1.433 . S
C1125 N1128 1.384 . S
C1126 H1117 0.929 . S
C1126 C1118 1.378 . S
C1126 C1121 1.350 . S
C1127 H1114 0.929 . S
C1127 C1119 1.433 . S
C1127 N1129 1.384 . S
N1128 C1124 1.427 . S
N1128 C1125 1.384 . S
N1129 C1121 1.427 . S
N1129 C1127 1.384 . S
H1130 C1136 0.930 . S
H1131 C1140 0.930 . S
H1132 C1145 0.929 . S
H1133 C1143 0.929 . S
H1134 C1138 0.929 . S
H1135 C1144 0.929 . S
C1136 H1130 0.930 . S
C1136 C1137 1.367 . S
C1136 C1144 1.378 . S
C1137 C1136 1.367 . S
C1137 C1145 1.433 . S
C1138 H1134 0.929 . S
C1138 C1140 1.378 . S
C1138 C1142 1.350 . S
C1139 C1142 1.463 . S
C1139 C1144 1.350 . S
C1139 N1147 1.427 . S
C1140 H1131 0.930 . S
C1140 C1138 1.378 . S
C1140 C1141 1.367 . S
C1141 C1140 1.367 . S
C1141 C1143 1.433 . S
C1142 C1138 1.350 . S
C1142 C1139 1.463 . S
C1142 N1146 1.427 . S
C1143 H1133 0.929 . S
C1143 C1141 1.433 . S
C1143 N1146 1.384 . S
C1144 H1135 0.929 . S
C1144 C1136 1.378 . S
C1144 C1139 1.350 . S
C1145 H1132 0.929 . S
C1145 C1137 1.433 . S
C1145 N1147 1.384 . S
N1146 C1142 1.427 . S
N1146 C1143 1.384 . S
N1147 C1139 1.427 . S
N1147 C1145 1.384 . S
H1148 C1154 0.930 . S
H1149 C1158 0.930 . S
H1150 C1163 0.929 . S
H1151 C1161 0.929 1_554 S
H1152 C1156 0.929 . S
H1153 C1162 0.929 . S
C1154 H1148 0.930 . S
C1154 C1155 1.367 . S
C1154 C1162 1.378 . S
C1155 C1154 1.367 . S
C1155 C1163 1.433 . S
C1156 H1152 0.929 . S
C1156 C1158 1.378 . S
C1156 C1160 1.350 1_556 S
C1157 C1160 1.463 . S
C1157 C1162 1.350 . S
C1157 N1165 1.427 . S
C1158 H1149 0.930 . S
C1158 C1156 1.378 . S
C1158 C1159 1.367 . S
C1159 C1158 1.367 . S
C1159 C1161 1.434 . S
C1160 C1156 1.350 1_554 S
C1160 C1157 1.463 . S
C1160 N1164 1.427 . S
C1161 H1151 0.929 1_556 S
C1161 C1159 1.434 . S
C1161 N1164 1.383 1_556 S
C1162 H1153 0.929 . S
C1162 C1154 1.378 . S
C1162 C1157 1.350 . S
C1163 H1150 0.929 . S
C1163 C1155 1.433 . S
C1163 N1165 1.384 . S
N1164 C1160 1.427 . S
N1164 C1161 1.383 1_554 S
N1165 C1157 1.427 . S
N1165 C1163 1.384 . S
H1166 C1172 0.930 . S
H1167 C1176 0.930 . S
H1168 C1181 0.929 . S
H1169 C1179 0.929 . S
H1170 C1174 0.929 . S
H1171 C1180 0.929 . S
C1172 H1166 0.930 . S
C1172 C1173 1.367 . S
C1172 C1180 1.378 . S
C1173 C1172 1.367 . S
C1173 C1181 1.433 . S
C1174 H1170 0.929 . S
C1174 C1176 1.378 . S
C1174 C1178 1.350 . S
C1175 C1178 1.463 . S
C1175 C1180 1.350 . S
C1175 N1183 1.427 . S
C1176 H1167 0.930 . S
C1176 C1174 1.378 . S
C1176 C1177 1.367 . S
C1177 C1176 1.367 . S
C1177 C1179 1.433 . S
C1178 C1174 1.350 . S
C1178 C1175 1.463 . S
C1178 N1182 1.427 . S
C1179 H1169 0.929 . S
C1179 C1177 1.433 . S
C1179 N1182 1.384 . S
C1180 H1171 0.929 . S
C1180 C1172 1.378 . S
C1180 C1175 1.350 . S
C1181 H1168 0.929 . S
C1181 C1173 1.433 . S
C1181 N1183 1.384 . S
N1182 C1178 1.427 . S
N1182 C1179 1.384 . S
N1183 C1175 1.427 . S
N1183 C1181 1.384 . S
H1184 C1190 0.930 . S
H1185 C1194 0.930 . S
H1186 C1199 0.929 . S
H1187 C1197 0.929 . S
H1188 C1192 0.929 . S
H1189 C1198 0.929 . S
C1190 H1184 0.930 . S
C1190 C1191 1.367 . S
C1190 C1198 1.378 . S
C1191 C1190 1.367 . S
C1191 C1199 1.433 . S
C1192 H1188 0.929 . S
C1192 C1194 1.378 . S
C1192 C1196 1.350 . S
C1193 C1196 1.463 . S
C1193 C1198 1.350 . S
C1193 N1201 1.427 . S
C1194 H1185 0.930 . S
C1194 C1192 1.378 . S
C1194 C1195 1.367 . S
C1195 C1194 1.367 . S
C1195 C1197 1.433 . S
C1196 C1192 1.350 . S
C1196 C1193 1.463 . S
C1196 N1200 1.427 . S
C1197 H1187 0.929 . S
C1197 C1195 1.433 . S
C1197 N1200 1.384 . S
C1198 H1189 0.929 . S
C1198 C1190 1.378 . S
C1198 C1193 1.350 . S
C1199 H1186 0.929 . S
C1199 C1191 1.433 . S
C1199 N1201 1.384 . S
N1200 C1196 1.427 . S
N1200 C1197 1.384 . S
N1201 C1193 1.427 . S
N1201 C1199 1.384 . S
H1202 C1208 0.930 . S
H1203 C1212 0.930 . S
H1204 C1217 0.929 . S
H1205 C1215 0.929 . S
H1206 C1210 0.929 . S
H1207 C1216 0.929 . S
C1208 H1202 0.930 . S
C1208 C1209 1.367 . S
C1208 C1216 1.378 . S
C1209 C1208 1.367 . S
C1209 C1217 1.433 . S
C1210 H1206 0.929 . S
C1210 C1212 1.378 . S
C1210 C1214 1.350 . S
C1211 C1214 1.463 . S
C1211 C1216 1.350 . S
C1211 N1219 1.427 . S
C1212 H1203 0.930 . S
C1212 C1210 1.378 . S
C1212 C1213 1.367 . S
C1213 C1212 1.367 . S
C1213 C1215 1.433 . S
C1214 C1210 1.350 . S
C1214 C1211 1.463 . S
C1214 N1218 1.427 . S
C1215 H1205 0.929 . S
C1215 C1213 1.433 . S
C1215 N1218 1.384 . S
C1216 H1207 0.929 . S
C1216 C1208 1.378 . S
C1216 C1211 1.350 . S
C1217 H1204 0.929 . S
C1217 C1209 1.433 . S
C1217 N1219 1.384 . S
N1218 C1214 1.427 . S
N1218 C1215 1.384 . S
N1219 C1211 1.427 . S
N1219 C1217 1.384 . S
H1220 C1226 0.930 . S
H1221 C1230 0.930 . S
H1222 C1235 0.929 . S
H1223 C1233 0.929 . S
H1224 C1228 0.929 . S
H1225 C1234 0.929 . S
C1226 H1220 0.930 . S
C1226 C1227 1.367 . S
C1226 C1234 1.378 . S
C1227 C1226 1.367 . S
C1227 C1235 1.433 . S
C1228 H1224 0.929 . S
C1228 C1230 1.378 . S
C1228 C1232 1.350 . S
C1229 C1232 1.463 . S
C1229 C1234 1.350 . S
C1229 N1237 1.427 . S
C1230 H1221 0.930 . S
C1230 C1228 1.378 . S
C1230 C1231 1.367 . S
C1231 C1230 1.367 . S
C1231 C1233 1.433 . S
C1232 C1228 1.350 . S
C1232 C1229 1.463 . S
C1232 N1236 1.427 . S
C1233 H1223 0.929 . S
C1233 C1231 1.433 . S
C1233 N1236 1.384 . S
C1234 H1225 0.929 . S
C1234 C1226 1.378 . S
C1234 C1229 1.350 . S
C1235 H1222 0.929 . S
C1235 C1227 1.433 . S
C1235 N1237 1.384 . S
N1236 C1232 1.427 . S
N1236 C1233 1.384 . S
N1237 C1229 1.427 . S
N1237 C1235 1.384 . S
H1238 C1244 0.930 . S
H1239 C1248 0.930 . S
H1240 C1253 0.929 . S
H1241 C1251 0.929 . S
H1242 C1246 0.929 . S
H1243 C1252 0.929 . S
C1244 H1238 0.930 . S
C1244 C1245 1.367 . S
C1244 C1252 1.378 . S
C1245 C1244 1.367 . S
C1245 C1253 1.433 . S
C1246 H1242 0.929 . S
C1246 C1248 1.378 . S
C1246 C1250 1.350 . S
C1247 C1250 1.463 . S
C1247 C1252 1.350 . S
C1247 N1255 1.427 . S
C1248 H1239 0.930 . S
C1248 C1246 1.378 . S
C1248 C1249 1.367 . S
C1249 C1248 1.367 . S
C1249 C1251 1.433 . S
C1250 C1246 1.350 . S
C1250 C1247 1.463 . S
C1250 N1254 1.427 . S
C1251 H1241 0.929 . S
C1251 C1249 1.433 . S
C1251 N1254 1.384 . S
C1252 H1243 0.929 . S
C1252 C1244 1.378 . S
C1252 C1247 1.350 . S
C1253 H1240 0.929 . S
C1253 C1245 1.433 . S
C1253 N1255 1.384 . S
N1254 C1250 1.427 . S
N1254 C1251 1.384 . S
N1255 C1247 1.427 . S
N1255 C1253 1.384 . S
H1256 C1262 0.930 . S
H1257 C1266 0.930 . S
H1258 C1271 0.929 . S
H1259 C1269 0.929 . S
H1260 C1264 0.929 . S
H1261 C1270 0.929 . S
C1262 H1256 0.930 . S
C1262 C1263 1.367 . S
C1262 C1270 1.378 . S
C1263 C1262 1.367 . S
C1263 C1271 1.433 . S
C1264 H1260 0.929 . S
C1264 C1266 1.378 . S
C1264 C1268 1.350 . S
C1265 C1268 1.463 . S
C1265 C1270 1.350 . S
C1265 N1273 1.427 . S
C1266 H1257 0.930 . S
C1266 C1264 1.378 . S
C1266 C1267 1.367 . S
C1267 C1266 1.367 . S
C1267 C1269 1.433 . S
C1268 C1264 1.350 . S
C1268 C1265 1.463 . S
C1268 N1272 1.427 . S
C1269 H1259 0.929 . S
C1269 C1267 1.433 . S
C1269 N1272 1.384 . S
C1270 H1261 0.929 . S
C1270 C1262 1.378 . S
C1270 C1265 1.350 . S
C1271 H1258 0.929 . S
C1271 C1263 1.433 . S
C1271 N1273 1.384 . S
N1272 C1268 1.427 . S
N1272 C1269 1.384 . S
N1273 C1265 1.427 . S
N1273 C1271 1.384 . S
H1274 C1280 0.930 . S
H1275 C1284 0.930 . S
H1276 C1289 0.929 . S
H1277 C1287 0.929 . S
H1278 C1282 0.929 . S
H1279 C1288 0.929 . S
C1280 H1274 0.930 . S
C1280 C1281 1.367 . S
C1280 C1288 1.378 . S
C1281 C1280 1.367 . S
C1281 C1289 1.433 . S
C1282 H1278 0.929 . S
C1282 C1284 1.378 . S
C1282 C1286 1.350 . S
C1283 C1286 1.463 . S
C1283 C1288 1.350 . S
C1283 N1291 1.427 . S
C1284 H1275 0.930 . S
C1284 C1282 1.378 . S
C1284 C1285 1.367 . S
C1285 C1284 1.367 . S
C1285 C1287 1.433 . S
C1286 C1282 1.350 . S
C1286 C1283 1.463 . S
C1286 N1290 1.427 . S
C1287 H1277 0.929 . S
C1287 C1285 1.433 . S
C1287 N1290 1.384 . S
C1288 H1279 0.929 . S
C1288 C1280 1.378 . S
C1288 C1283 1.350 . S
C1289 H1276 0.929 . S
C1289 C1281 1.433 . S
C1289 N1291 1.384 . S
N1290 C1286 1.427 . S
N1290 C1287 1.384 . S
N1291 C1283 1.427 . S
N1291 C1289 1.384 . S
H1292 C1298 0.930 . S
H1293 C1302 0.930 . S
H1294 C1307 0.929 . S
H1295 C1305 0.929 . S
H1296 C1300 0.929 . S
H1297 C1306 0.929 . S
C1298 H1292 0.930 . S
C1298 C1299 1.367 . S
C1298 C1306 1.378 . S
C1299 C1298 1.367 . S
C1299 C1307 1.433 . S
C1300 H1296 0.929 . S
C1300 C1302 1.378 . S
C1300 C1304 1.350 . S
C1301 C1304 1.463 . S
C1301 C1306 1.350 . S
C1301 N1309 1.427 . S
C1302 H1293 0.930 . S
C1302 C1300 1.378 . S
C1302 C1303 1.367 . S
C1303 C1302 1.367 . S
C1303 C1305 1.433 . S
C1304 C1300 1.350 . S
C1304 C1301 1.463 . S
C1304 N1308 1.427 . S
C1305 H1295 0.929 . S
C1305 C1303 1.433 . S
C1305 N1308 1.384 . S
C1306 H1297 0.929 . S
C1306 C1298 1.378 . S
C1306 C1301 1.350 . S
C1307 H1294 0.929 . S
C1307 C1299 1.433 . S
C1307 N1309 1.384 . S
N1308 C1304 1.427 . S
N1308 C1305 1.384 . S
N1309 C1301 1.427 . S
N1309 C1307 1.384 . S
H1310 C1316 0.930 . S
H1311 C1320 0.930 . S
H1312 C1325 0.929 . S
H1313 C1323 0.929 . S
H1314 C1318 0.929 . S
H1315 C1324 0.929 . S
C1316 H1310 0.930 . S
C1316 C1317 1.367 . S
C1316 C1324 1.378 . S
C1317 C1316 1.367 . S
C1317 C1325 1.433 . S
C1318 H1314 0.929 . S
C1318 C1320 1.378 . S
C1318 C1322 1.350 . S
C1319 C1322 1.463 . S
C1319 C1324 1.350 . S
C1319 N1327 1.427 . S
C1320 H1311 0.930 . S
C1320 C1318 1.378 . S
C1320 C1321 1.367 . S
C1321 C1320 1.367 . S
C1321 C1323 1.433 . S
C1322 C1318 1.350 . S
C1322 C1319 1.463 . S
C1322 N1326 1.427 . S
C1323 H1313 0.929 . S
C1323 C1321 1.433 . S
C1323 N1326 1.384 . S
C1324 H1315 0.929 . S
C1324 C1316 1.378 . S
C1324 C1319 1.350 . S
C1325 H1312 0.929 . S
C1325 C1317 1.433 . S
C1325 N1327 1.384 . S
N1326 C1322 1.427 . S
N1326 C1323 1.384 . S
N1327 C1319 1.427 . S
N1327 C1325 1.384 . S
H1328 C1334 0.930 . S
H1329 C1338 0.930 . S
H1330 C1343 0.929 . S
H1331 C1341 0.929 . S
H1332 C1336 0.929 . S
H1333 C1342 0.929 . S
C1334 H1328 0.930 . S
C1334 C1335 1.367 . S
C1334 C1342 1.378 . S
C1335 C1334 1.367 . S
C1335 C1343 1.433 . S
C1336 H1332 0.929 . S
C1336 C1338 1.378 . S
C1336 C1340 1.350 . S
C1337 C1340 1.463 . S
C1337 C1342 1.350 . S
C1337 N1345 1.427 . S
C1338 H1329 0.930 . S
C1338 C1336 1.378 . S
C1338 C1339 1.367 . S
C1339 C1338 1.367 . S
C1339 C1341 1.433 . S
C1340 C1336 1.350 . S
C1340 C1337 1.463 . S
C1340 N1344 1.427 . S
C1341 H1331 0.929 . S
C1341 C1339 1.433 . S
C1341 N1344 1.384 . S
C1342 H1333 0.929 . S
C1342 C1334 1.378 . S
C1342 C1337 1.350 . S
C1343 H1330 0.929 . S
C1343 C1335 1.433 . S
C1343 N1345 1.384 . S
N1344 C1340 1.427 . S
N1344 C1341 1.384 . S
N1345 C1337 1.427 . S
N1345 C1343 1.384 . S
H1346 C1352 0.930 . S
H1347 C1356 0.930 . S
H1348 C1361 0.929 . S
H1349 C1359 0.929 . S
H1350 C1354 0.929 . S
H1351 C1360 0.929 . S
C1352 H1346 0.930 . S
C1352 C1353 1.367 . S
C1352 C1360 1.378 . S
C1353 C1352 1.367 . S
C1353 C1361 1.433 . S
C1354 H1350 0.929 . S
C1354 C1356 1.378 . S
C1354 C1358 1.350 . S
C1355 C1358 1.463 . S
C1355 C1360 1.350 . S
C1355 N1363 1.427 . S
C1356 H1347 0.930 . S
C1356 C1354 1.378 . S
C1356 C1357 1.367 . S
C1357 C1356 1.367 . S
C1357 C1359 1.433 . S
C1358 C1354 1.350 . S
C1358 C1355 1.463 . S
C1358 N1362 1.427 . S
C1359 H1349 0.929 . S
C1359 C1357 1.433 . S
C1359 N1362 1.384 . S
C1360 H1351 0.929 . S
C1360 C1352 1.378 . S
C1360 C1355 1.350 . S
C1361 H1348 0.929 . S
C1361 C1353 1.433 . S
C1361 N1363 1.384 . S
N1362 C1358 1.427 . S
N1362 C1359 1.384 . S
N1363 C1355 1.427 . S
N1363 C1361 1.384 . S
H1364 C1370 0.930 . S
H1365 C1374 0.930 . S
H1366 C1379 0.929 . S
H1367 C1377 0.929 . S
H1368 C1372 0.929 . S
H1369 C1378 0.929 . S
C1370 H1364 0.930 . S
C1370 C1371 1.367 . S
C1370 C1378 1.378 . S
C1371 C1370 1.367 . S
C1371 C1379 1.433 . S
C1372 H1368 0.929 . S
C1372 C1374 1.378 . S
C1372 C1376 1.350 . S
C1373 C1376 1.463 . S
C1373 C1378 1.350 . S
C1373 N1381 1.427 . S
C1374 H1365 0.930 . S
C1374 C1372 1.378 . S
C1374 C1375 1.367 . S
C1375 C1374 1.367 . S
C1375 C1377 1.433 . S
C1376 C1372 1.350 . S
C1376 C1373 1.463 . S
C1376 N1380 1.427 . S
C1377 H1367 0.929 . S
C1377 C1375 1.433 . S
C1377 N1380 1.384 . S
C1378 H1369 0.929 . S
C1378 C1370 1.378 . S
C1378 C1373 1.350 . S
C1379 H1366 0.929 . S
C1379 C1371 1.433 . S
C1379 N1381 1.384 . S
N1380 C1376 1.427 . S
N1380 C1377 1.384 . S
N1381 C1373 1.427 . S
N1381 C1379 1.384 . S
H1382 C1388 0.930 . S
H1383 C1392 0.930 . S
H1384 C1397 0.929 . S
H1385 C1395 0.929 . S
H1386 C1390 0.929 . S
H1387 C1396 0.929 . S
C1388 H1382 0.930 . S
C1388 C1389 1.367 . S
C1388 C1396 1.378 . S
C1389 C1388 1.367 . S
C1389 C1397 1.433 . S
C1390 H1386 0.929 . S
C1390 C1392 1.378 . S
C1390 C1394 1.350 . S
C1391 C1394 1.463 . S
C1391 C1396 1.350 . S
C1391 N1399 1.427 . S
C1392 H1383 0.930 . S
C1392 C1390 1.378 . S
C1392 C1393 1.367 . S
C1393 C1392 1.367 . S
C1393 C1395 1.433 . S
C1394 C1390 1.350 . S
C1394 C1391 1.463 . S
C1394 N1398 1.427 . S
C1395 H1385 0.929 . S
C1395 C1393 1.433 . S
C1395 N1398 1.384 . S
C1396 H1387 0.929 . S
C1396 C1388 1.378 . S
C1396 C1391 1.350 . S
C1397 H1384 0.929 . S
C1397 C1389 1.433 . S
C1397 N1399 1.384 . S
N1398 C1394 1.427 . S
N1398 C1395 1.384 . S
N1399 C1391 1.427 . S
N1399 C1397 1.384 . S
H1400 C1406 0.930 . S
H1401 C1410 0.930 . S
H1402 C1415 0.929 . S
H1403 C1413 0.929 . S
H1404 C1408 0.929 . S
H1405 C1414 0.929 . S
C1406 H1400 0.930 . S
C1406 C1407 1.367 . S
C1406 C1414 1.378 . S
C1407 C1406 1.367 . S
C1407 C1415 1.433 . S
C1408 H1404 0.929 . S
C1408 C1410 1.378 . S
C1408 C1412 1.350 . S
C1409 C1412 1.463 . S
C1409 C1414 1.350 . S
C1409 N1417 1.427 . S
C1410 H1401 0.930 . S
C1410 C1408 1.378 . S
C1410 C1411 1.367 . S
C1411 C1410 1.367 . S
C1411 C1413 1.433 . S
C1412 C1408 1.350 . S
C1412 C1409 1.463 . S
C1412 N1416 1.427 . S
C1413 H1403 0.929 . S
C1413 C1411 1.433 . S
C1413 N1416 1.384 . S
C1414 H1405 0.929 . S
C1414 C1406 1.378 . S
C1414 C1409 1.350 . S
C1415 H1402 0.929 . S
C1415 C1407 1.433 . S
C1415 N1417 1.384 . S
N1416 C1412 1.427 . S
N1416 C1413 1.384 . S
N1417 C1409 1.427 . S
N1417 C1415 1.384 . S
H1418 C1424 0.930 . S
H1419 C1428 0.930 . S
H1420 C1433 0.929 . S
H1421 C1431 0.929 . S
H1422 C1426 0.929 . S
H1423 C1432 0.929 . S
C1424 H1418 0.930 . S
C1424 C1425 1.367 . S
C1424 C1432 1.378 . S
C1425 C1424 1.367 . S
C1425 C1433 1.433 . S
C1426 H1422 0.929 . S
C1426 C1428 1.378 . S
C1426 C1430 1.350 . S
C1427 C1430 1.463 . S
C1427 C1432 1.350 . S
C1427 N1435 1.427 . S
C1428 H1419 0.930 . S
C1428 C1426 1.378 . S
C1428 C1429 1.367 . S
C1429 C1428 1.367 . S
C1429 C1431 1.433 . S
C1430 C1426 1.350 . S
C1430 C1427 1.463 . S
C1430 N1434 1.427 . S
C1431 H1421 0.929 . S
C1431 C1429 1.433 . S
C1431 N1434 1.384 . S
C1432 H1423 0.929 . S
C1432 C1424 1.378 . S
C1432 C1427 1.350 . S
C1433 H1420 0.929 . S
C1433 C1425 1.433 . S
C1433 N1435 1.384 . S
N1434 C1430 1.427 . S
N1434 C1431 1.384 . S
N1435 C1427 1.427 . S
N1435 C1433 1.384 . S
H1436 C1442 0.930 . S
H1437 C1446 0.930 . S
H1438 C1451 0.929 . S
H1439 C1449 0.929 . S
H1440 C1444 0.929 . S
H1441 C1450 0.929 . S
C1442 H1436 0.930 . S
C1442 C1443 1.367 . S
C1442 C1450 1.378 . S
C1443 C1442 1.367 . S
C1443 C1451 1.433 . S
C1444 H1440 0.929 . S
C1444 C1446 1.378 . S
C1444 C1448 1.350 . S
C1445 C1448 1.463 . S
C1445 C1450 1.350 . S
C1445 N1453 1.427 . S
C1446 H1437 0.930 . S
C1446 C1444 1.378 . S
C1446 C1447 1.367 . S
C1447 C1446 1.367 . S
C1447 C1449 1.433 . S
C1448 C1444 1.350 . S
C1448 C1445 1.463 . S
C1448 N1452 1.427 . S
C1449 H1439 0.929 . S
C1449 C1447 1.433 . S
C1449 N1452 1.384 . S
C1450 H1441 0.929 . S
C1450 C1442 1.378 . S
C1450 C1445 1.350 . S
C1451 H1438 0.929 . S
C1451 C1443 1.433 . S
C1451 N1453 1.384 . S
N1452 C1448 1.427 . S
N1452 C1449 1.384 . S
N1453 C1445 1.427 . S
N1453 C1451 1.384 . S
H1454 C1460 0.930 . S
H1455 C1464 0.930 . S
H1456 C1469 0.929 . S
H1457 C1467 0.929 . S
H1458 C1462 0.929 . S
H1459 C1468 0.929 . S
C1460 H1454 0.930 . S
C1460 C1461 1.367 . S
C1460 C1468 1.378 . S
C1461 C1460 1.367 . S
C1461 C1469 1.433 . S
C1462 H1458 0.929 . S
C1462 C1464 1.378 . S
C1462 C1466 1.350 . S
C1463 C1466 1.463 . S
C1463 C1468 1.350 . S
C1463 N1471 1.427 . S
C1464 H1455 0.930 . S
C1464 C1462 1.378 . S
C1464 C1465 1.367 . S
C1465 C1464 1.367 . S
C1465 C1467 1.433 . S
C1466 C1462 1.350 . S
C1466 C1463 1.463 . S
C1466 N1470 1.427 . S
C1467 H1457 0.929 . S
C1467 C1465 1.433 . S
C1467 N1470 1.384 . S
C1468 H1459 0.929 . S
C1468 C1460 1.378 . S
C1468 C1463 1.350 . S
C1469 H1456 0.929 . S
C1469 C1461 1.433 . S
C1469 N1471 1.384 . S
N1470 C1466 1.427 . S
N1470 C1467 1.384 . S
N1471 C1463 1.427 . S
N1471 C1469 1.384 . S
C471 C5 2.878 1_455 S
C475 C382 2.875 . S
C489 C324 2.878 . S
C493 C34 2.876 . S
C507 C63 2.879 . S
C511 C353 2.876 . S
C525 C92 2.876 . S
C529 C295 2.878 . S
C543 C440 2.878 . S
C547 C121 2.880 1_455 S
C561 C150 2.879 . S
C565 C266 2.880 . S
C579 C411 2.879 . S
C583 C179 2.877 . S
C597 C208 2.878 . S
C601 C237 2.880 . S
C615 C102 1.389 . S
C619 C3 1.430 . S
C633 C15 1.377 . S
C637 C32 1.433 . S
C651 C44 1.378 . S
C655 C61 1.434 . S
C669 C90 1.433 . S
C673 C73 1.386 . S
C687 C160 1.385 . S
C691 C119 1.433 . S
C705 C189 1.375 . S
C709 C148 1.438 . S
C723 C218 1.386 . S
C727 C177 1.430 . S
C741 C131 1.379 . S
C745 C206 1.432 . S
C759 C137 1.207 . S
C763 C269 1.374 . S
C777 C253 1.199 . S
C781 C124 1.368 1_545 S
C795 C195 1.182 . S
C799 C240 1.364 . S
C813 C282 1.199 . S
C817 C182 1.367 1_565 S
C831 C298 1.373 . S
C835 C21 1.209 . S
C849 C66 1.366 1_545 S
C853 C311 1.194 . S
C867 C327 1.372 . S
C871 C79 1.207 . S
C885 C8 1.371 1_565 S
C889 C340 1.208 . S
C903 C334 1.390 . S
C907 C351 1.430 . S
C921 C363 1.379 . S
C925 C293 1.433 . S
C939 C380 1.433 . S
C943 C305 1.379 . S
C957 C322 1.436 . S
C961 C392 1.381 . S
C975 C409 1.438 . S
C979 C247 1.374 . S
C993 C450 1.377 . S
C997 C235 1.435 . S
C1011 C276 1.373 . S
C1015 C438 1.438 . S
C1029 C421 1.374 . S
C1033 C264 1.437 . S
C1047 C211 1.373 . S
C1051 C427 1.206 . S
C1065 C414 1.366 . S
C1069 C166 1.194 . S
C1083 C456 1.185 . S
C1087 C153 1.364 . S
C1101 C224 1.205 . S
C1105 C443 1.370 . S
C1119 C37 1.364 . S
C1123 C369 1.179 . S
C1137 C50 1.206 . S
C1141 C385 1.373 . S
C1155 C398 1.206 . S
C1159 C95 1.371 . S
C1173 C356 1.365 . S
C1177 C108 1.189 . S
C1191 C158 0.805 . S
C1195 C13 0.814 . S
C1209 C187 0.827 . S
C1213 C42 0.841 . S
C1227 C216 0.841 . S
C1231 C71 0.826 . S
C1245 C100 0.818 . S
C1249 C129 0.840 . S
C1263 C126 1.653 . S
C1267 C300 1.647 . S
C1281 C242 1.644 . S
C1285 C68 1.646 . S
C1299 C329 1.649 . S
C1303 C184 1.643 . S
C1317 C10 1.642 . S
C1321 C271 1.653 . S
C1335 C361 0.841 . S
C1339 C245 0.828 . S
C1353 C303 0.835 . S
C1357 C448 0.806 . S
C1371 C390 0.812 . S
C1375 C274 0.808 . S
C1389 C419 0.840 . S
C1393 C332 0.811 . S
C1407 C39 1.653 . S
C1411 C416 1.646 . S
C1425 C387 1.653 . S
C1429 C155 1.647 . S
C1443 C97 1.642 . S
C1447 C445 1.649 . S
C1461 C213 1.653 . S
C1465 C358 1.645 . S
