# Generated by pormake.
# Topology deh, (3)-cn, num edge types: 1
# Building blocks:
#     Node 0, Type 0, BuildingBlock: WUSLED_clean_sbu_0, # of connection points: 3
#     Node 1, Type 0, BuildingBlock: WUSLED_clean_sbu_0, # of connection points: 3
#     Node 2, Type 0, BuildingBlock: WUSLED_clean_sbu_0, # of connection points: 3
#     Node 3, Type 0, BuildingBlock: WUSLED_clean_sbu_0, # of connection points: 3
#     Node 4, Type 0, BuildingBlock: WUSLED_clean_sbu_0, # of connection points: 3
#     Node 5, Type 0, BuildingBlock: WUSLED_clean_sbu_0, # of connection points: 3
#     Node 6, Type 0, BuildingBlock: WUSLED_clean_sbu_0, # of connection points: 3
#     Node 7, Type 0, BuildingBlock: WUSLED_clean_sbu_0, # of connection points: 3
#     Node 8, Type 0, BuildingBlock: WUSLED_clean_sbu_0, # of connection points: 3
#     Node 9, Type 0, BuildingBlock: WUSLED_clean_sbu_0, # of connection points: 3
#     Node 10, Type 0, BuildingBlock: WUSLED_clean_sbu_0, # of connection points: 3
#     Node 11, Type 0, BuildingBlock: WUSLED_clean_sbu_0, # of connection points: 3
#     Node 12, Type 0, BuildingBlock: WUSLED_clean_sbu_0, # of connection points: 3
#     Node 13, Type 0, BuildingBlock: WUSLED_clean_sbu_0, # of connection points: 3
#     Node 14, Type 0, BuildingBlock: WUSLED_clean_sbu_0, # of connection points: 3
#     Node 15, Type 0, BuildingBlock: WUSLED_clean_sbu_0, # of connection points: 3
#     Node 16, Type 0, BuildingBlock: WUSLED_clean_sbu_0, # of connection points: 3
#     Node 17, Type 0, BuildingBlock: WUSLED_clean_sbu_0, # of connection points: 3
#     Node 18, Type 0, BuildingBlock: WUSLED_clean_sbu_0, # of connection points: 3
#     Node 19, Type 0, BuildingBlock: WUSLED_clean_sbu_0, # of connection points: 3
#     Node 20, Type 0, BuildingBlock: WUSLED_clean_sbu_0, # of connection points: 3
#     Node 21, Type 0, BuildingBlock: WUSLED_clean_sbu_0, # of connection points: 3
#     Node 22, Type 0, BuildingBlock: WUSLED_clean_sbu_0, # of connection points: 3
#     Node 23, Type 0, BuildingBlock: WUSLED_clean_sbu_0, # of connection points: 3
#     Node 24, Type 0, BuildingBlock: WUSLED_clean_sbu_0, # of connection points: 3
#     Node 25, Type 0, BuildingBlock: WUSLED_clean_sbu_0, # of connection points: 3
#     Node 26, Type 0, BuildingBlock: WUSLED_clean_sbu_0, # of connection points: 3
#     Node 27, Type 0, BuildingBlock: WUSLED_clean_sbu_0, # of connection points: 3
#     Node 28, Type 0, BuildingBlock: WUSLED_clean_sbu_0, # of connection points: 3
#     Node 29, Type 0, BuildingBlock: WUSLED_clean_sbu_0, # of connection points: 3
#     Node 30, Type 0, BuildingBlock: WUSLED_clean_sbu_0, # of connection points: 3
#     Node 31, Type 0, BuildingBlock: WUSLED_clean_sbu_0, # of connection points: 3
#     Edge 32, Type (0, 0), BuildingBlock: EZIPEK_clean_linker_0, # of connection points: 2
#     Edge 33, Type (0, 0), BuildingBlock: EZIPEK_clean_linker_0, # of connection points: 2
#     Edge 34, Type (0, 0), BuildingBlock: EZIPEK_clean_linker_0, # of connection points: 2
#     Edge 35, Type (0, 0), BuildingBlock: EZIPEK_clean_linker_0, # of connection points: 2
#     Edge 36, Type (0, 0), BuildingBlock: EZIPEK_clean_linker_0, # of connection points: 2
#     Edge 37, Type (0, 0), BuildingBlock: EZIPEK_clean_linker_0, # of connection points: 2
#     Edge 38, Type (0, 0), BuildingBlock: EZIPEK_clean_linker_0, # of connection points: 2
#     Edge 39, Type (0, 0), BuildingBlock: EZIPEK_clean_linker_0, # of connection points: 2
#     Edge 40, Type (0, 0), BuildingBlock: EZIPEK_clean_linker_0, # of connection points: 2
#     Edge 41, Type (0, 0), BuildingBlock: EZIPEK_clean_linker_0, # of connection points: 2
#     Edge 42, Type (0, 0), BuildingBlock: EZIPEK_clean_linker_0, # of connection points: 2
#     Edge 43, Type (0, 0), BuildingBlock: EZIPEK_clean_linker_0, # of connection points: 2
#     Edge 44, Type (0, 0), BuildingBlock: EZIPEK_clean_linker_0, # of connection points: 2
#     Edge 45, Type (0, 0), BuildingBlock: EZIPEK_clean_linker_0, # of connection points: 2
#     Edge 46, Type (0, 0), BuildingBlock: EZIPEK_clean_linker_0, # of connection points: 2
#     Edge 47, Type (0, 0), BuildingBlock: EZIPEK_clean_linker_0, # of connection points: 2
#     Edge 48, Type (0, 0), BuildingBlock: EZIPEK_clean_linker_0, # of connection points: 2
#     Edge 49, Type (0, 0), BuildingBlock: EZIPEK_clean_linker_0, # of connection points: 2
#     Edge 50, Type (0, 0), BuildingBlock: EZIPEK_clean_linker_0, # of connection points: 2
#     Edge 51, Type (0, 0), BuildingBlock: EZIPEK_clean_linker_0, # of connection points: 2
#     Edge 52, Type (0, 0), BuildingBlock: EZIPEK_clean_linker_0, # of connection points: 2
#     Edge 53, Type (0, 0), BuildingBlock: EZIPEK_clean_linker_0, # of connection points: 2
#     Edge 54, Type (0, 0), BuildingBlock: EZIPEK_clean_linker_0, # of connection points: 2
#     Edge 55, Type (0, 0), BuildingBlock: EZIPEK_clean_linker_0, # of connection points: 2
#     Edge 56, Type (0, 0), BuildingBlock: EZIPEK_clean_linker_0, # of connection points: 2
#     Edge 57, Type (0, 0), BuildingBlock: EZIPEK_clean_linker_0, # of connection points: 2
#     Edge 58, Type (0, 0), BuildingBlock: EZIPEK_clean_linker_0, # of connection points: 2
#     Edge 59, Type (0, 0), BuildingBlock: EZIPEK_clean_linker_0, # of connection points: 2
#     Edge 60, Type (0, 0), BuildingBlock: EZIPEK_clean_linker_0, # of connection points: 2
#     Edge 61, Type (0, 0), BuildingBlock: EZIPEK_clean_linker_0, # of connection points: 2
#     Edge 62, Type (0, 0), BuildingBlock: EZIPEK_clean_linker_0, # of connection points: 2
#     Edge 63, Type (0, 0), BuildingBlock: EZIPEK_clean_linker_0, # of connection points: 2
#     Edge 64, Type (0, 0), BuildingBlock: EZIPEK_clean_linker_0, # of connection points: 2
#     Edge 65, Type (0, 0), BuildingBlock: EZIPEK_clean_linker_0, # of connection points: 2
#     Edge 66, Type (0, 0), BuildingBlock: EZIPEK_clean_linker_0, # of connection points: 2
#     Edge 67, Type (0, 0), BuildingBlock: EZIPEK_clean_linker_0, # of connection points: 2
#     Edge 68, Type (0, 0), BuildingBlock: EZIPEK_clean_linker_0, # of connection points: 2
#     Edge 69, Type (0, 0), BuildingBlock: EZIPEK_clean_linker_0, # of connection points: 2
#     Edge 70, Type (0, 0), BuildingBlock: EZIPEK_clean_linker_0, # of connection points: 2
#     Edge 71, Type (0, 0), BuildingBlock: EZIPEK_clean_linker_0, # of connection points: 2
#     Edge 72, Type (0, 0), BuildingBlock: EZIPEK_clean_linker_0, # of connection points: 2
#     Edge 73, Type (0, 0), BuildingBlock: EZIPEK_clean_linker_0, # of connection points: 2
#     Edge 74, Type (0, 0), BuildingBlock: EZIPEK_clean_linker_0, # of connection points: 2
#     Edge 75, Type (0, 0), BuildingBlock: EZIPEK_clean_linker_0, # of connection points: 2
#     Edge 76, Type (0, 0), BuildingBlock: EZIPEK_clean_linker_0, # of connection points: 2
#     Edge 77, Type (0, 0), BuildingBlock: EZIPEK_clean_linker_0, # of connection points: 2
#     Edge 78, Type (0, 0), BuildingBlock: EZIPEK_clean_linker_0, # of connection points: 2
#     Edge 79, Type (0, 0), BuildingBlock: EZIPEK_clean_linker_0, # of connection points: 2
# Relax obj value: 0.005
# Max RMSD: 0.036
# Mean RMSD: 0.011
data_MOF--net-deh--node1-WUSLED_clean_sbu_0--edge1-EZIPEK_clean_linker_0
_symmetry_space_group_name_H-M    P1
_symmetry_Int_Tables_number       1
_symmetry_cell_setting            triclinic
loop_
_symmetry_equiv_pos_as_xyz
'x, y, z'
_cell_length_a     58.994931
_cell_length_b     60.955712
_cell_length_c     127.91305
_cell_angle_alpha  90.039052
_cell_angle_beta   89.976334
_cell_angle_gamma 89.932869
loop_
_atom_site_label
_atom_site_type_symbol
_atom_site_fract_x
_atom_site_fract_y
_atom_site_fract_z
_atom_type_partial_charge
C0 C 0.11096 0.04586 0.31359 0.0
C1 C 0.10046 0.04422 0.32342 0.0
C2 C 0.06341 0.0448 0.31512 0.0
C3 C 0.07679 0.04364 0.32418 0.0
C4 C 0.07393 0.0464 0.30531 0.0
C5 C 0.09757 0.0469 0.30455 0.0
U6 U 0.16937 0.05296 0.32582 0.0
O7 O 0.20173 0.03651 0.32232 0.0
O8 O 0.19864 0.07214 0.32039 0.0
C9 C 0.21124 0.05463 0.31888 0.0
C10 C 0.13577 0.04706 0.31267 0.0
C11 C 0.22197 0.05313 0.30852 0.0
C12 C 0.21933 0.04824 0.28969 0.0
C13 C 0.20897 0.04898 0.29954 0.0
C14 C 0.25575 0.05566 0.29771 0.0
C15 C 0.24277 0.05167 0.28872 0.0
C16 C 0.2454 0.05638 0.30755 0.0
C17 C 0.17231 0.06229 0.35568 0.0
C18 C 0.20457 0.05767 0.36734 0.0
C19 C 0.17214 0.0792 0.37288 0.0
C20 C 0.16154 0.0751 0.36332 0.0
C21 C 0.19369 0.07051 0.37497 0.0
C22 C 0.19398 0.05365 0.35771 0.0
C23 C 0.16029 0.05806 0.34578 0.0
O24 O 0.1446 0.06638 0.31467 0.0
O25 O 0.1471 0.0308 0.31695 0.0
O26 O 0.16358 0.03878 0.3414 0.0
O27 O 0.16012 0.07432 0.33905 0.0
H28 H 0.11056 0.04353 0.33048 0.0
H29 H 0.06889 0.04248 0.3318 0.0
H30 H 0.06382 0.04735 0.29826 0.0
H31 H 0.10541 0.04826 0.29692 0.0
H32 H 0.20907 0.04519 0.28282 0.0
H33 H 0.19084 0.0465 0.30014 0.0
H34 H 0.27385 0.05837 0.29709 0.0
H35 H 0.25567 0.05965 0.3144 0.0
H36 H 0.2212 0.05083 0.36884 0.0
H37 H 0.1635 0.08912 0.37868 0.0
H38 H 0.14484 0.08189 0.3619 0.0
H39 H 0.20263 0.04377 0.35191 0.0
C40 C 0.26562 0.85398 0.56033 0.0
C41 C 0.26569 0.8437 0.57016 0.0
C42 C 0.26722 0.80795 0.56176 0.0
C43 C 0.26653 0.82079 0.57086 0.0
C44 C 0.26734 0.81825 0.55195 0.0
C45 C 0.26656 0.84114 0.55124 0.0
U46 U 0.25512 0.90961 0.57285 0.0
O47 O 0.27073 0.94185 0.5701 0.0
O48 O 0.23424 0.93739 0.56746 0.0
C49 C 0.25185 0.95042 0.56644 0.0
C50 C 0.26361 0.87797 0.55947 0.0
C51 C 0.25338 0.9625 0.55642 0.0
C52 C 0.27343 0.97263 0.54048 0.0
C53 C 0.27224 0.96044 0.54975 0.0
C54 C 0.23685 0.98884 0.54432 0.0
C55 C 0.25573 0.98691 0.5377 0.0
C56 C 0.23573 0.9768 0.55361 0.0
C57 C 0.24342 0.91008 0.60258 0.0
C58 C 0.22498 0.93904 0.61255 0.0
C59 C 0.24154 0.90789 0.62152 0.0
C60 C 0.24847 0.89915 0.61194 0.0
C61 C 0.22945 0.9277 0.62188 0.0
C62 C 0.23196 0.93028 0.60293 0.0
C63 C 0.24907 0.89935 0.5926 0.0
O64 O 0.24318 0.88578 0.56118 0.0
O65 O 0.2796 0.88939 0.56411 0.0
O66 O 0.26905 0.9039 0.58862 0.0
O67 O 0.2328 0.89887 0.58559 0.0
H68 H 0.26482 0.85338 0.57725 0.0
H69 H 0.26633 0.81307 0.57849 0.0
H70 H 0.2678 0.80855 0.54485 0.0
H71 H 0.2664 0.84881 0.54361 0.0
H72 H 0.28813 0.97095 0.53547 0.0
H73 H 0.2861 0.94952 0.55169 0.0
H74 H 0.22304 0.99978 0.54231 0.0
H75 H 0.22107 0.97873 0.55863 0.0
H76 H 0.21559 0.95432 0.61269 0.0
H77 H 0.24506 0.89892 0.62865 0.0
H78 H 0.25727 0.88353 0.61181 0.0
H79 H 0.22793 0.93897 0.59578 0.0
C80 C 0.41688 0.9802 0.81378 0.0
C81 C 0.42745 0.9813 0.82361 0.0
C82 C 0.46444 0.98128 0.81523 0.0
C83 C 0.45112 0.98187 0.82433 0.0
C84 C 0.45385 0.98028 0.80543 0.0
C85 C 0.43021 0.97976 0.80471 0.0
U86 U 0.35845 0.97355 0.82609 0.0
O87 O 0.32605 0.98971 0.8224 0.0
O88 O 0.32926 0.95401 0.82083 0.0
C89 C 0.31662 0.97141 0.81914 0.0
C90 C 0.39208 0.9789 0.81288 0.0
C91 C 0.30593 0.97245 0.80876 0.0
C92 C 0.30858 0.97706 0.78991 0.0
C93 C 0.31892 0.97651 0.79976 0.0
C94 C 0.27218 0.96956 0.79796 0.0
C95 C 0.28516 0.97353 0.78896 0.0
C96 C 0.28252 0.96903 0.8078 0.0
C97 C 0.35527 0.96594 0.85599 0.0
C98 C 0.3227 0.95232 0.86566 0.0
C99 C 0.35607 0.96486 0.87497 0.0
C100 C 0.3665 0.96991 0.86546 0.0
C101 C 0.33424 0.95576 0.87513 0.0
C102 C 0.33315 0.95742 0.85613 0.0
C103 C 0.36747 0.96972 0.84612 0.0
O104 O 0.38331 0.95966 0.8151 0.0
O105 O 0.38071 0.99533 0.81701 0.0
O106 O 0.36391 0.98871 0.84154 0.0
O107 O 0.36779 0.95312 0.83956 0.0
H108 H 0.41739 0.98154 0.8307 0.0
H109 H 0.45907 0.98257 0.83195 0.0
H110 H 0.46391 0.97976 0.79834 0.0
H111 H 0.42232 0.97883 0.79707 0.0
H112 H 0.31882 0.98011 0.78304 0.0
H113 H 0.33704 0.97913 0.80036 0.0
H114 H 0.2541 0.96678 0.79735 0.0
H115 H 0.27226 0.96584 0.81466 0.0
H116 H 0.30587 0.94523 0.86566 0.0
H117 H 0.36522 0.96753 0.8822 0.0
H118 H 0.38357 0.97645 0.86549 0.0
H119 H 0.32423 0.95426 0.84888 0.0
C120 C 0.26483 0.17289 0.06046 0.0
C121 C 0.26473 0.18296 0.07034 0.0
C122 C 0.26384 0.21891 0.06214 0.0
C123 C 0.2642 0.20586 0.07118 0.0
C124 C 0.26375 0.20882 0.05228 0.0
C125 C 0.26423 0.18594 0.05145 0.0
U126 U 0.27427 0.1169 0.07273 0.0
O127 O 0.25823 0.08493 0.0698 0.0
O128 O 0.29482 0.08891 0.06729 0.0
C129 C 0.27704 0.07613 0.06618 0.0
C130 C 0.26648 0.14889 0.05947 0.0
C131 C 0.2755 0.06413 0.05614 0.0
C132 C 0.25569 0.05454 0.04006 0.0
C133 C 0.25696 0.06675 0.04932 0.0
C134 C 0.29157 0.03722 0.04416 0.0
C135 C 0.27298 0.03968 0.03742 0.0
C136 C 0.29277 0.04928 0.05345 0.0
C137 C 0.28544 0.11581 0.10252 0.0
C138 C 0.30496 0.08762 0.11253 0.0
C139 C 0.28551 0.11722 0.1215 0.0
C140 C 0.27883 0.12594 0.11188 0.0
C141 C 0.29895 0.09824 0.12188 0.0
C142 C 0.2982 0.09634 0.10289 0.0
C143 C 0.28012 0.12673 0.09255 0.0
O144 O 0.28676 0.14076 0.06121 0.0
O145 O 0.25024 0.13761 0.06401 0.0
O146 O 0.26013 0.12254 0.08848 0.0
O147 O 0.29651 0.12715 0.08559 0.0
H148 H 0.26534 0.17312 0.07739 0.0
H149 H 0.26436 0.21342 0.07885 0.0
H150 H 0.26354 0.21868 0.04523 0.0
H151 H 0.26441 0.17843 0.04377 0.0
H152 H 0.24121 0.05665 0.03494 0.0
H153 H 0.2434 0.0781 0.05117 0.0
H154 H 0.30507 0.02583 0.04225 0.0
H155 H 0.30718 0.04692 0.05858 0.0
H156 H 0.31538 0.07299 0.1127 0.0
H157 H 0.28079 0.12563 0.12864 0.0
H158 H 0.26901 0.14097 0.11175 0.0
H159 H 0.30344 0.08826 0.09574 0.0
C160 C 0.1106 0.98117 0.72305 0.0
C161 C 0.1002 0.98245 0.71319 0.0
C162 C 0.06307 0.9823 0.72143 0.0
C163 C 0.07654 0.98305 0.71239 0.0
C164 C 0.07349 0.98113 0.73127 0.0
C165 C 0.09712 0.98058 0.73207 0.0
U166 U 0.16915 0.97429 0.71089 0.0
O167 O 0.20157 0.99021 0.71468 0.0
O168 O 0.19819 0.95452 0.71619 0.0
C169 C 0.21089 0.97184 0.71794 0.0
C170 C 0.13539 0.97976 0.72403 0.0
C171 C 0.22151 0.97275 0.72833 0.0
C172 C 0.2191 0.97897 0.74708 0.0
C173 C 0.20882 0.9785 0.73722 0.0
C174 C 0.2548 0.96794 0.73928 0.0
C175 C 0.24214 0.97364 0.74817 0.0
C176 C 0.24454 0.96751 0.72942 0.0
C177 C 0.17258 0.96687 0.68097 0.0
C178 C 0.20423 0.95149 0.6712 0.0
C179 C 0.17233 0.96744 0.66198 0.0
C180 C 0.16205 0.97253 0.67152 0.0
C181 C 0.19331 0.95659 0.66176 0.0
C182 C 0.19393 0.95663 0.68077 0.0
C183 C 0.16034 0.97065 0.69083 0.0
O184 O 0.14413 0.96048 0.7218 0.0
O185 O 0.14687 0.99615 0.71997 0.0
O186 O 0.16392 0.98959 0.69546 0.0
O187 O 0.15984 0.95402 0.69737 0.0
H188 H 0.11038 0.9828 0.70614 0.0
H189 H 0.06872 0.98389 0.70474 0.0
H190 H 0.06331 0.98048 0.73832 0.0
H191 H 0.10488 0.9795 0.73973 0.0
H192 H 0.20909 0.98336 0.75387 0.0
H193 H 0.19099 0.98251 0.73652 0.0
H194 H 0.27258 0.96375 0.74 0.0
H195 H 0.25456 0.96299 0.72265 0.0
H196 H 0.22039 0.94304 0.67116 0.0
H197 H 0.16366 0.97144 0.65476 0.0
H198 H 0.14557 0.98041 0.67153 0.0
H199 H 0.20234 0.95216 0.68799 0.0
C200 C 0.26245 0.85397 0.97664 0.0
C201 C 0.26243 0.84371 0.9668 0.0
C202 C 0.26097 0.80794 0.97516 0.0
C203 C 0.26165 0.82081 0.96606 0.0
C204 C 0.26079 0.81822 0.98498 0.0
C205 C 0.26152 0.84111 0.98571 0.0
U206 U 0.27264 0.90972 0.96421 0.0
O207 O 0.25699 0.94194 0.9671 0.0
O208 O 0.29351 0.93745 0.9696 0.0
C209 C 0.27589 0.95047 0.97074 0.0
C210 C 0.26441 0.87796 0.97753 0.0
C211 C 0.27451 0.96256 0.98079 0.0
C212 C 0.25321 0.97616 0.99581 0.0
C213 C 0.25423 0.9638 0.98658 0.0
C214 C 0.29269 0.98606 0.99372 0.0
C215 C 0.27244 0.98739 0.99943 0.0
C216 C 0.29369 0.97385 0.98447 0.0
C217 C 0.28394 0.91043 0.93442 0.0
C218 C 0.30389 0.93823 0.92436 0.0
C219 C 0.28399 0.90891 0.91544 0.0
C220 C 0.27717 0.90036 0.92507 0.0
C221 C 0.29772 0.92766 0.91503 0.0
C222 C 0.297 0.92968 0.93402 0.0
C223 C 0.27844 0.89966 0.94441 0.0
O224 O 0.2848 0.88578 0.97578 0.0
O225 O 0.24833 0.8894 0.97296 0.0
O226 O 0.2585 0.90417 0.94846 0.0
O227 O 0.2948 0.89907 0.95138 0.0
H228 H 0.26329 0.85341 0.95971 0.0
H229 H 0.26188 0.8131 0.95843 0.0
H230 H 0.26034 0.8085 0.99206 0.0
H231 H 0.26164 0.84876 0.99336 0.0
H232 H 0.23742 0.97705 1.00011 0.0
H233 H 0.2391 0.9554 0.98396 0.0
H234 H 0.30769 0.99466 0.99638 0.0
H235 H 0.30946 0.97335 0.98013 0.0
H236 H 0.31453 0.95269 0.92417 0.0
H237 H 0.27914 0.90054 0.90831 0.0
H238 H 0.26712 0.88549 0.92523 0.0
H239 H 0.30237 0.93772 0.94116 0.0
C240 C 0.41754 0.0445 0.22305 0.0
C241 C 0.42805 0.04262 0.21323 0.0
C242 C 0.46509 0.04344 0.22153 0.0
C243 C 0.45172 0.04204 0.21248 0.0
C244 C 0.45456 0.04525 0.23133 0.0
C245 C 0.43092 0.04576 0.23208 0.0
U246 U 0.35912 0.05133 0.21077 0.0
O247 O 0.32669 0.03528 0.21445 0.0
O248 O 0.32995 0.07097 0.21606 0.0
C249 C 0.31729 0.0536 0.21774 0.0
C250 C 0.39273 0.04585 0.22396 0.0
C251 C 0.30658 0.05257 0.22812 0.0
C252 C 0.30889 0.04623 0.24686 0.0
C253 C 0.31922 0.04677 0.237 0.0
C254 C 0.27322 0.05729 0.23904 0.0
C255 C 0.28584 0.05155 0.24793 0.0
C256 C 0.28354 0.05778 0.2292 0.0
C257 C 0.35598 0.05905 0.18088 0.0
C258 C 0.32359 0.07311 0.17121 0.0
C259 C 0.35678 0.06003 0.1619 0.0
C260 C 0.36715 0.05487 0.17141 0.0
C261 C 0.33509 0.06947 0.16174 0.0
C262 C 0.33398 0.0679 0.18074 0.0
C263 C 0.36816 0.05519 0.19074 0.0
O264 O 0.38397 0.06512 0.22177 0.0
O265 O 0.38135 0.02946 0.21984 0.0
O266 O 0.36457 0.0362 0.19531 0.0
O267 O 0.36851 0.07176 0.19732 0.0
H268 H 0.41795 0.04176 0.20617 0.0
H269 H 0.45963 0.04071 0.20486 0.0
H270 H 0.46466 0.0464 0.23838 0.0
H271 H 0.42308 0.04732 0.23971 0.0
H272 H 0.31886 0.04182 0.25365 0.0
H273 H 0.33706 0.04278 0.23631 0.0
H274 H 0.25544 0.06147 0.23975 0.0
H275 H 0.27357 0.06235 0.22242 0.0
H276 H 0.30687 0.08047 0.17121 0.0
H277 H 0.36589 0.05719 0.15467 0.0
H278 H 0.38413 0.04807 0.17137 0.0
H279 H 0.32511 0.07123 0.18799 0.0
C280 C 0.26409 0.17196 0.47657 0.0
C281 C 0.25792 0.18247 0.46722 0.0
C282 C 0.26569 0.21798 0.47508 0.0
C283 C 0.25869 0.20537 0.46649 0.0
C284 C 0.27224 0.20745 0.48436 0.0
C285 C 0.27142 0.18456 0.4851 0.0
U286 U 0.25274 0.11622 0.46443 0.0
O287 O 0.26853 0.08395 0.46703 0.0
O288 O 0.23224 0.08855 0.47016 0.0
C289 C 0.24988 0.07547 0.47097 0.0
C290 C 0.26225 0.14799 0.47758 0.0
C291 C 0.25193 0.06336 0.48098 0.0
C292 C 0.27378 0.05083 0.49601 0.0
C293 C 0.27222 0.06309 0.48678 0.0
C294 C 0.23484 0.03911 0.49388 0.0
C295 C 0.25509 0.03876 0.49963 0.0
C296 C 0.23331 0.05122 0.48463 0.0
C297 C 0.23871 0.11574 0.43488 0.0
C298 C 0.23914 0.08476 0.42287 0.0
C299 C 0.22041 0.11863 0.41793 0.0
C300 C 0.22634 0.1279 0.42753 0.0
C301 C 0.22678 0.09704 0.41552 0.0
C302 C 0.24501 0.09404 0.43253 0.0
C303 C 0.24503 0.12639 0.4448 0.0
O304 O 0.24173 0.1401 0.47627 0.0
O305 O 0.27789 0.13654 0.47269 0.0
O306 O 0.26533 0.12195 0.44848 0.0
O307 O 0.22925 0.12683 0.45205 0.0
H308 H 0.25223 0.17298 0.46056 0.0
H309 H 0.25357 0.21327 0.45928 0.0
H310 H 0.27765 0.21698 0.49105 0.0
H311 H 0.27622 0.17671 0.49236 0.0
H312 H 0.28956 0.05071 0.50034 0.0
H313 H 0.2869 0.07222 0.48417 0.0
H314 H 0.22026 0.02987 0.49654 0.0
H315 H 0.21756 0.05101 0.48028 0.0
H316 H 0.2442 0.06808 0.42111 0.0
H317 H 0.2109 0.12833 0.41235 0.0
H318 H 0.22135 0.14465 0.4292 0.0
H319 H 0.25453 0.08437 0.43811 0.0
C320 C 0.91733 0.98114 0.72231 0.0
C321 C 0.92828 0.97493 0.71301 0.0
C322 C 0.9649 0.9823 0.72096 0.0
C323 C 0.95196 0.97547 0.71235 0.0
C324 C 0.95391 0.98882 0.73019 0.0
C325 C 0.93026 0.98822 0.73086 0.0
U326 U 0.85889 0.97363 0.71015 0.0
O327 O 0.8296 0.9546 0.71564 0.0
O328 O 0.82655 0.99022 0.71365 0.0
C329 C 0.81708 0.97216 0.71717 0.0
C330 C 0.89252 0.97995 0.72325 0.0
C331 C 0.80645 0.9738 0.72756 0.0
C332 C 0.80908 0.97279 0.74653 0.0
C333 C 0.81951 0.97198 0.7367 0.0
C334 C 0.77253 0.9777 0.73819 0.0
C335 C 0.78552 0.97555 0.74732 0.0
C336 C 0.78294 0.9768 0.72837 0.0
C337 C 0.85613 0.96387 0.68033 0.0
C338 C 0.82186 0.96255 0.66978 0.0
C339 C 0.85793 0.95178 0.66226 0.0
C340 C 0.86866 0.95628 0.67175 0.0
C341 C 0.83447 0.95481 0.66121 0.0
C342 C 0.83263 0.96699 0.67932 0.0
C343 C 0.86807 0.96824 0.69021 0.0
O344 O 0.88122 0.99609 0.71885 0.0
O345 O 0.88364 0.96058 0.72138 0.0
O346 O 0.86813 0.95209 0.697 0.0
O347 O 0.86455 0.98755 0.6945 0.0
H348 H 0.91853 0.96947 0.70632 0.0
H349 H 0.96022 0.97039 0.70518 0.0
H350 H 0.96368 0.99412 0.7369 0.0
H351 H 0.92206 0.9931 0.73808 0.0
H352 H 0.81933 0.97111 0.75351 0.0
H353 H 0.8377 0.96972 0.73622 0.0
H354 H 0.75432 0.97982 0.73868 0.0
H355 H 0.77262 0.97826 0.7214 0.0
H356 H 0.80373 0.96497 0.66909 0.0
H357 H 0.86791 0.94583 0.65573 0.0
H358 H 0.88679 0.95377 0.6724 0.0
H359 H 0.82268 0.9728 0.68588 0.0
C360 C 0.76051 0.17133 0.47637 0.0
C361 C 0.76806 0.18157 0.46717 0.0
C362 C 0.76008 0.21737 0.47473 0.0
C363 C 0.76786 0.20448 0.46636 0.0
C364 C 0.75223 0.2071 0.48385 0.0
C365 C 0.75246 0.18421 0.48467 0.0
U366 U 0.7717 0.11481 0.46484 0.0
O367 O 0.78968 0.0864 0.47155 0.0
O368 O 0.75402 0.08337 0.46689 0.0
C369 C 0.77132 0.07419 0.4717 0.0
C370 C 0.76146 0.14732 0.47748 0.0
C371 C 0.76648 0.06268 0.48166 0.0
C372 C 0.74074 0.05239 0.49573 0.0
C373 C 0.74515 0.06414 0.48655 0.0
C374 C 0.77893 0.03778 0.49543 0.0
C375 C 0.75759 0.03913 0.50023 0.0
C376 C 0.7833 0.04939 0.4862 0.0
C377 C 0.7897 0.11293 0.43563 0.0
C378 C 0.78355 0.08645 0.42164 0.0
C379 C 0.81413 0.11281 0.42032 0.0
C380 C 0.80812 0.12152 0.43003 0.0
C381 C 0.80177 0.09538 0.416 0.0
C382 C 0.77757 0.09513 0.43141 0.0
C383 C 0.78273 0.12392 0.44542 0.0
O384 O 0.74618 0.13631 0.47215 0.0
O385 O 0.78184 0.13871 0.47683 0.0
O386 O 0.7975 0.12369 0.45311 0.0
O387 O 0.76172 0.1209 0.44854 0.0
H388 H 0.77431 0.17186 0.46069 0.0
H389 H 0.77398 0.21216 0.45927 0.0
H390 H 0.74619 0.21683 0.49038 0.0
H391 H 0.74658 0.17657 0.49182 0.0
H392 H 0.72416 0.0536 0.49933 0.0
H393 H 0.73179 0.07419 0.48327 0.0
H394 H 0.79211 0.02759 0.49878 0.0
H395 H 0.79982 0.04788 0.48257 0.0
H396 H 0.77381 0.07302 0.4184 0.0
H397 H 0.8282 0.11992 0.41606 0.0
H398 H 0.81761 0.13531 0.4331 0.0
H399 H 0.76325 0.0882 0.43555 0.0
C400 C 0.6108 0.04471 0.22292 0.0
C401 C 0.60006 0.05028 0.21348 0.0
C402 C 0.56326 0.04351 0.22139 0.0
C403 C 0.5764 0.04971 0.21273 0.0
C404 C 0.57403 0.03766 0.23076 0.0
C405 C 0.59767 0.03827 0.23152 0.0
U406 U 0.66944 0.05221 0.21096 0.0
O407 O 0.69862 0.07126 0.21656 0.0
O408 O 0.70173 0.03563 0.21457 0.0
C409 C 0.71114 0.0537 0.21811 0.0
C410 C 0.63559 0.04591 0.22395 0.0
C411 C 0.72162 0.05208 0.22853 0.0
C412 C 0.71876 0.0532 0.24749 0.0
C413 C 0.70846 0.05399 0.23764 0.0
C414 C 0.7554 0.04812 0.23924 0.0
C415 C 0.7423 0.05037 0.24834 0.0
C416 C 0.74511 0.049 0.22939 0.0
C417 C 0.67274 0.06197 0.18114 0.0
C418 C 0.70656 0.06082 0.17025 0.0
C419 C 0.67161 0.07601 0.16339 0.0
C420 C 0.66081 0.0717 0.17288 0.0
C421 C 0.69453 0.07062 0.162 0.0
C422 C 0.69573 0.05658 0.1798 0.0
C423 C 0.66065 0.05761 0.19099 0.0
O424 O 0.64697 0.02977 0.21958 0.0
O425 O 0.64448 0.06529 0.22211 0.0
O426 O 0.66043 0.07376 0.19779 0.0
O427 O 0.66403 0.03829 0.19529 0.0
H428 H 0.60998 0.05525 0.20676 0.0
H429 H 0.56832 0.05427 0.20544 0.0
H430 H 0.5641 0.03285 0.2375 0.0
H431 H 0.60569 0.0339 0.23885 0.0
H432 H 0.70843 0.05496 0.25445 0.0
H433 H 0.69028 0.05632 0.23712 0.0
H434 H 0.77359 0.04594 0.23978 0.0
H435 H 0.75551 0.04747 0.22245 0.0
H436 H 0.72426 0.05655 0.1693 0.0
H437 H 0.66208 0.08357 0.15711 0.0
H438 H 0.64308 0.07597 0.17378 0.0
H439 H 0.70524 0.0491 0.18611 0.0
C440 C 0.76427 0.85445 0.97637 0.0
C441 C 0.75646 0.84368 0.96735 0.0
C442 C 0.7654 0.80835 0.97513 0.0
C443 C 0.75698 0.82076 0.96674 0.0
C444 C 0.77353 0.81913 0.98408 0.0
C445 C 0.77294 0.84206 0.98469 0.0
U446 U 0.75427 0.91012 0.96388 0.0
O447 O 0.73486 0.93866 0.9694 0.0
O448 O 0.77128 0.94191 0.96629 0.0
C449 C 0.75286 0.95129 0.96999 0.0
C450 C 0.76305 0.8785 0.97722 0.0
C451 C 0.75547 0.96347 0.97986 0.0
C452 C 0.75763 0.96455 0.99885 0.0
C453 C 0.75646 0.95254 0.98952 0.0
C454 C 0.75729 0.99846 0.98896 0.0
C455 C 0.75785 0.98759 0.99862 0.0
C456 C 0.7561 0.98646 0.97964 0.0
C457 C 0.73973 0.91011 0.93437 0.0
C458 C 0.74267 0.93965 0.92163 0.0
C459 C 0.71928 0.90792 0.91791 0.0
C460 C 0.72509 0.89891 0.92758 0.0
C461 C 0.72806 0.9283 0.91485 0.0
C462 C 0.74842 0.93064 0.93137 0.0
C463 C 0.74594 0.8996 0.94434 0.0
O464 O 0.77894 0.88934 0.97221 0.0
O465 O 0.74274 0.88696 0.97592 0.0
O466 O 0.73029 0.89982 0.95165 0.0
O467 O 0.76644 0.90347 0.94794 0.0
H468 H 0.74977 0.853 0.96083 0.0
H469 H 0.75065 0.81267 0.95979 0.0
H470 H 0.78006 0.80978 0.99061 0.0
H471 H 0.77906 0.8501 0.9917 0.0
H472 H 0.758 0.95592 1.00625 0.0
H473 H 0.75598 0.93479 0.98983 0.0
H474 H 0.75743 0.01622 0.98864 0.0
H475 H 0.75533 0.99516 0.97227 0.0
H476 H 0.74961 0.95539 0.91938 0.0
H477 H 0.70801 0.89895 0.91278 0.0
H478 H 0.71825 0.88305 0.92974 0.0
H479 H 0.75972 0.93961 0.93649 0.0
C480 C 0.91768 0.04539 0.31399 0.0
C481 C 0.92849 0.051 0.3234 0.0
C482 C 0.96525 0.04447 0.31539 0.0
C483 C 0.95217 0.05057 0.32409 0.0
C484 C 0.95441 0.03859 0.30604 0.0
C485 C 0.93076 0.03907 0.30534 0.0
U486 U 0.85916 0.05211 0.32618 0.0
O487 O 0.82966 0.07103 0.32081 0.0
O488 O 0.82701 0.03533 0.32258 0.0
C489 C 0.81734 0.0534 0.31917 0.0
C490 C 0.89287 0.04642 0.31304 0.0
C491 C 0.80676 0.05193 0.30877 0.0
C492 C 0.80929 0.05396 0.28982 0.0
C493 C 0.8197 0.05469 0.29964 0.0
C494 C 0.773 0.04725 0.29811 0.0
C495 C 0.78587 0.05033 0.289 0.0
C496 C 0.78339 0.04808 0.30794 0.0
C497 C 0.85634 0.061 0.35606 0.0
C498 C 0.82187 0.06327 0.36644 0.0
C499 C 0.85822 0.07153 0.37435 0.0
C500 C 0.869 0.06721 0.36484 0.0
C501 C 0.8346 0.0697 0.37521 0.0
C502 C 0.83269 0.059 0.35689 0.0
C503 C 0.86831 0.057 0.34615 0.0
O504 O 0.88173 0.03008 0.31733 0.0
O505 O 0.88379 0.06567 0.31503 0.0
O506 O 0.86817 0.07334 0.33945 0.0
O507 O 0.86496 0.03779 0.34174 0.0
H508 H 0.91862 0.05587 0.33016 0.0
H509 H 0.9603 0.05515 0.33136 0.0
H510 H 0.96429 0.03386 0.29926 0.0
H511 H 0.92268 0.03468 0.29803 0.0
H512 H 0.81945 0.05636 0.28285 0.0
H513 H 0.83778 0.0576 0.30013 0.0
H514 H 0.7549 0.04445 0.29761 0.0
H515 H 0.77316 0.04588 0.3149 0.0
H516 H 0.80361 0.06178 0.36699 0.0
H517 H 0.86829 0.07647 0.38103 0.0
H518 H 0.88725 0.06884 0.36433 0.0
H519 H 0.82266 0.05426 0.35017 0.0
C520 C 0.765 0.17003 0.05984 0.0
C521 C 0.75768 0.18088 0.06893 0.0
C522 C 0.76671 0.21611 0.06107 0.0
C523 C 0.75849 0.2038 0.06953 0.0
C524 C 0.77438 0.20524 0.05206 0.0
C525 C 0.77351 0.18233 0.05145 0.0
U526 U 0.75391 0.11449 0.07224 0.0
O527 O 0.73382 0.08646 0.06664 0.0
O528 O 0.77013 0.08235 0.06979 0.0
C529 C 0.75153 0.07344 0.06604 0.0
C530 C 0.76332 0.14601 0.05896 0.0
C531 C 0.75391 0.06127 0.05615 0.0
C532 C 0.76511 0.05919 0.03786 0.0
C533 C 0.76366 0.07096 0.04726 0.0
C534 C 0.74711 0.02799 0.04615 0.0
C535 C 0.75675 0.03766 0.03725 0.0
C536 C 0.74573 0.03971 0.05553 0.0
C537 C 0.73943 0.11453 0.10179 0.0
C538 C 0.74303 0.08563 0.11482 0.0
C539 C 0.71814 0.11657 0.11803 0.0
C540 C 0.72399 0.12541 0.10833 0.0
C541 C 0.72767 0.09669 0.12137 0.0
C542 C 0.74883 0.09446 0.10506 0.0
C543 C 0.74582 0.12499 0.09182 0.0
O544 O 0.77899 0.13481 0.06394 0.0
O545 O 0.74285 0.13799 0.06026 0.0
O546 O 0.73015 0.1252 0.08452 0.0
O547 O 0.76624 0.12076 0.08819 0.0
H548 H 0.75111 0.17163 0.07549 0.0
H549 H 0.7525 0.21195 0.07654 0.0
H550 H 0.78075 0.21452 0.04547 0.0
H551 H 0.77923 0.17422 0.04438 0.0
H552 H 0.77251 0.06692 0.03105 0.0
H553 H 0.76995 0.08764 0.04758 0.0
H554 H 0.74051 1.01142 0.0458 0.0
H555 H 0.73808 0.032 0.0623 0.0
H556 H 0.75056 0.07028 0.1173 0.0
H557 H 0.70628 0.12533 0.12298 0.0
H558 H 0.7166 0.14092 0.10597 0.0
H559 H 0.76076 0.08573 0.10014 0.0
C560 C 0.61016 0.98055 0.81363 0.0
C561 C 0.59948 0.9741 0.82295 0.0
C562 C 0.56261 0.98151 0.81524 0.0
C563 C 0.57582 0.97453 0.82375 0.0
C564 C 0.57332 0.98826 0.80599 0.0
C565 C 0.59696 0.98776 0.80519 0.0
U566 U 0.66898 0.97329 0.82544 0.0
O567 O 0.69828 0.95445 0.81976 0.0
O568 O 0.7011 0.99008 0.82178 0.0
C569 C 0.71063 0.97208 0.8182 0.0
C570 C 0.63495 0.9795 0.81255 0.0
C571 C 0.72108 0.97379 0.80777 0.0
C572 C 0.7184 0.97188 0.78882 0.0
C573 C 0.70807 0.97105 0.79867 0.0
C574 C 0.75473 0.97869 0.79705 0.0
C575 C 0.74181 0.97559 0.78796 0.0
C576 C 0.74442 0.97777 0.8069 0.0
C577 C 0.67267 0.96331 0.85523 0.0
C578 C 0.70628 0.96539 0.86622 0.0
C579 C 0.67202 0.94839 0.87283 0.0
C580 C 0.66114 0.95267 0.86336 0.0
C581 C 0.69464 0.95471 0.87434 0.0
C582 C 0.69537 0.96961 0.85669 0.0
C583 C 0.66045 0.9677 0.84542 0.0
O584 O 0.64623 0.99567 0.81691 0.0
O585 O 0.64404 0.96016 0.81433 0.0
O586 O 0.66027 0.95159 0.83859 0.0
O587 O 0.66361 0.98707 0.84115 0.0
H588 H 0.60944 0.96854 0.82956 0.0
H589 H 0.56778 0.96928 0.83093 0.0
H590 H 0.56335 0.99367 0.79937 0.0
H591 H 0.60494 0.99282 0.79796 0.0
H592 H 0.70821 0.96945 0.78187 0.0
H593 H 0.69001 0.96804 0.79919 0.0
H594 H 0.77281 0.98156 0.79652 0.0
H595 H 0.7547 0.97995 0.81384 0.0
H596 H 0.72375 0.97038 0.86727 0.0
H597 H 0.6628 0.94015 0.87901 0.0
H598 H 0.64364 0.9477 0.86238 0.0
H599 H 0.70458 0.97779 0.85049 0.0
C600 C 0.76099 0.85469 0.55955 0.0
C601 C 0.76856 0.84414 0.56867 0.0
C602 C 0.76069 0.8086 0.56085 0.0
C603 C 0.76843 0.82122 0.56931 0.0
C604 C 0.75288 0.81916 0.55179 0.0
C605 C 0.75305 0.84208 0.55115 0.0
U606 U 0.77153 0.91051 0.5718 0.0
O607 O 0.78894 0.93962 0.56556 0.0
O608 O 0.75323 0.94182 0.57024 0.0
C609 C 0.77051 0.95175 0.56581 0.0
C610 C 0.76165 0.87875 0.5587 0.0
C611 C 0.76532 0.96397 0.55617 0.0
C612 C 0.75492 0.96521 0.53781 0.0
C613 C 0.76026 0.95318 0.54682 0.0
C614 C 0.76076 0.99885 0.5473 0.0
C615 C 0.75316 0.98846 0.53802 0.0
C616 C 0.76613 0.98684 0.55627 0.0
C617 C 0.78953 0.9109 0.60093 0.0
C618 C 0.78436 0.93839 0.61456 0.0
C619 C 0.81287 0.91005 0.61658 0.0
C620 C 0.80688 0.90131 0.60688 0.0
C621 C 0.80156 0.92853 0.62053 0.0
C622 C 0.77841 0.92967 0.6048 0.0
C623 C 0.78274 0.90023 0.59106 0.0
O624 O 0.74625 0.88932 0.56417 0.0
O625 O 0.78192 0.88753 0.55943 0.0
O626 O 0.79748 0.90113 0.58336 0.0
O627 O 0.76168 0.90317 0.58799 0.0
H628 H 0.77471 0.85364 0.57524 0.0
H629 H 0.77451 0.81331 0.57635 0.0
H630 H 0.74688 0.80964 0.5452 0.0
H631 H 0.74714 0.84996 0.54406 0.0
H632 H 0.75289 0.95585 0.53073 0.0
H633 H 0.76073 0.93542 0.54643 0.0
H634 H 0.76324 0.01635 0.54777 0.0
H635 H 0.77116 0.99551 0.5633 0.0
H636 H 0.77543 0.95264 0.61752 0.0
H637 H 0.82616 0.90223 0.62109 0.0
H638 H 0.8156 0.8868 0.60407 0.0
H639 H 0.76497 0.93739 0.60036 0.0
C640 C 0.61084 0.5289 0.81378 0.0
C641 C 0.60042 0.52781 0.82365 0.0
C642 C 0.56332 0.52717 0.81539 0.0
C643 C 0.57676 0.5269 0.82444 0.0
C644 C 0.57377 0.52817 0.80554 0.0
C645 C 0.59739 0.52901 0.80475 0.0
U646 U 0.66926 0.53823 0.82573 0.0
O647 O 0.70201 0.52242 0.82232 0.0
O648 O 0.69789 0.55781 0.81989 0.0
C649 C 0.71095 0.54055 0.81859 0.0
C650 C 0.63561 0.53061 0.81279 0.0
C651 C 0.72161 0.5387 0.80822 0.0
C652 C 0.71921 0.53118 0.78958 0.0
C653 C 0.70897 0.53219 0.79945 0.0
C654 C 0.75479 0.5431 0.79716 0.0
C655 C 0.74216 0.53673 0.78837 0.0
C656 C 0.74457 0.54406 0.80702 0.0
C657 C 0.67244 0.54954 0.85538 0.0
C658 C 0.7071 0.55304 0.86554 0.0
C659 C 0.67088 0.56232 0.87335 0.0
C660 C 0.65994 0.55685 0.86403 0.0
C661 C 0.69452 0.56055 0.87417 0.0
C662 C 0.69612 0.54762 0.85617 0.0
C663 C 0.66031 0.54435 0.84564 0.0
O664 O 0.64396 0.55027 0.81447 0.0
O665 O 0.6474 0.51494 0.8173 0.0
O666 O 0.66424 0.52493 0.84155 0.0
O667 O 0.65964 0.56014 0.83867 0.0
H668 H 0.61057 0.52785 0.8307 0.0
H669 H 0.56892 0.52622 0.83209 0.0
H670 H 0.56361 0.52845 0.79849 0.0
H671 H 0.60516 0.52994 0.79709 0.0
H672 H 0.70922 0.5263 0.78286 0.0
H673 H 0.69119 0.52808 0.80023 0.0
H674 H 0.7725 0.54747 0.79635 0.0
H675 H 0.75455 0.54918 0.8137 0.0
H676 H 0.72537 0.55157 0.86605 0.0
H677 H 0.66093 0.56808 0.87992 0.0
H678 H 0.64167 0.55844 0.86355 0.0
H679 H 0.70604 0.54206 0.84954 0.0
C680 C 0.76517 0.35734 0.06038 0.0
C681 C 0.76533 0.34659 0.07009 0.0
C682 C 0.76674 0.31124 0.0613 0.0
C683 C 0.76615 0.32365 0.07054 0.0
C684 C 0.76674 0.32201 0.0516 0.0
C685 C 0.76597 0.34493 0.05115 0.0
U686 U 0.7554 0.41298 0.07323 0.0
O687 O 0.77153 0.44497 0.07039 0.0
O688 O 0.73496 0.44108 0.06794 0.0
C689 C 0.75269 0.45394 0.06694 0.0
C690 C 0.76337 0.38138 0.05975 0.0
C691 C 0.75438 0.46563 0.0569 0.0
C692 C 0.76206 0.46605 0.03822 0.0
C693 C 0.76111 0.45471 0.04773 0.0
C694 C 0.74966 0.49927 0.04695 0.0
C695 C 0.75624 0.48838 0.03777 0.0
C696 C 0.74875 0.48796 0.05645 0.0
C697 C 0.74378 0.41418 0.10288 0.0
C698 C 0.72662 0.4444 0.11247 0.0
C699 C 0.74098 0.41271 0.12181 0.0
C700 C 0.74778 0.40329 0.11235 0.0
C701 C 0.73006 0.43316 0.12192 0.0
C702 C 0.73348 0.43498 0.10299 0.0
C703 C 0.7493 0.40295 0.09301 0.0
O704 O 0.74304 0.38935 0.06155 0.0
O705 O 0.77954 0.39249 0.06443 0.0
O706 O 0.76934 0.40714 0.08898 0.0
O707 O 0.73302 0.4025 0.086 0.0
H708 H 0.76459 0.35594 0.07729 0.0
H709 H 0.76606 0.31556 0.07808 0.0
H710 H 0.76712 0.31266 0.0444 0.0
H711 H 0.76576 0.35296 0.0436 0.0
H712 H 0.7671 0.45739 0.03119 0.0
H713 H 0.76544 0.43744 0.04794 0.0
H714 H 0.74507 0.51648 0.04673 0.0
H715 H 0.74349 0.49662 0.06345 0.0
H716 H 0.71814 0.46017 0.11243 0.0
H717 H 0.7437 0.4038 0.12903 0.0
H718 H 0.75568 0.38723 0.11241 0.0
H719 H 0.73028 0.44363 0.09574 0.0
C720 C 0.91628 0.49809 0.31358 0.0
C721 C 0.92666 0.49831 0.32346 0.0
C722 C 0.9638 0.49964 0.31525 0.0
C723 C 0.95031 0.49912 0.32429 0.0
C724 C 0.9534 0.49957 0.30539 0.0
C725 C 0.92978 0.49882 0.30456 0.0
U726 U 0.85776 0.48922 0.32548 0.0
O727 O 0.82502 0.50482 0.32189 0.0
O728 O 0.82921 0.46934 0.31978 0.0
C729 C 0.81612 0.48652 0.31832 0.0
C730 C 0.89152 0.49636 0.31254 0.0
C731 C 0.8054 0.48793 0.30795 0.0
C732 C 0.80754 0.49513 0.28928 0.0
C733 C 0.81789 0.49438 0.29912 0.0
C734 C 0.77215 0.48302 0.29699 0.0
C735 C 0.78463 0.48936 0.28815 0.0
C736 C 0.78248 0.48232 0.30683 0.0
C737 C 0.85422 0.4792 0.35523 0.0
C738 C 0.82257 0.46283 0.36459 0.0
C739 C 0.8545 0.4776 0.37421 0.0
C740 C 0.86477 0.48374 0.36481 0.0
C741 C 0.8335 0.46682 0.37415 0.0
C742 C 0.83286 0.46902 0.35516 0.0
C743 C 0.86645 0.48408 0.34548 0.0
O744 O 0.88316 0.47677 0.31437 0.0
O745 O 0.87969 0.5122 0.3169 0.0
O746 O 0.86245 0.50331 0.34122 0.0
O747 O 0.8674 0.46803 0.33862 0.0
H748 H 0.91647 0.49764 0.3305 0.0
H749 H 0.95811 0.49908 0.33195 0.0
H750 H 0.96359 0.49991 0.29834 0.0
H751 H 0.92204 0.49857 0.29688 0.0
H752 H 0.81741 0.5 0.28253 0.0
H753 H 0.83563 0.49869 0.29985 0.0
H754 H 0.75448 0.47848 0.29624 0.0
H755 H 0.77262 0.47725 0.31355 0.0
H756 H 0.80639 0.45446 0.36442 0.0
H757 H 0.86318 0.48074 0.38152 0.0
H758 H 0.88126 0.49155 0.36501 0.0
H759 H 0.82445 0.4654 0.34784 0.0
C760 C 0.76456 0.6674 0.56024 0.0
C761 C 0.76342 0.67811 0.56995 0.0
C762 C 0.76244 0.71349 0.56118 0.0
C763 C 0.76232 0.70105 0.57042 0.0
C764 C 0.76347 0.70274 0.55149 0.0
C765 C 0.76451 0.67984 0.55102 0.0
U766 U 0.77435 0.61172 0.57305 0.0
O767 O 0.75838 0.5797 0.5701 0.0
O768 O 0.79498 0.58373 0.56776 0.0
C769 C 0.77731 0.57083 0.56667 0.0
C770 C 0.76653 0.64337 0.5596 0.0
C771 C 0.77578 0.55925 0.55659 0.0
C772 C 0.76776 0.5589 0.53794 0.0
C773 C 0.76868 0.57014 0.54749 0.0
C774 C 0.781 0.52581 0.54651 0.0
C775 C 0.774 0.53668 0.53739 0.0
C776 C 0.78187 0.53703 0.55604 0.0
C777 C 0.78529 0.61038 0.60276 0.0
C778 C 0.80225 0.58014 0.61239 0.0
C779 C 0.7876 0.61177 0.62171 0.0
C780 C 0.78104 0.62123 0.61223 0.0
C781 C 0.79855 0.59133 0.62185 0.0
C782 C 0.79562 0.5896 0.60289 0.0
C783 C 0.77998 0.62164 0.59288 0.0
O784 O 0.78686 0.6355 0.56149 0.0
O785 O 0.75031 0.63216 0.5642 0.0
O786 O 0.76005 0.61743 0.58876 0.0
O787 O 0.79642 0.62215 0.58594 0.0
H788 H 0.76358 0.66875 0.57715 0.0
H789 H 0.76161 0.70911 0.57796 0.0
H790 H 0.76363 0.71212 0.5443 0.0
H791 H 0.76547 0.67184 0.54347 0.0
H792 H 0.76238 0.56753 0.53096 0.0
H793 H 0.76398 0.58732 0.54777 0.0
H794 H 0.78592 0.50869 0.54621 0.0
H795 H 0.78743 0.52839 0.56298 0.0
H796 H 0.81075 0.56438 0.61237 0.0
H797 H 0.78468 0.62064 0.62893 0.0
H798 H 0.77311 0.63727 0.61227 0.0
H799 H 0.79903 0.58098 0.59565 0.0
C800 C 0.60983 0.49588 0.22145 0.0
C801 C 0.59971 0.49592 0.21151 0.0
C802 C 0.56234 0.4969 0.21951 0.0
C803 C 0.57607 0.49646 0.21055 0.0
C804 C 0.57248 0.49698 0.22943 0.0
C805 C 0.59609 0.49649 0.23039 0.0
U806 U 0.66876 0.48796 0.20983 0.0
O807 O 0.70111 0.50411 0.21359 0.0
O808 O 0.6976 0.46856 0.21562 0.0
C809 C 0.71033 0.48595 0.21714 0.0
C810 C 0.63459 0.49453 0.22262 0.0
C811 C 0.72089 0.4875 0.22754 0.0
C812 C 0.71802 0.49222 0.24638 0.0
C813 C 0.70775 0.49137 0.23651 0.0
C814 C 0.75465 0.4855 0.23838 0.0
C815 C 0.74153 0.48919 0.24737 0.0
C816 C 0.74439 0.48466 0.22853 0.0
C817 C 0.67308 0.47803 0.18008 0.0
C818 C 0.70445 0.46097 0.17077 0.0
C819 C 0.6735 0.47747 0.16109 0.0
C820 C 0.66309 0.48349 0.17048 0.0
C821 C 0.69404 0.46586 0.16117 0.0
C822 C 0.69405 0.46706 0.18018 0.0
C823 C 0.66058 0.48271 0.1898 0.0
O824 O 0.64337 0.47508 0.22082 0.0
O825 O 0.64622 0.51057 0.21835 0.0
O826 O 0.66411 0.50201 0.19409 0.0
O827 O 0.65977 0.46664 0.19664 0.0
H828 H 0.61009 0.49534 0.20453 0.0
H829 H 0.56848 0.49632 0.20284 0.0
H830 H 0.5621 0.49726 0.23642 0.0
H831 H 0.60362 0.49638 0.23812 0.0
H832 H 0.70765 0.49504 0.25324 0.0
H833 H 0.68957 0.49356 0.23588 0.0
H834 H 0.77279 0.4831 0.23902 0.0
H835 H 0.75477 0.48163 0.22169 0.0
H836 H 0.72028 0.45196 0.17096 0.0
H837 H 0.66522 0.48132 0.15376 0.0
H838 H 0.64692 0.49193 0.17026 0.0
H839 H 0.70203 0.46272 0.18752 0.0
C840 C 0.76406 0.35854 0.47516 0.0
C841 C 0.76293 0.34785 0.46544 0.0
C842 C 0.76194 0.31246 0.47418 0.0
C843 C 0.76183 0.32492 0.46496 0.0
C844 C 0.76298 0.32317 0.48388 0.0
C845 C 0.76402 0.34607 0.48436 0.0
U846 U 0.77375 0.41422 0.46236 0.0
O847 O 0.75769 0.44624 0.46535 0.0
O848 O 0.7943 0.44221 0.46762 0.0
C849 C 0.77661 0.45512 0.46874 0.0
C850 C 0.766 0.38257 0.47581 0.0
C851 C 0.77509 0.46671 0.47881 0.0
C852 C 0.77062 0.46651 0.49772 0.0
C853 C 0.77138 0.45523 0.48817 0.0
C854 C 0.77706 0.50082 0.48861 0.0
C855 C 0.77356 0.48937 0.49799 0.0
C856 C 0.77782 0.48955 0.47909 0.0
C857 C 0.7847 0.41555 0.43265 0.0
C858 C 0.80254 0.44522 0.42297 0.0
C859 C 0.78621 0.41439 0.41367 0.0
C860 C 0.77961 0.40506 0.42317 0.0
C861 C 0.79802 0.43435 0.41351 0.0
C862 C 0.79587 0.4359 0.43249 0.0
C863 C 0.77939 0.40431 0.44253 0.0
O864 O 0.78631 0.39042 0.47392 0.0
O865 O 0.74976 0.39379 0.47123 0.0
O866 O 0.75945 0.40854 0.44666 0.0
O867 O 0.79583 0.40375 0.44946 0.0
H868 H 0.76308 0.35724 0.45825 0.0
H869 H 0.76111 0.31688 0.45741 0.0
H870 H 0.76314 0.31377 0.49107 0.0
H871 H 0.76498 0.35405 0.49192 0.0
H872 H 0.76794 0.45744 0.50489 0.0
H873 H 0.76927 0.43757 0.4881 0.0
H874 H 0.77938 0.51845 0.48869 0.0
H875 H 0.78071 0.49865 0.47194 0.0
H876 H 0.8117 0.46061 0.42298 0.0
H877 H 0.78265 0.40577 0.40645 0.0
H878 H 0.77103 0.38935 0.42314 0.0
H879 H 0.79992 0.44426 0.43973 0.0
C880 C 0.916 0.52741 0.72196 0.0
C881 C 0.92641 0.52582 0.7121 0.0
C882 C 0.96353 0.52561 0.72035 0.0
C883 C 0.95007 0.52488 0.71131 0.0
C884 C 0.95309 0.5271 0.73019 0.0
C885 C 0.92947 0.52797 0.73098 0.0
U886 U 0.85746 0.53618 0.70999 0.0
O887 O 0.82479 0.52054 0.71364 0.0
O888 O 0.82884 0.55605 0.71567 0.0
C889 C 0.81583 0.53885 0.71719 0.0
C890 C 0.89123 0.52917 0.72294 0.0
C891 C 0.80526 0.53748 0.72759 0.0
C892 C 0.80818 0.5328 0.74643 0.0
C893 C 0.8184 0.53347 0.73655 0.0
C894 C 0.7716 0.53998 0.73849 0.0
C895 C 0.78472 0.53615 0.74745 0.0
C896 C 0.78182 0.54064 0.72862 0.0
C897 C 0.85389 0.54602 0.68022 0.0
C898 C 0.82284 0.56328 0.67078 0.0
C899 C 0.85396 0.54671 0.66123 0.0
C900 C 0.8641 0.54058 0.67066 0.0
C901 C 0.83346 0.5584 0.66123 0.0
C902 C 0.83298 0.55708 0.68024 0.0
C903 C 0.86612 0.5412 0.68999 0.0
O904 O 0.88284 0.54874 0.72107 0.0
O905 O 0.87945 0.51329 0.71861 0.0
O906 O 0.86219 0.52198 0.69427 0.0
O907 O 0.86705 0.55729 0.69682 0.0
H908 H 0.91625 0.5255 0.70505 0.0
H909 H 0.9579 0.52381 0.70366 0.0
H910 H 0.96326 0.52774 0.73723 0.0
H911 H 0.92171 0.52929 0.73863 0.0
H912 H 0.81854 0.52988 0.75327 0.0
H913 H 0.83654 0.53104 0.73589 0.0
H914 H 0.7535 0.54262 0.73915 0.0
H915 H 0.77145 0.54378 0.72179 0.0
H916 H 0.80704 0.57235 0.67091 0.0
H917 H 0.8624 0.54287 0.65392 0.0
H918 H 0.88023 0.53207 0.67049 0.0
H919 H 0.82483 0.56141 0.68755 0.0
C920 C 0.76324 0.66712 0.97575 0.0
C921 C 0.76284 0.6779 0.96605 0.0
C922 C 0.76479 0.71322 0.97485 0.0
C923 C 0.76365 0.70085 0.9656 0.0
C924 C 0.76531 0.70242 0.98453 0.0
C925 C 0.76456 0.6795 0.98497 0.0
U926 U 0.75321 0.61139 0.96302 0.0
O927 O 0.76994 0.57954 0.96567 0.0
O928 O 0.73348 0.58312 0.96858 0.0
C929 C 0.7514 0.57041 0.96936 0.0
C930 C 0.76168 0.64307 0.97639 0.0
C931 C 0.75376 0.55874 0.97937 0.0
C932 C 0.75914 0.5588 0.99822 0.0
C933 C 0.75794 0.57015 0.98871 0.0
C934 C 0.75228 0.52455 0.98911 0.0
C935 C 0.75616 0.53595 0.99847 0.0
C936 C 0.75109 0.53589 0.97962 0.0
C937 C 0.7394 0.61007 0.93347 0.0
C938 C 0.74551 0.58206 0.92016 0.0
C939 C 0.71605 0.60934 0.91781 0.0
C940 C 0.72177 0.61882 0.92739 0.0
C941 C 0.72792 0.59097 0.9141 0.0
C942 C 0.75118 0.5915 0.92981 0.0
C943 C 0.74546 0.62119 0.94335 0.0
O944 O 0.74133 0.63495 0.97485 0.0
O945 O 0.77765 0.63208 0.97147 0.0
O946 O 0.76587 0.61755 0.94711 0.0
O947 O 0.72963 0.6215 0.95058 0.0
H948 H 0.76171 0.66858 0.95885 0.0
H949 H 0.76315 0.70896 0.95807 0.0
H950 H 0.76613 0.71175 0.99173 0.0
H951 H 0.7648 0.67144 0.99252 0.0
H952 H 0.76208 0.56784 1.00538 0.0
H953 H 0.75999 0.58781 0.98865 0.0
H954 H 0.74991 0.50693 0.98918 0.0
H955 H 0.74782 0.52684 0.97248 0.0
H956 H 0.75488 0.56791 0.91739 0.0
H957 H 0.70246 0.61645 0.91323 0.0
H958 H 0.71253 0.63317 0.93003 0.0
H959 H 0.76484 0.58439 0.93434 0.0
C960 C 0.41663 0.49641 0.22069 0.0
C961 C 0.42722 0.48876 0.21155 0.0
C962 C 0.46417 0.49709 0.21897 0.0
C963 C 0.4509 0.48906 0.2107 0.0
C964 C 0.45354 0.50504 0.22802 0.0
C965 C 0.42991 0.50468 0.22888 0.0
U966 U 0.35678 0.48989 0.20956 0.0
O967 O 0.32756 0.47182 0.21581 0.0
O968 O 0.32535 0.50747 0.21372 0.0
C969 C 0.31565 0.48973 0.21746 0.0
C970 C 0.39185 0.49559 0.22191 0.0
C971 C 0.30563 0.49179 0.22796 0.0
C972 C 0.30861 0.48923 0.24689 0.0
C973 C 0.3187 0.48827 0.23699 0.0
C974 C 0.27243 0.49777 0.23887 0.0
C975 C 0.28538 0.49383 0.24788 0.0
C976 C 0.28251 0.49673 0.22898 0.0
C977 C 0.34867 0.48003 0.18017 0.0
C978 C 0.31279 0.48329 0.17094 0.0
C979 C 0.34465 0.46515 0.16263 0.0
C980 C 0.35787 0.46903 0.17151 0.0
C981 C 0.32204 0.47226 0.16228 0.0
C982 C 0.32599 0.48706 0.17986 0.0
C983 C 0.36298 0.48392 0.18942 0.0
O984 O 0.38056 0.51192 0.21767 0.0
O985 O 0.38245 0.47637 0.22022 0.0
O986 O 0.36363 0.46787 0.19626 0.0
O987 O 0.36124 0.50341 0.19377 0.0
H988 H 0.41721 0.48239 0.20513 0.0
H989 H 0.45887 0.48288 0.20366 0.0
H990 H 0.46356 0.51128 0.23447 0.0
H991 H 0.42201 0.51069 0.23598 0.0
H992 H 0.31881 0.48615 0.25377 0.0
H993 H 0.3366 0.48451 0.23637 0.0
H994 H 0.25449 0.50132 0.2395 0.0
H995 H 0.27217 0.4995 0.2221 0.0
H996 H 0.29536 0.48888 0.17079 0.0
H997 H 0.35203 0.45663 0.15601 0.0
H998 H 0.37532 0.46345 0.17162 0.0
H999 H 0.31853 0.49548 0.18648 0.0
C1000 C 0.2633 0.66676 0.97513 0.0
C1001 C 0.27105 0.67788 0.9662 0.0
C1002 C 0.26151 0.71285 0.97424 0.0
C1003 C 0.27019 0.70082 0.96577 0.0
C1004 C 0.25342 0.7017 0.98308 0.0
C1005 C 0.25434 0.67878 0.98352 0.0
U1006 U 0.27387 0.61084 0.96268 0.0
O1007 O 0.29363 0.58271 0.96836 0.0
O1008 O 0.25719 0.57902 0.96545 0.0
C1009 C 0.27571 0.57005 0.96925 0.0
C1010 C 0.26495 0.64272 0.97588 0.0
C1011 C 0.27324 0.55883 0.97938 0.0
C1012 C 0.27291 0.55951 0.99839 0.0
C1013 C 0.27417 0.57058 0.98882 0.0
C1014 C 0.26927 0.52491 0.98919 0.0
C1015 C 0.27061 0.53659 0.99863 0.0
C1016 C 0.2706 0.53597 0.97963 0.0
C1017 C 0.28781 0.60936 0.93319 0.0
C1018 C 0.28781 0.57742 0.92176 0.0
C1019 C 0.30576 0.61115 0.91612 0.0
C1020 C 0.29978 0.62111 0.92556 0.0
C1021 C 0.29984 0.58926 0.91414 0.0
C1022 C 0.28189 0.58739 0.93126 0.0
C1023 C 0.28171 0.62055 0.943 0.0
O1024 O 0.24911 0.63166 0.97095 0.0
O1025 O 0.28535 0.63456 0.97448 0.0
O1026 O 0.2975 0.62083 0.95024 0.0
O1027 O 0.26133 0.61667 0.94673 0.0
H1028 H 0.27797 0.66884 0.95964 0.0
H1029 H 0.27651 0.7092 0.9589 0.0
H1030 H 0.2467 0.71077 0.98967 0.0
H1031 H 0.24827 0.67046 0.99046 0.0
H1032 H 0.27397 0.56875 1.00561 0.0
H1033 H 0.27616 0.58825 0.98878 0.0
H1034 H 0.26751 0.50722 0.98924 0.0
H1035 H 0.26986 0.52665 0.97242 0.0
H1036 H 0.2831 0.5605 0.92035 0.0
H1037 H 0.31503 0.62052 0.91033 0.0
H1038 H 0.30449 0.63805 0.92691 0.0
H1039 H 0.27271 0.57801 0.93707 0.0
C1040 C 0.10923 0.52546 0.72195 0.0
C1041 C 0.09865 0.53137 0.71253 0.0
C1042 C 0.0617 0.52452 0.72027 0.0
C1043 C 0.075 0.53093 0.71169 0.0
C1044 C 0.07231 0.51827 0.72962 0.0
C1045 C 0.09595 0.51876 0.73046 0.0
U1046 U 0.16812 0.53359 0.71033 0.0
O1047 O 0.19701 0.55277 0.71614 0.0
O1048 O 0.20047 0.5172 0.71402 0.0
C1049 C 0.20967 0.5353 0.71766 0.0
C1050 C 0.134 0.52673 0.7231 0.0
C1051 C 0.2202 0.53359 0.72807 0.0
C1052 C 0.21776 0.53556 0.74703 0.0
C1053 C 0.2073 0.53639 0.73721 0.0
C1054 C 0.25398 0.52862 0.73869 0.0
C1055 C 0.24117 0.5318 0.74782 0.0
C1056 C 0.24354 0.52954 0.72888 0.0
C1057 C 0.17231 0.54416 0.68063 0.0
C1058 C 0.20406 0.56068 0.67141 0.0
C1059 C 0.17244 0.5457 0.66165 0.0
C1060 C 0.16199 0.53953 0.671 0.0
C1061 C 0.19336 0.55661 0.6618 0.0
C1062 C 0.19361 0.55445 0.68079 0.0
C1063 C 0.15986 0.53929 0.69033 0.0
O1064 O 0.14557 0.51077 0.71869 0.0
O1065 O 0.14282 0.5462 0.72143 0.0
O1066 O 0.15908 0.55521 0.69725 0.0
O1067 O 0.16345 0.5199 0.69451 0.0
H1068 H 0.10868 0.53655 0.70587 0.0
H1069 H 0.06704 0.5358 0.70443 0.0
H1070 H 0.06227 0.51331 0.7363 0.0
H1071 H 0.10384 0.51414 0.73778 0.0
H1072 H 0.20765 0.53804 0.754 0.0
H1073 H 0.18924 0.53944 0.73674 0.0
H1074 H 0.27206 0.52572 0.73918 0.0
H1075 H 0.25374 0.52731 0.72191 0.0
H1076 H 0.22019 0.56915 0.67165 0.0
H1077 H 0.16393 0.5425 0.6543 0.0
H1078 H 0.14556 0.53163 0.67073 0.0
H1079 H 0.20184 0.55813 0.68815 0.0
C1080 C 0.26332 0.35916 0.47544 0.0
C1081 C 0.26439 0.34839 0.46573 0.0
C1082 C 0.26499 0.31306 0.47454 0.0
C1083 C 0.26528 0.32545 0.46529 0.0
C1084 C 0.264 0.32385 0.48423 0.0
C1085 C 0.26319 0.34677 0.48466 0.0
U1086 U 0.25338 0.41493 0.46271 0.0
O1087 O 0.23372 0.44326 0.46826 0.0
O1088 O 0.27023 0.44668 0.46545 0.0
C1089 C 0.25172 0.45581 0.46918 0.0
C1090 C 0.26175 0.38321 0.47606 0.0
C1091 C 0.25413 0.46709 0.4793 0.0
C1092 C 0.25435 0.46651 0.49832 0.0
C1093 C 0.25311 0.45539 0.48875 0.0
C1094 C 0.25817 0.50105 0.4891 0.0
C1095 C 0.25673 0.48942 0.49854 0.0
C1096 C 0.25685 0.48994 0.47954 0.0
C1097 C 0.23978 0.41619 0.43317 0.0
C1098 C 0.24235 0.44692 0.42108 0.0
C1099 C 0.21964 0.41515 0.41661 0.0
C1100 C 0.2255 0.40534 0.4261 0.0
C1101 C 0.22802 0.43597 0.41402 0.0
C1102 C 0.24813 0.43712 0.43063 0.0
C1103 C 0.24575 0.40507 0.44303 0.0
O1104 O 0.27776 0.39415 0.47117 0.0
O1105 O 0.24141 0.39137 0.4745 0.0
O1106 O 0.22987 0.40491 0.45023 0.0
O1107 O 0.26612 0.40879 0.4468 0.0
H1108 H 0.26438 0.35772 0.45853 0.0
H1109 H 0.26596 0.31734 0.45776 0.0
H1110 H 0.2637 0.31451 0.49143 0.0
H1111 H 0.26228 0.35481 0.49221 0.0
H1112 H 0.2532 0.45732 0.50554 0.0
H1113 H 0.25106 0.43773 0.48872 0.0
H1114 H 0.25998 0.51873 0.48914 0.0
H1115 H 0.25767 0.49922 0.47233 0.0
H1116 H 0.24898 0.463 0.41919 0.0
H1117 H 0.20859 0.40647 0.41126 0.0
H1118 H 0.2189 0.3892 0.42791 0.0
H1119 H 0.25912 0.44583 0.43599 0.0
C1120 C 0.41759 0.52702 0.81398 0.0
C1121 C 0.42825 0.53348 0.8233 0.0
C1122 C 0.46514 0.52614 0.81558 0.0
C1123 C 0.45191 0.53307 0.82409 0.0
C1124 C 0.45445 0.51936 0.80633 0.0
C1125 C 0.43081 0.51982 0.80553 0.0
U1126 U 0.35881 0.53582 0.82563 0.0
O1127 O 0.32979 0.55457 0.81963 0.0
O1128 O 0.32648 0.51915 0.82223 0.0
C1129 C 0.31717 0.537 0.81838 0.0
C1130 C 0.39281 0.52819 0.81287 0.0
C1131 C 0.30658 0.53469 0.80801 0.0
C1132 C 0.30907 0.53517 0.78903 0.0
C1133 C 0.31956 0.53633 0.79883 0.0
C1134 C 0.27263 0.53017 0.79746 0.0
C1135 C 0.28552 0.53223 0.7883 0.0
C1136 C 0.28311 0.53143 0.80726 0.0
C1137 C 0.35506 0.54851 0.85522 0.0
C1138 C 0.32273 0.54516 0.86694 0.0
C1139 C 0.35497 0.56744 0.87194 0.0
C1140 C 0.36567 0.56226 0.86252 0.0
C1141 C 0.33347 0.55891 0.87424 0.0
C1142 C 0.33343 0.54005 0.85746 0.0
C1143 C 0.36727 0.54305 0.8455 0.0
O1144 O 0.38136 0.51251 0.81754 0.0
O1145 O 0.38392 0.54775 0.81429 0.0
O1146 O 0.36779 0.55854 0.83836 0.0
O1147 O 0.36394 0.52335 0.84159 0.0
H1148 H 0.41827 0.53905 0.82991 0.0
H1149 H 0.45993 0.53836 0.83128 0.0
H1150 H 0.46444 0.51399 0.79969 0.0
H1151 H 0.42286 0.51477 0.79829 0.0
H1152 H 0.31924 0.53679 0.78202 0.0
H1153 H 0.33772 0.5388 0.79926 0.0
H1154 H 0.25445 0.52793 0.79702 0.0
H1155 H 0.27285 0.53012 0.81426 0.0
H1156 H 0.30614 0.53843 0.86861 0.0
H1157 H 0.36351 0.57804 0.87748 0.0
H1158 H 0.38235 0.56892 0.86094 0.0
H1159 H 0.3249 0.52945 0.85192 0.0
C1160 C 0.26533 0.66677 0.56167 0.0
C1161 C 0.2578 0.67788 0.57066 0.0
C1162 C 0.267 0.71287 0.5626 0.0
C1163 C 0.25859 0.70081 0.57111 0.0
C1164 C 0.27489 0.70173 0.55371 0.0
C1165 C 0.27403 0.67882 0.55324 0.0
U1166 U 0.25559 0.61073 0.5741 0.0
O1167 O 0.23553 0.58267 0.56859 0.0
O1168 O 0.27216 0.57893 0.57101 0.0
C1169 C 0.25343 0.57003 0.56741 0.0
C1170 C 0.26369 0.64274 0.56089 0.0
C1171 C 0.25534 0.55886 0.55723 0.0
C1172 C 0.25268 0.55914 0.53825 0.0
C1173 C 0.25178 0.57026 0.54782 0.0
C1174 C 0.26129 0.52526 0.54734 0.0
C1175 C 0.2573 0.53655 0.53796 0.0
C1176 C 0.26029 0.53635 0.55691 0.0
C1177 C 0.2435 0.60873 0.60372 0.0
C1178 C 0.2255 0.57882 0.61317 0.0
C1179 C 0.24136 0.6096 0.62269 0.0
C1180 C 0.24822 0.6191 0.61327 0.0
C1181 C 0.22966 0.58958 0.6227 0.0
C1182 C 0.23243 0.58833 0.60373 0.0
C1183 C 0.24909 0.62015 0.59392 0.0
O1184 O 0.27983 0.63163 0.56559 0.0
O1185 O 0.24338 0.63459 0.56252 0.0
O1186 O 0.23293 0.62073 0.58686 0.0
O1187 O 0.26922 0.61614 0.58994 0.0
H1188 H 0.25108 0.66882 0.57725 0.0
H1189 H 0.25243 0.70919 0.57802 0.0
H1190 H 0.2814 0.71082 0.54708 0.0
H1191 H 0.27993 0.67051 0.54626 0.0
H1192 H 0.24956 0.56808 0.53107 0.0
H1193 H 0.24804 0.58767 0.5479 0.0
H1194 H 0.26485 0.50783 0.54725 0.0
H1195 H 0.26312 0.52731 0.56408 0.0
H1196 H 0.21642 0.56339 0.61305 0.0
H1197 H 0.24464 0.61812 0.62997 0.0
H1198 H 0.25672 0.63485 0.61341 0.0
H1199 H 0.22867 0.58007 0.59643 0.0
C1200 C 0.10957 0.49903 0.31418 0.0
C1201 C 0.09871 0.49165 0.3233 0.0
C1202 C 0.062 0.50013 0.31567 0.0
C1203 C 0.07504 0.49216 0.32403 0.0
C1204 C 0.0729 0.50786 0.30664 0.0
C1205 C 0.09654 0.50729 0.3059 0.0
U1206 U 0.16832 0.48996 0.32585 0.0
O1207 O 0.19727 0.47112 0.31982 0.0
O1208 O 0.20071 0.50652 0.32248 0.0
C1209 C 0.20996 0.48865 0.3186 0.0
C1210 C 0.13437 0.49776 0.31311 0.0
C1211 C 0.22056 0.49095 0.30823 0.0
C1212 C 0.21801 0.49084 0.28925 0.0
C1213 C 0.20753 0.48968 0.29906 0.0
C1214 C 0.25456 0.4951 0.29767 0.0
C1215 C 0.2416 0.49342 0.28851 0.0
C1216 C 0.24409 0.49385 0.30747 0.0
C1217 C 0.17203 0.47728 0.3554 0.0
C1218 C 0.20573 0.478 0.36636 0.0
C1219 C 0.17142 0.46051 0.37262 0.0
C1220 C 0.16049 0.46586 0.36328 0.0
C1221 C 0.19409 0.46653 0.37424 0.0
C1222 C 0.19478 0.48328 0.35697 0.0
C1223 C 0.15977 0.48275 0.34572 0.0
O1224 O 0.14586 0.51338 0.31779 0.0
O1225 O 0.14318 0.47817 0.3145 0.0
O1226 O 0.15924 0.46727 0.33857 0.0
O1227 O 0.16323 0.50243 0.34183 0.0
H1228 H 0.10853 0.48527 0.32978 0.0
H1229 H 0.06686 0.48613 0.33105 0.0
H1230 H 0.06306 0.51404 0.30013 0.0
H1231 H 0.10466 0.51307 0.29882 0.0
H1232 H 0.20779 0.48951 0.28225 0.0
H1233 H 0.18933 0.48749 0.29949 0.0
H1234 H 0.27278 0.49706 0.29722 0.0
H1235 H 0.25439 0.49488 0.31447 0.0
H1236 H 0.22324 0.48278 0.3675 0.0
H1237 H 0.1622 0.45168 0.37861 0.0
H1238 H 0.14295 0.4611 0.36221 0.0
H1239 H 0.204 0.49205 0.35096 0.0
C1240 C 0.2662 0.36007 0.06227 0.0
C1241 C 0.27353 0.34908 0.07131 0.0
C1242 C 0.26482 0.31397 0.06323 0.0
C1243 C 0.27289 0.32613 0.07177 0.0
C1244 C 0.2572 0.325 0.05426 0.0
C1245 C 0.25791 0.34791 0.05379 0.0
U1246 U 0.27204 0.41682 0.07473 0.0
O1247 O 0.29109 0.44576 0.06949 0.0
O1248 O 0.2541 0.4476 0.07105 0.0
C1249 C 0.27267 0.45742 0.06785 0.0
C1250 C 0.26723 0.38414 0.06152 0.0
C1251 C 0.27123 0.46828 0.05758 0.0
C1252 C 0.27508 0.4676 0.03865 0.0
C1253 C 0.27573 0.45675 0.04829 0.0
C1254 C 0.26491 0.50145 0.04744 0.0
C1255 C 0.26978 0.49004 0.03818 0.0
C1256 C 0.26566 0.49064 0.05708 0.0
C1257 C 0.27895 0.42107 0.10455 0.0
C1258 C 0.28998 0.45401 0.11396 0.0
C1259 C 0.27668 0.42244 0.12347 0.0
C1260 C 0.27409 0.411 0.11408 0.0
C1261 C 0.28326 0.44481 0.12368 0.0
C1262 C 0.28727 0.44255 0.10455 0.0
C1263 C 0.2761 0.40854 0.0948 0.0
O1264 O 0.25001 0.39476 0.06564 0.0
O1265 O 0.28693 0.39302 0.06377 0.0
O1266 O 0.29336 0.40881 0.0883 0.0
O1267 O 0.25643 0.41083 0.09011 0.0
H1268 H 0.27988 0.35822 0.07796 0.0
H1269 H 0.27882 0.31784 0.07875 0.0
H1270 H 0.25094 0.31583 0.04761 0.0
H1271 H 0.25213 0.35613 0.04677 0.0
H1272 H 0.27887 0.45857 0.03156 0.0
H1273 H 0.27997 0.43946 0.04852 0.0
H1274 H 0.26081 0.51877 0.04721 0.0
H1275 H 0.2621 0.49978 0.06416 0.0
H1276 H 0.29811 0.46974 0.11337 0.0
H1277 H 0.27405 0.41314 0.13054 0.0
H1278 H 0.26858 0.39404 0.11429 0.0
H1279 H 0.29209 0.45034 0.09727 0.0
C1280 C 0.26776 0.03138 0.26293 0.0
C1281 C 0.27492 0.05149 0.25842 0.0
C1282 C 0.25925 0.07176 0.27335 0.0
C1283 C 0.25372 0.05156 0.27824 0.0
N1284 N 0.25544 1.01206 0.27851 0.0
N1285 N 0.28072 0.09051 0.25988 0.0
C1286 C 0.25872 0.03132 0.27325 0.0
C1287 C 0.27156 0.07161 0.26379 0.0
N1288 N 0.26903 1.01245 0.25722 0.0
N1289 N 0.25212 0.09107 0.2777 0.0
H1290 H 0.28963 0.0911 0.25284 0.0
H1291 H 0.28109 0.10526 0.26398 0.0
H1292 H 0.24322 0.09185 0.28475 0.0
H1293 H 0.25337 0.10618 0.27396 0.0
H1294 H 0.2618 0.99769 0.25958 0.0
H1295 H 0.27585 1.01182 0.2497 0.0
H1296 H 0.26106 0.9969 0.27578 0.0
H1297 H 0.2486 1.01137 0.28602 0.0
C1298 C 0.25659 1.00222 0.50874 0.0
C1299 C 0.25665 0.02547 0.50938 0.0
C1300 C 0.2598 0.02315 0.52848 0.0
C1301 C 0.25691 1.00006 0.5279 0.0
N1302 N 0.24921 0.96779 0.51756 0.0
N1303 N 0.25502 0.0583 0.51991 0.0
C1304 C 0.25447 0.9896 0.51804 0.0
C1305 C 0.25744 0.03603 0.51927 0.0
N1306 N 0.25917 0.99217 0.49925 0.0
N1307 N 0.26542 0.03272 0.53779 0.0
H1308 H 0.25318 0.06832 0.51336 0.0
H1309 H 0.25292 0.06665 0.52694 0.0
H1310 H 0.26748 0.02379 0.54468 0.0
H1311 H 0.27008 0.04912 0.5385 0.0
H1312 H 0.26165 0.97535 0.4984 0.0
H1313 H 0.26096 1.00087 0.49228 0.0
H1314 H 0.24474 0.95983 0.51066 0.0
H1315 H 0.24739 0.95798 0.52419 0.0
C1316 C 0.2564 0.95357 0.76401 0.0
C1317 C 0.25301 0.9737 0.75866 0.0
C1318 C 0.26914 0.99387 0.77352 0.0
C1319 C 0.27419 0.97362 0.77848 0.0
N1320 N 0.27585 0.93412 0.77791 0.0
N1321 N 0.25883 1.01275 0.75751 0.0
C1322 C 0.2687 0.95343 0.77358 0.0
C1323 C 0.26012 0.99381 0.76319 0.0
N1324 N 0.24729 0.93466 0.76008 0.0
N1325 N 0.27236 0.01313 0.7788 0.0
H1326 H 0.25203 0.01338 0.74999 0.0
H1327 H 0.26603 0.02752 0.75988 0.0
H1328 H 0.27918 0.01382 0.78631 0.0
H1329 H 0.2667 0.02828 0.77609 0.0
H1330 H 0.24695 0.9199 0.76416 0.0
H1331 H 0.23839 0.93408 0.75304 0.0
H1332 H 0.27463 0.91902 0.77415 0.0
H1333 H 0.28473 0.93335 0.78495 0.0
C1334 C 0.26788 1.00349 0.02824 0.0
C1335 C 0.27165 0.02646 0.02763 0.0
C1336 C 0.27242 0.02407 1.00848 0.0
C1337 C 0.2714 1.00084 1.00916 0.0
N1338 N 0.27149 0.9681 0.01974 0.0
N1339 N 0.28089 0.0583 1.01729 0.0
C1340 C 0.26997 0.99043 0.01906 0.0
C1341 C 0.27478 0.0367 1.01777 0.0
N1342 N 0.26167 0.99423 0.03754 0.0
N1343 N 0.2705 0.0341 0.99896 0.0
H1344 H 0.28289 0.06811 0.02391 0.0
H1345 H 0.28586 0.06603 1.0104 0.0
H1346 H 0.26858 0.02541 0.99199 0.0
H1347 H 0.26871 0.05099 0.99807 0.0
H1348 H 0.25637 0.97801 0.03825 0.0
H1349 H 0.25978 1.00329 0.04441 0.0
H1350 H 0.2731 0.95975 0.0268 0.0
H1351 H 0.2731 0.95795 1.01322 0.0
C1352 C 0.75691 0.99582 0.77231 0.0
C1353 C 0.75295 0.97564 0.77753 0.0
C1354 C 0.76887 0.95541 0.76263 0.0
C1355 C 0.77432 0.97563 0.75775 0.0
N1356 N 0.77638 0.01508 0.75833 0.0
N1357 N 0.75772 0.93641 0.77849 0.0
C1358 C 0.76911 0.99586 0.7627 0.0
C1359 C 0.75965 0.95547 0.77291 0.0
N1360 N 0.74848 0.01487 0.77643 0.0
N1361 N 0.77194 0.93616 0.75731 0.0
H1362 H 0.75061 0.93574 0.78595 0.0
H1363 H 0.76465 0.92153 0.77608 0.0
H1364 H 0.77905 0.93543 0.74985 0.0
H1365 H 0.76595 0.92107 0.75991 0.0
H1366 H 0.74853 0.02979 0.77248 0.0
H1367 H 0.73986 0.01549 0.78355 0.0
H1368 H 0.77538 0.03022 0.76207 0.0
H1369 H 0.78498 0.01575 0.75121 0.0
C1370 C 0.74191 0.99209 0.51855 0.0
C1371 C 0.74636 1.00189 0.5284 0.0
C1372 C 0.75107 0.03737 0.51967 0.0
C1373 C 0.75265 0.02644 0.5099 0.0
N1374 N 0.74786 0.99316 0.49985 0.0
N1375 N 0.73528 0.03531 0.53704 0.0
C1376 C 0.7475 1.00371 0.50926 0.0
C1377 C 0.74523 0.02514 0.52872 0.0
N1378 N 0.7286 0.97386 0.51803 0.0
N1379 N 0.75575 0.05924 0.52043 0.0
H1380 H 0.72749 0.02633 0.54299 0.0
H1381 H 0.73206 0.05212 0.53728 0.0
H1382 H 0.76012 0.06886 0.514 0.0
H1383 H 0.75695 0.06732 0.5276 0.0
H1384 H 0.72306 0.96703 0.51101 0.0
H1385 H 0.72032 0.9678 0.52464 0.0
H1386 H 0.74658 0.97616 0.49919 0.0
H1387 H 0.75074 1.00125 0.49279 0.0
C1388 C 0.77065 0.0301 0.27337 0.0
C1389 C 0.77467 0.05028 0.27858 0.0
C1390 C 0.75888 0.07052 0.26368 0.0
C1391 C 0.75338 0.0503 0.25879 0.0
N1392 N 0.75114 1.01085 0.25939 0.0
N1393 N 0.77003 0.08952 0.27954 0.0
C1394 C 0.75847 0.03006 0.26375 0.0
C1395 C 0.76806 0.07046 0.27396 0.0
N1396 N 0.77898 1.01103 0.27749 0.0
N1397 N 0.75589 0.08976 0.25835 0.0
H1398 H 0.7771 0.0902 0.287 0.0
H1399 H 0.76317 0.10443 0.27713 0.0
H1400 H 0.7488 0.09049 0.25089 0.0
H1401 H 0.76192 0.10484 0.26096 0.0
H1402 H 0.77888 0.99609 0.27355 0.0
H1403 H 0.78757 1.0104 0.28461 0.0
H1404 H 0.75205 0.99573 0.26313 0.0
H1405 H 0.74256 1.0102 0.25226 0.0
C1406 C 0.77742 0.01414 0.02414 0.0
C1407 C 0.75737 0.02532 0.02721 0.0
C1408 C 0.73727 1.01033 1.01201 0.0
C1409 C 0.75774 1.00047 1.00852 0.0
N1410 N 0.79807 0.99545 1.01033 0.0
N1411 N 0.71927 0.03709 0.02335 0.0
C1412 C 0.77806 1.00305 1.01434 0.0
C1413 C 0.73758 0.02429 0.02093 0.0
N1414 N 0.79564 0.01362 0.03075 0.0
N1415 N 0.71736 1.00574 1.00699 0.0
H1416 H 0.71877 0.04732 0.02989 0.0
H1417 H 0.7053 0.03898 0.01846 0.0
H1418 H 0.71643 0.99566 1.00041 0.0
H1419 H 0.70152 1.0104 1.00982 0.0
H1420 H 0.8098 1.00374 0.02954 0.0
H1421 H 0.79593 0.02192 0.03788 0.0
H1422 H 0.81383 0.99887 1.0136 0.0
H1423 H 0.79913 0.98705 1.00323 0.0
C1424 C 0.7559 0.55646 0.77234 0.0
C1425 C 0.7529 0.53646 0.77784 0.0
C1426 C 0.76924 0.51605 0.76309 0.0
C1427 C 0.77391 0.5362 0.75797 0.0
N1428 N 0.77498 0.57574 0.75829 0.0
N1429 N 0.75937 0.49753 0.77925 0.0
C1430 C 0.76814 0.55647 0.76275 0.0
C1431 C 0.7603 0.51631 0.77343 0.0
N1432 N 0.74647 0.57536 0.77614 0.0
N1433 N 0.77273 0.49668 0.75793 0.0
H1434 H 0.75263 0.49705 0.78679 0.0
H1435 H 0.76678 0.48278 0.77696 0.0
H1436 H 0.77948 0.49585 0.7504 0.0
H1437 H 0.76736 0.48154 0.76076 0.0
H1438 H 0.74583 0.58997 0.77194 0.0
H1439 H 0.73757 0.57605 0.78319 0.0
H1440 H 0.77355 0.59093 0.76196 0.0
H1441 H 0.78384 0.57642 0.75124 0.0
C1442 C 0.73546 0.51742 1.01319 0.0
C1443 C 0.75631 0.52392 1.0086 0.0
C1444 C 0.77711 0.50833 0.02348 0.0
C1445 C 0.75639 0.50033 0.02763 0.0
N1446 N 0.71624 0.49417 0.02575 0.0
N1447 N 0.79716 0.5231 1.00847 0.0
C1448 C 0.73566 0.50401 0.02228 0.0
C1449 C 0.77722 0.5187 1.0135 0.0
N1450 N 0.71546 0.52464 1.00902 0.0
N1451 N 0.79658 0.50656 0.02922 0.0
H1452 H 0.79788 0.53093 1.00123 0.0
H1453 H 0.81287 0.51755 1.01106 0.0
H1454 H 0.7972 0.49876 0.03647 0.0
H1455 H 0.81173 0.51418 0.02719 0.0
H1456 H 0.69981 0.52255 1.01264 0.0
H1457 H 0.71461 0.53436 1.00232 0.0
H1458 H 0.70111 0.49416 0.02157 0.0
H1459 H 0.71567 0.4844 0.03244 0.0
C1460 C 0.77087 0.46937 0.27219 0.0
C1461 C 0.77374 0.48944 0.27766 0.0
C1462 C 0.75694 0.50957 0.26295 0.0
C1463 C 0.75242 0.48933 0.25786 0.0
N1464 N 0.7518 0.44979 0.25822 0.0
N1465 N 0.76686 0.52832 0.27906 0.0
C1466 C 0.75849 0.46916 0.26265 0.0
C1467 C 0.76604 0.50948 0.27326 0.0
N1468 N 0.78056 0.4506 0.27598 0.0
N1469 N 0.75313 0.52887 0.25779 0.0
H1470 H 0.77371 0.52893 0.28657 0.0
H1471 H 0.75924 0.54296 0.27678 0.0
H1472 H 0.74624 0.52957 0.25029 0.0
H1473 H 0.75838 0.54408 0.26057 0.0
H1474 H 0.78129 0.43596 0.2718 0.0
H1475 H 0.78955 0.45005 0.283 0.0
H1476 H 0.75346 0.43464 0.2619 0.0
H1477 H 0.74285 0.44896 0.2512 0.0
C1478 C 0.79445 0.50814 0.51258 0.0
C1479 C 0.77356 0.50137 0.50813 0.0
C1480 C 0.753 0.51653 0.5232 0.0
C1481 C 0.77373 0.5248 0.52722 0.0
N1482 N 0.81371 0.53157 0.52507 0.0
N1483 N 0.73271 0.50166 0.50829 0.0
C1484 C 0.79434 0.52147 0.52172 0.0
C1485 C 0.75274 0.50626 0.5132 0.0
N1486 N 0.81443 0.50124 0.50825 0.0
N1487 N 0.7337 0.51795 0.52909 0.0
H1488 H 0.73186 0.49392 0.50103 0.0
H1489 H 0.717 0.50697 0.51101 0.0
H1490 H 0.73319 0.52565 0.53637 0.0
H1491 H 0.71861 0.5101 0.52715 0.0
H1492 H 0.83016 0.50354 0.51177 0.0
H1493 H 0.81521 0.49157 0.50153 0.0
H1494 H 0.8287 0.53183 0.52078 0.0
H1495 H 0.81434 0.54129 0.53178 0.0
C1496 C 0.26724 0.47362 0.2628 0.0
C1497 C 0.27436 0.49379 0.25834 0.0
C1498 C 0.25855 0.51388 0.27332 0.0
C1499 C 0.25289 0.49361 0.2781 0.0
N1500 N 0.25458 0.45409 0.27825 0.0
N1501 N 0.27968 0.53286 0.25977 0.0
C1502 C 0.258 0.47343 0.27307 0.0
C1503 C 0.27081 0.51388 0.26372 0.0
N1504 N 0.26874 0.45471 0.25707 0.0
N1505 N 0.25164 0.53311 0.27783 0.0
H1506 H 0.2884 0.5335 0.25268 0.0
H1507 H 0.2799 0.54766 0.26383 0.0
H1508 H 0.24299 0.53372 0.28494 0.0
H1509 H 0.25298 0.54834 0.27421 0.0
H1510 H 0.26148 0.43992 0.25936 0.0
H1511 H 0.27582 0.45411 0.2496 0.0
H1512 H 0.26032 0.43898 0.27554 0.0
H1513 H 0.24746 0.45326 0.28571 0.0
C1514 C 0.24935 0.5182 1.01325 0.0
C1515 C 0.27032 0.52468 1.00877 0.0
C1516 C 0.29075 0.5097 0.02389 0.0
C1517 C 0.26994 0.50182 0.028 0.0
N1518 N 0.22979 0.49583 0.0261 0.0
N1519 N 0.31118 0.52405 1.00892 0.0
C1520 C 0.24931 0.50531 0.02254 0.0
C1521 C 0.2911 0.51972 1.01385 0.0
N1522 N 0.22948 0.5249 1.00876 0.0
N1523 N 0.3101 0.50813 0.02974 0.0
H1524 H 0.31213 0.53172 1.00165 0.0
H1525 H 0.32683 0.51859 1.01163 0.0
H1526 H 0.31061 0.50051 0.03703 0.0
H1527 H 0.32527 0.51577 0.02775 0.0
H1528 H 0.21366 0.52284 1.01222 0.0
H1529 H 0.22888 0.53405 1.00188 0.0
H1530 H 0.21467 0.49567 0.02192 0.0
H1531 H 0.22908 0.48661 0.03297 0.0
C1532 C 0.25914 0.55206 0.76277 0.0
C1533 C 0.25247 0.53183 0.75821 0.0
C1534 C 0.26903 0.51176 0.773 0.0
C1535 C 0.2742 0.53204 0.7779 0.0
N1536 N 0.27157 0.5715 0.7783 0.0
N1537 N 0.24826 0.4926 0.75939 0.0
C1538 C 0.26854 0.55221 0.77302 0.0
C1539 C 0.25665 0.5117 0.76344 0.0
N1540 N 0.25703 0.57107 0.75718 0.0
N1541 N 0.27648 0.49259 0.77737 0.0
H1542 H 0.2395 0.49192 0.75231 0.0
H1543 H 0.24849 0.47769 0.76334 0.0
H1544 H 0.28522 0.49201 0.78445 0.0
H1545 H 0.2755 0.47742 0.77366 0.0
H1546 H 0.26393 0.58598 0.75953 0.0
H1547 H 0.2498 0.57168 0.74974 0.0
H1548 H 0.26542 0.58655 0.7757 0.0
H1549 H 0.27881 0.57232 0.78573 0.0
C1550 C 0.23615 0.50655 0.51369 0.0
C1551 C 0.25697 0.5014 0.50868 0.0
C1552 C 0.27793 0.52074 0.52247 0.0
C1553 C 0.25723 0.5245 0.52785 0.0
N1554 N 0.21699 0.51859 0.52947 0.0
N1555 N 0.2978 0.50086 0.50878 0.0
C1556 C 0.23642 0.51673 0.5237 0.0
C1557 C 0.27792 0.50775 0.51321 0.0
N1558 N 0.21611 0.50228 0.50871 0.0
N1559 N 0.29748 0.53005 0.5261 0.0
H1560 H 0.29842 0.49164 0.50191 0.0
H1561 H 0.31359 0.50284 0.51228 0.0
H1562 H 0.29817 0.53927 0.53296 0.0
H1563 H 0.31268 0.53002 0.52197 0.0
H1564 H 0.20045 0.50788 0.51136 0.0
H1565 H 0.2152 0.49449 0.50146 0.0
H1566 H 0.20178 0.51104 0.52747 0.0
H1567 H 0.21641 0.52637 0.53673 0.0
C1568 C 0.23163 0.09533 0.39605 0.0
C1569 C 0.22051 0.08764 0.40518 0.0
C1570 C 0.1957 0.06471 0.39436 0.0
C1571 C 0.20452 0.07491 0.38526 0.0
N1572 N 0.22952 0.10145 0.37736 0.0
N1573 N 0.19061 0.06649 0.41315 0.0
C1574 C 0.2223 0.09049 0.38606 0.0
C1575 C 0.2023 0.07254 0.40439 0.0
N1576 N 0.2513 0.10701 0.39696 0.0
N1577 N 0.18125 0.04731 0.3934 0.0
H1578 H 0.19501 0.07171 0.42064 0.0
H1579 H 0.17555 0.0576 0.41294 0.0
H1580 H 0.17616 0.04113 0.38616 0.0
H1581 H 0.17598 0.03776 0.39969 0.0
H1582 H 0.26144 0.11121 0.39061 0.0
H1583 H 0.2586 0.11077 0.40417 0.0
H1584 H 0.24052 0.11479 0.37762 0.0
H1585 H 0.22324 0.0983 0.36989 0.0
C1586 C 0.20068 0.9252 0.63625 0.0
C1587 C 0.2201 0.93563 0.632 0.0
C1588 C 0.22115 0.96091 0.64695 0.0
C1589 C 0.20296 0.94923 0.6516 0.0
N1590 N 0.17784 0.91803 0.65161 0.0
N1591 N 0.25079 0.96141 0.63376 0.0
C1592 C 0.1934 0.93074 0.6465 0.0
C1593 C 0.23089 0.95298 0.63747 0.0
N1594 N 0.18879 0.91045 0.63035 0.0
N1595 N 0.22867 0.97992 0.65143 0.0
H1596 H 0.2582 0.95621 0.62678 0.0
H1597 H 0.26083 0.97237 0.63795 0.0
H1598 H 0.22211 0.98603 0.65843 0.0
H1599 H 0.24016 0.99049 0.64787 0.0
H1600 H 0.1731 0.90415 0.63255 0.0
H1601 H 0.19359 0.90591 0.6228 0.0
H1602 H 0.17215 0.90299 0.64879 0.0
H1603 H 0.17203 0.92153 0.65914 0.0
C1604 C 0.32499 0.92324 0.90014 0.0
C1605 C 0.30699 0.93517 0.90483 0.0
C1606 C 0.30751 0.96143 0.89028 0.0
C1607 C 0.32424 0.94846 0.88522 0.0
N1608 N 0.34612 0.91506 0.88436 0.0
N1609 N 0.27881 0.96374 0.90385 0.0
C1610 C 0.33219 0.92879 0.88987 0.0
C1611 C 0.29759 0.95378 0.89975 0.0
N1612 N 0.33573 0.90704 0.90564 0.0
N1613 N 0.3016 0.98134 0.88617 0.0
H1614 H 0.2713 0.95873 0.91084 0.0
H1615 H 0.26965 0.97587 0.89997 0.0
H1616 H 0.30828 0.98727 0.87917 0.0
H1617 H 0.2914 0.99266 0.89005 0.0
H1618 H 0.35057 0.89944 0.90311 0.0
H1619 H 0.33099 0.90245 0.91318 0.0
H1620 H 0.35044 0.89935 0.88686 0.0
H1621 H 0.35182 0.91855 0.87682 0.0
C1622 C 0.29846 0.07208 0.13714 0.0
C1623 C 0.30813 0.09054 0.13207 0.0
C1624 C 0.33345 0.09647 0.147 0.0
C1625 C 0.32521 0.07693 0.15166 0.0
N1626 N 0.30206 0.04444 0.15071 0.0
N1627 N 0.33732 0.11817 0.13124 0.0
C1628 C 0.30827 0.06425 0.14661 0.0
C1629 C 0.32633 0.10215 0.13675 0.0
N1630 N 0.27952 0.06243 0.13305 0.0
N1631 N 0.34761 0.10996 0.15251 0.0
H1632 H 0.33264 0.12285 0.1237 0.0
H1633 H 0.35228 0.12552 0.13376 0.0
H1634 H 0.35326 0.10636 0.16004 0.0
H1635 H 0.35217 0.1256 0.15001 0.0
H1636 H 0.27018 0.05046 0.13693 0.0
H1637 H 0.27209 0.06758 0.12606 0.0
H1638 H 0.29167 0.03329 0.14684 0.0
H1639 H 0.30865 0.03838 0.1577 0.0
C1640 C 0.82074 0.95625 0.63218 0.0
C1641 C 0.80749 0.93697 0.63111 0.0
C1642 C 0.81077 0.92992 0.64993 0.0
C1643 C 0.82337 0.9496 0.65106 0.0
N1644 N 0.83608 0.98393 0.64383 0.0
N1645 N 0.78546 0.90827 0.63913 0.0
C1646 C 0.82699 0.96356 0.64234 0.0
C1647 C 0.80109 0.9247 0.64006 0.0
N1648 N 0.82821 0.96704 0.62347 0.0
N1649 N 0.80894 0.9157 0.65815 0.0
H1650 H 0.77798 0.90407 0.63201 0.0
H1651 H 0.77835 0.9002 0.64551 0.0
H1652 H 0.81563 0.91896 0.66553 0.0
H1653 H 0.80229 0.89995 0.65746 0.0
H1654 H 0.84006 0.97968 0.62369 0.0
H1655 H 0.82384 0.96232 0.61589 0.0
H1656 H 0.83707 0.99575 0.63798 0.0
H1657 H 0.84079 0.98978 0.65119 0.0
C1658 C 0.80231 0.10042 0.39655 0.0
C1659 C 0.80759 0.08724 0.40536 0.0
C1660 C 0.82588 0.06024 0.39389 0.0
C1661 C 0.82345 0.07491 0.38535 0.0
N1662 N 0.81139 0.11004 0.37865 0.0
N1663 N 0.82604 0.05549 0.41271 0.0
C1664 C 0.81203 0.09523 0.38668 0.0
C1665 C 0.81966 0.06726 0.40411 0.0
N1666 N 0.78768 0.11769 0.3976 0.0
N1667 N 0.83383 0.03947 0.39217 0.0
H1668 H 0.82159 0.05997 0.42031 0.0
H1669 H 0.83708 0.04217 0.41241 0.0
H1670 H 0.83848 0.03383 0.38477 0.0
H1671 H 0.8339 0.02726 0.39786 0.0
H1672 H 0.78133 0.12656 0.39129 0.0
H1673 H 0.78021 0.12192 0.40472 0.0
H1674 H 0.8057 0.12611 0.37952 0.0
H1675 H 0.81816 0.10685 0.37128 0.0
C1676 C 0.73004 0.09862 0.14093 0.0
C1677 C 0.72167 0.08792 0.13186 0.0
C1678 C 0.69993 0.06266 0.14291 0.0
C1679 C 0.70566 0.0754 0.15181 0.0
N1680 N 0.72447 0.10683 0.15929 0.0
N1681 N 0.69706 0.06096 0.12402 0.0
C1682 C 0.72044 0.09364 0.15085 0.0
C1683 C 0.70633 0.0701 0.13279 0.0
N1684 N 0.74742 0.11331 0.14005 0.0
N1685 N 0.68864 0.04326 0.14417 0.0
H1686 H 0.70145 0.06582 0.11647 0.0
H1687 H 0.68383 0.04969 0.1242 0.0
H1688 H 0.68377 0.03733 0.15148 0.0
H1689 H 0.68594 0.03213 0.13812 0.0
H1690 H 0.75583 0.12002 0.14645 0.0
H1691 H 0.75488 0.11727 0.13289 0.0
H1692 H 0.7329 0.12179 0.1588 0.0
H1693 H 0.71791 0.10368 0.16671 0.0
C1694 C 0.70584 0.95454 0.90359 0.0
C1695 C 0.72199 0.93735 0.90442 0.0
C1696 C 0.72149 0.93242 0.88538 0.0
C1697 C 0.70584 0.95003 0.88452 0.0
N1698 N 0.68714 0.98108 0.89239 0.0
N1699 N 0.74914 0.91345 0.89612 0.0
C1700 C 0.69932 0.96214 0.89351 0.0
C1701 C 0.73109 0.92742 0.8953 0.0
N1702 N 0.69594 0.96289 0.9124 0.0
N1703 N 0.72636 0.9198 0.87683 0.0
H1704 H 0.7566 0.90951 0.90328 0.0
H1705 H 0.75801 0.90738 0.8897 0.0
H1706 H 0.71983 0.923 0.86941 0.0
H1707 H 0.73552 0.90521 0.87721 0.0
H1708 H 0.68217 0.97359 0.91225 0.0
H1709 H 0.70038 0.95791 0.91992 0.0
H1710 H 0.68378 0.99183 0.89853 0.0
H1711 H 0.68216 0.98711 0.88511 0.0
C1712 C 0.71752 0.5872 0.88484 0.0
C1713 C 0.70585 0.56691 0.88411 0.0
C1714 C 0.70963 0.56163 0.90306 0.0
C1715 C 0.72199 0.58155 0.90371 0.0
N1716 N 0.74231 0.6106 0.89505 0.0
N1717 N 0.69522 0.53251 0.89196 0.0
C1718 C 0.7274 0.59348 0.89452 0.0
C1719 C 0.70333 0.55338 0.89306 0.0
N1720 N 0.71825 0.60097 0.87641 0.0
N1721 N 0.70298 0.55114 0.91199 0.0
H1722 H 0.69052 0.52596 0.88474 0.0
H1723 H 0.69509 0.52105 0.898 0.0
H1724 H 0.70736 0.55658 0.91945 0.0
H1725 H 0.69174 0.53798 0.91205 0.0
H1726 H 0.72416 0.61704 0.87681 0.0
H1727 H 0.71134 0.59697 0.86915 0.0
H1728 H 0.74872 0.61854 0.88848 0.0
H1729 H 0.74993 0.61556 0.90202 0.0
C1730 C 0.73225 0.45915 0.13723 0.0
C1731 C 0.72083 0.44199 0.1319 0.0
C1732 C 0.69348 0.43909 0.14628 0.0
C1733 C 0.7037 0.45747 0.15119 0.0
N1734 N 0.73079 0.48702 0.1508 0.0
N1735 N 0.6884 0.41813 0.13036 0.0
C1736 C 0.72256 0.46808 0.14652 0.0
C1737 C 0.70081 0.43266 0.13615 0.0
N1738 N 0.75266 0.46647 0.13358 0.0
N1739 N 0.67722 0.42734 0.15145 0.0
H1740 H 0.6932 0.41297 0.1229 0.0
H1741 H 0.67237 0.41264 0.13253 0.0
H1742 H 0.67137 0.43151 0.15888 0.0
H1743 H 0.67095 0.41239 0.14878 0.0
H1744 H 0.76305 0.47723 0.1377 0.0
H1745 H 0.76008 0.4605 0.12674 0.0
H1746 H 0.74287 0.49686 0.14718 0.0
H1747 H 0.72428 0.49384 0.15766 0.0
C1748 C 0.82629 0.43285 0.39888 0.0
C1749 C 0.80703 0.44299 0.40346 0.0
C1750 C 0.80577 0.46969 0.3891 0.0
C1751 C 0.82385 0.4584 0.38412 0.0
N1752 N 0.84876 0.42705 0.38326 0.0
N1753 N 0.77633 0.469 0.40238 0.0
C1754 C 0.83339 0.43934 0.38873 0.0
C1755 C 0.79616 0.46088 0.39842 0.0
N1756 N 0.83828 0.4175 0.40438 0.0
N1757 N 0.79824 0.48916 0.38509 0.0
H1758 H 0.76899 0.4631 0.40924 0.0
H1759 H 0.76626 0.48041 0.39848 0.0
H1760 H 0.80467 0.49592 0.37821 0.0
H1761 H 0.78686 0.49942 0.38895 0.0
H1762 H 0.85388 0.41133 0.40196 0.0
H1763 H 0.83366 0.41229 0.41185 0.0
H1764 H 0.85442 0.4117 0.3857 0.0
H1765 H 0.85443 0.43125 0.3758 0.0
C1766 C 0.82739 0.59175 0.63624 0.0
C1767 C 0.80749 0.58246 0.63186 0.0
C1768 C 0.80533 0.5563 0.64643 0.0
C1769 C 0.82407 0.56686 0.65122 0.0
N1770 N 0.85058 0.59695 0.65167 0.0
N1771 N 0.7756 0.55799 0.63332 0.0
C1772 C 0.83445 0.58525 0.64639 0.0
C1773 C 0.79591 0.56527 0.6371 0.0
N1774 N 0.83996 0.60631 0.63054 0.0
N1775 N 0.79696 0.53735 0.65063 0.0
H1776 H 0.76837 0.564 0.62645 0.0
H1777 H 0.76508 0.54722 0.63736 0.0
H1778 H 0.80326 0.5305 0.65751 0.0
H1779 H 0.78497 0.52754 0.64692 0.0
H1780 H 0.85593 0.61178 0.63281 0.0
H1781 H 0.83537 0.61151 0.62307 0.0
H1782 H 0.85694 0.61191 0.64906 0.0
H1783 H 0.85624 0.59273 0.65912 0.0
C1784 C 0.29709 0.47744 0.13489 0.0
C1785 C 0.28583 0.45698 0.13407 0.0
C1786 C 0.29157 0.45122 0.15282 0.0
C1787 C 0.30805 0.46817 0.15282 0.0
N1788 N 0.32519 0.49905 0.144 0.0
N1789 N 0.2583 0.43702 0.14413 0.0
C1790 C 0.31037 0.48187 0.14391 0.0
C1791 C 0.27875 0.44736 0.14362 0.0
N1792 N 0.29175 0.49394 0.12814 0.0
N1793 N 0.28872 0.43823 0.16142 0.0
H1794 H 0.24734 0.43671 0.13772 0.0
H1795 H 0.25121 0.43143 0.1511 0.0
H1796 H 0.29772 0.44053 0.16835 0.0
H1797 H 0.27856 0.42425 0.16135 0.0
H1798 H 0.29796 0.50987 0.1289 0.0
H1799 H 0.27834 0.49237 0.12286 0.0
H1800 H 0.3291 0.508 0.13729 0.0
H1801 H 0.33446 0.5035 0.15061 0.0
C1802 C 0.32476 0.564 0.90357 0.0
C1803 C 0.30638 0.57901 0.90401 0.0
C1804 C 0.30469 0.5799 0.88485 0.0
C1805 C 0.32259 0.56435 0.88442 0.0
N1806 N 0.34607 0.53777 0.8932 0.0
N1807 N 0.27548 0.59734 0.89533 0.0
C1808 C 0.33147 0.55517 0.89375 0.0
C1809 C 0.29526 0.5857 0.89471 0.0
N1810 N 0.33653 0.55897 0.91247 0.0
N1811 N 0.29741 0.58991 0.87589 0.0
H1812 H 0.26809 0.60177 0.90244 0.0
H1813 H 0.26534 0.60083 0.88888 0.0
H1814 H 0.30376 0.58602 0.86851 0.0
H1815 H 0.28631 0.6032 0.87583 0.0
H1816 H 0.35167 0.55019 0.91246 0.0
H1817 H 0.3321 0.56498 0.91982 0.0
H1818 H 0.35137 0.52892 0.89972 0.0
H1819 H 0.35124 0.53087 0.88612 0.0
C1820 C 0.19357 0.5841 0.64723 0.0
C1821 C 0.20316 0.56511 0.65188 0.0
C1822 C 0.23125 0.56291 0.63774 0.0
C1823 C 0.22039 0.58075 0.63266 0.0
N1824 N 0.18894 0.60597 0.63156 0.0
N1825 N 0.22905 0.53455 0.65103 0.0
C1826 C 0.2009 0.59069 0.63713 0.0
C1827 C 0.22147 0.55398 0.64699 0.0
N1828 N 0.17793 0.59625 0.65261 0.0
N1829 N 0.25126 0.55495 0.63389 0.0
H1830 H 0.22247 0.52771 0.65786 0.0
H1831 H 0.24062 0.5244 0.64723 0.0
H1832 H 0.25874 0.56093 0.62707 0.0
H1833 H 0.26131 0.54361 0.63783 0.0
H1834 H 0.17221 0.61156 0.65015 0.0
H1835 H 0.1721 0.59197 0.66004 0.0
H1836 H 0.17321 0.612 0.6339 0.0
H1837 H 0.19373 0.61126 0.62413 0.0
C1838 C 0.20546 0.46317 0.40343 0.0
C1839 C 0.22171 0.446 0.40382 0.0
C1840 C 0.22103 0.44309 0.38468 0.0
C1841 C 0.20534 0.46074 0.38428 0.0
N1842 N 0.18665 0.49087 0.39293 0.0
N1843 N 0.24889 0.42314 0.3949 0.0
C1844 C 0.19885 0.47184 0.39357 0.0
C1845 C 0.23076 0.43709 0.39445 0.0
N1846 N 0.19552 0.47048 0.41244 0.0
N1847 N 0.22583 0.43138 0.37583 0.0
H1848 H 0.25647 0.4185 0.40193 0.0
H1849 H 0.25772 0.4178 0.38832 0.0
H1850 H 0.21919 0.43532 0.36852 0.0
H1851 H 0.23504 0.4168 0.37586 0.0
H1852 H 0.1817 0.48111 0.41256 0.0
H1853 H 0.19995 0.46465 0.41983 0.0
H1854 H 0.18333 0.50093 0.39933 0.0
H1855 H 0.18161 0.49769 0.38582 0.0
C1856 C 0.02631 0.06494 0.31541 0.0
C1857 C 0.03828 0.04475 0.31585 0.0
C1858 C 1.00238 0.02473 0.31746 0.0
C1859 C 0.99041 0.04468 0.31595 0.0
N1860 N 0.99054 0.0835 0.31232 0.0
N1861 N 0.03818 1.00522 0.31624 0.0
C1862 C 1.00226 0.06475 0.31465 0.0
C1863 C 0.02644 0.02456 0.31663 0.0
N1864 N 0.03796 0.08429 0.31595 0.0
N1865 N 0.99072 1.00605 0.31992 0.0
H1866 H 0.05583 1.00447 0.31587 0.0
H1867 H 0.03047 0.98993 0.31556 0.0
H1868 H 0.97308 1.00555 0.32047 0.0
H1869 H 0.99849 0.99149 0.32221 0.0
H1870 H 0.03019 0.09952 0.31682 0.0
H1871 H 0.05561 0.08505 0.31637 0.0
H1872 H 0.99828 0.0981 0.31008 0.0
H1873 H 0.9729 0.08411 0.31187 0.0
C1874 C 0.24642 0.77209 0.56096 0.0
C1875 C 0.26707 0.7836 0.56244 0.0
C1876 C 0.28709 0.74878 0.5653 0.0
C1877 C 0.2669 0.73725 0.56283 0.0
N1878 N 0.22799 0.73749 0.55707 0.0
N1879 N 0.30757 0.7833 0.5649 0.0
C1880 C 0.2467 0.74879 0.56035 0.0
C1881 C 0.28756 0.77205 0.56434 0.0
N1882 N 0.22645 0.78346 0.56039 0.0
N1883 N 0.30563 0.73747 0.56879 0.0
H1884 H 0.3085 0.80036 0.56442 0.0
H1885 H 0.32339 0.77574 0.56509 0.0
H1886 H 0.30595 0.72042 0.56945 0.0
H1887 H 0.32007 0.74499 0.57179 0.0
H1888 H 0.21059 0.77601 0.56048 0.0
H1889 H 0.22561 0.80055 0.56069 0.0
H1890 H 0.21362 0.74499 0.55398 0.0
H1891 H 0.22739 0.7204 0.5567 0.0
C1892 C 0.50146 1.00131 0.81716 0.0
C1893 C 0.48959 0.98124 0.81592 0.0
C1894 C 0.52557 0.96136 0.81413 0.0
C1895 C 0.53746 0.98126 0.81588 0.0
N1896 N 0.53724 0.01942 0.8208 0.0
N1897 N 0.48987 0.94174 0.81509 0.0
C1898 C 0.52553 1.00104 0.81792 0.0
C1899 C 0.50153 0.96112 0.81496 0.0
N1900 N 0.48975 0.02068 0.81725 0.0
N1901 N 0.53723 0.94287 0.81131 0.0
H1902 H 0.47223 0.94095 0.81557 0.0
H1903 H 0.49765 0.92644 0.81557 0.0
H1904 H 0.55487 0.94229 0.8108 0.0
H1905 H 0.52944 0.92854 0.80874 0.0
H1906 H 0.49747 0.03601 0.81693 0.0
H1907 H 0.4721 0.02149 0.81692 0.0
H1908 H 0.52951 0.03372 0.82347 0.0
H1909 H 0.55489 0.01985 0.82131 0.0
C1910 C 0.2438 0.25495 0.06484 0.0
C1911 C 0.26422 0.24325 0.06296 0.0
C1912 C 0.28496 0.2779 0.06108 0.0
C1913 C 0.2648 0.28958 0.06351 0.0
N1914 N 0.22596 0.28962 0.06934 0.0
N1915 N 0.30488 0.24305 0.06108 0.0
C1916 C 0.24447 0.2782 0.06588 0.0
C1917 C 0.28501 0.25459 0.06161 0.0
N1918 N 0.22369 0.24386 0.06529 0.0
N1919 N 0.30385 0.28909 0.05794 0.0
H1920 H 0.30555 0.22596 0.06132 0.0
H1921 H 0.32081 0.25036 0.06125 0.0
H1922 H 0.30462 0.30618 0.05765 0.0
H1923 H 0.31823 0.28152 0.05489 0.0
H1924 H 0.20793 0.25155 0.06546 0.0
H1925 H 0.2226 0.22682 0.06476 0.0
H1926 H 0.21141 0.2822 0.07227 0.0
H1927 H 0.22579 0.30667 0.07006 0.0
C1928 C 1.00202 0.96223 0.72216 0.0
C1929 C 0.99007 0.98214 0.72046 0.0
C1930 C 0.02599 1.0023 0.71948 0.0
C1931 C 0.03794 0.98223 0.72065 0.0
N1932 N 0.03783 0.94271 0.72126 0.0
N1933 N 0.99021 0.02042 0.71578 0.0
C1934 C 0.02607 0.96206 0.72143 0.0
C1935 C 1.00194 1.00199 0.7186 0.0
N1936 N 0.99039 0.94366 0.72482 0.0
N1937 N 0.03762 0.0217 0.71955 0.0
H1938 H 0.97257 0.02082 0.71519 0.0
H1939 H 0.99792 0.0348 0.71323 0.0
H1940 H 0.05525 0.02253 0.71997 0.0
H1941 H 0.02981 0.037 0.71993 0.0
H1942 H 0.99819 0.92928 0.72734 0.0
H1943 H 0.97274 0.94303 0.72525 0.0
H1944 H 0.03013 0.9274 0.72065 0.0
H1945 H 0.05548 0.94196 0.72085 0.0
C1946 C 0.28188 0.7721 0.97596 0.0
C1947 C 0.2612 0.78359 0.97444 0.0
C1948 C 0.24133 0.74875 0.97151 0.0
C1949 C 0.26153 0.73724 0.97402 0.0
N1950 N 0.30037 0.73751 0.97989 0.0
N1951 N 0.22073 0.78325 0.9719 0.0
C1952 C 0.28166 0.7488 0.97657 0.0
C1953 C 0.24077 0.77202 0.97249 0.0
N1954 N 0.3018 0.78348 0.97657 0.0
N1955 N 0.22287 0.73744 0.96796 0.0
H1956 H 0.21974 0.80031 0.97239 0.0
H1957 H 0.20493 0.77568 0.97167 0.0
H1958 H 0.22262 0.72038 0.96728 0.0
H1959 H 0.20845 0.74494 0.96493 0.0
H1960 H 0.31769 0.77604 0.97652 0.0
H1961 H 0.3026 0.80057 0.97628 0.0
H1962 H 0.31467 0.74504 0.98302 0.0
H1963 H 0.30101 0.72043 0.98027 0.0
C1964 C 0.50221 0.02334 0.22007 0.0
C1965 C 0.49023 0.04349 0.2208 0.0
C1966 C 0.5261 0.06365 0.22201 0.0
C1967 C 0.5381 0.04361 0.22077 0.0
N1968 N 0.53808 1.00494 0.21686 0.0
N1969 N 0.49028 0.08302 0.2206 0.0
C1970 C 0.52628 0.0236 0.21927 0.0
C1971 C 0.50206 0.06372 0.2212 0.0
N1972 N 0.49061 1.00395 0.22049 0.0
N1973 N 0.53766 0.08247 0.22432 0.0
H1974 H 0.47263 0.0837 0.22013 0.0
H1975 H 0.49796 0.09827 0.2197 0.0
H1976 H 0.5553 0.08316 0.22481 0.0
H1977 H 0.5298 0.09706 0.22652 0.0
H1978 H 0.49842 0.98871 0.22121 0.0
H1979 H 0.47296 1.00313 0.22085 0.0
H1980 H 0.53042 0.99033 0.21458 0.0
H1981 H 0.55572 1.00452 0.21632 0.0
C1982 C 0.28602 0.27723 0.47322 0.0
C1983 C 0.26515 0.28869 0.47414 0.0
C1984 C 0.24477 0.25385 0.47601 0.0
C1985 C 0.26546 0.24235 0.4745 0.0
N1986 N 0.30513 0.24255 0.47004 0.0
N1987 N 0.22432 0.28829 0.47467 0.0
C1988 C 0.28593 0.2539 0.47263 0.0
C1989 C 0.2444 0.27708 0.47502 0.0
N1990 N 0.30596 0.28866 0.47322 0.0
N1991 N 0.22562 0.24258 0.47875 0.0
H1992 H 0.2234 0.30534 0.4741 0.0
H1993 H 0.20858 0.28069 0.4741 0.0
H1994 H 0.22512 0.22553 0.47939 0.0
H1995 H 0.21066 0.25014 0.48113 0.0
H1996 H 0.32183 0.28128 0.47376 0.0
H1997 H 0.30665 0.30576 0.4734 0.0
H1998 H 0.32 0.24999 0.46748 0.0
H1999 H 0.30572 0.22546 0.46967 0.0
C2000 C 0.74051 0.25356 0.4719 0.0
C2001 C 0.7607 0.24173 0.47408 0.0
C2002 C 0.78209 0.2762 0.47487 0.0
C2003 C 0.76154 0.28808 0.47374 0.0
N2004 N 0.72081 0.28855 0.4723 0.0
N2005 N 0.80021 0.24148 0.47889 0.0
C2006 C 0.74062 0.27689 0.47253 0.0
C2007 C 0.7814 0.25297 0.47587 0.0
N2008 N 0.72137 0.24247 0.46901 0.0
N2009 N 0.80232 0.28713 0.47476 0.0
H2010 H 0.80047 0.22443 0.47957 0.0
H2011 H 0.81508 0.24887 0.48149 0.0
H2012 H 0.80347 0.30416 0.47416 0.0
H2013 H 0.818 0.27931 0.47439 0.0
H2014 H 0.70679 0.25013 0.46624 0.0
H2015 H 0.72064 0.2254 0.46857 0.0
H2016 H 0.70484 0.28134 0.47262 0.0
H2017 H 0.72028 0.30565 0.47252 0.0
C2018 C 0.74436 0.74926 0.97625 0.0
C2019 C 0.76484 0.73761 0.97446 0.0
C2020 C 0.78513 0.77236 0.97194 0.0
C2021 C 0.76513 0.78397 0.97469 0.0
N2022 N 0.72639 0.78384 0.98071 0.0
N2023 N 0.80527 0.7376 0.97173 0.0
C2024 C 0.74489 0.77251 0.97717 0.0
C2025 C 0.7854 0.74904 0.97258 0.0
N2026 N 0.72431 0.73808 0.97682 0.0
N2027 N 0.80369 0.78366 0.96848 0.0
H2028 H 0.80604 0.72051 0.97196 0.0
H2029 H 0.82116 0.74498 0.97154 0.0
H2030 H 0.80418 0.80075 0.96807 0.0
H2031 H 0.81796 0.77616 0.96528 0.0
H2032 H 0.70851 0.7457 0.97696 0.0
H2033 H 0.7233 0.72102 0.97631 0.0
H2034 H 0.71203 0.77633 0.98379 0.0
H2035 H 0.72598 0.8009 0.98131 0.0
C2036 C 0.78723 0.27526 0.06335 0.0
C2037 C 0.76666 0.28685 0.0617 0.0
C2038 C 0.74635 0.25212 0.05926 0.0
C2039 C 0.76663 0.24049 0.06151 0.0
N2040 N 0.80551 0.2405 0.06726 0.0
N2041 N 0.72601 0.28672 0.05983 0.0
C2042 C 0.78685 0.25194 0.06401 0.0
C2043 C 0.74602 0.27538 0.06016 0.0
N2044 N 0.80722 0.28653 0.06395 0.0
N2045 N 0.72759 0.24094 0.05593 0.0
H2046 H 0.72513 0.30378 0.06034 0.0
H2047 H 0.71017 0.27923 0.05989 0.0
H2048 H 0.72704 0.22388 0.05533 0.0
H2049 H 0.71313 0.24857 0.05301 0.0
H2050 H 0.82307 0.27901 0.06396 0.0
H2051 H 0.80809 0.30361 0.0637 0.0
H2052 H 0.81999 0.24788 0.07029 0.0
H2053 H 0.8059 0.22341 0.06769 0.0
C2054 C 0.74103 0.77244 0.56351 0.0
C2055 C 0.76124 0.78422 0.56137 0.0
C2056 C 0.78261 0.7497 0.56048 0.0
C2057 C 0.76205 0.73787 0.56161 0.0
N2058 N 0.72132 0.73751 0.56305 0.0
N2059 N 0.80075 0.7844 0.55653 0.0
C2060 C 0.74113 0.74911 0.56284 0.0
C2061 C 0.78193 0.77294 0.55953 0.0
N2062 N 0.7219 0.78355 0.56643 0.0
N2063 N 0.80283 0.7387 0.56056 0.0
H2064 H 0.80102 0.80146 0.55588 0.0
H2065 H 0.81561 0.77699 0.55391 0.0
H2066 H 0.80397 0.72166 0.56112 0.0
H2067 H 0.81851 0.74648 0.56094 0.0
H2068 H 0.70731 0.77591 0.56918 0.0
H2069 H 0.72117 0.80063 0.56688 0.0
H2070 H 0.70535 0.74477 0.56273 0.0
H2071 H 0.72077 0.72041 0.56279 0.0
C2072 C 0.52649 0.50679 0.81728 0.0
C2073 C 0.53818 0.52699 0.81615 0.0
C2074 C 0.50201 0.54661 0.81456 0.0
C2075 C 0.4903 0.52657 0.81619 0.0
N2076 N 0.49088 0.48828 0.82084 0.0
N2077 N 0.53755 0.5665 0.81558 0.0
C2078 C 0.50242 0.50684 0.81807 0.0
C2079 C 0.52606 0.54703 0.81536 0.0
N2080 N 0.53838 0.48752 0.81725 0.0
N2081 N 0.49019 0.56508 0.81187 0.0
H2082 H 0.55518 0.56743 0.81602 0.0
H2083 H 0.52964 0.58172 0.81619 0.0
H2084 H 0.47254 0.56553 0.81137 0.0
H2085 H 0.49784 0.57954 0.80938 0.0
H2086 H 0.5308 0.47213 0.81683 0.0
H2087 H 0.55604 0.48688 0.81691 0.0
H2088 H 0.49875 0.47396 0.82339 0.0
H2089 H 0.47325 0.48771 0.82139 0.0
C2090 C 0.02479 0.51927 0.31866 0.0
C2091 C 0.03683 0.49978 0.31619 0.0
C2092 C 1.00098 0.47966 0.31462 0.0
C2093 C 0.98895 0.49962 0.31603 0.0
N2094 N 0.98894 0.53886 0.31835 0.0
N2095 N 0.0368 0.46196 0.31064 0.0
C2096 C 1.00073 0.51956 0.31781 0.0
C2097 C 0.02503 0.48007 0.31389 0.0
N2098 N 0.03639 0.53735 0.32203 0.0
N2099 N 0.98939 0.46026 0.31422 0.0
H2100 H 0.05444 0.46148 0.31017 0.0
H2101 H 0.0291 0.44791 0.30767 0.0
H2102 H 0.97176 0.45935 0.31462 0.0
H2103 H 0.99723 0.44495 0.31435 0.0
H2104 H 0.02857 0.55133 0.32502 0.0
H2105 H 0.05402 0.53777 0.32262 0.0
H2106 H 0.99661 0.55422 0.31845 0.0
H2107 H 0.97129 0.53964 0.31798 0.0
C2108 C 0.50123 0.47706 0.22067 0.0
C2109 C 0.48933 0.4967 0.21833 0.0
C2110 C 0.52532 0.51659 0.21671 0.0
C2111 C 0.53721 0.49673 0.21859 0.0
N2112 N 0.53702 0.45739 0.22045 0.0
N2113 N 0.48959 0.53417 0.21236 0.0
C2114 C 0.5253 0.47674 0.21999 0.0
C2115 C 0.50127 0.51619 0.21581 0.0
N2116 N 0.48956 0.45892 0.22392 0.0
N2117 N 0.53698 0.53593 0.21615 0.0
H2118 H 0.47196 0.53448 0.21171 0.0
H2119 H 0.49735 0.54813 0.20935 0.0
H2120 H 0.55461 0.5368 0.21657 0.0
H2121 H 0.5292 0.55126 0.216 0.0
H2122 H 0.49732 0.44494 0.22692 0.0
H2123 H 0.47191 0.45837 0.22433 0.0
H2124 H 0.52929 0.44205 0.22033 0.0
H2125 H 0.55466 0.45656 0.22009 0.0
C2126 C 1.0004 0.50512 0.7187 0.0
C2127 C 0.98867 0.52538 0.71959 0.0
C2128 C 0.02479 0.54507 0.72099 0.0
C2129 C 0.03654 0.52494 0.7196 0.0
N2130 N 0.03606 0.48642 0.71539 0.0
N2131 N 0.98922 0.56491 0.71971 0.0
C2132 C 0.02448 0.50512 0.71793 0.0
C2133 C 1.00075 0.54546 0.72016 0.0
N2134 N 0.98854 0.48586 0.71894 0.0
N2135 N 0.03657 0.56367 0.72347 0.0
H2136 H 0.97159 0.56582 0.71924 0.0
H2137 H 0.9971 0.58009 0.71894 0.0
H2138 H 0.05421 0.56413 0.72398 0.0
H2139 H 0.02888 0.57827 0.72578 0.0
H2140 H 0.99615 0.4705 0.71953 0.0
H2141 H 0.97088 0.48525 0.71925 0.0
H2142 H 0.02823 0.47197 0.71299 0.0
H2143 H 0.0537 0.48581 0.71487 0.0
loop_
_geom_bond_atom_site_label_1
_geom_bond_atom_site_label_2
_geom_bond_distance
_geom_bond_site_symmetry_2
_ccdc_geom_bond_type
C0 C1 1.264 . S
C0 C5 1.479 . S
C0 C10 1.465 . S
C1 C0 1.264 . S
C1 C3 1.339 . S
C1 H28 0.931 . S
C2 C3 1.395 . S
C2 C4 1.320 . S
C3 C1 1.339 . S
C3 C2 1.395 . S
C3 H29 0.929 . S
C4 C2 1.320 . S
C4 C5 1.405 . S
C4 H30 0.930 . S
C5 C0 1.479 . S
C5 C4 1.405 . S
C5 H31 0.931 . S
U6 O7 2.454 . S
U6 O8 2.458 . S
U6 C9 2.984 . S
U6 C10 2.847 . S
U6 C23 2.882 . S
U6 O24 2.441 . S
U6 O25 2.420 . S
U6 O26 2.455 . S
U6 O27 2.449 . S
O7 U6 2.454 . S
O7 C9 1.353 . S
O8 U6 2.458 . S
O8 C9 1.286 . S
C9 U6 2.984 . S
C9 O7 1.353 . S
C9 O8 1.286 . S
C9 C11 1.363 . S
C10 C0 1.465 . S
C10 U6 2.847 . S
C10 O24 1.249 . S
C10 O25 1.202 . S
C11 C9 1.363 . S
C11 C13 1.408 . S
C11 C16 1.342 . S
C12 C13 1.310 . S
C12 C15 1.461 . S
C12 H32 0.932 . S
C13 C11 1.408 . S
C13 C12 1.310 . S
C13 H33 0.930 . S
C14 C15 1.474 . S
C14 C16 1.285 . S
C14 H34 0.929 . S
C15 C12 1.461 . S
C15 C14 1.474 . S
C16 C11 1.342 . S
C16 C14 1.285 . S
C16 H35 0.930 . S
C17 C20 1.424 . S
C17 C22 1.245 . S
C17 C23 1.428 1_545 S
C18 C21 1.260 . S
C18 C22 1.477 . S
C18 H36 0.932 . S
C19 C20 1.384 . S
C19 C21 1.479 . S
C19 H37 0.929 . S
C20 C17 1.424 . S
C20 C19 1.384 . S
C20 H38 0.928 . S
C21 C18 1.260 . S
C21 C19 1.479 . S
C22 C17 1.245 . S
C22 C18 1.477 . S
C22 H39 0.932 . S
C23 U6 2.882 . S
C23 C17 1.428 1_565 S
C23 O26 1.301 . S
C23 O27 1.282 . S
O24 U6 2.441 . S
O24 C10 1.249 . S
O25 U6 2.420 . S
O25 C10 1.202 . S
O26 U6 2.455 . S
O26 C23 1.301 . S
O27 U6 2.449 . S
O27 C23 1.282 . S
H28 C1 0.931 . S
H29 C3 0.929 . S
H30 C4 0.930 . S
H31 C5 0.931 . S
H32 C12 0.932 . S
H33 C13 0.930 . S
H34 C14 0.929 . S
H35 C16 0.930 . S
H36 C18 0.932 . S
H37 C19 0.929 . S
H38 C20 0.928 . S
H39 C22 0.932 . S
C40 C41 1.264 . S
C40 C45 1.479 . S
C40 C50 1.465 . S
C41 C40 1.264 . S
C41 C43 1.339 . S
C41 H68 0.931 . S
C42 C43 1.395 . S
C42 C44 1.320 . S
C43 C41 1.339 . S
C43 C42 1.395 . S
C43 H69 0.929 . S
C44 C42 1.320 . S
C44 C45 1.405 . S
C44 H70 0.930 . S
C45 C40 1.479 . S
C45 C44 1.405 . S
C45 H71 0.931 . S
U46 O47 2.454 . S
U46 O48 2.458 . S
U46 C49 2.984 . S
U46 C50 2.847 . S
U46 C63 2.882 . S
U46 O64 2.441 . S
U46 O65 2.420 . S
U46 O66 2.455 . S
U46 O67 2.449 . S
O47 U46 2.454 . S
O47 C49 1.353 . S
O48 U46 2.458 . S
O48 C49 1.286 . S
C49 U46 2.984 . S
C49 O47 1.353 . S
C49 O48 1.286 . S
C49 C51 1.363 . S
C50 C40 1.465 . S
C50 U46 2.847 . S
C50 O64 1.249 . S
C50 O65 1.202 . S
C51 C49 1.363 . S
C51 C53 1.408 . S
C51 C56 1.342 . S
C52 C53 1.310 . S
C52 C55 1.461 . S
C52 H72 0.932 . S
C53 C51 1.408 . S
C53 C52 1.310 . S
C53 H73 0.930 . S
C54 C55 1.474 . S
C54 C56 1.285 . S
C54 H74 0.929 . S
C55 C52 1.461 . S
C55 C54 1.474 . S
C56 C51 1.342 . S
C56 C54 1.285 . S
C56 H75 0.930 . S
C57 C60 1.424 . S
C57 C62 1.245 . S
C57 C63 1.428 . S
C58 C61 1.260 . S
C58 C62 1.477 . S
C58 H76 0.932 . S
C59 C60 1.384 . S
C59 C61 1.479 . S
C59 H77 0.929 . S
C60 C57 1.424 . S
C60 C59 1.384 . S
C60 H78 0.928 . S
C61 C58 1.260 . S
C61 C59 1.479 . S
C62 C57 1.245 . S
C62 C58 1.477 . S
C62 H79 0.932 . S
C63 U46 2.882 . S
C63 C57 1.428 . S
C63 O66 1.301 . S
C63 O67 1.282 . S
O64 U46 2.441 . S
O64 C50 1.249 . S
O65 U46 2.420 . S
O65 C50 1.202 . S
O66 U46 2.455 . S
O66 C63 1.301 . S
O67 U46 2.449 . S
O67 C63 1.282 . S
H68 C41 0.931 . S
H69 C43 0.929 . S
H70 C44 0.930 . S
H71 C45 0.931 . S
H72 C52 0.932 . S
H73 C53 0.930 . S
H74 C54 0.929 . S
H75 C56 0.930 . S
H76 C58 0.932 . S
H77 C59 0.929 . S
H78 C60 0.928 . S
H79 C62 0.932 . S
C80 C81 1.264 . S
C80 C85 1.479 . S
C80 C90 1.465 . S
C81 C80 1.264 . S
C81 C83 1.339 . S
C81 H108 0.931 . S
C82 C83 1.395 . S
C82 C84 1.320 . S
C83 C81 1.339 . S
C83 C82 1.395 . S
C83 H109 0.929 . S
C84 C82 1.320 . S
C84 C85 1.405 . S
C84 H110 0.930 . S
C85 C80 1.479 . S
C85 C84 1.405 . S
C85 H111 0.931 . S
U86 O87 2.454 . S
U86 O88 2.458 . S
U86 C89 2.984 . S
U86 C90 2.847 . S
U86 C103 2.882 . S
U86 O104 2.441 . S
U86 O105 2.420 . S
U86 O106 2.455 . S
U86 O107 2.449 . S
O87 U86 2.454 . S
O87 C89 1.353 . S
O88 U86 2.458 . S
O88 C89 1.286 . S
C89 U86 2.984 . S
C89 O87 1.353 . S
C89 O88 1.286 . S
C89 C91 1.363 . S
C90 C80 1.465 . S
C90 U86 2.847 . S
C90 O104 1.249 . S
C90 O105 1.202 . S
C91 C89 1.363 . S
C91 C93 1.408 . S
C91 C96 1.342 . S
C92 C93 1.310 . S
C92 C95 1.461 . S
C92 H112 0.932 . S
C93 C91 1.408 . S
C93 C92 1.310 . S
C93 H113 0.930 . S
C94 C95 1.474 . S
C94 C96 1.285 . S
C94 H114 0.929 . S
C95 C92 1.461 . S
C95 C94 1.474 . S
C96 C91 1.342 . S
C96 C94 1.285 . S
C96 H115 0.930 . S
C97 C100 1.424 . S
C97 C102 1.245 . S
C97 C103 1.428 1_565 S
C98 C101 1.260 . S
C98 C102 1.477 . S
C98 H116 0.932 . S
C99 C100 1.384 . S
C99 C101 1.479 . S
C99 H117 0.929 . S
C100 C97 1.424 . S
C100 C99 1.384 . S
C100 H118 0.928 . S
C101 C98 1.260 . S
C101 C99 1.479 . S
C102 C97 1.245 . S
C102 C98 1.477 . S
C102 H119 0.932 . S
C103 U86 2.882 . S
C103 C97 1.428 1_545 S
C103 O106 1.301 . S
C103 O107 1.282 . S
O104 U86 2.441 . S
O104 C90 1.249 . S
O105 U86 2.420 . S
O105 C90 1.202 . S
O106 U86 2.455 . S
O106 C103 1.301 . S
O107 U86 2.449 . S
O107 C103 1.282 . S
H108 C81 0.931 . S
H109 C83 0.929 . S
H110 C84 0.930 . S
H111 C85 0.931 . S
H112 C92 0.932 . S
H113 C93 0.930 . S
H114 C94 0.929 . S
H115 C96 0.930 . S
H116 C98 0.932 . S
H117 C99 0.929 . S
H118 C100 0.928 . S
H119 C102 0.932 . S
C120 C121 1.264 . S
C120 C125 1.479 . S
C120 C130 1.465 . S
C121 C120 1.264 . S
C121 C123 1.339 . S
C121 H148 0.931 . S
C122 C123 1.395 . S
C122 C124 1.320 . S
C123 C121 1.339 . S
C123 C122 1.395 . S
C123 H149 0.929 . S
C124 C122 1.320 . S
C124 C125 1.405 . S
C124 H150 0.930 . S
C125 C120 1.479 . S
C125 C124 1.405 . S
C125 H151 0.931 . S
U126 O127 2.454 . S
U126 O128 2.458 . S
U126 C129 2.984 . S
U126 C130 2.847 . S
U126 C143 2.882 . S
U126 O144 2.441 . S
U126 O145 2.420 . S
U126 O146 2.455 . S
U126 O147 2.449 . S
O127 U126 2.454 . S
O127 C129 1.353 . S
O128 U126 2.458 . S
O128 C129 1.286 . S
C129 U126 2.984 . S
C129 O127 1.353 . S
C129 O128 1.286 . S
C129 C131 1.363 . S
C130 C120 1.465 . S
C130 U126 2.847 . S
C130 O144 1.249 . S
C130 O145 1.202 . S
C131 C129 1.363 . S
C131 C133 1.408 . S
C131 C136 1.342 . S
C132 C133 1.310 . S
C132 C135 1.461 . S
C132 H152 0.932 . S
C133 C131 1.408 . S
C133 C132 1.310 . S
C133 H153 0.930 . S
C134 C135 1.474 . S
C134 C136 1.285 . S
C134 H154 0.929 . S
C135 C132 1.461 . S
C135 C134 1.474 . S
C136 C131 1.342 . S
C136 C134 1.285 . S
C136 H155 0.930 . S
C137 C140 1.424 . S
C137 C142 1.245 . S
C137 C143 1.428 . S
C138 C141 1.260 . S
C138 C142 1.477 . S
C138 H156 0.932 . S
C139 C140 1.384 . S
C139 C141 1.479 . S
C139 H157 0.929 . S
C140 C137 1.424 . S
C140 C139 1.384 . S
C140 H158 0.928 . S
C141 C138 1.260 . S
C141 C139 1.479 . S
C142 C137 1.245 . S
C142 C138 1.477 . S
C142 H159 0.932 . S
C143 U126 2.882 . S
C143 C137 1.428 . S
C143 O146 1.301 . S
C143 O147 1.282 . S
O144 U126 2.441 . S
O144 C130 1.249 . S
O145 U126 2.420 . S
O145 C130 1.202 . S
O146 U126 2.455 . S
O146 C143 1.301 . S
O147 U126 2.449 . S
O147 C143 1.282 . S
H148 C121 0.931 . S
H149 C123 0.929 . S
H150 C124 0.930 . S
H151 C125 0.931 . S
H152 C132 0.932 . S
H153 C133 0.930 . S
H154 C134 0.929 . S
H155 C136 0.930 . S
H156 C138 0.932 . S
H157 C139 0.929 . S
H158 C140 0.928 . S
H159 C142 0.932 . S
C160 C161 1.264 . S
C160 C165 1.479 . S
C160 C170 1.465 . S
C161 C160 1.264 . S
C161 C163 1.339 . S
C161 H188 0.931 . S
C162 C163 1.395 . S
C162 C164 1.320 . S
C163 C161 1.339 . S
C163 C162 1.395 . S
C163 H189 0.929 . S
C164 C162 1.320 . S
C164 C165 1.405 . S
C164 H190 0.930 . S
C165 C160 1.479 . S
C165 C164 1.405 . S
C165 H191 0.931 . S
U166 O167 2.454 . S
U166 O168 2.458 . S
U166 C169 2.984 . S
U166 C170 2.847 . S
U166 C183 2.882 . S
U166 O184 2.441 . S
U166 O185 2.420 . S
U166 O186 2.455 . S
U166 O187 2.449 . S
O167 U166 2.454 . S
O167 C169 1.353 . S
O168 U166 2.458 . S
O168 C169 1.286 . S
C169 U166 2.984 . S
C169 O167 1.353 . S
C169 O168 1.286 . S
C169 C171 1.363 . S
C170 C160 1.465 . S
C170 U166 2.847 . S
C170 O184 1.249 . S
C170 O185 1.202 . S
C171 C169 1.363 . S
C171 C173 1.408 . S
C171 C176 1.342 . S
C172 C173 1.310 . S
C172 C175 1.461 . S
C172 H192 0.932 . S
C173 C171 1.408 . S
C173 C172 1.310 . S
C173 H193 0.930 . S
C174 C175 1.474 . S
C174 C176 1.285 . S
C174 H194 0.929 . S
C175 C172 1.461 . S
C175 C174 1.474 . S
C176 C171 1.342 . S
C176 C174 1.285 . S
C176 H195 0.930 . S
C177 C180 1.424 . S
C177 C182 1.245 . S
C177 C183 1.428 1_565 S
C178 C181 1.260 . S
C178 C182 1.477 . S
C178 H196 0.932 . S
C179 C180 1.384 . S
C179 C181 1.479 . S
C179 H197 0.929 . S
C180 C177 1.424 . S
C180 C179 1.384 . S
C180 H198 0.928 . S
C181 C178 1.260 . S
C181 C179 1.479 . S
C182 C177 1.245 . S
C182 C178 1.477 . S
C182 H199 0.932 . S
C183 U166 2.882 . S
C183 C177 1.428 1_545 S
C183 O186 1.301 . S
C183 O187 1.282 . S
O184 U166 2.441 . S
O184 C170 1.249 . S
O185 U166 2.420 . S
O185 C170 1.202 . S
O186 U166 2.455 . S
O186 C183 1.301 . S
O187 U166 2.449 . S
O187 C183 1.282 . S
H188 C161 0.931 . S
H189 C163 0.929 . S
H190 C164 0.930 . S
H191 C165 0.931 . S
H192 C172 0.932 . S
H193 C173 0.930 . S
H194 C174 0.929 . S
H195 C176 0.930 . S
H196 C178 0.932 . S
H197 C179 0.929 . S
H198 C180 0.928 . S
H199 C182 0.932 . S
C200 C201 1.264 . S
C200 C205 1.479 . S
C200 C210 1.465 . S
C201 C200 1.264 . S
C201 C203 1.339 . S
C201 H228 0.931 . S
C202 C203 1.395 . S
C202 C204 1.320 . S
C203 C201 1.339 . S
C203 C202 1.395 . S
C203 H229 0.929 . S
C204 C202 1.320 . S
C204 C205 1.405 . S
C204 H230 0.930 . S
C205 C200 1.479 . S
C205 C204 1.405 . S
C205 H231 0.931 . S
U206 O207 2.454 . S
U206 O208 2.458 . S
U206 C209 2.984 . S
U206 C210 2.847 . S
U206 C223 2.882 . S
U206 O224 2.441 . S
U206 O225 2.420 . S
U206 O226 2.455 . S
U206 O227 2.449 . S
O207 U206 2.454 . S
O207 C209 1.353 . S
O208 U206 2.458 . S
O208 C209 1.286 . S
C209 U206 2.984 . S
C209 O207 1.353 . S
C209 O208 1.286 . S
C209 C211 1.363 . S
C210 C200 1.465 . S
C210 U206 2.847 . S
C210 O224 1.249 . S
C210 O225 1.202 . S
C211 C209 1.363 . S
C211 C213 1.408 . S
C211 C216 1.342 . S
C212 C213 1.310 . S
C212 C215 1.461 . S
C212 H232 0.932 . S
C213 C211 1.408 . S
C213 C212 1.310 . S
C213 H233 0.930 . S
C214 C215 1.474 . S
C214 C216 1.285 . S
C214 H234 0.929 . S
C215 C212 1.461 . S
C215 C214 1.474 . S
C216 C211 1.342 . S
C216 C214 1.285 . S
C216 H235 0.930 . S
C217 C220 1.424 . S
C217 C222 1.245 . S
C217 C223 1.428 . S
C218 C221 1.260 . S
C218 C222 1.477 . S
C218 H236 0.932 . S
C219 C220 1.384 . S
C219 C221 1.479 . S
C219 H237 0.929 . S
C220 C217 1.424 . S
C220 C219 1.384 . S
C220 H238 0.928 . S
C221 C218 1.260 . S
C221 C219 1.479 . S
C222 C217 1.245 . S
C222 C218 1.477 . S
C222 H239 0.932 . S
C223 U206 2.882 . S
C223 C217 1.428 . S
C223 O226 1.301 . S
C223 O227 1.282 . S
O224 U206 2.441 . S
O224 C210 1.249 . S
O225 U206 2.420 . S
O225 C210 1.202 . S
O226 U206 2.455 . S
O226 C223 1.301 . S
O227 U206 2.449 . S
O227 C223 1.282 . S
H228 C201 0.931 . S
H229 C203 0.929 . S
H230 C204 0.930 . S
H231 C205 0.931 . S
H232 C212 0.932 . S
H233 C213 0.930 . S
H234 C214 0.929 . S
H235 C216 0.930 . S
H236 C218 0.932 . S
H237 C219 0.929 . S
H238 C220 0.928 . S
H239 C222 0.932 . S
C240 C241 1.264 . S
C240 C245 1.479 . S
C240 C250 1.465 . S
C241 C240 1.264 . S
C241 C243 1.339 . S
C241 H268 0.931 . S
C242 C243 1.395 . S
C242 C244 1.320 . S
C243 C241 1.339 . S
C243 C242 1.395 . S
C243 H269 0.929 . S
C244 C242 1.320 . S
C244 C245 1.405 . S
C244 H270 0.930 . S
C245 C240 1.479 . S
C245 C244 1.405 . S
C245 H271 0.931 . S
U246 O247 2.454 . S
U246 O248 2.458 . S
U246 C249 2.984 . S
U246 C250 2.847 . S
U246 C263 2.882 . S
U246 O264 2.441 . S
U246 O265 2.420 . S
U246 O266 2.455 . S
U246 O267 2.449 . S
O247 U246 2.454 . S
O247 C249 1.353 . S
O248 U246 2.458 . S
O248 C249 1.286 . S
C249 U246 2.984 . S
C249 O247 1.353 . S
C249 O248 1.286 . S
C249 C251 1.363 . S
C250 C240 1.465 . S
C250 U246 2.847 . S
C250 O264 1.249 . S
C250 O265 1.202 . S
C251 C249 1.363 . S
C251 C253 1.408 . S
C251 C256 1.342 . S
C252 C253 1.310 . S
C252 C255 1.461 . S
C252 H272 0.932 . S
C253 C251 1.408 . S
C253 C252 1.310 . S
C253 H273 0.930 . S
C254 C255 1.474 . S
C254 C256 1.285 . S
C254 H274 0.929 . S
C255 C252 1.461 . S
C255 C254 1.474 . S
C256 C251 1.342 . S
C256 C254 1.285 . S
C256 H275 0.930 . S
C257 C260 1.424 . S
C257 C262 1.245 . S
C257 C263 1.428 1_545 S
C258 C261 1.260 . S
C258 C262 1.477 . S
C258 H276 0.932 . S
C259 C260 1.384 . S
C259 C261 1.479 . S
C259 H277 0.929 . S
C260 C257 1.424 . S
C260 C259 1.384 . S
C260 H278 0.928 . S
C261 C258 1.260 . S
C261 C259 1.479 . S
C262 C257 1.245 . S
C262 C258 1.477 . S
C262 H279 0.932 . S
C263 U246 2.882 . S
C263 C257 1.428 1_565 S
C263 O266 1.301 . S
C263 O267 1.282 . S
O264 U246 2.441 . S
O264 C250 1.249 . S
O265 U246 2.420 . S
O265 C250 1.202 . S
O266 U246 2.455 . S
O266 C263 1.301 . S
O267 U246 2.449 . S
O267 C263 1.282 . S
H268 C241 0.931 . S
H269 C243 0.929 . S
H270 C244 0.930 . S
H271 C245 0.931 . S
H272 C252 0.932 . S
H273 C253 0.930 . S
H274 C254 0.929 . S
H275 C256 0.930 . S
H276 C258 0.932 . S
H277 C259 0.929 . S
H278 C260 0.928 . S
H279 C262 0.932 . S
C280 C281 1.264 . S
C280 C285 1.479 . S
C280 C290 1.465 . S
C281 C280 1.264 . S
C281 C283 1.339 . S
C281 H308 0.931 . S
C282 C283 1.395 . S
C282 C284 1.320 . S
C283 C281 1.339 . S
C283 C282 1.395 . S
C283 H309 0.929 . S
C284 C282 1.320 . S
C284 C285 1.405 . S
C284 H310 0.930 . S
C285 C280 1.479 . S
C285 C284 1.405 . S
C285 H311 0.931 . S
U286 O287 2.454 . S
U286 O288 2.458 . S
U286 C289 2.984 . S
U286 C290 2.847 . S
U286 C303 2.882 . S
U286 O304 2.441 . S
U286 O305 2.420 . S
U286 O306 2.455 . S
U286 O307 2.449 . S
O287 U286 2.454 . S
O287 C289 1.353 . S
O288 U286 2.458 . S
O288 C289 1.286 . S
C289 U286 2.984 . S
C289 O287 1.353 . S
C289 O288 1.286 . S
C289 C291 1.363 . S
C290 C280 1.465 . S
C290 U286 2.847 . S
C290 O304 1.249 . S
C290 O305 1.202 . S
C291 C289 1.363 . S
C291 C293 1.408 . S
C291 C296 1.342 . S
C292 C293 1.310 . S
C292 C295 1.461 . S
C292 H312 0.932 . S
C293 C291 1.408 . S
C293 C292 1.310 . S
C293 H313 0.930 . S
C294 C295 1.474 . S
C294 C296 1.285 . S
C294 H314 0.929 . S
C295 C292 1.461 . S
C295 C294 1.474 . S
C296 C291 1.342 . S
C296 C294 1.285 . S
C296 H315 0.930 . S
C297 C300 1.424 . S
C297 C302 1.245 . S
C297 C303 1.428 . S
C298 C301 1.260 . S
C298 C302 1.477 . S
C298 H316 0.932 . S
C299 C300 1.384 . S
C299 C301 1.479 . S
C299 H317 0.929 . S
C300 C297 1.424 . S
C300 C299 1.384 . S
C300 H318 0.928 . S
C301 C298 1.260 . S
C301 C299 1.479 . S
C302 C297 1.245 . S
C302 C298 1.477 . S
C302 H319 0.932 . S
C303 U286 2.882 . S
C303 C297 1.428 . S
C303 O306 1.301 . S
C303 O307 1.282 . S
O304 U286 2.441 . S
O304 C290 1.249 . S
O305 U286 2.420 . S
O305 C290 1.202 . S
O306 U286 2.455 . S
O306 C303 1.301 . S
O307 U286 2.449 . S
O307 C303 1.282 . S
H308 C281 0.931 . S
H309 C283 0.929 . S
H310 C284 0.930 . S
H311 C285 0.931 . S
H312 C292 0.932 . S
H313 C293 0.930 . S
H314 C294 0.929 . S
H315 C296 0.930 . S
H316 C298 0.932 . S
H317 C299 0.929 . S
H318 C300 0.928 . S
H319 C302 0.932 . S
C320 C321 1.264 . S
C320 C325 1.479 1_565 S
C320 C330 1.465 . S
C321 C320 1.264 . S
C321 C323 1.342 . S
C321 H348 0.931 . S
C322 C323 1.389 1_545 S
C322 C324 1.320 . S
C323 C321 1.342 . S
C323 C322 1.389 1_565 S
C323 H349 0.931 . S
C324 C322 1.320 . S
C324 C325 1.405 . S
C324 H350 0.930 . S
C325 C320 1.479 1_545 S
C325 C324 1.405 . S
C325 H351 0.931 . S
U326 O327 2.439 1_565 S
U326 O328 2.458 . S
U326 C329 2.997 . S
U326 C330 2.847 . S
U326 C343 2.882 . S
U326 O344 2.441 . S
U326 O345 2.420 . S
U326 O346 2.455 . S
U326 O347 2.449 . S
O327 U326 2.439 1_545 S
O327 C329 1.349 1_545 S
O328 U326 2.458 . S
O328 C329 1.300 . S
C329 U326 2.997 . S
C329 O327 1.349 1_565 S
C329 O328 1.300 . S
C329 C331 1.353 1_565 S
C330 C320 1.465 . S
C330 U326 2.847 . S
C330 O344 1.249 . S
C330 O345 1.202 . S
C331 C329 1.353 1_545 S
C331 C333 1.408 . S
C331 C336 1.342 . S
C332 C333 1.310 . S
C332 C335 1.461 . S
C332 H352 0.932 . S
C333 C331 1.408 . S
C333 C332 1.310 . S
C333 H353 0.930 . S
C334 C335 1.474 . S
C334 C336 1.285 . S
C334 H354 0.929 . S
C335 C332 1.461 . S
C335 C334 1.474 . S
C336 C331 1.342 . S
C336 C334 1.285 . S
C336 H355 0.938 . S
C337 C340 1.424 . S
C337 C342 1.245 . S
C337 C343 1.428 . S
C338 C341 1.260 . S
C338 C342 1.477 . S
C338 H356 0.932 . S
C339 C340 1.384 . S
C339 C341 1.479 . S
C339 H357 0.929 . S
C340 C337 1.424 . S
C340 C339 1.384 . S
C340 H358 0.928 . S
C341 C338 1.260 . S
C341 C339 1.479 . S
C342 C337 1.245 . S
C342 C338 1.477 . S
C342 H359 0.932 . S
C343 U326 2.882 . S
C343 C337 1.428 . S
C343 O346 1.301 . S
C343 O347 1.282 . S
O344 U326 2.441 . S
O344 C330 1.249 . S
O345 U326 2.420 . S
O345 C330 1.202 . S
O346 U326 2.455 . S
O346 C343 1.301 . S
O347 U326 2.449 . S
O347 C343 1.282 . S
H348 C321 0.931 . S
H349 C323 0.931 . S
H350 C324 0.930 . S
H351 C325 0.931 . S
H352 C332 0.932 . S
H353 C333 0.930 . S
H354 C334 0.929 . S
H355 C336 0.938 . S
H356 C338 0.932 . S
H357 C339 0.929 . S
H358 C340 0.928 . S
H359 C342 0.932 . S
C360 C361 1.264 . S
C360 C365 1.479 . S
C360 C370 1.465 . S
C361 C360 1.264 . S
C361 C363 1.339 . S
C361 H388 0.931 . S
C362 C363 1.395 . S
C362 C364 1.320 . S
C363 C361 1.339 . S
C363 C362 1.395 . S
C363 H389 0.929 . S
C364 C362 1.320 . S
C364 C365 1.405 . S
C364 H390 0.930 . S
C365 C360 1.479 . S
C365 C364 1.405 . S
C365 H391 0.931 . S
U366 O367 2.454 . S
U366 O368 2.458 . S
U366 C369 2.984 . S
U366 C370 2.847 . S
U366 C383 2.882 . S
U366 O384 2.441 . S
U366 O385 2.420 . S
U366 O386 2.455 . S
U366 O387 2.449 . S
O367 U366 2.454 . S
O367 C369 1.353 . S
O368 U366 2.458 . S
O368 C369 1.286 . S
C369 U366 2.984 . S
C369 O367 1.353 . S
C369 O368 1.286 . S
C369 C371 1.363 . S
C370 C360 1.465 . S
C370 U366 2.847 . S
C370 O384 1.249 . S
C370 O385 1.202 . S
C371 C369 1.363 . S
C371 C373 1.408 . S
C371 C376 1.342 . S
C372 C373 1.310 . S
C372 C375 1.461 . S
C372 H392 0.932 . S
C373 C371 1.408 . S
C373 C372 1.310 . S
C373 H393 0.930 . S
C374 C375 1.474 . S
C374 C376 1.285 . S
C374 H394 0.929 . S
C375 C372 1.461 . S
C375 C374 1.474 . S
C376 C371 1.342 . S
C376 C374 1.285 . S
C376 H395 0.930 . S
C377 C380 1.424 . S
C377 C382 1.245 . S
C377 C383 1.428 . S
C378 C381 1.260 . S
C378 C382 1.477 . S
C378 H396 0.932 . S
C379 C380 1.384 . S
C379 C381 1.479 . S
C379 H397 0.929 . S
C380 C377 1.424 . S
C380 C379 1.384 . S
C380 H398 0.928 . S
C381 C378 1.260 . S
C381 C379 1.479 . S
C382 C377 1.245 . S
C382 C378 1.477 . S
C382 H399 0.932 . S
C383 U366 2.882 . S
C383 C377 1.428 . S
C383 O386 1.301 . S
C383 O387 1.282 . S
O384 U366 2.441 . S
O384 C370 1.249 . S
O385 U366 2.420 . S
O385 C370 1.202 . S
O386 U366 2.455 . S
O386 C383 1.301 . S
O387 U366 2.449 . S
O387 C383 1.282 . S
H388 C361 0.931 . S
H389 C363 0.929 . S
H390 C364 0.930 . S
H391 C365 0.931 . S
H392 C372 0.932 . S
H393 C373 0.930 . S
H394 C374 0.929 . S
H395 C376 0.930 . S
H396 C378 0.932 . S
H397 C379 0.929 . S
H398 C380 0.928 . S
H399 C382 0.932 . S
C400 C401 1.264 . S
C400 C405 1.479 1_545 S
C400 C410 1.465 . S
C401 C400 1.264 . S
C401 C403 1.342 . S
C401 H428 0.931 . S
C402 C403 1.389 1_565 S
C402 C404 1.320 . S
C403 C401 1.342 . S
C403 C402 1.389 1_545 S
C403 H429 0.931 . S
C404 C402 1.320 . S
C404 C405 1.405 . S
C404 H430 0.930 . S
C405 C400 1.479 1_565 S
C405 C404 1.405 . S
C405 H431 0.931 . S
U406 O407 2.439 1_545 S
U406 O408 2.458 . S
U406 C409 2.997 . S
U406 C410 2.847 . S
U406 C423 2.882 . S
U406 O424 2.441 . S
U406 O425 2.420 . S
U406 O426 2.455 . S
U406 O427 2.449 . S
O407 U406 2.439 1_565 S
O407 C409 1.349 1_565 S
O408 U406 2.458 . S
O408 C409 1.300 . S
C409 U406 2.997 . S
C409 O407 1.349 1_545 S
C409 O408 1.300 . S
C409 C411 1.353 1_545 S
C410 C400 1.465 . S
C410 U406 2.847 . S
C410 O424 1.249 . S
C410 O425 1.202 . S
C411 C409 1.353 1_565 S
C411 C413 1.408 . S
C411 C416 1.342 . S
C412 C413 1.310 . S
C412 C415 1.461 . S
C412 H432 0.932 . S
C413 C411 1.408 . S
C413 C412 1.310 . S
C413 H433 0.930 . S
C414 C415 1.474 . S
C414 C416 1.285 . S
C414 H434 0.929 . S
C415 C412 1.461 . S
C415 C414 1.474 . S
C416 C411 1.342 . S
C416 C414 1.285 . S
C416 H435 0.938 . S
C417 C420 1.424 . S
C417 C422 1.245 . S
C417 C423 1.428 . S
C418 C421 1.260 . S
C418 C422 1.477 . S
C418 H436 0.932 . S
C419 C420 1.384 . S
C419 C421 1.479 . S
C419 H437 0.929 . S
C420 C417 1.424 . S
C420 C419 1.384 . S
C420 H438 0.928 . S
C421 C418 1.260 . S
C421 C419 1.479 . S
C422 C417 1.245 . S
C422 C418 1.477 . S
C422 H439 0.932 . S
C423 U406 2.882 . S
C423 C417 1.428 . S
C423 O426 1.301 . S
C423 O427 1.282 . S
O424 U406 2.441 . S
O424 C410 1.249 . S
O425 U406 2.420 . S
O425 C410 1.202 . S
O426 U406 2.455 . S
O426 C423 1.301 . S
O427 U406 2.449 . S
O427 C423 1.282 . S
H428 C401 0.931 . S
H429 C403 0.931 . S
H430 C404 0.930 . S
H431 C405 0.931 . S
H432 C412 0.932 . S
H433 C413 0.930 . S
H434 C414 0.929 . S
H435 C416 0.938 . S
H436 C418 0.932 . S
H437 C419 0.929 . S
H438 C420 0.928 . S
H439 C422 0.932 . S
C440 C441 1.264 . S
C440 C445 1.479 . S
C440 C450 1.465 . S
C441 C440 1.264 . S
C441 C443 1.339 . S
C441 H468 0.931 . S
C442 C443 1.395 . S
C442 C444 1.320 . S
C443 C441 1.339 . S
C443 C442 1.395 . S
C443 H469 0.929 . S
C444 C442 1.320 . S
C444 C445 1.405 . S
C444 H470 0.930 . S
C445 C440 1.479 . S
C445 C444 1.405 . S
C445 H471 0.931 . S
U446 O447 2.454 . S
U446 O448 2.458 . S
U446 C449 2.984 . S
U446 C450 2.847 . S
U446 C463 2.882 . S
U446 O464 2.441 . S
U446 O465 2.420 . S
U446 O466 2.455 . S
U446 O467 2.449 . S
O447 U446 2.454 . S
O447 C449 1.353 . S
O448 U446 2.458 . S
O448 C449 1.286 . S
C449 U446 2.984 . S
C449 O447 1.353 . S
C449 O448 1.286 . S
C449 C451 1.363 . S
C450 C440 1.465 . S
C450 U446 2.847 . S
C450 O464 1.249 . S
C450 O465 1.202 . S
C451 C449 1.363 . S
C451 C453 1.408 . S
C451 C456 1.342 . S
C452 C453 1.310 . S
C452 C455 1.461 . S
C452 H472 0.932 . S
C453 C451 1.408 . S
C453 C452 1.310 . S
C453 H473 0.930 . S
C454 C455 1.474 . S
C454 C456 1.285 . S
C454 H474 0.929 . S
C455 C452 1.461 . S
C455 C454 1.474 . S
C456 C451 1.342 . S
C456 C454 1.285 . S
C456 H475 0.930 . S
C457 C460 1.424 . S
C457 C462 1.245 . S
C457 C463 1.428 . S
C458 C461 1.260 . S
C458 C462 1.477 . S
C458 H476 0.932 . S
C459 C460 1.384 . S
C459 C461 1.479 . S
C459 H477 0.929 . S
C460 C457 1.424 . S
C460 C459 1.384 . S
C460 H478 0.928 . S
C461 C458 1.260 . S
C461 C459 1.479 . S
C462 C457 1.245 . S
C462 C458 1.477 . S
C462 H479 0.932 . S
C463 U446 2.882 . S
C463 C457 1.428 . S
C463 O466 1.301 . S
C463 O467 1.282 . S
O464 U446 2.441 . S
O464 C450 1.249 . S
O465 U446 2.420 . S
O465 C450 1.202 . S
O466 U446 2.455 . S
O466 C463 1.301 . S
O467 U446 2.449 . S
O467 C463 1.282 . S
H468 C441 0.931 . S
H469 C443 0.929 . S
H470 C444 0.930 . S
H471 C445 0.931 . S
H472 C452 0.932 . S
H473 C453 0.930 . S
H474 C454 0.929 . S
H475 C456 0.930 . S
H476 C458 0.932 . S
H477 C459 0.929 . S
H478 C460 0.928 . S
H479 C462 0.932 . S
C480 C481 1.264 . S
C480 C485 1.479 1_545 S
C480 C490 1.465 . S
C481 C480 1.264 . S
C481 C483 1.342 . S
C481 H508 0.931 . S
C482 C483 1.389 1_565 S
C482 C484 1.320 . S
C483 C481 1.342 . S
C483 C482 1.389 1_545 S
C483 H509 0.931 . S
C484 C482 1.320 . S
C484 C485 1.405 . S
C484 H510 0.930 . S
C485 C480 1.479 1_565 S
C485 C484 1.405 . S
C485 H511 0.931 . S
U486 O487 2.439 1_545 S
U486 O488 2.458 . S
U486 C489 2.997 . S
U486 C490 2.847 . S
U486 C503 2.882 . S
U486 O504 2.441 . S
U486 O505 2.420 . S
U486 O506 2.455 . S
U486 O507 2.449 . S
O487 U486 2.439 1_565 S
O487 C489 1.349 1_565 S
O488 U486 2.458 . S
O488 C489 1.300 . S
C489 U486 2.997 . S
C489 O487 1.349 1_545 S
C489 O488 1.300 . S
C489 C491 1.353 1_545 S
C490 C480 1.465 . S
C490 U486 2.847 . S
C490 O504 1.249 . S
C490 O505 1.202 . S
C491 C489 1.353 1_565 S
C491 C493 1.408 . S
C491 C496 1.342 . S
C492 C493 1.310 . S
C492 C495 1.461 . S
C492 H512 0.932 . S
C493 C491 1.408 . S
C493 C492 1.310 . S
C493 H513 0.930 . S
C494 C495 1.474 . S
C494 C496 1.285 . S
C494 H514 0.929 . S
C495 C492 1.461 . S
C495 C494 1.474 . S
C496 C491 1.342 . S
C496 C494 1.285 . S
C496 H515 0.938 . S
C497 C500 1.424 . S
C497 C502 1.245 . S
C497 C503 1.428 . S
C498 C501 1.260 . S
C498 C502 1.477 . S
C498 H516 0.932 . S
C499 C500 1.384 . S
C499 C501 1.479 . S
C499 H517 0.929 . S
C500 C497 1.424 . S
C500 C499 1.384 . S
C500 H518 0.928 . S
C501 C498 1.260 . S
C501 C499 1.479 . S
C502 C497 1.245 . S
C502 C498 1.477 . S
C502 H519 0.932 . S
C503 U486 2.882 . S
C503 C497 1.428 . S
C503 O506 1.301 . S
C503 O507 1.282 . S
O504 U486 2.441 . S
O504 C490 1.249 . S
O505 U486 2.420 . S
O505 C490 1.202 . S
O506 U486 2.455 . S
O506 C503 1.301 . S
O507 U486 2.449 . S
O507 C503 1.282 . S
H508 C481 0.931 . S
H509 C483 0.931 . S
H510 C484 0.930 . S
H511 C485 0.931 . S
H512 C492 0.932 . S
H513 C493 0.930 . S
H514 C494 0.929 . S
H515 C496 0.938 . S
H516 C498 0.932 . S
H517 C499 0.929 . S
H518 C500 0.928 . S
H519 C502 0.932 . S
C520 C521 1.264 . S
C520 C525 1.479 . S
C520 C530 1.465 . S
C521 C520 1.264 . S
C521 C523 1.339 . S
C521 H548 0.931 . S
C522 C523 1.395 . S
C522 C524 1.320 . S
C523 C521 1.339 . S
C523 C522 1.395 . S
C523 H549 0.929 . S
C524 C522 1.320 . S
C524 C525 1.405 . S
C524 H550 0.930 . S
C525 C520 1.479 . S
C525 C524 1.405 . S
C525 H551 0.931 . S
U526 O527 2.454 . S
U526 O528 2.458 . S
U526 C529 2.984 . S
U526 C530 2.847 . S
U526 C543 2.882 . S
U526 O544 2.441 . S
U526 O545 2.420 . S
U526 O546 2.455 . S
U526 O547 2.449 . S
O527 U526 2.454 . S
O527 C529 1.353 . S
O528 U526 2.458 . S
O528 C529 1.286 . S
C529 U526 2.984 . S
C529 O527 1.353 . S
C529 O528 1.286 . S
C529 C531 1.363 . S
C530 C520 1.465 . S
C530 U526 2.847 . S
C530 O544 1.249 . S
C530 O545 1.202 . S
C531 C529 1.363 . S
C531 C533 1.408 . S
C531 C536 1.342 . S
C532 C533 1.310 . S
C532 C535 1.461 . S
C532 H552 0.932 . S
C533 C531 1.408 . S
C533 C532 1.310 . S
C533 H553 0.930 . S
C534 C535 1.474 . S
C534 C536 1.285 . S
C534 H554 0.929 . S
C535 C532 1.461 . S
C535 C534 1.474 . S
C536 C531 1.342 . S
C536 C534 1.285 . S
C536 H555 0.930 . S
C537 C540 1.424 . S
C537 C542 1.245 . S
C537 C543 1.428 . S
C538 C541 1.260 . S
C538 C542 1.477 . S
C538 H556 0.932 . S
C539 C540 1.384 . S
C539 C541 1.479 . S
C539 H557 0.929 . S
C540 C537 1.424 . S
C540 C539 1.384 . S
C540 H558 0.928 . S
C541 C538 1.260 . S
C541 C539 1.479 . S
C542 C537 1.245 . S
C542 C538 1.477 . S
C542 H559 0.932 . S
C543 U526 2.882 . S
C543 C537 1.428 . S
C543 O546 1.301 . S
C543 O547 1.282 . S
O544 U526 2.441 . S
O544 C530 1.249 . S
O545 U526 2.420 . S
O545 C530 1.202 . S
O546 U526 2.455 . S
O546 C543 1.301 . S
O547 U526 2.449 . S
O547 C543 1.282 . S
H548 C521 0.931 . S
H549 C523 0.929 . S
H550 C524 0.930 . S
H551 C525 0.931 . S
H552 C532 0.932 . S
H553 C533 0.930 . S
H554 C534 0.929 . S
H555 C536 0.930 . S
H556 C538 0.932 . S
H557 C539 0.929 . S
H558 C540 0.928 . S
H559 C542 0.932 . S
C560 C561 1.264 . S
C560 C565 1.479 1_565 S
C560 C570 1.465 . S
C561 C560 1.264 . S
C561 C563 1.342 . S
C561 H588 0.931 . S
C562 C563 1.389 1_545 S
C562 C564 1.320 . S
C563 C561 1.342 . S
C563 C562 1.389 1_565 S
C563 H589 0.931 . S
C564 C562 1.320 . S
C564 C565 1.405 . S
C564 H590 0.930 . S
C565 C560 1.479 1_545 S
C565 C564 1.405 . S
C565 H591 0.931 . S
U566 O567 2.439 1_565 S
U566 O568 2.458 . S
U566 C569 2.997 . S
U566 C570 2.847 . S
U566 C583 2.882 . S
U566 O584 2.441 . S
U566 O585 2.420 . S
U566 O586 2.455 . S
U566 O587 2.449 . S
O567 U566 2.439 1_545 S
O567 C569 1.349 1_545 S
O568 U566 2.458 . S
O568 C569 1.300 . S
C569 U566 2.997 . S
C569 O567 1.349 1_565 S
C569 O568 1.300 . S
C569 C571 1.353 1_565 S
C570 C560 1.465 . S
C570 U566 2.847 . S
C570 O584 1.249 . S
C570 O585 1.202 . S
C571 C569 1.353 1_545 S
C571 C573 1.408 . S
C571 C576 1.342 . S
C572 C573 1.310 . S
C572 C575 1.461 . S
C572 H592 0.932 . S
C573 C571 1.408 . S
C573 C572 1.310 . S
C573 H593 0.930 . S
C574 C575 1.474 . S
C574 C576 1.285 . S
C574 H594 0.929 . S
C575 C572 1.461 . S
C575 C574 1.474 . S
C576 C571 1.342 . S
C576 C574 1.285 . S
C576 H595 0.938 . S
C577 C580 1.424 . S
C577 C582 1.245 . S
C577 C583 1.428 . S
C578 C581 1.260 . S
C578 C582 1.477 . S
C578 H596 0.932 . S
C579 C580 1.384 . S
C579 C581 1.479 . S
C579 H597 0.929 . S
C580 C577 1.424 . S
C580 C579 1.384 . S
C580 H598 0.928 . S
C581 C578 1.260 . S
C581 C579 1.479 . S
C582 C577 1.245 . S
C582 C578 1.477 . S
C582 H599 0.932 . S
C583 U566 2.882 . S
C583 C577 1.428 . S
C583 O586 1.301 . S
C583 O587 1.282 . S
O584 U566 2.441 . S
O584 C570 1.249 . S
O585 U566 2.420 . S
O585 C570 1.202 . S
O586 U566 2.455 . S
O586 C583 1.301 . S
O587 U566 2.449 . S
O587 C583 1.282 . S
H588 C561 0.931 . S
H589 C563 0.931 . S
H590 C564 0.930 . S
H591 C565 0.931 . S
H592 C572 0.932 . S
H593 C573 0.930 . S
H594 C574 0.929 . S
H595 C576 0.938 . S
H596 C578 0.932 . S
H597 C579 0.929 . S
H598 C580 0.928 . S
H599 C582 0.932 . S
C600 C601 1.264 . S
C600 C605 1.479 . S
C600 C610 1.465 . S
C601 C600 1.264 . S
C601 C603 1.339 . S
C601 H628 0.931 . S
C602 C603 1.395 . S
C602 C604 1.320 . S
C603 C601 1.339 . S
C603 C602 1.395 . S
C603 H629 0.929 . S
C604 C602 1.320 . S
C604 C605 1.405 . S
C604 H630 0.930 . S
C605 C600 1.479 . S
C605 C604 1.405 . S
C605 H631 0.931 . S
U606 O607 2.454 . S
U606 O608 2.458 . S
U606 C609 2.984 . S
U606 C610 2.847 . S
U606 C623 2.882 . S
U606 O624 2.441 . S
U606 O625 2.420 . S
U606 O626 2.455 . S
U606 O627 2.449 . S
O607 U606 2.454 . S
O607 C609 1.353 . S
O608 U606 2.458 . S
O608 C609 1.286 . S
C609 U606 2.984 . S
C609 O607 1.353 . S
C609 O608 1.286 . S
C609 C611 1.363 . S
C610 C600 1.465 . S
C610 U606 2.847 . S
C610 O624 1.249 . S
C610 O625 1.202 . S
C611 C609 1.363 . S
C611 C613 1.408 . S
C611 C616 1.342 . S
C612 C613 1.310 . S
C612 C615 1.461 . S
C612 H632 0.932 . S
C613 C611 1.408 . S
C613 C612 1.310 . S
C613 H633 0.930 . S
C614 C615 1.474 . S
C614 C616 1.285 . S
C614 H634 0.929 . S
C615 C612 1.461 . S
C615 C614 1.474 . S
C616 C611 1.342 . S
C616 C614 1.285 . S
C616 H635 0.930 . S
C617 C620 1.424 . S
C617 C622 1.245 . S
C617 C623 1.428 . S
C618 C621 1.260 . S
C618 C622 1.477 . S
C618 H636 0.932 . S
C619 C620 1.384 . S
C619 C621 1.479 . S
C619 H637 0.929 . S
C620 C617 1.424 . S
C620 C619 1.384 . S
C620 H638 0.928 . S
C621 C618 1.260 . S
C621 C619 1.479 . S
C622 C617 1.245 . S
C622 C618 1.477 . S
C622 H639 0.932 . S
C623 U606 2.882 . S
C623 C617 1.428 . S
C623 O626 1.301 . S
C623 O627 1.282 . S
O624 U606 2.441 . S
O624 C610 1.249 . S
O625 U606 2.420 . S
O625 C610 1.202 . S
O626 U606 2.455 . S
O626 C623 1.301 . S
O627 U606 2.449 . S
O627 C623 1.282 . S
H628 C601 0.931 . S
H629 C603 0.929 . S
H630 C604 0.930 . S
H631 C605 0.931 . S
H632 C612 0.932 . S
H633 C613 0.930 . S
H634 C614 0.929 . S
H635 C616 0.930 . S
H636 C618 0.932 . S
H637 C619 0.929 . S
H638 C620 0.928 . S
H639 C622 0.932 . S
C640 C641 1.264 . S
C640 C645 1.479 . S
C640 C650 1.465 . S
C641 C640 1.264 . S
C641 C643 1.339 . S
C641 H668 0.931 . S
C642 C643 1.395 . S
C642 C644 1.320 . S
C643 C641 1.339 . S
C643 C642 1.395 . S
C643 H669 0.929 . S
C644 C642 1.320 . S
C644 C645 1.405 . S
C644 H670 0.930 . S
C645 C640 1.479 . S
C645 C644 1.405 . S
C645 H671 0.931 . S
U646 O647 2.454 . S
U646 O648 2.458 . S
U646 C649 2.984 . S
U646 C650 2.847 . S
U646 C663 2.882 . S
U646 O664 2.441 . S
U646 O665 2.420 . S
U646 O666 2.455 . S
U646 O667 2.449 . S
O647 U646 2.454 . S
O647 C649 1.353 . S
O648 U646 2.458 . S
O648 C649 1.286 . S
C649 U646 2.984 . S
C649 O647 1.353 . S
C649 O648 1.286 . S
C649 C651 1.363 . S
C650 C640 1.465 . S
C650 U646 2.847 . S
C650 O664 1.249 . S
C650 O665 1.202 . S
C651 C649 1.363 . S
C651 C653 1.408 . S
C651 C656 1.342 . S
C652 C653 1.310 . S
C652 C655 1.461 . S
C652 H672 0.932 . S
C653 C651 1.408 . S
C653 C652 1.310 . S
C653 H673 0.930 . S
C654 C655 1.474 . S
C654 C656 1.285 . S
C654 H674 0.929 . S
C655 C652 1.461 . S
C655 C654 1.474 . S
C656 C651 1.342 . S
C656 C654 1.285 . S
C656 H675 0.930 . S
C657 C660 1.424 . S
C657 C662 1.245 . S
C657 C663 1.428 . S
C658 C661 1.260 . S
C658 C662 1.477 . S
C658 H676 0.932 . S
C659 C660 1.384 . S
C659 C661 1.479 . S
C659 H677 0.929 . S
C660 C657 1.424 . S
C660 C659 1.384 . S
C660 H678 0.928 . S
C661 C658 1.260 . S
C661 C659 1.479 . S
C662 C657 1.245 . S
C662 C658 1.477 . S
C662 H679 0.932 . S
C663 U646 2.882 . S
C663 C657 1.428 . S
C663 O666 1.301 . S
C663 O667 1.282 . S
O664 U646 2.441 . S
O664 C650 1.249 . S
O665 U646 2.420 . S
O665 C650 1.202 . S
O666 U646 2.455 . S
O666 C663 1.301 . S
O667 U646 2.449 . S
O667 C663 1.282 . S
H668 C641 0.931 . S
H669 C643 0.929 . S
H670 C644 0.930 . S
H671 C645 0.931 . S
H672 C652 0.932 . S
H673 C653 0.930 . S
H674 C654 0.929 . S
H675 C656 0.930 . S
H676 C658 0.932 . S
H677 C659 0.929 . S
H678 C660 0.928 . S
H679 C662 0.932 . S
C680 C681 1.264 . S
C680 C685 1.479 . S
C680 C690 1.465 . S
C681 C680 1.264 . S
C681 C683 1.339 . S
C681 H708 0.931 . S
C682 C683 1.395 . S
C682 C684 1.320 . S
C683 C681 1.339 . S
C683 C682 1.395 . S
C683 H709 0.929 . S
C684 C682 1.320 . S
C684 C685 1.405 . S
C684 H710 0.930 . S
C685 C680 1.479 . S
C685 C684 1.405 . S
C685 H711 0.931 . S
U686 O687 2.454 . S
U686 O688 2.458 . S
U686 C689 2.984 . S
U686 C690 2.847 . S
U686 C703 2.882 . S
U686 O704 2.441 . S
U686 O705 2.420 . S
U686 O706 2.455 . S
U686 O707 2.449 . S
O687 U686 2.454 . S
O687 C689 1.353 . S
O688 U686 2.458 . S
O688 C689 1.286 . S
C689 U686 2.984 . S
C689 O687 1.353 . S
C689 O688 1.286 . S
C689 C691 1.363 . S
C690 C680 1.465 . S
C690 U686 2.847 . S
C690 O704 1.249 . S
C690 O705 1.202 . S
C691 C689 1.363 . S
C691 C693 1.408 . S
C691 C696 1.342 . S
C692 C693 1.310 . S
C692 C695 1.461 . S
C692 H712 0.932 . S
C693 C691 1.408 . S
C693 C692 1.310 . S
C693 H713 0.930 . S
C694 C695 1.474 . S
C694 C696 1.285 . S
C694 H714 0.929 . S
C695 C692 1.461 . S
C695 C694 1.474 . S
C696 C691 1.342 . S
C696 C694 1.285 . S
C696 H715 0.930 . S
C697 C700 1.424 . S
C697 C702 1.245 . S
C697 C703 1.428 . S
C698 C701 1.260 . S
C698 C702 1.477 . S
C698 H716 0.932 . S
C699 C700 1.384 . S
C699 C701 1.479 . S
C699 H717 0.929 . S
C700 C697 1.424 . S
C700 C699 1.384 . S
C700 H718 0.928 . S
C701 C698 1.260 . S
C701 C699 1.479 . S
C702 C697 1.245 . S
C702 C698 1.477 . S
C702 H719 0.932 . S
C703 U686 2.882 . S
C703 C697 1.428 . S
C703 O706 1.301 . S
C703 O707 1.282 . S
O704 U686 2.441 . S
O704 C690 1.249 . S
O705 U686 2.420 . S
O705 C690 1.202 . S
O706 U686 2.455 . S
O706 C703 1.301 . S
O707 U686 2.449 . S
O707 C703 1.282 . S
H708 C681 0.931 . S
H709 C683 0.929 . S
H710 C684 0.930 . S
H711 C685 0.931 . S
H712 C692 0.932 . S
H713 C693 0.930 . S
H714 C694 0.929 . S
H715 C696 0.930 . S
H716 C698 0.932 . S
H717 C699 0.929 . S
H718 C700 0.928 . S
H719 C702 0.932 . S
C720 C721 1.264 . S
C720 C725 1.479 . S
C720 C730 1.465 . S
C721 C720 1.264 . S
C721 C723 1.339 . S
C721 H748 0.931 . S
C722 C723 1.395 . S
C722 C724 1.320 . S
C723 C721 1.339 . S
C723 C722 1.395 . S
C723 H749 0.929 . S
C724 C722 1.320 . S
C724 C725 1.405 . S
C724 H750 0.930 . S
C725 C720 1.479 . S
C725 C724 1.405 . S
C725 H751 0.931 . S
U726 O727 2.454 . S
U726 O728 2.458 . S
U726 C729 2.984 . S
U726 C730 2.847 . S
U726 C743 2.882 . S
U726 O744 2.441 . S
U726 O745 2.420 . S
U726 O746 2.455 . S
U726 O747 2.449 . S
O727 U726 2.454 . S
O727 C729 1.353 . S
O728 U726 2.458 . S
O728 C729 1.286 . S
C729 U726 2.984 . S
C729 O727 1.353 . S
C729 O728 1.286 . S
C729 C731 1.363 . S
C730 C720 1.465 . S
C730 U726 2.847 . S
C730 O744 1.249 . S
C730 O745 1.202 . S
C731 C729 1.363 . S
C731 C733 1.408 . S
C731 C736 1.342 . S
C732 C733 1.310 . S
C732 C735 1.461 . S
C732 H752 0.932 . S
C733 C731 1.408 . S
C733 C732 1.310 . S
C733 H753 0.930 . S
C734 C735 1.474 . S
C734 C736 1.285 . S
C734 H754 0.929 . S
C735 C732 1.461 . S
C735 C734 1.474 . S
C736 C731 1.342 . S
C736 C734 1.285 . S
C736 H755 0.930 . S
C737 C740 1.424 . S
C737 C742 1.245 . S
C737 C743 1.428 . S
C738 C741 1.260 . S
C738 C742 1.477 . S
C738 H756 0.932 . S
C739 C740 1.384 . S
C739 C741 1.479 . S
C739 H757 0.929 . S
C740 C737 1.424 . S
C740 C739 1.384 . S
C740 H758 0.928 . S
C741 C738 1.260 . S
C741 C739 1.479 . S
C742 C737 1.245 . S
C742 C738 1.477 . S
C742 H759 0.932 . S
C743 U726 2.882 . S
C743 C737 1.428 . S
C743 O746 1.301 . S
C743 O747 1.282 . S
O744 U726 2.441 . S
O744 C730 1.249 . S
O745 U726 2.420 . S
O745 C730 1.202 . S
O746 U726 2.455 . S
O746 C743 1.301 . S
O747 U726 2.449 . S
O747 C743 1.282 . S
H748 C721 0.931 . S
H749 C723 0.929 . S
H750 C724 0.930 . S
H751 C725 0.931 . S
H752 C732 0.932 . S
H753 C733 0.930 . S
H754 C734 0.929 . S
H755 C736 0.930 . S
H756 C738 0.932 . S
H757 C739 0.929 . S
H758 C740 0.928 . S
H759 C742 0.932 . S
C760 C761 1.264 . S
C760 C765 1.479 . S
C760 C770 1.465 . S
C761 C760 1.264 . S
C761 C763 1.339 . S
C761 H788 0.931 . S
C762 C763 1.395 . S
C762 C764 1.320 . S
C763 C761 1.339 . S
C763 C762 1.395 . S
C763 H789 0.929 . S
C764 C762 1.320 . S
C764 C765 1.405 . S
C764 H790 0.930 . S
C765 C760 1.479 . S
C765 C764 1.405 . S
C765 H791 0.931 . S
U766 O767 2.454 . S
U766 O768 2.458 . S
U766 C769 2.984 . S
U766 C770 2.847 . S
U766 C783 2.882 . S
U766 O784 2.441 . S
U766 O785 2.420 . S
U766 O786 2.455 . S
U766 O787 2.449 . S
O767 U766 2.454 . S
O767 C769 1.353 . S
O768 U766 2.458 . S
O768 C769 1.286 . S
C769 U766 2.984 . S
C769 O767 1.353 . S
C769 O768 1.286 . S
C769 C771 1.363 . S
C770 C760 1.465 . S
C770 U766 2.847 . S
C770 O784 1.249 . S
C770 O785 1.202 . S
C771 C769 1.363 . S
C771 C773 1.408 . S
C771 C776 1.342 . S
C772 C773 1.310 . S
C772 C775 1.461 . S
C772 H792 0.932 . S
C773 C771 1.408 . S
C773 C772 1.310 . S
C773 H793 0.930 . S
C774 C775 1.474 . S
C774 C776 1.285 . S
C774 H794 0.929 . S
C775 C772 1.461 . S
C775 C774 1.474 . S
C776 C771 1.342 . S
C776 C774 1.285 . S
C776 H795 0.930 . S
C777 C780 1.424 . S
C777 C782 1.245 . S
C777 C783 1.428 . S
C778 C781 1.260 . S
C778 C782 1.477 . S
C778 H796 0.932 . S
C779 C780 1.384 . S
C779 C781 1.479 . S
C779 H797 0.929 . S
C780 C777 1.424 . S
C780 C779 1.384 . S
C780 H798 0.928 . S
C781 C778 1.260 . S
C781 C779 1.479 . S
C782 C777 1.245 . S
C782 C778 1.477 . S
C782 H799 0.932 . S
C783 U766 2.882 . S
C783 C777 1.428 . S
C783 O786 1.301 . S
C783 O787 1.282 . S
O784 U766 2.441 . S
O784 C770 1.249 . S
O785 U766 2.420 . S
O785 C770 1.202 . S
O786 U766 2.455 . S
O786 C783 1.301 . S
O787 U766 2.449 . S
O787 C783 1.282 . S
H788 C761 0.931 . S
H789 C763 0.929 . S
H790 C764 0.930 . S
H791 C765 0.931 . S
H792 C772 0.932 . S
H793 C773 0.930 . S
H794 C774 0.929 . S
H795 C776 0.930 . S
H796 C778 0.932 . S
H797 C779 0.929 . S
H798 C780 0.928 . S
H799 C782 0.932 . S
C800 C801 1.264 . S
C800 C805 1.479 . S
C800 C810 1.465 . S
C801 C800 1.264 . S
C801 C803 1.339 . S
C801 H828 0.931 . S
C802 C803 1.395 . S
C802 C804 1.320 . S
C803 C801 1.339 . S
C803 C802 1.395 . S
C803 H829 0.929 . S
C804 C802 1.320 . S
C804 C805 1.405 . S
C804 H830 0.930 . S
C805 C800 1.479 . S
C805 C804 1.405 . S
C805 H831 0.931 . S
U806 O807 2.454 . S
U806 O808 2.458 . S
U806 C809 2.984 . S
U806 C810 2.847 . S
U806 C823 2.882 . S
U806 O824 2.441 . S
U806 O825 2.420 . S
U806 O826 2.455 . S
U806 O827 2.449 . S
O807 U806 2.454 . S
O807 C809 1.353 . S
O808 U806 2.458 . S
O808 C809 1.286 . S
C809 U806 2.984 . S
C809 O807 1.353 . S
C809 O808 1.286 . S
C809 C811 1.363 . S
C810 C800 1.465 . S
C810 U806 2.847 . S
C810 O824 1.249 . S
C810 O825 1.202 . S
C811 C809 1.363 . S
C811 C813 1.408 . S
C811 C816 1.342 . S
C812 C813 1.310 . S
C812 C815 1.461 . S
C812 H832 0.932 . S
C813 C811 1.408 . S
C813 C812 1.310 . S
C813 H833 0.930 . S
C814 C815 1.474 . S
C814 C816 1.285 . S
C814 H834 0.929 . S
C815 C812 1.461 . S
C815 C814 1.474 . S
C816 C811 1.342 . S
C816 C814 1.285 . S
C816 H835 0.930 . S
C817 C820 1.424 . S
C817 C822 1.245 . S
C817 C823 1.428 . S
C818 C821 1.260 . S
C818 C822 1.477 . S
C818 H836 0.932 . S
C819 C820 1.384 . S
C819 C821 1.479 . S
C819 H837 0.929 . S
C820 C817 1.424 . S
C820 C819 1.384 . S
C820 H838 0.928 . S
C821 C818 1.260 . S
C821 C819 1.479 . S
C822 C817 1.245 . S
C822 C818 1.477 . S
C822 H839 0.932 . S
C823 U806 2.882 . S
C823 C817 1.428 . S
C823 O826 1.301 . S
C823 O827 1.282 . S
O824 U806 2.441 . S
O824 C810 1.249 . S
O825 U806 2.420 . S
O825 C810 1.202 . S
O826 U806 2.455 . S
O826 C823 1.301 . S
O827 U806 2.449 . S
O827 C823 1.282 . S
H828 C801 0.931 . S
H829 C803 0.929 . S
H830 C804 0.930 . S
H831 C805 0.931 . S
H832 C812 0.932 . S
H833 C813 0.930 . S
H834 C814 0.929 . S
H835 C816 0.930 . S
H836 C818 0.932 . S
H837 C819 0.929 . S
H838 C820 0.928 . S
H839 C822 0.932 . S
C840 C841 1.264 . S
C840 C845 1.479 . S
C840 C850 1.465 . S
C841 C840 1.264 . S
C841 C843 1.339 . S
C841 H868 0.931 . S
C842 C843 1.395 . S
C842 C844 1.320 . S
C843 C841 1.339 . S
C843 C842 1.395 . S
C843 H869 0.929 . S
C844 C842 1.320 . S
C844 C845 1.405 . S
C844 H870 0.930 . S
C845 C840 1.479 . S
C845 C844 1.405 . S
C845 H871 0.931 . S
U846 O847 2.454 . S
U846 O848 2.458 . S
U846 C849 2.984 . S
U846 C850 2.847 . S
U846 C863 2.882 . S
U846 O864 2.441 . S
U846 O865 2.420 . S
U846 O866 2.455 . S
U846 O867 2.449 . S
O847 U846 2.454 . S
O847 C849 1.353 . S
O848 U846 2.458 . S
O848 C849 1.286 . S
C849 U846 2.984 . S
C849 O847 1.353 . S
C849 O848 1.286 . S
C849 C851 1.363 . S
C850 C840 1.465 . S
C850 U846 2.847 . S
C850 O864 1.249 . S
C850 O865 1.202 . S
C851 C849 1.363 . S
C851 C853 1.408 . S
C851 C856 1.342 . S
C852 C853 1.310 . S
C852 C855 1.461 . S
C852 H872 0.932 . S
C853 C851 1.408 . S
C853 C852 1.310 . S
C853 H873 0.930 . S
C854 C855 1.474 . S
C854 C856 1.285 . S
C854 H874 0.929 . S
C855 C852 1.461 . S
C855 C854 1.474 . S
C856 C851 1.342 . S
C856 C854 1.285 . S
C856 H875 0.930 . S
C857 C860 1.424 . S
C857 C862 1.245 . S
C857 C863 1.428 . S
C858 C861 1.260 . S
C858 C862 1.477 . S
C858 H876 0.932 . S
C859 C860 1.384 . S
C859 C861 1.479 . S
C859 H877 0.929 . S
C860 C857 1.424 . S
C860 C859 1.384 . S
C860 H878 0.928 . S
C861 C858 1.260 . S
C861 C859 1.479 . S
C862 C857 1.245 . S
C862 C858 1.477 . S
C862 H879 0.932 . S
C863 U846 2.882 . S
C863 C857 1.428 . S
C863 O866 1.301 . S
C863 O867 1.282 . S
O864 U846 2.441 . S
O864 C850 1.249 . S
O865 U846 2.420 . S
O865 C850 1.202 . S
O866 U846 2.455 . S
O866 C863 1.301 . S
O867 U846 2.449 . S
O867 C863 1.282 . S
H868 C841 0.931 . S
H869 C843 0.929 . S
H870 C844 0.930 . S
H871 C845 0.931 . S
H872 C852 0.932 . S
H873 C853 0.930 . S
H874 C854 0.929 . S
H875 C856 0.930 . S
H876 C858 0.932 . S
H877 C859 0.929 . S
H878 C860 0.928 . S
H879 C862 0.932 . S
C880 C881 1.264 . S
C880 C885 1.479 . S
C880 C890 1.465 . S
C881 C880 1.264 . S
C881 C883 1.339 . S
C881 H908 0.931 . S
C882 C883 1.395 . S
C882 C884 1.320 . S
C883 C881 1.339 . S
C883 C882 1.395 . S
C883 H909 0.929 . S
C884 C882 1.320 . S
C884 C885 1.405 . S
C884 H910 0.930 . S
C885 C880 1.479 . S
C885 C884 1.405 . S
C885 H911 0.931 . S
U886 O887 2.454 . S
U886 O888 2.458 . S
U886 C889 2.984 . S
U886 C890 2.847 . S
U886 C903 2.882 . S
U886 O904 2.441 . S
U886 O905 2.420 . S
U886 O906 2.455 . S
U886 O907 2.449 . S
O887 U886 2.454 . S
O887 C889 1.353 . S
O888 U886 2.458 . S
O888 C889 1.286 . S
C889 U886 2.984 . S
C889 O887 1.353 . S
C889 O888 1.286 . S
C889 C891 1.363 . S
C890 C880 1.465 . S
C890 U886 2.847 . S
C890 O904 1.249 . S
C890 O905 1.202 . S
C891 C889 1.363 . S
C891 C893 1.408 . S
C891 C896 1.342 . S
C892 C893 1.310 . S
C892 C895 1.461 . S
C892 H912 0.932 . S
C893 C891 1.408 . S
C893 C892 1.310 . S
C893 H913 0.930 . S
C894 C895 1.474 . S
C894 C896 1.285 . S
C894 H914 0.929 . S
C895 C892 1.461 . S
C895 C894 1.474 . S
C896 C891 1.342 . S
C896 C894 1.285 . S
C896 H915 0.930 . S
C897 C900 1.424 . S
C897 C902 1.245 . S
C897 C903 1.428 . S
C898 C901 1.260 . S
C898 C902 1.477 . S
C898 H916 0.932 . S
C899 C900 1.384 . S
C899 C901 1.479 . S
C899 H917 0.929 . S
C900 C897 1.424 . S
C900 C899 1.384 . S
C900 H918 0.928 . S
C901 C898 1.260 . S
C901 C899 1.479 . S
C902 C897 1.245 . S
C902 C898 1.477 . S
C902 H919 0.932 . S
C903 U886 2.882 . S
C903 C897 1.428 . S
C903 O906 1.301 . S
C903 O907 1.282 . S
O904 U886 2.441 . S
O904 C890 1.249 . S
O905 U886 2.420 . S
O905 C890 1.202 . S
O906 U886 2.455 . S
O906 C903 1.301 . S
O907 U886 2.449 . S
O907 C903 1.282 . S
H908 C881 0.931 . S
H909 C883 0.929 . S
H910 C884 0.930 . S
H911 C885 0.931 . S
H912 C892 0.932 . S
H913 C893 0.930 . S
H914 C894 0.929 . S
H915 C896 0.930 . S
H916 C898 0.932 . S
H917 C899 0.929 . S
H918 C900 0.928 . S
H919 C902 0.932 . S
C920 C921 1.264 . S
C920 C925 1.479 . S
C920 C930 1.465 . S
C921 C920 1.264 . S
C921 C923 1.339 . S
C921 H948 0.931 . S
C922 C923 1.395 . S
C922 C924 1.320 . S
C923 C921 1.339 . S
C923 C922 1.395 . S
C923 H949 0.929 . S
C924 C922 1.320 . S
C924 C925 1.405 . S
C924 H950 0.930 . S
C925 C920 1.479 . S
C925 C924 1.405 . S
C925 H951 0.931 . S
U926 O927 2.454 . S
U926 O928 2.458 . S
U926 C929 2.984 . S
U926 C930 2.847 . S
U926 C943 2.882 . S
U926 O944 2.441 . S
U926 O945 2.420 . S
U926 O946 2.455 . S
U926 O947 2.449 . S
O927 U926 2.454 . S
O927 C929 1.353 . S
O928 U926 2.458 . S
O928 C929 1.286 . S
C929 U926 2.984 . S
C929 O927 1.353 . S
C929 O928 1.286 . S
C929 C931 1.363 . S
C930 C920 1.465 . S
C930 U926 2.847 . S
C930 O944 1.249 . S
C930 O945 1.202 . S
C931 C929 1.363 . S
C931 C933 1.408 . S
C931 C936 1.342 . S
C932 C933 1.310 . S
C932 C935 1.461 . S
C932 H952 0.932 . S
C933 C931 1.408 . S
C933 C932 1.310 . S
C933 H953 0.930 . S
C934 C935 1.474 . S
C934 C936 1.285 . S
C934 H954 0.929 . S
C935 C932 1.461 . S
C935 C934 1.474 . S
C936 C931 1.342 . S
C936 C934 1.285 . S
C936 H955 0.930 . S
C937 C940 1.424 . S
C937 C942 1.245 . S
C937 C943 1.428 . S
C938 C941 1.260 . S
C938 C942 1.477 . S
C938 H956 0.932 . S
C939 C940 1.384 . S
C939 C941 1.479 . S
C939 H957 0.929 . S
C940 C937 1.424 . S
C940 C939 1.384 . S
C940 H958 0.928 . S
C941 C938 1.260 . S
C941 C939 1.479 . S
C942 C937 1.245 . S
C942 C938 1.477 . S
C942 H959 0.932 . S
C943 U926 2.882 . S
C943 C937 1.428 . S
C943 O946 1.301 . S
C943 O947 1.282 . S
O944 U926 2.441 . S
O944 C930 1.249 . S
O945 U926 2.420 . S
O945 C930 1.202 . S
O946 U926 2.455 . S
O946 C943 1.301 . S
O947 U926 2.449 . S
O947 C943 1.282 . S
H948 C921 0.931 . S
H949 C923 0.929 . S
H950 C924 0.930 . S
H951 C925 0.931 . S
H952 C932 0.932 . S
H953 C933 0.930 . S
H954 C934 0.929 . S
H955 C936 0.930 . S
H956 C938 0.932 . S
H957 C939 0.929 . S
H958 C940 0.928 . S
H959 C942 0.932 . S
C960 C961 1.264 . S
C960 C965 1.479 . S
C960 C970 1.465 . S
C961 C960 1.264 . S
C961 C963 1.339 . S
C961 H988 0.931 . S
C962 C963 1.395 . S
C962 C964 1.320 . S
C963 C961 1.339 . S
C963 C962 1.395 . S
C963 H989 0.929 . S
C964 C962 1.320 . S
C964 C965 1.405 . S
C964 H990 0.930 . S
C965 C960 1.479 . S
C965 C964 1.405 . S
C965 H991 0.931 . S
U966 O967 2.454 . S
U966 O968 2.458 . S
U966 C969 2.984 . S
U966 C970 2.847 . S
U966 C983 2.882 . S
U966 O984 2.441 . S
U966 O985 2.420 . S
U966 O986 2.455 . S
U966 O987 2.449 . S
O967 U966 2.454 . S
O967 C969 1.353 . S
O968 U966 2.458 . S
O968 C969 1.286 . S
C969 U966 2.984 . S
C969 O967 1.353 . S
C969 O968 1.286 . S
C969 C971 1.363 . S
C970 C960 1.465 . S
C970 U966 2.847 . S
C970 O984 1.249 . S
C970 O985 1.202 . S
C971 C969 1.363 . S
C971 C973 1.408 . S
C971 C976 1.342 . S
C972 C973 1.310 . S
C972 C975 1.461 . S
C972 H992 0.932 . S
C973 C971 1.408 . S
C973 C972 1.310 . S
C973 H993 0.930 . S
C974 C975 1.474 . S
C974 C976 1.285 . S
C974 H994 0.929 . S
C975 C972 1.461 . S
C975 C974 1.474 . S
C976 C971 1.342 . S
C976 C974 1.285 . S
C976 H995 0.930 . S
C977 C980 1.424 . S
C977 C982 1.245 . S
C977 C983 1.428 . S
C978 C981 1.260 . S
C978 C982 1.477 . S
C978 H996 0.932 . S
C979 C980 1.384 . S
C979 C981 1.479 . S
C979 H997 0.929 . S
C980 C977 1.424 . S
C980 C979 1.384 . S
C980 H998 0.928 . S
C981 C978 1.260 . S
C981 C979 1.479 . S
C982 C977 1.245 . S
C982 C978 1.477 . S
C982 H999 0.932 . S
C983 U966 2.882 . S
C983 C977 1.428 . S
C983 O986 1.301 . S
C983 O987 1.282 . S
O984 U966 2.441 . S
O984 C970 1.249 . S
O985 U966 2.420 . S
O985 C970 1.202 . S
O986 U966 2.455 . S
O986 C983 1.301 . S
O987 U966 2.449 . S
O987 C983 1.282 . S
H988 C961 0.931 . S
H989 C963 0.929 . S
H990 C964 0.930 . S
H991 C965 0.931 . S
H992 C972 0.932 . S
H993 C973 0.930 . S
H994 C974 0.929 . S
H995 C976 0.930 . S
H996 C978 0.932 . S
H997 C979 0.929 . S
H998 C980 0.928 . S
H999 C982 0.932 . S
C1000 C1001 1.264 . S
C1000 C1005 1.479 . S
C1000 C1010 1.465 . S
C1001 C1000 1.264 . S
C1001 C1003 1.339 . S
C1001 H1028 0.931 . S
C1002 C1003 1.395 . S
C1002 C1004 1.320 . S
C1003 C1001 1.339 . S
C1003 C1002 1.395 . S
C1003 H1029 0.929 . S
C1004 C1002 1.320 . S
C1004 C1005 1.405 . S
C1004 H1030 0.930 . S
C1005 C1000 1.479 . S
C1005 C1004 1.405 . S
C1005 H1031 0.931 . S
U1006 O1007 2.454 . S
U1006 O1008 2.458 . S
U1006 C1009 2.984 . S
U1006 C1010 2.847 . S
U1006 C1023 2.882 . S
U1006 O1024 2.441 . S
U1006 O1025 2.420 . S
U1006 O1026 2.455 . S
U1006 O1027 2.449 . S
O1007 U1006 2.454 . S
O1007 C1009 1.353 . S
O1008 U1006 2.458 . S
O1008 C1009 1.286 . S
C1009 U1006 2.984 . S
C1009 O1007 1.353 . S
C1009 O1008 1.286 . S
C1009 C1011 1.363 . S
C1010 C1000 1.465 . S
C1010 U1006 2.847 . S
C1010 O1024 1.249 . S
C1010 O1025 1.202 . S
C1011 C1009 1.363 . S
C1011 C1013 1.408 . S
C1011 C1016 1.342 . S
C1012 C1013 1.310 . S
C1012 C1015 1.461 . S
C1012 H1032 0.932 . S
C1013 C1011 1.408 . S
C1013 C1012 1.310 . S
C1013 H1033 0.930 . S
C1014 C1015 1.474 . S
C1014 C1016 1.285 . S
C1014 H1034 0.929 . S
C1015 C1012 1.461 . S
C1015 C1014 1.474 . S
C1016 C1011 1.342 . S
C1016 C1014 1.285 . S
C1016 H1035 0.930 . S
C1017 C1020 1.424 . S
C1017 C1022 1.245 . S
C1017 C1023 1.428 . S
C1018 C1021 1.260 . S
C1018 C1022 1.477 . S
C1018 H1036 0.932 . S
C1019 C1020 1.384 . S
C1019 C1021 1.479 . S
C1019 H1037 0.929 . S
C1020 C1017 1.424 . S
C1020 C1019 1.384 . S
C1020 H1038 0.928 . S
C1021 C1018 1.260 . S
C1021 C1019 1.479 . S
C1022 C1017 1.245 . S
C1022 C1018 1.477 . S
C1022 H1039 0.932 . S
C1023 U1006 2.882 . S
C1023 C1017 1.428 . S
C1023 O1026 1.301 . S
C1023 O1027 1.282 . S
O1024 U1006 2.441 . S
O1024 C1010 1.249 . S
O1025 U1006 2.420 . S
O1025 C1010 1.202 . S
O1026 U1006 2.455 . S
O1026 C1023 1.301 . S
O1027 U1006 2.449 . S
O1027 C1023 1.282 . S
H1028 C1001 0.931 . S
H1029 C1003 0.929 . S
H1030 C1004 0.930 . S
H1031 C1005 0.931 . S
H1032 C1012 0.932 . S
H1033 C1013 0.930 . S
H1034 C1014 0.929 . S
H1035 C1016 0.930 . S
H1036 C1018 0.932 . S
H1037 C1019 0.929 . S
H1038 C1020 0.928 . S
H1039 C1022 0.932 . S
C1040 C1041 1.264 . S
C1040 C1045 1.479 . S
C1040 C1050 1.465 . S
C1041 C1040 1.264 . S
C1041 C1043 1.339 . S
C1041 H1068 0.931 . S
C1042 C1043 1.395 . S
C1042 C1044 1.320 . S
C1043 C1041 1.339 . S
C1043 C1042 1.395 . S
C1043 H1069 0.929 . S
C1044 C1042 1.320 . S
C1044 C1045 1.405 . S
C1044 H1070 0.930 . S
C1045 C1040 1.479 . S
C1045 C1044 1.405 . S
C1045 H1071 0.931 . S
U1046 O1047 2.454 . S
U1046 O1048 2.458 . S
U1046 C1049 2.984 . S
U1046 C1050 2.847 . S
U1046 C1063 2.882 . S
U1046 O1064 2.441 . S
U1046 O1065 2.420 . S
U1046 O1066 2.455 . S
U1046 O1067 2.449 . S
O1047 U1046 2.454 . S
O1047 C1049 1.353 . S
O1048 U1046 2.458 . S
O1048 C1049 1.286 . S
C1049 U1046 2.984 . S
C1049 O1047 1.353 . S
C1049 O1048 1.286 . S
C1049 C1051 1.363 . S
C1050 C1040 1.465 . S
C1050 U1046 2.847 . S
C1050 O1064 1.249 . S
C1050 O1065 1.202 . S
C1051 C1049 1.363 . S
C1051 C1053 1.408 . S
C1051 C1056 1.342 . S
C1052 C1053 1.310 . S
C1052 C1055 1.461 . S
C1052 H1072 0.932 . S
C1053 C1051 1.408 . S
C1053 C1052 1.310 . S
C1053 H1073 0.930 . S
C1054 C1055 1.474 . S
C1054 C1056 1.285 . S
C1054 H1074 0.929 . S
C1055 C1052 1.461 . S
C1055 C1054 1.474 . S
C1056 C1051 1.342 . S
C1056 C1054 1.285 . S
C1056 H1075 0.930 . S
C1057 C1060 1.424 . S
C1057 C1062 1.245 . S
C1057 C1063 1.428 . S
C1058 C1061 1.260 . S
C1058 C1062 1.477 . S
C1058 H1076 0.932 . S
C1059 C1060 1.384 . S
C1059 C1061 1.479 . S
C1059 H1077 0.929 . S
C1060 C1057 1.424 . S
C1060 C1059 1.384 . S
C1060 H1078 0.928 . S
C1061 C1058 1.260 . S
C1061 C1059 1.479 . S
C1062 C1057 1.245 . S
C1062 C1058 1.477 . S
C1062 H1079 0.932 . S
C1063 U1046 2.882 . S
C1063 C1057 1.428 . S
C1063 O1066 1.301 . S
C1063 O1067 1.282 . S
O1064 U1046 2.441 . S
O1064 C1050 1.249 . S
O1065 U1046 2.420 . S
O1065 C1050 1.202 . S
O1066 U1046 2.455 . S
O1066 C1063 1.301 . S
O1067 U1046 2.449 . S
O1067 C1063 1.282 . S
H1068 C1041 0.931 . S
H1069 C1043 0.929 . S
H1070 C1044 0.930 . S
H1071 C1045 0.931 . S
H1072 C1052 0.932 . S
H1073 C1053 0.930 . S
H1074 C1054 0.929 . S
H1075 C1056 0.930 . S
H1076 C1058 0.932 . S
H1077 C1059 0.929 . S
H1078 C1060 0.928 . S
H1079 C1062 0.932 . S
C1080 C1081 1.264 . S
C1080 C1085 1.479 . S
C1080 C1090 1.465 . S
C1081 C1080 1.264 . S
C1081 C1083 1.339 . S
C1081 H1108 0.931 . S
C1082 C1083 1.395 . S
C1082 C1084 1.320 . S
C1083 C1081 1.339 . S
C1083 C1082 1.395 . S
C1083 H1109 0.929 . S
C1084 C1082 1.320 . S
C1084 C1085 1.405 . S
C1084 H1110 0.930 . S
C1085 C1080 1.479 . S
C1085 C1084 1.405 . S
C1085 H1111 0.931 . S
U1086 O1087 2.454 . S
U1086 O1088 2.458 . S
U1086 C1089 2.984 . S
U1086 C1090 2.847 . S
U1086 C1103 2.882 . S
U1086 O1104 2.441 . S
U1086 O1105 2.420 . S
U1086 O1106 2.455 . S
U1086 O1107 2.449 . S
O1087 U1086 2.454 . S
O1087 C1089 1.353 . S
O1088 U1086 2.458 . S
O1088 C1089 1.286 . S
C1089 U1086 2.984 . S
C1089 O1087 1.353 . S
C1089 O1088 1.286 . S
C1089 C1091 1.363 . S
C1090 C1080 1.465 . S
C1090 U1086 2.847 . S
C1090 O1104 1.249 . S
C1090 O1105 1.202 . S
C1091 C1089 1.363 . S
C1091 C1093 1.408 . S
C1091 C1096 1.342 . S
C1092 C1093 1.310 . S
C1092 C1095 1.461 . S
C1092 H1112 0.932 . S
C1093 C1091 1.408 . S
C1093 C1092 1.310 . S
C1093 H1113 0.930 . S
C1094 C1095 1.474 . S
C1094 C1096 1.285 . S
C1094 H1114 0.929 . S
C1095 C1092 1.461 . S
C1095 C1094 1.474 . S
C1096 C1091 1.342 . S
C1096 C1094 1.285 . S
C1096 H1115 0.930 . S
C1097 C1100 1.424 . S
C1097 C1102 1.245 . S
C1097 C1103 1.428 . S
C1098 C1101 1.260 . S
C1098 C1102 1.477 . S
C1098 H1116 0.932 . S
C1099 C1100 1.384 . S
C1099 C1101 1.479 . S
C1099 H1117 0.929 . S
C1100 C1097 1.424 . S
C1100 C1099 1.384 . S
C1100 H1118 0.928 . S
C1101 C1098 1.260 . S
C1101 C1099 1.479 . S
C1102 C1097 1.245 . S
C1102 C1098 1.477 . S
C1102 H1119 0.932 . S
C1103 U1086 2.882 . S
C1103 C1097 1.428 . S
C1103 O1106 1.301 . S
C1103 O1107 1.282 . S
O1104 U1086 2.441 . S
O1104 C1090 1.249 . S
O1105 U1086 2.420 . S
O1105 C1090 1.202 . S
O1106 U1086 2.455 . S
O1106 C1103 1.301 . S
O1107 U1086 2.449 . S
O1107 C1103 1.282 . S
H1108 C1081 0.931 . S
H1109 C1083 0.929 . S
H1110 C1084 0.930 . S
H1111 C1085 0.931 . S
H1112 C1092 0.932 . S
H1113 C1093 0.930 . S
H1114 C1094 0.929 . S
H1115 C1096 0.930 . S
H1116 C1098 0.932 . S
H1117 C1099 0.929 . S
H1118 C1100 0.928 . S
H1119 C1102 0.932 . S
C1120 C1121 1.264 . S
C1120 C1125 1.479 . S
C1120 C1130 1.465 . S
C1121 C1120 1.264 . S
C1121 C1123 1.339 . S
C1121 H1148 0.931 . S
C1122 C1123 1.395 . S
C1122 C1124 1.320 . S
C1123 C1121 1.339 . S
C1123 C1122 1.395 . S
C1123 H1149 0.929 . S
C1124 C1122 1.320 . S
C1124 C1125 1.405 . S
C1124 H1150 0.930 . S
C1125 C1120 1.479 . S
C1125 C1124 1.405 . S
C1125 H1151 0.931 . S
U1126 O1127 2.454 . S
U1126 O1128 2.458 . S
U1126 C1129 2.984 . S
U1126 C1130 2.847 . S
U1126 C1143 2.882 . S
U1126 O1144 2.441 . S
U1126 O1145 2.420 . S
U1126 O1146 2.455 . S
U1126 O1147 2.449 . S
O1127 U1126 2.454 . S
O1127 C1129 1.353 . S
O1128 U1126 2.458 . S
O1128 C1129 1.286 . S
C1129 U1126 2.984 . S
C1129 O1127 1.353 . S
C1129 O1128 1.286 . S
C1129 C1131 1.363 . S
C1130 C1120 1.465 . S
C1130 U1126 2.847 . S
C1130 O1144 1.249 . S
C1130 O1145 1.202 . S
C1131 C1129 1.363 . S
C1131 C1133 1.408 . S
C1131 C1136 1.342 . S
C1132 C1133 1.310 . S
C1132 C1135 1.461 . S
C1132 H1152 0.932 . S
C1133 C1131 1.408 . S
C1133 C1132 1.310 . S
C1133 H1153 0.930 . S
C1134 C1135 1.474 . S
C1134 C1136 1.285 . S
C1134 H1154 0.929 . S
C1135 C1132 1.461 . S
C1135 C1134 1.474 . S
C1136 C1131 1.342 . S
C1136 C1134 1.285 . S
C1136 H1155 0.930 . S
C1137 C1140 1.424 . S
C1137 C1142 1.245 . S
C1137 C1143 1.428 . S
C1138 C1141 1.260 . S
C1138 C1142 1.477 . S
C1138 H1156 0.932 . S
C1139 C1140 1.384 . S
C1139 C1141 1.479 . S
C1139 H1157 0.929 . S
C1140 C1137 1.424 . S
C1140 C1139 1.384 . S
C1140 H1158 0.928 . S
C1141 C1138 1.260 . S
C1141 C1139 1.479 . S
C1142 C1137 1.245 . S
C1142 C1138 1.477 . S
C1142 H1159 0.932 . S
C1143 U1126 2.882 . S
C1143 C1137 1.428 . S
C1143 O1146 1.301 . S
C1143 O1147 1.282 . S
O1144 U1126 2.441 . S
O1144 C1130 1.249 . S
O1145 U1126 2.420 . S
O1145 C1130 1.202 . S
O1146 U1126 2.455 . S
O1146 C1143 1.301 . S
O1147 U1126 2.449 . S
O1147 C1143 1.282 . S
H1148 C1121 0.931 . S
H1149 C1123 0.929 . S
H1150 C1124 0.930 . S
H1151 C1125 0.931 . S
H1152 C1132 0.932 . S
H1153 C1133 0.930 . S
H1154 C1134 0.929 . S
H1155 C1136 0.930 . S
H1156 C1138 0.932 . S
H1157 C1139 0.929 . S
H1158 C1140 0.928 . S
H1159 C1142 0.932 . S
C1160 C1161 1.264 . S
C1160 C1165 1.479 . S
C1160 C1170 1.465 . S
C1161 C1160 1.264 . S
C1161 C1163 1.339 . S
C1161 H1188 0.931 . S
C1162 C1163 1.395 . S
C1162 C1164 1.320 . S
C1163 C1161 1.339 . S
C1163 C1162 1.395 . S
C1163 H1189 0.929 . S
C1164 C1162 1.320 . S
C1164 C1165 1.405 . S
C1164 H1190 0.930 . S
C1165 C1160 1.479 . S
C1165 C1164 1.405 . S
C1165 H1191 0.931 . S
U1166 O1167 2.454 . S
U1166 O1168 2.458 . S
U1166 C1169 2.984 . S
U1166 C1170 2.847 . S
U1166 C1183 2.882 . S
U1166 O1184 2.441 . S
U1166 O1185 2.420 . S
U1166 O1186 2.455 . S
U1166 O1187 2.449 . S
O1167 U1166 2.454 . S
O1167 C1169 1.353 . S
O1168 U1166 2.458 . S
O1168 C1169 1.286 . S
C1169 U1166 2.984 . S
C1169 O1167 1.353 . S
C1169 O1168 1.286 . S
C1169 C1171 1.363 . S
C1170 C1160 1.465 . S
C1170 U1166 2.847 . S
C1170 O1184 1.249 . S
C1170 O1185 1.202 . S
C1171 C1169 1.363 . S
C1171 C1173 1.408 . S
C1171 C1176 1.342 . S
C1172 C1173 1.310 . S
C1172 C1175 1.461 . S
C1172 H1192 0.932 . S
C1173 C1171 1.408 . S
C1173 C1172 1.310 . S
C1173 H1193 0.930 . S
C1174 C1175 1.474 . S
C1174 C1176 1.285 . S
C1174 H1194 0.929 . S
C1175 C1172 1.461 . S
C1175 C1174 1.474 . S
C1176 C1171 1.342 . S
C1176 C1174 1.285 . S
C1176 H1195 0.930 . S
C1177 C1180 1.424 . S
C1177 C1182 1.245 . S
C1177 C1183 1.428 . S
C1178 C1181 1.260 . S
C1178 C1182 1.477 . S
C1178 H1196 0.932 . S
C1179 C1180 1.384 . S
C1179 C1181 1.479 . S
C1179 H1197 0.929 . S
C1180 C1177 1.424 . S
C1180 C1179 1.384 . S
C1180 H1198 0.928 . S
C1181 C1178 1.260 . S
C1181 C1179 1.479 . S
C1182 C1177 1.245 . S
C1182 C1178 1.477 . S
C1182 H1199 0.932 . S
C1183 U1166 2.882 . S
C1183 C1177 1.428 . S
C1183 O1186 1.301 . S
C1183 O1187 1.282 . S
O1184 U1166 2.441 . S
O1184 C1170 1.249 . S
O1185 U1166 2.420 . S
O1185 C1170 1.202 . S
O1186 U1166 2.455 . S
O1186 C1183 1.301 . S
O1187 U1166 2.449 . S
O1187 C1183 1.282 . S
H1188 C1161 0.931 . S
H1189 C1163 0.929 . S
H1190 C1164 0.930 . S
H1191 C1165 0.931 . S
H1192 C1172 0.932 . S
H1193 C1173 0.930 . S
H1194 C1174 0.929 . S
H1195 C1176 0.930 . S
H1196 C1178 0.932 . S
H1197 C1179 0.929 . S
H1198 C1180 0.928 . S
H1199 C1182 0.932 . S
C1200 C1201 1.264 . S
C1200 C1205 1.479 . S
C1200 C1210 1.465 . S
C1201 C1200 1.264 . S
C1201 C1203 1.339 . S
C1201 H1228 0.931 . S
C1202 C1203 1.395 . S
C1202 C1204 1.320 . S
C1203 C1201 1.339 . S
C1203 C1202 1.395 . S
C1203 H1229 0.929 . S
C1204 C1202 1.320 . S
C1204 C1205 1.405 . S
C1204 H1230 0.930 . S
C1205 C1200 1.479 . S
C1205 C1204 1.405 . S
C1205 H1231 0.931 . S
U1206 O1207 2.454 . S
U1206 O1208 2.458 . S
U1206 C1209 2.984 . S
U1206 C1210 2.847 . S
U1206 C1223 2.882 . S
U1206 O1224 2.441 . S
U1206 O1225 2.420 . S
U1206 O1226 2.455 . S
U1206 O1227 2.449 . S
O1207 U1206 2.454 . S
O1207 C1209 1.353 . S
O1208 U1206 2.458 . S
O1208 C1209 1.286 . S
C1209 U1206 2.984 . S
C1209 O1207 1.353 . S
C1209 O1208 1.286 . S
C1209 C1211 1.363 . S
C1210 C1200 1.465 . S
C1210 U1206 2.847 . S
C1210 O1224 1.249 . S
C1210 O1225 1.202 . S
C1211 C1209 1.363 . S
C1211 C1213 1.408 . S
C1211 C1216 1.342 . S
C1212 C1213 1.310 . S
C1212 C1215 1.461 . S
C1212 H1232 0.932 . S
C1213 C1211 1.408 . S
C1213 C1212 1.310 . S
C1213 H1233 0.930 . S
C1214 C1215 1.474 . S
C1214 C1216 1.285 . S
C1214 H1234 0.929 . S
C1215 C1212 1.461 . S
C1215 C1214 1.474 . S
C1216 C1211 1.342 . S
C1216 C1214 1.285 . S
C1216 H1235 0.930 . S
C1217 C1220 1.424 . S
C1217 C1222 1.245 . S
C1217 C1223 1.428 . S
C1218 C1221 1.260 . S
C1218 C1222 1.477 . S
C1218 H1236 0.932 . S
C1219 C1220 1.384 . S
C1219 C1221 1.479 . S
C1219 H1237 0.929 . S
C1220 C1217 1.424 . S
C1220 C1219 1.384 . S
C1220 H1238 0.928 . S
C1221 C1218 1.260 . S
C1221 C1219 1.479 . S
C1222 C1217 1.245 . S
C1222 C1218 1.477 . S
C1222 H1239 0.932 . S
C1223 U1206 2.882 . S
C1223 C1217 1.428 . S
C1223 O1226 1.301 . S
C1223 O1227 1.282 . S
O1224 U1206 2.441 . S
O1224 C1210 1.249 . S
O1225 U1206 2.420 . S
O1225 C1210 1.202 . S
O1226 U1206 2.455 . S
O1226 C1223 1.301 . S
O1227 U1206 2.449 . S
O1227 C1223 1.282 . S
H1228 C1201 0.931 . S
H1229 C1203 0.929 . S
H1230 C1204 0.930 . S
H1231 C1205 0.931 . S
H1232 C1212 0.932 . S
H1233 C1213 0.930 . S
H1234 C1214 0.929 . S
H1235 C1216 0.930 . S
H1236 C1218 0.932 . S
H1237 C1219 0.929 . S
H1238 C1220 0.928 . S
H1239 C1222 0.932 . S
C1240 C1241 1.264 . S
C1240 C1245 1.479 . S
C1240 C1250 1.465 . S
C1241 C1240 1.264 . S
C1241 C1243 1.339 . S
C1241 H1268 0.931 . S
C1242 C1243 1.395 . S
C1242 C1244 1.320 . S
C1243 C1241 1.339 . S
C1243 C1242 1.395 . S
C1243 H1269 0.929 . S
C1244 C1242 1.320 . S
C1244 C1245 1.405 . S
C1244 H1270 0.930 . S
C1245 C1240 1.479 . S
C1245 C1244 1.405 . S
C1245 H1271 0.931 . S
U1246 O1247 2.454 . S
U1246 O1248 2.458 . S
U1246 C1249 2.984 . S
U1246 C1250 2.847 . S
U1246 C1263 2.882 . S
U1246 O1264 2.441 . S
U1246 O1265 2.420 . S
U1246 O1266 2.455 . S
U1246 O1267 2.449 . S
O1247 U1246 2.454 . S
O1247 C1249 1.353 . S
O1248 U1246 2.458 . S
O1248 C1249 1.286 . S
C1249 U1246 2.984 . S
C1249 O1247 1.353 . S
C1249 O1248 1.286 . S
C1249 C1251 1.363 . S
C1250 C1240 1.465 . S
C1250 U1246 2.847 . S
C1250 O1264 1.249 . S
C1250 O1265 1.202 . S
C1251 C1249 1.363 . S
C1251 C1253 1.408 . S
C1251 C1256 1.342 . S
C1252 C1253 1.310 . S
C1252 C1255 1.461 . S
C1252 H1272 0.932 . S
C1253 C1251 1.408 . S
C1253 C1252 1.310 . S
C1253 H1273 0.930 . S
C1254 C1255 1.474 . S
C1254 C1256 1.285 . S
C1254 H1274 0.929 . S
C1255 C1252 1.461 . S
C1255 C1254 1.474 . S
C1256 C1251 1.342 . S
C1256 C1254 1.285 . S
C1256 H1275 0.930 . S
C1257 C1260 1.424 . S
C1257 C1262 1.245 . S
C1257 C1263 1.428 . S
C1258 C1261 1.260 . S
C1258 C1262 1.477 . S
C1258 H1276 0.932 . S
C1259 C1260 1.384 . S
C1259 C1261 1.479 . S
C1259 H1277 0.929 . S
C1260 C1257 1.424 . S
C1260 C1259 1.384 . S
C1260 H1278 0.928 . S
C1261 C1258 1.260 . S
C1261 C1259 1.479 . S
C1262 C1257 1.245 . S
C1262 C1258 1.477 . S
C1262 H1279 0.932 . S
C1263 U1246 2.882 . S
C1263 C1257 1.428 . S
C1263 O1266 1.301 . S
C1263 O1267 1.282 . S
O1264 U1246 2.441 . S
O1264 C1250 1.249 . S
O1265 U1246 2.420 . S
O1265 C1250 1.202 . S
O1266 U1246 2.455 . S
O1266 C1263 1.301 . S
O1267 U1246 2.449 . S
O1267 C1263 1.282 . S
H1268 C1241 0.931 . S
H1269 C1243 0.929 . S
H1270 C1244 0.930 . S
H1271 C1245 0.931 . S
H1272 C1252 0.932 . S
H1273 C1253 0.930 . S
H1274 C1254 0.929 . S
H1275 C1256 0.930 . S
H1276 C1258 0.932 . S
H1277 C1259 0.929 . S
H1278 C1260 0.928 . S
H1279 C1262 0.932 . S
C1280 C1281 1.363 . S
C1280 C1286 1.379 . S
C1280 N1288 1.356 . S
C1281 C1280 1.363 . S
C1281 C1287 1.363 1_565 S
C1282 C1283 1.363 1_545 S
C1282 C1287 1.379 . S
C1282 N1289 1.356 . S
C1283 C1282 1.363 1_565 S
C1283 C1286 1.363 . S
N1284 C1286 1.356 . S
N1284 H1296 0.984 . S
N1284 H1297 0.985 . S
N1285 C1287 1.356 . S
N1285 H1290 0.984 . S
N1285 H1291 0.985 . S
C1286 C1280 1.379 . S
C1286 C1283 1.363 . S
C1286 N1284 1.356 . S
C1287 C1281 1.363 1_545 S
C1287 C1282 1.379 . S
C1287 N1285 1.356 . S
N1288 C1280 1.356 . S
N1288 H1294 0.984 . S
N1288 H1295 0.984 . S
N1289 C1282 1.356 . S
N1289 H1292 0.984 . S
N1289 H1293 0.985 . S
H1290 N1285 0.984 . S
H1291 N1285 0.985 . S
H1292 N1289 0.984 . S
H1293 N1289 0.985 . S
H1294 N1288 0.984 . S
H1295 N1288 0.984 . S
H1296 N1284 0.984 . S
H1297 N1284 0.985 . S
C1298 C1299 1.363 1_565 S
C1298 C1304 1.379 . S
C1298 N1306 1.356 . S
C1299 C1298 1.363 1_545 S
C1299 C1305 1.363 . S
C1300 C1301 1.363 1_545 S
C1300 C1305 1.379 . S
C1300 N1307 1.356 . S
C1301 C1300 1.363 1_565 S
C1301 C1304 1.363 . S
N1302 C1304 1.356 . S
N1302 H1314 0.984 . S
N1302 H1315 0.985 . S
N1303 C1305 1.356 . S
N1303 H1308 0.984 . S
N1303 H1309 0.985 . S
C1304 C1298 1.379 . S
C1304 C1301 1.363 . S
C1304 N1302 1.356 . S
C1305 C1299 1.363 . S
C1305 C1300 1.379 . S
C1305 N1303 1.356 . S
N1306 C1298 1.356 . S
N1306 H1312 0.984 . S
N1306 H1313 0.984 . S
N1307 C1300 1.356 . S
N1307 H1310 0.984 . S
N1307 H1311 0.985 . S
H1308 N1303 0.984 . S
H1309 N1303 0.985 . S
H1310 N1307 0.984 . S
H1311 N1307 0.985 . S
H1312 N1306 0.984 . S
H1313 N1306 0.984 . S
H1314 N1302 0.984 . S
H1315 N1302 0.985 . S
C1316 C1317 1.363 1_565 S
C1316 C1322 1.379 . S
C1316 N1324 1.356 . S
C1317 C1316 1.363 1_545 S
C1317 C1323 1.363 . S
C1318 C1319 1.363 . S
C1318 C1323 1.379 . S
C1318 N1325 1.356 . S
C1319 C1318 1.363 . S
C1319 C1322 1.363 1_545 S
N1320 C1322 1.356 . S
N1320 H1332 0.984 . S
N1320 H1333 0.985 . S
N1321 C1323 1.356 . S
N1321 H1326 0.984 . S
N1321 H1327 0.985 . S
C1322 C1316 1.379 . S
C1322 C1319 1.363 1_565 S
C1322 N1320 1.356 . S
C1323 C1317 1.363 . S
C1323 C1318 1.379 . S
C1323 N1321 1.356 . S
N1324 C1316 1.356 . S
N1324 H1330 0.984 . S
N1324 H1331 0.984 . S
N1325 C1318 1.356 . S
N1325 H1328 0.984 . S
N1325 H1329 0.985 . S
H1326 N1321 0.984 . S
H1327 N1321 0.985 . S
H1328 N1325 0.984 . S
H1329 N1325 0.985 . S
H1330 N1324 0.984 . S
H1331 N1324 0.984 . S
H1332 N1320 0.984 . S
H1333 N1320 0.985 . S
C1334 C1335 1.363 1_565 S
C1334 C1340 1.391 . S
C1334 N1342 1.356 . S
C1335 C1334 1.363 1_545 S
C1335 C1341 1.350 1_554 S
C1336 C1337 1.363 1_545 S
C1336 C1341 1.391 . S
C1336 N1343 1.356 . S
C1337 C1336 1.363 1_565 S
C1337 C1340 1.350 1_556 S
N1338 C1340 1.353 1_556 S
N1338 H1350 0.984 1_556 S
N1338 H1351 0.985 . S
N1339 C1341 1.353 1_554 S
N1339 H1344 0.984 . S
N1339 H1345 0.985 1_554 S
C1340 C1334 1.391 . S
C1340 C1337 1.350 1_554 S
C1340 N1338 1.353 1_554 S
C1341 C1335 1.350 1_556 S
C1341 C1336 1.391 . S
C1341 N1339 1.353 1_556 S
N1342 C1334 1.356 . S
N1342 H1348 0.984 . S
N1342 H1349 0.984 . S
N1343 C1336 1.356 . S
N1343 H1346 0.984 . S
N1343 H1347 0.985 . S
H1344 N1339 0.984 . S
H1345 N1339 0.985 1_556 S
H1346 N1343 0.984 . S
H1347 N1343 0.985 . S
H1348 N1342 0.984 . S
H1349 N1342 0.984 . S
H1350 N1338 0.984 1_554 S
H1351 N1338 0.985 . S
C1352 C1353 1.363 . S
C1352 C1358 1.379 . S
C1352 N1360 1.356 . S
C1353 C1352 1.363 . S
C1353 C1359 1.363 1_545 S
C1354 C1355 1.363 1_565 S
C1354 C1359 1.379 . S
C1354 N1361 1.356 . S
C1355 C1354 1.363 1_545 S
C1355 C1358 1.363 . S
N1356 C1358 1.356 . S
N1356 H1368 0.984 . S
N1356 H1369 0.985 . S
N1357 C1359 1.356 . S
N1357 H1362 0.984 . S
N1357 H1363 0.985 . S
C1358 C1352 1.379 . S
C1358 C1355 1.363 . S
C1358 N1356 1.356 . S
C1359 C1353 1.363 1_565 S
C1359 C1354 1.379 . S
C1359 N1357 1.356 . S
N1360 C1352 1.356 . S
N1360 H1366 0.984 . S
N1360 H1367 0.984 . S
N1361 C1354 1.356 . S
N1361 H1364 0.984 . S
N1361 H1365 0.985 . S
H1362 N1357 0.984 . S
H1363 N1357 0.985 . S
H1364 N1361 0.984 . S
H1365 N1361 0.985 . S
H1366 N1360 0.984 . S
H1367 N1360 0.984 . S
H1368 N1356 0.984 . S
H1369 N1356 0.985 . S
C1370 C1371 1.363 . S
C1370 C1376 1.379 . S
C1370 N1378 1.356 . S
C1371 C1370 1.363 . S
C1371 C1377 1.363 1_565 S
C1372 C1373 1.363 . S
C1372 C1377 1.379 . S
C1372 N1379 1.356 . S
C1373 C1372 1.363 . S
C1373 C1376 1.363 1_545 S
N1374 C1376 1.356 . S
N1374 H1386 0.984 . S
N1374 H1387 0.985 . S
N1375 C1377 1.356 . S
N1375 H1380 0.984 . S
N1375 H1381 0.985 . S
C1376 C1370 1.379 . S
C1376 C1373 1.363 1_565 S
C1376 N1374 1.356 . S
C1377 C1371 1.363 1_545 S
C1377 C1372 1.379 . S
C1377 N1375 1.356 . S
N1378 C1370 1.356 . S
N1378 H1384 0.984 . S
N1378 H1385 0.984 . S
N1379 C1372 1.356 . S
N1379 H1382 0.984 . S
N1379 H1383 0.985 . S
H1380 N1375 0.984 . S
H1381 N1375 0.985 . S
H1382 N1379 0.984 . S
H1383 N1379 0.985 . S
H1384 N1378 0.984 . S
H1385 N1378 0.984 . S
H1386 N1374 0.984 . S
H1387 N1374 0.985 . S
C1388 C1389 1.363 . S
C1388 C1394 1.379 . S
C1388 N1396 1.356 . S
C1389 C1388 1.363 . S
C1389 C1395 1.363 1_565 S
C1390 C1391 1.363 1_545 S
C1390 C1395 1.379 . S
C1390 N1397 1.356 . S
C1391 C1390 1.363 1_565 S
C1391 C1394 1.363 . S
N1392 C1394 1.356 . S
N1392 H1404 0.984 . S
N1392 H1405 0.985 . S
N1393 C1395 1.356 . S
N1393 H1398 0.984 . S
N1393 H1399 0.985 . S
C1394 C1388 1.379 . S
C1394 C1391 1.363 . S
C1394 N1392 1.356 . S
C1395 C1389 1.363 1_545 S
C1395 C1390 1.379 . S
C1395 N1393 1.356 . S
N1396 C1388 1.356 . S
N1396 H1402 0.984 . S
N1396 H1403 0.984 . S
N1397 C1390 1.356 . S
N1397 H1400 0.984 . S
N1397 H1401 0.985 . S
H1398 N1393 0.984 . S
H1399 N1393 0.985 . S
H1400 N1397 0.984 . S
H1401 N1397 0.985 . S
H1402 N1396 0.984 . S
H1403 N1396 0.984 . S
H1404 N1392 0.984 . S
H1405 N1392 0.985 . S
C1406 C1407 1.363 1_565 S
C1406 C1412 1.313 1_554 S
C1406 N1414 1.356 . S
C1407 C1406 1.363 1_545 S
C1407 C1413 1.427 . S
C1408 C1409 1.363 1_545 S
C1408 C1413 1.313 1_556 S
C1408 N1415 1.356 . S
C1409 C1408 1.363 1_565 S
C1409 C1412 1.427 . S
N1410 C1412 1.385 . S
N1410 H1422 0.971 1_556 S
N1410 H1423 0.985 . S
N1411 C1413 1.385 . S
N1411 H1416 0.984 . S
N1411 H1417 0.971 1_554 S
C1412 C1406 1.313 1_556 S
C1412 C1409 1.427 . S
C1412 N1410 1.385 . S
C1413 C1407 1.427 . S
C1413 C1408 1.313 1_554 S
C1413 N1411 1.385 . S
N1414 C1406 1.356 . S
N1414 H1420 0.984 . S
N1414 H1421 0.984 1_565 S
N1415 C1408 1.356 . S
N1415 H1418 0.984 1_545 S
N1415 H1419 0.985 . S
H1416 N1411 0.984 . S
H1417 N1411 0.971 1_556 S
H1418 N1415 0.984 1_565 S
H1419 N1415 0.985 . S
H1420 N1414 0.984 . S
H1421 N1414 0.984 1_545 S
H1422 N1410 0.971 1_554 S
H1423 N1410 0.985 . S
C1424 C1425 1.363 . S
C1424 C1430 1.379 . S
C1424 N1432 1.356 . S
C1425 C1424 1.363 . S
C1425 C1431 1.363 . S
C1426 C1427 1.363 . S
C1426 C1431 1.379 . S
C1426 N1433 1.356 . S
C1427 C1426 1.363 . S
C1427 C1430 1.363 . S
N1428 C1430 1.356 . S
N1428 H1440 0.984 . S
N1428 H1441 0.985 . S
N1429 C1431 1.356 . S
N1429 H1434 0.984 . S
N1429 H1435 0.985 . S
C1430 C1424 1.379 . S
C1430 C1427 1.363 . S
C1430 N1428 1.356 . S
C1431 C1425 1.363 . S
C1431 C1426 1.379 . S
C1431 N1429 1.356 . S
N1432 C1424 1.356 . S
N1432 H1438 0.984 . S
N1432 H1439 0.984 . S
N1433 C1426 1.356 . S
N1433 H1436 0.984 . S
N1433 H1437 0.985 . S
H1434 N1429 0.984 . S
H1435 N1429 0.985 . S
H1436 N1433 0.984 . S
H1437 N1433 0.985 . S
H1438 N1432 0.984 . S
H1439 N1432 0.984 . S
H1440 N1428 0.984 . S
H1441 N1428 0.985 . S
C1442 C1443 1.363 . S
C1442 C1448 1.379 1_556 S
C1442 N1450 1.356 . S
C1443 C1442 1.363 . S
C1443 C1449 1.363 . S
C1444 C1445 1.363 . S
C1444 C1449 1.379 1_554 S
C1444 N1451 1.356 . S
C1445 C1444 1.363 . S
C1445 C1448 1.363 . S
N1446 C1448 1.356 . S
N1446 H1458 0.984 . S
N1446 H1459 0.985 . S
N1447 C1449 1.356 . S
N1447 H1452 0.984 . S
N1447 H1453 0.985 . S
C1448 C1442 1.379 1_554 S
C1448 C1445 1.363 . S
C1448 N1446 1.356 . S
C1449 C1443 1.363 . S
C1449 C1444 1.379 1_556 S
C1449 N1447 1.356 . S
N1450 C1442 1.356 . S
N1450 H1456 0.984 . S
N1450 H1457 0.984 . S
N1451 C1444 1.356 . S
N1451 H1454 0.984 . S
N1451 H1455 0.985 . S
H1452 N1447 0.984 . S
H1453 N1447 0.985 . S
H1454 N1451 0.984 . S
H1455 N1451 0.985 . S
H1456 N1450 0.984 . S
H1457 N1450 0.984 . S
H1458 N1446 0.984 . S
H1459 N1446 0.985 . S
C1460 C1461 1.363 . S
C1460 C1466 1.379 . S
C1460 N1468 1.356 . S
C1461 C1460 1.363 . S
C1461 C1467 1.363 . S
C1462 C1463 1.363 . S
C1462 C1467 1.379 . S
C1462 N1469 1.356 . S
C1463 C1462 1.363 . S
C1463 C1466 1.363 . S
N1464 C1466 1.356 . S
N1464 H1476 0.984 . S
N1464 H1477 0.985 . S
N1465 C1467 1.356 . S
N1465 H1470 0.984 . S
N1465 H1471 0.985 . S
C1466 C1460 1.379 . S
C1466 C1463 1.363 . S
C1466 N1464 1.356 . S
C1467 C1461 1.363 . S
C1467 C1462 1.379 . S
C1467 N1465 1.356 . S
N1468 C1460 1.356 . S
N1468 H1474 0.984 . S
N1468 H1475 0.984 . S
N1469 C1462 1.356 . S
N1469 H1472 0.984 . S
N1469 H1473 0.985 . S
H1470 N1465 0.984 . S
H1471 N1465 0.985 . S
H1472 N1469 0.984 . S
H1473 N1469 0.985 . S
H1474 N1468 0.984 . S
H1475 N1468 0.984 . S
H1476 N1464 0.984 . S
H1477 N1464 0.985 . S
C1478 C1479 1.363 . S
C1478 C1484 1.379 . S
C1478 N1486 1.356 . S
C1479 C1478 1.363 . S
C1479 C1485 1.363 . S
C1480 C1481 1.363 . S
C1480 C1485 1.379 . S
C1480 N1487 1.356 . S
C1481 C1480 1.363 . S
C1481 C1484 1.363 . S
N1482 C1484 1.356 . S
N1482 H1494 0.984 . S
N1482 H1495 0.985 . S
N1483 C1485 1.356 . S
N1483 H1488 0.984 . S
N1483 H1489 0.985 . S
C1484 C1478 1.379 . S
C1484 C1481 1.363 . S
C1484 N1482 1.356 . S
C1485 C1479 1.363 . S
C1485 C1480 1.379 . S
C1485 N1483 1.356 . S
N1486 C1478 1.356 . S
N1486 H1492 0.984 . S
N1486 H1493 0.984 . S
N1487 C1480 1.356 . S
N1487 H1490 0.984 . S
N1487 H1491 0.985 . S
H1488 N1483 0.984 . S
H1489 N1483 0.985 . S
H1490 N1487 0.984 . S
H1491 N1487 0.985 . S
H1492 N1486 0.984 . S
H1493 N1486 0.984 . S
H1494 N1482 0.984 . S
H1495 N1482 0.985 . S
C1496 C1497 1.363 . S
C1496 C1502 1.379 . S
C1496 N1504 1.356 . S
C1497 C1496 1.363 . S
C1497 C1503 1.363 . S
C1498 C1499 1.363 . S
C1498 C1503 1.379 . S
C1498 N1505 1.356 . S
C1499 C1498 1.363 . S
C1499 C1502 1.363 . S
N1500 C1502 1.356 . S
N1500 H1512 0.984 . S
N1500 H1513 0.985 . S
N1501 C1503 1.356 . S
N1501 H1506 0.984 . S
N1501 H1507 0.985 . S
C1502 C1496 1.379 . S
C1502 C1499 1.363 . S
C1502 N1500 1.356 . S
C1503 C1497 1.363 . S
C1503 C1498 1.379 . S
C1503 N1501 1.356 . S
N1504 C1496 1.356 . S
N1504 H1510 0.984 . S
N1504 H1511 0.984 . S
N1505 C1498 1.356 . S
N1505 H1508 0.984 . S
N1505 H1509 0.985 . S
H1506 N1501 0.984 . S
H1507 N1501 0.985 . S
H1508 N1505 0.984 . S
H1509 N1505 0.985 . S
H1510 N1504 0.984 . S
H1511 N1504 0.984 . S
H1512 N1500 0.984 . S
H1513 N1500 0.985 . S
C1514 C1515 1.363 . S
C1514 C1520 1.379 1_556 S
C1514 N1522 1.356 . S
C1515 C1514 1.363 . S
C1515 C1521 1.363 . S
C1516 C1517 1.363 . S
C1516 C1521 1.379 1_554 S
C1516 N1523 1.356 . S
C1517 C1516 1.363 . S
C1517 C1520 1.363 . S
N1518 C1520 1.356 . S
N1518 H1530 0.984 . S
N1518 H1531 0.985 . S
N1519 C1521 1.356 . S
N1519 H1524 0.984 . S
N1519 H1525 0.985 . S
C1520 C1514 1.379 1_554 S
C1520 C1517 1.363 . S
C1520 N1518 1.356 . S
C1521 C1515 1.363 . S
C1521 C1516 1.379 1_556 S
C1521 N1519 1.356 . S
N1522 C1514 1.356 . S
N1522 H1528 0.984 . S
N1522 H1529 0.984 . S
N1523 C1516 1.356 . S
N1523 H1526 0.984 . S
N1523 H1527 0.985 . S
H1524 N1519 0.984 . S
H1525 N1519 0.985 . S
H1526 N1523 0.984 . S
H1527 N1523 0.985 . S
H1528 N1522 0.984 . S
H1529 N1522 0.984 . S
H1530 N1518 0.984 . S
H1531 N1518 0.985 . S
C1532 C1533 1.363 . S
C1532 C1538 1.379 . S
C1532 N1540 1.356 . S
C1533 C1532 1.363 . S
C1533 C1539 1.363 . S
C1534 C1535 1.363 . S
C1534 C1539 1.379 . S
C1534 N1541 1.356 . S
C1535 C1534 1.363 . S
C1535 C1538 1.363 . S
N1536 C1538 1.356 . S
N1536 H1548 0.984 . S
N1536 H1549 0.985 . S
N1537 C1539 1.356 . S
N1537 H1542 0.984 . S
N1537 H1543 0.985 . S
C1538 C1532 1.379 . S
C1538 C1535 1.363 . S
C1538 N1536 1.356 . S
C1539 C1533 1.363 . S
C1539 C1534 1.379 . S
C1539 N1537 1.356 . S
N1540 C1532 1.356 . S
N1540 H1546 0.984 . S
N1540 H1547 0.984 . S
N1541 C1534 1.356 . S
N1541 H1544 0.984 . S
N1541 H1545 0.985 . S
H1542 N1537 0.984 . S
H1543 N1537 0.985 . S
H1544 N1541 0.984 . S
H1545 N1541 0.985 . S
H1546 N1540 0.984 . S
H1547 N1540 0.984 . S
H1548 N1536 0.984 . S
H1549 N1536 0.985 . S
C1550 C1551 1.363 . S
C1550 C1556 1.379 . S
C1550 N1558 1.356 . S
C1551 C1550 1.363 . S
C1551 C1557 1.363 . S
C1552 C1553 1.363 . S
C1552 C1557 1.379 . S
C1552 N1559 1.356 . S
C1553 C1552 1.363 . S
C1553 C1556 1.363 . S
N1554 C1556 1.356 . S
N1554 H1566 0.984 . S
N1554 H1567 0.985 . S
N1555 C1557 1.356 . S
N1555 H1560 0.984 . S
N1555 H1561 0.985 . S
C1556 C1550 1.379 . S
C1556 C1553 1.363 . S
C1556 N1554 1.356 . S
C1557 C1551 1.363 . S
C1557 C1552 1.379 . S
C1557 N1555 1.356 . S
N1558 C1550 1.356 . S
N1558 H1564 0.984 . S
N1558 H1565 0.984 . S
N1559 C1552 1.356 . S
N1559 H1562 0.984 . S
N1559 H1563 0.985 . S
H1560 N1555 0.984 . S
H1561 N1555 0.985 . S
H1562 N1559 0.984 . S
H1563 N1559 0.985 . S
H1564 N1558 0.984 . S
H1565 N1558 0.984 . S
H1566 N1554 0.984 . S
H1567 N1554 0.985 . S
C1568 C1569 1.363 . S
C1568 C1574 1.379 . S
C1568 N1576 1.356 . S
C1569 C1568 1.363 . S
C1569 C1575 1.363 . S
C1570 C1571 1.363 . S
C1570 C1575 1.379 . S
C1570 N1577 1.356 . S
C1571 C1570 1.363 . S
C1571 C1574 1.363 . S
N1572 C1574 1.356 . S
N1572 H1584 0.984 . S
N1572 H1585 0.985 . S
N1573 C1575 1.356 . S
N1573 H1578 0.984 . S
N1573 H1579 0.985 . S
C1574 C1568 1.379 . S
C1574 C1571 1.363 . S
C1574 N1572 1.356 . S
C1575 C1569 1.363 . S
C1575 C1570 1.379 . S
C1575 N1573 1.356 . S
N1576 C1568 1.356 . S
N1576 H1582 0.984 . S
N1576 H1583 0.984 . S
N1577 C1570 1.356 . S
N1577 H1580 0.984 . S
N1577 H1581 0.985 . S
H1578 N1573 0.984 . S
H1579 N1573 0.985 . S
H1580 N1577 0.984 . S
H1581 N1577 0.985 . S
H1582 N1576 0.984 . S
H1583 N1576 0.984 . S
H1584 N1572 0.984 . S
H1585 N1572 0.985 . S
C1586 C1587 1.363 . S
C1586 C1592 1.379 . S
C1586 N1594 1.356 . S
C1587 C1586 1.363 . S
C1587 C1593 1.363 . S
C1588 C1589 1.363 . S
C1588 C1593 1.379 . S
C1588 N1595 1.356 . S
C1589 C1588 1.363 . S
C1589 C1592 1.363 . S
N1590 C1592 1.356 . S
N1590 H1602 0.984 . S
N1590 H1603 0.985 . S
N1591 C1593 1.356 . S
N1591 H1596 0.984 . S
N1591 H1597 0.985 . S
C1592 C1586 1.379 . S
C1592 C1589 1.363 . S
C1592 N1590 1.356 . S
C1593 C1587 1.363 . S
C1593 C1588 1.379 . S
C1593 N1591 1.356 . S
N1594 C1586 1.356 . S
N1594 H1600 0.984 . S
N1594 H1601 0.984 . S
N1595 C1588 1.356 . S
N1595 H1598 0.984 . S
N1595 H1599 0.985 . S
H1596 N1591 0.984 . S
H1597 N1591 0.985 . S
H1598 N1595 0.984 . S
H1599 N1595 0.985 . S
H1600 N1594 0.984 . S
H1601 N1594 0.984 . S
H1602 N1590 0.984 . S
H1603 N1590 0.985 . S
C1604 C1605 1.363 . S
C1604 C1610 1.379 . S
C1604 N1612 1.356 . S
C1605 C1604 1.363 . S
C1605 C1611 1.363 . S
C1606 C1607 1.363 . S
C1606 C1611 1.379 . S
C1606 N1613 1.356 1_565 S
C1607 C1606 1.363 . S
C1607 C1610 1.363 . S
N1608 C1610 1.356 . S
N1608 H1620 0.984 . S
N1608 H1621 0.985 . S
N1609 C1611 1.356 . S
N1609 H1614 0.984 . S
N1609 H1615 1.036 . S
C1610 C1604 1.379 . S
C1610 C1607 1.363 . S
C1610 N1608 1.356 . S
C1611 C1605 1.363 . S
C1611 C1606 1.379 . S
C1611 N1609 1.356 . S
N1612 C1604 1.356 . S
N1612 H1618 0.984 . S
N1612 H1619 0.984 . S
N1613 C1606 1.356 1_545 S
N1613 H1616 0.984 . S
N1613 H1617 0.985 . S
H1614 N1609 0.984 . S
H1615 N1609 1.036 . S
H1616 N1613 0.984 . S
H1617 N1613 0.985 . S
H1618 N1612 0.984 . S
H1619 N1612 0.984 . S
H1620 N1608 0.984 . S
H1621 N1608 0.985 . S
C1622 C1623 1.363 . S
C1622 C1628 1.379 . S
C1622 N1630 1.356 . S
C1623 C1622 1.363 . S
C1623 C1629 1.363 . S
C1624 C1625 1.363 . S
C1624 C1629 1.379 . S
C1624 N1631 1.356 . S
C1625 C1624 1.363 . S
C1625 C1628 1.363 . S
N1626 C1628 1.356 1_565 S
N1626 H1638 0.984 . S
N1626 H1639 0.985 . S
N1627 C1629 1.356 . S
N1627 H1632 0.984 . S
N1627 H1633 0.985 . S
C1628 C1622 1.379 . S
C1628 C1625 1.363 . S
C1628 N1626 1.356 1_545 S
C1629 C1623 1.363 . S
C1629 C1624 1.379 . S
C1629 N1627 1.356 . S
N1630 C1622 1.356 . S
N1630 H1636 1.029 . S
N1630 H1637 0.984 . S
N1631 C1624 1.356 . S
N1631 H1634 0.984 . S
N1631 H1635 0.985 . S
H1632 N1627 0.984 . S
H1633 N1627 0.985 . S
H1634 N1631 0.984 . S
H1635 N1631 0.985 . S
H1636 N1630 1.029 . S
H1637 N1630 0.984 . S
H1638 N1626 0.984 . S
H1639 N1626 0.985 . S
C1640 C1641 1.363 . S
C1640 C1646 1.379 . S
C1640 N1648 1.356 . S
C1641 C1640 1.363 . S
C1641 C1647 1.363 . S
C1642 C1643 1.363 . S
C1642 C1647 1.379 . S
C1642 N1649 1.356 . S
C1643 C1642 1.363 . S
C1643 C1646 1.363 . S
N1644 C1646 1.356 1_545 S
N1644 H1656 0.984 . S
N1644 H1657 0.985 . S
N1645 C1647 1.356 . S
N1645 H1650 0.984 . S
N1645 H1651 0.985 . S
C1646 C1640 1.379 . S
C1646 C1643 1.363 . S
C1646 N1644 1.356 1_565 S
C1647 C1641 1.363 . S
C1647 C1642 1.379 . S
C1647 N1645 1.356 . S
N1648 C1640 1.356 . S
N1648 H1654 0.984 1_565 S
N1648 H1655 0.984 . S
N1649 C1642 1.356 . S
N1649 H1652 0.984 . S
N1649 H1653 0.985 . S
H1650 N1645 0.984 . S
H1651 N1645 0.985 . S
H1652 N1649 0.984 . S
H1653 N1649 0.985 . S
H1654 N1648 0.984 1_545 S
H1655 N1648 0.984 . S
H1656 N1644 0.984 . S
H1657 N1644 0.985 . S
C1658 C1659 1.363 . S
C1658 C1664 1.379 . S
C1658 N1666 1.356 . S
C1659 C1658 1.363 . S
C1659 C1665 1.363 . S
C1660 C1661 1.363 . S
C1660 C1665 1.379 . S
C1660 N1667 1.356 1_545 S
C1661 C1660 1.363 . S
C1661 C1664 1.363 . S
N1662 C1664 1.356 . S
N1662 H1674 0.984 . S
N1662 H1675 0.985 . S
N1663 C1665 1.356 . S
N1663 H1668 0.984 . S
N1663 H1669 0.985 1_545 S
C1664 C1658 1.379 . S
C1664 C1661 1.363 . S
C1664 N1662 1.356 . S
C1665 C1659 1.363 . S
C1665 C1660 1.379 . S
C1665 N1663 1.356 . S
N1666 C1658 1.356 . S
N1666 H1672 0.984 . S
N1666 H1673 0.984 . S
N1667 C1660 1.356 1_565 S
N1667 H1670 0.984 . S
N1667 H1671 0.985 . S
H1668 N1663 0.984 . S
H1669 N1663 0.985 1_565 S
H1670 N1667 0.984 . S
H1671 N1667 0.985 . S
H1672 N1666 0.984 . S
H1673 N1666 0.984 . S
H1674 N1662 0.984 . S
H1675 N1662 0.985 . S
C1676 C1677 1.363 . S
C1676 C1682 1.379 . S
C1676 N1684 1.356 . S
C1677 C1676 1.363 . S
C1677 C1683 1.363 . S
C1678 C1679 1.363 . S
C1678 C1683 1.379 . S
C1678 N1685 1.356 . S
C1679 C1678 1.363 . S
C1679 C1682 1.363 . S
N1680 C1682 1.356 . S
N1680 H1692 0.984 . S
N1680 H1693 0.985 . S
N1681 C1683 1.356 . S
N1681 H1686 0.984 . S
N1681 H1687 0.985 . S
C1682 C1676 1.379 . S
C1682 C1679 1.363 . S
C1682 N1680 1.356 . S
C1683 C1677 1.363 . S
C1683 C1678 1.379 . S
C1683 N1681 1.356 . S
N1684 C1676 1.356 . S
N1684 H1690 0.984 . S
N1684 H1691 0.984 . S
N1685 C1678 1.356 . S
N1685 H1688 0.984 . S
N1685 H1689 0.985 1_545 S
H1686 N1681 0.984 . S
H1687 N1681 0.985 . S
H1688 N1685 0.984 . S
H1689 N1685 0.985 1_565 S
H1690 N1684 0.984 . S
H1691 N1684 0.984 . S
H1692 N1680 0.984 . S
H1693 N1680 0.985 . S
C1694 C1695 1.363 . S
C1694 C1700 1.379 . S
C1694 N1702 1.356 . S
C1695 C1694 1.363 . S
C1695 C1701 1.363 . S
C1696 C1697 1.363 . S
C1696 C1701 1.379 . S
C1696 N1703 1.356 . S
C1697 C1696 1.363 . S
C1697 C1700 1.363 . S
N1698 C1700 1.356 . S
N1698 H1710 0.984 . S
N1698 H1711 0.985 . S
N1699 C1701 1.356 . S
N1699 H1704 0.984 . S
N1699 H1705 0.985 . S
C1700 C1694 1.379 . S
C1700 C1697 1.363 . S
C1700 N1698 1.356 . S
C1701 C1695 1.363 . S
C1701 C1696 1.379 . S
C1701 N1699 1.356 . S
N1702 C1694 1.356 . S
N1702 H1708 0.984 . S
N1702 H1709 0.984 . S
N1703 C1696 1.356 . S
N1703 H1706 0.984 . S
N1703 H1707 0.985 . S
H1704 N1699 0.984 . S
H1705 N1699 0.985 . S
H1706 N1703 0.984 . S
H1707 N1703 0.985 . S
H1708 N1702 0.984 . S
H1709 N1702 0.984 . S
H1710 N1698 0.984 . S
H1711 N1698 0.985 . S
C1712 C1713 1.363 . S
C1712 C1718 1.379 . S
C1712 N1720 1.356 . S
C1713 C1712 1.363 . S
C1713 C1719 1.363 . S
C1714 C1715 1.363 . S
C1714 C1719 1.379 . S
C1714 N1721 1.356 . S
C1715 C1714 1.363 . S
C1715 C1718 1.363 . S
N1716 C1718 1.356 . S
N1716 H1728 0.984 . S
N1716 H1729 0.985 . S
N1717 C1719 1.356 . S
N1717 H1722 0.984 . S
N1717 H1723 0.985 . S
C1718 C1712 1.379 . S
C1718 C1715 1.363 . S
C1718 N1716 1.356 . S
C1719 C1713 1.363 . S
C1719 C1714 1.379 . S
C1719 N1717 1.356 . S
N1720 C1712 1.356 . S
N1720 H1726 0.984 . S
N1720 H1727 0.984 . S
N1721 C1714 1.356 . S
N1721 H1724 0.984 . S
N1721 H1725 0.985 . S
H1722 N1717 0.984 . S
H1723 N1717 0.985 . S
H1724 N1721 0.984 . S
H1725 N1721 0.985 . S
H1726 N1720 0.984 . S
H1727 N1720 0.984 . S
H1728 N1716 0.984 . S
H1729 N1716 0.985 . S
C1730 C1731 1.363 . S
C1730 C1736 1.379 . S
C1730 N1738 1.356 . S
C1731 C1730 1.363 . S
C1731 C1737 1.363 . S
C1732 C1733 1.363 . S
C1732 C1737 1.379 . S
C1732 N1739 1.356 . S
C1733 C1732 1.363 . S
C1733 C1736 1.363 . S
N1734 C1736 1.356 . S
N1734 H1746 0.984 . S
N1734 H1747 0.985 . S
N1735 C1737 1.356 . S
N1735 H1740 0.984 . S
N1735 H1741 0.985 . S
C1736 C1730 1.379 . S
C1736 C1733 1.363 . S
C1736 N1734 1.356 . S
C1737 C1731 1.363 . S
C1737 C1732 1.379 . S
C1737 N1735 1.356 . S
N1738 C1730 1.356 . S
N1738 H1744 0.984 . S
N1738 H1745 0.984 . S
N1739 C1732 1.356 . S
N1739 H1742 0.984 . S
N1739 H1743 0.985 . S
H1740 N1735 0.984 . S
H1741 N1735 0.985 . S
H1742 N1739 0.984 . S
H1743 N1739 0.985 . S
H1744 N1738 0.984 . S
H1745 N1738 0.984 . S
H1746 N1734 0.984 . S
H1747 N1734 0.985 . S
C1748 C1749 1.363 . S
C1748 C1754 1.379 . S
C1748 N1756 1.356 . S
C1749 C1748 1.363 . S
C1749 C1755 1.363 . S
C1750 C1751 1.363 . S
C1750 C1755 1.379 . S
C1750 N1757 1.356 . S
C1751 C1750 1.363 . S
C1751 C1754 1.363 . S
N1752 C1754 1.356 . S
N1752 H1764 0.984 . S
N1752 H1765 0.985 . S
N1753 C1755 1.356 . S
N1753 H1758 0.984 . S
N1753 H1759 0.985 . S
C1754 C1748 1.379 . S
C1754 C1751 1.363 . S
C1754 N1752 1.356 . S
C1755 C1749 1.363 . S
C1755 C1750 1.379 . S
C1755 N1753 1.356 . S
N1756 C1748 1.356 . S
N1756 H1762 0.984 . S
N1756 H1763 0.984 . S
N1757 C1750 1.356 . S
N1757 H1760 0.984 . S
N1757 H1761 0.985 . S
H1758 N1753 0.984 . S
H1759 N1753 0.985 . S
H1760 N1757 0.984 . S
H1761 N1757 0.985 . S
H1762 N1756 0.984 . S
H1763 N1756 0.984 . S
H1764 N1752 0.984 . S
H1765 N1752 0.985 . S
C1766 C1767 1.363 . S
C1766 C1772 1.379 . S
C1766 N1774 1.356 . S
C1767 C1766 1.363 . S
C1767 C1773 1.363 . S
C1768 C1769 1.363 . S
C1768 C1773 1.379 . S
C1768 N1775 1.356 . S
C1769 C1768 1.363 . S
C1769 C1772 1.363 . S
N1770 C1772 1.356 . S
N1770 H1782 0.984 . S
N1770 H1783 0.985 . S
N1771 C1773 1.356 . S
N1771 H1776 0.984 . S
N1771 H1777 0.985 . S
C1772 C1766 1.379 . S
C1772 C1769 1.363 . S
C1772 N1770 1.356 . S
C1773 C1767 1.363 . S
C1773 C1768 1.379 . S
C1773 N1771 1.356 . S
N1774 C1766 1.356 . S
N1774 H1780 0.984 . S
N1774 H1781 0.984 . S
N1775 C1768 1.356 . S
N1775 H1778 0.984 . S
N1775 H1779 0.985 . S
H1776 N1771 0.984 . S
H1777 N1771 0.985 . S
H1778 N1775 0.984 . S
H1779 N1775 0.985 . S
H1780 N1774 0.984 . S
H1781 N1774 0.984 . S
H1782 N1770 0.984 . S
H1783 N1770 0.985 . S
C1784 C1785 1.363 . S
C1784 C1790 1.379 . S
C1784 N1792 1.356 . S
C1785 C1784 1.363 . S
C1785 C1791 1.363 . S
C1786 C1787 1.363 . S
C1786 C1791 1.379 . S
C1786 N1793 1.356 . S
C1787 C1786 1.363 . S
C1787 C1790 1.363 . S
N1788 C1790 1.356 . S
N1788 H1800 0.984 . S
N1788 H1801 0.985 . S
N1789 C1791 1.356 . S
N1789 H1794 0.984 . S
N1789 H1795 0.985 . S
C1790 C1784 1.379 . S
C1790 C1787 1.363 . S
C1790 N1788 1.356 . S
C1791 C1785 1.363 . S
C1791 C1786 1.379 . S
C1791 N1789 1.356 . S
N1792 C1784 1.356 . S
N1792 H1798 0.984 . S
N1792 H1799 0.984 . S
N1793 C1786 1.356 . S
N1793 H1796 0.984 . S
N1793 H1797 0.985 . S
H1794 N1789 0.984 . S
H1795 N1789 0.985 . S
H1796 N1793 0.984 . S
H1797 N1793 0.985 . S
H1798 N1792 0.984 . S
H1799 N1792 0.984 . S
H1800 N1788 0.984 . S
H1801 N1788 0.985 . S
C1802 C1803 1.363 . S
C1802 C1808 1.379 . S
C1802 N1810 1.356 . S
C1803 C1802 1.363 . S
C1803 C1809 1.363 . S
C1804 C1805 1.363 . S
C1804 C1809 1.379 . S
C1804 N1811 1.356 . S
C1805 C1804 1.363 . S
C1805 C1808 1.363 . S
N1806 C1808 1.356 . S
N1806 H1818 0.984 . S
N1806 H1819 0.985 . S
N1807 C1809 1.356 . S
N1807 H1812 0.984 . S
N1807 H1813 0.985 . S
C1808 C1802 1.379 . S
C1808 C1805 1.363 . S
C1808 N1806 1.356 . S
C1809 C1803 1.363 . S
C1809 C1804 1.379 . S
C1809 N1807 1.356 . S
N1810 C1802 1.356 . S
N1810 H1816 0.984 . S
N1810 H1817 0.984 . S
N1811 C1804 1.356 . S
N1811 H1814 0.984 . S
N1811 H1815 0.985 . S
H1812 N1807 0.984 . S
H1813 N1807 0.985 . S
H1814 N1811 0.984 . S
H1815 N1811 0.985 . S
H1816 N1810 0.984 . S
H1817 N1810 0.984 . S
H1818 N1806 0.984 . S
H1819 N1806 0.985 . S
C1820 C1821 1.363 . S
C1820 C1826 1.379 . S
C1820 N1828 1.356 . S
C1821 C1820 1.363 . S
C1821 C1827 1.363 . S
C1822 C1823 1.363 . S
C1822 C1827 1.379 . S
C1822 N1829 1.356 . S
C1823 C1822 1.363 . S
C1823 C1826 1.363 . S
N1824 C1826 1.356 . S
N1824 H1836 0.984 . S
N1824 H1837 0.985 . S
N1825 C1827 1.356 . S
N1825 H1830 0.984 . S
N1825 H1831 0.985 . S
C1826 C1820 1.379 . S
C1826 C1823 1.363 . S
C1826 N1824 1.356 . S
C1827 C1821 1.363 . S
C1827 C1822 1.379 . S
C1827 N1825 1.356 . S
N1828 C1820 1.356 . S
N1828 H1834 0.984 . S
N1828 H1835 0.984 . S
N1829 C1822 1.356 . S
N1829 H1832 0.984 . S
N1829 H1833 0.985 . S
H1830 N1825 0.984 . S
H1831 N1825 0.985 . S
H1832 N1829 0.984 . S
H1833 N1829 0.985 . S
H1834 N1828 0.984 . S
H1835 N1828 0.984 . S
H1836 N1824 0.984 . S
H1837 N1824 0.985 . S
C1838 C1839 1.363 . S
C1838 C1844 1.379 . S
C1838 N1846 1.356 . S
C1839 C1838 1.363 . S
C1839 C1845 1.363 . S
C1840 C1841 1.363 . S
C1840 C1845 1.379 . S
C1840 N1847 1.356 . S
C1841 C1840 1.363 . S
C1841 C1844 1.363 . S
N1842 C1844 1.356 . S
N1842 H1854 0.984 . S
N1842 H1855 0.985 . S
N1843 C1845 1.356 . S
N1843 H1848 0.984 . S
N1843 H1849 0.985 . S
C1844 C1838 1.379 . S
C1844 C1841 1.363 . S
C1844 N1842 1.356 . S
C1845 C1839 1.363 . S
C1845 C1840 1.379 . S
C1845 N1843 1.356 . S
N1846 C1838 1.356 . S
N1846 H1852 0.984 . S
N1846 H1853 0.984 . S
N1847 C1840 1.356 . S
N1847 H1850 0.984 . S
N1847 H1851 0.985 . S
H1848 N1843 0.984 . S
H1849 N1843 0.985 . S
H1850 N1847 0.984 . S
H1851 N1847 0.985 . S
H1852 N1846 0.984 . S
H1853 N1846 0.984 . S
H1854 N1842 0.984 . S
H1855 N1842 0.985 . S
C1856 C1857 1.363 1_545 S
C1856 C1862 1.379 1_455 S
C1856 N1864 1.356 . S
C1857 C1856 1.363 1_565 S
C1857 C1863 1.363 . S
C1858 C1859 1.363 . S
C1858 C1863 1.379 1_655 S
C1858 N1865 1.356 . S
C1859 C1858 1.363 . S
C1859 C1862 1.363 1_565 S
N1860 C1862 1.356 . S
N1860 H1872 0.984 . S
N1860 H1873 0.985 . S
N1861 C1863 1.356 . S
N1861 H1866 0.984 . S
N1861 H1867 0.985 . S
C1862 C1856 1.379 1_655 S
C1862 C1859 1.363 1_545 S
C1862 N1860 1.356 . S
C1863 C1857 1.363 . S
C1863 C1858 1.379 1_455 S
C1863 N1861 1.356 . S
N1864 C1856 1.356 . S
N1864 H1870 0.984 . S
N1864 H1871 0.984 . S
N1865 C1858 1.356 . S
N1865 H1868 0.984 . S
N1865 H1869 0.985 . S
H1866 N1861 0.984 . S
H1867 N1861 0.985 . S
H1868 N1865 0.984 . S
H1869 N1865 0.985 . S
H1870 N1864 0.984 . S
H1871 N1864 0.984 . S
H1872 N1860 0.984 . S
H1873 N1860 0.985 . S
C1874 C1875 1.363 . S
C1874 C1880 1.379 . S
C1874 N1882 1.356 . S
C1875 C1874 1.363 . S
C1875 C1881 1.363 . S
C1876 C1877 1.363 . S
C1876 C1881 1.379 . S
C1876 N1883 1.356 . S
C1877 C1876 1.363 . S
C1877 C1880 1.363 . S
N1878 C1880 1.356 . S
N1878 H1890 0.984 . S
N1878 H1891 0.985 . S
N1879 C1881 1.356 . S
N1879 H1884 0.984 . S
N1879 H1885 0.985 . S
C1880 C1874 1.379 . S
C1880 C1877 1.363 . S
C1880 N1878 1.356 . S
C1881 C1875 1.363 . S
C1881 C1876 1.379 . S
C1881 N1879 1.356 . S
N1882 C1874 1.356 . S
N1882 H1888 0.984 . S
N1882 H1889 0.984 . S
N1883 C1876 1.356 . S
N1883 H1886 0.984 . S
N1883 H1887 0.985 . S
H1884 N1879 0.984 . S
H1885 N1879 0.985 . S
H1886 N1883 0.984 . S
H1887 N1883 0.985 . S
H1888 N1882 0.984 . S
H1889 N1882 0.984 . S
H1890 N1878 0.984 . S
H1891 N1878 0.985 . S
C1892 C1893 1.363 . S
C1892 C1898 1.379 . S
C1892 N1900 1.356 . S
C1893 C1892 1.363 . S
C1893 C1899 1.363 1_545 S
C1894 C1895 1.363 1_565 S
C1894 C1899 1.379 . S
C1894 N1901 1.356 . S
C1895 C1894 1.363 1_545 S
C1895 C1898 1.363 . S
N1896 C1898 1.356 . S
N1896 H1908 0.984 . S
N1896 H1909 0.985 . S
N1897 C1899 1.356 . S
N1897 H1902 0.984 . S
N1897 H1903 0.985 . S
C1898 C1892 1.379 . S
C1898 C1895 1.363 . S
C1898 N1896 1.356 . S
C1899 C1893 1.363 1_565 S
C1899 C1894 1.379 . S
C1899 N1897 1.356 . S
N1900 C1892 1.356 . S
N1900 H1906 0.984 . S
N1900 H1907 0.984 . S
N1901 C1894 1.356 . S
N1901 H1904 0.984 . S
N1901 H1905 0.985 . S
H1902 N1897 0.984 . S
H1903 N1897 0.985 . S
H1904 N1901 0.984 . S
H1905 N1901 0.985 . S
H1906 N1900 0.984 . S
H1907 N1900 0.984 . S
H1908 N1896 0.984 . S
H1909 N1896 0.985 . S
C1910 C1911 1.363 . S
C1910 C1916 1.379 . S
C1910 N1918 1.356 . S
C1911 C1910 1.363 . S
C1911 C1917 1.363 . S
C1912 C1913 1.363 . S
C1912 C1917 1.379 . S
C1912 N1919 1.356 . S
C1913 C1912 1.363 . S
C1913 C1916 1.363 . S
N1914 C1916 1.356 . S
N1914 H1926 0.984 . S
N1914 H1927 0.985 . S
N1915 C1917 1.356 . S
N1915 H1920 0.984 . S
N1915 H1921 0.985 . S
C1916 C1910 1.379 . S
C1916 C1913 1.363 . S
C1916 N1914 1.356 . S
C1917 C1911 1.363 . S
C1917 C1912 1.379 . S
C1917 N1915 1.356 . S
N1918 C1910 1.356 . S
N1918 H1924 0.984 . S
N1918 H1925 0.984 . S
N1919 C1912 1.356 . S
N1919 H1922 0.984 . S
N1919 H1923 0.985 . S
H1920 N1915 0.984 . S
H1921 N1915 0.985 . S
H1922 N1919 0.984 . S
H1923 N1919 0.985 . S
H1924 N1918 0.984 . S
H1925 N1918 0.984 . S
H1926 N1914 0.984 . S
H1927 N1914 0.985 . S
C1928 C1929 1.363 1_565 S
C1928 C1934 1.379 1_655 S
C1928 N1936 1.356 . S
C1929 C1928 1.363 1_545 S
C1929 C1935 1.363 . S
C1930 C1931 1.363 . S
C1930 C1935 1.379 1_455 S
C1930 N1937 1.356 . S
C1931 C1930 1.363 . S
C1931 C1934 1.363 1_545 S
N1932 C1934 1.356 . S
N1932 H1944 0.984 . S
N1932 H1945 0.985 . S
N1933 C1935 1.356 . S
N1933 H1938 0.984 . S
N1933 H1939 0.985 . S
C1934 C1928 1.379 1_455 S
C1934 C1931 1.363 1_565 S
C1934 N1932 1.356 . S
C1935 C1929 1.363 . S
C1935 C1930 1.379 1_655 S
C1935 N1933 1.356 . S
N1936 C1928 1.356 . S
N1936 H1942 0.984 . S
N1936 H1943 0.984 . S
N1937 C1930 1.356 . S
N1937 H1940 0.984 . S
N1937 H1941 0.985 . S
H1938 N1933 0.984 . S
H1939 N1933 0.985 . S
H1940 N1937 0.984 . S
H1941 N1937 0.985 . S
H1942 N1936 0.984 . S
H1943 N1936 0.984 . S
H1944 N1932 0.984 . S
H1945 N1932 0.985 . S
C1946 C1947 1.363 . S
C1946 C1952 1.379 . S
C1946 N1954 1.356 . S
C1947 C1946 1.363 . S
C1947 C1953 1.363 . S
C1948 C1949 1.363 . S
C1948 C1953 1.379 . S
C1948 N1955 1.356 . S
C1949 C1948 1.363 . S
C1949 C1952 1.363 . S
N1950 C1952 1.356 . S
N1950 H1962 0.984 . S
N1950 H1963 0.985 . S
N1951 C1953 1.356 . S
N1951 H1956 0.984 . S
N1951 H1957 0.985 . S
C1952 C1946 1.379 . S
C1952 C1949 1.363 . S
C1952 N1950 1.356 . S
C1953 C1947 1.363 . S
C1953 C1948 1.379 . S
C1953 N1951 1.356 . S
N1954 C1946 1.356 . S
N1954 H1960 0.984 . S
N1954 H1961 0.984 . S
N1955 C1948 1.356 . S
N1955 H1958 0.984 . S
N1955 H1959 0.985 . S
H1956 N1951 0.984 . S
H1957 N1951 0.985 . S
H1958 N1955 0.984 . S
H1959 N1955 0.985 . S
H1960 N1954 0.984 . S
H1961 N1954 0.984 . S
H1962 N1950 0.984 . S
H1963 N1950 0.985 . S
C1964 C1965 1.363 . S
C1964 C1970 1.379 . S
C1964 N1972 1.356 . S
C1965 C1964 1.363 . S
C1965 C1971 1.363 1_565 S
C1966 C1967 1.363 1_545 S
C1966 C1971 1.379 . S
C1966 N1973 1.356 . S
C1967 C1966 1.363 1_565 S
C1967 C1970 1.363 . S
N1968 C1970 1.356 . S
N1968 H1980 0.984 . S
N1968 H1981 0.985 . S
N1969 C1971 1.356 . S
N1969 H1974 0.984 . S
N1969 H1975 0.985 . S
C1970 C1964 1.379 . S
C1970 C1967 1.363 . S
C1970 N1968 1.356 . S
C1971 C1965 1.363 1_545 S
C1971 C1966 1.379 . S
C1971 N1969 1.356 . S
N1972 C1964 1.356 . S
N1972 H1978 0.984 . S
N1972 H1979 0.984 . S
N1973 C1966 1.356 . S
N1973 H1976 0.984 . S
N1973 H1977 0.985 . S
H1974 N1969 0.984 . S
H1975 N1969 0.985 . S
H1976 N1973 0.984 . S
H1977 N1973 0.985 . S
H1978 N1972 0.984 . S
H1979 N1972 0.984 . S
H1980 N1968 0.984 . S
H1981 N1968 0.985 . S
C1982 C1983 1.363 . S
C1982 C1988 1.379 . S
C1982 N1990 1.356 . S
C1983 C1982 1.363 . S
C1983 C1989 1.363 . S
C1984 C1985 1.363 . S
C1984 C1989 1.379 . S
C1984 N1991 1.356 . S
C1985 C1984 1.363 . S
C1985 C1988 1.363 . S
N1986 C1988 1.356 . S
N1986 H1998 0.984 . S
N1986 H1999 0.985 . S
N1987 C1989 1.356 . S
N1987 H1992 0.984 . S
N1987 H1993 0.985 . S
C1988 C1982 1.379 . S
C1988 C1985 1.363 . S
C1988 N1986 1.356 . S
C1989 C1983 1.363 . S
C1989 C1984 1.379 . S
C1989 N1987 1.356 . S
N1990 C1982 1.356 . S
N1990 H1996 0.984 . S
N1990 H1997 0.984 . S
N1991 C1984 1.356 . S
N1991 H1994 0.984 . S
N1991 H1995 0.985 . S
H1992 N1987 0.984 . S
H1993 N1987 0.985 . S
H1994 N1991 0.984 . S
H1995 N1991 0.985 . S
H1996 N1990 0.984 . S
H1997 N1990 0.984 . S
H1998 N1986 0.984 . S
H1999 N1986 0.985 . S
C2000 C2001 1.363 . S
C2000 C2006 1.379 . S
C2000 N2008 1.356 . S
C2001 C2000 1.363 . S
C2001 C2007 1.363 . S
C2002 C2003 1.363 . S
C2002 C2007 1.379 . S
C2002 N2009 1.356 . S
C2003 C2002 1.363 . S
C2003 C2006 1.363 . S
N2004 C2006 1.356 . S
N2004 H2016 0.984 . S
N2004 H2017 0.985 . S
N2005 C2007 1.356 . S
N2005 H2010 0.984 . S
N2005 H2011 0.985 . S
C2006 C2000 1.379 . S
C2006 C2003 1.363 . S
C2006 N2004 1.356 . S
C2007 C2001 1.363 . S
C2007 C2002 1.379 . S
C2007 N2005 1.356 . S
N2008 C2000 1.356 . S
N2008 H2014 0.984 . S
N2008 H2015 0.984 . S
N2009 C2002 1.356 . S
N2009 H2012 0.984 . S
N2009 H2013 0.985 . S
H2010 N2005 0.984 . S
H2011 N2005 0.985 . S
H2012 N2009 0.984 . S
H2013 N2009 0.985 . S
H2014 N2008 0.984 . S
H2015 N2008 0.984 . S
H2016 N2004 0.984 . S
H2017 N2004 0.985 . S
C2018 C2019 1.363 . S
C2018 C2024 1.379 . S
C2018 N2026 1.356 . S
C2019 C2018 1.363 . S
C2019 C2025 1.363 . S
C2020 C2021 1.363 . S
C2020 C2025 1.379 . S
C2020 N2027 1.356 . S
C2021 C2020 1.363 . S
C2021 C2024 1.363 . S
N2022 C2024 1.356 . S
N2022 H2034 0.984 . S
N2022 H2035 0.985 . S
N2023 C2025 1.356 . S
N2023 H2028 0.984 . S
N2023 H2029 0.985 . S
C2024 C2018 1.379 . S
C2024 C2021 1.363 . S
C2024 N2022 1.356 . S
C2025 C2019 1.363 . S
C2025 C2020 1.379 . S
C2025 N2023 1.356 . S
N2026 C2018 1.356 . S
N2026 H2032 0.984 . S
N2026 H2033 0.984 . S
N2027 C2020 1.356 . S
N2027 H2030 0.984 . S
N2027 H2031 0.985 . S
H2028 N2023 0.984 . S
H2029 N2023 0.985 . S
H2030 N2027 0.984 . S
H2031 N2027 0.985 . S
H2032 N2026 0.984 . S
H2033 N2026 0.984 . S
H2034 N2022 0.984 . S
H2035 N2022 0.985 . S
C2036 C2037 1.363 . S
C2036 C2042 1.379 . S
C2036 N2044 1.356 . S
C2037 C2036 1.363 . S
C2037 C2043 1.363 . S
C2038 C2039 1.363 . S
C2038 C2043 1.379 . S
C2038 N2045 1.356 . S
C2039 C2038 1.363 . S
C2039 C2042 1.363 . S
N2040 C2042 1.356 . S
N2040 H2052 0.984 . S
N2040 H2053 0.985 . S
N2041 C2043 1.356 . S
N2041 H2046 0.984 . S
N2041 H2047 0.985 . S
C2042 C2036 1.379 . S
C2042 C2039 1.363 . S
C2042 N2040 1.356 . S
C2043 C2037 1.363 . S
C2043 C2038 1.379 . S
C2043 N2041 1.356 . S
N2044 C2036 1.356 . S
N2044 H2050 0.984 . S
N2044 H2051 0.984 . S
N2045 C2038 1.356 . S
N2045 H2048 0.984 . S
N2045 H2049 0.985 . S
H2046 N2041 0.984 . S
H2047 N2041 0.985 . S
H2048 N2045 0.984 . S
H2049 N2045 0.985 . S
H2050 N2044 0.984 . S
H2051 N2044 0.984 . S
H2052 N2040 0.984 . S
H2053 N2040 0.985 . S
C2054 C2055 1.363 . S
C2054 C2060 1.379 . S
C2054 N2062 1.356 . S
C2055 C2054 1.363 . S
C2055 C2061 1.363 . S
C2056 C2057 1.363 . S
C2056 C2061 1.379 . S
C2056 N2063 1.356 . S
C2057 C2056 1.363 . S
C2057 C2060 1.363 . S
N2058 C2060 1.356 . S
N2058 H2070 0.984 . S
N2058 H2071 0.985 . S
N2059 C2061 1.356 . S
N2059 H2064 0.984 . S
N2059 H2065 0.985 . S
C2060 C2054 1.379 . S
C2060 C2057 1.363 . S
C2060 N2058 1.356 . S
C2061 C2055 1.363 . S
C2061 C2056 1.379 . S
C2061 N2059 1.356 . S
N2062 C2054 1.356 . S
N2062 H2068 0.984 . S
N2062 H2069 0.984 . S
N2063 C2056 1.356 . S
N2063 H2066 0.984 . S
N2063 H2067 0.985 . S
H2064 N2059 0.984 . S
H2065 N2059 0.985 . S
H2066 N2063 0.984 . S
H2067 N2063 0.985 . S
H2068 N2062 0.984 . S
H2069 N2062 0.984 . S
H2070 N2058 0.984 . S
H2071 N2058 0.985 . S
C2072 C2073 1.363 . S
C2072 C2078 1.379 . S
C2072 N2080 1.356 . S
C2073 C2072 1.363 . S
C2073 C2079 1.363 . S
C2074 C2075 1.363 . S
C2074 C2079 1.379 . S
C2074 N2081 1.356 . S
C2075 C2074 1.363 . S
C2075 C2078 1.363 . S
N2076 C2078 1.356 . S
N2076 H2088 0.984 . S
N2076 H2089 0.985 . S
N2077 C2079 1.356 . S
N2077 H2082 0.984 . S
N2077 H2083 0.985 . S
C2078 C2072 1.379 . S
C2078 C2075 1.363 . S
C2078 N2076 1.356 . S
C2079 C2073 1.363 . S
C2079 C2074 1.379 . S
C2079 N2077 1.356 . S
N2080 C2072 1.356 . S
N2080 H2086 0.984 . S
N2080 H2087 0.984 . S
N2081 C2074 1.356 . S
N2081 H2084 0.984 . S
N2081 H2085 0.985 . S
H2082 N2077 0.984 . S
H2083 N2077 0.985 . S
H2084 N2081 0.984 . S
H2085 N2081 0.985 . S
H2086 N2080 0.984 . S
H2087 N2080 0.984 . S
H2088 N2076 0.984 . S
H2089 N2076 0.985 . S
C2090 C2091 1.363 . S
C2090 C2096 1.379 1_455 S
C2090 N2098 1.356 . S
C2091 C2090 1.363 . S
C2091 C2097 1.363 . S
C2092 C2093 1.363 . S
C2092 C2097 1.379 1_655 S
C2092 N2099 1.356 . S
C2093 C2092 1.363 . S
C2093 C2096 1.363 . S
N2094 C2096 1.356 . S
N2094 H2106 0.984 . S
N2094 H2107 0.985 . S
N2095 C2097 1.356 . S
N2095 H2100 0.984 . S
N2095 H2101 0.985 . S
C2096 C2090 1.379 1_655 S
C2096 C2093 1.363 . S
C2096 N2094 1.356 . S
C2097 C2091 1.363 . S
C2097 C2092 1.379 1_455 S
C2097 N2095 1.356 . S
N2098 C2090 1.356 . S
N2098 H2104 0.984 . S
N2098 H2105 0.984 . S
N2099 C2092 1.356 . S
N2099 H2102 0.984 . S
N2099 H2103 0.985 . S
H2100 N2095 0.984 . S
H2101 N2095 0.985 . S
H2102 N2099 0.984 . S
H2103 N2099 0.985 . S
H2104 N2098 0.984 . S
H2105 N2098 0.984 . S
H2106 N2094 0.984 . S
H2107 N2094 0.985 . S
C2108 C2109 1.363 . S
C2108 C2114 1.379 . S
C2108 N2116 1.356 . S
C2109 C2108 1.363 . S
C2109 C2115 1.363 . S
C2110 C2111 1.363 . S
C2110 C2115 1.379 . S
C2110 N2117 1.356 . S
C2111 C2110 1.363 . S
C2111 C2114 1.363 . S
N2112 C2114 1.356 . S
N2112 H2124 0.984 . S
N2112 H2125 0.985 . S
N2113 C2115 1.356 . S
N2113 H2118 0.984 . S
N2113 H2119 0.985 . S
C2114 C2108 1.379 . S
C2114 C2111 1.363 . S
C2114 N2112 1.356 . S
C2115 C2109 1.363 . S
C2115 C2110 1.379 . S
C2115 N2113 1.356 . S
N2116 C2108 1.356 . S
N2116 H2122 0.984 . S
N2116 H2123 0.984 . S
N2117 C2110 1.356 . S
N2117 H2120 0.984 . S
N2117 H2121 0.985 . S
H2118 N2113 0.984 . S
H2119 N2113 0.985 . S
H2120 N2117 0.984 . S
H2121 N2117 0.985 . S
H2122 N2116 0.984 . S
H2123 N2116 0.984 . S
H2124 N2112 0.984 . S
H2125 N2112 0.985 . S
C2126 C2127 1.363 . S
C2126 C2132 1.379 1_655 S
C2126 N2134 1.356 . S
C2127 C2126 1.363 . S
C2127 C2133 1.363 . S
C2128 C2129 1.363 . S
C2128 C2133 1.379 1_455 S
C2128 N2135 1.356 . S
C2129 C2128 1.363 . S
C2129 C2132 1.363 . S
N2130 C2132 1.356 . S
N2130 H2142 0.984 . S
N2130 H2143 0.985 . S
N2131 C2133 1.356 . S
N2131 H2136 0.984 . S
N2131 H2137 0.985 . S
C2132 C2126 1.379 1_455 S
C2132 C2129 1.363 . S
C2132 N2130 1.356 . S
C2133 C2127 1.363 . S
C2133 C2128 1.379 1_655 S
C2133 N2131 1.356 . S
N2134 C2126 1.356 . S
N2134 H2140 0.984 . S
N2134 H2141 0.984 . S
N2135 C2128 1.356 . S
N2135 H2138 0.984 . S
N2135 H2139 0.985 . S
H2136 N2131 0.984 . S
H2137 N2131 0.985 . S
H2138 N2135 0.984 . S
H2139 N2135 0.985 . S
H2140 N2134 0.984 . S
H2141 N2134 0.984 . S
H2142 N2130 0.984 . S
H2143 N2130 0.985 . S
C1281 C255 1.513 . S
C1283 C15 1.513 . S
C1299 C295 1.687 . S
C1301 C55 1.687 . S
C1317 C175 1.513 . S
C1319 C95 1.513 . S
C1335 C135 1.687 . S
C1337 C215 1.687 . S
C1353 C575 1.511 . S
C1355 C335 1.511 . S
C1371 C615 1.684 . S
C1373 C375 1.684 . S
C1389 C495 1.511 . S
C1391 C415 1.511 . S
C1407 C535 1.684 . S
C1409 C455 1.684 . S
C1425 C655 1.682 . S
C1427 C895 1.682 . S
C1443 C935 1.539 . S
C1445 C695 1.539 . S
C1461 C735 1.682 . S
C1463 C815 1.682 . S
C1479 C855 1.539 . S
C1481 C775 1.539 . S
C1497 C975 1.679 . S
C1499 C1215 1.679 . S
C1515 C1015 1.536 . S
C1517 C1255 1.536 . S
C1533 C1055 1.679 . S
C1535 C1135 1.679 . S
C1551 C1095 1.536 . S
C1553 C1175 1.536 . S
C1569 C301 1.547 . S
C1571 C21 1.538 . S
C1587 C61 1.547 . S
C1589 C181 1.538 . S
C1605 C221 1.547 . S
C1607 C101 1.538 . S
C1623 C141 1.547 . S
C1625 C261 1.538 . S
C1641 C621 1.482 . S
C1643 C341 1.517 . S
C1659 C381 1.482 . S
C1661 C501 1.518 . S
C1677 C541 1.482 . S
C1679 C421 1.518 . S
C1695 C461 1.482 . S
C1697 C581 1.517 . S
C1713 C661 1.806 . S
C1715 C941 1.808 . S
C1731 C701 1.808 . S
C1733 C821 1.806 . S
C1749 C861 1.808 . S
C1751 C741 1.806 . S
C1767 C781 1.808 . S
C1769 C901 1.806 . S
C1785 C1261 1.735 . S
C1787 C981 1.747 . S
C1803 C1021 1.735 . S
C1805 C1141 1.747 . S
C1821 C1061 1.747 . S
C1823 C1181 1.735 . S
C1839 C1101 1.735 . S
C1841 C1221 1.747 . S
C1857 C2 1.502 . S
C1859 C482 1.485 . S
C1875 C42 1.649 . S
C1877 C1162 1.611 . S
C1893 C82 1.502 . S
C1895 C562 1.485 . S
C1911 C122 1.649 . S
C1913 C1242 1.611 . S
C1929 C322 1.485 . S
C1931 C162 1.502 . S
C1947 C202 1.649 . S
C1949 C1002 1.611 . S
C1965 C242 1.502 . S
C1967 C402 1.485 . S
C1983 C1082 1.611 . S
C1985 C282 1.649 . S
C2001 C362 1.628 . S
C2003 C842 1.644 . S
C2019 C922 1.644 . S
C2021 C442 1.628 . S
C2037 C682 1.644 . S
C2039 C522 1.628 . S
C2055 C602 1.628 . S
C2057 C762 1.644 . S
C2073 C642 1.682 . S
C2075 C1122 1.656 . S
C2091 C1202 1.656 . S
C2093 C722 1.682 . S
C2109 C962 1.656 . S
C2111 C802 1.682 . S
C2127 C882 1.682 . S
C2129 C1042 1.656 . S
