# Generated by pormake.
# Topology unf, (4)-cn, num edge types: 1
# Building blocks:
#     Node 0, Type 0, BuildingBlock: GALJAG_clean_sbu_0, # of connection points: 4
#     Node 1, Type 0, BuildingBlock: GALJAG_clean_sbu_0, # of connection points: 4
#     Node 2, Type 0, BuildingBlock: GALJAG_clean_sbu_0, # of connection points: 4
#     Node 3, Type 0, BuildingBlock: GALJAG_clean_sbu_0, # of connection points: 4
#     Node 4, Type 0, BuildingBlock: GALJAG_clean_sbu_0, # of connection points: 4
#     Node 5, Type 0, BuildingBlock: GALJAG_clean_sbu_0, # of connection points: 4
#     Node 6, Type 0, BuildingBlock: GALJAG_clean_sbu_0, # of connection points: 4
#     Node 7, Type 0, BuildingBlock: GALJAG_clean_sbu_0, # of connection points: 4
#     Node 8, Type 0, BuildingBlock: GALJAG_clean_sbu_0, # of connection points: 4
#     Node 9, Type 0, BuildingBlock: GALJAG_clean_sbu_0, # of connection points: 4
#     Node 10, Type 0, BuildingBlock: GALJAG_clean_sbu_0, # of connection points: 4
#     Node 11, Type 0, BuildingBlock: GALJAG_clean_sbu_0, # of connection points: 4
#     Edge 12, Type (0, 0), BuildingBlock: XIVTED_clean_linker_0, # of connection points: 2
#     Edge 13, Type (0, 0), BuildingBlock: XIVTED_clean_linker_0, # of connection points: 2
#     Edge 14, Type (0, 0), BuildingBlock: XIVTED_clean_linker_0, # of connection points: 2
#     Edge 15, Type (0, 0), BuildingBlock: XIVTED_clean_linker_0, # of connection points: 2
#     Edge 16, Type (0, 0), BuildingBlock: XIVTED_clean_linker_0, # of connection points: 2
#     Edge 17, Type (0, 0), BuildingBlock: XIVTED_clean_linker_0, # of connection points: 2
#     Edge 18, Type (0, 0), BuildingBlock: XIVTED_clean_linker_0, # of connection points: 2
#     Edge 19, Type (0, 0), BuildingBlock: XIVTED_clean_linker_0, # of connection points: 2
#     Edge 20, Type (0, 0), BuildingBlock: XIVTED_clean_linker_0, # of connection points: 2
#     Edge 21, Type (0, 0), BuildingBlock: XIVTED_clean_linker_0, # of connection points: 2
#     Edge 22, Type (0, 0), BuildingBlock: XIVTED_clean_linker_0, # of connection points: 2
#     Edge 23, Type (0, 0), BuildingBlock: XIVTED_clean_linker_0, # of connection points: 2
#     Edge 24, Type (0, 0), BuildingBlock: XIVTED_clean_linker_0, # of connection points: 2
#     Edge 25, Type (0, 0), BuildingBlock: XIVTED_clean_linker_0, # of connection points: 2
#     Edge 26, Type (0, 0), BuildingBlock: XIVTED_clean_linker_0, # of connection points: 2
#     Edge 27, Type (0, 0), BuildingBlock: XIVTED_clean_linker_0, # of connection points: 2
#     Edge 28, Type (0, 0), BuildingBlock: XIVTED_clean_linker_0, # of connection points: 2
#     Edge 29, Type (0, 0), BuildingBlock: XIVTED_clean_linker_0, # of connection points: 2
#     Edge 30, Type (0, 0), BuildingBlock: XIVTED_clean_linker_0, # of connection points: 2
#     Edge 31, Type (0, 0), BuildingBlock: XIVTED_clean_linker_0, # of connection points: 2
#     Edge 32, Type (0, 0), BuildingBlock: XIVTED_clean_linker_0, # of connection points: 2
#     Edge 33, Type (0, 0), BuildingBlock: XIVTED_clean_linker_0, # of connection points: 2
#     Edge 34, Type (0, 0), BuildingBlock: XIVTED_clean_linker_0, # of connection points: 2
#     Edge 35, Type (0, 0), BuildingBlock: XIVTED_clean_linker_0, # of connection points: 2
# Relax obj value: 0.104
# Max RMSD: 0.121
# Mean RMSD: 0.121
data_MOF--net-unf--node1-GALJAG_clean_sbu_0--edge1-XIVTED_clean_linker_0
_symmetry_space_group_name_H-M    P1
_symmetry_Int_Tables_number       1
_symmetry_cell_setting            triclinic
loop_
_symmetry_equiv_pos_as_xyz
'x, y, z'
_cell_length_a     39.98522
_cell_length_b     40.076655
_cell_length_c     35.153429
_cell_angle_alpha  89.853106
_cell_angle_beta   90.259069
_cell_angle_gamma 119.92517
loop_
_atom_site_label
_atom_site_type_symbol
_atom_site_fract_x
_atom_site_fract_y
_atom_site_fract_z
_atom_type_partial_charge
In0 In 0.06234 0.34184 0.06916 0.0
O1 O 0.07329 0.31571 0.12197 0.0
O2 O 0.10486 0.37646 0.11718 0.0
C3 C 0.99084 0.28016 0.07072 0.0
C4 C 0.11036 0.33959 0.01711 0.0
C5 C 0.04302 0.39333 0.04296 0.0
O6 O -0.00126 0.31195 0.08547 0.0
O7 O 0.01924 0.27924 0.05638 0.0
O8 O 0.05337 0.37503 0.02149 0.0
O9 O 0.04375 0.38679 0.07802 0.0
C10 C 0.09825 0.34716 0.13632 0.0
O11 O 0.11991 0.36876 0.03774 0.0
O12 O 0.07682 0.31184 0.02284 0.0
In13 In 0.62613 0.7117 0.05095 0.0
O14 O 0.63054 0.72021 0.11562 0.0
O15 O 0.60114 0.74301 0.08442 0.0
C16 C 0.68765 0.70138 0.0554 0.0
C17 C 0.6368 0.76331 0.9966 0.0
C18 C 0.57239 0.64214 0.02517 0.0
O19 O 0.65413 0.67573 0.06466 0.0
O20 O 0.69055 0.733 0.04549 0.0
O21 O 0.6001 0.66615 0.00521 0.0
O22 O 0.5706 0.6538 0.05804 0.0
C23 C 0.61271 0.73867 0.11637 0.0
O24 O 0.60394 0.73508 0.00419 0.0
O25 O 0.6642 0.76546 0.01649 0.0
In26 In 0.28965 0.92926 0.09447 0.0
O27 O 0.25988 0.88013 0.05144 0.0
O28 O 0.2251 0.89538 0.08449 0.0
C29 C 0.35614 0.94595 0.05986 0.0
C30 C 0.2781 0.90081 0.16582 0.0
C31 C 0.29382 -0.00171 0.08856 0.0
O32 O 0.32754 0.94369 0.0423 0.0
O33 O 0.35087 0.93847 0.09498 0.0
O34 O 0.31869 -0.00623 0.10644 0.0
O35 O 0.26656 0.96792 0.0745 0.0
C36 C 0.22642 0.87384 0.05918 0.0
O37 O 0.28078 0.93272 0.15779 0.0
O38 O 0.28299 0.88385 0.13804 0.0
In39 In 0.63584 0.91981 0.4176 0.0
O40 O 0.61447 0.87265 0.46263 0.0
O41 O 0.67401 0.90106 0.44779 0.0
C42 C 0.58599 0.93907 0.44803 0.0
C43 C 0.61835 0.87949 0.35166 0.0
C44 C 0.6993 0.98972 0.41064 0.0
O45 O 0.61539 0.94308 0.46537 0.0
O46 O 0.58079 0.92406 0.41545 0.0
O47 O 0.66668 0.98233 0.39817 0.0
O48 O 0.70019 0.96145 0.42545 0.0
C49 C 0.64717 0.87571 0.46782 0.0
O50 O 0.63894 0.91558 0.35281 0.0
O51 O 0.60598 0.86383 0.38346 0.0
In52 In 0.06839 0.721 0.44505 0.0
O53 O 0.09937 0.77186 0.4051 0.0
O54 O 0.11279 0.72699 0.40055 0.0
C55 C -2e-05 0.71188 0.42217 0.0
C56 C 0.10922 0.76194 0.5058 0.0
C57 C 0.04036 0.64787 0.4678 0.0
O58 O 0.01418 0.69269 0.4084 0.0
O59 O 0.02115 0.737 0.44622 0.0
O60 O 0.03867 0.67289 0.48811 0.0
O61 O 0.05774 0.66015 0.43652 0.0
C62 C 0.11915 0.75949 0.38903 0.0
O63 O 0.11834 0.74095 0.48687 0.0
O64 O 0.0791 0.76168 0.49446 0.0
In65 In 0.27268 0.34577 0.43956 0.0
O66 O 0.23049 0.31692 0.39071 0.0
O67 O 0.26689 0.37749 0.38766 0.0
C68 C 0.27687 0.28079 0.43855 0.0
C69 C 0.22539 0.35318 0.48891 0.0
C70 C 0.34578 0.39532 0.46175 0.0
O71 O 0.25147 0.28375 0.45698 0.0
O72 O 0.29973 0.3104 0.41991 0.0
O73 O 0.31905 0.37591 0.48498 0.0
O74 O 0.3354 0.39075 0.42731 0.0
C75 C 0.24009 0.34747 0.37249 0.0
O76 O 0.24536 0.37887 0.46487 0.0
O77 O 0.23003 0.32429 0.48861 0.0
In78 In 0.91666 0.60479 0.91807 0.0
O79 O 0.86551 0.59015 0.95718 0.0
O80 O 0.89653 0.64652 0.93348 0.0
C81 C 0.93007 0.54712 0.93588 0.0
C82 C 0.88462 0.59489 0.84826 0.0
C83 C 0.98511 0.66234 0.94239 0.0
O84 O 0.9077 0.55423 0.955 0.0
O85 O 0.94401 0.56779 0.90666 0.0
O86 O 0.97922 0.65271 0.9077 0.0
O87 O 0.95684 0.64296 0.96398 0.0
C88 C 0.8695 0.62344 0.95477 0.0
O89 O 0.91597 0.62447 0.85734 0.0
O90 O 0.87027 0.56952 0.87388 0.0
In91 In 0.37517 0.29837 0.91362 0.0
O92 O 0.37965 0.29024 0.8497 0.0
O93 O 0.40854 0.27178 0.88755 0.0
C94 C 0.31448 0.3089 0.90064 0.0
C95 C 0.35392 0.24335 0.96711 0.0
C96 C 0.42666 0.36737 0.94216 0.0
O97 O 0.34878 0.33627 0.90189 0.0
O98 O 0.31087 0.27593 0.904 0.0
O99 O 0.39886 0.34224 0.96137 0.0
O100 O 0.4294 0.35707 0.90893 0.0
C101 C 0.40012 0.27465 0.85365 0.0
O102 O 0.38774 0.27182 0.96544 0.0
O103 O 0.33103 0.24299 0.94212 0.0
In104 In 0.68236 0.07139 0.90336 0.0
O105 O 0.68584 0.08363 0.83926 0.0
O106 O 0.70981 0.13126 0.87673 0.0
C107 C 0.6738 0.00186 0.88704 0.0
C108 C 0.73969 0.10454 0.95491 0.0
C109 C 0.61578 0.05351 0.93864 0.0
O110 O 0.70642 0.03192 0.88948 0.0
O111 O 0.64552 0.00722 0.89113 0.0
O112 O 0.64328 0.05227 0.9549 0.0
O113 O 0.6221 0.06481 0.90449 0.0
C114 C 0.70381 0.11971 0.84285 0.0
O115 O 0.71432 0.1143 0.95109 0.0
O116 O 0.73599 0.07814 0.93283 0.0
In117 In 0.37752 0.06512 0.58368 0.0
O118 O 0.3847 0.10378 0.5329 0.0
O119 O 0.32876 0.07061 0.55675 0.0
C120 C 0.42763 0.04852 0.54972 0.0
C121 C 0.40583 0.11646 0.6415 0.0
C122 C 0.31915 -0.00445 0.60481 0.0
O123 O 0.39684 0.04289 0.53395 0.0
O124 O 0.43376 0.06361 0.58237 0.0
O125 O 0.35256 0.00153 0.59773 0.0
O126 O 0.3155 0.02498 0.60251 0.0
C127 C 0.34967 0.095 0.53215 0.0
O128 O 0.39012 0.08068 0.64685 0.0
O129 O 0.40837 0.12624 0.60716 0.0
In130 In 0.90348 0.30383 0.56221 0.0
O131 O 0.86533 0.27096 0.51163 0.0
O132 O 0.90088 0.25084 0.53569 0.0
C133 C 0.90894 0.37085 0.54108 0.0
C134 C 0.85475 0.27544 0.62185 0.0
C135 C 0.9787 0.32482 0.56983 0.0
O136 O 0.90626 0.34597 0.51744 0.0
O137 O 0.907 0.36109 0.57556 0.0
O138 O 0.95237 0.29559 0.58647 0.0
O139 O 0.96702 0.34319 0.55002 0.0
C140 C 0.87601 0.24618 0.51092 0.0
O141 O 0.89069 0.29687 0.62607 0.0
O142 O 0.84349 0.26909 0.58777 0.0
In143 In 0.69322 0.60759 0.56451 0.0
O144 O 0.73152 0.63132 0.61688 0.0
O145 O 0.70724 0.57169 0.60631 0.0
C146 C 0.68406 0.66936 0.57339 0.0
C147 C 0.7408 0.61972 0.50541 0.0
C148 C 0.62159 0.5517 0.54517 0.0
O149 O 0.71603 0.67195 0.56575 0.0
O150 O 0.65662 0.63541 0.57803 0.0
O151 O 0.64796 0.56948 0.52109 0.0
O152 O 0.6317 0.56115 0.57936 0.0
C153 C 0.72905 0.60005 0.62697 0.0
O154 O 0.73084 0.59193 0.52817 0.0
O155 O 0.72576 0.64024 0.51182 0.0
H156 H 0.09753 0.27782 0.97391 0.0
H157 H 0.31602 0.37767 0.90414 0.0
H158 H 0.1833 0.39573 -0.0021 0.0
H159 H 0.23776 0.25495 0.90303 0.0
H160 H 0.26277 0.38742 0.92294 0.0
H161 H 0.14403 0.27205 0.9336 0.0
C162 C 0.12604 0.30263 0.97036 0.0
C163 C 0.13685 0.33714 0.98971 0.0
C164 C 0.25712 0.3584 0.91793 0.0
C165 C 0.19004 0.33074 0.94361 0.0
C166 C 0.28743 0.35281 0.90697 0.0
C167 C 0.28135 0.31539 0.90268 0.0
C168 C 0.22056 0.32635 0.9246 0.0
C169 C 0.24374 0.28426 0.90651 0.0
C170 C 0.15252 0.29931 0.94734 0.0
C171 C 0.17399 0.36846 0.98384 0.0
N172 N 0.21481 0.2904 0.91781 0.0
N173 N 0.19941 0.36441 0.96156 0.0
H174 H 0.5817 0.76881 0.9552 0.0
H175 H 0.73046 0.98268 0.88893 0.0
H176 H 0.70469 0.82544 0.97421 0.0
H177 H 0.60669 0.93274 0.88583 0.0
H178 H 0.72198 0.91946 0.90442 0.0
H179 H 0.59109 0.82281 0.91519 0.0
C180 C 0.61073 0.79238 0.95054 0.0
C181 C 0.64242 0.79306 0.96856 0.0
C182 C 0.69667 0.92218 0.89966 0.0
C183 C 0.65335 0.85481 0.92294 0.0
C184 C 0.70149 0.95822 0.89061 0.0
C185 C 0.66921 0.96302 0.88684 0.0
C186 C 0.65932 0.89086 0.90508 0.0
C187 C 0.63236 0.93035 0.88906 0.0
C188 C 0.61607 0.82317 0.9277 0.0
C189 C 0.67942 0.82408 0.96128 0.0
N190 N 0.6284 0.89573 0.89867 0.0
N191 N 0.68383 0.85395 0.93937 0.0
H192 H 0.15215 0.84827 0.07975 0.0
H193 H 0.05563 0.70167 0.90682 0.0
H194 H 0.22079 0.83061 0.99646 0.0
H195 H -0.00259 0.69529 0.01198 0.0
H196 H 0.11569 0.75426 0.93405 0.0
H197 H 0.09388 0.79761 0.04971 0.0
C198 C 0.15493 0.83374 0.05504 0.0
C199 C 0.19129 0.84348 0.04062 0.0
C200 C 0.08968 0.74119 0.95103 0.0
C201 C 0.12466 0.78554 0.00597 0.0
C202 C 0.0555 0.71139 0.93551 0.0
C203 C 0.02163 0.69416 0.95725 0.0
C204 C 0.08955 0.75399 0.98818 0.0
C205 C 0.0229 0.70767 0.99428 0.0
C206 C 0.12166 0.80475 0.03797 0.0
C207 C 0.19322 0.82374 0.00853 0.0
N208 N 0.05622 0.73684 0.00848 0.0
N209 N 0.16026 0.79566 0.99212 0.0
H210 H 0.61609 0.67035 0.57577 0.0
H211 H 0.71559 0.88182 0.48917 0.0
H212 H 0.73917 0.74462 0.56496 0.0
H213 H 0.59259 0.81112 0.50447 0.0
H214 H 0.72501 0.83529 0.52562 0.0
H215 H 0.60702 0.72469 0.5592 0.0
C216 C 0.64123 0.69829 0.57069 0.0
C217 C 0.6784 0.70294 0.57117 0.0
C218 C 0.69595 0.83007 0.52142 0.0
C219 C 0.66828 0.76494 0.55177 0.0
C220 C 0.69057 0.85662 0.50054 0.0
C221 C 0.65324 0.85 0.4934 0.0
C222 C 0.66372 0.79638 0.53489 0.0
C223 C 0.62186 0.81712 0.50911 0.0
C224 C 0.63605 0.72926 0.56109 0.0
C225 C 0.70998 0.7397 0.56444 0.0
N226 N 0.62777 0.79122 0.52872 0.0
N227 N 0.70416 0.76915 0.55452 0.0
H228 H 0.09846 0.81355 0.54697 0.0
H229 H 0.31931 0.9275 0.60588 0.0
H230 H 0.17746 0.77071 0.53238 0.0
H231 H 0.24305 0.97449 0.61135 0.0
H232 H 0.26351 0.86354 0.59603 0.0
H233 H 0.14636 0.86542 0.5868 0.0
C234 C 0.12562 0.81465 0.55275 0.0
C235 C 0.13441 0.78837 0.5357 0.0
C236 C 0.25887 0.88769 0.60014 0.0
C237 C 0.1894 0.84773 0.58089 0.0
C238 C 0.29073 0.92421 0.60589 0.0
C239 C 0.28578 0.95639 0.60854 0.0
C240 C 0.22195 0.8835 0.5967 0.0
C241 C 0.24814 0.95047 0.6088 0.0
C242 C 0.15297 0.84428 0.57547 0.0
C243 C 0.1698 0.7908 0.54447 0.0
N244 N 0.21766 0.9148 0.60216 0.0
N245 N 0.19629 0.82041 0.56596 0.0
H246 H 0.04014 0.39098 0.54415 0.0
H247 H 0.17676 0.2998 0.5402 0.0
H248 H 0.01001 0.28152 0.59512 0.0
H249 H 0.20597 0.40957 0.4905 0.0
H250 H 0.12081 0.29768 0.57049 0.0
H251 H 0.10568 0.40336 0.53454 0.0
C252 C 0.04752 0.36976 0.5538 0.0
C253 C 0.01953 0.33491 0.56991 0.0
C254 C 0.13977 0.3225 0.55343 0.0
C255 C 0.09441 0.34864 0.55855 0.0
C256 C 0.17174 0.32375 0.53617 0.0
C257 C 0.19564 0.35463 0.51234 0.0
C258 C 0.13158 0.35224 0.54658 0.0
C259 C 0.18801 0.38501 0.50832 0.0
C260 C 0.08497 0.37683 0.5483 0.0
C261 C 0.03071 0.30862 0.5823 0.0
N262 N 0.15634 0.3828 0.52484 0.0
N263 N 0.0672 0.31575 0.5758 0.0
H264 H 0.76106 0.75004 0.03096 0.0
H265 H 0.80694 0.57925 7e-05 0.0
H266 H 0.68583 0.63329 0.0683 0.0
H267 H 0.87718 0.69474 0.95707 0.0
H268 H 0.76631 0.60002 0.0326 0.0
H269 H 0.80884 0.73222 0.01237 0.0
C270 C 0.7549 0.72081 0.03585 0.0
C271 C 0.71933 0.69299 0.05077 0.0
C272 C 0.79076 0.62083 0.01622 0.0
C273 C 0.77348 0.67219 0.02901 0.0
C274 C 0.81385 0.60896 -0.0024 0.0
C275 C 0.84515 0.63522 0.97555 0.0
C276 C 0.79917 0.65921 0.01272 0.0
C277 C 0.85307 0.67344 0.97348 0.0
C278 C 0.78208 0.71057 0.02505 0.0
C279 C 0.71284 0.65556 0.05661 0.0
N280 N 0.83013 0.68423 0.99166 0.0
N281 N 0.73948 0.64611 0.04528 0.0
H282 H 0.39899 0.23429 0.02033 0.0
H283 H 0.24193 0.01438 0.05496 0.0
H284 H 0.28318 0.17933 0.97485 0.0
H285 H 0.35619 0.0689 0.1041 0.0
H286 H 0.25359 0.07718 0.03341 0.0
H287 H 0.38128 0.17688 0.05882 0.0
C288 C 0.36972 0.21032 0.01883 0.0
C289 C 0.34264 0.21127 0.99403 0.0
C290 C 0.27598 0.07556 0.04933 0.0
C291 C 0.32226 0.1456 0.03767 0.0
C292 C 0.2693 0.03969 0.06167 0.0
C293 C 0.29835 0.03646 0.08087 0.0
C294 C 0.31214 0.10837 0.05587 0.0
C295 C 0.33315 0.07016 0.0891 0.0
C296 C 0.35962 0.17758 0.04078 0.0
C297 C 0.30507 0.1796 0.99331 0.0
N298 N 0.33931 0.10472 0.07606 0.0
N299 N 0.29611 0.14789 0.01448 0.0
H300 H 0.92391 0.27956 0.08786 0.0
H301 H 0.79715 0.088 0.9677 0.0
H302 H 0.96715 0.20878 0.04158 0.0
H303 H 0.75717 0.16544 0.00196 0.0
H304 H 0.85535 0.12504 0.00586 0.0
H305 H 0.85869 0.23104 0.06832 0.0
C306 C 0.91955 0.25346 0.07425 0.0
C307 C 0.95096 0.24835 0.06579 0.0
C308 C 0.83369 0.13373 0.00538 0.0
C309 C 0.8767 0.19307 0.04309 0.0
C310 C 0.80046 0.1126 0.98359 0.0
C311 C 0.77263 0.12407 0.98126 0.0
C312 C 0.83921 0.16668 0.02483 0.0
C313 C 0.77817 0.1559 0.0027 0.0
C314 C 0.88237 0.22587 0.06296 0.0
C315 C 0.94375 0.21401 0.04823 0.0
N316 N 0.81108 0.1764 0.02329 0.0
N317 N 0.90742 0.18787 0.03704 0.0
H318 H 0.38945 0.15099 0.47907 0.0
H319 H 0.22894 0.2123 0.47315 0.0
H320 H 0.27697 0.08479 0.53006 0.0
H321 H 0.3364 0.27241 0.41199 0.0
H322 H 0.24246 0.16045 0.48684 0.0
H323 H 0.36739 0.1907 0.44679 0.0
C324 C 0.35992 0.14444 0.48297 0.0
C325 C 0.33515 0.11497 0.50768 0.0
C326 C 0.26287 0.18469 0.46996 0.0
C327 C 0.30987 0.16044 0.47128 0.0
C328 C 0.25514 0.2143 0.46215 0.0
C329 C 0.28186 0.24687 0.44187 0.0
C330 C 0.29781 0.18793 0.4578 0.0
C331 C 0.31519 0.2479 0.42801 0.0
C332 C 0.34734 0.16712 0.46458 0.0
C333 C 0.29714 0.10753 0.51156 0.0
N334 N 0.32252 0.21911 0.43673 0.0
N335 N 0.28582 0.13048 0.494 0.0
H336 H 0.8921 0.1876 0.50673 0.0
H337 H 0.70266 0.05577 0.38518 0.0
H338 H 0.81881 0.22733 0.45825 0.0
H339 H 0.7705 0.01381 0.44174 0.0
H340 H 0.75258 0.12165 0.40005 0.0
H341 H 0.85557 0.12714 0.47195 0.0
C342 C 0.86865 0.1838 0.48832 0.0
C343 C 0.85803 0.21222 0.48579 0.0
C344 C 0.75685 0.09808 0.40871 0.0
C345 C 0.81599 0.14308 0.44615 0.0
C346 C 0.72842 0.06047 0.40012 0.0
C347 C 0.73223 0.02932 0.4128 0.0
C348 C 0.78917 0.1045 0.4303 0.0
C349 C 0.76625 0.03703 0.4318 0.0
C350 C 0.84779 0.14927 0.4685 0.0
C351 C 0.82765 0.20596 0.46132 0.0
N352 N 0.79319 0.07385 0.44047 0.0
N353 N 0.80736 0.17183 0.44279 0.0
H354 H 0.94201 0.64369 0.39509 0.0
H355 H 0.77959 0.68788 0.46751 0.0
H356 H 0.96519 0.75409 0.43779 0.0
H357 H 0.77336 0.57778 0.48031 0.0
H358 H 0.8398 0.71143 0.43216 0.0
H359 H 0.87273 0.61973 0.40168 0.0
C360 C 0.93249 0.66325 0.4047 0.0
C361 C 0.95923 0.70073 0.41654 0.0
C362 C 0.82471 0.68187 0.44197 0.0
C363 C 0.88046 0.67358 0.42389 0.0
C364 C 0.79035 0.66834 0.46204 0.0
C365 C 0.77194 0.63104 0.47741 0.0
C366 C 0.84035 0.65774 0.43688 0.0
C367 C 0.78703 0.60691 0.46937 0.0
C368 C 0.89304 0.64947 0.40863 0.0
C369 C 0.94542 0.72484 0.42885 0.0
N370 N 0.8207 0.62083 0.44995 0.0
N371 N 0.90688 0.71071 0.43264 0.0
H372 H 0.18203 0.28602 0.33579 0.0
H373 H 0.15635 0.4109 0.17183 0.0
H374 H 0.25247 0.40968 0.32905 0.0
H375 H 0.0876 0.28729 0.18127 0.0
H376 H 0.19182 0.41193 0.2294 0.0
H377 H 0.14741 0.28664 0.27886 0.0
C378 C 0.19031 0.31334 0.3222 0.0
C379 C 0.2202 0.34785 0.33713 0.0
C380 C 0.16891 0.38462 0.21888 0.0
C381 C 0.18047 0.34885 0.27184 0.0
C382 C 0.14862 0.38404 0.18611 0.0
C383 C 0.11901 0.34895 0.1718 0.0
C384 C 0.15945 0.34986 0.23733 0.0
C385 C 0.11022 0.31499 0.1913 0.0
C386 C 0.17047 0.3137 0.28969 0.0
C387 C 0.22964 0.38241 0.31839 0.0
N388 N 0.13036 0.3163 0.22297 0.0
N389 N 0.20979 0.38205 0.28668 0.0
H390 H 0.61916 0.72035 0.18989 0.0
H391 H 0.62811 0.90543 0.27835 0.0
H392 H 0.59589 0.79653 0.12227 0.0
H393 H 0.59409 0.80298 0.34508 0.0
H394 H 0.62172 0.86858 0.22052 0.0
H395 H 0.6154 0.75264 0.24753 0.0
C396 C 0.61304 0.74372 0.18725 0.0
C397 C 0.60789 0.75591 0.1514 0.0
C398 C 0.61529 0.85414 0.24782 0.0
C399 C 0.60418 0.79319 0.21683 0.0
C400 C 0.61903 0.87513 0.28075 0.0
C401 C 0.61167 0.85717 0.31642 0.0
C402 C 0.60497 0.81522 0.25079 0.0
C403 C 0.59995 0.81785 0.31806 0.0
C404 C 0.61077 0.762 0.22006 0.0
C405 C 0.59995 0.78625 0.14944 0.0
N406 N 0.59745 0.79826 0.2857 0.0
N407 N 0.59883 0.80423 0.18172 0.0
H408 H 0.26138 0.82853 0.18816 0.0
H409 H 0.14566 0.83413 0.36926 0.0
H410 H 0.26289 0.93093 0.22835 0.0
H411 H 0.15807 0.73593 0.3421 0.0
H412 H 0.19158 0.87073 0.31933 0.0
H413 H 0.22778 0.79505 0.24635 0.0
C414 C 0.25528 0.84416 0.20954 0.0
C415 C 0.26452 0.88242 0.20329 0.0
C416 C 0.18453 0.84126 0.32435 0.0
C417 C 0.22569 0.84424 0.26945 0.0
C418 C 0.15813 0.82028 0.35274 0.0
C419 C 0.1478 0.78185 0.35952 0.0
C420 C 0.20046 0.8236 0.30216 0.0
C421 C 0.16514 0.76547 0.33758 0.0
C422 C 0.23599 0.82501 0.24267 0.0
C423 C 0.25599 0.90133 0.23188 0.0
N424 N 0.1904 0.78634 0.30956 0.0
N425 N 0.23664 0.88191 0.26347 0.0
H426 H 0.81845 0.53329 0.82042 0.0
H427 H 0.78786 0.6598 0.66454 0.0
H428 H 0.90356 0.65097 0.79491 0.0
H429 H 0.72318 0.53565 0.66157 0.0
H430 H 0.82759 0.65686 0.71575 0.0
H431 H 0.7809 0.53282 0.76479 0.0
C432 C 0.82946 0.55885 0.80285 0.0
C433 C 0.8641 0.59228 0.81234 0.0
C434 C 0.80478 0.63021 0.7039 0.0
C435 C 0.82107 0.59212 0.74929 0.0
C436 C 0.78189 0.63186 0.67482 0.0
C437 C 0.75208 0.5979 0.65889 0.0
C438 C 0.79761 0.59432 0.71762 0.0
C439 C 0.74586 0.5625 0.67316 0.0
C440 C 0.80801 0.55855 0.77119 0.0
C441 C 0.87701 0.62459 0.78867 0.0
N442 N 0.76831 0.5616 0.70196 0.0
N443 N 0.85529 0.62383 0.75852 0.0
H444 H 0.3948 0.28551 0.77754 0.0
H445 H 0.41047 0.10459 0.71753 0.0
H446 H 0.42834 0.22528 0.85716 0.0
H447 H 0.42299 0.19122 0.63663 0.0
H448 H 0.41764 0.14839 0.7694 0.0
H449 H 0.40525 0.25156 0.72523 0.0
C450 C 0.40477 0.26546 0.78394 0.0
C451 C 0.41045 0.25792 0.82164 0.0
C452 C 0.41943 0.15801 0.74028 0.0
C453 C 0.42192 0.21871 0.76222 0.0
C454 C 0.4153 0.13303 0.71073 0.0
C455 C 0.41585 0.14424 0.67284 0.0
C456 C 0.42336 0.19407 0.73177 0.0
C457 C 0.42227 0.18142 0.6655 0.0
C458 C 0.41085 0.24619 0.75412 0.0
C459 C 0.42352 0.2318 0.82844 0.0
N460 N 0.42514 0.20481 0.69473 0.0
N461 N 0.42827 0.21267 0.79903 0.0
H462 H 0.75593 0.19662 0.84475 0.0
H463 H 0.77989 0.21729 0.61892 0.0
H464 H 0.68973 0.10302 0.76702 0.0
H465 H 0.86946 0.29081 0.69781 0.0
H466 H 0.73842 0.18217 0.67269 0.0
H467 H 0.78931 0.23837 0.79056 0.0
C468 C 0.74801 0.18501 0.81624 0.0
C469 C 0.72027 0.14623 0.8103 0.0
C470 C 0.76702 0.20621 0.67818 0.0
C471 C 0.75828 0.19378 0.74838 0.0
C472 C 0.79065 0.22634 0.64757 0.0
C473 C 0.82826 0.25677 0.65401 0.0
C474 C 0.78098 0.21688 0.71544 0.0
C475 C 0.84074 0.26731 0.69166 0.0
C476 C 0.76719 0.2088 0.7854 0.0
C477 C 0.71114 0.13269 0.77281 0.0
N478 N 0.81717 0.2473 0.72102 0.0
N479 N 0.73023 0.15642 0.74321 0.0
H480 H 0.00659 0.42505 0.08185 0.0
H481 H 0.97492 0.52429 0.89829 0.0
H482 H 0.04394 0.41562 0.9694 0.0
H483 H 0.91567 0.51047 0.00451 0.0
H484 H 0.00276 0.48681 0.92425 0.0
H485 H 0.97672 0.46036 0.05492 0.0
C486 C 0.0088 0.43074 0.05155 0.0
C487 C 0.02779 0.41749 0.0278 0.0
C488 C 0.98341 0.49169 0.94177 0.0
C489 C -0.00652 0.45748 0.99679 0.0
C490 C 0.96741 0.51296 0.92692 0.0
C491 C 0.94297 0.52046 0.9493 0.0
C492 C 0.97524 0.47824 0.97942 0.0
C493 C 0.9343 0.50524 0.98625 0.0
C494 C 0.9915 0.4506 0.03616 0.0
C495 C 0.02958 0.42537 0.98872 0.0
N496 N 0.95069 0.48511 0.00029 0.0
N497 N 0.01266 0.44489 0.97443 0.0
H498 H 0.51567 0.58189 0.06526 0.0
H499 H 0.48496 0.42786 0.9044 0.0
H500 H 0.57344 0.61127 0.95669 0.0
H501 H 0.42219 0.39757 0.01022 0.0
H502 H 0.51916 0.49519 0.92428 0.0
H503 H 0.48075 0.51415 0.04594 0.0
C504 C 0.52062 0.57412 0.03721 0.0
C505 C 0.54746 0.60212 0.01254 0.0
C506 C 0.49803 0.47382 0.94326 0.0
C507 C 0.50827 0.52492 0.99054 0.0
C508 C 0.4787 0.43536 0.93201 0.0
C509 C 0.45073 0.40719 0.9557 0.0
C510 C 0.48926 0.48416 0.97843 0.0
C511 C 0.44361 0.41845 0.99112 0.0
C512 C 0.50091 0.53548 0.02629 0.0
C513 C 0.553 0.59057 0.97661 0.0
N514 N 0.46266 0.45614 0.00137 0.0
N515 N 0.53373 0.55283 0.96677 0.0
H516 H 0.37438 0.96682 0.98566 0.0
H517 H 0.59683 0.029 0.01185 0.0
H518 H 0.42337 0.95653 0.09167 0.0
H519 H 0.54928 0.04596 0.90797 0.0
H520 H 0.53339 0.00167 0.04137 0.0
H521 H 0.43781 -0.00606 0.95615 0.0
C522 C 0.39847 0.97001 0.00266 0.0
C523 C 0.39367 0.95943 0.04118 0.0
C524 C 0.53682 0.01149 0.01218 0.0
C525 C 0.46641 0.99077 0.00767 0.0
C526 C 0.57305 0.0272 0.99533 0.0
C527 C 0.57826 0.03975 0.95741 0.0
C528 C 0.5055 0.00816 0.99091 0.0
C529 C 0.54649 0.03669 0.93731 0.0
C530 C 0.43471 0.98566 0.98583 0.0
C531 C 0.42584 0.96429 0.06188 0.0
N532 N 0.51138 0.02106 0.95428 0.0
N533 N 0.46091 0.9797 0.04487 0.0
H534 H 0.59383 0.97396 0.51645 0.0
H535 H 0.41881 0.01349 0.48096 0.0
H536 H 0.52335 0.93819 0.41497 0.0
H537 H 0.49242 0.05233 0.58023 0.0
H538 H 0.45697 0.9863 0.45582 0.0
H539 H 0.55637 0.00222 0.54041 0.0
C540 C 0.57026 0.97183 0.49931 0.0
C541 C 0.56161 0.95368 0.46369 0.0
C542 C 0.4649 0.00092 0.48301 0.0
C543 C 0.51879 0.98628 0.49081 0.0
C544 C 0.44323 0.01657 0.49731 0.0
C545 C 0.45249 0.03513 0.53275 0.0
C546 C 0.49598 0.00377 0.50437 0.0
C547 C 0.48431 0.03825 0.55278 0.0
C548 C 0.54898 0.98813 0.51294 0.0
C549 C 0.53088 0.95187 0.44263 0.0
N550 N 0.50483 0.02258 0.53837 0.0
N551 N 0.51058 0.96805 0.45649 0.0
H552 H 0.91864 0.43051 0.58627 0.0
H553 H 0.03051 0.587 0.42468 0.0
H554 H 0.9267 0.40157 0.46978 0.0
H555 H 0.00395 0.61549 0.53459 0.0
H556 H -0.00659 0.51876 0.44131 0.0
H557 H 0.94879 0.49835 0.56806 0.0
C558 C 0.92617 0.43838 0.55675 0.0
C559 C 0.92041 0.41049 0.52953 0.0
C560 C -0.00434 0.53993 0.46179 0.0
C561 C 0.95557 0.48791 0.50867 0.0
C562 C 0.01709 0.57887 0.45242 0.0
C563 C 0.02043 0.60685 0.47839 0.0
C564 C 0.97767 0.52895 0.49747 0.0
C565 C 0.0022 0.59478 0.5138 0.0
C566 C 0.94354 0.4771 0.5464 0.0
C567 C 0.93072 0.4222 0.49169 0.0
N568 N 0.98167 0.5567 0.52236 0.0
N569 N 0.94823 0.4601 0.48246 0.0
H570 H 0.40917 0.43522 0.41669 0.0
H571 H 0.55862 0.5123 0.59113 0.0
H572 H 0.37488 0.40891 0.53413 0.0
H573 H 0.5927 0.53137 0.4732 0.0
H574 H 0.49116 0.4737 0.57106 0.0
H575 H 0.47663 0.47122 0.43705 0.0
C576 C 0.41585 0.43724 0.44679 0.0
C577 C 0.38642 0.41916 0.47378 0.0
C578 C 0.51342 0.48614 0.54957 0.0
C579 C 0.46355 0.46002 0.49731 0.0
C580 C 0.55193 0.50804 0.56102 0.0
C581 C 0.58125 0.5251 0.53378 0.0
C582 C 0.50421 0.48145 0.5106 0.0
C583 C 0.57098 0.51875 0.49516 0.0
C584 C 0.45437 0.45763 0.4584 0.0
C585 C 0.39669 0.42251 0.51238 0.0
N586 N 0.53331 0.49762 0.48473 0.0
N587 N 0.43441 0.44254 0.523 0.0
loop_
_geom_bond_atom_site_label_1
_geom_bond_atom_site_label_2
_geom_bond_distance
_geom_bond_site_symmetry_2
_ccdc_geom_bond_type
In0 O1 2.294 . S
In0 O2 2.326 . S
In0 O6 2.266 . S
In0 O7 2.326 . S
In0 O8 2.266 . S
In0 O9 2.326 . S
In0 O11 2.294 . S
In0 O12 2.326 . S
O1 In0 2.294 . S
O1 C10 1.240 . S
O2 In0 2.326 . S
O2 C10 1.252 . S
C3 O6 1.252 . S
C3 O7 1.260 . S
C4 O11 1.240 . S
C4 O12 1.252 . S
C5 O8 1.252 . S
C5 O9 1.260 . S
O6 In0 2.266 . S
O6 C3 1.252 . S
O7 In0 2.326 . S
O7 C3 1.260 . S
O8 In0 2.266 . S
O8 C5 1.252 . S
O9 In0 2.326 . S
O9 C5 1.260 . S
C10 O1 1.240 . S
C10 O2 1.252 . S
O11 In0 2.294 . S
O11 C4 1.240 . S
O12 In0 2.326 . S
O12 C4 1.252 . S
In13 O14 2.294 . S
In13 O15 2.326 . S
In13 O19 2.266 . S
In13 O20 2.326 . S
In13 O21 2.266 . S
In13 O22 2.326 . S
In13 O24 2.294 . S
In13 O25 2.326 . S
O14 In13 2.294 . S
O14 C23 1.240 . S
O15 In13 2.326 . S
O15 C23 1.252 . S
C16 O19 1.252 . S
C16 O20 1.260 . S
C17 O24 1.240 . S
C17 O25 1.252 . S
C18 O21 1.252 . S
C18 O22 1.260 . S
O19 In13 2.266 . S
O19 C16 1.252 . S
O20 In13 2.326 . S
O20 C16 1.260 . S
O21 In13 2.266 . S
O21 C18 1.252 . S
O22 In13 2.326 . S
O22 C18 1.260 . S
C23 O14 1.240 . S
C23 O15 1.252 . S
O24 In13 2.294 . S
O24 C17 1.240 . S
O25 In13 2.326 . S
O25 C17 1.252 . S
In26 O27 2.294 . S
In26 O28 2.326 . S
In26 O32 2.266 . S
In26 O33 2.326 . S
In26 O34 2.266 . S
In26 O35 2.326 . S
In26 O37 2.294 . S
In26 O38 2.326 . S
O27 In26 2.294 . S
O27 C36 1.240 . S
O28 In26 2.326 . S
O28 C36 1.252 . S
C29 O32 1.252 . S
C29 O33 1.260 . S
C30 O37 1.240 . S
C30 O38 1.252 . S
C31 O34 1.252 . S
C31 O35 1.260 . S
O32 In26 2.266 . S
O32 C29 1.252 . S
O33 In26 2.326 . S
O33 C29 1.260 . S
O34 In26 2.266 . S
O34 C31 1.252 . S
O35 In26 2.326 . S
O35 C31 1.260 . S
C36 O27 1.240 . S
C36 O28 1.252 . S
O37 In26 2.294 . S
O37 C30 1.240 . S
O38 In26 2.326 . S
O38 C30 1.252 . S
In39 O40 2.294 . S
In39 O41 2.326 . S
In39 O45 2.266 . S
In39 O46 2.326 . S
In39 O47 2.266 . S
In39 O48 2.326 . S
In39 O50 2.294 . S
In39 O51 2.326 . S
O40 In39 2.294 . S
O40 C49 1.240 . S
O41 In39 2.326 . S
O41 C49 1.252 . S
C42 O45 1.252 . S
C42 O46 1.260 . S
C43 O50 1.240 . S
C43 O51 1.252 . S
C44 O47 1.252 . S
C44 O48 1.260 . S
O45 In39 2.266 . S
O45 C42 1.252 . S
O46 In39 2.326 . S
O46 C42 1.260 . S
O47 In39 2.266 . S
O47 C44 1.252 . S
O48 In39 2.326 . S
O48 C44 1.260 . S
C49 O40 1.240 . S
C49 O41 1.252 . S
O50 In39 2.294 . S
O50 C43 1.240 . S
O51 In39 2.326 . S
O51 C43 1.252 . S
In52 O53 2.294 . S
In52 O54 2.326 . S
In52 O58 2.266 . S
In52 O59 2.326 . S
In52 O60 2.266 . S
In52 O61 2.326 . S
In52 O63 2.294 . S
In52 O64 2.326 . S
O53 In52 2.294 . S
O53 C62 1.240 . S
O54 In52 2.326 . S
O54 C62 1.252 . S
C55 O58 1.252 . S
C55 O59 1.260 . S
C56 O63 1.240 . S
C56 O64 1.252 . S
C57 O60 1.252 . S
C57 O61 1.260 . S
O58 In52 2.266 . S
O58 C55 1.252 . S
O59 In52 2.326 . S
O59 C55 1.260 . S
O60 In52 2.266 . S
O60 C57 1.252 . S
O61 In52 2.326 . S
O61 C57 1.260 . S
C62 O53 1.240 . S
C62 O54 1.252 . S
O63 In52 2.294 . S
O63 C56 1.240 . S
O64 In52 2.326 . S
O64 C56 1.252 . S
In65 O66 2.294 . S
In65 O67 2.326 . S
In65 O71 2.266 . S
In65 O72 2.326 . S
In65 O73 2.266 . S
In65 O74 2.326 . S
In65 O76 2.294 . S
In65 O77 2.326 . S
O66 In65 2.294 . S
O66 C75 1.240 . S
O67 In65 2.326 . S
O67 C75 1.252 . S
C68 O71 1.252 . S
C68 O72 1.260 . S
C69 O76 1.240 . S
C69 O77 1.252 . S
C70 O73 1.252 . S
C70 O74 1.260 . S
O71 In65 2.266 . S
O71 C68 1.252 . S
O72 In65 2.326 . S
O72 C68 1.260 . S
O73 In65 2.266 . S
O73 C70 1.252 . S
O74 In65 2.326 . S
O74 C70 1.260 . S
C75 O66 1.240 . S
C75 O67 1.252 . S
O76 In65 2.294 . S
O76 C69 1.240 . S
O77 In65 2.326 . S
O77 C69 1.252 . S
In78 O79 2.294 . S
In78 O80 2.326 . S
In78 O84 2.266 . S
In78 O85 2.326 . S
In78 O86 2.266 . S
In78 O87 2.326 . S
In78 O89 2.294 . S
In78 O90 2.326 . S
O79 In78 2.294 . S
O79 C88 1.240 . S
O80 In78 2.326 . S
O80 C88 1.252 . S
C81 O84 1.252 . S
C81 O85 1.260 . S
C82 O89 1.240 . S
C82 O90 1.252 . S
C83 O86 1.252 . S
C83 O87 1.260 . S
O84 In78 2.266 . S
O84 C81 1.252 . S
O85 In78 2.326 . S
O85 C81 1.260 . S
O86 In78 2.266 . S
O86 C83 1.252 . S
O87 In78 2.326 . S
O87 C83 1.260 . S
C88 O79 1.240 . S
C88 O80 1.252 . S
O89 In78 2.294 . S
O89 C82 1.240 . S
O90 In78 2.326 . S
O90 C82 1.252 . S
In91 O92 2.294 . S
In91 O93 2.326 . S
In91 O97 2.266 . S
In91 O98 2.326 . S
In91 O99 2.266 . S
In91 O100 2.326 . S
In91 O102 2.294 . S
In91 O103 2.326 . S
O92 In91 2.294 . S
O92 C101 1.240 . S
O93 In91 2.326 . S
O93 C101 1.252 . S
C94 O97 1.252 . S
C94 O98 1.260 . S
C95 O102 1.240 . S
C95 O103 1.252 . S
C96 O99 1.252 . S
C96 O100 1.260 . S
O97 In91 2.266 . S
O97 C94 1.252 . S
O98 In91 2.326 . S
O98 C94 1.260 . S
O99 In91 2.266 . S
O99 C96 1.252 . S
O100 In91 2.326 . S
O100 C96 1.260 . S
C101 O92 1.240 . S
C101 O93 1.252 . S
O102 In91 2.294 . S
O102 C95 1.240 . S
O103 In91 2.326 . S
O103 C95 1.252 . S
In104 O105 2.294 . S
In104 O106 2.326 . S
In104 O110 2.266 . S
In104 O111 2.326 . S
In104 O112 2.266 . S
In104 O113 2.326 . S
In104 O115 2.294 . S
In104 O116 2.326 . S
O105 In104 2.294 . S
O105 C114 1.240 . S
O106 In104 2.326 . S
O106 C114 1.252 . S
C107 O110 1.252 . S
C107 O111 1.260 . S
C108 O115 1.240 . S
C108 O116 1.252 . S
C109 O112 1.252 . S
C109 O113 1.260 . S
O110 In104 2.266 . S
O110 C107 1.252 . S
O111 In104 2.326 . S
O111 C107 1.260 . S
O112 In104 2.266 . S
O112 C109 1.252 . S
O113 In104 2.326 . S
O113 C109 1.260 . S
C114 O105 1.240 . S
C114 O106 1.252 . S
O115 In104 2.294 . S
O115 C108 1.240 . S
O116 In104 2.326 . S
O116 C108 1.252 . S
In117 O118 2.294 . S
In117 O119 2.326 . S
In117 O123 2.266 . S
In117 O124 2.326 . S
In117 O125 2.266 . S
In117 O126 2.326 . S
In117 O128 2.294 . S
In117 O129 2.326 . S
O118 In117 2.294 . S
O118 C127 1.240 . S
O119 In117 2.326 . S
O119 C127 1.252 . S
C120 O123 1.252 . S
C120 O124 1.260 . S
C121 O128 1.240 . S
C121 O129 1.252 . S
C122 O125 1.252 . S
C122 O126 1.260 . S
O123 In117 2.266 . S
O123 C120 1.252 . S
O124 In117 2.326 . S
O124 C120 1.260 . S
O125 In117 2.266 . S
O125 C122 1.252 . S
O126 In117 2.326 . S
O126 C122 1.260 . S
C127 O118 1.240 . S
C127 O119 1.252 . S
O128 In117 2.294 . S
O128 C121 1.240 . S
O129 In117 2.326 . S
O129 C121 1.252 . S
In130 O131 2.294 . S
In130 O132 2.326 . S
In130 O136 2.266 . S
In130 O137 2.326 . S
In130 O138 2.266 . S
In130 O139 2.326 . S
In130 O141 2.294 . S
In130 O142 2.326 . S
O131 In130 2.294 . S
O131 C140 1.240 . S
O132 In130 2.326 . S
O132 C140 1.252 . S
C133 O136 1.252 . S
C133 O137 1.260 . S
C134 O141 1.240 . S
C134 O142 1.252 . S
C135 O138 1.252 . S
C135 O139 1.260 . S
O136 In130 2.266 . S
O136 C133 1.252 . S
O137 In130 2.326 . S
O137 C133 1.260 . S
O138 In130 2.266 . S
O138 C135 1.252 . S
O139 In130 2.326 . S
O139 C135 1.260 . S
C140 O131 1.240 . S
C140 O132 1.252 . S
O141 In130 2.294 . S
O141 C134 1.240 . S
O142 In130 2.326 . S
O142 C134 1.252 . S
In143 O144 2.294 . S
In143 O145 2.326 . S
In143 O149 2.266 . S
In143 O150 2.326 . S
In143 O151 2.266 . S
In143 O152 2.326 . S
In143 O154 2.294 . S
In143 O155 2.326 . S
O144 In143 2.294 . S
O144 C153 1.240 . S
O145 In143 2.326 . S
O145 C153 1.252 . S
C146 O149 1.252 . S
C146 O150 1.260 . S
C147 O154 1.240 . S
C147 O155 1.252 . S
C148 O151 1.252 . S
C148 O152 1.260 . S
O149 In143 2.266 . S
O149 C146 1.252 . S
O150 In143 2.326 . S
O150 C146 1.260 . S
O151 In143 2.266 . S
O151 C148 1.252 . S
O152 In143 2.326 . S
O152 C148 1.260 . S
C153 O144 1.240 . S
C153 O145 1.252 . S
O154 In143 2.294 . S
O154 C147 1.240 . S
O155 In143 2.326 . S
O155 C147 1.252 . S
H156 C162 0.930 . S
H157 C166 0.930 . S
H158 C171 0.929 . S
H159 C169 0.929 . S
H160 C164 0.929 . S
H161 C170 0.929 . S
C162 H156 0.930 . S
C162 C163 1.367 . S
C162 C170 1.378 . S
C163 C162 1.367 . S
C163 C171 1.433 1_554 S
C164 H160 0.929 . S
C164 C166 1.378 . S
C164 C168 1.350 . S
C165 C168 1.463 1_554 S
C165 C170 1.350 . S
C165 N173 1.427 1_554 S
C166 H157 0.930 . S
C166 C164 1.378 . S
C166 C167 1.367 . S
C167 C166 1.367 . S
C167 C169 1.433 1_556 S
C168 C164 1.350 . S
C168 C165 1.463 1_556 S
C168 N172 1.427 1_556 S
C169 H159 0.929 . S
C169 C167 1.433 1_554 S
C169 N172 1.384 . S
C170 H161 0.929 . S
C170 C162 1.378 . S
C170 C165 1.350 . S
C171 H158 0.929 . S
C171 C163 1.433 1_556 S
C171 N173 1.384 . S
N172 C168 1.427 1_554 S
N172 C169 1.384 . S
N173 C165 1.427 1_556 S
N173 C171 1.384 . S
H174 C180 0.930 . S
H175 C184 0.930 . S
H176 C189 0.929 . S
H177 C187 0.935 . S
H178 C182 0.929 . S
H179 C188 0.929 . S
C180 H174 0.930 . S
C180 C181 1.367 . S
C180 C188 1.378 . S
C181 C180 1.367 . S
C181 C189 1.433 1_554 S
C182 H178 0.929 . S
C182 C184 1.378 . S
C182 C186 1.350 . S
C183 C186 1.463 1_554 S
C183 C188 1.350 . S
C183 N191 1.427 1_554 S
C184 H175 0.930 . S
C184 C182 1.378 . S
C184 C185 1.367 . S
C185 C184 1.367 . S
C185 C187 1.424 1_556 S
C186 C182 1.350 . S
C186 C183 1.463 1_556 S
C186 N190 1.427 1_556 S
C187 H177 0.935 . S
C187 C185 1.424 1_554 S
C187 N190 1.387 . S
C188 H179 0.929 . S
C188 C180 1.378 . S
C188 C183 1.350 . S
C189 H176 0.929 . S
C189 C181 1.433 1_556 S
C189 N191 1.384 . S
N190 C186 1.427 1_554 S
N190 C187 1.387 . S
N191 C183 1.427 1_556 S
N191 C189 1.384 . S
H192 C198 0.930 . S
H193 C202 0.930 . S
H194 C207 0.929 . S
H195 C205 0.929 1_655 S
H196 C200 0.929 . S
H197 C206 0.929 . S
C198 H192 0.930 . S
C198 C199 1.367 . S
C198 C206 1.378 . S
C199 C198 1.367 . S
C199 C207 1.433 . S
C200 H196 0.929 . S
C200 C202 1.378 . S
C200 C204 1.350 . S
C201 C204 1.463 1_554 S
C201 C206 1.350 . S
C201 N209 1.427 . S
C202 H193 0.930 . S
C202 C200 1.378 . S
C202 C203 1.367 . S
C203 C202 1.367 . S
C203 C205 1.433 . S
C204 C200 1.350 . S
C204 C201 1.463 1_556 S
C204 N208 1.427 . S
C205 H195 0.929 1_455 S
C205 C203 1.433 . S
C205 N208 1.384 . S
C206 H197 0.929 . S
C206 C198 1.378 . S
C206 C201 1.350 . S
C207 H194 0.929 . S
C207 C199 1.433 . S
C207 N209 1.384 . S
N208 C204 1.427 . S
N208 C205 1.384 . S
N209 C201 1.427 . S
N209 C207 1.384 . S
H210 C216 0.930 . S
H211 C220 0.930 . S
H212 C225 0.929 . S
H213 C223 0.929 . S
H214 C218 0.929 . S
H215 C224 0.929 . S
C216 H210 0.930 . S
C216 C217 1.367 . S
C216 C224 1.378 . S
C217 C216 1.367 . S
C217 C225 1.433 . S
C218 H214 0.929 . S
C218 C220 1.378 . S
C218 C222 1.350 . S
C219 C222 1.463 . S
C219 C224 1.350 . S
C219 N227 1.427 . S
C220 H211 0.930 . S
C220 C218 1.378 . S
C220 C221 1.367 . S
C221 C220 1.367 . S
C221 C223 1.433 . S
C222 C218 1.350 . S
C222 C219 1.463 . S
C222 N226 1.427 . S
C223 H213 0.929 . S
C223 C221 1.433 . S
C223 N226 1.384 . S
C224 H215 0.929 . S
C224 C216 1.378 . S
C224 C219 1.350 . S
C225 H212 0.929 . S
C225 C217 1.433 . S
C225 N227 1.384 . S
N226 C222 1.427 . S
N226 C223 1.384 . S
N227 C219 1.427 . S
N227 C225 1.384 . S
H228 C234 0.930 . S
H229 C238 0.930 . S
H230 C243 0.929 . S
H231 C241 0.929 1_545 S
H232 C236 0.929 . S
H233 C242 0.929 . S
C234 H228 0.930 . S
C234 C235 1.367 . S
C234 C242 1.378 . S
C235 C234 1.367 . S
C235 C243 1.433 . S
C236 H232 0.929 . S
C236 C238 1.378 . S
C236 C240 1.350 . S
C237 C240 1.463 . S
C237 C242 1.350 . S
C237 N245 1.427 . S
C238 H229 0.930 . S
C238 C236 1.378 . S
C238 C239 1.367 . S
C239 C238 1.367 . S
C239 C241 1.433 . S
C240 C236 1.350 . S
C240 C237 1.463 . S
C240 N244 1.427 . S
C241 H231 0.929 1_565 S
C241 C239 1.433 . S
C241 N244 1.384 . S
C242 H233 0.929 . S
C242 C234 1.378 . S
C242 C237 1.350 . S
C243 H230 0.929 . S
C243 C235 1.433 . S
C243 N245 1.384 . S
N244 C240 1.427 . S
N244 C241 1.384 . S
N245 C237 1.427 . S
N245 C243 1.384 . S
H246 C252 0.930 . S
H247 C256 0.930 . S
H248 C261 0.929 . S
H249 C259 0.929 . S
H250 C254 0.929 . S
H251 C260 0.929 . S
C252 H246 0.930 . S
C252 C253 1.367 . S
C252 C260 1.378 . S
C253 C252 1.367 . S
C253 C261 1.433 . S
C254 H250 0.929 . S
C254 C256 1.378 . S
C254 C258 1.350 . S
C255 C258 1.463 . S
C255 C260 1.350 . S
C255 N263 1.427 . S
C256 H247 0.930 . S
C256 C254 1.378 . S
C256 C257 1.367 . S
C257 C256 1.367 . S
C257 C259 1.433 . S
C258 C254 1.350 . S
C258 C255 1.463 . S
C258 N262 1.427 . S
C259 H249 0.929 . S
C259 C257 1.433 . S
C259 N262 1.384 . S
C260 H251 0.929 . S
C260 C252 1.378 . S
C260 C255 1.350 . S
C261 H248 0.929 . S
C261 C253 1.433 . S
C261 N263 1.384 . S
N262 C258 1.427 . S
N262 C259 1.384 . S
N263 C255 1.427 . S
N263 C261 1.384 . S
H264 C270 0.930 . S
H265 C274 0.930 . S
H266 C279 0.929 . S
H267 C277 0.929 . S
H268 C272 0.929 . S
H269 C278 0.929 . S
C270 H264 0.930 . S
C270 C271 1.367 1_556 S
C270 C278 1.378 . S
C271 C270 1.367 1_554 S
C271 C279 1.433 . S
C272 H268 0.929 . S
C272 C274 1.378 . S
C272 C276 1.350 1_554 S
C273 C276 1.463 1_554 S
C273 C278 1.350 1_554 S
C273 N281 1.427 . S
C274 H265 0.930 . S
C274 C272 1.378 . S
C274 C275 1.367 1_554 S
C275 C274 1.367 1_556 S
C275 C277 1.433 . S
C276 C272 1.350 1_556 S
C276 C273 1.463 1_556 S
C276 N280 1.427 . S
C277 H267 0.929 . S
C277 C275 1.433 . S
C277 N280 1.384 . S
C278 H269 0.929 . S
C278 C270 1.378 . S
C278 C273 1.350 1_556 S
C279 H266 0.929 . S
C279 C271 1.433 . S
C279 N281 1.384 . S
N280 C276 1.427 . S
N280 C277 1.384 . S
N281 C273 1.427 . S
N281 C279 1.384 . S
H282 C288 0.930 . S
H283 C292 0.930 1_565 S
H284 C297 0.929 . S
H285 C295 0.929 . S
H286 C290 0.929 . S
H287 C296 0.929 . S
C288 H282 0.930 . S
C288 C289 1.367 1_554 S
C288 C296 1.378 . S
C289 C288 1.367 1_556 S
C289 C297 1.433 . S
C290 H286 0.929 . S
C290 C292 1.378 . S
C290 C294 1.350 1_556 S
C291 C294 1.463 1_556 S
C291 C296 1.350 1_556 S
C291 N299 1.427 . S
C292 H283 0.930 1_545 S
C292 C290 1.378 . S
C292 C293 1.367 1_556 S
C293 C292 1.367 1_554 S
C293 C295 1.433 . S
C294 C290 1.350 1_554 S
C294 C291 1.463 1_554 S
C294 N298 1.427 . S
C295 H285 0.929 . S
C295 C293 1.433 . S
C295 N298 1.384 . S
C296 H287 0.929 . S
C296 C288 1.378 . S
C296 C291 1.350 1_554 S
C297 H284 0.929 . S
C297 C289 1.433 . S
C297 N299 1.384 . S
N298 C294 1.427 . S
N298 C295 1.384 . S
N299 C291 1.427 . S
N299 C297 1.384 . S
H300 C306 0.930 . S
H301 C310 0.930 . S
H302 C315 0.929 . S
H303 C313 0.929 . S
H304 C308 0.929 . S
H305 C314 0.929 . S
C306 H300 0.930 . S
C306 C307 1.367 . S
C306 C314 1.378 . S
C307 C306 1.367 . S
C307 C315 1.433 1_554 S
C308 H304 0.929 . S
C308 C310 1.378 . S
C308 C312 1.350 . S
C309 C312 1.463 1_554 S
C309 C314 1.350 . S
C309 N317 1.427 1_554 S
C310 H301 0.930 . S
C310 C308 1.378 . S
C310 C311 1.367 . S
C311 C310 1.367 . S
C311 C313 1.433 1_556 S
C312 C308 1.350 . S
C312 C309 1.463 1_556 S
C312 N316 1.427 1_556 S
C313 H303 0.929 . S
C313 C311 1.433 1_554 S
C313 N316 1.384 . S
C314 H305 0.929 . S
C314 C306 1.378 . S
C314 C309 1.350 . S
C315 H302 0.929 . S
C315 C307 1.433 1_556 S
C315 N317 1.384 . S
N316 C312 1.427 1_554 S
N316 C313 1.384 . S
N317 C309 1.427 1_556 S
N317 C315 1.384 . S
H318 C324 0.930 . S
H319 C328 0.930 . S
H320 C333 0.929 . S
H321 C331 0.929 . S
H322 C326 0.929 . S
H323 C332 0.929 . S
C324 H318 0.930 . S
C324 C325 1.367 . S
C324 C332 1.378 . S
C325 C324 1.367 . S
C325 C333 1.433 . S
C326 H322 0.929 . S
C326 C328 1.378 . S
C326 C330 1.350 . S
C327 C330 1.463 . S
C327 C332 1.350 . S
C327 N335 1.427 . S
C328 H319 0.930 . S
C328 C326 1.378 . S
C328 C329 1.367 . S
C329 C328 1.367 . S
C329 C331 1.433 . S
C330 C326 1.350 . S
C330 C327 1.463 . S
C330 N334 1.427 . S
C331 H321 0.929 . S
C331 C329 1.433 . S
C331 N334 1.384 . S
C332 H323 0.929 . S
C332 C324 1.378 . S
C332 C327 1.350 . S
C333 H320 0.929 . S
C333 C325 1.433 . S
C333 N335 1.384 . S
N334 C330 1.427 . S
N334 C331 1.384 . S
N335 C327 1.427 . S
N335 C333 1.384 . S
H336 C342 0.930 . S
H337 C346 0.930 . S
H338 C351 0.929 . S
H339 C349 0.929 1_565 S
H340 C344 0.929 . S
H341 C350 0.929 . S
C342 H336 0.930 . S
C342 C343 1.367 . S
C342 C350 1.378 . S
C343 C342 1.367 . S
C343 C351 1.433 . S
C344 H340 0.929 . S
C344 C346 1.378 . S
C344 C348 1.350 . S
C345 C348 1.463 . S
C345 C350 1.350 . S
C345 N353 1.427 . S
C346 H337 0.930 . S
C346 C344 1.378 . S
C346 C347 1.367 . S
C347 C346 1.367 . S
C347 C349 1.433 . S
C348 C344 1.350 . S
C348 C345 1.463 . S
C348 N352 1.427 . S
C349 H339 0.929 1_545 S
C349 C347 1.433 . S
C349 N352 1.384 . S
C350 H341 0.929 . S
C350 C342 1.378 . S
C350 C345 1.350 . S
C351 H338 0.929 . S
C351 C343 1.433 . S
C351 N353 1.384 . S
N352 C348 1.427 . S
N352 C349 1.384 . S
N353 C345 1.427 . S
N353 C351 1.384 . S
H354 C360 0.930 . S
H355 C364 0.930 . S
H356 C369 0.929 1_455 S
H357 C367 0.929 . S
H358 C362 0.929 . S
H359 C368 0.929 . S
C360 H354 0.930 . S
C360 C361 1.367 . S
C360 C368 1.378 . S
C361 C360 1.367 . S
C361 C369 1.433 . S
C362 H358 0.929 . S
C362 C364 1.378 . S
C362 C366 1.350 . S
C363 C366 1.463 . S
C363 C368 1.350 . S
C363 N371 1.427 . S
C364 H355 0.930 . S
C364 C362 1.378 . S
C364 C365 1.367 . S
C365 C364 1.367 . S
C365 C367 1.433 . S
C366 C362 1.350 . S
C366 C363 1.463 . S
C366 N370 1.427 . S
C367 H357 0.929 . S
C367 C365 1.433 . S
C367 N370 1.384 . S
C368 H359 0.929 . S
C368 C360 1.378 . S
C368 C363 1.350 . S
C369 H356 0.929 1_655 S
C369 C361 1.433 . S
C369 N371 1.384 . S
N370 C366 1.427 . S
N370 C367 1.384 . S
N371 C363 1.427 . S
N371 C369 1.384 . S
H372 C378 0.930 . S
H373 C382 0.930 . S
H374 C387 0.929 . S
H375 C385 0.929 . S
H376 C380 0.929 . S
H377 C386 0.929 . S
C378 H372 0.930 . S
C378 C379 1.367 . S
C378 C386 1.378 . S
C379 C378 1.367 . S
C379 C387 1.433 . S
C380 H376 0.929 . S
C380 C382 1.378 . S
C380 C384 1.350 . S
C381 C384 1.463 . S
C381 C386 1.350 . S
C381 N389 1.427 . S
C382 H373 0.930 . S
C382 C380 1.378 . S
C382 C383 1.367 . S
C383 C382 1.367 . S
C383 C385 1.433 . S
C384 C380 1.350 . S
C384 C381 1.463 . S
C384 N388 1.427 . S
C385 H375 0.929 . S
C385 C383 1.433 . S
C385 N388 1.384 . S
C386 H377 0.929 . S
C386 C378 1.378 . S
C386 C381 1.350 . S
C387 H374 0.929 . S
C387 C379 1.433 . S
C387 N389 1.384 . S
N388 C384 1.427 . S
N388 C385 1.384 . S
N389 C381 1.427 . S
N389 C387 1.384 . S
H390 C396 0.930 . S
H391 C400 0.930 . S
H392 C405 0.929 . S
H393 C403 0.929 . S
H394 C398 0.929 . S
H395 C404 0.929 . S
C396 H390 0.930 . S
C396 C397 1.367 . S
C396 C404 1.378 . S
C397 C396 1.367 . S
C397 C405 1.433 . S
C398 H394 0.929 . S
C398 C400 1.378 . S
C398 C402 1.350 . S
C399 C402 1.463 . S
C399 C404 1.350 . S
C399 N407 1.427 . S
C400 H391 0.930 . S
C400 C398 1.378 . S
C400 C401 1.367 . S
C401 C400 1.367 . S
C401 C403 1.433 . S
C402 C398 1.350 . S
C402 C399 1.463 . S
C402 N406 1.427 . S
C403 H393 0.929 . S
C403 C401 1.433 . S
C403 N406 1.384 . S
C404 H395 0.929 . S
C404 C396 1.378 . S
C404 C399 1.350 . S
C405 H392 0.929 . S
C405 C397 1.433 . S
C405 N407 1.384 . S
N406 C402 1.427 . S
N406 C403 1.384 . S
N407 C399 1.427 . S
N407 C405 1.384 . S
H408 C414 0.930 . S
H409 C418 0.930 . S
H410 C423 0.929 . S
H411 C421 0.929 . S
H412 C416 0.929 . S
H413 C422 0.929 . S
C414 H408 0.930 . S
C414 C415 1.367 . S
C414 C422 1.378 . S
C415 C414 1.367 . S
C415 C423 1.433 . S
C416 H412 0.929 . S
C416 C418 1.378 . S
C416 C420 1.350 . S
C417 C420 1.463 . S
C417 C422 1.350 . S
C417 N425 1.427 . S
C418 H409 0.930 . S
C418 C416 1.378 . S
C418 C419 1.367 . S
C419 C418 1.367 . S
C419 C421 1.433 . S
C420 C416 1.350 . S
C420 C417 1.463 . S
C420 N424 1.427 . S
C421 H411 0.929 . S
C421 C419 1.433 . S
C421 N424 1.384 . S
C422 H413 0.929 . S
C422 C414 1.378 . S
C422 C417 1.350 . S
C423 H410 0.929 . S
C423 C415 1.433 . S
C423 N425 1.384 . S
N424 C420 1.427 . S
N424 C421 1.384 . S
N425 C417 1.427 . S
N425 C423 1.384 . S
H426 C432 0.930 . S
H427 C436 0.930 . S
H428 C441 0.929 . S
H429 C439 0.929 . S
H430 C434 0.929 . S
H431 C440 0.929 . S
C432 H426 0.930 . S
C432 C433 1.367 . S
C432 C440 1.378 . S
C433 C432 1.367 . S
C433 C441 1.433 . S
C434 H430 0.929 . S
C434 C436 1.378 . S
C434 C438 1.350 . S
C435 C438 1.463 . S
C435 C440 1.350 . S
C435 N443 1.427 . S
C436 H427 0.930 . S
C436 C434 1.378 . S
C436 C437 1.367 . S
C437 C436 1.367 . S
C437 C439 1.433 . S
C438 C434 1.350 . S
C438 C435 1.463 . S
C438 N442 1.427 . S
C439 H429 0.929 . S
C439 C437 1.433 . S
C439 N442 1.384 . S
C440 H431 0.929 . S
C440 C432 1.378 . S
C440 C435 1.350 . S
C441 H428 0.929 . S
C441 C433 1.433 . S
C441 N443 1.384 . S
N442 C438 1.427 . S
N442 C439 1.384 . S
N443 C435 1.427 . S
N443 C441 1.384 . S
H444 C450 0.930 . S
H445 C454 0.930 . S
H446 C459 0.929 . S
H447 C457 0.929 . S
H448 C452 0.929 . S
H449 C458 0.929 . S
C450 H444 0.930 . S
C450 C451 1.367 . S
C450 C458 1.378 . S
C451 C450 1.367 . S
C451 C459 1.433 . S
C452 H448 0.929 . S
C452 C454 1.378 . S
C452 C456 1.350 . S
C453 C456 1.463 . S
C453 C458 1.350 . S
C453 N461 1.427 . S
C454 H445 0.930 . S
C454 C452 1.378 . S
C454 C455 1.367 . S
C455 C454 1.367 . S
C455 C457 1.433 . S
C456 C452 1.350 . S
C456 C453 1.463 . S
C456 N460 1.427 . S
C457 H447 0.929 . S
C457 C455 1.433 . S
C457 N460 1.384 . S
C458 H449 0.929 . S
C458 C450 1.378 . S
C458 C453 1.350 . S
C459 H446 0.929 . S
C459 C451 1.433 . S
C459 N461 1.384 . S
N460 C456 1.427 . S
N460 C457 1.384 . S
N461 C453 1.427 . S
N461 C459 1.384 . S
H462 C468 0.930 . S
H463 C472 0.930 . S
H464 C477 0.929 . S
H465 C475 0.929 . S
H466 C470 0.929 . S
H467 C476 0.929 . S
C468 H462 0.930 . S
C468 C469 1.367 . S
C468 C476 1.378 . S
C469 C468 1.367 . S
C469 C477 1.433 . S
C470 H466 0.929 . S
C470 C472 1.378 . S
C470 C474 1.350 . S
C471 C474 1.463 . S
C471 C476 1.350 . S
C471 N479 1.427 . S
C472 H463 0.930 . S
C472 C470 1.378 . S
C472 C473 1.367 . S
C473 C472 1.367 . S
C473 C475 1.433 . S
C474 C470 1.350 . S
C474 C471 1.463 . S
C474 N478 1.427 . S
C475 H465 0.929 . S
C475 C473 1.433 . S
C475 N478 1.384 . S
C476 H467 0.929 . S
C476 C468 1.378 . S
C476 C471 1.350 . S
C477 H464 0.929 . S
C477 C469 1.433 . S
C477 N479 1.384 . S
N478 C474 1.427 . S
N478 C475 1.384 . S
N479 C471 1.427 . S
N479 C477 1.384 . S
H480 C486 0.930 . S
H481 C490 0.930 . S
H482 C495 0.929 . S
H483 C493 0.929 . S
H484 C488 0.929 1_554 S
H485 C494 0.929 1_556 S
C486 H480 0.930 . S
C486 C487 1.367 . S
C486 C494 1.378 1_455 S
C487 C486 1.367 . S
C487 C495 1.433 . S
C488 H484 0.929 1_556 S
C488 C490 1.378 1_455 S
C488 C492 1.350 1_455 S
C489 C492 1.463 1_454 S
C489 C494 1.350 1_455 S
C489 N497 1.427 . S
C490 H481 0.930 . S
C490 C488 1.378 1_655 S
C490 C491 1.367 . S
C491 C490 1.367 . S
C491 C493 1.433 . S
C492 C488 1.350 1_655 S
C492 C489 1.463 1_656 S
C492 N496 1.427 . S
C493 H483 0.929 . S
C493 C491 1.433 . S
C493 N496 1.384 . S
C494 H485 0.929 1_554 S
C494 C486 1.378 1_655 S
C494 C489 1.350 1_655 S
C495 H482 0.929 . S
C495 C487 1.433 . S
C495 N497 1.384 . S
N496 C492 1.427 . S
N496 C493 1.384 . S
N497 C489 1.427 . S
N497 C495 1.384 . S
H498 C504 0.930 . S
H499 C508 0.930 . S
H500 C513 0.929 1_556 S
H501 C511 0.929 1_554 S
H502 C506 0.929 . S
H503 C512 0.929 . S
C504 H498 0.930 . S
C504 C505 1.367 . S
C504 C512 1.378 . S
C505 C504 1.367 . S
C505 C513 1.433 . S
C506 H502 0.929 . S
C506 C508 1.378 . S
C506 C510 1.350 . S
C507 C510 1.463 1_554 S
C507 C512 1.350 . S
C507 N515 1.427 1_554 S
C508 H499 0.930 . S
C508 C506 1.378 . S
C508 C509 1.367 . S
C509 C508 1.367 . S
C509 C511 1.433 . S
C510 C506 1.350 . S
C510 C507 1.463 1_556 S
C510 N514 1.427 1_556 S
C511 H501 0.929 1_556 S
C511 C509 1.433 . S
C511 N514 1.384 1_556 S
C512 H503 0.929 . S
C512 C504 1.378 . S
C512 C507 1.350 . S
C513 H500 0.929 1_554 S
C513 C505 1.433 . S
C513 N515 1.384 1_554 S
N514 C510 1.427 1_554 S
N514 C511 1.384 1_554 S
N515 C507 1.427 1_556 S
N515 C513 1.384 1_556 S
H516 C522 0.931 1_556 S
H517 C526 0.931 1_554 S
H518 C531 0.929 . S
H519 C529 0.929 . S
H520 C524 0.929 . S
H521 C530 0.929 . S
C522 H516 0.931 1_554 S
C522 C523 1.365 . S
C522 C530 1.379 1_554 S
C523 C522 1.365 . S
C523 C531 1.433 . S
C524 H520 0.929 . S
C524 C526 1.379 1_554 S
C524 C528 1.350 1_554 S
C525 C528 1.463 1_564 S
C525 C530 1.350 1_554 S
C525 N533 1.427 . S
C526 H517 0.931 1_556 S
C526 C524 1.379 1_556 S
C526 C527 1.365 . S
C527 C526 1.365 . S
C527 C529 1.433 . S
C528 C524 1.350 1_556 S
C528 C525 1.463 1_546 S
C528 N532 1.427 . S
C529 H519 0.929 . S
C529 C527 1.433 . S
C529 N532 1.384 . S
C530 H521 0.929 . S
C530 C522 1.379 1_556 S
C530 C525 1.350 1_556 S
C531 H518 0.929 . S
C531 C523 1.433 . S
C531 N533 1.384 . S
N532 C528 1.427 . S
N532 C529 1.384 . S
N533 C525 1.427 . S
N533 C531 1.384 . S
H534 C540 0.930 . S
H535 C544 0.930 . S
H536 C549 0.929 . S
H537 C547 0.929 . S
H538 C542 0.929 . S
H539 C548 0.929 . S
C540 H534 0.930 . S
C540 C541 1.367 . S
C540 C548 1.378 . S
C541 C540 1.367 . S
C541 C549 1.433 . S
C542 H538 0.929 . S
C542 C544 1.378 . S
C542 C546 1.350 . S
C543 C546 1.463 1_565 S
C543 C548 1.350 . S
C543 N551 1.427 1_565 S
C544 H535 0.930 . S
C544 C542 1.378 . S
C544 C545 1.367 . S
C545 C544 1.367 . S
C545 C547 1.433 . S
C546 C542 1.350 . S
C546 C543 1.463 1_545 S
C546 N550 1.427 1_545 S
C547 H537 0.929 . S
C547 C545 1.433 . S
C547 N550 1.384 1_545 S
C548 H539 0.929 . S
C548 C540 1.378 . S
C548 C543 1.350 . S
C549 H536 0.929 . S
C549 C541 1.433 . S
C549 N551 1.384 1_565 S
N550 C546 1.427 1_565 S
N550 C547 1.384 1_565 S
N551 C543 1.427 1_545 S
N551 C549 1.384 1_545 S
H552 C558 0.930 . S
H553 C562 0.930 . S
H554 C567 0.929 . S
H555 C565 0.929 . S
H556 C560 0.929 . S
H557 C566 0.929 . S
C558 H552 0.930 . S
C558 C559 1.367 . S
C558 C566 1.378 1_655 S
C559 C558 1.367 . S
C559 C567 1.433 . S
C560 H556 0.929 . S
C560 C562 1.378 1_655 S
C560 C564 1.350 1_655 S
C561 C564 1.463 1_655 S
C561 C566 1.350 1_655 S
C561 N569 1.427 . S
C562 H553 0.930 . S
C562 C560 1.378 1_455 S
C562 C563 1.367 . S
C563 C562 1.367 . S
C563 C565 1.433 . S
C564 C560 1.350 1_455 S
C564 C561 1.463 1_455 S
C564 N568 1.427 . S
C565 H555 0.929 . S
C565 C563 1.433 . S
C565 N568 1.384 . S
C566 H557 0.929 . S
C566 C558 1.378 1_455 S
C566 C561 1.350 1_455 S
C567 H554 0.929 . S
C567 C559 1.433 . S
C567 N569 1.384 . S
N568 C564 1.427 . S
N568 C565 1.384 . S
N569 C561 1.427 . S
N569 C567 1.384 . S
H570 C576 0.930 . S
H571 C580 0.930 . S
H572 C585 0.929 . S
H573 C583 0.929 . S
H574 C578 0.929 . S
H575 C584 0.929 . S
C576 H570 0.930 . S
C576 C577 1.367 . S
C576 C584 1.378 . S
C577 C576 1.367 . S
C577 C585 1.433 . S
C578 H574 0.929 . S
C578 C580 1.378 . S
C578 C582 1.350 . S
C579 C582 1.463 . S
C579 C584 1.350 . S
C579 N587 1.427 . S
C580 H571 0.930 . S
C580 C578 1.378 . S
C580 C581 1.367 . S
C581 C580 1.367 . S
C581 C583 1.433 . S
C582 C578 1.350 . S
C582 C579 1.463 . S
C582 N586 1.427 . S
C583 H573 0.929 . S
C583 C581 1.433 . S
C583 N586 1.384 . S
C584 H575 0.929 . S
C584 C576 1.378 . S
C584 C579 1.350 . S
C585 H572 0.929 . S
C585 C577 1.433 . S
C585 N587 1.384 . S
N586 C582 1.427 . S
N586 C583 1.384 . S
N587 C579 1.427 . S
N587 C585 1.384 . S
C163 C4 1.109 . S
C167 C94 1.111 . S
C181 C17 1.109 . S
C185 C107 1.113 1_565 S
C199 C36 1.110 . S
C203 C83 1.112 1_455 S
C217 C146 1.113 . S
C221 C49 1.113 . S
C235 C56 1.108 . S
C239 C122 1.112 1_565 S
C253 C135 1.113 1_455 S
C257 C69 1.112 . S
C271 C16 1.115 . S
C275 C88 1.113 . S
C289 C95 1.114 . S
C293 C31 1.114 1_545 S
C307 C3 1.113 1_655 S
C311 C108 1.108 . S
C325 C127 1.109 . S
C329 C68 1.113 . S
C343 C140 1.108 . S
C347 C44 1.112 1_545 S
C361 C55 1.112 1_655 S
C365 C147 1.108 . S
C379 C75 1.559 . S
C383 C10 1.565 . S
C397 C23 1.565 . S
C401 C43 1.564 . S
C415 C30 1.564 . S
C419 C62 1.558 . S
C433 C82 1.562 . S
C437 C153 1.557 . S
C451 C101 1.565 . S
C455 C121 1.564 . S
C469 C114 1.560 . S
C473 C134 1.558 . S
C487 C5 1.522 . S
C491 C81 1.522 . S
C505 C18 1.532 . S
C509 C96 1.532 . S
C523 C29 1.524 . S
C527 C109 1.524 . S
C541 C42 1.527 . S
C545 C120 1.527 . S
C559 C133 1.526 . S
C563 C57 1.526 . S
C577 C70 1.532 . S
C581 C148 1.532 . S
