# Generated by pormake.
# Topology smt, (6)-cn, num edge types: 1
# Building blocks:
#     Node 0, Type 0, BuildingBlock: VOLQOD_clean_sbu_1, # of connection points: 6
#     Node 1, Type 0, BuildingBlock: VOLQOD_clean_sbu_1, # of connection points: 6
#     Node 2, Type 0, BuildingBlock: VOLQOD_clean_sbu_1, # of connection points: 6
#     Node 3, Type 0, BuildingBlock: VOLQOD_clean_sbu_1, # of connection points: 6
#     Node 4, Type 0, BuildingBlock: VOLQOD_clean_sbu_1, # of connection points: 6
#     Node 5, Type 0, BuildingBlock: VOLQOD_clean_sbu_1, # of connection points: 6
#     Edge 6, Type (0, 0), BuildingBlock: KIFKEQ_clean_linker_1, # of connection points: 2
#     Edge 7, Type (0, 0), BuildingBlock: KIFKEQ_clean_linker_1, # of connection points: 2
#     Edge 8, Type (0, 0), BuildingBlock: KIFKEQ_clean_linker_1, # of connection points: 2
#     Edge 9, Type (0, 0), BuildingBlock: KIFKEQ_clean_linker_1, # of connection points: 2
#     Edge 10, Type (0, 0), BuildingBlock: KIFKEQ_clean_linker_1, # of connection points: 2
#     Edge 11, Type (0, 0), BuildingBlock: KIFKEQ_clean_linker_1, # of connection points: 2
#     Edge 12, Type (0, 0), BuildingBlock: KIFKEQ_clean_linker_1, # of connection points: 2
#     Edge 13, Type (0, 0), BuildingBlock: KIFKEQ_clean_linker_1, # of connection points: 2
#     Edge 14, Type (0, 0), BuildingBlock: KIFKEQ_clean_linker_1, # of connection points: 2
#     Edge 15, Type (0, 0), BuildingBlock: KIFKEQ_clean_linker_1, # of connection points: 2
#     Edge 16, Type (0, 0), BuildingBlock: KIFKEQ_clean_linker_1, # of connection points: 2
#     Edge 17, Type (0, 0), BuildingBlock: KIFKEQ_clean_linker_1, # of connection points: 2
#     Edge 18, Type (0, 0), BuildingBlock: KIFKEQ_clean_linker_1, # of connection points: 2
#     Edge 19, Type (0, 0), BuildingBlock: KIFKEQ_clean_linker_1, # of connection points: 2
#     Edge 20, Type (0, 0), BuildingBlock: KIFKEQ_clean_linker_1, # of connection points: 2
#     Edge 21, Type (0, 0), BuildingBlock: KIFKEQ_clean_linker_1, # of connection points: 2
#     Edge 22, Type (0, 0), BuildingBlock: KIFKEQ_clean_linker_1, # of connection points: 2
#     Edge 23, Type (0, 0), BuildingBlock: KIFKEQ_clean_linker_1, # of connection points: 2
# Relax obj value: 0.336
# Max RMSD: 0.251
# Mean RMSD: 0.251
data_MOF--net-smt--node1-VOLQOD_clean_sbu_1--edge1-KIFKEQ_clean_linker_1
_symmetry_space_group_name_H-M    P1
_symmetry_Int_Tables_number       1
_symmetry_cell_setting            triclinic
loop_
_symmetry_equiv_pos_as_xyz
'x, y, z'
_cell_length_a     37.739905
_cell_length_b     37.827875
_cell_length_c     27.612506
_cell_angle_alpha  89.807607
_cell_angle_beta   90.073121
_cell_angle_gamma 119.97601
loop_
_atom_site_label
_atom_site_type_symbol
_atom_site_fract_x
_atom_site_fract_y
_atom_site_fract_z
_atom_type_partial_charge
O0 O 0.44904 0.03046 0.06894 0.0
Zn1 Zn 0.46697 0.07067 0.01397 0.0
O2 O 0.43049 0.09258 0.00841 0.0
Zn3 Zn 0.40696 0.08449 0.94412 0.0
Zn4 Zn 0.3872 0.0671 0.05543 0.0
Zn5 Zn 0.46059 0.14959 0.02206 0.0
O6 O 0.42343 0.13822 0.90974 0.0
O7 O 0.47162 0.1803 0.96064 0.0
O8 O 0.47184 0.04684 0.95078 0.0
O9 O 0.43083 0.05816 0.90342 0.0
O10 O 0.34616 0.04401 0.94546 0.0
O11 O 0.33708 0.02461 0.02268 0.0
O12 O 0.37313 0.10734 0.08362 0.0
O13 O 0.52321 0.11412 0.03403 0.0
O14 O 0.42708 0.16598 0.06159 0.0
O15 O 0.51458 0.16625 0.05313 0.0
C16 C 0.42614 0.02487 0.10547 0.0
C17 C 0.45331 0.17344 0.92014 0.0
C18 C 0.32391 0.02039 0.97943 0.0
C19 C 0.45552 0.04487 0.90971 0.0
C20 C 0.39253 0.14615 0.08254 0.0
C21 C 0.5367 0.14959 0.05169 0.0
O22 O 0.40265 0.04001 0.10722 0.0
O23 O 0.40545 0.45356 0.2299 0.0
Zn24 Zn 0.38428 0.47399 0.17548 0.0
O25 O 0.32562 0.44001 0.16989 0.0
Zn26 Zn 0.30831 0.41454 0.10756 0.0
Zn27 Zn 0.30629 0.39901 0.21901 0.0
Zn28 Zn 0.30026 0.47205 0.17771 0.0
O29 O 0.26948 0.42876 0.07309 0.0
O30 O 0.28882 0.48664 0.11263 0.0
O31 O 0.4117 0.47853 0.11081 0.0
O32 O 0.35743 0.43905 0.06532 0.0
O33 O 0.28879 0.35435 0.11179 0.0
O34 O 0.29729 0.34705 0.19013 0.0
O35 O 0.25216 0.38807 0.24398 0.0
O36 O 0.39819 0.53028 0.19745 0.0
O37 O 0.24654 0.43898 0.21192 0.0
O38 O 0.33735 0.52392 0.21198 0.0
C39 C 0.38708 0.43437 0.2684 0.0
C40 C 0.27256 0.46381 0.07609 0.0
C41 C 0.28886 0.33276 0.14735 0.0
C42 C 0.39569 0.46322 0.06991 0.0
C43 C 0.2318 0.40609 0.23657 0.0
C44 C 0.37626 0.54454 0.21364 0.0
O45 O 0.34817 0.41523 0.27151 0.0
O46 O 0.93753 0.40649 0.40785 0.0
Zn47 Zn 0.89745 0.38763 0.3523 0.0
O48 O 0.87018 0.32888 0.34667 0.0
Zn49 Zn 0.87531 0.31228 0.28246 0.0
Zn50 Zn 0.8934 0.30807 0.39242 0.0
Zn51 Zn 0.81362 0.30547 0.36143 0.0
O52 O 0.82037 0.27473 0.25146 0.0
O53 O 0.78155 0.28747 0.30058 0.0
O54 O 0.92301 0.41563 0.28874 0.0
O55 O 0.90055 0.36172 0.2405 0.0
O56 O 0.91556 0.2919 0.28185 0.0
O57 O 0.93581 0.3009 0.35872 0.0
O58 O 0.85099 0.25341 0.4176 0.0
O59 O 0.85694 0.40464 0.37238 0.0
O60 O 0.79404 0.25431 0.40029 0.0
O61 O 0.80213 0.34603 0.39335 0.0
C62 C 0.9388 0.38708 0.44511 0.0
C63 C 0.78645 0.27283 0.2614 0.0
C64 C 0.93963 0.29283 0.31497 0.0
C65 C 0.9191 0.40015 0.24675 0.0
C66 C 0.81219 0.23656 0.41819 0.0
C67 C 0.82143 0.38488 0.39116 0.0
O68 O 0.91983 0.34819 0.44636 0.0
O69 O 0.50272 0.94229 0.56998 0.0
Zn70 Zn 0.4816 0.90134 0.5154 0.0
O71 O 0.51253 0.87339 0.51076 0.0
Zn72 Zn 0.53594 0.87947 0.4472 0.0
Zn73 Zn 0.55573 0.89657 0.5572 0.0
Zn74 Zn 0.47885 0.81645 0.52505 0.0
O75 O 0.52307 0.8253 0.41804 0.0
O76 O 0.46998 0.78493 0.46461 0.0
O77 O 0.47826 0.92488 0.45072 0.0
O78 O 0.50916 0.90098 0.40347 0.0
O79 O 0.59596 0.92218 0.4475 0.0
O80 O 0.60646 0.93904 0.52534 0.0
O81 O 0.56704 0.85415 0.58332 0.0
O82 O 0.42413 0.86125 0.53516 0.0
O83 O 0.50885 0.79711 0.56798 0.0
O84 O 0.42364 0.80333 0.55078 0.0
C85 C 0.52248 0.94292 0.60784 0.0
C86 C 0.49183 0.79062 0.42716 0.0
C87 C 0.61883 0.94466 0.48167 0.0
C88 C 0.4887 0.9191 0.40888 0.0
C89 C 0.54488 0.81553 0.58557 0.0
C90 C 0.40575 0.82436 0.54975 0.0
O91 O 0.5414 0.92296 0.6101 0.0
O92 O 0.54698 0.50537 0.72881 0.0
Zn93 Zn 0.57227 0.49065 0.67404 0.0
O94 O 0.63068 0.5286 0.67141 0.0
Zn95 Zn 0.64673 0.55245 0.60711 0.0
Zn96 Zn 0.64497 0.57158 0.7175 0.0
Zn97 Zn 0.65971 0.50099 0.69005 0.0
O98 O 0.69023 0.54219 0.57837 0.0
O99 O 0.6897 0.49834 0.63267 0.0
O100 O 0.54496 0.4861 0.60963 0.0
O101 O 0.59847 0.52514 0.56286 0.0
O102 O 0.66121 0.61177 0.60713 0.0
O103 O 0.65042 0.62028 0.68422 0.0
O104 O 0.69862 0.58829 0.74908 0.0
O105 O 0.56098 0.43461 0.69193 0.0
O106 O 0.70325 0.53254 0.73951 0.0
O107 O 0.62173 0.44377 0.71304 0.0
C108 C 0.56285 0.52869 0.76527 0.0
C109 C 0.70152 0.51716 0.59242 0.0
C110 C 0.65843 0.63323 0.64085 0.0
C111 C 0.5603 0.50077 0.56825 0.0
C112 C 0.71679 0.56818 0.75671 0.0
C113 C 0.58314 0.42096 0.70902 0.0
O114 O 0.60106 0.55409 0.76745 0.0
O115 O 0.03481 0.55421 0.90743 0.0
Zn116 Zn 0.06861 0.57696 0.84696 0.0
O117 O 0.08595 0.63431 0.84028 0.0
Zn118 Zn 0.06747 0.64483 0.77911 0.0
Zn119 Zn 0.06399 0.65089 0.89285 0.0
Zn120 Zn 0.14448 0.66573 0.84474 0.0
O121 O 0.11528 0.68554 0.73835 0.0
O122 O 0.16746 0.68867 0.78004 0.0
O123 O 0.04012 0.54503 0.78696 0.0
O124 O 0.04176 0.59363 0.74002 0.0
O125 O 0.0232 0.65959 0.78965 0.0
O126 O 0.01538 0.65292 0.86953 0.0
O127 O 0.10416 0.7074 0.91605 0.0
O128 O 0.11675 0.56944 0.85847 0.0
O129 O 0.16179 0.71519 0.88515 0.0
O130 O 0.16868 0.63226 0.86962 0.0
C131 C 0.03185 0.5716 0.94551 0.0
C132 C 0.15319 0.69719 0.74284 0.0
C133 C 0.00395 0.65834 0.8282 0.0
C134 C 0.03267 0.55675 0.74684 0.0
C135 C 0.14261 0.72875 0.90958 0.0
C136 C 0.15382 0.59372 0.86985 0.0
O137 O 0.0452 0.60989 0.94675 0.0
H138 H 0.29594 -0.01229 0.88986 0.0
H139 H 0.26512 0.96755 0.04209 0.0
H140 H 0.2448 0.917 0.87323 0.0
H141 H 0.2142 0.89678 0.02515 0.0
H142 H 0.2212 0.78541 0.88804 0.0
H143 H 0.25545 0.85825 0.9023 0.0
H144 H 0.14904 0.84437 0.97762 0.0
H145 H 0.11391 0.77057 0.96294 0.0
C146 C 0.27738 0.96869 0.91953 0.0
C147 C 0.2853 0.98291 0.96745 0.0
C148 C 0.24829 0.92816 0.91001 0.0
C149 C 0.22645 0.9014 0.94814 0.0
C150 C 0.23085 0.9168 -0.00479 0.0
C151 C 0.26013 0.95729 0.00483 0.0
C152 C 0.20497 0.79756 0.90798 0.0
C153 C 0.16472 0.77207 0.9243 0.0
C154 C 0.22447 0.83944 0.91552 0.0
C155 C 0.20444 0.85691 0.93998 0.0
C156 C 0.16485 0.83152 0.95813 0.0
C157 C 0.14496 0.78939 0.95 0.0
H158 H 0.29177 0.30104 0.05979 0.0
H159 H 0.28175 0.27565 0.21363 0.0
H160 H 0.30959 0.24819 0.04666 0.0
H161 H 0.29947 0.22259 0.19993 0.0
H162 H 0.31898 0.11609 0.13015 0.0
H163 H 0.28161 0.1526 0.14583 0.0
H164 H 0.38219 0.26256 0.08624 0.0
H165 H 0.41976 0.22712 0.07142 0.0
C166 C 0.29188 0.28328 0.09058 0.0
C167 C 0.28647 0.29327 0.1379 0.0
C168 C 0.30215 0.25312 0.083 0.0
C169 C 0.30657 0.23218 0.12248 0.0
C170 C 0.29632 0.23857 0.16907 0.0
C171 C 0.28637 0.26904 0.17679 0.0
C172 C 0.33331 0.14821 0.12111 0.0
C173 C 0.37224 0.16864 0.09926 0.0
C174 C 0.31183 0.16886 0.1298 0.0
C175 C 0.32879 0.20985 0.11595 0.0
C176 C 0.36822 0.2306 0.09609 0.0
C177 C 0.38984 0.21033 0.08813 0.0
H178 H -0.00534 0.28812 0.37505 0.0
H179 H 0.97094 0.2993 0.22409 0.0
H180 H 0.06567 0.31037 0.35562 0.0
H181 H 0.04193 0.32113 0.20485 0.0
H182 H 0.19041 0.33761 0.29286 0.0
H183 H 0.11692 0.29934 0.30888 0.0
H184 H 0.10184 0.38932 0.22905 0.0
H185 H 0.17487 0.42747 0.21279 0.0
C186 C 0.00423 0.29404 0.33751 0.0
C187 C -0.02254 0.29295 0.30128 0.0
C188 C 0.0449 0.30671 0.32643 0.0
C189 C 0.05935 0.31849 0.279 0.0
C190 C 0.03158 0.31308 0.24194 0.0
C191 C -0.00914 0.30021 0.25293 0.0
C192 C 0.17145 0.3494 0.27906 0.0
C193 C 0.18849 0.3856 0.25152 0.0
C194 C 0.12943 0.32737 0.28807 0.0
C195 C 0.10375 0.34097 0.26931 0.0
C196 C 0.12088 0.37762 0.24287 0.0
C197 C 0.16281 0.39978 0.23419 0.0
H198 H 0.83817 0.18873 0.46337 0.0
H199 H 0.73044 0.18636 0.4053 0.0
H200 H 0.79824 0.11478 0.47675 0.0
H201 H 0.69134 0.11309 0.41815 0.0
H202 H 0.6438 0.98168 0.39345 0.0
H203 H 0.69629 0.05245 0.37922 0.0
H204 H 0.73285 0.06431 0.52914 0.0
H205 H 0.68029 -0.00653 0.54378 0.0
C206 C 0.80601 0.17261 0.45396 0.0
C207 C 0.78751 0.19341 0.43314 0.0
C208 C 0.78335 0.13039 0.46139 0.0
C209 C 0.74216 0.10841 0.44733 0.0
C210 C 0.72339 0.12935 0.42817 0.0
C211 C 0.74571 0.17141 0.42142 0.0
C212 C 0.66384 -0.00114 0.42306 0.0
C213 C 0.65738 0.98229 0.46996 0.0
C214 C 0.69366 0.03942 0.41494 0.0
C215 C 0.71779 0.06378 0.4534 0.0
C216 C 0.71441 0.04606 0.49904 0.0
C217 C 0.68428 0.00559 0.50733 0.0
H218 H 0.61915 0.843 0.62957 0.0
H219 H 0.51453 0.73386 0.57404 0.0
H220 H 0.65583 0.80543 0.63981 0.0
H221 H 0.5513 0.69679 0.58421 0.0
H222 H 0.63852 0.65337 0.55417 0.0
H223 H 0.61483 0.70216 0.54231 0.0
H224 H 0.64859 0.74419 0.68934 0.0
H225 H 0.67237 0.69552 0.70136 0.0
C226 C 0.60375 0.81092 0.62028 0.0
C227 C 0.56398 0.79146 0.60076 0.0
C228 C 0.62486 0.78959 0.62588 0.0
C229 C 0.6067 0.74866 0.61155 0.0
C230 C 0.56632 0.72871 0.59429 0.0
C231 C 0.54507 0.7498 0.58919 0.0
C232 C 0.64227 0.67401 0.58338 0.0
C233 C 0.65665 0.67026 0.62891 0.0
C234 C 0.62828 0.70155 0.57677 0.0
C235 C 0.62902 0.72603 0.61536 0.0
C236 C 0.64748 0.72541 0.65918 0.0
C237 C 0.66107 0.69759 0.66598 0.0
H238 H 0.94808 0.6402 0.90019 0.0
H239 H 0.97032 0.6744 0.74884 0.0
H240 H 0.87785 0.62557 0.89152 0.0
H241 H 0.89989 0.66038 0.74088 0.0
H242 H 0.77313 0.64918 0.75536 0.0
H243 H 0.84509 0.6807 0.77933 0.0
H244 H 0.82367 0.56448 0.83349 0.0
H245 H 0.75213 0.53264 0.80839 0.0
C246 C 0.93842 0.64567 0.86537 0.0
C247 C 0.96463 0.65784 0.8249 0.0
C248 C 0.8982 0.63727 0.8606 0.0
C249 C 0.88372 0.6417 0.8156 0.0
C250 C 0.91066 0.65701 0.77604 0.0
C251 C 0.95081 0.66481 0.78056 0.0
C252 C 0.78359 0.63062 0.77351 0.0
C253 C 0.75726 0.58845 0.77992 0.0
C254 C 0.82468 0.64863 0.7869 0.0
C255 C 0.83958 0.6249 0.80806 0.0
C256 C 0.81263 0.58338 0.8175 0.0
C257 C 0.77185 0.56518 0.80307 0.0
H258 H 0.4816 -0.0002 0.12014 0.0
H259 H 0.38049 0.00336 0.1888 0.0
H260 H 0.49384 0.97281 0.19392 0.0
H261 H 0.39204 0.97488 0.26263 0.0
H262 H 0.4608 0.9735 0.40156 0.0
H263 H 0.44184 -0.00431 0.32751 0.0
H264 H 0.46635 0.91385 0.24386 0.0
H265 H 0.48658 0.893 0.31697 0.0
C266 C 0.46144 -0.00591 0.15069 0.0
C267 C 0.43011 0.00384 0.14855 0.0
C268 C 0.4684 0.97844 0.19306 0.0
C269 C 0.44394 0.97172 0.23424 0.0
C270 C 0.41179 0.9803 0.23175 0.0
C271 C 0.40498 -0.00372 0.18932 0.0
C272 C 0.46208 0.96033 0.36729 0.0
C273 C 0.47577 0.93201 0.365 0.0
C274 C 0.45093 0.97276 0.32495 0.0
C275 C 0.45291 0.95675 0.27973 0.0
C276 C 0.46537 0.92748 0.2779 0.0
C277 C 0.4769 0.91547 0.31992 0.0
H278 H 0.36055 0.41695 0.36193 0.0
H279 H 0.46876 0.45984 0.27329 0.0
H280 H 0.40184 0.43087 0.43448 0.0
H281 H 0.50995 0.4721 0.3459 0.0
H282 H 0.57715 0.54009 0.48143 0.0
H283 H 0.53484 0.52019 0.40927 0.0
H284 H 0.4419 0.4133 0.48404 0.0
H285 H 0.48379 0.43433 0.55716 0.0
C286 C 0.39307 0.42854 0.35788 0.0
C287 C 0.41145 0.43766 0.31184 0.0
C288 C 0.41677 0.43638 0.39957 0.0
C289 C 0.45935 0.45306 0.39617 0.0
C290 C 0.47739 0.46023 0.34995 0.0
C291 C 0.45375 0.45289 0.30827 0.0
C292 C 0.54765 0.51236 0.48252 0.0
C293 C 0.53376 0.48881 0.52501 0.0
C294 C 0.5235 0.5007 0.44094 0.0
C295 C 0.48506 0.46488 0.44055 0.0
C296 C 0.47113 0.44131 0.48316 0.0
C297 C 0.49514 0.4533 0.52506 0.0
H298 H -0.0009 0.56609 0.66401 0.0
H299 H 0.03016 0.48351 0.73591 0.0
H300 H -0.02061 0.52375 0.59209 0.0
H301 H 0.01134 0.44147 0.66303 0.0
H302 H 0.93159 0.35727 0.53719 0.0
H303 H 0.95405 0.39646 0.61191 0.0
H304 H 0.0131 0.5083 0.52865 0.0
H305 H -0.01034 0.46928 0.45406 0.0
C306 C 0.00164 0.5388 0.6645 0.0
C307 C 0.0164 0.52828 0.70557 0.0
C308 C -0.00928 0.51473 0.62306 0.0
C309 C -0.0054 0.4797 0.62147 0.0
C310 C 0.00797 0.46827 0.66314 0.0
C311 C 0.01868 0.4923 0.70489 0.0
C312 C 0.94992 0.3902 0.53479 0.0
C313 C 0.9584 0.4102 0.48967 0.0
C314 C 0.96282 0.41265 0.57767 0.0
C315 C -0.01534 0.45551 0.57624 0.0
C316 C -0.00468 0.47533 0.53101 0.0
C317 C -0.01781 0.45295 0.48822 0.0
H318 H 0.54319 0.93471 0.70022 0.0
H319 H 0.4947 -0.00299 0.61506 0.0
H320 H 0.52884 0.96006 0.77404 0.0
H321 H 0.48184 0.02374 0.68893 0.0
H322 H 0.41317 0.01707 0.82566 0.0
H323 H 0.4335 -0.00427 0.75312 0.0
H324 H 0.54481 0.01749 0.82411 0.0
H325 H 0.52357 0.03754 0.89767 0.0
C326 C 0.53029 0.95457 0.69718 0.0
C327 C 0.51963 0.96348 0.65179 0.0
C328 C 0.52218 0.96922 0.73958 0.0
C329 C 0.50363 -0.00657 0.73746 0.0
C330 C 0.49516 0.00425 0.69189 0.0
C331 C 0.50284 -0.01077 0.64951 0.0
C332 C 0.4419 0.01711 0.8259 0.0
C333 C 0.46682 0.02904 0.8673 0.0
C334 C 0.45378 0.00528 0.78412 0.0
C335 C 0.49112 0.00555 0.78249 0.0
C336 C 0.51574 0.01673 0.82425 0.0
C337 C 0.50359 0.02818 0.86639 0.0
H338 H 0.4793 0.49921 0.06227 0.0
H339 H 0.36897 0.45532 0.97729 0.0
H340 H 0.51965 0.51776 0.98763 0.0
H341 H 0.409 0.47511 0.9036 0.0
H342 H 0.48542 0.46662 0.78255 0.0
H343 H 0.44622 0.45261 0.85666 0.0
H344 H 0.54248 0.56406 0.91932 0.0
H345 H 0.58258 0.57743 0.84537 0.0
C346 C 0.46375 0.49378 0.02777 0.0
C347 C 0.42097 0.47528 0.02564 0.0
C348 C 0.48682 0.50466 0.98506 0.0
C349 C 0.46748 0.49763 0.93963 0.0
C350 C 0.4248 0.48008 0.93785 0.0
C351 C 0.40184 0.46881 0.98024 0.0
C352 C 0.49808 0.48846 0.81183 0.0
C353 C 0.53713 0.52313 0.80805 0.0
C354 C 0.47553 0.48046 0.85439 0.0
C355 C 0.49125 0.50719 0.89401 0.0
C356 C 0.52982 0.54253 0.88976 0.0
C357 C 0.5526 0.55037 0.84723 0.0
H358 H 0.00972 0.59418 0.02922 0.0
H359 H 0.01505 0.49371 0.96244 0.0
H360 H -0.01782 0.55376 0.1029 0.0
H361 H -0.01108 0.45403 0.03628 0.0
H362 H 0.9008 0.37753 0.15274 0.0
H363 H 0.92686 0.41975 0.081 0.0
H364 H 0.00082 0.52505 0.17037 0.0
H365 H 0.97345 0.48266 0.24299 0.0
C366 C 0.00511 0.56354 0.03029 0.0
C367 C 0.01428 0.54703 0.98985 0.0
C368 C -0.01036 0.54052 0.07263 0.0
C369 C -0.01675 0.50065 0.07543 0.0
C370 C -0.00728 0.48435 0.03504 0.0
C371 C 0.00783 0.50717 -0.00731 0.0
C372 C 0.92268 0.40968 0.1573 0.0
C373 C 0.93532 0.4267 0.20362 0.0
C374 C 0.93777 0.43387 0.11603 0.0
C375 C 0.96627 0.47567 0.11989 0.0
C376 C -0.02138 0.49297 0.16622 0.0
C377 C 0.96315 0.4687 0.20777 0.0
H378 H 0.5167 0.25043 0.93235 0.0
H379 H 0.42665 0.1728 0.82678 0.0
H380 H 0.54692 0.30506 0.87357 0.0
H381 H 0.45756 0.22859 0.76725 0.0
H382 H 0.50117 0.36512 0.7121 0.0
H383 H 0.46796 0.30111 0.75747 0.0
H384 H 0.58624 0.31775 0.79599 0.0
H385 H 0.61962 0.38186 0.75127 0.0
C386 C 0.50322 0.24491 0.89655 0.0
C387 C 0.46927 0.20703 0.88426 0.0
C388 C 0.52089 0.27625 0.86271 0.0
C389 C 0.50507 0.27075 0.81565 0.0
C390 C 0.47044 0.2334 0.80333 0.0
C391 C 0.45276 0.20162 0.83736 0.0
C392 C 0.52014 0.35479 0.7295 0.0
C393 C 0.5631 0.37903 0.72891 0.0
C394 C 0.50104 0.31801 0.75521 0.0
C395 C 0.52457 0.30494 0.78078 0.0
C396 C 0.56742 0.3276 0.7772 0.0
C397 C 0.58651 0.36427 0.75152 0.0
H398 H 0.14368 0.51839 0.85157 0.0
H399 H 0.21825 0.62907 0.93196 0.0
H400 H 0.17727 0.48578 0.89225 0.0
H401 H 0.25013 0.59613 0.9746 0.0
H402 H 0.31593 0.53819 0.03565 0.0
H403 H 0.29321 0.5694 0.97518 0.0
H404 H 0.17595 0.45799 0.96833 0.0
H405 H 0.20034 0.4261 0.0265 0.0
C406 C 0.16754 0.53583 0.87768 0.0
C407 C 0.17827 0.57619 0.8888 0.0
C408 C 0.18654 0.51704 0.90133 0.0
C409 C 0.21614 0.538 0.93724 0.0
C410 C 0.22803 0.57905 0.94666 0.0
C411 C 0.2096 0.59804 0.92234 0.0
C412 C 0.28554 0.5203 0.02043 0.0
C413 C 0.25959 0.48004 0.03579 0.0
C414 C 0.27236 0.53821 0.98608 0.0
C415 C 0.23239 0.51664 0.96745 0.0
C416 C 0.20707 0.47552 0.98138 0.0
C417 C 0.2208 0.45722 0.01492 0.0
H418 H 0.58975 0.12064 0.06367 0.0
H419 H 0.57669 0.22622 0.09013 0.0
H420 H 0.6534 0.15206 0.10977 0.0
H421 H 0.64049 0.25763 0.13544 0.0
H422 H 0.71167 0.26577 0.27223 0.0
H423 H 0.65535 0.23848 0.21553 0.0
H424 H 0.72597 0.2115 0.1147 0.0
H425 H 0.78315 0.23888 0.17218 0.0
C426 C 0.60075 0.15079 0.07858 0.0
C427 C 0.57779 0.17064 0.07394 0.0
C428 C 0.63733 0.16884 0.10472 0.0
C429 C 0.6515 0.20698 0.12666 0.0
C430 C 0.6298 0.22782 0.11961 0.0
C431 C 0.59331 0.20984 0.09356 0.0
C432 C 0.71548 0.25411 0.23806 0.0
C433 C 0.75206 0.25464 0.22672 0.0
C434 C 0.68321 0.23876 0.20535 0.0
C435 C 0.68654 0.22346 0.16045 0.0
C436 C 0.72272 0.22321 0.14913 0.0
C437 C 0.75535 0.23887 0.18197 0.0
H438 H 0.42824 0.71349 0.43831 0.0
H439 H 0.52626 0.78953 0.33957 0.0
H440 H 0.40324 0.65756 0.3815 0.0
H441 H 0.50064 0.73255 0.28216 0.0
H442 H 0.45817 0.59582 0.23017 0.0
H443 H 0.48938 0.65839 0.2783 0.0
H444 H 0.37062 0.64678 0.29858 0.0
H445 H 0.3393 0.58451 0.25108 0.0
C446 C 0.44459 0.71835 0.40449 0.0
C447 C 0.47908 0.75621 0.39329 0.0
C448 C 0.43004 0.68626 0.37185 0.0
C449 C 0.44962 0.69107 0.32723 0.0
C450 C 0.48498 0.72828 0.31638 0.0
C451 C 0.49955 0.76077 0.34915 0.0
C452 C 0.43879 0.60692 0.24437 0.0
C453 C 0.39614 0.58482 0.23748 0.0
C454 C 0.45674 0.6428 0.27166 0.0
C455 C 0.43226 0.65691 0.29256 0.0
C456 C 0.39003 0.63606 0.28345 0.0
C457 C 0.37215 0.60043 0.25618 0.0
H458 H 0.7534 0.35406 0.4479 0.0
H459 H 0.84891 0.46705 0.38629 0.0
H460 H 0.72809 0.39197 0.49316 0.0
H461 H 0.8229 0.50489 0.4318 0.0
H462 H 0.71913 0.53503 0.49557 0.0
H463 H 0.74997 0.50637 0.44142 0.0
H464 H 0.76923 0.44625 0.56326 0.0
H465 H 0.73936 0.47478 0.61715 0.0
C466 C 0.76868 0.38688 0.44344 0.0
C467 C 0.80347 0.40758 0.41395 0.0
C468 C 0.75422 0.40853 0.46945 0.0
C469 C 0.77394 0.45121 0.46613 0.0
C470 C 0.80733 0.47194 0.43478 0.0
C471 C 0.82219 0.45027 0.40903 0.0
C472 C 0.73078 0.51642 0.51084 0.0
C473 C 0.72615 0.50657 0.56047 0.0
C474 C 0.74829 0.50006 0.4799 0.0
C475 C 0.76103 0.47359 0.49836 0.0
C476 C 0.75884 0.46601 0.54824 0.0
C477 C 0.74177 0.48244 0.579 0.0
H478 H 0.36447 0.86435 0.57155 0.0
H479 H 0.35101 0.74393 0.56834 0.0
H480 H 0.29696 0.83599 0.6084 0.0
H481 H 0.28323 0.71572 0.60492 0.0
H482 H 0.15222 0.67479 0.64917 0.0
H483 H 0.20973 0.70712 0.59187 0.0
H484 H 0.27702 0.80387 0.69461 0.0
H485 H 0.2203 0.77109 0.75183 0.0
C486 C 0.34689 0.83176 0.57795 0.0
C487 C 0.36331 0.80642 0.56762 0.0
C488 C 0.30824 0.81561 0.59893 0.0
C489 C 0.28504 0.77378 0.60932 0.0
C490 C 0.30042 0.74805 0.5967 0.0
C491 C 0.33935 0.76427 0.57628 0.0
C492 C 0.17887 0.70364 0.65855 0.0
C493 C 0.18215 0.72081 0.70443 0.0
C494 C 0.21172 0.72188 0.62613 0.0
C495 C 0.24765 0.75786 0.63902 0.0
C496 C 0.24949 0.77639 0.68363 0.0
C497 C 0.21717 0.75772 0.71632 0.0
loop_
_geom_bond_atom_site_label_1
_geom_bond_atom_site_label_2
_geom_bond_distance
_geom_bond_site_symmetry_2
_ccdc_geom_bond_type
O0 Zn1 1.953 . S
O0 C16 1.225 . S
Zn1 O0 1.953 . S
Zn1 O2 1.949 . S
Zn1 O8 1.919 1_554 S
Zn1 O13 1.924 . S
O2 Zn1 1.949 . S
O2 Zn3 1.923 1_554 S
O2 Zn4 1.950 . S
O2 Zn5 1.945 . S
Zn3 O2 1.923 1_556 S
Zn3 O6 1.933 . S
Zn3 O9 1.941 . S
Zn3 O10 1.965 . S
Zn4 O2 1.950 . S
Zn4 O11 1.938 . S
Zn4 O12 1.906 . S
Zn4 O22 1.953 . S
Zn5 O2 1.945 . S
Zn5 O7 1.932 1_554 S
Zn5 O14 1.977 . S
Zn5 O15 1.910 . S
O6 Zn3 1.933 . S
O6 C17 1.226 . S
O7 Zn5 1.932 1_556 S
O7 C17 1.307 . S
O8 Zn1 1.919 1_556 S
O8 C19 1.253 . S
O9 Zn3 1.941 . S
O9 C19 1.283 . S
O10 Zn3 1.965 . S
O10 C18 1.303 . S
O11 Zn4 1.938 . S
O11 C18 1.247 1_554 S
O12 Zn4 1.906 . S
O12 C20 1.304 . S
O13 Zn1 1.924 . S
O13 C21 1.311 . S
O14 Zn5 1.977 . S
O14 C20 1.272 . S
O15 Zn5 1.910 . S
O15 C21 1.231 . S
C16 O0 1.225 . S
C16 O22 1.298 . S
C17 O6 1.226 . S
C17 O7 1.307 . S
C18 O10 1.303 . S
C18 O11 1.247 1_556 S
C19 O8 1.253 . S
C19 O9 1.283 . S
C20 O12 1.304 . S
C20 O14 1.272 . S
C21 O13 1.311 . S
C21 O15 1.231 . S
O22 Zn4 1.953 . S
O22 C16 1.298 . S
O23 Zn24 1.953 . S
O23 C39 1.225 . S
Zn24 O23 1.953 . S
Zn24 O25 1.949 . S
Zn24 O31 1.919 . S
Zn24 O36 1.924 . S
O25 Zn24 1.949 . S
O25 Zn26 1.923 . S
O25 Zn27 1.950 . S
O25 Zn28 1.945 . S
Zn26 O25 1.923 . S
Zn26 O29 1.933 . S
Zn26 O32 1.941 . S
Zn26 O33 1.965 . S
Zn27 O25 1.950 . S
Zn27 O34 1.938 . S
Zn27 O35 1.906 . S
Zn27 O45 1.953 . S
Zn28 O25 1.945 . S
Zn28 O30 1.932 . S
Zn28 O37 1.977 . S
Zn28 O38 1.910 . S
O29 Zn26 1.933 . S
O29 C40 1.226 . S
O30 Zn28 1.932 . S
O30 C40 1.307 . S
O31 Zn24 1.919 . S
O31 C42 1.253 . S
O32 Zn26 1.941 . S
O32 C42 1.283 . S
O33 Zn26 1.965 . S
O33 C41 1.303 . S
O34 Zn27 1.938 . S
O34 C41 1.247 . S
O35 Zn27 1.906 . S
O35 C43 1.304 . S
O36 Zn24 1.924 . S
O36 C44 1.311 . S
O37 Zn28 1.977 . S
O37 C43 1.272 . S
O38 Zn28 1.910 . S
O38 C44 1.231 . S
C39 O23 1.225 . S
C39 O45 1.298 . S
C40 O29 1.226 . S
C40 O30 1.307 . S
C41 O33 1.303 . S
C41 O34 1.247 . S
C42 O31 1.253 . S
C42 O32 1.283 . S
C43 O35 1.304 . S
C43 O37 1.272 . S
C44 O36 1.311 . S
C44 O38 1.231 . S
O45 Zn27 1.953 . S
O45 C39 1.298 . S
O46 Zn47 1.953 . S
O46 C62 1.225 . S
Zn47 O46 1.953 . S
Zn47 O48 1.949 . S
Zn47 O54 1.919 . S
Zn47 O59 1.924 . S
O48 Zn47 1.949 . S
O48 Zn49 1.923 . S
O48 Zn50 1.950 . S
O48 Zn51 1.945 . S
Zn49 O48 1.923 . S
Zn49 O52 1.933 . S
Zn49 O55 1.941 . S
Zn49 O56 1.965 . S
Zn50 O48 1.950 . S
Zn50 O57 1.938 . S
Zn50 O58 1.906 . S
Zn50 O68 1.953 . S
Zn51 O48 1.945 . S
Zn51 O53 1.932 . S
Zn51 O60 1.977 . S
Zn51 O61 1.910 . S
O52 Zn49 1.933 . S
O52 C63 1.226 . S
O53 Zn51 1.932 . S
O53 C63 1.307 . S
O54 Zn47 1.919 . S
O54 C65 1.253 . S
O55 Zn49 1.941 . S
O55 C65 1.283 . S
O56 Zn49 1.965 . S
O56 C64 1.303 . S
O57 Zn50 1.938 . S
O57 C64 1.247 . S
O58 Zn50 1.906 . S
O58 C66 1.304 . S
O59 Zn47 1.924 . S
O59 C67 1.311 . S
O60 Zn51 1.977 . S
O60 C66 1.272 . S
O61 Zn51 1.910 . S
O61 C67 1.231 . S
C62 O46 1.225 . S
C62 O68 1.298 . S
C63 O52 1.226 . S
C63 O53 1.307 . S
C64 O56 1.303 . S
C64 O57 1.247 . S
C65 O54 1.253 . S
C65 O55 1.283 . S
C66 O58 1.304 . S
C66 O60 1.272 . S
C67 O59 1.311 . S
C67 O61 1.231 . S
O68 Zn50 1.953 . S
O68 C62 1.298 . S
O69 Zn70 1.953 . S
O69 C85 1.225 . S
Zn70 O69 1.953 . S
Zn70 O71 1.949 . S
Zn70 O77 1.919 . S
Zn70 O82 1.924 . S
O71 Zn70 1.949 . S
O71 Zn72 1.923 . S
O71 Zn73 1.950 . S
O71 Zn74 1.945 . S
Zn72 O71 1.923 . S
Zn72 O75 1.933 . S
Zn72 O78 1.941 . S
Zn72 O79 1.965 . S
Zn73 O71 1.950 . S
Zn73 O80 1.938 . S
Zn73 O81 1.906 . S
Zn73 O91 1.953 . S
Zn74 O71 1.945 . S
Zn74 O76 1.932 . S
Zn74 O83 1.977 . S
Zn74 O84 1.910 . S
O75 Zn72 1.933 . S
O75 C86 1.226 . S
O76 Zn74 1.932 . S
O76 C86 1.307 . S
O77 Zn70 1.919 . S
O77 C88 1.253 . S
O78 Zn72 1.941 . S
O78 C88 1.283 . S
O79 Zn72 1.965 . S
O79 C87 1.303 . S
O80 Zn73 1.938 . S
O80 C87 1.247 . S
O81 Zn73 1.906 . S
O81 C89 1.304 . S
O82 Zn70 1.924 . S
O82 C90 1.311 . S
O83 Zn74 1.977 . S
O83 C89 1.272 . S
O84 Zn74 1.910 . S
O84 C90 1.231 . S
C85 O69 1.225 . S
C85 O91 1.298 . S
C86 O75 1.226 . S
C86 O76 1.307 . S
C87 O79 1.303 . S
C87 O80 1.247 . S
C88 O77 1.253 . S
C88 O78 1.283 . S
C89 O81 1.304 . S
C89 O83 1.272 . S
C90 O82 1.311 . S
C90 O84 1.231 . S
O91 Zn73 1.953 . S
O91 C85 1.298 . S
O92 Zn93 1.953 . S
O92 C108 1.225 . S
Zn93 O92 1.953 . S
Zn93 O94 1.949 . S
Zn93 O100 1.919 . S
Zn93 O105 1.924 . S
O94 Zn93 1.949 . S
O94 Zn95 1.923 . S
O94 Zn96 1.950 . S
O94 Zn97 1.945 . S
Zn95 O94 1.923 . S
Zn95 O98 1.933 . S
Zn95 O101 1.941 . S
Zn95 O102 1.965 . S
Zn96 O94 1.950 . S
Zn96 O103 1.938 . S
Zn96 O104 1.906 . S
Zn96 O114 1.953 . S
Zn97 O94 1.945 . S
Zn97 O99 1.932 . S
Zn97 O106 1.977 . S
Zn97 O107 1.910 . S
O98 Zn95 1.933 . S
O98 C109 1.226 . S
O99 Zn97 1.932 . S
O99 C109 1.307 . S
O100 Zn93 1.919 . S
O100 C111 1.253 . S
O101 Zn95 1.941 . S
O101 C111 1.283 . S
O102 Zn95 1.965 . S
O102 C110 1.303 . S
O103 Zn96 1.938 . S
O103 C110 1.247 . S
O104 Zn96 1.906 . S
O104 C112 1.304 . S
O105 Zn93 1.924 . S
O105 C113 1.311 . S
O106 Zn97 1.977 . S
O106 C112 1.272 . S
O107 Zn97 1.910 . S
O107 C113 1.231 . S
C108 O92 1.225 . S
C108 O114 1.298 . S
C109 O98 1.226 . S
C109 O99 1.307 . S
C110 O102 1.303 . S
C110 O103 1.247 . S
C111 O100 1.253 . S
C111 O101 1.283 . S
C112 O104 1.304 . S
C112 O106 1.272 . S
C113 O105 1.311 . S
C113 O107 1.231 . S
O114 Zn96 1.953 . S
O114 C108 1.298 . S
O115 Zn116 1.953 . S
O115 C131 1.225 . S
Zn116 O115 1.953 . S
Zn116 O117 1.949 . S
Zn116 O123 1.919 . S
Zn116 O128 1.924 . S
O117 Zn116 1.949 . S
O117 Zn118 1.923 . S
O117 Zn119 1.950 . S
O117 Zn120 1.945 . S
Zn118 O117 1.923 . S
Zn118 O121 1.933 . S
Zn118 O124 1.941 . S
Zn118 O125 1.965 . S
Zn119 O117 1.950 . S
Zn119 O126 1.938 . S
Zn119 O127 1.906 . S
Zn119 O137 1.953 . S
Zn120 O117 1.945 . S
Zn120 O122 1.932 . S
Zn120 O129 1.977 . S
Zn120 O130 1.910 . S
O121 Zn118 1.933 . S
O121 C132 1.226 . S
O122 Zn120 1.932 . S
O122 C132 1.307 . S
O123 Zn116 1.919 . S
O123 C134 1.253 . S
O124 Zn118 1.941 . S
O124 C134 1.283 . S
O125 Zn118 1.965 . S
O125 C133 1.303 . S
O126 Zn119 1.938 . S
O126 C133 1.247 . S
O127 Zn119 1.906 . S
O127 C135 1.304 . S
O128 Zn116 1.924 . S
O128 C136 1.311 . S
O129 Zn120 1.977 . S
O129 C135 1.272 . S
O130 Zn120 1.910 . S
O130 C136 1.231 . S
C131 O115 1.225 . S
C131 O137 1.298 . S
C132 O121 1.226 . S
C132 O122 1.307 . S
C133 O125 1.303 . S
C133 O126 1.247 . S
C134 O123 1.253 . S
C134 O124 1.283 . S
C135 O127 1.304 . S
C135 O129 1.272 . S
C136 O128 1.311 . S
C136 O130 1.231 . S
O137 Zn119 1.953 . S
O137 C131 1.298 . S
H138 C146 0.950 1_545 S
H139 C151 0.950 1_554 S
H140 C148 0.950 . S
H141 C150 0.950 . S
H142 C152 0.950 . S
H143 C154 0.950 . S
H144 C156 0.950 . S
H145 C157 0.950 . S
C146 H138 0.950 1_565 S
C146 C147 1.386 . S
C146 C148 1.391 . S
C147 C146 1.386 . S
C147 C151 1.391 . S
C148 H140 0.950 . S
C148 C146 1.391 . S
C148 C149 1.400 . S
C149 C148 1.400 . S
C149 C150 1.398 . S
C149 C155 1.491 . S
C150 H141 0.950 . S
C150 C149 1.398 . S
C150 C151 1.391 . S
C151 H139 0.950 1_556 S
C151 C147 1.391 . S
C151 C150 1.391 . S
C152 H142 0.950 . S
C152 C153 1.386 . S
C152 C154 1.391 . S
C153 C152 1.386 . S
C153 C157 1.393 . S
C154 H143 0.950 . S
C154 C152 1.391 . S
C154 C155 1.400 . S
C155 C149 1.491 . S
C155 C154 1.400 . S
C155 C156 1.398 . S
C156 H144 0.950 . S
C156 C155 1.398 . S
C156 C157 1.391 . S
C157 H145 0.950 . S
C157 C153 1.393 . S
C157 C156 1.391 . S
H158 C166 0.950 . S
H159 C171 0.950 . S
H160 C168 0.950 . S
H161 C170 0.950 . S
H162 C172 0.950 . S
H163 C174 0.950 . S
H164 C176 0.950 . S
H165 C177 0.950 . S
C166 H158 0.950 . S
C166 C167 1.386 . S
C166 C168 1.391 . S
C167 C166 1.386 . S
C167 C171 1.393 . S
C168 H160 0.950 . S
C168 C166 1.391 . S
C168 C169 1.400 . S
C169 C168 1.400 . S
C169 C170 1.398 . S
C169 C175 1.491 . S
C170 H161 0.950 . S
C170 C169 1.398 . S
C170 C171 1.391 . S
C171 H159 0.950 . S
C171 C167 1.393 . S
C171 C170 1.391 . S
C172 H162 0.950 . S
C172 C173 1.386 . S
C172 C174 1.391 . S
C173 C172 1.386 . S
C173 C177 1.393 . S
C174 H163 0.950 . S
C174 C172 1.391 . S
C174 C175 1.400 . S
C175 C169 1.491 . S
C175 C174 1.400 . S
C175 C176 1.398 . S
C176 H164 0.950 . S
C176 C175 1.398 . S
C176 C177 1.391 . S
C177 H165 0.950 . S
C177 C173 1.393 . S
C177 C176 1.391 . S
H178 C186 0.950 . S
H179 C191 0.950 1_655 S
H180 C188 0.950 . S
H181 C190 0.950 . S
H182 C192 0.950 . S
H183 C194 0.950 . S
H184 C196 0.950 . S
H185 C197 0.950 . S
C186 H178 0.950 . S
C186 C187 1.387 1_455 S
C186 C188 1.391 . S
C187 C186 1.387 1_655 S
C187 C191 1.394 1_655 S
C188 H180 0.950 . S
C188 C186 1.391 . S
C188 C189 1.400 . S
C189 C188 1.400 . S
C189 C190 1.398 . S
C189 C195 1.491 . S
C190 H181 0.950 . S
C190 C189 1.398 . S
C190 C191 1.391 . S
C191 H179 0.950 1_455 S
C191 C187 1.394 1_455 S
C191 C190 1.391 . S
C192 H182 0.950 . S
C192 C193 1.386 . S
C192 C194 1.391 . S
C193 C192 1.386 . S
C193 C197 1.393 . S
C194 H183 0.950 . S
C194 C192 1.391 . S
C194 C195 1.400 . S
C195 C189 1.491 . S
C195 C194 1.400 . S
C195 C196 1.398 . S
C196 H184 0.950 . S
C196 C195 1.398 . S
C196 C197 1.391 . S
C197 H185 0.950 . S
C197 C193 1.393 . S
C197 C196 1.391 . S
H198 C206 0.950 . S
H199 C211 0.950 . S
H200 C208 0.950 . S
H201 C210 0.950 . S
H202 C212 0.950 . S
H203 C214 0.950 . S
H204 C216 0.950 . S
H205 C217 0.950 . S
C206 H198 0.950 . S
C206 C207 1.386 . S
C206 C208 1.391 . S
C207 C206 1.386 . S
C207 C211 1.393 . S
C208 H200 0.950 . S
C208 C206 1.391 . S
C208 C209 1.400 . S
C209 C208 1.400 . S
C209 C210 1.398 . S
C209 C215 1.491 . S
C210 H201 0.950 . S
C210 C209 1.398 . S
C210 C211 1.391 . S
C211 H199 0.950 . S
C211 C207 1.393 . S
C211 C210 1.391 . S
C212 H202 0.950 . S
C212 C213 1.380 1_545 S
C212 C214 1.391 . S
C213 C212 1.380 1_565 S
C213 C217 1.393 1_565 S
C214 H203 0.950 . S
C214 C212 1.391 . S
C214 C215 1.400 . S
C215 C209 1.491 . S
C215 C214 1.400 . S
C215 C216 1.398 . S
C216 H204 0.950 . S
C216 C215 1.398 . S
C216 C217 1.391 . S
C217 H205 0.950 . S
C217 C213 1.393 1_545 S
C217 C216 1.391 . S
H218 C226 0.950 . S
H219 C231 0.950 . S
H220 C228 0.950 . S
H221 C230 0.950 . S
H222 C232 0.950 . S
H223 C234 0.950 . S
H224 C236 0.950 . S
H225 C237 0.950 . S
C226 H218 0.950 . S
C226 C227 1.386 . S
C226 C228 1.391 . S
C227 C226 1.386 . S
C227 C231 1.393 . S
C228 H220 0.950 . S
C228 C226 1.391 . S
C228 C229 1.400 . S
C229 C228 1.400 . S
C229 C230 1.398 . S
C229 C235 1.491 . S
C230 H221 0.950 . S
C230 C229 1.398 . S
C230 C231 1.391 . S
C231 H219 0.950 . S
C231 C227 1.393 . S
C231 C230 1.391 . S
C232 H222 0.950 . S
C232 C233 1.386 . S
C232 C234 1.391 . S
C233 C232 1.386 . S
C233 C237 1.393 . S
C234 H223 0.950 . S
C234 C232 1.391 . S
C234 C235 1.400 . S
C235 C229 1.491 . S
C235 C234 1.400 . S
C235 C236 1.398 . S
C236 H224 0.950 . S
C236 C235 1.398 . S
C236 C237 1.391 . S
C237 H225 0.950 . S
C237 C233 1.393 . S
C237 C236 1.391 . S
H238 C246 0.950 . S
H239 C251 0.950 1_455 S
H240 C248 0.950 . S
H241 C250 0.950 . S
H242 C252 0.950 . S
H243 C254 0.950 . S
H244 C256 0.950 . S
H245 C257 0.950 . S
C246 H238 0.950 . S
C246 C247 1.385 1_655 S
C246 C248 1.391 . S
C247 C246 1.385 1_455 S
C247 C251 1.392 1_455 S
C248 H240 0.950 . S
C248 C246 1.391 . S
C248 C249 1.400 . S
C249 C248 1.400 . S
C249 C250 1.398 . S
C249 C255 1.491 . S
C250 H241 0.950 . S
C250 C249 1.398 . S
C250 C251 1.391 . S
C251 H239 0.950 1_655 S
C251 C247 1.392 1_655 S
C251 C250 1.391 . S
C252 H242 0.950 . S
C252 C253 1.386 . S
C252 C254 1.391 . S
C253 C252 1.386 . S
C253 C257 1.393 . S
C254 H243 0.950 . S
C254 C252 1.391 . S
C254 C255 1.400 . S
C255 C249 1.491 . S
C255 C254 1.400 . S
C255 C256 1.398 . S
C256 H244 0.950 . S
C256 C255 1.398 . S
C256 C257 1.391 . S
C257 H245 0.950 . S
C257 C253 1.393 . S
C257 C256 1.391 . S
H258 C266 0.950 . S
H259 C271 0.950 . S
H260 C268 0.950 . S
H261 C270 0.950 . S
H262 C272 0.950 . S
H263 C274 0.950 . S
H264 C276 0.950 . S
H265 C277 0.950 . S
C266 H258 0.950 . S
C266 C267 1.386 . S
C266 C268 1.391 1_545 S
C267 C266 1.386 . S
C267 C271 1.393 . S
C268 H260 0.950 . S
C268 C266 1.391 1_565 S
C268 C269 1.400 . S
C269 C268 1.400 . S
C269 C270 1.398 1_565 S
C269 C275 1.491 . S
C270 H261 0.950 . S
C270 C269 1.398 1_545 S
C270 C271 1.391 . S
C271 H259 0.950 . S
C271 C267 1.393 . S
C271 C270 1.391 . S
C272 H262 0.950 . S
C272 C273 1.386 . S
C272 C274 1.391 . S
C273 C272 1.386 . S
C273 C277 1.393 . S
C274 H263 0.950 . S
C274 C272 1.391 . S
C274 C275 1.400 . S
C275 C269 1.491 . S
C275 C274 1.400 . S
C275 C276 1.398 . S
C276 H264 0.950 . S
C276 C275 1.398 . S
C276 C277 1.391 . S
C277 H265 0.950 . S
C277 C273 1.393 . S
C277 C276 1.391 . S
H278 C286 0.950 . S
H279 C291 0.950 . S
H280 C288 0.950 . S
H281 C290 0.950 . S
H282 C292 0.950 . S
H283 C294 0.950 . S
H284 C296 0.950 . S
H285 C297 0.950 . S
C286 H278 0.950 . S
C286 C287 1.386 . S
C286 C288 1.391 . S
C287 C286 1.386 . S
C287 C291 1.393 . S
C288 H280 0.950 . S
C288 C286 1.391 . S
C288 C289 1.400 . S
C289 C288 1.400 . S
C289 C290 1.398 . S
C289 C295 1.491 . S
C290 H281 0.950 . S
C290 C289 1.398 . S
C290 C291 1.391 . S
C291 H279 0.950 . S
C291 C287 1.393 . S
C291 C290 1.391 . S
C292 H282 0.950 . S
C292 C293 1.386 . S
C292 C294 1.391 . S
C293 C292 1.386 . S
C293 C297 1.393 . S
C294 H283 0.950 . S
C294 C292 1.391 . S
C294 C295 1.400 . S
C295 C289 1.491 . S
C295 C294 1.400 . S
C295 C296 1.398 . S
C296 H284 0.950 . S
C296 C295 1.398 . S
C296 C297 1.391 . S
C297 H285 0.950 . S
C297 C293 1.393 . S
C297 C296 1.391 . S
H298 C306 0.950 . S
H299 C311 0.950 1_655 S
H300 C308 0.950 . S
H301 C310 0.950 1_655 S
H302 C312 0.950 . S
H303 C314 0.950 . S
H304 C316 0.950 . S
H305 C317 0.950 . S
C306 H298 0.950 . S
C306 C307 1.386 . S
C306 C308 1.391 . S
C307 C306 1.386 . S
C307 C311 1.393 . S
C308 H300 0.950 . S
C308 C306 1.391 . S
C308 C309 1.400 . S
C309 C308 1.400 . S
C309 C310 1.398 . S
C309 C315 1.491 . S
C310 H301 0.950 1_455 S
C310 C309 1.398 . S
C310 C311 1.391 . S
C311 H299 0.950 1_455 S
C311 C307 1.393 . S
C311 C310 1.391 . S
C312 H302 0.950 . S
C312 C313 1.386 . S
C312 C314 1.391 . S
C313 C312 1.386 . S
C313 C317 1.393 1_655 S
C314 H303 0.950 . S
C314 C312 1.391 . S
C314 C315 1.400 1_655 S
C315 C309 1.491 . S
C315 C314 1.400 1_455 S
C315 C316 1.398 . S
C316 H304 0.950 . S
C316 C315 1.398 . S
C316 C317 1.391 . S
C317 H305 0.950 . S
C317 C313 1.393 1_455 S
C317 C316 1.391 . S
H318 C326 0.950 . S
H319 C331 0.950 . S
H320 C328 0.950 . S
H321 C330 0.950 . S
H322 C332 0.950 . S
H323 C334 0.950 . S
H324 C336 0.950 . S
H325 C337 0.950 . S
C326 H318 0.950 . S
C326 C327 1.386 . S
C326 C328 1.391 1_565 S
C327 C326 1.386 . S
C327 C331 1.393 . S
C328 H320 0.950 . S
C328 C326 1.391 1_545 S
C328 C329 1.400 . S
C329 C328 1.400 . S
C329 C330 1.398 . S
C329 C335 1.491 . S
C330 H321 0.950 . S
C330 C329 1.398 . S
C330 C331 1.391 1_545 S
C331 H319 0.950 . S
C331 C327 1.393 . S
C331 C330 1.391 1_565 S
C332 H322 0.950 . S
C332 C333 1.386 . S
C332 C334 1.391 . S
C333 C332 1.386 . S
C333 C337 1.393 . S
C334 H323 0.950 . S
C334 C332 1.391 . S
C334 C335 1.400 . S
C335 C329 1.491 . S
C335 C334 1.400 . S
C335 C336 1.398 . S
C336 H324 0.950 . S
C336 C335 1.398 . S
C336 C337 1.391 . S
C337 H325 0.950 . S
C337 C333 1.393 . S
C337 C336 1.391 . S
H338 C346 0.950 . S
H339 C351 0.950 . S
H340 C348 0.950 . S
H341 C350 0.950 . S
H342 C352 0.950 . S
H343 C354 0.950 . S
H344 C356 0.950 . S
H345 C357 0.950 . S
C346 H338 0.950 . S
C346 C347 1.386 . S
C346 C348 1.391 1_554 S
C347 C346 1.386 . S
C347 C351 1.393 . S
C348 H340 0.950 . S
C348 C346 1.391 1_556 S
C348 C349 1.400 . S
C349 C348 1.400 . S
C349 C350 1.398 . S
C349 C355 1.491 . S
C350 H341 0.950 . S
C350 C349 1.398 . S
C350 C351 1.391 1_556 S
C351 H339 0.950 . S
C351 C347 1.393 . S
C351 C350 1.391 1_554 S
C352 H342 0.950 . S
C352 C353 1.386 . S
C352 C354 1.391 . S
C353 C352 1.386 . S
C353 C357 1.393 . S
C354 H343 0.950 . S
C354 C352 1.391 . S
C354 C355 1.400 . S
C355 C349 1.491 . S
C355 C354 1.400 . S
C355 C356 1.398 . S
C356 H344 0.950 . S
C356 C355 1.398 . S
C356 C357 1.391 . S
C357 H345 0.950 . S
C357 C353 1.393 . S
C357 C356 1.391 . S
H358 C366 0.950 . S
H359 C371 0.950 . S
H360 C368 0.950 . S
H361 C370 0.950 . S
H362 C372 0.950 . S
H363 C374 0.950 . S
H364 C376 0.950 1_455 S
H365 C377 0.950 . S
C366 H358 0.950 . S
C366 C367 1.386 1_554 S
C366 C368 1.391 . S
C367 C366 1.386 1_556 S
C367 C371 1.393 1_455 S
C368 H360 0.950 . S
C368 C366 1.391 . S
C368 C369 1.400 1_455 S
C369 C368 1.400 1_655 S
C369 C370 1.398 . S
C369 C375 1.491 . S
C370 H361 0.950 . S
C370 C369 1.398 . S
C370 C371 1.391 1_554 S
C371 H359 0.950 . S
C371 C367 1.393 1_655 S
C371 C370 1.391 1_556 S
C372 H362 0.950 . S
C372 C373 1.386 . S
C372 C374 1.391 . S
C373 C372 1.386 . S
C373 C377 1.393 . S
C374 H363 0.950 . S
C374 C372 1.391 . S
C374 C375 1.400 . S
C375 C369 1.491 . S
C375 C374 1.400 . S
C375 C376 1.398 . S
C376 H364 0.950 1_655 S
C376 C375 1.398 . S
C376 C377 1.391 . S
C377 H365 0.950 . S
C377 C373 1.393 . S
C377 C376 1.391 . S
H378 C386 0.950 . S
H379 C391 0.950 . S
H380 C388 0.950 . S
H381 C390 0.950 . S
H382 C392 0.950 . S
H383 C394 0.950 . S
H384 C396 0.950 . S
H385 C397 0.950 . S
C386 H378 0.950 . S
C386 C387 1.386 . S
C386 C388 1.391 . S
C387 C386 1.386 . S
C387 C391 1.393 . S
C388 H380 0.950 . S
C388 C386 1.391 . S
C388 C389 1.400 . S
C389 C388 1.400 . S
C389 C390 1.398 . S
C389 C395 1.491 . S
C390 H381 0.950 . S
C390 C389 1.398 . S
C390 C391 1.391 . S
C391 H379 0.950 . S
C391 C387 1.393 . S
C391 C390 1.391 . S
C392 H382 0.950 . S
C392 C393 1.386 . S
C392 C394 1.391 . S
C393 C392 1.386 . S
C393 C397 1.393 . S
C394 H383 0.950 . S
C394 C392 1.391 . S
C394 C395 1.400 . S
C395 C389 1.491 . S
C395 C394 1.400 . S
C395 C396 1.398 . S
C396 H384 0.950 . S
C396 C395 1.398 . S
C396 C397 1.391 . S
C397 H385 0.950 . S
C397 C393 1.393 . S
C397 C396 1.391 . S
H398 C406 0.950 . S
H399 C411 0.950 . S
H400 C408 0.950 . S
H401 C410 0.950 . S
H402 C412 0.950 . S
H403 C414 0.950 . S
H404 C416 0.950 . S
H405 C417 0.950 . S
C406 H398 0.950 . S
C406 C407 1.386 . S
C406 C408 1.391 . S
C407 C406 1.386 . S
C407 C411 1.393 . S
C408 H400 0.950 . S
C408 C406 1.391 . S
C408 C409 1.400 . S
C409 C408 1.400 . S
C409 C410 1.398 . S
C409 C415 1.491 1_556 S
C410 H401 0.950 . S
C410 C409 1.398 . S
C410 C411 1.391 . S
C411 H399 0.950 . S
C411 C407 1.393 . S
C411 C410 1.391 . S
C412 H402 0.950 . S
C412 C413 1.386 . S
C412 C414 1.391 . S
C413 C412 1.386 . S
C413 C417 1.393 . S
C414 H403 0.950 . S
C414 C412 1.391 . S
C414 C415 1.400 . S
C415 C409 1.491 1_554 S
C415 C414 1.400 . S
C415 C416 1.398 . S
C416 H404 0.950 . S
C416 C415 1.398 . S
C416 C417 1.391 . S
C417 H405 0.950 . S
C417 C413 1.393 . S
C417 C416 1.391 . S
H418 C426 0.950 . S
H419 C431 0.950 . S
H420 C428 0.950 . S
H421 C430 0.950 . S
H422 C432 0.950 . S
H423 C434 0.950 . S
H424 C436 0.950 . S
H425 C437 0.950 . S
C426 H418 0.950 . S
C426 C427 1.386 . S
C426 C428 1.391 . S
C427 C426 1.386 . S
C427 C431 1.393 . S
C428 H420 0.950 . S
C428 C426 1.391 . S
C428 C429 1.400 . S
C429 C428 1.400 . S
C429 C430 1.398 . S
C429 C435 1.491 . S
C430 H421 0.950 . S
C430 C429 1.398 . S
C430 C431 1.391 . S
C431 H419 0.950 . S
C431 C427 1.393 . S
C431 C430 1.391 . S
C432 H422 0.950 . S
C432 C433 1.386 . S
C432 C434 1.391 . S
C433 C432 1.386 . S
C433 C437 1.393 . S
C434 H423 0.950 . S
C434 C432 1.391 . S
C434 C435 1.400 . S
C435 C429 1.491 . S
C435 C434 1.400 . S
C435 C436 1.398 . S
C436 H424 0.950 . S
C436 C435 1.398 . S
C436 C437 1.391 . S
C437 H425 0.950 . S
C437 C433 1.393 . S
C437 C436 1.391 . S
H438 C446 0.950 . S
H439 C451 0.950 . S
H440 C448 0.950 . S
H441 C450 0.950 . S
H442 C452 0.950 . S
H443 C454 0.950 . S
H444 C456 0.950 . S
H445 C457 0.950 . S
C446 H438 0.950 . S
C446 C447 1.386 . S
C446 C448 1.391 . S
C447 C446 1.386 . S
C447 C451 1.393 . S
C448 H440 0.950 . S
C448 C446 1.391 . S
C448 C449 1.400 . S
C449 C448 1.400 . S
C449 C450 1.398 . S
C449 C455 1.491 . S
C450 H441 0.950 . S
C450 C449 1.398 . S
C450 C451 1.391 . S
C451 H439 0.950 . S
C451 C447 1.393 . S
C451 C450 1.391 . S
C452 H442 0.950 . S
C452 C453 1.386 . S
C452 C454 1.391 . S
C453 C452 1.386 . S
C453 C457 1.393 . S
C454 H443 0.950 . S
C454 C452 1.391 . S
C454 C455 1.400 . S
C455 C449 1.491 . S
C455 C454 1.400 . S
C455 C456 1.398 . S
C456 H444 0.950 . S
C456 C455 1.398 . S
C456 C457 1.391 . S
C457 H445 0.950 . S
C457 C453 1.393 . S
C457 C456 1.391 . S
H458 C466 0.950 . S
H459 C471 0.950 . S
H460 C468 0.950 . S
H461 C470 0.950 . S
H462 C472 0.950 . S
H463 C474 0.950 . S
H464 C476 0.950 . S
H465 C477 0.950 . S
C466 H458 0.950 . S
C466 C467 1.386 . S
C466 C468 1.391 . S
C467 C466 1.386 . S
C467 C471 1.393 . S
C468 H460 0.950 . S
C468 C466 1.391 . S
C468 C469 1.400 . S
C469 C468 1.400 . S
C469 C470 1.398 . S
C469 C475 1.491 . S
C470 H461 0.950 . S
C470 C469 1.398 . S
C470 C471 1.391 . S
C471 H459 0.950 . S
C471 C467 1.393 . S
C471 C470 1.391 . S
C472 H462 0.950 . S
C472 C473 1.386 . S
C472 C474 1.391 . S
C473 C472 1.386 . S
C473 C477 1.393 . S
C474 H463 0.950 . S
C474 C472 1.391 . S
C474 C475 1.400 . S
C475 C469 1.491 . S
C475 C474 1.400 . S
C475 C476 1.398 . S
C476 H464 0.950 . S
C476 C475 1.398 . S
C476 C477 1.391 . S
C477 H465 0.950 . S
C477 C473 1.393 . S
C477 C476 1.391 . S
H478 C486 0.950 . S
H479 C491 0.950 . S
H480 C488 0.950 . S
H481 C490 0.950 . S
H482 C492 0.950 . S
H483 C494 0.950 . S
H484 C496 0.950 . S
H485 C497 0.950 . S
C486 H478 0.950 . S
C486 C487 1.386 . S
C486 C488 1.391 . S
C487 C486 1.386 . S
C487 C491 1.393 . S
C488 H480 0.950 . S
C488 C486 1.391 . S
C488 C489 1.400 . S
C489 C488 1.400 . S
C489 C490 1.398 . S
C489 C495 1.491 . S
C490 H481 0.950 . S
C490 C489 1.398 . S
C490 C491 1.391 . S
C491 H479 0.950 . S
C491 C487 1.393 . S
C491 C490 1.391 . S
C492 H482 0.950 . S
C492 C493 1.386 . S
C492 C494 1.391 . S
C493 C492 1.386 . S
C493 C497 1.393 . S
C494 H483 0.950 . S
C494 C492 1.391 . S
C494 C495 1.400 . S
C495 C489 1.491 . S
C495 C494 1.400 . S
C495 C496 1.398 . S
C496 H484 0.950 . S
C496 C495 1.398 . S
C496 C497 1.391 . S
C497 H485 0.950 . S
C497 C493 1.393 . S
C497 C496 1.391 . S
C147 C18 1.046 1_565 S
C153 C135 1.049 . S
C167 C41 1.044 . S
C173 C20 1.051 . S
C187 C64 1.049 . S
C193 C43 1.039 . S
C207 C66 1.040 . S
C213 C87 1.055 . S
C227 C89 1.040 . S
C233 C110 1.050 . S
C247 C133 1.052 . S
C253 C112 1.039 . S
C267 C16 1.547 . S
C273 C88 1.563 . S
C287 C39 1.559 . S
C293 C111 1.552 . S
C307 C134 1.561 . S
C313 C62 1.550 . S
C327 C85 1.562 . S
C333 C19 1.549 . S
C347 C42 1.548 . S
C353 C108 1.560 . S
C367 C131 1.563 . S
C373 C65 1.547 . S
C387 C17 1.293 . S
C393 C113 1.305 . S
C407 C136 1.289 . S
C413 C40 1.271 . S
C427 C21 1.299 . S
C433 C63 1.286 . S
C447 C86 1.276 . S
C453 C44 1.294 . S
C467 C67 1.304 . S
C473 C109 1.292 . S
C487 C90 1.290 . S
C493 C132 1.274 . S
