# Generated by pormake.
# Topology uoq, (4)-cn, num edge types: 1
# Building blocks:
#     Node 0, Type 0, BuildingBlock: QUQFOY_clean_sbu_3, # of connection points: 4
#     Node 1, Type 0, BuildingBlock: QUQFOY_clean_sbu_3, # of connection points: 4
#     Node 2, Type 0, BuildingBlock: QUQFOY_clean_sbu_3, # of connection points: 4
#     Node 3, Type 0, BuildingBlock: QUQFOY_clean_sbu_3, # of connection points: 4
#     Node 4, Type 0, BuildingBlock: QUQFOY_clean_sbu_3, # of connection points: 4
#     Node 5, Type 0, BuildingBlock: QUQFOY_clean_sbu_3, # of connection points: 4
#     Node 6, Type 0, BuildingBlock: QUQFOY_clean_sbu_3, # of connection points: 4
#     Node 7, Type 0, BuildingBlock: QUQFOY_clean_sbu_3, # of connection points: 4
#     Node 8, Type 0, BuildingBlock: QUQFOY_clean_sbu_3, # of connection points: 4
#     Node 9, Type 0, BuildingBlock: QUQFOY_clean_sbu_3, # of connection points: 4
#     Node 10, Type 0, BuildingBlock: QUQFOY_clean_sbu_3, # of connection points: 4
#     Node 11, Type 0, BuildingBlock: QUQFOY_clean_sbu_3, # of connection points: 4
#     Edge 12, Type (0, 0), BuildingBlock: MIFKUJ_clean_linker_0, # of connection points: 2
#     Edge 13, Type (0, 0), BuildingBlock: MIFKUJ_clean_linker_0, # of connection points: 2
#     Edge 14, Type (0, 0), BuildingBlock: MIFKUJ_clean_linker_0, # of connection points: 2
#     Edge 15, Type (0, 0), BuildingBlock: MIFKUJ_clean_linker_0, # of connection points: 2
#     Edge 16, Type (0, 0), BuildingBlock: MIFKUJ_clean_linker_0, # of connection points: 2
#     Edge 17, Type (0, 0), BuildingBlock: MIFKUJ_clean_linker_0, # of connection points: 2
#     Edge 18, Type (0, 0), BuildingBlock: MIFKUJ_clean_linker_0, # of connection points: 2
#     Edge 19, Type (0, 0), BuildingBlock: MIFKUJ_clean_linker_0, # of connection points: 2
#     Edge 20, Type (0, 0), BuildingBlock: MIFKUJ_clean_linker_0, # of connection points: 2
#     Edge 21, Type (0, 0), BuildingBlock: MIFKUJ_clean_linker_0, # of connection points: 2
#     Edge 22, Type (0, 0), BuildingBlock: MIFKUJ_clean_linker_0, # of connection points: 2
#     Edge 23, Type (0, 0), BuildingBlock: MIFKUJ_clean_linker_0, # of connection points: 2
#     Edge 24, Type (0, 0), BuildingBlock: MIFKUJ_clean_linker_0, # of connection points: 2
#     Edge 25, Type (0, 0), BuildingBlock: MIFKUJ_clean_linker_0, # of connection points: 2
#     Edge 26, Type (0, 0), BuildingBlock: MIFKUJ_clean_linker_0, # of connection points: 2
#     Edge 27, Type (0, 0), BuildingBlock: MIFKUJ_clean_linker_0, # of connection points: 2
#     Edge 28, Type (0, 0), BuildingBlock: MIFKUJ_clean_linker_0, # of connection points: 2
#     Edge 29, Type (0, 0), BuildingBlock: MIFKUJ_clean_linker_0, # of connection points: 2
#     Edge 30, Type (0, 0), BuildingBlock: MIFKUJ_clean_linker_0, # of connection points: 2
#     Edge 31, Type (0, 0), BuildingBlock: MIFKUJ_clean_linker_0, # of connection points: 2
#     Edge 32, Type (0, 0), BuildingBlock: MIFKUJ_clean_linker_0, # of connection points: 2
#     Edge 33, Type (0, 0), BuildingBlock: MIFKUJ_clean_linker_0, # of connection points: 2
#     Edge 34, Type (0, 0), BuildingBlock: MIFKUJ_clean_linker_0, # of connection points: 2
#     Edge 35, Type (0, 0), BuildingBlock: MIFKUJ_clean_linker_0, # of connection points: 2
# Relax obj value: 0.160
# Max RMSD: 0.152
# Mean RMSD: 0.152
data_MOF--net-uoq--node1-QUQFOY_clean_sbu_3--edge1-MIFKUJ_clean_linker_0
_symmetry_space_group_name_H-M    P1
_symmetry_Int_Tables_number       1
_symmetry_cell_setting            triclinic
loop_
_symmetry_equiv_pos_as_xyz
'x, y, z'
_cell_length_a     77.567268
_cell_length_b     77.586229
_cell_length_c     29.859538
_cell_angle_alpha  89.976397
_cell_angle_beta   89.989868
_cell_angle_gamma 119.97723
loop_
_atom_site_label
_atom_site_type_symbol
_atom_site_fract_x
_atom_site_fract_y
_atom_site_fract_z
_atom_type_partial_charge
C0 C 0.30422 0.40536 0.30627 0.0
O1 O 0.30037 0.41025 0.34395 0.0
Cd2 Cd 0.29243 0.43559 0.35877 0.0
O3 O 0.30339 0.41383 0.27029 0.0
Cd4 Cd 0.29469 0.43987 0.24996 0.0
C5 C 0.33382 0.47467 0.30913 0.0
O6 O 0.2687 0.43135 0.30387 0.0
O7 O 0.2801 0.4602 0.27418 0.0
O8 O 0.27424 0.42005 0.18779 0.0
C9 C 0.26762 0.44703 0.30038 0.0
O10 O 0.32339 0.46648 0.34396 0.0
C11 C 0.2811 0.43431 0.1599 0.0
O12 O 0.32763 0.4673 0.27029 0.0
O13 O 0.29557 0.45082 0.1729 0.0
C14 C 0.89067 0.29902 0.63966 0.0
O15 O 0.88103 0.29439 0.67622 0.0
Cd16 Cd 0.84971 0.29273 0.68557 0.0
O17 O 0.88305 0.30117 0.6037 0.0
Cd18 Cd 0.85014 0.2961 0.57894 0.0
C19 C 0.8596 0.33719 0.63531 0.0
O20 O 0.82827 0.27036 0.63033 0.0
O21 O 0.81619 0.28721 0.59991 0.0
O22 O 0.8488 0.27431 0.51923 0.0
C23 C 0.81339 0.27269 0.62436 0.0
O24 O 0.85558 0.32634 0.67019 0.0
C25 C 0.84309 0.28198 0.48934 0.0
O26 O 0.85999 0.33038 0.59671 0.0
O27 O 0.84228 0.29739 0.50027 0.0
C28 C 0.58826 0.89575 0.96532 0.0
O29 O 0.58575 0.88656 0.00205 0.0
Cd30 Cd 0.55757 0.85474 0.01674 0.0
O31 O 0.57688 0.88731 0.9319 0.0
Cd32 Cd 0.54958 0.85339 0.91169 0.0
C33 C 0.51973 0.8623 0.97686 0.0
O34 O 0.55719 0.83318 0.96001 0.0
O35 O 0.52697 0.81921 0.93643 0.0
O36 O 0.56889 0.85342 0.84795 0.0
C37 C 0.54027 0.81762 0.95758 0.0
O38 O 0.52864 0.85941 0.00939 0.0
C39 C 0.55444 0.8461 0.8206 0.0
O40 O 0.52492 0.862 0.93646 0.0
O41 O 0.53793 0.84376 0.83466 0.0
C42 C 0.69678 0.58955 0.33013 0.0
O43 O 0.70088 0.58368 0.36616 0.0
Cd44 Cd 0.70381 0.55472 0.37295 0.0
O45 O 0.69547 0.58075 0.29311 0.0
Cd46 Cd 0.70042 0.55306 0.26612 0.0
C47 C 0.65941 0.52077 0.3228 0.0
O48 O 0.72637 0.55669 0.31642 0.0
O49 O 0.70997 0.52814 0.28428 0.0
O50 O 0.72193 0.57362 0.20587 0.0
C51 C 0.72444 0.53975 0.30892 0.0
O52 O 0.67019 0.52736 0.35777 0.0
C53 C 0.71384 0.5604 0.17577 0.0
O54 O 0.66627 0.52808 0.28428 0.0
O55 O 0.69836 0.54429 0.18694 0.0
C56 C 0.10146 0.69037 0.65949 0.0
O57 O 0.11007 0.69318 0.69708 0.0
Cd58 Cd 0.14124 0.69476 0.70687 0.0
O59 O 0.11018 0.69026 0.62334 0.0
Cd60 Cd 0.14425 0.69747 0.60119 0.0
C61 C 0.13464 0.65394 0.64473 0.0
O62 O 0.1641 0.72037 0.65934 0.0
O63 O 0.1776 0.70531 0.62635 0.0
O64 O 0.14965 0.72458 0.55255 0.0
C65 C 0.17938 0.71874 0.65326 0.0
O66 O 0.13706 0.66282 0.6821 0.0
C67 C 0.15393 0.7181 0.51779 0.0
O68 O 0.13522 0.66259 0.60799 0.0
O69 O 0.15233 0.701 0.52057 0.0
C70 C 0.40967 0.10915 0.00289 0.0
O71 O 0.41805 0.11794 0.03904 0.0
Cd72 Cd 0.44787 0.14928 0.04342 0.0
O73 O 0.4164 0.11753 0.96508 0.0
Cd74 Cd 0.44351 0.15016 0.93645 0.0
C75 C 0.47791 0.13945 0.97425 0.0
O76 O 0.44411 0.17147 0.99525 0.0
O77 O 0.4707 0.18384 0.95513 0.0
O78 O 0.42074 0.15536 0.89099 0.0
C79 C 0.46093 0.1863 0.98603 0.0
O80 O 0.47341 0.14305 0.01285 0.0
C81 C 0.43024 0.15839 0.85456 0.0
O82 O 0.4686 0.13981 0.93935 0.0
O83 O 0.44546 0.15624 0.85529 0.0
C84 C 0.58711 0.69016 0.34913 0.0
O85 O 0.58116 0.69243 0.31114 0.0
Cd86 Cd 0.55547 0.69975 0.29622 0.0
O87 O 0.57944 0.69218 0.38523 0.0
Cd88 Cd 0.55308 0.70061 0.40493 0.0
C89 C 0.51754 0.65966 0.35183 0.0
O90 O 0.56107 0.72517 0.34781 0.0
O91 O 0.53256 0.71478 0.37849 0.0
O92 O 0.57316 0.72264 0.46515 0.0
C93 C 0.54561 0.72662 0.35117 0.0
O94 O 0.52513 0.66901 0.31547 0.0
C95 C 0.55914 0.71595 0.49366 0.0
O96 O 0.5254 0.66712 0.3896 0.0
O97 O 0.54274 0.70096 0.48197 0.0
C98 C 0.89269 0.58973 0.69441 0.0
O99 O 0.88431 0.58626 0.65636 0.0
Cd100 Cd 0.85321 0.55756 0.63921 0.0
O101 O 0.88369 0.57896 0.72837 0.0
Cd102 Cd 0.84963 0.55134 0.74763 0.0
C103 C 0.86058 0.52108 0.68914 0.0
O104 O 0.83047 0.55696 0.69251 0.0
O105 O 0.81582 0.5277 0.7214 0.0
O106 O 0.84743 0.57107 0.80795 0.0
C107 C 0.81501 0.53995 0.69467 0.0
O108 O 0.85827 0.52933 0.65445 0.0
C109 C 0.84052 0.55712 0.83662 0.0
O110 O 0.8593 0.52683 0.72841 0.0
O111 O 0.83923 0.54076 0.82487 0.0
C112 C 0.30218 0.90006 0.02484 0.0
O113 O 0.30053 0.89204 0.98685 0.0
Cd114 Cd 0.29876 0.86117 0.97253 0.0
O115 O 0.3017 0.89092 0.06085 0.0
Cd116 Cd 0.296 0.8571 0.08166 0.0
C117 C 0.33976 0.86801 0.03472 0.0
O118 O 0.27427 0.83849 0.02163 0.0
O119 O 0.28791 0.82371 0.05451 0.0
O120 O 0.26921 0.8509 0.13237 0.0
C121 C 0.27589 0.82311 0.02496 0.0
O122 O 0.33071 0.86574 0.99764 0.0
C123 C 0.27605 0.84619 0.16587 0.0
O124 O 0.33118 0.86692 0.07196 0.0
O125 O 0.29315 0.84791 0.16139 0.0
C126 C 0.40923 0.29896 0.33346 0.0
O127 O 0.41639 0.29589 0.29811 0.0
Cd128 Cd 0.44533 0.29239 0.29675 0.0
O129 O 0.41649 0.29887 0.37171 0.0
Cd130 Cd 0.44263 0.29295 0.40373 0.0
C131 C 0.47747 0.33516 0.35519 0.0
O132 O 0.4422 0.26892 0.35193 0.0
O133 O 0.46911 0.2851 0.39061 0.0
O134 O 0.41977 0.26796 0.45521 0.0
C135 C 0.45908 0.27135 0.36274 0.0
O136 O 0.47239 0.32505 0.31907 0.0
C137 C 0.42981 0.276 0.4903 0.0
O138 O 0.46823 0.32769 0.3918 0.0
O139 O 0.44543 0.2929 0.48569 0.0
C140 C 0.09845 0.39904 0.68515 0.0
O141 O 0.10758 0.40268 0.64801 0.0
Cd142 Cd 0.13917 0.43135 0.63402 0.0
O143 O 0.10675 0.40973 0.71959 0.0
Cd144 Cd 0.14038 0.43745 0.74024 0.0
C145 C 0.13147 0.46831 0.67843 0.0
O146 O 0.16104 0.43135 0.6897 0.0
O147 O 0.17437 0.46103 0.71641 0.0
O148 O 0.14193 0.41841 0.80292 0.0
C149 C 0.17634 0.44841 0.69338 0.0
O150 O 0.1345 0.46014 0.64458 0.0
C151 C 0.14837 0.43261 0.83086 0.0
O152 O 0.13158 0.46222 0.71805 0.0
O153 O 0.14949 0.44871 0.8176 0.0
C154 C 0.69635 0.10625 0.00536 0.0
O155 O 0.70213 0.11546 0.96834 0.0
Cd156 Cd 0.70598 0.14748 0.95436 0.0
O157 O 0.69423 0.11467 0.03994 0.0
Cd158 Cd 0.70063 0.14821 0.06287 0.0
C159 C 0.66115 0.13943 -0.00053 0.0
O160 O 0.72694 0.16835 0.01183 0.0
O161 O 0.71233 0.1829 0.04135 0.0
O162 O 0.72065 0.14808 0.12485 0.0
C163 C 0.72588 0.18405 0.0157 0.0
O164 O 0.67253 0.14265 0.96585 0.0
C165 C 0.71313 0.15445 0.15365 0.0
O166 O 0.66716 0.13949 0.03927 0.0
O167 O 0.69856 0.15643 0.14096 0.0
H168 H 0.30865 0.38586 0.37728 0.0
H169 H 0.32298 0.36423 0.3775 0.0
H170 H 0.32939 0.36933 0.23392 0.0
H171 H 0.31503 0.39126 0.23316 0.0
H172 H 0.31578 0.32941 0.27087 0.0
H173 H 0.36815 0.39721 0.2873 0.0
H174 H 0.38449 0.43093 0.31979 0.0
H175 H 0.38464 0.40687 0.44923 0.0
H176 H 0.368 0.37296 0.41762 0.0
H177 H 0.3918 0.30266 0.25713 0.0
H178 H 0.3699 0.31668 0.25033 0.0
H179 H 0.36951 0.32217 0.39405 0.0
H180 H 0.39164 0.3084 0.40121 0.0
H181 H 0.37965 0.35658 0.3534 0.0
H182 H 0.32788 0.28875 0.33723 0.0
H183 H 0.31118 0.25492 0.30533 0.0
H184 H 0.30974 0.27852 0.17617 0.0
H185 H 0.3267 0.31254 0.20717 0.0
C186 C 0.31287 0.38227 0.34555 0.0
C187 C 0.3109 0.39051 0.30519 0.0
C188 C 0.32104 0.36987 0.34582 0.0
C189 C 0.32739 0.36539 0.30582 0.0
C190 C 0.32455 0.37267 0.26512 0.0
C191 C 0.31643 0.38524 0.2648 0.0
C192 C 0.33837 0.35438 0.30751 0.0
C193 C 0.32989 0.33539 0.28829 0.0
C194 C 0.35654 0.36213 0.33108 0.0
C195 C 0.36665 0.38253 0.35017 0.0
C196 C 0.37151 0.39909 0.32277 0.0
C197 C 0.38085 0.41824 0.34101 0.0
C198 C 0.38556 0.42104 0.38657 0.0
C199 C 0.38097 0.40468 0.41396 0.0
C200 C 0.37159 0.38549 0.39589 0.0
C201 C 0.3868 0.30652 0.2874 0.0
C202 C 0.39364 0.30458 0.32973 0.0
C203 C 0.37419 0.31446 0.28342 0.0
C204 C 0.36807 0.32046 0.32168 0.0
C205 C 0.37412 0.31768 0.36408 0.0
C206 C 0.38674 0.30976 0.36811 0.0
C207 C 0.35699 0.33134 0.31734 0.0
C208 C 0.36553 0.35047 0.33594 0.0
C209 C 0.33891 0.32366 0.2932 0.0
C210 C 0.32875 0.30322 0.27444 0.0
C211 C 0.32417 0.28675 0.30193 0.0
C212 C 0.31462 0.26754 0.28403 0.0
C213 C 0.30945 0.26458 0.23873 0.0
C214 C 0.31378 0.28084 0.21125 0.0
C215 C 0.32335 0.30009 0.22897 0.0
H216 H 0.30205 0.24969 0.22494 0.0
H217 H 0.39279 0.43587 0.40064 0.0
H218 H 0.92156 0.32668 0.59023 0.0
H219 H 0.95671 0.33713 0.59876 0.0
H220 H 0.94164 0.29097 0.69735 0.0
H221 H 0.90655 0.28145 0.69102 0.0
H222 H 0.97005 0.32117 0.72799 0.0
H223 H 0.96074 0.29067 0.58702 0.0
H224 H 0.94971 0.28208 0.50869 0.0
H225 H 0.98799 0.34286 0.4694 0.0
H226 H -0.00094 0.3519 0.54759 0.0
H227 H 0.081 0.36399 0.63968 0.0
H228 H 0.04549 0.33949 0.63574 0.0
H229 H 0.0331 0.3751 0.72719 0.0
H230 H 0.06863 0.39873 0.73351 0.0
H231 H 0.01816 0.34233 0.60233 0.0
H232 H 0.99041 0.35084 0.77929 0.0
H233 H 0.00132 0.35431 0.85796 0.0
H234 H 0.03684 0.32769 0.82635 0.0
H235 H 0.02593 0.32379 0.74763 0.0
C236 C 0.92576 0.31857 0.61313 0.0
C237 C 0.91142 0.30329 0.63998 0.0
C238 C 0.94586 0.32446 0.61784 0.0
C239 C 0.95193 0.31469 0.6483 0.0
C240 C 0.93742 0.29882 0.67376 0.0
C241 C 0.91738 0.29333 0.67001 0.0
C242 C 0.97346 0.32214 0.65617 0.0
C243 C 0.98054 0.32558 0.70046 0.0
C244 C 0.98721 0.3273 0.6205 0.0
C245 C 0.98065 0.32198 0.57329 0.0
C246 C 0.96672 0.30224 0.56173 0.0
C247 C 0.96047 0.29728 0.51734 0.0
C248 C 0.96812 0.31192 0.4841 0.0
C249 C 0.98208 0.33154 0.49518 0.0
C250 C 0.98837 0.33658 0.53953 0.0
C251 C 0.07066 0.36625 0.65975 0.0
C252 C 0.07747 0.38315 0.68703 0.0
C253 C 0.05038 0.35232 0.65735 0.0
C254 C 0.03649 0.35528 0.68136 0.0
C255 C 0.04342 0.37205 0.70932 0.0
C256 C 0.06376 0.38566 0.71274 0.0
C257 C 0.01477 0.34197 0.6741 0.0
C258 C 0.00766 0.3375 0.6299 0.0
C259 C 0.00097 0.33501 0.70994 0.0
C260 C 0.00743 0.33713 0.75743 0.0
C261 C 0.00045 0.34561 0.78915 0.0
C262 C 0.00667 0.34768 0.83375 0.0
C263 C 0.0198 0.34127 0.84712 0.0
C264 C 0.02671 0.33271 0.81593 0.0
C265 C 0.02054 0.33059 0.77129 0.0
H266 H 0.0246 0.3429 0.88166 0.0
H267 H 0.96326 0.30805 0.44976 0.0
H268 H 0.62438 0.9144 0.00652 0.0
H269 H 0.64753 0.95024 0.01074 0.0
H270 H 0.60839 0.96072 0.92657 0.0
H271 H 0.586 0.92488 0.91987 0.0
H272 H 0.64311 0.98686 0.90769 0.0
H273 H 0.60859 0.96268 0.04715 0.0
H274 H 0.59718 0.94167 0.11489 0.0
H275 H 0.6578 0.96469 0.15634 0.0
H276 H 0.66957 0.98567 0.08853 0.0
H277 H 0.66765 0.0776 0.05773 0.0
H278 H 0.65327 0.04167 0.05035 0.0
H279 H 0.69714 0.05091 0.94986 0.0
H280 H 0.71078 0.08687 0.95529 0.0
H281 H 0.66225 0.01494 0.06075 0.0
H282 H 0.67786 0.01564 0.87071 0.0
H283 H 0.68316 0.03673 0.80437 0.0
H284 H 0.64988 0.06086 0.86647 0.0
H285 H 0.64417 0.03974 0.93289 0.0
C286 C 0.62098 0.9244 0.98827 0.0
C287 C 0.60341 0.91698 0.9631 0.0
C288 C 0.63411 0.94487 0.99096 0.0
C289 C 0.62945 0.95826 0.97005 0.0
C290 C 0.61233 0.95075 0.94313 0.0
C291 C 0.59952 0.93026 0.93932 0.0
C292 C 0.64171 0.98003 0.97802 0.0
C293 C 0.64736 0.99297 0.94117 0.0
C294 C 0.64697 0.98812 0.02175 0.0
C295 C 0.63995 0.97555 0.06255 0.0
C296 C 0.61948 0.96315 0.07058 0.0
C297 C 0.61295 0.95127 0.10899 0.0
C298 C 0.62676 0.9518 0.13983 0.0
C299 C 0.64712 0.96426 0.13237 0.0
C300 C 0.65373 0.97616 0.09397 0.0
C301 C 0.67439 0.07195 0.03455 0.0
C302 C 0.69014 0.08495 0.00667 0.0
C303 C 0.66618 0.05141 0.03035 0.0
C304 C 0.67381 0.04353 -0.00124 0.0
C305 C 0.6906 0.0566 0.97348 0.0
C306 C 0.69847 0.07713 0.97681 0.0
C307 C 0.66337 0.02174 0.99049 0.0
C308 C 0.65816 0.00881 0.02725 0.0
C309 C 0.65761 0.01366 0.94687 0.0
C310 C 0.66082 0.0263 0.90694 0.0
C311 C 0.67164 0.02542 0.87012 0.0
C312 C 0.67472 0.03737 0.83253 0.0
C313 C 0.66693 0.05018 0.83128 0.0
C314 C 0.65597 0.05099 0.86755 0.0
C315 C 0.65283 0.03905 0.90518 0.0
H316 H 0.66934 0.05944 0.80217 0.0
H317 H 0.62168 0.94259 0.16955 0.0
H318 H 0.68233 0.60298 0.26305 0.0
H319 H 0.66956 0.62595 0.27044 0.0
H320 H 0.68693 0.63528 0.40949 0.0
H321 H 0.69955 0.61224 0.40262 0.0
H322 H 0.64854 0.62465 0.39908 0.0
H323 H 0.7105 0.67273 0.33388 0.0
H324 H 0.73768 0.68579 0.27839 0.0
H325 H 0.69676 0.68007 0.17479 0.0
H326 H 0.66927 0.66671 0.22954 0.0
H327 H 0.60786 0.68852 0.42218 0.0
H328 H 0.63225 0.67721 0.42355 0.0
H329 H 0.62495 0.66664 0.28108 0.0
H330 H 0.60129 0.67845 0.27917 0.0
H331 H 0.66236 0.6818 0.30117 0.0
H332 H 0.60023 0.62882 0.36067 0.0
H333 H 0.57182 0.61393 0.41302 0.0
H334 H 0.61187 0.62703 0.52361 0.0
H335 H 0.64054 0.64221 0.47191 0.0
C336 C 0.68379 0.6102 0.29498 0.0
C337 C 0.69179 0.60562 0.33233 0.0
C338 C 0.67655 0.6234 0.29912 0.0
C339 C 0.67734 0.63234 0.34053 0.0
C340 C 0.68615 0.6285 0.37728 0.0
C341 C 0.69336 0.61532 0.37322 0.0
C342 C 0.66722 0.64409 0.34658 0.0
C343 C 0.65187 0.63744 0.37835 0.0
C344 C 0.67126 0.66045 0.31881 0.0
C345 C 0.68779 0.66859 0.28581 0.0
C346 C 0.70727 0.67412 0.29922 0.0
C347 C 0.72274 0.68161 0.26789 0.0
C348 C 0.71894 0.68373 0.22308 0.0
C349 C 0.69968 0.67842 0.20952 0.0
C350 C 0.68415 0.67092 0.2407 0.0
C351 C 0.61159 0.68392 0.39116 0.0
C352 C 0.60253 0.68427 0.35066 0.0
C353 C 0.62549 0.67743 0.39198 0.0
C354 C 0.63025 0.67084 0.35247 0.0
C355 C 0.62159 0.6717 0.31195 0.0
C356 C 0.60795 0.67839 0.311 0.0
C357 C 0.64342 0.66208 0.35302 0.0
C358 C 0.65932 0.66926 0.32248 0.0
C359 C 0.63973 0.646 0.38147 0.0
C360 C 0.62251 0.63686 0.41253 0.0
C361 C 0.60297 0.62865 0.39619 0.0
C362 C 0.58683 0.62014 0.42573 0.0
C363 C 0.59004 0.6196 0.47163 0.0
C364 C 0.60941 0.62751 0.48806 0.0
C365 C 0.6256 0.63606 0.45867 0.0
H366 H 0.57753 0.613 0.49444 0.0
H367 H 0.73094 0.68952 0.19889 0.0
H368 H 0.9217 0.5887 0.74308 0.0
H369 H 0.95742 0.61184 0.73848 0.0
H370 H 0.94672 0.64951 0.64971 0.0
H371 H 0.91104 0.62548 0.65174 0.0
H372 H 0.9741 0.64679 0.61633 0.0
H373 H 0.96519 0.66287 0.76352 0.0
H374 H 0.95352 0.65746 0.84181 0.0
H375 H 0.98812 0.62954 0.8704 0.0
H376 H -0.00021 0.63453 0.79213 0.0
H377 H 0.08453 0.70644 0.71198 0.0
H378 H 0.04927 0.69638 0.71672 0.0
H379 H 0.03614 0.65265 0.61314 0.0
H380 H 0.07154 0.66377 0.60623 0.0
H381 H 0.0209 0.6654 0.74398 0.0
H382 H 0.99392 0.63819 0.56088 0.0
H383 H 0.00576 0.64872 0.48363 0.0
H384 H 0.04326 0.70879 0.52851 0.0
H385 H 0.03145 0.69869 0.60593 0.0
C386 C 0.92699 0.60212 0.72333 0.0
C387 C 0.91371 0.60537 0.69782 0.0
C388 C 0.94743 0.61545 0.72085 0.0
C389 C 0.9549 0.63266 0.69416 0.0
C390 C 0.94143 0.63634 0.67036 0.0
C391 C 0.92104 0.62269 0.67173 0.0
C392 C 0.97674 0.64581 0.6881 0.0
C393 C 0.98431 0.65105 0.64436 0.0
C394 C 0.99019 0.65199 0.72457 0.0
C395 C 0.98328 0.64899 0.77182 0.0
C396 C 0.97022 0.65547 0.78642 0.0
C397 C 0.96361 0.65249 0.83082 0.0
C398 C 0.97005 0.64314 0.86104 0.0
C399 C 0.98314 0.63679 0.84695 0.0
C400 C 0.98979 0.63972 0.80258 0.0
C401 C 0.0741 0.69502 0.68952 0.0
C402 C 0.08067 0.68593 0.65858 0.0
C403 C 0.05395 0.68919 0.69238 0.0
C404 C 0.03992 0.67381 0.66513 0.0
C405 C 0.04661 0.66494 0.63369 0.0
C406 C 0.06685 0.67121 0.62987 0.0
C407 C 0.01824 0.6659 0.67212 0.0
C408 C 0.0107 0.66155 0.71602 0.0
C409 C 0.00485 0.6614 0.63596 0.0
C410 C 0.01188 0.66763 0.58931 0.0
C411 C 0.0046 0.65366 0.55425 0.0
C412 C 0.01133 0.65956 0.51043 0.0
C413 C 0.02529 0.6794 0.50118 0.0
C414 C 0.0325 0.69341 0.53573 0.0
C415 C 0.02581 0.6876 0.57961 0.0
H416 H 0.03049 0.68393 0.46724 0.0
H417 H 0.96492 0.64084 0.89539 0.0
H418 H 0.29807 0.92106 0.95675 0.0
H419 H 0.31022 0.95669 0.95424 0.0
H420 H 0.32807 0.96204 0.09262 0.0
H421 H 0.31579 0.92615 0.09565 0.0
H422 H 0.31275 0.98759 0.06699 0.0
H423 H 0.36133 0.96979 0.01843 0.0
H424 H 0.37304 0.95108 0.97315 0.0
H425 H 0.36205 0.97422 0.85257 0.0
H426 H 0.34997 0.99284 0.89718 0.0
H427 H 0.394 0.08601 0.0773 0.0
H428 H 0.36955 0.05072 0.08028 0.0
H429 H 0.36258 0.04985 0.93678 0.0
H430 H 0.38755 0.08523 0.93331 0.0
H431 H 0.36955 0.0217 0.9617 0.0
H432 H 0.32453 0.04274 0.01014 0.0
H433 H 0.31267 0.06141 0.05507 0.0
H434 H 0.31655 0.03278 0.17465 0.0
H435 H 0.32872 0.01414 0.13054 0.0
C436 C 0.30426 0.9297 0.98697 0.0
C437 C 0.30631 0.92084 0.02622 0.0
C438 C 0.31114 0.95006 0.98545 0.0
C439 C 0.32031 0.96198 0.023 0.0
C440 C 0.32105 0.95303 0.06327 0.0
C441 C 0.31409 0.93255 0.0649 0.0
C442 C 0.33114 0.98388 0.01847 0.0
C443 C 0.32527 0.99515 0.04429 0.0
C444 C 0.34712 0.99357 0.98795 0.0
C445 C 0.35454 0.98252 0.96111 0.0
C446 C 0.36126 0.97076 0.98225 0.0
C447 C 0.36799 0.96019 0.95671 0.0
C448 C 0.36824 0.96141 0.91 0.0
C449 C 0.36181 0.97326 0.88875 0.0
C450 C 0.35503 0.98383 0.91413 0.0
C451 C 0.38707 0.07844 0.04635 0.0
C452 C 0.39288 0.08843 0.00497 0.0
C453 C 0.37293 0.05824 0.0482 0.0
C454 C 0.36409 0.04764 0.00881 0.0
C455 C 0.36922 0.05775 0.96761 0.0
C456 C 0.38348 0.07797 0.96568 0.0
C457 C 0.35127 0.02569 0.01029 0.0
C458 C 0.35685 0.0143 0.984 0.0
C459 C 0.33503 0.01598 0.04031 0.0
C460 C 0.32769 0.02715 0.06702 0.0
C461 C 0.32301 0.04054 0.04606 0.0
C462 C 0.3162 0.05109 0.07138 0.0
C463 C 0.31389 0.04831 0.11769 0.0
C464 C 0.31836 0.03493 0.13877 0.0
C465 C 0.32518 0.02434 0.11361 0.0
H466 H 0.30862 0.0565 0.13724 0.0
H467 H 0.37345 0.95322 0.89029 0.0
H468 H 0.17377 0.46346 0.88414 0.0
H469 H 0.19556 0.46244 0.94195 0.0
H470 H 0.16612 0.39856 0.93055 0.0
H471 H 0.1444 0.39943 0.8722 0.0
H472 H 0.17784 0.41472 0.0216 0.0
H473 H 0.20413 0.42144 0.87154 0.0
H474 H 0.21369 0.43716 0.79703 0.0
H475 H 0.25558 0.49272 0.85777 0.0
H476 H 0.24599 0.47739 0.93275 0.0
H477 H 0.2514 0.40063 0.12119 0.0
H478 H 0.22844 0.39898 0.0631 0.0
H479 H 0.26267 0.46275 0.04752 0.0
H480 H 0.28601 0.46445 0.10457 0.0
H481 H 0.2479 0.44588 0.96937 0.0
H482 H 0.22227 0.44081 0.11805 0.0
H483 H 0.21249 0.42681 0.19408 0.0
H484 H 0.16949 0.3704 0.13864 0.0
H485 H 0.17924 0.384 0.06222 0.0
C486 C 0.17149 0.44913 0.89488 0.0
C487 C 0.15752 0.43153 0.87333 0.0
C488 C 0.18403 0.4486 0.92772 0.0
C489 C 0.18261 0.43046 0.93981 0.0
C490 C 0.16746 0.4127 0.92141 0.0
C491 C 0.15508 0.41323 0.88814 0.0
C492 C 0.1982 0.43023 0.96778 0.0
C493 C 0.19311 0.4213 0.0101 0.0
C494 C 0.21816 0.43918 0.95285 0.0
C495 C 0.22419 0.44832 0.90776 0.0
C496 C 0.21526 0.43705 0.86903 0.0
C497 C 0.2207 0.44588 0.82671 0.0
C498 C 0.2352 0.46594 0.82267 0.0
C499 C 0.24433 0.47719 0.86095 0.0
C500 C 0.23891 0.46843 0.90336 0.0
C501 C 0.25435 0.41424 0.10451 0.0
C502 C 0.27036 0.4327 0.11785 0.0
C503 C 0.24113 0.41329 0.07157 0.0
C504 C 0.24351 0.43081 0.05201 0.0
C505 C 0.26044 0.44906 0.06249 0.0
C506 C 0.2738 0.45 0.09508 0.0
C507 C 0.22762 0.43036 0.02353 0.0
C508 C 0.23263 0.4392 0.98099 0.0
C509 C 0.20763 0.42154 0.03853 0.0
C510 C 0.20163 0.41336 0.08443 0.0
C511 C 0.21083 0.42538 0.12208 0.0
C512 C 0.20528 0.41753 0.16523 0.0
C513 C 0.19042 0.39772 0.17118 0.0
C514 C 0.18103 0.38574 0.13398 0.0
C515 C 0.18655 0.39351 0.09074 0.0
H516 H 0.18614 0.39166 0.20462 0.0
H517 H 0.23938 0.47275 0.78988 0.0
H518 H 0.81894 0.2875 0.43207 0.0
H519 H 0.79761 0.2643 0.37438 0.0
H520 H 0.82547 0.22874 0.39411 0.0
H521 H 0.84669 0.25171 0.45254 0.0
H522 H 0.81526 0.23349 0.29986 0.0
H523 H 0.7873 0.21402 0.44855 0.0
H524 H 0.77727 0.22038 0.5223 0.0
H525 H 0.73679 0.23528 0.45864 0.0
H526 H 0.74687 0.22936 0.38442 0.0
H527 H 0.74125 0.14832 0.19363 0.0
H528 H 0.76363 0.16805 0.25417 0.0
H529 H 0.73114 0.19942 0.26972 0.0
H530 H 0.70832 0.17929 0.21031 0.0
H531 H 0.74456 0.19585 0.34816 0.0
H532 H 0.77242 0.21718 0.201 0.0
H533 H 0.78282 0.21308 0.12557 0.0
H534 H 0.82351 0.197 0.18348 0.0
H535 H 0.81312 0.20073 0.25931 0.0
C536 C 0.82098 0.2751 0.42323 0.0
C537 C 0.83435 0.2713 0.44711 0.0
C538 C 0.80871 0.26181 0.39045 0.0
C539 C 0.80983 0.24472 0.38068 0.0
C540 C 0.82439 0.24185 0.40146 0.0
C541 C 0.83649 0.25497 0.43475 0.0
C542 C 0.79445 0.2289 0.35243 0.0
C543 C 0.79985 0.22502 0.31054 0.0
C544 C 0.77433 0.21822 0.36632 0.0
C545 C 0.76799 0.22145 0.41093 0.0
C546 C 0.77639 0.21882 0.45026 0.0
C547 C 0.77068 0.22232 0.49215 0.0
C548 C 0.75644 0.22828 0.49515 0.0
C549 C 0.74784 0.23069 0.45626 0.0
C550 C 0.75354 0.22725 0.41428 0.0
C551 C 0.73853 0.15903 0.21085 0.0
C552 C 0.72321 0.16247 0.19685 0.0
C553 C 0.75142 0.17039 0.24519 0.0
C554 C 0.74943 0.18564 0.26544 0.0
C555 C 0.73307 0.18787 0.25426 0.0
C556 C 0.72 0.17631 0.22032 0.0
C557 C 0.76526 0.20038 0.29513 0.0
C558 C 0.75997 0.20413 0.33743 0.0
C559 C 0.78546 0.21113 0.28132 0.0
C560 C 0.79184 0.20902 0.23579 0.0
C561 C 0.78348 0.21264 0.19764 0.0
C562 C 0.78938 0.21039 0.15482 0.0
C563 C 0.80377 0.20473 0.14973 0.0
C564 C 0.81233 0.20135 0.18747 0.0
C565 C 0.80645 0.20353 0.23038 0.0
H566 H 0.80833 0.203 0.11655 0.0
H567 H 0.75205 0.23099 0.52761 0.0
H568 H 0.52407 0.81867 0.76917 0.0
H569 H 0.52661 0.79768 0.71152 0.0
H570 H 0.59063 0.83202 0.71889 0.0
H571 H 0.58825 0.85294 0.77712 0.0
H572 H 0.57344 0.81825 0.62859 0.0
H573 H 0.57203 0.79473 0.77923 0.0
H574 H 0.55815 0.78519 0.8554 0.0
H575 H 0.50297 0.73919 0.80103 0.0
H576 H 0.51641 0.74872 0.72443 0.0
H577 H 0.59246 0.7478 0.52817 0.0
H578 H 0.59354 0.77075 0.58562 0.0
H579 H 0.5305 0.73312 0.60808 0.0
H580 H 0.52941 0.70985 0.55164 0.0
H581 H 0.54862 0.74949 0.68443 0.0
H582 H 0.54858 0.77265 0.53503 0.0
H583 H 0.5609 0.78233 0.45774 0.0
H584 H 0.6169 0.82873 0.50777 0.0
H585 H 0.605 0.81913 0.58541 0.0
C586 C 0.53869 0.82218 0.75754 0.0
C587 C 0.55597 0.83732 0.77797 0.0
C588 C 0.54011 0.8101 0.72479 0.0
C589 C 0.5588 0.81316 0.71165 0.0
C590 C 0.57609 0.82942 0.72884 0.0
C591 C 0.57469 0.84135 0.76205 0.0
C592 C 0.56022 0.79813 0.68402 0.0
C593 C 0.56827 0.80329 0.64087 0.0
C594 C 0.55315 0.77856 0.70004 0.0
C595 C 0.54516 0.77258 0.74609 0.0
C596 C 0.55688 0.78269 0.7835 0.0
C597 C 0.5491 0.77727 0.82675 0.0
C598 C 0.52967 0.76163 0.83304 0.0
C599 C 0.518 0.75133 0.79609 0.0
C600 C 0.5257 0.75673 0.75275 0.0
C601 C 0.57893 0.74414 0.54618 0.0
C602 C 0.56079 0.72715 0.53498 0.0
C603 C 0.57954 0.75735 0.57876 0.0
C604 C 0.56198 0.75393 0.60016 0.0
C605 C 0.54419 0.73615 0.59169 0.0
C606 C 0.5436 0.72283 0.55943 0.0
C607 C 0.56176 0.7695 0.6286 0.0
C608 C 0.55392 0.76446 0.67205 0.0
C609 C 0.56885 0.78913 0.61263 0.0
C610 C 0.57598 0.79504 0.566 0.0
C611 C 0.56357 0.78483 0.52954 0.0
C612 C 0.57047 0.79031 0.48568 0.0
C613 C 0.58969 0.8061 0.47785 0.0
C614 C 0.60203 0.81648 0.51388 0.0
C615 C 0.59521 0.81103 0.55782 0.0
H616 H 0.595 0.81032 0.44387 0.0
H617 H 0.52367 0.75746 0.86656 0.0
H618 H 0.70671 0.53093 0.11628 0.0
H619 H 0.72906 0.53237 0.05682 0.0
H620 H 0.76684 0.5953 0.07929 0.0
H621 H 0.74473 0.59398 0.1394 0.0
H622 H 0.76139 0.58154 0.98447 0.0
H623 H 0.77989 0.56942 0.13116 0.0
H624 H 0.77277 0.55167 0.20331 0.0
H625 H 0.75551 0.49688 0.13421 0.0
H626 H 0.76218 0.51426 0.06156 0.0
H627 H 0.84598 0.59114 0.87651 0.0
H628 H 0.82572 0.59361 0.93612 0.0
H629 H 0.79336 0.52963 0.94875 0.0
H630 H 0.8141 0.52714 0.89052 0.0
H631 H 0.79659 0.54529 0.02726 0.0
H632 H 0.77658 0.55544 0.8819 0.0
H633 H 0.78132 0.57133 0.8079 0.0
H634 H 0.79889 0.62742 0.87113 0.0
H635 H 0.79451 0.6119 0.94554 0.0
C636 C 0.71943 0.5452 0.10771 0.0
C637 C 0.72409 0.56231 0.13282 0.0
C638 C 0.73222 0.54596 0.07388 0.0
C639 C 0.74969 0.56387 0.06432 0.0
C640 C 0.75344 0.58134 0.08642 0.0
C641 C 0.74079 0.58055 0.1207 0.0
C642 C 0.76504 0.56388 0.03502 0.0
C643 C 0.76931 0.57386 0.99392 0.0
C644 C 0.775 0.5535 0.04726 0.0
C645 C 0.77134 0.5431 0.09093 0.0
C646 C 0.77442 0.55356 0.13134 0.0
C647 C 0.77049 0.54357 0.17233 0.0
C648 C 0.76364 0.52315 0.17335 0.0
C649 C 0.76078 0.51269 0.13337 0.0
C650 C 0.76465 0.52261 0.09228 0.0
C651 C 0.83488 0.57764 0.8928 0.0
C652 C 0.83148 0.55893 0.87857 0.0
C653 C 0.82319 0.57905 0.92658 0.0
C654 C 0.8076 0.56177 0.94591 0.0
C655 C 0.80518 0.54317 0.93406 0.0
C656 C 0.81709 0.54177 0.90081 0.0
C657 C 0.79299 0.56289 0.97617 0.0
C658 C 0.78882 0.5531 0.01765 0.0
C659 C 0.78291 0.57322 0.96393 0.0
C660 C 0.78542 0.58255 0.91925 0.0
C661 C 0.78158 0.57119 0.88 0.0
C662 C 0.78419 0.58013 0.83799 0.0
C663 C 0.79045 0.60039 0.83481 0.0
C664 C 0.79407 0.61174 0.87365 0.0
C665 C 0.79152 0.60288 0.91575 0.0
H666 H 0.79246 0.60728 0.80226 0.0
H667 H 0.7606 0.51544 0.20511 0.0
H668 H 0.17029 0.75819 0.51433 0.0
H669 H 0.18919 0.78039 0.45339 0.0
H670 H 0.17623 0.72978 0.3703 0.0
H671 H 0.15822 0.70741 0.43272 0.0
H672 H 0.2124 0.75454 0.36099 0.0
H673 H 0.15499 0.76148 0.35364 0.0
H674 H 0.12827 0.76714 0.38126 0.0
H675 H 0.17169 0.8261 0.42306 0.0
H676 H 0.19871 0.8207 0.39622 0.0
H677 H 0.23658 0.83336 0.17506 0.0
H678 H 0.21439 0.81233 0.23408 0.0
H679 H 0.2646 0.81665 0.30636 0.0
H680 H 0.28686 0.837 0.24598 0.0
H681 H 0.20789 0.81376 0.31647 0.0
H682 H 0.25226 0.77383 0.35892 0.0
H683 H 0.27548 0.76527 0.32205 0.0
H684 H 0.2514 0.76681 0.19359 0.0
H685 H 0.22789 0.77512 0.22973 0.0
C686 C 0.17116 0.75173 0.48285 0.0
C687 C 0.16271 0.73103 0.47823 0.0
C688 C 0.18193 0.76449 0.44782 0.0
C689 C 0.18396 0.75684 0.4068 0.0
C690 C 0.17493 0.73609 0.4016 0.0
C691 C 0.16453 0.72329 0.43714 0.0
C692 C 0.19661 0.77057 0.37066 0.0
C693 C 0.21128 0.76741 0.35116 0.0
C694 C 0.19509 0.78727 0.35708 0.0
C695 C 0.17888 0.79061 0.37322 0.0
C696 C 0.15885 0.7756 0.369 0.0
C697 C 0.14365 0.77878 0.38447 0.0
C698 C 0.14828 0.79695 0.40398 0.0
C699 C 0.16813 0.81202 0.40796 0.0
C700 C 0.18339 0.80892 0.39257 0.0
C701 C 0.24298 0.83008 0.20379 0.0
C702 C 0.26346 0.83666 0.20562 0.0
C703 C 0.23024 0.81804 0.23761 0.0
C704 C 0.23771 0.81249 0.27426 0.0
C705 C 0.25838 0.82026 0.2778 0.0
C706 C 0.27113 0.83204 0.24349 0.0
C707 C 0.22372 0.79779 0.30729 0.0
C708 C 0.20889 0.80083 0.32627 0.0
C709 C 0.22454 0.78052 0.31901 0.0
C710 C 0.23848 0.7753 0.29702 0.0
C711 C 0.25189 0.77227 0.32282 0.0
C712 C 0.2651 0.76748 0.30205 0.0
C713 C 0.26496 0.76556 0.2555 0.0
C714 C 0.25155 0.76836 0.22962 0.0
C715 C 0.23829 0.77313 0.25023 0.0
H716 H 0.27522 0.76187 0.23948 0.0
H717 H 0.13649 0.79938 0.41594 0.0
H718 H 0.445 0.16318 0.76923 0.0
H719 H 0.44084 0.18198 0.70847 0.0
H720 H 0.40139 0.19231 0.79172 0.0
H721 H 0.4047 0.17279 0.85144 0.0
H722 H 0.38922 0.18882 0.71137 0.0
H723 H 0.45244 0.22699 0.78218 0.0
H724 H 0.48525 0.23419 0.81043 0.0
H725 H 0.50332 0.22978 0.67696 0.0
H726 H 0.47049 0.22229 0.64799 0.0
H727 H 0.4463 0.28973 0.57299 0.0
H728 H 0.44204 0.2697 0.63986 0.0
H729 H 0.39941 0.21693 0.56912 0.0
H730 H 0.40286 0.2369 0.50343 0.0
H731 H 0.45213 0.24368 0.64925 0.0
H732 H 0.36921 0.18008 0.63686 0.0
H733 H 0.33654 0.1761 0.61713 0.0
H734 H 0.35794 0.23751 0.64851 0.0
H735 H 0.39065 0.24181 0.66902 0.0
C736 C 0.4351 0.1691 0.77414 0.0
C737 C 0.42534 0.16668 0.81523 0.0
C738 C 0.43286 0.17998 0.73956 0.0
C739 C 0.42124 0.18906 0.74597 0.0
C740 C 0.41052 0.18558 0.78599 0.0
C741 C 0.41246 0.1744 0.82018 0.0
C742 C 0.42123 0.20319 0.71239 0.0
C743 C 0.40296 0.20081 0.6977 0.0
C744 C 0.43916 0.2193 0.69576 0.0
C745 C 0.45895 0.2239 0.713 0.0
C746 C 0.46337 0.22744 0.7589 0.0
C747 C 0.48197 0.23158 0.77504 0.0
C748 C 0.49634 0.23239 0.74553 0.0
C749 C 0.49216 0.22912 0.69979 0.0
C750 C 0.47357 0.22494 0.68349 0.0
C751 C 0.43562 0.27394 0.57222 0.0
C752 C 0.42495 0.26489 0.53297 0.0
C753 C 0.43327 0.26248 0.61034 0.0
C754 C 0.42037 0.24177 0.6097 0.0
C755 C 0.40913 0.23289 0.571 0.0
C756 C 0.41121 0.24436 0.53325 0.0
C757 C 0.42009 0.22917 0.64751 0.0
C758 C 0.43834 0.23179 0.66298 0.0
C759 C 0.40215 0.21379 0.66607 0.0
C760 C 0.38245 0.21129 0.65411 0.0
C761 C 0.36693 0.19272 0.63975 0.0
C762 C 0.3484 0.19041 0.62839 0.0
C763 C 0.34519 0.20656 0.63145 0.0
C764 C 0.36047 0.22504 0.646 0.0
C765 C 0.37902 0.22742 0.65743 0.0
H766 H 0.33084 0.20474 0.62262 0.0
H767 H 0.51074 0.2356 0.75808 0.0
H768 H 0.20246 0.48606 0.66479 0.0
H769 H 0.22515 0.49502 0.60087 0.0
H770 H 0.21062 0.43381 0.58848 0.0
H771 H 0.18778 0.42472 0.65182 0.0
H772 H 0.25115 0.46227 0.56713 0.0
H773 H 0.18244 0.44661 0.53603 0.0
H774 H 0.15453 0.45281 0.548 0.0
H775 H 0.19098 0.51317 0.50355 0.0
H776 H 0.21922 0.50737 0.49208 0.0
H777 H 0.24092 0.42196 0.36119 0.0
H778 H 0.23007 0.43125 0.42901 0.0
H779 H 0.26053 0.49265 0.38707 0.0
H780 H 0.2716 0.4835 0.31865 0.0
H781 H 0.21966 0.47531 0.43638 0.0
H782 H 0.28624 0.48712 0.44975 0.0
H783 H 0.31248 0.47863 0.43628 0.0
H784 H 0.27998 0.42524 0.51388 0.0
H785 H 0.25332 0.4332 0.52703 0.0
C786 C 0.20459 0.47466 0.64927 0.0
C787 C 0.19317 0.45465 0.66256 0.0
C788 C 0.21754 0.4798 0.61287 0.0
C789 C 0.21932 0.46501 0.5899 0.0
C790 C 0.20941 0.4454 0.60593 0.0
C791 C 0.1963 0.44022 0.64185 0.0
C792 C 0.22865 0.46891 0.54532 0.0
C793 C 0.24454 0.46546 0.53861 0.0
C794 C 0.22012 0.47337 0.50832 0.0
C795 C 0.20297 0.47663 0.51366 0.0
C796 C 0.18451 0.46122 0.52899 0.0
C797 C 0.16864 0.46466 0.53571 0.0
C798 C 0.171 0.48339 0.52666 0.0
C799 C 0.1892 0.49868 0.51064 0.0
C800 C 0.20514 0.49533 0.50403 0.0
C801 C 0.24492 0.43737 0.36575 0.0
C802 C 0.25741 0.45206 0.33513 0.0
C803 C 0.23869 0.44264 0.40443 0.0
C804 C 0.24483 0.46264 0.41306 0.0
C805 C 0.25576 0.47715 0.38078 0.0
C806 C 0.26206 0.47189 0.34187 0.0
C807 C 0.24181 0.46818 0.45826 0.0
C808 C 0.22697 0.47315 0.46504 0.0
C809 C 0.25137 0.46521 0.49537 0.0
C810 C 0.26774 0.46073 0.48921 0.0
C811 C 0.28464 0.47352 0.46378 0.0
C812 C 0.29958 0.4688 0.45617 0.0
C813 C 0.29788 0.45139 0.47416 0.0
C814 C 0.28128 0.43872 0.49997 0.0
C815 C 0.26625 0.44335 0.50757 0.0
H816 H 0.30944 0.44773 0.46815 0.0
H817 H 0.15871 0.48605 0.53197 0.0
H818 H 0.78845 0.28624 0.64998 0.0
H819 H 0.76545 0.2741 0.71365 0.0
H820 H 0.77677 0.22541 0.73059 0.0
H821 H 0.79989 0.23756 0.66756 0.0
H822 H 0.73697 0.21558 0.75216 0.0
H823 H 0.80691 0.26677 0.78029 0.0
H824 H 0.83583 0.30008 0.76638 0.0
H825 H 0.80169 0.32711 0.80721 0.0
H826 H 0.77247 0.29388 0.82069 0.0
H827 H 0.75426 0.18937 0.95542 0.0
H828 H 0.76356 0.21004 0.88842 0.0
H829 H 0.72757 0.235 0.93127 0.0
H830 H 0.71799 0.21418 -0.00119 0.0
H831 H 0.77136 0.2612 0.87958 0.0
H832 H 0.70299 0.20767 0.86883 0.0
H833 H 0.67657 0.17335 0.88561 0.0
H834 H 0.70862 0.15043 0.81316 0.0
H835 H 0.7354 0.18465 0.79662 0.0
C836 C 0.78551 0.27258 0.66639 0.0
C837 C 0.79616 0.26298 0.65453 0.0
C838 C 0.77238 0.26569 0.70264 0.0
C839 C 0.76963 0.24902 0.72689 0.0
C840 C 0.7787 0.23829 0.71214 0.0
C841 C 0.792 0.24531 0.67639 0.0
C842 C 0.76047 0.24464 0.77171 0.0
C843 C 0.74412 0.22571 0.77991 0.0
C844 C 0.76979 0.25797 0.80779 0.0
C845 C 0.78749 0.2779 0.80101 0.0
C846 C 0.80557 0.27982 0.7861 0.0
C847 C 0.822 0.29867 0.77827 0.0
C848 C 0.82058 0.3157 0.78576 0.0
C849 C 0.80275 0.3139 0.80132 0.0
C850 C 0.78625 0.29507 0.80905 0.0
C851 C 0.74872 0.19962 0.9513 0.0
C852 C 0.73511 0.1999 0.98183 0.0
C853 C 0.7541 0.21145 0.91312 0.0
C854 C 0.74601 0.22376 0.905 0.0
C855 C 0.73389 0.22552 0.93727 0.0
C856 C 0.72844 0.21361 0.97565 0.0
C857 C 0.74808 0.23211 0.85985 0.0
C858 C 0.76334 0.25158 0.85163 0.0
C859 C 0.73771 0.21932 0.82372 0.0
C860 C 0.72122 0.19871 0.83162 0.0
C861 C 0.70442 0.1953 0.85659 0.0
C862 C 0.6894 0.17587 0.86609 0.0
C863 C 0.69093 0.15972 0.85051 0.0
C864 C 0.70745 0.16296 0.82518 0.0
C865 C 0.72254 0.18237 0.81566 0.0
H866 H 0.67932 0.14469 0.85803 0.0
H867 H 0.8333 0.33028 0.77961 0.0
H868 H 0.50332 0.79046 0.98846 0.0
H869 H 0.49612 0.76809 0.05244 0.0
H870 H 0.55814 0.78506 0.06018 0.0
H871 H 0.5655 0.80752 0.99674 0.0
H872 H 0.53178 0.74466 0.08254 0.0
H873 H 0.54396 0.81175 0.1149 0.0
H874 H 0.53625 0.83876 0.10524 0.0
H875 H 0.47687 0.80046 0.15353 0.0
H876 H 0.48415 0.77309 0.16266 0.0
H877 H 0.57092 0.75307 0.2904 0.0
H878 H 0.562 0.76397 0.22212 0.0
H879 H 0.50038 0.7336 0.26254 0.0
H880 H 0.50919 0.72252 0.3315 0.0
H881 H 0.51657 0.77343 0.21519 0.0
H882 H 0.50868 0.70848 0.19924 0.0
H883 H 0.51903 0.68349 0.21078 0.0
H884 H 0.5716 0.71856 0.13222 0.0
H885 H 0.56179 0.74399 0.12105 0.0
C886 C 0.51532 0.78895 0.003 0.0
C887 C 0.53505 0.80094 0.98834 0.0
C888 C 0.51115 0.77619 0.03944 0.0
C889 C 0.52665 0.77519 0.06116 0.0
C890 C 0.54601 0.78568 0.04376 0.0
C891 C 0.55022 0.79859 0.00775 0.0
C892 C 0.52365 0.76592 0.10565 0.0
C893 C 0.52819 0.75072 0.1115 0.0
C894 C 0.5187 0.77373 0.14321 0.0
C895 C 0.5145 0.79032 0.13894 0.0
C896 C 0.52922 0.80906 0.1232 0.0
C897 C 0.52494 0.82443 0.11782 0.0
C898 C 0.50606 0.82131 0.12864 0.0
C899 C 0.49146 0.80284 0.14506 0.0
C900 C 0.49565 0.78739 0.15032 0.0
C901 C 0.55553 0.74906 0.28534 0.0
C902 C 0.54069 0.73665 0.31577 0.0
C903 C 0.55048 0.7553 0.24638 0.0
C904 C 0.53052 0.74922 0.23721 0.0
C905 C 0.51584 0.7383 0.26921 0.0
C906 C 0.5209 0.732 0.30844 0.0
C907 C 0.52519 0.75255 0.19203 0.0
C908 C 0.51927 0.76673 0.18611 0.0
C909 C 0.52892 0.74382 0.15437 0.0
C910 C 0.53452 0.72819 0.15946 0.0
C911 C 0.52249 0.71092 0.18459 0.0
C912 C 0.52827 0.69667 0.1911 0.0
C913 C 0.54597 0.69944 0.17227 0.0
C914 C 0.55789 0.71643 0.14677 0.0
C915 C 0.55221 0.73076 0.1403 0.0
H916 H 0.55044 0.68842 0.17741 0.0
H917 H 0.50276 0.83322 0.12439 0.0
H918 H 0.71322 0.50105 0.32784 0.0
H919 H 0.72676 0.48952 0.38742 0.0
H920 H 0.77254 0.55015 0.41266 0.0
H921 H 0.75907 0.56174 0.35363 0.0
H922 H 0.78531 0.52198 0.42607 0.0
H923 H 0.72887 0.53303 0.46435 0.0
H924 H 0.69406 0.52465 0.45189 0.0
H925 H 0.6741 0.46318 0.47982 0.0
H926 H 0.7088 0.47124 0.49202 0.0
H927 H 0.81097 0.56267 0.6312 0.0
H928 H 0.79151 0.55109 0.56257 0.0
H929 H 0.76614 0.49027 0.60664 0.0
H930 H 0.78574 0.50173 0.67593 0.0
H931 H 0.73944 0.50417 0.55595 0.0
H932 H 0.79668 0.49689 0.54279 0.0
H933 H 0.83183 0.50707 0.55669 0.0
H934 H 0.85043 0.5605 0.4806 0.0
H935 H 0.81537 0.55082 0.46701 0.0
C936 C 0.72653 0.51182 0.3452 0.0
C937 C 0.73492 0.53231 0.33689 0.0
C938 C 0.73424 0.50521 0.3791 0.0
C939 C 0.75048 0.51903 0.40457 0.0
C940 C 0.76 0.53927 0.39324 0.0
C941 C 0.75221 0.54589 0.35981 0.0
C942 C 0.7556 0.51341 0.4476 0.0
C943 C 0.7752 0.51763 0.45434 0.0
C944 C 0.74221 0.50731 0.48421 0.0
C945 C 0.72136 0.50269 0.4788 0.0
C946 C 0.71702 0.51774 0.46786 0.0
C947 C 0.69732 0.51305 0.4608 0.0
C948 C 0.68185 0.49339 0.46506 0.0
C949 C 0.68606 0.4784 0.47658 0.0
C950 C 0.70573 0.48302 0.48359 0.0
C951 C 0.80094 0.54685 0.62688 0.0
C952 C 0.80011 0.53309 0.65853 0.0
C953 C 0.78984 0.54027 0.58771 0.0
C954 C 0.77772 0.51986 0.57957 0.0
C955 C 0.77552 0.50607 0.61255 0.0
C956 C 0.78672 0.51267 0.65196 0.0
C957 C 0.76933 0.51347 0.53445 0.0
C958 C 0.74923 0.50729 0.52742 0.0
C959 C 0.7822 0.51754 0.49749 0.0
C960 C 0.80337 0.52313 0.50397 0.0
C961 C 0.80826 0.51085 0.52917 0.0
C962 C 0.82817 0.51654 0.53702 0.0
C963 C 0.84335 0.53443 0.51956 0.0
C964 C 0.83865 0.54663 0.49407 0.0
C965 C 0.81875 0.54103 0.48621 0.0
H966 H 0.85876 0.53883 0.52576 0.0
H967 H 0.66661 0.48976 0.45944 0.0
H968 H 0.19043 0.75295 0.69783 0.0
H969 H 0.21659 0.76876 0.75364 0.0
H970 H 0.23368 0.72434 0.73192 0.0
H971 H 0.20732 0.70836 0.67522 0.0
H972 H 0.22643 0.72878 0.82178 0.0
H973 H 0.26738 0.77025 0.70632 0.0
H974 H 0.27637 0.79103 0.63836 0.0
H975 H 0.26449 0.83273 0.70643 0.0
H976 H 0.25512 0.81208 0.77459 0.0
H977 H 0.28602 0.79447 0.00777 0.0
H978 H 0.27807 0.77401 0.93973 0.0
H979 H 0.24269 0.79887 0.89149 0.0
H980 H 0.25042 0.81911 0.95866 0.0
H981 H 0.27202 0.80172 0.83037 0.0
H982 H 0.2206 0.75341 0.93323 0.0
H983 H 0.21016 0.73218 0.00066 0.0
H984 H 0.24204 0.70348 0.9549 0.0
H985 H 0.25285 0.72474 0.88741 0.0
C986 C 0.19996 0.74673 0.70432 0.0
C987 C 0.19684 0.72942 0.68246 0.0
C988 C 0.215 0.75585 0.73597 0.0
C989 C 0.22718 0.74781 0.74651 0.0
C990 C 0.22451 0.73082 0.72387 0.0
C991 C 0.20953 0.72177 0.69155 0.0
C992 C 0.24102 0.7563 0.78464 0.0
C993 C 0.23697 0.74462 0.82337 0.0
C994 C 0.2548 0.77692 0.78653 0.0
C995 C 0.26058 0.78959 0.7457 0.0
C996 C 0.2666 0.78381 0.70678 0.0
C997 C 0.27177 0.79557 0.66819 0.0
C998 C 0.27102 0.81319 0.66809 0.0
C999 C 0.26511 0.8191 0.70659 0.0
C1000 C 0.25992 0.80739 0.74527 0.0
C1001 C 0.27629 0.79528 0.9829 0.0
C1002 C 0.26897 0.8085 0.98823 0.0
C1003 C 0.27187 0.78369 0.9441 0.0
C1004 C 0.2601 0.78525 0.91048 0.0
C1005 C 0.25208 0.79773 0.91685 0.0
C1006 C 0.25641 0.8092 0.95536 0.0
C1007 C 0.25615 0.77444 0.86772 0.0
C1008 C 0.26223 0.78574 0.82824 0.0
C1009 C 0.24426 0.75353 0.86518 0.0
C1010 C 0.23776 0.74084 0.9057 0.0
C1011 C 0.22553 0.7427 0.93779 0.0
C1012 C 0.21951 0.73064 0.97595 0.0
C1013 C 0.2255 0.71654 0.98215 0.0
C1014 C 0.23747 0.71444 0.95012 0.0
C1015 C 0.24354 0.72649 0.91193 0.0
H1016 H 0.22082 0.70721 0.0117 0.0
H1017 H 0.27502 0.82227 0.63817 0.0
H1018 H 0.50084 0.21081 0.00125 0.0
H1019 H 0.51562 0.23246 0.06679 0.0
H1020 H 0.45732 0.22024 0.10824 0.0
H1021 H 0.44252 0.19869 0.04349 0.0
H1022 H 0.50192 0.26544 0.11852 0.0
H1023 H 0.45601 0.18897 0.19334 0.0
H1024 H 0.4462 0.15424 0.17494 0.0
H1025 H 0.50315 0.17394 0.11377 0.0
H1026 H 0.51339 0.20875 0.13246 0.0
H1027 H 0.44052 0.2374 0.31425 0.0
H1028 H 0.45528 0.22694 0.25581 0.0
H1029 H 0.51356 0.27555 0.28926 0.0
H1030 H 0.49883 0.286 0.34843 0.0
H1031 H 0.48581 0.21764 0.24381 0.0
H1032 H 0.53265 0.29687 0.18592 0.0
H1033 H 0.53681 0.33015 0.19965 0.0
H1034 H 0.47402 0.30379 0.22332 0.0
H1035 H 0.4695 0.27044 0.20905 0.0
C1036 C 0.49131 0.21333 0.02357 0.0
C1037 C 0.47051 0.20288 0.0179 0.0
C1038 C 0.49977 0.22569 0.06081 0.0
C1039 C 0.48747 0.22771 0.09218 0.0
C1040 C 0.46699 0.2188 0.08415 0.0
C1041 C 0.45855 0.20642 0.04736 0.0
C1042 C 0.49465 0.23577 0.13719 0.0
C1043 C 0.49946 0.25537 0.14615 0.0
C1044 C 0.491 0.22241 0.17291 0.0
C1045 C 0.48544 0.20143 0.16424 0.0
C1046 C 0.46651 0.18585 0.17645 0.0
C1047 C 0.46086 0.16617 0.16584 0.0
C1048 C 0.47403 0.16189 0.14316 0.0
C1049 C 0.49295 0.17727 0.13131 0.0
C1050 C 0.49869 0.19698 0.14191 0.0
C1051 C 0.45654 0.24549 0.31005 0.0
C1052 C 0.46851 0.26265 0.3352 0.0
C1053 C 0.46499 0.23943 0.27695 0.0
C1054 C 0.48547 0.25061 0.2681 0.0
C1055 C 0.49773 0.26678 0.29572 0.0
C1056 C 0.48928 0.27272 0.32936 0.0
C1057 C 0.49279 0.24726 0.22526 0.0
C1058 C 0.49011 0.22833 0.2167 0.0
C1059 C 0.4984 0.26126 0.18994 0.0
C1060 C 0.50081 0.28123 0.19692 0.0
C1061 C 0.51975 0.29823 0.19385 0.0
C1062 C 0.52216 0.31708 0.20173 0.0
C1063 C 0.5057 0.31908 0.2125 0.0
C1064 C 0.48677 0.30223 0.21508 0.0
C1065 C 0.48427 0.28336 0.20705 0.0
H1066 H 0.50762 0.33367 0.21875 0.0
H1067 H 0.46959 0.14666 0.13475 0.0
H1068 H 0.35073 0.49498 0.38639 0.0
H1069 H 0.38231 0.52585 0.39497 0.0
H1070 H 0.3925 0.5274 0.25264 0.0
H1071 H 0.36092 0.49629 0.24364 0.0
H1072 H 0.4258 0.53625 0.30061 0.0
H1073 H 0.37695 0.55691 0.29776 0.0
H1074 H 0.34635 0.55671 0.32099 0.0
H1075 H 0.36936 0.5734 0.45444 0.0
H1076 H 0.4 0.57342 0.43215 0.0
H1077 H 0.49993 0.63739 0.27734 0.0
H1078 H 0.46931 0.60532 0.27308 0.0
H1079 H 0.46281 0.60511 0.41656 0.0
H1080 H 0.49356 0.63737 0.42128 0.0
H1081 H 0.42793 0.59531 0.37057 0.0
H1082 H 0.47738 0.57563 0.37221 0.0
H1083 H 0.50802 0.57612 0.34807 0.0
H1084 H 0.48389 0.55789 0.21592 0.0
H1085 H 0.4532 0.55757 0.23909 0.0
C1086 C 0.35967 0.50181 0.35682 0.0
C1087 C 0.35324 0.49317 0.31424 0.0
C1088 C 0.37769 0.51952 0.36182 0.0
C1089 C 0.38962 0.52902 0.32438 0.0
C1090 C 0.38347 0.5203 0.28194 0.0
C1091 C 0.3654 0.50256 0.27686 0.0
C1092 C 0.40848 0.54811 0.3296 0.0
C1093 C 0.42625 0.54924 0.31539 0.0
C1094 C 0.40907 0.56489 0.34993 0.0
C1095 C 0.39069 0.56496 0.36339 0.0
C1096 C 0.37542 0.56037 0.33215 0.0
C1097 C 0.35808 0.56032 0.34513 0.0
C1098 C 0.35589 0.56498 0.38919 0.0
C1099 C 0.37106 0.56976 0.42033 0.0
C1100 C 0.38843 0.56981 0.40754 0.0
C1101 C 0.49207 0.63055 0.3081 0.0
C1102 C 0.49922 0.63994 0.3497 0.0
C1103 C 0.4746 0.61217 0.30557 0.0
C1104 C 0.46391 0.6028 0.34453 0.0
C1105 C 0.47091 0.61212 0.38613 0.0
C1106 C 0.4885 0.63049 0.38876 0.0
C1107 C 0.44522 0.58345 0.34142 0.0
C1108 C 0.42748 0.58228 0.35599 0.0
C1109 C 0.44465 0.56666 0.32131 0.0
C1110 C 0.46306 0.56676 0.30729 0.0
C1111 C 0.47867 0.57189 0.33789 0.0
C1112 C 0.49603 0.5721 0.32441 0.0
C1113 C 0.49792 0.56709 0.28046 0.0
C1114 C 0.48242 0.56179 0.24994 0.0
C1115 C 0.46502 0.56157 0.26324 0.0
H1116 H 0.51137 0.56726 0.27009 0.0
H1117 H 0.34245 0.56493 0.39918 0.0
H1118 H 0.8667 0.50665 0.61092 0.0
H1119 H 0.86979 0.47713 0.60066 0.0
H1120 H 0.86469 0.46703 0.74335 0.0
H1121 H 0.86198 0.49684 0.75412 0.0
H1122 H 0.89249 0.45981 0.70756 0.0
H1123 H 0.82468 0.44161 0.67549 0.0
H1124 H 0.7982 0.44493 0.6378 0.0
H1125 H 0.81792 0.4359 0.51011 0.0
H1126 H 0.84471 0.43281 0.54702 0.0
H1127 H 0.8604 0.35666 0.71227 0.0
H1128 H 0.86387 0.38957 0.71929 0.0
H1129 H 0.86983 0.39705 0.57592 0.0
H1130 H 0.8662 0.364 0.56841 0.0
H1131 H 0.84303 0.40638 0.60931 0.0
H1132 H 0.90984 0.42269 0.64245 0.0
H1133 H 0.93621 0.41941 0.6808 0.0
H1134 H 0.9181 0.43165 0.80711 0.0
H1135 H 0.89143 0.43473 0.7696 0.0
C1136 C 0.86639 0.49827 0.64023 0.0
C1137 C 0.86392 0.50402 0.68336 0.0
C1138 C 0.8681 0.48136 0.63425 0.0
C1139 C 0.86713 0.46971 0.67117 0.0
C1140 C 0.86541 0.47579 0.7144 0.0
C1141 C 0.86381 0.4928 0.72047 0.0
C1142 C 0.86712 0.45079 0.66453 0.0
C1143 C 0.88156 0.44803 0.68646 0.0
C1144 C 0.85311 0.43562 0.63619 0.0
C1145 C 0.83682 0.43718 0.61399 0.0
C1146 C 0.82345 0.44046 0.63935 0.0
C1147 C 0.80837 0.44229 0.61813 0.0
C1148 C 0.80641 0.44069 0.57158 0.0
C1149 C 0.81947 0.43717 0.54616 0.0
C1150 C 0.8346 0.43537 0.56722 0.0
C1151 C 0.86263 0.36534 0.68219 0.0
C1152 C 0.86301 0.35767 0.63974 0.0
C1153 C 0.86469 0.3842 0.68632 0.0
C1154 C 0.86727 0.39581 0.64816 0.0
C1155 C 0.86788 0.38832 0.60579 0.0
C1156 C 0.86586 0.36946 0.6016 0.0
C1157 C 0.86837 0.41535 0.65244 0.0
C1158 C 0.85406 0.4182 0.63015 0.0
C1159 C 0.88246 0.43055 0.68056 0.0
C1160 C 0.89852 0.42877 0.70324 0.0
C1161 C 0.91138 0.42452 0.67845 0.0
C1162 C 0.9264 0.42273 0.70003 0.0
C1163 C 0.9288 0.42527 0.74638 0.0
C1164 C 0.91621 0.42967 0.77122 0.0
C1165 C 0.90115 0.43146 0.74981 0.0
H1166 H 0.94043 0.42388 0.76302 0.0
H1167 H 0.79474 0.44212 0.55521 0.0
H1168 H 0.4946 0.8652 0.91685 0.0
H1169 H 0.46627 0.8697 0.93315 0.0
H1170 H 0.47861 0.87194 0.07458 0.0
H1171 H 0.50669 0.86695 0.05869 0.0
H1172 H 0.44025 0.84861 0.05963 0.0
H1173 H 0.4891 0.9144 0.01504 0.0
H1174 H 0.51488 0.93996 0.96634 0.0
H1175 H 0.47228 0.92394 0.86005 0.0
H1176 H 0.4463 0.89809 0.90791 0.0
H1177 H 0.3644 0.87285 0.10584 0.0
H1178 H 0.39737 0.87582 0.1028 0.0
H1179 H 0.39396 0.87258 0.95857 0.0
H1180 H 0.36149 0.8701 0.96114 0.0
H1181 H 0.43011 0.89978 0.98395 0.0
H1182 H 0.3828 0.83153 0.02488 0.0
H1183 H 0.35693 0.80536 0.07238 0.0
H1184 H 0.39678 0.8259 0.18477 0.0
H1185 H 0.42281 0.85235 0.13801 0.0
C1186 C 0.49138 0.86676 0.95142 0.0
C1187 C 0.50296 0.86576 0.98643 0.0
C1188 C 0.47523 0.86944 0.96069 0.0
C1189 C 0.47048 0.87145 0.00508 0.0
C1190 C 0.48203 0.87049 0.04008 0.0
C1191 C 0.49811 0.86767 0.03088 0.0
C1192 C 0.45302 0.8738 0.01494 0.0
C1193 C 0.43822 0.86005 0.04375 0.0
C1194 C 0.45022 0.88855 0.99378 0.0
C1195 C 0.46578 0.90421 0.96501 0.0
C1196 C 0.48525 0.91624 0.9812 0.0
C1197 C 0.4999 0.93079 0.95375 0.0
C1198 C 0.49523 0.93355 0.91011 0.0
C1199 C 0.47588 0.92179 0.89386 0.0
C1200 C 0.46118 0.9072 0.92116 0.0
C1201 C 0.37077 0.87296 0.07349 0.0
C1202 C 0.36022 0.87111 0.03377 0.0
C1203 C 0.38957 0.87457 0.07182 0.0
C1204 C 0.39802 0.87418 0.03045 0.0
C1205 C 0.38776 0.87294 0.99085 0.0
C1206 C 0.36911 0.87143 0.99246 0.0
C1207 C 0.41719 0.87432 0.02777 0.0
C1208 C 0.43231 0.88855 0.00034 0.0
C1209 C 0.42027 0.85998 0.0501 0.0
C1210 C 0.40465 0.84405 0.07812 0.0
C1211 C 0.38599 0.83055 0.05981 0.0
C1212 C 0.37131 0.81566 0.08657 0.0
C1213 C 0.37519 0.81401 0.1316 0.0
C1214 C 0.39378 0.82722 0.14991 0.0
C1215 C 0.4085 0.84216 0.1233 0.0
H1216 H 0.36381 0.80247 0.15226 0.0
H1217 H 0.50659 0.94482 0.88891 0.0
H1218 H 0.63617 0.50873 0.39771 0.0
H1219 H 0.60316 0.47947 0.40623 0.0
H1220 H 0.60375 0.46486 0.26697 0.0
H1221 H 0.63639 0.49462 0.25778 0.0
H1222 H 0.56819 0.4575 0.28875 0.0
H1223 H 0.61642 0.44309 0.35673 0.0
H1224 H 0.64322 0.44881 0.4096 0.0
H1225 H 0.60535 0.44273 0.52053 0.0
H1226 H 0.57844 0.4373 0.46832 0.0
H1227 H 0.50182 0.35438 0.28442 0.0
H1228 H 0.53061 0.38776 0.28268 0.0
H1229 H 0.52087 0.39618 0.42124 0.0
H1230 H 0.49205 0.36245 0.42362 0.0
H1231 H 0.55923 0.40818 0.40555 0.0
H1232 H 0.51001 0.41952 0.33774 0.0
H1233 H 0.48306 0.41338 0.28505 0.0
H1234 H 0.52248 0.42476 0.17393 0.0
H1235 H 0.54961 0.4307 0.22594 0.0
C1236 C 0.62918 0.49936 0.36882 0.0
C1237 C 0.63891 0.50386 0.32714 0.0
C1238 C 0.61035 0.48259 0.37379 0.0
C1239 C 0.60115 0.4697 0.33751 0.0
C1240 C 0.61058 0.47455 0.2955 0.0
C1241 C 0.62924 0.49154 0.29029 0.0
C1242 C 0.58204 0.45083 0.34341 0.0
C1243 C 0.5663 0.44664 0.31404 0.0
C1244 C 0.57933 0.43689 0.37731 0.0
C1245 C 0.59549 0.43998 0.40861 0.0
C1246 C 0.61386 0.4431 0.39239 0.0
C1247 C 0.62906 0.44628 0.42224 0.0
C1248 C 0.62599 0.44616 0.46838 0.0
C1249 C 0.60771 0.44284 0.48478 0.0
C1250 C 0.59248 0.43971 0.45509 0.0
C1251 C 0.50566 0.36332 0.31455 0.0
C1252 C 0.49457 0.35573 0.35418 0.0
C1253 C 0.5221 0.38247 0.31339 0.0
C1254 C 0.52771 0.39458 0.35162 0.0
C1255 C 0.51672 0.3871 0.39129 0.0
C1256 C 0.50025 0.36785 0.39257 0.0
C1257 C 0.54555 0.41471 0.35033 0.0
C1258 C 0.56105 0.41913 0.38056 0.0
C1259 C 0.54805 0.42882 0.31717 0.0
C1260 C 0.53181 0.42543 0.28577 0.0
C1261 C 0.5129 0.42059 0.30207 0.0
C1262 C 0.49759 0.41716 0.27232 0.0
C1263 C 0.50105 0.41865 0.22617 0.0
C1264 C 0.51983 0.42361 0.20969 0.0
C1265 C 0.53518 0.42704 0.23929 0.0
H1266 H 0.48917 0.41598 0.2032 0.0
H1267 H 0.63773 0.44859 0.49148 0.0
H1268 H 0.12719 0.629 0.57288 0.0
H1269 H 0.12476 0.59625 0.57333 0.0
H1270 H 0.13387 0.60049 0.71629 0.0
H1271 H 0.13631 0.63301 0.7163 0.0
H1272 H 0.1583 0.58998 0.67244 0.0
H1273 H 0.08872 0.57069 0.67494 0.0
H1274 H 0.05843 0.5699 0.64693 0.0
H1275 H 0.06306 0.54433 0.52317 0.0
H1276 H 0.09356 0.54523 0.55024 0.0
H1277 H 0.1314 0.49355 0.74213 0.0
H1278 H 0.13022 0.52409 0.73022 0.0
H1279 H 0.12472 0.51341 0.58786 0.0
H1280 H 0.12602 0.48282 0.59928 0.0
H1281 H 0.0992 0.52708 0.62327 0.0
H1282 H 0.16767 0.54476 0.62166 0.0
H1283 H 0.19785 0.54528 0.64939 0.0
H1284 H 0.19559 0.5741 0.77017 0.0
H1285 H 0.16517 0.57346 0.74347 0.0
C1286 C 0.12854 0.62289 0.60444 0.0
C1287 C 0.13199 0.63366 0.64453 0.0
C1288 C 0.1271 0.60417 0.60463 0.0
C1289 C 0.12913 0.59598 0.64487 0.0
C1290 C 0.13233 0.60659 0.68488 0.0
C1291 C 0.13365 0.62517 0.68478 0.0
C1292 C 0.12859 0.57664 0.64559 0.0
C1293 C 0.14531 0.57621 0.66204 0.0
C1294 C 0.11187 0.5588 0.6307 0.0
C1295 C 0.09355 0.55825 0.6144 0.0
C1296 C 0.08339 0.56508 0.64159 0.0
C1297 C 0.06616 0.56457 0.62592 0.0
C1298 C 0.05886 0.55713 0.58324 0.0
C1299 C 0.06875 0.55012 0.55619 0.0
C1300 C 0.086 0.55062 0.57168 0.0
C1301 C 0.12972 0.49753 0.7083 0.0
C1302 C 0.12893 0.4858 0.67163 0.0
C1303 C 0.12909 0.51501 0.70157 0.0
C1304 C 0.12756 0.52103 0.65815 0.0
C1305 C 0.12592 0.50897 0.6216 0.0
C1306 C 0.12674 0.49156 0.62823 0.0
C1307 C 0.12872 0.54044 0.6511 0.0
C1308 C 0.11222 0.5409 0.63332 0.0
C1309 C 0.14567 0.55837 0.6646 0.0
C1310 C 0.16402 0.55889 0.68074 0.0
C1311 C 0.1735 0.55105 0.65432 0.0
C1312 C 0.19067 0.5514 0.66981 0.0
C1313 C 0.19861 0.55968 0.71157 0.0
C1314 C 0.18941 0.56767 0.73786 0.0
C1315 C 0.17221 0.56734 0.72254 0.0
H1316 H 0.21191 0.55994 0.72351 0.0
H1317 H 0.04551 0.55674 0.57118 0.0
H1318 H 0.64336 0.13816 0.91941 0.0
H1319 H 0.61043 0.13417 0.90728 0.0
H1320 H 0.60009 0.12941 0.04987 0.0
H1321 H 0.63288 0.13308 0.06239 0.0
H1322 H 0.56734 0.10256 0.00428 0.0
H1323 H 0.61496 0.17302 0.99523 0.0
H1324 H 0.64475 0.20253 0.96544 0.0
H1325 H 0.61913 0.18977 0.83371 0.0
H1326 H 0.58929 0.16001 0.86265 0.0
H1327 H 0.49736 0.13294 0.04226 0.0
H1328 H 0.52635 0.12874 0.03732 0.0
H1329 H 0.52568 0.13283 0.89332 0.0
H1330 H 0.49652 0.13721 0.89791 0.0
H1331 H 0.56264 0.15702 0.9286 0.0
H1332 H 0.51286 0.08886 0.94048 0.0
H1333 H 0.48314 0.05957 0.9711 0.0
H1334 H 0.51253 0.06793 0.0977 0.0
H1335 H 0.54234 0.09746 0.06806 0.0
C1336 C 0.63406 0.13614 0.94824 0.0
C1337 C 0.64083 0.13608 0.99195 0.0
C1338 C 0.61525 0.1339 0.9412 0.0
C1339 C 0.60292 0.13172 0.97769 0.0
C1340 C 0.60939 0.13108 0.02124 0.0
C1341 C 0.62817 0.13327 0.02834 0.0
C1342 C 0.58358 0.13084 0.97085 0.0
C1343 C 0.5663 0.1145 0.98797 0.0
C1344 C 0.58219 0.14615 0.9483 0.0
C1345 C 0.6 0.16417 0.931 0.0
C1346 C 0.61574 0.17643 0.95985 0.0
C1347 C 0.63263 0.19321 0.94313 0.0
C1348 C 0.63386 0.19799 0.89768 0.0
C1349 C 0.61817 0.18603 0.86889 0.0
C1350 C 0.60127 0.16922 0.88543 0.0
C1351 C 0.50321 0.13278 0.00941 0.0
C1352 C 0.49462 0.13544 0.97045 0.0
C1353 C 0.51974 0.13025 0.00667 0.0
C1354 C 0.52804 0.13027 0.96494 0.0
C1355 C 0.51942 0.13269 0.92584 0.0
C1356 C 0.50274 0.13512 0.92853 0.0
C1357 C 0.54642 0.12893 0.96294 0.0
C1358 C 0.56357 0.14488 0.94421 0.0
C1359 C 0.54769 0.11327 0.98409 0.0
C1360 C 0.52981 0.09546 0.00208 0.0
C1361 C 0.51294 0.08455 0.97495 0.0
C1362 C 0.49608 0.06788 0.99212 0.0
C1363 C 0.49593 0.06191 0.03634 0.0
C1364 C 0.51266 0.07258 0.06345 0.0
C1365 C 0.52956 0.08926 0.04646 0.0
H1366 H 0.48286 0.04901 0.04957 0.0
H1367 H 0.64695 0.21097 0.88479 0.0
loop_
_geom_bond_atom_site_label_1
_geom_bond_atom_site_label_2
_geom_bond_distance
_geom_bond_site_symmetry_2
_ccdc_geom_bond_type
C0 O1 1.306 . S
C0 O3 1.160 . S
O1 C0 1.306 . S
O1 Cd2 2.228 . S
Cd2 O1 2.228 . S
Cd2 O6 2.273 . S
Cd2 O10 2.277 . S
O3 C0 1.160 . S
O3 Cd4 2.203 . S
Cd4 O3 2.203 . S
Cd4 O6 2.411 . S
Cd4 O7 2.333 . S
Cd4 O8 2.352 . S
Cd4 O12 2.277 . S
Cd4 O13 2.356 . S
C5 O10 1.209 . S
C5 O12 1.226 . S
O6 Cd2 2.273 . S
O6 Cd4 2.411 . S
O6 C9 1.320 . S
O7 Cd4 2.333 . S
O7 C9 1.214 . S
O8 Cd4 2.352 . S
O8 C11 1.258 . S
C9 O6 1.320 . S
C9 O7 1.214 . S
O10 Cd2 2.277 . S
O10 C5 1.209 . S
C11 O8 1.258 . S
C11 O13 1.282 . S
O12 Cd4 2.277 . S
O12 C5 1.226 . S
O13 Cd4 2.356 . S
O13 C11 1.282 . S
C14 O15 1.306 . S
C14 O17 1.160 . S
O15 C14 1.306 . S
O15 Cd16 2.228 . S
Cd16 O15 2.228 . S
Cd16 O20 2.273 . S
Cd16 O24 2.277 . S
O17 C14 1.160 . S
O17 Cd18 2.203 . S
Cd18 O17 2.203 . S
Cd18 O20 2.411 . S
Cd18 O21 2.333 . S
Cd18 O22 2.352 . S
Cd18 O26 2.277 . S
Cd18 O27 2.356 . S
C19 O24 1.209 . S
C19 O26 1.226 . S
O20 Cd16 2.273 . S
O20 Cd18 2.411 . S
O20 C23 1.320 . S
O21 Cd18 2.333 . S
O21 C23 1.214 . S
O22 Cd18 2.352 . S
O22 C25 1.258 . S
C23 O20 1.320 . S
C23 O21 1.214 . S
O24 Cd16 2.277 . S
O24 C19 1.209 . S
C25 O22 1.258 . S
C25 O27 1.282 . S
O26 Cd18 2.277 . S
O26 C19 1.226 . S
O27 Cd18 2.356 . S
O27 C25 1.282 . S
C28 O29 1.306 . S
C28 O31 1.160 . S
O29 C28 1.306 . S
O29 Cd30 2.228 1_556 S
Cd30 O29 2.228 1_554 S
Cd30 O34 2.273 . S
Cd30 O38 2.278 . S
O31 C28 1.160 . S
O31 Cd32 2.203 . S
Cd32 O31 2.203 . S
Cd32 O34 2.411 1_556 S
Cd32 O35 2.333 . S
Cd32 O36 2.352 . S
Cd32 O40 2.277 . S
Cd32 O41 2.356 . S
C33 O38 1.207 1_556 S
C33 O40 1.226 . S
O34 Cd30 2.273 . S
O34 Cd32 2.411 1_554 S
O34 C37 1.320 . S
O35 Cd32 2.333 . S
O35 C37 1.214 1_556 S
O36 Cd32 2.352 . S
O36 C39 1.258 . S
C37 O34 1.320 . S
C37 O35 1.214 1_554 S
O38 Cd30 2.278 . S
O38 C33 1.207 1_554 S
C39 O36 1.258 . S
C39 O41 1.282 . S
O40 Cd32 2.277 . S
O40 C33 1.226 . S
O41 Cd32 2.356 . S
O41 C39 1.282 . S
C42 O43 1.306 . S
C42 O45 1.160 . S
O43 C42 1.306 . S
O43 Cd44 2.228 . S
Cd44 O43 2.228 . S
Cd44 O48 2.273 . S
Cd44 O52 2.277 . S
O45 C42 1.160 . S
O45 Cd46 2.203 . S
Cd46 O45 2.203 . S
Cd46 O48 2.411 . S
Cd46 O49 2.333 . S
Cd46 O50 2.352 . S
Cd46 O54 2.277 . S
Cd46 O55 2.356 . S
C47 O52 1.209 . S
C47 O54 1.226 . S
O48 Cd44 2.273 . S
O48 Cd46 2.411 . S
O48 C51 1.320 . S
O49 Cd46 2.333 . S
O49 C51 1.214 . S
O50 Cd46 2.352 . S
O50 C53 1.258 . S
C51 O48 1.320 . S
C51 O49 1.214 . S
O52 Cd44 2.277 . S
O52 C47 1.209 . S
C53 O50 1.258 . S
C53 O55 1.282 . S
O54 Cd46 2.277 . S
O54 C47 1.226 . S
O55 Cd46 2.356 . S
O55 C53 1.282 . S
C56 O57 1.306 . S
C56 O59 1.160 . S
O57 C56 1.306 . S
O57 Cd58 2.228 . S
Cd58 O57 2.228 . S
Cd58 O62 2.273 . S
Cd58 O66 2.277 . S
O59 C56 1.160 . S
O59 Cd60 2.203 . S
Cd60 O59 2.203 . S
Cd60 O62 2.411 . S
Cd60 O63 2.333 . S
Cd60 O64 2.352 . S
Cd60 O68 2.277 . S
Cd60 O69 2.356 . S
C61 O66 1.209 . S
C61 O68 1.226 . S
O62 Cd58 2.273 . S
O62 Cd60 2.411 . S
O62 C65 1.320 . S
O63 Cd60 2.333 . S
O63 C65 1.214 . S
O64 Cd60 2.352 . S
O64 C67 1.258 . S
C65 O62 1.320 . S
C65 O63 1.214 . S
O66 Cd58 2.277 . S
O66 C61 1.209 . S
C67 O64 1.258 . S
C67 O69 1.282 . S
O68 Cd60 2.277 . S
O68 C61 1.226 . S
O69 Cd60 2.356 . S
O69 C67 1.282 . S
C70 O71 1.306 . S
C70 O73 1.160 . S
O71 C70 1.306 . S
O71 Cd72 2.228 1_556 S
Cd72 O71 2.228 1_554 S
Cd72 O76 2.273 . S
Cd72 O80 2.278 . S
O73 C70 1.160 . S
O73 Cd74 2.203 . S
Cd74 O73 2.203 . S
Cd74 O76 2.411 1_556 S
Cd74 O77 2.333 . S
Cd74 O78 2.352 . S
Cd74 O82 2.277 . S
Cd74 O83 2.356 . S
C75 O80 1.207 1_556 S
C75 O82 1.226 . S
O76 Cd72 2.273 . S
O76 Cd74 2.411 1_554 S
O76 C79 1.320 . S
O77 Cd74 2.333 . S
O77 C79 1.214 1_556 S
O78 Cd74 2.352 . S
O78 C81 1.258 . S
C79 O76 1.320 . S
C79 O77 1.214 1_554 S
O80 Cd72 2.278 . S
O80 C75 1.207 1_554 S
C81 O78 1.258 . S
C81 O83 1.282 . S
O82 Cd74 2.277 . S
O82 C75 1.226 . S
O83 Cd74 2.356 . S
O83 C81 1.282 . S
C84 O85 1.306 . S
C84 O87 1.160 . S
O85 C84 1.306 . S
O85 Cd86 2.228 . S
Cd86 O85 2.228 . S
Cd86 O90 2.273 . S
Cd86 O94 2.277 . S
O87 C84 1.160 . S
O87 Cd88 2.203 . S
Cd88 O87 2.203 . S
Cd88 O90 2.411 . S
Cd88 O91 2.333 . S
Cd88 O92 2.352 . S
Cd88 O96 2.277 . S
Cd88 O97 2.356 . S
C89 O94 1.209 . S
C89 O96 1.226 . S
O90 Cd86 2.273 . S
O90 Cd88 2.411 . S
O90 C93 1.320 . S
O91 Cd88 2.333 . S
O91 C93 1.214 . S
O92 Cd88 2.352 . S
O92 C95 1.258 . S
C93 O90 1.320 . S
C93 O91 1.214 . S
O94 Cd86 2.277 . S
O94 C89 1.209 . S
C95 O92 1.258 . S
C95 O97 1.282 . S
O96 Cd88 2.277 . S
O96 C89 1.226 . S
O97 Cd88 2.356 . S
O97 C95 1.282 . S
C98 O99 1.306 . S
C98 O101 1.160 . S
O99 C98 1.306 . S
O99 Cd100 2.228 . S
Cd100 O99 2.228 . S
Cd100 O104 2.273 . S
Cd100 O108 2.277 . S
O101 C98 1.160 . S
O101 Cd102 2.203 . S
Cd102 O101 2.203 . S
Cd102 O104 2.411 . S
Cd102 O105 2.333 . S
Cd102 O106 2.352 . S
Cd102 O110 2.277 . S
Cd102 O111 2.356 . S
C103 O108 1.209 . S
C103 O110 1.226 . S
O104 Cd100 2.273 . S
O104 Cd102 2.411 . S
O104 C107 1.320 . S
O105 Cd102 2.333 . S
O105 C107 1.214 . S
O106 Cd102 2.352 . S
O106 C109 1.258 . S
C107 O104 1.320 . S
C107 O105 1.214 . S
O108 Cd100 2.277 . S
O108 C103 1.209 . S
C109 O106 1.258 . S
C109 O111 1.282 . S
O110 Cd102 2.277 . S
O110 C103 1.226 . S
O111 Cd102 2.356 . S
O111 C109 1.282 . S
C112 O113 1.306 . S
C112 O115 1.160 . S
O113 C112 1.306 . S
O113 Cd114 2.228 1_554 S
Cd114 O113 2.228 1_556 S
Cd114 O118 2.273 . S
Cd114 O122 2.278 . S
O115 C112 1.160 . S
O115 Cd116 2.203 . S
Cd116 O115 2.203 . S
Cd116 O118 2.411 1_554 S
Cd116 O119 2.333 . S
Cd116 O120 2.352 . S
Cd116 O124 2.277 . S
Cd116 O125 2.356 . S
C117 O122 1.207 1_554 S
C117 O124 1.226 . S
O118 Cd114 2.273 . S
O118 Cd116 2.411 1_556 S
O118 C121 1.320 . S
O119 Cd116 2.333 . S
O119 C121 1.214 1_554 S
O120 Cd116 2.352 . S
O120 C123 1.258 . S
C121 O118 1.320 . S
C121 O119 1.214 1_556 S
O122 Cd114 2.278 . S
O122 C117 1.207 1_556 S
C123 O120 1.258 . S
C123 O125 1.282 . S
O124 Cd116 2.277 . S
O124 C117 1.226 . S
O125 Cd116 2.356 . S
O125 C123 1.282 . S
C126 O127 1.306 . S
C126 O129 1.160 . S
O127 C126 1.306 . S
O127 Cd128 2.228 . S
Cd128 O127 2.228 . S
Cd128 O132 2.273 . S
Cd128 O136 2.277 . S
O129 C126 1.160 . S
O129 Cd130 2.203 . S
Cd130 O129 2.203 . S
Cd130 O132 2.411 . S
Cd130 O133 2.333 . S
Cd130 O134 2.352 . S
Cd130 O138 2.277 . S
Cd130 O139 2.356 . S
C131 O136 1.209 . S
C131 O138 1.226 . S
O132 Cd128 2.273 . S
O132 Cd130 2.411 . S
O132 C135 1.320 . S
O133 Cd130 2.333 . S
O133 C135 1.214 . S
O134 Cd130 2.352 . S
O134 C137 1.258 . S
C135 O132 1.320 . S
C135 O133 1.214 . S
O136 Cd128 2.277 . S
O136 C131 1.209 . S
C137 O134 1.258 . S
C137 O139 1.282 . S
O138 Cd130 2.277 . S
O138 C131 1.226 . S
O139 Cd130 2.356 . S
O139 C137 1.282 . S
C140 O141 1.306 . S
C140 O143 1.160 . S
O141 C140 1.306 . S
O141 Cd142 2.228 . S
Cd142 O141 2.228 . S
Cd142 O146 2.273 . S
Cd142 O150 2.277 . S
O143 C140 1.160 . S
O143 Cd144 2.203 . S
Cd144 O143 2.203 . S
Cd144 O146 2.411 . S
Cd144 O147 2.333 . S
Cd144 O148 2.352 . S
Cd144 O152 2.277 . S
Cd144 O153 2.356 . S
C145 O150 1.209 . S
C145 O152 1.226 . S
O146 Cd142 2.273 . S
O146 Cd144 2.411 . S
O146 C149 1.320 . S
O147 Cd144 2.333 . S
O147 C149 1.214 . S
O148 Cd144 2.352 . S
O148 C151 1.258 . S
C149 O146 1.320 . S
C149 O147 1.214 . S
O150 Cd142 2.277 . S
O150 C145 1.209 . S
C151 O148 1.258 . S
C151 O153 1.282 . S
O152 Cd144 2.277 . S
O152 C145 1.226 . S
O153 Cd144 2.356 . S
O153 C151 1.282 . S
C154 O155 1.306 . S
C154 O157 1.160 . S
O155 C154 1.306 . S
O155 Cd156 2.228 1_554 S
Cd156 O155 2.228 1_556 S
Cd156 O160 2.273 . S
Cd156 O164 2.278 . S
O157 C154 1.160 . S
O157 Cd158 2.203 . S
Cd158 O157 2.203 . S
Cd158 O160 2.411 1_554 S
Cd158 O161 2.333 . S
Cd158 O162 2.352 . S
Cd158 O166 2.277 . S
Cd158 O167 2.356 . S
C159 O164 1.207 1_554 S
C159 O166 1.226 . S
O160 Cd156 2.273 . S
O160 Cd158 2.411 1_556 S
O160 C163 1.320 . S
O161 Cd158 2.333 . S
O161 C163 1.214 1_554 S
O162 Cd158 2.352 . S
O162 C165 1.258 . S
C163 O160 1.320 . S
C163 O161 1.214 1_556 S
O164 Cd156 2.278 . S
O164 C159 1.207 1_556 S
C165 O162 1.258 . S
C165 O167 1.282 . S
O166 Cd158 2.277 . S
O166 C159 1.226 . S
O167 Cd158 2.356 . S
O167 C165 1.282 . S
H168 C186 0.951 . S
H169 C188 0.951 . S
H170 C190 0.950 . S
H171 C191 0.950 . S
H172 C193 0.950 . S
H173 C196 0.950 . S
H174 C197 0.950 . S
H175 C199 0.950 . S
H176 C200 0.950 . S
H177 C201 0.951 . S
H178 C203 0.951 . S
H179 C205 0.950 . S
H180 C206 0.950 . S
H181 C208 0.950 . S
H182 C211 0.950 . S
H183 C212 0.950 . S
H184 C214 0.950 . S
H185 C215 0.950 . S
C186 H168 0.951 . S
C186 C187 1.366 . S
C186 C188 1.388 . S
C187 C186 1.366 . S
C187 C191 1.385 . S
C188 H169 0.951 . S
C188 C186 1.388 . S
C188 C189 1.366 . S
C189 C188 1.366 . S
C189 C190 1.414 . S
C189 C192 1.499 . S
C190 H170 0.950 . S
C190 C189 1.414 . S
C190 C191 1.374 . S
C191 H171 0.950 . S
C191 C187 1.385 . S
C191 C190 1.374 . S
C192 C189 1.499 . S
C192 C193 1.373 . S
C192 C194 1.389 . S
C193 H172 0.950 . S
C193 C192 1.373 . S
C193 C209 1.377 . S
C194 C192 1.389 . S
C194 C195 1.524 . S
C194 C208 1.377 . S
C195 C194 1.524 . S
C195 C196 1.397 . S
C195 C200 1.363 . S
C196 H173 0.950 . S
C196 C195 1.397 . S
C196 C197 1.334 . S
C197 H174 0.950 . S
C197 C196 1.334 . S
C197 C198 1.287 . S
C198 C197 1.287 . S
C198 C199 1.524 . S
C198 H217 0.913 . S
C199 H175 0.950 . S
C199 C198 1.524 . S
C199 C200 1.415 . S
C200 H176 0.950 . S
C200 C195 1.363 . S
C200 C199 1.415 . S
C201 H177 0.951 . S
C201 C202 1.366 . S
C201 C203 1.388 . S
C202 C201 1.366 . S
C202 C206 1.385 . S
C203 H178 0.951 . S
C203 C201 1.388 . S
C203 C204 1.366 . S
C204 C203 1.366 . S
C204 C205 1.414 . S
C204 C207 1.499 . S
C205 H179 0.950 . S
C205 C204 1.414 . S
C205 C206 1.374 . S
C206 H180 0.950 . S
C206 C202 1.385 . S
C206 C205 1.374 . S
C207 C204 1.499 . S
C207 C208 1.373 . S
C207 C209 1.389 . S
C208 H181 0.950 . S
C208 C194 1.377 . S
C208 C207 1.373 . S
C209 C193 1.377 . S
C209 C207 1.389 . S
C209 C210 1.524 . S
C210 C209 1.524 . S
C210 C211 1.397 . S
C210 C215 1.363 . S
C211 H182 0.950 . S
C211 C210 1.397 . S
C211 C212 1.334 . S
C212 H183 0.950 . S
C212 C211 1.334 . S
C212 C213 1.287 . S
C213 C212 1.287 . S
C213 C214 1.524 . S
C213 H216 0.999 . S
C214 H184 0.950 . S
C214 C213 1.524 . S
C214 C215 1.415 . S
C215 H185 0.950 . S
C215 C210 1.363 . S
C215 C214 1.415 . S
H216 C213 0.999 . S
H217 C198 0.913 . S
H218 C236 0.951 . S
H219 C238 0.951 . S
H220 C240 0.950 . S
H221 C241 0.950 . S
H222 C243 0.950 . S
H223 C246 0.950 . S
H224 C247 0.950 . S
H225 C249 0.950 1_455 S
H226 C250 0.948 1_455 S
H227 C251 0.951 . S
H228 C253 0.951 . S
H229 C255 0.950 . S
H230 C256 0.950 . S
H231 C258 0.950 . S
H232 C261 0.950 . S
H233 C262 0.950 . S
H234 C264 0.950 1_655 S
H235 C265 0.948 1_655 S
C236 H218 0.951 . S
C236 C237 1.366 . S
C236 C238 1.388 . S
C237 C236 1.366 . S
C237 C241 1.385 . S
C238 H219 0.951 . S
C238 C236 1.388 . S
C238 C239 1.366 . S
C239 C238 1.366 . S
C239 C240 1.414 . S
C239 C242 1.499 . S
C240 H220 0.950 . S
C240 C239 1.414 . S
C240 C241 1.374 . S
C241 H221 0.950 . S
C241 C237 1.385 . S
C241 C240 1.374 . S
C242 C239 1.499 . S
C242 C243 1.373 . S
C242 C244 1.389 . S
C243 H222 0.950 . S
C243 C242 1.373 . S
C243 C259 1.377 1_655 S
C244 C242 1.389 . S
C244 C245 1.524 . S
C244 C258 1.377 1_655 S
C245 C244 1.524 . S
C245 C246 1.397 . S
C245 C250 1.359 . S
C246 H223 0.950 . S
C246 C245 1.397 . S
C246 C247 1.334 . S
C247 H224 0.950 . S
C247 C246 1.334 . S
C247 C248 1.287 . S
C248 C247 1.287 . S
C248 C249 1.524 . S
C248 H267 0.913 . S
C249 H225 0.950 1_655 S
C249 C248 1.524 . S
C249 C250 1.423 . S
C250 H226 0.948 1_655 S
C250 C245 1.359 . S
C250 C249 1.423 . S
C251 H227 0.951 . S
C251 C252 1.366 . S
C251 C253 1.388 . S
C252 C251 1.366 . S
C252 C256 1.385 . S
C253 H228 0.951 . S
C253 C251 1.388 . S
C253 C254 1.366 . S
C254 C253 1.366 . S
C254 C255 1.414 . S
C254 C257 1.499 . S
C255 H229 0.950 . S
C255 C254 1.414 . S
C255 C256 1.374 . S
C256 H230 0.950 . S
C256 C252 1.385 . S
C256 C255 1.374 . S
C257 C254 1.499 . S
C257 C258 1.373 . S
C257 C259 1.389 . S
C258 H231 0.950 . S
C258 C244 1.377 1_455 S
C258 C257 1.373 . S
C259 C243 1.377 1_455 S
C259 C257 1.389 . S
C259 C260 1.524 . S
C260 C259 1.524 . S
C260 C261 1.397 . S
C260 C265 1.359 . S
C261 H232 0.950 . S
C261 C260 1.397 . S
C261 C262 1.334 . S
C262 H233 0.950 . S
C262 C261 1.334 . S
C262 C263 1.287 . S
C263 C262 1.287 . S
C263 C264 1.524 . S
C263 H266 0.999 . S
C264 H234 0.950 1_455 S
C264 C263 1.524 . S
C264 C265 1.423 . S
C265 H235 0.948 1_455 S
C265 C260 1.359 . S
C265 C264 1.423 . S
H266 C263 0.999 . S
H267 C248 0.913 . S
H268 C286 0.951 . S
H269 C288 0.951 . S
H270 C290 0.950 . S
H271 C291 0.950 . S
H272 C293 0.950 . S
H273 C296 0.950 . S
H274 C297 0.950 . S
H275 C299 0.950 . S
H276 C300 0.950 . S
H277 C301 0.951 . S
H278 C303 0.951 . S
H279 C305 0.950 . S
H280 C306 0.950 . S
H281 C308 0.950 . S
H282 C311 0.950 . S
H283 C312 0.950 . S
H284 C314 0.950 . S
H285 C315 0.950 . S
C286 H268 0.951 . S
C286 C287 1.366 . S
C286 C288 1.388 . S
C287 C286 1.366 . S
C287 C291 1.385 . S
C288 H269 0.951 . S
C288 C286 1.388 . S
C288 C289 1.366 . S
C289 C288 1.366 . S
C289 C290 1.414 . S
C289 C292 1.499 . S
C290 H270 0.950 . S
C290 C289 1.414 . S
C290 C291 1.374 . S
C291 H271 0.950 . S
C291 C287 1.385 . S
C291 C290 1.374 . S
C292 C289 1.499 . S
C292 C293 1.373 . S
C292 C294 1.389 1_556 S
C293 H272 0.950 . S
C293 C292 1.373 . S
C293 C309 1.377 1_565 S
C294 C292 1.389 1_554 S
C294 C295 1.524 . S
C294 C308 1.377 1_565 S
C295 C294 1.524 . S
C295 C296 1.397 . S
C295 C300 1.363 . S
C296 H273 0.950 . S
C296 C295 1.397 . S
C296 C297 1.334 . S
C297 H274 0.950 . S
C297 C296 1.334 . S
C297 C298 1.287 . S
C298 C297 1.287 . S
C298 C299 1.524 . S
C298 H317 0.913 . S
C299 H275 0.950 . S
C299 C298 1.524 . S
C299 C300 1.415 . S
C300 H276 0.950 . S
C300 C295 1.363 . S
C300 C299 1.415 . S
C301 H277 0.951 . S
C301 C302 1.366 . S
C301 C303 1.388 . S
C302 C301 1.366 . S
C302 C306 1.385 . S
C303 H278 0.951 . S
C303 C301 1.388 . S
C303 C304 1.366 . S
C304 C303 1.366 . S
C304 C305 1.414 . S
C304 C307 1.499 . S
C305 H279 0.950 . S
C305 C304 1.414 . S
C305 C306 1.374 . S
C306 H280 0.950 . S
C306 C302 1.385 . S
C306 C305 1.374 . S
C307 C304 1.499 . S
C307 C308 1.373 . S
C307 C309 1.389 1_554 S
C308 H281 0.950 . S
C308 C294 1.377 1_545 S
C308 C307 1.373 . S
C309 C293 1.377 1_545 S
C309 C307 1.389 1_556 S
C309 C310 1.524 . S
C310 C309 1.524 . S
C310 C311 1.397 . S
C310 C315 1.363 . S
C311 H282 0.950 . S
C311 C310 1.397 . S
C311 C312 1.334 . S
C312 H283 0.950 . S
C312 C311 1.334 . S
C312 C313 1.287 . S
C313 C312 1.287 . S
C313 C314 1.524 . S
C313 H316 0.999 . S
C314 H284 0.950 . S
C314 C313 1.524 . S
C314 C315 1.415 . S
C315 H285 0.950 . S
C315 C310 1.363 . S
C315 C314 1.415 . S
H316 C313 0.999 . S
H317 C298 0.913 . S
H318 C336 0.951 . S
H319 C338 0.951 . S
H320 C340 0.950 . S
H321 C341 0.950 . S
H322 C343 0.950 . S
H323 C346 0.950 . S
H324 C347 0.950 . S
H325 C349 0.950 . S
H326 C350 0.950 . S
H327 C351 0.951 . S
H328 C353 0.951 . S
H329 C355 0.950 . S
H330 C356 0.950 . S
H331 C358 0.950 . S
H332 C361 0.950 . S
H333 C362 0.950 . S
H334 C364 0.950 . S
H335 C365 0.950 . S
C336 H318 0.951 . S
C336 C337 1.366 . S
C336 C338 1.388 . S
C337 C336 1.366 . S
C337 C341 1.385 . S
C338 H319 0.951 . S
C338 C336 1.388 . S
C338 C339 1.366 . S
C339 C338 1.366 . S
C339 C340 1.414 . S
C339 C342 1.499 . S
C340 H320 0.950 . S
C340 C339 1.414 . S
C340 C341 1.374 . S
C341 H321 0.950 . S
C341 C337 1.385 . S
C341 C340 1.374 . S
C342 C339 1.499 . S
C342 C343 1.373 . S
C342 C344 1.389 . S
C343 H322 0.950 . S
C343 C342 1.373 . S
C343 C359 1.377 . S
C344 C342 1.389 . S
C344 C345 1.524 . S
C344 C358 1.377 . S
C345 C344 1.524 . S
C345 C346 1.397 . S
C345 C350 1.363 . S
C346 H323 0.950 . S
C346 C345 1.397 . S
C346 C347 1.334 . S
C347 H324 0.950 . S
C347 C346 1.334 . S
C347 C348 1.287 . S
C348 C347 1.287 . S
C348 C349 1.524 . S
C348 H367 0.913 . S
C349 H325 0.950 . S
C349 C348 1.524 . S
C349 C350 1.415 . S
C350 H326 0.950 . S
C350 C345 1.363 . S
C350 C349 1.415 . S
C351 H327 0.951 . S
C351 C352 1.366 . S
C351 C353 1.388 . S
C352 C351 1.366 . S
C352 C356 1.385 . S
C353 H328 0.951 . S
C353 C351 1.388 . S
C353 C354 1.366 . S
C354 C353 1.366 . S
C354 C355 1.414 . S
C354 C357 1.499 . S
C355 H329 0.950 . S
C355 C354 1.414 . S
C355 C356 1.374 . S
C356 H330 0.950 . S
C356 C352 1.385 . S
C356 C355 1.374 . S
C357 C354 1.499 . S
C357 C358 1.373 . S
C357 C359 1.389 . S
C358 H331 0.950 . S
C358 C344 1.377 . S
C358 C357 1.373 . S
C359 C343 1.377 . S
C359 C357 1.389 . S
C359 C360 1.524 . S
C360 C359 1.524 . S
C360 C361 1.397 . S
C360 C365 1.363 . S
C361 H332 0.950 . S
C361 C360 1.397 . S
C361 C362 1.334 . S
C362 H333 0.950 . S
C362 C361 1.334 . S
C362 C363 1.287 . S
C363 C362 1.287 . S
C363 C364 1.524 . S
C363 H366 0.999 . S
C364 H334 0.950 . S
C364 C363 1.524 . S
C364 C365 1.415 . S
C365 H335 0.950 . S
C365 C360 1.363 . S
C365 C364 1.415 . S
H366 C363 0.999 . S
H367 C348 0.913 . S
H368 C386 0.951 . S
H369 C388 0.951 . S
H370 C390 0.950 . S
H371 C391 0.950 . S
H372 C393 0.950 . S
H373 C396 0.950 . S
H374 C397 0.950 . S
H375 C399 0.948 1_455 S
H376 C400 0.950 1_455 S
H377 C401 0.951 . S
H378 C403 0.951 . S
H379 C405 0.950 . S
H380 C406 0.950 . S
H381 C408 0.950 . S
H382 C411 0.950 . S
H383 C412 0.950 . S
H384 C414 0.948 1_655 S
H385 C415 0.950 1_655 S
C386 H368 0.951 . S
C386 C387 1.366 . S
C386 C388 1.388 . S
C387 C386 1.366 . S
C387 C391 1.385 . S
C388 H369 0.951 . S
C388 C386 1.388 . S
C388 C389 1.366 . S
C389 C388 1.366 . S
C389 C390 1.414 . S
C389 C392 1.499 . S
C390 H370 0.950 . S
C390 C389 1.414 . S
C390 C391 1.374 . S
C391 H371 0.950 . S
C391 C387 1.385 . S
C391 C390 1.374 . S
C392 C389 1.499 . S
C392 C393 1.373 . S
C392 C394 1.389 . S
C393 H372 0.950 . S
C393 C392 1.373 . S
C393 C409 1.377 1_655 S
C394 C392 1.389 . S
C394 C395 1.524 . S
C394 C408 1.377 1_655 S
C395 C394 1.524 . S
C395 C396 1.397 . S
C395 C400 1.363 . S
C396 H373 0.950 . S
C396 C395 1.397 . S
C396 C397 1.334 . S
C397 H374 0.950 . S
C397 C396 1.334 . S
C397 C398 1.287 . S
C398 C397 1.287 . S
C398 C399 1.524 . S
C398 H417 0.913 . S
C399 H375 0.948 1_655 S
C399 C398 1.524 . S
C399 C400 1.415 . S
C400 H376 0.950 1_655 S
C400 C395 1.363 . S
C400 C399 1.415 . S
C401 H377 0.951 . S
C401 C402 1.366 . S
C401 C403 1.388 . S
C402 C401 1.366 . S
C402 C406 1.385 . S
C403 H378 0.951 . S
C403 C401 1.388 . S
C403 C404 1.366 . S
C404 C403 1.366 . S
C404 C405 1.414 . S
C404 C407 1.499 . S
C405 H379 0.950 . S
C405 C404 1.414 . S
C405 C406 1.374 . S
C406 H380 0.950 . S
C406 C402 1.385 . S
C406 C405 1.374 . S
C407 C404 1.499 . S
C407 C408 1.373 . S
C407 C409 1.389 . S
C408 H381 0.950 . S
C408 C394 1.377 1_455 S
C408 C407 1.373 . S
C409 C393 1.377 1_455 S
C409 C407 1.389 . S
C409 C410 1.524 . S
C410 C409 1.524 . S
C410 C411 1.397 . S
C410 C415 1.363 . S
C411 H382 0.950 . S
C411 C410 1.397 . S
C411 C412 1.334 . S
C412 H383 0.950 . S
C412 C411 1.334 . S
C412 C413 1.287 . S
C413 C412 1.287 . S
C413 C414 1.524 . S
C413 H416 0.999 . S
C414 H384 0.948 1_455 S
C414 C413 1.524 . S
C414 C415 1.415 . S
C415 H385 0.950 1_455 S
C415 C410 1.363 . S
C415 C414 1.415 . S
H416 C413 0.999 . S
H417 C398 0.913 . S
H418 C436 0.961 . S
H419 C438 0.951 1_556 S
H420 C440 0.950 . S
H421 C441 0.950 . S
H422 C443 0.950 . S
H423 C446 0.950 . S
H424 C447 0.950 . S
H425 C449 0.950 . S
H426 C450 0.950 . S
H427 C451 0.961 . S
H428 C453 0.951 1_554 S
H429 C455 0.950 . S
H430 C456 0.950 . S
H431 C458 0.950 . S
H432 C461 0.950 . S
H433 C462 0.950 . S
H434 C464 0.950 . S
H435 C465 0.950 . S
C436 H418 0.961 . S
C436 C437 1.366 . S
C436 C438 1.388 . S
C437 C436 1.366 . S
C437 C441 1.385 . S
C438 H419 0.951 1_554 S
C438 C436 1.388 . S
C438 C439 1.366 . S
C439 C438 1.366 . S
C439 C440 1.414 . S
C439 C442 1.499 . S
C440 H420 0.950 . S
C440 C439 1.414 . S
C440 C441 1.374 . S
C441 H421 0.950 . S
C441 C437 1.385 . S
C441 C440 1.374 . S
C442 C439 1.499 . S
C442 C443 1.373 . S
C442 C444 1.389 1_554 S
C443 H422 0.950 . S
C443 C442 1.373 . S
C443 C459 1.377 1_565 S
C444 C442 1.389 1_556 S
C444 C445 1.524 . S
C444 C458 1.377 1_565 S
C445 C444 1.524 . S
C445 C446 1.397 . S
C445 C450 1.363 . S
C446 H423 0.950 . S
C446 C445 1.397 . S
C446 C447 1.334 . S
C447 H424 0.950 . S
C447 C446 1.334 . S
C447 C448 1.287 . S
C448 C447 1.287 . S
C448 C449 1.524 . S
C448 H467 0.913 . S
C449 H425 0.950 . S
C449 C448 1.524 . S
C449 C450 1.415 . S
C450 H426 0.950 . S
C450 C445 1.363 . S
C450 C449 1.415 . S
C451 H427 0.961 . S
C451 C452 1.366 . S
C451 C453 1.388 . S
C452 C451 1.366 . S
C452 C456 1.385 . S
C453 H428 0.951 1_556 S
C453 C451 1.388 . S
C453 C454 1.366 . S
C454 C453 1.366 . S
C454 C455 1.414 . S
C454 C457 1.499 . S
C455 H429 0.950 . S
C455 C454 1.414 . S
C455 C456 1.374 . S
C456 H430 0.950 . S
C456 C452 1.385 . S
C456 C455 1.374 . S
C457 C454 1.499 . S
C457 C458 1.373 . S
C457 C459 1.389 1_556 S
C458 H431 0.950 . S
C458 C444 1.377 1_545 S
C458 C457 1.373 . S
C459 C443 1.377 1_545 S
C459 C457 1.389 1_554 S
C459 C460 1.524 . S
C460 C459 1.524 . S
C460 C461 1.397 . S
C460 C465 1.363 . S
C461 H432 0.950 . S
C461 C460 1.397 . S
C461 C462 1.334 . S
C462 H433 0.950 . S
C462 C461 1.334 . S
C462 C463 1.287 . S
C463 C462 1.287 . S
C463 C464 1.524 . S
C463 H466 0.999 . S
C464 H434 0.950 . S
C464 C463 1.524 . S
C464 C465 1.415 . S
C465 H435 0.950 . S
C465 C460 1.363 . S
C465 C464 1.415 . S
H466 C463 0.999 . S
H467 C448 0.913 . S
H468 C486 0.951 . S
H469 C488 0.951 . S
H470 C490 0.950 . S
H471 C491 0.950 . S
H472 C493 0.950 . S
H473 C496 0.950 . S
H474 C497 0.950 . S
H475 C499 0.950 . S
H476 C500 0.950 1_554 S
H477 C501 0.951 . S
H478 C503 0.951 . S
H479 C505 0.950 . S
H480 C506 0.950 . S
H481 C508 0.950 . S
H482 C511 0.950 . S
H483 C512 0.950 . S
H484 C514 0.950 . S
H485 C515 0.950 1_556 S
C486 H468 0.951 . S
C486 C487 1.366 . S
C486 C488 1.388 . S
C487 C486 1.366 . S
C487 C491 1.385 . S
C488 H469 0.951 . S
C488 C486 1.388 . S
C488 C489 1.366 . S
C489 C488 1.366 . S
C489 C490 1.414 . S
C489 C492 1.499 . S
C490 H470 0.950 . S
C490 C489 1.414 . S
C490 C491 1.374 . S
C491 H471 0.950 . S
C491 C487 1.385 . S
C491 C490 1.374 . S
C492 C489 1.499 . S
C492 C493 1.373 . S
C492 C494 1.389 . S
C493 H472 0.950 . S
C493 C492 1.373 . S
C493 C509 1.377 1_556 S
C494 C492 1.389 . S
C494 C495 1.524 . S
C494 C508 1.377 1_556 S
C495 C494 1.524 . S
C495 C496 1.397 . S
C495 C500 1.363 . S
C496 H473 0.950 . S
C496 C495 1.397 . S
C496 C497 1.334 . S
C497 H474 0.950 . S
C497 C496 1.334 . S
C497 C498 1.287 . S
C498 C497 1.287 . S
C498 C499 1.524 . S
C498 H517 0.913 . S
C499 H475 0.950 . S
C499 C498 1.524 . S
C499 C500 1.415 . S
C500 H476 0.950 1_556 S
C500 C495 1.363 . S
C500 C499 1.415 . S
C501 H477 0.951 . S
C501 C502 1.366 . S
C501 C503 1.388 . S
C502 C501 1.366 . S
C502 C506 1.385 . S
C503 H478 0.951 . S
C503 C501 1.388 . S
C503 C504 1.366 . S
C504 C503 1.366 . S
C504 C505 1.414 . S
C504 C507 1.499 . S
C505 H479 0.950 . S
C505 C504 1.414 . S
C505 C506 1.374 . S
C506 H480 0.950 . S
C506 C502 1.385 . S
C506 C505 1.374 . S
C507 C504 1.499 . S
C507 C508 1.373 . S
C507 C509 1.389 . S
C508 H481 0.950 . S
C508 C494 1.377 1_554 S
C508 C507 1.373 . S
C509 C493 1.377 1_554 S
C509 C507 1.389 . S
C509 C510 1.524 . S
C510 C509 1.524 . S
C510 C511 1.397 . S
C510 C515 1.363 . S
C511 H482 0.950 . S
C511 C510 1.397 . S
C511 C512 1.334 . S
C512 H483 0.950 . S
C512 C511 1.334 . S
C512 C513 1.287 . S
C513 C512 1.287 . S
C513 C514 1.524 . S
C513 H516 0.999 . S
C514 H484 0.950 . S
C514 C513 1.524 . S
C514 C515 1.415 . S
C515 H485 0.950 1_554 S
C515 C510 1.363 . S
C515 C514 1.415 . S
H516 C513 0.999 . S
H517 C498 0.913 . S
H518 C536 0.951 . S
H519 C538 0.951 . S
H520 C540 0.950 . S
H521 C541 0.950 . S
H522 C543 0.950 . S
H523 C546 0.950 . S
H524 C547 0.950 . S
H525 C549 0.950 . S
H526 C550 0.950 . S
H527 C551 0.951 . S
H528 C553 0.951 . S
H529 C555 0.950 . S
H530 C556 0.950 . S
H531 C558 0.950 . S
H532 C561 0.950 . S
H533 C562 0.950 . S
H534 C564 0.950 . S
H535 C565 0.950 . S
C536 H518 0.951 . S
C536 C537 1.366 . S
C536 C538 1.388 . S
C537 C536 1.366 . S
C537 C541 1.385 . S
C538 H519 0.951 . S
C538 C536 1.388 . S
C538 C539 1.366 . S
C539 C538 1.366 . S
C539 C540 1.414 . S
C539 C542 1.499 . S
C540 H520 0.950 . S
C540 C539 1.414 . S
C540 C541 1.374 . S
C541 H521 0.950 . S
C541 C537 1.385 . S
C541 C540 1.374 . S
C542 C539 1.499 . S
C542 C543 1.373 . S
C542 C544 1.389 . S
C543 H522 0.950 . S
C543 C542 1.373 . S
C543 C559 1.377 . S
C544 C542 1.389 . S
C544 C545 1.524 . S
C544 C558 1.377 . S
C545 C544 1.524 . S
C545 C546 1.397 . S
C545 C550 1.363 . S
C546 H523 0.950 . S
C546 C545 1.397 . S
C546 C547 1.334 . S
C547 H524 0.950 . S
C547 C546 1.334 . S
C547 C548 1.287 . S
C548 C547 1.287 . S
C548 C549 1.524 . S
C548 H567 0.913 . S
C549 H525 0.950 . S
C549 C548 1.524 . S
C549 C550 1.415 . S
C550 H526 0.950 . S
C550 C545 1.363 . S
C550 C549 1.415 . S
C551 H527 0.951 . S
C551 C552 1.366 . S
C551 C553 1.388 . S
C552 C551 1.366 . S
C552 C556 1.385 . S
C553 H528 0.951 . S
C553 C551 1.388 . S
C553 C554 1.366 . S
C554 C553 1.366 . S
C554 C555 1.414 . S
C554 C557 1.499 . S
C555 H529 0.950 . S
C555 C554 1.414 . S
C555 C556 1.374 . S
C556 H530 0.950 . S
C556 C552 1.385 . S
C556 C555 1.374 . S
C557 C554 1.499 . S
C557 C558 1.373 . S
C557 C559 1.389 . S
C558 H531 0.950 . S
C558 C544 1.377 . S
C558 C557 1.373 . S
C559 C543 1.377 . S
C559 C557 1.389 . S
C559 C560 1.524 . S
C560 C559 1.524 . S
C560 C561 1.397 . S
C560 C565 1.363 . S
C561 H532 0.950 . S
C561 C560 1.397 . S
C561 C562 1.334 . S
C562 H533 0.950 . S
C562 C561 1.334 . S
C562 C563 1.287 . S
C563 C562 1.287 . S
C563 C564 1.524 . S
C563 H566 0.999 . S
C564 H534 0.950 . S
C564 C563 1.524 . S
C564 C565 1.415 . S
C565 H535 0.950 . S
C565 C560 1.363 . S
C565 C564 1.415 . S
H566 C563 0.999 . S
H567 C548 0.913 . S
H568 C586 0.951 . S
H569 C588 0.951 . S
H570 C590 0.950 . S
H571 C591 0.950 . S
H572 C593 0.950 . S
H573 C596 0.950 . S
H574 C597 0.950 . S
H575 C599 0.950 . S
H576 C600 0.950 . S
H577 C601 0.951 . S
H578 C603 0.951 . S
H579 C605 0.950 . S
H580 C606 0.950 . S
H581 C608 0.950 . S
H582 C611 0.950 . S
H583 C612 0.950 . S
H584 C614 0.950 . S
H585 C615 0.950 . S
C586 H568 0.951 . S
C586 C587 1.366 . S
C586 C588 1.388 . S
C587 C586 1.366 . S
C587 C591 1.385 . S
C588 H569 0.951 . S
C588 C586 1.388 . S
C588 C589 1.366 . S
C589 C588 1.366 . S
C589 C590 1.414 . S
C589 C592 1.499 . S
C590 H570 0.950 . S
C590 C589 1.414 . S
C590 C591 1.374 . S
C591 H571 0.950 . S
C591 C587 1.385 . S
C591 C590 1.374 . S
C592 C589 1.499 . S
C592 C593 1.373 . S
C592 C594 1.389 . S
C593 H572 0.950 . S
C593 C592 1.373 . S
C593 C609 1.377 . S
C594 C592 1.389 . S
C594 C595 1.524 . S
C594 C608 1.377 . S
C595 C594 1.524 . S
C595 C596 1.397 . S
C595 C600 1.363 . S
C596 H573 0.950 . S
C596 C595 1.397 . S
C596 C597 1.334 . S
C597 H574 0.950 . S
C597 C596 1.334 . S
C597 C598 1.287 . S
C598 C597 1.287 . S
C598 C599 1.524 . S
C598 H617 0.913 . S
C599 H575 0.950 . S
C599 C598 1.524 . S
C599 C600 1.415 . S
C600 H576 0.950 . S
C600 C595 1.363 . S
C600 C599 1.415 . S
C601 H577 0.951 . S
C601 C602 1.366 . S
C601 C603 1.388 . S
C602 C601 1.366 . S
C602 C606 1.385 . S
C603 H578 0.951 . S
C603 C601 1.388 . S
C603 C604 1.366 . S
C604 C603 1.366 . S
C604 C605 1.414 . S
C604 C607 1.499 . S
C605 H579 0.950 . S
C605 C604 1.414 . S
C605 C606 1.374 . S
C606 H580 0.950 . S
C606 C602 1.385 . S
C606 C605 1.374 . S
C607 C604 1.499 . S
C607 C608 1.373 . S
C607 C609 1.389 . S
C608 H581 0.950 . S
C608 C594 1.377 . S
C608 C607 1.373 . S
C609 C593 1.377 . S
C609 C607 1.389 . S
C609 C610 1.524 . S
C610 C609 1.524 . S
C610 C611 1.397 . S
C610 C615 1.363 . S
C611 H582 0.950 . S
C611 C610 1.397 . S
C611 C612 1.334 . S
C612 H583 0.950 . S
C612 C611 1.334 . S
C612 C613 1.287 . S
C613 C612 1.287 . S
C613 C614 1.524 . S
C613 H616 0.999 . S
C614 H584 0.950 . S
C614 C613 1.524 . S
C614 C615 1.415 . S
C615 H585 0.950 . S
C615 C610 1.363 . S
C615 C614 1.415 . S
H616 C613 0.999 . S
H617 C598 0.913 . S
H618 C636 0.951 . S
H619 C638 0.951 . S
H620 C640 0.950 . S
H621 C641 0.950 . S
H622 C643 0.950 . S
H623 C646 0.950 . S
H624 C647 0.950 . S
H625 C649 0.950 . S
H626 C650 0.950 . S
H627 C651 0.951 . S
H628 C653 0.951 . S
H629 C655 0.950 . S
H630 C656 0.950 . S
H631 C658 0.950 . S
H632 C661 0.950 . S
H633 C662 0.950 . S
H634 C664 0.950 . S
H635 C665 0.950 . S
C636 H618 0.951 . S
C636 C637 1.366 . S
C636 C638 1.388 . S
C637 C636 1.366 . S
C637 C641 1.385 . S
C638 H619 0.951 . S
C638 C636 1.388 . S
C638 C639 1.366 . S
C639 C638 1.366 . S
C639 C640 1.414 . S
C639 C642 1.499 . S
C640 H620 0.950 . S
C640 C639 1.414 . S
C640 C641 1.374 . S
C641 H621 0.950 . S
C641 C637 1.385 . S
C641 C640 1.374 . S
C642 C639 1.499 . S
C642 C643 1.373 . S
C642 C644 1.389 . S
C643 H622 0.950 . S
C643 C642 1.373 . S
C643 C659 1.377 1_554 S
C644 C642 1.389 . S
C644 C645 1.524 . S
C644 C658 1.377 1_554 S
C645 C644 1.524 . S
C645 C646 1.397 . S
C645 C650 1.363 1_554 S
C646 H623 0.950 . S
C646 C645 1.397 . S
C646 C647 1.334 . S
C647 H624 0.950 . S
C647 C646 1.334 . S
C647 C648 1.287 . S
C648 C647 1.287 . S
C648 C649 1.524 1_554 S
C648 H667 0.913 . S
C649 H625 0.950 . S
C649 C648 1.524 1_556 S
C649 C650 1.415 . S
C650 H626 0.950 . S
C650 C645 1.363 1_556 S
C650 C649 1.415 . S
C651 H627 0.951 . S
C651 C652 1.366 . S
C651 C653 1.388 . S
C652 C651 1.366 . S
C652 C656 1.385 . S
C653 H628 0.951 . S
C653 C651 1.388 . S
C653 C654 1.366 . S
C654 C653 1.366 . S
C654 C655 1.414 . S
C654 C657 1.499 . S
C655 H629 0.950 . S
C655 C654 1.414 . S
C655 C656 1.374 . S
C656 H630 0.950 . S
C656 C652 1.385 . S
C656 C655 1.374 . S
C657 C654 1.499 . S
C657 C658 1.373 . S
C657 C659 1.389 . S
C658 H631 0.950 . S
C658 C644 1.377 1_556 S
C658 C657 1.373 . S
C659 C643 1.377 1_556 S
C659 C657 1.389 . S
C659 C660 1.524 . S
C660 C659 1.524 . S
C660 C661 1.397 . S
C660 C665 1.363 1_556 S
C661 H632 0.950 . S
C661 C660 1.397 . S
C661 C662 1.334 . S
C662 H633 0.950 . S
C662 C661 1.334 . S
C662 C663 1.287 . S
C663 C662 1.287 . S
C663 C664 1.524 1_556 S
C663 H666 0.999 . S
C664 H634 0.950 . S
C664 C663 1.524 1_554 S
C664 C665 1.415 . S
C665 H635 0.950 . S
C665 C660 1.363 1_554 S
C665 C664 1.415 . S
H666 C663 0.999 . S
H667 C648 0.913 . S
H668 C686 0.951 . S
H669 C688 0.951 . S
H670 C690 0.950 . S
H671 C691 0.950 . S
H672 C693 0.950 . S
H673 C696 0.950 . S
H674 C697 0.950 . S
H675 C699 0.950 . S
H676 C700 0.950 . S
H677 C701 0.951 . S
H678 C703 0.951 . S
H679 C705 0.950 . S
H680 C706 0.950 . S
H681 C708 0.950 . S
H682 C711 0.950 . S
H683 C712 0.950 . S
H684 C714 0.950 . S
H685 C715 0.950 . S
C686 H668 0.951 . S
C686 C687 1.366 . S
C686 C688 1.388 . S
C687 C686 1.366 . S
C687 C691 1.385 . S
C688 H669 0.951 . S
C688 C686 1.388 . S
C688 C689 1.366 . S
C689 C688 1.366 . S
C689 C690 1.414 . S
C689 C692 1.499 . S
C690 H670 0.950 . S
C690 C689 1.414 . S
C690 C691 1.374 . S
C691 H671 0.950 . S
C691 C687 1.385 . S
C691 C690 1.374 . S
C692 C689 1.499 . S
C692 C693 1.373 . S
C692 C694 1.389 . S
C693 H672 0.950 . S
C693 C692 1.373 . S
C693 C709 1.377 . S
C694 C692 1.389 . S
C694 C695 1.524 . S
C694 C708 1.377 . S
C695 C694 1.524 . S
C695 C696 1.397 . S
C695 C700 1.363 . S
C696 H673 0.950 . S
C696 C695 1.397 . S
C696 C697 1.334 . S
C697 H674 0.950 . S
C697 C696 1.334 . S
C697 C698 1.287 . S
C698 C697 1.287 . S
C698 C699 1.524 . S
C698 H717 0.913 . S
C699 H675 0.950 . S
C699 C698 1.524 . S
C699 C700 1.415 . S
C700 H676 0.950 . S
C700 C695 1.363 . S
C700 C699 1.415 . S
C701 H677 0.951 . S
C701 C702 1.366 . S
C701 C703 1.388 . S
C702 C701 1.366 . S
C702 C706 1.385 . S
C703 H678 0.951 . S
C703 C701 1.388 . S
C703 C704 1.366 . S
C704 C703 1.366 . S
C704 C705 1.414 . S
C704 C707 1.499 . S
C705 H679 0.950 . S
C705 C704 1.414 . S
C705 C706 1.374 . S
C706 H680 0.950 . S
C706 C702 1.385 . S
C706 C705 1.374 . S
C707 C704 1.499 . S
C707 C708 1.373 . S
C707 C709 1.389 . S
C708 H681 0.950 . S
C708 C694 1.377 . S
C708 C707 1.373 . S
C709 C693 1.377 . S
C709 C707 1.389 . S
C709 C710 1.524 . S
C710 C709 1.524 . S
C710 C711 1.397 . S
C710 C715 1.363 . S
C711 H682 0.950 . S
C711 C710 1.397 . S
C711 C712 1.334 . S
C712 H683 0.950 . S
C712 C711 1.334 . S
C712 C713 1.287 . S
C713 C712 1.287 . S
C713 C714 1.524 . S
C713 H716 0.999 . S
C714 H684 0.950 . S
C714 C713 1.524 . S
C714 C715 1.415 . S
C715 H685 0.950 . S
C715 C710 1.363 . S
C715 C714 1.415 . S
H716 C713 0.999 . S
H717 C698 0.913 . S
H718 C736 0.951 . S
H719 C738 0.951 . S
H720 C740 0.950 . S
H721 C741 0.950 . S
H722 C743 0.950 . S
H723 C746 0.950 . S
H724 C747 0.950 . S
H725 C749 0.950 . S
H726 C750 0.950 . S
H727 C751 0.951 . S
H728 C753 0.951 . S
H729 C755 0.950 . S
H730 C756 0.950 . S
H731 C758 0.950 . S
H732 C761 0.950 . S
H733 C762 0.950 . S
H734 C764 0.950 . S
H735 C765 0.950 . S
C736 H718 0.951 . S
C736 C737 1.366 . S
C736 C738 1.388 . S
C737 C736 1.366 . S
C737 C741 1.385 . S
C738 H719 0.951 . S
C738 C736 1.388 . S
C738 C739 1.366 . S
C739 C738 1.366 . S
C739 C740 1.414 . S
C739 C742 1.499 . S
C740 H720 0.950 . S
C740 C739 1.414 . S
C740 C741 1.374 . S
C741 H721 0.950 . S
C741 C737 1.385 . S
C741 C740 1.374 . S
C742 C739 1.499 . S
C742 C743 1.373 . S
C742 C744 1.389 . S
C743 H722 0.950 . S
C743 C742 1.373 . S
C743 C759 1.377 . S
C744 C742 1.389 . S
C744 C745 1.524 . S
C744 C758 1.377 . S
C745 C744 1.524 . S
C745 C746 1.397 . S
C745 C750 1.363 . S
C746 H723 0.950 . S
C746 C745 1.397 . S
C746 C747 1.334 . S
C747 H724 0.950 . S
C747 C746 1.334 . S
C747 C748 1.287 . S
C748 C747 1.287 . S
C748 C749 1.524 . S
C748 H767 0.913 . S
C749 H725 0.950 . S
C749 C748 1.524 . S
C749 C750 1.415 . S
C750 H726 0.950 . S
C750 C745 1.363 . S
C750 C749 1.415 . S
C751 H727 0.951 . S
C751 C752 1.366 . S
C751 C753 1.388 . S
C752 C751 1.366 . S
C752 C756 1.385 . S
C753 H728 0.951 . S
C753 C751 1.388 . S
C753 C754 1.366 . S
C754 C753 1.366 . S
C754 C755 1.414 . S
C754 C757 1.499 . S
C755 H729 0.950 . S
C755 C754 1.414 . S
C755 C756 1.374 . S
C756 H730 0.950 . S
C756 C752 1.385 . S
C756 C755 1.374 . S
C757 C754 1.499 . S
C757 C758 1.373 . S
C757 C759 1.389 . S
C758 H731 0.950 . S
C758 C744 1.377 . S
C758 C757 1.373 . S
C759 C743 1.377 . S
C759 C757 1.389 . S
C759 C760 1.524 . S
C760 C759 1.524 . S
C760 C761 1.397 . S
C760 C765 1.363 . S
C761 H732 0.950 . S
C761 C760 1.397 . S
C761 C762 1.334 . S
C762 H733 0.950 . S
C762 C761 1.334 . S
C762 C763 1.287 . S
C763 C762 1.287 . S
C763 C764 1.524 . S
C763 H766 0.999 . S
C764 H734 0.950 . S
C764 C763 1.524 . S
C764 C765 1.415 . S
C765 H735 0.950 . S
C765 C760 1.363 . S
C765 C764 1.415 . S
H766 C763 0.999 . S
H767 C748 0.913 . S
H768 C786 0.951 . S
H769 C788 0.951 . S
H770 C790 0.950 . S
H771 C791 0.950 . S
H772 C793 0.950 . S
H773 C796 0.950 . S
H774 C797 0.950 . S
H775 C799 0.950 . S
H776 C800 0.950 . S
H777 C801 0.951 . S
H778 C803 0.951 . S
H779 C805 0.950 . S
H780 C806 0.950 . S
H781 C808 0.950 . S
H782 C811 0.950 . S
H783 C812 0.950 . S
H784 C814 0.950 . S
H785 C815 0.950 . S
C786 H768 0.951 . S
C786 C787 1.366 . S
C786 C788 1.388 . S
C787 C786 1.366 . S
C787 C791 1.385 . S
C788 H769 0.951 . S
C788 C786 1.388 . S
C788 C789 1.366 . S
C789 C788 1.366 . S
C789 C790 1.414 . S
C789 C792 1.499 . S
C790 H770 0.950 . S
C790 C789 1.414 . S
C790 C791 1.374 . S
C791 H771 0.950 . S
C791 C787 1.385 . S
C791 C790 1.374 . S
C792 C789 1.499 . S
C792 C793 1.373 . S
C792 C794 1.389 . S
C793 H772 0.950 . S
C793 C792 1.373 . S
C793 C809 1.377 . S
C794 C792 1.389 . S
C794 C795 1.524 . S
C794 C808 1.377 . S
C795 C794 1.524 . S
C795 C796 1.397 . S
C795 C800 1.363 . S
C796 H773 0.950 . S
C796 C795 1.397 . S
C796 C797 1.334 . S
C797 H774 0.950 . S
C797 C796 1.334 . S
C797 C798 1.287 . S
C798 C797 1.287 . S
C798 C799 1.524 . S
C798 H817 0.913 . S
C799 H775 0.950 . S
C799 C798 1.524 . S
C799 C800 1.415 . S
C800 H776 0.950 . S
C800 C795 1.363 . S
C800 C799 1.415 . S
C801 H777 0.951 . S
C801 C802 1.366 . S
C801 C803 1.388 . S
C802 C801 1.366 . S
C802 C806 1.385 . S
C803 H778 0.951 . S
C803 C801 1.388 . S
C803 C804 1.366 . S
C804 C803 1.366 . S
C804 C805 1.414 . S
C804 C807 1.499 . S
C805 H779 0.950 . S
C805 C804 1.414 . S
C805 C806 1.374 . S
C806 H780 0.950 . S
C806 C802 1.385 . S
C806 C805 1.374 . S
C807 C804 1.499 . S
C807 C808 1.373 . S
C807 C809 1.389 . S
C808 H781 0.950 . S
C808 C794 1.377 . S
C808 C807 1.373 . S
C809 C793 1.377 . S
C809 C807 1.389 . S
C809 C810 1.524 . S
C810 C809 1.524 . S
C810 C811 1.397 . S
C810 C815 1.363 . S
C811 H782 0.950 . S
C811 C810 1.397 . S
C811 C812 1.334 . S
C812 H783 0.950 . S
C812 C811 1.334 . S
C812 C813 1.287 . S
C813 C812 1.287 . S
C813 C814 1.524 . S
C813 H816 0.999 . S
C814 H784 0.950 . S
C814 C813 1.524 . S
C814 C815 1.415 . S
C815 H785 0.950 . S
C815 C810 1.363 . S
C815 C814 1.415 . S
H816 C813 0.999 . S
H817 C798 0.913 . S
H818 C836 0.951 . S
H819 C838 0.951 . S
H820 C840 0.950 . S
H821 C841 0.950 . S
H822 C843 0.950 . S
H823 C846 0.950 . S
H824 C847 0.950 . S
H825 C849 0.950 . S
H826 C850 0.950 . S
H827 C851 0.951 . S
H828 C853 0.951 . S
H829 C855 0.950 . S
H830 C856 0.950 1_554 S
H831 C858 0.950 . S
H832 C861 0.950 . S
H833 C862 0.950 . S
H834 C864 0.950 . S
H835 C865 0.950 . S
C836 H818 0.951 . S
C836 C837 1.366 . S
C836 C838 1.388 . S
C837 C836 1.366 . S
C837 C841 1.385 . S
C838 H819 0.951 . S
C838 C836 1.388 . S
C838 C839 1.366 . S
C839 C838 1.366 . S
C839 C840 1.414 . S
C839 C842 1.499 . S
C840 H820 0.950 . S
C840 C839 1.414 . S
C840 C841 1.374 . S
C841 H821 0.950 . S
C841 C837 1.385 . S
C841 C840 1.374 . S
C842 C839 1.499 . S
C842 C843 1.373 . S
C842 C844 1.389 . S
C843 H822 0.950 . S
C843 C842 1.373 . S
C843 C859 1.377 . S
C844 C842 1.389 . S
C844 C845 1.524 . S
C844 C858 1.377 . S
C845 C844 1.524 . S
C845 C846 1.397 . S
C845 C850 1.363 . S
C846 H823 0.950 . S
C846 C845 1.397 . S
C846 C847 1.334 . S
C847 H824 0.950 . S
C847 C846 1.334 . S
C847 C848 1.287 . S
C848 C847 1.287 . S
C848 C849 1.524 . S
C848 H867 0.913 . S
C849 H825 0.950 . S
C849 C848 1.524 . S
C849 C850 1.415 . S
C850 H826 0.950 . S
C850 C845 1.363 . S
C850 C849 1.415 . S
C851 H827 0.951 . S
C851 C852 1.366 . S
C851 C853 1.388 . S
C852 C851 1.366 . S
C852 C856 1.385 . S
C853 H828 0.951 . S
C853 C851 1.388 . S
C853 C854 1.366 . S
C854 C853 1.366 . S
C854 C855 1.414 . S
C854 C857 1.499 . S
C855 H829 0.950 . S
C855 C854 1.414 . S
C855 C856 1.374 . S
C856 H830 0.950 1_556 S
C856 C852 1.385 . S
C856 C855 1.374 . S
C857 C854 1.499 . S
C857 C858 1.373 . S
C857 C859 1.389 . S
C858 H831 0.950 . S
C858 C844 1.377 . S
C858 C857 1.373 . S
C859 C843 1.377 . S
C859 C857 1.389 . S
C859 C860 1.524 . S
C860 C859 1.524 . S
C860 C861 1.397 . S
C860 C865 1.363 . S
C861 H832 0.950 . S
C861 C860 1.397 . S
C861 C862 1.334 . S
C862 H833 0.950 . S
C862 C861 1.334 . S
C862 C863 1.287 . S
C863 C862 1.287 . S
C863 C864 1.524 . S
C863 H866 0.999 . S
C864 H834 0.950 . S
C864 C863 1.524 . S
C864 C865 1.415 . S
C865 H835 0.950 . S
C865 C860 1.363 . S
C865 C864 1.415 . S
H866 C863 0.999 . S
H867 C848 0.913 . S
H868 C886 0.951 . S
H869 C888 0.951 . S
H870 C890 0.950 . S
H871 C891 0.950 1_556 S
H872 C893 0.950 . S
H873 C896 0.950 . S
H874 C897 0.950 . S
H875 C899 0.950 . S
H876 C900 0.950 . S
H877 C901 0.951 . S
H878 C903 0.951 . S
H879 C905 0.950 . S
H880 C906 0.950 . S
H881 C908 0.950 . S
H882 C911 0.950 . S
H883 C912 0.950 . S
H884 C914 0.950 . S
H885 C915 0.950 . S
C886 H868 0.951 . S
C886 C887 1.366 . S
C886 C888 1.388 . S
C887 C886 1.366 . S
C887 C891 1.385 . S
C888 H869 0.951 . S
C888 C886 1.388 . S
C888 C889 1.366 . S
C889 C888 1.366 . S
C889 C890 1.414 . S
C889 C892 1.499 . S
C890 H870 0.950 . S
C890 C889 1.414 . S
C890 C891 1.374 . S
C891 H871 0.950 1_554 S
C891 C887 1.385 . S
C891 C890 1.374 . S
C892 C889 1.499 . S
C892 C893 1.373 . S
C892 C894 1.389 . S
C893 H872 0.950 . S
C893 C892 1.373 . S
C893 C909 1.377 . S
C894 C892 1.389 . S
C894 C895 1.524 . S
C894 C908 1.377 . S
C895 C894 1.524 . S
C895 C896 1.397 . S
C895 C900 1.363 . S
C896 H873 0.950 . S
C896 C895 1.397 . S
C896 C897 1.334 . S
C897 H874 0.950 . S
C897 C896 1.334 . S
C897 C898 1.287 . S
C898 C897 1.287 . S
C898 C899 1.524 . S
C898 H917 0.913 . S
C899 H875 0.950 . S
C899 C898 1.524 . S
C899 C900 1.415 . S
C900 H876 0.950 . S
C900 C895 1.363 . S
C900 C899 1.415 . S
C901 H877 0.951 . S
C901 C902 1.366 . S
C901 C903 1.388 . S
C902 C901 1.366 . S
C902 C906 1.385 . S
C903 H878 0.951 . S
C903 C901 1.388 . S
C903 C904 1.366 . S
C904 C903 1.366 . S
C904 C905 1.414 . S
C904 C907 1.499 . S
C905 H879 0.950 . S
C905 C904 1.414 . S
C905 C906 1.374 . S
C906 H880 0.950 . S
C906 C902 1.385 . S
C906 C905 1.374 . S
C907 C904 1.499 . S
C907 C908 1.373 . S
C907 C909 1.389 . S
C908 H881 0.950 . S
C908 C894 1.377 . S
C908 C907 1.373 . S
C909 C893 1.377 . S
C909 C907 1.389 . S
C909 C910 1.524 . S
C910 C909 1.524 . S
C910 C911 1.397 . S
C910 C915 1.363 . S
C911 H882 0.950 . S
C911 C910 1.397 . S
C911 C912 1.334 . S
C912 H883 0.950 . S
C912 C911 1.334 . S
C912 C913 1.287 . S
C913 C912 1.287 . S
C913 C914 1.524 . S
C913 H916 0.999 . S
C914 H884 0.950 . S
C914 C913 1.524 . S
C914 C915 1.415 . S
C915 H885 0.950 . S
C915 C910 1.363 . S
C915 C914 1.415 . S
H916 C913 0.999 . S
H917 C898 0.913 . S
H918 C936 0.951 . S
H919 C938 0.951 . S
H920 C940 0.950 . S
H921 C941 0.950 . S
H922 C943 0.950 . S
H923 C946 0.950 . S
H924 C947 0.950 . S
H925 C949 0.950 . S
H926 C950 0.950 . S
H927 C951 0.951 . S
H928 C953 0.951 . S
H929 C955 0.950 . S
H930 C956 0.950 . S
H931 C958 0.950 . S
H932 C961 0.950 . S
H933 C962 0.950 . S
H934 C964 0.950 . S
H935 C965 0.950 . S
C936 H918 0.951 . S
C936 C937 1.366 . S
C936 C938 1.388 . S
C937 C936 1.366 . S
C937 C941 1.385 . S
C938 H919 0.951 . S
C938 C936 1.388 . S
C938 C939 1.366 . S
C939 C938 1.366 . S
C939 C940 1.414 . S
C939 C942 1.499 . S
C940 H920 0.950 . S
C940 C939 1.414 . S
C940 C941 1.374 . S
C941 H921 0.950 . S
C941 C937 1.385 . S
C941 C940 1.374 . S
C942 C939 1.499 . S
C942 C943 1.373 . S
C942 C944 1.389 . S
C943 H922 0.950 . S
C943 C942 1.373 . S
C943 C959 1.377 . S
C944 C942 1.389 . S
C944 C945 1.524 . S
C944 C958 1.377 . S
C945 C944 1.524 . S
C945 C946 1.397 . S
C945 C950 1.363 . S
C946 H923 0.950 . S
C946 C945 1.397 . S
C946 C947 1.334 . S
C947 H924 0.950 . S
C947 C946 1.334 . S
C947 C948 1.287 . S
C948 C947 1.287 . S
C948 C949 1.524 . S
C948 H967 0.913 . S
C949 H925 0.950 . S
C949 C948 1.524 . S
C949 C950 1.415 . S
C950 H926 0.950 . S
C950 C945 1.363 . S
C950 C949 1.415 . S
C951 H927 0.951 . S
C951 C952 1.366 . S
C951 C953 1.388 . S
C952 C951 1.366 . S
C952 C956 1.385 . S
C953 H928 0.951 . S
C953 C951 1.388 . S
C953 C954 1.366 . S
C954 C953 1.366 . S
C954 C955 1.414 . S
C954 C957 1.499 . S
C955 H929 0.950 . S
C955 C954 1.414 . S
C955 C956 1.374 . S
C956 H930 0.950 . S
C956 C952 1.385 . S
C956 C955 1.374 . S
C957 C954 1.499 . S
C957 C958 1.373 . S
C957 C959 1.389 . S
C958 H931 0.950 . S
C958 C944 1.377 . S
C958 C957 1.373 . S
C959 C943 1.377 . S
C959 C957 1.389 . S
C959 C960 1.524 . S
C960 C959 1.524 . S
C960 C961 1.397 . S
C960 C965 1.363 . S
C961 H932 0.950 . S
C961 C960 1.397 . S
C961 C962 1.334 . S
C962 H933 0.950 . S
C962 C961 1.334 . S
C962 C963 1.287 . S
C963 C962 1.287 . S
C963 C964 1.524 . S
C963 H966 0.999 . S
C964 H934 0.950 . S
C964 C963 1.524 . S
C964 C965 1.415 . S
C965 H935 0.950 . S
C965 C960 1.363 . S
C965 C964 1.415 . S
H966 C963 0.999 . S
H967 C948 0.913 . S
H968 C986 0.951 . S
H969 C988 0.951 . S
H970 C990 0.950 . S
H971 C991 0.950 . S
H972 C993 0.950 . S
H973 C996 0.950 . S
H974 C997 0.950 . S
H975 C999 0.950 . S
H976 C1000 0.950 . S
H977 C1001 0.951 . S
H978 C1003 0.951 . S
H979 C1005 0.950 . S
H980 C1006 0.950 . S
H981 C1008 0.950 . S
H982 C1011 0.950 . S
H983 C1012 0.950 . S
H984 C1014 0.950 . S
H985 C1015 0.950 . S
C986 H968 0.951 . S
C986 C987 1.366 . S
C986 C988 1.388 . S
C987 C986 1.366 . S
C987 C991 1.385 . S
C988 H969 0.951 . S
C988 C986 1.388 . S
C988 C989 1.366 . S
C989 C988 1.366 . S
C989 C990 1.414 . S
C989 C992 1.499 . S
C990 H970 0.950 . S
C990 C989 1.414 . S
C990 C991 1.374 . S
C991 H971 0.950 . S
C991 C987 1.385 . S
C991 C990 1.374 . S
C992 C989 1.499 . S
C992 C993 1.373 . S
C992 C994 1.389 . S
C993 H972 0.950 . S
C993 C992 1.373 . S
C993 C1009 1.377 . S
C994 C992 1.389 . S
C994 C995 1.524 . S
C994 C1008 1.377 . S
C995 C994 1.524 . S
C995 C996 1.397 . S
C995 C1000 1.363 . S
C996 H973 0.950 . S
C996 C995 1.397 . S
C996 C997 1.334 . S
C997 H974 0.950 . S
C997 C996 1.334 . S
C997 C998 1.287 . S
C998 C997 1.287 . S
C998 C999 1.524 . S
C998 H1017 0.913 . S
C999 H975 0.950 . S
C999 C998 1.524 . S
C999 C1000 1.415 . S
C1000 H976 0.950 . S
C1000 C995 1.363 . S
C1000 C999 1.415 . S
C1001 H977 0.951 . S
C1001 C1002 1.366 . S
C1001 C1003 1.388 . S
C1002 C1001 1.366 . S
C1002 C1006 1.385 . S
C1003 H978 0.951 . S
C1003 C1001 1.388 . S
C1003 C1004 1.366 . S
C1004 C1003 1.366 . S
C1004 C1005 1.414 . S
C1004 C1007 1.499 . S
C1005 H979 0.950 . S
C1005 C1004 1.414 . S
C1005 C1006 1.374 . S
C1006 H980 0.950 . S
C1006 C1002 1.385 . S
C1006 C1005 1.374 . S
C1007 C1004 1.499 . S
C1007 C1008 1.373 . S
C1007 C1009 1.389 . S
C1008 H981 0.950 . S
C1008 C994 1.377 . S
C1008 C1007 1.373 . S
C1009 C993 1.377 . S
C1009 C1007 1.389 . S
C1009 C1010 1.524 . S
C1010 C1009 1.524 . S
C1010 C1011 1.397 . S
C1010 C1015 1.363 . S
C1011 H982 0.950 . S
C1011 C1010 1.397 . S
C1011 C1012 1.334 . S
C1012 H983 0.950 . S
C1012 C1011 1.334 . S
C1012 C1013 1.287 . S
C1013 C1012 1.287 . S
C1013 C1014 1.524 . S
C1013 H1016 0.999 . S
C1014 H984 0.950 . S
C1014 C1013 1.524 . S
C1014 C1015 1.415 . S
C1015 H985 0.950 . S
C1015 C1010 1.363 . S
C1015 C1014 1.415 . S
H1016 C1013 0.999 . S
H1017 C998 0.913 . S
H1018 C1036 0.951 . S
H1019 C1038 0.951 . S
H1020 C1040 0.950 . S
H1021 C1041 0.950 1_556 S
H1022 C1043 0.950 . S
H1023 C1046 0.950 . S
H1024 C1047 0.950 . S
H1025 C1049 0.950 . S
H1026 C1050 0.950 . S
H1027 C1051 0.951 . S
H1028 C1053 0.951 . S
H1029 C1055 0.950 . S
H1030 C1056 0.950 . S
H1031 C1058 0.950 . S
H1032 C1061 0.950 . S
H1033 C1062 0.950 . S
H1034 C1064 0.950 . S
H1035 C1065 0.950 . S
C1036 H1018 0.951 . S
C1036 C1037 1.366 . S
C1036 C1038 1.388 . S
C1037 C1036 1.366 . S
C1037 C1041 1.385 . S
C1038 H1019 0.951 . S
C1038 C1036 1.388 . S
C1038 C1039 1.366 . S
C1039 C1038 1.366 . S
C1039 C1040 1.414 . S
C1039 C1042 1.499 . S
C1040 H1020 0.950 . S
C1040 C1039 1.414 . S
C1040 C1041 1.374 . S
C1041 H1021 0.950 1_554 S
C1041 C1037 1.385 . S
C1041 C1040 1.374 . S
C1042 C1039 1.499 . S
C1042 C1043 1.373 . S
C1042 C1044 1.389 . S
C1043 H1022 0.950 . S
C1043 C1042 1.373 . S
C1043 C1059 1.377 . S
C1044 C1042 1.389 . S
C1044 C1045 1.524 . S
C1044 C1058 1.377 . S
C1045 C1044 1.524 . S
C1045 C1046 1.397 . S
C1045 C1050 1.363 . S
C1046 H1023 0.950 . S
C1046 C1045 1.397 . S
C1046 C1047 1.334 . S
C1047 H1024 0.950 . S
C1047 C1046 1.334 . S
C1047 C1048 1.287 . S
C1048 C1047 1.287 . S
C1048 C1049 1.524 . S
C1048 H1067 0.913 . S
C1049 H1025 0.950 . S
C1049 C1048 1.524 . S
C1049 C1050 1.415 . S
C1050 H1026 0.950 . S
C1050 C1045 1.363 . S
C1050 C1049 1.415 . S
C1051 H1027 0.951 . S
C1051 C1052 1.366 . S
C1051 C1053 1.388 . S
C1052 C1051 1.366 . S
C1052 C1056 1.385 . S
C1053 H1028 0.951 . S
C1053 C1051 1.388 . S
C1053 C1054 1.366 . S
C1054 C1053 1.366 . S
C1054 C1055 1.414 . S
C1054 C1057 1.499 . S
C1055 H1029 0.950 . S
C1055 C1054 1.414 . S
C1055 C1056 1.374 . S
C1056 H1030 0.950 . S
C1056 C1052 1.385 . S
C1056 C1055 1.374 . S
C1057 C1054 1.499 . S
C1057 C1058 1.373 . S
C1057 C1059 1.389 . S
C1058 H1031 0.950 . S
C1058 C1044 1.377 . S
C1058 C1057 1.373 . S
C1059 C1043 1.377 . S
C1059 C1057 1.389 . S
C1059 C1060 1.524 . S
C1060 C1059 1.524 . S
C1060 C1061 1.397 . S
C1060 C1065 1.363 . S
C1061 H1032 0.950 . S
C1061 C1060 1.397 . S
C1061 C1062 1.334 . S
C1062 H1033 0.950 . S
C1062 C1061 1.334 . S
C1062 C1063 1.287 . S
C1063 C1062 1.287 . S
C1063 C1064 1.524 . S
C1063 H1066 0.999 . S
C1064 H1034 0.950 . S
C1064 C1063 1.524 . S
C1064 C1065 1.415 . S
C1065 H1035 0.950 . S
C1065 C1060 1.363 . S
C1065 C1064 1.415 . S
H1066 C1063 0.999 . S
H1067 C1048 0.913 . S
H1068 C1086 0.951 . S
H1069 C1088 0.951 . S
H1070 C1090 0.950 . S
H1071 C1091 0.950 . S
H1072 C1093 0.950 . S
H1073 C1096 0.950 . S
H1074 C1097 0.950 . S
H1075 C1099 0.950 . S
H1076 C1100 0.950 . S
H1077 C1101 0.951 . S
H1078 C1103 0.951 . S
H1079 C1105 0.950 . S
H1080 C1106 0.950 . S
H1081 C1108 0.950 . S
H1082 C1111 0.950 . S
H1083 C1112 0.950 . S
H1084 C1114 0.950 . S
H1085 C1115 0.950 . S
C1086 H1068 0.951 . S
C1086 C1087 1.366 . S
C1086 C1088 1.388 . S
C1087 C1086 1.366 . S
C1087 C1091 1.385 . S
C1088 H1069 0.951 . S
C1088 C1086 1.388 . S
C1088 C1089 1.366 . S
C1089 C1088 1.366 . S
C1089 C1090 1.414 . S
C1089 C1092 1.499 . S
C1090 H1070 0.950 . S
C1090 C1089 1.414 . S
C1090 C1091 1.374 . S
C1091 H1071 0.950 . S
C1091 C1087 1.385 . S
C1091 C1090 1.374 . S
C1092 C1089 1.499 . S
C1092 C1093 1.373 . S
C1092 C1094 1.389 . S
C1093 H1072 0.950 . S
C1093 C1092 1.373 . S
C1093 C1109 1.377 . S
C1094 C1092 1.389 . S
C1094 C1095 1.524 . S
C1094 C1108 1.377 . S
C1095 C1094 1.524 . S
C1095 C1096 1.397 . S
C1095 C1100 1.363 . S
C1096 H1073 0.950 . S
C1096 C1095 1.397 . S
C1096 C1097 1.334 . S
C1097 H1074 0.950 . S
C1097 C1096 1.334 . S
C1097 C1098 1.287 . S
C1098 C1097 1.287 . S
C1098 C1099 1.524 . S
C1098 H1117 0.913 . S
C1099 H1075 0.950 . S
C1099 C1098 1.524 . S
C1099 C1100 1.415 . S
C1100 H1076 0.950 . S
C1100 C1095 1.363 . S
C1100 C1099 1.415 . S
C1101 H1077 0.951 . S
C1101 C1102 1.366 . S
C1101 C1103 1.388 . S
C1102 C1101 1.366 . S
C1102 C1106 1.385 . S
C1103 H1078 0.951 . S
C1103 C1101 1.388 . S
C1103 C1104 1.366 . S
C1104 C1103 1.366 . S
C1104 C1105 1.414 . S
C1104 C1107 1.499 . S
C1105 H1079 0.950 . S
C1105 C1104 1.414 . S
C1105 C1106 1.374 . S
C1106 H1080 0.950 . S
C1106 C1102 1.385 . S
C1106 C1105 1.374 . S
C1107 C1104 1.499 . S
C1107 C1108 1.373 . S
C1107 C1109 1.389 . S
C1108 H1081 0.950 . S
C1108 C1094 1.377 . S
C1108 C1107 1.373 . S
C1109 C1093 1.377 . S
C1109 C1107 1.389 . S
C1109 C1110 1.524 . S
C1110 C1109 1.524 . S
C1110 C1111 1.397 . S
C1110 C1115 1.363 . S
C1111 H1082 0.950 . S
C1111 C1110 1.397 . S
C1111 C1112 1.334 . S
C1112 H1083 0.950 . S
C1112 C1111 1.334 . S
C1112 C1113 1.287 . S
C1113 C1112 1.287 . S
C1113 C1114 1.524 . S
C1113 H1116 0.999 . S
C1114 H1084 0.950 . S
C1114 C1113 1.524 . S
C1114 C1115 1.415 . S
C1115 H1085 0.950 . S
C1115 C1110 1.363 . S
C1115 C1114 1.415 . S
H1116 C1113 0.999 . S
H1117 C1098 0.913 . S
H1118 C1136 0.951 . S
H1119 C1138 0.951 . S
H1120 C1140 0.950 . S
H1121 C1141 0.950 . S
H1122 C1143 0.950 . S
H1123 C1146 0.950 . S
H1124 C1147 0.950 . S
H1125 C1149 0.950 . S
H1126 C1150 0.950 . S
H1127 C1151 0.951 . S
H1128 C1153 0.951 . S
H1129 C1155 0.950 . S
H1130 C1156 0.950 . S
H1131 C1158 0.950 . S
H1132 C1161 0.950 . S
H1133 C1162 0.950 . S
H1134 C1164 0.950 . S
H1135 C1165 0.950 . S
C1136 H1118 0.951 . S
C1136 C1137 1.366 . S
C1136 C1138 1.388 . S
C1137 C1136 1.366 . S
C1137 C1141 1.385 . S
C1138 H1119 0.951 . S
C1138 C1136 1.388 . S
C1138 C1139 1.366 . S
C1139 C1138 1.366 . S
C1139 C1140 1.414 . S
C1139 C1142 1.499 . S
C1140 H1120 0.950 . S
C1140 C1139 1.414 . S
C1140 C1141 1.374 . S
C1141 H1121 0.950 . S
C1141 C1137 1.385 . S
C1141 C1140 1.374 . S
C1142 C1139 1.499 . S
C1142 C1143 1.373 . S
C1142 C1144 1.389 . S
C1143 H1122 0.950 . S
C1143 C1142 1.373 . S
C1143 C1159 1.377 . S
C1144 C1142 1.389 . S
C1144 C1145 1.524 . S
C1144 C1158 1.377 . S
C1145 C1144 1.524 . S
C1145 C1146 1.397 . S
C1145 C1150 1.363 . S
C1146 H1123 0.950 . S
C1146 C1145 1.397 . S
C1146 C1147 1.334 . S
C1147 H1124 0.950 . S
C1147 C1146 1.334 . S
C1147 C1148 1.287 . S
C1148 C1147 1.287 . S
C1148 C1149 1.524 . S
C1148 H1167 0.913 . S
C1149 H1125 0.950 . S
C1149 C1148 1.524 . S
C1149 C1150 1.415 . S
C1150 H1126 0.950 . S
C1150 C1145 1.363 . S
C1150 C1149 1.415 . S
C1151 H1127 0.951 . S
C1151 C1152 1.366 . S
C1151 C1153 1.388 . S
C1152 C1151 1.366 . S
C1152 C1156 1.385 . S
C1153 H1128 0.951 . S
C1153 C1151 1.388 . S
C1153 C1154 1.366 . S
C1154 C1153 1.366 . S
C1154 C1155 1.414 . S
C1154 C1157 1.499 . S
C1155 H1129 0.950 . S
C1155 C1154 1.414 . S
C1155 C1156 1.374 . S
C1156 H1130 0.950 . S
C1156 C1152 1.385 . S
C1156 C1155 1.374 . S
C1157 C1154 1.499 . S
C1157 C1158 1.373 . S
C1157 C1159 1.389 . S
C1158 H1131 0.950 . S
C1158 C1144 1.377 . S
C1158 C1157 1.373 . S
C1159 C1143 1.377 . S
C1159 C1157 1.389 . S
C1159 C1160 1.524 . S
C1160 C1159 1.524 . S
C1160 C1161 1.397 . S
C1160 C1165 1.363 . S
C1161 H1132 0.950 . S
C1161 C1160 1.397 . S
C1161 C1162 1.334 . S
C1162 H1133 0.950 . S
C1162 C1161 1.334 . S
C1162 C1163 1.287 . S
C1163 C1162 1.287 . S
C1163 C1164 1.524 . S
C1163 H1166 0.999 . S
C1164 H1134 0.950 . S
C1164 C1163 1.524 . S
C1164 C1165 1.415 . S
C1165 H1135 0.950 . S
C1165 C1160 1.363 . S
C1165 C1164 1.415 . S
H1166 C1163 0.999 . S
H1167 C1148 0.913 . S
H1168 C1186 0.951 . S
H1169 C1188 0.951 . S
H1170 C1190 0.950 . S
H1171 C1191 0.950 . S
H1172 C1193 0.950 . S
H1173 C1196 0.950 . S
H1174 C1197 0.950 . S
H1175 C1199 0.950 . S
H1176 C1200 0.950 . S
H1177 C1201 0.951 . S
H1178 C1203 0.951 . S
H1179 C1205 0.950 . S
H1180 C1206 0.950 . S
H1181 C1208 0.950 . S
H1182 C1211 0.950 . S
H1183 C1212 0.950 . S
H1184 C1214 0.950 . S
H1185 C1215 0.950 . S
C1186 H1168 0.951 . S
C1186 C1187 1.366 . S
C1186 C1188 1.388 . S
C1187 C1186 1.366 . S
C1187 C1191 1.385 . S
C1188 H1169 0.951 . S
C1188 C1186 1.388 . S
C1188 C1189 1.366 . S
C1189 C1188 1.366 . S
C1189 C1190 1.414 . S
C1189 C1192 1.499 . S
C1190 H1170 0.950 . S
C1190 C1189 1.414 . S
C1190 C1191 1.374 . S
C1191 H1171 0.950 . S
C1191 C1187 1.385 . S
C1191 C1190 1.374 . S
C1192 C1189 1.499 . S
C1192 C1193 1.373 1_556 S
C1192 C1194 1.389 . S
C1193 H1172 0.950 . S
C1193 C1192 1.373 1_554 S
C1193 C1209 1.377 . S
C1194 C1192 1.389 . S
C1194 C1195 1.524 . S
C1194 C1208 1.377 . S
C1195 C1194 1.524 . S
C1195 C1196 1.397 . S
C1195 C1200 1.363 . S
C1196 H1173 0.950 . S
C1196 C1195 1.397 . S
C1196 C1197 1.334 . S
C1197 H1174 0.950 . S
C1197 C1196 1.334 . S
C1197 C1198 1.287 . S
C1198 C1197 1.287 . S
C1198 C1199 1.524 . S
C1198 H1217 0.913 . S
C1199 H1175 0.950 . S
C1199 C1198 1.524 . S
C1199 C1200 1.415 . S
C1200 H1176 0.950 . S
C1200 C1195 1.363 . S
C1200 C1199 1.415 . S
C1201 H1177 0.951 . S
C1201 C1202 1.366 . S
C1201 C1203 1.388 . S
C1202 C1201 1.366 . S
C1202 C1206 1.385 . S
C1203 H1178 0.951 . S
C1203 C1201 1.388 . S
C1203 C1204 1.366 . S
C1204 C1203 1.366 . S
C1204 C1205 1.414 . S
C1204 C1207 1.499 . S
C1205 H1179 0.950 . S
C1205 C1204 1.414 . S
C1205 C1206 1.374 . S
C1206 H1180 0.950 . S
C1206 C1202 1.385 . S
C1206 C1205 1.374 . S
C1207 C1204 1.499 . S
C1207 C1208 1.373 1_554 S
C1207 C1209 1.389 . S
C1208 H1181 0.950 . S
C1208 C1194 1.377 . S
C1208 C1207 1.373 1_556 S
C1209 C1193 1.377 . S
C1209 C1207 1.389 . S
C1209 C1210 1.524 . S
C1210 C1209 1.524 . S
C1210 C1211 1.397 . S
C1210 C1215 1.363 . S
C1211 H1182 0.950 . S
C1211 C1210 1.397 . S
C1211 C1212 1.334 . S
C1212 H1183 0.950 . S
C1212 C1211 1.334 . S
C1212 C1213 1.287 . S
C1213 C1212 1.287 . S
C1213 C1214 1.524 . S
C1213 H1216 0.999 . S
C1214 H1184 0.950 . S
C1214 C1213 1.524 . S
C1214 C1215 1.415 . S
C1215 H1185 0.950 . S
C1215 C1210 1.363 . S
C1215 C1214 1.415 . S
H1216 C1213 0.999 . S
H1217 C1198 0.913 . S
H1218 C1236 0.951 . S
H1219 C1238 0.951 . S
H1220 C1240 0.950 . S
H1221 C1241 0.950 . S
H1222 C1243 0.950 . S
H1223 C1246 0.950 . S
H1224 C1247 0.950 . S
H1225 C1249 0.950 . S
H1226 C1250 0.950 . S
H1227 C1251 0.951 . S
H1228 C1253 0.951 . S
H1229 C1255 0.950 . S
H1230 C1256 0.950 . S
H1231 C1258 0.950 . S
H1232 C1261 0.950 . S
H1233 C1262 0.950 . S
H1234 C1264 0.950 . S
H1235 C1265 0.950 . S
C1236 H1218 0.951 . S
C1236 C1237 1.366 . S
C1236 C1238 1.388 . S
C1237 C1236 1.366 . S
C1237 C1241 1.385 . S
C1238 H1219 0.951 . S
C1238 C1236 1.388 . S
C1238 C1239 1.366 . S
C1239 C1238 1.366 . S
C1239 C1240 1.414 . S
C1239 C1242 1.499 . S
C1240 H1220 0.950 . S
C1240 C1239 1.414 . S
C1240 C1241 1.374 . S
C1241 H1221 0.950 . S
C1241 C1237 1.385 . S
C1241 C1240 1.374 . S
C1242 C1239 1.499 . S
C1242 C1243 1.373 . S
C1242 C1244 1.389 . S
C1243 H1222 0.950 . S
C1243 C1242 1.373 . S
C1243 C1259 1.377 . S
C1244 C1242 1.389 . S
C1244 C1245 1.524 . S
C1244 C1258 1.377 . S
C1245 C1244 1.524 . S
C1245 C1246 1.397 . S
C1245 C1250 1.363 . S
C1246 H1223 0.950 . S
C1246 C1245 1.397 . S
C1246 C1247 1.334 . S
C1247 H1224 0.950 . S
C1247 C1246 1.334 . S
C1247 C1248 1.287 . S
C1248 C1247 1.287 . S
C1248 C1249 1.524 . S
C1248 H1267 0.913 . S
C1249 H1225 0.950 . S
C1249 C1248 1.524 . S
C1249 C1250 1.415 . S
C1250 H1226 0.950 . S
C1250 C1245 1.363 . S
C1250 C1249 1.415 . S
C1251 H1227 0.951 . S
C1251 C1252 1.366 . S
C1251 C1253 1.388 . S
C1252 C1251 1.366 . S
C1252 C1256 1.385 . S
C1253 H1228 0.951 . S
C1253 C1251 1.388 . S
C1253 C1254 1.366 . S
C1254 C1253 1.366 . S
C1254 C1255 1.414 . S
C1254 C1257 1.499 . S
C1255 H1229 0.950 . S
C1255 C1254 1.414 . S
C1255 C1256 1.374 . S
C1256 H1230 0.950 . S
C1256 C1252 1.385 . S
C1256 C1255 1.374 . S
C1257 C1254 1.499 . S
C1257 C1258 1.373 . S
C1257 C1259 1.389 . S
C1258 H1231 0.950 . S
C1258 C1244 1.377 . S
C1258 C1257 1.373 . S
C1259 C1243 1.377 . S
C1259 C1257 1.389 . S
C1259 C1260 1.524 . S
C1260 C1259 1.524 . S
C1260 C1261 1.397 . S
C1260 C1265 1.363 . S
C1261 H1232 0.950 . S
C1261 C1260 1.397 . S
C1261 C1262 1.334 . S
C1262 H1233 0.950 . S
C1262 C1261 1.334 . S
C1262 C1263 1.287 . S
C1263 C1262 1.287 . S
C1263 C1264 1.524 . S
C1263 H1266 0.999 . S
C1264 H1234 0.950 . S
C1264 C1263 1.524 . S
C1264 C1265 1.415 . S
C1265 H1235 0.950 . S
C1265 C1260 1.363 . S
C1265 C1264 1.415 . S
H1266 C1263 0.999 . S
H1267 C1248 0.913 . S
H1268 C1286 0.951 . S
H1269 C1288 0.951 . S
H1270 C1290 0.950 . S
H1271 C1291 0.950 . S
H1272 C1293 0.950 . S
H1273 C1296 0.950 . S
H1274 C1297 0.950 . S
H1275 C1299 0.950 . S
H1276 C1300 0.950 . S
H1277 C1301 0.951 . S
H1278 C1303 0.951 . S
H1279 C1305 0.950 . S
H1280 C1306 0.950 . S
H1281 C1308 0.950 . S
H1282 C1311 0.950 . S
H1283 C1312 0.950 . S
H1284 C1314 0.950 . S
H1285 C1315 0.950 . S
C1286 H1268 0.951 . S
C1286 C1287 1.366 . S
C1286 C1288 1.388 . S
C1287 C1286 1.366 . S
C1287 C1291 1.385 . S
C1288 H1269 0.951 . S
C1288 C1286 1.388 . S
C1288 C1289 1.366 . S
C1289 C1288 1.366 . S
C1289 C1290 1.414 . S
C1289 C1292 1.499 . S
C1290 H1270 0.950 . S
C1290 C1289 1.414 . S
C1290 C1291 1.374 . S
C1291 H1271 0.950 . S
C1291 C1287 1.385 . S
C1291 C1290 1.374 . S
C1292 C1289 1.499 . S
C1292 C1293 1.373 . S
C1292 C1294 1.389 . S
C1293 H1272 0.950 . S
C1293 C1292 1.373 . S
C1293 C1309 1.377 . S
C1294 C1292 1.389 . S
C1294 C1295 1.524 . S
C1294 C1308 1.377 . S
C1295 C1294 1.524 . S
C1295 C1296 1.397 . S
C1295 C1300 1.363 . S
C1296 H1273 0.950 . S
C1296 C1295 1.397 . S
C1296 C1297 1.334 . S
C1297 H1274 0.950 . S
C1297 C1296 1.334 . S
C1297 C1298 1.287 . S
C1298 C1297 1.287 . S
C1298 C1299 1.524 . S
C1298 H1317 0.913 . S
C1299 H1275 0.950 . S
C1299 C1298 1.524 . S
C1299 C1300 1.415 . S
C1300 H1276 0.950 . S
C1300 C1295 1.363 . S
C1300 C1299 1.415 . S
C1301 H1277 0.951 . S
C1301 C1302 1.366 . S
C1301 C1303 1.388 . S
C1302 C1301 1.366 . S
C1302 C1306 1.385 . S
C1303 H1278 0.951 . S
C1303 C1301 1.388 . S
C1303 C1304 1.366 . S
C1304 C1303 1.366 . S
C1304 C1305 1.414 . S
C1304 C1307 1.499 . S
C1305 H1279 0.950 . S
C1305 C1304 1.414 . S
C1305 C1306 1.374 . S
C1306 H1280 0.950 . S
C1306 C1302 1.385 . S
C1306 C1305 1.374 . S
C1307 C1304 1.499 . S
C1307 C1308 1.373 . S
C1307 C1309 1.389 . S
C1308 H1281 0.950 . S
C1308 C1294 1.377 . S
C1308 C1307 1.373 . S
C1309 C1293 1.377 . S
C1309 C1307 1.389 . S
C1309 C1310 1.524 . S
C1310 C1309 1.524 . S
C1310 C1311 1.397 . S
C1310 C1315 1.363 . S
C1311 H1282 0.950 . S
C1311 C1310 1.397 . S
C1311 C1312 1.334 . S
C1312 H1283 0.950 . S
C1312 C1311 1.334 . S
C1312 C1313 1.287 . S
C1313 C1312 1.287 . S
C1313 C1314 1.524 . S
C1313 H1316 0.999 . S
C1314 H1284 0.950 . S
C1314 C1313 1.524 . S
C1314 C1315 1.415 . S
C1315 H1285 0.950 . S
C1315 C1310 1.363 . S
C1315 C1314 1.415 . S
H1316 C1313 0.999 . S
H1317 C1298 0.913 . S
H1318 C1336 0.951 . S
H1319 C1338 0.951 . S
H1320 C1340 0.950 . S
H1321 C1341 0.950 . S
H1322 C1343 0.950 . S
H1323 C1346 0.950 . S
H1324 C1347 0.950 . S
H1325 C1349 0.950 . S
H1326 C1350 0.950 . S
H1327 C1351 0.951 . S
H1328 C1353 0.951 . S
H1329 C1355 0.950 . S
H1330 C1356 0.950 . S
H1331 C1358 0.950 . S
H1332 C1361 0.950 . S
H1333 C1362 0.950 . S
H1334 C1364 0.950 . S
H1335 C1365 0.950 . S
C1336 H1318 0.951 . S
C1336 C1337 1.366 1_556 S
C1336 C1338 1.388 . S
C1337 C1336 1.366 1_554 S
C1337 C1341 1.385 . S
C1338 H1319 0.951 . S
C1338 C1336 1.388 . S
C1338 C1339 1.366 1_556 S
C1339 C1338 1.366 1_554 S
C1339 C1340 1.414 . S
C1339 C1342 1.499 . S
C1340 H1320 0.950 . S
C1340 C1339 1.414 . S
C1340 C1341 1.374 . S
C1341 H1321 0.950 . S
C1341 C1337 1.385 . S
C1341 C1340 1.374 . S
C1342 C1339 1.499 . S
C1342 C1343 1.373 . S
C1342 C1344 1.389 1_554 S
C1343 H1322 0.950 . S
C1343 C1342 1.373 . S
C1343 C1359 1.377 . S
C1344 C1342 1.389 1_556 S
C1344 C1345 1.524 . S
C1344 C1358 1.377 . S
C1345 C1344 1.524 . S
C1345 C1346 1.397 1_556 S
C1345 C1350 1.363 . S
C1346 H1323 0.950 . S
C1346 C1345 1.397 1_554 S
C1346 C1347 1.334 . S
C1347 H1324 0.950 . S
C1347 C1346 1.334 . S
C1347 C1348 1.287 1_554 S
C1348 C1347 1.287 1_556 S
C1348 C1349 1.524 . S
C1348 H1367 0.913 . S
C1349 H1325 0.950 . S
C1349 C1348 1.524 . S
C1349 C1350 1.415 . S
C1350 H1326 0.950 . S
C1350 C1345 1.363 . S
C1350 C1349 1.415 . S
C1351 H1327 0.951 . S
C1351 C1352 1.366 1_554 S
C1351 C1353 1.388 . S
C1352 C1351 1.366 1_556 S
C1352 C1356 1.385 . S
C1353 H1328 0.951 . S
C1353 C1351 1.388 . S
C1353 C1354 1.366 1_554 S
C1354 C1353 1.366 1_556 S
C1354 C1355 1.414 . S
C1354 C1357 1.499 . S
C1355 H1329 0.950 . S
C1355 C1354 1.414 . S
C1355 C1356 1.374 . S
C1356 H1330 0.950 . S
C1356 C1352 1.385 . S
C1356 C1355 1.374 . S
C1357 C1354 1.499 . S
C1357 C1358 1.373 . S
C1357 C1359 1.389 1_556 S
C1358 H1331 0.950 . S
C1358 C1344 1.377 . S
C1358 C1357 1.373 . S
C1359 C1343 1.377 . S
C1359 C1357 1.389 1_554 S
C1359 C1360 1.524 . S
C1360 C1359 1.524 . S
C1360 C1361 1.397 1_554 S
C1360 C1365 1.363 . S
C1361 H1332 0.950 . S
C1361 C1360 1.397 1_556 S
C1361 C1362 1.334 . S
C1362 H1333 0.950 . S
C1362 C1361 1.334 . S
C1362 C1363 1.287 1_556 S
C1363 C1362 1.287 1_554 S
C1363 C1364 1.524 . S
C1363 H1366 0.999 . S
C1364 H1334 0.950 . S
C1364 C1363 1.524 . S
C1364 C1365 1.415 . S
C1365 H1335 0.950 . S
C1365 C1360 1.363 . S
C1365 C1364 1.415 . S
H1366 C1363 0.999 . S
H1367 C1348 0.913 . S
C187 C0 1.288 . S
C202 C126 1.288 . S
C237 C14 1.287 . S
C252 C140 1.287 . S
C287 C28 1.289 . S
C302 C154 1.289 . S
C337 C42 1.287 . S
C352 C84 1.287 . S
C387 C98 1.287 . S
C402 C56 1.287 . S
C437 C112 1.289 . S
C452 C70 1.288 . S
C487 C151 1.823 . S
C502 C11 1.822 . S
C537 C25 1.822 . S
C552 C165 1.822 . S
C587 C39 1.822 . S
C602 C95 1.822 . S
C637 C53 1.823 . S
C652 C109 1.822 . S
C687 C67 1.822 . S
C702 C123 1.823 . S
C737 C81 1.822 . S
C752 C137 1.822 . S
C787 C149 0.766 . S
C802 C9 0.766 . S
C837 C23 0.766 . S
C852 C163 0.766 . S
C887 C37 0.766 . S
C902 C93 0.766 . S
C937 C51 0.766 . S
C952 C107 0.766 . S
C987 C65 0.766 . S
C1002 C121 0.766 . S
C1037 C79 0.766 . S
C1052 C135 0.766 . S
C1087 C5 1.667 . S
C1102 C89 1.667 . S
C1137 C103 1.667 . S
C1152 C19 1.667 . S
C1187 C33 1.667 . S
C1202 C117 1.667 . S
C1237 C47 1.667 . S
C1252 C131 1.667 . S
C1287 C61 1.667 . S
C1302 C145 1.667 . S
C1337 C159 1.667 . S
C1352 C75 1.667 . S
