# Generated by pormake.
# Topology msp, (4)-cn, num edge types: 1
# Building blocks:
#     Node 0, Type 0, BuildingBlock: ICAMEG_clean_sbu_1, # of connection points: 4
#     Node 1, Type 0, BuildingBlock: ICAMEG_clean_sbu_1, # of connection points: 4
#     Node 2, Type 0, BuildingBlock: ICAMEG_clean_sbu_1, # of connection points: 4
#     Node 3, Type 0, BuildingBlock: ICAMEG_clean_sbu_1, # of connection points: 4
#     Node 4, Type 0, BuildingBlock: ICAMEG_clean_sbu_1, # of connection points: 4
#     Node 5, Type 0, BuildingBlock: ICAMEG_clean_sbu_1, # of connection points: 4
#     Node 6, Type 0, BuildingBlock: ICAMEG_clean_sbu_1, # of connection points: 4
#     Node 7, Type 0, BuildingBlock: ICAMEG_clean_sbu_1, # of connection points: 4
#     Edge 8, Type (0, 0), BuildingBlock: EYOCIG_clean_linker_4, # of connection points: 2
#     Edge 9, Type (0, 0), BuildingBlock: EYOCIG_clean_linker_4, # of connection points: 2
#     Edge 10, Type (0, 0), BuildingBlock: EYOCIG_clean_linker_4, # of connection points: 2
#     Edge 11, Type (0, 0), BuildingBlock: EYOCIG_clean_linker_4, # of connection points: 2
#     Edge 12, Type (0, 0), BuildingBlock: EYOCIG_clean_linker_4, # of connection points: 2
#     Edge 13, Type (0, 0), BuildingBlock: EYOCIG_clean_linker_4, # of connection points: 2
#     Edge 14, Type (0, 0), BuildingBlock: EYOCIG_clean_linker_4, # of connection points: 2
#     Edge 15, Type (0, 0), BuildingBlock: EYOCIG_clean_linker_4, # of connection points: 2
#     Edge 16, Type (0, 0), BuildingBlock: EYOCIG_clean_linker_4, # of connection points: 2
#     Edge 17, Type (0, 0), BuildingBlock: EYOCIG_clean_linker_4, # of connection points: 2
#     Edge 18, Type (0, 0), BuildingBlock: EYOCIG_clean_linker_4, # of connection points: 2
#     Edge 19, Type (0, 0), BuildingBlock: EYOCIG_clean_linker_4, # of connection points: 2
#     Edge 20, Type (0, 0), BuildingBlock: EYOCIG_clean_linker_4, # of connection points: 2
#     Edge 21, Type (0, 0), BuildingBlock: EYOCIG_clean_linker_4, # of connection points: 2
#     Edge 22, Type (0, 0), BuildingBlock: EYOCIG_clean_linker_4, # of connection points: 2
#     Edge 23, Type (0, 0), BuildingBlock: EYOCIG_clean_linker_4, # of connection points: 2
# Relax obj value: 0.048
# Max RMSD: 0.151
# Mean RMSD: 0.151
data_MOF--net-msp--node1-ICAMEG_clean_sbu_1--edge1-EYOCIG_clean_linker_4
_symmetry_space_group_name_H-M    P1
_symmetry_Int_Tables_number       1
_symmetry_cell_setting            triclinic
loop_
_symmetry_equiv_pos_as_xyz
'x, y, z'
_cell_length_a     21.378448
_cell_length_b     14.789676
_cell_length_c     35.497687
_cell_angle_alpha  89.993448
_cell_angle_beta   104.26155
_cell_angle_gamma 89.99902
loop_
_atom_site_label
_atom_site_type_symbol
_atom_site_fract_x
_atom_site_fract_y
_atom_site_fract_z
_atom_type_partial_charge
Co0 Co 0.11736 0.35255 0.37384 0.0
Co1 Co 0.99773 0.20706 0.38271 0.0
O2 O 0.04377 0.27482 0.34979 0.0
C3 C 0.1723 0.24659 0.31853 0.0
O4 O 0.15673 0.1715 0.33359 0.0
C5 C 0.89405 0.27823 0.31652 0.0
O6 O 0.9263 0.35428 0.31864 0.0
O7 O 0.97796 0.32397 0.4053 0.0
O8 O 0.07758 0.38432 0.41809 0.0
H9 H 0.94773 0.12742 0.50983 0.0
H10 H 0.06678 0.39563 0.28967 0.0
O11 O 0.15953 0.32331 0.33084 0.0
H12 H 0.04535 0.67706 0.35987 0.0
H13 H 0.29337 0.57723 0.37178 0.0
H14 H 0.20047 0.37413 0.45397 0.0
H15 H 0.08144 0.53714 0.39579 0.0
H16 H 0.19648 0.48716 0.34342 0.0
O17 O 0.91547 0.21334 0.33981 0.0
H18 H 0.9999 0.2136 0.46662 0.0
H19 H 0.89487 0.06489 0.36902 0.0
H20 H 0.29943 0.46123 0.48323 0.0
H21 H 0.04393 0.53862 0.25382 0.0
H22 H 0.34562 0.56435 0.44225 0.0
H23 H 0.02811 0.67939 0.2881 0.0
O24 O 0.16018 0.24719 0.4033 0.0
H25 H 0.05791 1.00369 0.28312 0.0
H26 H 0.04023 0.0284 0.41814 0.0
H27 H 0.07979 0.88746 0.39596 0.0
H28 H 0.08934 0.8747 0.3279 0.0
H29 H 0.00997 0.14117 0.30497 0.0
H30 H 0.84029 0.97854 0.41118 0.0
H31 H 0.8676 0.0085 0.48222 0.0
O32 O 0.07798 0.19488 0.42562 0.0
C33 C 0.02091 0.37886 0.42371 0.0
C34 C 0.93551 0.11366 0.47892 0.0
C35 C 0.87517 0.03022 0.42354 0.0
N36 N 0.95083 0.14399 0.41529 0.0
C37 C 0.96497 0.16219 0.45426 0.0
C38 C 0.90579 0.07989 0.39975 0.0
C39 C 0.89052 0.04698 0.46341 0.0
C40 C 0.0623 0.45688 0.30536 0.0
N41 N 0.07557 0.45704 0.345 0.0
C42 C 0.04736 0.53733 0.28457 0.0
C43 C 0.04004 0.61677 0.30404 0.0
C44 C 0.04976 0.61546 0.34426 0.0
C45 C 0.06875 0.53501 0.36444 0.0
C46 C 0.27323 0.5331 0.3901 0.0
C47 C 0.22043 0.41905 0.43594 0.0
C48 C 0.21807 0.4821 0.37424 0.0
N49 N 0.19199 0.42649 0.39716 0.0
C50 C 0.27628 0.46814 0.45268 0.0
C51 C 0.3025 0.52585 0.42961 0.0
C52 C 0.13748 0.19751 0.42587 0.0
C53 C 0.05076 0.00762 0.31216 0.0
C54 C 0.04078 0.02239 0.38789 0.0
C55 C 0.06427 0.94246 0.37568 0.0
C56 C 0.06962 0.93538 0.33756 0.0
N57 N 0.02072 0.09258 0.36256 0.0
C58 C 0.02455 0.08537 0.32487 0.0
Co59 Co 0.38767 0.35252 0.62406 0.0
Co60 Co 0.50729 0.20696 0.61528 0.0
O61 O 0.46122 0.27476 0.64816 0.0
C62 C 0.33273 0.24667 0.6794 0.0
O63 O 0.34839 0.17156 0.66442 0.0
C64 C 0.61103 0.27838 0.68132 0.0
O65 O 0.57895 0.35462 0.67897 0.0
O66 O 0.52713 0.32384 0.59268 0.0
O67 O 0.42751 0.38421 0.57984 0.0
H68 H 0.55758 0.12731 0.48824 0.0
H69 H 0.43822 0.39559 0.70822 0.0
O70 O 0.34542 0.32337 0.66704 0.0
H71 H 0.45967 0.67701 0.638 0.0
H72 H 0.21164 0.57733 0.62593 0.0
H73 H 0.3047 0.37408 0.54388 0.0
H74 H 0.4236 0.53709 0.60209 0.0
H75 H 0.30849 0.4872 0.65438 0.0
O76 O 0.5895 0.21323 0.65822 0.0
H77 H 0.50529 0.21349 0.53139 0.0
H78 H 0.61011 0.06472 0.62905 0.0
H79 H 0.20579 0.46124 0.51454 0.0
H80 H 0.46109 0.53856 0.74406 0.0
H81 H 0.15954 0.56444 0.55544 0.0
H82 H 0.47692 0.67934 0.70977 0.0
O83 O 0.34486 0.24714 0.59461 0.0
H84 H 0.44714 1.00356 0.71488 0.0
H85 H 0.46474 0.02835 0.57985 0.0
H86 H 0.42514 0.88742 0.60203 0.0
H87 H 0.41564 0.87462 0.67009 0.0
H88 H 0.49504 0.14106 0.69302 0.0
H89 H 0.66478 0.97834 0.58695 0.0
H90 H 0.63765 0.00835 0.51592 0.0
O91 O 0.4271 0.19481 0.57233 0.0
C92 C 0.4842 0.37873 0.57424 0.0
C93 C 0.56973 0.11353 0.51915 0.0
C94 C 0.62994 0.03004 0.57457 0.0
N95 N 0.55425 0.14385 0.58274 0.0
C96 C 0.5402 0.16206 0.54378 0.0
C97 C 0.59925 0.07972 0.59832 0.0
C98 C 0.61468 0.04683 0.5347 0.0
C99 C 0.44271 0.45684 0.69253 0.0
N100 N 0.42944 0.45701 0.65288 0.0
C101 C 0.45766 0.53728 0.71331 0.0
C102 C 0.46498 0.61672 0.69383 0.0
C103 C 0.45526 0.61541 0.65361 0.0
C104 C 0.43627 0.53497 0.63344 0.0
C105 C 0.23182 0.53316 0.60765 0.0
C106 C 0.28471 0.41903 0.56189 0.0
C107 C 0.28694 0.48213 0.62356 0.0
N108 N 0.31307 0.42647 0.60068 0.0
C109 C 0.22889 0.46815 0.54509 0.0
C110 C 0.20263 0.5259 0.56813 0.0
C111 C 0.36759 0.19745 0.57206 0.0
C112 C 0.45424 0.00751 0.68583 0.0
C113 C 0.46418 0.02233 0.6101 0.0
C114 C 0.44067 0.94241 0.6223 0.0
C115 C 0.43535 0.9353 0.66043 0.0
N116 N 0.48425 0.0925 0.63542 0.0
C117 C 0.48044 0.08527 0.67312 0.0
Co118 Co 0.88785 0.65601 0.62406 0.0
Co119 Co 0.00727 0.80182 0.61517 0.0
O120 O 0.96139 0.73385 0.64811 0.0
C121 C 0.83306 0.76151 0.67956 0.0
O122 O 0.84861 0.83671 0.66458 0.0
C123 C 0.11103 0.7311 0.68146 0.0
O124 O 0.07874 0.65515 0.67955 0.0
O125 O 0.02714 0.685 0.59254 0.0
O126 O 0.92754 0.62459 0.57974 0.0
H127 H 0.05683 0.88181 0.48796 0.0
H128 H 0.93863 0.61248 0.70819 0.0
O129 O 0.84577 0.68489 0.66714 0.0
H130 H 0.96011 0.33161 0.63763 0.0
H131 H 0.71213 0.43082 0.62609 0.0
H132 H 0.80457 0.63469 0.54396 0.0
H133 H 0.92386 0.47167 0.60189 0.0
H134 H 0.80898 0.521 0.65445 0.0
O135 O 0.08963 0.79573 0.65802 0.0
H136 H 0.00491 0.79541 0.53122 0.0
H137 H 0.10994 0.94428 0.62878 0.0
H138 H 0.70564 0.54752 0.51471 0.0
H139 H 0.96164 0.46927 0.74386 0.0
H140 H 0.65969 0.444 0.55566 0.0
H141 H 0.97749 0.3288 0.7094 0.0
O142 O 0.84488 0.76144 0.59472 0.0
H143 H 0.94728 0.00497 0.71489 0.0
H144 H 0.96444 0.9804 0.57977 0.0
H145 H 0.92483 0.12124 0.60203 0.0
H146 H 0.91556 0.13392 0.67014 0.0
H147 H 0.9952 0.86757 0.69296 0.0
H148 H 0.16427 0.03086 0.58656 0.0
H149 H 0.13684 1.00092 0.51552 0.0
O150 O 0.92695 0.81385 0.57231 0.0
C151 C 0.9842 0.63012 0.5741 0.0
C152 C 0.06911 0.89556 0.51887 0.0
C153 C 0.12945 0.97909 0.57423 0.0
N154 N 0.05399 0.86508 0.58254 0.0
C155 C 0.03979 0.8469 0.54357 0.0
C156 C 0.09896 0.9293 0.59805 0.0
C157 C 0.11403 0.96235 0.53435 0.0
C158 C 0.94314 0.55136 0.69242 0.0
N159 N 0.92979 0.55145 0.65277 0.0
C160 C 0.95817 0.47079 0.71312 0.0
C161 C 0.9655 0.39151 0.69354 0.0
C162 C 0.9557 0.39309 0.65332 0.0
C163 C 0.93662 0.47363 0.63324 0.0
C164 C 0.73218 0.47512 0.60779 0.0
C165 C 0.78472 0.58961 0.56198 0.0
C166 C 0.7873 0.52618 0.62364 0.0
N167 N 0.81326 0.58201 0.60074 0.0
C168 C 0.72888 0.54047 0.54524 0.0
C169 C 0.70279 0.48254 0.5683 0.0
C170 C 0.86747 0.81118 0.57213 0.0
C171 C 0.9543 1.00107 0.68583 0.0
C172 C 0.96398 0.98638 0.61004 0.0
C173 C 0.94047 0.06625 0.62229 0.0
C174 C 0.93528 0.07329 0.66044 0.0
N175 N 0.98419 0.9162 0.63535 0.0
C176 C 0.98051 0.92337 0.67307 0.0
Co177 Co 0.61723 0.65605 0.37393 0.0
Co178 Co 0.49761 0.8016 0.38273 0.0
O179 O 0.54364 0.73377 0.34983 0.0
C180 C 0.67203 0.76174 0.31848 0.0
O181 O 0.65634 0.8369 0.33342 0.0
C182 C 0.39383 0.73009 0.31674 0.0
O183 O 0.42591 0.65384 0.31913 0.0
O184 O 0.47783 0.68475 0.40536 0.0
O185 O 0.57748 0.62447 0.41821 0.0
H186 H 0.4476 0.88142 0.50983 0.0
H187 H 0.56658 0.61268 0.28979 0.0
O188 O 0.65938 0.68508 0.33089 0.0
H189 H 0.54522 0.33155 0.36024 0.0
H190 H 0.79319 0.43116 0.37203 0.0
H191 H 0.70035 0.63471 0.45408 0.0
H192 H 0.58135 0.47157 0.39603 0.0
H193 H 0.69632 0.52125 0.3436 0.0
O194 O 0.41537 0.79528 0.33982 0.0
H195 H 0.49977 0.79516 0.46665 0.0
H196 H 0.39477 0.94381 0.36899 0.0
H197 H 0.79931 0.54762 0.48339 0.0
H198 H 0.54367 0.46955 0.25406 0.0
H199 H 0.84545 0.44426 0.44249 0.0
H200 H 0.52789 0.32894 0.28846 0.0
O201 O 0.66005 0.76151 0.40331 0.0
H202 H 0.5575 0.00507 0.28305 0.0
H203 H 0.54022 0.98021 0.41813 0.0
H204 H 0.5797 0.12117 0.39591 0.0
H205 H 0.58903 0.13401 0.32782 0.0
H206 H 0.50971 0.86751 0.30495 0.0
H207 H 0.3402 0.03026 0.41113 0.0
H208 H 0.36749 1.00035 0.48218 0.0
O209 O 0.57786 0.81379 0.42564 0.0
C210 C 0.5208 0.62992 0.42382 0.0
C211 C 0.43539 0.89515 0.47892 0.0
C212 C 0.37506 0.97857 0.4235 0.0
N213 N 0.45072 0.86474 0.41529 0.0
C214 C 0.46484 0.84658 0.45426 0.0
C215 C 0.40569 0.92885 0.39973 0.0
C216 C 0.39041 0.96184 0.46338 0.0
C217 C 0.56211 0.5515 0.30553 0.0
N218 N 0.57542 0.55148 0.34518 0.0
C219 C 0.54714 0.47097 0.28481 0.0
C220 C 0.53984 0.39162 0.30435 0.0
C221 C 0.54961 0.39308 0.34457 0.0
C222 C 0.56863 0.47359 0.36468 0.0
C223 C 0.77306 0.4754 0.39031 0.0
C224 C 0.7203 0.5897 0.43607 0.0
C225 C 0.71792 0.52641 0.37442 0.0
N226 N 0.69186 0.58215 0.3973 0.0
C227 C 0.77614 0.54061 0.45285 0.0
C228 C 0.80234 0.48277 0.42982 0.0
C229 C 0.63736 0.81118 0.42588 0.0
C230 C 0.55045 1.00109 0.3121 0.0
C231 C 0.54071 0.98624 0.38788 0.0
C232 C 0.56415 0.06618 0.37564 0.0
C233 C 0.56937 0.07331 0.3375 0.0
N234 N 0.5206 0.91606 0.36255 0.0
C235 C 0.52432 0.9233 0.32484 0.0
Co236 Co 0.61683 0.85283 0.87367 0.0
Co237 Co 0.49734 0.70717 0.88257 0.0
O238 O 0.54328 0.77504 0.84963 0.0
C239 C 0.67151 0.74711 0.81819 0.0
O240 O 0.6558 0.67198 0.83315 0.0
C241 C 0.39343 0.77854 0.8166 0.0
O242 O 0.42539 0.85488 0.81899 0.0
O243 O 0.47748 0.82402 0.90517 0.0
O244 O 0.57708 0.88442 0.91794 0.0
H245 H 0.44727 0.62755 0.00968 0.0
H246 H 0.56605 0.89606 0.78953 0.0
O247 O 0.65895 0.82379 0.83063 0.0
H248 H 0.54482 0.17733 0.85989 0.0
H249 H 0.79287 0.07751 0.87169 0.0
H250 H 0.69981 0.87448 0.95383 0.0
H251 H 0.58097 0.03733 0.89573 0.0
H252 H 0.69596 0.9875 0.84329 0.0
O253 O 0.41507 0.71336 0.83967 0.0
H254 H 0.49947 0.71371 0.96648 0.0
H255 H 0.39462 0.56481 0.86888 0.0
H256 H 0.79878 0.9615 0.98313 0.0
H257 H 0.5431 0.03914 0.75374 0.0
H258 H 0.84506 0.06459 0.94217 0.0
H259 H 0.52739 0.17982 0.78811 0.0
O260 O 0.65974 0.74745 0.90309 0.0
H261 H 0.55724 0.50381 0.78289 0.0
H262 H 0.54013 0.52865 0.91802 0.0
H263 H 0.57972 0.38775 0.89581 0.0
H264 H 0.58898 0.37492 0.8277 0.0
H265 H 0.50934 0.64125 0.80479 0.0
H266 H 0.34004 0.47843 0.91103 0.0
H267 H 0.36722 0.50852 0.98206 0.0
O268 O 0.57763 0.69512 0.92549 0.0
C269 C 0.52042 0.87892 0.92357 0.0
C270 C 0.4351 0.61373 0.97878 0.0
C271 C 0.37487 0.53016 0.92339 0.0
N272 N 0.4505 0.644 0.91516 0.0
C273 C 0.46458 0.66225 0.95412 0.0
C274 C 0.40551 0.57983 0.89961 0.0
C275 C 0.39015 0.54699 0.96326 0.0
C276 C 0.5616 0.95727 0.80525 0.0
N277 N 0.57497 0.95735 0.8449 0.0
C278 C 0.54661 0.03777 0.7845 0.0
C279 C 0.53935 0.11716 0.80402 0.0
C280 C 0.54918 0.11576 0.84424 0.0
C281 C 0.56821 0.03527 0.86438 0.0
C282 C 0.77269 0.03339 0.88999 0.0
C283 C 0.71981 0.91937 0.93581 0.0
C284 C 0.71754 0.98242 0.87412 0.0
N285 N 0.69142 0.92679 0.89702 0.0
C286 C 0.77566 0.96843 0.95257 0.0
C287 C 0.80193 0.02611 0.92951 0.0
C288 C 0.63714 0.69791 0.92575 0.0
C289 C 0.55024 0.50776 0.81196 0.0
C290 C 0.54059 0.52261 0.88775 0.0
C291 C 0.56409 0.44271 0.87553 0.0
C292 C 0.56927 0.43559 0.83738 0.0
N293 N 0.52039 0.59275 0.86242 0.0
C294 C 0.52405 0.58549 0.8247 0.0
Co295 Co 0.88824 0.85254 0.12428 0.0
Co296 Co 0.00757 0.70664 0.11533 0.0
O297 O 0.96176 0.77464 0.1483 0.0
C298 C 0.83362 0.7471 0.17987 0.0
O299 O 0.84923 0.67189 0.16494 0.0
C300 C 0.11143 0.77732 0.18157 0.0
O301 O 0.07921 0.85335 0.17961 0.0
O302 O 0.02748 0.82345 0.09271 0.0
O303 O 0.9279 0.88393 0.07994 0.0
H304 H 0.05716 0.62682 0.98811 0.0
H305 H 0.93918 0.89601 0.20839 0.0
O306 O 0.84621 0.82371 0.16738 0.0
H307 H 0.96044 0.17695 0.13779 0.0
H308 H 0.71241 0.07752 0.12633 0.0
H309 H 0.80509 0.87414 0.04415 0.0
H310 H 0.92418 0.03688 0.10207 0.0
H311 H 0.80933 0.98745 0.15468 0.0
O312 O 0.08995 0.71265 0.15817 0.0
H313 H 0.0052 0.71312 0.03138 0.0
H314 H 0.11017 0.56408 0.12892 0.0
H315 H 0.7061 0.96119 0.01491 0.0
H316 H 0.96224 0.0392 0.24406 0.0
H317 H 0.66002 0.06446 0.05589 0.0
H318 H 0.97797 0.17971 0.20958 0.0
O319 O 0.8452 0.74717 0.09494 0.0
H320 H 0.94773 0.50349 0.21511 0.0
H321 H 0.96459 0.52815 0.07993 0.0
H322 H 0.92497 0.38733 0.1022 0.0
H323 H 0.91584 0.37459 0.17034 0.0
H324 H 0.99564 0.64084 0.19314 0.0
H325 H 0.16453 0.47758 0.0867 0.0
H326 H 0.13716 0.50766 0.01566 0.0
O327 O 0.92719 0.69472 0.07246 0.0
C328 C 0.98455 0.87837 0.07429 0.0
C329 C 0.06941 0.613 0.01902 0.0
C330 C 0.12971 0.52936 0.07437 0.0
N331 N 0.05425 0.64336 0.08268 0.0
C332 C 0.04007 0.66161 0.04372 0.0
C333 C 0.0992 0.57911 0.09819 0.0
C334 C 0.11433 0.54619 0.0345 0.0
C335 C 0.94365 0.95714 0.19262 0.0
N336 N 0.93023 0.95708 0.15297 0.0
C337 C 0.9587 0.0377 0.21331 0.0
C338 C 0.96596 0.117 0.19372 0.0
C339 C 0.95609 0.11545 0.15349 0.0
C340 C 0.937 0.03491 0.13343 0.0
C341 C 0.7325 0.03332 0.10802 0.0
C342 C 0.78518 0.9191 0.06218 0.0
C343 C 0.78767 0.98232 0.12387 0.0
N344 N 0.81367 0.92659 0.10096 0.0
C345 C 0.72931 0.96818 0.04545 0.0
C346 C 0.70315 0.02596 0.06853 0.0
C347 C 0.8677 0.69758 0.07226 0.0
C348 C 0.95467 0.5074 0.18602 0.0
C349 C 0.96418 0.52215 0.1102 0.0
C350 C 0.94067 0.44229 0.12246 0.0
C351 C 0.93556 0.43522 0.16063 0.0
N352 N 0.98447 0.59228 0.13551 0.0
C353 C 0.98087 0.58508 0.17325 0.0
Co354 Co 0.38819 0.15563 0.12417 0.0
Co355 Co 0.5076 0.30142 0.11526 0.0
O356 O 0.46177 0.23342 0.14822 0.0
C357 C 0.33376 0.26094 0.17987 0.0
O358 O 0.34947 0.33617 0.16498 0.0
C359 C 0.61138 0.23088 0.18162 0.0
O360 O 0.57898 0.15504 0.17987 0.0
O361 O 0.52745 0.18461 0.09262 0.0
O362 O 0.4278 0.12435 0.07981 0.0
H363 H 0.55712 0.38129 0.98802 0.0
H364 H 0.43919 0.11182 0.20826 0.0
O365 O 0.34621 0.18435 0.16731 0.0
H366 H 0.4602 0.83112 0.13746 0.0
H367 H 0.21228 0.93071 0.12611 0.0
H368 H 0.30505 0.13427 0.04403 0.0
H369 H 0.42395 0.97134 0.10184 0.0
H370 H 0.30919 0.02073 0.15451 0.0
O371 O 0.59002 0.29534 0.15807 0.0
H372 H 0.50517 0.29499 0.0313 0.0
H373 H 0.61026 0.44389 0.12883 0.0
H374 H 0.20609 0.04723 0.01474 0.0
H375 H 0.4623 0.96847 0.24384 0.0
H376 H 0.15996 0.94388 0.05566 0.0
H377 H 0.47788 0.8281 0.20925 0.0
O378 O 0.3452 0.26114 0.0949 0.0
H379 H 0.44787 0.50456 0.21506 0.0
H380 H 0.46468 0.47997 0.07987 0.0
H381 H 0.42513 0.62081 0.10216 0.0
H382 H 0.41603 0.63351 0.17031 0.0
H383 H 0.49576 0.3672 0.19309 0.0
H384 H 0.66461 0.53038 0.0866 0.0
H385 H 0.63717 0.50037 0.01556 0.0
O386 O 0.42721 0.31345 0.07241 0.0
C387 C 0.48447 0.12981 0.07417 0.0
C388 C 0.5694 0.39507 0.01893 0.0
C389 C 0.62977 0.47863 0.07427 0.0
N390 N 0.55428 0.36469 0.0826 0.0
C391 C 0.54007 0.34647 0.04364 0.0
C392 C 0.59927 0.42889 0.0981 0.0
C393 C 0.61435 0.46184 0.0344 0.0
C394 C 0.44361 0.05074 0.19245 0.0
N395 N 0.43013 0.05096 0.15279 0.0
C396 C 0.45868 0.9701 0.21308 0.0
C397 C 0.46587 0.89087 0.19344 0.0
C398 C 0.45591 0.89256 0.15321 0.0
C399 C 0.43682 0.97319 0.1332 0.0
C400 C 0.23239 0.97495 0.10782 0.0
C401 C 0.28512 0.08927 0.06204 0.0
C402 C 0.28754 0.02593 0.1237 0.0
N403 N 0.31358 0.08171 0.10082 0.0
C404 C 0.22926 0.0402 0.04528 0.0
C405 C 0.20308 0.98237 0.06832 0.0
C406 C 0.36773 0.31072 0.07223 0.0
C407 C 0.45483 0.50067 0.18598 0.0
C408 C 0.46429 0.48596 0.11015 0.0
C409 C 0.44082 0.56583 0.12242 0.0
C410 C 0.43573 0.57288 0.16059 0.0
N411 N 0.48457 0.41579 0.13546 0.0
C412 C 0.481 0.42298 0.1732 0.0
Co413 Co 0.11683 0.15551 0.8737 0.0
Co414 Co 0.99742 0.30122 0.88271 0.0
O415 O 0.04324 0.23334 0.8497 0.0
C416 C 0.17131 0.26107 0.81808 0.0
O417 O 0.15569 0.33625 0.83304 0.0
C418 C 0.89368 0.23095 0.81625 0.0
O419 O 0.92617 0.15524 0.81784 0.0
O420 O 0.97761 0.18433 0.90531 0.0
O421 O 0.07725 0.12404 0.91806 0.0
H422 H 0.94805 0.38081 0.01001 0.0
H423 H 0.06584 0.11199 0.78959 0.0
O424 O 0.15878 0.18443 0.83057 0.0
H425 H 0.04486 0.83101 0.86023 0.0
H426 H 0.29277 0.93074 0.87158 0.0
H427 H 0.20006 0.13398 0.9538 0.0
H428 H 0.08106 0.97111 0.89593 0.0
H429 H 0.1958 0.02075 0.84326 0.0
O430 O 0.91497 0.29521 0.83991 0.0
H431 H 0.99993 0.29459 0.96667 0.0
H432 H 0.89473 0.44365 0.86921 0.0
H433 H 0.29907 0.04694 0.98302 0.0
H434 H 0.0428 0.96877 0.75393 0.0
H435 H 0.34517 0.94375 0.94203 0.0
H436 H 0.02722 0.82824 0.78844 0.0
O437 O 0.15983 0.26093 0.90302 0.0
H438 H 0.0572 0.50457 0.78298 0.0
H439 H 0.04028 0.47973 0.91813 0.0
H440 H 0.07981 0.62063 0.89588 0.0
H441 H 0.08897 0.63345 0.82775 0.0
H442 H 0.00929 0.36716 0.8049 0.0
H443 H 0.84044 0.53005 0.9115 0.0
H444 H 0.86798 0.49993 0.98253 0.0
O445 O 0.07782 0.31318 0.92554 0.0
C446 C 0.0206 0.12948 0.92372 0.0
C447 C 0.93573 0.39464 0.9791 0.0
C448 C 0.87529 0.47828 0.9238 0.0
N449 N 0.95076 0.36437 0.9154 0.0
C450 C 0.96502 0.34609 0.95436 0.0
C451 C 0.90576 0.42859 0.89993 0.0
C452 C 0.89077 0.46143 0.96366 0.0
C453 C 0.06143 0.05085 0.80537 0.0
N454 N 0.07489 0.05092 0.84502 0.0
C455 C 0.04639 0.97027 0.78469 0.0
C456 C 0.03921 0.89096 0.80429 0.0
C457 C 0.04914 0.89251 0.84452 0.0
C458 C 0.0682 0.97307 0.86458 0.0
C459 C 0.27267 0.9749 0.8899 0.0
C460 C 0.21998 0.08904 0.93576 0.0
C461 C 0.21748 0.02587 0.87407 0.0
N462 N 0.19147 0.08156 0.89699 0.0
C463 C 0.27586 0.03997 0.95249 0.0
C464 C 0.30203 0.98223 0.9294 0.0
C465 C 0.1373 0.31048 0.92571 0.0
C466 C 0.05021 0.50063 0.81204 0.0
C467 C 0.04067 0.48578 0.88786 0.0
C468 C 0.06414 0.56568 0.87561 0.0
C469 C 0.06927 0.5728 0.83744 0.0
N470 N 0.02042 0.41565 0.86253 0.0
C471 C 0.02402 0.42291 0.8248 0.0
C472 C 0.00383 0.47756 0.48258 0.0
C473 C 0.00846 0.43092 0.45541 0.0
C474 C 1.00128 0.53158 0.51519 0.0
C475 C 0.99666 0.57816 0.54239 0.0
C476 C 0.50378 0.53135 0.48273 0.0
C477 C 0.50836 0.57794 0.45553 0.0
C478 C 0.50129 0.47735 0.51536 0.0
C479 C 0.49669 0.43074 0.54255 0.0
C480 C 0.50126 0.03142 0.01518 0.0
C481 C 0.49683 0.07795 0.04242 0.0
C482 C 0.50355 0.97746 0.98251 0.0
C483 C 0.50802 0.93086 0.9553 0.0
C484 C 1.00145 0.9769 0.01534 0.0
C485 C 0.99696 0.93031 0.04255 0.0
C486 C 0.00379 0.0309 0.98269 0.0
C487 C 0.00825 0.0775 0.95547 0.0
C488 C 0.7229 0.24995 0.23476 0.0
C489 C 0.67209 0.24147 0.21051 0.0
C490 C 0.78262 0.25956 0.26326 0.0
C491 C 0.8334 0.26794 0.28755 0.0
C492 C 0.72241 0.25981 0.73465 0.0
C493 C 0.67165 0.26817 0.71033 0.0
C494 C 0.78212 0.25019 0.76314 0.0
C495 C 0.83295 0.24165 0.78738 0.0
C496 C 0.22244 0.75017 0.73471 0.0
C497 C 0.17168 0.74166 0.71041 0.0
C498 C 0.2821 0.75984 0.76325 0.0
C499 C 0.33283 0.76825 0.78758 0.0
C500 C 0.2825 0.74863 0.26337 0.0
C501 C 0.33324 0.74028 0.28771 0.0
C502 C 0.22284 0.75825 0.23482 0.0
C503 C 0.17208 0.76674 0.21052 0.0
C504 C 0.27042 0.25814 0.23481 0.0
C505 C 0.29935 0.2634 0.20975 0.0
C506 C 0.23593 0.24899 0.26373 0.0
C507 C 0.20688 0.24386 0.28873 0.0
C508 C 0.26913 0.24919 0.73422 0.0
C509 C 0.29817 0.244 0.70921 0.0
C510 C 0.23465 0.25838 0.76314 0.0
C511 C 0.20572 0.26362 0.7882 0.0
C512 C 0.73499 0.74964 0.76331 0.0
C513 C 0.70599 0.74447 0.78834 0.0
C514 C 0.76949 0.7588 0.7344 0.0
C515 C 0.79852 0.76402 0.70938 0.0
C516 C 0.77017 0.74989 0.23476 0.0
C517 C 0.79915 0.74462 0.20973 0.0
C518 C 0.73565 0.75911 0.26367 0.0
C519 C 0.7066 0.76434 0.28867 0.0
C520 C 0.2795 0.12981 0.51472 0.0
C521 C 0.32284 0.15794 0.54005 0.0
C522 C 0.22559 0.12983 0.48319 0.0
C523 C 0.18225 0.15799 0.45787 0.0
C524 C 0.77928 0.87877 0.51481 0.0
C525 C 0.82262 0.85062 0.54014 0.0
C526 C 0.72543 0.87878 0.48324 0.0
C527 C 0.68212 0.85064 0.4579 0.0
C528 C 0.7793 0.63093 0.01479 0.0
C529 C 0.82275 0.65863 0.04017 0.0
C530 C 0.7254 0.63101 0.98324 0.0
C531 C 0.68201 0.65883 0.95784 0.0
C532 C 0.27943 0.37755 0.01474 0.0
C533 C 0.32281 0.34974 0.04014 0.0
C534 C 0.22558 0.37747 0.98315 0.0
C535 C 0.18222 0.34956 0.95777 0.0
loop_
_geom_bond_atom_site_label_1
_geom_bond_atom_site_label_2
_geom_bond_distance
_geom_bond_site_symmetry_2
_ccdc_geom_bond_type
Co0 O2 2.143 . S
Co0 O8 2.074 . S
Co0 O11 2.093 . S
Co0 O24 2.097 . S
Co0 N41 2.151 . S
Co0 N49 2.214 . S
Co1 O2 2.160 . S
Co1 O7 2.058 1_455 S
Co1 O17 2.057 1_455 S
Co1 O32 2.037 . S
Co1 N36 2.145 1_455 S
Co1 N57 2.257 . S
O2 Co0 2.143 . S
O2 Co1 2.160 . S
C3 O4 1.278 . S
C3 O11 1.224 . S
O4 C3 1.278 . S
C5 O6 1.245 . S
C5 O17 1.232 . S
O6 C5 1.245 . S
O7 Co1 2.058 1_655 S
O7 C33 1.269 1_655 S
O8 Co0 2.074 . S
O8 C33 1.257 . S
H9 C34 0.930 . S
H10 C40 0.930 . S
O11 Co0 2.093 . S
O11 C3 1.224 . S
H12 C44 0.929 . S
H13 C46 0.930 . S
H14 C47 0.930 . S
H15 C45 0.929 . S
H16 C48 0.928 . S
O17 Co1 2.057 1_655 S
O17 C5 1.232 . S
H18 C37 0.929 1_455 S
H19 C38 0.929 . S
H20 C50 0.931 . S
H21 C42 0.929 . S
H22 C51 0.930 . S
H23 C43 0.931 . S
O24 Co0 2.097 . S
O24 C52 1.214 . S
H25 C53 0.929 . S
H26 C54 0.929 1_545 S
H27 C55 0.930 . S
H28 C56 0.929 . S
H29 C58 0.930 1_655 S
H30 C35 0.930 1_565 S
H31 C39 0.930 1_565 S
O32 Co1 2.037 . S
O32 C52 1.234 . S
C33 O7 1.269 1_455 S
C33 O8 1.257 . S
C34 H9 0.930 . S
C34 C37 1.388 . S
C34 C39 1.418 . S
C35 H30 0.930 1_545 S
C35 C38 1.404 . S
C35 C39 1.353 . S
N36 Co1 2.145 1_655 S
N36 C37 1.397 . S
N36 C38 1.334 . S
C37 H18 0.929 1_655 S
C37 C34 1.388 . S
C37 N36 1.397 . S
C38 H19 0.929 . S
C38 C35 1.404 . S
C38 N36 1.334 . S
C39 H31 0.930 1_545 S
C39 C34 1.418 . S
C39 C35 1.353 . S
C40 H10 0.930 . S
C40 N41 1.330 . S
C40 C42 1.446 . S
N41 Co0 2.151 . S
N41 C40 1.330 . S
N41 C45 1.418 . S
C42 H21 0.929 . S
C42 C40 1.446 . S
C42 C43 1.332 . S
C43 H23 0.931 . S
C43 C42 1.332 . S
C43 C44 1.267 . S
C44 H12 0.929 . S
C44 C43 1.267 . S
C44 C45 1.251 . S
C45 H15 0.929 . S
C45 N41 1.418 . S
C45 C44 1.251 . S
C46 H13 0.930 . S
C46 C48 1.406 . S
C46 C51 1.261 . S
C47 H14 0.930 . S
C47 N49 1.325 . S
C47 C50 1.357 . S
C48 H16 0.928 . S
C48 C46 1.406 . S
C48 N49 1.261 . S
N49 Co0 2.214 . S
N49 C47 1.325 . S
N49 C48 1.261 . S
C50 H20 0.931 . S
C50 C47 1.357 . S
C50 C51 1.312 . S
C51 H22 0.930 . S
C51 C46 1.261 . S
C51 C50 1.312 . S
C52 O24 1.214 . S
C52 O32 1.234 . S
C53 H25 0.929 . S
C53 C56 1.391 . S
C53 C58 1.391 1_565 S
C54 H26 0.929 1_565 S
C54 C55 1.390 . S
C54 N57 1.391 1_565 S
C55 H27 0.930 . S
C55 C54 1.390 . S
C55 C56 1.392 . S
C56 H28 0.929 . S
C56 C53 1.391 . S
C56 C55 1.392 . S
N57 Co1 2.257 . S
N57 C54 1.391 1_545 S
N57 C58 1.388 . S
C58 H29 0.930 1_455 S
C58 C53 1.391 1_545 S
C58 N57 1.388 . S
Co59 O61 2.143 . S
Co59 O67 2.074 . S
Co59 O70 2.093 . S
Co59 O83 2.097 . S
Co59 N100 2.151 . S
Co59 N108 2.214 . S
Co60 O61 2.160 . S
Co60 O66 2.058 . S
Co60 O76 2.057 . S
Co60 O91 2.037 . S
Co60 N95 2.145 . S
Co60 N116 2.257 . S
O61 Co59 2.143 . S
O61 Co60 2.160 . S
C62 O63 1.278 . S
C62 O70 1.224 . S
O63 C62 1.278 . S
C64 O65 1.245 . S
C64 O76 1.232 . S
O65 C64 1.245 . S
O66 Co60 2.058 . S
O66 C92 1.269 . S
O67 Co59 2.074 . S
O67 C92 1.257 . S
H68 C93 0.930 . S
H69 C99 0.930 . S
O70 Co59 2.093 . S
O70 C62 1.224 . S
H71 C103 0.929 . S
H72 C105 0.930 . S
H73 C106 0.930 . S
H74 C104 0.929 . S
H75 C107 0.928 . S
O76 Co60 2.057 . S
O76 C64 1.232 . S
H77 C96 0.929 . S
H78 C97 0.929 . S
H79 C109 0.931 . S
H80 C101 0.929 . S
H81 C110 0.930 . S
H82 C102 0.931 . S
O83 Co59 2.097 . S
O83 C111 1.214 . S
H84 C112 0.929 . S
H85 C113 0.929 1_545 S
H86 C114 0.930 . S
H87 C115 0.929 . S
H88 C117 0.930 . S
H89 C94 0.930 1_565 S
H90 C98 0.930 1_565 S
O91 Co60 2.037 . S
O91 C111 1.234 . S
C92 O66 1.269 . S
C92 O67 1.257 . S
C93 H68 0.930 . S
C93 C96 1.388 . S
C93 C98 1.418 . S
C94 H89 0.930 1_545 S
C94 C97 1.404 . S
C94 C98 1.353 . S
N95 Co60 2.145 . S
N95 C96 1.397 . S
N95 C97 1.334 . S
C96 H77 0.929 . S
C96 C93 1.388 . S
C96 N95 1.397 . S
C97 H78 0.929 . S
C97 C94 1.404 . S
C97 N95 1.334 . S
C98 H90 0.930 1_545 S
C98 C93 1.418 . S
C98 C94 1.353 . S
C99 H69 0.930 . S
C99 N100 1.330 . S
C99 C101 1.446 . S
N100 Co59 2.151 . S
N100 C99 1.330 . S
N100 C104 1.418 . S
C101 H80 0.929 . S
C101 C99 1.446 . S
C101 C102 1.332 . S
C102 H82 0.931 . S
C102 C101 1.332 . S
C102 C103 1.267 . S
C103 H71 0.929 . S
C103 C102 1.267 . S
C103 C104 1.251 . S
C104 H74 0.929 . S
C104 N100 1.418 . S
C104 C103 1.251 . S
C105 H72 0.930 . S
C105 C107 1.406 . S
C105 C110 1.261 . S
C106 H73 0.930 . S
C106 N108 1.325 . S
C106 C109 1.357 . S
C107 H75 0.928 . S
C107 C105 1.406 . S
C107 N108 1.261 . S
N108 Co59 2.214 . S
N108 C106 1.325 . S
N108 C107 1.261 . S
C109 H79 0.931 . S
C109 C106 1.357 . S
C109 C110 1.312 . S
C110 H81 0.930 . S
C110 C105 1.261 . S
C110 C109 1.312 . S
C111 O83 1.214 . S
C111 O91 1.234 . S
C112 H84 0.929 . S
C112 C115 1.391 . S
C112 C117 1.391 1_565 S
C113 H85 0.929 1_565 S
C113 C114 1.390 . S
C113 N116 1.391 1_565 S
C114 H86 0.930 . S
C114 C113 1.390 . S
C114 C115 1.392 . S
C115 H87 0.929 . S
C115 C112 1.391 . S
C115 C114 1.392 . S
N116 Co60 2.257 . S
N116 C113 1.391 1_545 S
N116 C117 1.388 . S
C117 H88 0.930 . S
C117 C112 1.391 1_545 S
C117 N116 1.388 . S
Co118 O120 2.143 . S
Co118 O126 2.074 . S
Co118 O129 2.093 . S
Co118 O142 2.097 . S
Co118 N159 2.151 . S
Co118 N167 2.214 . S
Co119 O120 2.160 . S
Co119 O125 2.058 1_655 S
Co119 O135 2.057 1_655 S
Co119 O150 2.037 . S
Co119 N154 2.145 1_655 S
Co119 N175 2.257 . S
O120 Co118 2.143 . S
O120 Co119 2.160 . S
C121 O122 1.278 . S
C121 O129 1.224 . S
O122 C121 1.278 . S
C123 O124 1.245 . S
C123 O135 1.232 . S
O124 C123 1.245 . S
O125 Co119 2.058 1_455 S
O125 C151 1.269 1_455 S
O126 Co118 2.074 . S
O126 C151 1.257 . S
H127 C152 0.930 . S
H128 C158 0.930 . S
O129 Co118 2.093 . S
O129 C121 1.224 . S
H130 C162 0.929 . S
H131 C164 0.930 . S
H132 C165 0.930 . S
H133 C163 0.929 . S
H134 C166 0.928 . S
O135 Co119 2.057 1_455 S
O135 C123 1.232 . S
H136 C155 0.929 1_655 S
H137 C156 0.929 . S
H138 C168 0.931 . S
H139 C160 0.929 . S
H140 C169 0.930 . S
H141 C161 0.931 . S
O142 Co118 2.097 . S
O142 C170 1.214 . S
H143 C171 0.929 . S
H144 C172 0.929 1_565 S
H145 C173 0.930 . S
H146 C174 0.929 . S
H147 C176 0.930 1_455 S
H148 C153 0.930 1_545 S
H149 C157 0.930 1_545 S
O150 Co119 2.037 . S
O150 C170 1.234 . S
C151 O125 1.269 1_655 S
C151 O126 1.257 . S
C152 H127 0.930 . S
C152 C155 1.388 . S
C152 C157 1.418 . S
C153 H148 0.930 1_565 S
C153 C156 1.404 . S
C153 C157 1.353 . S
N154 Co119 2.145 1_455 S
N154 C155 1.397 . S
N154 C156 1.334 . S
C155 H136 0.929 1_455 S
C155 C152 1.388 . S
C155 N154 1.397 . S
C156 H137 0.929 . S
C156 C153 1.404 . S
C156 N154 1.334 . S
C157 H149 0.930 1_565 S
C157 C152 1.418 . S
C157 C153 1.353 . S
C158 H128 0.930 . S
C158 N159 1.330 . S
C158 C160 1.446 . S
N159 Co118 2.151 . S
N159 C158 1.330 . S
N159 C163 1.418 . S
C160 H139 0.929 . S
C160 C158 1.446 . S
C160 C161 1.332 . S
C161 H141 0.931 . S
C161 C160 1.332 . S
C161 C162 1.267 . S
C162 H130 0.929 . S
C162 C161 1.267 . S
C162 C163 1.251 . S
C163 H133 0.929 . S
C163 N159 1.418 . S
C163 C162 1.251 . S
C164 H131 0.930 . S
C164 C166 1.406 . S
C164 C169 1.261 . S
C165 H132 0.930 . S
C165 N167 1.325 . S
C165 C168 1.357 . S
C166 H134 0.928 . S
C166 C164 1.406 . S
C166 N167 1.261 . S
N167 Co118 2.214 . S
N167 C165 1.325 . S
N167 C166 1.261 . S
C168 H138 0.931 . S
C168 C165 1.357 . S
C168 C169 1.312 . S
C169 H140 0.930 . S
C169 C164 1.261 . S
C169 C168 1.312 . S
C170 O142 1.214 . S
C170 O150 1.234 . S
C171 H143 0.929 . S
C171 C174 1.391 . S
C171 C176 1.391 1_545 S
C172 H144 0.929 1_545 S
C172 C173 1.390 . S
C172 N175 1.391 1_545 S
C173 H145 0.930 . S
C173 C172 1.390 . S
C173 C174 1.392 . S
C174 H146 0.929 . S
C174 C171 1.391 . S
C174 C173 1.392 . S
N175 Co119 2.257 . S
N175 C172 1.391 1_565 S
N175 C176 1.388 . S
C176 H147 0.930 1_655 S
C176 C171 1.391 1_565 S
C176 N175 1.388 . S
Co177 O179 2.143 . S
Co177 O185 2.074 . S
Co177 O188 2.093 . S
Co177 O201 2.097 . S
Co177 N218 2.151 . S
Co177 N226 2.214 . S
Co178 O179 2.160 . S
Co178 O184 2.058 . S
Co178 O194 2.057 . S
Co178 O209 2.037 . S
Co178 N213 2.145 . S
Co178 N234 2.257 . S
O179 Co177 2.143 . S
O179 Co178 2.160 . S
C180 O181 1.278 . S
C180 O188 1.224 . S
O181 C180 1.278 . S
C182 O183 1.245 . S
C182 O194 1.232 . S
O183 C182 1.245 . S
O184 Co178 2.058 . S
O184 C210 1.269 . S
O185 Co177 2.074 . S
O185 C210 1.257 . S
H186 C211 0.930 . S
H187 C217 0.930 . S
O188 Co177 2.093 . S
O188 C180 1.224 . S
H189 C221 0.929 . S
H190 C223 0.930 . S
H191 C224 0.930 . S
H192 C222 0.929 . S
H193 C225 0.928 . S
O194 Co178 2.057 . S
O194 C182 1.232 . S
H195 C214 0.929 . S
H196 C215 0.929 . S
H197 C227 0.931 . S
H198 C219 0.929 . S
H199 C228 0.930 . S
H200 C220 0.931 . S
O201 Co177 2.097 . S
O201 C229 1.214 . S
H202 C230 0.929 . S
H203 C231 0.929 1_565 S
H204 C232 0.930 . S
H205 C233 0.929 . S
H206 C235 0.930 . S
H207 C212 0.930 1_545 S
H208 C216 0.930 1_545 S
O209 Co178 2.037 . S
O209 C229 1.234 . S
C210 O184 1.269 . S
C210 O185 1.257 . S
C211 H186 0.930 . S
C211 C214 1.388 . S
C211 C216 1.418 . S
C212 H207 0.930 1_565 S
C212 C215 1.404 . S
C212 C216 1.353 . S
N213 Co178 2.145 . S
N213 C214 1.397 . S
N213 C215 1.334 . S
C214 H195 0.929 . S
C214 C211 1.388 . S
C214 N213 1.397 . S
C215 H196 0.929 . S
C215 C212 1.404 . S
C215 N213 1.334 . S
C216 H208 0.930 1_565 S
C216 C211 1.418 . S
C216 C212 1.353 . S
C217 H187 0.930 . S
C217 N218 1.330 . S
C217 C219 1.446 . S
N218 Co177 2.151 . S
N218 C217 1.330 . S
N218 C222 1.418 . S
C219 H198 0.929 . S
C219 C217 1.446 . S
C219 C220 1.332 . S
C220 H200 0.931 . S
C220 C219 1.332 . S
C220 C221 1.267 . S
C221 H189 0.929 . S
C221 C220 1.267 . S
C221 C222 1.251 . S
C222 H192 0.929 . S
C222 N218 1.418 . S
C222 C221 1.251 . S
C223 H190 0.930 . S
C223 C225 1.406 . S
C223 C228 1.261 . S
C224 H191 0.930 . S
C224 N226 1.325 . S
C224 C227 1.357 . S
C225 H193 0.928 . S
C225 C223 1.406 . S
C225 N226 1.261 . S
N226 Co177 2.214 . S
N226 C224 1.325 . S
N226 C225 1.261 . S
C227 H197 0.931 . S
C227 C224 1.357 . S
C227 C228 1.312 . S
C228 H199 0.930 . S
C228 C223 1.261 . S
C228 C227 1.312 . S
C229 O201 1.214 . S
C229 O209 1.234 . S
C230 H202 0.929 . S
C230 C233 1.391 . S
C230 C235 1.391 1_545 S
C231 H203 0.929 1_545 S
C231 C232 1.390 . S
C231 N234 1.391 1_545 S
C232 H204 0.930 . S
C232 C231 1.390 . S
C232 C233 1.392 . S
C233 H205 0.929 . S
C233 C230 1.391 . S
C233 C232 1.392 . S
N234 Co178 2.257 . S
N234 C231 1.391 1_565 S
N234 C235 1.388 . S
C235 H206 0.930 . S
C235 C230 1.391 1_565 S
C235 N234 1.388 . S
Co236 O238 2.143 . S
Co236 O244 2.074 . S
Co236 O247 2.093 . S
Co236 O260 2.097 . S
Co236 N277 2.151 . S
Co236 N285 2.214 . S
Co237 O238 2.160 . S
Co237 O243 2.058 . S
Co237 O253 2.057 . S
Co237 O268 2.037 . S
Co237 N272 2.145 . S
Co237 N293 2.257 . S
O238 Co236 2.143 . S
O238 Co237 2.160 . S
C239 O240 1.278 . S
C239 O247 1.224 . S
O240 C239 1.278 . S
C241 O242 1.245 . S
C241 O253 1.232 . S
O242 C241 1.245 . S
O243 Co237 2.058 . S
O243 C269 1.269 . S
O244 Co236 2.074 . S
O244 C269 1.257 . S
H245 C270 0.930 1_554 S
H246 C276 0.930 . S
O247 Co236 2.093 . S
O247 C239 1.224 . S
H248 C280 0.929 . S
H249 C282 0.930 . S
H250 C283 0.930 . S
H251 C281 0.929 . S
H252 C284 0.928 . S
O253 Co237 2.057 . S
O253 C241 1.232 . S
H254 C273 0.929 . S
H255 C274 0.929 . S
H256 C286 0.931 . S
H257 C278 0.929 . S
H258 C287 0.930 . S
H259 C279 0.931 . S
O260 Co236 2.097 . S
O260 C288 1.214 . S
H261 C289 0.929 . S
H262 C290 0.929 . S
H263 C291 0.930 . S
H264 C292 0.929 . S
H265 C294 0.930 . S
H266 C271 0.930 . S
H267 C275 0.930 . S
O268 Co237 2.037 . S
O268 C288 1.234 . S
C269 O243 1.269 . S
C269 O244 1.257 . S
C270 H245 0.930 1_556 S
C270 C273 1.388 . S
C270 C275 1.418 . S
C271 H266 0.930 . S
C271 C274 1.404 . S
C271 C275 1.353 . S
N272 Co237 2.145 . S
N272 C273 1.397 . S
N272 C274 1.334 . S
C273 H254 0.929 . S
C273 C270 1.388 . S
C273 N272 1.397 . S
C274 H255 0.929 . S
C274 C271 1.404 . S
C274 N272 1.334 . S
C275 H267 0.930 . S
C275 C270 1.418 . S
C275 C271 1.353 . S
C276 H246 0.930 . S
C276 N277 1.330 . S
C276 C278 1.446 1_565 S
N277 Co236 2.151 . S
N277 C276 1.330 . S
N277 C281 1.418 1_565 S
C278 H257 0.929 . S
C278 C276 1.446 1_545 S
C278 C279 1.332 . S
C279 H259 0.931 . S
C279 C278 1.332 . S
C279 C280 1.267 . S
C280 H248 0.929 . S
C280 C279 1.267 . S
C280 C281 1.251 . S
C281 H251 0.929 . S
C281 N277 1.418 1_545 S
C281 C280 1.251 . S
C282 H249 0.930 . S
C282 C284 1.406 1_545 S
C282 C287 1.261 . S
C283 H250 0.930 . S
C283 N285 1.325 . S
C283 C286 1.357 . S
C284 H252 0.928 . S
C284 C282 1.406 1_565 S
C284 N285 1.261 . S
N285 Co236 2.214 . S
N285 C283 1.325 . S
N285 C284 1.261 . S
C286 H256 0.931 . S
C286 C283 1.357 . S
C286 C287 1.312 1_565 S
C287 H258 0.930 . S
C287 C282 1.261 . S
C287 C286 1.312 1_545 S
C288 O260 1.214 . S
C288 O268 1.234 . S
C289 H261 0.929 . S
C289 C292 1.391 . S
C289 C294 1.391 . S
C290 H262 0.929 . S
C290 C291 1.390 . S
C290 N293 1.391 . S
C291 H263 0.930 . S
C291 C290 1.390 . S
C291 C292 1.392 . S
C292 H264 0.929 . S
C292 C289 1.391 . S
C292 C291 1.392 . S
N293 Co237 2.257 . S
N293 C290 1.391 . S
N293 C294 1.388 . S
C294 H265 0.930 . S
C294 C289 1.391 . S
C294 N293 1.388 . S
Co295 O297 2.143 . S
Co295 O303 2.074 . S
Co295 O306 2.093 . S
Co295 O319 2.097 . S
Co295 N336 2.151 . S
Co295 N344 2.214 . S
Co296 O297 2.160 . S
Co296 O302 2.058 1_655 S
Co296 O312 2.057 1_655 S
Co296 O327 2.037 . S
Co296 N331 2.145 1_655 S
Co296 N352 2.257 . S
O297 Co295 2.143 . S
O297 Co296 2.160 . S
C298 O299 1.278 . S
C298 O306 1.224 . S
O299 C298 1.278 . S
C300 O301 1.245 . S
C300 O312 1.232 . S
O301 C300 1.245 . S
O302 Co296 2.058 1_455 S
O302 C328 1.269 1_455 S
O303 Co295 2.074 . S
O303 C328 1.257 . S
H304 C329 0.930 1_556 S
H305 C335 0.930 . S
O306 Co295 2.093 . S
O306 C298 1.224 . S
H307 C339 0.929 . S
H308 C341 0.930 . S
H309 C342 0.930 . S
H310 C340 0.929 . S
H311 C343 0.928 . S
O312 Co296 2.057 1_455 S
O312 C300 1.232 . S
H313 C332 0.929 1_655 S
H314 C333 0.929 . S
H315 C345 0.931 . S
H316 C337 0.929 . S
H317 C346 0.930 . S
H318 C338 0.931 . S
O319 Co295 2.097 . S
O319 C347 1.214 . S
H320 C348 0.929 . S
H321 C349 0.929 . S
H322 C350 0.930 . S
H323 C351 0.929 . S
H324 C353 0.930 1_455 S
H325 C330 0.930 . S
H326 C334 0.930 . S
O327 Co296 2.037 . S
O327 C347 1.234 . S
C328 O302 1.269 1_655 S
C328 O303 1.257 . S
C329 H304 0.930 1_554 S
C329 C332 1.388 . S
C329 C334 1.418 . S
C330 H325 0.930 . S
C330 C333 1.404 . S
C330 C334 1.353 . S
N331 Co296 2.145 1_455 S
N331 C332 1.397 . S
N331 C333 1.334 . S
C332 H313 0.929 1_455 S
C332 C329 1.388 . S
C332 N331 1.397 . S
C333 H314 0.929 . S
C333 C330 1.404 . S
C333 N331 1.334 . S
C334 H326 0.930 . S
C334 C329 1.418 . S
C334 C330 1.353 . S
C335 H305 0.930 . S
C335 N336 1.330 . S
C335 C337 1.446 1_565 S
N336 Co295 2.151 . S
N336 C335 1.330 . S
N336 C340 1.418 1_565 S
C337 H316 0.929 . S
C337 C335 1.446 1_545 S
C337 C338 1.332 . S
C338 H318 0.931 . S
C338 C337 1.332 . S
C338 C339 1.267 . S
C339 H307 0.929 . S
C339 C338 1.267 . S
C339 C340 1.251 . S
C340 H310 0.929 . S
C340 N336 1.418 1_545 S
C340 C339 1.251 . S
C341 H308 0.930 . S
C341 C343 1.406 1_545 S
C341 C346 1.261 . S
C342 H309 0.930 . S
C342 N344 1.325 . S
C342 C345 1.357 . S
C343 H311 0.928 . S
C343 C341 1.406 1_565 S
C343 N344 1.261 . S
N344 Co295 2.214 . S
N344 C342 1.325 . S
N344 C343 1.261 . S
C345 H315 0.931 . S
C345 C342 1.357 . S
C345 C346 1.312 1_565 S
C346 H317 0.930 . S
C346 C341 1.261 . S
C346 C345 1.312 1_545 S
C347 O319 1.214 . S
C347 O327 1.234 . S
C348 H320 0.929 . S
C348 C351 1.391 . S
C348 C353 1.391 . S
C349 H321 0.929 . S
C349 C350 1.390 . S
C349 N352 1.391 . S
C350 H322 0.930 . S
C350 C349 1.390 . S
C350 C351 1.392 . S
C351 H323 0.929 . S
C351 C348 1.391 . S
C351 C350 1.392 . S
N352 Co296 2.257 . S
N352 C349 1.391 . S
N352 C353 1.388 . S
C353 H324 0.930 1_655 S
C353 C348 1.391 . S
C353 N352 1.388 . S
Co354 O356 2.143 . S
Co354 O362 2.074 . S
Co354 O365 2.093 . S
Co354 O378 2.097 . S
Co354 N395 2.151 . S
Co354 N403 2.214 . S
Co355 O356 2.160 . S
Co355 O361 2.058 . S
Co355 O371 2.057 . S
Co355 O386 2.037 . S
Co355 N390 2.145 . S
Co355 N411 2.257 . S
O356 Co354 2.143 . S
O356 Co355 2.160 . S
C357 O358 1.278 . S
C357 O365 1.224 . S
O358 C357 1.278 . S
C359 O360 1.245 . S
C359 O371 1.232 . S
O360 C359 1.245 . S
O361 Co355 2.058 . S
O361 C387 1.269 . S
O362 Co354 2.074 . S
O362 C387 1.257 . S
H363 C388 0.930 1_556 S
H364 C394 0.930 . S
O365 Co354 2.093 . S
O365 C357 1.224 . S
H366 C398 0.929 . S
H367 C400 0.930 . S
H368 C401 0.930 . S
H369 C399 0.929 . S
H370 C402 0.928 . S
O371 Co355 2.057 . S
O371 C359 1.232 . S
H372 C391 0.929 . S
H373 C392 0.929 . S
H374 C404 0.931 . S
H375 C396 0.929 . S
H376 C405 0.930 . S
H377 C397 0.931 . S
O378 Co354 2.097 . S
O378 C406 1.214 . S
H379 C407 0.929 . S
H380 C408 0.929 . S
H381 C409 0.930 . S
H382 C410 0.929 . S
H383 C412 0.930 . S
H384 C389 0.930 . S
H385 C393 0.930 . S
O386 Co355 2.037 . S
O386 C406 1.234 . S
C387 O361 1.269 . S
C387 O362 1.257 . S
C388 H363 0.930 1_554 S
C388 C391 1.388 . S
C388 C393 1.418 . S
C389 H384 0.930 . S
C389 C392 1.404 . S
C389 C393 1.353 . S
N390 Co355 2.145 . S
N390 C391 1.397 . S
N390 C392 1.334 . S
C391 H372 0.929 . S
C391 C388 1.388 . S
C391 N390 1.397 . S
C392 H373 0.929 . S
C392 C389 1.404 . S
C392 N390 1.334 . S
C393 H385 0.930 . S
C393 C388 1.418 . S
C393 C389 1.353 . S
C394 H364 0.930 . S
C394 N395 1.330 . S
C394 C396 1.446 1_545 S
N395 Co354 2.151 . S
N395 C394 1.330 . S
N395 C399 1.418 1_545 S
C396 H375 0.929 . S
C396 C394 1.446 1_565 S
C396 C397 1.332 . S
C397 H377 0.931 . S
C397 C396 1.332 . S
C397 C398 1.267 . S
C398 H366 0.929 . S
C398 C397 1.267 . S
C398 C399 1.251 . S
C399 H369 0.929 . S
C399 N395 1.418 1_565 S
C399 C398 1.251 . S
C400 H367 0.930 . S
C400 C402 1.406 1_565 S
C400 C405 1.261 . S
C401 H368 0.930 . S
C401 N403 1.325 . S
C401 C404 1.357 . S
C402 H370 0.928 . S
C402 C400 1.406 1_545 S
C402 N403 1.261 . S
N403 Co354 2.214 . S
N403 C401 1.325 . S
N403 C402 1.261 . S
C404 H374 0.931 . S
C404 C401 1.357 . S
C404 C405 1.312 1_545 S
C405 H376 0.930 . S
C405 C400 1.261 . S
C405 C404 1.312 1_565 S
C406 O378 1.214 . S
C406 O386 1.234 . S
C407 H379 0.929 . S
C407 C410 1.391 . S
C407 C412 1.391 . S
C408 H380 0.929 . S
C408 C409 1.390 . S
C408 N411 1.391 . S
C409 H381 0.930 . S
C409 C408 1.390 . S
C409 C410 1.392 . S
C410 H382 0.929 . S
C410 C407 1.391 . S
C410 C409 1.392 . S
N411 Co355 2.257 . S
N411 C408 1.391 . S
N411 C412 1.388 . S
C412 H383 0.930 . S
C412 C407 1.391 . S
C412 N411 1.388 . S
Co413 O415 2.143 . S
Co413 O421 2.074 . S
Co413 O424 2.093 . S
Co413 O437 2.097 . S
Co413 N454 2.151 . S
Co413 N462 2.214 . S
Co414 O415 2.160 . S
Co414 O420 2.058 1_455 S
Co414 O430 2.057 1_455 S
Co414 O445 2.037 . S
Co414 N449 2.145 1_455 S
Co414 N470 2.257 . S
O415 Co413 2.143 . S
O415 Co414 2.160 . S
C416 O417 1.278 . S
C416 O424 1.224 . S
O417 C416 1.278 . S
C418 O419 1.245 . S
C418 O430 1.232 . S
O419 C418 1.245 . S
O420 Co414 2.058 1_655 S
O420 C446 1.269 1_655 S
O421 Co413 2.074 . S
O421 C446 1.257 . S
H422 C447 0.930 1_554 S
H423 C453 0.930 . S
O424 Co413 2.093 . S
O424 C416 1.224 . S
H425 C457 0.929 . S
H426 C459 0.930 . S
H427 C460 0.930 . S
H428 C458 0.929 . S
H429 C461 0.928 . S
O430 Co414 2.057 1_655 S
O430 C418 1.232 . S
H431 C450 0.929 1_455 S
H432 C451 0.929 . S
H433 C463 0.931 . S
H434 C455 0.929 . S
H435 C464 0.930 . S
H436 C456 0.931 . S
O437 Co413 2.097 . S
O437 C465 1.214 . S
H438 C466 0.929 . S
H439 C467 0.929 . S
H440 C468 0.930 . S
H441 C469 0.929 . S
H442 C471 0.930 1_655 S
H443 C448 0.930 . S
H444 C452 0.930 . S
O445 Co414 2.037 . S
O445 C465 1.234 . S
C446 O420 1.269 1_455 S
C446 O421 1.257 . S
C447 H422 0.930 1_556 S
C447 C450 1.388 . S
C447 C452 1.418 . S
C448 H443 0.930 . S
C448 C451 1.404 . S
C448 C452 1.353 . S
N449 Co414 2.145 1_655 S
N449 C450 1.397 . S
N449 C451 1.334 . S
C450 H431 0.929 1_655 S
C450 C447 1.388 . S
C450 N449 1.397 . S
C451 H432 0.929 . S
C451 C448 1.404 . S
C451 N449 1.334 . S
C452 H444 0.930 . S
C452 C447 1.418 . S
C452 C448 1.353 . S
C453 H423 0.930 . S
C453 N454 1.330 . S
C453 C455 1.446 1_545 S
N454 Co413 2.151 . S
N454 C453 1.330 . S
N454 C458 1.418 1_545 S
C455 H434 0.929 . S
C455 C453 1.446 1_565 S
C455 C456 1.332 . S
C456 H436 0.931 . S
C456 C455 1.332 . S
C456 C457 1.267 . S
C457 H425 0.929 . S
C457 C456 1.267 . S
C457 C458 1.251 . S
C458 H428 0.929 . S
C458 N454 1.418 1_565 S
C458 C457 1.251 . S
C459 H426 0.930 . S
C459 C461 1.406 1_565 S
C459 C464 1.261 . S
C460 H427 0.930 . S
C460 N462 1.325 . S
C460 C463 1.357 . S
C461 H429 0.928 . S
C461 C459 1.406 1_545 S
C461 N462 1.261 . S
N462 Co413 2.214 . S
N462 C460 1.325 . S
N462 C461 1.261 . S
C463 H433 0.931 . S
C463 C460 1.357 . S
C463 C464 1.312 1_545 S
C464 H435 0.930 . S
C464 C459 1.261 . S
C464 C463 1.312 1_565 S
C465 O437 1.214 . S
C465 O445 1.234 . S
C466 H438 0.929 . S
C466 C469 1.391 . S
C466 C471 1.391 . S
C467 H439 0.929 . S
C467 C468 1.390 . S
C467 N470 1.391 . S
C468 H440 0.930 . S
C468 C467 1.390 . S
C468 C469 1.392 . S
C469 H441 0.929 . S
C469 C466 1.391 . S
C469 C468 1.392 . S
N470 Co414 2.257 . S
N470 C467 1.391 . S
N470 C471 1.388 . S
C471 H442 0.930 1_455 S
C471 C466 1.391 . S
C471 N470 1.388 . S
C472 C473 1.170 . S
C472 C474 1.380 1_455 S
C473 C472 1.170 . S
C474 C472 1.380 1_655 S
C474 C475 1.170 . S
C475 C474 1.170 . S
C476 C477 1.170 . S
C476 C478 1.380 . S
C477 C476 1.170 . S
C478 C476 1.380 . S
C478 C479 1.170 . S
C479 C478 1.170 . S
C480 C481 1.170 . S
C480 C482 1.380 1_544 S
C481 C480 1.170 . S
C482 C480 1.380 1_566 S
C482 C483 1.170 . S
C483 C482 1.170 . S
C484 C485 1.167 1_455 S
C484 C486 1.383 1_564 S
C485 C484 1.167 1_655 S
C486 C484 1.383 1_546 S
C486 C487 1.170 . S
C487 C486 1.170 . S
C488 C489 1.170 . S
C488 C490 1.380 . S
C489 C488 1.170 . S
C490 C488 1.380 . S
C490 C491 1.170 . S
C491 C490 1.170 . S
C492 C493 1.170 . S
C492 C494 1.380 . S
C493 C492 1.170 . S
C494 C492 1.380 . S
C494 C495 1.170 . S
C495 C494 1.170 . S
C496 C497 1.170 . S
C496 C498 1.380 . S
C497 C496 1.170 . S
C498 C496 1.380 . S
C498 C499 1.170 . S
C499 C498 1.170 . S
C500 C501 1.170 . S
C500 C502 1.380 . S
C501 C500 1.170 . S
C502 C500 1.380 . S
C502 C503 1.170 . S
C503 C502 1.170 . S
C504 C505 1.170 . S
C504 C506 1.380 . S
C505 C504 1.170 . S
C506 C504 1.380 . S
C506 C507 1.170 . S
C507 C506 1.170 . S
C508 C509 1.170 . S
C508 C510 1.380 . S
C509 C508 1.170 . S
C510 C508 1.380 . S
C510 C511 1.170 . S
C511 C510 1.170 . S
C512 C513 1.170 . S
C512 C514 1.380 . S
C513 C512 1.170 . S
C514 C512 1.380 . S
C514 C515 1.170 . S
C515 C514 1.170 . S
C516 C517 1.170 . S
C516 C518 1.380 . S
C517 C516 1.170 . S
C518 C516 1.380 . S
C518 C519 1.170 . S
C519 C518 1.170 . S
C520 C521 1.170 . S
C520 C522 1.380 . S
C521 C520 1.170 . S
C522 C520 1.380 . S
C522 C523 1.170 . S
C523 C522 1.170 . S
C524 C525 1.170 . S
C524 C526 1.380 . S
C525 C524 1.170 . S
C526 C524 1.380 . S
C526 C527 1.170 . S
C527 C526 1.170 . S
C528 C529 1.170 . S
C528 C530 1.380 1_554 S
C529 C528 1.170 . S
C530 C528 1.380 1_556 S
C530 C531 1.170 . S
C531 C530 1.170 . S
C532 C533 1.170 . S
C532 C534 1.380 1_554 S
C533 C532 1.170 . S
C534 C532 1.380 1_556 S
C534 C535 1.170 . S
C535 C534 1.170 . S
C473 C33 1.536 . S
C475 C151 1.522 . S
C477 C210 1.519 . S
C479 C92 1.537 . S
C481 C387 1.515 . S
C483 C269 1.536 . S
C485 C328 1.520 . S
C487 C446 1.526 . S
C489 C359 1.729 . S
C491 C5 1.696 . S
C493 C64 1.692 . S
C495 C418 1.725 . S
C497 C123 1.728 . S
C499 C241 1.694 . S
C501 C182 1.701 . S
C503 C300 1.727 . S
C505 C357 1.526 . S
C507 C3 1.503 . S
C509 C62 1.499 . S
C511 C416 1.521 . S
C513 C239 1.526 . S
C515 C121 1.502 . S
C517 C298 1.526 . S
C519 C180 1.503 . S
C521 C111 0.973 . S
C523 C52 0.953 . S
C525 C170 0.964 . S
C527 C229 0.970 . S
C529 C347 0.932 . S
C531 C288 0.944 . S
C533 C406 0.939 . S
C535 C465 0.934 . S
