# Generated by pormake.
# Topology fnt, (5)-cn, num edge types: 1
# Building blocks:
#     Node 0, Type 0, BuildingBlock: BEQFEK_clean_sbu_0, # of connection points: 5
#     Node 1, Type 0, BuildingBlock: BEQFEK_clean_sbu_0, # of connection points: 5
#     Node 2, Type 0, BuildingBlock: BEQFEK_clean_sbu_0, # of connection points: 5
#     Node 3, Type 0, BuildingBlock: BEQFEK_clean_sbu_0, # of connection points: 5
#     Node 4, Type 0, BuildingBlock: BEQFEK_clean_sbu_0, # of connection points: 5
#     Node 5, Type 0, BuildingBlock: BEQFEK_clean_sbu_0, # of connection points: 5
#     Edge 6, Type (0, 0), BuildingBlock: UVAHIK_clean_linker_0, # of connection points: 2
#     Edge 7, Type (0, 0), BuildingBlock: UVAHIK_clean_linker_0, # of connection points: 2
#     Edge 8, Type (0, 0), BuildingBlock: UVAHIK_clean_linker_0, # of connection points: 2
#     Edge 9, Type (0, 0), BuildingBlock: UVAHIK_clean_linker_0, # of connection points: 2
#     Edge 10, Type (0, 0), BuildingBlock: UVAHIK_clean_linker_0, # of connection points: 2
#     Edge 11, Type (0, 0), BuildingBlock: UVAHIK_clean_linker_0, # of connection points: 2
#     Edge 12, Type (0, 0), BuildingBlock: UVAHIK_clean_linker_0, # of connection points: 2
#     Edge 13, Type (0, 0), BuildingBlock: UVAHIK_clean_linker_0, # of connection points: 2
#     Edge 14, Type (0, 0), BuildingBlock: UVAHIK_clean_linker_0, # of connection points: 2
#     Edge 15, Type (0, 0), BuildingBlock: UVAHIK_clean_linker_0, # of connection points: 2
#     Edge 16, Type (0, 0), BuildingBlock: UVAHIK_clean_linker_0, # of connection points: 2
#     Edge 17, Type (0, 0), BuildingBlock: UVAHIK_clean_linker_0, # of connection points: 2
#     Edge 18, Type (0, 0), BuildingBlock: UVAHIK_clean_linker_0, # of connection points: 2
#     Edge 19, Type (0, 0), BuildingBlock: UVAHIK_clean_linker_0, # of connection points: 2
#     Edge 20, Type (0, 0), BuildingBlock: UVAHIK_clean_linker_0, # of connection points: 2
# Relax obj value: 0.234
# Max RMSD: 0.175
# Mean RMSD: 0.175
data_MOF--net-fnt--node1-BEQFEK_clean_sbu_0--edge1-UVAHIK_clean_linker_0
_symmetry_space_group_name_H-M    P1
_symmetry_Int_Tables_number       1
_symmetry_cell_setting            triclinic
loop_
_symmetry_equiv_pos_as_xyz
'x, y, z'
_cell_length_a     32.763877
_cell_length_b     32.727496
_cell_length_c     65.633664
_cell_angle_alpha  89.809758
_cell_angle_beta   90.475794
_cell_angle_gamma 119.96272
loop_
_atom_site_label
_atom_site_type_symbol
_atom_site_fract_x
_atom_site_fract_y
_atom_site_fract_z
_atom_type_partial_charge
Co0 Co 0.1492 0.34246 0.05034 0.0
Co1 Co 0.16356 0.34098 1.00274 0.0
C2 C 0.23648 0.41582 0.03115 0.0
O3 O 0.21252 0.39828 0.0473 0.0
O4 O 0.22092 0.39745 1.01362 0.0
C5 C 0.15079 0.33988 0.09599 0.0
O6 O 0.19705 0.36412 0.09581 0.0
C7 C 0.20816 0.33125 0.96493 0.0
C8 C 0.1508 0.31366 0.94266 0.0
C9 C 0.19562 0.31964 0.94453 0.0
N10 N 0.17199 0.33133 0.97457 0.0
N11 N 0.13805 0.32104 0.96108 0.0
C12 C 0.25432 0.34427 0.97492 0.0
H13 H 0.25957 0.36541 0.98885 0.0
H14 H 0.25481 0.31183 0.97939 0.0
H15 H 0.28373 0.36437 0.96418 0.0
C16 C 0.14949 0.25267 0.04705 0.0
N17 N 0.14979 0.29021 0.03848 0.0
N18 N 0.15215 0.28768 0.01854 0.0
C19 C 0.15116 0.24721 1.01375 0.0
C20 C 0.15042 0.22416 0.03166 0.0
C21 C 0.1528 0.24703 0.06953 0.0
H22 H 0.118 0.23564 0.0765 0.0
H23 H 0.17872 0.28142 0.07629 0.0
H24 H 0.16393 0.22089 0.07315 0.0
O25 O 0.10062 0.35315 0.0372 0.0
O26 O 0.10914 0.35092 1.00386 0.0
H27 H 0.12732 0.24094 0.98269 0.0
H28 H 0.12828 0.1898 0.99234 0.0
C29 C 0.14697 0.22893 0.9925 0.0
H30 H 0.18258 0.24207 0.98614 0.0
H31 H 0.10579 0.31845 0.96451 0.0
O32 O 0.12792 0.3286 0.07925 0.0
C33 C 0.0878 0.3552 0.01906 0.0
Co34 Co 0.8113 0.1825 0.38524 0.0
Co35 Co 0.82759 0.18777 0.33752 0.0
C36 C 0.89102 0.26711 0.36547 0.0
O37 O 0.8691 0.24495 0.38142 0.0
O38 O 0.87779 0.24904 0.34783 0.0
C39 C 0.83453 0.16814 0.42578 0.0
O40 O 0.87478 0.17944 0.41706 0.0
C41 C 0.87855 0.20461 0.29863 0.0
C42 C 0.82116 0.15919 0.27735 0.0
C43 C 0.86924 0.19043 0.27839 0.0
N44 N 0.83785 0.183 0.30903 0.0
N45 N 0.80369 0.15602 0.29617 0.0
C46 C 0.92577 0.23502 0.30831 0.0
H47 H 0.92565 0.22421 0.32436 0.0
H48 H 0.95373 0.23276 0.29982 0.0
H49 H 0.93378 0.27217 0.30813 0.0
C50 C 0.80837 0.09133 0.37862 0.0
N51 N 0.81576 0.13341 0.37188 0.0
N52 N 0.82609 0.1373 0.35236 0.0
C53 C 0.82761 0.09877 0.34632 0.0
C54 C 0.81616 0.06831 0.36276 0.0
C55 C 0.78879 0.07081 0.39907 0.0
H56 H 0.76503 0.08341 0.40445 0.0
H57 H 0.81818 0.08149 0.41011 0.0
H58 H 0.76876 0.03169 0.39841 0.0
O59 O 0.75579 0.18356 0.374 0.0
O60 O 0.76522 0.18361 0.34042 0.0
H61 H 0.81115 0.08138 0.31485 0.0
H62 H 0.85212 0.06497 0.32526 0.0
C63 C 0.84142 0.0922 0.32543 0.0
H64 H 0.87125 0.1259 0.31996 0.0
H65 H 0.76844 0.13511 0.30029 0.0
O66 O 0.8022 0.16875 0.41513 0.0
C67 C 0.7413 0.18276 0.35583 0.0
Co68 Co 0.64725 0.82242 0.7137 0.0
Co69 Co 0.64795 0.83616 0.6657 0.0
C70 C 0.63747 0.9005 0.69584 0.0
O71 O 0.6397 0.87897 0.71168 0.0
O72 O 0.63998 0.88679 0.67797 0.0
C73 C 0.66757 0.83506 0.75806 0.0
O74 O 0.67277 0.87734 0.75599 0.0
C75 C 0.6817 0.88933 0.62715 0.0
C76 C 0.65521 0.83209 0.60435 0.0
C77 C 0.6805 0.8807 0.60639 0.0
N78 N 0.65807 0.84775 0.63693 0.0
N79 N 0.6421 0.81371 0.62316 0.0
C80 C 0.70761 0.9361 0.6376 0.0
H81 H 0.71515 0.93167 0.65372 0.0
H82 H 0.741 0.95957 0.62957 0.0
H83 H 0.68556 0.95303 0.63719 0.0
C84 C 0.73824 0.82914 0.70392 0.0
N85 N 0.69944 0.83055 0.6982 0.0
N86 N 0.69891 0.83405 0.67822 0.0
C87 C 0.73683 0.83389 0.67055 0.0
C88 C 0.76291 0.83058 0.68659 0.0
C89 C 0.75246 0.82913 0.72567 0.0
H90 H 0.73006 0.79352 0.73226 0.0
H91 H 0.74697 0.85474 0.73451 0.0
H92 H 0.79 0.83893 0.72712 0.0
O93 O 0.58972 0.76571 0.70329 0.0
O94 O 0.59049 0.77462 0.66966 0.0
H95 H 0.71302 0.80652 0.64057 0.0
H96 H 0.77393 0.82475 0.64532 0.0
C97 C 0.74574 0.83329 0.64825 0.0
H98 H 0.7559 0.86828 0.64162 0.0
H99 H 0.62265 0.77784 0.62663 0.0
O100 O 0.65632 0.80811 0.74258 0.0
C101 C 0.57161 0.75075 0.68569 0.0
Co102 Co 0.815 0.63605 0.04997 0.0
Co103 Co 0.80829 0.6504 1.00226 0.0
C104 C 0.73026 0.63344 0.03099 0.0
O105 O 0.7522 0.63136 0.04674 0.0
O106 O 0.74816 0.63996 1.01332 0.0
C107 C 0.82642 0.66573 0.09204 0.0
O108 O 0.80894 0.69168 0.08524 0.0
C109 C 0.79505 0.68957 0.96295 0.0
C110 C 0.82451 0.65978 0.94131 0.0
C111 C 0.80247 0.6865 0.94224 0.0
N112 N 0.81189 0.66566 0.9736 0.0
N113 N 0.82979 0.64841 0.96048 0.0
C114 C 0.77032 0.71275 0.97235 0.0
H115 H 0.76202 0.70252 0.9885 0.0
H116 H 0.79362 0.75157 0.97183 0.0
H117 H 0.7376 0.70358 0.96369 0.0
C118 C 0.90453 0.72585 0.04398 0.0
N119 N 0.86322 0.69068 0.03685 0.0
N120 N 0.85956 0.69778 1.0173 0.0
C121 C 0.89775 0.73834 1.01156 0.0
C122 C 0.9275 0.75737 0.02831 0.0
C123 C 0.92376 0.72743 0.06492 0.0
H124 H 0.91484 0.6915 0.06982 0.0
H125 H 0.90817 0.74173 0.07572 0.0
H126 H 0.96264 0.75043 0.06539 0.0
O127 O 0.81383 0.58037 0.03789 0.0
O128 O 0.81109 0.59126 1.00454 0.0
H129 H 0.90996 0.73685 0.97972 0.0
H130 H 0.93422 0.79574 0.99005 0.0
C131 C 0.90417 0.75914 0.99069 0.0
H132 H 0.87171 0.75934 0.98603 0.0
H133 H 0.84459 0.62777 0.9646 0.0
O134 O 0.8305 0.63805 0.07972 0.0
C135 C 0.81307 0.5674 0.01953 0.0
Co136 Co 0.17277 0.84545 0.38217 0.0
Co137 Co 0.16033 0.83427 0.33412 0.0
C138 C 0.16036 0.75927 0.36146 0.0
O139 O 0.16711 0.7833 0.37769 0.0
O140 O 0.15728 0.77488 0.34394 0.0
C141 C 0.18985 0.84759 0.4265 0.0
O142 O 0.20084 0.81464 0.42333 0.0
C143 C 0.1096 0.79605 0.29456 0.0
C144 C 0.14729 0.85931 0.2752 0.0
C145 C 0.10967 0.81355 0.27516 0.0
N146 N 0.14517 0.83034 0.30553 0.0
N147 N 0.16797 0.86764 0.29367 0.0
C148 C 0.07381 0.74951 0.30317 0.0
H149 H 0.07448 0.75085 0.32007 0.0
H150 H 0.03808 0.73939 0.29735 0.0
H151 H 0.08223 0.72216 0.29826 0.0
C152 C 0.08277 0.8437 0.37787 0.0
N153 N 0.12075 0.84498 0.36959 0.0
N154 N 0.11691 0.84401 0.34959 0.0
C155 C 0.07703 0.84422 0.34451 0.0
C156 C 0.05369 0.84316 0.36227 0.0
C157 C 0.07293 0.83863 0.40025 0.0
H158 H 0.09266 0.87385 0.40757 0.0
H159 H 0.08514 0.81557 0.40714 0.0
H160 H 0.03479 0.82335 0.40331 0.0
O161 O 0.23209 0.89595 0.37086 0.0
O162 O 0.22531 0.88837 0.33728 0.0
H163 H 0.09482 0.87015 0.31388 0.0
H164 H 0.04119 0.86584 0.32304 0.0
C165 C 0.06311 0.84873 0.3232 0.0
H166 H 0.04227 0.81319 0.31633 0.0
H167 H 0.19647 0.89965 0.29849 0.0
O168 O 0.17603 0.86267 0.41159 0.0
C169 C 0.2489 0.90948 0.35314 0.0
Co170 Co 0.34267 0.18698 0.71896 0.0
Co171 Co 0.33736 0.17083 0.67112 0.0
C172 C 0.41438 0.17273 0.69796 0.0
O173 O 0.39806 0.1794 0.71445 0.0
O174 O 0.39481 0.16979 0.68067 0.0
C175 C 0.35037 0.18999 0.76444 0.0
O176 O 0.38227 0.17697 0.76334 0.0
C177 C 0.32597 0.12047 0.63136 0.0
C178 C 0.29721 0.15619 0.6124 0.0
C179 C 0.3086 0.12071 0.61184 0.0
N180 N 0.32395 0.15371 0.64275 0.0
N181 N 0.3071 0.17503 0.63117 0.0
C182 C 0.34575 0.09071 0.63896 0.0
H183 H 0.36906 0.10742 0.65233 0.0
H184 H 0.31658 0.0558 0.64374 0.0
H185 H 0.36578 0.08527 0.62674 0.0
C186 C 0.25314 0.09713 0.71646 0.0
N187 N 0.28958 0.13434 0.70749 0.0
N188 N 0.28595 0.12849 0.68758 0.0
C189 C 0.24614 0.08786 0.68324 0.0
C190 C 0.22457 0.06628 0.70139 0.0
C191 C 0.24848 0.08972 0.73902 0.0
H192 H 0.23732 0.11362 0.74575 0.0
H193 H 0.28318 0.09882 0.74574 0.0
H194 H 0.22245 0.05272 0.74296 0.0
O195 O 0.35227 0.24621 0.70663 0.0
O196 O 0.34744 0.23545 0.67324 0.0
H197 H 0.23496 0.10156 0.6523 0.0
H198 H 0.18912 0.04641 0.66217 0.0
C199 C 0.22769 0.07118 0.66215 0.0
H200 H 0.24529 0.05276 0.65571 0.0
H201 H 0.30144 0.20201 0.63623 0.0
O202 O 0.33129 0.19409 0.7482 0.0
C203 C 0.35292 0.2611 0.68866 0.0
C204 C 0.30957 0.48022 1.01537 0.0
C205 C 0.28558 0.45504 0.03283 0.0
C206 C 0.35806 0.51132 1.01608 0.0
C207 C 0.46303 0.57035 0.05054 0.0
H208 H 0.52477 0.55038 1.00464 0.0
C209 C 0.6566 0.60935 0.05104 0.0
C210 C 0.68206 0.62609 0.03285 0.0
C211 C 0.60929 0.59765 0.05182 0.0
C212 C 0.50824 0.5571 1.01742 0.0
H213 H 0.29301 0.44512 0.06507 0.0
H214 H 0.37786 0.49835 0.06616 0.0
H215 H 0.43987 0.51479 1.00446 0.0
H216 H 0.67871 0.6468 1.00167 0.0
H217 H 0.59685 0.62695 1.00316 0.0
H218 H 0.53204 0.61138 0.06375 0.0
C219 C 0.3592 0.49472 0.05199 0.0
C220 C 0.45942 0.53677 1.0173 0.0
C221 C 0.31051 0.46402 0.05134 0.0
C222 C 0.66004 0.63335 1.01585 0.0
C223 C 0.61302 0.62187 1.01667 0.0
C224 C 0.51212 0.59061 0.0507 0.0
C225 C 0.38376 0.51739 0.03418 0.0
C226 C 0.4361 0.54282 0.03389 0.0
C227 C 0.58673 0.60261 0.03445 0.0
C228 C 0.53514 0.58391 0.03416 0.0
H229 H 0.29122 0.47456 1.00094 0.0
H230 H 0.3757 0.52921 1.0022 0.0
H231 H 0.44617 0.57597 0.0635 0.0
H232 H 0.67259 0.60354 0.06442 0.0
H233 H 0.58984 0.58265 0.06572 0.0
C234 C 0.94918 0.33646 0.38636 0.0
C235 C 0.93155 0.31566 0.36722 0.0
C236 C 0.98532 0.38347 0.38778 0.0
C237 C 0.07535 0.4839 0.35713 0.0
H238 H 0.05276 0.5599 0.39561 0.0
C239 C 0.13858 0.68093 0.34603 0.0
C240 C 0.15112 0.71026 0.36328 0.0
C241 C 0.12282 0.63284 0.34817 0.0
C242 C 0.06027 0.53916 0.38506 0.0
H243 H 0.93904 0.32772 0.33457 0.0
H244 H 0.00107 0.4093 0.33705 0.0
H245 H 0.00422 0.47452 0.39668 0.0
H246 H 0.16014 0.71259 0.39617 0.0
H247 H 0.13264 0.62871 0.3998 0.0
H248 H 0.13003 0.54901 0.34492 0.0
C249 C 0.98779 0.38928 0.35099 0.0
C250 C 0.03243 0.49013 0.38568 0.0
C251 C 0.95186 0.34242 0.34957 0.0
C252 C 0.15033 0.69097 0.38256 0.0
C253 C 0.13443 0.64288 0.38469 0.0
C254 C 0.10306 0.53301 0.35644 0.0
C255 C 0.00449 0.41063 0.3701 0.0
C256 C 0.03879 0.46197 0.37138 0.0
C257 C 0.1192 0.61309 0.36758 0.0
C258 C 0.09501 0.56116 0.37008 0.0
H259 H 0.93457 0.31673 0.40026 0.0
H260 H -0.0022 0.39875 0.40274 0.0
H261 H 0.08173 0.46314 0.34614 0.0
H262 H 0.13886 0.6946 0.33095 0.0
H263 H 0.11097 0.61072 0.33471 0.0
C264 C 0.46498 0.14884 0.71756 0.0
C265 C 0.45365 0.16277 0.69906 0.0
C266 C 0.49585 0.13102 0.71791 0.0
C267 C 0.53431 0.06941 0.68325 0.0
H268 H 0.61528 0.07758 0.72838 0.0
C269 C 0.63415 0.96876 0.68066 0.0
C270 C 0.62965 0.9411 0.69784 0.0
C271 C 0.62181 0.0037 0.68159 0.0
C272 C 0.5927 0.07498 0.71571 0.0
H273 H 0.46917 0.17312 0.66677 0.0
H274 H 0.52409 0.14348 0.6675 0.0
H275 H 0.57876 0.12717 0.72825 0.0
H276 H 0.61123 0.93039 0.72985 0.0
H277 H 0.58874 0.99127 0.73137 0.0
H278 H 0.54729 0.01687 0.67085 0.0
C279 C 0.5079 0.14475 0.68162 0.0
C280 C 0.57181 0.10331 0.71562 0.0
C281 C 0.47664 0.16201 0.68122 0.0
C282 C 0.61491 0.95097 0.71633 0.0
C283 C 0.60226 0.98597 0.71723 0.0
C284 C 0.55525 0.04143 0.6833 0.0
C285 C 0.51635 0.12722 0.69981 0.0
C286 C 0.54209 0.10057 0.69943 0.0
C287 C 0.60433 0.01171 0.69968 0.0
C288 C 0.58443 0.04364 0.69955 0.0
H289 H 0.44786 0.14899 0.73159 0.0
H290 H 0.50134 0.11762 0.73216 0.0
H291 H 0.51063 0.0653 0.67081 0.0
H292 H 0.64604 0.96264 0.66626 0.0
H293 H 0.62472 0.02363 0.66793 0.0
C294 C 0.51459 0.68227 0.66428 0.0
C295 C 0.53092 0.70238 0.68366 0.0
C296 C 0.482 0.63423 0.66229 0.0
C297 C 0.40075 0.5258 0.69105 0.0
H298 H 0.4456 0.46537 0.65381 0.0
C299 C 0.36697 0.33799 0.70281 0.0
C300 C 0.36095 0.30945 0.6858 0.0
C301 C 0.37695 0.38439 0.70027 0.0
C302 C 0.4318 0.48152 0.66396 0.0
H303 H 0.52287 0.6885 0.71617 0.0
H304 H 0.46655 0.60487 0.71268 0.0
H305 H 0.48078 0.55062 0.65331 0.0
H306 H 0.35891 0.30683 0.65274 0.0
H307 H 0.37631 0.38808 0.64834 0.0
H308 H 0.353 0.4566 0.70223 0.0
C309 C 0.47871 0.62616 0.69901 0.0
C310 C 0.45197 0.53048 0.66367 0.0
C311 C 0.51132 0.67414 0.70101 0.0
C312 C 0.36372 0.32798 0.66617 0.0
C313 C 0.37376 0.37453 0.66364 0.0
C314 C 0.38051 0.47677 0.69133 0.0
C315 C 0.46496 0.60537 0.67962 0.0
C316 C 0.43766 0.55327 0.67762 0.0
C317 C 0.38112 0.40343 0.68067 0.0
C318 C 0.39685 0.45425 0.67821 0.0
H319 H 0.52861 0.70307 0.65058 0.0
H320 H 0.47147 0.61931 0.64716 0.0
H321 H 0.3885 0.54234 0.70178 0.0
H322 H 0.36494 0.32486 0.71815 0.0
H323 H 0.38314 0.40588 0.71371 0.0
C324 C 0.82481 0.50166 0.03197 0.0
C325 C 0.82043 0.52704 1.01559 0.0
C326 C 0.84058 0.46975 0.02873 0.0
C327 C 0.91794 0.45488 0.99382 0.0
H328 H 0.88753 0.34664 0.028 0.0
C329 C 0.03488 0.3695 0.99588 0.0
C330 C 0.04756 0.3631 1.01566 0.0
C331 C -0.00177 0.37912 0.99287 0.0
C332 C 0.8963 0.37672 0.0183 0.0
H333 H 0.82514 0.5356 0.98272 0.0
H334 H 0.85232 0.47947 0.97709 0.0
H335 H 0.83567 0.38028 0.02761 0.0
H336 H 0.0305 0.36015 0.04773 0.0
H337 H 0.96714 0.3774 0.04248 0.0
H338 H 0.97948 0.45259 0.98513 0.0
C339 C 0.84439 0.48502 0.99248 0.0
C340 C 0.86662 0.39594 1.01806 0.0
C341 C 0.82858 0.517 0.99571 0.0
C342 C 0.02184 0.36509 0.03229 0.0
C343 C 0.98515 0.37451 0.02927 0.0
C344 C 0.94751 0.43561 0.99403 0.0
C345 C 0.85223 0.46239 1.00904 0.0
C346 C 0.87798 0.43621 1.00633 0.0
C347 C 0.97335 0.38226 1.00957 0.0
C348 C 0.93784 0.39733 1.00678 0.0
H349 H 0.8185 0.50823 0.04747 0.0
H350 H 0.84655 0.45324 0.04186 0.0
H351 H 0.92813 0.48628 0.98482 0.0
H352 H 0.05377 0.3679 0.98272 0.0
H353 H 0.98967 0.38461 0.9775 0.0
C354 C 0.31904 0.97966 0.36806 0.0
C355 C 0.29729 0.94987 0.35127 0.0
C356 C 0.36598 0.01536 0.36716 0.0
C357 C 0.46739 0.08285 0.33265 0.0
H358 H 0.53905 0.08635 0.38058 0.0
C359 C 0.66869 0.15544 0.33438 0.0
C360 C 0.69306 0.17465 0.35277 0.0
C361 C 0.62022 0.1384 0.33299 0.0
C362 C 0.5196 0.08674 0.36722 0.0
H363 H 0.30706 0.93563 0.31998 0.0
H364 H 0.38982 -0.00261 0.31858 0.0
H365 H 0.4543 0.03622 0.38033 0.0
H366 H 0.68687 0.19573 0.38336 0.0
H367 H 0.60268 0.16706 0.38078 0.0
H368 H 0.53357 0.1325 0.31936 0.0
C369 C 0.37024 0.99351 0.33235 0.0
C370 C 0.47085 0.05785 0.36707 0.0
C371 C 0.32293 0.95794 0.33319 0.0
C372 C 0.66892 0.18037 0.3691 0.0
C373 C 0.62065 0.16376 0.36765 0.0
C374 C 0.51646 0.11188 0.33279 0.0
C375 C 0.39256 0.02184 0.34952 0.0
C376 C 0.44413 0.05521 0.34976 0.0
C377 C 0.59538 0.14062 0.34992 0.0
C378 C 0.5431 0.11381 0.35005 0.0
H379 H 0.30001 0.97493 0.3821 0.0
H380 H 0.3818 0.03728 0.38048 0.0
H381 H 0.44771 0.08187 0.31914 0.0
H382 H 0.68632 0.15061 0.32149 0.0
H383 H 0.60179 0.12065 0.31914 0.0
C384 C 0.1195 0.14471 0.04723 0.0
C385 C 0.15057 0.17935 0.03373 0.0
C386 C 0.1172 0.10111 0.04825 0.0
C387 C 0.12311 0.01868 1.01541 0.0
H388 H 0.10109 0.94796 0.06556 0.0
C389 C 0.00793 0.81718 1.01609 0.0
C390 C 0.97112 0.8033 0.03005 0.0
C391 C 0.04787 0.86207 1.01747 0.0
C392 C 0.10778 0.9673 0.0514 0.0
H393 H 0.20518 0.19673 1.01136 0.0
H394 H 0.19932 0.11907 1.0124 0.0
H395 H 0.14104 0.03398 0.06673 0.0
H396 H 0.94723 0.82417 0.05663 0.0
H397 H 0.01629 0.90201 0.0591 0.0
H398 H 0.08586 0.95214 1.00024 0.0
C399 C 0.1774 0.12614 0.02238 0.0
C400 C 0.13071 0.01639 0.05208 0.0
C401 C 0.18032 0.17018 0.02165 0.0
C402 C 0.97543 0.83396 0.04582 0.0
C403 C 0.01522 0.87843 0.0473 0.0
C404 C 0.09974 0.96952 1.01473 0.0
C405 C 0.14539 0.09111 0.03553 0.0
C406 C 0.136 0.04221 0.03423 0.0
C407 C 0.05155 0.89334 0.03297 0.0
C408 C 0.08923 0.9434 0.03288 0.0
H409 H 0.09566 0.15063 0.05645 0.0
H410 H 0.09144 0.07428 0.05819 0.0
H411 H 0.12675 0.0379 1.00143 0.0
H412 H 0.00546 0.79362 1.00398 0.0
H413 H 0.07536 0.87268 1.00623 0.0
C414 C 0.97004 0.81311 0.3513 0.0
C415 C 0.00828 0.84205 0.36411 0.0
C416 C 0.92854 0.81526 0.35197 0.0
C417 C 0.86319 0.85772 0.3824 0.0
H418 H 0.84728 0.90952 0.33171 0.0
C419 C 0.83968 0.01558 0.37991 0.0
C420 C 0.81576 0.02314 0.36389 0.0
C421 C 0.8426 0.97466 0.38059 0.0
C422 C 0.84973 0.89367 0.34584 0.0
H423 H 0.03275 0.89455 0.38808 0.0
H424 H 0.96001 0.89731 0.38971 0.0
H425 H 0.89155 0.86804 0.33204 0.0
H426 H 0.77374 0.99312 0.33659 0.0
H427 H 0.77974 0.9213 0.33747 0.0
H428 H 0.824 0.88601 0.39646 0.0
C429 C 0.9619 0.87281 0.37922 0.0
C430 C 0.8752 0.86994 0.34602 0.0
C431 C 0.00358 0.87135 0.37827 0.0
C432 C 0.79307 0.98823 0.34892 0.0
C433 C 0.7962 0.94715 0.34951 0.0
C434 C 0.83732 0.88099 0.38219 0.0
C435 C 0.92443 0.84558 0.3658 0.0
C436 C 0.88471 0.85465 0.36453 0.0
C437 C 0.82179 0.94042 0.36518 0.0
C438 C 0.8333 0.90212 0.36417 0.0
H439 H 0.97253 0.78951 0.34051 0.0
H440 H 0.90012 0.79413 0.34143 0.0
H441 H 0.86959 0.84553 0.3968 0.0
H442 H 0.85792 0.04226 0.3915 0.0
H443 H 0.8636 0.97127 0.3926 0.0
C444 C 0.17388 0.98113 0.69266 0.0
C445 C 0.18092 0.02067 0.70384 0.0
C446 C 0.12992 0.94005 0.69253 0.0
C447 C 0.01134 0.88181 0.71609 0.0
H448 H 0.96658 0.85879 0.66011 0.0
C449 C 0.84519 0.86556 0.67428 0.0
C450 C 0.80795 0.83085 0.68564 0.0
C451 C 0.88952 0.86959 0.6752 0.0
C452 C 0.97865 0.86393 0.6758 0.0
H453 H 0.14931 0.04767 0.72474 0.0
H454 H 0.07255 0.97604 0.72464 0.0
H455 H 0.05093 0.90182 0.66712 0.0
H456 H 0.78646 0.77113 0.70582 0.0
H457 H 0.86501 0.77935 0.70809 0.0
H458 H 0.93887 0.84739 0.72469 0.0
C459 C 0.10086 0.97635 0.7161 0.0
C460 C 0.02693 0.88827 0.67985 0.0
C461 C 0.14467 0.01747 0.71609 0.0
C462 C 0.81504 0.79866 0.69717 0.0
C463 C 0.85967 0.8031 0.69836 0.0
C464 C 0.96302 0.85723 0.71204 0.0
C465 C 0.09257 0.93788 0.70373 0.0
C466 C 0.04359 0.89987 0.7 0.0
C467 C 0.8975 0.8393 0.68772 0.0
C468 C 0.94642 0.85066 0.69183 0.0
H469 H 0.20181 0.98267 0.68339 0.0
H470 H 0.12452 0.91079 0.68299 0.0
H471 H 0.02338 0.88982 0.73176 0.0
H472 H 0.84066 0.8911 0.66547 0.0
H473 H 0.91827 0.8984 0.66714 0.0
C474 C 0.2143 0.32294 0.90761 0.0
C475 C 0.22148 0.31264 0.92767 0.0
C476 C 0.23435 0.31251 0.89119 0.0
C477 C 0.27992 0.2343 0.87599 0.0
H478 H 0.32222 0.31604 0.82867 0.0
C479 C 0.35612 0.19619 0.80279 0.0
C480 C 0.33825 0.20281 0.78427 0.0
C481 C 0.34579 0.21035 0.82129 0.0
C482 C 0.31037 0.29273 0.84174 0.0
H483 H 0.25482 0.28219 0.94608 0.0
H484 H 0.29102 0.26515 0.91741 0.0
H485 H 0.29946 0.34135 0.85928 0.0
H486 H 0.29487 0.22889 0.7708 0.0
H487 H 0.27726 0.25356 0.80283 0.0
H488 H 0.29075 0.1856 0.85822 0.0
C489 C 0.26979 0.28141 0.91443 0.0
C490 C 0.29725 0.3072 0.85929 0.0
C491 C 0.24969 0.29197 0.93093 0.0
C492 C 0.30942 0.22334 0.78472 0.0
C493 C 0.29954 0.23783 0.80309 0.0
C494 C 0.29337 0.21992 0.85841 0.0
C495 C 0.26204 0.29123 0.89432 0.0
C496 C 0.28083 0.27777 0.8765 0.0
C497 C 0.31788 0.23191 0.82158 0.0
C498 C 0.30774 0.24857 0.84094 0.0
H499 H 0.19244 0.3385 0.90455 0.0
H500 H 0.22682 0.31982 0.87594 0.0
H501 H 0.26706 0.21052 0.88888 0.0
H502 H 0.37835 0.18041 0.803 0.0
H503 H 0.36047 0.20538 0.8353 0.0
C504 C 0.14752 0.32649 0.13392 0.0
C505 C 0.12466 0.32492 0.11547 0.0
C506 C 0.12203 0.31118 0.1521 0.0
C507 C 0.06481 0.29968 0.19033 0.0
H508 H 0.9357 0.19686 0.18773 0.0
C509 C 0.93721 0.25218 0.25834 0.0
C510 C 0.90227 0.20485 0.26105 0.0
C511 C 0.96636 0.26592 0.24123 0.0
C512 C 0.97189 0.22517 0.1889 0.0
H513 H 0.05728 0.30715 0.10179 0.0
H514 H 0.01345 0.28219 0.13333 0.0
H515 H 0.98277 0.22116 0.15712 0.0
H516 H 0.87084 0.13467 0.2482 0.0
H517 H 0.92262 0.15803 0.21878 0.0
H518 H 0.05432 0.30239 0.22233 0.0
C519 C 0.05069 0.29368 0.13382 0.0
C520 C -0.00121 0.23974 0.17116 0.0
C521 C 0.07598 0.30839 0.11568 0.0
C522 C 0.89743 0.17144 0.24646 0.0
C523 C 0.92697 0.185 0.22951 0.0
C524 C 0.03802 0.2847 0.20816 0.0
C525 C 0.07317 0.29439 0.15229 0.0
C526 C 0.04546 0.27761 0.17153 0.0
C527 C 0.96149 0.23257 0.22647 0.0
C528 C 0.99098 0.24749 0.20768 0.0
H529 H 0.18496 0.33885 0.13426 0.0
H530 H 0.14056 0.31178 0.16593 0.0
H531 H 0.10044 0.32919 0.19126 0.0
H532 H 0.94099 0.27892 0.26907 0.0
H533 H 0.99173 0.30298 0.2393 0.0
C534 C 0.84953 0.12571 0.45406 0.0
C535 C 0.82381 0.14626 0.4463 0.0
C536 C 0.83633 0.10021 0.47228 0.0
C537 C 0.77858 0.08404 0.52067 0.0
H538 H 0.74424 0.95261 0.5162 0.0
C539 C 0.69362 0.95348 0.58794 0.0
C540 C 0.70109 0.91494 0.58949 0.0
C541 C 0.71019 0.98366 0.57107 0.0
C542 C 0.75461 0.9894 0.51798 0.0
H543 H 0.76524 0.15776 0.45201 0.0
H544 H 0.74328 0.11448 0.4844 0.0
H545 H 0.77189 0.00313 0.48633 0.0
H546 H 0.73275 0.87831 0.57507 0.0
H547 H 0.76419 0.93218 0.54633 0.0
H548 H 0.76332 0.07131 0.55243 0.0
C549 C 0.77323 0.11773 0.47613 0.0
C550 C 0.77007 0.01822 0.50073 0.0
C551 C 0.78575 0.14236 0.45761 0.0
C552 C 0.72634 0.9077 0.57415 0.0
C553 C 0.74391 0.93845 0.55755 0.0
C554 C 0.76414 0.05549 0.5381 0.0
C555 C 0.79784 0.09563 0.48338 0.0
C556 C 0.78201 0.0657 0.50188 0.0
C557 C 0.73542 0.97649 0.55551 0.0
C558 C 0.75174 0.00758 0.53703 0.0
H559 H 0.8788 0.12772 0.44566 0.0
H560 H 0.85589 0.08356 0.47761 0.0
H561 H 0.78788 0.12069 0.52194 0.0
H562 H 0.67344 0.9593 0.59938 0.0
H563 H 0.70194 0.01175 0.57002 0.0
C564 C 0.67746 0.77665 0.77937 0.0
C565 C 0.6787 0.82013 0.77779 0.0
C566 C 0.69028 0.76343 0.79755 0.0
C567 C 0.70672 0.78771 0.85307 0.0
H568 H 0.7827 0.72763 0.84927 0.0
C569 C 0.78751 0.74643 0.92421 0.0
C570 C 0.78715 0.70328 0.92419 0.0
C571 C 0.77417 0.76185 0.90673 0.0
C572 C 0.76102 0.74385 0.85065 0.0
H573 H 0.69379 0.88347 0.79434 0.0
H574 H 0.71629 0.8604 0.82608 0.0
H575 H 0.75916 0.75188 0.81834 0.0
H576 H 0.77258 0.64266 0.90568 0.0
H577 H 0.74899 0.6691 0.87545 0.0
H578 H 0.70852 0.77945 0.88544 0.0
C579 C 0.70506 0.83638 0.81325 0.0
C580 C 0.7475 0.7578 0.83287 0.0
C581 C 0.69234 0.8497 0.795 0.0
C582 C 0.77339 0.67614 0.90625 0.0
C583 C 0.76004 0.69144 0.88884 0.0
C584 C 0.7202 0.77365 0.8709 0.0
C585 C 0.70465 0.79326 0.81469 0.0
C586 C 0.71985 0.77957 0.8338 0.0
C587 C 0.76046 0.73463 0.88877 0.0
C588 C 0.74722 0.75116 0.86991 0.0
H589 H 0.66707 0.75288 0.76647 0.0
H590 H 0.68877 0.72963 0.79818 0.0
H591 H 0.68509 0.80401 0.85436 0.0
H592 H 0.79943 0.76912 0.93744 0.0
H593 H 0.77574 0.79568 0.90714 0.0
C594 C 0.865 0.64551 0.12066 0.0
C595 C 0.84816 0.67436 0.11269 0.0
C596 C 0.88943 0.65655 0.13932 0.0
C597 C 0.96433 0.75847 0.1713 0.0
H598 H 0.94048 0.66846 0.21456 0.0
C599 C 0.06036 0.82112 0.24802 0.0
C600 C 0.07448 0.79264 0.25842 0.0
C601 C 0.03007 0.80381 0.2312 0.0
C602 C 0.9481 0.69394 0.20254 0.0
H603 H 0.8429 0.73682 0.11842 0.0
H604 H 0.88591 0.75625 0.15071 0.0
H605 H 0.89237 0.64295 0.18343 0.0
H606 H 0.06763 0.72339 0.25945 0.0
H607 H 0.01557 0.6932 0.22957 0.0
H608 H 0.02075 0.80916 0.18974 0.0
C609 C 0.8802 0.7251 0.14253 0.0
C610 C 0.92035 0.6793 0.18474 0.0
C611 C 0.85528 0.71376 0.12407 0.0
C612 C 0.05687 0.74595 0.25186 0.0
C613 C 0.02699 0.72872 0.23473 0.0
C614 C 0.99239 0.77293 0.18887 0.0
C615 C 0.89814 0.69704 0.15023 0.0
C616 C 0.92785 0.71161 0.16903 0.0
C617 C 0.01375 0.75773 0.22395 0.0
C618 C 0.98437 0.74113 0.20492 0.0
H619 H 0.86013 0.6149 0.1123 0.0
H620 H 0.90301 0.63437 0.14483 0.0
H621 H 0.97165 0.78397 0.15929 0.0
H622 H 0.07289 0.85709 0.25288 0.0
H623 H 0.01969 0.82689 0.22383 0.0
C624 C 0.29089 0.04316 0.59547 0.0
C625 C 0.30036 0.09001 0.59373 0.0
C626 C 0.27878 0.01401 0.57821 0.0
C627 C 0.22295 -0.00257 0.52817 0.0
H628 H 0.28445 0.92679 0.51361 0.0
C629 C 0.19609 0.91229 0.44897 0.0
C630 C 0.19769 0.87041 0.4468 0.0
C631 C 0.20663 0.93588 0.46767 0.0
C632 C 0.2662 0.94552 0.5176 0.0
H633 H 0.30486 0.14269 0.57226 0.0
H634 H 0.2829 0.09174 0.54249 0.0
H635 H 0.3075 0.97357 0.54492 0.0
H636 H 0.21041 0.81979 0.46285 0.0
H637 H 0.22721 0.86003 0.49571 0.0
H638 H 0.18094 0.96909 0.5013 0.0
C639 C 0.28507 0.07766 0.55717 0.0
C640 C 0.27966 0.97251 0.53552 0.0
C641 C 0.29778 0.10687 0.57428 0.0
C642 C 0.20904 0.85209 0.46397 0.0
C643 C 0.21907 0.87545 0.48279 0.0
C644 C 0.20901 0.96999 0.51046 0.0
C645 C 0.27489 0.03077 0.55895 0.0
C646 C 0.25874 -0.00058 0.54077 0.0
C647 C 0.21845 0.91797 0.48488 0.0
C648 C 0.23101 0.94431 0.50466 0.0
H649 H 0.29074 0.02806 0.61013 0.0
H650 H 0.27066 0.97781 0.58004 0.0
H651 H 0.20561 0.01717 0.53203 0.0
H652 H 0.18785 0.92768 0.43606 0.0
H653 H 0.20664 0.96892 0.46842 0.0
loop_
_geom_bond_atom_site_label_1
_geom_bond_atom_site_label_2
_geom_bond_distance
_geom_bond_site_symmetry_2
_ccdc_geom_bond_type
Co0 O3 1.970 . S
Co0 N17 1.989 . S
Co0 O25 1.967 . S
Co0 O32 1.920 . S
Co1 O4 1.966 . S
Co1 N10 2.022 . S
Co1 N18 1.993 . S
Co1 O26 1.941 . S
C2 O3 1.258 . S
C2 O4 1.263 1_554 S
O3 Co0 1.970 . S
O3 C2 1.258 . S
O4 Co1 1.966 . S
O4 C2 1.263 1_556 S
C5 O6 1.235 . S
C5 O32 1.289 . S
O6 C5 1.235 . S
C7 C9 1.400 . S
C7 N10 1.351 . S
C7 C12 1.501 . S
C8 C9 1.387 . S
C8 N11 1.341 . S
C9 C7 1.400 . S
C9 C8 1.387 . S
N10 Co1 2.022 . S
N10 C7 1.351 . S
N10 N11 1.365 . S
N11 C8 1.341 . S
N11 N10 1.365 . S
N11 H31 0.862 . S
C12 C7 1.501 . S
C12 H13 0.961 . S
C12 H14 0.961 . S
C12 H15 0.960 . S
H13 C12 0.961 . S
H14 C12 0.961 . S
H15 C12 0.960 . S
C16 N17 1.342 . S
C16 C20 1.401 . S
C16 C21 1.499 . S
N17 Co0 1.989 . S
N17 C16 1.342 . S
N17 N18 1.388 1_554 S
N18 Co1 1.993 . S
N18 N17 1.388 1_556 S
N18 C19 1.346 . S
C19 N18 1.346 . S
C19 C20 1.396 1_556 S
C19 C29 1.510 . S
C20 C16 1.401 . S
C20 C19 1.396 1_554 S
C21 C16 1.499 . S
C21 H22 0.959 . S
C21 H23 0.960 . S
C21 H24 0.961 . S
H22 C21 0.959 . S
H23 C21 0.960 . S
H24 C21 0.961 . S
O25 Co0 1.967 . S
O25 C33 1.258 . S
O26 Co1 1.941 . S
O26 C33 1.266 1_556 S
H27 C29 0.959 . S
H28 C29 0.961 . S
C29 C19 1.510 . S
C29 H27 0.959 . S
C29 H28 0.961 . S
C29 H30 0.960 . S
H30 C29 0.960 . S
H31 N11 0.862 . S
O32 Co0 1.920 . S
O32 C5 1.289 . S
C33 O25 1.258 . S
C33 O26 1.266 1_554 S
Co34 O37 1.970 . S
Co34 N51 1.989 . S
Co34 O59 1.967 . S
Co34 O66 1.920 . S
Co35 O38 1.966 . S
Co35 N44 2.022 . S
Co35 N52 1.993 . S
Co35 O60 1.941 . S
C36 O37 1.258 . S
C36 O38 1.263 . S
O37 Co34 1.970 . S
O37 C36 1.258 . S
O38 Co35 1.966 . S
O38 C36 1.263 . S
C39 O40 1.235 . S
C39 O66 1.289 . S
O40 C39 1.235 . S
C41 C43 1.400 . S
C41 N44 1.351 . S
C41 C46 1.501 . S
C42 C43 1.387 . S
C42 N45 1.341 . S
C43 C41 1.400 . S
C43 C42 1.387 . S
N44 Co35 2.022 . S
N44 C41 1.351 . S
N44 N45 1.365 . S
N45 C42 1.341 . S
N45 N44 1.365 . S
N45 H65 0.862 . S
C46 C41 1.501 . S
C46 H47 0.961 . S
C46 H48 0.961 . S
C46 H49 0.960 . S
H47 C46 0.961 . S
H48 C46 0.961 . S
H49 C46 0.960 . S
C50 N51 1.342 . S
C50 C54 1.401 . S
C50 C55 1.499 . S
N51 Co34 1.989 . S
N51 C50 1.342 . S
N51 N52 1.388 . S
N52 Co35 1.993 . S
N52 N51 1.388 . S
N52 C53 1.346 . S
C53 N52 1.346 . S
C53 C54 1.396 . S
C53 C63 1.510 . S
C54 C50 1.401 . S
C54 C53 1.396 . S
C55 C50 1.499 . S
C55 H56 0.959 . S
C55 H57 0.960 . S
C55 H58 0.961 . S
H56 C55 0.959 . S
H57 C55 0.960 . S
H58 C55 0.961 . S
O59 Co34 1.967 . S
O59 C67 1.258 . S
O60 Co35 1.941 . S
O60 C67 1.266 . S
H61 C63 0.959 . S
H62 C63 0.961 . S
C63 C53 1.510 . S
C63 H61 0.959 . S
C63 H62 0.961 . S
C63 H64 0.960 . S
H64 C63 0.960 . S
H65 N45 0.862 . S
O66 Co34 1.920 . S
O66 C39 1.289 . S
C67 O59 1.258 . S
C67 O60 1.266 . S
Co68 O71 1.970 . S
Co68 N85 1.989 . S
Co68 O93 1.967 . S
Co68 O100 1.920 . S
Co69 O72 1.966 . S
Co69 N78 2.022 . S
Co69 N86 1.993 . S
Co69 O94 1.941 . S
C70 O71 1.258 . S
C70 O72 1.263 . S
O71 Co68 1.970 . S
O71 C70 1.258 . S
O72 Co69 1.966 . S
O72 C70 1.263 . S
C73 O74 1.235 . S
C73 O100 1.289 . S
O74 C73 1.235 . S
C75 C77 1.400 . S
C75 N78 1.351 . S
C75 C80 1.501 . S
C76 C77 1.387 . S
C76 N79 1.341 . S
C77 C75 1.400 . S
C77 C76 1.387 . S
N78 Co69 2.022 . S
N78 C75 1.351 . S
N78 N79 1.365 . S
N79 C76 1.341 . S
N79 N78 1.365 . S
N79 H99 0.862 . S
C80 C75 1.501 . S
C80 H81 0.961 . S
C80 H82 0.961 . S
C80 H83 0.960 . S
H81 C80 0.961 . S
H82 C80 0.961 . S
H83 C80 0.960 . S
C84 N85 1.342 . S
C84 C88 1.401 . S
C84 C89 1.499 . S
N85 Co68 1.989 . S
N85 C84 1.342 . S
N85 N86 1.388 . S
N86 Co69 1.993 . S
N86 N85 1.388 . S
N86 C87 1.346 . S
C87 N86 1.346 . S
C87 C88 1.396 . S
C87 C97 1.510 . S
C88 C84 1.401 . S
C88 C87 1.396 . S
C89 C84 1.499 . S
C89 H90 0.959 . S
C89 H91 0.960 . S
C89 H92 0.961 . S
H90 C89 0.959 . S
H91 C89 0.960 . S
H92 C89 0.961 . S
O93 Co68 1.967 . S
O93 C101 1.258 . S
O94 Co69 1.941 . S
O94 C101 1.266 . S
H95 C97 0.959 . S
H96 C97 0.961 . S
C97 C87 1.510 . S
C97 H95 0.959 . S
C97 H96 0.961 . S
C97 H98 0.960 . S
H98 C97 0.960 . S
H99 N79 0.862 . S
O100 Co68 1.920 . S
O100 C73 1.289 . S
C101 O93 1.258 . S
C101 O94 1.266 . S
Co102 O105 1.970 . S
Co102 N119 1.989 . S
Co102 O127 1.967 . S
Co102 O134 1.920 . S
Co103 O106 1.966 . S
Co103 N112 2.022 . S
Co103 N120 1.993 . S
Co103 O128 1.941 . S
C104 O105 1.258 . S
C104 O106 1.263 1_554 S
O105 Co102 1.970 . S
O105 C104 1.258 . S
O106 Co103 1.966 . S
O106 C104 1.263 1_556 S
C107 O108 1.235 . S
C107 O134 1.289 . S
O108 C107 1.235 . S
C109 C111 1.400 . S
C109 N112 1.351 . S
C109 C114 1.501 . S
C110 C111 1.387 . S
C110 N113 1.341 . S
C111 C109 1.400 . S
C111 C110 1.387 . S
N112 Co103 2.022 . S
N112 C109 1.351 . S
N112 N113 1.365 . S
N113 C110 1.341 . S
N113 N112 1.365 . S
N113 H133 0.862 . S
C114 C109 1.501 . S
C114 H115 0.961 . S
C114 H116 0.961 . S
C114 H117 0.960 . S
H115 C114 0.961 . S
H116 C114 0.961 . S
H117 C114 0.960 . S
C118 N119 1.342 . S
C118 C122 1.401 . S
C118 C123 1.499 . S
N119 Co102 1.989 . S
N119 C118 1.342 . S
N119 N120 1.388 1_554 S
N120 Co103 1.993 . S
N120 N119 1.388 1_556 S
N120 C121 1.346 . S
C121 N120 1.346 . S
C121 C122 1.396 1_556 S
C121 C131 1.510 . S
C122 C118 1.401 . S
C122 C121 1.396 1_554 S
C123 C118 1.499 . S
C123 H124 0.959 . S
C123 H125 0.960 . S
C123 H126 0.961 . S
H124 C123 0.959 . S
H125 C123 0.960 . S
H126 C123 0.961 . S
O127 Co102 1.967 . S
O127 C135 1.258 . S
O128 Co103 1.941 . S
O128 C135 1.266 1_556 S
H129 C131 0.959 . S
H130 C131 0.961 . S
C131 C121 1.510 . S
C131 H129 0.959 . S
C131 H130 0.961 . S
C131 H132 0.960 . S
H132 C131 0.960 . S
H133 N113 0.862 . S
O134 Co102 1.920 . S
O134 C107 1.289 . S
C135 O127 1.258 . S
C135 O128 1.266 1_554 S
Co136 O139 1.970 . S
Co136 N153 1.989 . S
Co136 O161 1.967 . S
Co136 O168 1.920 . S
Co137 O140 1.966 . S
Co137 N146 2.022 . S
Co137 N154 1.993 . S
Co137 O162 1.941 . S
C138 O139 1.258 . S
C138 O140 1.263 . S
O139 Co136 1.970 . S
O139 C138 1.258 . S
O140 Co137 1.966 . S
O140 C138 1.263 . S
C141 O142 1.235 . S
C141 O168 1.289 . S
O142 C141 1.235 . S
C143 C145 1.400 . S
C143 N146 1.351 . S
C143 C148 1.501 . S
C144 C145 1.387 . S
C144 N147 1.341 . S
C145 C143 1.400 . S
C145 C144 1.387 . S
N146 Co137 2.022 . S
N146 C143 1.351 . S
N146 N147 1.365 . S
N147 C144 1.341 . S
N147 N146 1.365 . S
N147 H167 0.862 . S
C148 C143 1.501 . S
C148 H149 0.961 . S
C148 H150 0.961 . S
C148 H151 0.960 . S
H149 C148 0.961 . S
H150 C148 0.961 . S
H151 C148 0.960 . S
C152 N153 1.342 . S
C152 C156 1.401 . S
C152 C157 1.499 . S
N153 Co136 1.989 . S
N153 C152 1.342 . S
N153 N154 1.388 . S
N154 Co137 1.993 . S
N154 N153 1.388 . S
N154 C155 1.346 . S
C155 N154 1.346 . S
C155 C156 1.396 . S
C155 C165 1.510 . S
C156 C152 1.401 . S
C156 C155 1.396 . S
C157 C152 1.499 . S
C157 H158 0.959 . S
C157 H159 0.960 . S
C157 H160 0.961 . S
H158 C157 0.959 . S
H159 C157 0.960 . S
H160 C157 0.961 . S
O161 Co136 1.967 . S
O161 C169 1.258 . S
O162 Co137 1.941 . S
O162 C169 1.266 . S
H163 C165 0.959 . S
H164 C165 0.961 . S
C165 C155 1.510 . S
C165 H163 0.959 . S
C165 H164 0.961 . S
C165 H166 0.960 . S
H166 C165 0.960 . S
H167 N147 0.862 . S
O168 Co136 1.920 . S
O168 C141 1.289 . S
C169 O161 1.258 . S
C169 O162 1.266 . S
Co170 O173 1.970 . S
Co170 N187 1.989 . S
Co170 O195 1.967 . S
Co170 O202 1.920 . S
Co171 O174 1.966 . S
Co171 N180 2.022 . S
Co171 N188 1.993 . S
Co171 O196 1.941 . S
C172 O173 1.258 . S
C172 O174 1.263 . S
O173 Co170 1.970 . S
O173 C172 1.258 . S
O174 Co171 1.966 . S
O174 C172 1.263 . S
C175 O176 1.235 . S
C175 O202 1.289 . S
O176 C175 1.235 . S
C177 C179 1.400 . S
C177 N180 1.351 . S
C177 C182 1.501 . S
C178 C179 1.387 . S
C178 N181 1.341 . S
C179 C177 1.400 . S
C179 C178 1.387 . S
N180 Co171 2.022 . S
N180 C177 1.351 . S
N180 N181 1.365 . S
N181 C178 1.341 . S
N181 N180 1.365 . S
N181 H201 0.862 . S
C182 C177 1.501 . S
C182 H183 0.961 . S
C182 H184 0.961 . S
C182 H185 0.960 . S
H183 C182 0.961 . S
H184 C182 0.961 . S
H185 C182 0.960 . S
C186 N187 1.342 . S
C186 C190 1.401 . S
C186 C191 1.499 . S
N187 Co170 1.989 . S
N187 C186 1.342 . S
N187 N188 1.388 . S
N188 Co171 1.993 . S
N188 N187 1.388 . S
N188 C189 1.346 . S
C189 N188 1.346 . S
C189 C190 1.396 . S
C189 C199 1.510 . S
C190 C186 1.401 . S
C190 C189 1.396 . S
C191 C186 1.499 . S
C191 H192 0.959 . S
C191 H193 0.960 . S
C191 H194 0.961 . S
H192 C191 0.959 . S
H193 C191 0.960 . S
H194 C191 0.961 . S
O195 Co170 1.967 . S
O195 C203 1.258 . S
O196 Co171 1.941 . S
O196 C203 1.266 . S
H197 C199 0.959 . S
H198 C199 0.961 . S
C199 C189 1.510 . S
C199 H197 0.959 . S
C199 H198 0.961 . S
C199 H200 0.960 . S
H200 C199 0.960 . S
H201 N181 0.862 . S
O202 Co170 1.920 . S
O202 C175 1.289 . S
C203 O195 1.258 . S
C203 O196 1.266 . S
C204 C205 1.348 1_556 S
C204 C206 1.327 . S
C204 H229 0.951 . S
C205 C204 1.348 1_554 S
C205 C221 1.349 . S
C206 C204 1.327 . S
C206 C225 1.411 1_556 S
C206 H230 0.969 . S
C207 C224 1.574 . S
C207 C226 1.368 . S
C207 H231 0.949 . S
H208 C212 0.949 . S
C209 C210 1.349 . S
C209 C211 1.327 . S
C209 H232 0.950 . S
C210 C209 1.349 . S
C210 C222 1.348 1_554 S
C211 C209 1.327 . S
C211 C227 1.429 . S
C211 H233 0.950 . S
C212 H208 0.949 . S
C212 C220 1.574 . S
C212 C228 1.368 1_556 S
H213 C221 0.950 . S
H214 C219 0.950 . S
H215 C220 0.949 . S
H216 C222 0.951 . S
H217 C223 0.969 . S
H218 C224 0.949 . S
C219 H214 0.950 . S
C219 C221 1.327 . S
C219 C225 1.429 . S
C220 C212 1.574 . S
C220 H215 0.949 . S
C220 C226 1.368 1_556 S
C221 C205 1.349 . S
C221 H213 0.950 . S
C221 C219 1.327 . S
C222 C210 1.348 1_556 S
C222 H216 0.951 . S
C222 C223 1.327 . S
C223 H217 0.969 . S
C223 C222 1.327 . S
C223 C227 1.411 1_556 S
C224 C207 1.574 . S
C224 H218 0.949 . S
C224 C228 1.368 . S
C225 C206 1.411 1_554 S
C225 C219 1.429 . S
C225 C226 1.523 . S
C226 C207 1.368 . S
C226 C220 1.368 1_554 S
C226 C225 1.523 . S
C227 C211 1.429 . S
C227 C223 1.411 1_554 S
C227 C228 1.523 . S
C228 C212 1.368 1_554 S
C228 C224 1.368 . S
C228 C227 1.523 . S
H229 C204 0.951 . S
H230 C206 0.969 . S
H231 C207 0.949 . S
H232 C209 0.950 . S
H233 C211 0.950 . S
C234 C235 1.349 . S
C234 C236 1.327 . S
C234 H259 0.950 . S
C235 C234 1.349 . S
C235 C251 1.349 . S
C236 C234 1.327 . S
C236 C255 1.429 . S
C236 H260 0.950 . S
C237 C254 1.574 . S
C237 C256 1.368 . S
C237 H261 0.949 . S
H238 C242 0.949 . S
C239 C240 1.349 . S
C239 C241 1.327 . S
C239 H262 0.950 . S
C240 C239 1.349 . S
C240 C252 1.349 . S
C241 C239 1.327 . S
C241 C257 1.429 . S
C241 H263 0.950 . S
C242 H238 0.949 . S
C242 C250 1.574 . S
C242 C258 1.368 . S
H243 C251 0.950 . S
H244 C249 0.950 . S
H245 C250 0.949 . S
H246 C252 0.950 . S
H247 C253 0.950 . S
H248 C254 0.949 . S
C249 H244 0.950 . S
C249 C251 1.327 . S
C249 C255 1.429 . S
C250 C242 1.574 . S
C250 H245 0.949 . S
C250 C256 1.368 1_455 S
C251 C235 1.349 . S
C251 H243 0.950 . S
C251 C249 1.327 . S
C252 C240 1.349 . S
C252 H246 0.950 . S
C252 C253 1.327 . S
C253 H247 0.950 . S
C253 C252 1.327 . S
C253 C257 1.429 . S
C254 C237 1.574 . S
C254 H248 0.949 . S
C254 C258 1.368 1_655 S
C255 C236 1.429 . S
C255 C249 1.429 . S
C255 C256 1.523 . S
C256 C237 1.368 . S
C256 C250 1.368 1_655 S
C256 C255 1.523 . S
C257 C241 1.429 . S
C257 C253 1.429 . S
C257 C258 1.523 . S
C258 C242 1.368 . S
C258 C254 1.368 1_455 S
C258 C257 1.523 . S
H259 C234 0.950 . S
H260 C236 0.950 . S
H261 C237 0.949 . S
H262 C239 0.950 . S
H263 C241 0.950 . S
C264 C265 1.349 . S
C264 C266 1.327 . S
C264 H289 0.950 . S
C265 C264 1.349 . S
C265 C281 1.349 . S
C266 C264 1.327 . S
C266 C285 1.429 . S
C266 H290 0.950 . S
C267 C284 1.574 . S
C267 C286 1.368 . S
C267 H291 0.949 . S
H268 C272 0.949 . S
C269 C270 1.349 . S
C269 C271 1.327 . S
C269 H292 0.950 . S
C270 C269 1.349 . S
C270 C282 1.349 . S
C271 C269 1.327 . S
C271 C287 1.429 . S
C271 H293 0.950 . S
C272 H268 0.949 . S
C272 C280 1.574 . S
C272 C288 1.368 . S
H273 C281 0.950 . S
H274 C279 0.950 . S
H275 C280 0.949 . S
H276 C282 0.950 . S
H277 C283 0.950 . S
H278 C284 0.949 . S
C279 H274 0.950 . S
C279 C281 1.327 . S
C279 C285 1.429 . S
C280 C272 1.574 . S
C280 H275 0.949 . S
C280 C286 1.368 1_565 S
C281 C265 1.349 . S
C281 H273 0.950 . S
C281 C279 1.327 . S
C282 C270 1.349 . S
C282 H276 0.950 . S
C282 C283 1.327 . S
C283 H277 0.950 . S
C283 C282 1.327 . S
C283 C287 1.429 . S
C284 C267 1.574 . S
C284 H278 0.949 . S
C284 C288 1.368 1_545 S
C285 C266 1.429 . S
C285 C279 1.429 . S
C285 C286 1.523 . S
C286 C267 1.368 . S
C286 C280 1.368 1_545 S
C286 C285 1.523 . S
C287 C271 1.429 . S
C287 C283 1.429 . S
C287 C288 1.523 . S
C288 C272 1.368 . S
C288 C284 1.368 1_565 S
C288 C287 1.523 . S
H289 C264 0.950 . S
H290 C266 0.950 . S
H291 C267 0.949 . S
H292 C269 0.950 . S
H293 C271 0.950 . S
C294 C295 1.349 . S
C294 C296 1.327 . S
C294 H319 0.950 . S
C295 C294 1.349 . S
C295 C311 1.349 . S
C296 C294 1.327 . S
C296 C315 1.429 . S
C296 H320 0.950 . S
C297 C314 1.574 . S
C297 C316 1.368 . S
C297 H321 0.949 . S
H298 C302 0.949 . S
C299 C300 1.349 . S
C299 C301 1.327 . S
C299 H322 0.950 . S
C300 C299 1.349 . S
C300 C312 1.349 . S
C301 C299 1.327 . S
C301 C317 1.429 . S
C301 H323 0.950 . S
C302 H298 0.949 . S
C302 C310 1.574 . S
C302 C318 1.368 . S
H303 C311 0.950 . S
H304 C309 0.950 . S
H305 C310 0.949 . S
H306 C312 0.950 . S
H307 C313 0.950 . S
H308 C314 0.949 . S
C309 H304 0.950 . S
C309 C311 1.327 . S
C309 C315 1.429 . S
C310 C302 1.574 . S
C310 H305 0.949 . S
C310 C316 1.368 . S
C311 C295 1.349 . S
C311 H303 0.950 . S
C311 C309 1.327 . S
C312 C300 1.349 . S
C312 H306 0.950 . S
C312 C313 1.327 . S
C313 H307 0.950 . S
C313 C312 1.327 . S
C313 C317 1.429 . S
C314 C297 1.574 . S
C314 H308 0.949 . S
C314 C318 1.368 . S
C315 C296 1.429 . S
C315 C309 1.429 . S
C315 C316 1.523 . S
C316 C297 1.368 . S
C316 C310 1.368 . S
C316 C315 1.523 . S
C317 C301 1.429 . S
C317 C313 1.429 . S
C317 C318 1.523 . S
C318 C302 1.368 . S
C318 C314 1.368 . S
C318 C317 1.523 . S
H319 C294 0.950 . S
H320 C296 0.950 . S
H321 C297 0.949 . S
H322 C299 0.950 . S
H323 C301 0.950 . S
C324 C325 1.349 . S
C324 C326 1.327 . S
C324 H349 0.950 . S
C325 C324 1.349 . S
C325 C341 1.349 1_554 S
C326 C324 1.327 . S
C326 C345 1.429 . S
C326 H350 0.950 . S
C327 C344 1.574 . S
C327 C346 1.368 1_456 S
C327 H351 0.949 . S
H328 C332 0.949 . S
C329 C330 1.349 1_556 S
C329 C331 1.327 . S
C329 H352 0.950 . S
C330 C329 1.349 1_554 S
C330 C342 1.349 . S
C331 C329 1.327 . S
C331 C347 1.429 1_556 S
C331 H353 0.950 . S
C332 H328 0.949 . S
C332 C340 1.574 . S
C332 C348 1.368 1_655 S
H333 C341 0.950 . S
H334 C339 0.950 . S
H335 C340 0.949 . S
H336 C342 0.950 . S
H337 C343 0.950 . S
H338 C344 0.949 . S
C339 H334 0.950 . S
C339 C341 1.327 . S
C339 C345 1.429 1_556 S
C340 C332 1.574 . S
C340 H335 0.949 . S
C340 C346 1.368 . S
C341 C325 1.349 1_556 S
C341 H333 0.950 . S
C341 C339 1.327 . S
C342 C330 1.349 . S
C342 H336 0.950 . S
C342 C343 1.327 . S
C343 H337 0.950 . S
C343 C342 1.327 . S
C343 C347 1.429 . S
C344 C327 1.574 . S
C344 H338 0.949 . S
C344 C348 1.368 1_556 S
C345 C326 1.429 . S
C345 C339 1.429 1_554 S
C345 C346 1.523 . S
C346 C327 1.368 1_654 S
C346 C340 1.368 . S
C346 C345 1.523 . S
C347 C331 1.429 1_554 S
C347 C343 1.429 . S
C347 C348 1.523 . S
C348 C332 1.368 1_455 S
C348 C344 1.368 1_554 S
C348 C347 1.523 . S
H349 C324 0.950 . S
H350 C326 0.950 . S
H351 C327 0.949 . S
H352 C329 0.950 . S
H353 C331 0.950 . S
C354 C355 1.349 . S
C354 C356 1.327 . S
C354 H379 0.950 . S
C355 C354 1.349 . S
C355 C371 1.349 . S
C356 C354 1.327 . S
C356 C375 1.429 . S
C356 H380 0.950 . S
C357 C374 1.574 . S
C357 C376 1.368 1_545 S
C357 H381 0.949 . S
H358 C362 0.949 . S
C359 C360 1.349 . S
C359 C361 1.327 . S
C359 H382 0.950 . S
C360 C359 1.349 . S
C360 C372 1.349 . S
C361 C359 1.327 . S
C361 C377 1.429 . S
C361 H383 0.950 . S
C362 H358 0.949 . S
C362 C370 1.574 . S
C362 C378 1.368 1_565 S
H363 C371 0.950 . S
H364 C369 0.950 . S
H365 C370 0.949 . S
H366 C372 0.950 . S
H367 C373 0.950 . S
H368 C374 0.949 . S
C369 H364 0.950 . S
C369 C371 1.327 . S
C369 C375 1.429 . S
C370 C362 1.574 . S
C370 H365 0.949 . S
C370 C376 1.368 . S
C371 C355 1.349 . S
C371 H363 0.950 . S
C371 C369 1.327 . S
C372 C360 1.349 . S
C372 H366 0.950 . S
C372 C373 1.327 . S
C373 H367 0.950 . S
C373 C372 1.327 . S
C373 C377 1.429 . S
C374 C357 1.574 . S
C374 H368 0.949 . S
C374 C378 1.368 . S
C375 C356 1.429 . S
C375 C369 1.429 . S
C375 C376 1.523 . S
C376 C357 1.368 1_565 S
C376 C370 1.368 . S
C376 C375 1.523 . S
C377 C361 1.429 . S
C377 C373 1.429 . S
C377 C378 1.523 . S
C378 C362 1.368 1_545 S
C378 C374 1.368 . S
C378 C377 1.523 . S
H379 C354 0.950 . S
H380 C356 0.950 . S
H381 C357 0.949 . S
H382 C359 0.950 . S
H383 C361 0.950 . S
C384 C385 1.349 . S
C384 C386 1.327 . S
C384 H409 0.950 . S
C385 C384 1.349 . S
C385 C401 1.349 1_554 S
C386 C384 1.327 . S
C386 C405 1.429 . S
C386 H410 0.950 . S
C387 C404 1.574 1_545 S
C387 C406 1.368 1_556 S
C387 H411 0.949 . S
H388 C392 0.949 . S
C389 C390 1.349 1_556 S
C389 C391 1.327 . S
C389 H412 0.950 . S
C390 C389 1.349 1_554 S
C390 C402 1.349 . S
C391 C389 1.327 . S
C391 C407 1.429 1_556 S
C391 H413 0.950 . S
C392 H388 0.949 . S
C392 C400 1.574 1_565 S
C392 C408 1.368 . S
H393 C401 0.950 . S
H394 C399 0.950 . S
H395 C400 0.949 . S
H396 C402 0.950 . S
H397 C403 0.950 . S
H398 C404 0.949 . S
C399 H394 0.950 . S
C399 C401 1.327 . S
C399 C405 1.429 1_556 S
C400 C392 1.574 1_545 S
C400 H395 0.949 . S
C400 C406 1.368 1_655 S
C401 C385 1.349 1_556 S
C401 H393 0.950 . S
C401 C399 1.327 . S
C402 C390 1.349 . S
C402 H396 0.950 . S
C402 C403 1.327 . S
C403 H397 0.950 . S
C403 C402 1.327 . S
C403 C407 1.429 . S
C404 C387 1.574 1_565 S
C404 H398 0.949 . S
C404 C408 1.368 1_456 S
C405 C386 1.429 . S
C405 C399 1.429 1_554 S
C405 C406 1.523 . S
C406 C387 1.368 1_554 S
C406 C400 1.368 1_455 S
C406 C405 1.523 . S
C407 C391 1.429 1_554 S
C407 C403 1.429 . S
C407 C408 1.523 . S
C408 C392 1.368 . S
C408 C404 1.368 1_654 S
C408 C407 1.523 . S
H409 C384 0.950 . S
H410 C386 0.950 . S
H411 C387 0.949 . S
H412 C389 0.950 . S
H413 C391 0.950 . S
C414 C415 1.349 . S
C414 C416 1.327 . S
C414 H439 0.950 . S
C415 C414 1.349 . S
C415 C431 1.349 . S
C416 C414 1.327 . S
C416 C435 1.429 . S
C416 H440 0.950 . S
C417 C434 1.574 . S
C417 C436 1.368 1_545 S
C417 H441 0.949 . S
H418 C422 0.949 . S
C419 C420 1.349 . S
C419 C421 1.327 . S
C419 H442 0.950 . S
C420 C419 1.349 . S
C420 C432 1.349 . S
C421 C419 1.327 . S
C421 C437 1.429 . S
C421 H443 0.950 . S
C422 H418 0.949 . S
C422 C430 1.574 . S
C422 C438 1.368 1_565 S
H423 C431 0.950 . S
H424 C429 0.950 . S
H425 C430 0.949 . S
H426 C432 0.950 . S
H427 C433 0.950 . S
H428 C434 0.949 . S
C429 H424 0.950 . S
C429 C431 1.327 . S
C429 C435 1.429 . S
C430 C422 1.574 . S
C430 H425 0.949 . S
C430 C436 1.368 1_655 S
C431 C415 1.349 . S
C431 H423 0.950 . S
C431 C429 1.327 . S
C432 C420 1.349 . S
C432 H426 0.950 . S
C432 C433 1.327 . S
C433 H427 0.950 . S
C433 C432 1.327 . S
C433 C437 1.429 . S
C434 C417 1.574 . S
C434 H428 0.949 . S
C434 C438 1.368 1_455 S
C435 C416 1.429 . S
C435 C429 1.429 . S
C435 C436 1.523 . S
C436 C417 1.368 1_565 S
C436 C430 1.368 1_455 S
C436 C435 1.523 . S
C437 C421 1.429 . S
C437 C433 1.429 . S
C437 C438 1.523 . S
C438 C422 1.368 1_545 S
C438 C434 1.368 1_655 S
C438 C437 1.523 . S
H439 C414 0.950 . S
H440 C416 0.950 . S
H441 C417 0.949 . S
H442 C419 0.950 . S
H443 C421 0.950 . S
C444 C445 1.349 . S
C444 C446 1.327 . S
C444 H469 0.950 . S
C445 C444 1.349 . S
C445 C461 1.349 . S
C446 C444 1.327 . S
C446 C465 1.429 . S
C446 H470 0.950 . S
C447 C464 1.574 1_455 S
C447 C466 1.368 . S
C447 H471 0.949 . S
H448 C452 0.949 . S
C449 C450 1.349 . S
C449 C451 1.327 . S
C449 H472 0.950 . S
C450 C449 1.349 . S
C450 C462 1.349 . S
C451 C449 1.327 . S
C451 C467 1.429 . S
C451 H473 0.950 . S
C452 H448 0.949 . S
C452 C460 1.574 1_655 S
C452 C468 1.368 . S
H453 C461 0.950 . S
H454 C459 0.950 . S
H455 C460 0.949 . S
H456 C462 0.950 . S
H457 C463 0.950 . S
H458 C464 0.949 . S
C459 H454 0.950 . S
C459 C461 1.327 . S
C459 C465 1.429 . S
C460 C452 1.574 1_455 S
C460 H455 0.949 . S
C460 C466 1.368 1_565 S
C461 C445 1.349 . S
C461 H453 0.950 . S
C461 C459 1.327 . S
C462 C450 1.349 . S
C462 H456 0.950 . S
C462 C463 1.327 . S
C463 H457 0.950 . S
C463 C462 1.327 . S
C463 C467 1.429 . S
C464 C447 1.574 1_655 S
C464 H458 0.949 . S
C464 C468 1.368 1_545 S
C465 C446 1.429 . S
C465 C459 1.429 . S
C465 C466 1.523 . S
C466 C447 1.368 . S
C466 C460 1.368 1_545 S
C466 C465 1.523 . S
C467 C451 1.429 . S
C467 C463 1.429 . S
C467 C468 1.523 . S
C468 C452 1.368 . S
C468 C464 1.368 1_565 S
C468 C467 1.523 . S
H469 C444 0.950 . S
H470 C446 0.950 . S
H471 C447 0.949 . S
H472 C449 0.950 . S
H473 C451 0.950 . S
C474 C475 1.349 . S
C474 C476 1.327 . S
C474 H499 0.950 . S
C475 C474 1.349 . S
C475 C491 1.349 . S
C476 C474 1.327 . S
C476 C495 1.429 . S
C476 H500 0.950 . S
C477 C494 1.574 . S
C477 C496 1.368 . S
C477 H501 0.949 . S
H478 C482 0.949 . S
C479 C480 1.349 . S
C479 C481 1.327 . S
C479 H502 0.950 . S
C480 C479 1.349 . S
C480 C492 1.349 . S
C481 C479 1.327 . S
C481 C497 1.429 . S
C481 H503 0.950 . S
C482 H478 0.949 . S
C482 C490 1.574 . S
C482 C498 1.368 . S
H483 C491 0.950 . S
H484 C489 0.950 . S
H485 C490 0.949 . S
H486 C492 0.950 . S
H487 C493 0.950 . S
H488 C494 0.949 . S
C489 H484 0.950 . S
C489 C491 1.327 . S
C489 C495 1.429 . S
C490 C482 1.574 . S
C490 H485 0.949 . S
C490 C496 1.368 . S
C491 C475 1.349 . S
C491 H483 0.950 . S
C491 C489 1.327 . S
C492 C480 1.349 . S
C492 H486 0.950 . S
C492 C493 1.327 . S
C493 H487 0.950 . S
C493 C492 1.327 . S
C493 C497 1.429 . S
C494 C477 1.574 . S
C494 H488 0.949 . S
C494 C498 1.368 . S
C495 C476 1.429 . S
C495 C489 1.429 . S
C495 C496 1.523 . S
C496 C477 1.368 . S
C496 C490 1.368 . S
C496 C495 1.523 . S
C497 C481 1.429 . S
C497 C493 1.429 . S
C497 C498 1.523 . S
C498 C482 1.368 . S
C498 C494 1.368 . S
C498 C497 1.523 . S
H499 C474 0.950 . S
H500 C476 0.950 . S
H501 C477 0.949 . S
H502 C479 0.950 . S
H503 C481 0.950 . S
C504 C505 1.349 . S
C504 C506 1.327 . S
C504 H529 0.950 . S
C505 C504 1.349 . S
C505 C521 1.349 . S
C506 C504 1.327 . S
C506 C525 1.429 . S
C506 H530 0.950 . S
C507 C524 1.574 . S
C507 C526 1.368 . S
C507 H531 0.949 . S
H508 C512 0.949 . S
C509 C510 1.349 . S
C509 C511 1.327 1_655 S
C509 H532 0.950 . S
C510 C509 1.349 . S
C510 C522 1.349 . S
C511 C509 1.327 1_455 S
C511 C527 1.429 . S
C511 H533 0.950 . S
C512 H508 0.949 . S
C512 C520 1.574 . S
C512 C528 1.368 . S
H513 C521 0.950 . S
H514 C519 0.950 . S
H515 C520 0.949 . S
H516 C522 0.950 . S
H517 C523 0.950 . S
H518 C524 0.949 . S
C519 H514 0.950 . S
C519 C521 1.327 . S
C519 C525 1.429 . S
C520 C512 1.574 . S
C520 H515 0.949 . S
C520 C526 1.368 . S
C521 C505 1.349 . S
C521 H513 0.950 . S
C521 C519 1.327 . S
C522 C510 1.349 . S
C522 H516 0.950 . S
C522 C523 1.327 . S
C523 H517 0.950 . S
C523 C522 1.327 . S
C523 C527 1.429 1_655 S
C524 C507 1.574 . S
C524 H518 0.949 . S
C524 C528 1.368 . S
C525 C506 1.429 . S
C525 C519 1.429 . S
C525 C526 1.523 . S
C526 C507 1.368 . S
C526 C520 1.368 . S
C526 C525 1.523 . S
C527 C511 1.429 . S
C527 C523 1.429 1_455 S
C527 C528 1.523 . S
C528 C512 1.368 . S
C528 C524 1.368 . S
C528 C527 1.523 . S
H529 C504 0.950 . S
H530 C506 0.950 . S
H531 C507 0.949 . S
H532 C509 0.950 . S
H533 C511 0.950 . S
C534 C535 1.349 . S
C534 C536 1.327 . S
C534 H559 0.950 . S
C535 C534 1.349 . S
C535 C551 1.349 . S
C536 C534 1.327 . S
C536 C555 1.429 . S
C536 H560 0.950 . S
C537 C554 1.574 . S
C537 C556 1.368 . S
C537 H561 0.949 . S
H538 C542 0.949 1_565 S
C539 C540 1.349 1_545 S
C539 C541 1.327 . S
C539 H562 0.950 . S
C540 C539 1.349 1_565 S
C540 C552 1.349 . S
C541 C539 1.327 . S
C541 C557 1.429 . S
C541 H563 0.950 . S
C542 H538 0.949 1_545 S
C542 C550 1.574 . S
C542 C558 1.368 . S
H543 C551 0.950 . S
H544 C549 0.950 . S
H545 C550 0.949 . S
H546 C552 0.950 . S
H547 C553 0.950 . S
H548 C554 0.949 . S
C549 H544 0.950 . S
C549 C551 1.327 . S
C549 C555 1.429 . S
C550 C542 1.574 . S
C550 H545 0.949 . S
C550 C556 1.368 . S
C551 C535 1.349 . S
C551 H543 0.950 . S
C551 C549 1.327 . S
C552 C540 1.349 . S
C552 H546 0.950 . S
C552 C553 1.327 . S
C553 H547 0.950 . S
C553 C552 1.327 . S
C553 C557 1.429 1_565 S
C554 C537 1.574 . S
C554 H548 0.949 . S
C554 C558 1.368 . S
C555 C536 1.429 . S
C555 C549 1.429 . S
C555 C556 1.523 . S
C556 C537 1.368 . S
C556 C550 1.368 . S
C556 C555 1.523 . S
C557 C541 1.429 . S
C557 C553 1.429 1_545 S
C557 C558 1.523 . S
C558 C542 1.368 . S
C558 C554 1.368 . S
C558 C557 1.523 . S
H559 C534 0.950 . S
H560 C536 0.950 . S
H561 C537 0.949 . S
H562 C539 0.950 . S
H563 C541 0.950 . S
C564 C565 1.349 . S
C564 C566 1.327 . S
C564 H589 0.950 . S
C565 C564 1.349 . S
C565 C581 1.349 . S
C566 C564 1.327 . S
C566 C585 1.429 . S
C566 H590 0.950 . S
C567 C584 1.574 . S
C567 C586 1.368 . S
C567 H591 0.949 . S
H568 C572 0.949 . S
C569 C570 1.349 . S
C569 C571 1.327 . S
C569 H592 0.950 . S
C570 C569 1.349 . S
C570 C582 1.349 . S
C571 C569 1.327 . S
C571 C587 1.429 . S
C571 H593 0.950 . S
C572 H568 0.949 . S
C572 C580 1.574 . S
C572 C588 1.368 . S
H573 C581 0.950 . S
H574 C579 0.950 . S
H575 C580 0.949 . S
H576 C582 0.950 . S
H577 C583 0.950 . S
H578 C584 0.949 . S
C579 H574 0.950 . S
C579 C581 1.327 . S
C579 C585 1.429 . S
C580 C572 1.574 . S
C580 H575 0.949 . S
C580 C586 1.368 . S
C581 C565 1.349 . S
C581 H573 0.950 . S
C581 C579 1.327 . S
C582 C570 1.349 . S
C582 H576 0.950 . S
C582 C583 1.327 . S
C583 H577 0.950 . S
C583 C582 1.327 . S
C583 C587 1.429 . S
C584 C567 1.574 . S
C584 H578 0.949 . S
C584 C588 1.368 . S
C585 C566 1.429 . S
C585 C579 1.429 . S
C585 C586 1.523 . S
C586 C567 1.368 . S
C586 C580 1.368 . S
C586 C585 1.523 . S
C587 C571 1.429 . S
C587 C583 1.429 . S
C587 C588 1.523 . S
C588 C572 1.368 . S
C588 C584 1.368 . S
C588 C587 1.523 . S
H589 C564 0.950 . S
H590 C566 0.950 . S
H591 C567 0.949 . S
H592 C569 0.950 . S
H593 C571 0.950 . S
C594 C595 1.349 . S
C594 C596 1.327 . S
C594 H619 0.950 . S
C595 C594 1.349 . S
C595 C611 1.349 . S
C596 C594 1.327 . S
C596 C615 1.429 . S
C596 H620 0.950 . S
C597 C614 1.574 . S
C597 C616 1.368 . S
C597 H621 0.949 . S
H598 C602 0.949 . S
C599 C600 1.349 . S
C599 C601 1.327 . S
C599 H622 0.950 . S
C600 C599 1.349 . S
C600 C612 1.349 1_455 S
C601 C599 1.327 . S
C601 C617 1.429 1_455 S
C601 H623 0.950 . S
C602 H598 0.949 . S
C602 C610 1.574 . S
C602 C618 1.368 . S
H603 C611 0.950 . S
H604 C609 0.950 . S
H605 C610 0.949 . S
H606 C612 0.950 . S
H607 C613 0.950 . S
H608 C614 0.949 1_455 S
C609 H604 0.950 . S
C609 C611 1.327 . S
C609 C615 1.429 . S
C610 C602 1.574 . S
C610 H605 0.949 . S
C610 C616 1.368 . S
C611 C595 1.349 . S
C611 H603 0.950 . S
C611 C609 1.327 . S
C612 C600 1.349 1_655 S
C612 H606 0.950 . S
C612 C613 1.327 . S
C613 H607 0.950 . S
C613 C612 1.327 . S
C613 C617 1.429 . S
C614 C597 1.574 . S
C614 H608 0.949 1_655 S
C614 C618 1.368 . S
C615 C596 1.429 . S
C615 C609 1.429 . S
C615 C616 1.523 . S
C616 C597 1.368 . S
C616 C610 1.368 . S
C616 C615 1.523 . S
C617 C601 1.429 1_655 S
C617 C613 1.429 . S
C617 C618 1.523 . S
C618 C602 1.368 . S
C618 C614 1.368 . S
C618 C617 1.523 . S
H619 C594 0.950 . S
H620 C596 0.950 . S
H621 C597 0.949 . S
H622 C599 0.950 . S
H623 C601 0.950 . S
C624 C625 1.349 1_565 S
C624 C626 1.327 . S
C624 H649 0.950 . S
C625 C624 1.349 1_545 S
C625 C641 1.349 . S
C626 C624 1.327 . S
C626 C645 1.429 . S
C626 H650 0.950 . S
C627 C644 1.574 . S
C627 C646 1.368 . S
C627 H651 0.949 1_565 S
H628 C632 0.949 . S
C629 C630 1.349 . S
C629 C631 1.327 . S
C629 H652 0.950 . S
C630 C629 1.349 . S
C630 C642 1.349 . S
C631 C629 1.327 . S
C631 C647 1.429 . S
C631 H653 0.950 . S
C632 H628 0.949 . S
C632 C640 1.574 . S
C632 C648 1.368 . S
H633 C641 0.950 . S
H634 C639 0.950 . S
H635 C640 0.949 . S
H636 C642 0.950 . S
H637 C643 0.950 . S
H638 C644 0.949 . S
C639 H634 0.950 . S
C639 C641 1.327 . S
C639 C645 1.429 1_545 S
C640 C632 1.574 . S
C640 H635 0.949 . S
C640 C646 1.368 . S
C641 C625 1.349 . S
C641 H633 0.950 . S
C641 C639 1.327 . S
C642 C630 1.349 . S
C642 H636 0.950 . S
C642 C643 1.327 . S
C643 H637 0.950 . S
C643 C642 1.327 . S
C643 C647 1.429 . S
C644 C627 1.574 . S
C644 H638 0.949 . S
C644 C648 1.368 . S
C645 C626 1.429 . S
C645 C639 1.429 1_565 S
C645 C646 1.523 . S
C646 C627 1.368 . S
C646 C640 1.368 . S
C646 C645 1.523 . S
C647 C631 1.429 . S
C647 C643 1.429 . S
C647 C648 1.523 . S
C648 C632 1.368 . S
C648 C644 1.368 . S
C648 C647 1.523 . S
H649 C624 0.950 . S
H650 C626 0.950 . S
H651 C627 0.949 1_545 S
H652 C629 0.950 . S
H653 C631 0.950 . S
C205 C2 1.339 . S
C210 C104 1.339 . S
C235 C36 1.339 . S
C240 C138 1.339 . S
C265 C172 1.339 . S
C270 C70 1.339 . S
C295 C101 2.166 . S
C300 C203 2.166 . S
C325 C135 2.166 . S
C330 C33 2.166 . S
C355 C169 2.166 . S
C360 C67 2.166 . S
C385 C20 0.910 . S
C390 C122 0.910 . S
C415 C156 0.910 . S
C420 C54 0.910 . S
C445 C190 0.910 . S
C450 C88 0.910 . S
C475 C9 1.641 . S
C480 C175 1.687 . S
C505 C5 1.687 . S
C510 C43 1.641 . S
C535 C39 1.687 . S
C540 C77 1.641 . S
C565 C73 1.687 . S
C570 C111 1.641 . S
C595 C107 1.687 . S
C600 C145 1.642 . S
C625 C179 1.641 . S
C630 C141 1.687 . S
