# Generated by pormake.
# Topology vcc, (6)-cn, num edge types: 1
# Building blocks:
#     Node 0, Type 0, BuildingBlock: PAMTUU_clean_sbu_0, # of connection points: 6
#     Node 1, Type 0, BuildingBlock: PAMTUU_clean_sbu_0, # of connection points: 6
#     Node 2, Type 0, BuildingBlock: PAMTUU_clean_sbu_0, # of connection points: 6
#     Node 3, Type 0, BuildingBlock: PAMTUU_clean_sbu_0, # of connection points: 6
#     Node 4, Type 0, BuildingBlock: PAMTUU_clean_sbu_0, # of connection points: 6
#     Node 5, Type 0, BuildingBlock: PAMTUU_clean_sbu_0, # of connection points: 6
#     Node 6, Type 0, BuildingBlock: PAMTUU_clean_sbu_0, # of connection points: 6
#     Node 7, Type 0, BuildingBlock: PAMTUU_clean_sbu_0, # of connection points: 6
#     Node 8, Type 0, BuildingBlock: PAMTUU_clean_sbu_0, # of connection points: 6
#     Node 9, Type 0, BuildingBlock: PAMTUU_clean_sbu_0, # of connection points: 6
#     Node 10, Type 0, BuildingBlock: PAMTUU_clean_sbu_0, # of connection points: 6
#     Node 11, Type 0, BuildingBlock: PAMTUU_clean_sbu_0, # of connection points: 6
#     Node 12, Type 0, BuildingBlock: PAMTUU_clean_sbu_0, # of connection points: 6
#     Node 13, Type 0, BuildingBlock: PAMTUU_clean_sbu_0, # of connection points: 6
#     Node 14, Type 0, BuildingBlock: PAMTUU_clean_sbu_0, # of connection points: 6
#     Node 15, Type 0, BuildingBlock: PAMTUU_clean_sbu_0, # of connection points: 6
#     Node 16, Type 0, BuildingBlock: PAMTUU_clean_sbu_0, # of connection points: 6
#     Node 17, Type 0, BuildingBlock: PAMTUU_clean_sbu_0, # of connection points: 6
#     Node 18, Type 0, BuildingBlock: PAMTUU_clean_sbu_0, # of connection points: 6
#     Node 19, Type 0, BuildingBlock: PAMTUU_clean_sbu_0, # of connection points: 6
#     Node 20, Type 0, BuildingBlock: PAMTUU_clean_sbu_0, # of connection points: 6
#     Node 21, Type 0, BuildingBlock: PAMTUU_clean_sbu_0, # of connection points: 6
#     Node 22, Type 0, BuildingBlock: PAMTUU_clean_sbu_0, # of connection points: 6
#     Node 23, Type 0, BuildingBlock: PAMTUU_clean_sbu_0, # of connection points: 6
#     Node 24, Type 0, BuildingBlock: PAMTUU_clean_sbu_0, # of connection points: 6
#     Node 25, Type 0, BuildingBlock: PAMTUU_clean_sbu_0, # of connection points: 6
#     Node 26, Type 0, BuildingBlock: PAMTUU_clean_sbu_0, # of connection points: 6
#     Node 27, Type 0, BuildingBlock: PAMTUU_clean_sbu_0, # of connection points: 6
#     Node 28, Type 0, BuildingBlock: PAMTUU_clean_sbu_0, # of connection points: 6
#     Node 29, Type 0, BuildingBlock: PAMTUU_clean_sbu_0, # of connection points: 6
#     Node 30, Type 0, BuildingBlock: PAMTUU_clean_sbu_0, # of connection points: 6
#     Node 31, Type 0, BuildingBlock: PAMTUU_clean_sbu_0, # of connection points: 6
#     Edge 32, Type (0, 0), BuildingBlock: CIFDUS_clean_linker_0, # of connection points: 2
#     Edge 33, Type (0, 0), BuildingBlock: CIFDUS_clean_linker_0, # of connection points: 2
#     Edge 34, Type (0, 0), BuildingBlock: CIFDUS_clean_linker_0, # of connection points: 2
#     Edge 35, Type (0, 0), BuildingBlock: CIFDUS_clean_linker_0, # of connection points: 2
#     Edge 36, Type (0, 0), BuildingBlock: CIFDUS_clean_linker_0, # of connection points: 2
#     Edge 37, Type (0, 0), BuildingBlock: CIFDUS_clean_linker_0, # of connection points: 2
#     Edge 38, Type (0, 0), BuildingBlock: CIFDUS_clean_linker_0, # of connection points: 2
#     Edge 39, Type (0, 0), BuildingBlock: CIFDUS_clean_linker_0, # of connection points: 2
#     Edge 40, Type (0, 0), BuildingBlock: CIFDUS_clean_linker_0, # of connection points: 2
#     Edge 41, Type (0, 0), BuildingBlock: CIFDUS_clean_linker_0, # of connection points: 2
#     Edge 42, Type (0, 0), BuildingBlock: CIFDUS_clean_linker_0, # of connection points: 2
#     Edge 43, Type (0, 0), BuildingBlock: CIFDUS_clean_linker_0, # of connection points: 2
#     Edge 44, Type (0, 0), BuildingBlock: CIFDUS_clean_linker_0, # of connection points: 2
#     Edge 45, Type (0, 0), BuildingBlock: CIFDUS_clean_linker_0, # of connection points: 2
#     Edge 46, Type (0, 0), BuildingBlock: CIFDUS_clean_linker_0, # of connection points: 2
#     Edge 47, Type (0, 0), BuildingBlock: CIFDUS_clean_linker_0, # of connection points: 2
#     Edge 48, Type (0, 0), BuildingBlock: CIFDUS_clean_linker_0, # of connection points: 2
#     Edge 49, Type (0, 0), BuildingBlock: CIFDUS_clean_linker_0, # of connection points: 2
#     Edge 50, Type (0, 0), BuildingBlock: CIFDUS_clean_linker_0, # of connection points: 2
#     Edge 51, Type (0, 0), BuildingBlock: CIFDUS_clean_linker_0, # of connection points: 2
#     Edge 52, Type (0, 0), BuildingBlock: CIFDUS_clean_linker_0, # of connection points: 2
#     Edge 53, Type (0, 0), BuildingBlock: CIFDUS_clean_linker_0, # of connection points: 2
#     Edge 54, Type (0, 0), BuildingBlock: CIFDUS_clean_linker_0, # of connection points: 2
#     Edge 55, Type (0, 0), BuildingBlock: CIFDUS_clean_linker_0, # of connection points: 2
#     Edge 56, Type (0, 0), BuildingBlock: CIFDUS_clean_linker_0, # of connection points: 2
#     Edge 57, Type (0, 0), BuildingBlock: CIFDUS_clean_linker_0, # of connection points: 2
#     Edge 58, Type (0, 0), BuildingBlock: CIFDUS_clean_linker_0, # of connection points: 2
#     Edge 59, Type (0, 0), BuildingBlock: CIFDUS_clean_linker_0, # of connection points: 2
#     Edge 60, Type (0, 0), BuildingBlock: CIFDUS_clean_linker_0, # of connection points: 2
#     Edge 61, Type (0, 0), BuildingBlock: CIFDUS_clean_linker_0, # of connection points: 2
#     Edge 62, Type (0, 0), BuildingBlock: CIFDUS_clean_linker_0, # of connection points: 2
#     Edge 63, Type (0, 0), BuildingBlock: CIFDUS_clean_linker_0, # of connection points: 2
#     Edge 64, Type (0, 0), BuildingBlock: CIFDUS_clean_linker_0, # of connection points: 2
#     Edge 65, Type (0, 0), BuildingBlock: CIFDUS_clean_linker_0, # of connection points: 2
#     Edge 66, Type (0, 0), BuildingBlock: CIFDUS_clean_linker_0, # of connection points: 2
#     Edge 67, Type (0, 0), BuildingBlock: CIFDUS_clean_linker_0, # of connection points: 2
#     Edge 68, Type (0, 0), BuildingBlock: CIFDUS_clean_linker_0, # of connection points: 2
#     Edge 69, Type (0, 0), BuildingBlock: CIFDUS_clean_linker_0, # of connection points: 2
#     Edge 70, Type (0, 0), BuildingBlock: CIFDUS_clean_linker_0, # of connection points: 2
#     Edge 71, Type (0, 0), BuildingBlock: CIFDUS_clean_linker_0, # of connection points: 2
#     Edge 72, Type (0, 0), BuildingBlock: CIFDUS_clean_linker_0, # of connection points: 2
#     Edge 73, Type (0, 0), BuildingBlock: CIFDUS_clean_linker_0, # of connection points: 2
#     Edge 74, Type (0, 0), BuildingBlock: CIFDUS_clean_linker_0, # of connection points: 2
#     Edge 75, Type (0, 0), BuildingBlock: CIFDUS_clean_linker_0, # of connection points: 2
#     Edge 76, Type (0, 0), BuildingBlock: CIFDUS_clean_linker_0, # of connection points: 2
#     Edge 77, Type (0, 0), BuildingBlock: CIFDUS_clean_linker_0, # of connection points: 2
#     Edge 78, Type (0, 0), BuildingBlock: CIFDUS_clean_linker_0, # of connection points: 2
#     Edge 79, Type (0, 0), BuildingBlock: CIFDUS_clean_linker_0, # of connection points: 2
#     Edge 80, Type (0, 0), BuildingBlock: CIFDUS_clean_linker_0, # of connection points: 2
#     Edge 81, Type (0, 0), BuildingBlock: CIFDUS_clean_linker_0, # of connection points: 2
#     Edge 82, Type (0, 0), BuildingBlock: CIFDUS_clean_linker_0, # of connection points: 2
#     Edge 83, Type (0, 0), BuildingBlock: CIFDUS_clean_linker_0, # of connection points: 2
#     Edge 84, Type (0, 0), BuildingBlock: CIFDUS_clean_linker_0, # of connection points: 2
#     Edge 85, Type (0, 0), BuildingBlock: CIFDUS_clean_linker_0, # of connection points: 2
#     Edge 86, Type (0, 0), BuildingBlock: CIFDUS_clean_linker_0, # of connection points: 2
#     Edge 87, Type (0, 0), BuildingBlock: CIFDUS_clean_linker_0, # of connection points: 2
#     Edge 88, Type (0, 0), BuildingBlock: CIFDUS_clean_linker_0, # of connection points: 2
#     Edge 89, Type (0, 0), BuildingBlock: CIFDUS_clean_linker_0, # of connection points: 2
#     Edge 90, Type (0, 0), BuildingBlock: CIFDUS_clean_linker_0, # of connection points: 2
#     Edge 91, Type (0, 0), BuildingBlock: CIFDUS_clean_linker_0, # of connection points: 2
#     Edge 92, Type (0, 0), BuildingBlock: CIFDUS_clean_linker_0, # of connection points: 2
#     Edge 93, Type (0, 0), BuildingBlock: CIFDUS_clean_linker_0, # of connection points: 2
#     Edge 94, Type (0, 0), BuildingBlock: CIFDUS_clean_linker_0, # of connection points: 2
#     Edge 95, Type (0, 0), BuildingBlock: CIFDUS_clean_linker_0, # of connection points: 2
#     Edge 96, Type (0, 0), BuildingBlock: CIFDUS_clean_linker_0, # of connection points: 2
#     Edge 97, Type (0, 0), BuildingBlock: CIFDUS_clean_linker_0, # of connection points: 2
#     Edge 98, Type (0, 0), BuildingBlock: CIFDUS_clean_linker_0, # of connection points: 2
#     Edge 99, Type (0, 0), BuildingBlock: CIFDUS_clean_linker_0, # of connection points: 2
#     Edge 100, Type (0, 0), BuildingBlock: CIFDUS_clean_linker_0, # of connection points: 2
#     Edge 101, Type (0, 0), BuildingBlock: CIFDUS_clean_linker_0, # of connection points: 2
#     Edge 102, Type (0, 0), BuildingBlock: CIFDUS_clean_linker_0, # of connection points: 2
#     Edge 103, Type (0, 0), BuildingBlock: CIFDUS_clean_linker_0, # of connection points: 2
#     Edge 104, Type (0, 0), BuildingBlock: CIFDUS_clean_linker_0, # of connection points: 2
#     Edge 105, Type (0, 0), BuildingBlock: CIFDUS_clean_linker_0, # of connection points: 2
#     Edge 106, Type (0, 0), BuildingBlock: CIFDUS_clean_linker_0, # of connection points: 2
#     Edge 107, Type (0, 0), BuildingBlock: CIFDUS_clean_linker_0, # of connection points: 2
#     Edge 108, Type (0, 0), BuildingBlock: CIFDUS_clean_linker_0, # of connection points: 2
#     Edge 109, Type (0, 0), BuildingBlock: CIFDUS_clean_linker_0, # of connection points: 2
#     Edge 110, Type (0, 0), BuildingBlock: CIFDUS_clean_linker_0, # of connection points: 2
#     Edge 111, Type (0, 0), BuildingBlock: CIFDUS_clean_linker_0, # of connection points: 2
#     Edge 112, Type (0, 0), BuildingBlock: CIFDUS_clean_linker_0, # of connection points: 2
#     Edge 113, Type (0, 0), BuildingBlock: CIFDUS_clean_linker_0, # of connection points: 2
#     Edge 114, Type (0, 0), BuildingBlock: CIFDUS_clean_linker_0, # of connection points: 2
#     Edge 115, Type (0, 0), BuildingBlock: CIFDUS_clean_linker_0, # of connection points: 2
#     Edge 116, Type (0, 0), BuildingBlock: CIFDUS_clean_linker_0, # of connection points: 2
#     Edge 117, Type (0, 0), BuildingBlock: CIFDUS_clean_linker_0, # of connection points: 2
#     Edge 118, Type (0, 0), BuildingBlock: CIFDUS_clean_linker_0, # of connection points: 2
#     Edge 119, Type (0, 0), BuildingBlock: CIFDUS_clean_linker_0, # of connection points: 2
#     Edge 120, Type (0, 0), BuildingBlock: CIFDUS_clean_linker_0, # of connection points: 2
#     Edge 121, Type (0, 0), BuildingBlock: CIFDUS_clean_linker_0, # of connection points: 2
#     Edge 122, Type (0, 0), BuildingBlock: CIFDUS_clean_linker_0, # of connection points: 2
#     Edge 123, Type (0, 0), BuildingBlock: CIFDUS_clean_linker_0, # of connection points: 2
#     Edge 124, Type (0, 0), BuildingBlock: CIFDUS_clean_linker_0, # of connection points: 2
#     Edge 125, Type (0, 0), BuildingBlock: CIFDUS_clean_linker_0, # of connection points: 2
#     Edge 126, Type (0, 0), BuildingBlock: CIFDUS_clean_linker_0, # of connection points: 2
#     Edge 127, Type (0, 0), BuildingBlock: CIFDUS_clean_linker_0, # of connection points: 2
# Relax obj value: 0.387
# Max RMSD: 0.191
# Mean RMSD: 0.191
data_MOF--net-vcc--node1-PAMTUU_clean_sbu_0--edge1-CIFDUS_clean_linker_0
_symmetry_space_group_name_H-M    P1
_symmetry_Int_Tables_number       1
_symmetry_cell_setting            triclinic
loop_
_symmetry_equiv_pos_as_xyz
'x, y, z'
_cell_length_a     28.644181
_cell_length_b     51.159734
_cell_length_c     47.557901
_cell_angle_alpha  90.242965
_cell_angle_beta   90.034527
_cell_angle_gamma 89.852018
loop_
_atom_site_label
_atom_site_type_symbol
_atom_site_fract_x
_atom_site_fract_y
_atom_site_fract_z
_atom_type_partial_charge
Tb0 Tb 0.39736 0.98514 0.19775 0.0
Tb1 Tb 0.49222 -0.00282 0.16567 0.0
C2 C 0.46083 0.94049 0.17523 0.0
C3 C 0.31031 0.95561 0.24405 0.0
C4 C 0.31728 0.94365 0.3005 0.0
C5 C 0.27747 0.95681 0.29066 0.0
C6 C 0.27484 0.96355 0.26238 0.0
C7 C 0.34312 0.93691 0.25284 0.0
C8 C 0.34616 0.9306 0.28124 0.0
C9 C 0.32109 0.97218 0.22006 0.0
O10 O 0.44906 0.98734 0.23344 0.0
O11 O 0.51787 0.98747 0.20822 0.0
O12 O 0.47857 0.03025 0.19263 0.0
O13 O 0.39947 0.02783 0.19312 0.0
O14 O 0.55815 0.98557 0.15074 0.0
O15 O 0.5315 0.02456 0.14329 0.0
O16 O 0.43833 0.00483 0.13328 0.0
O17 O 0.37652 0.98375 0.15283 0.0
O18 O 0.43734 0.94885 0.19711 0.0
O19 O 0.47507 0.95696 0.1562 0.0
C20 C 0.49567 0.98676 0.23269 0.0
O21 O 0.34383 -0.00652 0.22647 0.0
O22 O 0.33918 0.96034 0.19838 0.0
C23 C 0.438 0.04138 0.19651 0.0
C24 C 0.56065 0.00215 0.10445 0.0
C25 C 0.53059 -0.00351 1.04839 0.0
C26 C 0.54424 0.02112 1.05893 0.0
C27 C 0.55989 0.0238 1.08654 0.0
C28 C 0.55069 0.97726 1.09337 0.0
C29 C 0.53706 0.9744 1.06544 0.0
C30 C 0.56064 0.00645 0.13504 0.0
C31 C 0.39611 -0.0052 0.13086 0.0
H32 H 0.25444 0.96666 0.30536 0.0
H33 H 0.24969 0.97813 0.25597 0.0
H34 H 0.37052 0.93026 0.23882 0.0
H35 H 0.37657 0.91992 0.28847 0.0
H36 H 0.53962 0.03876 1.04678 0.0
H37 H 0.56715 0.0432 1.09464 0.0
H38 H 0.55106 0.96006 0.10657 0.0
H39 H 0.52906 0.95496 1.05782 0.0
Tb40 Tb 1.07322 0.25431 0.20214 0.0
Tb41 Tb 0.9835 0.23439 0.16724 0.0
C42 C 1.0035 0.29303 0.17552 0.0
C43 C 0.14839 0.29651 0.24526 0.0
C44 C 0.13122 0.31443 0.29902 0.0
C45 C 0.17546 0.30407 0.2926 0.0
C46 C 0.18333 0.29401 0.26568 0.0
C47 C 0.11125 0.314 0.24989 0.0
C48 C 0.10364 0.32385 0.27688 0.0
C49 C 0.14352 0.27599 0.22399 0.0
O50 O 1.02074 0.2488 0.23665 0.0
O51 O 0.9548 0.2425 0.20956 0.0
O52 O 1.00648 0.20198 0.1933 0.0
O53 O 1.08345 0.21222 0.19935 0.0
O54 O 0.91439 0.24121 0.15448 0.0
O55 O 0.94984 0.20503 0.14413 0.0
O56 O 1.03894 0.23065 0.1349 0.0
O57 O 1.09757 0.25213 0.15815 0.0
O58 O 1.02348 0.28612 0.19903 0.0
O59 O 0.99442 0.27533 0.15637 0.0
C60 C 0.9747 0.24554 0.23452 0.0
O61 O 0.12544 0.25417 0.23315 0.0
O62 O 0.12468 0.28328 0.20035 0.0
C63 C 1.04923 0.19527 0.20016 0.0
C64 C 0.90277 0.22308 0.10937 0.0
C65 C 0.90442 0.22562 1.05066 0.0
C66 C 0.89252 0.20218 1.06398 0.0
C67 C 0.89124 0.20099 1.09327 0.0
C68 C 0.91165 0.24695 1.0959 0.0
C69 C 0.91187 0.24826 1.06668 0.0
C70 C 0.91369 0.21991 0.13925 0.0
C71 C 1.08126 0.24084 0.13519 0.0
H72 H 0.19846 0.29783 0.30941 0.0
H73 H 0.21293 0.28117 0.2622 0.0
H74 H 1.08451 0.31688 0.23409 0.0
H75 H 1.07036 0.33312 0.28131 0.0
H76 H 0.88718 0.1845 1.05179 0.0
H77 H 0.88466 0.18239 0.10333 0.0
H78 H 0.92111 0.26423 0.10782 0.0
H79 H 0.92177 0.2664 1.05665 0.0
Tb80 Tb 0.37318 0.24715 0.24674 0.0
Tb81 Tb 0.46431 0.23265 0.28261 0.0
C82 C 0.43418 0.2913 0.27417 0.0
C83 C 0.26929 0.23291 0.20623 0.0
C84 C 0.24675 0.18934 0.17291 0.0
C85 C 0.24648 0.21465 0.16135 0.0
C86 C 0.25759 0.2363 0.17793 0.0
C87 C 0.2632 0.2082 0.21865 0.0
C88 C 0.25177 0.18656 0.20207 0.0
C89 C 0.2973 0.25306 0.22053 0.0
O90 O 0.42796 0.24045 0.21371 0.0
O91 O 0.49369 0.24319 0.2412 0.0
O92 O 0.45051 0.19898 0.25605 0.0
O93 O 0.37225 0.20478 0.25175 0.0
O94 O 0.53249 0.24101 0.29599 0.0
O95 O 0.49767 0.20569 0.30907 0.0
O96 O 0.40588 0.22852 0.31336 0.0
O97 O 0.35238 0.25411 0.291 0.0
O98 O 0.40706 0.28474 0.253 0.0
O99 O 0.45177 0.27377 0.29127 0.0
C100 C 0.47409 0.24241 0.216 0.0
O101 O 0.30018 0.25108 0.24769 0.0
O102 O 0.3381 0.2574 0.20943 0.0
C103 C 0.40915 0.18973 0.25003 0.0
C104 C 0.53853 0.22871 0.34333 0.0
C105 C 0.5287 0.23803 0.40125 0.0
C106 C 0.54938 0.2147 0.39149 0.0
C107 C 0.55384 0.20998 0.36265 0.0
C108 C 0.52134 0.2528 0.3531 0.0
C109 C 0.5165 0.25742 0.38174 0.0
C110 C 0.53233 0.22162 0.31371 0.0
C111 C 0.36588 0.24152 0.3138 0.0
H112 H 0.24361 0.21742 0.13887 0.0
H113 H 0.26194 0.25515 0.16797 0.0
H114 H 0.27163 0.20502 0.24057 0.0
H115 H 0.25187 0.16732 0.2115 0.0
H116 H 0.56 0.1996 0.40605 0.0
H117 H 0.56704 0.19125 0.35545 0.0
H118 H 0.50874 0.2675 0.33861 0.0
H119 H 0.49987 0.27545 0.38837 0.0
Tb120 Tb 1.08994 -0.00647 0.24916 0.0
Tb121 Tb 0.99174 -0.00171 0.28115 0.0
C122 C 1.03401 0.94384 0.26736 0.0
C123 C 0.18152 0.96446 0.20605 0.0
C124 C 0.17836 0.92834 0.16181 0.0
C125 C 0.19946 0.95289 0.15794 0.0
C126 C 0.20073 0.97095 0.17997 0.0
C127 C 0.16776 0.93851 0.21108 0.0
C128 C 0.16613 0.92052 0.18903 0.0
C129 C 0.16743 0.9854 0.22554 0.0
O130 O 1.03847 -0.00437 0.21399 0.0
O131 O 0.96858 0.99008 0.23712 0.0
O132 O 1.0025 0.03415 0.25802 0.0
O133 O 1.08183 0.03536 0.25699 0.0
O134 O 0.92722 0.98291 0.29404 0.0
O135 O 0.94649 0.02281 0.30351 0.0
O136 O 1.04301 0.00375 0.31648 0.0
O137 O 0.10958 0.9907 0.29397 0.0
O138 O 1.0589 0.9547 0.24748 0.0
O139 O 1.01342 0.95806 0.28663 0.0
C140 C 0.99243 -0.00768 0.21331 0.0
O141 O 0.13625 0.00171 0.21594 0.0
O142 O 0.15744 0.97794 0.25093 0.0
C143 C 1.04136 0.04724 0.25501 0.0
C144 C 0.91235 -0.00074 0.33986 0.0
C145 C 0.92927 -0.00588 0.39785 0.0
C146 C 0.91787 0.01863 0.38627 0.0
C147 C 0.9088 0.02106 0.35766 0.0
C148 C 0.9191 0.97441 0.35166 0.0
C149 C 0.92654 0.97183 0.38049 0.0
C150 C 0.91856 0.00352 0.30952 0.0
C151 C 1.08785 -0.00276 0.31742 0.0
H152 H 0.20929 0.95944 0.13713 0.0
H153 H 0.2122 0.99074 0.17583 0.0
H154 H 0.15392 0.93279 0.2313 0.0
H155 H 0.15025 0.90161 0.19256 0.0
H156 H 0.91962 0.03641 0.3986 0.0
H157 H 0.90323 0.04041 0.34907 0.0
H158 H 0.9212 0.9571 0.33853 0.0
H159 H 0.9329 0.95248 0.38879 0.0
Tb160 Tb 0.73135 0.98489 1.03427 0.0
Tb161 Tb 0.82854 -0.00912 1.00356 0.0
C162 C 0.77771 0.93739 1.00476 0.0
C163 C 0.66216 0.97795 1.09651 0.0
C164 C 0.67922 0.97616 0.15476 0.0
C165 C 0.66308 0.95388 0.14037 0.0
C166 C 0.65455 0.95481 0.11153 0.0
C167 C 0.67583 0.00061 0.11111 0.0
C168 C 0.68383 -0.00024 0.14 0.0
C169 C 0.66264 0.97706 1.06559 0.0
O170 O 0.78605 0.97714 1.06661 0.0
O171 O 0.84486 0.00086 1.04796 0.0
O172 O 0.80021 0.03035 1.00241 0.0
O173 O 0.74601 0.0265 1.03758 0.0
O174 O 0.90072 0.98464 1.007 0.0
O175 O 0.8711 0.00028 0.96902 0.0
O176 O 0.77749 0.98499 0.96837 0.0
O177 O 0.70754 -0.00691 0.99062 0.0
O178 O 0.73876 0.95021 1.0085 0.0
O179 O 0.81769 0.94895 1.00928 0.0
C180 C 0.82671 0.98894 1.06986 0.0
O181 O 0.66924 -0.00089 1.05243 0.0
O182 O 0.68837 0.95835 1.05526 0.0
C183 C 0.76901 0.04073 1.01936 0.0
C184 C 0.92894 0.96819 0.96408 0.0
C185 C 0.94986 0.92745 0.92634 0.0
C186 C 0.93375 0.9217 0.95346 0.0
C187 C 0.92322 0.94194 0.97219 0.0
C188 C 0.94894 0.97381 0.93802 0.0
C189 C 0.95907 0.95361 0.91925 0.0
C190 C 0.90758 0.98945 0.9805 0.0
C191 C 0.73165 0.98945 0.96709 0.0
H192 H 0.65944 0.93533 0.15101 0.0
H193 H 0.64419 0.93708 1.10068 0.0
H194 H 0.68199 0.01878 1.10013 0.0
H195 H 0.69508 0.01743 0.1506 0.0
H196 H 0.92585 0.90175 0.95932 0.0
H197 H 0.90791 0.93705 0.9923 0.0
H198 H 0.95325 -0.00613 0.93131 0.0
H199 H 0.96932 0.9587 0.8981 0.0
Tb200 Tb 0.22995 0.75415 1.03816 0.0
Tb201 Tb 0.14059 0.73708 1.00291 0.0
C202 C 0.16728 0.79451 1.00967 0.0
C203 C 0.28397 0.78383 1.0978 0.0
C204 C 0.24203 0.79393 0.15 0.0
C205 C 0.22972 0.80902 0.12664 0.0
C206 C 0.25062 0.80401 1.10061 0.0
C207 C 0.2998 0.77101 0.122 0.0
C208 C 0.27914 0.77609 0.14792 0.0
C209 C 0.29215 0.7714 1.0702 0.0
O210 O 0.18036 0.74072 1.07081 0.0
O211 O 0.11231 0.74433 1.04634 0.0
O212 O 0.16869 0.70087 1.02018 0.0
O213 O 0.2444 0.71458 1.02425 0.0
O214 O 1.07004 0.74587 0.99591 0.0
O215 O 0.1038 0.71447 0.97318 0.0
O216 O 0.19671 0.73599 0.97015 0.0
O217 O 0.25796 0.7545 0.99456 0.0
O218 O 0.1828 0.78741 1.03428 0.0
O219 O 0.15876 0.7766 0.99089 0.0
C220 C 0.13425 0.74189 1.07071 0.0
O221 O 0.28025 0.7468 1.06917 0.0
O222 O 0.27739 0.78413 1.04814 0.0
C223 C 0.21363 0.69576 1.0222 0.0
C224 C 1.05753 0.74476 0.94785 0.0
C225 C 1.04594 0.78439 0.90766 0.0
C226 C 1.0082 0.77694 0.92455 0.0
C227 C 1.01422 0.75736 0.94472 0.0
C228 C 1.09401 0.75098 0.92942 0.0
C229 C 1.08825 0.77055 0.90956 0.0
C230 C 1.06834 0.73063 0.97393 0.0
C231 C 0.24029 0.74488 0.97083 0.0
H232 H 0.20106 0.82284 0.1279 0.0
H233 H 0.23733 0.81419 1.08234 0.0
H234 H 0.32423 0.75498 0.12053 0.0
H235 H 0.28917 0.76431 0.16584 0.0
H236 H 0.97499 0.78702 0.92303 0.0
H237 H 0.98605 0.75315 0.95895 0.0
H238 H 0.12798 0.74185 0.93138 0.0
H239 H 0.11746 0.77534 0.89606 0.0
Tb240 Tb 0.7259 0.75166 0.91724 0.0
Tb241 Tb 0.82238 0.73092 0.94276 0.0
C242 C 0.79451 0.78965 0.94935 0.0
C243 C 0.64847 0.76654 0.86103 0.0
C244 C 0.67011 0.77003 0.80378 0.0
C245 C 0.65113 0.7917 0.81802 0.0
C246 C 0.64012 0.78991 0.84656 0.0
C247 C 0.66296 0.74425 0.84602 0.0
C248 C 0.67325 0.74593 0.81761 0.0
C249 C 0.6543 0.76709 0.89163 0.0
O250 O 0.77054 0.74328 0.87964 0.0
O251 O 0.84196 0.74544 0.9006 0.0
O252 O 0.79306 0.69866 0.91867 0.0
O253 O 0.71723 0.71013 0.92453 0.0
O254 O 0.89493 0.73503 0.94625 0.0
O255 O 0.86001 0.70123 0.96306 0.0
O256 O 0.77095 0.72736 0.97838 0.0
O257 O 0.70878 0.75191 0.96252 0.0
O258 O 0.76526 0.78638 0.92844 0.0
O259 O 0.8162 0.76984 0.96089 0.0
C260 C 0.81659 0.74514 0.87749 0.0
O261 O 0.65711 0.74447 0.90392 0.0
O262 O 0.68714 0.78271 0.90021 0.0
C263 C 0.74888 0.69231 0.91941 0.0
C264 C 0.92189 0.71826 0.9893 0.0
C265 C 0.92786 0.72461 1.04721 0.0
C266 C 0.93331 0.69961 1.03539 0.0
C267 C 0.93042 0.69646 1.00631 0.0
C268 C 0.92544 0.74348 1.00093 0.0
C269 C 0.93008 0.74661 1.0298 0.0
C270 C 0.89895 0.71439 0.96204 0.0
C271 C 0.72938 0.73858 0.98283 0.0
H272 H 0.6478 0.8104 0.8076 0.0
H273 H 0.62925 0.80734 0.85782 0.0
H274 H 0.67018 0.72597 0.85661 0.0
H275 H 0.68802 0.72892 0.80726 0.0
H276 H 0.93233 0.68235 1.04849 0.0
H277 H 0.92857 0.67687 0.99761 0.0
H278 H 0.91939 0.76076 0.98834 0.0
H279 H 0.92692 0.76609 1.03867 0.0
Tb280 Tb 0.22715 0.98468 0.92152 0.0
Tb281 Tb 0.13205 -0.00332 0.95432 0.0
C282 C 0.16814 0.93972 0.94818 0.0
C283 C 0.29283 0.96995 0.85953 0.0
C284 C 0.27005 0.9546 0.80448 0.0
C285 C 0.29873 0.9386 0.8211 0.0
C286 C 0.30978 0.94617 0.84865 0.0
C287 C 0.26695 0.98663 0.84197 0.0
C288 C 0.25558 0.97897 0.81481 0.0
C289 C 0.29536 0.97556 0.88989 0.0
O290 O 0.1756 -0.00514 0.88812 0.0
O291 O 0.11209 0.98171 0.91249 0.0
O292 O 0.15417 0.03392 0.93659 0.0
O293 O 0.23155 0.02406 0.93799 0.0
O294 O 1.05898 -0.00534 0.95192 0.0
O295 O 1.09234 0.01193 0.98793 0.0
O296 O 0.18536 -0.0026 0.98843 0.0
O297 O 0.25166 0.9824 0.96577 0.0
O298 O 0.19066 0.94746 0.92571 0.0
O299 O 0.14924 0.95672 0.96537 0.0
C300 C 0.13128 0.98789 0.88828 0.0
O301 O 0.28257 -0.00096 0.8974 0.0
O302 O 0.27699 0.95786 0.9061 0.0
C303 C 0.19791 0.04133 0.93671 0.0
C304 C 1.03164 0.98239 0.99633 0.0
C305 C 1.01998 0.94475 1.03829 0.0
C306 C 1.00903 0.97112 1.04378 0.0
C307 C 1.01514 0.98991 1.02287 0.0
C308 C 1.03576 0.95561 0.98981 0.0
C309 C 1.02951 0.9369 1.01061 0.0
C310 C 1.054 0.00175 0.97802 0.0
C311 C 0.22986 0.98992 0.98907 0.0
H312 H 0.31066 0.91982 0.81326 0.0
H313 H 0.32972 0.93301 0.86184 0.0
H314 H 0.25333 0.00512 0.84956 0.0
H315 H 0.23426 -0.00816 0.80206 0.0
H316 H 1.00172 0.97769 1.06501 0.0
H317 H 1.01158 0.01041 1.02826 0.0
H318 H 1.04801 0.94915 0.96938 0.0
H319 H 1.03781 0.91668 1.00587 0.0
Tb320 Tb 0.38335 0.48125 0.69976 0.0
Tb321 Tb 0.47704 0.50032 0.66893 0.0
C322 C 0.45505 0.44239 0.67515 0.0
C323 C 0.32365 0.44063 0.74862 0.0
C324 C 0.33905 0.40766 0.79524 0.0
C325 C 0.29378 0.4107 0.78378 0.0
C326 C 0.28611 0.42726 0.76071 0.0
C327 C 0.36884 0.43619 0.75868 0.0
C328 C 0.37646 0.42025 0.78172 0.0
C329 C 0.31766 0.4594 0.72563 0.0
O330 O 0.43301 0.48916 0.73475 0.0
O331 O 0.50342 0.49035 0.71163 0.0
O332 O 0.45196 0.53244 0.6949 0.0
O333 O 0.3739 0.52337 0.6955 0.0
O334 O 0.54612 0.49364 0.65573 0.0
O335 O 0.51116 0.53025 0.64714 0.0
O336 O 0.42288 0.50411 0.63576 0.0
O337 O 0.36132 0.48177 0.65492 0.0
O338 O 0.4339 0.4496 0.69818 0.0
O339 O 0.46548 0.45993 0.65637 0.0
C340 C 0.47936 0.48927 0.7354 0.0
O341 O 0.33195 0.48309 0.73127 0.0
O342 O 0.33352 0.45124 0.70145 0.0
C343 C 0.40853 0.5399 0.69877 0.0
C344 C 0.55192 0.51128 0.61005 0.0
C345 C 0.53347 0.50851 0.552 0.0
C346 C 0.55045 0.53178 0.56412 0.0
C347 C 0.55993 0.53308 0.59295 0.0
C348 C 0.53912 0.48746 0.59749 0.0
C349 C 0.53124 0.48594 0.56869 0.0
C350 C 0.54586 0.51486 0.64051 0.0
C351 C 0.38102 0.49339 0.63316 0.0
H352 H 0.26406 0.40105 0.79312 0.0
H353 H 0.25099 0.43005 0.75278 0.0
H354 H 0.39845 0.44588 0.74937 0.0
H355 H 0.41175 0.4194 0.78976 0.0
H356 H 0.55262 0.54959 0.55198 0.0
H357 H 0.56932 0.5517 0.60225 0.0
H358 H 0.53235 0.4703 0.61009 0.0
H359 H 0.52005 0.46743 0.55989 0.0
Tb360 Tb 1.08572 0.74788 0.70338 0.0
Tb361 Tb 0.99164 0.73831 0.66838 0.0
C362 C 1.03038 0.79349 0.67669 0.0
C363 C 0.16475 0.78823 0.74352 0.0
C364 C 0.15063 0.82897 0.78221 0.0
C365 C 0.18156 0.80831 0.78847 0.0
C366 C 0.18821 0.7879 0.76929 0.0
C367 C 0.13975 0.81079 0.73564 0.0
C368 C 0.13259 0.83102 0.75492 0.0
C369 C 0.15862 0.76378 0.7276 0.0
O370 O 1.03208 0.74577 0.73692 0.0
O371 O 0.96391 0.74789 0.71129 0.0
O372 O 1.0034 0.70355 0.69288 0.0
O373 O 1.08191 0.7051 0.70177 0.0
O374 O 0.9272 0.75212 0.65334 0.0
O375 O 0.95058 0.71251 0.6449 0.0
O376 O 1.04581 0.73125 0.63545 0.0
O377 O 0.10989 0.74599 0.65931 0.0
O378 O 1.04768 0.78473 0.70029 0.0
O379 O 1.01612 0.77698 0.65767 0.0
C380 C 0.98583 0.74744 0.73595 0.0
O381 O 0.13009 0.7469 0.73875 0.0
O382 O 0.15054 0.76669 0.7009 0.0
C383 C 1.04212 0.69227 0.70115 0.0
C384 C 0.92109 0.73578 0.60684 0.0
C385 C 0.94465 0.74183 0.54985 0.0
C386 C 0.93341 0.71703 0.56061 0.0
C387 C 0.9211 0.71412 0.58871 0.0
C388 C 0.92838 0.76084 0.59569 0.0
C389 C 0.93921 0.76386 0.56734 0.0
C390 C 0.92253 0.73139 0.63737 0.0
C391 C 1.09033 0.73807 0.63567 0.0
H392 H 0.19578 0.80611 0.80945 0.0
H393 H 0.20796 0.77082 0.77565 0.0
H394 H 0.12209 0.8118 0.71555 0.0
H395 H 0.10878 0.84673 0.74958 0.0
H396 H 0.93739 0.69947 0.54807 0.0
H397 H 0.9154 0.69461 0.59681 0.0
H398 H 0.92796 0.77803 0.60906 0.0
H399 H 0.94568 0.78337 0.55956 0.0
Tb400 Tb 0.37801 0.74365 0.74829 0.0
Tb401 Tb 0.47363 0.73511 0.78281 0.0
C402 C 0.43995 0.79017 0.76879 0.0
C403 C 0.30312 0.7791 0.70107 0.0
C404 C 0.32234 0.81116 0.65483 0.0
C405 C 0.29076 0.79024 0.65219 0.0
C406 C 0.28138 0.7742 0.67521 0.0
C407 C 0.32975 0.802 0.7045 0.0
C408 C 0.33935 0.81788 0.68151 0.0
C409 C 0.30628 0.75822 0.72217 0.0
O410 O 0.43167 0.73995 0.71465 0.0
O411 O 0.49999 0.74433 0.73982 0.0
O412 O 0.45913 0.70001 0.75862 0.0
O413 O 0.37998 0.70138 0.75378 0.0
O414 O 0.53944 0.74717 0.7975 0.0
O415 O 0.5141 0.70796 0.80476 0.0
O416 O 0.42037 0.73206 0.817 0.0
O417 O 0.35468 0.74403 0.79261 0.0
O418 O 0.41839 0.7795 0.74744 0.0
O419 O 0.45479 0.77573 0.78954 0.0
C420 C 0.47778 0.74287 0.71535 0.0
O421 O 0.3312 0.73793 0.71468 0.0
O422 O 0.31651 0.76595 0.74757 0.0
C423 C 0.41933 0.68821 0.75387 0.0
C424 C 0.55309 0.72768 0.84177 0.0
C425 C 0.54639 0.72627 0.90046 0.0
C426 C 0.56556 0.70497 0.88578 0.0
C427 C 0.56914 0.70575 0.85655 0.0
C428 C 0.53665 0.7496 0.85664 0.0
C429 C 0.53374 0.74897 0.88584 0.0
C430 C 0.54526 0.72543 0.81144 0.0
C431 C 0.37534 0.73807 0.8166 0.0
H432 H 0.2774 0.78453 0.63175 0.0
H433 H 0.26066 0.75672 0.67215 0.0
H434 H 0.34664 0.80647 0.7243 0.0
H435 H 0.36363 0.83393 0.68405 0.0
H436 H 0.57553 0.68732 0.89678 0.0
H437 H 0.58158 0.6886 0.84537 0.0
H438 H 0.5235 0.76664 0.84571 0.0
H439 H 0.51846 0.76551 0.8968 0.0
Tb440 Tb 1.06121 0.48408 0.75161 0.0
Tb441 Tb 0.97267 0.50541 0.78532 0.0
C442 C 0.99144 0.44669 0.77945 0.0
C443 C 0.11783 0.441 0.70268 0.0
C444 C 0.10198 0.40646 0.65725 0.0
C445 C 0.1471 0.40921 0.66894 0.0
C446 C 0.15501 0.42656 0.6914 0.0
C447 C 1.07258 0.43676 0.69265 0.0
C448 C 1.06474 0.42 0.67016 0.0
C449 C 0.12457 0.46063 0.72486 0.0
O450 O 1.00773 0.49129 0.71756 0.0
O451 O 0.94161 0.49457 0.74456 0.0
O452 O 0.99781 0.5368 0.7586 0.0
O453 O 1.07474 0.52574 0.75559 0.0
O454 O 0.90335 0.5012 0.79855 0.0
O455 O 0.94257 0.5361 0.80846 0.0
O456 O 1.02815 0.50816 0.81733 0.0
O457 O 1.08693 0.48472 0.79632 0.0
O458 O 1.01001 0.45331 0.75552 0.0
O459 O 0.98263 0.46482 0.79814 0.0
C460 C 0.96135 0.49249 0.71955 0.0
O461 O 0.10998 0.48413 0.71862 0.0
O462 O 0.1099 0.45339 0.74956 0.0
C463 C 1.04141 0.54325 0.75383 0.0
C464 C 0.89897 0.51794 0.84441 0.0
C465 C 0.90731 0.51376 0.90286 0.0
C466 C 0.88834 0.5365 0.8909 0.0
C467 C 0.88407 0.53855 0.86172 0.0
C468 C 0.91535 0.49469 0.85654 0.0
C469 C 0.9188 0.49249 0.88552 0.0
C470 C 0.90591 0.5221 0.81433 0.0
C471 C 1.06946 0.49671 0.81883 0.0
H472 H 0.17662 0.39879 0.66014 0.0
H473 H 0.1901 0.42915 0.69943 0.0
H474 H 1.04323 0.44729 0.70148 0.0
H475 H 1.02956 0.41929 0.66194 0.0
H476 H 0.88014 0.55333 0.90388 0.0
H477 H 0.87212 0.55677 0.85264 0.0
H478 H 0.92753 0.47858 0.84362 0.0
H479 H 0.93297 0.47464 0.89431 0.0
Tb480 Tb 0.71679 0.48287 0.53711 0.0
Tb481 Tb 0.80882 0.49675 0.50276 0.0
C482 C 0.77607 0.43967 0.50827 0.0
C483 C 0.65017 0.47409 0.59922 0.0
C484 C 0.67319 0.47236 0.65672 0.0
C485 C 0.64233 0.45383 0.64495 0.0
C486 C 0.63172 0.45439 0.61624 0.0
C487 C 0.67732 0.49385 0.61139 0.0
C488 C 0.68926 0.49281 0.63958 0.0
C489 C 0.64925 0.47178 0.56854 0.0
O490 O 0.7691 0.49328 0.57036 0.0
O491 O 0.83247 0.4825 0.5442 0.0
O492 O 0.7896 0.53397 0.52163 0.0
O493 O 0.7126 0.52444 0.52909 0.0
O494 O 0.88211 0.4971 0.50379 0.0
O495 O 0.8451 0.50879 0.46659 0.0
O496 O 0.75156 0.50355 0.47229 0.0
O497 O 0.69244 0.47995 0.49256 0.0
O498 O 0.75614 0.44677 0.53178 0.0
O499 O 0.79079 0.45718 0.49055 0.0
C500 C 0.8143 0.48796 0.569 0.0
O501 O 0.65238 0.49369 0.55489 0.0
O502 O 0.67785 0.45435 0.55848 0.0
C503 C 0.74672 0.54135 0.52734 0.0
C504 C 0.90799 0.48017 0.46074 0.0
C505 C 0.93147 0.43924 0.42369 0.0
C506 C 0.91571 0.43363 0.45091 0.0
C507 C 0.90382 0.45393 0.46925 0.0
C508 C 0.92697 0.4858 0.43444 0.0
C509 C 0.93819 0.46551 0.41599 0.0
C510 C 0.88484 0.50096 0.47687 0.0
C511 C 0.70988 0.49241 0.47051 0.0
H512 H 0.62787 0.43825 0.65753 0.0
H513 H 0.61073 0.43893 0.60714 0.0
H514 H 0.69233 0.50922 0.5987 0.0
H515 H 0.71381 0.50725 0.6471 0.0
H516 H 0.90977 0.41362 0.45734 0.0
H517 H 0.88892 0.44905 0.48949 0.0
H518 H 0.92957 0.50583 0.42731 0.0
H519 H 0.94762 0.47053 0.39473 0.0
Tb520 Tb 0.2191 0.24882 0.53365 0.0
Tb521 Tb 0.12781 0.23238 0.50024 0.0
C522 C 0.15684 0.29009 0.50417 0.0
C523 C 0.29426 0.2611 0.59297 0.0
C524 C 0.2884 0.26242 0.6516 0.0
C525 C 0.3101 0.28295 0.63726 0.0
C526 C 0.31331 0.2822 0.60796 0.0
C527 C 0.27398 0.24021 0.60757 0.0
C528 C 0.27161 0.24074 0.63674 0.0
C529 C 0.28794 0.26297 0.56255 0.0
O530 O 0.16383 0.25323 0.56634 0.0
O531 O 0.10772 0.2287 0.54494 0.0
O532 O 0.17607 0.19981 0.49863 0.0
O533 O 0.20881 0.20712 0.54128 0.0
O534 O 1.06988 0.23971 0.47469 0.0
O535 O 1.07847 0.20241 0.49529 0.0
O536 O 0.17854 0.23907 0.46491 0.0
O537 O 0.24643 0.2399 0.49101 0.0
O538 O 0.19948 0.28133 0.50693 0.0
O539 O 0.12156 0.2743 0.508 0.0
C540 C 0.12319 0.24112 0.56743 0.0
O541 O 0.28654 0.24089 0.5487 0.0
O542 O 0.25416 0.27863 0.55526 0.0
C543 C 0.19863 0.19117 0.52057 0.0
C544 C 1.04137 0.20322 0.45128 0.0
C545 C 1.02843 0.20436 0.3937 0.0
C546 C 0.98997 0.2081 0.41147 0.0
C547 C 0.9966 0.20752 0.44046 0.0
C548 C 1.07679 0.19379 0.43364 0.0
C549 C 1.06981 0.19374 0.40466 0.0
C550 C 1.05371 0.21603 0.47763 0.0
C551 C 0.22509 0.23925 0.46621 0.0
H552 H 0.32265 0.29994 0.64862 0.0
H553 H 0.32828 0.29867 0.59694 0.0
H554 H 0.25812 0.224 0.5964 0.0
H555 H 0.25411 0.22498 0.64761 0.0
H556 H 0.95762 0.21606 0.40328 0.0
H557 H 0.9688 0.21414 0.45405 0.0
H558 H 0.11153 0.1901 0.44179 0.0
H559 H 1.09973 0.19052 0.39112 0.0
Tb560 Tb 0.73276 0.24692 0.41881 0.0
Tb561 Tb 0.82855 0.23957 0.45407 0.0
C562 C 0.78202 0.29406 0.44729 0.0
C563 C 0.65136 0.2473 0.36054 0.0
C564 C 0.65797 0.24001 0.30229 0.0
C565 C 0.64077 0.26364 0.31315 0.0
C566 C 0.6372 0.26722 0.34219 0.0
C567 C 0.66568 0.22304 0.34944 0.0
C568 C 0.66868 0.21941 0.32046 0.0
C569 C 0.65967 0.2536 0.39028 0.0
O570 O 0.78432 0.24211 0.38402 0.0
O571 O 0.85084 0.24699 0.41027 0.0
O572 O 0.81208 0.19929 0.44311 0.0
O573 O 0.74832 0.20566 0.41401 0.0
O574 O 0.89778 0.25277 0.45505 0.0
O575 O 0.8728 0.22592 0.4863 0.0
O576 O 0.7761 0.23642 0.4877 0.0
O577 O 0.70824 0.24586 0.46376 0.0
O578 O 0.76324 0.2855 0.42401 0.0
O579 O 0.80084 0.27777 0.46501 0.0
C580 C 0.83016 0.24509 0.38552 0.0
O581 O 0.66576 0.23394 0.40727 0.0
O582 O 0.69086 0.27166 0.39434 0.0
C583 C 0.77921 0.19049 0.42623 0.0
C584 C 0.91265 0.26348 0.50226 0.0
C585 C 0.88445 0.29995 0.54273 0.0
C586 C 0.89561 0.27428 0.55071 0.0
C587 C 0.90994 0.25611 0.53056 0.0
C588 C 0.90931 0.29028 0.49541 0.0
C589 C 0.89478 0.30842 0.51559 0.0
C590 C 0.90407 0.24359 0.48027 0.0
C591 C 0.7305 0.24056 0.48764 0.0
H592 H 0.63283 0.27979 0.29926 0.0
H593 H 0.62644 0.28611 0.35034 0.0
H594 H 0.67734 0.20742 0.36308 0.0
H595 H 0.68259 0.20118 0.31229 0.0
H596 H 0.88809 0.26758 0.57182 0.0
H597 H 0.91297 0.23575 0.5365 0.0
H598 H 0.91217 0.29682 0.47385 0.0
H599 H 0.88664 0.32823 0.50922 0.0
Tb600 Tb 0.21655 0.48672 0.4213 0.0
Tb601 Tb 0.12046 0.49408 0.45474 0.0
C602 C 0.16592 0.43787 0.44899 0.0
C603 C 0.28205 0.48535 0.35759 0.0
C604 C 0.25927 0.48402 0.29994 0.0
C605 C 0.29204 0.46628 0.31118 0.0
C606 C 0.30248 0.46659 0.33991 0.0
C607 C 0.25198 0.50415 0.34609 0.0
C608 C 0.24028 0.5033 0.31779 0.0
C609 C 0.28462 0.48262 0.38826 0.0
O610 O 0.16212 0.49618 0.38887 0.0
O611 O 0.10144 0.47916 0.41278 0.0
O612 O 0.14057 0.53322 0.44033 0.0
O613 O 0.21872 0.52519 0.43982 0.0
O614 O 1.04737 0.49678 0.45112 0.0
O615 O 1.0809 0.50184 0.49113 0.0
O616 O 0.17403 0.49507 0.48866 0.0
O617 O 0.24193 0.48352 0.46542 0.0
O618 O 0.19538 0.44696 0.43035 0.0
O619 O 0.13589 0.45299 0.46211 0.0
C620 C 0.11868 0.48754 0.38885 0.0
O621 O 0.2757 0.5037 0.40274 0.0
O622 O 0.26211 0.4626 0.3981 0.0
C623 C 0.18385 0.54161 0.44047 0.0
C624 C 1.01595 0.47449 0.4898 0.0
C625 C 0.99543 0.42934 0.52061 0.0
C626 C 0.98436 0.45419 0.53151 0.0
C627 C 0.99474 0.47669 0.51622 0.0
C628 C 1.02133 0.44959 0.47748 0.0
C629 C 1.01084 0.42715 0.49278 0.0
C630 C 1.04185 0.49677 0.47825 0.0
C631 C 0.21922 0.48909 0.48906 0.0
H632 H 0.30854 0.45158 0.29809 0.0
H633 H 0.32526 0.45167 0.34846 0.0
H634 H 0.23492 0.51859 0.35928 0.0
H635 H 0.21409 0.51697 0.31055 0.0
H636 H 0.97337 0.45632 0.55318 0.0
H637 H 0.99053 0.49566 0.52613 0.0
H638 H 1.03743 0.44732 0.45701 0.0
H639 H 1.01926 0.40816 0.48398 0.0
Tb640 Tb 0.89563 0.98508 0.70175 0.0
Tb641 Tb 0.9876 0.00348 0.66875 0.0
C642 C 0.97135 0.94546 0.68207 0.0
C643 C 0.82532 0.94294 0.74607 0.0
C644 C 0.83713 0.90679 0.78991 0.0
C645 C 0.80444 0.92732 0.79237 0.0
C646 C 0.79864 0.94527 0.77059 0.0
C647 C 0.8547 0.92107 0.74253 0.0
C648 C 0.8603 0.90307 0.7642 0.0
C649 C 0.82689 0.96468 0.72597 0.0
O650 O 0.94844 0.99024 0.73643 0.0
O651 O 1.01609 -0.00368 0.71093 0.0
O652 O 0.96495 0.03561 0.69555 0.0
O653 O 0.88694 0.02712 0.69782 0.0
O654 O 1.05558 -0.00298 0.6536 0.0
O655 O 1.02005 0.03374 0.64662 0.0
O656 O 0.93313 0.00643 0.63613 0.0
O657 O 0.87393 0.98348 0.65656 0.0
O658 O 0.94524 0.95327 0.70291 0.0
O659 O 0.9817 0.96142 0.66157 0.0
C660 C 0.99471 -0.0069 0.73532 0.0
O661 O 0.84696 0.98606 0.73494 0.0
O662 O 0.84035 0.95845 0.70063 0.0
C663 C 0.92201 0.04335 0.70045 0.0
C664 C 1.05667 0.01502 0.60821 0.0
C665 C 1.03585 0.01398 0.5507 0.0
C666 C 1.05866 0.0357 0.56246 0.0
C667 C 1.06949 0.0361 0.59113 0.0
C668 C 1.03584 -0.00712 0.596 0.0
C669 C 1.02635 -0.00782 0.56739 0.0
C670 C 1.05405 0.01842 0.63873 0.0
C671 C 0.89205 -0.00499 0.63423 0.0
H672 H 0.7864 0.93096 0.81201 0.0
H673 H 0.77572 0.96192 0.77365 0.0
H674 H 0.87559 0.91868 0.72371 0.0
H675 H 0.8854 0.88736 0.76163 0.0
H676 H 1.06594 0.05275 0.54978 0.0
H677 H 1.08453 0.05357 0.60031 0.0
H678 H 1.02424 0.9767 0.60881 0.0
H679 H 1.00809 0.97543 0.55876 0.0
Tb680 Tb 0.57468 0.24181 0.70041 0.0
Tb681 Tb 0.47511 0.23611 0.67027 0.0
C682 C 0.51471 0.28995 0.68323 0.0
C683 C 0.64944 0.28075 0.74206 0.0
C684 C 0.62159 0.31932 0.78067 0.0
C685 C 0.6493 0.29814 0.7895 0.0
C686 C 0.66295 0.27883 0.77029 0.0
C687 C 0.62754 0.3039 0.73274 0.0
C688 C 0.61313 0.32288 0.75201 0.0
C689 C 0.64765 0.25702 0.72427 0.0
O690 O 0.52519 0.23675 0.73594 0.0
O691 O 0.45474 0.24511 0.71445 0.0
O692 O 0.48935 0.19996 0.69231 0.0
O693 O 0.56912 0.19954 0.69531 0.0
O694 O 0.4093 0.25048 0.65809 0.0
O695 O 0.4303 0.21076 0.64866 0.0
O696 O 0.52436 0.23091 0.63462 0.0
O697 O 0.59382 0.24222 0.6551 0.0
O698 O 0.53618 0.27828 0.70386 0.0
O699 O 0.49715 0.27608 0.66276 0.0
C700 C 0.47964 0.24134 0.73762 0.0
O701 O 0.6222 0.23798 0.73407 0.0
O702 O 0.63905 0.26115 0.69777 0.0
C703 C 0.52875 0.18736 0.69615 0.0
C704 C 0.39744 0.23409 0.61231 0.0
C705 C 0.41424 0.23329 0.55397 0.0
C706 C 0.38317 0.21529 0.56624 0.0
C707 C 0.37565 0.21537 0.59527 0.0
C708 C 0.425 0.25344 0.59988 0.0
C709 C 0.43366 0.25293 0.57117 0.0
C710 C 0.40168 0.22975 0.64258 0.0
C711 C 0.56934 0.23633 0.6324 0.0
H712 H 0.65568 0.29495 0.81169 0.0
H713 H 0.67987 0.26128 0.77795 0.0
H714 H 0.61715 0.30624 0.711 0.0
H715 H 0.59159 0.33898 0.74488 0.0
H716 H 0.3661 0.2004 0.55374 0.0
H717 H 0.3547 0.20006 0.60457 0.0
H718 H 0.44324 0.26774 0.61263 0.0
H719 H 0.45866 0.26684 0.5632 0.0
Tb720 Tb 0.89002 0.24477 0.75559 0.0
Tb721 Tb 0.98585 0.23748 0.78894 0.0
C722 C 0.94909 0.2922 0.77559 0.0
C723 C 0.80979 0.28183 0.71348 0.0
C724 C 0.80065 0.32612 0.67898 0.0
C725 C 0.76077 0.31387 0.69016 0.0
C726 C 0.76545 0.29185 0.70736 0.0
C727 C 0.84946 0.29492 0.70385 0.0
C728 C 0.84504 0.31688 0.68705 0.0
C729 C 0.81591 0.25915 0.73177 0.0
O730 O 0.94295 0.24126 0.72081 0.0
O731 O 1.01059 0.24718 0.74624 0.0
O732 O 0.97345 0.20252 0.76399 0.0
O733 O 0.89403 0.20261 0.76069 0.0
O734 O 1.04979 0.25132 0.80479 0.0
O735 O 1.02961 0.21091 0.80948 0.0
O736 O 0.93373 0.22981 0.82211 0.0
O737 O 0.86817 0.24554 0.80066 0.0
O738 O 0.92893 0.28091 0.7542 0.0
O739 O 0.96485 0.278 0.79634 0.0
C740 C 0.98902 0.24483 0.7217 0.0
O741 O 0.84255 0.24038 0.72208 0.0
O742 O 0.82696 0.26546 0.75742 0.0
C743 C 0.93405 0.19013 0.75959 0.0
C744 C 1.06136 0.23092 0.84881 0.0
C745 C 1.04255 0.22788 0.90659 0.0
C746 C 1.06369 0.20672 0.89249 0.0
C747 C 1.07331 0.20833 0.86381 0.0
C748 C 1.04435 0.25287 0.86338 0.0
C749 C 1.0358 0.25149 0.89212 0.0
C750 C 1.05734 0.22942 0.8181 0.0
C751 C 0.88953 0.237 0.82351 0.0
H752 H 0.72611 0.3204 0.68431 0.0
H753 H 0.73466 0.28224 0.71522 0.0
H754 H 0.88407 0.28765 0.70855 0.0
H755 H 0.87675 0.32519 0.67856 0.0
H756 H 1.06951 0.18825 0.90297 0.0
H757 H 1.08645 0.19119 0.85291 0.0
H758 H 1.03509 0.27065 0.8524 0.0
H759 H 1.02127 0.26847 0.90263 0.0
Tb760 Tb 0.57299 0.98483 0.7565 0.0
Tb761 Tb 0.47501 -0.00165 0.78532 0.0
C762 C 0.51017 0.94051 0.78089 0.0
C763 C 0.66911 0.00025 0.71244 0.0
C764 C 0.70075 0.03869 0.67474 0.0
C765 C 0.73186 0.01968 0.68536 0.0
C766 C 0.71601 0.00053 0.70413 0.0
C767 C 0.63881 0.01977 0.70293 0.0
C768 C 0.6542 0.0386 0.68431 0.0
C769 C 0.65058 0.98083 0.73199 0.0
O770 O 0.52345 -0.00732 0.72094 0.0
O771 O 0.45349 0.98564 0.74285 0.0
O772 O 0.49289 0.03186 0.75928 0.0
O773 O 0.57106 0.02682 0.76292 0.0
O774 O 0.40651 0.98839 0.79692 0.0
O775 O 0.4346 0.02666 0.80596 0.0
O776 O 0.52834 0.00386 0.81914 0.0
O777 O 0.58746 0.97838 0.80177 0.0
O778 O 0.53952 0.94717 0.76105 0.0
O779 O 0.48931 0.95797 0.79681 0.0
C780 C 0.47768 0.98838 0.71947 0.0
O781 O 0.64584 0.98946 0.75757 0.0
O782 O 0.61296 0.96887 0.72349 0.0
C783 C 0.53504 0.04142 0.75704 0.0
C784 C 0.39177 0.00716 0.8414 0.0
C785 C 0.4064 0.00863 0.8995 0.0
C786 C 0.3861 0.03013 0.88589 0.0
C787 C 0.37841 0.0293 0.85693 0.0
C788 C 0.40738 0.98472 0.85555 0.0
C789 C 0.41425 0.9854 0.88448 0.0
C790 C 0.40146 0.00998 0.81134 0.0
C791 C 0.56856 -0.00861 0.823 0.0
H792 H 0.76796 0.01915 0.67865 0.0
H793 H 0.73993 0.98581 0.71177 0.0
H794 H 0.60256 0.02009 0.70935 0.0
H795 H 0.62836 0.05212 0.6763 0.0
H796 H 0.37964 0.04818 0.89726 0.0
H797 H 0.36659 0.04682 0.84634 0.0
H798 H 0.41822 0.9674 0.84408 0.0
H799 H 0.43013 0.96863 0.89457 0.0
Tb800 Tb 0.21401 0.98155 0.54233 0.0
Tb801 Tb 0.31046 -0.00719 0.51179 0.0
C802 C 0.26873 0.9373 0.5122 0.0
C803 C 0.13817 0.96753 0.60057 0.0
C804 C 0.14848 0.9567 0.65792 0.0
C805 C 0.11807 0.94157 0.64149 0.0
C806 C 0.1133 0.94683 0.61276 0.0
C807 C 0.16595 0.98367 0.61758 0.0
C808 C 0.17103 0.97828 0.64603 0.0
C809 C 0.14278 0.96915 0.56996 0.0
O810 O 0.26659 0.97329 0.57562 0.0
O811 O 0.32885 -0.0055 0.55689 0.0
O812 O 0.2714 0.02928 0.5121 0.0
O813 O 0.23174 0.0218 0.55258 0.0
O814 O 0.36613 0.9838 0.48487 0.0
O815 O 0.36906 0.01718 0.51285 0.0
O816 O 0.26037 -0.0082 0.4752 0.0
O817 O 0.19075 -0.00643 0.49967 0.0
O818 O 0.22869 0.94936 0.51417 0.0
O819 O 0.30739 0.95027 0.51683 0.0
C820 C 0.30891 0.9832 0.57851 0.0
O821 O 0.14903 -0.00755 0.5594 0.0
O822 O 0.17234 0.95225 0.55974 0.0
C823 C 0.2485 0.03811 0.53402 0.0
C824 C 0.41073 0.01945 0.47074 0.0
C825 C 0.43542 0.03013 0.41588 0.0
C826 C 0.46849 0.01883 0.43395 0.0
C827 C 0.45546 0.01279 0.46135 0.0
C828 C 0.38284 0.03645 0.45495 0.0
C829 C 0.396 0.04245 0.42755 0.0
C830 C 0.39025 0.00407 0.49314 0.0
C831 C 0.21382 -0.00612 0.47538 0.0
H832 H 1.10033 0.92488 0.65045 0.0
H833 H 1.09218 0.93401 0.59982 0.0
H834 H 0.18602 -0.00051 0.60859 0.0
H835 H 0.19438 0.99026 0.65854 0.0
H836 H 0.49969 0.00981 0.42547 0.0
H837 H 0.47755 -1e-05 0.47368 0.0
H838 H 0.34849 0.04218 0.46231 0.0
H839 H 0.37056 0.05196 0.41414 0.0
Tb840 Tb 0.74333 0.75484 0.53814 0.0
Tb841 Tb 0.64723 0.73615 0.5116 0.0
C842 C 0.67849 0.79425 0.50416 0.0
C843 C 0.81622 0.76489 0.5976 0.0
C844 C 0.79526 0.75887 0.65502 0.0
C845 C 0.80218 0.78393 0.64356 0.0
C846 C 0.81327 0.78686 0.61521 0.0
C847 C 0.81302 0.73984 0.60945 0.0
C848 C 0.804 0.73688 0.63798 0.0
C849 C 0.81251 0.76823 0.56698 0.0
O850 O 0.69659 0.74523 0.57443 0.0
O851 O 0.62706 0.75193 0.55295 0.0
O852 O 0.6783 0.70429 0.53554 0.0
O853 O 0.75337 0.71429 0.52716 0.0
O854 O 0.57455 0.73901 0.50827 0.0
O855 O 0.61128 0.70458 0.49356 0.0
O856 O 0.69717 0.73458 0.47507 0.0
O857 O 0.76274 0.755 0.49309 0.0
O858 O 0.70962 0.79037 0.52397 0.0
O859 O 0.65231 0.77535 0.49409 0.0
C860 C 0.65089 0.74894 0.57626 0.0
O861 O 0.81156 0.74687 0.55202 0.0
O862 O 0.78013 0.78454 0.5591 0.0
C863 C 0.72163 0.69686 0.53232 0.0
C864 C 0.53821 0.71336 0.47357 0.0
C865 C 0.4846 0.70455 0.42522 0.0
C866 C 0.48464 0.68616 0.44707 0.0
C867 C 0.51148 0.69055 0.4711 0.0
C868 C 0.53501 0.73278 0.4532 0.0
C869 C 0.50823 0.72853 0.42931 0.0
C870 C 0.57078 0.71589 0.49687 0.0
C871 C 0.74029 0.74412 0.47165 0.0
H872 H 0.79553 0.80146 0.65571 0.0
H873 H 0.81539 0.80637 0.60653 0.0
H874 H 0.81547 0.7224 0.59653 0.0
H875 H 0.80125 0.71726 0.64621 0.0
H876 H 0.46647 0.66774 0.44478 0.0
H877 H 0.51312 0.67561 0.48716 0.0
H878 H 0.55507 0.75064 0.45503 0.0
H879 H 0.50976 0.74326 0.41308 0.0
Tb880 Tb 0.22955 0.75356 0.4148 0.0
Tb881 Tb 0.32007 0.73406 0.44636 0.0
C882 C 0.28959 0.79172 0.44981 0.0
C883 C 0.15382 0.77986 0.35876 0.0
C884 C 0.14461 0.79304 0.3018 0.0
C885 C 0.12384 0.80879 0.32257 0.0
C886 C 0.12848 0.8022 0.35096 0.0
C887 C 0.17386 0.76392 0.33806 0.0
C888 C 0.16919 0.7704 0.30986 0.0
C889 C 0.16285 0.77455 0.38843 0.0
O890 O 0.28732 0.75591 0.38295 0.0
O891 O 0.33144 0.72353 0.40153 0.0
O892 O 0.28 0.69843 0.44185 0.0
O893 O 0.22663 0.71131 0.40836 0.0
O894 O 0.39277 0.73094 0.44297 0.0
O895 O 0.35773 0.71891 0.48072 0.0
O896 O 0.26914 0.73994 0.48173 0.0
O897 O 0.20112 0.74164 0.45613 0.0
O898 O 0.24741 0.783 0.44584 0.0
O899 O 0.32493 0.77661 0.44362 0.0
C900 C 0.32141 0.7386 0.3799 0.0
O901 O 0.16351 0.75006 0.39595 0.0
O902 O 0.19805 0.78737 0.39883 0.0
C903 C 0.24581 0.69317 0.42425 0.0
C904 C 0.42719 0.74253 0.48608 0.0
C905 C 0.45735 0.77967 0.52554 0.0
C906 C 0.45919 0.75283 0.53189 0.0
C907 C 0.44376 0.73437 0.51231 0.0
C908 C 0.43191 0.7689 0.47834 0.0
C909 C 0.44699 0.78736 0.49796 0.0
C910 C 0.39765 0.72487 0.46934 0.0
C911 C 0.2227 0.73965 0.48071 0.0
H912 H 0.10489 0.82634 0.31689 0.0
H913 H 0.11316 0.8148 0.36685 0.0
H914 H 0.19425 0.74686 0.34371 0.0
H915 H 0.1867 0.75821 0.29443 0.0
H916 H 0.46695 0.7463 0.55304 0.0
H917 H 0.44085 0.7141 0.51855 0.0
H918 H 0.42002 0.7757 0.45802 0.0
H919 H 0.44556 0.8079 0.49254 0.0
Tb920 Tb 0.7254 0.98369 0.42266 0.0
Tb921 Tb 0.63291 0.00074 0.45571 0.0
C922 C 0.65773 0.942 0.45136 0.0
C923 C 0.80433 0.97354 0.36427 0.0
C924 C 0.79901 0.97735 0.30554 0.0
C925 C 0.80859 0.95321 0.31817 0.0
C926 C 0.81153 0.95134 0.34738 0.0
C927 C 0.79742 -0.00202 0.35146 0.0
C928 C 0.79521 -0.00012 0.32225 0.0
C929 C 0.79556 0.97015 0.39447 0.0
O930 O 0.67271 0.9823 0.38806 0.0
O931 O 0.60844 -0.00228 0.41161 0.0
O932 O 0.68454 0.03172 0.45701 0.0
O933 O 0.71593 0.02512 0.4143 0.0
O934 O 0.58441 0.00301 0.48895 0.0
O935 O 0.58026 0.02912 0.4534 0.0
O936 O 0.68147 -0.00912 0.49043 0.0
O937 O 0.75136 -0.0092 0.46658 0.0
O938 O 0.70034 0.94953 0.44513 0.0
O939 O 0.62286 0.95872 0.4525 0.0
C940 C 0.62829 0.98952 0.38807 0.0
O941 O 0.79432 -0.00869 0.40992 0.0
O942 O 0.76085 0.95459 0.40004 0.0
C943 C 0.70686 0.04076 0.4353 0.0
C944 C 0.57336 0.04781 0.49832 0.0
C945 C 0.60706 0.08113 0.54063 0.0
C946 C 0.56919 0.06441 0.546 0.0
C947 C 0.55263 0.04766 0.52497 0.0
C948 C 0.60689 0.06706 0.49207 0.0
C949 C 0.624 0.0834 0.51318 0.0
C950 C 0.56789 0.02513 0.47942 0.0
C951 C 0.72779 0.99056 0.49069 0.0
H952 H 0.81144 0.93562 0.30551 0.0
H953 H 0.81654 0.93231 0.35684 0.0
H954 H 0.79124 0.01541 0.36394 0.0
H955 H 0.78735 0.01863 0.31283 0.0
H956 H 0.55605 0.06213 0.56721 0.0
H957 H 0.52677 0.03305 0.53022 0.0
H958 H 0.62312 0.06799 0.47155 0.0
H959 H 0.65343 0.09598 0.50868 0.0
Tb960 Tb 0.87129 0.48831 0.20709 0.0
Tb961 Tb 0.96215 0.50232 0.17082 0.0
C962 C 0.93879 0.44516 0.18414 0.0
C963 C 0.80181 0.44532 0.25019 0.0
C964 C 0.81877 0.40743 0.29145 0.0
C965 C 0.78513 0.42718 0.29594 0.0
C966 C 0.77686 0.44609 0.27543 0.0
C967 C 0.83116 0.42384 0.24441 0.0
C968 C 0.83954 0.40502 0.26489 0.0
C969 C 0.80283 0.46841 0.23194 0.0
O970 O 0.92621 0.49385 0.24046 0.0
O971 O 0.99217 0.49423 0.21276 0.0
O972 O 0.94291 0.53693 0.19531 0.0
O973 O 0.86512 0.53034 0.2033 0.0
O974 O 1.03011 0.49431 0.15673 0.0
O975 O 0.99556 0.53073 0.14657 0.0
O976 O 0.90795 0.50274 0.13748 0.0
O977 O 0.84379 0.49127 0.16336 0.0
O978 O 0.91683 0.45457 0.20595 0.0
O979 O 0.95102 0.4606 0.1636 0.0
C980 C 0.9726 0.49377 0.23799 0.0
O981 O 0.82559 0.48861 0.2418 0.0
O982 O 0.81334 0.46358 0.20577 0.0
C983 C 0.90137 0.54582 0.20217 0.0
C984 C 1.03617 0.51033 0.11068 0.0
C985 C 1.02757 0.50645 1.05235 0.0
C986 C 1.04947 0.52828 1.06434 0.0
C987 C 1.0536 0.53026 1.09352 0.0
C988 C 1.01648 0.48789 1.0984 0.0
C989 C 1.01236 0.48595 1.06936 0.0
C990 C 1.03014 0.51501 0.14075 0.0
C991 C 0.86302 0.49727 0.13893 0.0
H992 H 0.76884 0.42971 0.31633 0.0
H993 H 0.75385 0.46237 0.28015 0.0
H994 H 0.85038 0.42253 0.22486 0.0
H995 H 0.86541 0.38997 0.26088 0.0
H996 H 1.06078 0.54437 1.05129 0.0
H997 H 1.0681 0.54787 0.10273 0.0
H998 H 1.00187 0.47252 0.11126 0.0
H999 H 0.99475 0.4692 1.06027 0.0
Tb1000 Tb 0.56753 0.7432 0.19314 0.0
Tb1001 Tb 0.47284 0.72753 0.16393 0.0
C1002 C 0.49762 0.78537 0.17571 0.0
C1003 C 0.65193 0.74253 0.24698 0.0
C1004 C 0.60153 0.72858 0.29448 0.0
C1005 C 0.62272 0.75336 0.29311 0.0
C1006 C 0.64834 0.76029 0.26939 0.0
C1007 C 0.6421 0.71602 0.25202 0.0
C1008 C 0.61544 0.70921 0.27525 0.0
C1009 C 0.64223 0.75248 0.21862 0.0
O1010 O 0.51417 0.74762 0.22759 0.0
O1011 O 0.45304 0.72405 0.20912 0.0
O1012 O 0.51464 0.69196 0.16722 0.0
O1013 O 0.55161 0.70373 0.2073 0.0
O1014 O 0.413 0.73998 0.14253 0.0
O1015 O 0.42541 0.69906 0.14943 0.0
O1016 O 0.51989 0.73893 0.12856 0.0
O1017 O 0.58995 0.73244 0.14996 0.0
O1018 O 0.54141 0.77844 0.17297 0.0
O1019 O 0.46566 0.76746 0.17909 0.0
C1020 C 0.47256 0.73636 0.23074 0.0
O1021 O 0.63863 0.73473 0.19896 0.0
O1022 O 0.60753 0.76908 0.21754 0.0
C1023 C 0.53631 0.68542 0.1904 0.0
C1024 C 0.39961 0.7119 0.10415 0.0
C1025 C 0.41939 0.70624 1.04656 0.0
C1026 C 0.41798 0.68415 1.06397 0.0
C1027 C 0.40791 0.68695 1.0926 0.0
C1028 C 0.39659 0.73346 1.08598 0.0
C1029 C 0.40582 0.73059 1.05748 0.0
C1030 C 0.40215 0.7163 0.13488 0.0
C1031 C 0.56577 0.73587 0.1267 0.0
H1032 H 0.61537 0.76823 0.30878 0.0
H1033 H 0.65765 0.78062 0.26652 0.0
H1034 H 0.647 0.70141 0.23572 0.0
H1035 H 0.60147 0.6896 0.27607 0.0
H1036 H 0.42803 0.6651 1.05597 0.0
H1037 H 0.41007 0.66991 0.10599 0.0
H1038 H 0.39066 0.75303 1.09395 0.0
H1039 H 0.40547 0.74783 1.04431 0.0
Tb1040 Tb 0.88545 0.74985 0.26043 0.0
Tb1041 Tb 0.98708 0.73815 0.28372 0.0
C1042 C 0.954 0.79431 0.2754 0.0
C1043 C 0.77081 0.7551 0.22355 0.0
C1044 C 0.74543 0.74191 0.16918 0.0
C1045 C 0.74468 0.76828 0.17754 0.0
C1046 C 0.75794 0.77488 0.20479 0.0
C1047 C 0.75996 0.72899 0.21707 0.0
C1048 C 0.74597 0.72247 0.18992 0.0
C1049 C 0.80275 0.7615 0.24662 0.0
O1050 O 0.93091 0.75171 0.22157 0.0
O1051 O 1.0002 0.7344 0.23806 0.0
O1052 O 0.95395 0.70037 0.27797 0.0
O1053 O 0.89754 0.71012 0.24556 0.0
O1054 O 1.05302 0.75183 0.29621 0.0
O1055 O 1.03522 0.71127 0.30043 0.0
O1056 O 0.94383 0.74786 0.32174 0.0
O1057 O 0.8736 0.7362 0.30381 0.0
O1058 O 0.91231 0.78516 0.28052 0.0
O1059 O 0.98755 0.77813 0.269 0.0
C1060 C 0.97454 0.74316 0.2169 0.0
O1061 O 0.81387 0.74235 0.2633 0.0
O1062 O 0.8393 0.7753 0.23976 0.0
C1063 C 0.92482 0.69316 0.25812 0.0
C1064 C 1.06975 0.73137 0.33919 0.0
C1065 C 1.05456 0.72878 0.39725 0.0
C1066 C 1.07481 0.7075 0.38304 0.0
C1067 C 1.08292 0.70891 0.35411 0.0
C1068 C 1.05263 0.75323 0.35398 0.0
C1069 C 1.04579 0.75206 0.38281 0.0
C1070 C 1.063 0.72989 0.30863 0.0
C1071 C 0.89925 0.74204 0.32584 0.0
H1072 H 0.7426 0.78376 0.16212 0.0
H1073 H 0.76414 0.79524 0.20992 0.0
H1074 H 0.76742 0.71334 0.23169 0.0
H1075 H 0.74459 0.702 0.18402 0.0
H1076 H 1.08169 0.68935 0.39397 0.0
H1077 H 1.09561 0.69174 0.34307 0.0
H1078 H 1.04141 0.77072 0.34312 0.0
H1079 H 1.02975 0.76861 0.39335 0.0
Tb1080 Tb 0.55745 0.48369 0.26154 0.0
Tb1081 Tb 0.46114 0.50433 0.28533 0.0
C1082 C 0.47776 0.44578 0.27672 0.0
C1083 C 0.66911 0.46482 0.2247 0.0
C1084 C 0.70054 0.46984 0.16998 0.0
C1085 C 0.68852 0.44501 0.18006 0.0
C1086 C 0.67222 0.44258 0.20747 0.0
C1087 C 0.69257 0.48771 0.21674 0.0
C1088 C 0.70962 0.48993 0.18944 0.0
C1089 C 0.63633 0.46485 0.2484 0.0
O1090 O 0.51147 0.48342 0.22314 0.0
O1091 O 0.44544 0.50478 0.23956 0.0
O1092 O 0.50753 0.53778 0.28038 0.0
O1093 O 0.55148 0.52288 0.24389 0.0
O1094 O 0.39652 0.49689 0.30432 0.0
O1095 O 0.41953 0.53637 0.2979 0.0
O1096 O 0.50214 0.4916 0.32289 0.0
O1097 O 0.57352 0.49837 0.30419 0.0
O1098 O 0.52148 0.45133 0.28194 0.0
O1099 O 0.44853 0.46468 0.27131 0.0
C1100 C 0.46901 0.49362 0.21862 0.0
O1101 O 0.63031 0.48702 0.26154 0.0
O1102 O 0.59664 0.45296 0.2441 0.0
C1103 C 0.53348 0.54237 0.25826 0.0
C1104 C 0.39386 0.52519 0.34341 0.0
C1105 C 0.42538 0.53012 0.39933 0.0
C1106 C 0.42002 0.55242 0.38245 0.0
C1107 C 0.40398 0.54999 0.35473 0.0
C1108 C 0.39614 0.50331 0.36115 0.0
C1109 C 0.41136 0.50576 0.38871 0.0
C1110 C 0.3926 0.5211 0.3126 0.0
C1111 C 0.54751 0.49487 0.32657 0.0
H1112 H 0.6831 0.42881 0.16568 0.0
H1113 H 0.65662 0.42426 0.21386 0.0
H1114 H 0.69319 0.50477 0.23028 0.0
H1115 H 0.72099 0.50894 0.18224 0.0
H1116 H 0.43001 0.57151 0.39029 0.0
H1117 H 0.40288 0.56721 0.34157 0.0
H1118 H 0.39017 0.48378 0.35322 0.0
H1119 H 0.41566 0.4881 0.40094 0.0
Tb1120 Tb 0.22373 0.48609 1.03126 0.0
Tb1121 Tb 0.32426 0.49415 1.00265 0.0
C1122 C 0.2769 0.43903 1.00524 0.0
C1123 C 0.1421 0.48606 1.08784 0.0
C1124 C 0.14983 0.49328 0.14623 0.0
C1125 C 0.12829 0.47074 0.13527 0.0
C1126 C 0.12466 0.46711 0.10622 0.0
C1127 C 0.16102 0.50925 1.09882 0.0
C1128 C 0.16466 0.51286 0.1277 0.0
C1129 C 0.14972 0.47946 1.05821 0.0
O1130 O 0.27465 0.48038 1.06632 0.0
O1131 O 0.33919 0.50027 1.04806 0.0
O1132 O 0.29421 0.53354 1.00493 0.0
O1133 O 0.24324 0.5257 1.04091 0.0
O1134 O 0.39715 0.49218 1.00717 0.0
O1135 O 0.3665 0.50312 0.96773 0.0
O1136 O 0.2755 0.48692 0.96663 0.0
O1137 O 0.20489 0.49618 0.98724 0.0
O1138 O 0.23677 0.45085 1.00784 0.0
O1139 O 0.31618 0.45191 1.00791 0.0
C1140 C 0.31707 0.49024 1.06984 0.0
O1141 O 0.15614 0.49914 1.04122 0.0
O1142 O 0.18072 0.46107 1.0544 0.0
C1143 C 0.26419 0.54186 1.02392 0.0
C1144 C 0.42861 0.47316 0.96625 0.0
C1145 C 0.44897 0.4296 0.93237 0.0
C1146 C 0.4578 0.455 0.92251 0.0
C1147 C 0.44739 0.4767 0.93935 0.0
C1148 C 0.42613 0.44773 0.97738 0.0
C1149 C 0.43631 0.42609 0.96051 0.0
C1150 C 0.40413 0.49493 0.98034 0.0
C1151 C 0.23003 0.49186 0.9643 0.0
H1152 H 0.11594 0.45547 0.14908 0.0
H1153 H 0.11046 0.44897 1.09812 0.0
H1154 H 0.17562 0.524 1.08515 0.0
H1155 H 0.18219 0.53022 0.13534 0.0
H1156 H 0.46726 0.45815 0.90073 0.0
H1157 H 0.44998 0.49611 0.93046 0.0
H1158 H 0.41237 0.44437 0.99826 0.0
H1159 H 0.42957 0.40668 0.9685 0.0
Tb1160 Tb 0.71754 0.24419 1.03311 0.0
Tb1161 Tb 0.623 0.23719 0.99828 0.0
C1162 C 0.67233 0.29145 1.0026 0.0
C1163 C 0.79269 0.24596 1.09458 0.0
C1164 C 0.78185 0.24193 0.15311 0.0
C1165 C 0.8005 0.26475 0.14125 0.0
C1166 C 0.80578 0.26674 0.11218 0.0
C1167 C 0.77748 0.22242 0.10657 0.0
C1168 C 0.77239 0.22039 0.13562 0.0
C1169 C 0.78735 0.25066 1.06431 0.0
O1170 O 0.65966 0.25133 1.06416 0.0
O1171 O 0.60335 0.22782 1.04182 0.0
O1172 O 0.65284 0.19777 1.00071 0.0
O1173 O 0.6966 0.20415 1.04045 0.0
O1174 O 0.5514 0.2461 0.99735 0.0
O1175 O 0.58319 0.22392 0.96391 0.0
O1176 O 0.67594 0.24441 0.96526 0.0
O1177 O 0.7431 0.2349 0.98961 0.0
O1178 O 0.71121 0.2792 1.0082 0.0
O1179 O 0.63227 0.27934 1.00467 0.0
C1180 C 0.61845 0.23954 1.06481 0.0
O1181 O 0.78185 0.23016 1.04817 0.0
O1182 O 0.75766 0.26917 1.05828 0.0
C1183 C 0.6776 0.18861 1.0218 0.0
C1184 C 0.53157 0.25757 0.95171 0.0
C1185 C 0.50656 0.29583 0.91185 0.0
C1186 C 0.47291 0.2782 0.92222 0.0
C1187 C 0.48545 0.25911 0.94198 0.0
C1188 C 0.56422 0.27602 0.94282 0.0
C1189 C 0.55209 0.29477 0.92314 0.0
C1190 C 0.54684 0.23757 0.9717 0.0
C1191 C 0.72137 0.23936 0.96536 0.0
H1192 H 0.80797 0.28171 0.15418 0.0
H1193 H 0.81744 0.28507 0.10332 0.0
H1194 H 0.76705 0.20606 1.0935 0.0
H1195 H 0.75883 0.20239 0.14428 0.0
H1196 H 0.43741 0.27851 0.91438 0.0
H1197 H 0.45958 0.2453 0.94915 0.0
H1198 H 0.59987 0.2754 0.95039 0.0
H1199 H 0.57982 0.30721 0.9156 0.0
Tb1200 Tb 0.22539 0.25369 0.91769 0.0
Tb1201 Tb 0.31874 0.23432 0.9493 0.0
C1202 C 0.29185 0.29211 0.94905 0.0
C1203 C 0.15334 0.27025 0.85908 0.0
C1204 C 0.1671 0.27138 0.80069 0.0
C1205 C 0.14928 0.29346 0.8148 0.0
C1206 C 0.14231 0.29286 0.84388 0.0
C1207 C 0.16807 0.2477 0.84469 0.0
C1208 C 0.17392 0.24811 0.81572 0.0
C1209 C 0.15858 0.27161 0.88968 0.0
O1210 O 0.27954 0.25713 0.88495 0.0
O1211 O 0.34076 0.23466 0.9044 0.0
O1212 O 0.2725 0.20102 0.94598 0.0
O1213 O 0.23059 0.2124 0.90712 0.0
O1214 O 0.36648 0.23597 0.98293 0.0
O1215 O 0.37561 0.20842 0.94894 0.0
O1216 O 0.26605 0.23904 0.98412 0.0
O1217 O 0.19773 0.24211 0.95875 0.0
O1218 O 0.24886 0.28379 0.94661 0.0
O1219 O 0.32687 0.27625 0.94431 0.0
C1220 C 0.32135 0.24644 0.88261 0.0
O1221 O 0.15662 0.2494 0.90306 0.0
O1222 O 0.19396 0.28571 0.89782 0.0
C1223 C 0.24528 0.19471 0.9249 0.0
C1224 C 0.38601 0.19276 0.99505 0.0
C1225 C 0.351 0.15978 1.03692 0.0
C1226 C 0.34605 0.15286 1.00858 0.0
C1227 C 0.36428 0.16901 0.98776 0.0
C1228 C 0.3965 0.19772 1.02336 0.0
C1229 C 0.37933 0.1812 1.0442 0.0
C1230 C 0.38711 0.21446 0.97468 0.0
C1231 C 0.21954 0.23962 0.98307 0.0
H1232 H 0.14381 0.31171 0.80381 0.0
H1233 H 0.1315 0.31053 0.85472 0.0
H1234 H 0.17714 0.23002 0.85591 0.0
H1235 H 0.18624 0.23053 0.80532 0.0
H1236 H 0.32454 0.13638 1.00256 0.0
H1237 H 0.35732 0.16416 0.96602 0.0
H1238 H 0.41365 0.21572 1.02951 0.0
H1239 H 0.38347 0.18698 1.06601 0.0
Tb1240 Tb 0.73085 0.47777 0.9181 0.0
Tb1241 Tb 0.6361 0.49946 0.94505 0.0
C1242 C 0.66152 0.44015 0.95059 0.0
C1243 C 0.81149 0.46986 0.86252 0.0
C1244 C 0.80219 0.47912 0.80475 0.0
C1245 C 0.82466 0.4563 0.81434 0.0
C1246 C 0.82888 0.45158 0.84317 0.0
C1247 C 0.79332 0.4937 0.85293 0.0
C1248 C 0.78869 0.49828 0.82436 0.0
C1249 C 0.80107 0.46212 0.89133 0.0
O1250 O 0.68706 0.48935 0.88164 0.0
O1251 O 0.61614 0.48559 0.90245 0.0
O1252 O 0.66604 0.53164 0.92144 0.0
O1253 O 0.742 0.5193 0.92446 0.0
O1254 O 0.56332 0.49649 0.94804 0.0
O1255 O 0.59967 0.52977 0.96522 0.0
O1256 O 0.68795 0.50172 0.98104 0.0
O1257 O 0.74748 0.47629 0.9631 0.0
O1258 O 0.69211 0.44321 0.93035 0.0
O1259 O 0.63943 0.46005 0.96192 0.0
C1260 C 0.64128 0.48728 0.87935 0.0
O1261 O 0.80288 0.48074 0.91008 0.0
O1262 O 0.76268 0.44874 0.89339 0.0
C1263 C 0.71044 0.53749 0.92091 0.0
C1264 C 0.53494 0.51474 0.99021 0.0
C1265 C 0.52795 0.50709 1.04773 0.0
C1266 C 0.52876 0.53264 1.03709 0.0
C1267 C 0.53205 0.53645 1.00821 0.0
C1268 C 0.52405 0.48982 1.00057 0.0
C1269 C 0.51913 0.48616 1.02934 0.0
C1270 C 0.55986 0.51749 0.9635 0.0
C1271 C 0.72911 0.48966 0.98423 0.0
H1272 H 0.8363 0.44142 0.79966 0.0
H1273 H 0.84263 0.433 0.85027 0.0
H1274 H 0.77916 0.508 0.8675 0.0
H1275 H 0.77081 0.51594 0.8179 0.0
H1276 H 0.53442 0.54925 1.05087 0.0
H1277 H 0.53905 0.55594 1.00043 0.0
H1278 H 0.52487 0.47272 0.98708 0.0
H1279 H 0.5166 0.46638 1.03725 0.0
H1280 H 0.54366 0.82735 0.15406 0.0
H1281 H 0.42154 0.8061 0.20175 0.0
H1282 H 0.39974 0.85207 0.20639 0.0
H1283 H 0.41552 0.89857 0.19721 0.0
H1284 H 0.53477 0.91971 0.14693 0.0
H1285 H 0.55743 0.87377 0.14299 0.0
C1286 C 0.5123 0.83283 0.16545 0.0
C1287 C 0.48438 0.81334 0.17759 0.0
C1288 C 0.49941 0.85935 0.16759 0.0
C1289 C 0.44356 0.8207 0.19206 0.0
C1290 C 0.43111 0.84702 0.19482 0.0
C1291 C 0.44645 0.89307 0.18541 0.0
C1292 C 0.47347 0.91251 0.17248 0.0
C1293 C 0.45878 0.86653 0.18272 0.0
C1294 C 0.51321 0.90511 0.15698 0.0
C1295 C 0.5263 0.87883 0.15478 0.0
H1296 H 0.94795 0.40912 0.14114 0.0
H1297 H 0.96444 0.41931 0.23075 0.0
H1298 H 0.98627 0.37365 0.23571 0.0
H1299 H 0.999 0.33065 0.21537 0.0
H1300 H 0.97884 0.31808 0.12648 0.0
H1301 H 0.95981 0.36457 0.12049 0.0
C1302 C 0.95679 0.40129 0.16162 0.0
C1303 C 0.95476 0.41763 0.18551 0.0
C1304 C 0.96827 0.37452 0.16453 0.0
C1305 C 0.96561 0.40717 0.21203 0.0
C1306 C 0.9781 0.38102 0.21493 0.0
C1307 C 0.9906 0.338 0.19461 0.0
C1308 C 0.99059 0.32089 0.1714 0.0
C1309 C 0.97919 0.36449 0.19143 0.0
C1310 C 0.97904 0.33081 0.14473 0.0
C1311 C 0.9683 0.35742 0.14129 0.0
H1312 H 0.52166 0.40264 0.29764 0.0
H1313 H 0.39756 0.42706 0.25335 0.0
H1314 H 0.37275 0.38163 0.24882 0.0
H1315 H 0.38749 0.33466 0.25599 0.0
H1316 H 0.5097 0.31043 0.30227 0.0
H1317 H 0.53379 0.3559 0.30751 0.0
C1318 C 0.48911 0.39802 0.28708 0.0
C1319 C 0.46174 0.41824 0.27568 0.0
C1320 C 0.47468 0.37181 0.28484 0.0
C1321 C 0.41937 0.41191 0.26234 0.0
C1322 C 0.40517 0.3859 0.25965 0.0
C1323 C 0.41931 0.33935 0.26729 0.0
C1324 C 0.44682 0.31912 0.27856 0.0
C1325 C 0.43274 0.36565 0.27058 0.0
C1326 C 0.48771 0.32558 0.29343 0.0
C1327 C 0.50167 0.35161 0.29637 0.0
H1328 H 1.02836 0.82075 0.25411 0.0
H1329 H 0.9007 0.83178 0.30091 0.0
H1330 H 0.91554 0.87873 0.30376 0.0
H1331 H 0.96367 0.91681 0.29204 0.0
H1332 H 1.08818 0.90629 0.24224 0.0
H1333 H 1.07574 0.85905 0.24151 0.0
C1334 C 1.00383 0.83341 0.265 0.0
C1335 C 0.96344 0.82274 0.27729 0.0
C1336 C 1.01205 0.8605 0.26602 0.0
C1337 C 0.93192 0.83947 0.29116 0.0
C1338 C 0.94042 0.86633 0.29285 0.0
C1339 C 0.9883 0.90417 0.28119 0.0
C1340 C 1.02708 0.9151 0.26741 0.0
C1341 C 0.98022 0.87708 0.28023 0.0
C1342 C 1.05818 0.89844 0.25308 0.0
C1343 C 1.05107 0.8714 0.25266 0.0
H1344 H 0.72135 0.07208 1.05633 0.0
H1345 H 0.78732 0.07248 0.97476 0.0
H1346 H 0.76105 0.11731 0.96719 0.0
H1347 H 0.71945 0.15684 0.98373 0.0
H1348 H 0.65945 0.15785 1.0667 0.0
H1349 H 0.68239 0.1121 1.0736 0.0
C1350 C 0.73022 0.08201 1.03696 0.0
C1351 C 0.75645 0.06883 1.0162 0.0
C1352 C 0.71539 0.10801 1.03282 0.0
C1353 C 0.76765 0.08212 0.99126 0.0
C1354 C 0.75229 0.10776 0.98678 0.0
C1355 C 0.71077 0.14679 1.00307 0.0
C1356 C 0.6868 0.16032 1.02442 0.0
C1357 C 0.72594 0.12087 1.00733 0.0
C1358 C 0.67714 0.14755 1.04982 0.0
C1359 C 0.69055 0.1215 1.05382 0.0
H1360 H 0.16573 0.65181 1.0356 0.0
H1361 H 0.30009 0.67841 1.00671 0.0
H1362 H 0.32805 0.63329 1.00399 0.0
H1363 H 0.31392 0.58574 1.00946 0.0
H1364 H 0.18064 0.56022 1.04144 0.0
H1365 H 0.15298 0.60511 1.04326 0.0
C1366 C 0.20107 0.64771 1.02866 0.0
C1367 C 0.23056 0.6684 1.02119 0.0
C1368 C 0.21728 0.62178 1.02769 0.0
C1369 C 0.27658 0.66281 1.01262 0.0
C1370 C 0.29263 0.63699 1.01098 0.0
C1371 C 0.27891 0.5901 1.01682 0.0
C1372 C 0.24952 0.56963 1.02528 0.0
C1373 C 0.26324 0.61624 1.01839 0.0
C1374 C 0.20427 0.57558 1.035 0.0
C1375 C 0.18821 0.60129 1.03597 0.0
H1376 H 0.80488 0.64901 0.91659 0.0
H1377 H 0.66029 0.67309 0.91557 0.0
H1378 H 0.63567 0.62751 0.91437 0.0
H1379 H 0.65485 0.58073 0.91627 0.0
H1380 H 0.79919 0.55653 0.91835 0.0
H1381 H 0.82413 0.60207 0.91624 0.0
C1382 C 0.76795 0.64432 0.91583 0.0
C1383 C 0.73453 0.66455 0.91633 0.0
C1384 C 0.75395 0.61796 0.91545 0.0
C1385 C 0.68685 0.65801 0.91537 0.0
C1386 C 0.67271 0.63189 0.9147 0.0
C1387 C 0.69182 0.58537 0.91603 0.0
C1388 C 0.72513 0.56514 0.91754 0.0
C1389 C 0.70588 0.61169 0.91516 0.0
C1390 C 0.77282 0.57163 0.91721 0.0
C1391 C 0.78708 0.59773 0.91607 0.0
H1392 H 0.28626 0.1529 0.94827 0.0
H1393 H 0.1686 0.17466 0.89695 0.0
H1394 H 0.14159 0.12907 0.89696 0.0
H1395 H 0.15198 0.08271 0.9123 0.0
H1396 H 0.27314 0.06253 0.96181 0.0
H1397 H 0.2982 0.10787 0.96188 0.0
C1398 C 0.25483 0.14777 0.93698 0.0
C1399 C 0.2296 0.16717 0.92269 0.0
C1400 C 0.24 0.12176 0.93695 0.0
C1401 C 0.18893 0.16005 0.90799 0.0
C1402 C 0.17336 0.13402 0.90814 0.0
C1403 C 0.18361 0.0884 0.92324 0.0
C1404 C 0.21055 0.06932 0.93717 0.0
C1405 C 0.19856 0.11467 0.92272 0.0
C1406 C 0.25185 0.07681 0.95091 0.0
C1407 C 0.26623 0.10275 0.951 0.0
H1408 H 0.50208 0.3254 0.64089 0.0
H1409 H 0.50494 0.3179 0.73124 0.0
H1410 H 0.48692 0.36419 0.73658 0.0
H1411 H 0.46904 0.40667 0.71589 0.0
H1412 H 0.47129 0.41595 0.62583 0.0
H1413 H 0.48888 0.36926 0.62001 0.0
C1414 C 0.4987 0.33399 0.66168 0.0
C1415 C 0.50459 0.31823 0.68561 0.0
C1416 C 0.48932 0.36093 0.66466 0.0
C1417 C 0.50071 0.32961 0.71247 0.0
C1418 C 0.4903 0.35609 0.71557 0.0
C1419 C 0.47344 0.3985 0.69497 0.0
C1420 C 0.46843 0.41464 0.67131 0.0
C1421 C 0.48437 0.3719 0.69186 0.0
C1422 C 0.47495 0.40387 0.64437 0.0
C1423 C 0.48485 0.37718 0.64104 0.0
H1424 H 0.98184 0.9093 0.64 0.0
H1425 H 1.00544 0.92235 0.72849 0.0
H1426 H 1.02951 0.87693 0.73435 0.0
H1427 H 1.03707 0.83259 0.71538 0.0
H1428 H 1.00875 0.81827 0.62755 0.0
H1429 H 0.99321 0.86476 0.62041 0.0
C1430 C 0.99301 0.90218 0.66038 0.0
C1431 C 0.99171 0.919 0.68378 0.0
C1432 C 1.00535 0.87568 0.66383 0.0
C1433 C 1.00583 0.90961 0.71021 0.0
C1434 C 1.01952 0.88365 0.71361 0.0
C1435 C 1.02806 0.83966 0.6946 0.0
C1436 C 1.02395 0.82193 0.6721 0.0
C1437 C 1.01829 0.86634 0.69074 0.0
C1438 C 1.01187 0.83146 0.64533 0.0
C1439 C 1.00303 0.85808 0.64119 0.0
H1440 H 0.50147 0.90492 0.73953 0.0
H1441 H 0.49034 0.91416 0.82937 0.0
H1442 H 0.46913 0.8679 0.83399 0.0
H1443 H 0.45311 0.82476 0.81198 0.0
H1444 H 0.45689 0.81775 0.72154 0.0
H1445 H 0.48146 0.86314 0.71758 0.0
C1446 C 0.49477 0.89672 0.76013 0.0
C1447 C 0.49815 0.91267 0.78412 0.0
C1448 C 0.48103 0.87054 0.76245 0.0
C1449 C 0.4882 0.90209 0.81065 0.0
C1450 C 0.47607 0.8757 0.81326 0.0
C1451 C 0.45938 0.83326 0.79148 0.0
C1452 C 0.45344 0.81794 0.76711 0.0
C1453 C 0.47228 0.85972 0.78927 0.0
C1454 C 0.46105 0.82918 0.74061 0.0
C1455 C 0.47527 0.85511 0.7383 0.0
H1456 H 0.95151 0.32973 0.81743 0.0
H1457 H 0.97005 0.31791 0.72819 0.0
H1458 H 0.98418 0.3643 0.72179 0.0
H1459 H 0.99047 0.40811 0.74078 0.0
H1460 H 0.96862 0.42228 0.82927 0.0
H1461 H 0.95596 0.3753 0.83668 0.0
C1462 C 0.95901 0.33741 0.79671 0.0
C1463 C 0.95991 0.32038 0.77334 0.0
C1464 C 0.96604 0.36453 0.79296 0.0
C1465 C 0.96901 0.33058 0.7465 0.0
C1466 C 0.97709 0.35714 0.74278 0.0
C1467 C 0.98291 0.40105 0.76177 0.0
C1468 C 0.98077 0.41871 0.78446 0.0
C1469 C 0.97542 0.37428 0.76576 0.0
C1470 C 0.97043 0.40911 0.81141 0.0
C1471 C 0.9634 0.38222 0.81566 0.0
H1472 H 0.80646 0.58293 0.52557 0.0
H1473 H 0.66117 0.56312 0.53703 0.0
H1474 H 0.64098 0.6092 0.54087 0.0
H1475 H 0.66371 0.6553 0.53916 0.0
H1476 H 0.80871 0.67542 0.52763 0.0
H1477 H 0.82969 0.62919 0.52585 0.0
C1478 C 0.77036 0.58868 0.52901 0.0
C1479 C 0.73544 0.56948 0.53079 0.0
C1480 C 0.75885 0.61534 0.53119 0.0
C1481 C 0.68889 0.57735 0.53542 0.0
C1482 C 0.67724 0.60378 0.53763 0.0
C1483 C 0.70001 0.64959 0.53648 0.0
C1484 C 0.73452 0.66883 0.53341 0.0
C1485 C 0.7118 0.62295 0.53529 0.0
C1486 C 0.78135 0.66106 0.52995 0.0
C1487 C 0.79337 0.63458 0.52889 0.0
H1488 H 0.25946 0.07543 0.49428 0.0
H1489 H 0.21837 0.06488 0.58073 0.0
H1490 H 0.20325 0.11185 0.58526 0.0
H1491 H 0.19852 0.15599 0.56378 0.0
H1492 H 0.23417 0.16495 0.47628 0.0
H1493 H 0.25515 0.11878 0.47313 0.0
C1494 C 0.24747 0.08338 0.51419 0.0
C1495 C 0.24014 0.06663 0.53712 0.0
C1496 C 0.23795 0.11025 0.51646 0.0
C1497 C 0.22418 0.07731 0.56269 0.0
C1498 C 0.2156 0.10419 0.56532 0.0
C1499 C 0.21148 0.14779 0.54421 0.0
C1500 C 0.21501 0.16378 0.52032 0.0
C1501 C 0.222 0.12087 0.54226 0.0
C1502 C 0.2311 0.15294 0.49491 0.0
C1503 C 0.24303 0.12655 0.49308 0.0
H1504 H 0.78254 0.15301 0.46604 0.0
H1505 H 0.76043 0.16467 0.37739 0.0
H1506 H 0.74016 0.11844 0.37154 0.0
H1507 H 0.72259 0.0753 0.39254 0.0
H1508 H 0.73599 0.06581 0.48227 0.0
H1509 H 0.76558 0.11024 0.48686 0.0
C1510 C 0.77426 0.14523 0.44538 0.0
C1511 C 0.77366 0.16202 0.42212 0.0
C1512 C 0.76041 0.11899 0.44246 0.0
C1513 C 0.76153 0.15196 0.39555 0.0
C1514 C 0.74971 0.12559 0.39224 0.0
C1515 C 0.73251 0.08295 0.41298 0.0
C1516 C 0.72716 0.0673 0.43699 0.0
C1517 C 0.74807 0.10899 0.41565 0.0
C1518 C 0.73956 0.07752 0.46346 0.0
C1519 C 0.7566 0.10293 0.46613 0.0
H1520 H 0.27742 0.65165 0.45394 0.0
H1521 H 0.17173 0.67349 0.39368 0.0
H1522 H 0.13997 0.62906 0.39499 0.0
H1523 H 0.14375 0.58318 0.41276 0.0
H1524 H 0.25174 0.56268 0.47203 0.0
H1525 H 0.2804 0.60742 0.47195 0.0
C1526 C 0.24747 0.64683 0.44096 0.0
C1527 C 0.22727 0.666 0.42362 0.0
C1528 C 0.2294 0.6214 0.4419 0.0
C1529 C 0.18831 0.65916 0.40711 0.0
C1530 C 0.16995 0.63374 0.40795 0.0
C1531 C 0.17296 0.58875 0.42598 0.0
C1532 C 0.19542 0.56972 0.44254 0.0
C1533 C 0.19022 0.61462 0.4253 0.0
C1534 C 0.23384 0.577 0.45917 0.0
C1535 C 0.25041 0.60256 0.45904 0.0
H1536 H 0.3446 -0.00711 0.30456 0.0
H1537 H 0.34628 0.91957 0.34895 0.0
H1538 H 0.3922 0.93982 0.38695 0.0
H1539 H 0.42637 0.97886 0.40805 0.0
H1540 H 0.42138 0.05265 0.36445 0.0
H1541 H 0.38293 0.03131 0.32439 0.0
C1542 C 0.35433 0.9815 0.32288 0.0
C1543 C 0.34082 0.95516 0.32487 0.0
C1544 C 0.38078 -0.00689 0.344 0.0
C1545 C 0.35528 0.94008 0.34774 0.0
C1546 C 0.38177 0.95157 0.3691 0.0
C1547 C 0.41846 0.99012 0.38934 0.0
C1548 C 0.42744 0.01718 0.38874 0.0
C1549 C 0.39433 0.97808 0.36743 0.0
C1550 C 0.41564 0.03174 0.36489 0.0
C1551 C 0.39298 0.01964 0.34238 0.0
H1552 H 1.0421 0.255 0.40052 0.0
H1553 H 1.03282 0.19473 0.33713 0.0
H1554 H 1.06089 0.22559 0.30152 0.0
H1555 H 1.09423 0.26796 0.29013 0.0
H1556 H 0.11171 0.32699 0.35423 0.0
H1557 H 1.07351 0.29819 0.38864 0.0
C1558 C 1.04503 0.24897 0.37867 0.0
C1559 C 1.0346 0.22306 0.37091 0.0
C1560 C 1.06325 0.26629 0.35902 0.0
C1561 C 1.03981 0.21481 0.34306 0.0
C1562 C 1.05633 0.23229 0.323 0.0
C1563 C 1.08926 0.27457 0.31164 0.0
C1564 C 0.10545 0.29935 0.31999 0.0
C1565 C 1.06906 0.25779 0.33099 0.0
C1566 C 1.09926 0.30795 0.34766 0.0
C1567 C 1.07767 0.29152 0.36712 0.0
H1568 H 0.36962 0.13748 1.08744 0.0
H1569 H 0.25719 0.16248 1.0336 0.0
H1570 H 0.20534 0.1665 1.07395 0.0
H1571 H 0.20141 0.1761 0.12452 0.0
H1572 H 0.31588 0.15337 0.17807 0.0
H1573 H 0.35609 0.13376 0.13835 0.0
C1574 C 0.33308 0.14243 1.08451 0.0
C1575 C 0.31737 0.15021 1.05792 0.0
C1576 C 0.30382 0.14541 0.10794 0.0
C1577 C 0.26999 0.15648 1.05404 0.0
C1578 C 0.24042 0.15908 1.07717 0.0
C1579 C 0.23404 0.16566 0.12763 0.0
C1580 C 0.25639 0.16701 0.15388 0.0
C1581 C 0.25818 0.15558 0.10434 0.0
C1582 C 0.29811 0.15293 0.15798 0.0
C1583 C 0.32165 0.14206 0.1351 0.0
H1584 H 1.08764 0.91667 0.15679 0.0
H1585 H 0.21811 0.91446 0.11164 0.0
H1586 H 0.17597 0.91258 1.06714 0.0
H1587 H 0.10411 0.92279 1.04212 0.0
H1588 H 0.97513 0.93271 1.08757 0.0
H1589 H 1.01407 0.91945 0.13113 0.0
C1590 C 0.1068 0.91429 0.13726 0.0
C1591 C 0.15588 0.91584 0.13733 0.0
C1592 C 1.08225 0.91491 0.11183 0.0
C1593 C 0.18035 0.91324 0.11195 0.0
C1594 C 0.15615 0.91238 1.08653 0.0
C1595 C 1.08398 0.9207 1.06127 0.0
C1596 C 1.03686 0.92849 1.06174 0.0
C1597 C 0.1073 0.91483 1.08627 0.0
C1598 C 1.01138 0.92662 1.08682 0.0
C1599 C 1.03377 0.91927 0.11167 0.0
H1600 H 0.87513 0.89752 0.91515 0.0
H1601 H 1.01337 0.91546 0.88522 0.0
H1602 H 0.99144 0.90147 0.83788 0.0
H1603 H 0.9272 0.89887 0.80437 0.0
H1604 H 0.78649 0.88676 0.83383 0.0
H1605 H 0.81511 0.88315 0.88207 0.0
C1606 C 0.90114 0.89708 0.89858 0.0
C1607 C 0.94535 0.90815 0.90332 0.0
C1608 C 0.88722 0.89082 0.87114 0.0
C1609 C 0.97889 0.90738 0.8818 0.0
C1610 C 0.96613 0.89969 0.85469 0.0
C1611 C 0.90295 0.89417 0.8211 0.0
C1612 C 0.85461 0.8939 0.81572 0.0
C1613 C 0.91937 0.89359 0.84882 0.0
C1614 C 0.82375 0.88771 0.83764 0.0
C1615 C 0.8401 0.88578 0.86521 0.0
H1616 H 0.10341 0.82569 0.90308 0.0
H1617 H 0.98098 0.79081 0.86625 0.0
H1618 H 0.99606 0.8135 0.82207 0.0
H1619 H 1.05836 0.82877 0.79133 0.0
H1620 H 0.18794 0.85596 0.82686 0.0
H1621 H 0.15533 0.85238 0.87405 0.0
C1622 C 1.07909 0.82402 0.88565 0.0
C1623 C 1.0424 0.80589 0.8872 0.0
C1624 C 1.08996 0.83561 0.8599 0.0
C1625 C 1.01007 0.80425 0.86512 0.0
C1626 C 1.01899 0.81706 0.83982 0.0
C1627 C 1.07855 0.83531 0.80934 0.0
C1628 C 0.126 0.84166 0.8059 0.0
C1629 C 1.06108 0.83072 0.83634 0.0
C1630 C 0.15163 0.85049 0.8292 0.0
C1631 C 0.13317 0.84799 0.8562 0.0
H1632 H 0.84587 0.74868 1.05355 0.0
H1633 H 0.94895 0.70359 1.09864 0.0
H1634 H 0.89671 0.70174 0.13949 0.0
H1635 H 0.82312 0.71354 0.16168 0.0
H1636 H 0.72111 0.75984 0.117 0.0
H1637 H 0.77237 0.76054 1.07581 0.0
C1638 C 0.85751 0.73903 1.07259 0.0
C1639 C 0.90158 0.72684 1.07358 0.0
C1640 C 0.82722 0.73765 1.09538 0.0
C1641 C 0.91545 0.71344 1.09781 0.0
C1642 C 0.88546 0.71216 0.12087 0.0
C1643 C 0.81104 0.7229 0.14257 0.0
C1644 C 0.76779 0.7361 0.14204 0.0
C1645 C 0.84112 0.72393 0.11963 0.0
C1646 C 0.75376 0.74912 0.11757 0.0
C1647 C 0.78331 0.74984 1.09431 0.0
H1648 H 0.36397 0.41157 0.92207 0.0
H1649 H 0.50686 0.40432 0.89497 0.0
H1650 H 0.4809 0.38548 0.85013 0.0
H1651 H 0.41829 0.38334 0.81526 0.0
H1652 H 0.27795 0.40455 0.84005 0.0
H1653 H 0.3008 0.40312 0.88901 0.0
C1654 C 0.3894 0.40473 0.90677 0.0
C1655 C 0.43709 0.40933 0.91149 0.0
C1656 C 0.37408 0.39655 0.88024 0.0
C1657 C 0.46997 0.40086 0.8916 0.0
C1658 C 0.45502 0.39036 0.86593 0.0
C1659 C 0.39251 0.38765 0.83131 0.0
C1660 C 0.34714 0.39578 0.82353 0.0
C1661 C 0.40717 0.39012 0.85931 0.0
C1662 C 0.31348 0.39894 0.84487 0.0
C1663 C 0.32672 0.39854 0.87311 0.0
H1664 H 0.38585 0.81301 0.53213 0.0
H1665 H 0.51271 0.78682 0.57205 0.0
H1666 H 0.48388 0.8025 0.61751 0.0
H1667 H 0.41481 0.81128 0.64619 0.0
H1668 H 0.28388 0.83043 0.60639 0.0
H1669 H 0.32214 0.83053 0.56039 0.0
C1670 C 0.40817 0.81188 0.55053 0.0
C1671 C 0.45098 0.79839 0.54897 0.0
C1672 C 0.38989 0.81914 0.5767 0.0
C1673 C 0.47944 0.79689 0.57295 0.0
C1674 C 0.46269 0.8056 0.59893 0.0
C1675 C 0.39512 0.81666 0.62757 0.0
C1676 C 0.34658 0.82061 0.62946 0.0
C1677 C 0.41668 0.81491 0.60123 0.0
C1678 C 0.32123 0.82718 0.60525 0.0
C1679 C 0.34306 0.82703 0.57901 0.0
H1680 H 1.07978 0.40999 0.53082 0.0
H1681 H 0.93619 0.40407 0.55678 0.0
H1682 H 0.96095 0.38499 0.60157 0.0
H1683 H 1.02261 0.38264 0.63693 0.0
H1684 H 0.16408 0.40168 0.61306 0.0
H1685 H 0.1421 0.40025 0.56397 0.0
C1686 C 1.05386 0.40325 0.54575 0.0
C1687 C 1.00637 0.40842 0.54077 0.0
C1688 C 1.06846 0.39476 0.57225 0.0
C1689 C 0.97292 0.40015 0.5603 0.0
C1690 C 0.98716 0.38952 0.58597 0.0
C1691 C 1.04883 0.38639 0.62103 0.0
C1692 C 1.09424 0.39405 0.6291 0.0
C1693 C 1.03483 0.3888 0.59292 0.0
C1694 C 0.12846 0.3965 0.60801 0.0
C1695 C 0.11574 0.39611 0.57968 0.0
H1696 H 0.91064 0.40521 0.30315 0.0
H1697 H 0.77605 0.38295 0.33565 0.0
H1698 H 0.80789 0.38235 0.38317 0.0
H1699 H 0.86406 0.40333 0.41468 0.0
H1700 H 0.99555 0.4305 0.38191 0.0
H1701 H 0.97527 0.41363 0.33541 0.0
C1702 C 0.88879 0.39894 0.32048 0.0
C1703 C 0.8407 0.39498 0.31616 0.0
C1704 C 0.90649 0.40044 0.34788 0.0
C1705 C 0.81294 0.38666 0.33868 0.0
C1706 C 0.83104 0.38662 0.3659 0.0
C1707 C 0.88938 0.40434 0.39776 0.0
C1708 C 0.93041 0.41906 0.40131 0.0
C1709 C 0.87639 0.39582 0.37085 0.0
C1710 C 0.9631 0.41993 0.37932 0.0
C1711 C 0.95136 0.41043 0.35271 0.0
H1712 H 0.90121 0.34285 0.57555 0.0
H1713 H 0.79363 0.28982 0.54824 0.0
H1714 H 0.74304 0.30403 0.58656 0.0
H1715 H 0.74258 0.31965 0.63464 0.0
H1716 H 0.8524 0.36981 0.66464 0.0
H1717 H 0.88677 0.37073 0.61778 0.0
C1718 C 0.86605 0.33526 0.57757 0.0
C1719 C 0.85138 0.31469 0.56018 0.0
C1720 C 0.83759 0.34308 0.60014 0.0
C1721 C 0.80566 0.30512 0.56226 0.0
C1722 C 0.77673 0.31335 0.58401 0.0
C1723 C 0.7726 0.332 0.63071 0.0
C1724 C 0.79761 0.34259 0.65341 0.0
C1725 C 0.79399 0.33065 0.60433 0.0
C1726 C 0.83423 0.36007 0.64759 0.0
C1727 C 0.85457 0.36012 0.62089 0.0
H1728 H 0.54508 0.34301 0.89736 0.0
H1729 H 0.44888 0.28456 0.86687 0.0
H1730 H 0.4678 0.29585 0.81881 0.0
H1731 H 0.53189 0.30874 0.78796 0.0
H1732 H 0.64382 0.35596 0.82065 0.0
H1733 H 0.6008 0.36233 0.86472 0.0
C1734 C 0.52782 0.33292 0.88017 0.0
C1735 C 0.49844 0.31152 0.88588 0.0
C1736 C 0.54365 0.3369 0.85267 0.0
C1737 C 0.47313 0.30039 0.86345 0.0
C1738 C 0.4846 0.30653 0.83574 0.0
C1739 C 0.54569 0.3214 0.80435 0.0
C1740 C 0.59074 0.33179 0.80147 0.0
C1741 C 0.52307 0.32266 0.83038 0.0
C1742 C 0.60908 0.34785 0.82268 0.0
C1743 C 0.58464 0.35124 0.84787 0.0
H1744 H 0.66927 0.08805 0.66304 0.0
H1745 H 0.75987 0.02748 0.63068 0.0
H1746 H 0.74905 0.04384 0.5833 0.0
H1747 H 0.69268 0.06366 0.55126 0.0
H1748 H 0.58562 0.11472 0.58377 0.0
H1749 H 0.62219 0.11367 0.63035 0.0
C1750 C 0.68721 0.07865 0.64563 0.0
C1751 C 0.71283 0.05549 0.65028 0.0
C1752 C 0.6761 0.08603 0.61812 0.0
C1753 C 0.73871 0.0448 0.62786 0.0
C1754 C 0.73185 0.0539 0.60054 0.0
C1755 C 0.67874 0.07551 0.56831 0.0
C1756 C 0.63662 0.08915 0.56443 0.0
C1757 C 0.6973 0.07274 0.59534 0.0
C1758 C 0.6181 0.10414 0.58652 0.0
C1759 C 0.6388 0.1033 0.61312 0.0
H1760 H 0.57626 0.68334 0.32073 0.0
H1761 H 0.53341 0.76362 0.3088 0.0
H1762 H 0.47275 0.75852 0.34396 0.0
H1763 H 0.44392 0.73419 0.38418 0.0
H1764 H 0.49592 0.65658 0.39955 0.0
H1765 H 0.53357 0.6559 0.35393 0.0
C1766 C 0.55281 0.69952 0.32504 0.0
C1767 C 0.56109 0.72419 0.31322 0.0
C1768 C 0.51743 0.69641 0.34497 0.0
C1769 C 0.52976 0.74481 0.31891 0.0
C1770 C 0.49418 0.74177 0.33849 0.0
C1771 C 0.46215 0.71678 0.37697 0.0
C1772 C 0.47156 0.69674 0.3962 0.0
C1773 C 0.48926 0.71804 0.35261 0.0
C1774 C 0.4908 0.67323 0.3859 0.0
C1775 C 0.51365 0.67305 0.36003 0.0
H1776 H 0.6368 0.50715 0.16155 0.0
H1777 H 0.71519 0.44694 0.11845 0.0
H1778 H 0.66529 0.45231 1.0769 0.0
H1779 H 0.59805 0.47278 1.05447 0.0
H1780 H 0.51767 0.53147 1.09874 0.0
H1781 H 0.5701 0.52762 0.13921 0.0
C1782 C 0.64417 0.49577 0.14276 0.0
C1783 C 0.68043 0.47713 0.14267 0.0
C1784 C 0.61423 0.49808 0.11987 0.0
C1785 C 0.68804 0.46172 0.11865 0.0
C1786 C 0.65916 0.46453 1.09521 0.0
C1787 C 0.59105 0.48423 1.07326 0.0
C1788 C 0.55325 0.50189 1.07404 0.0
C1789 C 0.62156 0.48221 1.09596 0.0
C1790 C 0.5461 0.51748 1.09797 0.0
C1791 C 0.57626 0.51546 0.12086 0.0
H1792 H 0.5398 0.02693 1.00152 0.0
H1793 H 0.46164 0.96148 1.0342 0.0
H1794 H 0.41541 0.95996 0.99156 0.0
H1795 H 0.39548 0.97778 0.94514 0.0
H1796 H 0.46839 0.04565 0.91479 0.0
H1797 H 0.5161 0.04672 0.95731 0.0
C1798 C 0.51223 0.01256 0.99972 0.0
C1799 C 0.50485 -0.00568 1.02129 0.0
C1800 C 0.48374 0.01265 0.97582 0.0
C1801 C 0.46964 0.97535 1.0178 0.0
C1802 C 0.44233 0.9747 0.99355 0.0
C1803 C 0.42131 -0.00699 0.94821 0.0
C1804 C 0.42824 0.01176 0.92725 0.0
C1805 C 0.44877 -0.00659 0.97257 0.0
C1806 C 0.46189 0.03137 0.93108 0.0
C1807 C 0.48958 0.03176 0.95514 0.0
H1808 H 0.97881 0.20094 1.02995 0.0
H1809 H 0.86467 0.25143 1.00671 0.0
H1810 H 0.89776 0.25633 0.95942 0.0
H1811 H 0.96053 0.2474 0.92595 0.0
H1812 H 1.07823 0.19974 0.95072 0.0
H1813 H 1.04171 0.19196 0.99625 0.0
C1814 C 0.96081 0.21251 1.0142 0.0
C1815 C 0.9192 0.22547 1.02121 0.0
C1816 C 0.98083 0.21587 0.98768 0.0
C1817 C 0.89648 0.24107 1.00129 0.0
C1818 C 0.91556 0.24399 0.9745 0.0
C1819 C 0.97882 0.23575 0.94145 0.0
C1820 C 1.02237 0.2244 0.93498 0.0
C1821 C 0.95816 0.23185 0.96771 0.0
C1822 C 1.04461 0.20861 0.95506 0.0
C1823 C 1.02382 0.2042 0.98111 0.0
H1824 H 0.4925 0.20046 0.43489 0.0
H1825 H 0.52959 0.28225 0.43397 0.0
H1826 H 0.49185 0.28848 0.47946 0.0
H1827 H 0.44589 0.27116 0.51804 0.0
H1828 H 0.42091 0.18786 0.52272 0.0
H1829 H 0.45428 0.18218 0.47628 0.0
C1830 C 0.49356 0.21953 0.4449 0.0
C1831 C 0.51359 0.24089 0.43088 0.0
C1832 C 0.47265 0.2229 0.47126 0.0
C1833 C 0.51374 0.26554 0.44407 0.0
C1834 C 0.49212 0.26914 0.47005 0.0
C1835 C 0.44854 0.25157 0.50947 0.0
C1836 C 0.43064 0.23007 0.52439 0.0
C1837 C 0.47093 0.24801 0.48361 0.0
C1838 C 0.43302 0.20508 0.51185 0.0
C1839 C 0.45302 0.20164 0.48536 0.0
H1840 H 0.91098 0.02528 0.44357 0.0
H1841 H 0.99587 0.95965 0.41684 0.0
H1842 H 1.03626 0.96009 0.46163 0.0
H1843 H 1.05085 0.98051 0.50765 0.0
H1844 H 0.97305 0.0492 0.53182 0.0
H1845 H 0.92878 0.04727 0.48785 0.0
C1846 C 0.93875 0.01127 0.44718 0.0
C1847 C 0.94993 -0.00751 0.42653 0.0
C1848 C 0.96427 0.01268 0.47223 0.0
C1849 C 0.98515 0.97397 0.43236 0.0
C1850 C 1.00909 0.97445 0.45788 0.0
C1851 C 1.02465 -0.00478 0.50293 0.0
C1852 C 1.01536 0.01513 0.52246 0.0
C1853 C 0.99956 -0.00599 0.4777 0.0
C1854 C 0.98127 0.03406 0.51658 0.0
C1855 C 0.9556 0.03274 0.49171 0.0
H1856 H 0.75489 -0.00069 0.17846 0.0
H1857 H 0.63936 0.94827 0.19753 0.0
H1858 H 0.66911 0.94246 0.24518 0.0
H1859 H 0.72688 0.95266 0.28168 0.0
H1860 H 0.83968 0.00556 0.26368 0.0
H1861 H 0.81205 0.00997 0.21505 0.0
C1862 C 0.73578 0.9872 0.19311 0.0
C1863 C 0.69501 0.97418 0.18436 0.0
C1864 C 0.75279 0.98418 0.22051 0.0
C1865 C 0.67118 0.95822 0.20356 0.0
C1866 C 0.68809 0.95494 0.23082 0.0
C1867 C 0.74567 0.96483 0.26689 0.0
C1868 C 0.78547 0.97848 0.27578 0.0
C1869 C 0.72885 0.96778 0.23946 0.0
C1870 C 0.80915 -0.00525 0.25694 0.0
C1871 C 0.79322 -0.00265 0.22933 0.0
H1872 H 0.21864 0.83291 0.18696 0.0
H1873 H 0.19644 0.75157 0.16752 0.0
H1874 H 0.15117 0.74613 0.21047 0.0
H1875 H 0.12998 0.76231 0.25661 0.0
H1876 H 0.1625 0.84162 0.28023 0.0
H1877 H 0.18901 0.85065 0.23234 0.0
C1878 C 0.2031 0.81422 0.19208 0.0
C1879 C 0.21097 0.79254 0.17454 0.0
C1880 C 0.17879 0.81096 0.21751 0.0
C1881 C 0.19079 0.76836 0.18104 0.0
C1882 C 0.16496 0.76526 0.20549 0.0
C1883 C 0.14212 0.7817 0.25109 0.0
C1884 C 0.14565 0.801 0.27197 0.0
C1885 C 0.16043 0.78612 0.22436 0.0
C1886 C 0.15991 0.82632 0.2645 0.0
C1887 C 0.17574 0.83138 0.23723 0.0
H1888 H 0.66556 0.73732 0.75906 0.0
H1889 H 0.7294 0.80879 0.78811 0.0
H1890 H 0.77753 0.81036 0.7458 0.0
H1891 H 0.80278 0.79069 0.70138 0.0
H1892 H 0.73535 0.72013 0.67175 0.0
H1893 H 0.69077 0.71775 0.71476 0.0
C1894 C 0.68987 0.7533 0.75601 0.0
C1895 C 0.69359 0.77303 0.77642 0.0
C1896 C 0.71819 0.75372 0.73211 0.0
C1897 C 0.72507 0.7937 0.77229 0.0
C1898 C 0.75315 0.79437 0.74836 0.0
C1899 C 0.77798 0.77494 0.70403 0.0
C1900 C 0.77273 0.75576 0.68297 0.0
C1901 C 0.75015 0.77438 0.72822 0.0
C1902 C 0.7415 0.73496 0.68759 0.0
C1903 C 0.71507 0.73376 0.71208 0.0
H1904 H 0.18073 0.95093 0.78738 0.0
H1905 H 0.32265 0.94008 0.75942 0.0
H1906 H 0.29561 0.93554 0.71077 0.0
H1907 H 0.23313 0.94239 0.67605 0.0
H1908 H 1.09139 0.95421 0.70375 0.0
H1909 H 0.11644 0.95006 0.75294 0.0
C1910 C 0.20549 0.94707 0.77058 0.0
C1911 C 0.25355 0.94622 0.77658 0.0
C1912 C 0.18975 0.94509 0.7428 0.0
C1913 C 0.28555 0.94086 0.75504 0.0
C1914 C 0.27012 0.93855 0.7273 0.0
C1915 C 0.20778 0.94362 0.69296 0.0
C1916 C 0.16085 0.94907 0.68672 0.0
C1917 C 0.2226 0.94181 0.72089 0.0
C1918 C 0.12776 0.95022 0.70838 0.0
C1919 C 0.14215 0.94809 0.73636 0.0
H1920 H 0.55927 0.53569 0.50469 0.0
H1921 H 0.45506 0.48229 0.53626 0.0
H1922 H 0.41205 0.48548 0.49269 0.0
H1923 H 0.40104 0.50476 0.44671 0.0
H1924 H 0.50456 0.55721 0.41331 0.0
H1925 H 0.54911 0.55431 0.45717 0.0
C1926 C 0.52713 0.5248 0.50206 0.0
C1927 C 0.51081 0.50871 0.52389 0.0
C1928 C 0.50153 0.52714 0.47696 0.0
C1929 C 0.4694 0.49439 0.51979 0.0
C1930 C 0.44416 0.49648 0.49495 0.0
C1931 C 0.43341 0.51554 0.44898 0.0
C1932 C 0.44933 0.53124 0.42689 0.0
C1933 C 0.45948 0.51306 0.47365 0.0
C1934 C 0.49102 0.54538 0.43027 0.0
C1935 C 0.51685 0.54343 0.45517 0.0
H1936 H 0.92923 0.71198 0.50298 0.0
H1937 H 1.0121 0.77668 0.53363 0.0
H1938 H 1.05437 0.77786 0.48944 0.0
H1939 H 1.07014 0.7595 0.44259 0.0
H1940 H 0.99258 0.69239 0.41394 0.0
H1941 H 0.94805 0.69205 0.45775 0.0
C1942 C 0.95695 0.72613 0.50032 0.0
C1943 C 0.96709 0.74419 0.52182 0.0
C1944 C 0.98316 0.72577 0.47552 0.0
C1945 C 1.0023 0.76292 0.51734 0.0
C1946 C 1.02724 0.76336 0.4922 0.0
C1947 C 1.04401 0.74458 0.4463 0.0
C1948 C 1.03485 0.7258 0.42551 0.0
C1949 C 1.01845 0.74463 0.47136 0.0
C1950 C 1.00078 0.70663 0.43012 0.0
C1951 C 0.9749 0.70669 0.4549 0.0
H1952 H 0.49286 0.68865 0.92295 0.0
H1953 H 0.56812 0.75907 0.94353 0.0
H1954 H 0.53522 0.75868 0.9909 0.0
H1955 H 0.4838 0.73905 1.02577 0.0
H1956 H 0.40455 0.67003 1.00479 0.0
H1957 H 0.4415 0.66857 0.95829 0.0
C1958 C 0.50294 0.70346 0.93817 0.0
C1959 C 0.53311 0.72371 0.93014 0.0
C1960 C 0.48328 0.70332 0.96511 0.0
C1961 C 0.54519 0.74324 0.94955 0.0
C1962 C 0.52643 0.74299 0.97655 0.0
C1963 C 0.47415 0.72385 1.0109 0.0
C1964 C 0.44098 0.70491 1.0184 0.0
C1965 C 0.49497 0.72336 0.98437 0.0
C1966 C 0.42992 0.68484 0.99934 0.0
C1967 C 0.45098 0.68404 0.97285 0.0
H1968 H 0.99082 0.49903 0.92287 0.0
H1969 H 0.85623 0.52834 0.94899 0.0
H1970 H 0.88267 0.52913 0.99804 0.0
H1971 H 0.94424 0.52111 1.03317 0.0
H1972 H 1.07856 0.49204 1.0067 0.0
H1973 H 1.05189 0.49093 0.9577 0.0
C1974 C 0.9671 0.50527 0.93937 0.0
C1975 C 0.92161 0.51341 0.93258 0.0
C1976 C 0.98257 0.50573 0.96718 0.0
C1977 C 0.89142 0.52204 0.95391 0.0
C1978 C 0.90648 0.52243 0.98183 0.0
C1979 C 0.96754 0.51478 1.01646 0.0
C1980 C 1.01316 0.50688 1.02294 0.0
C1981 C 0.95198 0.51437 0.98862 0.0
C1982 C 1.04346 0.49843 1.00171 0.0
C1983 C 1.02818 0.49778 0.97389 0.0
H1984 H 0.76778 0.4405 0.77144 0.0
H1985 H 0.7986 0.52313 0.77225 0.0
H1986 H 0.75504 0.52866 0.72864 0.0
H1987 H 0.70479 0.51059 0.69245 0.0
H1988 H 0.68703 0.42674 0.68642 0.0
H1989 H 0.72662 0.42146 0.73119 0.0
C1990 C 0.7663 0.45961 0.76172 0.0
C1991 C 0.78586 0.48144 0.77536 0.0
C1992 C 0.74207 0.4626 0.73637 0.0
C1993 C 0.78296 0.50609 0.76251 0.0
C1994 C 0.75794 0.5093 0.73766 0.0
C1995 C 0.71042 0.49098 0.70025 0.0
C1996 C 0.69283 0.46917 0.68553 0.0
C1997 C 0.7366 0.48776 0.72477 0.0
C1998 C 0.69895 0.44413 0.69723 0.0
C1999 C 0.72253 0.44095 0.72267 0.0
H2000 H 0.24606 0.25024 0.77954 0.0
H2001 H 0.12682 0.29721 0.75626 0.0
H2002 H 0.15745 0.30105 0.70844 0.0
H2003 H 0.21626 0.28901 0.67281 0.0
H2004 H 0.33238 0.23986 0.69579 0.0
H2005 H 0.30468 0.23863 0.74452 0.0
C2006 C 0.2264 0.26109 0.76398 0.0
C2007 C 0.18404 0.27326 0.77138 0.0
C2008 C 0.24389 0.26293 0.73668 0.0
C2009 C 0.15962 0.28777 0.75111 0.0
C2010 C 0.17706 0.28993 0.7238 0.0
C2011 C 0.23584 0.27858 0.6888 0.0
C2012 C 0.27653 0.26495 0.68134 0.0
C2013 C 0.219 0.27746 0.71637 0.0
C2014 C 0.30141 0.25082 0.70157 0.0
C2015 C 0.2854 0.25001 0.72922 0.0
H2016 H 0.70048 0.22351 0.17395 0.0
H2017 H 0.82908 0.26096 0.19884 0.0
H2018 H 0.80046 0.26467 0.2471 0.0
H2019 H 0.73902 0.25709 0.28216 0.0
H2020 H 0.61148 0.21878 0.25776 0.0
H2021 H 0.64005 0.21481 0.20919 0.0
C2022 C 0.72275 0.23191 0.19006 0.0
C2023 C 0.76697 0.2418 0.1829 0.0
C2024 C 0.70624 0.2338 0.2177 0.0
C2025 C 0.79485 0.25332 0.20384 0.0
C2026 C 0.77859 0.25537 0.23141 0.0
C2027 C 0.71754 0.24808 0.26601 0.0
C2028 C 0.67327 0.23846 0.27296 0.0
C2029 C 0.73432 0.2458 0.23849 0.0
C2030 C 0.64555 0.22644 0.25243 0.0
C2031 C 0.66193 0.22416 0.22486 0.0
H2032 H 0.18237 0.45437 0.17956 0.0
H2033 H 0.1472 0.53652 0.18025 0.0
H2034 H 0.18221 0.54122 0.22675 0.0
H2035 H 0.2268 0.52266 0.26533 0.0
H2036 H 0.25122 0.43918 0.26796 0.0
H2037 H 0.2183 0.4347 0.22113 0.0
C2038 C 0.18115 0.47317 0.19014 0.0
C2039 C 0.16265 0.49512 0.17631 0.0
C2040 C 0.20073 0.47569 0.21698 0.0
C2041 C 0.16202 0.51941 0.19024 0.0
C2042 C 0.18209 0.52213 0.21678 0.0
C2043 C 0.22408 0.50329 0.25621 0.0
C2044 C 0.2418 0.48137 0.27056 0.0
C2045 C 0.20234 0.50049 0.23005 0.0
C2046 C 0.23921 0.45666 0.25745 0.0
C2047 C 0.21954 0.45394 0.23076 0.0
H2048 H 0.47952 0.1564 0.23734 0.0
H2049 H 0.32928 0.16098 0.24033 0.0
H2050 H 0.32384 0.11563 0.22367 0.0
H2051 H 0.36279 0.07407 0.20849 0.0
H2052 H 0.51368 0.07179 0.20578 0.0
H2053 H 0.51742 0.1165 0.22201 0.0
C2054 C 0.44542 0.14756 0.23449 0.0
C2055 C 0.4049 0.16215 0.24022 0.0
C2056 C 0.44262 0.12165 0.22486 0.0
C2057 C 0.36114 0.15025 0.23611 0.0
C2058 C 0.35803 0.12426 0.2266 0.0
C2059 C 0.39641 0.0834 0.21141 0.0
C2060 C 0.4378 0.06924 0.20589 0.0
C2061 C 0.39864 0.10967 0.22089 0.0
C2062 C 0.48105 0.08185 0.2098 0.0
C2063 C 0.48341 0.1076 0.21916 0.0
H2064 H 0.11143 0.08169 0.23979 0.0
H2065 H 0.96227 0.07627 0.25231 0.0
H2066 H 0.95235 0.12085 0.2366 0.0
H2067 H 0.98435 0.16109 0.21822 0.0
H2068 H 0.13286 0.16882 0.20605 0.0
H2069 H 0.14453 0.12389 0.22271 0.0
C2070 C 1.07686 0.09035 0.23925 0.0
C2071 C 1.03772 0.07533 0.24712 0.0
C2072 C 1.07108 0.11645 0.2301 0.0
C2073 C 0.99317 0.08703 0.24628 0.0
C2074 C 0.98729 0.11267 0.23725 0.0
C2075 C 1.01938 0.15303 0.21908 0.0
C2076 C 1.05757 0.16829 0.2106 0.0
C2077 C 1.02579 0.12744 0.22885 0.0
C2078 C 0.10274 0.15751 0.21236 0.0
C2079 C 0.10941 0.13179 0.22189 0.0
H2080 H 0.73315 0.82953 0.94638 0.0
H2081 H 0.86951 0.8098 0.97844 0.0
H2082 H 0.87782 0.85423 0.99758 0.0
H2083 H 0.84485 0.89872 1.00599 0.0
H2084 H 0.70585 0.91599 0.97596 0.0
H2085 H 0.70018 0.87261 0.95532 0.0
C2086 C 0.7649 0.83494 0.95739 0.0
C2087 C 0.80079 0.81645 0.96078 0.0
C2088 C 0.76882 0.86013 0.96889 0.0
C2089 C 0.84133 0.82369 0.97554 0.0
C2090 C 0.84608 0.8491 0.98647 0.0
C2091 C 0.8134 0.89292 0.99494 0.0
C2092 C 0.77573 0.9106 0.99273 0.0
C2093 C 0.80985 0.86749 0.98343 0.0
C2094 C 0.73517 0.90276 0.97834 0.0
C2095 C 0.7319 0.87794 0.96638 0.0
H2096 H 0.17161 0.81639 0.95778 0.0
H2097 H 0.15304 0.83551 1.04549 0.0
H2098 H 0.14791 0.88185 1.03381 0.0
H2099 H 0.15283 0.91737 0.9991 0.0
H2100 H 0.1779 0.89844 0.91191 0.0
H2101 H 0.17709 0.85179 0.92311 0.0
C2102 C 0.16616 0.83074 0.97433 0.0
C2103 C 0.16255 0.82253 1.00247 0.0
C2104 C 0.16483 0.8575 0.96759 0.0
C2105 C 0.15605 0.84133 1.02369 0.0
C2106 C 0.15315 0.86788 1.01703 0.0
C2107 C 0.15752 0.90304 0.98247 0.0
C2108 C 0.16521 0.91142 0.95469 0.0
C2109 C 0.15804 0.87625 0.98912 0.0
C2110 C 0.172 0.89257 0.93347 0.0
C2111 C 0.1714 0.86588 0.93982 0.0
H2112 H 0.3492 0.65575 0.73344 0.0
H2113 H 0.49474 0.65653 0.7577 0.0
H2114 H 0.50322 0.61147 0.74317 0.0
H2115 H 0.47155 0.57215 0.72244 0.0
H2116 H 0.32653 0.56868 0.69844 0.0
H2117 H 0.31572 0.61418 0.71412 0.0
C2118 C 0.3826 0.64597 0.73571 0.0
C2119 C 0.42131 0.65988 0.74645 0.0
C2120 C 0.38757 0.61952 0.72724 0.0
C2121 C 0.4643 0.64671 0.74928 0.0
C2122 C 0.46936 0.62077 0.74098 0.0
C2123 C 0.43745 0.58124 0.7205 0.0
C2124 C 0.40007 0.56705 0.70895 0.0
C2125 C 0.43153 0.60711 0.72966 0.0
C2126 C 0.35601 0.57916 0.70717 0.0
C2127 C 0.34986 0.60521 0.71611 0.0
H2128 H 0.11112 0.65524 0.71297 0.0
H2129 H 0.96165 0.6677 0.71387 0.0
H2130 H 0.94934 0.62378 0.73018 0.0
H2131 H 0.9789 0.58159 0.74372 0.0
H2132 H 0.12701 0.56629 0.74317 0.0
H2133 H 0.14161 0.61122 0.72742 0.0
C2134 C 1.07598 0.64831 0.71682 0.0
C2135 C 1.03755 0.66502 0.71185 0.0
C2136 C 1.0686 0.62239 0.7263 0.0
C2137 C 0.99219 0.65553 0.71704 0.0
C2138 C 0.98484 0.63026 0.72653 0.0
C2139 C 1.01456 0.58792 0.74026 0.0
C2140 C 1.05172 0.57045 0.74467 0.0
C2141 C 1.02258 0.61351 0.7311 0.0
C2142 C 1.09759 0.57926 0.73994 0.0
C2143 C 0.10596 0.605 0.73092 0.0
H2144 H 0.79355 0.31701 0.49849 0.0
H2145 H 0.76638 0.33469 0.41134 0.0
H2146 H 0.76302 0.38135 0.42272 0.0
H2147 H 0.77044 0.41722 0.45678 0.0
H2148 H 0.79056 0.39942 0.54448 0.0
H2149 H 0.79563 0.35288 0.53323 0.0
C2150 C 0.7877 0.33108 0.48187 0.0
C2151 C 0.78096 0.32236 0.45404 0.0
C2152 C 0.78572 0.35788 0.48846 0.0
C2153 C 0.77211 0.34084 0.43289 0.0
C2154 C 0.77067 0.36753 0.43926 0.0
C2155 C 0.77638 0.40309 0.47336 0.0
C2156 C 0.7806 0.41165 0.50135 0.0
C2157 C 0.77791 0.37628 0.46687 0.0
C2158 C 0.78735 0.39322 0.52275 0.0
C2159 C 0.79042 0.3666 0.51632 0.0
H2160 H 0.21743 0.32049 0.47575 0.0
H2161 H 1.07946 0.32125 0.51194 0.0
H2162 H 1.06951 0.36705 0.49799 0.0
H2163 H 0.10179 0.40751 0.47662 0.0
H2164 H 0.23819 0.40475 0.43829 0.0
H2165 H 0.24708 0.35932 0.45214 0.0
C2166 C 0.18518 0.33068 0.48071 0.0
C2167 C 0.14945 0.31755 0.49515 0.0
C2168 C 0.17953 0.35677 0.47231 0.0
C2169 C 0.10757 0.33092 0.50091 0.0
C2170 C 0.10197 0.35715 0.49303 0.0
C2171 C 0.1332 0.39688 0.47116 0.0
C2172 C 0.16912 0.40967 0.45639 0.0
C2173 C 0.1379 0.37038 0.47887 0.0
C2174 C 0.20974 0.39553 0.44946 0.0
C2175 C 0.21502 0.36949 0.45747 0.0
H2176 H 0.98724 0.07588 0.72156 0.0
H2177 H 0.83975 0.07145 0.70392 0.0
H2178 H 0.82943 0.11636 0.72135 0.0
H2179 H 0.86352 0.1575 0.74081 0.0
H2180 H 1.01148 0.15964 0.75871 0.0
H2181 H 1.02004 0.11513 0.74208 0.0
C2182 C 0.95272 0.08466 0.72138 0.0
C2183 C 0.91443 0.07035 0.71118 0.0
C2184 C 0.94707 0.11021 0.73158 0.0
C2185 C 0.86991 0.08204 0.71159 0.0
C2186 C 0.86402 0.10774 0.72155 0.0
C2187 C 0.89751 0.14814 0.74122 0.0
C2188 C 0.93678 0.1622 0.75088 0.0
C2189 C 0.90248 0.12211 0.73153 0.0
C2190 C 0.98056 0.14962 0.75127 0.0
C2191 C 0.98565 0.12403 0.74172 0.0
H2192 H 0.59728 0.15434 0.71674 0.0
H2193 H 0.45138 0.15701 0.69369 0.0
H2194 H 0.44057 0.11288 0.71064 0.0
H2195 H 0.4708 0.07378 0.7335 0.0
H2196 H 0.61663 0.06934 0.75566 0.0
H2197 H 0.62892 0.1135 0.73763 0.0
C2198 C 0.56329 0.14516 0.71519 0.0
C2199 C 0.52523 0.15932 0.70417 0.0
C2200 C 0.55698 0.11939 0.72509 0.0
C2201 C 0.48141 0.14693 0.70231 0.0
C2202 C 0.47499 0.12156 0.71204 0.0
C2203 C 0.50527 0.08248 0.73454 0.0
C2204 C 0.54247 0.06835 0.74634 0.0
C2205 C 0.51225 0.10773 0.72384 0.0
C2206 C 0.58711 0.07984 0.74698 0.0
C2207 C 0.59425 0.10512 0.73658 0.0
H2208 H 0.22271 0.823 0.47152 0.0
H2209 H 0.37108 0.82008 0.45657 0.0
H2210 H 0.37912 0.8645 0.47581 0.0
H2211 H 0.34234 0.90536 0.49509 0.0
H2212 H 0.19335 0.90582 0.50964 0.0
H2213 H 0.18759 0.86143 0.49243 0.0
C2214 C 0.25697 0.83197 0.47237 0.0
C2215 C 0.29611 0.81825 0.46223 0.0
C2216 C 0.26125 0.85731 0.48339 0.0
C2217 C 0.34023 0.83021 0.46403 0.0
C2218 C 0.34481 0.85566 0.47503 0.0
C2219 C 0.30877 0.89563 0.49467 0.0
C2220 C 0.26832 0.90928 0.50342 0.0
C2221 C 0.30537 0.8696 0.48453 0.0
C2222 C 0.22512 0.89619 0.50278 0.0
C2223 C 0.22163 0.87064 0.49293 0.0
H2224 H 0.60435 0.82699 0.49126 0.0
H2225 H 0.75442 0.82009 0.48791 0.0
H2226 H 0.76065 0.86441 0.4702 0.0
H2227 H 0.72506 0.90559 0.45807 0.0
H2228 H 0.57564 0.91548 0.46286 0.0
H2229 H 0.56752 0.86969 0.47755 0.0
C2230 C 0.63817 0.83522 0.48626 0.0
C2231 C 0.67893 0.82034 0.49091 0.0
C2232 C 0.64171 0.86129 0.47661 0.0
C2233 C 0.72264 0.83123 0.48467 0.0
C2234 C 0.72628 0.85659 0.47455 0.0
C2235 C 0.69048 0.89789 0.46213 0.0
C2236 C 0.65104 0.91413 0.45937 0.0
C2237 C 0.68623 0.8719 0.47087 0.0
C2238 C 0.6067 0.90352 0.46489 0.0
C2239 C 0.60205 0.8773 0.47327 0.0
H2240 H 0.96851 0.5762 0.22493 0.0
H2241 H 0.82393 0.57757 0.19979 0.0
H2242 H 0.81803 0.62366 0.21405 0.0
H2243 H 0.85478 0.66386 0.23383 0.0
H2244 H 0.99819 0.66011 0.26159 0.0
H2245 H 1.00365 0.61487 0.24614 0.0
C2246 C 0.9357 0.58658 0.22244 0.0
C2247 C 0.89685 0.57355 0.21108 0.0
C2248 C 0.93233 0.61274 0.23125 0.0
C2249 C 0.85438 0.58718 0.20849 0.0
C2250 C 0.85104 0.61354 0.21659 0.0
C2251 C 0.88711 0.65306 0.23648 0.0
C2252 C 0.92597 0.66541 0.24892 0.0
C2253 C 0.88986 0.62658 0.22802 0.0
C2254 C 0.96757 0.6511 0.25236 0.0
C2255 C 0.97087 0.62519 0.24342 0.0
H2256 H 0.53995 0.56209 0.20504 0.0
H2257 H 0.54235 0.58473 0.29244 0.0
H2258 H 0.54712 0.63079 0.27923 0.0
H2259 H 0.54556 0.66494 0.24292 0.0
H2260 H 0.53592 0.64275 0.15556 0.0
H2261 H 0.539 0.59651 0.16852 0.0
C2262 C 0.54228 0.57712 0.22114 0.0
C2263 C 0.54123 0.56995 0.2497 0.0
C2264 C 0.54325 0.60375 0.21336 0.0
C2265 C 0.54323 0.5897 0.27033 0.0
C2266 C 0.54585 0.61607 0.26278 0.0
C2267 C 0.54472 0.64999 0.2267 0.0
C2268 C 0.54078 0.65737 0.19828 0.0
C2269 C 0.54514 0.62339 0.23438 0.0
C2270 C 0.53888 0.63767 0.17758 0.0
C2271 C 0.54068 0.61118 0.18499 0.0
H2272 H 0.34599 0.40857 0.98152 0.0
H2273 H 0.20538 0.40585 1.01401 0.0
H2274 H 0.19869 0.3604 1.00007 0.0
H2275 H 0.23046 0.32203 0.9772 0.0
H2276 H 0.37072 0.32262 0.94433 0.0
H2277 H 0.38002 0.36815 0.95992 0.0
C2278 C 0.31427 0.39787 0.98579 0.0
C2279 C 0.27623 0.41072 0.99862 0.0
C2280 C 0.3104 0.37144 0.9775 0.0
C2281 C 0.23509 0.39663 1.00391 0.0
C2282 C 0.23114 0.37056 0.99597 0.0
C2283 C 0.26318 0.33204 0.9734 0.0
C2284 C 0.29967 0.31906 0.95941 0.0
C2285 C 0.26821 0.35792 0.98244 0.0
C2286 C 0.34206 0.33224 0.95508 0.0
C2287 C 0.34732 0.35828 0.96394 0.0
H2288 H 0.60542 0.33045 1.00313 0.0
H2289 H 0.74603 0.31294 0.97611 0.0
H2290 H 0.75392 0.35664 0.95706 0.0
H2291 H 0.72244 0.40002 0.94857 0.0
H2292 H 0.58427 0.4201 0.97749 0.0
H2293 H 0.5739 0.37544 0.99527 0.0
C2294 C 0.63767 0.33628 0.99305 0.0
C2295 C 0.67515 0.3184 0.99124 0.0
C2296 C 0.6425 0.36194 0.98248 0.0
C2297 C 0.71679 0.32629 0.97815 0.0
C2298 C 0.72136 0.35131 0.96711 0.0
C2299 C 0.68986 0.39465 0.95861 0.0
C2300 C 0.65408 0.41332 0.9615 0.0
C2301 C 0.68465 0.3693 0.96925 0.0
C2302 C 0.61242 0.4061 0.97501 0.0
C2303 C 0.60648 0.38054 0.98514 0.0
H2304 H 0.30321 0.98233 0.11727 0.0
H2305 H 0.43102 0.00884 1.07901 0.0
H2306 H 0.39279 0.00953 1.03305 0.0
H2307 H 0.32341 0.00115 1.00217 0.0
H2308 H 0.19417 0.97781 1.0409 0.0
H2309 H 0.2325 0.97657 1.08689 0.0
C2310 C 0.32302 0.98817 1.09894 0.0
C2311 C 0.37074 -0.00457 0.10236 0.0
C2312 C 0.3005 0.9886 1.07196 0.0
C2313 C 0.39471 0.00309 1.07777 0.0
C2314 C 0.37278 0.00328 1.05111 0.0
C2315 C 0.3035 -0.00426 1.02062 0.0
C2316 C 0.25537 0.98941 1.01743 0.0
C2317 C 0.32576 -0.00416 1.04769 0.0
C2318 C 0.23083 0.98284 1.04214 0.0
C2319 C 0.25296 0.9821 1.06872 0.0
H2320 H 0.2434 0.24372 1.04073 0.0
H2321 H 0.12516 0.23179 0.98601 0.0
H2322 H 1.07327 0.23024 1.0265 0.0
H2323 H 1.05921 0.23257 1.07813 0.0
H2324 H 0.17601 0.24775 0.13285 0.0
H2325 H 0.22899 0.24713 1.09264 0.0
C2326 C 0.20638 0.24056 1.03753 0.0
C2327 C 0.18915 0.23777 1.0096 0.0
C2328 C 0.17561 0.24002 1.06138 0.0
C2329 C 0.14045 0.23397 1.0067 0.0
C2330 C 0.11026 0.23301 1.03008 0.0
C2331 C 1.09626 0.23561 1.0814 0.0
C2332 C 0.11293 0.23988 0.1092 0.0
C2333 C 0.12711 0.23605 1.05765 0.0
C2334 C 0.16143 0.24415 0.11221 0.0
C2335 C 0.19213 0.24389 1.08896 0.0
H2336 H 0.38523 0.22875 0.37048 0.0
H2337 H 0.27323 0.25562 0.31725 0.0
H2338 H 0.22037 0.25663 0.35752 0.0
H2339 H 0.20415 0.25015 0.409 0.0
H2340 H 0.31759 0.22555 0.46246 0.0
H2341 H 0.36969 0.22353 0.42201 0.0
C2342 C 0.34927 0.23479 0.36751 0.0
C2343 C 0.33412 0.24198 0.34003 0.0
C2344 C 0.31835 0.23578 0.39137 0.0
C2345 C 0.28693 0.24994 0.33756 0.0
C2346 C 0.25619 0.2505 0.36087 0.0
C2347 C 0.24016 0.24422 0.41193 0.0
C2348 C 0.25588 0.23792 0.43957 0.0
C2349 C 0.27118 0.24347 0.38806 0.0
C2350 C 0.30341 0.2306 0.44207 0.0
C2351 C 0.33374 0.22938 0.41864 0.0
H2352 H 1.06095 0.00557 0.37478 0.0
H2353 H 0.18155 0.98763 0.3239 0.0
H2354 H 0.23011 0.9854 0.36581 0.0
H2355 H 0.24052 0.98792 0.41812 0.0
H2356 H 0.12025 0.0056 0.46932 0.0
H2357 H 1.07186 0.00896 0.42723 0.0
C2358 C 1.09785 0.00126 0.37266 0.0
C2359 C 0.11651 -0.00321 0.34517 0.0
C2360 C 0.12674 -7e-05 0.39757 0.0
C2361 C 0.16496 -0.00883 0.344 0.0
C2362 C 0.19334 0.98987 0.36833 0.0
C2363 C 0.20375 -0.00746 0.42029 0.0
C2364 C 0.18511 -0.00355 0.44784 0.0
C2365 C 0.17494 -0.00588 0.39543 0.0
C2366 C 0.13675 0.00232 0.44913 0.0
C2367 C 0.10847 0.00418 0.42473 0.0
H2368 H 0.89817 0.98124 0.19923 0.0
H2369 H 1.02885 0.00284 0.16091 0.0
H2370 H 0.99125 0.00419 0.11487 0.0
H2371 H 0.92047 -5e-05 1.08407 0.0
H2372 H 0.79062 0.97624 0.12186 0.0
H2373 H 0.82835 0.9748 0.16802 0.0
C2374 C 0.91872 0.98623 0.18091 0.0
C2375 C 0.96715 -0.00794 0.18451 0.0
C2376 C 0.89658 0.98674 0.15367 0.0
C2377 C 0.99201 -0.00174 0.15971 0.0
C2378 C 0.97026 -0.0009 0.13298 0.0
C2379 C 0.90008 -0.0054 0.10234 0.0
C2380 C 0.85184 0.98844 1.09865 0.0
C2381 C 0.9224 -0.00645 0.12948 0.0
C2382 C 0.82729 0.98123 0.12322 0.0
C2383 C 0.849 0.98049 0.15001 0.0
H2384 H 1.04052 0.75557 1.0862 0.0
H2385 H 0.16721 0.72309 0.12074 0.0
H2386 H 0.13006 0.71944 0.16657 0.0
H2387 H 1.06358 0.7275 0.19902 0.0
H2388 H 0.93613 0.76017 0.16605 0.0
H2389 H 0.97155 0.76233 0.1191 0.0
C2390 C 1.06029 0.74777 0.10369 0.0
C2391 C 0.10772 0.73977 1.09906 0.0
C2392 C 1.03863 0.74625 0.13114 0.0
C2393 C 0.13142 0.72971 0.12276 0.0
C2394 C 0.11001 0.72767 0.14943 0.0
C2395 C 1.04309 0.73507 0.1817 0.0
C2396 C 0.99646 0.74374 0.18706 0.0
C2397 C 1.06394 0.73626 0.15423 0.0
C2398 C 0.97171 0.75337 0.16349 0.0
C2399 C 0.99224 0.75462 0.13626 0.0
H2400 H 0.88803 0.74707 0.74761 0.0
H2401 H 1.02179 0.74983 0.78938 0.0
H2402 H 0.98324 0.74954 0.83489 0.0
H2403 H 0.91175 0.74791 0.86441 0.0
H2404 H 0.7772 0.74532 0.82395 0.0
H2405 H 0.81518 0.74636 0.77776 0.0
C2406 C 0.90896 0.74773 0.76658 0.0
C2407 C 0.95875 0.74838 0.7641 0.0
C2408 C 0.88606 0.74759 0.79363 0.0
C2409 C 0.98401 0.74922 0.78967 0.0
C2410 C 0.96173 0.74909 0.81614 0.0
C2411 C 0.89037 0.74758 0.84561 0.0
C2412 C 0.84085 0.74639 0.8485 0.0
C2413 C 0.91279 0.74814 0.81861 0.0
C2414 C 0.81493 0.74611 0.82317 0.0
C2415 C 0.83692 0.74671 0.79641 0.0
H2416 H 0.97423 0.97795 0.79114 0.0
H2417 H 1.08606 0.0084 0.74027 0.0
H2418 H 0.13753 0.00914 0.78101 0.0
H2419 H 0.1524 0.00198 0.83225 0.0
H2420 H 1.04162 0.9707 0.88298 0.0
H2421 H 0.98994 0.96943 0.84215 0.0
C2422 C 1.00974 0.98487 0.78886 0.0
C2423 C 1.02522 -0.00675 0.76193 0.0
C2424 C 1.04023 0.98517 0.81288 0.0
C2425 C 1.07207 0.00184 0.76017 0.0
C2426 C 0.10204 0.00232 0.78375 0.0
C2427 C 0.11701 -0.00515 0.8345 0.0
C2428 C 0.10141 0.98669 0.86146 0.0
C2429 C 1.08676 -0.00587 0.81039 0.0
C2430 C 1.05507 0.97742 0.86308 0.0
C2431 C 1.02517 0.97667 0.83947 0.0
H2432 H 0.29002 0.47786 0.61766 0.0
H2433 H 0.41508 0.51127 0.58254 0.0
H2434 H 0.37798 0.51293 0.53635 0.0
H2435 H 0.311 0.5033 0.50403 0.0
H2436 H 0.18406 0.47296 0.53966 0.0
H2437 H 0.22107 0.47091 0.586 0.0
C2438 C 0.30956 0.48537 0.59996 0.0
C2439 C 0.35617 0.49426 0.60441 0.0
C2440 C 0.2878 0.48627 0.57271 0.0
C2441 C 0.37967 0.5041 0.58057 0.0
C2442 C 0.35847 0.50486 0.55371 0.0
C2443 C 0.29133 0.49614 0.52185 0.0
C2444 C 0.24426 0.48805 0.51763 0.0
C2445 C 0.31271 0.49572 0.54922 0.0
C2446 C 0.21996 0.47931 0.54165 0.0
C2447 C 0.24133 0.47811 0.56844 0.0
H2448 H 0.24711 0.74611 0.53793 0.0
H2449 H 0.12908 0.72825 0.48501 0.0
H2450 H 1.07906 0.72496 0.52641 0.0
H2451 H 1.06621 0.72881 0.57849 0.0
H2452 H 0.18447 0.74733 0.63113 0.0
H2453 H 0.23473 0.74911 0.58995 0.0
C2454 C 0.21046 0.74151 0.53528 0.0
C2455 C 0.19278 0.73752 0.50757 0.0
C2456 C 0.18079 0.74008 0.55963 0.0
C2457 C 0.14462 0.73167 0.50546 0.0
C2458 C 0.11549 0.72984 0.5294 0.0
C2459 C 0.10301 0.73305 0.58114 0.0
C2460 C 0.12058 0.73778 0.60879 0.0
C2461 C 0.13277 0.73423 0.55676 0.0
C2462 C 0.16884 0.74348 0.6108 0.0
C2463 C 0.19814 0.74455 0.58693 0.0
H2464 H 0.40091 0.74032 0.87446 0.0
H2465 H 0.27989 0.7364 0.82059 0.0
H2466 H 0.22887 0.73754 0.86154 0.0
H2467 H 0.21635 0.74008 0.9135 0.0
H2468 H 0.33648 0.74634 0.96768 0.0
H2469 H 0.38819 0.74378 0.92682 0.0
C2470 C 0.36342 0.73957 0.87153 0.0
C2471 C 0.34523 0.7381 0.84358 0.0
C2472 C 0.33317 0.74073 0.89577 0.0
C2473 C 0.29598 0.7375 0.84117 0.0
C2474 C 0.26627 0.73815 0.86489 0.0
C2475 C 0.25381 0.74088 0.91655 0.0
C2476 C 0.27159 0.74345 0.94443 0.0
C2477 C 0.28412 0.73985 0.89243 0.0
C2478 C 0.32078 0.74457 0.94704 0.0
C2479 C 0.3508 0.74303 0.92339 0.0
H2480 H 0.14015 0.50818 0.94778 0.0
H2481 H 0.26568 0.47408 0.91357 0.0
H2482 H 0.22937 0.47199 0.86701 0.0
H2483 H 0.16089 0.47974 0.83457 0.0
H2484 H 1.0367 0.51517 0.8694 0.0
H2485 H 1.07334 0.5171 0.91546 0.0
C2486 C 0.15987 0.50029 0.93025 0.0
C2487 C 0.20638 0.4913 0.93507 0.0
C2488 C 0.13863 0.49937 0.90283 0.0
C2489 C 0.23032 0.48131 0.91131 0.0
C2490 C 0.20929 0.48004 0.88431 0.0
C2491 C 0.14158 0.48785 0.85215 0.0
C2492 C 1.0952 0.4973 0.84748 0.0
C2493 C 0.16327 0.48899 0.87956 0.0
C2494 C 1.07197 0.50771 0.87133 0.0
C2495 C 1.09303 0.50873 0.89818 0.0
H2496 H 0.79429 0.49383 0.62727 0.0
H2497 H 0.90943 0.4823 0.57029 0.0
H2498 H 0.96401 0.48218 0.60964 0.0
H2499 H 0.98129 0.48593 0.6613 0.0
H2500 H 0.86575 0.49734 0.71824 0.0
H2501 H 0.81138 0.497 0.67889 0.0
C2502 C 0.83124 0.49128 0.6233 0.0
C2503 C 0.84669 0.48795 0.59501 0.0
C2504 C 0.86349 0.49131 0.64659 0.0
C2505 C 0.89539 0.48469 0.59126 0.0
C2506 C 0.92717 0.48472 0.61404 0.0
C2507 C 0.94429 0.48838 0.66527 0.0
C2508 C 0.92883 0.4918 0.69356 0.0
C2509 C 0.91199 0.4881 0.64199 0.0
C2510 C 0.87999 0.49473 0.69733 0.0
C2511 C 0.84824 0.49454 0.67453 0.0
H2512 H 0.14518 0.25464 0.62373 0.0
H2513 H 1.03066 0.22793 0.57229 0.0
H2514 H 0.97971 0.22733 0.61334 0.0
H2515 H 0.96602 0.23366 0.66498 0.0
H2516 H 1.0812 0.259 0.71667 0.0
H2517 H 0.13163 0.2606 0.67541 0.0
C2518 C 0.10908 0.24873 0.62134 0.0
C2519 C 1.09268 0.24133 0.59414 0.0
C2520 C 1.07917 0.24807 0.64564 0.0
C2521 C 1.04533 0.23365 0.59238 0.0
C2522 C 1.01568 0.23332 0.61613 0.0
C2523 C 1.00204 0.23969 0.66737 0.0
C2524 C 1.0188 0.24626 0.69473 0.0
C2525 C 1.03194 0.24039 0.64306 0.0
C2526 C 1.06626 0.25378 0.69651 0.0
C2527 C 1.09561 0.25475 0.67263 0.0
H2528 H 0.81326 0.23049 0.32867 0.0
H2529 H 0.91848 0.26525 0.38177 0.0
H2530 H 0.97024 0.26962 0.34154 0.0
H2531 H 0.98951 0.26208 0.29075 0.0
H2532 H 0.88522 0.22655 0.23775 0.0
H2533 H 0.83203 0.2235 0.2776 0.0
C2534 C 0.84761 0.2389 0.33163 0.0
C2535 C 0.86101 0.24738 0.35907 0.0
C2536 C 0.87893 0.24076 0.30803 0.0
C2537 C 0.90625 0.2582 0.36157 0.0
C2538 C 0.9366 0.26059 0.33833 0.0
C2539 C 0.95543 0.25339 0.28786 0.0
C2540 C 0.94267 0.24434 0.26058 0.0
C2541 C 0.92397 0.25163 0.31138 0.0
C2542 C 0.89719 0.23378 0.25793 0.0
C2543 C 0.86623 0.23194 0.28101 0.0
H2544 H 0.95321 0.48543 0.29577 0.0
H2545 H 1.06793 0.50095 0.23962 0.0
H2546 H 0.12218 0.50069 0.27915 0.0
H2547 H 0.1391 0.49631 0.33091 0.0
H2548 H 1.02482 0.47966 0.38659 0.0
H2549 H 0.97039 0.48003 0.34696 0.0
C2550 C 0.99 0.48884 0.292 0.0
C2551 C 1.00528 0.49336 0.26392 0.0
C2552 C 1.02215 0.48844 0.31531 0.0
C2553 C 1.05387 0.49743 0.2604 0.0
C2554 C 1.0855 0.49731 0.2833 0.0
C2555 C 0.10235 0.49278 0.33453 0.0
C2556 C 1.08689 0.48791 0.36255 0.0
C2557 C 1.07037 0.49289 0.31107 0.0
C2558 C 1.03858 0.48332 0.36584 0.0
C2559 C 1.00703 0.48361 0.34295 0.0
H2560 H 0.79841 0.98318 0.61999 0.0
H2561 H 0.92841 0.00676 0.58228 0.0
H2562 H 0.89187 0.0067 0.53594 0.0
H2563 H 0.8222 0.00051 0.50467 0.0
H2564 H 0.69097 0.97969 0.54275 0.0
H2565 H 0.72804 0.97857 0.58896 0.0
C2566 C 0.81896 0.98835 0.60173 0.0
C2567 C 0.86694 -0.00513 0.6055 0.0
C2568 C 0.79708 0.98893 0.57447 0.0
C2569 C 0.89186 0.0016 0.58088 0.0
C2570 C 0.87076 0.00161 0.55397 0.0
C2571 C 0.80152 -0.00441 0.52296 0.0
C2572 C 0.75313 0.98997 0.51933 0.0
C2573 C 0.82326 -0.00464 0.55027 0.0
C2574 C 0.72788 0.98406 0.54406 0.0
C2575 C 0.74929 0.98336 0.57087 0.0
H2576 H 0.66393 0.2411 0.61762 0.0
H2577 H 0.52817 0.23179 0.57988 0.0
H2578 H 0.56326 0.23313 0.533 0.0
H2579 H 0.63377 0.2368 0.50133 0.0
H2580 H 0.76945 0.24354 0.54012 0.0
H2581 H 0.73368 0.24349 0.58648 0.0
C2582 C 0.64174 0.23928 0.59925 0.0
C2583 C 0.59269 0.2364 0.60314 0.0
C2584 C 0.66258 0.23966 0.57177 0.0
C2585 C 0.56563 0.23406 0.57835 0.0
C2586 C 0.58593 0.23483 0.55117 0.0
C2587 C 0.65569 0.23828 0.51984 0.0
C2588 C 0.70509 0.24032 0.51629 0.0
C2589 C 0.63456 0.23763 0.54737 0.0
C2590 C 0.73181 0.24197 0.54128 0.0
C2591 C 0.71117 0.24192 0.56823 0.0
H2592 H 0.7971 0.25073 0.83775 0.0
H2593 H 0.92323 0.22022 0.87487 0.0
H2594 H 0.88454 0.21781 0.92055 0.0
H2595 H 0.81469 0.22523 0.95167 0.0
H2596 H 0.6886 0.25528 0.91394 0.0
H2597 H 0.72719 0.25728 0.86839 0.0
C2598 C 0.81644 0.24358 0.85574 0.0
C2599 C 0.8638 0.23567 0.85198 0.0
C2600 C 0.79378 0.2424 0.88269 0.0
C2601 C 0.88717 0.22651 0.87627 0.0
C2602 C 0.86492 0.22523 0.90283 0.0
C2603 C 0.79544 0.23224 0.93357 0.0
C2604 C 0.74792 0.24006 0.93713 0.0
C2605 C 0.81818 0.23325 0.90657 0.0
C2606 C 0.72466 0.24897 0.9127 0.0
C2607 C 0.74696 0.25018 0.88624 0.0
H2608 H 0.66024 0.97755 0.83834 0.0
H2609 H 0.53231 0.00707 0.8743 0.0
H2610 H 0.56924 0.00886 0.92069 0.0
H2611 H 0.63871 0.00242 0.95229 0.0
H2612 H 0.76718 0.97427 0.9157 0.0
H2613 H 0.72975 0.97178 0.86964 0.0
C2614 C 0.64015 0.98437 0.85624 0.0
C2615 C 0.59277 -0.00787 0.852 0.0
C2616 C 0.66213 0.98574 0.88341 0.0
C2617 C 0.56845 0.001 0.87611 0.0
C2618 C 0.58977 0.00203 0.903 0.0
C2619 C 0.65878 -0.00425 0.93433 0.0
C2620 C 0.70659 0.98859 0.93833 0.0
C2621 C 0.63675 -0.00546 0.90711 0.0
C2622 C 0.73091 0.98008 0.91408 0.0
C2623 C 0.70925 0.97858 0.88737 0.0
H2624 H 0.40231 -0.00566 0.59138 0.0
H2625 H 0.2741 0.97029 0.6309 0.0
H2626 H 0.31305 0.9702 0.67671 0.0
H2627 H 0.38424 0.97656 0.70664 0.0
H2628 H 0.51298 -0.00062 0.66678 0.0
H2629 H 0.47375 -0.0001 0.62108 0.0
C2630 C 0.38268 0.98893 0.60992 0.0
C2631 C 0.33453 0.98233 0.60695 0.0
C2632 C 0.40586 0.98848 0.63669 0.0
C2633 C 0.31073 0.97539 0.63181 0.0
C2634 C 0.33326 0.9753 0.65832 0.0
C2635 C 0.40401 0.98164 0.68803 0.0
C2636 C 0.45233 0.98796 0.69091 0.0
C2637 C 0.38093 0.98175 0.6612 0.0
C2638 C 0.4763 -0.00565 0.66594 0.0
C2639 C 0.45362 -0.00531 0.63949 0.0
H2640 H 0.57464 0.74782 0.70463 0.0
H2641 H 0.4425 0.7419 0.66148 0.0
H2642 H 0.48246 0.74357 0.61626 0.0
H2643 H 0.55531 0.74588 0.58767 0.0
H2644 H 0.68784 0.75192 0.63015 0.0
H2645 H 0.64749 0.75172 0.67567 0.0
C2646 C 0.55432 0.7469 0.68542 0.0
C2647 C 0.50474 0.74452 0.68733 0.0
C2648 C 0.57794 0.74788 0.65873 0.0
C2649 C 0.48019 0.74353 0.66153 0.0
C2650 C 0.50326 0.74449 0.63529 0.0
C2651 C 0.57574 0.74715 0.60681 0.0
C2652 C 0.62534 0.7489 0.60474 0.0
C2653 C 0.55221 0.74653 0.63343 0.0
C2654 C 0.65014 0.75036 0.63037 0.0
C2655 C 0.62693 0.7501 0.6567 0.0
H2656 H 0.43241 0.69974 0.26803 0.0
H2657 H 0.44898 0.7826 0.25645 0.0
H2658 H 0.40218 0.79108 0.29871 0.0
H2659 H 0.35614 0.7753 0.34052 0.0
H2660 H 0.34809 0.69242 0.35512 0.0
H2661 H 0.39077 0.68399 0.3114 0.0
C2662 C 0.42582 0.71971 0.27464 0.0
C2663 C 0.44464 0.74048 0.25821 0.0
C2664 C 0.39956 0.72458 0.30004 0.0
C2665 C 0.4356 0.76607 0.26808 0.0
C2666 C 0.40835 0.77099 0.29246 0.0
C2667 C 0.36319 0.75533 0.33409 0.0
C2668 C 0.3474 0.73455 0.35167 0.0
C2669 C 0.38987 0.75047 0.30882 0.0
C2670 C 0.35874 0.70898 0.34256 0.0
C2671 C 0.38348 0.70408 0.31725 0.0
H2672 H 0.65401 0.98501 0.33051 0.0
H2673 H 0.53266 -0.00889 0.38371 0.0
H2674 H 0.48225 0.9902 0.34241 0.0
H2675 H 0.46996 0.98865 0.29042 0.0
H2676 H 0.59131 0.98337 0.23704 0.0
H2677 H 0.64196 0.98332 0.27824 0.0
C2678 C 0.61651 0.98612 0.33329 0.0
C2679 C 0.59814 0.98829 0.36111 0.0
C2680 C 0.58654 0.98587 0.3089 0.0
C2681 C 0.54893 0.98973 0.36325 0.0
C2682 C 0.51951 0.98917 0.33937 0.0
C2683 C 0.50743 0.98732 0.28759 0.0
C2684 C 0.52572 0.98589 0.25973 0.0
C2685 C 0.5375 0.9874 0.31192 0.0
C2686 C 0.57501 0.98438 0.25754 0.0
C2687 C 0.60457 0.98434 0.28141 0.0
H2688 H 0.70516 0.50427 1.04084 0.0
H2689 H 0.822 0.47893 0.99021 0.0
H2690 H 0.87246 0.47976 1.0312 0.0
H2691 H 0.88573 0.48674 1.0825 0.0
H2692 H 0.76973 0.5103 0.13433 0.0
H2693 H 0.71918 0.51205 1.09275 0.0
C2694 C 0.74163 0.49898 1.0386 0.0
C2695 C 0.75859 0.49135 1.01151 0.0
C2696 C 0.77168 0.49921 1.06305 0.0
C2697 C 0.80656 0.48461 1.01011 0.0
C2698 C 0.8361 0.48513 1.03387 0.0
C2699 C 0.84932 0.49215 1.0849 0.0
C2700 C 0.83227 0.49824 0.1123 0.0
C2701 C 0.81933 0.4922 1.06062 0.0
C2702 C 0.78454 0.50516 0.11411 0.0
C2703 C 0.75522 0.50611 1.09006 0.0
H2704 H 0.64187 0.75759 1.00071 0.0
H2705 H 0.75902 0.71251 1.0307 0.0
H2706 H 0.72011 0.70705 1.0761 0.0
H2707 H 0.6537 0.71655 0.1093 0.0
H2708 H 0.53518 0.75983 1.07831 0.0
H2709 H 0.57432 0.76546 1.03314 0.0
C2710 C 0.6594 0.74671 1.01714 0.0
C2711 C 0.70443 0.73574 1.01149 0.0
C2712 C 0.63656 0.74365 1.04387 0.0
C2713 C 0.72505 0.72145 1.03365 0.0
C2714 C 0.70258 0.71832 1.05999 0.0
C2715 C 0.63604 0.72706 1.09264 0.0
C2716 C 0.59077 0.7378 1.09804 0.0
C2717 C 0.6585 0.72958 1.06569 0.0
C2718 C 0.56941 0.75116 1.0755 0.0
C2719 C 0.59197 0.75435 1.04926 0.0
H2720 H 0.83419 0.75314 0.45624 0.0
H2721 H 0.70168 0.73117 0.42022 0.0
H2722 H 0.73763 0.72849 0.37369 0.0
H2723 H 0.80669 0.73252 0.34194 0.0
H2724 H 0.9399 0.75343 0.37758 0.0
H2725 H 0.90431 0.756 0.4244 0.0
C2726 C 0.81289 0.74779 0.4383 0.0
C2727 C 0.76434 0.74251 0.44258 0.0
C2728 C 0.83431 0.74597 0.41094 0.0
C2729 C 0.73857 0.73542 0.4184 0.0
C2730 C 0.75936 0.73387 0.39143 0.0
C2731 C 0.82828 0.73762 0.35984 0.0
C2732 C 0.87671 0.74282 0.35537 0.0
C2733 C 0.80722 0.7391 0.38724 0.0
C2734 C 0.903 0.74933 0.37956 0.0
C2735 C 0.88236 0.75086 0.40666 0.0
H2736 H 0.64062 0.5019 0.34185 0.0
H2737 H 0.50641 0.48583 0.37863 0.0
H2738 H 0.54251 0.48346 0.42538 0.0
H2739 H 0.61385 0.48513 0.45685 0.0
H2740 H 0.74691 0.50247 0.4188 0.0
H2741 H 0.71016 0.50479 0.37275 0.0
C2742 C 0.61893 0.49787 0.35998 0.0
C2743 C 0.57015 0.49403 0.35594 0.0
C2744 C 0.64021 0.49652 0.38722 0.0
C2745 C 0.54365 0.48894 0.38038 0.0
C2746 C 0.56456 0.48747 0.40741 0.0
C2747 C 0.63498 0.48936 0.43854 0.0
C2748 C 0.68398 0.49351 0.44212 0.0
C2749 C 0.61308 0.49106 0.41129 0.0
C2750 C 0.70962 0.49921 0.41753 0.0
C2751 C 0.68844 0.50053 0.3908 0.0
H2752 H 0.37496 0.49814 0.20159 0.0
H2753 H 0.51256 0.48567 0.16732 0.0
H2754 H 0.47945 0.4836 0.11987 0.0
H2755 H 0.41157 0.48701 1.08655 0.0
H2756 H 0.27326 0.4951 0.12119 0.0
H2757 H 0.30621 0.49781 0.16865 0.0
C2758 C 0.39806 0.49521 0.18381 0.0
C2759 C 0.44707 0.49246 0.18889 0.0
C2760 C 0.37846 0.49368 0.15593 0.0
C2761 C 0.4752 0.48812 0.1649 0.0
C2762 C 0.45614 0.48711 0.13738 0.0
C2763 C 0.38842 0.48937 0.1044 0.0
C2764 C 0.33928 0.49107 1.09946 0.0
C2765 C 0.40784 0.49012 0.13237 0.0
C2766 C 0.3108 0.49373 0.12358 0.0
C2767 C 0.32987 0.49536 0.15106 0.0
H2768 H 0.45536 0.23151 0.15872 0.0
H2769 H 0.567 0.25599 0.21357 0.0
H2770 H 0.62034 0.2579 0.17361 0.0
H2771 H 0.63739 0.25237 0.12202 0.0
H2772 H 0.52592 0.22638 1.06774 0.0
H2773 H 0.47255 0.2254 0.10754 0.0
C2774 C 0.49126 0.23737 0.16209 0.0
C2775 C 0.50609 0.24367 0.18991 0.0
C2776 C 0.52285 0.23815 0.13857 0.0
C2777 C 0.5535 0.25095 0.19298 0.0
C2778 C 0.58452 0.25208 0.16984 0.0
C2779 C 0.60144 0.24655 0.11873 0.0
C2780 C 0.58669 0.23953 1.09105 0.0
C2781 C 0.56994 0.24569 0.14236 0.0
C2782 C 0.53944 0.23189 1.08818 0.0
C2783 C 0.50833 0.23134 0.11123 0.0
H2784 H 0.39037 0.25864 0.75399 0.0
H2785 H 0.51586 0.22447 0.78803 0.0
H2786 H 0.48007 0.22288 0.83459 0.0
H2787 H 0.4119 0.23022 0.86671 0.0
H2788 H 0.28771 0.26613 0.83279 0.0
H2789 H 0.32438 0.26851 0.78664 0.0
C2790 C 0.41006 0.25078 0.77149 0.0
C2791 C 0.45623 0.24143 0.76667 0.0
C2792 C 0.38918 0.25015 0.79891 0.0
C2793 C 0.48054 0.23175 0.79035 0.0
C2794 C 0.45987 0.23077 0.81731 0.0
C2795 C 0.3925 0.23841 0.84927 0.0
C2796 C 0.34623 0.24773 0.85401 0.0
C2797 C 0.41396 0.2397 0.82201 0.0
C2798 C 0.32287 0.25857 0.83056 0.0
C2799 C 0.34384 0.25981 0.80374 0.0
H2800 H 0.54647 0.48416 0.86503 0.0
H2801 H 0.68243 0.49057 0.82687 0.0
H2802 H 0.64649 0.49155 0.7802 0.0
H2803 H 0.57549 0.49118 0.74904 0.0
H2804 H 0.43989 0.48453 0.78779 0.0
H2805 H 0.47619 0.48306 0.83412 0.0
C2806 C 0.5685 0.48577 0.8466 0.0
C2807 C 0.61779 0.48737 0.85025 0.0
C2808 C 0.54728 0.48637 0.81927 0.0
C2809 C 0.64477 0.48936 0.82546 0.0
C2810 C 0.624 0.48994 0.79843 0.0
C2811 C 0.55366 0.48943 0.76753 0.0
C2812 C 0.50421 0.48816 0.76409 0.0
C2813 C 0.57514 0.48857 0.79487 0.0
C2814 C 0.47757 0.48576 0.78897 0.0
C2815 C 0.49851 0.48487 0.81584 0.0
loop_
_geom_bond_atom_site_label_1
_geom_bond_atom_site_label_2
_geom_bond_distance
_geom_bond_site_symmetry_2
_ccdc_geom_bond_type
Tb0 C9 2.764 . S
Tb0 O10 2.325 . S
Tb0 O13 2.303 1_565 S
Tb0 O17 2.322 . S
Tb0 O18 2.349 . S
Tb0 O21 2.415 1_565 S
Tb0 O22 2.399 . S
Tb1 O11 2.322 . S
Tb1 O12 2.349 . S
Tb1 O14 2.415 1_545 S
Tb1 O15 2.399 . S
Tb1 O16 2.325 . S
Tb1 O19 2.303 1_545 S
Tb1 C30 2.764 . S
C2 O18 1.261 . S
C2 O19 1.257 . S
C3 C6 1.358 . S
C3 C7 1.332 1_565 S
C3 C9 1.504 . S
C4 C5 1.373 . S
C4 C8 1.308 1_565 S
C5 C4 1.373 . S
C5 C6 1.429 . S
C5 H32 0.932 . S
C6 C3 1.358 . S
C6 C5 1.429 . S
C6 H33 0.930 . S
C7 C3 1.332 1_545 S
C7 C8 1.394 . S
C7 H34 0.932 . S
C8 C4 1.308 1_545 S
C8 C7 1.394 . S
C8 H35 0.929 . S
C9 Tb0 2.764 . S
C9 C3 1.504 . S
C9 O21 1.239 1_565 S
C9 O22 1.263 . S
O10 Tb0 2.325 . S
O10 C20 1.236 1_565 S
O11 Tb1 2.322 . S
O11 C20 1.257 . S
O12 Tb1 2.349 . S
O12 C23 1.261 . S
O13 Tb0 2.303 1_545 S
O13 C23 1.257 . S
O14 Tb1 2.415 1_565 S
O14 C30 1.239 1_565 S
O15 Tb1 2.399 . S
O15 C30 1.263 . S
O16 Tb1 2.325 . S
O16 C31 1.236 . S
O17 Tb0 2.322 . S
O17 C31 1.257 1_565 S
O18 Tb0 2.349 . S
O18 C2 1.261 . S
O19 Tb1 2.303 1_565 S
O19 C2 1.257 . S
C20 O10 1.236 1_545 S
C20 O11 1.257 . S
O21 Tb0 2.415 1_545 S
O21 C9 1.239 1_545 S
O22 Tb0 2.399 . S
O22 C9 1.263 . S
C23 O12 1.261 . S
C23 O13 1.257 . S
C24 C27 1.358 . S
C24 C28 1.332 1_545 S
C24 C30 1.504 1_556 S
C25 C26 1.373 . S
C25 C29 1.308 1_545 S
C26 C25 1.373 . S
C26 C27 1.429 . S
C26 H36 0.932 . S
C27 C24 1.358 . S
C27 C26 1.429 . S
C27 H37 0.930 . S
C28 C24 1.332 1_565 S
C28 C29 1.394 . S
C28 H38 0.932 . S
C29 C25 1.308 1_565 S
C29 C28 1.394 . S
C29 H39 0.929 . S
C30 Tb1 2.764 . S
C30 O14 1.239 1_545 S
C30 O15 1.263 . S
C30 C24 1.504 1_554 S
C31 O16 1.236 . S
C31 O17 1.257 1_545 S
H32 C5 0.932 . S
H33 C6 0.930 . S
H34 C7 0.932 . S
H35 C8 0.929 . S
H36 C26 0.932 . S
H37 C27 0.930 . S
H38 C28 0.932 . S
H39 C29 0.929 . S
Tb40 C49 2.764 . S
Tb40 O50 2.325 . S
Tb40 O53 2.303 . S
Tb40 O57 2.322 . S
Tb40 O58 2.349 . S
Tb40 O61 2.415 . S
Tb40 O62 2.399 . S
Tb41 O51 2.322 . S
Tb41 O52 2.349 . S
Tb41 O54 2.415 . S
Tb41 O55 2.399 . S
Tb41 O56 2.325 . S
Tb41 O59 2.303 . S
Tb41 C70 2.764 . S
C42 O58 1.261 . S
C42 O59 1.257 . S
C43 C46 1.358 . S
C43 C47 1.332 . S
C43 C49 1.504 . S
C44 C45 1.373 . S
C44 C48 1.308 . S
C45 C44 1.373 . S
C45 C46 1.429 . S
C45 H72 0.932 1_655 S
C46 C43 1.358 . S
C46 C45 1.429 . S
C46 H73 0.930 . S
C47 C43 1.332 . S
C47 C48 1.394 . S
C47 H74 0.932 . S
C48 C44 1.308 . S
C48 C47 1.394 . S
C48 H75 0.929 . S
C49 Tb40 2.764 . S
C49 C43 1.504 . S
C49 O61 1.239 . S
C49 O62 1.263 . S
O50 Tb40 2.325 . S
O50 C60 1.236 . S
O51 Tb41 2.322 . S
O51 C60 1.257 . S
O52 Tb41 2.349 . S
O52 C63 1.261 . S
O53 Tb40 2.303 . S
O53 C63 1.257 . S
O54 Tb41 2.415 . S
O54 C70 1.239 . S
O55 Tb41 2.399 . S
O55 C70 1.263 . S
O56 Tb41 2.325 . S
O56 C71 1.236 . S
O57 Tb40 2.322 . S
O57 C71 1.257 . S
O58 Tb40 2.349 . S
O58 C42 1.261 . S
O59 Tb41 2.303 . S
O59 C42 1.257 . S
C60 O50 1.236 . S
C60 O51 1.257 . S
O61 Tb40 2.415 . S
O61 C49 1.239 . S
O62 Tb40 2.399 . S
O62 C49 1.263 . S
C63 O52 1.261 . S
C63 O53 1.257 . S
C64 C67 1.358 . S
C64 C68 1.332 . S
C64 C70 1.504 1_556 S
C65 C66 1.373 . S
C65 C69 1.308 . S
C66 C65 1.373 . S
C66 C67 1.429 . S
C66 H76 0.932 . S
C67 C64 1.358 . S
C67 C66 1.429 . S
C67 H77 0.930 . S
C68 C64 1.332 . S
C68 C69 1.394 . S
C68 H78 0.932 . S
C69 C65 1.308 . S
C69 C68 1.394 . S
C69 H79 0.929 . S
C70 Tb41 2.764 . S
C70 O54 1.239 . S
C70 O55 1.263 . S
C70 C64 1.504 1_554 S
C71 O56 1.236 . S
C71 O57 1.257 . S
H72 C45 0.932 1_455 S
H73 C46 0.930 . S
H74 C47 0.932 . S
H75 C48 0.929 . S
H76 C66 0.932 . S
H77 C67 0.930 . S
H78 C68 0.932 . S
H79 C69 0.929 . S
Tb80 C89 2.764 . S
Tb80 O90 2.325 . S
Tb80 O93 2.303 . S
Tb80 O97 2.322 . S
Tb80 O98 2.349 . S
Tb80 O101 2.415 . S
Tb80 O102 2.399 . S
Tb81 O91 2.322 . S
Tb81 O92 2.349 . S
Tb81 O94 2.415 . S
Tb81 O95 2.399 . S
Tb81 O96 2.325 . S
Tb81 O99 2.303 . S
Tb81 C110 2.764 . S
C82 O98 1.261 . S
C82 O99 1.257 . S
C83 C86 1.358 . S
C83 C87 1.332 . S
C83 C89 1.504 . S
C84 C85 1.373 . S
C84 C88 1.308 . S
C85 C84 1.373 . S
C85 C86 1.429 . S
C85 H112 0.932 . S
C86 C83 1.358 . S
C86 C85 1.429 . S
C86 H113 0.930 . S
C87 C83 1.332 . S
C87 C88 1.394 . S
C87 H114 0.932 . S
C88 C84 1.308 . S
C88 C87 1.394 . S
C88 H115 0.929 . S
C89 Tb80 2.764 . S
C89 C83 1.504 . S
C89 O101 1.239 . S
C89 O102 1.263 . S
O90 Tb80 2.325 . S
O90 C100 1.236 . S
O91 Tb81 2.322 . S
O91 C100 1.257 . S
O92 Tb81 2.349 . S
O92 C103 1.261 . S
O93 Tb80 2.303 . S
O93 C103 1.257 . S
O94 Tb81 2.415 . S
O94 C110 1.239 . S
O95 Tb81 2.399 . S
O95 C110 1.263 . S
O96 Tb81 2.325 . S
O96 C111 1.236 . S
O97 Tb80 2.322 . S
O97 C111 1.257 . S
O98 Tb80 2.349 . S
O98 C82 1.261 . S
O99 Tb81 2.303 . S
O99 C82 1.257 . S
C100 O90 1.236 . S
C100 O91 1.257 . S
O101 Tb80 2.415 . S
O101 C89 1.239 . S
O102 Tb80 2.399 . S
O102 C89 1.263 . S
C103 O92 1.261 . S
C103 O93 1.257 . S
C104 C107 1.358 . S
C104 C108 1.332 . S
C104 C110 1.504 . S
C105 C106 1.373 . S
C105 C109 1.308 . S
C106 C105 1.373 . S
C106 C107 1.429 . S
C106 H116 0.932 . S
C107 C104 1.358 . S
C107 C106 1.429 . S
C107 H117 0.930 . S
C108 C104 1.332 . S
C108 C109 1.394 . S
C108 H118 0.932 . S
C109 C105 1.308 . S
C109 C108 1.394 . S
C109 H119 0.929 . S
C110 Tb81 2.764 . S
C110 O94 1.239 . S
C110 O95 1.263 . S
C110 C104 1.504 . S
C111 O96 1.236 . S
C111 O97 1.257 . S
H112 C85 0.932 . S
H113 C86 0.930 . S
H114 C87 0.932 . S
H115 C88 0.929 . S
H116 C106 0.932 . S
H117 C107 0.930 . S
H118 C108 0.932 . S
H119 C109 0.929 . S
Tb120 C129 2.764 . S
Tb120 O130 2.325 . S
Tb120 O133 2.303 1_565 S
Tb120 O137 2.322 . S
Tb120 O138 2.349 . S
Tb120 O141 2.415 1_565 S
Tb120 O142 2.399 . S
Tb121 O131 2.322 . S
Tb121 O132 2.349 . S
Tb121 O134 2.415 1_545 S
Tb121 O135 2.399 . S
Tb121 O136 2.325 . S
Tb121 O139 2.303 1_545 S
Tb121 C150 2.764 . S
C122 O138 1.261 . S
C122 O139 1.257 . S
C123 C126 1.358 . S
C123 C127 1.332 1_565 S
C123 C129 1.504 . S
C124 C125 1.373 . S
C124 C128 1.308 1_565 S
C125 C124 1.373 . S
C125 C126 1.429 . S
C125 H152 0.932 1_655 S
C126 C123 1.358 . S
C126 C125 1.429 . S
C126 H153 0.930 . S
C127 C123 1.332 1_545 S
C127 C128 1.394 . S
C127 H154 0.932 . S
C128 C124 1.308 1_545 S
C128 C127 1.394 . S
C128 H155 0.929 . S
C129 Tb120 2.764 . S
C129 C123 1.504 . S
C129 O141 1.239 1_565 S
C129 O142 1.263 . S
O130 Tb120 2.325 . S
O130 C140 1.236 1_565 S
O131 Tb121 2.322 . S
O131 C140 1.257 . S
O132 Tb121 2.349 . S
O132 C143 1.261 . S
O133 Tb120 2.303 1_545 S
O133 C143 1.257 . S
O134 Tb121 2.415 1_565 S
O134 C150 1.239 1_565 S
O135 Tb121 2.399 . S
O135 C150 1.263 . S
O136 Tb121 2.325 . S
O136 C151 1.236 . S
O137 Tb120 2.322 . S
O137 C151 1.257 1_565 S
O138 Tb120 2.349 . S
O138 C122 1.261 . S
O139 Tb121 2.303 1_565 S
O139 C122 1.257 . S
C140 O130 1.236 1_545 S
C140 O131 1.257 . S
O141 Tb120 2.415 1_545 S
O141 C129 1.239 1_545 S
O142 Tb120 2.399 . S
O142 C129 1.263 . S
C143 O132 1.261 . S
C143 O133 1.257 . S
C144 C147 1.358 . S
C144 C148 1.332 1_545 S
C144 C150 1.504 . S
C145 C146 1.373 . S
C145 C149 1.308 1_545 S
C146 C145 1.373 . S
C146 C147 1.429 . S
C146 H156 0.932 . S
C147 C144 1.358 . S
C147 C146 1.429 . S
C147 H157 0.930 . S
C148 C144 1.332 1_565 S
C148 C149 1.394 . S
C148 H158 0.932 . S
C149 C145 1.308 1_565 S
C149 C148 1.394 . S
C149 H159 0.929 . S
C150 Tb121 2.764 . S
C150 O134 1.239 1_545 S
C150 O135 1.263 . S
C150 C144 1.504 . S
C151 O136 1.236 . S
C151 O137 1.257 1_545 S
H152 C125 0.932 1_455 S
H153 C126 0.930 . S
H154 C127 0.932 . S
H155 C128 0.929 . S
H156 C146 0.932 . S
H157 C147 0.930 . S
H158 C148 0.932 . S
H159 C149 0.929 . S
Tb160 C169 2.764 . S
Tb160 O170 2.325 . S
Tb160 O173 2.303 1_565 S
Tb160 O177 2.322 . S
Tb160 O178 2.349 . S
Tb160 O181 2.415 1_565 S
Tb160 O182 2.399 . S
Tb161 O171 2.322 . S
Tb161 O172 2.349 . S
Tb161 O174 2.415 1_545 S
Tb161 O175 2.399 . S
Tb161 O176 2.325 . S
Tb161 O179 2.303 1_545 S
Tb161 C190 2.764 . S
C162 O178 1.261 . S
C162 O179 1.257 . S
C163 C166 1.358 . S
C163 C167 1.332 1_565 S
C163 C169 1.504 1_554 S
C164 C165 1.373 . S
C164 C168 1.308 1_565 S
C165 C164 1.373 . S
C165 C166 1.429 . S
C165 H192 0.932 . S
C166 C163 1.358 . S
C166 C165 1.429 . S
C166 H193 0.930 . S
C167 C163 1.332 1_545 S
C167 C168 1.394 . S
C167 H194 0.932 . S
C168 C164 1.308 1_545 S
C168 C167 1.394 . S
C168 H195 0.929 . S
C169 Tb160 2.764 . S
C169 C163 1.504 1_556 S
C169 O181 1.239 1_565 S
C169 O182 1.263 . S
O170 Tb160 2.325 . S
O170 C180 1.236 . S
O171 Tb161 2.322 . S
O171 C180 1.257 1_545 S
O172 Tb161 2.349 . S
O172 C183 1.261 . S
O173 Tb160 2.303 1_545 S
O173 C183 1.257 . S
O174 Tb161 2.415 1_565 S
O174 C190 1.239 1_565 S
O175 Tb161 2.399 . S
O175 C190 1.263 . S
O176 Tb161 2.325 . S
O176 C191 1.236 1_545 S
O177 Tb160 2.322 . S
O177 C191 1.257 . S
O178 Tb160 2.349 . S
O178 C162 1.261 . S
O179 Tb161 2.303 1_565 S
O179 C162 1.257 . S
C180 O170 1.236 . S
C180 O171 1.257 1_565 S
O181 Tb160 2.415 1_545 S
O181 C169 1.239 1_545 S
O182 Tb160 2.399 . S
O182 C169 1.263 . S
C183 O172 1.261 . S
C183 O173 1.257 . S
C184 C187 1.358 . S
C184 C188 1.332 1_545 S
C184 C190 1.504 . S
C185 C186 1.373 . S
C185 C189 1.308 1_545 S
C186 C185 1.373 . S
C186 C187 1.429 . S
C186 H196 0.932 . S
C187 C184 1.358 . S
C187 C186 1.429 . S
C187 H197 0.930 . S
C188 C184 1.332 1_565 S
C188 C189 1.394 . S
C188 H198 0.932 . S
C189 C185 1.308 1_565 S
C189 C188 1.394 . S
C189 H199 0.929 . S
C190 Tb161 2.764 . S
C190 O174 1.239 1_545 S
C190 O175 1.263 . S
C190 C184 1.504 . S
C191 O176 1.236 1_565 S
C191 O177 1.257 . S
H192 C165 0.932 . S
H193 C166 0.930 . S
H194 C167 0.932 . S
H195 C168 0.929 . S
H196 C186 0.932 . S
H197 C187 0.930 . S
H198 C188 0.932 . S
H199 C189 0.929 . S
Tb200 C209 2.764 . S
Tb200 O210 2.325 . S
Tb200 O213 2.303 . S
Tb200 O217 2.322 . S
Tb200 O218 2.349 . S
Tb200 O221 2.415 . S
Tb200 O222 2.399 . S
Tb201 O211 2.322 . S
Tb201 O212 2.349 . S
Tb201 O214 2.415 . S
Tb201 O215 2.399 . S
Tb201 O216 2.325 . S
Tb201 O219 2.303 . S
Tb201 C230 2.764 . S
C202 O218 1.261 . S
C202 O219 1.257 . S
C203 C206 1.358 . S
C203 C207 1.332 . S
C203 C209 1.504 1_554 S
C204 C205 1.373 . S
C204 C208 1.308 . S
C205 C204 1.373 . S
C205 C206 1.429 . S
C205 H232 0.932 . S
C206 C203 1.358 . S
C206 C205 1.429 . S
C206 H233 0.930 . S
C207 C203 1.332 . S
C207 C208 1.394 . S
C207 H234 0.932 . S
C208 C204 1.308 . S
C208 C207 1.394 . S
C208 H235 0.929 . S
C209 Tb200 2.764 . S
C209 C203 1.504 1_556 S
C209 O221 1.239 . S
C209 O222 1.263 . S
O210 Tb200 2.325 . S
O210 C220 1.236 . S
O211 Tb201 2.322 . S
O211 C220 1.257 . S
O212 Tb201 2.349 . S
O212 C223 1.261 . S
O213 Tb200 2.303 . S
O213 C223 1.257 . S
O214 Tb201 2.415 . S
O214 C230 1.239 . S
O215 Tb201 2.399 . S
O215 C230 1.263 . S
O216 Tb201 2.325 . S
O216 C231 1.236 . S
O217 Tb200 2.322 . S
O217 C231 1.257 . S
O218 Tb200 2.349 . S
O218 C202 1.261 . S
O219 Tb201 2.303 . S
O219 C202 1.257 . S
C220 O210 1.236 . S
C220 O211 1.257 . S
O221 Tb200 2.415 . S
O221 C209 1.239 . S
O222 Tb200 2.399 . S
O222 C209 1.263 . S
C223 O212 1.261 . S
C223 O213 1.257 . S
C224 C227 1.358 . S
C224 C228 1.332 . S
C224 C230 1.504 . S
C225 C226 1.373 . S
C225 C229 1.308 . S
C226 C225 1.373 . S
C226 C227 1.429 . S
C226 H236 0.932 1_455 S
C227 C224 1.358 . S
C227 C226 1.429 . S
C227 H237 0.930 . S
C228 C224 1.332 . S
C228 C229 1.394 . S
C228 H238 0.932 . S
C229 C225 1.308 . S
C229 C228 1.394 . S
C229 H239 0.929 . S
C230 Tb201 2.764 . S
C230 O214 1.239 . S
C230 O215 1.263 . S
C230 C224 1.504 . S
C231 O216 1.236 . S
C231 O217 1.257 . S
H232 C205 0.932 . S
H233 C206 0.930 . S
H234 C207 0.932 . S
H235 C208 0.929 . S
H236 C226 0.932 1_655 S
H237 C227 0.930 . S
H238 C228 0.932 . S
H239 C229 0.929 . S
Tb240 C249 2.764 . S
Tb240 O250 2.325 . S
Tb240 O253 2.303 . S
Tb240 O257 2.322 . S
Tb240 O258 2.349 . S
Tb240 O261 2.415 . S
Tb240 O262 2.399 . S
Tb241 O251 2.322 . S
Tb241 O252 2.349 . S
Tb241 O254 2.415 . S
Tb241 O255 2.399 . S
Tb241 O256 2.325 . S
Tb241 O259 2.303 . S
Tb241 C270 2.764 . S
C242 O258 1.261 . S
C242 O259 1.257 . S
C243 C246 1.358 . S
C243 C247 1.332 . S
C243 C249 1.504 . S
C244 C245 1.373 . S
C244 C248 1.308 . S
C245 C244 1.373 . S
C245 C246 1.429 . S
C245 H272 0.932 . S
C246 C243 1.358 . S
C246 C245 1.429 . S
C246 H273 0.930 . S
C247 C243 1.332 . S
C247 C248 1.394 . S
C247 H274 0.932 . S
C248 C244 1.308 . S
C248 C247 1.394 . S
C248 H275 0.929 . S
C249 Tb240 2.764 . S
C249 C243 1.504 . S
C249 O261 1.239 . S
C249 O262 1.263 . S
O250 Tb240 2.325 . S
O250 C260 1.236 . S
O251 Tb241 2.322 . S
O251 C260 1.257 . S
O252 Tb241 2.349 . S
O252 C263 1.261 . S
O253 Tb240 2.303 . S
O253 C263 1.257 . S
O254 Tb241 2.415 . S
O254 C270 1.239 . S
O255 Tb241 2.399 . S
O255 C270 1.263 . S
O256 Tb241 2.325 . S
O256 C271 1.236 . S
O257 Tb240 2.322 . S
O257 C271 1.257 . S
O258 Tb240 2.349 . S
O258 C242 1.261 . S
O259 Tb241 2.303 . S
O259 C242 1.257 . S
C260 O250 1.236 . S
C260 O251 1.257 . S
O261 Tb240 2.415 . S
O261 C249 1.239 . S
O262 Tb240 2.399 . S
O262 C249 1.263 . S
C263 O252 1.261 . S
C263 O253 1.257 . S
C264 C267 1.358 . S
C264 C268 1.332 . S
C264 C270 1.504 . S
C265 C266 1.373 . S
C265 C269 1.308 . S
C266 C265 1.373 . S
C266 C267 1.429 . S
C266 H276 0.932 . S
C267 C264 1.358 . S
C267 C266 1.429 . S
C267 H277 0.930 . S
C268 C264 1.332 . S
C268 C269 1.394 . S
C268 H278 0.932 . S
C269 C265 1.308 . S
C269 C268 1.394 . S
C269 H279 0.929 . S
C270 Tb241 2.764 . S
C270 O254 1.239 . S
C270 O255 1.263 . S
C270 C264 1.504 . S
C271 O256 1.236 . S
C271 O257 1.257 . S
H272 C245 0.932 . S
H273 C246 0.930 . S
H274 C247 0.932 . S
H275 C248 0.929 . S
H276 C266 0.932 . S
H277 C267 0.930 . S
H278 C268 0.932 . S
H279 C269 0.929 . S
Tb280 C289 2.764 . S
Tb280 O290 2.325 . S
Tb280 O293 2.303 1_565 S
Tb280 O297 2.322 . S
Tb280 O298 2.349 . S
Tb280 O301 2.415 1_565 S
Tb280 O302 2.399 . S
Tb281 O291 2.322 . S
Tb281 O292 2.349 . S
Tb281 O294 2.415 1_545 S
Tb281 O295 2.399 . S
Tb281 O296 2.325 . S
Tb281 O299 2.303 1_545 S
Tb281 C310 2.764 . S
C282 O298 1.261 . S
C282 O299 1.257 . S
C283 C286 1.358 . S
C283 C287 1.332 1_565 S
C283 C289 1.504 . S
C284 C285 1.373 . S
C284 C288 1.308 1_565 S
C285 C284 1.373 . S
C285 C286 1.429 . S
C285 H312 0.932 . S
C286 C283 1.358 . S
C286 C285 1.429 . S
C286 H313 0.930 . S
C287 C283 1.332 1_545 S
C287 C288 1.394 . S
C287 H314 0.932 . S
C288 C284 1.308 1_545 S
C288 C287 1.394 . S
C288 H315 0.929 . S
C289 Tb280 2.764 . S
C289 C283 1.504 . S
C289 O301 1.239 1_565 S
C289 O302 1.263 . S
O290 Tb280 2.325 . S
O290 C300 1.236 . S
O291 Tb281 2.322 . S
O291 C300 1.257 1_545 S
O292 Tb281 2.349 . S
O292 C303 1.261 . S
O293 Tb280 2.303 1_545 S
O293 C303 1.257 . S
O294 Tb281 2.415 1_565 S
O294 C310 1.239 1_565 S
O295 Tb281 2.399 . S
O295 C310 1.263 . S
O296 Tb281 2.325 . S
O296 C311 1.236 1_545 S
O297 Tb280 2.322 . S
O297 C311 1.257 . S
O298 Tb280 2.349 . S
O298 C282 1.261 . S
O299 Tb281 2.303 1_565 S
O299 C282 1.257 . S
C300 O290 1.236 . S
C300 O291 1.257 1_565 S
O301 Tb280 2.415 1_545 S
O301 C289 1.239 1_545 S
O302 Tb280 2.399 . S
O302 C289 1.263 . S
C303 O292 1.261 . S
C303 O293 1.257 . S
C304 C307 1.358 . S
C304 C308 1.332 1_545 S
C304 C310 1.504 . S
C305 C306 1.373 . S
C305 C309 1.308 1_545 S
C306 C305 1.373 . S
C306 C307 1.429 . S
C306 H316 0.932 1_455 S
C307 C304 1.358 . S
C307 C306 1.429 . S
C307 H317 0.930 . S
C308 C304 1.332 1_565 S
C308 C309 1.394 . S
C308 H318 0.932 . S
C309 C305 1.308 1_565 S
C309 C308 1.394 . S
C309 H319 0.929 . S
C310 Tb281 2.764 . S
C310 O294 1.239 1_545 S
C310 O295 1.263 . S
C310 C304 1.504 . S
C311 O296 1.236 1_565 S
C311 O297 1.257 . S
H312 C285 0.932 . S
H313 C286 0.930 . S
H314 C287 0.932 . S
H315 C288 0.929 . S
H316 C306 0.932 1_655 S
H317 C307 0.930 . S
H318 C308 0.932 . S
H319 C309 0.929 . S
Tb320 C329 2.764 . S
Tb320 O330 2.325 . S
Tb320 O333 2.303 . S
Tb320 O337 2.322 . S
Tb320 O338 2.349 . S
Tb320 O341 2.415 . S
Tb320 O342 2.399 . S
Tb321 O331 2.322 . S
Tb321 O332 2.349 . S
Tb321 O334 2.415 . S
Tb321 O335 2.399 . S
Tb321 O336 2.325 . S
Tb321 O339 2.303 . S
Tb321 C350 2.764 . S
C322 O338 1.261 . S
C322 O339 1.257 . S
C323 C326 1.358 . S
C323 C327 1.332 . S
C323 C329 1.504 . S
C324 C325 1.373 . S
C324 C328 1.308 . S
C325 C324 1.373 . S
C325 C326 1.429 . S
C325 H352 0.932 . S
C326 C323 1.358 . S
C326 C325 1.429 . S
C326 H353 0.930 . S
C327 C323 1.332 . S
C327 C328 1.394 . S
C327 H354 0.932 . S
C328 C324 1.308 . S
C328 C327 1.394 . S
C328 H355 0.929 . S
C329 Tb320 2.764 . S
C329 C323 1.504 . S
C329 O341 1.239 . S
C329 O342 1.263 . S
O330 Tb320 2.325 . S
O330 C340 1.236 . S
O331 Tb321 2.322 . S
O331 C340 1.257 . S
O332 Tb321 2.349 . S
O332 C343 1.261 . S
O333 Tb320 2.303 . S
O333 C343 1.257 . S
O334 Tb321 2.415 . S
O334 C350 1.239 . S
O335 Tb321 2.399 . S
O335 C350 1.263 . S
O336 Tb321 2.325 . S
O336 C351 1.236 . S
O337 Tb320 2.322 . S
O337 C351 1.257 . S
O338 Tb320 2.349 . S
O338 C322 1.261 . S
O339 Tb321 2.303 . S
O339 C322 1.257 . S
C340 O330 1.236 . S
C340 O331 1.257 . S
O341 Tb320 2.415 . S
O341 C329 1.239 . S
O342 Tb320 2.399 . S
O342 C329 1.263 . S
C343 O332 1.261 . S
C343 O333 1.257 . S
C344 C347 1.358 . S
C344 C348 1.332 . S
C344 C350 1.504 . S
C345 C346 1.373 . S
C345 C349 1.308 . S
C346 C345 1.373 . S
C346 C347 1.429 . S
C346 H356 0.932 . S
C347 C344 1.358 . S
C347 C346 1.429 . S
C347 H357 0.930 . S
C348 C344 1.332 . S
C348 C349 1.394 . S
C348 H358 0.932 . S
C349 C345 1.308 . S
C349 C348 1.394 . S
C349 H359 0.929 . S
C350 Tb321 2.764 . S
C350 O334 1.239 . S
C350 O335 1.263 . S
C350 C344 1.504 . S
C351 O336 1.236 . S
C351 O337 1.257 . S
H352 C325 0.932 . S
H353 C326 0.930 . S
H354 C327 0.932 . S
H355 C328 0.929 . S
H356 C346 0.932 . S
H357 C347 0.930 . S
H358 C348 0.932 . S
H359 C349 0.929 . S
Tb360 C369 2.764 . S
Tb360 O370 2.325 . S
Tb360 O373 2.303 . S
Tb360 O377 2.322 . S
Tb360 O378 2.349 . S
Tb360 O381 2.415 . S
Tb360 O382 2.399 . S
Tb361 O371 2.322 . S
Tb361 O372 2.349 . S
Tb361 O374 2.415 . S
Tb361 O375 2.399 . S
Tb361 O376 2.325 . S
Tb361 O379 2.303 . S
Tb361 C390 2.764 . S
C362 O378 1.261 . S
C362 O379 1.257 . S
C363 C366 1.358 . S
C363 C367 1.332 . S
C363 C369 1.504 . S
C364 C365 1.373 . S
C364 C368 1.308 . S
C365 C364 1.373 . S
C365 C366 1.429 . S
C365 H392 0.932 1_655 S
C366 C363 1.358 . S
C366 C365 1.429 . S
C366 H393 0.930 . S
C367 C363 1.332 . S
C367 C368 1.394 . S
C367 H394 0.932 . S
C368 C364 1.308 . S
C368 C367 1.394 . S
C368 H395 0.929 . S
C369 Tb360 2.764 . S
C369 C363 1.504 . S
C369 O381 1.239 . S
C369 O382 1.263 . S
O370 Tb360 2.325 . S
O370 C380 1.236 . S
O371 Tb361 2.322 . S
O371 C380 1.257 . S
O372 Tb361 2.349 . S
O372 C383 1.261 . S
O373 Tb360 2.303 . S
O373 C383 1.257 . S
O374 Tb361 2.415 . S
O374 C390 1.239 . S
O375 Tb361 2.399 . S
O375 C390 1.263 . S
O376 Tb361 2.325 . S
O376 C391 1.236 . S
O377 Tb360 2.322 . S
O377 C391 1.257 . S
O378 Tb360 2.349 . S
O378 C362 1.261 . S
O379 Tb361 2.303 . S
O379 C362 1.257 . S
C380 O370 1.236 . S
C380 O371 1.257 . S
O381 Tb360 2.415 . S
O381 C369 1.239 . S
O382 Tb360 2.399 . S
O382 C369 1.263 . S
C383 O372 1.261 . S
C383 O373 1.257 . S
C384 C387 1.358 . S
C384 C388 1.332 . S
C384 C390 1.504 . S
C385 C386 1.373 . S
C385 C389 1.308 . S
C386 C385 1.373 . S
C386 C387 1.429 . S
C386 H396 0.932 . S
C387 C384 1.358 . S
C387 C386 1.429 . S
C387 H397 0.930 . S
C388 C384 1.332 . S
C388 C389 1.394 . S
C388 H398 0.932 . S
C389 C385 1.308 . S
C389 C388 1.394 . S
C389 H399 0.929 . S
C390 Tb361 2.764 . S
C390 O374 1.239 . S
C390 O375 1.263 . S
C390 C384 1.504 . S
C391 O376 1.236 . S
C391 O377 1.257 . S
H392 C365 0.932 1_455 S
H393 C366 0.930 . S
H394 C367 0.932 . S
H395 C368 0.929 . S
H396 C386 0.932 . S
H397 C387 0.930 . S
H398 C388 0.932 . S
H399 C389 0.929 . S
Tb400 C409 2.764 . S
Tb400 O410 2.325 . S
Tb400 O413 2.303 . S
Tb400 O417 2.322 . S
Tb400 O418 2.349 . S
Tb400 O421 2.415 . S
Tb400 O422 2.399 . S
Tb401 O411 2.322 . S
Tb401 O412 2.349 . S
Tb401 O414 2.415 . S
Tb401 O415 2.399 . S
Tb401 O416 2.325 . S
Tb401 O419 2.303 . S
Tb401 C430 2.764 . S
C402 O418 1.261 . S
C402 O419 1.257 . S
C403 C406 1.358 . S
C403 C407 1.332 . S
C403 C409 1.504 . S
C404 C405 1.373 . S
C404 C408 1.308 . S
C405 C404 1.373 . S
C405 C406 1.429 . S
C405 H432 0.932 . S
C406 C403 1.358 . S
C406 C405 1.429 . S
C406 H433 0.930 . S
C407 C403 1.332 . S
C407 C408 1.394 . S
C407 H434 0.932 . S
C408 C404 1.308 . S
C408 C407 1.394 . S
C408 H435 0.929 . S
C409 Tb400 2.764 . S
C409 C403 1.504 . S
C409 O421 1.239 . S
C409 O422 1.263 . S
O410 Tb400 2.325 . S
O410 C420 1.236 . S
O411 Tb401 2.322 . S
O411 C420 1.257 . S
O412 Tb401 2.349 . S
O412 C423 1.261 . S
O413 Tb400 2.303 . S
O413 C423 1.257 . S
O414 Tb401 2.415 . S
O414 C430 1.239 . S
O415 Tb401 2.399 . S
O415 C430 1.263 . S
O416 Tb401 2.325 . S
O416 C431 1.236 . S
O417 Tb400 2.322 . S
O417 C431 1.257 . S
O418 Tb400 2.349 . S
O418 C402 1.261 . S
O419 Tb401 2.303 . S
O419 C402 1.257 . S
C420 O410 1.236 . S
C420 O411 1.257 . S
O421 Tb400 2.415 . S
O421 C409 1.239 . S
O422 Tb400 2.399 . S
O422 C409 1.263 . S
C423 O412 1.261 . S
C423 O413 1.257 . S
C424 C427 1.358 . S
C424 C428 1.332 . S
C424 C430 1.504 . S
C425 C426 1.373 . S
C425 C429 1.308 . S
C426 C425 1.373 . S
C426 C427 1.429 . S
C426 H436 0.932 . S
C427 C424 1.358 . S
C427 C426 1.429 . S
C427 H437 0.930 . S
C428 C424 1.332 . S
C428 C429 1.394 . S
C428 H438 0.932 . S
C429 C425 1.308 . S
C429 C428 1.394 . S
C429 H439 0.929 . S
C430 Tb401 2.764 . S
C430 O414 1.239 . S
C430 O415 1.263 . S
C430 C424 1.504 . S
C431 O416 1.236 . S
C431 O417 1.257 . S
H432 C405 0.932 . S
H433 C406 0.930 . S
H434 C407 0.932 . S
H435 C408 0.929 . S
H436 C426 0.932 . S
H437 C427 0.930 . S
H438 C428 0.932 . S
H439 C429 0.929 . S
Tb440 C449 2.764 . S
Tb440 O450 2.325 . S
Tb440 O453 2.303 . S
Tb440 O457 2.322 . S
Tb440 O458 2.349 . S
Tb440 O461 2.415 . S
Tb440 O462 2.399 . S
Tb441 O451 2.322 . S
Tb441 O452 2.349 . S
Tb441 O454 2.415 . S
Tb441 O455 2.399 . S
Tb441 O456 2.325 . S
Tb441 O459 2.303 . S
Tb441 C470 2.764 . S
C442 O458 1.261 . S
C442 O459 1.257 . S
C443 C446 1.358 . S
C443 C447 1.332 . S
C443 C449 1.504 . S
C444 C445 1.373 . S
C444 C448 1.308 . S
C445 C444 1.373 . S
C445 C446 1.429 . S
C445 H472 0.932 1_655 S
C446 C443 1.358 . S
C446 C445 1.429 . S
C446 H473 0.930 . S
C447 C443 1.332 . S
C447 C448 1.394 . S
C447 H474 0.932 . S
C448 C444 1.308 . S
C448 C447 1.394 . S
C448 H475 0.929 . S
C449 Tb440 2.764 . S
C449 C443 1.504 . S
C449 O461 1.239 . S
C449 O462 1.263 . S
O450 Tb440 2.325 . S
O450 C460 1.236 . S
O451 Tb441 2.322 . S
O451 C460 1.257 . S
O452 Tb441 2.349 . S
O452 C463 1.261 . S
O453 Tb440 2.303 . S
O453 C463 1.257 . S
O454 Tb441 2.415 . S
O454 C470 1.239 . S
O455 Tb441 2.399 . S
O455 C470 1.263 . S
O456 Tb441 2.325 . S
O456 C471 1.236 . S
O457 Tb440 2.322 . S
O457 C471 1.257 . S
O458 Tb440 2.349 . S
O458 C442 1.261 . S
O459 Tb441 2.303 . S
O459 C442 1.257 . S
C460 O450 1.236 . S
C460 O451 1.257 . S
O461 Tb440 2.415 . S
O461 C449 1.239 . S
O462 Tb440 2.399 . S
O462 C449 1.263 . S
C463 O452 1.261 . S
C463 O453 1.257 . S
C464 C467 1.358 . S
C464 C468 1.332 . S
C464 C470 1.504 . S
C465 C466 1.373 . S
C465 C469 1.308 . S
C466 C465 1.373 . S
C466 C467 1.429 . S
C466 H476 0.932 . S
C467 C464 1.358 . S
C467 C466 1.429 . S
C467 H477 0.930 . S
C468 C464 1.332 . S
C468 C469 1.394 . S
C468 H478 0.932 . S
C469 C465 1.308 . S
C469 C468 1.394 . S
C469 H479 0.929 . S
C470 Tb441 2.764 . S
C470 O454 1.239 . S
C470 O455 1.263 . S
C470 C464 1.504 . S
C471 O456 1.236 . S
C471 O457 1.257 . S
H472 C445 0.932 1_455 S
H473 C446 0.930 . S
H474 C447 0.932 . S
H475 C448 0.929 . S
H476 C466 0.932 . S
H477 C467 0.930 . S
H478 C468 0.932 . S
H479 C469 0.929 . S
Tb480 C489 2.764 . S
Tb480 O490 2.325 . S
Tb480 O493 2.303 . S
Tb480 O497 2.322 . S
Tb480 O498 2.349 . S
Tb480 O501 2.415 . S
Tb480 O502 2.399 . S
Tb481 O491 2.322 . S
Tb481 O492 2.349 . S
Tb481 O494 2.415 . S
Tb481 O495 2.399 . S
Tb481 O496 2.325 . S
Tb481 O499 2.303 . S
Tb481 C510 2.764 . S
C482 O498 1.261 . S
C482 O499 1.257 . S
C483 C486 1.358 . S
C483 C487 1.332 . S
C483 C489 1.504 . S
C484 C485 1.373 . S
C484 C488 1.308 . S
C485 C484 1.373 . S
C485 C486 1.429 . S
C485 H512 0.932 . S
C486 C483 1.358 . S
C486 C485 1.429 . S
C486 H513 0.930 . S
C487 C483 1.332 . S
C487 C488 1.394 . S
C487 H514 0.932 . S
C488 C484 1.308 . S
C488 C487 1.394 . S
C488 H515 0.929 . S
C489 Tb480 2.764 . S
C489 C483 1.504 . S
C489 O501 1.239 . S
C489 O502 1.263 . S
O490 Tb480 2.325 . S
O490 C500 1.236 . S
O491 Tb481 2.322 . S
O491 C500 1.257 . S
O492 Tb481 2.349 . S
O492 C503 1.261 . S
O493 Tb480 2.303 . S
O493 C503 1.257 . S
O494 Tb481 2.415 . S
O494 C510 1.239 . S
O495 Tb481 2.399 . S
O495 C510 1.263 . S
O496 Tb481 2.325 . S
O496 C511 1.236 . S
O497 Tb480 2.322 . S
O497 C511 1.257 . S
O498 Tb480 2.349 . S
O498 C482 1.261 . S
O499 Tb481 2.303 . S
O499 C482 1.257 . S
C500 O490 1.236 . S
C500 O491 1.257 . S
O501 Tb480 2.415 . S
O501 C489 1.239 . S
O502 Tb480 2.399 . S
O502 C489 1.263 . S
C503 O492 1.261 . S
C503 O493 1.257 . S
C504 C507 1.358 . S
C504 C508 1.332 . S
C504 C510 1.504 . S
C505 C506 1.373 . S
C505 C509 1.308 . S
C506 C505 1.373 . S
C506 C507 1.429 . S
C506 H516 0.932 . S
C507 C504 1.358 . S
C507 C506 1.429 . S
C507 H517 0.930 . S
C508 C504 1.332 . S
C508 C509 1.394 . S
C508 H518 0.932 . S
C509 C505 1.308 . S
C509 C508 1.394 . S
C509 H519 0.929 . S
C510 Tb481 2.764 . S
C510 O494 1.239 . S
C510 O495 1.263 . S
C510 C504 1.504 . S
C511 O496 1.236 . S
C511 O497 1.257 . S
H512 C485 0.932 . S
H513 C486 0.930 . S
H514 C487 0.932 . S
H515 C488 0.929 . S
H516 C506 0.932 . S
H517 C507 0.930 . S
H518 C508 0.932 . S
H519 C509 0.929 . S
Tb520 C529 2.764 . S
Tb520 O530 2.325 . S
Tb520 O533 2.303 . S
Tb520 O537 2.322 . S
Tb520 O538 2.349 . S
Tb520 O541 2.415 . S
Tb520 O542 2.399 . S
Tb521 O531 2.322 . S
Tb521 O532 2.349 . S
Tb521 O534 2.415 . S
Tb521 O535 2.399 . S
Tb521 O536 2.325 . S
Tb521 O539 2.303 . S
Tb521 C550 2.764 . S
C522 O538 1.261 . S
C522 O539 1.257 . S
C523 C526 1.358 . S
C523 C527 1.332 . S
C523 C529 1.504 . S
C524 C525 1.373 . S
C524 C528 1.308 . S
C525 C524 1.373 . S
C525 C526 1.429 . S
C525 H552 0.932 . S
C526 C523 1.358 . S
C526 C525 1.429 . S
C526 H553 0.930 . S
C527 C523 1.332 . S
C527 C528 1.394 . S
C527 H554 0.932 . S
C528 C524 1.308 . S
C528 C527 1.394 . S
C528 H555 0.929 . S
C529 Tb520 2.764 . S
C529 C523 1.504 . S
C529 O541 1.239 . S
C529 O542 1.263 . S
O530 Tb520 2.325 . S
O530 C540 1.236 . S
O531 Tb521 2.322 . S
O531 C540 1.257 . S
O532 Tb521 2.349 . S
O532 C543 1.261 . S
O533 Tb520 2.303 . S
O533 C543 1.257 . S
O534 Tb521 2.415 . S
O534 C550 1.239 . S
O535 Tb521 2.399 . S
O535 C550 1.263 . S
O536 Tb521 2.325 . S
O536 C551 1.236 . S
O537 Tb520 2.322 . S
O537 C551 1.257 . S
O538 Tb520 2.349 . S
O538 C522 1.261 . S
O539 Tb521 2.303 . S
O539 C522 1.257 . S
C540 O530 1.236 . S
C540 O531 1.257 . S
O541 Tb520 2.415 . S
O541 C529 1.239 . S
O542 Tb520 2.399 . S
O542 C529 1.263 . S
C543 O532 1.261 . S
C543 O533 1.257 . S
C544 C547 1.358 . S
C544 C548 1.332 . S
C544 C550 1.504 . S
C545 C546 1.373 . S
C545 C549 1.308 . S
C546 C545 1.373 . S
C546 C547 1.429 . S
C546 H556 0.932 1_455 S
C547 C544 1.358 . S
C547 C546 1.429 . S
C547 H557 0.930 . S
C548 C544 1.332 . S
C548 C549 1.394 . S
C548 H558 0.932 . S
C549 C545 1.308 . S
C549 C548 1.394 . S
C549 H559 0.929 . S
C550 Tb521 2.764 . S
C550 O534 1.239 . S
C550 O535 1.263 . S
C550 C544 1.504 . S
C551 O536 1.236 . S
C551 O537 1.257 . S
H552 C525 0.932 . S
H553 C526 0.930 . S
H554 C527 0.932 . S
H555 C528 0.929 . S
H556 C546 0.932 1_655 S
H557 C547 0.930 . S
H558 C548 0.932 . S
H559 C549 0.929 . S
Tb560 C569 2.764 . S
Tb560 O570 2.325 . S
Tb560 O573 2.303 . S
Tb560 O577 2.322 . S
Tb560 O578 2.349 . S
Tb560 O581 2.415 . S
Tb560 O582 2.399 . S
Tb561 O571 2.322 . S
Tb561 O572 2.349 . S
Tb561 O574 2.415 . S
Tb561 O575 2.399 . S
Tb561 O576 2.325 . S
Tb561 O579 2.303 . S
Tb561 C590 2.764 . S
C562 O578 1.261 . S
C562 O579 1.257 . S
C563 C566 1.358 . S
C563 C567 1.332 . S
C563 C569 1.504 . S
C564 C565 1.373 . S
C564 C568 1.308 . S
C565 C564 1.373 . S
C565 C566 1.429 . S
C565 H592 0.932 . S
C566 C563 1.358 . S
C566 C565 1.429 . S
C566 H593 0.930 . S
C567 C563 1.332 . S
C567 C568 1.394 . S
C567 H594 0.932 . S
C568 C564 1.308 . S
C568 C567 1.394 . S
C568 H595 0.929 . S
C569 Tb560 2.764 . S
C569 C563 1.504 . S
C569 O581 1.239 . S
C569 O582 1.263 . S
O570 Tb560 2.325 . S
O570 C580 1.236 . S
O571 Tb561 2.322 . S
O571 C580 1.257 . S
O572 Tb561 2.349 . S
O572 C583 1.261 . S
O573 Tb560 2.303 . S
O573 C583 1.257 . S
O574 Tb561 2.415 . S
O574 C590 1.239 . S
O575 Tb561 2.399 . S
O575 C590 1.263 . S
O576 Tb561 2.325 . S
O576 C591 1.236 . S
O577 Tb560 2.322 . S
O577 C591 1.257 . S
O578 Tb560 2.349 . S
O578 C562 1.261 . S
O579 Tb561 2.303 . S
O579 C562 1.257 . S
C580 O570 1.236 . S
C580 O571 1.257 . S
O581 Tb560 2.415 . S
O581 C569 1.239 . S
O582 Tb560 2.399 . S
O582 C569 1.263 . S
C583 O572 1.261 . S
C583 O573 1.257 . S
C584 C587 1.358 . S
C584 C588 1.332 . S
C584 C590 1.504 . S
C585 C586 1.373 . S
C585 C589 1.308 . S
C586 C585 1.373 . S
C586 C587 1.429 . S
C586 H596 0.932 . S
C587 C584 1.358 . S
C587 C586 1.429 . S
C587 H597 0.930 . S
C588 C584 1.332 . S
C588 C589 1.394 . S
C588 H598 0.932 . S
C589 C585 1.308 . S
C589 C588 1.394 . S
C589 H599 0.929 . S
C590 Tb561 2.764 . S
C590 O574 1.239 . S
C590 O575 1.263 . S
C590 C584 1.504 . S
C591 O576 1.236 . S
C591 O577 1.257 . S
H592 C565 0.932 . S
H593 C566 0.930 . S
H594 C567 0.932 . S
H595 C568 0.929 . S
H596 C586 0.932 . S
H597 C587 0.930 . S
H598 C588 0.932 . S
H599 C589 0.929 . S
Tb600 C609 2.764 . S
Tb600 O610 2.325 . S
Tb600 O613 2.303 . S
Tb600 O617 2.322 . S
Tb600 O618 2.349 . S
Tb600 O621 2.415 . S
Tb600 O622 2.399 . S
Tb601 O611 2.322 . S
Tb601 O612 2.349 . S
Tb601 O614 2.415 . S
Tb601 O615 2.399 . S
Tb601 O616 2.325 . S
Tb601 O619 2.303 . S
Tb601 C630 2.764 . S
C602 O618 1.261 . S
C602 O619 1.257 . S
C603 C606 1.358 . S
C603 C607 1.332 . S
C603 C609 1.504 . S
C604 C605 1.373 . S
C604 C608 1.308 . S
C605 C604 1.373 . S
C605 C606 1.429 . S
C605 H632 0.932 . S
C606 C603 1.358 . S
C606 C605 1.429 . S
C606 H633 0.930 . S
C607 C603 1.332 . S
C607 C608 1.394 . S
C607 H634 0.932 . S
C608 C604 1.308 . S
C608 C607 1.394 . S
C608 H635 0.929 . S
C609 Tb600 2.764 . S
C609 C603 1.504 . S
C609 O621 1.239 . S
C609 O622 1.263 . S
O610 Tb600 2.325 . S
O610 C620 1.236 . S
O611 Tb601 2.322 . S
O611 C620 1.257 . S
O612 Tb601 2.349 . S
O612 C623 1.261 . S
O613 Tb600 2.303 . S
O613 C623 1.257 . S
O614 Tb601 2.415 . S
O614 C630 1.239 . S
O615 Tb601 2.399 . S
O615 C630 1.263 . S
O616 Tb601 2.325 . S
O616 C631 1.236 . S
O617 Tb600 2.322 . S
O617 C631 1.257 . S
O618 Tb600 2.349 . S
O618 C602 1.261 . S
O619 Tb601 2.303 . S
O619 C602 1.257 . S
C620 O610 1.236 . S
C620 O611 1.257 . S
O621 Tb600 2.415 . S
O621 C609 1.239 . S
O622 Tb600 2.399 . S
O622 C609 1.263 . S
C623 O612 1.261 . S
C623 O613 1.257 . S
C624 C627 1.358 . S
C624 C628 1.332 . S
C624 C630 1.504 . S
C625 C626 1.373 . S
C625 C629 1.308 . S
C626 C625 1.373 . S
C626 C627 1.429 . S
C626 H636 0.932 1_455 S
C627 C624 1.358 . S
C627 C626 1.429 . S
C627 H637 0.930 . S
C628 C624 1.332 . S
C628 C629 1.394 . S
C628 H638 0.932 . S
C629 C625 1.308 . S
C629 C628 1.394 . S
C629 H639 0.929 . S
C630 Tb601 2.764 . S
C630 O614 1.239 . S
C630 O615 1.263 . S
C630 C624 1.504 . S
C631 O616 1.236 . S
C631 O617 1.257 . S
H632 C605 0.932 . S
H633 C606 0.930 . S
H634 C607 0.932 . S
H635 C608 0.929 . S
H636 C626 0.932 1_655 S
H637 C627 0.930 . S
H638 C628 0.932 . S
H639 C629 0.929 . S
Tb640 C649 2.764 . S
Tb640 O650 2.325 . S
Tb640 O653 2.303 1_565 S
Tb640 O657 2.322 . S
Tb640 O658 2.349 . S
Tb640 O661 2.415 1_565 S
Tb640 O662 2.399 . S
Tb641 O651 2.322 . S
Tb641 O652 2.349 . S
Tb641 O654 2.415 1_545 S
Tb641 O655 2.399 . S
Tb641 O656 2.325 . S
Tb641 O659 2.303 1_545 S
Tb641 C670 2.764 . S
C642 O658 1.261 . S
C642 O659 1.257 . S
C643 C646 1.358 . S
C643 C647 1.332 1_565 S
C643 C649 1.504 . S
C644 C645 1.373 . S
C644 C648 1.308 1_565 S
C645 C644 1.373 . S
C645 C646 1.429 . S
C645 H672 0.932 . S
C646 C643 1.358 . S
C646 C645 1.429 . S
C646 H673 0.930 . S
C647 C643 1.332 1_545 S
C647 C648 1.394 . S
C647 H674 0.932 . S
C648 C644 1.308 1_545 S
C648 C647 1.394 . S
C648 H675 0.929 . S
C649 Tb640 2.764 . S
C649 C643 1.504 . S
C649 O661 1.239 1_565 S
C649 O662 1.263 . S
O650 Tb640 2.325 . S
O650 C660 1.236 1_565 S
O651 Tb641 2.322 . S
O651 C660 1.257 . S
O652 Tb641 2.349 . S
O652 C663 1.261 . S
O653 Tb640 2.303 1_545 S
O653 C663 1.257 . S
O654 Tb641 2.415 1_565 S
O654 C670 1.239 1_565 S
O655 Tb641 2.399 . S
O655 C670 1.263 . S
O656 Tb641 2.325 . S
O656 C671 1.236 . S
O657 Tb640 2.322 . S
O657 C671 1.257 1_565 S
O658 Tb640 2.349 . S
O658 C642 1.261 . S
O659 Tb641 2.303 1_565 S
O659 C642 1.257 . S
C660 O650 1.236 1_545 S
C660 O651 1.257 . S
O661 Tb640 2.415 1_545 S
O661 C649 1.239 1_545 S
O662 Tb640 2.399 . S
O662 C649 1.263 . S
C663 O652 1.261 . S
C663 O653 1.257 . S
C664 C667 1.358 . S
C664 C668 1.332 1_545 S
C664 C670 1.504 . S
C665 C666 1.373 . S
C665 C669 1.308 1_545 S
C666 C665 1.373 . S
C666 C667 1.429 . S
C666 H676 0.932 . S
C667 C664 1.358 . S
C667 C666 1.429 . S
C667 H677 0.930 . S
C668 C664 1.332 1_565 S
C668 C669 1.394 . S
C668 H678 0.932 . S
C669 C665 1.308 1_565 S
C669 C668 1.394 . S
C669 H679 0.929 . S
C670 Tb641 2.764 . S
C670 O654 1.239 1_545 S
C670 O655 1.263 . S
C670 C664 1.504 . S
C671 O656 1.236 . S
C671 O657 1.257 1_545 S
H672 C645 0.932 . S
H673 C646 0.930 . S
H674 C647 0.932 . S
H675 C648 0.929 . S
H676 C666 0.932 . S
H677 C667 0.930 . S
H678 C668 0.932 . S
H679 C669 0.929 . S
Tb680 C689 2.764 . S
Tb680 O690 2.325 . S
Tb680 O693 2.303 . S
Tb680 O697 2.322 . S
Tb680 O698 2.349 . S
Tb680 O701 2.415 . S
Tb680 O702 2.399 . S
Tb681 O691 2.322 . S
Tb681 O692 2.349 . S
Tb681 O694 2.415 . S
Tb681 O695 2.399 . S
Tb681 O696 2.325 . S
Tb681 O699 2.303 . S
Tb681 C710 2.764 . S
C682 O698 1.261 . S
C682 O699 1.257 . S
C683 C686 1.358 . S
C683 C687 1.332 . S
C683 C689 1.504 . S
C684 C685 1.373 . S
C684 C688 1.308 . S
C685 C684 1.373 . S
C685 C686 1.429 . S
C685 H712 0.932 . S
C686 C683 1.358 . S
C686 C685 1.429 . S
C686 H713 0.930 . S
C687 C683 1.332 . S
C687 C688 1.394 . S
C687 H714 0.932 . S
C688 C684 1.308 . S
C688 C687 1.394 . S
C688 H715 0.929 . S
C689 Tb680 2.764 . S
C689 C683 1.504 . S
C689 O701 1.239 . S
C689 O702 1.263 . S
O690 Tb680 2.325 . S
O690 C700 1.236 . S
O691 Tb681 2.322 . S
O691 C700 1.257 . S
O692 Tb681 2.349 . S
O692 C703 1.261 . S
O693 Tb680 2.303 . S
O693 C703 1.257 . S
O694 Tb681 2.415 . S
O694 C710 1.239 . S
O695 Tb681 2.399 . S
O695 C710 1.263 . S
O696 Tb681 2.325 . S
O696 C711 1.236 . S
O697 Tb680 2.322 . S
O697 C711 1.257 . S
O698 Tb680 2.349 . S
O698 C682 1.261 . S
O699 Tb681 2.303 . S
O699 C682 1.257 . S
C700 O690 1.236 . S
C700 O691 1.257 . S
O701 Tb680 2.415 . S
O701 C689 1.239 . S
O702 Tb680 2.399 . S
O702 C689 1.263 . S
C703 O692 1.261 . S
C703 O693 1.257 . S
C704 C707 1.358 . S
C704 C708 1.332 . S
C704 C710 1.504 . S
C705 C706 1.373 . S
C705 C709 1.308 . S
C706 C705 1.373 . S
C706 C707 1.429 . S
C706 H716 0.932 . S
C707 C704 1.358 . S
C707 C706 1.429 . S
C707 H717 0.930 . S
C708 C704 1.332 . S
C708 C709 1.394 . S
C708 H718 0.932 . S
C709 C705 1.308 . S
C709 C708 1.394 . S
C709 H719 0.929 . S
C710 Tb681 2.764 . S
C710 O694 1.239 . S
C710 O695 1.263 . S
C710 C704 1.504 . S
C711 O696 1.236 . S
C711 O697 1.257 . S
H712 C685 0.932 . S
H713 C686 0.930 . S
H714 C687 0.932 . S
H715 C688 0.929 . S
H716 C706 0.932 . S
H717 C707 0.930 . S
H718 C708 0.932 . S
H719 C709 0.929 . S
Tb720 C729 2.764 . S
Tb720 O730 2.325 . S
Tb720 O733 2.303 . S
Tb720 O737 2.322 . S
Tb720 O738 2.349 . S
Tb720 O741 2.415 . S
Tb720 O742 2.399 . S
Tb721 O731 2.322 . S
Tb721 O732 2.349 . S
Tb721 O734 2.415 . S
Tb721 O735 2.399 . S
Tb721 O736 2.325 . S
Tb721 O739 2.303 . S
Tb721 C750 2.764 . S
C722 O738 1.261 . S
C722 O739 1.257 . S
C723 C726 1.358 . S
C723 C727 1.332 . S
C723 C729 1.504 . S
C724 C725 1.373 . S
C724 C728 1.308 . S
C725 C724 1.373 . S
C725 C726 1.429 . S
C725 H752 0.932 . S
C726 C723 1.358 . S
C726 C725 1.429 . S
C726 H753 0.930 . S
C727 C723 1.332 . S
C727 C728 1.394 . S
C727 H754 0.932 . S
C728 C724 1.308 . S
C728 C727 1.394 . S
C728 H755 0.929 . S
C729 Tb720 2.764 . S
C729 C723 1.504 . S
C729 O741 1.239 . S
C729 O742 1.263 . S
O730 Tb720 2.325 . S
O730 C740 1.236 . S
O731 Tb721 2.322 . S
O731 C740 1.257 . S
O732 Tb721 2.349 . S
O732 C743 1.261 . S
O733 Tb720 2.303 . S
O733 C743 1.257 . S
O734 Tb721 2.415 . S
O734 C750 1.239 . S
O735 Tb721 2.399 . S
O735 C750 1.263 . S
O736 Tb721 2.325 . S
O736 C751 1.236 . S
O737 Tb720 2.322 . S
O737 C751 1.257 . S
O738 Tb720 2.349 . S
O738 C722 1.261 . S
O739 Tb721 2.303 . S
O739 C722 1.257 . S
C740 O730 1.236 . S
C740 O731 1.257 . S
O741 Tb720 2.415 . S
O741 C729 1.239 . S
O742 Tb720 2.399 . S
O742 C729 1.263 . S
C743 O732 1.261 . S
C743 O733 1.257 . S
C744 C747 1.358 . S
C744 C748 1.332 . S
C744 C750 1.504 . S
C745 C746 1.373 . S
C745 C749 1.308 . S
C746 C745 1.373 . S
C746 C747 1.429 . S
C746 H756 0.932 . S
C747 C744 1.358 . S
C747 C746 1.429 . S
C747 H757 0.930 . S
C748 C744 1.332 . S
C748 C749 1.394 . S
C748 H758 0.932 . S
C749 C745 1.308 . S
C749 C748 1.394 . S
C749 H759 0.929 . S
C750 Tb721 2.764 . S
C750 O734 1.239 . S
C750 O735 1.263 . S
C750 C744 1.504 . S
C751 O736 1.236 . S
C751 O737 1.257 . S
H752 C725 0.932 . S
H753 C726 0.930 . S
H754 C727 0.932 . S
H755 C728 0.929 . S
H756 C746 0.932 . S
H757 C747 0.930 . S
H758 C748 0.932 . S
H759 C749 0.929 . S
Tb760 C769 2.764 . S
Tb760 O770 2.325 . S
Tb760 O773 2.303 1_565 S
Tb760 O777 2.322 . S
Tb760 O778 2.349 . S
Tb760 O781 2.415 1_565 S
Tb760 O782 2.399 . S
Tb761 O771 2.322 . S
Tb761 O772 2.349 . S
Tb761 O774 2.415 1_545 S
Tb761 O775 2.399 . S
Tb761 O776 2.325 . S
Tb761 O779 2.303 1_545 S
Tb761 C790 2.764 . S
C762 O778 1.261 . S
C762 O779 1.257 . S
C763 C766 1.358 . S
C763 C767 1.332 1_565 S
C763 C769 1.504 . S
C764 C765 1.373 . S
C764 C768 1.308 1_565 S
C765 C764 1.373 . S
C765 C766 1.429 . S
C765 H792 0.932 . S
C766 C763 1.358 . S
C766 C765 1.429 . S
C766 H793 0.930 . S
C767 C763 1.332 1_545 S
C767 C768 1.394 . S
C767 H794 0.932 . S
C768 C764 1.308 1_545 S
C768 C767 1.394 . S
C768 H795 0.929 . S
C769 Tb760 2.764 . S
C769 C763 1.504 . S
C769 O781 1.239 1_565 S
C769 O782 1.263 . S
O770 Tb760 2.325 . S
O770 C780 1.236 1_565 S
O771 Tb761 2.322 . S
O771 C780 1.257 . S
O772 Tb761 2.349 . S
O772 C783 1.261 . S
O773 Tb760 2.303 1_545 S
O773 C783 1.257 . S
O774 Tb761 2.415 1_565 S
O774 C790 1.239 1_565 S
O775 Tb761 2.399 . S
O775 C790 1.263 . S
O776 Tb761 2.325 . S
O776 C791 1.236 . S
O777 Tb760 2.322 . S
O777 C791 1.257 1_565 S
O778 Tb760 2.349 . S
O778 C762 1.261 . S
O779 Tb761 2.303 1_565 S
O779 C762 1.257 . S
C780 O770 1.236 1_545 S
C780 O771 1.257 . S
O781 Tb760 2.415 1_545 S
O781 C769 1.239 1_545 S
O782 Tb760 2.399 . S
O782 C769 1.263 . S
C783 O772 1.261 . S
C783 O773 1.257 . S
C784 C787 1.358 . S
C784 C788 1.332 1_545 S
C784 C790 1.504 . S
C785 C786 1.373 . S
C785 C789 1.308 1_545 S
C786 C785 1.373 . S
C786 C787 1.429 . S
C786 H796 0.932 . S
C787 C784 1.358 . S
C787 C786 1.429 . S
C787 H797 0.930 . S
C788 C784 1.332 1_565 S
C788 C789 1.394 . S
C788 H798 0.932 . S
C789 C785 1.308 1_565 S
C789 C788 1.394 . S
C789 H799 0.929 . S
C790 Tb761 2.764 . S
C790 O774 1.239 1_545 S
C790 O775 1.263 . S
C790 C784 1.504 . S
C791 O776 1.236 . S
C791 O777 1.257 1_545 S
H792 C765 0.932 . S
H793 C766 0.930 . S
H794 C767 0.932 . S
H795 C768 0.929 . S
H796 C786 0.932 . S
H797 C787 0.930 . S
H798 C788 0.932 . S
H799 C789 0.929 . S
Tb800 C809 2.764 . S
Tb800 O810 2.325 . S
Tb800 O813 2.303 1_565 S
Tb800 O817 2.322 . S
Tb800 O818 2.349 . S
Tb800 O821 2.415 1_565 S
Tb800 O822 2.399 . S
Tb801 O811 2.322 . S
Tb801 O812 2.349 . S
Tb801 O814 2.415 1_545 S
Tb801 O815 2.399 . S
Tb801 O816 2.325 . S
Tb801 O819 2.303 1_545 S
Tb801 C830 2.764 . S
C802 O818 1.261 . S
C802 O819 1.257 . S
C803 C806 1.358 . S
C803 C807 1.332 1_565 S
C803 C809 1.504 . S
C804 C805 1.373 . S
C804 C808 1.308 1_565 S
C805 C804 1.373 . S
C805 C806 1.429 . S
C805 H832 0.932 . S
C806 C803 1.358 . S
C806 C805 1.429 . S
C806 H833 0.930 . S
C807 C803 1.332 1_545 S
C807 C808 1.394 . S
C807 H834 0.932 . S
C808 C804 1.308 1_545 S
C808 C807 1.394 . S
C808 H835 0.929 . S
C809 Tb800 2.764 . S
C809 C803 1.504 . S
C809 O821 1.239 1_565 S
C809 O822 1.263 . S
O810 Tb800 2.325 . S
O810 C820 1.236 . S
O811 Tb801 2.322 . S
O811 C820 1.257 1_545 S
O812 Tb801 2.349 . S
O812 C823 1.261 . S
O813 Tb800 2.303 1_545 S
O813 C823 1.257 . S
O814 Tb801 2.415 1_565 S
O814 C830 1.239 1_565 S
O815 Tb801 2.399 . S
O815 C830 1.263 . S
O816 Tb801 2.325 . S
O816 C831 1.236 1_545 S
O817 Tb800 2.322 . S
O817 C831 1.257 . S
O818 Tb800 2.349 . S
O818 C802 1.261 . S
O819 Tb801 2.303 1_565 S
O819 C802 1.257 . S
C820 O810 1.236 . S
C820 O811 1.257 1_565 S
O821 Tb800 2.415 1_545 S
O821 C809 1.239 1_545 S
O822 Tb800 2.399 . S
O822 C809 1.263 . S
C823 O812 1.261 . S
C823 O813 1.257 . S
C824 C827 1.358 . S
C824 C828 1.332 1_545 S
C824 C830 1.504 . S
C825 C826 1.373 . S
C825 C829 1.308 1_545 S
C826 C825 1.373 . S
C826 C827 1.429 . S
C826 H836 0.932 . S
C827 C824 1.358 . S
C827 C826 1.429 . S
C827 H837 0.930 . S
C828 C824 1.332 1_565 S
C828 C829 1.394 . S
C828 H838 0.932 . S
C829 C825 1.308 1_565 S
C829 C828 1.394 . S
C829 H839 0.929 . S
C830 Tb801 2.764 . S
C830 O814 1.239 1_545 S
C830 O815 1.263 . S
C830 C824 1.504 . S
C831 O816 1.236 1_565 S
C831 O817 1.257 . S
H832 C805 0.932 . S
H833 C806 0.930 . S
H834 C807 0.932 . S
H835 C808 0.929 . S
H836 C826 0.932 . S
H837 C827 0.930 . S
H838 C828 0.932 . S
H839 C829 0.929 . S
Tb840 C849 2.764 . S
Tb840 O850 2.325 . S
Tb840 O853 2.303 . S
Tb840 O857 2.322 . S
Tb840 O858 2.349 . S
Tb840 O861 2.415 . S
Tb840 O862 2.399 . S
Tb841 O851 2.322 . S
Tb841 O852 2.349 . S
Tb841 O854 2.415 . S
Tb841 O855 2.399 . S
Tb841 O856 2.325 . S
Tb841 O859 2.303 . S
Tb841 C870 2.764 . S
C842 O858 1.261 . S
C842 O859 1.257 . S
C843 C846 1.358 . S
C843 C847 1.332 . S
C843 C849 1.504 . S
C844 C845 1.373 . S
C844 C848 1.308 . S
C845 C844 1.373 . S
C845 C846 1.429 . S
C845 H872 0.932 . S
C846 C843 1.358 . S
C846 C845 1.429 . S
C846 H873 0.930 . S
C847 C843 1.332 . S
C847 C848 1.394 . S
C847 H874 0.932 . S
C848 C844 1.308 . S
C848 C847 1.394 . S
C848 H875 0.929 . S
C849 Tb840 2.764 . S
C849 C843 1.504 . S
C849 O861 1.239 . S
C849 O862 1.263 . S
O850 Tb840 2.325 . S
O850 C860 1.236 . S
O851 Tb841 2.322 . S
O851 C860 1.257 . S
O852 Tb841 2.349 . S
O852 C863 1.261 . S
O853 Tb840 2.303 . S
O853 C863 1.257 . S
O854 Tb841 2.415 . S
O854 C870 1.239 . S
O855 Tb841 2.399 . S
O855 C870 1.263 . S
O856 Tb841 2.325 . S
O856 C871 1.236 . S
O857 Tb840 2.322 . S
O857 C871 1.257 . S
O858 Tb840 2.349 . S
O858 C842 1.261 . S
O859 Tb841 2.303 . S
O859 C842 1.257 . S
C860 O850 1.236 . S
C860 O851 1.257 . S
O861 Tb840 2.415 . S
O861 C849 1.239 . S
O862 Tb840 2.399 . S
O862 C849 1.263 . S
C863 O852 1.261 . S
C863 O853 1.257 . S
C864 C867 1.358 . S
C864 C868 1.332 . S
C864 C870 1.504 . S
C865 C866 1.373 . S
C865 C869 1.308 . S
C866 C865 1.373 . S
C866 C867 1.429 . S
C866 H876 0.932 . S
C867 C864 1.358 . S
C867 C866 1.429 . S
C867 H877 0.930 . S
C868 C864 1.332 . S
C868 C869 1.394 . S
C868 H878 0.932 . S
C869 C865 1.308 . S
C869 C868 1.394 . S
C869 H879 0.929 . S
C870 Tb841 2.764 . S
C870 O854 1.239 . S
C870 O855 1.263 . S
C870 C864 1.504 . S
C871 O856 1.236 . S
C871 O857 1.257 . S
H872 C845 0.932 . S
H873 C846 0.930 . S
H874 C847 0.932 . S
H875 C848 0.929 . S
H876 C866 0.932 . S
H877 C867 0.930 . S
H878 C868 0.932 . S
H879 C869 0.929 . S
Tb880 C889 2.764 . S
Tb880 O890 2.325 . S
Tb880 O893 2.303 . S
Tb880 O897 2.322 . S
Tb880 O898 2.349 . S
Tb880 O901 2.415 . S
Tb880 O902 2.399 . S
Tb881 O891 2.322 . S
Tb881 O892 2.349 . S
Tb881 O894 2.415 . S
Tb881 O895 2.399 . S
Tb881 O896 2.325 . S
Tb881 O899 2.303 . S
Tb881 C910 2.764 . S
C882 O898 1.261 . S
C882 O899 1.257 . S
C883 C886 1.358 . S
C883 C887 1.332 . S
C883 C889 1.504 . S
C884 C885 1.373 . S
C884 C888 1.308 . S
C885 C884 1.373 . S
C885 C886 1.429 . S
C885 H912 0.932 . S
C886 C883 1.358 . S
C886 C885 1.429 . S
C886 H913 0.930 . S
C887 C883 1.332 . S
C887 C888 1.394 . S
C887 H914 0.932 . S
C888 C884 1.308 . S
C888 C887 1.394 . S
C888 H915 0.929 . S
C889 Tb880 2.764 . S
C889 C883 1.504 . S
C889 O901 1.239 . S
C889 O902 1.263 . S
O890 Tb880 2.325 . S
O890 C900 1.236 . S
O891 Tb881 2.322 . S
O891 C900 1.257 . S
O892 Tb881 2.349 . S
O892 C903 1.261 . S
O893 Tb880 2.303 . S
O893 C903 1.257 . S
O894 Tb881 2.415 . S
O894 C910 1.239 . S
O895 Tb881 2.399 . S
O895 C910 1.263 . S
O896 Tb881 2.325 . S
O896 C911 1.236 . S
O897 Tb880 2.322 . S
O897 C911 1.257 . S
O898 Tb880 2.349 . S
O898 C882 1.261 . S
O899 Tb881 2.303 . S
O899 C882 1.257 . S
C900 O890 1.236 . S
C900 O891 1.257 . S
O901 Tb880 2.415 . S
O901 C889 1.239 . S
O902 Tb880 2.399 . S
O902 C889 1.263 . S
C903 O892 1.261 . S
C903 O893 1.257 . S
C904 C907 1.358 . S
C904 C908 1.332 . S
C904 C910 1.504 . S
C905 C906 1.373 . S
C905 C909 1.308 . S
C906 C905 1.373 . S
C906 C907 1.429 . S
C906 H916 0.932 . S
C907 C904 1.358 . S
C907 C906 1.429 . S
C907 H917 0.930 . S
C908 C904 1.332 . S
C908 C909 1.394 . S
C908 H918 0.932 . S
C909 C905 1.308 . S
C909 C908 1.394 . S
C909 H919 0.929 . S
C910 Tb881 2.764 . S
C910 O894 1.239 . S
C910 O895 1.263 . S
C910 C904 1.504 . S
C911 O896 1.236 . S
C911 O897 1.257 . S
H912 C885 0.932 . S
H913 C886 0.930 . S
H914 C887 0.932 . S
H915 C888 0.929 . S
H916 C906 0.932 . S
H917 C907 0.930 . S
H918 C908 0.932 . S
H919 C909 0.929 . S
Tb920 C929 2.764 . S
Tb920 O930 2.325 . S
Tb920 O933 2.303 1_565 S
Tb920 O937 2.322 . S
Tb920 O938 2.349 . S
Tb920 O941 2.415 1_565 S
Tb920 O942 2.399 . S
Tb921 O931 2.322 . S
Tb921 O932 2.349 . S
Tb921 O934 2.415 1_545 S
Tb921 O935 2.399 . S
Tb921 O936 2.325 . S
Tb921 O939 2.303 1_545 S
Tb921 C950 2.764 . S
C922 O938 1.261 . S
C922 O939 1.257 . S
C923 C926 1.358 . S
C923 C927 1.332 1_565 S
C923 C929 1.504 . S
C924 C925 1.373 . S
C924 C928 1.308 1_565 S
C925 C924 1.373 . S
C925 C926 1.429 . S
C925 H952 0.932 . S
C926 C923 1.358 . S
C926 C925 1.429 . S
C926 H953 0.930 . S
C927 C923 1.332 1_545 S
C927 C928 1.394 . S
C927 H954 0.932 . S
C928 C924 1.308 1_545 S
C928 C927 1.394 . S
C928 H955 0.929 . S
C929 Tb920 2.764 . S
C929 C923 1.504 . S
C929 O941 1.239 1_565 S
C929 O942 1.263 . S
O930 Tb920 2.325 . S
O930 C940 1.236 . S
O931 Tb921 2.322 . S
O931 C940 1.257 1_545 S
O932 Tb921 2.349 . S
O932 C943 1.261 . S
O933 Tb920 2.303 1_545 S
O933 C943 1.257 . S
O934 Tb921 2.415 1_565 S
O934 C950 1.239 1_565 S
O935 Tb921 2.399 . S
O935 C950 1.263 . S
O936 Tb921 2.325 . S
O936 C951 1.236 1_545 S
O937 Tb920 2.322 . S
O937 C951 1.257 . S
O938 Tb920 2.349 . S
O938 C922 1.261 . S
O939 Tb921 2.303 1_565 S
O939 C922 1.257 . S
C940 O930 1.236 . S
C940 O931 1.257 1_565 S
O941 Tb920 2.415 1_545 S
O941 C929 1.239 1_545 S
O942 Tb920 2.399 . S
O942 C929 1.263 . S
C943 O932 1.261 . S
C943 O933 1.257 . S
C944 C947 1.358 . S
C944 C948 1.332 1_545 S
C944 C950 1.504 . S
C945 C946 1.373 . S
C945 C949 1.308 1_545 S
C946 C945 1.373 . S
C946 C947 1.429 . S
C946 H956 0.932 . S
C947 C944 1.358 . S
C947 C946 1.429 . S
C947 H957 0.930 . S
C948 C944 1.332 1_565 S
C948 C949 1.394 . S
C948 H958 0.932 . S
C949 C945 1.308 1_565 S
C949 C948 1.394 . S
C949 H959 0.929 . S
C950 Tb921 2.764 . S
C950 O934 1.239 1_545 S
C950 O935 1.263 . S
C950 C944 1.504 . S
C951 O936 1.236 1_565 S
C951 O937 1.257 . S
H952 C925 0.932 . S
H953 C926 0.930 . S
H954 C927 0.932 . S
H955 C928 0.929 . S
H956 C946 0.932 . S
H957 C947 0.930 . S
H958 C948 0.932 . S
H959 C949 0.929 . S
Tb960 C969 2.764 . S
Tb960 O970 2.325 . S
Tb960 O973 2.303 . S
Tb960 O977 2.322 . S
Tb960 O978 2.349 . S
Tb960 O981 2.415 . S
Tb960 O982 2.399 . S
Tb961 O971 2.322 . S
Tb961 O972 2.349 . S
Tb961 O974 2.415 . S
Tb961 O975 2.399 . S
Tb961 O976 2.325 . S
Tb961 O979 2.303 . S
Tb961 C990 2.764 . S
C962 O978 1.261 . S
C962 O979 1.257 . S
C963 C966 1.358 . S
C963 C967 1.332 . S
C963 C969 1.504 . S
C964 C965 1.373 . S
C964 C968 1.308 . S
C965 C964 1.373 . S
C965 C966 1.429 . S
C965 H992 0.932 . S
C966 C963 1.358 . S
C966 C965 1.429 . S
C966 H993 0.930 . S
C967 C963 1.332 . S
C967 C968 1.394 . S
C967 H994 0.932 . S
C968 C964 1.308 . S
C968 C967 1.394 . S
C968 H995 0.929 . S
C969 Tb960 2.764 . S
C969 C963 1.504 . S
C969 O981 1.239 . S
C969 O982 1.263 . S
O970 Tb960 2.325 . S
O970 C980 1.236 . S
O971 Tb961 2.322 . S
O971 C980 1.257 . S
O972 Tb961 2.349 . S
O972 C983 1.261 . S
O973 Tb960 2.303 . S
O973 C983 1.257 . S
O974 Tb961 2.415 . S
O974 C990 1.239 . S
O975 Tb961 2.399 . S
O975 C990 1.263 . S
O976 Tb961 2.325 . S
O976 C991 1.236 . S
O977 Tb960 2.322 . S
O977 C991 1.257 . S
O978 Tb960 2.349 . S
O978 C962 1.261 . S
O979 Tb961 2.303 . S
O979 C962 1.257 . S
C980 O970 1.236 . S
C980 O971 1.257 . S
O981 Tb960 2.415 . S
O981 C969 1.239 . S
O982 Tb960 2.399 . S
O982 C969 1.263 . S
C983 O972 1.261 . S
C983 O973 1.257 . S
C984 C987 1.358 . S
C984 C988 1.332 . S
C984 C990 1.504 1_556 S
C985 C986 1.373 . S
C985 C989 1.308 . S
C986 C985 1.373 . S
C986 C987 1.429 . S
C986 H996 0.932 . S
C987 C984 1.358 . S
C987 C986 1.429 . S
C987 H997 0.930 . S
C988 C984 1.332 . S
C988 C989 1.394 . S
C988 H998 0.932 . S
C989 C985 1.308 . S
C989 C988 1.394 . S
C989 H999 0.929 . S
C990 Tb961 2.764 . S
C990 O974 1.239 . S
C990 O975 1.263 . S
C990 C984 1.504 1_554 S
C991 O976 1.236 . S
C991 O977 1.257 . S
H992 C965 0.932 . S
H993 C966 0.930 . S
H994 C967 0.932 . S
H995 C968 0.929 . S
H996 C986 0.932 . S
H997 C987 0.930 . S
H998 C988 0.932 . S
H999 C989 0.929 . S
Tb1000 C1009 2.764 . S
Tb1000 O1010 2.325 . S
Tb1000 O1013 2.303 . S
Tb1000 O1017 2.322 . S
Tb1000 O1018 2.349 . S
Tb1000 O1021 2.415 . S
Tb1000 O1022 2.399 . S
Tb1001 O1011 2.322 . S
Tb1001 O1012 2.349 . S
Tb1001 O1014 2.415 . S
Tb1001 O1015 2.399 . S
Tb1001 O1016 2.325 . S
Tb1001 O1019 2.303 . S
Tb1001 C1030 2.764 . S
C1002 O1018 1.261 . S
C1002 O1019 1.257 . S
C1003 C1006 1.358 . S
C1003 C1007 1.332 . S
C1003 C1009 1.504 . S
C1004 C1005 1.373 . S
C1004 C1008 1.308 . S
C1005 C1004 1.373 . S
C1005 C1006 1.429 . S
C1005 H1032 0.932 . S
C1006 C1003 1.358 . S
C1006 C1005 1.429 . S
C1006 H1033 0.930 . S
C1007 C1003 1.332 . S
C1007 C1008 1.394 . S
C1007 H1034 0.932 . S
C1008 C1004 1.308 . S
C1008 C1007 1.394 . S
C1008 H1035 0.929 . S
C1009 Tb1000 2.764 . S
C1009 C1003 1.504 . S
C1009 O1021 1.239 . S
C1009 O1022 1.263 . S
O1010 Tb1000 2.325 . S
O1010 C1020 1.236 . S
O1011 Tb1001 2.322 . S
O1011 C1020 1.257 . S
O1012 Tb1001 2.349 . S
O1012 C1023 1.261 . S
O1013 Tb1000 2.303 . S
O1013 C1023 1.257 . S
O1014 Tb1001 2.415 . S
O1014 C1030 1.239 . S
O1015 Tb1001 2.399 . S
O1015 C1030 1.263 . S
O1016 Tb1001 2.325 . S
O1016 C1031 1.236 . S
O1017 Tb1000 2.322 . S
O1017 C1031 1.257 . S
O1018 Tb1000 2.349 . S
O1018 C1002 1.261 . S
O1019 Tb1001 2.303 . S
O1019 C1002 1.257 . S
C1020 O1010 1.236 . S
C1020 O1011 1.257 . S
O1021 Tb1000 2.415 . S
O1021 C1009 1.239 . S
O1022 Tb1000 2.399 . S
O1022 C1009 1.263 . S
C1023 O1012 1.261 . S
C1023 O1013 1.257 . S
C1024 C1027 1.358 . S
C1024 C1028 1.332 . S
C1024 C1030 1.504 1_556 S
C1025 C1026 1.373 . S
C1025 C1029 1.308 . S
C1026 C1025 1.373 . S
C1026 C1027 1.429 . S
C1026 H1036 0.932 . S
C1027 C1024 1.358 . S
C1027 C1026 1.429 . S
C1027 H1037 0.930 . S
C1028 C1024 1.332 . S
C1028 C1029 1.394 . S
C1028 H1038 0.932 . S
C1029 C1025 1.308 . S
C1029 C1028 1.394 . S
C1029 H1039 0.929 . S
C1030 Tb1001 2.764 . S
C1030 O1014 1.239 . S
C1030 O1015 1.263 . S
C1030 C1024 1.504 1_554 S
C1031 O1016 1.236 . S
C1031 O1017 1.257 . S
H1032 C1005 0.932 . S
H1033 C1006 0.930 . S
H1034 C1007 0.932 . S
H1035 C1008 0.929 . S
H1036 C1026 0.932 . S
H1037 C1027 0.930 . S
H1038 C1028 0.932 . S
H1039 C1029 0.929 . S
Tb1040 C1049 2.764 . S
Tb1040 O1050 2.325 . S
Tb1040 O1053 2.303 . S
Tb1040 O1057 2.322 . S
Tb1040 O1058 2.349 . S
Tb1040 O1061 2.415 . S
Tb1040 O1062 2.399 . S
Tb1041 O1051 2.322 . S
Tb1041 O1052 2.349 . S
Tb1041 O1054 2.415 . S
Tb1041 O1055 2.399 . S
Tb1041 O1056 2.325 . S
Tb1041 O1059 2.303 . S
Tb1041 C1070 2.764 . S
C1042 O1058 1.261 . S
C1042 O1059 1.257 . S
C1043 C1046 1.358 . S
C1043 C1047 1.332 . S
C1043 C1049 1.504 . S
C1044 C1045 1.373 . S
C1044 C1048 1.308 . S
C1045 C1044 1.373 . S
C1045 C1046 1.429 . S
C1045 H1072 0.932 . S
C1046 C1043 1.358 . S
C1046 C1045 1.429 . S
C1046 H1073 0.930 . S
C1047 C1043 1.332 . S
C1047 C1048 1.394 . S
C1047 H1074 0.932 . S
C1048 C1044 1.308 . S
C1048 C1047 1.394 . S
C1048 H1075 0.929 . S
C1049 Tb1040 2.764 . S
C1049 C1043 1.504 . S
C1049 O1061 1.239 . S
C1049 O1062 1.263 . S
O1050 Tb1040 2.325 . S
O1050 C1060 1.236 . S
O1051 Tb1041 2.322 . S
O1051 C1060 1.257 . S
O1052 Tb1041 2.349 . S
O1052 C1063 1.261 . S
O1053 Tb1040 2.303 . S
O1053 C1063 1.257 . S
O1054 Tb1041 2.415 . S
O1054 C1070 1.239 . S
O1055 Tb1041 2.399 . S
O1055 C1070 1.263 . S
O1056 Tb1041 2.325 . S
O1056 C1071 1.236 . S
O1057 Tb1040 2.322 . S
O1057 C1071 1.257 . S
O1058 Tb1040 2.349 . S
O1058 C1042 1.261 . S
O1059 Tb1041 2.303 . S
O1059 C1042 1.257 . S
C1060 O1050 1.236 . S
C1060 O1051 1.257 . S
O1061 Tb1040 2.415 . S
O1061 C1049 1.239 . S
O1062 Tb1040 2.399 . S
O1062 C1049 1.263 . S
C1063 O1052 1.261 . S
C1063 O1053 1.257 . S
C1064 C1067 1.358 . S
C1064 C1068 1.332 . S
C1064 C1070 1.504 . S
C1065 C1066 1.373 . S
C1065 C1069 1.308 . S
C1066 C1065 1.373 . S
C1066 C1067 1.429 . S
C1066 H1076 0.932 . S
C1067 C1064 1.358 . S
C1067 C1066 1.429 . S
C1067 H1077 0.930 . S
C1068 C1064 1.332 . S
C1068 C1069 1.394 . S
C1068 H1078 0.932 . S
C1069 C1065 1.308 . S
C1069 C1068 1.394 . S
C1069 H1079 0.929 . S
C1070 Tb1041 2.764 . S
C1070 O1054 1.239 . S
C1070 O1055 1.263 . S
C1070 C1064 1.504 . S
C1071 O1056 1.236 . S
C1071 O1057 1.257 . S
H1072 C1045 0.932 . S
H1073 C1046 0.930 . S
H1074 C1047 0.932 . S
H1075 C1048 0.929 . S
H1076 C1066 0.932 . S
H1077 C1067 0.930 . S
H1078 C1068 0.932 . S
H1079 C1069 0.929 . S
Tb1080 C1089 2.764 . S
Tb1080 O1090 2.325 . S
Tb1080 O1093 2.303 . S
Tb1080 O1097 2.322 . S
Tb1080 O1098 2.349 . S
Tb1080 O1101 2.415 . S
Tb1080 O1102 2.399 . S
Tb1081 O1091 2.322 . S
Tb1081 O1092 2.349 . S
Tb1081 O1094 2.415 . S
Tb1081 O1095 2.399 . S
Tb1081 O1096 2.325 . S
Tb1081 O1099 2.303 . S
Tb1081 C1110 2.764 . S
C1082 O1098 1.261 . S
C1082 O1099 1.257 . S
C1083 C1086 1.358 . S
C1083 C1087 1.332 . S
C1083 C1089 1.504 . S
C1084 C1085 1.373 . S
C1084 C1088 1.308 . S
C1085 C1084 1.373 . S
C1085 C1086 1.429 . S
C1085 H1112 0.932 . S
C1086 C1083 1.358 . S
C1086 C1085 1.429 . S
C1086 H1113 0.930 . S
C1087 C1083 1.332 . S
C1087 C1088 1.394 . S
C1087 H1114 0.932 . S
C1088 C1084 1.308 . S
C1088 C1087 1.394 . S
C1088 H1115 0.929 . S
C1089 Tb1080 2.764 . S
C1089 C1083 1.504 . S
C1089 O1101 1.239 . S
C1089 O1102 1.263 . S
O1090 Tb1080 2.325 . S
O1090 C1100 1.236 . S
O1091 Tb1081 2.322 . S
O1091 C1100 1.257 . S
O1092 Tb1081 2.349 . S
O1092 C1103 1.261 . S
O1093 Tb1080 2.303 . S
O1093 C1103 1.257 . S
O1094 Tb1081 2.415 . S
O1094 C1110 1.239 . S
O1095 Tb1081 2.399 . S
O1095 C1110 1.263 . S
O1096 Tb1081 2.325 . S
O1096 C1111 1.236 . S
O1097 Tb1080 2.322 . S
O1097 C1111 1.257 . S
O1098 Tb1080 2.349 . S
O1098 C1082 1.261 . S
O1099 Tb1081 2.303 . S
O1099 C1082 1.257 . S
C1100 O1090 1.236 . S
C1100 O1091 1.257 . S
O1101 Tb1080 2.415 . S
O1101 C1089 1.239 . S
O1102 Tb1080 2.399 . S
O1102 C1089 1.263 . S
C1103 O1092 1.261 . S
C1103 O1093 1.257 . S
C1104 C1107 1.358 . S
C1104 C1108 1.332 . S
C1104 C1110 1.504 . S
C1105 C1106 1.373 . S
C1105 C1109 1.308 . S
C1106 C1105 1.373 . S
C1106 C1107 1.429 . S
C1106 H1116 0.932 . S
C1107 C1104 1.358 . S
C1107 C1106 1.429 . S
C1107 H1117 0.930 . S
C1108 C1104 1.332 . S
C1108 C1109 1.394 . S
C1108 H1118 0.932 . S
C1109 C1105 1.308 . S
C1109 C1108 1.394 . S
C1109 H1119 0.929 . S
C1110 Tb1081 2.764 . S
C1110 O1094 1.239 . S
C1110 O1095 1.263 . S
C1110 C1104 1.504 . S
C1111 O1096 1.236 . S
C1111 O1097 1.257 . S
H1112 C1085 0.932 . S
H1113 C1086 0.930 . S
H1114 C1087 0.932 . S
H1115 C1088 0.929 . S
H1116 C1106 0.932 . S
H1117 C1107 0.930 . S
H1118 C1108 0.932 . S
H1119 C1109 0.929 . S
Tb1120 C1129 2.764 . S
Tb1120 O1130 2.325 . S
Tb1120 O1133 2.303 . S
Tb1120 O1137 2.322 . S
Tb1120 O1138 2.349 . S
Tb1120 O1141 2.415 . S
Tb1120 O1142 2.399 . S
Tb1121 O1131 2.322 . S
Tb1121 O1132 2.349 . S
Tb1121 O1134 2.415 . S
Tb1121 O1135 2.399 . S
Tb1121 O1136 2.325 . S
Tb1121 O1139 2.303 . S
Tb1121 C1150 2.764 . S
C1122 O1138 1.261 . S
C1122 O1139 1.257 . S
C1123 C1126 1.358 . S
C1123 C1127 1.332 . S
C1123 C1129 1.504 1_554 S
C1124 C1125 1.373 . S
C1124 C1128 1.308 . S
C1125 C1124 1.373 . S
C1125 C1126 1.429 . S
C1125 H1152 0.932 . S
C1126 C1123 1.358 . S
C1126 C1125 1.429 . S
C1126 H1153 0.930 . S
C1127 C1123 1.332 . S
C1127 C1128 1.394 . S
C1127 H1154 0.932 . S
C1128 C1124 1.308 . S
C1128 C1127 1.394 . S
C1128 H1155 0.929 . S
C1129 Tb1120 2.764 . S
C1129 C1123 1.504 1_556 S
C1129 O1141 1.239 . S
C1129 O1142 1.263 . S
O1130 Tb1120 2.325 . S
O1130 C1140 1.236 . S
O1131 Tb1121 2.322 . S
O1131 C1140 1.257 . S
O1132 Tb1121 2.349 . S
O1132 C1143 1.261 . S
O1133 Tb1120 2.303 . S
O1133 C1143 1.257 . S
O1134 Tb1121 2.415 . S
O1134 C1150 1.239 . S
O1135 Tb1121 2.399 . S
O1135 C1150 1.263 . S
O1136 Tb1121 2.325 . S
O1136 C1151 1.236 . S
O1137 Tb1120 2.322 . S
O1137 C1151 1.257 . S
O1138 Tb1120 2.349 . S
O1138 C1122 1.261 . S
O1139 Tb1121 2.303 . S
O1139 C1122 1.257 . S
C1140 O1130 1.236 . S
C1140 O1131 1.257 . S
O1141 Tb1120 2.415 . S
O1141 C1129 1.239 . S
O1142 Tb1120 2.399 . S
O1142 C1129 1.263 . S
C1143 O1132 1.261 . S
C1143 O1133 1.257 . S
C1144 C1147 1.358 . S
C1144 C1148 1.332 . S
C1144 C1150 1.504 . S
C1145 C1146 1.373 . S
C1145 C1149 1.308 . S
C1146 C1145 1.373 . S
C1146 C1147 1.429 . S
C1146 H1156 0.932 . S
C1147 C1144 1.358 . S
C1147 C1146 1.429 . S
C1147 H1157 0.930 . S
C1148 C1144 1.332 . S
C1148 C1149 1.394 . S
C1148 H1158 0.932 . S
C1149 C1145 1.308 . S
C1149 C1148 1.394 . S
C1149 H1159 0.929 . S
C1150 Tb1121 2.764 . S
C1150 O1134 1.239 . S
C1150 O1135 1.263 . S
C1150 C1144 1.504 . S
C1151 O1136 1.236 . S
C1151 O1137 1.257 . S
H1152 C1125 0.932 . S
H1153 C1126 0.930 . S
H1154 C1127 0.932 . S
H1155 C1128 0.929 . S
H1156 C1146 0.932 . S
H1157 C1147 0.930 . S
H1158 C1148 0.932 . S
H1159 C1149 0.929 . S
Tb1160 C1169 2.764 . S
Tb1160 O1170 2.325 . S
Tb1160 O1173 2.303 . S
Tb1160 O1177 2.322 . S
Tb1160 O1178 2.349 . S
Tb1160 O1181 2.415 . S
Tb1160 O1182 2.399 . S
Tb1161 O1171 2.322 . S
Tb1161 O1172 2.349 . S
Tb1161 O1174 2.415 . S
Tb1161 O1175 2.399 . S
Tb1161 O1176 2.325 . S
Tb1161 O1179 2.303 . S
Tb1161 C1190 2.764 . S
C1162 O1178 1.261 . S
C1162 O1179 1.257 . S
C1163 C1166 1.358 . S
C1163 C1167 1.332 . S
C1163 C1169 1.504 1_554 S
C1164 C1165 1.373 . S
C1164 C1168 1.308 . S
C1165 C1164 1.373 . S
C1165 C1166 1.429 . S
C1165 H1192 0.932 . S
C1166 C1163 1.358 . S
C1166 C1165 1.429 . S
C1166 H1193 0.930 . S
C1167 C1163 1.332 . S
C1167 C1168 1.394 . S
C1167 H1194 0.932 . S
C1168 C1164 1.308 . S
C1168 C1167 1.394 . S
C1168 H1195 0.929 . S
C1169 Tb1160 2.764 . S
C1169 C1163 1.504 1_556 S
C1169 O1181 1.239 . S
C1169 O1182 1.263 . S
O1170 Tb1160 2.325 . S
O1170 C1180 1.236 . S
O1171 Tb1161 2.322 . S
O1171 C1180 1.257 . S
O1172 Tb1161 2.349 . S
O1172 C1183 1.261 . S
O1173 Tb1160 2.303 . S
O1173 C1183 1.257 . S
O1174 Tb1161 2.415 . S
O1174 C1190 1.239 . S
O1175 Tb1161 2.399 . S
O1175 C1190 1.263 . S
O1176 Tb1161 2.325 . S
O1176 C1191 1.236 . S
O1177 Tb1160 2.322 . S
O1177 C1191 1.257 . S
O1178 Tb1160 2.349 . S
O1178 C1162 1.261 . S
O1179 Tb1161 2.303 . S
O1179 C1162 1.257 . S
C1180 O1170 1.236 . S
C1180 O1171 1.257 . S
O1181 Tb1160 2.415 . S
O1181 C1169 1.239 . S
O1182 Tb1160 2.399 . S
O1182 C1169 1.263 . S
C1183 O1172 1.261 . S
C1183 O1173 1.257 . S
C1184 C1187 1.358 . S
C1184 C1188 1.332 . S
C1184 C1190 1.504 . S
C1185 C1186 1.373 . S
C1185 C1189 1.308 . S
C1186 C1185 1.373 . S
C1186 C1187 1.429 . S
C1186 H1196 0.932 . S
C1187 C1184 1.358 . S
C1187 C1186 1.429 . S
C1187 H1197 0.930 . S
C1188 C1184 1.332 . S
C1188 C1189 1.394 . S
C1188 H1198 0.932 . S
C1189 C1185 1.308 . S
C1189 C1188 1.394 . S
C1189 H1199 0.929 . S
C1190 Tb1161 2.764 . S
C1190 O1174 1.239 . S
C1190 O1175 1.263 . S
C1190 C1184 1.504 . S
C1191 O1176 1.236 . S
C1191 O1177 1.257 . S
H1192 C1165 0.932 . S
H1193 C1166 0.930 . S
H1194 C1167 0.932 . S
H1195 C1168 0.929 . S
H1196 C1186 0.932 . S
H1197 C1187 0.930 . S
H1198 C1188 0.932 . S
H1199 C1189 0.929 . S
Tb1200 C1209 2.764 . S
Tb1200 O1210 2.325 . S
Tb1200 O1213 2.303 . S
Tb1200 O1217 2.322 . S
Tb1200 O1218 2.349 . S
Tb1200 O1221 2.415 . S
Tb1200 O1222 2.399 . S
Tb1201 O1211 2.322 . S
Tb1201 O1212 2.349 . S
Tb1201 O1214 2.415 . S
Tb1201 O1215 2.399 . S
Tb1201 O1216 2.325 . S
Tb1201 O1219 2.303 . S
Tb1201 C1230 2.764 . S
C1202 O1218 1.261 . S
C1202 O1219 1.257 . S
C1203 C1206 1.358 . S
C1203 C1207 1.332 . S
C1203 C1209 1.504 . S
C1204 C1205 1.373 . S
C1204 C1208 1.308 . S
C1205 C1204 1.373 . S
C1205 C1206 1.429 . S
C1205 H1232 0.932 . S
C1206 C1203 1.358 . S
C1206 C1205 1.429 . S
C1206 H1233 0.930 . S
C1207 C1203 1.332 . S
C1207 C1208 1.394 . S
C1207 H1234 0.932 . S
C1208 C1204 1.308 . S
C1208 C1207 1.394 . S
C1208 H1235 0.929 . S
C1209 Tb1200 2.764 . S
C1209 C1203 1.504 . S
C1209 O1221 1.239 . S
C1209 O1222 1.263 . S
O1210 Tb1200 2.325 . S
O1210 C1220 1.236 . S
O1211 Tb1201 2.322 . S
O1211 C1220 1.257 . S
O1212 Tb1201 2.349 . S
O1212 C1223 1.261 . S
O1213 Tb1200 2.303 . S
O1213 C1223 1.257 . S
O1214 Tb1201 2.415 . S
O1214 C1230 1.239 . S
O1215 Tb1201 2.399 . S
O1215 C1230 1.263 . S
O1216 Tb1201 2.325 . S
O1216 C1231 1.236 . S
O1217 Tb1200 2.322 . S
O1217 C1231 1.257 . S
O1218 Tb1200 2.349 . S
O1218 C1202 1.261 . S
O1219 Tb1201 2.303 . S
O1219 C1202 1.257 . S
C1220 O1210 1.236 . S
C1220 O1211 1.257 . S
O1221 Tb1200 2.415 . S
O1221 C1209 1.239 . S
O1222 Tb1200 2.399 . S
O1222 C1209 1.263 . S
C1223 O1212 1.261 . S
C1223 O1213 1.257 . S
C1224 C1227 1.358 . S
C1224 C1228 1.332 . S
C1224 C1230 1.504 . S
C1225 C1226 1.373 . S
C1225 C1229 1.308 . S
C1226 C1225 1.373 . S
C1226 C1227 1.429 . S
C1226 H1236 0.932 . S
C1227 C1224 1.358 . S
C1227 C1226 1.429 . S
C1227 H1237 0.930 . S
C1228 C1224 1.332 . S
C1228 C1229 1.394 . S
C1228 H1238 0.932 . S
C1229 C1225 1.308 . S
C1229 C1228 1.394 . S
C1229 H1239 0.929 . S
C1230 Tb1201 2.764 . S
C1230 O1214 1.239 . S
C1230 O1215 1.263 . S
C1230 C1224 1.504 . S
C1231 O1216 1.236 . S
C1231 O1217 1.257 . S
H1232 C1205 0.932 . S
H1233 C1206 0.930 . S
H1234 C1207 0.932 . S
H1235 C1208 0.929 . S
H1236 C1226 0.932 . S
H1237 C1227 0.930 . S
H1238 C1228 0.932 . S
H1239 C1229 0.929 . S
Tb1240 C1249 2.764 . S
Tb1240 O1250 2.325 . S
Tb1240 O1253 2.303 . S
Tb1240 O1257 2.322 . S
Tb1240 O1258 2.349 . S
Tb1240 O1261 2.415 . S
Tb1240 O1262 2.399 . S
Tb1241 O1251 2.322 . S
Tb1241 O1252 2.349 . S
Tb1241 O1254 2.415 . S
Tb1241 O1255 2.399 . S
Tb1241 O1256 2.325 . S
Tb1241 O1259 2.303 . S
Tb1241 C1270 2.764 . S
C1242 O1258 1.261 . S
C1242 O1259 1.257 . S
C1243 C1246 1.358 . S
C1243 C1247 1.332 . S
C1243 C1249 1.504 . S
C1244 C1245 1.373 . S
C1244 C1248 1.308 . S
C1245 C1244 1.373 . S
C1245 C1246 1.429 . S
C1245 H1272 0.932 . S
C1246 C1243 1.358 . S
C1246 C1245 1.429 . S
C1246 H1273 0.930 . S
C1247 C1243 1.332 . S
C1247 C1248 1.394 . S
C1247 H1274 0.932 . S
C1248 C1244 1.308 . S
C1248 C1247 1.394 . S
C1248 H1275 0.929 . S
C1249 Tb1240 2.764 . S
C1249 C1243 1.504 . S
C1249 O1261 1.239 . S
C1249 O1262 1.263 . S
O1250 Tb1240 2.325 . S
O1250 C1260 1.236 . S
O1251 Tb1241 2.322 . S
O1251 C1260 1.257 . S
O1252 Tb1241 2.349 . S
O1252 C1263 1.261 . S
O1253 Tb1240 2.303 . S
O1253 C1263 1.257 . S
O1254 Tb1241 2.415 . S
O1254 C1270 1.239 . S
O1255 Tb1241 2.399 . S
O1255 C1270 1.263 . S
O1256 Tb1241 2.325 . S
O1256 C1271 1.236 . S
O1257 Tb1240 2.322 . S
O1257 C1271 1.257 . S
O1258 Tb1240 2.349 . S
O1258 C1242 1.261 . S
O1259 Tb1241 2.303 . S
O1259 C1242 1.257 . S
C1260 O1250 1.236 . S
C1260 O1251 1.257 . S
O1261 Tb1240 2.415 . S
O1261 C1249 1.239 . S
O1262 Tb1240 2.399 . S
O1262 C1249 1.263 . S
C1263 O1252 1.261 . S
C1263 O1253 1.257 . S
C1264 C1267 1.358 . S
C1264 C1268 1.332 . S
C1264 C1270 1.504 . S
C1265 C1266 1.373 . S
C1265 C1269 1.308 . S
C1266 C1265 1.373 . S
C1266 C1267 1.429 . S
C1266 H1276 0.932 . S
C1267 C1264 1.358 . S
C1267 C1266 1.429 . S
C1267 H1277 0.930 . S
C1268 C1264 1.332 . S
C1268 C1269 1.394 . S
C1268 H1278 0.932 . S
C1269 C1265 1.308 . S
C1269 C1268 1.394 . S
C1269 H1279 0.929 . S
C1270 Tb1241 2.764 . S
C1270 O1254 1.239 . S
C1270 O1255 1.263 . S
C1270 C1264 1.504 . S
C1271 O1256 1.236 . S
C1271 O1257 1.257 . S
H1272 C1245 0.932 . S
H1273 C1246 0.930 . S
H1274 C1247 0.932 . S
H1275 C1248 0.929 . S
H1276 C1266 0.932 . S
H1277 C1267 0.930 . S
H1278 C1268 0.932 . S
H1279 C1269 0.929 . S
H1280 C1286 0.930 . S
H1281 C1289 0.930 . S
H1282 C1290 0.930 . S
H1283 C1291 0.930 . S
H1284 C1294 0.930 . S
H1285 C1295 0.930 . S
C1286 H1280 0.930 . S
C1286 C1287 1.355 . S
C1286 C1288 1.415 . S
C1287 C1286 1.355 . S
C1287 C1289 1.419 . S
C1288 C1286 1.415 . S
C1288 C1293 1.425 . S
C1288 C1295 1.409 . S
C1289 H1281 0.930 . S
C1289 C1287 1.419 . S
C1289 C1290 1.362 . S
C1290 H1282 0.930 . S
C1290 C1289 1.362 . S
C1290 C1293 1.409 . S
C1291 H1283 0.930 . S
C1291 C1292 1.355 . S
C1291 C1293 1.415 . S
C1292 C1291 1.355 . S
C1292 C1294 1.419 . S
C1293 C1288 1.425 . S
C1293 C1290 1.409 . S
C1293 C1291 1.415 . S
C1294 H1284 0.930 . S
C1294 C1292 1.419 . S
C1294 C1295 1.362 . S
C1295 H1285 0.930 . S
C1295 C1288 1.409 . S
C1295 C1294 1.362 . S
H1296 C1302 0.930 . S
H1297 C1305 0.930 . S
H1298 C1306 0.930 . S
H1299 C1307 0.930 . S
H1300 C1310 0.930 . S
H1301 C1311 0.930 . S
C1302 H1296 0.930 . S
C1302 C1303 1.355 . S
C1302 C1304 1.415 . S
C1303 C1302 1.355 . S
C1303 C1305 1.419 . S
C1304 C1302 1.415 . S
C1304 C1309 1.425 . S
C1304 C1311 1.409 . S
C1305 H1297 0.930 . S
C1305 C1303 1.419 . S
C1305 C1306 1.362 . S
C1306 H1298 0.930 . S
C1306 C1305 1.362 . S
C1306 C1309 1.409 . S
C1307 H1299 0.930 . S
C1307 C1308 1.355 . S
C1307 C1309 1.415 . S
C1308 C1307 1.355 . S
C1308 C1310 1.419 . S
C1309 C1304 1.425 . S
C1309 C1306 1.409 . S
C1309 C1307 1.415 . S
C1310 H1300 0.930 . S
C1310 C1308 1.419 . S
C1310 C1311 1.362 . S
C1311 H1301 0.930 . S
C1311 C1304 1.409 . S
C1311 C1310 1.362 . S
H1312 C1318 0.930 . S
H1313 C1321 0.930 . S
H1314 C1322 0.930 . S
H1315 C1323 0.930 . S
H1316 C1326 0.930 . S
H1317 C1327 0.930 . S
C1318 H1312 0.930 . S
C1318 C1319 1.355 . S
C1318 C1320 1.415 . S
C1319 C1318 1.355 . S
C1319 C1321 1.419 . S
C1320 C1318 1.415 . S
C1320 C1325 1.425 . S
C1320 C1327 1.409 . S
C1321 H1313 0.930 . S
C1321 C1319 1.419 . S
C1321 C1322 1.362 . S
C1322 H1314 0.930 . S
C1322 C1321 1.362 . S
C1322 C1325 1.409 . S
C1323 H1315 0.930 . S
C1323 C1324 1.355 . S
C1323 C1325 1.415 . S
C1324 C1323 1.355 . S
C1324 C1326 1.419 . S
C1325 C1320 1.425 . S
C1325 C1322 1.409 . S
C1325 C1323 1.415 . S
C1326 H1316 0.930 . S
C1326 C1324 1.419 . S
C1326 C1327 1.362 . S
C1327 H1317 0.930 . S
C1327 C1320 1.409 . S
C1327 C1326 1.362 . S
H1328 C1334 0.930 . S
H1329 C1337 0.930 . S
H1330 C1338 0.930 . S
H1331 C1339 0.930 . S
H1332 C1342 0.930 . S
H1333 C1343 0.930 . S
C1334 H1328 0.930 . S
C1334 C1335 1.355 . S
C1334 C1336 1.415 . S
C1335 C1334 1.355 . S
C1335 C1337 1.419 . S
C1336 C1334 1.415 . S
C1336 C1341 1.425 . S
C1336 C1343 1.409 . S
C1337 H1329 0.930 . S
C1337 C1335 1.419 . S
C1337 C1338 1.362 . S
C1338 H1330 0.930 . S
C1338 C1337 1.362 . S
C1338 C1341 1.409 . S
C1339 H1331 0.930 . S
C1339 C1340 1.355 . S
C1339 C1341 1.415 . S
C1340 C1339 1.355 . S
C1340 C1342 1.419 . S
C1341 C1336 1.425 . S
C1341 C1338 1.409 . S
C1341 C1339 1.415 . S
C1342 H1332 0.930 . S
C1342 C1340 1.419 . S
C1342 C1343 1.362 . S
C1343 H1333 0.930 . S
C1343 C1336 1.409 . S
C1343 C1342 1.362 . S
H1344 C1350 0.930 . S
H1345 C1353 0.930 . S
H1346 C1354 0.930 . S
H1347 C1355 0.930 . S
H1348 C1358 0.930 . S
H1349 C1359 0.930 . S
C1350 H1344 0.930 . S
C1350 C1351 1.355 . S
C1350 C1352 1.415 . S
C1351 C1350 1.355 . S
C1351 C1353 1.419 . S
C1352 C1350 1.415 . S
C1352 C1357 1.425 . S
C1352 C1359 1.409 . S
C1353 H1345 0.930 . S
C1353 C1351 1.419 . S
C1353 C1354 1.362 . S
C1354 H1346 0.930 . S
C1354 C1353 1.362 . S
C1354 C1357 1.409 . S
C1355 H1347 0.930 . S
C1355 C1356 1.355 . S
C1355 C1357 1.415 . S
C1356 C1355 1.355 . S
C1356 C1358 1.419 . S
C1357 C1352 1.425 . S
C1357 C1354 1.409 . S
C1357 C1355 1.415 . S
C1358 H1348 0.930 . S
C1358 C1356 1.419 . S
C1358 C1359 1.362 . S
C1359 H1349 0.930 . S
C1359 C1352 1.409 . S
C1359 C1358 1.362 . S
H1360 C1366 0.930 . S
H1361 C1369 0.930 . S
H1362 C1370 0.930 . S
H1363 C1371 0.930 . S
H1364 C1374 0.930 . S
H1365 C1375 0.930 . S
C1366 H1360 0.930 . S
C1366 C1367 1.355 . S
C1366 C1368 1.415 . S
C1367 C1366 1.355 . S
C1367 C1369 1.419 . S
C1368 C1366 1.415 . S
C1368 C1373 1.425 . S
C1368 C1375 1.409 . S
C1369 H1361 0.930 . S
C1369 C1367 1.419 . S
C1369 C1370 1.362 . S
C1370 H1362 0.930 . S
C1370 C1369 1.362 . S
C1370 C1373 1.409 . S
C1371 H1363 0.930 . S
C1371 C1372 1.355 . S
C1371 C1373 1.415 . S
C1372 C1371 1.355 . S
C1372 C1374 1.419 . S
C1373 C1368 1.425 . S
C1373 C1370 1.409 . S
C1373 C1371 1.415 . S
C1374 H1364 0.930 . S
C1374 C1372 1.419 . S
C1374 C1375 1.362 . S
C1375 H1365 0.930 . S
C1375 C1368 1.409 . S
C1375 C1374 1.362 . S
H1376 C1382 0.930 . S
H1377 C1385 0.930 . S
H1378 C1386 0.930 . S
H1379 C1387 0.930 . S
H1380 C1390 0.930 . S
H1381 C1391 0.930 . S
C1382 H1376 0.930 . S
C1382 C1383 1.355 . S
C1382 C1384 1.415 . S
C1383 C1382 1.355 . S
C1383 C1385 1.419 . S
C1384 C1382 1.415 . S
C1384 C1389 1.425 . S
C1384 C1391 1.409 . S
C1385 H1377 0.930 . S
C1385 C1383 1.419 . S
C1385 C1386 1.362 . S
C1386 H1378 0.930 . S
C1386 C1385 1.362 . S
C1386 C1389 1.409 . S
C1387 H1379 0.930 . S
C1387 C1388 1.355 . S
C1387 C1389 1.415 . S
C1388 C1387 1.355 . S
C1388 C1390 1.419 . S
C1389 C1384 1.425 . S
C1389 C1386 1.409 . S
C1389 C1387 1.415 . S
C1390 H1380 0.930 . S
C1390 C1388 1.419 . S
C1390 C1391 1.362 . S
C1391 H1381 0.930 . S
C1391 C1384 1.409 . S
C1391 C1390 1.362 . S
H1392 C1398 0.930 . S
H1393 C1401 0.930 . S
H1394 C1402 0.930 . S
H1395 C1403 0.930 . S
H1396 C1406 0.930 . S
H1397 C1407 0.930 . S
C1398 H1392 0.930 . S
C1398 C1399 1.355 . S
C1398 C1400 1.415 . S
C1399 C1398 1.355 . S
C1399 C1401 1.419 . S
C1400 C1398 1.415 . S
C1400 C1405 1.425 . S
C1400 C1407 1.409 . S
C1401 H1393 0.930 . S
C1401 C1399 1.419 . S
C1401 C1402 1.362 . S
C1402 H1394 0.930 . S
C1402 C1401 1.362 . S
C1402 C1405 1.409 . S
C1403 H1395 0.930 . S
C1403 C1404 1.355 . S
C1403 C1405 1.415 . S
C1404 C1403 1.355 . S
C1404 C1406 1.419 . S
C1405 C1400 1.425 . S
C1405 C1402 1.409 . S
C1405 C1403 1.415 . S
C1406 H1396 0.930 . S
C1406 C1404 1.419 . S
C1406 C1407 1.362 . S
C1407 H1397 0.930 . S
C1407 C1400 1.409 . S
C1407 C1406 1.362 . S
H1408 C1414 0.930 . S
H1409 C1417 0.930 . S
H1410 C1418 0.930 . S
H1411 C1419 0.930 . S
H1412 C1422 0.930 . S
H1413 C1423 0.930 . S
C1414 H1408 0.930 . S
C1414 C1415 1.355 . S
C1414 C1416 1.415 . S
C1415 C1414 1.355 . S
C1415 C1417 1.419 . S
C1416 C1414 1.415 . S
C1416 C1421 1.425 . S
C1416 C1423 1.409 . S
C1417 H1409 0.930 . S
C1417 C1415 1.419 . S
C1417 C1418 1.362 . S
C1418 H1410 0.930 . S
C1418 C1417 1.362 . S
C1418 C1421 1.409 . S
C1419 H1411 0.930 . S
C1419 C1420 1.355 . S
C1419 C1421 1.415 . S
C1420 C1419 1.355 . S
C1420 C1422 1.419 . S
C1421 C1416 1.425 . S
C1421 C1418 1.409 . S
C1421 C1419 1.415 . S
C1422 H1412 0.930 . S
C1422 C1420 1.419 . S
C1422 C1423 1.362 . S
C1423 H1413 0.930 . S
C1423 C1416 1.409 . S
C1423 C1422 1.362 . S
H1424 C1430 0.930 . S
H1425 C1433 0.930 . S
H1426 C1434 0.930 . S
H1427 C1435 0.930 . S
H1428 C1438 0.930 . S
H1429 C1439 0.930 . S
C1430 H1424 0.930 . S
C1430 C1431 1.355 . S
C1430 C1432 1.415 . S
C1431 C1430 1.355 . S
C1431 C1433 1.419 . S
C1432 C1430 1.415 . S
C1432 C1437 1.425 . S
C1432 C1439 1.409 . S
C1433 H1425 0.930 . S
C1433 C1431 1.419 . S
C1433 C1434 1.362 . S
C1434 H1426 0.930 . S
C1434 C1433 1.362 . S
C1434 C1437 1.409 . S
C1435 H1427 0.930 . S
C1435 C1436 1.355 . S
C1435 C1437 1.415 . S
C1436 C1435 1.355 . S
C1436 C1438 1.419 . S
C1437 C1432 1.425 . S
C1437 C1434 1.409 . S
C1437 C1435 1.415 . S
C1438 H1428 0.930 . S
C1438 C1436 1.419 . S
C1438 C1439 1.362 . S
C1439 H1429 0.930 . S
C1439 C1432 1.409 . S
C1439 C1438 1.362 . S
H1440 C1446 0.930 . S
H1441 C1449 0.930 . S
H1442 C1450 0.930 . S
H1443 C1451 0.930 . S
H1444 C1454 0.930 . S
H1445 C1455 0.930 . S
C1446 H1440 0.930 . S
C1446 C1447 1.355 . S
C1446 C1448 1.415 . S
C1447 C1446 1.355 . S
C1447 C1449 1.419 . S
C1448 C1446 1.415 . S
C1448 C1453 1.425 . S
C1448 C1455 1.409 . S
C1449 H1441 0.930 . S
C1449 C1447 1.419 . S
C1449 C1450 1.362 . S
C1450 H1442 0.930 . S
C1450 C1449 1.362 . S
C1450 C1453 1.409 . S
C1451 H1443 0.930 . S
C1451 C1452 1.355 . S
C1451 C1453 1.415 . S
C1452 C1451 1.355 . S
C1452 C1454 1.419 . S
C1453 C1448 1.425 . S
C1453 C1450 1.409 . S
C1453 C1451 1.415 . S
C1454 H1444 0.930 . S
C1454 C1452 1.419 . S
C1454 C1455 1.362 . S
C1455 H1445 0.930 . S
C1455 C1448 1.409 . S
C1455 C1454 1.362 . S
H1456 C1462 0.930 . S
H1457 C1465 0.930 . S
H1458 C1466 0.930 . S
H1459 C1467 0.930 . S
H1460 C1470 0.930 . S
H1461 C1471 0.930 . S
C1462 H1456 0.930 . S
C1462 C1463 1.355 . S
C1462 C1464 1.415 . S
C1463 C1462 1.355 . S
C1463 C1465 1.419 . S
C1464 C1462 1.415 . S
C1464 C1469 1.425 . S
C1464 C1471 1.409 . S
C1465 H1457 0.930 . S
C1465 C1463 1.419 . S
C1465 C1466 1.362 . S
C1466 H1458 0.930 . S
C1466 C1465 1.362 . S
C1466 C1469 1.409 . S
C1467 H1459 0.930 . S
C1467 C1468 1.355 . S
C1467 C1469 1.415 . S
C1468 C1467 1.355 . S
C1468 C1470 1.419 . S
C1469 C1464 1.425 . S
C1469 C1466 1.409 . S
C1469 C1467 1.415 . S
C1470 H1460 0.930 . S
C1470 C1468 1.419 . S
C1470 C1471 1.362 . S
C1471 H1461 0.930 . S
C1471 C1464 1.409 . S
C1471 C1470 1.362 . S
H1472 C1478 0.930 . S
H1473 C1481 0.930 . S
H1474 C1482 0.930 . S
H1475 C1483 0.930 . S
H1476 C1486 0.930 . S
H1477 C1487 0.930 . S
C1478 H1472 0.930 . S
C1478 C1479 1.355 . S
C1478 C1480 1.415 . S
C1479 C1478 1.355 . S
C1479 C1481 1.419 . S
C1480 C1478 1.415 . S
C1480 C1485 1.425 . S
C1480 C1487 1.409 . S
C1481 H1473 0.930 . S
C1481 C1479 1.419 . S
C1481 C1482 1.362 . S
C1482 H1474 0.930 . S
C1482 C1481 1.362 . S
C1482 C1485 1.409 . S
C1483 H1475 0.930 . S
C1483 C1484 1.355 . S
C1483 C1485 1.415 . S
C1484 C1483 1.355 . S
C1484 C1486 1.419 . S
C1485 C1480 1.425 . S
C1485 C1482 1.409 . S
C1485 C1483 1.415 . S
C1486 H1476 0.930 . S
C1486 C1484 1.419 . S
C1486 C1487 1.362 . S
C1487 H1477 0.930 . S
C1487 C1480 1.409 . S
C1487 C1486 1.362 . S
H1488 C1494 0.930 . S
H1489 C1497 0.930 . S
H1490 C1498 0.930 . S
H1491 C1499 0.930 . S
H1492 C1502 0.930 . S
H1493 C1503 0.930 . S
C1494 H1488 0.930 . S
C1494 C1495 1.355 . S
C1494 C1496 1.415 . S
C1495 C1494 1.355 . S
C1495 C1497 1.419 . S
C1496 C1494 1.415 . S
C1496 C1501 1.425 . S
C1496 C1503 1.409 . S
C1497 H1489 0.930 . S
C1497 C1495 1.419 . S
C1497 C1498 1.362 . S
C1498 H1490 0.930 . S
C1498 C1497 1.362 . S
C1498 C1501 1.409 . S
C1499 H1491 0.930 . S
C1499 C1500 1.355 . S
C1499 C1501 1.415 . S
C1500 C1499 1.355 . S
C1500 C1502 1.419 . S
C1501 C1496 1.425 . S
C1501 C1498 1.409 . S
C1501 C1499 1.415 . S
C1502 H1492 0.930 . S
C1502 C1500 1.419 . S
C1502 C1503 1.362 . S
C1503 H1493 0.930 . S
C1503 C1496 1.409 . S
C1503 C1502 1.362 . S
H1504 C1510 0.930 . S
H1505 C1513 0.930 . S
H1506 C1514 0.930 . S
H1507 C1515 0.930 . S
H1508 C1518 0.930 . S
H1509 C1519 0.930 . S
C1510 H1504 0.930 . S
C1510 C1511 1.355 . S
C1510 C1512 1.415 . S
C1511 C1510 1.355 . S
C1511 C1513 1.419 . S
C1512 C1510 1.415 . S
C1512 C1517 1.425 . S
C1512 C1519 1.409 . S
C1513 H1505 0.930 . S
C1513 C1511 1.419 . S
C1513 C1514 1.362 . S
C1514 H1506 0.930 . S
C1514 C1513 1.362 . S
C1514 C1517 1.409 . S
C1515 H1507 0.930 . S
C1515 C1516 1.355 . S
C1515 C1517 1.415 . S
C1516 C1515 1.355 . S
C1516 C1518 1.419 . S
C1517 C1512 1.425 . S
C1517 C1514 1.409 . S
C1517 C1515 1.415 . S
C1518 H1508 0.930 . S
C1518 C1516 1.419 . S
C1518 C1519 1.362 . S
C1519 H1509 0.930 . S
C1519 C1512 1.409 . S
C1519 C1518 1.362 . S
H1520 C1526 0.930 . S
H1521 C1529 0.930 . S
H1522 C1530 0.930 . S
H1523 C1531 0.930 . S
H1524 C1534 0.930 . S
H1525 C1535 0.930 . S
C1526 H1520 0.930 . S
C1526 C1527 1.355 . S
C1526 C1528 1.415 . S
C1527 C1526 1.355 . S
C1527 C1529 1.419 . S
C1528 C1526 1.415 . S
C1528 C1533 1.425 . S
C1528 C1535 1.409 . S
C1529 H1521 0.930 . S
C1529 C1527 1.419 . S
C1529 C1530 1.362 . S
C1530 H1522 0.930 . S
C1530 C1529 1.362 . S
C1530 C1533 1.409 . S
C1531 H1523 0.930 . S
C1531 C1532 1.355 . S
C1531 C1533 1.415 . S
C1532 C1531 1.355 . S
C1532 C1534 1.419 . S
C1533 C1528 1.425 . S
C1533 C1530 1.409 . S
C1533 C1531 1.415 . S
C1534 H1524 0.930 . S
C1534 C1532 1.419 . S
C1534 C1535 1.362 . S
C1535 H1525 0.930 . S
C1535 C1528 1.409 . S
C1535 C1534 1.362 . S
H1536 C1542 0.930 . S
H1537 C1545 0.930 . S
H1538 C1546 0.930 . S
H1539 C1547 0.930 . S
H1540 C1550 0.930 . S
H1541 C1551 0.930 . S
C1542 H1536 0.930 . S
C1542 C1543 1.355 1_545 S
C1542 C1544 1.415 . S
C1543 C1542 1.355 1_565 S
C1543 C1545 1.419 . S
C1544 C1542 1.415 . S
C1544 C1549 1.425 1_545 S
C1544 C1551 1.409 . S
C1545 H1537 0.930 . S
C1545 C1543 1.419 . S
C1545 C1546 1.362 . S
C1546 H1538 0.930 . S
C1546 C1545 1.362 . S
C1546 C1549 1.409 . S
C1547 H1539 0.930 . S
C1547 C1548 1.355 1_565 S
C1547 C1549 1.415 . S
C1548 C1547 1.355 1_545 S
C1548 C1550 1.419 . S
C1549 C1544 1.425 1_565 S
C1549 C1546 1.409 . S
C1549 C1547 1.415 . S
C1550 H1540 0.930 . S
C1550 C1548 1.419 . S
C1550 C1551 1.362 . S
C1551 H1541 0.930 . S
C1551 C1544 1.409 . S
C1551 C1550 1.362 . S
H1552 C1558 0.930 . S
H1553 C1561 0.930 . S
H1554 C1562 0.930 . S
H1555 C1563 0.930 . S
H1556 C1566 0.930 . S
H1557 C1567 0.930 . S
C1558 H1552 0.930 . S
C1558 C1559 1.355 . S
C1558 C1560 1.415 . S
C1559 C1558 1.355 . S
C1559 C1561 1.419 . S
C1560 C1558 1.415 . S
C1560 C1565 1.425 1_455 S
C1560 C1567 1.409 1_455 S
C1561 H1553 0.930 . S
C1561 C1559 1.419 . S
C1561 C1562 1.362 . S
C1562 H1554 0.930 . S
C1562 C1561 1.362 . S
C1562 C1565 1.409 1_455 S
C1563 H1555 0.930 . S
C1563 C1564 1.355 . S
C1563 C1565 1.415 . S
C1564 C1563 1.355 . S
C1564 C1566 1.419 . S
C1565 C1560 1.425 1_655 S
C1565 C1562 1.409 1_655 S
C1565 C1563 1.415 . S
C1566 H1556 0.930 . S
C1566 C1564 1.419 . S
C1566 C1567 1.362 . S
C1567 H1557 0.930 . S
C1567 C1560 1.409 1_655 S
C1567 C1566 1.362 . S
H1568 C1574 0.930 . S
H1569 C1577 0.930 . S
H1570 C1578 0.930 . S
H1571 C1579 0.930 . S
H1572 C1582 0.930 . S
H1573 C1583 0.930 . S
C1574 H1568 0.930 . S
C1574 C1575 1.355 . S
C1574 C1576 1.415 . S
C1575 C1574 1.355 . S
C1575 C1577 1.419 . S
C1576 C1574 1.415 . S
C1576 C1581 1.425 1_556 S
C1576 C1583 1.409 1_556 S
C1577 H1569 0.930 . S
C1577 C1575 1.419 . S
C1577 C1578 1.362 . S
C1578 H1570 0.930 . S
C1578 C1577 1.362 . S
C1578 C1581 1.409 1_556 S
C1579 H1571 0.930 . S
C1579 C1580 1.355 . S
C1579 C1581 1.415 . S
C1580 C1579 1.355 . S
C1580 C1582 1.419 . S
C1581 C1576 1.425 1_554 S
C1581 C1578 1.409 1_554 S
C1581 C1579 1.415 . S
C1582 H1572 0.930 . S
C1582 C1580 1.419 . S
C1582 C1583 1.362 . S
C1583 H1573 0.930 . S
C1583 C1576 1.409 1_554 S
C1583 C1582 1.362 . S
H1584 C1590 0.930 . S
H1585 C1593 0.930 . S
H1586 C1594 0.930 1_556 S
H1587 C1595 0.930 . S
H1588 C1598 0.930 . S
H1589 C1599 0.930 1_554 S
C1590 H1584 0.930 . S
C1590 C1591 1.355 1_445 S
C1590 C1592 1.415 . S
C1591 C1590 1.355 1_665 S
C1591 C1593 1.419 . S
C1592 C1590 1.415 . S
C1592 C1597 1.425 1_444 S
C1592 C1599 1.409 1_554 S
C1593 H1585 0.930 . S
C1593 C1591 1.419 . S
C1593 C1594 1.362 . S
C1594 H1586 0.930 1_554 S
C1594 C1593 1.362 . S
C1594 C1597 1.409 1_554 S
C1595 H1587 0.930 . S
C1595 C1596 1.355 1_665 S
C1595 C1597 1.415 . S
C1596 C1595 1.355 1_445 S
C1596 C1598 1.419 . S
C1597 C1592 1.425 1_666 S
C1597 C1594 1.409 1_556 S
C1597 C1595 1.415 . S
C1598 H1588 0.930 . S
C1598 C1596 1.419 . S
C1598 C1599 1.362 . S
C1599 H1589 0.930 1_556 S
C1599 C1592 1.409 1_556 S
C1599 C1598 1.362 . S
H1600 C1606 0.930 . S
H1601 C1609 0.930 . S
H1602 C1610 0.930 . S
H1603 C1611 0.930 . S
H1604 C1614 0.930 . S
H1605 C1615 0.930 . S
C1606 H1600 0.930 . S
C1606 C1607 1.355 . S
C1606 C1608 1.415 . S
C1607 C1606 1.355 . S
C1607 C1609 1.419 1_545 S
C1608 C1606 1.415 . S
C1608 C1613 1.425 1_545 S
C1608 C1615 1.409 . S
C1609 H1601 0.930 . S
C1609 C1607 1.419 1_565 S
C1609 C1610 1.362 . S
C1610 H1602 0.930 . S
C1610 C1609 1.362 . S
C1610 C1613 1.409 . S
C1611 H1603 0.930 . S
C1611 C1612 1.355 . S
C1611 C1613 1.415 . S
C1612 C1611 1.355 . S
C1612 C1614 1.419 1_565 S
C1613 C1608 1.425 1_565 S
C1613 C1610 1.409 . S
C1613 C1611 1.415 . S
C1614 H1604 0.930 . S
C1614 C1612 1.419 1_545 S
C1614 C1615 1.362 . S
C1615 H1605 0.930 . S
C1615 C1608 1.409 . S
C1615 C1614 1.362 . S
H1616 C1622 0.930 . S
H1617 C1625 0.930 . S
H1618 C1626 0.930 . S
H1619 C1627 0.930 . S
H1620 C1630 0.930 . S
H1621 C1631 0.930 . S
C1622 H1616 0.930 . S
C1622 C1623 1.355 1_655 S
C1622 C1624 1.415 . S
C1623 C1622 1.355 1_455 S
C1623 C1625 1.419 . S
C1624 C1622 1.415 . S
C1624 C1629 1.425 1_655 S
C1624 C1631 1.409 . S
C1625 H1617 0.930 . S
C1625 C1623 1.419 . S
C1625 C1626 1.362 . S
C1626 H1618 0.930 . S
C1626 C1625 1.362 . S
C1626 C1629 1.409 . S
C1627 H1619 0.930 . S
C1627 C1628 1.355 1_455 S
C1627 C1629 1.415 . S
C1628 C1627 1.355 1_655 S
C1628 C1630 1.419 . S
C1629 C1624 1.425 1_455 S
C1629 C1626 1.409 . S
C1629 C1627 1.415 . S
C1630 H1620 0.930 . S
C1630 C1628 1.419 . S
C1630 C1631 1.362 . S
C1631 H1621 0.930 . S
C1631 C1624 1.409 . S
C1631 C1630 1.362 . S
H1632 C1638 0.930 . S
H1633 C1641 0.930 . S
H1634 C1642 0.930 . S
H1635 C1643 0.930 . S
H1636 C1646 0.930 . S
H1637 C1647 0.930 . S
C1638 H1632 0.930 . S
C1638 C1639 1.355 . S
C1638 C1640 1.415 . S
C1639 C1638 1.355 . S
C1639 C1641 1.419 . S
C1640 C1638 1.415 . S
C1640 C1645 1.425 1_556 S
C1640 C1647 1.409 1_556 S
C1641 H1633 0.930 . S
C1641 C1639 1.419 . S
C1641 C1642 1.362 . S
C1642 H1634 0.930 . S
C1642 C1641 1.362 . S
C1642 C1645 1.409 1_556 S
C1643 H1635 0.930 . S
C1643 C1644 1.355 . S
C1643 C1645 1.415 . S
C1644 C1643 1.355 . S
C1644 C1646 1.419 . S
C1645 C1640 1.425 1_554 S
C1645 C1642 1.409 1_554 S
C1645 C1643 1.415 . S
C1646 H1636 0.930 . S
C1646 C1644 1.419 . S
C1646 C1647 1.362 . S
C1647 H1637 0.930 . S
C1647 C1640 1.409 1_554 S
C1647 C1646 1.362 . S
H1648 C1654 0.930 . S
H1649 C1657 0.930 . S
H1650 C1658 0.930 . S
H1651 C1659 0.930 . S
H1652 C1662 0.930 . S
H1653 C1663 0.930 . S
C1654 H1648 0.930 . S
C1654 C1655 1.355 . S
C1654 C1656 1.415 . S
C1655 C1654 1.355 . S
C1655 C1657 1.419 . S
C1656 C1654 1.415 . S
C1656 C1661 1.425 . S
C1656 C1663 1.409 . S
C1657 H1649 0.930 . S
C1657 C1655 1.419 . S
C1657 C1658 1.362 . S
C1658 H1650 0.930 . S
C1658 C1657 1.362 . S
C1658 C1661 1.409 . S
C1659 H1651 0.930 . S
C1659 C1660 1.355 . S
C1659 C1661 1.415 . S
C1660 C1659 1.355 . S
C1660 C1662 1.419 . S
C1661 C1656 1.425 . S
C1661 C1658 1.409 . S
C1661 C1659 1.415 . S
C1662 H1652 0.930 . S
C1662 C1660 1.419 . S
C1662 C1663 1.362 . S
C1663 H1653 0.930 . S
C1663 C1656 1.409 . S
C1663 C1662 1.362 . S
H1664 C1670 0.930 . S
H1665 C1673 0.930 . S
H1666 C1674 0.930 . S
H1667 C1675 0.930 . S
H1668 C1678 0.930 . S
H1669 C1679 0.930 . S
C1670 H1664 0.930 . S
C1670 C1671 1.355 . S
C1670 C1672 1.415 . S
C1671 C1670 1.355 . S
C1671 C1673 1.419 . S
C1672 C1670 1.415 . S
C1672 C1677 1.425 . S
C1672 C1679 1.409 . S
C1673 H1665 0.930 . S
C1673 C1671 1.419 . S
C1673 C1674 1.362 . S
C1674 H1666 0.930 . S
C1674 C1673 1.362 . S
C1674 C1677 1.409 . S
C1675 H1667 0.930 . S
C1675 C1676 1.355 . S
C1675 C1677 1.415 . S
C1676 C1675 1.355 . S
C1676 C1678 1.419 . S
C1677 C1672 1.425 . S
C1677 C1674 1.409 . S
C1677 C1675 1.415 . S
C1678 H1668 0.930 . S
C1678 C1676 1.419 . S
C1678 C1679 1.362 . S
C1679 H1669 0.930 . S
C1679 C1672 1.409 . S
C1679 C1678 1.362 . S
H1680 C1686 0.930 . S
H1681 C1689 0.930 . S
H1682 C1690 0.930 . S
H1683 C1691 0.930 . S
H1684 C1694 0.930 . S
H1685 C1695 0.930 . S
C1686 H1680 0.930 . S
C1686 C1687 1.355 . S
C1686 C1688 1.415 . S
C1687 C1686 1.355 . S
C1687 C1689 1.419 1_455 S
C1688 C1686 1.415 . S
C1688 C1693 1.425 1_455 S
C1688 C1695 1.409 . S
C1689 H1681 0.930 . S
C1689 C1687 1.419 1_655 S
C1689 C1690 1.362 . S
C1690 H1682 0.930 . S
C1690 C1689 1.362 . S
C1690 C1693 1.409 . S
C1691 H1683 0.930 . S
C1691 C1692 1.355 . S
C1691 C1693 1.415 . S
C1692 C1691 1.355 . S
C1692 C1694 1.419 1_655 S
C1693 C1688 1.425 1_655 S
C1693 C1690 1.409 . S
C1693 C1691 1.415 . S
C1694 H1684 0.930 . S
C1694 C1692 1.419 1_455 S
C1694 C1695 1.362 . S
C1695 H1685 0.930 . S
C1695 C1688 1.409 . S
C1695 C1694 1.362 . S
H1696 C1702 0.930 . S
H1697 C1705 0.930 . S
H1698 C1706 0.930 . S
H1699 C1707 0.930 . S
H1700 C1710 0.930 . S
H1701 C1711 0.930 . S
C1702 H1696 0.930 . S
C1702 C1703 1.355 . S
C1702 C1704 1.415 . S
C1703 C1702 1.355 . S
C1703 C1705 1.419 . S
C1704 C1702 1.415 . S
C1704 C1709 1.425 . S
C1704 C1711 1.409 . S
C1705 H1697 0.930 . S
C1705 C1703 1.419 . S
C1705 C1706 1.362 . S
C1706 H1698 0.930 . S
C1706 C1705 1.362 . S
C1706 C1709 1.409 . S
C1707 H1699 0.930 . S
C1707 C1708 1.355 . S
C1707 C1709 1.415 . S
C1708 C1707 1.355 . S
C1708 C1710 1.419 . S
C1709 C1704 1.425 . S
C1709 C1706 1.409 . S
C1709 C1707 1.415 . S
C1710 H1700 0.930 . S
C1710 C1708 1.419 . S
C1710 C1711 1.362 . S
C1711 H1701 0.930 . S
C1711 C1704 1.409 . S
C1711 C1710 1.362 . S
H1712 C1718 0.930 . S
H1713 C1721 0.930 . S
H1714 C1722 0.930 . S
H1715 C1723 0.930 . S
H1716 C1726 0.930 . S
H1717 C1727 0.930 . S
C1718 H1712 0.930 . S
C1718 C1719 1.355 . S
C1718 C1720 1.415 . S
C1719 C1718 1.355 . S
C1719 C1721 1.419 . S
C1720 C1718 1.415 . S
C1720 C1725 1.425 . S
C1720 C1727 1.409 . S
C1721 H1713 0.930 . S
C1721 C1719 1.419 . S
C1721 C1722 1.362 . S
C1722 H1714 0.930 . S
C1722 C1721 1.362 . S
C1722 C1725 1.409 . S
C1723 H1715 0.930 . S
C1723 C1724 1.355 . S
C1723 C1725 1.415 . S
C1724 C1723 1.355 . S
C1724 C1726 1.419 . S
C1725 C1720 1.425 . S
C1725 C1722 1.409 . S
C1725 C1723 1.415 . S
C1726 H1716 0.930 . S
C1726 C1724 1.419 . S
C1726 C1727 1.362 . S
C1727 H1717 0.930 . S
C1727 C1720 1.409 . S
C1727 C1726 1.362 . S
H1728 C1734 0.930 . S
H1729 C1737 0.930 . S
H1730 C1738 0.930 . S
H1731 C1739 0.930 . S
H1732 C1742 0.930 . S
H1733 C1743 0.930 . S
C1734 H1728 0.930 . S
C1734 C1735 1.355 . S
C1734 C1736 1.415 . S
C1735 C1734 1.355 . S
C1735 C1737 1.419 . S
C1736 C1734 1.415 . S
C1736 C1741 1.425 . S
C1736 C1743 1.409 . S
C1737 H1729 0.930 . S
C1737 C1735 1.419 . S
C1737 C1738 1.362 . S
C1738 H1730 0.930 . S
C1738 C1737 1.362 . S
C1738 C1741 1.409 . S
C1739 H1731 0.930 . S
C1739 C1740 1.355 . S
C1739 C1741 1.415 . S
C1740 C1739 1.355 . S
C1740 C1742 1.419 . S
C1741 C1736 1.425 . S
C1741 C1738 1.409 . S
C1741 C1739 1.415 . S
C1742 H1732 0.930 . S
C1742 C1740 1.419 . S
C1742 C1743 1.362 . S
C1743 H1733 0.930 . S
C1743 C1736 1.409 . S
C1743 C1742 1.362 . S
H1744 C1750 0.930 . S
H1745 C1753 0.930 . S
H1746 C1754 0.930 1_545 S
H1747 C1755 0.930 . S
H1748 C1758 0.930 . S
H1749 C1759 0.930 1_565 S
C1750 H1744 0.930 . S
C1750 C1751 1.355 . S
C1750 C1752 1.417 . S
C1751 C1750 1.355 . S
C1751 C1753 1.419 . S
C1752 C1750 1.417 . S
C1752 C1757 1.424 1_565 S
C1752 C1759 1.408 1_565 S
C1753 H1745 0.930 . S
C1753 C1751 1.419 . S
C1753 C1754 1.362 . S
C1754 H1746 0.930 1_565 S
C1754 C1753 1.362 . S
C1754 C1757 1.408 1_565 S
C1755 H1747 0.930 . S
C1755 C1756 1.355 . S
C1755 C1757 1.417 . S
C1756 C1755 1.355 . S
C1756 C1758 1.419 . S
C1757 C1752 1.424 1_545 S
C1757 C1754 1.408 1_545 S
C1757 C1755 1.417 . S
C1758 H1748 0.930 . S
C1758 C1756 1.419 . S
C1758 C1759 1.362 . S
C1759 H1749 0.930 1_545 S
C1759 C1752 1.408 1_545 S
C1759 C1758 1.362 . S
H1760 C1766 0.930 . S
H1761 C1769 0.930 . S
H1762 C1770 0.930 . S
H1763 C1771 0.930 . S
H1764 C1774 0.930 . S
H1765 C1775 0.930 . S
C1766 H1760 0.930 . S
C1766 C1767 1.355 . S
C1766 C1768 1.415 . S
C1767 C1766 1.355 . S
C1767 C1769 1.419 . S
C1768 C1766 1.415 . S
C1768 C1773 1.425 . S
C1768 C1775 1.409 . S
C1769 H1761 0.930 . S
C1769 C1767 1.419 . S
C1769 C1770 1.362 . S
C1770 H1762 0.930 . S
C1770 C1769 1.362 . S
C1770 C1773 1.409 . S
C1771 H1763 0.930 . S
C1771 C1772 1.355 . S
C1771 C1773 1.415 . S
C1772 C1771 1.355 . S
C1772 C1774 1.419 . S
C1773 C1768 1.425 . S
C1773 C1770 1.409 . S
C1773 C1771 1.415 . S
C1774 H1764 0.930 . S
C1774 C1772 1.419 . S
C1774 C1775 1.362 . S
C1775 H1765 0.930 . S
C1775 C1768 1.409 . S
C1775 C1774 1.362 . S
H1776 C1782 0.930 . S
H1777 C1785 0.930 . S
H1778 C1786 0.930 . S
H1779 C1787 0.930 . S
H1780 C1790 0.930 . S
H1781 C1791 0.930 . S
C1782 H1776 0.930 . S
C1782 C1783 1.355 . S
C1782 C1784 1.415 . S
C1783 C1782 1.355 . S
C1783 C1785 1.419 . S
C1784 C1782 1.415 . S
C1784 C1789 1.425 1_554 S
C1784 C1791 1.409 1_554 S
C1785 H1777 0.930 . S
C1785 C1783 1.419 . S
C1785 C1786 1.362 . S
C1786 H1778 0.930 . S
C1786 C1785 1.362 . S
C1786 C1789 1.409 1_554 S
C1787 H1779 0.930 . S
C1787 C1788 1.355 . S
C1787 C1789 1.415 . S
C1788 C1787 1.355 . S
C1788 C1790 1.419 . S
C1789 C1784 1.425 1_556 S
C1789 C1786 1.409 1_556 S
C1789 C1787 1.415 . S
C1790 H1780 0.930 . S
C1790 C1788 1.419 . S
C1790 C1791 1.362 . S
C1791 H1781 0.930 . S
C1791 C1784 1.409 1_556 S
C1791 C1790 1.362 . S
H1792 C1798 0.930 . S
H1793 C1801 0.930 . S
H1794 C1802 0.930 . S
H1795 C1803 0.930 1_565 S
H1796 C1806 0.930 . S
H1797 C1807 0.930 . S
C1798 H1792 0.930 . S
C1798 C1799 1.355 . S
C1798 C1800 1.415 . S
C1799 C1798 1.355 . S
C1799 C1801 1.419 1_545 S
C1800 C1798 1.415 . S
C1800 C1805 1.425 . S
C1800 C1807 1.409 . S
C1801 H1793 0.930 . S
C1801 C1799 1.419 1_565 S
C1801 C1802 1.362 . S
C1802 H1794 0.930 . S
C1802 C1801 1.362 . S
C1802 C1805 1.409 1_565 S
C1803 H1795 0.930 1_545 S
C1803 C1804 1.355 . S
C1803 C1805 1.415 . S
C1804 C1803 1.355 . S
C1804 C1806 1.419 . S
C1805 C1800 1.425 . S
C1805 C1802 1.409 1_545 S
C1805 C1803 1.415 . S
C1806 H1796 0.930 . S
C1806 C1804 1.419 . S
C1806 C1807 1.362 . S
C1807 H1797 0.930 . S
C1807 C1800 1.409 . S
C1807 C1806 1.362 . S
H1808 C1814 0.930 . S
H1809 C1817 0.930 . S
H1810 C1818 0.930 . S
H1811 C1819 0.930 . S
H1812 C1822 0.930 . S
H1813 C1823 0.930 . S
C1814 H1808 0.930 . S
C1814 C1815 1.355 . S
C1814 C1816 1.415 . S
C1815 C1814 1.355 . S
C1815 C1817 1.419 . S
C1816 C1814 1.415 . S
C1816 C1821 1.425 . S
C1816 C1823 1.409 . S
C1817 H1809 0.930 . S
C1817 C1815 1.419 . S
C1817 C1818 1.362 . S
C1818 H1810 0.930 . S
C1818 C1817 1.362 . S
C1818 C1821 1.409 . S
C1819 H1811 0.930 . S
C1819 C1820 1.355 . S
C1819 C1821 1.415 . S
C1820 C1819 1.355 . S
C1820 C1822 1.419 . S
C1821 C1816 1.425 . S
C1821 C1818 1.409 . S
C1821 C1819 1.415 . S
C1822 H1812 0.930 . S
C1822 C1820 1.419 . S
C1822 C1823 1.362 . S
C1823 H1813 0.930 . S
C1823 C1816 1.409 . S
C1823 C1822 1.362 . S
H1824 C1830 0.930 . S
H1825 C1833 0.930 . S
H1826 C1834 0.930 . S
H1827 C1835 0.930 . S
H1828 C1838 0.930 . S
H1829 C1839 0.930 . S
C1830 H1824 0.930 . S
C1830 C1831 1.355 . S
C1830 C1832 1.415 . S
C1831 C1830 1.355 . S
C1831 C1833 1.419 . S
C1832 C1830 1.415 . S
C1832 C1837 1.425 . S
C1832 C1839 1.409 . S
C1833 H1825 0.930 . S
C1833 C1831 1.419 . S
C1833 C1834 1.362 . S
C1834 H1826 0.930 . S
C1834 C1833 1.362 . S
C1834 C1837 1.409 . S
C1835 H1827 0.930 . S
C1835 C1836 1.355 . S
C1835 C1837 1.415 . S
C1836 C1835 1.355 . S
C1836 C1838 1.419 . S
C1837 C1832 1.425 . S
C1837 C1834 1.409 . S
C1837 C1835 1.415 . S
C1838 H1828 0.930 . S
C1838 C1836 1.419 . S
C1838 C1839 1.362 . S
C1839 H1829 0.930 . S
C1839 C1832 1.409 . S
C1839 C1838 1.362 . S
H1840 C1846 0.930 . S
H1841 C1849 0.930 . S
H1842 C1850 0.930 . S
H1843 C1851 0.930 1_565 S
H1844 C1854 0.930 . S
H1845 C1855 0.930 . S
C1846 H1840 0.930 . S
C1846 C1847 1.355 . S
C1846 C1848 1.415 . S
C1847 C1846 1.355 . S
C1847 C1849 1.419 1_545 S
C1848 C1846 1.415 . S
C1848 C1853 1.425 . S
C1848 C1855 1.409 . S
C1849 H1841 0.930 . S
C1849 C1847 1.419 1_565 S
C1849 C1850 1.362 . S
C1850 H1842 0.930 . S
C1850 C1849 1.362 . S
C1850 C1853 1.409 1_565 S
C1851 H1843 0.930 1_545 S
C1851 C1852 1.355 . S
C1851 C1853 1.415 . S
C1852 C1851 1.355 . S
C1852 C1854 1.419 . S
C1853 C1848 1.425 . S
C1853 C1850 1.409 1_545 S
C1853 C1851 1.415 . S
C1854 H1844 0.930 . S
C1854 C1852 1.419 . S
C1854 C1855 1.362 . S
C1855 H1845 0.930 . S
C1855 C1848 1.409 . S
C1855 C1854 1.362 . S
H1856 C1862 0.930 1_545 S
H1857 C1865 0.930 . S
H1858 C1866 0.930 . S
H1859 C1867 0.930 . S
H1860 C1870 0.946 . S
H1861 C1871 0.930 . S
C1862 H1856 0.930 1_565 S
C1862 C1863 1.355 . S
C1862 C1864 1.415 . S
C1863 C1862 1.355 . S
C1863 C1865 1.419 . S
C1864 C1862 1.415 . S
C1864 C1869 1.425 . S
C1864 C1871 1.409 1_565 S
C1865 H1857 0.930 . S
C1865 C1863 1.419 . S
C1865 C1866 1.362 . S
C1866 H1858 0.930 . S
C1866 C1865 1.362 . S
C1866 C1869 1.409 . S
C1867 H1859 0.930 . S
C1867 C1868 1.355 . S
C1867 C1869 1.415 . S
C1868 C1867 1.355 . S
C1868 C1870 1.401 1_565 S
C1869 C1864 1.425 . S
C1869 C1866 1.409 . S
C1869 C1867 1.415 . S
C1870 H1860 0.946 . S
C1870 C1868 1.401 1_545 S
C1870 C1871 1.367 . S
C1871 H1861 0.930 . S
C1871 C1864 1.409 1_545 S
C1871 C1870 1.367 . S
H1872 C1878 0.930 . S
H1873 C1881 0.930 . S
H1874 C1882 0.930 . S
H1875 C1883 0.930 . S
H1876 C1886 0.930 . S
H1877 C1887 0.930 . S
C1878 H1872 0.930 . S
C1878 C1879 1.355 . S
C1878 C1880 1.415 . S
C1879 C1878 1.355 . S
C1879 C1881 1.419 . S
C1880 C1878 1.415 . S
C1880 C1885 1.425 . S
C1880 C1887 1.409 . S
C1881 H1873 0.930 . S
C1881 C1879 1.419 . S
C1881 C1882 1.362 . S
C1882 H1874 0.930 . S
C1882 C1881 1.362 . S
C1882 C1885 1.409 . S
C1883 H1875 0.930 . S
C1883 C1884 1.355 . S
C1883 C1885 1.415 . S
C1884 C1883 1.355 . S
C1884 C1886 1.419 . S
C1885 C1880 1.425 . S
C1885 C1882 1.409 . S
C1885 C1883 1.415 . S
C1886 H1876 0.930 . S
C1886 C1884 1.419 . S
C1886 C1887 1.362 . S
C1887 H1877 0.930 . S
C1887 C1880 1.409 . S
C1887 C1886 1.362 . S
H1888 C1894 0.930 . S
H1889 C1897 0.930 . S
H1890 C1898 0.930 . S
H1891 C1899 0.930 . S
H1892 C1902 0.930 . S
H1893 C1903 0.930 . S
C1894 H1888 0.930 . S
C1894 C1895 1.355 . S
C1894 C1896 1.415 . S
C1895 C1894 1.355 . S
C1895 C1897 1.419 . S
C1896 C1894 1.415 . S
C1896 C1901 1.425 . S
C1896 C1903 1.409 . S
C1897 H1889 0.930 . S
C1897 C1895 1.419 . S
C1897 C1898 1.362 . S
C1898 H1890 0.930 . S
C1898 C1897 1.362 . S
C1898 C1901 1.409 . S
C1899 H1891 0.930 . S
C1899 C1900 1.355 . S
C1899 C1901 1.415 . S
C1900 C1899 1.355 . S
C1900 C1902 1.419 . S
C1901 C1896 1.425 . S
C1901 C1898 1.409 . S
C1901 C1899 1.415 . S
C1902 H1892 0.930 . S
C1902 C1900 1.419 . S
C1902 C1903 1.362 . S
C1903 H1893 0.930 . S
C1903 C1896 1.409 . S
C1903 C1902 1.362 . S
H1904 C1910 0.930 . S
H1905 C1913 0.930 . S
H1906 C1914 0.930 . S
H1907 C1915 0.930 . S
H1908 C1918 0.930 . S
H1909 C1919 0.930 . S
C1910 H1904 0.930 . S
C1910 C1911 1.355 . S
C1910 C1912 1.415 . S
C1911 C1910 1.355 . S
C1911 C1913 1.419 . S
C1912 C1910 1.415 . S
C1912 C1917 1.425 . S
C1912 C1919 1.409 . S
C1913 H1905 0.930 . S
C1913 C1911 1.419 . S
C1913 C1914 1.362 . S
C1914 H1906 0.930 . S
C1914 C1913 1.362 . S
C1914 C1917 1.409 . S
C1915 H1907 0.930 . S
C1915 C1916 1.355 . S
C1915 C1917 1.415 . S
C1916 C1915 1.355 . S
C1916 C1918 1.419 . S
C1917 C1912 1.425 . S
C1917 C1914 1.409 . S
C1917 C1915 1.415 . S
C1918 H1908 0.930 . S
C1918 C1916 1.419 . S
C1918 C1919 1.362 . S
C1919 H1909 0.930 . S
C1919 C1912 1.409 . S
C1919 C1918 1.362 . S
H1920 C1926 0.930 . S
H1921 C1929 0.930 . S
H1922 C1930 0.930 . S
H1923 C1931 0.930 . S
H1924 C1934 0.930 . S
H1925 C1935 0.930 . S
C1926 H1920 0.930 . S
C1926 C1927 1.355 . S
C1926 C1928 1.415 . S
C1927 C1926 1.355 . S
C1927 C1929 1.419 . S
C1928 C1926 1.415 . S
C1928 C1933 1.425 . S
C1928 C1935 1.409 . S
C1929 H1921 0.930 . S
C1929 C1927 1.419 . S
C1929 C1930 1.362 . S
C1930 H1922 0.930 . S
C1930 C1929 1.362 . S
C1930 C1933 1.409 . S
C1931 H1923 0.930 . S
C1931 C1932 1.355 . S
C1931 C1933 1.415 . S
C1932 C1931 1.355 . S
C1932 C1934 1.419 . S
C1933 C1928 1.425 . S
C1933 C1930 1.409 . S
C1933 C1931 1.415 . S
C1934 H1924 0.930 . S
C1934 C1932 1.419 . S
C1934 C1935 1.362 . S
C1935 H1925 0.930 . S
C1935 C1928 1.409 . S
C1935 C1934 1.362 . S
H1936 C1942 0.930 . S
H1937 C1945 0.930 . S
H1938 C1946 0.930 . S
H1939 C1947 0.930 . S
H1940 C1950 0.930 . S
H1941 C1951 0.930 . S
C1942 H1936 0.930 . S
C1942 C1943 1.355 . S
C1942 C1944 1.415 . S
C1943 C1942 1.355 . S
C1943 C1945 1.419 . S
C1944 C1942 1.415 . S
C1944 C1949 1.425 . S
C1944 C1951 1.409 . S
C1945 H1937 0.930 . S
C1945 C1943 1.419 . S
C1945 C1946 1.362 . S
C1946 H1938 0.930 . S
C1946 C1945 1.362 . S
C1946 C1949 1.409 . S
C1947 H1939 0.930 . S
C1947 C1948 1.355 . S
C1947 C1949 1.415 . S
C1948 C1947 1.355 . S
C1948 C1950 1.419 . S
C1949 C1944 1.425 . S
C1949 C1946 1.409 . S
C1949 C1947 1.415 . S
C1950 H1940 0.930 . S
C1950 C1948 1.419 . S
C1950 C1951 1.362 . S
C1951 H1941 0.930 . S
C1951 C1944 1.409 . S
C1951 C1950 1.362 . S
H1952 C1958 0.930 . S
H1953 C1961 0.930 . S
H1954 C1962 0.930 . S
H1955 C1963 0.930 . S
H1956 C1966 0.930 . S
H1957 C1967 0.930 . S
C1958 H1952 0.930 . S
C1958 C1959 1.355 . S
C1958 C1960 1.415 . S
C1959 C1958 1.355 . S
C1959 C1961 1.419 . S
C1960 C1958 1.415 . S
C1960 C1965 1.425 . S
C1960 C1967 1.409 . S
C1961 H1953 0.930 . S
C1961 C1959 1.419 . S
C1961 C1962 1.362 . S
C1962 H1954 0.930 . S
C1962 C1961 1.362 . S
C1962 C1965 1.409 . S
C1963 H1955 0.930 . S
C1963 C1964 1.355 . S
C1963 C1965 1.415 . S
C1964 C1963 1.355 . S
C1964 C1966 1.419 . S
C1965 C1960 1.425 . S
C1965 C1962 1.409 . S
C1965 C1963 1.415 . S
C1966 H1956 0.930 . S
C1966 C1964 1.419 . S
C1966 C1967 1.362 . S
C1967 H1957 0.930 . S
C1967 C1960 1.409 . S
C1967 C1966 1.362 . S
H1968 C1974 0.930 . S
H1969 C1977 0.930 . S
H1970 C1978 0.930 . S
H1971 C1979 0.930 . S
H1972 C1982 0.930 . S
H1973 C1983 0.930 . S
C1974 H1968 0.930 . S
C1974 C1975 1.355 . S
C1974 C1976 1.415 . S
C1975 C1974 1.355 . S
C1975 C1977 1.419 . S
C1976 C1974 1.415 . S
C1976 C1981 1.425 . S
C1976 C1983 1.409 . S
C1977 H1969 0.930 . S
C1977 C1975 1.419 . S
C1977 C1978 1.362 . S
C1978 H1970 0.930 . S
C1978 C1977 1.362 . S
C1978 C1981 1.409 . S
C1979 H1971 0.930 . S
C1979 C1980 1.355 . S
C1979 C1981 1.415 . S
C1980 C1979 1.355 . S
C1980 C1982 1.419 . S
C1981 C1976 1.425 . S
C1981 C1978 1.409 . S
C1981 C1979 1.415 . S
C1982 H1972 0.930 . S
C1982 C1980 1.419 . S
C1982 C1983 1.362 . S
C1983 H1973 0.930 . S
C1983 C1976 1.409 . S
C1983 C1982 1.362 . S
H1984 C1990 0.930 . S
H1985 C1993 0.930 . S
H1986 C1994 0.930 . S
H1987 C1995 0.930 . S
H1988 C1998 0.930 . S
H1989 C1999 0.930 . S
C1990 H1984 0.930 . S
C1990 C1991 1.355 . S
C1990 C1992 1.415 . S
C1991 C1990 1.355 . S
C1991 C1993 1.419 . S
C1992 C1990 1.415 . S
C1992 C1997 1.425 . S
C1992 C1999 1.409 . S
C1993 H1985 0.930 . S
C1993 C1991 1.419 . S
C1993 C1994 1.362 . S
C1994 H1986 0.930 . S
C1994 C1993 1.362 . S
C1994 C1997 1.409 . S
C1995 H1987 0.930 . S
C1995 C1996 1.355 . S
C1995 C1997 1.415 . S
C1996 C1995 1.355 . S
C1996 C1998 1.419 . S
C1997 C1992 1.425 . S
C1997 C1994 1.409 . S
C1997 C1995 1.415 . S
C1998 H1988 0.930 . S
C1998 C1996 1.419 . S
C1998 C1999 1.362 . S
C1999 H1989 0.930 . S
C1999 C1992 1.409 . S
C1999 C1998 1.362 . S
H2000 C2006 0.930 . S
H2001 C2009 0.930 . S
H2002 C2010 0.930 . S
H2003 C2011 0.930 . S
H2004 C2014 0.930 . S
H2005 C2015 0.930 . S
C2006 H2000 0.930 . S
C2006 C2007 1.355 . S
C2006 C2008 1.415 . S
C2007 C2006 1.355 . S
C2007 C2009 1.419 . S
C2008 C2006 1.415 . S
C2008 C2013 1.425 . S
C2008 C2015 1.409 . S
C2009 H2001 0.930 . S
C2009 C2007 1.419 . S
C2009 C2010 1.362 . S
C2010 H2002 0.930 . S
C2010 C2009 1.362 . S
C2010 C2013 1.409 . S
C2011 H2003 0.930 . S
C2011 C2012 1.355 . S
C2011 C2013 1.415 . S
C2012 C2011 1.355 . S
C2012 C2014 1.419 . S
C2013 C2008 1.425 . S
C2013 C2010 1.409 . S
C2013 C2011 1.415 . S
C2014 H2004 0.930 . S
C2014 C2012 1.419 . S
C2014 C2015 1.362 . S
C2015 H2005 0.930 . S
C2015 C2008 1.409 . S
C2015 C2014 1.362 . S
H2016 C2022 0.930 . S
H2017 C2025 0.930 . S
H2018 C2026 0.930 . S
H2019 C2027 0.930 . S
H2020 C2030 0.930 . S
H2021 C2031 0.930 . S
C2022 H2016 0.930 . S
C2022 C2023 1.355 . S
C2022 C2024 1.415 . S
C2023 C2022 1.355 . S
C2023 C2025 1.419 . S
C2024 C2022 1.415 . S
C2024 C2029 1.425 . S
C2024 C2031 1.409 . S
C2025 H2017 0.930 . S
C2025 C2023 1.419 . S
C2025 C2026 1.362 . S
C2026 H2018 0.930 . S
C2026 C2025 1.362 . S
C2026 C2029 1.409 . S
C2027 H2019 0.930 . S
C2027 C2028 1.355 . S
C2027 C2029 1.415 . S
C2028 C2027 1.355 . S
C2028 C2030 1.419 . S
C2029 C2024 1.425 . S
C2029 C2026 1.409 . S
C2029 C2027 1.415 . S
C2030 H2020 0.930 . S
C2030 C2028 1.419 . S
C2030 C2031 1.362 . S
C2031 H2021 0.930 . S
C2031 C2024 1.409 . S
C2031 C2030 1.362 . S
H2032 C2038 0.930 . S
H2033 C2041 0.930 . S
H2034 C2042 0.930 . S
H2035 C2043 0.930 . S
H2036 C2046 0.930 . S
H2037 C2047 0.930 . S
C2038 H2032 0.930 . S
C2038 C2039 1.355 . S
C2038 C2040 1.415 . S
C2039 C2038 1.355 . S
C2039 C2041 1.419 . S
C2040 C2038 1.415 . S
C2040 C2045 1.425 . S
C2040 C2047 1.409 . S
C2041 H2033 0.930 . S
C2041 C2039 1.419 . S
C2041 C2042 1.362 . S
C2042 H2034 0.930 . S
C2042 C2041 1.362 . S
C2042 C2045 1.409 . S
C2043 H2035 0.930 . S
C2043 C2044 1.355 . S
C2043 C2045 1.415 . S
C2044 C2043 1.355 . S
C2044 C2046 1.419 . S
C2045 C2040 1.425 . S
C2045 C2042 1.409 . S
C2045 C2043 1.415 . S
C2046 H2036 0.930 . S
C2046 C2044 1.419 . S
C2046 C2047 1.362 . S
C2047 H2037 0.930 . S
C2047 C2040 1.409 . S
C2047 C2046 1.362 . S
H2048 C2054 0.930 . S
H2049 C2057 0.930 . S
H2050 C2058 0.930 . S
H2051 C2059 0.930 . S
H2052 C2062 0.930 . S
H2053 C2063 0.930 . S
C2054 H2048 0.930 . S
C2054 C2055 1.355 . S
C2054 C2056 1.415 . S
C2055 C2054 1.355 . S
C2055 C2057 1.419 . S
C2056 C2054 1.415 . S
C2056 C2061 1.425 . S
C2056 C2063 1.409 . S
C2057 H2049 0.930 . S
C2057 C2055 1.419 . S
C2057 C2058 1.362 . S
C2058 H2050 0.930 . S
C2058 C2057 1.362 . S
C2058 C2061 1.409 . S
C2059 H2051 0.930 . S
C2059 C2060 1.355 . S
C2059 C2061 1.415 . S
C2060 C2059 1.355 . S
C2060 C2062 1.419 . S
C2061 C2056 1.425 . S
C2061 C2058 1.409 . S
C2061 C2059 1.415 . S
C2062 H2052 0.930 . S
C2062 C2060 1.419 . S
C2062 C2063 1.362 . S
C2063 H2053 0.930 . S
C2063 C2056 1.409 . S
C2063 C2062 1.362 . S
H2064 C2070 0.930 . S
H2065 C2073 0.930 . S
H2066 C2074 0.930 . S
H2067 C2075 0.930 . S
H2068 C2078 0.930 . S
H2069 C2079 0.930 . S
C2070 H2064 0.930 . S
C2070 C2071 1.355 . S
C2070 C2072 1.415 . S
C2071 C2070 1.355 . S
C2071 C2073 1.419 . S
C2072 C2070 1.415 . S
C2072 C2077 1.425 . S
C2072 C2079 1.409 . S
C2073 H2065 0.930 . S
C2073 C2071 1.419 . S
C2073 C2074 1.362 . S
C2074 H2066 0.930 . S
C2074 C2073 1.362 . S
C2074 C2077 1.409 . S
C2075 H2067 0.930 . S
C2075 C2076 1.355 . S
C2075 C2077 1.415 . S
C2076 C2075 1.355 . S
C2076 C2078 1.419 . S
C2077 C2072 1.425 . S
C2077 C2074 1.409 . S
C2077 C2075 1.415 . S
C2078 H2068 0.930 . S
C2078 C2076 1.419 . S
C2078 C2079 1.362 . S
C2079 H2069 0.930 . S
C2079 C2072 1.409 . S
C2079 C2078 1.362 . S
H2080 C2086 0.930 . S
H2081 C2089 0.930 . S
H2082 C2090 0.930 . S
H2083 C2091 0.930 . S
H2084 C2094 0.930 . S
H2085 C2095 0.930 . S
C2086 H2080 0.930 . S
C2086 C2087 1.355 . S
C2086 C2088 1.415 . S
C2087 C2086 1.355 . S
C2087 C2089 1.419 . S
C2088 C2086 1.415 . S
C2088 C2093 1.425 . S
C2088 C2095 1.409 . S
C2089 H2081 0.930 . S
C2089 C2087 1.419 . S
C2089 C2090 1.362 . S
C2090 H2082 0.930 . S
C2090 C2089 1.362 . S
C2090 C2093 1.409 . S
C2091 H2083 0.930 . S
C2091 C2092 1.355 . S
C2091 C2093 1.415 . S
C2092 C2091 1.355 . S
C2092 C2094 1.419 . S
C2093 C2088 1.425 . S
C2093 C2090 1.409 . S
C2093 C2091 1.415 . S
C2094 H2084 0.930 . S
C2094 C2092 1.419 . S
C2094 C2095 1.362 . S
C2095 H2085 0.930 . S
C2095 C2088 1.409 . S
C2095 C2094 1.362 . S
H2096 C2102 0.930 . S
H2097 C2105 0.930 . S
H2098 C2106 0.930 . S
H2099 C2107 0.930 . S
H2100 C2110 0.930 . S
H2101 C2111 0.930 . S
C2102 H2096 0.930 . S
C2102 C2103 1.355 . S
C2102 C2104 1.415 . S
C2103 C2102 1.355 . S
C2103 C2105 1.419 . S
C2104 C2102 1.415 . S
C2104 C2109 1.425 . S
C2104 C2111 1.409 . S
C2105 H2097 0.930 . S
C2105 C2103 1.419 . S
C2105 C2106 1.362 . S
C2106 H2098 0.930 . S
C2106 C2105 1.362 . S
C2106 C2109 1.409 . S
C2107 H2099 0.930 . S
C2107 C2108 1.355 . S
C2107 C2109 1.415 . S
C2108 C2107 1.355 . S
C2108 C2110 1.419 . S
C2109 C2104 1.425 . S
C2109 C2106 1.409 . S
C2109 C2107 1.415 . S
C2110 H2100 0.930 . S
C2110 C2108 1.419 . S
C2110 C2111 1.362 . S
C2111 H2101 0.930 . S
C2111 C2104 1.409 . S
C2111 C2110 1.362 . S
H2112 C2118 0.930 . S
H2113 C2121 0.930 . S
H2114 C2122 0.930 . S
H2115 C2123 0.930 . S
H2116 C2126 0.930 . S
H2117 C2127 0.930 . S
C2118 H2112 0.930 . S
C2118 C2119 1.355 . S
C2118 C2120 1.415 . S
C2119 C2118 1.355 . S
C2119 C2121 1.419 . S
C2120 C2118 1.415 . S
C2120 C2125 1.425 . S
C2120 C2127 1.409 . S
C2121 H2113 0.930 . S
C2121 C2119 1.419 . S
C2121 C2122 1.362 . S
C2122 H2114 0.930 . S
C2122 C2121 1.362 . S
C2122 C2125 1.409 . S
C2123 H2115 0.930 . S
C2123 C2124 1.355 . S
C2123 C2125 1.415 . S
C2124 C2123 1.355 . S
C2124 C2126 1.419 . S
C2125 C2120 1.425 . S
C2125 C2122 1.409 . S
C2125 C2123 1.415 . S
C2126 H2116 0.930 . S
C2126 C2124 1.419 . S
C2126 C2127 1.362 . S
C2127 H2117 0.930 . S
C2127 C2120 1.409 . S
C2127 C2126 1.362 . S
H2128 C2134 0.930 . S
H2129 C2137 0.930 . S
H2130 C2138 0.930 . S
H2131 C2139 0.930 . S
H2132 C2142 0.930 . S
H2133 C2143 0.930 . S
C2134 H2128 0.930 . S
C2134 C2135 1.355 . S
C2134 C2136 1.415 . S
C2135 C2134 1.355 . S
C2135 C2137 1.419 . S
C2136 C2134 1.415 . S
C2136 C2141 1.425 . S
C2136 C2143 1.409 . S
C2137 H2129 0.930 . S
C2137 C2135 1.419 . S
C2137 C2138 1.362 . S
C2138 H2130 0.930 . S
C2138 C2137 1.362 . S
C2138 C2141 1.409 . S
C2139 H2131 0.930 . S
C2139 C2140 1.355 . S
C2139 C2141 1.415 . S
C2140 C2139 1.355 . S
C2140 C2142 1.419 . S
C2141 C2136 1.425 . S
C2141 C2138 1.409 . S
C2141 C2139 1.415 . S
C2142 H2132 0.930 . S
C2142 C2140 1.419 . S
C2142 C2143 1.362 . S
C2143 H2133 0.930 . S
C2143 C2136 1.409 . S
C2143 C2142 1.362 . S
H2144 C2150 0.930 . S
H2145 C2153 0.930 . S
H2146 C2154 0.930 . S
H2147 C2155 0.930 . S
H2148 C2158 0.930 . S
H2149 C2159 0.930 . S
C2150 H2144 0.930 . S
C2150 C2151 1.355 . S
C2150 C2152 1.415 . S
C2151 C2150 1.355 . S
C2151 C2153 1.419 . S
C2152 C2150 1.415 . S
C2152 C2157 1.425 . S
C2152 C2159 1.409 . S
C2153 H2145 0.930 . S
C2153 C2151 1.419 . S
C2153 C2154 1.362 . S
C2154 H2146 0.930 . S
C2154 C2153 1.362 . S
C2154 C2157 1.409 . S
C2155 H2147 0.930 . S
C2155 C2156 1.355 . S
C2155 C2157 1.415 . S
C2156 C2155 1.355 . S
C2156 C2158 1.419 . S
C2157 C2152 1.425 . S
C2157 C2154 1.409 . S
C2157 C2155 1.415 . S
C2158 H2148 0.930 . S
C2158 C2156 1.419 . S
C2158 C2159 1.362 . S
C2159 H2149 0.930 . S
C2159 C2152 1.409 . S
C2159 C2158 1.362 . S
H2160 C2166 0.930 . S
H2161 C2169 0.930 . S
H2162 C2170 0.930 . S
H2163 C2171 0.930 . S
H2164 C2174 0.930 . S
H2165 C2175 0.930 . S
C2166 H2160 0.930 . S
C2166 C2167 1.355 . S
C2166 C2168 1.415 . S
C2167 C2166 1.355 . S
C2167 C2169 1.419 . S
C2168 C2166 1.415 . S
C2168 C2173 1.425 . S
C2168 C2175 1.409 . S
C2169 H2161 0.930 . S
C2169 C2167 1.419 . S
C2169 C2170 1.362 . S
C2170 H2162 0.930 . S
C2170 C2169 1.362 . S
C2170 C2173 1.409 . S
C2171 H2163 0.930 . S
C2171 C2172 1.355 . S
C2171 C2173 1.415 . S
C2172 C2171 1.355 . S
C2172 C2174 1.419 . S
C2173 C2168 1.425 . S
C2173 C2170 1.409 . S
C2173 C2171 1.415 . S
C2174 H2164 0.930 . S
C2174 C2172 1.419 . S
C2174 C2175 1.362 . S
C2175 H2165 0.930 . S
C2175 C2168 1.409 . S
C2175 C2174 1.362 . S
H2176 C2182 0.930 . S
H2177 C2185 0.930 . S
H2178 C2186 0.930 . S
H2179 C2187 0.930 . S
H2180 C2190 0.930 . S
H2181 C2191 0.930 . S
C2182 H2176 0.930 . S
C2182 C2183 1.355 . S
C2182 C2184 1.415 . S
C2183 C2182 1.355 . S
C2183 C2185 1.419 . S
C2184 C2182 1.415 . S
C2184 C2189 1.425 . S
C2184 C2191 1.409 . S
C2185 H2177 0.930 . S
C2185 C2183 1.419 . S
C2185 C2186 1.362 . S
C2186 H2178 0.930 . S
C2186 C2185 1.362 . S
C2186 C2189 1.409 . S
C2187 H2179 0.930 . S
C2187 C2188 1.355 . S
C2187 C2189 1.415 . S
C2188 C2187 1.355 . S
C2188 C2190 1.419 . S
C2189 C2184 1.425 . S
C2189 C2186 1.409 . S
C2189 C2187 1.415 . S
C2190 H2180 0.930 . S
C2190 C2188 1.419 . S
C2190 C2191 1.362 . S
C2191 H2181 0.930 . S
C2191 C2184 1.409 . S
C2191 C2190 1.362 . S
H2192 C2198 0.930 . S
H2193 C2201 0.930 . S
H2194 C2202 0.930 . S
H2195 C2203 0.930 . S
H2196 C2206 0.930 . S
H2197 C2207 0.930 . S
C2198 H2192 0.930 . S
C2198 C2199 1.355 . S
C2198 C2200 1.415 . S
C2199 C2198 1.355 . S
C2199 C2201 1.419 . S
C2200 C2198 1.415 . S
C2200 C2205 1.425 . S
C2200 C2207 1.409 . S
C2201 H2193 0.930 . S
C2201 C2199 1.419 . S
C2201 C2202 1.362 . S
C2202 H2194 0.930 . S
C2202 C2201 1.362 . S
C2202 C2205 1.409 . S
C2203 H2195 0.930 . S
C2203 C2204 1.355 . S
C2203 C2205 1.415 . S
C2204 C2203 1.355 . S
C2204 C2206 1.419 . S
C2205 C2200 1.425 . S
C2205 C2202 1.409 . S
C2205 C2203 1.415 . S
C2206 H2196 0.930 . S
C2206 C2204 1.419 . S
C2206 C2207 1.362 . S
C2207 H2197 0.930 . S
C2207 C2200 1.409 . S
C2207 C2206 1.362 . S
H2208 C2214 0.930 . S
H2209 C2217 0.930 . S
H2210 C2218 0.930 . S
H2211 C2219 0.930 . S
H2212 C2222 0.930 . S
H2213 C2223 0.930 . S
C2214 H2208 0.930 . S
C2214 C2215 1.355 . S
C2214 C2216 1.415 . S
C2215 C2214 1.355 . S
C2215 C2217 1.419 . S
C2216 C2214 1.415 . S
C2216 C2221 1.425 . S
C2216 C2223 1.409 . S
C2217 H2209 0.930 . S
C2217 C2215 1.419 . S
C2217 C2218 1.362 . S
C2218 H2210 0.930 . S
C2218 C2217 1.362 . S
C2218 C2221 1.409 . S
C2219 H2211 0.930 . S
C2219 C2220 1.355 . S
C2219 C2221 1.415 . S
C2220 C2219 1.355 . S
C2220 C2222 1.419 . S
C2221 C2216 1.425 . S
C2221 C2218 1.409 . S
C2221 C2219 1.415 . S
C2222 H2212 0.930 . S
C2222 C2220 1.419 . S
C2222 C2223 1.362 . S
C2223 H2213 0.930 . S
C2223 C2216 1.409 . S
C2223 C2222 1.362 . S
H2224 C2230 0.930 . S
H2225 C2233 0.930 . S
H2226 C2234 0.930 . S
H2227 C2235 0.930 . S
H2228 C2238 0.930 . S
H2229 C2239 0.930 . S
C2230 H2224 0.930 . S
C2230 C2231 1.355 . S
C2230 C2232 1.415 . S
C2231 C2230 1.355 . S
C2231 C2233 1.419 . S
C2232 C2230 1.415 . S
C2232 C2237 1.425 . S
C2232 C2239 1.409 . S
C2233 H2225 0.930 . S
C2233 C2231 1.419 . S
C2233 C2234 1.362 . S
C2234 H2226 0.930 . S
C2234 C2233 1.362 . S
C2234 C2237 1.409 . S
C2235 H2227 0.930 . S
C2235 C2236 1.355 . S
C2235 C2237 1.415 . S
C2236 C2235 1.355 . S
C2236 C2238 1.419 . S
C2237 C2232 1.425 . S
C2237 C2234 1.409 . S
C2237 C2235 1.415 . S
C2238 H2228 0.930 . S
C2238 C2236 1.419 . S
C2238 C2239 1.362 . S
C2239 H2229 0.930 . S
C2239 C2232 1.409 . S
C2239 C2238 1.362 . S
H2240 C2246 0.930 . S
H2241 C2249 0.930 . S
H2242 C2250 0.930 . S
H2243 C2251 0.930 . S
H2244 C2254 0.930 . S
H2245 C2255 0.930 . S
C2246 H2240 0.930 . S
C2246 C2247 1.355 . S
C2246 C2248 1.415 . S
C2247 C2246 1.355 . S
C2247 C2249 1.419 . S
C2248 C2246 1.415 . S
C2248 C2253 1.425 . S
C2248 C2255 1.409 . S
C2249 H2241 0.930 . S
C2249 C2247 1.419 . S
C2249 C2250 1.362 . S
C2250 H2242 0.930 . S
C2250 C2249 1.362 . S
C2250 C2253 1.409 . S
C2251 H2243 0.930 . S
C2251 C2252 1.355 . S
C2251 C2253 1.415 . S
C2252 C2251 1.355 . S
C2252 C2254 1.419 . S
C2253 C2248 1.425 . S
C2253 C2250 1.409 . S
C2253 C2251 1.415 . S
C2254 H2244 0.930 . S
C2254 C2252 1.419 . S
C2254 C2255 1.362 . S
C2255 H2245 0.930 . S
C2255 C2248 1.409 . S
C2255 C2254 1.362 . S
H2256 C2262 0.930 . S
H2257 C2265 0.930 . S
H2258 C2266 0.930 . S
H2259 C2267 0.930 . S
H2260 C2270 0.930 . S
H2261 C2271 0.930 . S
C2262 H2256 0.930 . S
C2262 C2263 1.355 . S
C2262 C2264 1.415 . S
C2263 C2262 1.355 . S
C2263 C2265 1.419 . S
C2264 C2262 1.415 . S
C2264 C2269 1.425 . S
C2264 C2271 1.409 . S
C2265 H2257 0.930 . S
C2265 C2263 1.419 . S
C2265 C2266 1.362 . S
C2266 H2258 0.930 . S
C2266 C2265 1.362 . S
C2266 C2269 1.409 . S
C2267 H2259 0.930 . S
C2267 C2268 1.355 . S
C2267 C2269 1.415 . S
C2268 C2267 1.355 . S
C2268 C2270 1.419 . S
C2269 C2264 1.425 . S
C2269 C2266 1.409 . S
C2269 C2267 1.415 . S
C2270 H2260 0.930 . S
C2270 C2268 1.419 . S
C2270 C2271 1.362 . S
C2271 H2261 0.930 . S
C2271 C2264 1.409 . S
C2271 C2270 1.362 . S
H2272 C2278 0.930 . S
H2273 C2281 0.930 . S
H2274 C2282 0.930 . S
H2275 C2283 0.930 . S
H2276 C2286 0.930 . S
H2277 C2287 0.930 . S
C2278 H2272 0.930 . S
C2278 C2279 1.355 . S
C2278 C2280 1.415 . S
C2279 C2278 1.355 . S
C2279 C2281 1.419 . S
C2280 C2278 1.415 . S
C2280 C2285 1.425 . S
C2280 C2287 1.409 . S
C2281 H2273 0.930 . S
C2281 C2279 1.419 . S
C2281 C2282 1.362 . S
C2282 H2274 0.930 . S
C2282 C2281 1.362 . S
C2282 C2285 1.409 . S
C2283 H2275 0.930 . S
C2283 C2284 1.355 . S
C2283 C2285 1.415 . S
C2284 C2283 1.355 . S
C2284 C2286 1.419 . S
C2285 C2280 1.425 . S
C2285 C2282 1.409 . S
C2285 C2283 1.415 . S
C2286 H2276 0.930 . S
C2286 C2284 1.419 . S
C2286 C2287 1.362 . S
C2287 H2277 0.930 . S
C2287 C2280 1.409 . S
C2287 C2286 1.362 . S
H2288 C2294 0.930 . S
H2289 C2297 0.930 . S
H2290 C2298 0.930 . S
H2291 C2299 0.930 . S
H2292 C2302 0.930 . S
H2293 C2303 0.930 . S
C2294 H2288 0.930 . S
C2294 C2295 1.355 . S
C2294 C2296 1.415 . S
C2295 C2294 1.355 . S
C2295 C2297 1.419 . S
C2296 C2294 1.415 . S
C2296 C2301 1.425 . S
C2296 C2303 1.409 . S
C2297 H2289 0.930 . S
C2297 C2295 1.419 . S
C2297 C2298 1.362 . S
C2298 H2290 0.930 . S
C2298 C2297 1.362 . S
C2298 C2301 1.409 . S
C2299 H2291 0.930 . S
C2299 C2300 1.355 . S
C2299 C2301 1.415 . S
C2300 C2299 1.355 . S
C2300 C2302 1.419 . S
C2301 C2296 1.425 . S
C2301 C2298 1.409 . S
C2301 C2299 1.415 . S
C2302 H2292 0.930 . S
C2302 C2300 1.419 . S
C2302 C2303 1.362 . S
C2303 H2293 0.930 . S
C2303 C2296 1.409 . S
C2303 C2302 1.362 . S
H2304 C2310 0.930 . S
H2305 C2313 0.930 . S
H2306 C2314 0.930 . S
H2307 C2315 0.930 . S
H2308 C2318 0.930 . S
H2309 C2319 0.930 . S
C2310 H2304 0.930 . S
C2310 C2311 1.336 1_545 S
C2310 C2312 1.415 . S
C2311 C2310 1.336 1_565 S
C2311 C2313 1.444 . S
C2312 C2310 1.415 . S
C2312 C2317 1.425 1_545 S
C2312 C2319 1.409 . S
C2313 H2305 0.930 . S
C2313 C2311 1.444 . S
C2313 C2314 1.362 . S
C2314 H2306 0.930 . S
C2314 C2313 1.362 . S
C2314 C2317 1.409 . S
C2315 H2307 0.930 . S
C2315 C2316 1.364 . S
C2315 C2317 1.415 . S
C2316 C2315 1.364 . S
C2316 C2318 1.407 1_565 S
C2317 C2312 1.425 1_565 S
C2317 C2314 1.409 . S
C2317 C2315 1.415 . S
C2318 H2308 0.930 . S
C2318 C2316 1.407 1_545 S
C2318 C2319 1.362 . S
C2319 H2309 0.930 . S
C2319 C2312 1.409 . S
C2319 C2318 1.362 . S
H2320 C2326 0.930 . S
H2321 C2329 0.930 1_655 S
H2322 C2330 0.930 . S
H2323 C2331 0.930 . S
H2324 C2334 0.930 1_554 S
H2325 C2335 0.930 . S
C2326 H2320 0.930 . S
C2326 C2327 1.355 . S
C2326 C2328 1.415 . S
C2327 C2326 1.355 . S
C2327 C2329 1.419 . S
C2328 C2326 1.415 . S
C2328 C2333 1.432 . S
C2328 C2335 1.409 . S
C2329 H2321 0.930 1_455 S
C2329 C2327 1.419 . S
C2329 C2330 1.362 1_455 S
C2330 H2322 0.930 . S
C2330 C2329 1.362 1_655 S
C2330 C2333 1.406 1_655 S
C2331 H2323 0.930 . S
C2331 C2332 1.355 . S
C2331 C2333 1.411 1_655 S
C2332 C2331 1.355 . S
C2332 C2334 1.419 1_655 S
C2333 C2328 1.432 . S
C2333 C2330 1.406 1_455 S
C2333 C2331 1.411 1_455 S
C2334 H2324 0.930 1_556 S
C2334 C2332 1.419 1_455 S
C2334 C2335 1.362 . S
C2335 H2325 0.930 . S
C2335 C2328 1.409 . S
C2335 C2334 1.362 . S
H2336 C2342 0.930 . S
H2337 C2345 0.930 . S
H2338 C2346 0.930 . S
H2339 C2347 0.930 . S
H2340 C2350 0.930 . S
H2341 C2351 0.930 . S
C2342 H2336 0.930 . S
C2342 C2343 1.355 . S
C2342 C2344 1.415 . S
C2343 C2342 1.355 . S
C2343 C2345 1.419 . S
C2344 C2342 1.415 . S
C2344 C2349 1.425 . S
C2344 C2351 1.409 . S
C2345 H2337 0.930 . S
C2345 C2343 1.419 . S
C2345 C2346 1.362 . S
C2346 H2338 0.930 . S
C2346 C2345 1.362 . S
C2346 C2349 1.409 . S
C2347 H2339 0.930 . S
C2347 C2348 1.355 . S
C2347 C2349 1.415 . S
C2348 C2347 1.355 . S
C2348 C2350 1.419 . S
C2349 C2344 1.425 . S
C2349 C2346 1.409 . S
C2349 C2347 1.415 . S
C2350 H2340 0.930 . S
C2350 C2348 1.419 . S
C2350 C2351 1.362 . S
C2351 H2341 0.930 . S
C2351 C2344 1.409 . S
C2351 C2350 1.362 . S
H2352 C2358 0.930 . S
H2353 C2361 0.930 . S
H2354 C2362 0.930 . S
H2355 C2363 0.930 . S
H2356 C2366 0.930 . S
H2357 C2367 0.930 . S
C2358 H2352 0.930 . S
C2358 C2359 1.355 . S
C2358 C2360 1.415 1_655 S
C2359 C2358 1.355 . S
C2359 C2361 1.419 1_645 S
C2360 C2358 1.415 1_455 S
C2360 C2365 1.425 1_545 S
C2360 C2367 1.409 1_455 S
C2361 H2353 0.930 . S
C2361 C2359 1.419 1_465 S
C2361 C2362 1.362 . S
C2362 H2354 0.930 . S
C2362 C2361 1.362 . S
C2362 C2365 1.409 . S
C2363 H2355 0.930 . S
C2363 C2364 1.355 . S
C2363 C2365 1.415 . S
C2364 C2363 1.355 . S
C2364 C2366 1.419 1_565 S
C2365 C2360 1.425 1_565 S
C2365 C2362 1.409 . S
C2365 C2363 1.415 . S
C2366 H2356 0.930 . S
C2366 C2364 1.419 1_545 S
C2366 C2367 1.362 1_455 S
C2367 H2357 0.930 . S
C2367 C2360 1.409 1_655 S
C2367 C2366 1.362 1_655 S
H2368 C2374 0.930 . S
H2369 C2377 0.930 . S
H2370 C2378 0.930 . S
H2371 C2379 0.930 . S
H2372 C2382 0.930 . S
H2373 C2383 0.930 . S
C2374 H2368 0.930 . S
C2374 C2375 1.355 1_565 S
C2374 C2376 1.415 . S
C2375 C2374 1.355 1_545 S
C2375 C2377 1.419 . S
C2376 C2374 1.415 . S
C2376 C2381 1.425 1_565 S
C2376 C2383 1.409 . S
C2377 H2369 0.930 . S
C2377 C2375 1.419 . S
C2377 C2378 1.362 . S
C2378 H2370 0.930 . S
C2378 C2377 1.362 . S
C2378 C2381 1.409 . S
C2379 H2371 0.930 . S
C2379 C2380 1.355 1_545 S
C2379 C2381 1.415 . S
C2380 C2379 1.355 1_565 S
C2380 C2382 1.419 . S
C2381 C2376 1.425 1_545 S
C2381 C2378 1.409 . S
C2381 C2379 1.415 . S
C2382 H2372 0.930 . S
C2382 C2380 1.419 . S
C2382 C2383 1.362 . S
C2383 H2373 0.930 . S
C2383 C2376 1.409 . S
C2383 C2382 1.362 . S
H2384 C2390 0.930 . S
H2385 C2393 0.930 . S
H2386 C2394 0.930 . S
H2387 C2395 0.930 . S
H2388 C2398 0.930 . S
H2389 C2399 0.930 . S
C2390 H2384 0.930 . S
C2390 C2391 1.355 1_655 S
C2390 C2392 1.415 . S
C2391 C2390 1.355 1_455 S
C2391 C2393 1.419 . S
C2392 C2390 1.415 . S
C2392 C2397 1.425 . S
C2392 C2399 1.409 . S
C2393 H2385 0.930 . S
C2393 C2391 1.419 . S
C2393 C2394 1.362 . S
C2394 H2386 0.930 . S
C2394 C2393 1.362 . S
C2394 C2397 1.409 1_455 S
C2395 H2387 0.930 . S
C2395 C2396 1.355 . S
C2395 C2397 1.415 . S
C2396 C2395 1.355 . S
C2396 C2398 1.419 . S
C2397 C2392 1.425 . S
C2397 C2394 1.409 1_655 S
C2397 C2395 1.415 . S
C2398 H2388 0.930 . S
C2398 C2396 1.419 . S
C2398 C2399 1.362 . S
C2399 H2389 0.930 . S
C2399 C2392 1.409 . S
C2399 C2398 1.362 . S
H2400 C2406 0.930 . S
H2401 C2409 0.930 . S
H2402 C2410 0.930 . S
H2403 C2411 0.930 . S
H2404 C2414 0.930 . S
H2405 C2415 0.930 . S
C2406 H2400 0.930 . S
C2406 C2407 1.355 . S
C2406 C2408 1.415 . S
C2407 C2406 1.355 . S
C2407 C2409 1.419 . S
C2408 C2406 1.415 . S
C2408 C2413 1.425 . S
C2408 C2415 1.409 . S
C2409 H2401 0.930 . S
C2409 C2407 1.419 . S
C2409 C2410 1.362 . S
C2410 H2402 0.930 . S
C2410 C2409 1.362 . S
C2410 C2413 1.409 . S
C2411 H2403 0.930 . S
C2411 C2412 1.355 . S
C2411 C2413 1.415 . S
C2412 C2411 1.355 . S
C2412 C2414 1.419 . S
C2413 C2408 1.425 . S
C2413 C2410 1.409 . S
C2413 C2411 1.415 . S
C2414 H2404 0.930 . S
C2414 C2412 1.419 . S
C2414 C2415 1.362 . S
C2415 H2405 0.930 . S
C2415 C2408 1.409 . S
C2415 C2414 1.362 . S
H2416 C2422 0.930 . S
H2417 C2425 0.930 . S
H2418 C2426 0.930 . S
H2419 C2427 0.930 . S
H2420 C2430 0.930 . S
H2421 C2431 0.930 . S
C2422 H2416 0.930 . S
C2422 C2423 1.355 1_565 S
C2422 C2424 1.415 . S
C2423 C2422 1.355 1_545 S
C2423 C2425 1.419 . S
C2424 C2422 1.415 . S
C2424 C2429 1.425 1_565 S
C2424 C2431 1.409 . S
C2425 H2417 0.930 . S
C2425 C2423 1.419 . S
C2425 C2426 1.362 1_655 S
C2426 H2418 0.930 . S
C2426 C2425 1.362 1_455 S
C2426 C2429 1.409 1_455 S
C2427 H2419 0.930 . S
C2427 C2428 1.355 1_545 S
C2427 C2429 1.415 1_455 S
C2428 C2427 1.355 1_565 S
C2428 C2430 1.419 1_455 S
C2429 C2424 1.425 1_545 S
C2429 C2426 1.409 1_655 S
C2429 C2427 1.415 1_655 S
C2430 H2420 0.930 . S
C2430 C2428 1.419 1_655 S
C2430 C2431 1.362 . S
C2431 H2421 0.930 . S
C2431 C2424 1.409 . S
C2431 C2430 1.362 . S
H2432 C2438 0.930 . S
H2433 C2441 0.930 . S
H2434 C2442 0.930 . S
H2435 C2443 0.930 . S
H2436 C2446 0.930 . S
H2437 C2447 0.930 . S
C2438 H2432 0.930 . S
C2438 C2439 1.355 . S
C2438 C2440 1.415 . S
C2439 C2438 1.355 . S
C2439 C2441 1.419 . S
C2440 C2438 1.415 . S
C2440 C2445 1.425 . S
C2440 C2447 1.409 . S
C2441 H2433 0.930 . S
C2441 C2439 1.419 . S
C2441 C2442 1.362 . S
C2442 H2434 0.930 . S
C2442 C2441 1.362 . S
C2442 C2445 1.409 . S
C2443 H2435 0.930 . S
C2443 C2444 1.355 . S
C2443 C2445 1.415 . S
C2444 C2443 1.355 . S
C2444 C2446 1.419 . S
C2445 C2440 1.425 . S
C2445 C2442 1.409 . S
C2445 C2443 1.415 . S
C2446 H2436 0.930 . S
C2446 C2444 1.419 . S
C2446 C2447 1.362 . S
C2447 H2437 0.930 . S
C2447 C2440 1.409 . S
C2447 C2446 1.362 . S
H2448 C2454 0.930 . S
H2449 C2457 0.930 . S
H2450 C2458 0.930 . S
H2451 C2459 0.930 . S
H2452 C2462 0.930 . S
H2453 C2463 0.930 . S
C2454 H2448 0.930 . S
C2454 C2455 1.355 . S
C2454 C2456 1.415 . S
C2455 C2454 1.355 . S
C2455 C2457 1.419 . S
C2456 C2454 1.415 . S
C2456 C2461 1.425 . S
C2456 C2463 1.409 . S
C2457 H2449 0.930 . S
C2457 C2455 1.419 . S
C2457 C2458 1.362 1_455 S
C2458 H2450 0.930 . S
C2458 C2457 1.362 1_655 S
C2458 C2461 1.409 1_655 S
C2459 H2451 0.930 . S
C2459 C2460 1.355 . S
C2459 C2461 1.415 1_655 S
C2460 C2459 1.355 . S
C2460 C2462 1.419 1_655 S
C2461 C2456 1.425 . S
C2461 C2458 1.409 1_455 S
C2461 C2459 1.415 1_455 S
C2462 H2452 0.930 . S
C2462 C2460 1.419 1_455 S
C2462 C2463 1.362 . S
C2463 H2453 0.930 . S
C2463 C2456 1.409 . S
C2463 C2462 1.362 . S
H2464 C2470 0.930 . S
H2465 C2473 0.930 . S
H2466 C2474 0.930 . S
H2467 C2475 0.930 . S
H2468 C2478 0.930 . S
H2469 C2479 0.930 . S
C2470 H2464 0.930 . S
C2470 C2471 1.355 . S
C2470 C2472 1.415 . S
C2471 C2470 1.355 . S
C2471 C2473 1.419 . S
C2472 C2470 1.415 . S
C2472 C2477 1.425 . S
C2472 C2479 1.409 . S
C2473 H2465 0.930 . S
C2473 C2471 1.419 . S
C2473 C2474 1.362 . S
C2474 H2466 0.930 . S
C2474 C2473 1.362 . S
C2474 C2477 1.409 . S
C2475 H2467 0.930 . S
C2475 C2476 1.355 . S
C2475 C2477 1.415 . S
C2476 C2475 1.355 . S
C2476 C2478 1.419 . S
C2477 C2472 1.425 . S
C2477 C2474 1.409 . S
C2477 C2475 1.415 . S
C2478 H2468 0.930 . S
C2478 C2476 1.419 . S
C2478 C2479 1.362 . S
C2479 H2469 0.930 . S
C2479 C2472 1.409 . S
C2479 C2478 1.362 . S
H2480 C2486 0.930 . S
H2481 C2489 0.930 . S
H2482 C2490 0.930 . S
H2483 C2491 0.930 . S
H2484 C2494 0.930 . S
H2485 C2495 0.930 . S
C2486 H2480 0.930 . S
C2486 C2487 1.355 . S
C2486 C2488 1.415 . S
C2487 C2486 1.355 . S
C2487 C2489 1.419 . S
C2488 C2486 1.415 . S
C2488 C2493 1.425 . S
C2488 C2495 1.409 1_455 S
C2489 H2481 0.930 . S
C2489 C2487 1.419 . S
C2489 C2490 1.362 . S
C2490 H2482 0.930 . S
C2490 C2489 1.362 . S
C2490 C2493 1.409 . S
C2491 H2483 0.930 . S
C2491 C2492 1.355 1_455 S
C2491 C2493 1.415 . S
C2492 C2491 1.355 1_655 S
C2492 C2494 1.419 . S
C2493 C2488 1.425 . S
C2493 C2490 1.409 . S
C2493 C2491 1.415 . S
C2494 H2484 0.930 . S
C2494 C2492 1.419 . S
C2494 C2495 1.362 . S
C2495 H2485 0.930 . S
C2495 C2488 1.409 1_655 S
C2495 C2494 1.362 . S
H2496 C2502 0.930 . S
H2497 C2505 0.930 . S
H2498 C2506 0.930 . S
H2499 C2507 0.930 . S
H2500 C2510 0.930 . S
H2501 C2511 0.930 . S
C2502 H2496 0.930 . S
C2502 C2503 1.355 . S
C2502 C2504 1.415 . S
C2503 C2502 1.355 . S
C2503 C2505 1.419 . S
C2504 C2502 1.415 . S
C2504 C2509 1.425 . S
C2504 C2511 1.409 . S
C2505 H2497 0.930 . S
C2505 C2503 1.419 . S
C2505 C2506 1.362 . S
C2506 H2498 0.930 . S
C2506 C2505 1.362 . S
C2506 C2509 1.409 . S
C2507 H2499 0.930 . S
C2507 C2508 1.355 . S
C2507 C2509 1.415 . S
C2508 C2507 1.355 . S
C2508 C2510 1.419 . S
C2509 C2504 1.425 . S
C2509 C2506 1.409 . S
C2509 C2507 1.415 . S
C2510 H2500 0.930 . S
C2510 C2508 1.419 . S
C2510 C2511 1.362 . S
C2511 H2501 0.930 . S
C2511 C2504 1.409 . S
C2511 C2510 1.362 . S
H2512 C2518 0.930 . S
H2513 C2521 0.930 . S
H2514 C2522 0.930 . S
H2515 C2523 0.930 . S
H2516 C2526 0.930 . S
H2517 C2527 0.930 . S
C2518 H2512 0.930 . S
C2518 C2519 1.355 . S
C2518 C2520 1.415 1_455 S
C2519 C2518 1.355 . S
C2519 C2521 1.419 1_455 S
C2520 C2518 1.415 1_655 S
C2520 C2525 1.425 . S
C2520 C2527 1.409 1_655 S
C2521 H2513 0.930 . S
C2521 C2519 1.419 1_655 S
C2521 C2522 1.362 . S
C2522 H2514 0.930 . S
C2522 C2521 1.362 . S
C2522 C2525 1.409 . S
C2523 H2515 0.930 . S
C2523 C2524 1.355 . S
C2523 C2525 1.415 . S
C2524 C2523 1.355 . S
C2524 C2526 1.419 . S
C2525 C2520 1.425 . S
C2525 C2522 1.409 . S
C2525 C2523 1.415 . S
C2526 H2516 0.930 . S
C2526 C2524 1.419 . S
C2526 C2527 1.362 1_655 S
C2527 H2517 0.930 . S
C2527 C2520 1.409 1_455 S
C2527 C2526 1.362 1_455 S
H2528 C2534 0.930 . S
H2529 C2537 0.930 . S
H2530 C2538 0.930 . S
H2531 C2539 0.930 . S
H2532 C2542 0.930 . S
H2533 C2543 0.930 . S
C2534 H2528 0.930 . S
C2534 C2535 1.355 . S
C2534 C2536 1.415 . S
C2535 C2534 1.355 . S
C2535 C2537 1.419 . S
C2536 C2534 1.415 . S
C2536 C2541 1.425 . S
C2536 C2543 1.409 . S
C2537 H2529 0.930 . S
C2537 C2535 1.419 . S
C2537 C2538 1.362 . S
C2538 H2530 0.930 . S
C2538 C2537 1.362 . S
C2538 C2541 1.409 . S
C2539 H2531 0.930 . S
C2539 C2540 1.355 . S
C2539 C2541 1.415 . S
C2540 C2539 1.355 . S
C2540 C2542 1.419 . S
C2541 C2536 1.425 . S
C2541 C2538 1.409 . S
C2541 C2539 1.415 . S
C2542 H2532 0.930 . S
C2542 C2540 1.419 . S
C2542 C2543 1.362 . S
C2543 H2533 0.930 . S
C2543 C2536 1.409 . S
C2543 C2542 1.362 . S
H2544 C2550 0.930 . S
H2545 C2553 0.930 . S
H2546 C2554 0.930 . S
H2547 C2555 0.930 . S
H2548 C2558 0.930 . S
H2549 C2559 0.930 . S
C2550 H2544 0.930 . S
C2550 C2551 1.355 . S
C2550 C2552 1.415 . S
C2551 C2550 1.355 . S
C2551 C2553 1.419 . S
C2552 C2550 1.415 . S
C2552 C2557 1.425 . S
C2552 C2559 1.409 . S
C2553 H2545 0.930 . S
C2553 C2551 1.419 . S
C2553 C2554 1.362 . S
C2554 H2546 0.930 . S
C2554 C2553 1.362 . S
C2554 C2557 1.409 . S
C2555 H2547 0.930 . S
C2555 C2556 1.355 . S
C2555 C2557 1.415 1_455 S
C2556 C2555 1.355 . S
C2556 C2558 1.419 1_455 S
C2557 C2552 1.425 . S
C2557 C2554 1.409 . S
C2557 C2555 1.415 1_655 S
C2558 H2548 0.930 . S
C2558 C2556 1.419 1_655 S
C2558 C2559 1.362 . S
C2559 H2549 0.930 . S
C2559 C2552 1.409 . S
C2559 C2558 1.362 . S
H2560 C2566 0.930 . S
H2561 C2569 0.930 . S
H2562 C2570 0.930 . S
H2563 C2571 0.930 . S
H2564 C2574 0.930 . S
H2565 C2575 0.930 . S
C2566 H2560 0.930 . S
C2566 C2567 1.354 1_545 S
C2566 C2568 1.415 . S
C2567 C2566 1.354 1_565 S
C2567 C2569 1.420 . S
C2568 C2566 1.415 . S
C2568 C2573 1.425 1_545 S
C2568 C2575 1.409 . S
C2569 H2561 0.930 . S
C2569 C2567 1.420 . S
C2569 C2570 1.362 . S
C2570 H2562 0.930 . S
C2570 C2569 1.362 . S
C2570 C2573 1.409 . S
C2571 H2563 0.930 . S
C2571 C2572 1.355 . S
C2571 C2573 1.415 . S
C2572 C2571 1.355 . S
C2572 C2574 1.419 1_565 S
C2573 C2568 1.425 1_565 S
C2573 C2570 1.409 . S
C2573 C2571 1.415 . S
C2574 H2564 0.930 . S
C2574 C2572 1.419 1_545 S
C2574 C2575 1.362 . S
C2575 H2565 0.930 . S
C2575 C2568 1.409 . S
C2575 C2574 1.362 . S
H2576 C2582 0.930 . S
H2577 C2585 0.930 . S
H2578 C2586 0.930 . S
H2579 C2587 0.930 . S
H2580 C2590 0.930 . S
H2581 C2591 0.930 . S
C2582 H2576 0.930 . S
C2582 C2583 1.355 . S
C2582 C2584 1.415 . S
C2583 C2582 1.355 . S
C2583 C2585 1.419 . S
C2584 C2582 1.415 . S
C2584 C2589 1.425 . S
C2584 C2591 1.409 . S
C2585 H2577 0.930 . S
C2585 C2583 1.419 . S
C2585 C2586 1.362 . S
C2586 H2578 0.930 . S
C2586 C2585 1.362 . S
C2586 C2589 1.409 . S
C2587 H2579 0.930 . S
C2587 C2588 1.355 . S
C2587 C2589 1.415 . S
C2588 C2587 1.355 . S
C2588 C2590 1.419 . S
C2589 C2584 1.425 . S
C2589 C2586 1.409 . S
C2589 C2587 1.415 . S
C2590 H2580 0.930 . S
C2590 C2588 1.419 . S
C2590 C2591 1.362 . S
C2591 H2581 0.930 . S
C2591 C2584 1.409 . S
C2591 C2590 1.362 . S
H2592 C2598 0.930 . S
H2593 C2601 0.930 . S
H2594 C2602 0.930 . S
H2595 C2603 0.930 . S
H2596 C2606 0.930 . S
H2597 C2607 0.930 . S
C2598 H2592 0.930 . S
C2598 C2599 1.355 . S
C2598 C2600 1.415 . S
C2599 C2598 1.355 . S
C2599 C2601 1.419 . S
C2600 C2598 1.415 . S
C2600 C2605 1.425 . S
C2600 C2607 1.409 . S
C2601 H2593 0.930 . S
C2601 C2599 1.419 . S
C2601 C2602 1.362 . S
C2602 H2594 0.930 . S
C2602 C2601 1.362 . S
C2602 C2605 1.409 . S
C2603 H2595 0.930 . S
C2603 C2604 1.355 . S
C2603 C2605 1.415 . S
C2604 C2603 1.355 . S
C2604 C2606 1.419 . S
C2605 C2600 1.425 . S
C2605 C2602 1.409 . S
C2605 C2603 1.415 . S
C2606 H2596 0.930 . S
C2606 C2604 1.419 . S
C2606 C2607 1.362 . S
C2607 H2597 0.930 . S
C2607 C2600 1.409 . S
C2607 C2606 1.362 . S
H2608 C2614 0.930 . S
H2609 C2617 0.930 . S
H2610 C2618 0.930 . S
H2611 C2619 0.930 . S
H2612 C2622 0.930 . S
H2613 C2623 0.930 . S
C2614 H2608 0.930 . S
C2614 C2615 1.351 1_545 S
C2614 C2616 1.415 . S
C2615 C2614 1.351 1_565 S
C2615 C2617 1.424 . S
C2616 C2614 1.415 . S
C2616 C2621 1.425 1_545 S
C2616 C2623 1.409 . S
C2617 H2609 0.930 . S
C2617 C2615 1.424 . S
C2617 C2618 1.362 . S
C2618 H2610 0.930 . S
C2618 C2617 1.362 . S
C2618 C2621 1.409 . S
C2619 H2611 0.930 . S
C2619 C2620 1.369 . S
C2619 C2621 1.415 . S
C2620 C2619 1.369 . S
C2620 C2622 1.400 1_565 S
C2621 C2616 1.425 1_565 S
C2621 C2618 1.409 . S
C2621 C2619 1.415 . S
C2622 H2612 0.930 . S
C2622 C2620 1.400 1_545 S
C2622 C2623 1.362 . S
C2623 H2613 0.930 . S
C2623 C2616 1.409 . S
C2623 C2622 1.362 . S
H2624 C2630 0.930 . S
H2625 C2633 0.930 1_545 S
H2626 C2634 0.930 . S
H2627 C2635 0.930 . S
H2628 C2638 0.931 . S
H2629 C2639 0.932 . S
C2630 H2624 0.930 . S
C2630 C2631 1.355 . S
C2630 C2632 1.417 . S
C2631 C2630 1.355 . S
C2631 C2633 1.419 . S
C2632 C2630 1.417 . S
C2632 C2637 1.423 1_565 S
C2632 C2639 1.409 . S
C2633 H2625 0.930 1_565 S
C2633 C2631 1.419 . S
C2633 C2634 1.363 1_565 S
C2634 H2626 0.930 . S
C2634 C2633 1.363 1_545 S
C2634 C2637 1.409 . S
C2635 H2627 0.930 . S
C2635 C2636 1.355 . S
C2635 C2637 1.415 . S
C2636 C2635 1.355 . S
C2636 C2638 1.419 . S
C2637 C2632 1.423 1_545 S
C2637 C2634 1.409 . S
C2637 C2635 1.415 . S
C2638 H2628 0.931 . S
C2638 C2636 1.419 . S
C2638 C2639 1.361 1_545 S
C2639 H2629 0.932 . S
C2639 C2632 1.409 . S
C2639 C2638 1.361 1_565 S
H2640 C2646 0.930 . S
H2641 C2649 0.930 . S
H2642 C2650 0.930 . S
H2643 C2651 0.930 . S
H2644 C2654 0.930 . S
H2645 C2655 0.930 . S
C2646 H2640 0.930 . S
C2646 C2647 1.355 . S
C2646 C2648 1.415 . S
C2647 C2646 1.355 . S
C2647 C2649 1.419 . S
C2648 C2646 1.415 . S
C2648 C2653 1.425 . S
C2648 C2655 1.409 . S
C2649 H2641 0.930 . S
C2649 C2647 1.419 . S
C2649 C2650 1.362 . S
C2650 H2642 0.930 . S
C2650 C2649 1.362 . S
C2650 C2653 1.409 . S
C2651 H2643 0.930 . S
C2651 C2652 1.355 . S
C2651 C2653 1.415 . S
C2652 C2651 1.355 . S
C2652 C2654 1.419 . S
C2653 C2648 1.425 . S
C2653 C2650 1.409 . S
C2653 C2651 1.415 . S
C2654 H2644 0.930 . S
C2654 C2652 1.419 . S
C2654 C2655 1.362 . S
C2655 H2645 0.930 . S
C2655 C2648 1.409 . S
C2655 C2654 1.362 . S
H2656 C2662 0.930 . S
H2657 C2665 0.930 . S
H2658 C2666 0.930 . S
H2659 C2667 0.930 . S
H2660 C2670 0.930 . S
H2661 C2671 0.930 . S
C2662 H2656 0.930 . S
C2662 C2663 1.355 . S
C2662 C2664 1.415 . S
C2663 C2662 1.355 . S
C2663 C2665 1.419 . S
C2664 C2662 1.415 . S
C2664 C2669 1.425 . S
C2664 C2671 1.409 . S
C2665 H2657 0.930 . S
C2665 C2663 1.419 . S
C2665 C2666 1.362 . S
C2666 H2658 0.930 . S
C2666 C2665 1.362 . S
C2666 C2669 1.409 . S
C2667 H2659 0.930 . S
C2667 C2668 1.355 . S
C2667 C2669 1.415 . S
C2668 C2667 1.355 . S
C2668 C2670 1.419 . S
C2669 C2664 1.425 . S
C2669 C2666 1.409 . S
C2669 C2667 1.415 . S
C2670 H2660 0.930 . S
C2670 C2668 1.419 . S
C2670 C2671 1.362 . S
C2671 H2661 0.930 . S
C2671 C2664 1.409 . S
C2671 C2670 1.362 . S
H2672 C2678 0.930 . S
H2673 C2681 0.930 . S
H2674 C2682 0.930 . S
H2675 C2683 0.930 . S
H2676 C2686 0.930 . S
H2677 C2687 0.930 . S
C2678 H2672 0.930 . S
C2678 C2679 1.337 1_565 S
C2678 C2680 1.415 . S
C2679 C2678 1.337 1_545 S
C2679 C2681 1.443 . S
C2680 C2678 1.415 . S
C2680 C2685 1.425 1_565 S
C2680 C2687 1.409 . S
C2681 H2673 0.930 . S
C2681 C2679 1.443 . S
C2681 C2682 1.362 . S
C2682 H2674 0.930 . S
C2682 C2681 1.362 . S
C2682 C2685 1.409 . S
C2683 H2675 0.930 . S
C2683 C2684 1.364 . S
C2683 C2685 1.415 . S
C2684 C2683 1.364 . S
C2684 C2686 1.407 1_545 S
C2685 C2680 1.425 1_545 S
C2685 C2682 1.409 . S
C2685 C2683 1.415 . S
C2686 H2676 0.930 . S
C2686 C2684 1.407 1_565 S
C2686 C2687 1.362 . S
C2687 H2677 0.930 . S
C2687 C2680 1.409 . S
C2687 C2686 1.362 . S
H2688 C2694 0.930 . S
H2689 C2697 0.930 . S
H2690 C2698 0.930 . S
H2691 C2699 0.930 . S
H2692 C2702 0.930 1_554 S
H2693 C2703 0.930 . S
C2694 H2688 0.930 . S
C2694 C2695 1.355 . S
C2694 C2696 1.415 . S
C2695 C2694 1.355 . S
C2695 C2697 1.419 . S
C2696 C2694 1.415 . S
C2696 C2701 1.425 . S
C2696 C2703 1.409 . S
C2697 H2689 0.930 . S
C2697 C2695 1.419 . S
C2697 C2698 1.362 . S
C2698 H2690 0.930 . S
C2698 C2697 1.362 . S
C2698 C2701 1.409 . S
C2699 H2691 0.930 . S
C2699 C2700 1.355 . S
C2699 C2701 1.415 . S
C2700 C2699 1.355 . S
C2700 C2702 1.419 . S
C2701 C2696 1.425 . S
C2701 C2698 1.409 . S
C2701 C2699 1.415 . S
C2702 H2692 0.930 1_556 S
C2702 C2700 1.419 . S
C2702 C2703 1.362 . S
C2703 H2693 0.930 . S
C2703 C2696 1.409 . S
C2703 C2702 1.362 . S
H2704 C2710 0.930 . S
H2705 C2713 0.930 . S
H2706 C2714 0.930 . S
H2707 C2715 0.930 . S
H2708 C2718 0.930 . S
H2709 C2719 0.930 . S
C2710 H2704 0.930 . S
C2710 C2711 1.355 . S
C2710 C2712 1.415 . S
C2711 C2710 1.355 . S
C2711 C2713 1.419 . S
C2712 C2710 1.415 . S
C2712 C2717 1.425 . S
C2712 C2719 1.409 . S
C2713 H2705 0.930 . S
C2713 C2711 1.419 . S
C2713 C2714 1.362 . S
C2714 H2706 0.930 . S
C2714 C2713 1.362 . S
C2714 C2717 1.409 . S
C2715 H2707 0.930 . S
C2715 C2716 1.355 . S
C2715 C2717 1.415 . S
C2716 C2715 1.355 . S
C2716 C2718 1.419 . S
C2717 C2712 1.425 . S
C2717 C2714 1.409 . S
C2717 C2715 1.415 . S
C2718 H2708 0.930 . S
C2718 C2716 1.419 . S
C2718 C2719 1.362 . S
C2719 H2709 0.930 . S
C2719 C2712 1.409 . S
C2719 C2718 1.362 . S
H2720 C2726 0.930 . S
H2721 C2729 0.930 . S
H2722 C2730 0.930 . S
H2723 C2731 0.930 . S
H2724 C2734 0.930 . S
H2725 C2735 0.930 . S
C2726 H2720 0.930 . S
C2726 C2727 1.355 . S
C2726 C2728 1.415 . S
C2727 C2726 1.355 . S
C2727 C2729 1.419 . S
C2728 C2726 1.415 . S
C2728 C2733 1.425 . S
C2728 C2735 1.409 . S
C2729 H2721 0.930 . S
C2729 C2727 1.419 . S
C2729 C2730 1.362 . S
C2730 H2722 0.930 . S
C2730 C2729 1.362 . S
C2730 C2733 1.409 . S
C2731 H2723 0.930 . S
C2731 C2732 1.355 . S
C2731 C2733 1.415 . S
C2732 C2731 1.355 . S
C2732 C2734 1.419 . S
C2733 C2728 1.425 . S
C2733 C2730 1.409 . S
C2733 C2731 1.415 . S
C2734 H2724 0.930 . S
C2734 C2732 1.419 . S
C2734 C2735 1.362 . S
C2735 H2725 0.930 . S
C2735 C2728 1.409 . S
C2735 C2734 1.362 . S
H2736 C2742 0.930 . S
H2737 C2745 0.930 . S
H2738 C2746 0.930 . S
H2739 C2747 0.930 . S
H2740 C2750 0.930 . S
H2741 C2751 0.930 . S
C2742 H2736 0.930 . S
C2742 C2743 1.355 . S
C2742 C2744 1.415 . S
C2743 C2742 1.355 . S
C2743 C2745 1.419 . S
C2744 C2742 1.415 . S
C2744 C2749 1.425 . S
C2744 C2751 1.409 . S
C2745 H2737 0.930 . S
C2745 C2743 1.419 . S
C2745 C2746 1.362 . S
C2746 H2738 0.930 . S
C2746 C2745 1.362 . S
C2746 C2749 1.409 . S
C2747 H2739 0.930 . S
C2747 C2748 1.355 . S
C2747 C2749 1.415 . S
C2748 C2747 1.355 . S
C2748 C2750 1.419 . S
C2749 C2744 1.425 . S
C2749 C2746 1.409 . S
C2749 C2747 1.415 . S
C2750 H2740 0.930 . S
C2750 C2748 1.419 . S
C2750 C2751 1.362 . S
C2751 H2741 0.930 . S
C2751 C2744 1.409 . S
C2751 C2750 1.362 . S
H2752 C2758 0.930 . S
H2753 C2761 0.930 . S
H2754 C2762 0.930 . S
H2755 C2763 0.930 . S
H2756 C2766 0.930 . S
H2757 C2767 0.930 . S
C2758 H2752 0.930 . S
C2758 C2759 1.355 . S
C2758 C2760 1.415 . S
C2759 C2758 1.355 . S
C2759 C2761 1.419 . S
C2760 C2758 1.415 . S
C2760 C2765 1.425 . S
C2760 C2767 1.409 . S
C2761 H2753 0.930 . S
C2761 C2759 1.419 . S
C2761 C2762 1.362 . S
C2762 H2754 0.930 . S
C2762 C2761 1.362 . S
C2762 C2765 1.409 . S
C2763 H2755 0.930 . S
C2763 C2764 1.355 . S
C2763 C2765 1.415 . S
C2764 C2763 1.355 . S
C2764 C2766 1.419 . S
C2765 C2760 1.425 . S
C2765 C2762 1.409 . S
C2765 C2763 1.415 . S
C2766 H2756 0.930 . S
C2766 C2764 1.419 . S
C2766 C2767 1.362 . S
C2767 H2757 0.930 . S
C2767 C2760 1.409 . S
C2767 C2766 1.362 . S
H2768 C2774 0.930 . S
H2769 C2777 0.930 . S
H2770 C2778 0.930 . S
H2771 C2779 0.930 . S
H2772 C2782 0.930 1_556 S
H2773 C2783 0.930 . S
C2774 H2768 0.930 . S
C2774 C2775 1.355 . S
C2774 C2776 1.415 . S
C2775 C2774 1.355 . S
C2775 C2777 1.419 . S
C2776 C2774 1.415 . S
C2776 C2781 1.425 . S
C2776 C2783 1.409 . S
C2777 H2769 0.930 . S
C2777 C2775 1.419 . S
C2777 C2778 1.362 . S
C2778 H2770 0.930 . S
C2778 C2777 1.362 . S
C2778 C2781 1.409 . S
C2779 H2771 0.930 . S
C2779 C2780 1.355 . S
C2779 C2781 1.415 . S
C2780 C2779 1.355 . S
C2780 C2782 1.419 . S
C2781 C2776 1.425 . S
C2781 C2778 1.409 . S
C2781 C2779 1.415 . S
C2782 H2772 0.930 1_554 S
C2782 C2780 1.419 . S
C2782 C2783 1.362 . S
C2783 H2773 0.930 . S
C2783 C2776 1.409 . S
C2783 C2782 1.362 . S
H2784 C2790 0.930 . S
H2785 C2793 0.930 . S
H2786 C2794 0.930 . S
H2787 C2795 0.930 . S
H2788 C2798 0.930 . S
H2789 C2799 0.930 . S
C2790 H2784 0.930 . S
C2790 C2791 1.355 . S
C2790 C2792 1.415 . S
C2791 C2790 1.355 . S
C2791 C2793 1.419 . S
C2792 C2790 1.415 . S
C2792 C2797 1.425 . S
C2792 C2799 1.409 . S
C2793 H2785 0.930 . S
C2793 C2791 1.419 . S
C2793 C2794 1.362 . S
C2794 H2786 0.930 . S
C2794 C2793 1.362 . S
C2794 C2797 1.409 . S
C2795 H2787 0.930 . S
C2795 C2796 1.355 . S
C2795 C2797 1.415 . S
C2796 C2795 1.355 . S
C2796 C2798 1.419 . S
C2797 C2792 1.425 . S
C2797 C2794 1.409 . S
C2797 C2795 1.415 . S
C2798 H2788 0.930 . S
C2798 C2796 1.419 . S
C2798 C2799 1.362 . S
C2799 H2789 0.930 . S
C2799 C2792 1.409 . S
C2799 C2798 1.362 . S
H2800 C2806 0.930 . S
H2801 C2809 0.930 . S
H2802 C2810 0.930 . S
H2803 C2811 0.930 . S
H2804 C2814 0.930 . S
H2805 C2815 0.930 . S
C2806 H2800 0.930 . S
C2806 C2807 1.355 . S
C2806 C2808 1.415 . S
C2807 C2806 1.355 . S
C2807 C2809 1.419 . S
C2808 C2806 1.415 . S
C2808 C2813 1.425 . S
C2808 C2815 1.409 . S
C2809 H2801 0.930 . S
C2809 C2807 1.419 . S
C2809 C2810 1.362 . S
C2810 H2802 0.930 . S
C2810 C2809 1.362 . S
C2810 C2813 1.409 . S
C2811 H2803 0.930 . S
C2811 C2812 1.355 . S
C2811 C2813 1.415 . S
C2812 C2811 1.355 . S
C2812 C2814 1.419 . S
C2813 C2808 1.425 . S
C2813 C2810 1.409 . S
C2813 C2811 1.415 . S
C2814 H2804 0.930 . S
C2814 C2812 1.419 . S
C2814 C2815 1.362 . S
C2815 H2805 0.930 . S
C2815 C2808 1.409 . S
C2815 C2814 1.362 . S
C1287 C1002 1.512 . S
C1292 C2 1.574 . S
C1303 C962 1.518 . S
C1308 C42 1.561 . S
C1319 C1082 1.552 . S
C1324 C82 1.560 . S
C1335 C1042 1.564 . S
C1340 C122 1.516 . S
C1351 C183 1.533 . S
C1356 C1183 1.575 . S
C1367 C223 1.570 . S
C1372 C1143 1.541 . S
C1383 C263 1.530 . S
C1388 C1263 1.577 . S
C1399 C1223 1.571 . S
C1404 C303 1.539 . S
C1415 C682 1.529 . S
C1420 C322 1.546 . S
C1431 C642 1.512 . S
C1436 C362 1.571 . S
C1447 C762 1.581 . S
C1452 C402 1.517 . S
C1463 C722 1.516 . S
C1468 C442 1.581 . S
C1479 C503 1.568 . S
C1484 C863 1.514 . S
C1495 C823 1.581 . S
C1500 C543 1.514 . S
C1511 C583 1.564 . S
C1516 C943 1.515 . S
C1527 C903 1.566 . S
C1532 C623 1.546 . S
C1543 C4 0.574 . S
C1548 C825 0.574 . S
C1559 C545 0.608 . S
C1564 C44 0.608 . S
C1575 C1225 0.516 . S
C1580 C84 0.516 . S
C1591 C124 0.539 . S
C1596 C305 0.539 . S
C1607 C185 0.531 . S
C1612 C644 0.531 . S
C1623 C225 0.533 . S
C1628 C364 0.533 . S
C1639 C265 0.610 . S
C1644 C1044 0.610 . S
C1655 C1145 0.535 . S
C1660 C324 0.535 . S
C1671 C905 0.566 . S
C1676 C404 0.566 . S
C1687 C625 0.533 . S
C1692 C444 0.533 . S
C1703 C964 0.578 . S
C1708 C505 0.578 . S
C1719 C585 0.524 . S
C1724 C724 0.524 . S
C1735 C1185 0.533 . S
C1740 C684 0.533 . S
C1751 C764 0.519 . S
C1756 C945 0.519 . S
C1767 C1004 0.599 . S
C1772 C865 0.599 . S
C1783 C1084 0.614 . S
C1788 C1265 0.614 . S
C1799 C25 1.518 . S
C1804 C785 1.521 . S
C1815 C65 1.628 . S
C1820 C745 1.632 . S
C1831 C105 1.544 . S
C1836 C705 1.553 . S
C1847 C145 1.517 . S
C1852 C665 1.519 . S
C1863 C164 1.622 . S
C1868 C924 1.615 . S
C1879 C204 1.529 . S
C1884 C884 1.535 . S
C1895 C244 1.520 . S
C1900 C844 1.518 . S
C1911 C284 1.633 . S
C1916 C804 1.629 . S
C1927 C345 1.524 . S
C1932 C1105 1.520 . S
C1943 C385 1.525 . S
C1948 C1065 1.531 . S
C1959 C425 1.613 . S
C1964 C1025 1.621 . S
C1975 C465 1.637 . S
C1980 C985 1.636 . S
C1991 C1244 1.572 . S
C1996 C484 1.582 . S
C2007 C1204 1.629 . S
C2012 C524 1.624 . S
C2023 C1164 1.590 . S
C2028 C564 1.580 . S
C2039 C1124 1.572 . S
C2044 C604 1.582 . S
C2055 C103 1.884 . S
C2060 C23 1.853 . S
C2071 C143 1.871 . S
C2076 C63 1.877 . S
C2087 C242 1.877 . S
C2092 C162 1.851 . S
C2103 C202 1.870 . S
C2108 C282 1.878 . S
C2119 C423 1.851 . S
C2124 C343 1.881 . S
C2135 C383 1.853 . S
C2140 C463 1.884 . S
C2151 C562 1.862 . S
C2156 C482 1.883 . S
C2167 C522 1.881 . S
C2172 C602 1.865 . S
C2183 C663 1.883 . S
C2188 C743 1.861 . S
C2199 C703 1.851 . S
C2204 C783 1.879 . S
C2215 C882 1.877 . S
C2220 C802 1.851 . S
C2231 C842 1.854 . S
C2236 C922 1.871 . S
C2247 C983 1.883 . S
C2252 C1063 1.852 . S
C2263 C1103 1.878 . S
C2268 C1023 1.869 . S
C2279 C1122 1.856 . S
C2284 C1202 1.869 . S
C2295 C1162 1.857 . S
C2300 C1242 1.867 . S
C2311 C31 3.227 1_566 S
C2316 C311 3.218 . S
C2327 C1231 3.229 . S
C2332 C71 3.238 1_556 S
C2343 C111 3.236 . S
C2348 C551 3.233 . S
C2359 C151 3.238 . S
C2364 C831 3.230 . S
C2375 C140 3.224 . S
C2380 C180 3.225 1_554 S
C2391 C220 3.226 1_554 S
C2396 C1060 3.215 . S
C2407 C380 3.217 . S
C2412 C260 3.224 . S
C2423 C660 3.233 . S
C2428 C300 3.234 . S
C2439 C351 3.224 . S
C2444 C631 3.218 . S
C2455 C911 3.232 . S
C2460 C391 3.236 . S
C2471 C431 3.237 . S
C2476 C231 3.231 . S
C2487 C1151 3.230 . S
C2492 C471 3.229 . S
C2503 C500 3.235 . S
C2508 C460 3.222 . S
C2519 C540 3.237 . S
C2524 C740 3.225 . S
C2535 C580 3.230 . S
C2540 C60 3.216 . S
C2551 C980 3.229 . S
C2556 C620 3.228 . S
C2567 C671 3.227 1_565 S
C2572 C951 3.216 . S
C2583 C711 3.228 . S
C2588 C591 3.216 . S
C2599 C751 3.224 . S
C2604 C1191 3.223 . S
C2615 C791 3.227 1_565 S
C2620 C191 3.217 . S
C2631 C820 3.224 . S
C2636 C780 3.219 . S
C2647 C420 3.218 . S
C2652 C860 3.232 . S
C2663 C1020 3.233 . S
C2668 C900 3.233 . S
C2679 C940 3.232 1_545 S
C2684 C20 3.222 . S
C2695 C1271 3.232 . S
C2700 C991 3.237 1_556 S
C2711 C271 3.220 . S
C2716 C1031 3.223 1_556 S
C2727 C871 3.215 . S
C2732 C1071 3.226 . S
C2743 C1111 3.226 . S
C2748 C511 3.216 . S
C2759 C1100 3.217 . S
C2764 C1140 3.224 1_554 S
C2775 C100 3.232 . S
C2780 C1180 3.234 1_554 S
C2791 C700 3.217 . S
C2796 C1220 3.223 . S
C2807 C1260 3.228 . S
C2812 C340 3.229 . S
