# Generated by pormake.
# Topology uko, (4)-cn, num edge types: 1
# Building blocks:
#     Node 0, Type 0, BuildingBlock: QUQFOY_clean_sbu_1, # of connection points: 4
#     Node 1, Type 0, BuildingBlock: QUQFOY_clean_sbu_1, # of connection points: 4
#     Node 2, Type 0, BuildingBlock: QUQFOY_clean_sbu_1, # of connection points: 4
#     Node 3, Type 0, BuildingBlock: QUQFOY_clean_sbu_1, # of connection points: 4
#     Node 4, Type 0, BuildingBlock: QUQFOY_clean_sbu_1, # of connection points: 4
#     Node 5, Type 0, BuildingBlock: QUQFOY_clean_sbu_1, # of connection points: 4
#     Node 6, Type 0, BuildingBlock: QUQFOY_clean_sbu_1, # of connection points: 4
#     Node 7, Type 0, BuildingBlock: QUQFOY_clean_sbu_1, # of connection points: 4
#     Node 8, Type 0, BuildingBlock: QUQFOY_clean_sbu_1, # of connection points: 4
#     Node 9, Type 0, BuildingBlock: QUQFOY_clean_sbu_1, # of connection points: 4
#     Node 10, Type 0, BuildingBlock: QUQFOY_clean_sbu_1, # of connection points: 4
#     Node 11, Type 0, BuildingBlock: QUQFOY_clean_sbu_1, # of connection points: 4
#     Node 12, Type 0, BuildingBlock: QUQFOY_clean_sbu_1, # of connection points: 4
#     Node 13, Type 0, BuildingBlock: QUQFOY_clean_sbu_1, # of connection points: 4
#     Node 14, Type 0, BuildingBlock: QUQFOY_clean_sbu_1, # of connection points: 4
#     Node 15, Type 0, BuildingBlock: QUQFOY_clean_sbu_1, # of connection points: 4
#     Node 16, Type 0, BuildingBlock: QUQFOY_clean_sbu_1, # of connection points: 4
#     Node 17, Type 0, BuildingBlock: QUQFOY_clean_sbu_1, # of connection points: 4
#     Node 18, Type 0, BuildingBlock: QUQFOY_clean_sbu_1, # of connection points: 4
#     Node 19, Type 0, BuildingBlock: QUQFOY_clean_sbu_1, # of connection points: 4
#     Node 20, Type 0, BuildingBlock: QUQFOY_clean_sbu_1, # of connection points: 4
#     Node 21, Type 0, BuildingBlock: QUQFOY_clean_sbu_1, # of connection points: 4
#     Node 22, Type 0, BuildingBlock: QUQFOY_clean_sbu_1, # of connection points: 4
#     Node 23, Type 0, BuildingBlock: QUQFOY_clean_sbu_1, # of connection points: 4
#     Node 24, Type 0, BuildingBlock: QUQFOY_clean_sbu_1, # of connection points: 4
#     Node 25, Type 0, BuildingBlock: QUQFOY_clean_sbu_1, # of connection points: 4
#     Node 26, Type 0, BuildingBlock: QUQFOY_clean_sbu_1, # of connection points: 4
#     Node 27, Type 0, BuildingBlock: QUQFOY_clean_sbu_1, # of connection points: 4
#     Node 28, Type 0, BuildingBlock: QUQFOY_clean_sbu_1, # of connection points: 4
#     Node 29, Type 0, BuildingBlock: QUQFOY_clean_sbu_1, # of connection points: 4
#     Node 30, Type 0, BuildingBlock: QUQFOY_clean_sbu_1, # of connection points: 4
#     Node 31, Type 0, BuildingBlock: QUQFOY_clean_sbu_1, # of connection points: 4
#     Node 32, Type 0, BuildingBlock: QUQFOY_clean_sbu_1, # of connection points: 4
#     Node 33, Type 0, BuildingBlock: QUQFOY_clean_sbu_1, # of connection points: 4
#     Node 34, Type 0, BuildingBlock: QUQFOY_clean_sbu_1, # of connection points: 4
#     Node 35, Type 0, BuildingBlock: QUQFOY_clean_sbu_1, # of connection points: 4
#     Node 36, Type 0, BuildingBlock: QUQFOY_clean_sbu_1, # of connection points: 4
#     Node 37, Type 0, BuildingBlock: QUQFOY_clean_sbu_1, # of connection points: 4
#     Node 38, Type 0, BuildingBlock: QUQFOY_clean_sbu_1, # of connection points: 4
#     Node 39, Type 0, BuildingBlock: QUQFOY_clean_sbu_1, # of connection points: 4
#     Node 40, Type 0, BuildingBlock: QUQFOY_clean_sbu_1, # of connection points: 4
#     Node 41, Type 0, BuildingBlock: QUQFOY_clean_sbu_1, # of connection points: 4
#     Node 42, Type 0, BuildingBlock: QUQFOY_clean_sbu_1, # of connection points: 4
#     Node 43, Type 0, BuildingBlock: QUQFOY_clean_sbu_1, # of connection points: 4
#     Node 44, Type 0, BuildingBlock: QUQFOY_clean_sbu_1, # of connection points: 4
#     Node 45, Type 0, BuildingBlock: QUQFOY_clean_sbu_1, # of connection points: 4
#     Node 46, Type 0, BuildingBlock: QUQFOY_clean_sbu_1, # of connection points: 4
#     Node 47, Type 0, BuildingBlock: QUQFOY_clean_sbu_1, # of connection points: 4
#     Edge 48, Type (0, 0), BuildingBlock: OJICUG_clean_linker_0, # of connection points: 2
#     Edge 49, Type (0, 0), BuildingBlock: OJICUG_clean_linker_0, # of connection points: 2
#     Edge 50, Type (0, 0), BuildingBlock: OJICUG_clean_linker_0, # of connection points: 2
#     Edge 51, Type (0, 0), BuildingBlock: OJICUG_clean_linker_0, # of connection points: 2
#     Edge 52, Type (0, 0), BuildingBlock: OJICUG_clean_linker_0, # of connection points: 2
#     Edge 53, Type (0, 0), BuildingBlock: OJICUG_clean_linker_0, # of connection points: 2
#     Edge 54, Type (0, 0), BuildingBlock: OJICUG_clean_linker_0, # of connection points: 2
#     Edge 55, Type (0, 0), BuildingBlock: OJICUG_clean_linker_0, # of connection points: 2
#     Edge 56, Type (0, 0), BuildingBlock: OJICUG_clean_linker_0, # of connection points: 2
#     Edge 57, Type (0, 0), BuildingBlock: OJICUG_clean_linker_0, # of connection points: 2
#     Edge 58, Type (0, 0), BuildingBlock: OJICUG_clean_linker_0, # of connection points: 2
#     Edge 59, Type (0, 0), BuildingBlock: OJICUG_clean_linker_0, # of connection points: 2
#     Edge 60, Type (0, 0), BuildingBlock: OJICUG_clean_linker_0, # of connection points: 2
#     Edge 61, Type (0, 0), BuildingBlock: OJICUG_clean_linker_0, # of connection points: 2
#     Edge 62, Type (0, 0), BuildingBlock: OJICUG_clean_linker_0, # of connection points: 2
#     Edge 63, Type (0, 0), BuildingBlock: OJICUG_clean_linker_0, # of connection points: 2
#     Edge 64, Type (0, 0), BuildingBlock: OJICUG_clean_linker_0, # of connection points: 2
#     Edge 65, Type (0, 0), BuildingBlock: OJICUG_clean_linker_0, # of connection points: 2
#     Edge 66, Type (0, 0), BuildingBlock: OJICUG_clean_linker_0, # of connection points: 2
#     Edge 67, Type (0, 0), BuildingBlock: OJICUG_clean_linker_0, # of connection points: 2
#     Edge 68, Type (0, 0), BuildingBlock: OJICUG_clean_linker_0, # of connection points: 2
#     Edge 69, Type (0, 0), BuildingBlock: OJICUG_clean_linker_0, # of connection points: 2
#     Edge 70, Type (0, 0), BuildingBlock: OJICUG_clean_linker_0, # of connection points: 2
#     Edge 71, Type (0, 0), BuildingBlock: OJICUG_clean_linker_0, # of connection points: 2
#     Edge 72, Type (0, 0), BuildingBlock: OJICUG_clean_linker_0, # of connection points: 2
#     Edge 73, Type (0, 0), BuildingBlock: OJICUG_clean_linker_0, # of connection points: 2
#     Edge 74, Type (0, 0), BuildingBlock: OJICUG_clean_linker_0, # of connection points: 2
#     Edge 75, Type (0, 0), BuildingBlock: OJICUG_clean_linker_0, # of connection points: 2
#     Edge 76, Type (0, 0), BuildingBlock: OJICUG_clean_linker_0, # of connection points: 2
#     Edge 77, Type (0, 0), BuildingBlock: OJICUG_clean_linker_0, # of connection points: 2
#     Edge 78, Type (0, 0), BuildingBlock: OJICUG_clean_linker_0, # of connection points: 2
#     Edge 79, Type (0, 0), BuildingBlock: OJICUG_clean_linker_0, # of connection points: 2
#     Edge 80, Type (0, 0), BuildingBlock: OJICUG_clean_linker_0, # of connection points: 2
#     Edge 81, Type (0, 0), BuildingBlock: OJICUG_clean_linker_0, # of connection points: 2
#     Edge 82, Type (0, 0), BuildingBlock: OJICUG_clean_linker_0, # of connection points: 2
#     Edge 83, Type (0, 0), BuildingBlock: OJICUG_clean_linker_0, # of connection points: 2
#     Edge 84, Type (0, 0), BuildingBlock: OJICUG_clean_linker_0, # of connection points: 2
#     Edge 85, Type (0, 0), BuildingBlock: OJICUG_clean_linker_0, # of connection points: 2
#     Edge 86, Type (0, 0), BuildingBlock: OJICUG_clean_linker_0, # of connection points: 2
#     Edge 87, Type (0, 0), BuildingBlock: OJICUG_clean_linker_0, # of connection points: 2
#     Edge 88, Type (0, 0), BuildingBlock: OJICUG_clean_linker_0, # of connection points: 2
#     Edge 89, Type (0, 0), BuildingBlock: OJICUG_clean_linker_0, # of connection points: 2
#     Edge 90, Type (0, 0), BuildingBlock: OJICUG_clean_linker_0, # of connection points: 2
#     Edge 91, Type (0, 0), BuildingBlock: OJICUG_clean_linker_0, # of connection points: 2
#     Edge 92, Type (0, 0), BuildingBlock: OJICUG_clean_linker_0, # of connection points: 2
#     Edge 93, Type (0, 0), BuildingBlock: OJICUG_clean_linker_0, # of connection points: 2
#     Edge 94, Type (0, 0), BuildingBlock: OJICUG_clean_linker_0, # of connection points: 2
#     Edge 95, Type (0, 0), BuildingBlock: OJICUG_clean_linker_0, # of connection points: 2
#     Edge 96, Type (0, 0), BuildingBlock: OJICUG_clean_linker_0, # of connection points: 2
#     Edge 97, Type (0, 0), BuildingBlock: OJICUG_clean_linker_0, # of connection points: 2
#     Edge 98, Type (0, 0), BuildingBlock: OJICUG_clean_linker_0, # of connection points: 2
#     Edge 99, Type (0, 0), BuildingBlock: OJICUG_clean_linker_0, # of connection points: 2
#     Edge 100, Type (0, 0), BuildingBlock: OJICUG_clean_linker_0, # of connection points: 2
#     Edge 101, Type (0, 0), BuildingBlock: OJICUG_clean_linker_0, # of connection points: 2
#     Edge 102, Type (0, 0), BuildingBlock: OJICUG_clean_linker_0, # of connection points: 2
#     Edge 103, Type (0, 0), BuildingBlock: OJICUG_clean_linker_0, # of connection points: 2
#     Edge 104, Type (0, 0), BuildingBlock: OJICUG_clean_linker_0, # of connection points: 2
#     Edge 105, Type (0, 0), BuildingBlock: OJICUG_clean_linker_0, # of connection points: 2
#     Edge 106, Type (0, 0), BuildingBlock: OJICUG_clean_linker_0, # of connection points: 2
#     Edge 107, Type (0, 0), BuildingBlock: OJICUG_clean_linker_0, # of connection points: 2
#     Edge 108, Type (0, 0), BuildingBlock: OJICUG_clean_linker_0, # of connection points: 2
#     Edge 109, Type (0, 0), BuildingBlock: OJICUG_clean_linker_0, # of connection points: 2
#     Edge 110, Type (0, 0), BuildingBlock: OJICUG_clean_linker_0, # of connection points: 2
#     Edge 111, Type (0, 0), BuildingBlock: OJICUG_clean_linker_0, # of connection points: 2
#     Edge 112, Type (0, 0), BuildingBlock: OJICUG_clean_linker_0, # of connection points: 2
#     Edge 113, Type (0, 0), BuildingBlock: OJICUG_clean_linker_0, # of connection points: 2
#     Edge 114, Type (0, 0), BuildingBlock: OJICUG_clean_linker_0, # of connection points: 2
#     Edge 115, Type (0, 0), BuildingBlock: OJICUG_clean_linker_0, # of connection points: 2
#     Edge 116, Type (0, 0), BuildingBlock: OJICUG_clean_linker_0, # of connection points: 2
#     Edge 117, Type (0, 0), BuildingBlock: OJICUG_clean_linker_0, # of connection points: 2
#     Edge 118, Type (0, 0), BuildingBlock: OJICUG_clean_linker_0, # of connection points: 2
#     Edge 119, Type (0, 0), BuildingBlock: OJICUG_clean_linker_0, # of connection points: 2
#     Edge 120, Type (0, 0), BuildingBlock: OJICUG_clean_linker_0, # of connection points: 2
#     Edge 121, Type (0, 0), BuildingBlock: OJICUG_clean_linker_0, # of connection points: 2
#     Edge 122, Type (0, 0), BuildingBlock: OJICUG_clean_linker_0, # of connection points: 2
#     Edge 123, Type (0, 0), BuildingBlock: OJICUG_clean_linker_0, # of connection points: 2
#     Edge 124, Type (0, 0), BuildingBlock: OJICUG_clean_linker_0, # of connection points: 2
#     Edge 125, Type (0, 0), BuildingBlock: OJICUG_clean_linker_0, # of connection points: 2
#     Edge 126, Type (0, 0), BuildingBlock: OJICUG_clean_linker_0, # of connection points: 2
#     Edge 127, Type (0, 0), BuildingBlock: OJICUG_clean_linker_0, # of connection points: 2
#     Edge 128, Type (0, 0), BuildingBlock: OJICUG_clean_linker_0, # of connection points: 2
#     Edge 129, Type (0, 0), BuildingBlock: OJICUG_clean_linker_0, # of connection points: 2
#     Edge 130, Type (0, 0), BuildingBlock: OJICUG_clean_linker_0, # of connection points: 2
#     Edge 131, Type (0, 0), BuildingBlock: OJICUG_clean_linker_0, # of connection points: 2
#     Edge 132, Type (0, 0), BuildingBlock: OJICUG_clean_linker_0, # of connection points: 2
#     Edge 133, Type (0, 0), BuildingBlock: OJICUG_clean_linker_0, # of connection points: 2
#     Edge 134, Type (0, 0), BuildingBlock: OJICUG_clean_linker_0, # of connection points: 2
#     Edge 135, Type (0, 0), BuildingBlock: OJICUG_clean_linker_0, # of connection points: 2
#     Edge 136, Type (0, 0), BuildingBlock: OJICUG_clean_linker_0, # of connection points: 2
#     Edge 137, Type (0, 0), BuildingBlock: OJICUG_clean_linker_0, # of connection points: 2
#     Edge 138, Type (0, 0), BuildingBlock: OJICUG_clean_linker_0, # of connection points: 2
#     Edge 139, Type (0, 0), BuildingBlock: OJICUG_clean_linker_0, # of connection points: 2
#     Edge 140, Type (0, 0), BuildingBlock: OJICUG_clean_linker_0, # of connection points: 2
#     Edge 141, Type (0, 0), BuildingBlock: OJICUG_clean_linker_0, # of connection points: 2
#     Edge 142, Type (0, 0), BuildingBlock: OJICUG_clean_linker_0, # of connection points: 2
#     Edge 143, Type (0, 0), BuildingBlock: OJICUG_clean_linker_0, # of connection points: 2
# Relax obj value: 0.225
# Max RMSD: 0.105
# Mean RMSD: 0.105
data_MOF--net-uko--node1-QUQFOY_clean_sbu_1--edge1-OJICUG_clean_linker_0
_symmetry_space_group_name_H-M    P1
_symmetry_Int_Tables_number       1
_symmetry_cell_setting            triclinic
loop_
_symmetry_equiv_pos_as_xyz
'x, y, z'
_cell_length_a     41.810902
_cell_length_b     41.798307
_cell_length_c     41.809027
_cell_angle_alpha  89.999805
_cell_angle_beta   90.004076
_cell_angle_gamma 90.001347
loop_
_atom_site_label
_atom_site_type_symbol
_atom_site_fract_x
_atom_site_fract_y
_atom_site_fract_z
_atom_type_partial_charge
O0 O 0.01248 0.35477 0.31469 0.0
Cd1 Cd 1.0019 0.36655 0.26741 0.0
Cd2 Cd 0.05021 0.40528 0.27973 0.0
O3 O 0.06207 0.37236 0.31354 0.0
O4 O 0.97446 0.33032 0.25227 0.0
O5 O 0.02496 0.33649 0.23769 0.0
C6 C 0.99952 0.31887 0.2383 0.0
C7 C 0.08617 0.42166 0.24092 0.0
C8 C 0.04056 0.35539 0.3265 0.0
C9 C 0.99009 0.43675 0.26963 0.0
O10 O 0.01356 0.43632 0.28877 0.0
O11 O 0.98359 0.41164 0.25353 0.0
O12 O 0.08772 0.43251 0.26979 0.0
O13 O 0.06469 0.40038 0.23436 0.0
O14 O 0.99116 0.14784 0.31683 0.0
Cd15 Cd 1.00186 0.13539 0.26977 0.0
Cd16 Cd 0.9535 0.09703 0.28222 0.0
O17 O 0.9416 0.13016 0.31585 0.0
O18 O 0.02928 0.17141 0.25407 0.0
O19 O 0.97882 0.16492 0.23949 0.0
C20 C 0.00424 0.18257 0.23982 0.0
C21 C 0.9183 0.08142 0.24243 0.0
C22 C 0.96308 0.1473 0.32864 0.0
C23 C 0.01348 0.06508 0.27275 0.0
O24 O 0.98978 0.06564 0.29159 0.0
O25 O 0.02027 0.09011 0.25665 0.0
O26 O 0.91583 0.07043 0.27119 0.0
O27 O 0.94024 0.10243 0.23657 0.0
O28 O 0.01195 0.64889 0.19125 0.0
Cd29 Cd 1.00117 0.63587 0.23823 0.0
Cd30 Cd 0.04889 0.5969 0.22476 0.0
O31 O 0.06107 0.63 0.19135 0.0
O32 O 0.9739 0.67181 0.25435 0.0
O33 O 0.02439 0.66504 0.2687 0.0
C34 C 0.99903 0.68278 0.2686 0.0
C35 C 0.0841 0.58109 0.26438 0.0
C36 C 0.03987 0.64785 0.1791 0.0
C37 C 0.9891 0.5655 0.23497 0.0
O38 O 0.01218 0.56611 0.21538 0.0
O39 O 0.98298 0.59046 0.25145 0.0
O40 O 0.08627 0.56992 0.23567 0.0
O41 O 0.06234 0.60227 0.27033 0.0
O42 O 0.99442 0.8535 0.19251 0.0
Cd43 Cd 0.00389 0.8661 0.23988 0.0
Cd44 Cd 0.95696 0.90557 0.22499 0.0
O45 O 0.94531 0.8724 0.1915 0.0
O46 O 0.03069 0.83002 0.25643 0.0
O47 O 0.97978 0.83661 0.26931 0.0
C48 C 0.00513 0.81887 0.26976 0.0
C49 C 0.92101 0.92211 0.2636 0.0
C50 C 0.96677 0.85455 0.17972 0.0
C51 C 0.01637 0.93638 0.2373 0.0
O52 O 0.99437 0.93576 0.21651 0.0
O53 O 0.0215 0.91144 0.25415 0.0
O54 O 0.91969 0.93312 0.23477 0.0
O55 O 0.9423 0.90065 0.27021 0.0
O56 O 0.31707 0.01286 0.35625 0.0
Cd57 Cd 0.26974 1.00287 0.36838 0.0
Cd58 Cd 0.28318 0.05069 0.40726 0.0
O59 O 0.31704 0.0623 0.37434 0.0
O60 O 0.25401 0.97551 0.33236 0.0
O61 O 0.24016 0.02624 0.33844 0.0
C62 C 0.2403 1.00073 0.32091 0.0
C63 C 0.24372 0.08626 0.42275 0.0
C64 C 0.3294 0.04072 0.35701 0.0
C65 C 0.27179 0.99109 0.43872 0.0
O66 O 0.29171 0.01391 0.43827 0.0
O67 O 0.25556 0.98507 0.41359 0.0
O68 O 0.2724 0.08829 0.43403 0.0
O69 O 0.23776 0.06454 0.40153 0.0
O70 O 0.68851 0.49206 0.35677 0.0
Cd71 Cd 0.73568 0.50234 0.36927 0.0
Cd72 Cd 0.72217 0.4546 0.40834 0.0
O73 O 0.68844 0.4428 0.37534 0.0
O74 O 0.75154 0.5296 0.33322 0.0
O75 O 0.76565 0.47899 0.33968 0.0
C76 C 0.7655 0.5044 0.32202 0.0
C77 C 0.76155 0.41901 0.42398 0.0
C78 C 0.6762 0.4642 0.3577 0.0
C79 C 0.7331 0.51451 0.4396 0.0
O80 O 0.71349 0.49143 0.43925 0.0
O81 O 0.74933 0.5206 0.41448 0.0
O82 O 0.73285 0.41705 0.43523 0.0
O83 O 0.76758 0.44071 0.40276 0.0
O84 O 0.31825 0.99296 0.14963 0.0
Cd85 Cd 0.27098 0.00323 0.1374 0.0
Cd86 Cd 0.28392 0.95514 0.0987 0.0
O87 O 0.31803 0.94359 0.13135 0.0
O88 O 0.25523 0.0306 0.17342 0.0
O89 O 0.24108 0.97998 0.16713 0.0
C90 C 0.24123 0.00546 0.1847 0.0
C91 C 0.24456 0.91929 0.08359 0.0
C92 C 0.33054 0.96509 0.14868 0.0
C93 C 0.27307 0.01491 0.06702 0.0
O94 O 0.29244 0.99163 0.06736 0.0
O95 O 0.25711 0.02134 0.09222 0.0
O96 O 0.27319 0.91736 0.07216 0.0
O97 O 0.23859 0.94112 0.10468 0.0
O98 O 0.68914 0.511 0.15033 0.0
Cd99 Cd 0.73652 0.501 0.1383 0.0
Cd100 Cd 0.72326 0.5488 0.09952 0.0
O101 O 0.68932 0.56045 0.13229 0.0
O102 O 0.75235 0.4738 0.17442 0.0
O103 O 0.766 0.52456 0.16819 0.0
C104 C 0.76597 0.49911 0.18579 0.0
C105 C 0.7628 0.58432 0.08421 0.0
C106 C 0.67684 0.53887 0.14952 0.0
C107 C 0.7346 0.48939 0.06791 0.0
O108 O 0.71462 0.51214 0.06844 0.0
O109 O 0.75085 0.48335 0.09303 0.0
O110 O 0.73416 0.58642 0.07284 0.0
O111 O 0.76867 0.56254 0.10538 0.0
O112 O 0.35772 0.31725 0.01285 0.0
Cd113 Cd 0.36957 0.26993 1.00235 0.0
Cd114 Cd 0.40838 0.2825 0.05051 0.0
O115 O 0.37573 0.31659 0.0623 0.0
O116 O 0.33355 0.25474 0.97468 0.0
O117 O 0.33943 0.24014 0.02521 0.0
C118 C 0.322 0.24068 0.99965 0.0
C119 C 0.42385 0.24301 0.08609 0.0
C120 C 0.35857 0.32933 0.04081 0.0
C121 C 0.4399 0.2717 0.9907 0.0
O122 O 0.43959 0.29115 0.01391 0.0
O123 O 0.41467 0.25577 0.98432 0.0
O124 O 0.43516 0.27168 0.08809 0.0
O125 O 0.40261 0.23707 0.06439 0.0
O126 O 0.35538 0.69102 0.49336 0.0
Cd127 Cd 0.36817 0.73819 0.50351 0.0
Cd128 Cd 0.40702 0.72432 0.45573 0.0
O129 O 0.37373 0.69088 0.44403 0.0
O130 O 0.33235 0.7544 0.53086 0.0
O131 O 0.33869 0.76827 0.48018 0.0
C132 C 0.32114 0.76835 0.50567 0.0
C133 C 0.42334 0.76325 0.41995 0.0
C134 C 0.35615 0.6787 0.4655 0.0
C135 C 0.43851 0.7352 0.51538 0.0
O136 O 0.43783 0.71532 0.49255 0.0
O137 O 0.41358 0.75175 0.52138 0.0
O138 O 0.43413 0.73436 0.4182 0.0
O139 O 0.40216 0.76974 0.44155 0.0
O140 O 0.64948 0.81554 0.49197 0.0
Cd141 Cd 0.63743 0.76834 0.50276 0.0
Cd142 Cd 0.59842 0.78098 0.45481 0.0
O143 O 0.63125 0.81469 0.44261 0.0
O144 O 0.67354 0.75307 0.53029 0.0
O145 O 0.66733 0.73835 0.47983 0.0
C146 C 0.68492 0.73892 0.50529 0.0
C147 C 0.58237 0.74151 0.41949 0.0
C148 C 0.64858 0.82746 0.46394 0.0
C149 C 0.56716 0.77072 0.51475 0.0
O150 O 0.56758 0.79017 0.49155 0.0
O151 O 0.59225 0.7545 0.52099 0.0
O152 O 0.5713 0.77028 0.41746 0.0
O153 O 0.60366 0.73545 0.4411 0.0
O154 O 0.15034 0.69227 0.51369 0.0
Cd155 Cd 0.13775 0.73942 0.50331 0.0
Cd156 Cd 0.09891 0.72597 0.55124 0.0
O157 O 0.13213 0.69247 0.56307 0.0
O158 O 0.17366 0.7552 0.47583 0.0
O159 O 0.16746 0.76945 0.52642 0.0
C160 C 0.185 0.7692 0.50093 0.0
C161 C 0.08286 0.76524 0.58677 0.0
C162 C 0.14963 0.68012 0.54163 0.0
C163 C 0.06743 0.7366 0.49146 0.0
O164 O 0.06803 0.71693 0.51448 0.0
O165 O 0.09242 0.75301 0.48531 0.0
O166 O 0.07189 0.73643 0.58873 0.0
O167 O 0.10406 0.77146 0.56511 0.0
O168 O 0.99242 0.65208 0.6905 0.0
Cd169 Cd 1.00268 0.63981 0.73776 0.0
Cd170 Cd 0.9548 0.601 0.72458 0.0
O171 O 0.94301 0.63395 0.69082 0.0
O172 O 0.02999 0.67586 0.75355 0.0
O173 O 0.97936 0.66954 0.7676 0.0
C174 C 0.00481 0.68715 0.76745 0.0
C175 C 0.91921 0.585 0.76383 0.0
C176 C 0.96451 0.65127 0.67831 0.0
C177 C 0.01453 0.56951 0.73532 0.0
O178 O 0.99151 0.57003 0.71566 0.0
O179 O 0.0207 0.59456 0.75161 0.0
O180 O 0.9173 0.57397 0.73504 0.0
O181 O 0.94082 0.60625 0.77003 0.0
O182 O 0.0124 0.85832 0.69035 0.0
Cd183 Cd 1.00206 0.87067 0.73757 0.0
Cd184 Cd 0.05014 0.90936 0.72458 0.0
O185 O 0.06176 0.87656 0.69063 0.0
O186 O 0.97471 0.83463 0.75334 0.0
O187 O 0.02531 0.84098 0.76751 0.0
C188 C 0.99986 0.82337 0.76732 0.0
C189 C 0.08599 0.92481 0.76381 0.0
C190 C 0.04029 0.85921 0.67813 0.0
C191 C 0.99035 0.94104 0.73523 0.0
O192 O 0.01362 0.94061 0.71586 0.0
O193 O 0.98394 0.91591 0.75133 0.0
O194 O 0.08784 0.93608 0.73512 0.0
O195 O 0.06424 0.90369 0.76994 0.0
O196 O 0.99313 0.35775 0.81561 0.0
Cd197 Cd 1.00284 0.37052 0.76838 0.0
Cd198 Cd 0.95525 0.40938 0.78266 0.0
O199 O 0.9438 0.37608 0.8162 0.0
O200 O 0.03 0.33462 0.752 0.0
O201 O 0.9792 0.341 0.73859 0.0
C202 C 0.00466 0.3234 0.73834 0.0
C203 C 0.91948 0.42516 0.74353 0.0
C204 C 0.96537 0.35847 0.82815 0.0
C205 C 0.0148 0.44087 0.77123 0.0
O206 O 0.99212 0.44025 0.79128 0.0
O207 O 0.02065 0.4159 0.75467 0.0
O208 O 0.91761 0.43626 0.77229 0.0
O209 O 0.94119 0.40402 0.73729 0.0
O210 O 0.01274 0.15243 0.81504 0.0
Cd211 Cd 1.00205 0.13994 0.76793 0.0
Cd212 Cd 0.04986 0.10084 0.78117 0.0
O213 O 0.06203 0.13398 0.81461 0.0
O214 O 0.97457 0.17593 0.75231 0.0
O215 O 0.02506 0.16961 0.73779 0.0
C216 C 0.99961 0.18721 0.73816 0.0
C217 C 0.08525 0.08447 0.74191 0.0
C218 C 0.04072 0.15156 0.82708 0.0
C219 C 0.98997 0.06965 0.77073 0.0
O220 O 0.01297 0.07019 0.79042 0.0
O221 O 0.98392 0.09466 0.75431 0.0
O222 O 0.08716 0.07353 0.77073 0.0
O223 O 0.06372 0.10579 0.73566 0.0
O224 O 0.68804 0.99319 0.64761 0.0
Cd225 Cd 0.7352 1.00309 0.63477 0.0
Cd226 Cd 0.7212 0.95535 0.59607 0.0
O227 O 0.68767 0.94381 0.62936 0.0
O228 O 0.75161 0.03023 0.67068 0.0
O229 O 0.76514 0.97947 0.66416 0.0
C230 C 0.76538 0.0049 0.6818 0.0
C231 C 0.76083 0.91994 0.58072 0.0
C232 C 0.67563 0.96536 0.64695 0.0
C233 C 0.73231 0.01489 0.56437 0.0
O234 O 0.71245 0.99202 0.56499 0.0
O235 O 0.74873 0.02096 0.58938 0.0
O236 O 0.73214 0.91764 0.56952 0.0
O237 O 0.7667 0.94187 0.60174 0.0
O238 O 0.31733 0.51575 0.65062 0.0
Cd239 Cd 0.27004 0.50597 0.63828 0.0
Cd240 Cd 0.28375 0.55371 0.59942 0.0
O241 O 0.31763 0.56514 0.63241 0.0
O242 O 0.254 0.47881 0.67431 0.0
O243 O 0.24035 0.52956 0.66795 0.0
C244 C 0.24029 0.50411 0.68557 0.0
C245 C 0.24446 0.58947 0.58392 0.0
C246 C 0.32982 0.54354 0.64983 0.0
C247 C 0.27241 0.49394 0.56799 0.0
O248 O 0.29214 0.51692 0.56837 0.0
O249 O 0.25619 0.48787 0.59311 0.0
O250 O 0.27316 0.59139 0.57268 0.0
O251 O 0.23839 0.56774 0.6051 0.0
O252 O 0.69003 0.01233 0.8538 0.0
Cd253 Cd 0.73733 1.00173 0.86561 0.0
Cd254 Cd 0.72483 0.04967 0.90463 0.0
O255 O 0.69083 0.0617 0.87204 0.0
O256 O 0.7526 0.9744 0.82935 0.0
O257 O 0.76704 0.02494 0.83567 0.0
C258 C 0.76655 0.99954 0.818 0.0
C259 C 0.76419 0.08523 0.92044 0.0
C260 C 0.67802 0.04032 0.85479 0.0
C261 C 0.73546 0.98975 0.9359 0.0
O262 O 0.71599 0.01294 0.9356 0.0
O263 O 0.75149 0.9835 0.91069 0.0
O264 O 0.73549 0.08709 0.93168 0.0
O265 O 0.77025 0.06366 0.8991 0.0
O266 O 0.31731 0.49597 0.85675 0.0
Cd267 Cd 0.27012 0.50657 0.86906 0.0
Cd268 Cd 0.28298 0.45846 0.90786 0.0
O269 O 0.3168 0.4466 0.87502 0.0
O270 O 0.25453 0.53408 0.83308 0.0
O271 O 0.24012 0.48352 0.83929 0.0
C272 C 0.24044 0.50901 0.82175 0.0
C273 C 0.24354 0.42287 0.92339 0.0
C274 C 0.32938 0.468 0.85763 0.0
C275 C 0.27235 0.51817 0.93946 0.0
O276 O 0.29189 0.49504 0.93899 0.0
O277 O 0.25624 0.5245 0.91433 0.0
O278 O 0.27224 0.42086 0.93463 0.0
O279 O 0.23753 0.44464 0.90225 0.0
O280 O 0.65055 0.69086 0.99524 0.0
Cd281 Cd 0.63874 0.7382 0.00574 0.0
Cd282 Cd 0.59991 0.72563 0.95757 0.0
O283 O 0.63255 0.69158 0.94578 0.0
O284 O 0.67483 0.75334 0.03335 0.0
O285 O 0.66893 0.76785 0.98279 0.0
C286 C 0.68642 0.76727 0.00832 0.0
C287 C 0.5842 0.76478 0.92173 0.0
C288 C 0.64971 0.67882 0.96726 0.0
C289 C 0.56839 0.73645 0.01735 0.0
O290 O 0.56877 0.71694 0.9942 0.0
O291 O 0.59359 0.75246 0.02369 0.0
O292 O 0.57298 0.73605 0.92001 0.0
O293 O 0.60546 0.77098 0.94333 0.0
O294 O 0.64912 0.3173 0.51362 0.0
Cd295 Cd 0.63659 0.2701 0.5033 0.0
Cd296 Cd 0.59752 0.28368 0.55097 0.0
O297 O 0.63053 0.31734 0.56286 0.0
O298 O 0.67252 0.25414 0.47594 0.0
O299 O 0.66616 0.24003 0.52655 0.0
C300 C 0.68373 0.2401 0.50108 0.0
C301 C 0.58159 0.24429 0.58641 0.0
C302 C 0.64814 0.32963 0.54147 0.0
C303 C 0.56627 0.27278 0.49121 0.0
O304 O 0.56674 0.29259 0.51411 0.0
O305 O 0.59132 0.2564 0.48524 0.0
O306 O 0.57049 0.27305 0.58841 0.0
O307 O 0.60284 0.23821 0.56477 0.0
O308 O 0.35546 0.19126 0.51306 0.0
Cd309 Cd 0.36753 0.2386 0.50288 0.0
Cd310 Cd 0.40635 0.22545 0.55087 0.0
O311 O 0.37346 0.19157 0.56251 0.0
O312 O 0.33153 0.25415 0.47539 0.0
O313 O 0.33753 0.26828 0.52605 0.0
C314 C 0.32004 0.268 0.50052 0.0
C315 C 0.42223 0.26454 0.5867 0.0
C316 C 0.35623 0.17904 0.54096 0.0
C317 C 0.43783 0.23647 0.49115 0.0
O318 O 0.43736 0.21677 0.51414 0.0
O319 O 0.41272 0.25269 0.48498 0.0
O320 O 0.43331 0.23576 0.58846 0.0
O321 O 0.401 0.27082 0.5651 0.0
O322 O 0.8553 0.31541 0.49351 0.0
Cd323 Cd 0.86742 0.26805 0.50355 0.0
Cd324 Cd 0.90593 0.28121 0.4555 0.0
O325 O 0.87308 0.31515 0.44398 0.0
O326 O 0.83143 0.25236 0.53097 0.0
O327 O 0.83742 0.2385 0.48024 0.0
C328 C 0.81992 0.23867 0.50576 0.0
C329 C 0.92126 0.24177 0.41985 0.0
C330 C 0.85594 0.32765 0.46561 0.0
C331 C 0.93781 0.27008 0.51493 0.0
O332 O 0.9372 0.28988 0.49202 0.0
O333 O 0.91273 0.25386 0.52118 0.0
O334 O 0.93259 0.27045 0.41784 0.0
O335 O 0.9001 0.2358 0.44161 0.0
O336 O 0.51377 0.8575 0.81787 0.0
Cd337 Cd 0.50319 0.86952 0.77062 0.0
Cd338 Cd 0.55117 0.90827 0.78312 0.0
O339 O 0.56318 0.87559 0.81709 0.0
O340 O 0.47588 0.83334 0.75514 0.0
O341 O 0.52641 0.83975 0.74076 0.0
C342 C 0.501 0.82207 0.74112 0.0
C343 C 0.58627 0.92355 0.74316 0.0
C344 C 0.54177 0.85836 0.82986 0.0
C345 C 0.49138 0.93987 0.77269 0.0
O346 O 0.51468 0.93952 0.79204 0.0
O347 O 0.48497 0.91466 0.75671 0.0
O348 O 0.58869 0.93491 0.77178 0.0
O349 O 0.56444 0.90236 0.73755 0.0
O350 O 0.49457 0.65061 0.81823 0.0
Cd351 Cd 0.50453 0.63845 0.77087 0.0
Cd352 Cd 0.45672 0.59972 0.78409 0.0
O353 O 0.44519 0.6324 0.81818 0.0
O354 O 0.53165 0.67458 0.75491 0.0
O355 O 0.48091 0.66819 0.74129 0.0
C356 C 0.50633 0.68584 0.74124 0.0
C357 C 0.42102 0.5846 0.74463 0.0
C358 C 0.46674 0.64971 0.83061 0.0
C359 C 0.5162 0.56803 0.77275 0.0
O360 O 0.49327 0.56845 0.79253 0.0
O361 O 0.52237 0.59323 0.75667 0.0
O362 O 0.41901 0.57317 0.77325 0.0
O363 O 0.44283 0.60573 0.73872 0.0
O364 O 0.51177 0.15085 0.69012 0.0
Cd365 Cd 0.50213 0.13852 0.73752 0.0
Cd366 Cd 0.54949 0.09925 0.72331 0.0
O367 O 0.56096 0.13217 0.68946 0.0
O368 O 0.47506 0.17457 0.75371 0.0
O369 O 0.52589 0.16825 0.76701 0.0
C370 C 0.50044 0.18586 0.76724 0.0
C371 C 0.58559 0.08322 0.76203 0.0
C372 C 0.53945 0.14981 0.67744 0.0
C373 C 0.49 0.06815 0.73547 0.0
O374 O 0.51238 0.06858 0.71509 0.0
O375 O 0.48444 0.09328 0.75189 0.0
O376 O 0.58698 0.07206 0.73326 0.0
O377 O 0.56417 0.10458 0.7685 0.0
O378 O 0.49303 0.35725 0.69039 0.0
Cd379 Cd 0.50347 0.36947 0.73764 0.0
Cd380 Cd 0.45589 0.40884 0.72429 0.0
O381 O 0.44386 0.37601 0.69049 0.0
O382 O 0.5308 0.33336 0.75324 0.0
O383 O 0.48024 0.33971 0.76752 0.0
C384 C 0.50567 0.32208 0.76724 0.0
C385 C 0.42037 0.42492 0.76355 0.0
C386 C 0.46516 0.35837 0.67811 0.0
C387 C 0.51576 0.43979 0.73545 0.0
O388 O 0.49291 0.4395 0.71559 0.0
O389 O 0.52163 0.41461 0.75168 0.0
O390 O 0.41859 0.4361 0.73481 0.0
O391 O 0.44183 0.4035 0.76969 0.0
O392 O 0.81605 0.51396 0.85689 0.0
Cd393 Cd 0.76888 0.50348 0.86929 0.0
Cd394 Cd 0.78221 0.55119 0.90857 0.0
O395 O 0.81599 0.56313 0.8757 0.0
O396 O 0.75317 0.47616 0.83321 0.0
O397 O 0.73881 0.52669 0.83969 0.0
C398 C 0.73906 0.50128 0.82203 0.0
C399 C 0.74313 0.58694 0.92462 0.0
C400 C 0.82832 0.54183 0.858 0.0
C401 C 0.77135 0.49112 0.93959 0.0
O402 O 0.79091 0.51424 0.93934 0.0
O403 O 0.75518 0.48508 0.91442 0.0
O404 O 0.77189 0.58861 0.93576 0.0
O405 O 0.73686 0.56544 0.90328 0.0
O406 O 0.19065 0.9938 0.85668 0.0
Cd407 Cd 0.23808 0.00371 0.86851 0.0
Cd408 Cd 0.22467 0.95599 0.90758 0.0
O409 O 0.19071 0.94436 0.87476 0.0
O410 O 0.25365 0.03105 0.83239 0.0
O411 O 0.26748 0.9803 0.83842 0.0
C412 C 0.26729 0.00581 0.82089 0.0
C413 C 0.26379 0.92023 0.92352 0.0
C414 C 0.17827 0.96597 0.85752 0.0
C415 C 0.23624 0.01569 0.93876 0.0
O416 O 0.21621 0.99298 0.93837 0.0
O417 O 0.25251 0.02155 0.91362 0.0
O418 O 0.23505 0.91853 0.93471 0.0
O419 O 0.26999 0.94171 0.90213 0.0
O420 O 0.81522 0.4947 0.65049 0.0
Cd421 Cd 0.76782 0.50454 0.63837 0.0
Cd422 Cd 0.78139 0.4568 0.59952 0.0
O423 O 0.81527 0.44527 0.63239 0.0
O424 O 0.75188 0.53174 0.67443 0.0
O425 O 0.73837 0.48093 0.66825 0.0
C426 C 0.73833 0.50641 0.68582 0.0
C427 C 0.74222 0.42102 0.58382 0.0
C428 C 0.82763 0.46688 0.64968 0.0
C429 C 0.7698 0.51621 0.56799 0.0
O430 O 0.78993 0.49359 0.56856 0.0
O431 O 0.75347 0.52213 0.59308 0.0
O432 O 0.77094 0.41921 0.57262 0.0
O433 O 0.73605 0.44265 0.60506 0.0
O434 O 0.1892 0.01373 0.64948 0.0
Cd435 Cd 0.2365 0.00344 0.63731 0.0
Cd436 Cd 0.22325 0.05123 0.59817 0.0
O437 O 0.18918 0.06295 0.63079 0.0
O438 O 0.2522 0.97606 0.67335 0.0
O439 O 0.26635 0.02668 0.6671 0.0
C440 C 0.26618 1.00119 0.68465 0.0
C441 C 0.26241 0.08709 0.58261 0.0
C442 C 0.17679 0.04155 0.64832 0.0
C443 C 0.23453 0.99144 0.56693 0.0
O444 O 0.21481 0.01443 0.56719 0.0
O445 O 0.25059 0.98537 0.59216 0.0
O446 O 0.23375 0.08879 0.57125 0.0
O447 O 0.26854 0.06549 0.6039 0.0
O448 O 0.85557 0.81676 0.51192 0.0
Cd449 Cd 0.86829 0.76947 0.50236 0.0
Cd450 Cd 0.90693 0.78375 0.55014 0.0
O451 O 0.87369 0.81743 0.56133 0.0
O452 O 0.83244 0.75304 0.47515 0.0
O453 O 0.83868 0.73976 0.526 0.0
C454 C 0.82115 0.73945 0.5005 0.0
C455 C 0.92259 0.74479 0.58617 0.0
C456 C 0.85622 0.82938 0.53965 0.0
C457 C 0.93869 0.7722 0.49075 0.0
O458 O 0.93798 0.79226 0.51342 0.0
O459 O 0.91373 0.75567 0.48477 0.0
O460 O 0.93367 0.77358 0.58792 0.0
O461 O 0.90151 0.73845 0.56443 0.0
O462 O 0.85738 0.18872 0.99081 0.0
Cd463 Cd 0.86951 0.23601 1.00117 0.0
Cd464 Cd 0.9085 0.22291 0.95337 0.0
O465 O 0.87576 0.18896 0.9415 0.0
O466 O 0.83353 0.25156 0.02869 0.0
O467 O 0.83957 0.26583 0.97809 0.0
C468 C 0.8221 0.26554 0.00362 0.0
C469 C 0.92381 0.26267 0.91807 0.0
C470 C 0.85834 0.17648 0.96292 0.0
C471 C 0.9399 0.2341 0.01297 0.0
O472 O 0.93956 0.21429 0.99007 0.0
O473 O 0.91469 0.25017 0.01906 0.0
O474 O 0.9352 0.23404 0.91585 0.0
O475 O 0.90258 0.26839 0.93984 0.0
O476 O 0.15043 0.31819 0.99207 0.0
Cd477 Cd 0.13833 0.27071 1.00162 0.0
Cd478 Cd 0.09922 0.28476 0.95411 0.0
O479 O 0.13197 0.31886 0.94279 0.0
O480 O 0.17428 0.25471 0.02894 0.0
O481 O 0.16832 0.2413 0.97809 0.0
C482 C 0.18575 0.24115 0.00366 0.0
C483 C 0.08362 0.24576 0.91811 0.0
C484 C 0.14943 0.33095 0.96441 0.0
C485 C 0.06795 0.27242 0.01351 0.0
O486 O 0.06831 0.29276 0.99108 0.0
O487 O 0.09315 0.25618 0.0192 0.0
O488 O 0.0723 0.27446 0.91651 0.0
O489 O 0.10494 0.23954 0.93965 0.0
O490 O 0.65056 0.18876 0.01108 0.0
Cd491 Cd 0.63846 0.23619 1.00136 0.0
Cd492 Cd 0.59957 0.22251 0.04913 0.0
O493 O 0.6324 0.18849 0.06048 0.0
O494 O 0.67441 0.2521 0.97403 0.0
O495 O 0.66842 0.26567 0.02483 0.0
C496 C 0.68588 0.26572 0.99928 0.0
C497 C 0.58394 0.26153 0.08513 0.0
C498 C 0.64971 0.17622 0.03884 0.0
C499 C 0.56809 0.23435 0.98967 0.0
O500 O 0.56854 0.21425 0.01232 0.0
O501 O 0.59324 0.25059 0.98375 0.0
O502 O 0.57271 0.2328 0.08679 0.0
O503 O 0.60519 0.26779 0.06353 0.0
O504 O 0.49397 0.14881 0.18887 0.0
Cd505 Cd 0.50424 0.13629 0.23605 0.0
Cd506 Cd 0.45618 0.09768 0.22293 0.0
O507 O 0.44456 0.13069 0.18913 0.0
O508 O 0.53149 0.17232 0.25198 0.0
O509 O 0.48087 0.16585 0.266 0.0
C510 C 0.50628 0.18352 0.2659 0.0
C511 C 0.42053 0.0823 0.26238 0.0
C512 C 0.46604 0.14808 0.1767 0.0
C513 C 0.51592 0.0659 0.23358 0.0
O514 O 0.49266 0.06636 0.21419 0.0
O515 O 0.52235 0.09102 0.24968 0.0
O516 O 0.41845 0.0711 0.23367 0.0
O517 O 0.44239 0.10335 0.26839 0.0
O518 O 0.51343 0.35454 0.18875 0.0
Cd519 Cd 0.50296 0.36693 0.23593 0.0
Cd520 Cd 0.55082 0.40575 0.22296 0.0
O521 O 0.56277 0.37284 0.1892 0.0
O522 O 0.47572 0.33085 0.25175 0.0
O523 O 0.5263 0.33737 0.26592 0.0
C524 C 0.50091 0.31968 0.26575 0.0
C525 C 0.58616 0.42145 0.26255 0.0
C526 C 0.54138 0.35541 0.17666 0.0
C527 C 0.49107 0.4373 0.23351 0.0
O528 O 0.51422 0.43685 0.21399 0.0
O529 O 0.4848 0.41216 0.24965 0.0
O530 O 0.58833 0.43258 0.23382 0.0
O531 O 0.56441 0.40026 0.26849 0.0
O532 O 0.49449 0.85521 0.31581 0.0
Cd533 Cd 0.5048 0.86721 0.26845 0.0
Cd534 Cd 0.45748 0.90669 0.28187 0.0
O535 O 0.44536 0.87406 0.31575 0.0
O536 O 0.53189 0.83093 0.25278 0.0
O537 O 0.48124 0.83742 0.23885 0.0
C538 C 0.50661 0.81969 0.23901 0.0
C539 C 0.42204 0.92272 0.24254 0.0
C540 C 0.46666 0.85644 0.32816 0.0
C541 C 0.51716 0.93753 0.27039 0.0
O542 O 0.49459 0.9372 0.29056 0.0
O543 O 0.52279 0.91236 0.25407 0.0
O544 O 0.42029 0.93403 0.27123 0.0
O545 O 0.44344 0.90121 0.23649 0.0
O546 O 0.51205 0.64815 0.31606 0.0
Cd547 Cd 0.50223 0.63599 0.26865 0.0
Cd548 Cd 0.54951 0.59666 0.28259 0.0
O549 O 0.56125 0.62947 0.31645 0.0
O550 O 0.47529 0.6722 0.25259 0.0
O551 O 0.52607 0.6657 0.23921 0.0
C552 C 0.5007 0.68343 0.23906 0.0
C553 C 0.58518 0.58086 0.24339 0.0
C554 C 0.5398 0.64708 0.32861 0.0
C555 C 0.48999 0.56563 0.27064 0.0
O556 O 0.51242 0.56602 0.29097 0.0
O557 O 0.48442 0.59078 0.25425 0.0
O558 O 0.5869 0.56954 0.27208 0.0
O559 O 0.56367 0.60224 0.23727 0.0
O560 O 0.19027 0.49366 0.14966 0.0
Cd561 Cd 0.2375 0.5048 0.13797 0.0
Cd562 Cd 0.22545 0.45676 0.09866 0.0
O563 O 0.1913 0.44444 0.13101 0.0
O564 O 0.25226 0.5324 0.17423 0.0
O565 O 0.26747 0.48208 0.16804 0.0
C566 C 0.26659 0.50752 0.18565 0.0
C567 C 0.26484 0.42119 0.08286 0.0
C568 C 0.17837 0.46563 0.1484 0.0
C569 C 0.23581 0.517 0.06769 0.0
O570 O 0.21664 0.49356 0.06775 0.0
O571 O 0.2516 0.52335 0.09302 0.0
O572 O 0.23619 0.41946 0.07147 0.0
O573 O 0.27084 0.44266 0.10431 0.0
O574 O 0.81638 0.01111 0.14743 0.0
Cd575 Cd 0.76921 1.00103 0.13473 0.0
Cd576 Cd 0.78311 0.04876 0.0958 0.0
O577 O 0.81668 0.06042 0.129 0.0
O578 O 0.75307 0.97378 0.17067 0.0
O579 O 0.7393 0.02449 0.16427 0.0
C580 C 0.73926 0.99905 0.18189 0.0
C581 C 0.74377 0.08438 0.08013 0.0
C582 C 0.82877 0.03895 0.14665 0.0
C583 C 0.77189 0.98916 0.06433 0.0
O584 O 0.79183 0.01194 0.0649 0.0
O585 O 0.75547 0.98319 0.08936 0.0
O586 O 0.7725 0.08636 0.06896 0.0
O587 O 0.73769 0.06264 0.10129 0.0
O588 O 0.18913 0.51308 0.35753 0.0
Cd589 Cd 0.23672 0.50398 0.36943 0.0
Cd590 Cd 0.22259 0.55144 0.40832 0.0
O591 O 0.18842 0.56252 0.37558 0.0
O592 O 0.25301 0.47707 0.3333 0.0
O593 O 0.26575 0.52807 0.33951 0.0
C594 C 0.26621 0.5026 0.32193 0.0
C595 C 0.26169 0.58745 0.42365 0.0
C596 C 0.17629 0.54071 0.35839 0.0
C597 C 0.23506 0.49219 0.43976 0.0
O598 O 0.21464 0.51454 0.43929 0.0
O599 O 0.25142 0.48653 0.41463 0.0
O600 O 0.23303 0.58916 0.43506 0.0
O601 O 0.26779 0.56582 0.40239 0.0
O602 O 0.81539 0.99269 0.35425 0.0
Cd603 Cd 0.76789 1.0028 0.36582 0.0
Cd604 Cd 0.78088 0.95526 0.40515 0.0
O605 O 0.81514 0.94344 0.37282 0.0
O606 O 0.75239 0.02985 0.32944 0.0
O607 O 0.73854 0.97916 0.33583 0.0
C608 C 0.73873 0.00454 0.31812 0.0
C609 C 0.74193 0.91931 0.42103 0.0
C610 C 0.82777 0.96487 0.35552 0.0
C611 C 0.7693 0.01506 0.43609 0.0
O612 O 0.78921 0.99224 0.43593 0.0
O613 O 0.75325 0.02091 0.4108 0.0
O614 O 0.77061 0.91788 0.43239 0.0
O615 O 0.73567 0.94067 0.39955 0.0
O616 O 0.14962 0.18947 0.4924 0.0
Cd617 Cd 0.13682 0.23664 0.5025 0.0
Cd618 Cd 0.0981 0.22284 0.45458 0.0
O619 O 0.13116 0.18907 0.44311 0.0
O620 O 0.17259 0.25278 0.52997 0.0
O621 O 0.16639 0.26675 0.47931 0.0
C622 C 0.18387 0.26678 0.50484 0.0
C623 C 0.08251 0.26192 0.41866 0.0
C624 C 0.14877 0.17698 0.46462 0.0
C625 C 0.06641 0.23392 0.5142 0.0
O626 O 0.06696 0.21422 0.49121 0.0
O627 O 0.09145 0.25023 0.52041 0.0
O628 O 0.07132 0.23318 0.41689 0.0
O629 O 0.10365 0.26817 0.44036 0.0
O630 O 0.15082 0.81501 0.01519 0.0
Cd631 Cd 0.13876 0.76757 0.00556 0.0
Cd632 Cd 0.0998 0.78145 0.05316 0.0
O633 O 0.13289 0.8152 0.06466 0.0
O634 O 0.17477 0.7517 0.97828 0.0
O635 O 0.16879 0.73822 0.02911 0.0
C636 C 0.18629 0.73821 0.00359 0.0
C637 C 0.08375 0.74236 0.08887 0.0
C638 C 0.15016 0.82746 0.04298 0.0
C639 C 0.06848 0.76968 0.99366 0.0
O640 O 0.06902 0.78992 0.01618 0.0
O641 O 0.09354 0.75323 0.98791 0.0
O642 O 0.07275 0.77117 0.09067 0.0
O643 O 0.10505 0.73608 0.06733 0.0
O644 O 0.85695 0.68795 0.01536 0.0
Cd645 Cd 0.86968 0.73523 0.00573 0.0
Cd646 Cd 0.90869 0.72076 0.05319 0.0
O647 O 0.87548 0.68714 0.06461 0.0
O648 O 0.83386 0.7517 0.97851 0.0
O649 O 0.84015 0.76507 0.02932 0.0
C650 C 0.82264 0.76542 0.00381 0.0
C651 C 0.92448 0.75992 0.08892 0.0
C652 C 0.85782 0.67525 0.04305 0.0
C653 C 0.94007 0.73251 0.99374 0.0
O654 O 0.9395 0.71227 0.01627 0.0
O655 O 0.91506 0.74905 0.98802 0.0
O656 O 0.93555 0.73113 0.09083 0.0
O657 O 0.90333 0.76613 0.06721 0.0
O658 O 0.35688 0.81704 0.99461 0.0
Cd659 Cd 0.36955 0.76995 0.00538 0.0
Cd660 Cd 0.40853 0.78315 0.95745 0.0
O661 O 0.37552 0.81675 0.9454 0.0
O662 O 0.33371 0.75421 0.03299 0.0
O663 O 0.33998 0.7396 0.98251 0.0
C664 C 0.32247 0.73988 0.00802 0.0
C665 C 0.42452 0.74376 0.92202 0.0
C666 C 0.35787 0.82917 0.96667 0.0
C667 C 0.43994 0.7727 0.01726 0.0
O668 O 0.43944 0.79228 0.99416 0.0
O669 O 0.41488 0.75643 0.02346 0.0
O670 O 0.43557 0.77254 0.92002 0.0
O671 O 0.40329 0.73764 0.94367 0.0
C672 C 0.03139 0.2349 0.22817 0.0
C673 C 0.00312 0.21672 0.22982 0.0
H674 H 0.05243 0.28164 0.22852 0.0
C675 C 0.9736 0.23277 0.22787 0.0
H676 H 0.05452 0.22331 0.22952 0.0
C677 C 0.97238 0.2663 0.22776 0.0
C678 C 1.00065 0.28451 0.22904 0.0
H679 H 0.95134 0.21957 0.22915 0.0
H680 H 0.94924 0.27791 0.22882 0.0
C681 C 0.03017 0.26842 0.2275 0.0
C682 C 0.97224 0.73534 0.27998 0.0
C683 C 1.00034 0.71688 0.27875 0.0
H684 H 0.95168 0.78228 0.27911 0.0
C685 C 0.02999 0.73262 0.28117 0.0
H686 H 0.949 0.724 0.2783 0.0
C687 C 0.03155 0.76613 0.28121 0.0
C688 C 0.00349 0.78462 0.27935 0.0
H689 H 0.05213 0.7192 0.28027 0.0
H690 H 0.05482 0.7775 0.28047 0.0
C691 C 0.97379 0.76885 0.28053 0.0
C692 C 0.22937 0.97483 0.23491 0.0
C693 C 0.23134 0.00435 0.21886 0.0
H694 H 0.23042 0.95046 0.28002 0.0
C695 C 0.2298 0.03264 0.23704 0.0
H696 H 0.23053 0.95256 0.22171 0.0
C697 C 0.22929 0.03142 0.27055 0.0
C698 C 0.23084 1.00189 0.28662 0.0
H699 H 0.23116 0.05578 0.22546 0.0
H700 H 0.23042 0.05369 0.28376 0.0
C701 C 0.22938 0.97361 0.26843 0.0
C702 C 0.777 0.4722 0.23838 0.0
C703 C 0.77551 0.5004 0.22006 0.0
H704 H 0.77601 0.45134 0.28518 0.0
C705 C 0.77715 0.52999 0.23601 0.0
H706 H 0.77589 0.449 0.22688 0.0
C707 C 0.77679 0.53135 0.26952 0.0
C708 C 0.77529 0.50314 0.28782 0.0
H709 H 0.77601 0.5522 0.22271 0.0
H710 H 0.77551 0.55454 0.28101 0.0
C711 C 0.77716 0.47356 0.27189 0.0
C712 C 0.26968 0.23004 0.97211 0.0
C713 C 0.28772 0.23116 1.0005 0.0
H714 H 0.22308 0.23134 0.95083 0.0
C715 C 0.2715 0.22915 0.02991 0.0
H716 H 0.2814 0.23144 0.94905 0.0
C717 C 0.23798 0.22953 0.03095 0.0
C718 C 0.21995 0.2314 1.0026 0.0
H719 H 0.28459 0.22999 0.05225 0.0
H720 H 0.22627 0.23052 0.05404 0.0
C721 C 0.23616 0.2299 0.97315 0.0
C722 C 0.27096 0.78019 0.47499 0.0
C723 C 0.28701 0.77836 0.50451 0.0
H724 H 0.22585 0.77896 0.45063 0.0
C725 C 0.26883 0.78007 0.53278 0.0
H726 H 0.28416 0.7789 0.45273 0.0
C727 C 0.23532 0.78056 0.53155 0.0
C728 C 0.21925 0.77882 0.50204 0.0
H729 H 0.28042 0.77884 0.55592 0.0
H730 H 0.22211 0.77954 0.55382 0.0
C731 C 0.23745 0.78015 0.47377 0.0
C732 C 0.76876 0.72771 0.47351 0.0
C733 C 0.78696 0.72961 0.50175 0.0
H734 H 0.72203 0.72815 0.45248 0.0
C735 C 0.77092 0.72813 0.5313 0.0
H736 H 0.78034 0.72869 0.45035 0.0
C737 C 0.7374 0.72827 0.53253 0.0
C738 C 0.71919 0.72936 0.50425 0.0
H739 H 0.78412 0.72959 0.55354 0.0
H740 H 0.72582 0.72969 0.55566 0.0
C741 C 0.73525 0.72732 0.47475 0.0
C742 C 0.97279 0.77092 0.77857 0.0
C743 C 1.00103 0.78916 0.77708 0.0
H744 H 0.95183 0.72415 0.77769 0.0
C745 C 0.03058 0.77314 0.77891 0.0
H746 H 0.94963 0.78247 0.77732 0.0
C747 C 0.03185 0.73962 0.77868 0.0
C748 C 0.00361 0.72138 0.77715 0.0
H749 H 0.05281 0.78639 0.77778 0.0
H750 H 0.05501 0.72806 0.77751 0.0
C751 C 0.97406 0.7374 0.77887 0.0
C752 C 0.97247 0.23969 0.72725 0.0
C753 C 1.00071 0.22143 0.72842 0.0
H754 H 0.95155 0.28647 0.72846 0.0
C755 C 0.03025 0.23743 0.72634 0.0
H756 H 0.94932 0.22815 0.72871 0.0
C757 C 0.03155 0.27096 0.72664 0.0
C758 C 0.00334 0.28921 0.7285 0.0
H759 H 0.05249 0.22417 0.72722 0.0
H760 H 0.05473 0.28249 0.7276 0.0
C761 C 0.97376 0.27322 0.72703 0.0
C762 C 0.77709 0.97256 0.76536 0.0
C763 C 0.77595 1.00076 0.78369 0.0
H764 H 0.77564 0.95173 0.71856 0.0
C765 C 0.77778 0.03035 0.76775 0.0
H766 H 0.77582 0.94937 0.77685 0.0
C767 C 0.77723 0.03173 0.73424 0.0
C768 C 0.77537 0.00355 0.71593 0.0
H769 H 0.77691 0.05256 0.78106 0.0
H770 H 0.77609 0.05494 0.72277 0.0
C771 C 0.77707 0.97393 0.73185 0.0
C772 C 0.22949 0.53623 0.76932 0.0
C773 C 0.23069 0.50795 0.78754 0.0
H774 H 0.23058 0.55721 0.72257 0.0
C775 C 0.22856 0.47843 0.77152 0.0
H776 H 0.23097 0.55937 0.78088 0.0
C777 C 0.22878 0.47717 0.738 0.0
C778 C 0.23059 0.50541 0.71978 0.0
H779 H 0.22946 0.45617 0.78475 0.0
H780 H 0.2297 0.454 0.72644 0.0
C781 C 0.22918 0.53497 0.7358 0.0
C782 C 0.73894 0.77746 0.03566 0.0
C783 C 0.72078 0.77651 0.00734 0.0
H784 H 0.7856 0.7757 0.05677 0.0
C785 C 0.73692 0.77833 0.97787 0.0
H786 H 0.72729 0.7762 0.05877 0.0
C787 C 0.77043 0.7776 0.97671 0.0
C788 C 0.78854 0.77556 0.00499 0.0
H789 H 0.72374 0.7776 0.95558 0.0
H790 H 0.78204 0.77647 0.95357 0.0
C791 C 0.77245 0.77725 0.0345 0.0
C792 C 0.7339 0.22805 0.5317 0.0
C793 C 0.71785 0.23005 0.50219 0.0
H794 H 0.77902 0.22899 0.55605 0.0
C795 C 0.73601 0.22839 0.47391 0.0
H796 H 0.72071 0.2293 0.55397 0.0
C797 C 0.76952 0.22776 0.47512 0.0
C798 C 0.78561 0.2293 0.50464 0.0
H799 H 0.72442 0.22976 0.45078 0.0
H800 H 0.78272 0.2288 0.45285 0.0
C801 C 0.76741 0.22794 0.53291 0.0
C802 C 0.23608 0.27849 0.53214 0.0
C803 C 0.21799 0.27683 0.50381 0.0
H804 H 0.28274 0.27802 0.55332 0.0
C805 C 0.23412 0.27877 0.47434 0.0
H806 H 0.22443 0.27717 0.55525 0.0
C807 C 0.26764 0.27881 0.47323 0.0
C808 C 0.28575 0.27745 0.50155 0.0
H809 H 0.22099 0.27751 0.45204 0.0
H810 H 0.2793 0.27772 0.45012 0.0
C811 C 0.26959 0.27906 0.53102 0.0
C812 C 0.47402 0.76951 0.73019 0.0
C813 C 0.50222 0.78783 0.73148 0.0
H814 H 0.45319 0.7227 0.73126 0.0
C815 C 0.5318 0.77189 0.72955 0.0
H816 H 0.45084 0.78101 0.73152 0.0
C817 C 0.53317 0.73838 0.72984 0.0
C818 C 0.50499 0.72006 0.73154 0.0
H819 H 0.55401 0.7852 0.73053 0.0
H820 H 0.55637 0.72689 0.7309 0.0
C821 C 0.47539 0.736 0.72995 0.0
C822 C 0.47494 0.27189 0.77897 0.0
C823 C 0.5045 0.28785 0.77695 0.0
H824 H 0.4504 0.22687 0.77771 0.0
C825 C 0.53271 0.26955 0.7782 0.0
H826 H 0.45272 0.28518 0.77803 0.0
C827 C 0.53138 0.23603 0.77846 0.0
C828 C 0.50178 0.22008 0.77695 0.0
H829 H 0.55588 0.28106 0.7768 0.0
H830 H 0.55358 0.22275 0.77711 0.0
C831 C 0.47359 0.23837 0.77871 0.0
C832 C 0.72776 0.47423 0.76959 0.0
C833 C 0.72919 0.50246 0.78786 0.0
H834 H 0.72852 0.45332 0.72281 0.0
C835 C 0.72717 0.53203 0.77189 0.0
H836 H 0.72915 0.45106 0.78111 0.0
C837 C 0.72725 0.53334 0.73838 0.0
C838 C 0.72882 0.50512 0.7201 0.0
H839 H 0.72826 0.55426 0.78516 0.0
H840 H 0.72825 0.55653 0.72685 0.0
C841 C 0.72731 0.47554 0.73608 0.0
C842 C 0.27761 0.97396 0.73697 0.0
C843 C 0.27608 1.00227 0.71882 0.0
H844 H 0.27704 0.95288 0.78367 0.0
C845 C 0.27809 0.03177 0.73489 0.0
H846 H 0.27623 0.95083 0.72537 0.0
C847 C 0.27812 0.03296 0.76841 0.0
C848 C 0.27667 0.00467 0.78658 0.0
H849 H 0.27694 0.05405 0.72171 0.0
H850 H 0.27712 0.0561 0.78003 0.0
C851 C 0.27816 0.97515 0.77048 0.0
C852 C 0.73822 0.27701 0.97207 0.0
C853 C 0.72012 0.27535 1.00038 0.0
H854 H 0.78487 0.27622 0.95088 0.0
C855 C 0.73627 0.27689 0.02987 0.0
H856 H 0.72656 0.27599 0.94895 0.0
C857 C 0.76978 0.27659 0.03098 0.0
C858 C 0.78788 0.27525 1.00265 0.0
H859 H 0.72313 0.27562 0.05216 0.0
H860 H 0.78144 0.27522 0.05408 0.0
C861 C 0.77174 0.27723 0.97319 0.0
C862 C 0.47401 0.26717 0.27707 0.0
C863 C 0.50219 0.28549 0.27556 0.0
H864 H 0.45319 0.22034 0.27622 0.0
C865 C 0.53179 0.26957 0.27738 0.0
H866 H 0.45081 0.27865 0.27583 0.0
C867 C 0.53317 0.23605 0.27716 0.0
C868 C 0.50498 0.21773 0.27565 0.0
H869 H 0.55398 0.28288 0.27623 0.0
H870 H 0.55636 0.22457 0.27598 0.0
C871 C 0.47539 0.23365 0.27738 0.0
C872 C 0.53335 0.767 0.22807 0.0
C873 C 0.50522 0.78544 0.2294 0.0
H874 H 0.55398 0.72009 0.22908 0.0
C875 C 0.47558 0.76962 0.22751 0.0
H876 H 0.55658 0.7784 0.22937 0.0
C877 C 0.47407 0.7361 0.22777 0.0
C878 C 0.50218 0.71767 0.22942 0.0
H879 H 0.45343 0.78302 0.22852 0.0
H880 H 0.45083 0.72471 0.22885 0.0
C881 C 0.53184 0.73348 0.22782 0.0
C882 C 0.27806 0.47578 0.26949 0.0
C883 C 0.27586 0.504 0.28771 0.0
H884 H 0.27785 0.45478 0.22274 0.0
C885 C 0.27699 0.53358 0.27169 0.0
H886 H 0.27736 0.4526 0.28105 0.0
C887 C 0.27683 0.53483 0.23817 0.0
C888 C 0.27607 0.50655 0.21994 0.0
H889 H 0.2753 0.55579 0.28491 0.0
H890 H 0.27516 0.55796 0.2266 0.0
C891 C 0.27842 0.47705 0.23597 0.0
C892 C 0.72798 0.97215 0.23443 0.0
C893 C 0.72946 1.00034 0.21608 0.0
H894 H 0.72876 0.95137 0.28127 0.0
C895 C 0.72759 0.02995 0.23198 0.0
H896 H 0.72927 0.94895 0.22297 0.0
C897 C 0.72774 0.03135 0.26549 0.0
C898 C 0.72924 1.00318 0.28384 0.0
H899 H 0.72871 0.05214 0.21866 0.0
H900 H 0.72883 0.05457 0.27696 0.0
C901 C 0.72761 0.97356 0.26794 0.0
C902 C 0.23675 0.72771 0.03428 0.0
C903 C 0.2206 0.72887 0.00478 0.0
H904 H 0.28188 0.73006 0.05852 0.0
C905 C 0.23875 0.7272 0.97649 0.0
H906 H 0.22357 0.729 0.05655 0.0
C907 C 0.27227 0.72737 0.97764 0.0
C908 C 0.28837 0.72975 0.0071 0.0
H909 H 0.2271 0.72795 0.95336 0.0
H910 H 0.28541 0.72838 0.95534 0.0
C911 C 0.27026 0.7284 0.03543 0.0
C912 C 0.08771 0.31577 0.39282 0.0
C913 C 0.07088 0.28696 0.39664 0.0
H914 H 0.09122 0.3602 0.36749 0.0
C915 C 0.04269 0.28203 0.37903 0.0
H916 H 0.10946 0.32026 0.40616 0.0
C917 C 0.03182 0.30514 0.35753 0.0
C918 C 0.04933 0.3334 0.35271 0.0
H919 H 0.0292 0.26008 0.38158 0.0
H920 H 0.01045 0.30024 0.34371 0.0
C921 C 0.0772 0.33865 0.37079 0.0
C922 C 0.96111 0.22111 0.38055 0.0
C923 C 0.93281 0.2165 0.39807 0.0
H924 H 0.9934 0.20244 0.34555 0.0
C925 C 0.91583 0.18775 0.39441 0.0
H926 H 0.97472 0.24299 0.38302 0.0
C927 C 0.9263 0.16462 0.37261 0.0
C928 C 0.95429 0.16957 0.35462 0.0
H929 H 0.894 0.18349 0.40769 0.0
H930 H 0.91219 0.14312 0.36944 0.0
C931 C 0.97194 0.19776 0.35929 0.0
C932 C 0.04406 0.72276 0.12892 0.0
C933 C 0.07165 0.71724 0.11056 0.0
H934 H 0.01176 0.70475 0.16431 0.0
C935 C 0.08733 0.68764 0.11315 0.0
H936 H 0.03151 0.74534 0.12738 0.0
C937 C 0.07628 0.6645 0.13463 0.0
C938 C 0.04898 0.6703 0.15341 0.0
H939 H 0.10859 0.68266 0.09921 0.0
H940 H 0.08943 0.64229 0.13695 0.0
C941 C 0.03262 0.69941 0.14988 0.0
C942 C 0.9745 0.80287 0.15086 0.0
C943 C 0.95821 0.83208 0.15387 0.0
H944 H 0.97584 0.75681 0.12865 0.0
C945 C 0.93139 0.83794 0.13444 0.0
H946 H 0.99497 0.79747 0.16582 0.0
C947 C 0.92072 0.81477 0.11282 0.0
C948 C 0.93628 0.78508 0.11073 0.0
H949 H 0.91832 0.86024 0.13636 0.0
H950 H 0.89981 0.81981 0.09837 0.0
C951 C 0.96342 0.77948 0.12975 0.0
C952 C 0.35905 0.0323 0.30592 0.0
C953 C 0.35537 0.04927 0.33466 0.0
H954 H 0.38185 0.03016 0.26021 0.0
C955 C 0.37427 0.07657 0.34008 0.0
H956 H 0.34454 0.01142 0.30087 0.0
C957 C 0.39602 0.08703 0.3169 0.0
C958 C 0.39872 0.07075 0.28764 0.0
H959 H 0.37184 0.09018 0.362 0.0
H960 H 0.41004 0.10832 0.32156 0.0
C961 C 0.38024 0.04316 0.28253 0.0
C962 C 0.62613 0.46089 0.28274 0.0
C963 C 0.6077 0.43328 0.28792 0.0
H964 H 0.66153 0.49293 0.30114 0.0
C965 C 0.61015 0.41729 0.31736 0.0
H966 H 0.62472 0.47367 0.26028 0.0
C967 C 0.63161 0.42805 0.34067 0.0
C968 C 0.65047 0.45537 0.33519 0.0
H969 H 0.59615 0.39601 0.32207 0.0
H970 H 0.63386 0.41467 0.36274 0.0
C971 C 0.64704 0.47205 0.30625 0.0
C972 C 0.3611 0.97359 0.19924 0.0
C973 C 0.35672 0.9564 0.17072 0.0
H974 H 0.38462 0.97577 0.2446 0.0
C975 C 0.37512 0.92876 0.16529 0.0
H976 H 0.34703 0.99477 0.20429 0.0
C977 C 0.39696 0.91812 0.18828 0.0
C978 C 0.4003 0.93458 0.21736 0.0
H979 H 0.37218 0.915 0.14353 0.0
H980 H 0.41053 0.89653 0.18365 0.0
C981 C 0.38244 0.96258 0.22244 0.0
C982 C 0.61013 0.58545 0.18909 0.0
C983 C 0.60704 0.56912 0.21827 0.0
H984 H 0.63474 0.58854 0.14424 0.0
C985 C 0.62523 0.54135 0.22348 0.0
H986 H 0.59633 0.60686 0.18436 0.0
C987 C 0.64658 0.53041 0.20026 0.0
C988 C 0.65068 0.54745 0.17162 0.0
H989 H 0.62329 0.5283 0.24574 0.0
H990 H 0.66089 0.50941 0.20539 0.0
C991 C 0.632 0.57489 0.16609 0.0
C992 C 0.31891 0.39574 0.08785 0.0
C993 C 0.29 0.39935 0.07115 0.0
H994 H 0.36348 0.37065 0.09124 0.0
C995 C 0.28506 0.38162 0.04303 0.0
H996 H 0.32343 0.40918 0.10954 0.0
C997 C 0.30822 0.3602 0.03213 0.0
C998 C 0.33657 0.35556 0.04953 0.0
H999 H 0.26303 0.38399 0.02966 0.0
H1000 H 0.30327 0.34627 0.01084 0.0
C1001 C 0.34186 0.37379 0.07731 0.0
C1002 C 0.33913 0.63411 0.42938 0.0
C1003 C 0.33376 0.6528 0.45683 0.0
H1004 H 0.32063 0.5985 0.39745 0.0
C1005 C 0.30509 0.64889 0.47389 0.0
H1006 H 0.36099 0.63669 0.41572 0.0
C1007 C 0.28175 0.62765 0.46299 0.0
C1008 C 0.28683 0.60939 0.43523 0.0
H1009 H 0.30009 0.66321 0.4949 0.0
H1010 H 0.25952 0.62578 0.4761 0.0
C1011 C 0.316 0.61236 0.41885 0.0
C1012 C 0.68788 0.89376 0.4165 0.0
C1013 C 0.71697 0.89732 0.43289 0.0
H1014 H 0.64323 0.86875 0.41358 0.0
C1015 C 0.72223 0.87952 0.4609 0.0
H1016 H 0.68312 0.90725 0.3949 0.0
C1017 C 0.69915 0.85811 0.47204 0.0
C1018 C 0.67059 0.85358 0.45497 0.0
H1019 H 0.74441 0.88184 0.47402 0.0
H1020 H 0.70431 0.84414 0.49325 0.0
C1021 C 0.66502 0.87183 0.42726 0.0
C1022 C 0.16671 0.63559 0.57781 0.0
C1023 C 0.17211 0.65435 0.55042 0.0
H1024 H 0.18527 0.60006 0.60979 0.0
C1025 C 0.20092 0.65069 0.53355 0.0
H1026 H 0.14475 0.63802 0.59134 0.0
C1027 C 0.22436 0.62961 0.54457 0.0
C1028 C 0.21923 0.61126 0.57225 0.0
H1029 H 0.20596 0.66509 0.5126 0.0
H1030 H 0.2467 0.62798 0.53162 0.0
C1031 C 0.18993 0.61399 0.58845 0.0
C1032 C 0.92836 0.66779 0.63355 0.0
C1033 C 0.95584 0.67335 0.65215 0.0
H1034 H 0.89641 0.68593 0.59779 0.0
C1035 C 0.97294 0.70194 0.64787 0.0
H1036 H 0.91467 0.64598 0.63642 0.0
C1037 C 0.96204 0.72506 0.62638 0.0
C1038 C 0.93425 0.71981 0.60824 0.0
H1039 H 0.99398 0.70709 0.6621 0.0
H1040 H 0.97519 0.74726 0.62425 0.0
C1041 C 0.91785 0.69069 0.61155 0.0
C1042 C 0.03206 0.80838 0.6479 0.0
C1043 C 0.04903 0.83707 0.65204 0.0
H1044 H 0.0301 0.76287 0.62462 0.0
C1045 C 0.07652 0.84263 0.63346 0.0
H1046 H 0.01101 0.80323 0.66212 0.0
C1047 C 0.08721 0.81962 0.61166 0.0
C1048 C 0.07096 0.79038 0.60854 0.0
H1049 H 0.09012 0.86452 0.63623 0.0
H1050 H 0.10867 0.82436 0.59795 0.0
C1051 C 0.04312 0.78515 0.62662 0.0
C1052 C 0.92965 0.341 0.87289 0.0
C1053 C 0.95687 0.33578 0.85384 0.0
H1054 H 0.89794 0.32207 0.90846 0.0
C1055 C 0.97375 0.30692 0.85704 0.0
H1056 H 0.91611 0.36301 0.87082 0.0
C1057 C 0.96287 0.28324 0.87792 0.0
C1058 C 0.93535 0.28818 0.89655 0.0
H1059 H 0.99455 0.30201 0.84239 0.0
H1060 H 0.9758 0.26086 0.87917 0.0
C1061 C 0.91917 0.31754 0.89431 0.0
C1062 C 0.07721 0.16833 0.87147 0.0
C1063 C 0.0497 0.17389 0.85292 0.0
H1064 H 0.10941 0.18661 0.90694 0.0
C1065 C 0.03288 0.20269 0.85688 0.0
H1066 H 0.0907 0.14636 0.86882 0.0
C1067 C 0.04405 0.22597 0.87805 0.0
C1068 C 0.07183 0.22068 0.8962 0.0
H1069 H 0.01185 0.20785 0.84265 0.0
H1070 H 0.03113 0.24831 0.87994 0.0
C1071 C 0.08799 0.1914 0.89317 0.0
C1072 C 0.60983 0.9189 0.6882 0.0
C1073 C 0.60765 0.93512 0.71753 0.0
H1074 H 0.63314 0.91588 0.64265 0.0
C1075 C 0.62618 0.96274 0.72235 0.0
H1076 H 0.59574 0.89761 0.68377 0.0
C1077 C 0.64691 0.97367 0.69858 0.0
C1078 C 0.65006 0.95676 0.66973 0.0
H1079 H 0.62498 0.97569 0.74472 0.0
H1080 H 0.66149 0.99455 0.7034 0.0
C1081 C 0.6311 0.92944 0.66463 0.0
C1082 C 0.39645 0.58964 0.69015 0.0
C1083 C 0.39918 0.57321 0.71932 0.0
H1084 H 0.37226 0.59303 0.64508 0.0
C1085 C 0.3807 0.54559 0.7243 0.0
H1086 H 0.41048 0.61095 0.6856 0.0
C1087 C 0.35948 0.53487 0.70087 0.0
C1088 C 0.35578 0.55199 0.67222 0.0
H1089 H 0.38234 0.53246 0.74654 0.0
H1090 H 0.34497 0.51396 0.70583 0.0
C1091 C 0.37469 0.57931 0.66693 0.0
C1092 C 0.6472 0.03228 0.8043 0.0
C1093 C 0.65175 0.04922 0.83294 0.0
H1094 H 0.62333 0.03043 0.75911 0.0
C1095 C 0.63335 0.07679 0.83874 0.0
H1096 H 0.66128 0.01118 0.79897 0.0
C1097 C 0.61128 0.08756 0.81603 0.0
C1098 C 0.60772 0.07131 0.78685 0.0
H1099 H 0.63644 0.09037 0.86059 0.0
H1100 H 0.59769 0.10906 0.82096 0.0
C1101 C 0.62565 0.04343 0.78137 0.0
C1102 C 0.35947 0.47598 0.8067 0.0
C1103 C 0.35537 0.4591 0.83544 0.0
H1104 H 0.38259 0.47772 0.76113 0.0
C1105 C 0.37385 0.43154 0.841 0.0
H1106 H 0.3453 0.49707 0.80155 0.0
C1107 C 0.39555 0.42072 0.81796 0.0
C1108 C 0.39865 0.4369 0.7887 0.0
H1109 H 0.37111 0.418 0.86293 0.0
H1110 H 0.40922 0.39922 0.82272 0.0
C1111 C 0.38064 0.46478 0.78345 0.0
C1112 C 0.66604 0.6341 0.93096 0.0
C1113 C 0.6717 0.65262 0.95847 0.0
H1114 H 0.68409 0.59848 0.89879 0.0
C1115 C 0.70036 0.64833 0.97543 0.0
H1116 H 0.64417 0.637 0.91737 0.0
C1117 C 0.72347 0.62693 0.96434 0.0
C1118 C 0.71812 0.60888 0.9365 0.0
H1119 H 0.70559 0.66252 0.99648 0.0
H1120 H 0.74574 0.62484 0.97733 0.0
C1121 C 0.68892 0.61217 0.92025 0.0
C1122 C 0.69904 0.35972 0.53325 0.0
C1123 C 0.67037 0.35563 0.55025 0.0
H1124 H 0.74453 0.383 0.53119 0.0
C1125 C 0.66487 0.37424 0.57773 0.0
H1126 H 0.70415 0.34548 0.5122 0.0
C1127 C 0.68791 0.39604 0.58837 0.0
C1128 C 0.7171 0.39914 0.57207 0.0
H1129 H 0.643 0.37152 0.59135 0.0
H1130 H 0.68319 0.4098 0.60981 0.0
C1131 C 0.72229 0.38101 0.54425 0.0
C1132 C 0.28236 0.12726 0.54323 0.0
C1133 C 0.2875 0.10908 0.57102 0.0
H1134 H 0.30048 0.16296 0.51135 0.0
C1135 C 0.3166 0.1123 0.58749 0.0
H1136 H 0.26018 0.12523 0.53006 0.0
C1137 C 0.33957 0.13425 0.57702 0.0
C1138 C 0.33411 0.15288 0.54955 0.0
H1139 H 0.32127 0.09851 0.60892 0.0
H1140 H 0.36135 0.13707 0.59077 0.0
C1141 C 0.30555 0.14869 0.53238 0.0
C1142 C 0.81596 0.39428 0.41924 0.0
C1143 C 0.78678 0.39719 0.4356 0.0
H1144 H 0.86093 0.36989 0.41602 0.0
C1145 C 0.7817 0.37888 0.46332 0.0
H1146 H 0.82059 0.40817 0.39786 0.0
C1147 C 0.80504 0.35762 0.47417 0.0
C1148 C 0.83369 0.35372 0.45709 0.0
H1149 H 0.75945 0.38066 0.4764 0.0
H1150 H 0.80001 0.34322 0.49513 0.0
C1151 C 0.83908 0.37248 0.4297 0.0
C1152 C 0.57827 0.84181 0.87435 0.0
C1153 C 0.55061 0.83632 0.85601 0.0
H1154 H 0.61049 0.82359 0.90986 0.0
C1155 C 0.53346 0.80779 0.86048 0.0
H1156 H 0.59201 0.86358 0.87133 0.0
C1157 C 0.54448 0.78466 0.88189 0.0
C1158 C 0.57245 0.78983 0.89977 0.0
H1159 H 0.51228 0.80269 0.84645 0.0
H1160 H 0.5313 0.76251 0.88414 0.0
C1161 C 0.58892 0.8189 0.8963 0.0
C1162 C 0.43076 0.66626 0.87549 0.0
C1163 C 0.45814 0.67184 0.85676 0.0
H1164 H 0.39876 0.68455 0.91113 0.0
C1165 C 0.47509 0.70055 0.86075 0.0
H1166 H 0.41718 0.64435 0.87283 0.0
C1167 C 0.46409 0.72381 0.88204 0.0
C1168 C 0.43635 0.71857 0.90027 0.0
H1169 H 0.49604 0.70572 0.84641 0.0
H1170 H 0.47706 0.74612 0.8839 0.0
C1171 C 0.42014 0.6893 0.8973 0.0
C1172 C 0.57514 0.16648 0.63239 0.0
C1173 C 0.54799 0.17212 0.65143 0.0
H1174 H 0.60696 0.1848 0.5966 0.0
C1175 C 0.53127 0.20103 0.64786 0.0
H1176 H 0.58855 0.14442 0.63471 0.0
C1177 C 0.54227 0.22438 0.62667 0.0
C1178 C 0.56978 0.21905 0.60812 0.0
H1179 H 0.5105 0.20624 0.66246 0.0
H1180 H 0.52948 0.24682 0.62515 0.0
C1181 C 0.58576 0.18962 0.61069 0.0
C1182 C 0.42886 0.34191 0.63344 0.0
C1183 C 0.45626 0.33619 0.6521 0.0
H1184 H 0.3967 0.32382 0.59782 0.0
C1185 C 0.47301 0.30736 0.64809 0.0
H1186 H 0.41542 0.36391 0.63611 0.0
C1187 C 0.46185 0.28418 0.62681 0.0
C1188 C 0.43413 0.28959 0.6086 0.0
H1189 H 0.49398 0.30208 0.66238 0.0
H1190 H 0.4747 0.2618 0.62491 0.0
C1191 C 0.41807 0.31894 0.61164 0.0
C1192 C 0.89451 0.58911 0.81831 0.0
C1193 C 0.89748 0.57303 0.78897 0.0
H1194 H 0.8702 0.59172 0.86336 0.0
C1195 C 0.87937 0.54522 0.78366 0.0
H1196 H 0.90826 0.61054 0.82312 0.0
C1197 C 0.85822 0.534 0.80693 0.0
C1198 C 0.85425 0.55078 0.83576 0.0
H1199 H 0.88124 0.53233 0.7613 0.0
H1200 H 0.84398 0.51297 0.80173 0.0
C1201 C 0.87284 0.57826 0.84137 0.0
C1202 C 0.14776 0.97479 0.80699 0.0
C1203 C 0.15202 0.9575 0.83546 0.0
H1204 H 0.12415 0.97736 0.76171 0.0
C1205 C 0.13335 0.93004 0.84087 0.0
H1206 H 0.16204 0.99583 0.80195 0.0
C1207 C 0.1113 0.91971 0.81793 0.0
C1208 C 0.10803 0.9363 0.78891 0.0
H1209 H 0.1362 0.9162 0.8626 0.0
H1210 H 0.09749 0.89828 0.82255 0.0
C1211 C 0.12623 0.96409 0.78382 0.0
C1212 C 0.87917 0.46449 0.72371 0.0
C1213 C 0.89754 0.43685 0.71844 0.0
H1214 H 0.84333 0.49626 0.70568 0.0
C1215 C 0.89456 0.42059 0.6892 0.0
H1216 H 0.88103 0.47751 0.746 0.0
C1217 C 0.87264 0.43107 0.66622 0.0
C1218 C 0.8538 0.45838 0.67181 0.0
H1219 H 0.9085 0.39927 0.68443 0.0
H1220 H 0.87001 0.41747 0.64433 0.0
C1221 C 0.85776 0.47537 0.70051 0.0
C1222 C 0.12498 0.04454 0.72214 0.0
C1223 C 0.10699 0.07242 0.71681 0.0
H1224 H 0.1605 0.01233 0.70425 0.0
C1225 C 0.11021 0.08861 0.68756 0.0
H1226 H 0.12289 0.03155 0.74443 0.0
C1227 C 0.13206 0.07783 0.66465 0.0
C1228 C 0.1506 0.05033 0.67032 0.0
H1229 H 0.09656 0.11009 0.68274 0.0
H1230 H 0.13491 0.09139 0.64275 0.0
C1231 C 0.14633 0.0334 0.69901 0.0
C1232 C 0.81559 0.89601 0.58543 0.0
C1233 C 0.78626 0.89828 0.56924 0.0
H1234 H 0.86094 0.87234 0.58863 0.0
C1235 C 0.78124 0.87952 0.54182 0.0
H1236 H 0.82018 0.91026 0.60658 0.0
C1237 C 0.80481 0.85846 0.53107 0.0
C1238 C 0.83365 0.85522 0.54798 0.0
H1239 H 0.75886 0.88079 0.52888 0.0
H1240 H 0.79984 0.84371 0.51034 0.0
C1241 C 0.83896 0.87443 0.57508 0.0
C1242 C 0.81854 0.11016 0.91589 0.0
C1243 C 0.78939 0.10699 0.93225 0.0
H1244 H 0.86342 0.13474 0.91288 0.0
C1245 C 0.78428 0.12499 0.96016 0.0
H1246 H 0.82319 0.0965 0.89437 0.0
C1247 C 0.80755 0.14624 0.9712 0.0
C1248 C 0.83616 0.15042 0.95414 0.0
H1249 H 0.76206 0.12297 0.97327 0.0
H1250 H 0.80249 0.16039 0.99232 0.0
C1251 C 0.8416 0.13193 0.92656 0.0
C1252 C 0.16614 0.37609 0.92879 0.0
C1253 C 0.17157 0.35718 0.95608 0.0
H1254 H 0.18454 0.41201 0.89716 0.0
C1255 C 0.20017 0.36114 0.97325 0.0
H1256 H 0.14433 0.37348 0.91505 0.0
C1257 C 0.22342 0.38257 0.96256 0.0
C1258 C 0.21833 0.40098 0.93491 0.0
H1259 H 0.20522 0.34667 0.99415 0.0
H1260 H 0.24563 0.38441 0.97571 0.0
C1261 C 0.18918 0.39804 0.91848 0.0
C1262 C 0.70044 0.14601 0.03009 0.0
C1263 C 0.67185 0.15001 0.04724 0.0
H1264 H 0.74591 0.12271 0.02771 0.0
C1265 C 0.66641 0.13118 0.07458 0.0
H1266 H 0.7055 0.16042 0.00915 0.0
C1267 C 0.68944 0.10926 0.08496 0.0
C1268 C 0.71859 0.10626 0.06854 0.0
H1269 H 0.6446 0.13384 0.08831 0.0
H1270 H 0.68479 0.09535 0.10631 0.0
C1271 C 0.7237 0.12459 0.04085 0.0
C1272 C 0.41921 0.18845 0.1106 0.0
C1273 C 0.43552 0.21768 0.10778 0.0
H1274 H 0.4162 0.1433 0.13471 0.0
C1275 C 0.4633 0.2227 0.12601 0.0
H1276 H 0.39779 0.18386 0.09676 0.0
C1277 C 0.4743 0.19924 0.14707 0.0
C1278 C 0.45731 0.17051 0.15085 0.0
H1279 H 0.47634 0.24499 0.1243 0.0
H1280 H 0.49532 0.20422 0.16138 0.0
C1281 C 0.42982 0.1652 0.1322 0.0
C1282 C 0.57777 0.33877 0.13213 0.0
C1283 C 0.55025 0.33322 0.15065 0.0
H1284 H 0.60992 0.32055 0.09657 0.0
C1285 C 0.53329 0.30452 0.14649 0.0
H1286 H 0.59136 0.36066 0.13491 0.0
C1287 C 0.54437 0.28131 0.12519 0.0
C1288 C 0.57219 0.28658 0.1071 0.0
H1289 H 0.51223 0.29936 0.16068 0.0
H1290 H 0.53134 0.25904 0.12315 0.0
C1291 C 0.58846 0.31579 0.1103 0.0
C1292 C 0.4305 0.84046 0.37308 0.0
C1293 C 0.45777 0.83446 0.35432 0.0
H1294 H 0.39833 0.82274 0.40885 0.0
C1295 C 0.47431 0.80551 0.35836 0.0
H1296 H 0.41723 0.86256 0.3704 0.0
C1297 C 0.46304 0.78248 0.37974 0.0
C1298 C 0.43542 0.78817 0.39802 0.0
H1299 H 0.49517 0.80003 0.34398 0.0
H1300 H 0.4757 0.75999 0.38164 0.0
C1301 C 0.41961 0.81764 0.39498 0.0
C1302 C 0.58644 0.68684 0.39518 0.0
C1303 C 0.57045 0.71626 0.39785 0.0
H1304 H 0.58914 0.64167 0.37109 0.0
C1305 C 0.54284 0.72157 0.37945 0.0
H1306 H 0.60772 0.68202 0.40915 0.0
C1307 C 0.53174 0.69823 0.35831 0.0
C1308 C 0.54846 0.66934 0.35462 0.0
H1309 H 0.53004 0.744 0.38106 0.0
H1310 H 0.51089 0.70345 0.34382 0.0
C1311 C 0.57572 0.66371 0.37351 0.0
C1312 C 0.13394 0.42873 0.16425 0.0
C1313 C 0.1521 0.45644 0.17015 0.0
H1314 H 0.09852 0.39611 0.1819 0.0
C1315 C 0.14735 0.47327 0.19882 0.0
H1316 H 0.13718 0.41524 0.14237 0.0
C1317 C 0.12586 0.46188 0.22169 0.0
C1318 C 0.10818 0.43385 0.21612 0.0
H1319 H 0.16123 0.49448 0.20423 0.0
H1320 H 0.12338 0.47483 0.24396 0.0
C1321 C 0.11192 0.41772 0.1869 0.0
C1322 C 0.87345 0.07484 0.16396 0.0
C1323 C 0.85437 0.04767 0.16935 0.0
H1324 H 0.90895 0.10673 0.18275 0.0
C1325 C 0.85744 0.03106 0.19838 0.0
H1326 H 0.87147 0.08817 0.14182 0.0
C1327 C 0.8782 0.04217 0.22204 0.0
C1328 C 0.89687 0.06964 0.21693 0.0
H1329 H 0.84276 0.0103 0.20342 0.0
H1330 H 0.87933 0.02945 0.24455 0.0
C1331 C 0.89477 0.08554 0.18741 0.0
C1332 C 0.12417 0.54183 0.28475 0.0
C1333 C 0.10589 0.56959 0.28967 0.0
H1334 H 0.16013 0.51036 0.30304 0.0
C1335 C 0.10898 0.58627 0.31866 0.0
H1336 H 0.12218 0.52848 0.26267 0.0
C1337 C 0.13102 0.57612 0.34168 0.0
C1338 C 0.14989 0.54878 0.33637 0.0
H1339 H 0.0951 0.60768 0.32317 0.0
H1340 H 0.13378 0.59007 0.36334 0.0
C1341 C 0.14572 0.53132 0.30798 0.0
C1342 C 0.87276 0.92862 0.33994 0.0
C1343 C 0.85436 0.95615 0.33398 0.0
H1344 H 0.90856 0.89637 0.32246 0.0
C1345 C 0.85921 0.97317 0.30544 0.0
H1346 H 0.86947 0.915 0.36174 0.0
C1347 C 0.88101 0.96208 0.28271 0.0
C1348 C 0.89885 0.93415 0.28831 0.0
H1349 H 0.84517 0.99427 0.3 0.0
H1350 H 0.88358 0.97512 0.26051 0.0
C1351 C 0.89504 0.91789 0.31744 0.0
C1352 C 0.16589 0.13228 0.42865 0.0
C1353 C 0.17123 0.15111 0.45601 0.0
H1354 H 0.18454 0.09671 0.39677 0.0
C1355 C 0.19997 0.14745 0.47299 0.0
H1356 H 0.14397 0.13469 0.41504 0.0
C1357 C 0.22344 0.12635 0.46207 0.0
C1358 C 0.2184 0.10798 0.43439 0.0
H1359 H 0.20497 0.16189 0.49393 0.0
H1360 H 0.24573 0.12471 0.47509 0.0
C1361 C 0.18914 0.11066 0.41811 0.0
C1362 C 0.22431 0.87886 0.04463 0.0
C1363 C 0.21935 0.89729 0.07229 0.0
H1364 H 0.2059 0.843 0.01311 0.0
C1365 C 0.1903 0.89435 0.08888 0.0
H1366 H 0.24645 0.88067 0.03138 0.0
C1367 C 0.16718 0.87242 0.07868 0.0
C1368 C 0.17244 0.85356 0.05133 0.0
H1369 H 0.18577 0.90833 0.11022 0.0
H1370 H 0.14543 0.86983 0.09251 0.0
C1371 C 0.20097 0.85746 0.03405 0.0
C1372 C 0.84061 0.6304 0.07877 0.0
C1373 C 0.83535 0.64933 0.05146 0.0
H1374 H 0.82188 0.59469 0.11044 0.0
C1375 C 0.80668 0.6457 0.03436 0.0
H1376 H 0.86248 0.63277 0.09247 0.0
C1377 C 0.78321 0.62452 0.04509 0.0
C1378 C 0.78816 0.60606 0.07273 0.0
H1379 H 0.80175 0.66021 0.01345 0.0
H1380 H 0.76097 0.62291 0.03197 0.0
C1381 C 0.81735 0.60871 0.08913 0.0
C1382 C 0.31809 0.89518 0.9192 0.0
C1383 C 0.28889 0.89842 0.93546 0.0
H1384 H 0.363 0.87064 0.91645 0.0
C1385 C 0.2837 0.88053 0.96343 0.0
H1386 H 0.32282 0.90876 0.89765 0.0
C1387 C 0.30694 0.85932 0.97463 0.0
C1388 C 0.33562 0.8551 0.95768 0.0
H1389 H 0.26145 0.88263 0.97647 0.0
H1390 H 0.30183 0.84527 0.99579 0.0
C1391 C 0.34112 0.87347 0.93004 0.0
C1392 C 0.97438 0.52486 0.276 0.0
C1393 C 0.97624 0.53367 0.24366 0.0
H1394 H 0.97717 0.48637 0.30978 0.0
C1395 C 0.97426 0.50961 0.22018 0.0
H1396 H 0.97618 0.54281 0.29461 0.0
C1397 C 0.97414 0.47724 0.22887 0.0
C1398 C 0.9768 0.46846 0.26117 0.0
H1399 H 0.97576 0.51577 0.19505 0.0
H1400 H 0.97573 0.4593 0.21023 0.0
C1401 C 0.97506 0.4925 0.28468 0.0
C1402 C 0.03155 0.99245 0.22357 0.0
C1403 C 0.0286 0.96823 0.24678 0.0
H1404 H 0.03035 0.04281 0.21386 0.0
C1405 C 0.02892 0.97685 0.27923 0.0
H1406 H 0.03125 0.98644 0.19836 0.0
C1407 C 0.0277 0.00916 0.28807 0.0
C1408 C 0.02695 0.03334 0.26464 0.0
H1409 H 0.02635 0.95879 0.29764 0.0
H1410 H 0.02447 0.01512 0.31308 0.0
C1411 C 0.03112 0.02477 0.23245 0.0
C1412 C 0.27625 0.97625 0.52715 0.0
C1413 C 0.24376 0.97849 0.53529 0.0
H1414 H 0.31081 0.97834 0.48933 0.0
C1415 C 0.22074 0.97659 0.51079 0.0
H1416 H 0.29451 0.97796 0.54545 0.0
C1417 C 0.23007 0.97612 0.47861 0.0
C1418 C 0.26257 0.97836 0.47046 0.0
H1419 H 0.19551 0.97837 0.51643 0.0
H1420 H 0.2118 0.97773 0.46031 0.0
C1421 C 0.28558 0.97657 0.49496 0.0
C1422 C 0.72797 0.53016 0.52787 0.0
C1423 C 0.76046 0.52866 0.53618 0.0
H1424 H 0.69363 0.52697 0.48992 0.0
C1425 C 0.78355 0.53076 0.51176 0.0
H1426 H 0.70966 0.52827 0.5461 0.0
C1427 C 0.77436 0.53068 0.47954 0.0
C1428 C 0.74195 0.5277 0.47126 0.0
H1429 H 0.80878 0.52954 0.51753 0.0
H1430 H 0.79274 0.52924 0.46133 0.0
C1431 C 0.7188 0.52929 0.49565 0.0
C1432 C 0.27805 0.03014 0.97873 0.0
C1433 C 0.24555 0.02841 0.97047 0.0
H1434 H 0.31245 0.02735 0.01665 0.0
C1435 C 0.22249 0.03057 0.9949 0.0
H1436 H 0.29634 0.02821 0.96048 0.0
C1437 C 0.23172 0.03077 0.02711 0.0
C1438 C 0.26415 0.028 0.03535 0.0
H1439 H 0.19725 0.02919 0.98917 0.0
H1440 H 0.21337 0.02934 0.04535 0.0
C1441 C 0.28727 0.02954 0.01093 0.0
C1442 C 0.72083 0.4749 0.01168 0.0
C1443 C 0.74391 0.4769 0.03611 0.0
H1444 H 0.71166 0.4765 0.96125 0.0
C1445 C 0.7764 0.47529 0.02781 0.0
H1446 H 0.69559 0.4762 0.01744 0.0
C1447 C 0.78559 0.47616 0.9956 0.0
C1448 C 0.76245 0.47786 0.9712 0.0
H1449 H 0.79471 0.4771 0.04606 0.0
H1450 H 0.81077 0.47841 0.98988 0.0
C1451 C 0.73003 0.47497 0.97946 0.0
C1452 C 0.49605 0.28566 0.97607 0.0
C1453 C 0.47154 0.26263 0.97767 0.0
H1454 H 0.54653 0.29456 0.97725 0.0
C1455 C 0.47966 0.23015 0.97492 0.0
H1456 H 0.49043 0.31087 0.97824 0.0
C1457 C 0.51184 0.2208 0.97504 0.0
C1458 C 0.53636 0.24378 0.97711 0.0
H1459 H 0.46135 0.21187 0.97638 0.0
H1460 H 0.51747 0.19553 0.97642 0.0
C1461 C 0.52822 0.27632 0.97539 0.0
C1462 C 0.51127 0.78531 0.5297 0.0
C1463 C 0.53544 0.76195 0.52783 0.0
H1464 H 0.46092 0.79495 0.5286 0.0
C1465 C 0.52686 0.72957 0.53018 0.0
H1466 H 0.51725 0.81046 0.52783 0.0
C1467 C 0.49455 0.72068 0.52994 0.0
C1468 C 0.47035 0.74403 0.52812 0.0
H1469 H 0.5449 0.71104 0.52848 0.0
H1470 H 0.48856 0.69551 0.52824 0.0
C1471 C 0.47896 0.77642 0.53025 0.0
C1472 C 0.01145 0.72195 0.47681 0.0
C1473 C 0.03564 0.74532 0.47851 0.0
H1474 H 0.96109 0.71234 0.478 0.0
C1475 C 0.02706 0.77768 0.47596 0.0
H1476 H 0.01742 0.69681 0.47882 0.0
C1477 C 0.99475 0.78659 0.47616 0.0
C1478 C 0.97055 0.76326 0.47813 0.0
H1479 H 0.04511 0.79621 0.4775 0.0
H1480 H 0.98877 0.81177 0.47767 0.0
C1481 C 0.97914 0.73085 0.47623 0.0
C1482 C 0.02948 0.49694 0.78555 0.0
C1483 C 0.02755 0.47268 0.76227 0.0
H1484 H 0.02822 0.54734 0.79504 0.0
C1485 C 0.02964 0.48119 0.72986 0.0
H1486 H 0.02783 0.49103 0.81073 0.0
C1487 C 0.0292 0.51347 0.72088 0.0
C1488 C 0.02744 0.53773 0.74417 0.0
H1489 H 0.02792 0.46308 0.7114 0.0
H1490 H 0.02732 0.51939 0.69572 0.0
C1491 C 0.02982 0.52923 0.77656 0.0
C1492 C 0.9752 0.01367 0.78525 0.0
C1493 C 0.97708 0.03787 0.76191 0.0
H1494 H 0.97656 0.9633 0.79487 0.0
C1495 C 0.97495 0.02927 0.72952 0.0
H1496 H 0.9769 0.01966 0.81041 0.0
C1497 C 0.97545 0.99696 0.72063 0.0
C1498 C 0.97728 0.97277 0.74398 0.0
H1499 H 0.97666 0.04733 0.71101 0.0
H1500 H 0.97735 0.99098 0.69548 0.0
C1501 C 0.9749 0.98135 0.77635 0.0
C1502 C 0.72737 0.02953 0.4759 0.0
C1503 C 0.75988 0.02795 0.46769 0.0
H1504 H 0.69294 0.02678 0.5138 0.0
C1505 C 0.7829 0.03033 0.49214 0.0
H1506 H 0.70911 0.02742 0.45764 0.0
C1507 C 0.77364 0.03061 0.52434 0.0
C1508 C 0.74122 0.02771 0.53257 0.0
H1509 H 0.80815 0.02905 0.48644 0.0
H1510 H 0.79199 0.02939 0.5426 0.0
C1511 C 0.71812 0.02903 0.50811 0.0
C1512 C 0.27719 0.47852 0.47966 0.0
C1513 C 0.24465 0.4798 0.47152 0.0
H1514 H 0.31171 0.48186 0.51744 0.0
C1515 C 0.2217 0.47752 0.49604 0.0
H1516 H 0.2954 0.48054 0.46134 0.0
C1517 C 0.23105 0.47762 0.52822 0.0
C1518 C 0.26348 0.4808 0.53633 0.0
H1519 H 0.19643 0.47855 0.4904 0.0
H1520 H 0.21275 0.4789 0.54652 0.0
C1521 C 0.28653 0.4794 0.51183 0.0
C1522 C 0.77689 0.97435 0.97592 0.0
C1523 C 0.74446 0.97669 0.96757 0.0
H1524 H 0.81121 0.97632 0.01398 0.0
C1525 C 0.72128 0.97481 0.99191 0.0
H1526 H 0.79528 0.97605 0.95774 0.0
C1527 C 0.7304 0.97428 0.02415 0.0
C1528 C 0.76284 0.97643 0.03253 0.0
H1529 H 0.6961 0.97667 0.98611 0.0
H1530 H 0.71201 0.97593 0.04233 0.0
C1531 C 0.78601 0.97462 0.00817 0.0
C1532 C 0.28642 0.53265 0.99563 0.0
C1533 C 0.26328 0.53093 0.97123 0.0
H1534 H 0.29563 0.53096 0.04605 0.0
C1535 C 0.23083 0.53303 0.97957 0.0
H1536 H 0.31163 0.53095 0.98984 0.0
C1537 C 0.22167 0.53233 0.01179 0.0
C1538 C 0.24482 0.53034 0.03615 0.0
H1539 H 0.21247 0.53145 0.96135 0.0
H1540 H 0.19648 0.5304 0.01755 0.0
C1541 C 0.27726 0.53276 0.02786 0.0
C1542 C 0.49602 0.78704 0.03185 0.0
C1543 C 0.4717 0.76381 0.03017 0.0
H1544 H 0.54643 0.79637 0.03048 0.0
C1545 C 0.48012 0.73139 0.0326 0.0
H1546 H 0.49018 0.81222 0.02991 0.0
C1547 C 0.51237 0.72231 0.03223 0.0
C1548 C 0.53669 0.74551 0.03025 0.0
H1549 H 0.46196 0.71296 0.03105 0.0
H1550 H 0.51821 0.69711 0.03059 0.0
C1551 C 0.52828 0.77796 0.03229 0.0
C1552 C 0.47796 0.27792 0.47607 0.0
C1553 C 0.46956 0.24548 0.47829 0.0
H1554 H 0.51603 0.31221 0.47827 0.0
C1555 C 0.49389 0.22228 0.47643 0.0
H1556 H 0.45979 0.29632 0.47775 0.0
C1557 C 0.52614 0.23137 0.47605 0.0
C1558 C 0.53453 0.26381 0.47832 0.0
H1559 H 0.48806 0.19708 0.47819 0.0
H1560 H 0.5443 0.21295 0.47771 0.0
C1561 C 0.5102 0.28701 0.47647 0.0
C1562 C 0.97808 0.22856 0.52942 0.0
C1563 C 0.96963 0.26101 0.52754 0.0
H1564 H 0.01619 0.19435 0.52679 0.0
C1565 C 0.99394 0.28423 0.52948 0.0
H1566 H 0.95993 0.21015 0.52765 0.0
C1567 C 0.0262 0.27518 0.52967 0.0
C1568 C 0.03464 0.24277 0.52712 0.0
H1569 H 0.98806 0.30943 0.52796 0.0
H1570 H 0.04433 0.29363 0.52812 0.0
C1571 C 0.01034 0.21952 0.52882 0.0
C1572 C 0.47517 0.0119 0.72204 0.0
C1573 C 0.47751 0.03641 0.74501 0.0
H1574 H 0.47641 0.96141 0.71304 0.0
C1575 C 0.47616 0.02823 0.77755 0.0
H1576 H 0.47626 0.01756 0.69677 0.0
C1577 C 0.47693 0.99604 0.78685 0.0
C1578 C 0.47827 0.97155 0.76378 0.0
H1579 H 0.47822 0.04653 0.79578 0.0
H1580 H 0.47937 0.9904 0.81203 0.0
C1581 C 0.47515 0.9797 0.73136 0.0
C1582 C 0.5307 0.51178 0.78651 0.0
C1583 C 0.52893 0.5363 0.7635 0.0
H1584 H 0.52927 0.4613 0.79546 0.0
C1585 C 0.53113 0.52814 0.73101 0.0
H1586 H 0.52896 0.51743 0.81175 0.0
C1587 C 0.53062 0.49596 0.72167 0.0
C1588 C 0.52871 0.47145 0.74469 0.0
H1589 H 0.52952 0.54646 0.71274 0.0
H1590 H 0.52882 0.49032 0.69644 0.0
C1591 C 0.53099 0.47959 0.77718 0.0
C1592 C 0.02836 0.23018 0.02787 0.0
C1593 C 0.03626 0.26277 0.02606 0.0
H1594 H 0.99082 0.19534 0.02529 0.0
C1595 C 0.01158 0.28558 0.02813 0.0
H1596 H 0.04681 0.21207 0.02603 0.0
C1597 C 0.97947 0.27599 0.02839 0.0
C1598 C 0.97158 0.24345 0.02577 0.0
H1599 H 0.01702 0.31088 0.0267 0.0
H1600 H 0.96103 0.29414 0.02695 0.0
C1601 C 0.99626 0.2206 0.02734 0.0
C1602 C 0.53027 0.00974 0.21921 0.0
C1603 C 0.52902 0.03417 0.24235 0.0
H1604 H 0.52889 0.95928 0.21012 0.0
C1605 C 0.53224 0.0259 0.27474 0.0
H1606 H 0.52776 0.01547 0.19406 0.0
C1607 C 0.53223 0.99367 0.28396 0.0
C1608 C 0.52979 0.96924 0.26092 0.0
H1609 H 0.53107 0.04414 0.29312 0.0
H1610 H 0.5312 0.98794 0.30921 0.0
C1611 C 0.53105 0.97752 0.2284 0.0
C1612 C 0.47497 0.47721 0.27482 0.0
C1613 C 0.47805 0.46902 0.2424 0.0
H1614 H 0.47617 0.51509 0.30938 0.0
C1615 C 0.47673 0.49351 0.21932 0.0
H1616 H 0.4762 0.45893 0.29314 0.0
C1617 C 0.47602 0.52571 0.2286 0.0
C1618 C 0.47741 0.53391 0.26113 0.0
H1619 H 0.47913 0.48784 0.19414 0.0
H1620 H 0.47811 0.54399 0.21035 0.0
C1621 C 0.47505 0.50942 0.28412 0.0
C1622 C 0.01225 0.78346 0.97912 0.0
C1623 C 0.03672 0.76041 0.98103 0.0
H1624 H 0.96179 0.79249 0.98033 0.0
C1625 C 0.02851 0.72791 0.97891 0.0
H1626 H 0.01793 0.8087 0.98077 0.0
C1627 C 0.99632 0.71863 0.97932 0.0
C1628 C 0.97185 0.74169 0.98107 0.0
H1629 H 0.04678 0.70961 0.98061 0.0
H1630 H 0.99064 0.6934 0.98113 0.0
C1631 C 0.98006 0.77418 0.97875 0.0
loop_
_geom_bond_atom_site_label_1
_geom_bond_atom_site_label_2
_geom_bond_distance
_geom_bond_site_symmetry_2
_ccdc_geom_bond_type
O0 Cd1 2.223 . S
O0 C8 1.315 . S
Cd1 O0 2.223 . S
Cd1 O4 2.297 1_455 S
Cd1 O5 2.439 . S
Cd1 O11 2.240 . S
Cd2 O3 2.240 . S
Cd2 O10 2.223 . S
Cd2 O12 2.297 . S
Cd2 O13 2.439 . S
O3 Cd2 2.240 . S
O3 C8 1.279 . S
O4 Cd1 2.297 1_655 S
O4 C6 1.247 1_655 S
O5 Cd1 2.439 . S
O5 C6 1.208 . S
C6 O4 1.247 1_455 S
C6 O5 1.208 . S
C7 O12 1.247 . S
C7 O13 1.208 . S
C8 O0 1.315 . S
C8 O3 1.279 . S
C9 O10 1.315 . S
C9 O11 1.279 . S
O10 Cd2 2.223 . S
O10 C9 1.315 . S
O11 Cd1 2.240 . S
O11 C9 1.279 . S
O12 Cd2 2.297 . S
O12 C7 1.247 . S
O13 Cd2 2.439 . S
O13 C7 1.208 . S
O14 Cd15 2.223 . S
O14 C22 1.315 . S
Cd15 O14 2.223 . S
Cd15 O18 2.297 1_655 S
Cd15 O19 2.439 . S
Cd15 O25 2.240 . S
Cd16 O17 2.240 . S
Cd16 O24 2.223 . S
Cd16 O26 2.297 . S
Cd16 O27 2.439 . S
O17 Cd16 2.240 . S
O17 C22 1.279 . S
O18 Cd15 2.297 1_455 S
O18 C20 1.247 1_455 S
O19 Cd15 2.439 . S
O19 C20 1.208 . S
C20 O18 1.247 1_655 S
C20 O19 1.208 . S
C21 O26 1.247 . S
C21 O27 1.208 . S
C22 O14 1.315 . S
C22 O17 1.279 . S
C23 O24 1.315 . S
C23 O25 1.279 . S
O24 Cd16 2.223 . S
O24 C23 1.315 . S
O25 Cd15 2.240 . S
O25 C23 1.279 . S
O26 Cd16 2.297 . S
O26 C21 1.247 . S
O27 Cd16 2.439 . S
O27 C21 1.208 . S
O28 Cd29 2.223 . S
O28 C36 1.315 . S
Cd29 O28 2.223 . S
Cd29 O32 2.297 1_455 S
Cd29 O33 2.439 . S
Cd29 O39 2.240 . S
Cd30 O31 2.240 . S
Cd30 O38 2.223 . S
Cd30 O40 2.297 . S
Cd30 O41 2.439 . S
O31 Cd30 2.240 . S
O31 C36 1.279 . S
O32 Cd29 2.297 1_655 S
O32 C34 1.247 1_655 S
O33 Cd29 2.439 . S
O33 C34 1.208 . S
C34 O32 1.247 1_455 S
C34 O33 1.208 . S
C35 O40 1.247 . S
C35 O41 1.208 . S
C36 O28 1.315 . S
C36 O31 1.279 . S
C37 O38 1.315 . S
C37 O39 1.279 . S
O38 Cd30 2.223 . S
O38 C37 1.315 . S
O39 Cd29 2.240 . S
O39 C37 1.279 . S
O40 Cd30 2.297 . S
O40 C35 1.247 . S
O41 Cd30 2.439 . S
O41 C35 1.208 . S
O42 Cd43 2.223 . S
O42 C50 1.315 . S
Cd43 O42 2.223 . S
Cd43 O46 2.297 1_655 S
Cd43 O47 2.439 . S
Cd43 O53 2.240 . S
Cd44 O45 2.240 . S
Cd44 O52 2.223 . S
Cd44 O54 2.297 . S
Cd44 O55 2.439 . S
O45 Cd44 2.240 . S
O45 C50 1.279 . S
O46 Cd43 2.297 1_455 S
O46 C48 1.247 1_455 S
O47 Cd43 2.439 . S
O47 C48 1.208 . S
C48 O46 1.247 1_655 S
C48 O47 1.208 . S
C49 O54 1.247 . S
C49 O55 1.208 . S
C50 O42 1.315 . S
C50 O45 1.279 . S
C51 O52 1.315 . S
C51 O53 1.279 . S
O52 Cd44 2.223 . S
O52 C51 1.315 . S
O53 Cd43 2.240 . S
O53 C51 1.279 . S
O54 Cd44 2.297 . S
O54 C49 1.247 . S
O55 Cd44 2.439 . S
O55 C49 1.208 . S
O56 Cd57 2.223 . S
O56 C64 1.315 . S
Cd57 O56 2.223 . S
Cd57 O60 2.297 1_545 S
Cd57 O61 2.439 . S
Cd57 O67 2.240 . S
Cd58 O59 2.240 . S
Cd58 O66 2.223 . S
Cd58 O68 2.297 . S
Cd58 O69 2.439 . S
O59 Cd58 2.240 . S
O59 C64 1.279 . S
O60 Cd57 2.297 1_565 S
O60 C62 1.247 1_565 S
O61 Cd57 2.439 . S
O61 C62 1.208 . S
C62 O60 1.247 1_545 S
C62 O61 1.208 . S
C63 O68 1.247 . S
C63 O69 1.208 . S
C64 O56 1.315 . S
C64 O59 1.279 . S
C65 O66 1.315 . S
C65 O67 1.279 . S
O66 Cd58 2.223 . S
O66 C65 1.315 . S
O67 Cd57 2.240 . S
O67 C65 1.279 . S
O68 Cd58 2.297 . S
O68 C63 1.247 . S
O69 Cd58 2.439 . S
O69 C63 1.208 . S
O70 Cd71 2.223 . S
O70 C78 1.315 . S
Cd71 O70 2.223 . S
Cd71 O74 2.297 . S
Cd71 O75 2.439 . S
Cd71 O81 2.240 . S
Cd72 O73 2.240 . S
Cd72 O80 2.223 . S
Cd72 O82 2.297 . S
Cd72 O83 2.439 . S
O73 Cd72 2.240 . S
O73 C78 1.279 . S
O74 Cd71 2.297 . S
O74 C76 1.247 . S
O75 Cd71 2.439 . S
O75 C76 1.208 . S
C76 O74 1.247 . S
C76 O75 1.208 . S
C77 O82 1.247 . S
C77 O83 1.208 . S
C78 O70 1.315 . S
C78 O73 1.279 . S
C79 O80 1.315 . S
C79 O81 1.279 . S
O80 Cd72 2.223 . S
O80 C79 1.315 . S
O81 Cd71 2.240 . S
O81 C79 1.279 . S
O82 Cd72 2.297 . S
O82 C77 1.247 . S
O83 Cd72 2.439 . S
O83 C77 1.208 . S
O84 Cd85 2.223 . S
O84 C92 1.315 . S
Cd85 O84 2.223 . S
Cd85 O88 2.297 1_565 S
Cd85 O89 2.439 . S
Cd85 O95 2.240 . S
Cd86 O87 2.240 . S
Cd86 O94 2.223 . S
Cd86 O96 2.297 . S
Cd86 O97 2.439 . S
O87 Cd86 2.240 . S
O87 C92 1.279 . S
O88 Cd85 2.297 1_545 S
O88 C90 1.247 1_545 S
O89 Cd85 2.439 . S
O89 C90 1.208 . S
C90 O88 1.247 1_565 S
C90 O89 1.208 . S
C91 O96 1.247 . S
C91 O97 1.208 . S
C92 O84 1.315 . S
C92 O87 1.279 . S
C93 O94 1.315 . S
C93 O95 1.279 . S
O94 Cd86 2.223 . S
O94 C93 1.315 . S
O95 Cd85 2.240 . S
O95 C93 1.279 . S
O96 Cd86 2.297 . S
O96 C91 1.247 . S
O97 Cd86 2.439 . S
O97 C91 1.208 . S
O98 Cd99 2.223 . S
O98 C106 1.315 . S
Cd99 O98 2.223 . S
Cd99 O102 2.297 . S
Cd99 O103 2.439 . S
Cd99 O109 2.240 . S
Cd100 O101 2.240 . S
Cd100 O108 2.223 . S
Cd100 O110 2.297 . S
Cd100 O111 2.439 . S
O101 Cd100 2.240 . S
O101 C106 1.279 . S
O102 Cd99 2.297 . S
O102 C104 1.247 . S
O103 Cd99 2.439 . S
O103 C104 1.208 . S
C104 O102 1.247 . S
C104 O103 1.208 . S
C105 O110 1.247 . S
C105 O111 1.208 . S
C106 O98 1.315 . S
C106 O101 1.279 . S
C107 O108 1.315 . S
C107 O109 1.279 . S
O108 Cd100 2.223 . S
O108 C107 1.315 . S
O109 Cd99 2.240 . S
O109 C107 1.279 . S
O110 Cd100 2.297 . S
O110 C105 1.247 . S
O111 Cd100 2.439 . S
O111 C105 1.208 . S
O112 Cd113 2.223 . S
O112 C120 1.315 . S
Cd113 O112 2.223 . S
Cd113 O116 2.297 1_554 S
Cd113 O117 2.439 . S
Cd113 O123 2.240 . S
Cd114 O115 2.240 . S
Cd114 O122 2.223 . S
Cd114 O124 2.297 . S
Cd114 O125 2.439 . S
O115 Cd114 2.240 . S
O115 C120 1.279 . S
O116 Cd113 2.297 1_556 S
O116 C118 1.247 1_556 S
O117 Cd113 2.439 . S
O117 C118 1.208 . S
C118 O116 1.247 1_554 S
C118 O117 1.208 . S
C119 O124 1.247 . S
C119 O125 1.208 . S
C120 O112 1.315 . S
C120 O115 1.279 . S
C121 O122 1.315 . S
C121 O123 1.279 . S
O122 Cd114 2.223 . S
O122 C121 1.315 . S
O123 Cd113 2.240 . S
O123 C121 1.279 . S
O124 Cd114 2.297 . S
O124 C119 1.247 . S
O125 Cd114 2.439 . S
O125 C119 1.208 . S
O126 Cd127 2.223 . S
O126 C134 1.315 . S
Cd127 O126 2.223 . S
Cd127 O130 2.297 . S
Cd127 O131 2.439 . S
Cd127 O137 2.240 . S
Cd128 O129 2.240 . S
Cd128 O136 2.223 . S
Cd128 O138 2.297 . S
Cd128 O139 2.439 . S
O129 Cd128 2.240 . S
O129 C134 1.279 . S
O130 Cd127 2.297 . S
O130 C132 1.247 . S
O131 Cd127 2.439 . S
O131 C132 1.208 . S
C132 O130 1.247 . S
C132 O131 1.208 . S
C133 O138 1.247 . S
C133 O139 1.208 . S
C134 O126 1.315 . S
C134 O129 1.279 . S
C135 O136 1.315 . S
C135 O137 1.279 . S
O136 Cd128 2.223 . S
O136 C135 1.315 . S
O137 Cd127 2.240 . S
O137 C135 1.279 . S
O138 Cd128 2.297 . S
O138 C133 1.247 . S
O139 Cd128 2.439 . S
O139 C133 1.208 . S
O140 Cd141 2.223 . S
O140 C148 1.315 . S
Cd141 O140 2.223 . S
Cd141 O144 2.297 . S
Cd141 O145 2.439 . S
Cd141 O151 2.240 . S
Cd142 O143 2.240 . S
Cd142 O150 2.223 . S
Cd142 O152 2.297 . S
Cd142 O153 2.439 . S
O143 Cd142 2.240 . S
O143 C148 1.279 . S
O144 Cd141 2.297 . S
O144 C146 1.247 . S
O145 Cd141 2.439 . S
O145 C146 1.208 . S
C146 O144 1.247 . S
C146 O145 1.208 . S
C147 O152 1.247 . S
C147 O153 1.208 . S
C148 O140 1.315 . S
C148 O143 1.279 . S
C149 O150 1.315 . S
C149 O151 1.279 . S
O150 Cd142 2.223 . S
O150 C149 1.315 . S
O151 Cd141 2.240 . S
O151 C149 1.279 . S
O152 Cd142 2.297 . S
O152 C147 1.247 . S
O153 Cd142 2.439 . S
O153 C147 1.208 . S
O154 Cd155 2.223 . S
O154 C162 1.315 . S
Cd155 O154 2.223 . S
Cd155 O158 2.297 . S
Cd155 O159 2.439 . S
Cd155 O165 2.240 . S
Cd156 O157 2.240 . S
Cd156 O164 2.223 . S
Cd156 O166 2.297 . S
Cd156 O167 2.439 . S
O157 Cd156 2.240 . S
O157 C162 1.279 . S
O158 Cd155 2.297 . S
O158 C160 1.247 . S
O159 Cd155 2.439 . S
O159 C160 1.208 . S
C160 O158 1.247 . S
C160 O159 1.208 . S
C161 O166 1.247 . S
C161 O167 1.208 . S
C162 O154 1.315 . S
C162 O157 1.279 . S
C163 O164 1.315 . S
C163 O165 1.279 . S
O164 Cd156 2.223 . S
O164 C163 1.315 . S
O165 Cd155 2.240 . S
O165 C163 1.279 . S
O166 Cd156 2.297 . S
O166 C161 1.247 . S
O167 Cd156 2.439 . S
O167 C161 1.208 . S
O168 Cd169 2.223 . S
O168 C176 1.315 . S
Cd169 O168 2.223 . S
Cd169 O172 2.297 1_655 S
Cd169 O173 2.439 . S
Cd169 O179 2.240 . S
Cd170 O171 2.240 . S
Cd170 O178 2.223 . S
Cd170 O180 2.297 . S
Cd170 O181 2.439 . S
O171 Cd170 2.240 . S
O171 C176 1.279 . S
O172 Cd169 2.297 1_455 S
O172 C174 1.247 1_455 S
O173 Cd169 2.439 . S
O173 C174 1.208 . S
C174 O172 1.247 1_655 S
C174 O173 1.208 . S
C175 O180 1.247 . S
C175 O181 1.208 . S
C176 O168 1.315 . S
C176 O171 1.279 . S
C177 O178 1.315 . S
C177 O179 1.279 . S
O178 Cd170 2.223 . S
O178 C177 1.315 . S
O179 Cd169 2.240 . S
O179 C177 1.279 . S
O180 Cd170 2.297 . S
O180 C175 1.247 . S
O181 Cd170 2.439 . S
O181 C175 1.208 . S
O182 Cd183 2.223 . S
O182 C190 1.315 . S
Cd183 O182 2.223 . S
Cd183 O186 2.297 1_455 S
Cd183 O187 2.439 . S
Cd183 O193 2.240 . S
Cd184 O185 2.240 . S
Cd184 O192 2.223 . S
Cd184 O194 2.297 . S
Cd184 O195 2.439 . S
O185 Cd184 2.240 . S
O185 C190 1.279 . S
O186 Cd183 2.297 1_655 S
O186 C188 1.247 1_655 S
O187 Cd183 2.439 . S
O187 C188 1.208 . S
C188 O186 1.247 1_455 S
C188 O187 1.208 . S
C189 O194 1.247 . S
C189 O195 1.208 . S
C190 O182 1.315 . S
C190 O185 1.279 . S
C191 O192 1.315 . S
C191 O193 1.279 . S
O192 Cd184 2.223 . S
O192 C191 1.315 . S
O193 Cd183 2.240 . S
O193 C191 1.279 . S
O194 Cd184 2.297 . S
O194 C189 1.247 . S
O195 Cd184 2.439 . S
O195 C189 1.208 . S
O196 Cd197 2.223 . S
O196 C204 1.315 . S
Cd197 O196 2.223 . S
Cd197 O200 2.297 1_655 S
Cd197 O201 2.439 . S
Cd197 O207 2.240 . S
Cd198 O199 2.240 . S
Cd198 O206 2.223 . S
Cd198 O208 2.297 . S
Cd198 O209 2.439 . S
O199 Cd198 2.240 . S
O199 C204 1.279 . S
O200 Cd197 2.297 1_455 S
O200 C202 1.247 1_455 S
O201 Cd197 2.439 . S
O201 C202 1.208 . S
C202 O200 1.247 1_655 S
C202 O201 1.208 . S
C203 O208 1.247 . S
C203 O209 1.208 . S
C204 O196 1.315 . S
C204 O199 1.279 . S
C205 O206 1.315 . S
C205 O207 1.279 . S
O206 Cd198 2.223 . S
O206 C205 1.315 . S
O207 Cd197 2.240 . S
O207 C205 1.279 . S
O208 Cd198 2.297 . S
O208 C203 1.247 . S
O209 Cd198 2.439 . S
O209 C203 1.208 . S
O210 Cd211 2.223 . S
O210 C218 1.315 . S
Cd211 O210 2.223 . S
Cd211 O214 2.297 1_455 S
Cd211 O215 2.439 . S
Cd211 O221 2.240 . S
Cd212 O213 2.240 . S
Cd212 O220 2.223 . S
Cd212 O222 2.297 . S
Cd212 O223 2.439 . S
O213 Cd212 2.240 . S
O213 C218 1.279 . S
O214 Cd211 2.297 1_655 S
O214 C216 1.247 1_655 S
O215 Cd211 2.439 . S
O215 C216 1.208 . S
C216 O214 1.247 1_455 S
C216 O215 1.208 . S
C217 O222 1.247 . S
C217 O223 1.208 . S
C218 O210 1.315 . S
C218 O213 1.279 . S
C219 O220 1.315 . S
C219 O221 1.279 . S
O220 Cd212 2.223 . S
O220 C219 1.315 . S
O221 Cd211 2.240 . S
O221 C219 1.279 . S
O222 Cd212 2.297 . S
O222 C217 1.247 . S
O223 Cd212 2.439 . S
O223 C217 1.208 . S
O224 Cd225 2.223 . S
O224 C232 1.315 . S
Cd225 O224 2.223 . S
Cd225 O228 2.297 1_565 S
Cd225 O229 2.439 . S
Cd225 O235 2.240 . S
Cd226 O227 2.240 . S
Cd226 O234 2.223 . S
Cd226 O236 2.297 . S
Cd226 O237 2.439 . S
O227 Cd226 2.240 . S
O227 C232 1.279 . S
O228 Cd225 2.297 1_545 S
O228 C230 1.247 1_545 S
O229 Cd225 2.439 . S
O229 C230 1.208 . S
C230 O228 1.247 1_565 S
C230 O229 1.208 . S
C231 O236 1.247 . S
C231 O237 1.208 . S
C232 O224 1.315 . S
C232 O227 1.279 . S
C233 O234 1.315 . S
C233 O235 1.279 . S
O234 Cd226 2.223 . S
O234 C233 1.315 . S
O235 Cd225 2.240 . S
O235 C233 1.279 . S
O236 Cd226 2.297 . S
O236 C231 1.247 . S
O237 Cd226 2.439 . S
O237 C231 1.208 . S
O238 Cd239 2.223 . S
O238 C246 1.315 . S
Cd239 O238 2.223 . S
Cd239 O242 2.297 . S
Cd239 O243 2.439 . S
Cd239 O249 2.240 . S
Cd240 O241 2.240 . S
Cd240 O248 2.223 . S
Cd240 O250 2.297 . S
Cd240 O251 2.439 . S
O241 Cd240 2.240 . S
O241 C246 1.279 . S
O242 Cd239 2.297 . S
O242 C244 1.247 . S
O243 Cd239 2.439 . S
O243 C244 1.208 . S
C244 O242 1.247 . S
C244 O243 1.208 . S
C245 O250 1.247 . S
C245 O251 1.208 . S
C246 O238 1.315 . S
C246 O241 1.279 . S
C247 O248 1.315 . S
C247 O249 1.279 . S
O248 Cd240 2.223 . S
O248 C247 1.315 . S
O249 Cd239 2.240 . S
O249 C247 1.279 . S
O250 Cd240 2.297 . S
O250 C245 1.247 . S
O251 Cd240 2.439 . S
O251 C245 1.208 . S
O252 Cd253 2.223 . S
O252 C260 1.315 . S
Cd253 O252 2.223 . S
Cd253 O256 2.297 1_545 S
Cd253 O257 2.439 . S
Cd253 O263 2.240 . S
Cd254 O255 2.240 . S
Cd254 O262 2.223 . S
Cd254 O264 2.297 . S
Cd254 O265 2.439 . S
O255 Cd254 2.240 . S
O255 C260 1.279 . S
O256 Cd253 2.297 1_565 S
O256 C258 1.247 1_565 S
O257 Cd253 2.439 . S
O257 C258 1.208 . S
C258 O256 1.247 1_545 S
C258 O257 1.208 . S
C259 O264 1.247 . S
C259 O265 1.208 . S
C260 O252 1.315 . S
C260 O255 1.279 . S
C261 O262 1.315 . S
C261 O263 1.279 . S
O262 Cd254 2.223 . S
O262 C261 1.315 . S
O263 Cd253 2.240 . S
O263 C261 1.279 . S
O264 Cd254 2.297 . S
O264 C259 1.247 . S
O265 Cd254 2.439 . S
O265 C259 1.208 . S
O266 Cd267 2.223 . S
O266 C274 1.315 . S
Cd267 O266 2.223 . S
Cd267 O270 2.297 . S
Cd267 O271 2.439 . S
Cd267 O277 2.240 . S
Cd268 O269 2.240 . S
Cd268 O276 2.223 . S
Cd268 O278 2.297 . S
Cd268 O279 2.439 . S
O269 Cd268 2.240 . S
O269 C274 1.279 . S
O270 Cd267 2.297 . S
O270 C272 1.247 . S
O271 Cd267 2.439 . S
O271 C272 1.208 . S
C272 O270 1.247 . S
C272 O271 1.208 . S
C273 O278 1.247 . S
C273 O279 1.208 . S
C274 O266 1.315 . S
C274 O269 1.279 . S
C275 O276 1.315 . S
C275 O277 1.279 . S
O276 Cd268 2.223 . S
O276 C275 1.315 . S
O277 Cd267 2.240 . S
O277 C275 1.279 . S
O278 Cd268 2.297 . S
O278 C273 1.247 . S
O279 Cd268 2.439 . S
O279 C273 1.208 . S
O280 Cd281 2.223 . S
O280 C288 1.315 . S
Cd281 O280 2.223 . S
Cd281 O284 2.297 1_556 S
Cd281 O285 2.439 . S
Cd281 O291 2.240 . S
Cd282 O283 2.240 . S
Cd282 O290 2.223 . S
Cd282 O292 2.297 . S
Cd282 O293 2.439 . S
O283 Cd282 2.240 . S
O283 C288 1.279 . S
O284 Cd281 2.297 1_554 S
O284 C286 1.247 1_554 S
O285 Cd281 2.439 . S
O285 C286 1.208 . S
C286 O284 1.247 1_556 S
C286 O285 1.208 . S
C287 O292 1.247 . S
C287 O293 1.208 . S
C288 O280 1.315 . S
C288 O283 1.279 . S
C289 O290 1.315 . S
C289 O291 1.279 . S
O290 Cd282 2.223 . S
O290 C289 1.315 . S
O291 Cd281 2.240 . S
O291 C289 1.279 . S
O292 Cd282 2.297 . S
O292 C287 1.247 . S
O293 Cd282 2.439 . S
O293 C287 1.208 . S
O294 Cd295 2.223 . S
O294 C302 1.315 . S
Cd295 O294 2.223 . S
Cd295 O298 2.297 . S
Cd295 O299 2.439 . S
Cd295 O305 2.240 . S
Cd296 O297 2.240 . S
Cd296 O304 2.223 . S
Cd296 O306 2.297 . S
Cd296 O307 2.439 . S
O297 Cd296 2.240 . S
O297 C302 1.279 . S
O298 Cd295 2.297 . S
O298 C300 1.247 . S
O299 Cd295 2.439 . S
O299 C300 1.208 . S
C300 O298 1.247 . S
C300 O299 1.208 . S
C301 O306 1.247 . S
C301 O307 1.208 . S
C302 O294 1.315 . S
C302 O297 1.279 . S
C303 O304 1.315 . S
C303 O305 1.279 . S
O304 Cd296 2.223 . S
O304 C303 1.315 . S
O305 Cd295 2.240 . S
O305 C303 1.279 . S
O306 Cd296 2.297 . S
O306 C301 1.247 . S
O307 Cd296 2.439 . S
O307 C301 1.208 . S
O308 Cd309 2.223 . S
O308 C316 1.315 . S
Cd309 O308 2.223 . S
Cd309 O312 2.297 . S
Cd309 O313 2.439 . S
Cd309 O319 2.240 . S
Cd310 O311 2.240 . S
Cd310 O318 2.223 . S
Cd310 O320 2.297 . S
Cd310 O321 2.439 . S
O311 Cd310 2.240 . S
O311 C316 1.279 . S
O312 Cd309 2.297 . S
O312 C314 1.247 . S
O313 Cd309 2.439 . S
O313 C314 1.208 . S
C314 O312 1.247 . S
C314 O313 1.208 . S
C315 O320 1.247 . S
C315 O321 1.208 . S
C316 O308 1.315 . S
C316 O311 1.279 . S
C317 O318 1.315 . S
C317 O319 1.279 . S
O318 Cd310 2.223 . S
O318 C317 1.315 . S
O319 Cd309 2.240 . S
O319 C317 1.279 . S
O320 Cd310 2.297 . S
O320 C315 1.247 . S
O321 Cd310 2.439 . S
O321 C315 1.208 . S
O322 Cd323 2.223 . S
O322 C330 1.315 . S
Cd323 O322 2.223 . S
Cd323 O326 2.297 . S
Cd323 O327 2.439 . S
Cd323 O333 2.240 . S
Cd324 O325 2.240 . S
Cd324 O332 2.223 . S
Cd324 O334 2.297 . S
Cd324 O335 2.439 . S
O325 Cd324 2.240 . S
O325 C330 1.279 . S
O326 Cd323 2.297 . S
O326 C328 1.247 . S
O327 Cd323 2.439 . S
O327 C328 1.208 . S
C328 O326 1.247 . S
C328 O327 1.208 . S
C329 O334 1.247 . S
C329 O335 1.208 . S
C330 O322 1.315 . S
C330 O325 1.279 . S
C331 O332 1.315 . S
C331 O333 1.279 . S
O332 Cd324 2.223 . S
O332 C331 1.315 . S
O333 Cd323 2.240 . S
O333 C331 1.279 . S
O334 Cd324 2.297 . S
O334 C329 1.247 . S
O335 Cd324 2.439 . S
O335 C329 1.208 . S
O336 Cd337 2.223 . S
O336 C344 1.315 . S
Cd337 O336 2.223 . S
Cd337 O340 2.297 . S
Cd337 O341 2.439 . S
Cd337 O347 2.240 . S
Cd338 O339 2.240 . S
Cd338 O346 2.223 . S
Cd338 O348 2.297 . S
Cd338 O349 2.439 . S
O339 Cd338 2.240 . S
O339 C344 1.279 . S
O340 Cd337 2.297 . S
O340 C342 1.247 . S
O341 Cd337 2.439 . S
O341 C342 1.208 . S
C342 O340 1.247 . S
C342 O341 1.208 . S
C343 O348 1.247 . S
C343 O349 1.208 . S
C344 O336 1.315 . S
C344 O339 1.279 . S
C345 O346 1.315 . S
C345 O347 1.279 . S
O346 Cd338 2.223 . S
O346 C345 1.315 . S
O347 Cd337 2.240 . S
O347 C345 1.279 . S
O348 Cd338 2.297 . S
O348 C343 1.247 . S
O349 Cd338 2.439 . S
O349 C343 1.208 . S
O350 Cd351 2.223 . S
O350 C358 1.315 . S
Cd351 O350 2.223 . S
Cd351 O354 2.297 . S
Cd351 O355 2.439 . S
Cd351 O361 2.240 . S
Cd352 O353 2.240 . S
Cd352 O360 2.223 . S
Cd352 O362 2.297 . S
Cd352 O363 2.439 . S
O353 Cd352 2.240 . S
O353 C358 1.279 . S
O354 Cd351 2.297 . S
O354 C356 1.247 . S
O355 Cd351 2.439 . S
O355 C356 1.208 . S
C356 O354 1.247 . S
C356 O355 1.208 . S
C357 O362 1.247 . S
C357 O363 1.208 . S
C358 O350 1.315 . S
C358 O353 1.279 . S
C359 O360 1.315 . S
C359 O361 1.279 . S
O360 Cd352 2.223 . S
O360 C359 1.315 . S
O361 Cd351 2.240 . S
O361 C359 1.279 . S
O362 Cd352 2.297 . S
O362 C357 1.247 . S
O363 Cd352 2.439 . S
O363 C357 1.208 . S
O364 Cd365 2.223 . S
O364 C372 1.315 . S
Cd365 O364 2.223 . S
Cd365 O368 2.297 . S
Cd365 O369 2.439 . S
Cd365 O375 2.240 . S
Cd366 O367 2.240 . S
Cd366 O374 2.223 . S
Cd366 O376 2.297 . S
Cd366 O377 2.439 . S
O367 Cd366 2.240 . S
O367 C372 1.279 . S
O368 Cd365 2.297 . S
O368 C370 1.247 . S
O369 Cd365 2.439 . S
O369 C370 1.208 . S
C370 O368 1.247 . S
C370 O369 1.208 . S
C371 O376 1.247 . S
C371 O377 1.208 . S
C372 O364 1.315 . S
C372 O367 1.279 . S
C373 O374 1.315 . S
C373 O375 1.279 . S
O374 Cd366 2.223 . S
O374 C373 1.315 . S
O375 Cd365 2.240 . S
O375 C373 1.279 . S
O376 Cd366 2.297 . S
O376 C371 1.247 . S
O377 Cd366 2.439 . S
O377 C371 1.208 . S
O378 Cd379 2.223 . S
O378 C386 1.315 . S
Cd379 O378 2.223 . S
Cd379 O382 2.297 . S
Cd379 O383 2.439 . S
Cd379 O389 2.240 . S
Cd380 O381 2.240 . S
Cd380 O388 2.223 . S
Cd380 O390 2.297 . S
Cd380 O391 2.439 . S
O381 Cd380 2.240 . S
O381 C386 1.279 . S
O382 Cd379 2.297 . S
O382 C384 1.247 . S
O383 Cd379 2.439 . S
O383 C384 1.208 . S
C384 O382 1.247 . S
C384 O383 1.208 . S
C385 O390 1.247 . S
C385 O391 1.208 . S
C386 O378 1.315 . S
C386 O381 1.279 . S
C387 O388 1.315 . S
C387 O389 1.279 . S
O388 Cd380 2.223 . S
O388 C387 1.315 . S
O389 Cd379 2.240 . S
O389 C387 1.279 . S
O390 Cd380 2.297 . S
O390 C385 1.247 . S
O391 Cd380 2.439 . S
O391 C385 1.208 . S
O392 Cd393 2.223 . S
O392 C400 1.315 . S
Cd393 O392 2.223 . S
Cd393 O396 2.297 . S
Cd393 O397 2.439 . S
Cd393 O403 2.240 . S
Cd394 O395 2.240 . S
Cd394 O402 2.223 . S
Cd394 O404 2.297 . S
Cd394 O405 2.439 . S
O395 Cd394 2.240 . S
O395 C400 1.279 . S
O396 Cd393 2.297 . S
O396 C398 1.247 . S
O397 Cd393 2.439 . S
O397 C398 1.208 . S
C398 O396 1.247 . S
C398 O397 1.208 . S
C399 O404 1.247 . S
C399 O405 1.208 . S
C400 O392 1.315 . S
C400 O395 1.279 . S
C401 O402 1.315 . S
C401 O403 1.279 . S
O402 Cd394 2.223 . S
O402 C401 1.315 . S
O403 Cd393 2.240 . S
O403 C401 1.279 . S
O404 Cd394 2.297 . S
O404 C399 1.247 . S
O405 Cd394 2.439 . S
O405 C399 1.208 . S
O406 Cd407 2.223 . S
O406 C414 1.315 . S
Cd407 O406 2.223 . S
Cd407 O410 2.297 1_565 S
Cd407 O411 2.439 . S
Cd407 O417 2.240 . S
Cd408 O409 2.240 . S
Cd408 O416 2.223 . S
Cd408 O418 2.297 . S
Cd408 O419 2.439 . S
O409 Cd408 2.240 . S
O409 C414 1.279 . S
O410 Cd407 2.297 1_545 S
O410 C412 1.247 1_545 S
O411 Cd407 2.439 . S
O411 C412 1.208 . S
C412 O410 1.247 1_565 S
C412 O411 1.208 . S
C413 O418 1.247 . S
C413 O419 1.208 . S
C414 O406 1.315 . S
C414 O409 1.279 . S
C415 O416 1.315 . S
C415 O417 1.279 . S
O416 Cd408 2.223 . S
O416 C415 1.315 . S
O417 Cd407 2.240 . S
O417 C415 1.279 . S
O418 Cd408 2.297 . S
O418 C413 1.247 . S
O419 Cd408 2.439 . S
O419 C413 1.208 . S
O420 Cd421 2.223 . S
O420 C428 1.315 . S
Cd421 O420 2.223 . S
Cd421 O424 2.297 . S
Cd421 O425 2.439 . S
Cd421 O431 2.240 . S
Cd422 O423 2.240 . S
Cd422 O430 2.223 . S
Cd422 O432 2.297 . S
Cd422 O433 2.439 . S
O423 Cd422 2.240 . S
O423 C428 1.279 . S
O424 Cd421 2.297 . S
O424 C426 1.247 . S
O425 Cd421 2.439 . S
O425 C426 1.208 . S
C426 O424 1.247 . S
C426 O425 1.208 . S
C427 O432 1.247 . S
C427 O433 1.208 . S
C428 O420 1.315 . S
C428 O423 1.279 . S
C429 O430 1.315 . S
C429 O431 1.279 . S
O430 Cd422 2.223 . S
O430 C429 1.315 . S
O431 Cd421 2.240 . S
O431 C429 1.279 . S
O432 Cd422 2.297 . S
O432 C427 1.247 . S
O433 Cd422 2.439 . S
O433 C427 1.208 . S
O434 Cd435 2.223 . S
O434 C442 1.315 . S
Cd435 O434 2.223 . S
Cd435 O438 2.297 1_545 S
Cd435 O439 2.439 . S
Cd435 O445 2.240 . S
Cd436 O437 2.240 . S
Cd436 O444 2.223 . S
Cd436 O446 2.297 . S
Cd436 O447 2.439 . S
O437 Cd436 2.240 . S
O437 C442 1.279 . S
O438 Cd435 2.297 1_565 S
O438 C440 1.247 1_565 S
O439 Cd435 2.439 . S
O439 C440 1.208 . S
C440 O438 1.247 1_545 S
C440 O439 1.208 . S
C441 O446 1.247 . S
C441 O447 1.208 . S
C442 O434 1.315 . S
C442 O437 1.279 . S
C443 O444 1.315 . S
C443 O445 1.279 . S
O444 Cd436 2.223 . S
O444 C443 1.315 . S
O445 Cd435 2.240 . S
O445 C443 1.279 . S
O446 Cd436 2.297 . S
O446 C441 1.247 . S
O447 Cd436 2.439 . S
O447 C441 1.208 . S
O448 Cd449 2.223 . S
O448 C456 1.315 . S
Cd449 O448 2.223 . S
Cd449 O452 2.297 . S
Cd449 O453 2.439 . S
Cd449 O459 2.240 . S
Cd450 O451 2.240 . S
Cd450 O458 2.223 . S
Cd450 O460 2.297 . S
Cd450 O461 2.439 . S
O451 Cd450 2.240 . S
O451 C456 1.279 . S
O452 Cd449 2.297 . S
O452 C454 1.247 . S
O453 Cd449 2.439 . S
O453 C454 1.208 . S
C454 O452 1.247 . S
C454 O453 1.208 . S
C455 O460 1.247 . S
C455 O461 1.208 . S
C456 O448 1.315 . S
C456 O451 1.279 . S
C457 O458 1.315 . S
C457 O459 1.279 . S
O458 Cd450 2.223 . S
O458 C457 1.315 . S
O459 Cd449 2.240 . S
O459 C457 1.279 . S
O460 Cd450 2.297 . S
O460 C455 1.247 . S
O461 Cd450 2.439 . S
O461 C455 1.208 . S
O462 Cd463 2.223 . S
O462 C470 1.315 . S
Cd463 O462 2.223 . S
Cd463 O466 2.297 1_556 S
Cd463 O467 2.439 . S
Cd463 O473 2.240 . S
Cd464 O465 2.240 . S
Cd464 O472 2.223 . S
Cd464 O474 2.297 . S
Cd464 O475 2.439 . S
O465 Cd464 2.240 . S
O465 C470 1.279 . S
O466 Cd463 2.297 1_554 S
O466 C468 1.247 1_554 S
O467 Cd463 2.439 . S
O467 C468 1.208 . S
C468 O466 1.247 1_556 S
C468 O467 1.208 . S
C469 O474 1.247 . S
C469 O475 1.208 . S
C470 O462 1.315 . S
C470 O465 1.279 . S
C471 O472 1.315 . S
C471 O473 1.279 . S
O472 Cd464 2.223 . S
O472 C471 1.315 . S
O473 Cd463 2.240 . S
O473 C471 1.279 . S
O474 Cd464 2.297 . S
O474 C469 1.247 . S
O475 Cd464 2.439 . S
O475 C469 1.208 . S
O476 Cd477 2.223 . S
O476 C484 1.315 . S
Cd477 O476 2.223 . S
Cd477 O480 2.297 1_556 S
Cd477 O481 2.439 . S
Cd477 O487 2.240 . S
Cd478 O479 2.240 . S
Cd478 O486 2.223 . S
Cd478 O488 2.297 . S
Cd478 O489 2.439 . S
O479 Cd478 2.240 . S
O479 C484 1.279 . S
O480 Cd477 2.297 1_554 S
O480 C482 1.247 1_554 S
O481 Cd477 2.439 . S
O481 C482 1.208 . S
C482 O480 1.247 1_556 S
C482 O481 1.208 . S
C483 O488 1.247 . S
C483 O489 1.208 . S
C484 O476 1.315 . S
C484 O479 1.279 . S
C485 O486 1.315 . S
C485 O487 1.279 . S
O486 Cd478 2.223 . S
O486 C485 1.315 . S
O487 Cd477 2.240 . S
O487 C485 1.279 . S
O488 Cd478 2.297 . S
O488 C483 1.247 . S
O489 Cd478 2.439 . S
O489 C483 1.208 . S
O490 Cd491 2.223 . S
O490 C498 1.315 . S
Cd491 O490 2.223 . S
Cd491 O494 2.297 1_554 S
Cd491 O495 2.439 . S
Cd491 O501 2.240 . S
Cd492 O493 2.240 . S
Cd492 O500 2.223 . S
Cd492 O502 2.297 . S
Cd492 O503 2.439 . S
O493 Cd492 2.240 . S
O493 C498 1.279 . S
O494 Cd491 2.297 1_556 S
O494 C496 1.247 1_556 S
O495 Cd491 2.439 . S
O495 C496 1.208 . S
C496 O494 1.247 1_554 S
C496 O495 1.208 . S
C497 O502 1.247 . S
C497 O503 1.208 . S
C498 O490 1.315 . S
C498 O493 1.279 . S
C499 O500 1.315 . S
C499 O501 1.279 . S
O500 Cd492 2.223 . S
O500 C499 1.315 . S
O501 Cd491 2.240 . S
O501 C499 1.279 . S
O502 Cd492 2.297 . S
O502 C497 1.247 . S
O503 Cd492 2.439 . S
O503 C497 1.208 . S
O504 Cd505 2.223 . S
O504 C512 1.315 . S
Cd505 O504 2.223 . S
Cd505 O508 2.297 . S
Cd505 O509 2.439 . S
Cd505 O515 2.240 . S
Cd506 O507 2.240 . S
Cd506 O514 2.223 . S
Cd506 O516 2.297 . S
Cd506 O517 2.439 . S
O507 Cd506 2.240 . S
O507 C512 1.279 . S
O508 Cd505 2.297 . S
O508 C510 1.247 . S
O509 Cd505 2.439 . S
O509 C510 1.208 . S
C510 O508 1.247 . S
C510 O509 1.208 . S
C511 O516 1.247 . S
C511 O517 1.208 . S
C512 O504 1.315 . S
C512 O507 1.279 . S
C513 O514 1.315 . S
C513 O515 1.279 . S
O514 Cd506 2.223 . S
O514 C513 1.315 . S
O515 Cd505 2.240 . S
O515 C513 1.279 . S
O516 Cd506 2.297 . S
O516 C511 1.247 . S
O517 Cd506 2.439 . S
O517 C511 1.208 . S
O518 Cd519 2.223 . S
O518 C526 1.315 . S
Cd519 O518 2.223 . S
Cd519 O522 2.297 . S
Cd519 O523 2.439 . S
Cd519 O529 2.240 . S
Cd520 O521 2.240 . S
Cd520 O528 2.223 . S
Cd520 O530 2.297 . S
Cd520 O531 2.439 . S
O521 Cd520 2.240 . S
O521 C526 1.279 . S
O522 Cd519 2.297 . S
O522 C524 1.247 . S
O523 Cd519 2.439 . S
O523 C524 1.208 . S
C524 O522 1.247 . S
C524 O523 1.208 . S
C525 O530 1.247 . S
C525 O531 1.208 . S
C526 O518 1.315 . S
C526 O521 1.279 . S
C527 O528 1.315 . S
C527 O529 1.279 . S
O528 Cd520 2.223 . S
O528 C527 1.315 . S
O529 Cd519 2.240 . S
O529 C527 1.279 . S
O530 Cd520 2.297 . S
O530 C525 1.247 . S
O531 Cd520 2.439 . S
O531 C525 1.208 . S
O532 Cd533 2.223 . S
O532 C540 1.315 . S
Cd533 O532 2.223 . S
Cd533 O536 2.297 . S
Cd533 O537 2.439 . S
Cd533 O543 2.240 . S
Cd534 O535 2.240 . S
Cd534 O542 2.223 . S
Cd534 O544 2.297 . S
Cd534 O545 2.439 . S
O535 Cd534 2.240 . S
O535 C540 1.279 . S
O536 Cd533 2.297 . S
O536 C538 1.247 . S
O537 Cd533 2.439 . S
O537 C538 1.208 . S
C538 O536 1.247 . S
C538 O537 1.208 . S
C539 O544 1.247 . S
C539 O545 1.208 . S
C540 O532 1.315 . S
C540 O535 1.279 . S
C541 O542 1.315 . S
C541 O543 1.279 . S
O542 Cd534 2.223 . S
O542 C541 1.315 . S
O543 Cd533 2.240 . S
O543 C541 1.279 . S
O544 Cd534 2.297 . S
O544 C539 1.247 . S
O545 Cd534 2.439 . S
O545 C539 1.208 . S
O546 Cd547 2.223 . S
O546 C554 1.315 . S
Cd547 O546 2.223 . S
Cd547 O550 2.297 . S
Cd547 O551 2.439 . S
Cd547 O557 2.240 . S
Cd548 O549 2.240 . S
Cd548 O556 2.223 . S
Cd548 O558 2.297 . S
Cd548 O559 2.439 . S
O549 Cd548 2.240 . S
O549 C554 1.279 . S
O550 Cd547 2.297 . S
O550 C552 1.247 . S
O551 Cd547 2.439 . S
O551 C552 1.208 . S
C552 O550 1.247 . S
C552 O551 1.208 . S
C553 O558 1.247 . S
C553 O559 1.208 . S
C554 O546 1.315 . S
C554 O549 1.279 . S
C555 O556 1.315 . S
C555 O557 1.279 . S
O556 Cd548 2.223 . S
O556 C555 1.315 . S
O557 Cd547 2.240 . S
O557 C555 1.279 . S
O558 Cd548 2.297 . S
O558 C553 1.247 . S
O559 Cd548 2.439 . S
O559 C553 1.208 . S
O560 Cd561 2.223 . S
O560 C568 1.315 . S
Cd561 O560 2.223 . S
Cd561 O564 2.297 . S
Cd561 O565 2.439 . S
Cd561 O571 2.240 . S
Cd562 O563 2.240 . S
Cd562 O570 2.223 . S
Cd562 O572 2.297 . S
Cd562 O573 2.439 . S
O563 Cd562 2.240 . S
O563 C568 1.279 . S
O564 Cd561 2.297 . S
O564 C566 1.247 . S
O565 Cd561 2.439 . S
O565 C566 1.208 . S
C566 O564 1.247 . S
C566 O565 1.208 . S
C567 O572 1.247 . S
C567 O573 1.208 . S
C568 O560 1.315 . S
C568 O563 1.279 . S
C569 O570 1.315 . S
C569 O571 1.279 . S
O570 Cd562 2.223 . S
O570 C569 1.315 . S
O571 Cd561 2.240 . S
O571 C569 1.279 . S
O572 Cd562 2.297 . S
O572 C567 1.247 . S
O573 Cd562 2.439 . S
O573 C567 1.208 . S
O574 Cd575 2.223 . S
O574 C582 1.315 . S
Cd575 O574 2.223 . S
Cd575 O578 2.297 1_545 S
Cd575 O579 2.439 . S
Cd575 O585 2.240 . S
Cd576 O577 2.240 . S
Cd576 O584 2.223 . S
Cd576 O586 2.297 . S
Cd576 O587 2.439 . S
O577 Cd576 2.240 . S
O577 C582 1.279 . S
O578 Cd575 2.297 1_565 S
O578 C580 1.247 1_565 S
O579 Cd575 2.439 . S
O579 C580 1.208 . S
C580 O578 1.247 1_545 S
C580 O579 1.208 . S
C581 O586 1.247 . S
C581 O587 1.208 . S
C582 O574 1.315 . S
C582 O577 1.279 . S
C583 O584 1.315 . S
C583 O585 1.279 . S
O584 Cd576 2.223 . S
O584 C583 1.315 . S
O585 Cd575 2.240 . S
O585 C583 1.279 . S
O586 Cd576 2.297 . S
O586 C581 1.247 . S
O587 Cd576 2.439 . S
O587 C581 1.208 . S
O588 Cd589 2.223 . S
O588 C596 1.315 . S
Cd589 O588 2.223 . S
Cd589 O592 2.297 . S
Cd589 O593 2.439 . S
Cd589 O599 2.240 . S
Cd590 O591 2.240 . S
Cd590 O598 2.223 . S
Cd590 O600 2.297 . S
Cd590 O601 2.439 . S
O591 Cd590 2.240 . S
O591 C596 1.279 . S
O592 Cd589 2.297 . S
O592 C594 1.247 . S
O593 Cd589 2.439 . S
O593 C594 1.208 . S
C594 O592 1.247 . S
C594 O593 1.208 . S
C595 O600 1.247 . S
C595 O601 1.208 . S
C596 O588 1.315 . S
C596 O591 1.279 . S
C597 O598 1.315 . S
C597 O599 1.279 . S
O598 Cd590 2.223 . S
O598 C597 1.315 . S
O599 Cd589 2.240 . S
O599 C597 1.279 . S
O600 Cd590 2.297 . S
O600 C595 1.247 . S
O601 Cd590 2.439 . S
O601 C595 1.208 . S
O602 Cd603 2.223 . S
O602 C610 1.315 . S
Cd603 O602 2.223 . S
Cd603 O606 2.297 1_565 S
Cd603 O607 2.439 . S
Cd603 O613 2.240 . S
Cd604 O605 2.240 . S
Cd604 O612 2.223 . S
Cd604 O614 2.297 . S
Cd604 O615 2.439 . S
O605 Cd604 2.240 . S
O605 C610 1.279 . S
O606 Cd603 2.297 1_545 S
O606 C608 1.247 1_545 S
O607 Cd603 2.439 . S
O607 C608 1.208 . S
C608 O606 1.247 1_565 S
C608 O607 1.208 . S
C609 O614 1.247 . S
C609 O615 1.208 . S
C610 O602 1.315 . S
C610 O605 1.279 . S
C611 O612 1.315 . S
C611 O613 1.279 . S
O612 Cd604 2.223 . S
O612 C611 1.315 . S
O613 Cd603 2.240 . S
O613 C611 1.279 . S
O614 Cd604 2.297 . S
O614 C609 1.247 . S
O615 Cd604 2.439 . S
O615 C609 1.208 . S
O616 Cd617 2.223 . S
O616 C624 1.315 . S
Cd617 O616 2.223 . S
Cd617 O620 2.297 . S
Cd617 O621 2.439 . S
Cd617 O627 2.240 . S
Cd618 O619 2.240 . S
Cd618 O626 2.223 . S
Cd618 O628 2.297 . S
Cd618 O629 2.439 . S
O619 Cd618 2.240 . S
O619 C624 1.279 . S
O620 Cd617 2.297 . S
O620 C622 1.247 . S
O621 Cd617 2.439 . S
O621 C622 1.208 . S
C622 O620 1.247 . S
C622 O621 1.208 . S
C623 O628 1.247 . S
C623 O629 1.208 . S
C624 O616 1.315 . S
C624 O619 1.279 . S
C625 O626 1.315 . S
C625 O627 1.279 . S
O626 Cd618 2.223 . S
O626 C625 1.315 . S
O627 Cd617 2.240 . S
O627 C625 1.279 . S
O628 Cd618 2.297 . S
O628 C623 1.247 . S
O629 Cd618 2.439 . S
O629 C623 1.208 . S
O630 Cd631 2.223 . S
O630 C638 1.315 . S
Cd631 O630 2.223 . S
Cd631 O634 2.297 1_554 S
Cd631 O635 2.439 . S
Cd631 O641 2.240 . S
Cd632 O633 2.240 . S
Cd632 O640 2.223 . S
Cd632 O642 2.297 . S
Cd632 O643 2.439 . S
O633 Cd632 2.240 . S
O633 C638 1.279 . S
O634 Cd631 2.297 1_556 S
O634 C636 1.247 1_556 S
O635 Cd631 2.439 . S
O635 C636 1.208 . S
C636 O634 1.247 1_554 S
C636 O635 1.208 . S
C637 O642 1.247 . S
C637 O643 1.208 . S
C638 O630 1.315 . S
C638 O633 1.279 . S
C639 O640 1.315 . S
C639 O641 1.279 . S
O640 Cd632 2.223 . S
O640 C639 1.315 . S
O641 Cd631 2.240 . S
O641 C639 1.279 . S
O642 Cd632 2.297 . S
O642 C637 1.247 . S
O643 Cd632 2.439 . S
O643 C637 1.208 . S
O644 Cd645 2.223 . S
O644 C652 1.315 . S
Cd645 O644 2.223 . S
Cd645 O648 2.297 1_554 S
Cd645 O649 2.439 . S
Cd645 O655 2.240 . S
Cd646 O647 2.240 . S
Cd646 O654 2.223 . S
Cd646 O656 2.297 . S
Cd646 O657 2.439 . S
O647 Cd646 2.240 . S
O647 C652 1.279 . S
O648 Cd645 2.297 1_556 S
O648 C650 1.247 1_556 S
O649 Cd645 2.439 . S
O649 C650 1.208 . S
C650 O648 1.247 1_554 S
C650 O649 1.208 . S
C651 O656 1.247 . S
C651 O657 1.208 . S
C652 O644 1.315 . S
C652 O647 1.279 . S
C653 O654 1.315 . S
C653 O655 1.279 . S
O654 Cd646 2.223 . S
O654 C653 1.315 . S
O655 Cd645 2.240 . S
O655 C653 1.279 . S
O656 Cd646 2.297 . S
O656 C651 1.247 . S
O657 Cd646 2.439 . S
O657 C651 1.208 . S
O658 Cd659 2.223 . S
O658 C666 1.315 . S
Cd659 O658 2.223 . S
Cd659 O662 2.297 1_556 S
Cd659 O663 2.439 . S
Cd659 O669 2.240 . S
Cd660 O661 2.240 . S
Cd660 O668 2.223 . S
Cd660 O670 2.297 . S
Cd660 O671 2.439 . S
O661 Cd660 2.240 . S
O661 C666 1.279 . S
O662 Cd659 2.297 1_554 S
O662 C664 1.247 1_554 S
O663 Cd659 2.439 . S
O663 C664 1.208 . S
C664 O662 1.247 1_556 S
C664 O663 1.208 . S
C665 O670 1.247 . S
C665 O671 1.208 . S
C666 O658 1.315 . S
C666 O661 1.279 . S
C667 O668 1.315 . S
C667 O669 1.279 . S
O668 Cd660 2.223 . S
O668 C667 1.315 . S
O669 Cd659 2.240 . S
O669 C667 1.279 . S
O670 Cd660 2.297 . S
O670 C665 1.247 . S
O671 Cd660 2.439 . S
O671 C665 1.208 . S
C672 C673 1.387 . S
C672 H676 0.950 . S
C672 C681 1.390 1_655 S
C673 C672 1.387 . S
C673 C675 1.387 . S
H674 C681 0.950 . S
C675 C673 1.387 . S
C675 C677 1.390 1_655 S
C675 H679 0.950 . S
H676 C672 0.950 . S
C677 C675 1.390 1_455 S
C677 C678 1.387 . S
C677 H680 0.950 . S
C678 C677 1.387 . S
C678 C681 1.387 . S
H679 C675 0.950 . S
H680 C677 0.950 . S
C681 C672 1.390 1_455 S
C681 H674 0.950 . S
C681 C678 1.387 . S
C682 C683 1.387 . S
C682 H686 0.950 . S
C682 C691 1.390 1_455 S
C683 C682 1.387 . S
C683 C685 1.387 . S
H684 C691 0.950 . S
C685 C683 1.387 . S
C685 C687 1.390 1_455 S
C685 H689 0.950 . S
H686 C682 0.950 . S
C687 C685 1.390 1_655 S
C687 C688 1.387 . S
C687 H690 0.950 . S
C688 C687 1.387 . S
C688 C691 1.387 . S
H689 C685 0.950 . S
H690 C687 0.950 . S
C691 C682 1.390 1_655 S
C691 H684 0.950 . S
C691 C688 1.387 . S
C692 C693 1.389 . S
C692 H696 0.951 . S
C692 C701 1.388 1_565 S
C693 C692 1.389 . S
C693 C695 1.389 . S
H694 C701 0.951 . S
C695 C693 1.389 . S
C695 C697 1.388 1_565 S
C695 H699 0.951 . S
H696 C692 0.951 . S
C697 C695 1.388 1_545 S
C697 C698 1.389 . S
C697 H700 0.951 . S
C698 C697 1.389 . S
C698 C701 1.389 . S
H699 C695 0.951 . S
H700 C697 0.951 . S
C701 C692 1.388 1_545 S
C701 H694 0.951 . S
C701 C698 1.389 . S
C702 C703 1.387 . S
C702 H706 0.950 . S
C702 C711 1.390 . S
C703 C702 1.387 . S
C703 C705 1.387 . S
H704 C711 0.950 . S
C705 C703 1.387 . S
C705 C707 1.390 . S
C705 H709 0.950 . S
H706 C702 0.950 . S
C707 C705 1.390 . S
C707 C708 1.387 . S
C707 H710 0.950 . S
C708 C707 1.387 . S
C708 C711 1.387 . S
H709 C705 0.950 . S
H710 C707 0.950 . S
C711 C702 1.390 . S
C711 H704 0.950 . S
C711 C708 1.387 . S
C712 C713 1.389 . S
C712 H716 0.951 . S
C712 C721 1.388 1_554 S
C713 C712 1.389 . S
C713 C715 1.389 . S
H714 C721 0.951 . S
C715 C713 1.389 . S
C715 C717 1.388 1_554 S
C715 H719 0.951 . S
H716 C712 0.951 . S
C717 C715 1.388 1_556 S
C717 C718 1.389 . S
C717 H720 0.951 . S
C718 C717 1.389 . S
C718 C721 1.389 . S
H719 C715 0.951 . S
H720 C717 0.951 . S
C721 C712 1.388 1_556 S
C721 H714 0.951 . S
C721 C718 1.389 . S
C722 C723 1.387 . S
C722 H726 0.950 . S
C722 C731 1.390 . S
C723 C722 1.387 . S
C723 C725 1.387 . S
H724 C731 0.950 . S
C725 C723 1.387 . S
C725 C727 1.390 . S
C725 H729 0.950 . S
H726 C722 0.950 . S
C727 C725 1.390 . S
C727 C728 1.387 . S
C727 H730 0.950 . S
C728 C727 1.387 . S
C728 C731 1.387 . S
H729 C725 0.950 . S
H730 C727 0.950 . S
C731 C722 1.390 . S
C731 H724 0.950 . S
C731 C728 1.387 . S
C732 C733 1.387 . S
C732 H736 0.950 . S
C732 C741 1.390 . S
C733 C732 1.387 . S
C733 C735 1.387 . S
H734 C741 0.950 . S
C735 C733 1.387 . S
C735 C737 1.390 . S
C735 H739 0.950 . S
H736 C732 0.950 . S
C737 C735 1.390 . S
C737 C738 1.387 . S
C737 H740 0.950 . S
C738 C737 1.387 . S
C738 C741 1.387 . S
H739 C735 0.950 . S
H740 C737 0.950 . S
C741 C732 1.390 . S
C741 H734 0.950 . S
C741 C738 1.387 . S
C742 C743 1.389 . S
C742 H746 0.951 . S
C742 C751 1.388 1_455 S
C743 C742 1.389 . S
C743 C745 1.389 . S
H744 C751 0.951 . S
C745 C743 1.389 . S
C745 C747 1.388 1_455 S
C745 H749 0.951 . S
H746 C742 0.951 . S
C747 C745 1.388 1_655 S
C747 C748 1.389 . S
C747 H750 0.951 . S
C748 C747 1.389 . S
C748 C751 1.389 . S
H749 C745 0.951 . S
H750 C747 0.951 . S
C751 C742 1.388 1_655 S
C751 H744 0.951 . S
C751 C748 1.389 . S
C752 C753 1.389 . S
C752 H756 0.951 . S
C752 C761 1.388 1_455 S
C753 C752 1.389 . S
C753 C755 1.389 . S
H754 C761 0.951 . S
C755 C753 1.389 . S
C755 C757 1.388 1_455 S
C755 H759 0.951 . S
H756 C752 0.951 . S
C757 C755 1.388 1_655 S
C757 C758 1.389 . S
C757 H760 0.951 . S
C758 C757 1.389 . S
C758 C761 1.389 . S
H759 C755 0.951 . S
H760 C757 0.951 . S
C761 C752 1.388 1_655 S
C761 H754 0.951 . S
C761 C758 1.389 . S
C762 C763 1.389 . S
C762 H766 0.951 . S
C762 C771 1.388 1_545 S
C763 C762 1.389 . S
C763 C765 1.389 . S
H764 C771 0.951 . S
C765 C763 1.389 . S
C765 C767 1.388 1_545 S
C765 H769 0.951 . S
H766 C762 0.951 . S
C767 C765 1.388 1_565 S
C767 C768 1.389 . S
C767 H770 0.951 . S
C768 C767 1.389 . S
C768 C771 1.389 . S
H769 C765 0.951 . S
H770 C767 0.951 . S
C771 C762 1.388 1_565 S
C771 H764 0.951 . S
C771 C768 1.389 . S
C772 C773 1.387 . S
C772 H776 0.950 . S
C772 C781 1.390 . S
C773 C772 1.387 . S
C773 C775 1.387 . S
H774 C781 0.950 . S
C775 C773 1.387 . S
C775 C777 1.390 . S
C775 H779 0.950 . S
H776 C772 0.950 . S
C777 C775 1.390 . S
C777 C778 1.387 . S
C777 H780 0.950 . S
C778 C777 1.387 . S
C778 C781 1.387 . S
H779 C775 0.950 . S
H780 C777 0.950 . S
C781 C772 1.390 . S
C781 H774 0.950 . S
C781 C778 1.387 . S
C782 C783 1.387 . S
C782 H786 0.950 . S
C782 C791 1.390 1_556 S
C783 C782 1.387 . S
C783 C785 1.387 . S
H784 C791 0.950 . S
C785 C783 1.387 . S
C785 C787 1.390 1_556 S
C785 H789 0.950 . S
H786 C782 0.950 . S
C787 C785 1.390 1_554 S
C787 C788 1.387 . S
C787 H790 0.950 . S
C788 C787 1.387 . S
C788 C791 1.387 . S
H789 C785 0.950 . S
H790 C787 0.950 . S
C791 C782 1.390 1_554 S
C791 H784 0.950 . S
C791 C788 1.387 . S
C792 C793 1.387 . S
C792 H796 0.950 . S
C792 C801 1.390 . S
C793 C792 1.387 . S
C793 C795 1.387 . S
H794 C801 0.950 . S
C795 C793 1.387 . S
C795 C797 1.390 . S
C795 H799 0.950 . S
H796 C792 0.950 . S
C797 C795 1.390 . S
C797 C798 1.387 . S
C797 H800 0.950 . S
C798 C797 1.387 . S
C798 C801 1.387 . S
H799 C795 0.950 . S
H800 C797 0.950 . S
C801 C792 1.390 . S
C801 H794 0.950 . S
C801 C798 1.387 . S
C802 C803 1.387 . S
C802 H806 0.950 . S
C802 C811 1.390 . S
C803 C802 1.387 . S
C803 C805 1.387 . S
H804 C811 0.950 . S
C805 C803 1.387 . S
C805 C807 1.390 . S
C805 H809 0.950 . S
H806 C802 0.950 . S
C807 C805 1.390 . S
C807 C808 1.387 . S
C807 H810 0.950 . S
C808 C807 1.387 . S
C808 C811 1.387 . S
H809 C805 0.950 . S
H810 C807 0.950 . S
C811 C802 1.390 . S
C811 H804 0.950 . S
C811 C808 1.387 . S
C812 C813 1.387 . S
C812 H816 0.950 . S
C812 C821 1.390 . S
C813 C812 1.387 . S
C813 C815 1.387 . S
H814 C821 0.950 . S
C815 C813 1.387 . S
C815 C817 1.390 . S
C815 H819 0.950 . S
H816 C812 0.950 . S
C817 C815 1.390 . S
C817 C818 1.387 . S
C817 H820 0.950 . S
C818 C817 1.387 . S
C818 C821 1.387 . S
H819 C815 0.950 . S
H820 C817 0.950 . S
C821 C812 1.390 . S
C821 H814 0.950 . S
C821 C818 1.387 . S
C822 C823 1.387 . S
C822 H826 0.950 . S
C822 C831 1.390 . S
C823 C822 1.387 . S
C823 C825 1.387 . S
H824 C831 0.950 . S
C825 C823 1.387 . S
C825 C827 1.390 . S
C825 H829 0.950 . S
H826 C822 0.950 . S
C827 C825 1.390 . S
C827 C828 1.387 . S
C827 H830 0.950 . S
C828 C827 1.387 . S
C828 C831 1.387 . S
H829 C825 0.950 . S
H830 C827 0.950 . S
C831 C822 1.390 . S
C831 H824 0.950 . S
C831 C828 1.387 . S
C832 C833 1.387 . S
C832 H836 0.950 . S
C832 C841 1.390 . S
C833 C832 1.387 . S
C833 C835 1.387 . S
H834 C841 0.950 . S
C835 C833 1.387 . S
C835 C837 1.390 . S
C835 H839 0.950 . S
H836 C832 0.950 . S
C837 C835 1.390 . S
C837 C838 1.387 . S
C837 H840 0.950 . S
C838 C837 1.387 . S
C838 C841 1.387 . S
H839 C835 0.950 . S
H840 C837 0.950 . S
C841 C832 1.390 . S
C841 H834 0.950 . S
C841 C838 1.387 . S
C842 C843 1.387 . S
C842 H846 0.950 . S
C842 C851 1.390 1_545 S
C843 C842 1.387 . S
C843 C845 1.387 . S
H844 C851 0.950 . S
C845 C843 1.387 . S
C845 C847 1.390 1_545 S
C845 H849 0.950 . S
H846 C842 0.950 . S
C847 C845 1.390 1_565 S
C847 C848 1.387 . S
C847 H850 0.950 . S
C848 C847 1.387 . S
C848 C851 1.387 . S
H849 C845 0.950 . S
H850 C847 0.950 . S
C851 C842 1.390 1_565 S
C851 H844 0.950 . S
C851 C848 1.387 . S
C852 C853 1.389 . S
C852 H856 0.951 . S
C852 C861 1.388 1_554 S
C853 C852 1.389 . S
C853 C855 1.389 . S
H854 C861 0.951 . S
C855 C853 1.389 . S
C855 C857 1.388 1_554 S
C855 H859 0.951 . S
H856 C852 0.951 . S
C857 C855 1.388 1_556 S
C857 C858 1.389 . S
C857 H860 0.951 . S
C858 C857 1.389 . S
C858 C861 1.389 . S
H859 C855 0.951 . S
H860 C857 0.951 . S
C861 C852 1.388 1_556 S
C861 H854 0.951 . S
C861 C858 1.389 . S
C862 C863 1.387 . S
C862 H866 0.950 . S
C862 C871 1.390 . S
C863 C862 1.387 . S
C863 C865 1.387 . S
H864 C871 0.950 . S
C865 C863 1.387 . S
C865 C867 1.390 . S
C865 H869 0.950 . S
H866 C862 0.950 . S
C867 C865 1.390 . S
C867 C868 1.387 . S
C867 H870 0.950 . S
C868 C867 1.387 . S
C868 C871 1.387 . S
H869 C865 0.950 . S
H870 C867 0.950 . S
C871 C862 1.390 . S
C871 H864 0.950 . S
C871 C868 1.387 . S
C872 C873 1.387 . S
C872 H876 0.950 . S
C872 C881 1.390 . S
C873 C872 1.387 . S
C873 C875 1.387 . S
H874 C881 0.950 . S
C875 C873 1.387 . S
C875 C877 1.390 . S
C875 H879 0.950 . S
H876 C872 0.950 . S
C877 C875 1.390 . S
C877 C878 1.387 . S
C877 H880 0.950 . S
C878 C877 1.387 . S
C878 C881 1.387 . S
H879 C875 0.950 . S
H880 C877 0.950 . S
C881 C872 1.390 . S
C881 H874 0.950 . S
C881 C878 1.387 . S
C882 C883 1.387 . S
C882 H886 0.950 . S
C882 C891 1.390 . S
C883 C882 1.387 . S
C883 C885 1.387 . S
H884 C891 0.950 . S
C885 C883 1.387 . S
C885 C887 1.390 . S
C885 H889 0.950 . S
H886 C882 0.950 . S
C887 C885 1.390 . S
C887 C888 1.387 . S
C887 H890 0.950 . S
C888 C887 1.387 . S
C888 C891 1.387 . S
H889 C885 0.950 . S
H890 C887 0.950 . S
C891 C882 1.390 . S
C891 H884 0.950 . S
C891 C888 1.387 . S
C892 C893 1.387 . S
C892 H896 0.950 . S
C892 C901 1.390 1_545 S
C893 C892 1.387 . S
C893 C895 1.387 . S
H894 C901 0.950 . S
C895 C893 1.387 . S
C895 C897 1.390 1_545 S
C895 H899 0.950 . S
H896 C892 0.950 . S
C897 C895 1.390 1_565 S
C897 C898 1.387 . S
C897 H900 0.950 . S
C898 C897 1.387 . S
C898 C901 1.387 . S
H899 C895 0.950 . S
H900 C897 0.950 . S
C901 C892 1.390 1_565 S
C901 H894 0.950 . S
C901 C898 1.387 . S
C902 C903 1.389 . S
C902 H906 0.951 . S
C902 C911 1.388 1_554 S
C903 C902 1.389 . S
C903 C905 1.389 . S
H904 C911 0.951 . S
C905 C903 1.389 . S
C905 C907 1.388 1_554 S
C905 H909 0.951 . S
H906 C902 0.951 . S
C907 C905 1.388 1_556 S
C907 C908 1.389 . S
C907 H910 0.951 . S
C908 C907 1.389 . S
C908 C911 1.389 . S
H909 C905 0.951 . S
H910 C907 0.951 . S
C911 C902 1.388 1_556 S
C911 H904 0.951 . S
C911 C908 1.389 . S
C912 C913 1.387 . S
C912 H916 0.950 . S
C912 C921 1.390 . S
C913 C912 1.387 . S
C913 C915 1.387 . S
H914 C921 0.950 . S
C915 C913 1.387 . S
C915 C917 1.390 . S
C915 H919 0.950 . S
H916 C912 0.950 . S
C917 C915 1.390 . S
C917 C918 1.387 . S
C917 H920 0.950 . S
C918 C917 1.387 . S
C918 C921 1.387 . S
H919 C915 0.950 . S
H920 C917 0.950 . S
C921 C912 1.390 . S
C921 H914 0.950 . S
C921 C918 1.387 . S
C922 C923 1.387 . S
C922 H926 0.950 . S
C922 C931 1.390 . S
C923 C922 1.387 . S
C923 C925 1.387 . S
H924 C931 0.950 . S
C925 C923 1.387 . S
C925 C927 1.390 . S
C925 H929 0.950 . S
H926 C922 0.950 . S
C927 C925 1.390 . S
C927 C928 1.387 . S
C927 H930 0.950 . S
C928 C927 1.387 . S
C928 C931 1.387 . S
H929 C925 0.950 . S
H930 C927 0.950 . S
C931 C922 1.390 . S
C931 H924 0.950 . S
C931 C928 1.387 . S
C932 C933 1.387 . S
C932 H936 0.950 . S
C932 C941 1.390 . S
C933 C932 1.387 . S
C933 C935 1.387 . S
H934 C941 0.950 . S
C935 C933 1.387 . S
C935 C937 1.390 . S
C935 H939 0.950 . S
H936 C932 0.950 . S
C937 C935 1.390 . S
C937 C938 1.387 . S
C937 H940 0.950 . S
C938 C937 1.387 . S
C938 C941 1.387 . S
H939 C935 0.950 . S
H940 C937 0.950 . S
C941 C932 1.390 . S
C941 H934 0.950 . S
C941 C938 1.387 . S
C942 C943 1.387 . S
C942 H946 0.950 . S
C942 C951 1.390 . S
C943 C942 1.387 . S
C943 C945 1.387 . S
H944 C951 0.950 . S
C945 C943 1.387 . S
C945 C947 1.390 . S
C945 H949 0.950 . S
H946 C942 0.950 . S
C947 C945 1.390 . S
C947 C948 1.387 . S
C947 H950 0.950 . S
C948 C947 1.387 . S
C948 C951 1.387 . S
H949 C945 0.950 . S
H950 C947 0.950 . S
C951 C942 1.390 . S
C951 H944 0.950 . S
C951 C948 1.387 . S
C952 C953 1.387 . S
C952 H956 0.950 . S
C952 C961 1.390 . S
C953 C952 1.387 . S
C953 C955 1.387 . S
H954 C961 0.950 . S
C955 C953 1.387 . S
C955 C957 1.390 . S
C955 H959 0.950 . S
H956 C952 0.950 . S
C957 C955 1.390 . S
C957 C958 1.387 . S
C957 H960 0.950 . S
C958 C957 1.387 . S
C958 C961 1.387 . S
H959 C955 0.950 . S
H960 C957 0.950 . S
C961 C952 1.390 . S
C961 H954 0.950 . S
C961 C958 1.387 . S
C962 C963 1.387 . S
C962 H966 0.950 . S
C962 C971 1.390 . S
C963 C962 1.387 . S
C963 C965 1.387 . S
H964 C971 0.950 . S
C965 C963 1.387 . S
C965 C967 1.390 . S
C965 H969 0.950 . S
H966 C962 0.950 . S
C967 C965 1.390 . S
C967 C968 1.387 . S
C967 H970 0.950 . S
C968 C967 1.387 . S
C968 C971 1.387 . S
H969 C965 0.950 . S
H970 C967 0.950 . S
C971 C962 1.390 . S
C971 H964 0.950 . S
C971 C968 1.387 . S
C972 C973 1.387 . S
C972 H976 0.950 . S
C972 C981 1.390 . S
C973 C972 1.387 . S
C973 C975 1.387 . S
H974 C981 0.950 . S
C975 C973 1.387 . S
C975 C977 1.390 . S
C975 H979 0.950 . S
H976 C972 0.950 . S
C977 C975 1.390 . S
C977 C978 1.387 . S
C977 H980 0.950 . S
C978 C977 1.387 . S
C978 C981 1.387 . S
H979 C975 0.950 . S
H980 C977 0.950 . S
C981 C972 1.390 . S
C981 H974 0.950 . S
C981 C978 1.387 . S
C982 C983 1.387 . S
C982 H986 0.950 . S
C982 C991 1.390 . S
C983 C982 1.387 . S
C983 C985 1.387 . S
H984 C991 0.950 . S
C985 C983 1.387 . S
C985 C987 1.390 . S
C985 H989 0.950 . S
H986 C982 0.950 . S
C987 C985 1.390 . S
C987 C988 1.387 . S
C987 H990 0.950 . S
C988 C987 1.387 . S
C988 C991 1.387 . S
H989 C985 0.950 . S
H990 C987 0.950 . S
C991 C982 1.390 . S
C991 H984 0.950 . S
C991 C988 1.387 . S
C992 C993 1.387 . S
C992 H996 0.950 . S
C992 C1001 1.390 . S
C993 C992 1.387 . S
C993 C995 1.387 . S
H994 C1001 0.950 . S
C995 C993 1.387 . S
C995 C997 1.390 . S
C995 H999 0.950 . S
H996 C992 0.950 . S
C997 C995 1.390 . S
C997 C998 1.387 . S
C997 H1000 0.950 . S
C998 C997 1.387 . S
C998 C1001 1.387 . S
H999 C995 0.950 . S
H1000 C997 0.950 . S
C1001 C992 1.390 . S
C1001 H994 0.950 . S
C1001 C998 1.387 . S
C1002 C1003 1.387 . S
C1002 H1006 0.950 . S
C1002 C1011 1.390 . S
C1003 C1002 1.387 . S
C1003 C1005 1.387 . S
H1004 C1011 0.950 . S
C1005 C1003 1.387 . S
C1005 C1007 1.390 . S
C1005 H1009 0.950 . S
H1006 C1002 0.950 . S
C1007 C1005 1.390 . S
C1007 C1008 1.387 . S
C1007 H1010 0.950 . S
C1008 C1007 1.387 . S
C1008 C1011 1.387 . S
H1009 C1005 0.950 . S
H1010 C1007 0.950 . S
C1011 C1002 1.390 . S
C1011 H1004 0.950 . S
C1011 C1008 1.387 . S
C1012 C1013 1.387 . S
C1012 H1016 0.950 . S
C1012 C1021 1.390 . S
C1013 C1012 1.387 . S
C1013 C1015 1.387 . S
H1014 C1021 0.950 . S
C1015 C1013 1.387 . S
C1015 C1017 1.390 . S
C1015 H1019 0.950 . S
H1016 C1012 0.950 . S
C1017 C1015 1.390 . S
C1017 C1018 1.387 . S
C1017 H1020 0.950 . S
C1018 C1017 1.387 . S
C1018 C1021 1.387 . S
H1019 C1015 0.950 . S
H1020 C1017 0.950 . S
C1021 C1012 1.390 . S
C1021 H1014 0.950 . S
C1021 C1018 1.387 . S
C1022 C1023 1.387 . S
C1022 H1026 0.950 . S
C1022 C1031 1.390 . S
C1023 C1022 1.387 . S
C1023 C1025 1.387 . S
H1024 C1031 0.950 . S
C1025 C1023 1.387 . S
C1025 C1027 1.390 . S
C1025 H1029 0.950 . S
H1026 C1022 0.950 . S
C1027 C1025 1.390 . S
C1027 C1028 1.387 . S
C1027 H1030 0.950 . S
C1028 C1027 1.387 . S
C1028 C1031 1.387 . S
H1029 C1025 0.950 . S
H1030 C1027 0.950 . S
C1031 C1022 1.390 . S
C1031 H1024 0.950 . S
C1031 C1028 1.387 . S
C1032 C1033 1.387 . S
C1032 H1036 0.950 . S
C1032 C1041 1.390 . S
C1033 C1032 1.387 . S
C1033 C1035 1.387 . S
H1034 C1041 0.950 . S
C1035 C1033 1.387 . S
C1035 C1037 1.390 . S
C1035 H1039 0.950 . S
H1036 C1032 0.950 . S
C1037 C1035 1.390 . S
C1037 C1038 1.387 . S
C1037 H1040 0.950 . S
C1038 C1037 1.387 . S
C1038 C1041 1.387 . S
H1039 C1035 0.950 . S
H1040 C1037 0.950 . S
C1041 C1032 1.390 . S
C1041 H1034 0.950 . S
C1041 C1038 1.387 . S
C1042 C1043 1.387 . S
C1042 H1046 0.950 . S
C1042 C1051 1.390 . S
C1043 C1042 1.387 . S
C1043 C1045 1.387 . S
H1044 C1051 0.950 . S
C1045 C1043 1.387 . S
C1045 C1047 1.390 . S
C1045 H1049 0.950 . S
H1046 C1042 0.950 . S
C1047 C1045 1.390 . S
C1047 C1048 1.387 . S
C1047 H1050 0.950 . S
C1048 C1047 1.387 . S
C1048 C1051 1.387 . S
H1049 C1045 0.950 . S
H1050 C1047 0.950 . S
C1051 C1042 1.390 . S
C1051 H1044 0.950 . S
C1051 C1048 1.387 . S
C1052 C1053 1.387 . S
C1052 H1056 0.950 . S
C1052 C1061 1.390 . S
C1053 C1052 1.387 . S
C1053 C1055 1.387 . S
H1054 C1061 0.950 . S
C1055 C1053 1.387 . S
C1055 C1057 1.390 . S
C1055 H1059 0.950 . S
H1056 C1052 0.950 . S
C1057 C1055 1.390 . S
C1057 C1058 1.387 . S
C1057 H1060 0.950 . S
C1058 C1057 1.387 . S
C1058 C1061 1.387 . S
H1059 C1055 0.950 . S
H1060 C1057 0.950 . S
C1061 C1052 1.390 . S
C1061 H1054 0.950 . S
C1061 C1058 1.387 . S
C1062 C1063 1.387 . S
C1062 H1066 0.950 . S
C1062 C1071 1.390 . S
C1063 C1062 1.387 . S
C1063 C1065 1.387 . S
H1064 C1071 0.950 . S
C1065 C1063 1.387 . S
C1065 C1067 1.390 . S
C1065 H1069 0.950 . S
H1066 C1062 0.950 . S
C1067 C1065 1.390 . S
C1067 C1068 1.387 . S
C1067 H1070 0.950 . S
C1068 C1067 1.387 . S
C1068 C1071 1.387 . S
H1069 C1065 0.950 . S
H1070 C1067 0.950 . S
C1071 C1062 1.390 . S
C1071 H1064 0.950 . S
C1071 C1068 1.387 . S
C1072 C1073 1.387 . S
C1072 H1076 0.950 . S
C1072 C1081 1.390 . S
C1073 C1072 1.387 . S
C1073 C1075 1.387 . S
H1074 C1081 0.950 . S
C1075 C1073 1.387 . S
C1075 C1077 1.390 . S
C1075 H1079 0.950 . S
H1076 C1072 0.950 . S
C1077 C1075 1.390 . S
C1077 C1078 1.387 . S
C1077 H1080 0.950 . S
C1078 C1077 1.387 . S
C1078 C1081 1.387 . S
H1079 C1075 0.950 . S
H1080 C1077 0.950 . S
C1081 C1072 1.390 . S
C1081 H1074 0.950 . S
C1081 C1078 1.387 . S
C1082 C1083 1.387 . S
C1082 H1086 0.950 . S
C1082 C1091 1.390 . S
C1083 C1082 1.387 . S
C1083 C1085 1.387 . S
H1084 C1091 0.950 . S
C1085 C1083 1.387 . S
C1085 C1087 1.390 . S
C1085 H1089 0.950 . S
H1086 C1082 0.950 . S
C1087 C1085 1.390 . S
C1087 C1088 1.387 . S
C1087 H1090 0.950 . S
C1088 C1087 1.387 . S
C1088 C1091 1.387 . S
H1089 C1085 0.950 . S
H1090 C1087 0.950 . S
C1091 C1082 1.390 . S
C1091 H1084 0.950 . S
C1091 C1088 1.387 . S
C1092 C1093 1.387 . S
C1092 H1096 0.950 . S
C1092 C1101 1.390 . S
C1093 C1092 1.387 . S
C1093 C1095 1.387 . S
H1094 C1101 0.950 . S
C1095 C1093 1.387 . S
C1095 C1097 1.390 . S
C1095 H1099 0.950 . S
H1096 C1092 0.950 . S
C1097 C1095 1.390 . S
C1097 C1098 1.387 . S
C1097 H1100 0.950 . S
C1098 C1097 1.387 . S
C1098 C1101 1.387 . S
H1099 C1095 0.950 . S
H1100 C1097 0.950 . S
C1101 C1092 1.390 . S
C1101 H1094 0.950 . S
C1101 C1098 1.387 . S
C1102 C1103 1.387 . S
C1102 H1106 0.950 . S
C1102 C1111 1.390 . S
C1103 C1102 1.387 . S
C1103 C1105 1.387 . S
H1104 C1111 0.950 . S
C1105 C1103 1.387 . S
C1105 C1107 1.390 . S
C1105 H1109 0.950 . S
H1106 C1102 0.950 . S
C1107 C1105 1.390 . S
C1107 C1108 1.387 . S
C1107 H1110 0.950 . S
C1108 C1107 1.387 . S
C1108 C1111 1.387 . S
H1109 C1105 0.950 . S
H1110 C1107 0.950 . S
C1111 C1102 1.390 . S
C1111 H1104 0.950 . S
C1111 C1108 1.387 . S
C1112 C1113 1.387 . S
C1112 H1116 0.950 . S
C1112 C1121 1.390 . S
C1113 C1112 1.387 . S
C1113 C1115 1.387 . S
H1114 C1121 0.950 . S
C1115 C1113 1.387 . S
C1115 C1117 1.390 . S
C1115 H1119 0.950 . S
H1116 C1112 0.950 . S
C1117 C1115 1.390 . S
C1117 C1118 1.387 . S
C1117 H1120 0.950 . S
C1118 C1117 1.387 . S
C1118 C1121 1.387 . S
H1119 C1115 0.950 . S
H1120 C1117 0.950 . S
C1121 C1112 1.390 . S
C1121 H1114 0.950 . S
C1121 C1118 1.387 . S
C1122 C1123 1.387 . S
C1122 H1126 0.950 . S
C1122 C1131 1.390 . S
C1123 C1122 1.387 . S
C1123 C1125 1.387 . S
H1124 C1131 0.950 . S
C1125 C1123 1.387 . S
C1125 C1127 1.390 . S
C1125 H1129 0.950 . S
H1126 C1122 0.950 . S
C1127 C1125 1.390 . S
C1127 C1128 1.387 . S
C1127 H1130 0.950 . S
C1128 C1127 1.387 . S
C1128 C1131 1.387 . S
H1129 C1125 0.950 . S
H1130 C1127 0.950 . S
C1131 C1122 1.390 . S
C1131 H1124 0.950 . S
C1131 C1128 1.387 . S
C1132 C1133 1.387 . S
C1132 H1136 0.950 . S
C1132 C1141 1.390 . S
C1133 C1132 1.387 . S
C1133 C1135 1.387 . S
H1134 C1141 0.950 . S
C1135 C1133 1.387 . S
C1135 C1137 1.390 . S
C1135 H1139 0.950 . S
H1136 C1132 0.950 . S
C1137 C1135 1.390 . S
C1137 C1138 1.387 . S
C1137 H1140 0.950 . S
C1138 C1137 1.387 . S
C1138 C1141 1.387 . S
H1139 C1135 0.950 . S
H1140 C1137 0.950 . S
C1141 C1132 1.390 . S
C1141 H1134 0.950 . S
C1141 C1138 1.387 . S
C1142 C1143 1.387 . S
C1142 H1146 0.950 . S
C1142 C1151 1.390 . S
C1143 C1142 1.387 . S
C1143 C1145 1.387 . S
H1144 C1151 0.950 . S
C1145 C1143 1.387 . S
C1145 C1147 1.390 . S
C1145 H1149 0.950 . S
H1146 C1142 0.950 . S
C1147 C1145 1.390 . S
C1147 C1148 1.387 . S
C1147 H1150 0.950 . S
C1148 C1147 1.387 . S
C1148 C1151 1.387 . S
H1149 C1145 0.950 . S
H1150 C1147 0.950 . S
C1151 C1142 1.390 . S
C1151 H1144 0.950 . S
C1151 C1148 1.387 . S
C1152 C1153 1.387 . S
C1152 H1156 0.950 . S
C1152 C1161 1.390 . S
C1153 C1152 1.387 . S
C1153 C1155 1.387 . S
H1154 C1161 0.950 . S
C1155 C1153 1.387 . S
C1155 C1157 1.390 . S
C1155 H1159 0.950 . S
H1156 C1152 0.950 . S
C1157 C1155 1.390 . S
C1157 C1158 1.387 . S
C1157 H1160 0.950 . S
C1158 C1157 1.387 . S
C1158 C1161 1.387 . S
H1159 C1155 0.950 . S
H1160 C1157 0.950 . S
C1161 C1152 1.390 . S
C1161 H1154 0.950 . S
C1161 C1158 1.387 . S
C1162 C1163 1.387 . S
C1162 H1166 0.950 . S
C1162 C1171 1.390 . S
C1163 C1162 1.387 . S
C1163 C1165 1.387 . S
H1164 C1171 0.950 . S
C1165 C1163 1.387 . S
C1165 C1167 1.390 . S
C1165 H1169 0.950 . S
H1166 C1162 0.950 . S
C1167 C1165 1.390 . S
C1167 C1168 1.387 . S
C1167 H1170 0.950 . S
C1168 C1167 1.387 . S
C1168 C1171 1.387 . S
H1169 C1165 0.950 . S
H1170 C1167 0.950 . S
C1171 C1162 1.390 . S
C1171 H1164 0.950 . S
C1171 C1168 1.387 . S
C1172 C1173 1.387 . S
C1172 H1176 0.950 . S
C1172 C1181 1.390 . S
C1173 C1172 1.387 . S
C1173 C1175 1.387 . S
H1174 C1181 0.950 . S
C1175 C1173 1.387 . S
C1175 C1177 1.390 . S
C1175 H1179 0.950 . S
H1176 C1172 0.950 . S
C1177 C1175 1.390 . S
C1177 C1178 1.387 . S
C1177 H1180 0.950 . S
C1178 C1177 1.387 . S
C1178 C1181 1.387 . S
H1179 C1175 0.950 . S
H1180 C1177 0.950 . S
C1181 C1172 1.390 . S
C1181 H1174 0.950 . S
C1181 C1178 1.387 . S
C1182 C1183 1.387 . S
C1182 H1186 0.950 . S
C1182 C1191 1.390 . S
C1183 C1182 1.387 . S
C1183 C1185 1.387 . S
H1184 C1191 0.950 . S
C1185 C1183 1.387 . S
C1185 C1187 1.390 . S
C1185 H1189 0.950 . S
H1186 C1182 0.950 . S
C1187 C1185 1.390 . S
C1187 C1188 1.387 . S
C1187 H1190 0.950 . S
C1188 C1187 1.387 . S
C1188 C1191 1.387 . S
H1189 C1185 0.950 . S
H1190 C1187 0.950 . S
C1191 C1182 1.390 . S
C1191 H1184 0.950 . S
C1191 C1188 1.387 . S
C1192 C1193 1.387 . S
C1192 H1196 0.950 . S
C1192 C1201 1.390 . S
C1193 C1192 1.387 . S
C1193 C1195 1.387 . S
H1194 C1201 0.950 . S
C1195 C1193 1.387 . S
C1195 C1197 1.390 . S
C1195 H1199 0.950 . S
H1196 C1192 0.950 . S
C1197 C1195 1.390 . S
C1197 C1198 1.387 . S
C1197 H1200 0.950 . S
C1198 C1197 1.387 . S
C1198 C1201 1.387 . S
H1199 C1195 0.950 . S
H1200 C1197 0.950 . S
C1201 C1192 1.390 . S
C1201 H1194 0.950 . S
C1201 C1198 1.387 . S
C1202 C1203 1.387 . S
C1202 H1206 0.950 . S
C1202 C1211 1.390 . S
C1203 C1202 1.387 . S
C1203 C1205 1.387 . S
H1204 C1211 0.950 . S
C1205 C1203 1.387 . S
C1205 C1207 1.390 . S
C1205 H1209 0.950 . S
H1206 C1202 0.950 . S
C1207 C1205 1.390 . S
C1207 C1208 1.387 . S
C1207 H1210 0.950 . S
C1208 C1207 1.387 . S
C1208 C1211 1.387 . S
H1209 C1205 0.950 . S
H1210 C1207 0.950 . S
C1211 C1202 1.390 . S
C1211 H1204 0.950 . S
C1211 C1208 1.387 . S
C1212 C1213 1.387 . S
C1212 H1216 0.950 . S
C1212 C1221 1.390 . S
C1213 C1212 1.387 . S
C1213 C1215 1.387 . S
H1214 C1221 0.950 . S
C1215 C1213 1.387 . S
C1215 C1217 1.390 . S
C1215 H1219 0.950 . S
H1216 C1212 0.950 . S
C1217 C1215 1.390 . S
C1217 C1218 1.387 . S
C1217 H1220 0.950 . S
C1218 C1217 1.387 . S
C1218 C1221 1.387 . S
H1219 C1215 0.950 . S
H1220 C1217 0.950 . S
C1221 C1212 1.390 . S
C1221 H1214 0.950 . S
C1221 C1218 1.387 . S
C1222 C1223 1.387 . S
C1222 H1226 0.950 . S
C1222 C1231 1.390 . S
C1223 C1222 1.387 . S
C1223 C1225 1.387 . S
H1224 C1231 0.950 . S
C1225 C1223 1.387 . S
C1225 C1227 1.390 . S
C1225 H1229 0.950 . S
H1226 C1222 0.950 . S
C1227 C1225 1.390 . S
C1227 C1228 1.387 . S
C1227 H1230 0.950 . S
C1228 C1227 1.387 . S
C1228 C1231 1.387 . S
H1229 C1225 0.950 . S
H1230 C1227 0.950 . S
C1231 C1222 1.390 . S
C1231 H1224 0.950 . S
C1231 C1228 1.387 . S
C1232 C1233 1.387 . S
C1232 H1236 0.950 . S
C1232 C1241 1.390 . S
C1233 C1232 1.387 . S
C1233 C1235 1.387 . S
H1234 C1241 0.950 . S
C1235 C1233 1.387 . S
C1235 C1237 1.390 . S
C1235 H1239 0.950 . S
H1236 C1232 0.950 . S
C1237 C1235 1.390 . S
C1237 C1238 1.387 . S
C1237 H1240 0.950 . S
C1238 C1237 1.387 . S
C1238 C1241 1.387 . S
H1239 C1235 0.950 . S
H1240 C1237 0.950 . S
C1241 C1232 1.390 . S
C1241 H1234 0.950 . S
C1241 C1238 1.387 . S
C1242 C1243 1.387 . S
C1242 H1246 0.950 . S
C1242 C1251 1.390 . S
C1243 C1242 1.387 . S
C1243 C1245 1.387 . S
H1244 C1251 0.950 . S
C1245 C1243 1.387 . S
C1245 C1247 1.390 . S
C1245 H1249 0.950 . S
H1246 C1242 0.950 . S
C1247 C1245 1.390 . S
C1247 C1248 1.387 . S
C1247 H1250 0.950 . S
C1248 C1247 1.387 . S
C1248 C1251 1.387 . S
H1249 C1245 0.950 . S
H1250 C1247 0.950 . S
C1251 C1242 1.390 . S
C1251 H1244 0.950 . S
C1251 C1248 1.387 . S
C1252 C1253 1.387 . S
C1252 H1256 0.950 . S
C1252 C1261 1.390 . S
C1253 C1252 1.387 . S
C1253 C1255 1.387 . S
H1254 C1261 0.950 . S
C1255 C1253 1.387 . S
C1255 C1257 1.390 . S
C1255 H1259 0.950 . S
H1256 C1252 0.950 . S
C1257 C1255 1.390 . S
C1257 C1258 1.387 . S
C1257 H1260 0.950 . S
C1258 C1257 1.387 . S
C1258 C1261 1.387 . S
H1259 C1255 0.950 . S
H1260 C1257 0.950 . S
C1261 C1252 1.390 . S
C1261 H1254 0.950 . S
C1261 C1258 1.387 . S
C1262 C1263 1.387 . S
C1262 H1266 0.950 . S
C1262 C1271 1.390 . S
C1263 C1262 1.387 . S
C1263 C1265 1.387 . S
H1264 C1271 0.950 . S
C1265 C1263 1.387 . S
C1265 C1267 1.390 . S
C1265 H1269 0.950 . S
H1266 C1262 0.950 . S
C1267 C1265 1.390 . S
C1267 C1268 1.387 . S
C1267 H1270 0.950 . S
C1268 C1267 1.387 . S
C1268 C1271 1.387 . S
H1269 C1265 0.950 . S
H1270 C1267 0.950 . S
C1271 C1262 1.390 . S
C1271 H1264 0.950 . S
C1271 C1268 1.387 . S
C1272 C1273 1.387 . S
C1272 H1276 0.950 . S
C1272 C1281 1.390 . S
C1273 C1272 1.387 . S
C1273 C1275 1.387 . S
H1274 C1281 0.950 . S
C1275 C1273 1.387 . S
C1275 C1277 1.390 . S
C1275 H1279 0.950 . S
H1276 C1272 0.950 . S
C1277 C1275 1.390 . S
C1277 C1278 1.387 . S
C1277 H1280 0.950 . S
C1278 C1277 1.387 . S
C1278 C1281 1.387 . S
H1279 C1275 0.950 . S
H1280 C1277 0.950 . S
C1281 C1272 1.390 . S
C1281 H1274 0.950 . S
C1281 C1278 1.387 . S
C1282 C1283 1.387 . S
C1282 H1286 0.950 . S
C1282 C1291 1.390 . S
C1283 C1282 1.387 . S
C1283 C1285 1.387 . S
H1284 C1291 0.950 . S
C1285 C1283 1.387 . S
C1285 C1287 1.390 . S
C1285 H1289 0.950 . S
H1286 C1282 0.950 . S
C1287 C1285 1.390 . S
C1287 C1288 1.387 . S
C1287 H1290 0.950 . S
C1288 C1287 1.387 . S
C1288 C1291 1.387 . S
H1289 C1285 0.950 . S
H1290 C1287 0.950 . S
C1291 C1282 1.390 . S
C1291 H1284 0.950 . S
C1291 C1288 1.387 . S
C1292 C1293 1.387 . S
C1292 H1296 0.950 . S
C1292 C1301 1.390 . S
C1293 C1292 1.387 . S
C1293 C1295 1.387 . S
H1294 C1301 0.950 . S
C1295 C1293 1.387 . S
C1295 C1297 1.390 . S
C1295 H1299 0.950 . S
H1296 C1292 0.950 . S
C1297 C1295 1.390 . S
C1297 C1298 1.387 . S
C1297 H1300 0.950 . S
C1298 C1297 1.387 . S
C1298 C1301 1.387 . S
H1299 C1295 0.950 . S
H1300 C1297 0.950 . S
C1301 C1292 1.390 . S
C1301 H1294 0.950 . S
C1301 C1298 1.387 . S
C1302 C1303 1.387 . S
C1302 H1306 0.950 . S
C1302 C1311 1.390 . S
C1303 C1302 1.387 . S
C1303 C1305 1.387 . S
H1304 C1311 0.950 . S
C1305 C1303 1.387 . S
C1305 C1307 1.390 . S
C1305 H1309 0.950 . S
H1306 C1302 0.950 . S
C1307 C1305 1.390 . S
C1307 C1308 1.387 . S
C1307 H1310 0.950 . S
C1308 C1307 1.387 . S
C1308 C1311 1.387 . S
H1309 C1305 0.950 . S
H1310 C1307 0.950 . S
C1311 C1302 1.390 . S
C1311 H1304 0.950 . S
C1311 C1308 1.387 . S
C1312 C1313 1.387 . S
C1312 H1316 0.950 . S
C1312 C1321 1.390 . S
C1313 C1312 1.387 . S
C1313 C1315 1.387 . S
H1314 C1321 0.950 . S
C1315 C1313 1.387 . S
C1315 C1317 1.390 . S
C1315 H1319 0.950 . S
H1316 C1312 0.950 . S
C1317 C1315 1.390 . S
C1317 C1318 1.387 . S
C1317 H1320 0.950 . S
C1318 C1317 1.387 . S
C1318 C1321 1.387 . S
H1319 C1315 0.950 . S
H1320 C1317 0.950 . S
C1321 C1312 1.390 . S
C1321 H1314 0.950 . S
C1321 C1318 1.387 . S
C1322 C1323 1.387 . S
C1322 H1326 0.950 . S
C1322 C1331 1.390 . S
C1323 C1322 1.387 . S
C1323 C1325 1.387 . S
H1324 C1331 0.950 . S
C1325 C1323 1.387 . S
C1325 C1327 1.390 . S
C1325 H1329 0.950 . S
H1326 C1322 0.950 . S
C1327 C1325 1.390 . S
C1327 C1328 1.387 . S
C1327 H1330 0.950 . S
C1328 C1327 1.387 . S
C1328 C1331 1.387 . S
H1329 C1325 0.950 . S
H1330 C1327 0.950 . S
C1331 C1322 1.390 . S
C1331 H1324 0.950 . S
C1331 C1328 1.387 . S
C1332 C1333 1.387 . S
C1332 H1336 0.950 . S
C1332 C1341 1.390 . S
C1333 C1332 1.387 . S
C1333 C1335 1.387 . S
H1334 C1341 0.950 . S
C1335 C1333 1.387 . S
C1335 C1337 1.390 . S
C1335 H1339 0.950 . S
H1336 C1332 0.950 . S
C1337 C1335 1.390 . S
C1337 C1338 1.387 . S
C1337 H1340 0.950 . S
C1338 C1337 1.387 . S
C1338 C1341 1.387 . S
H1339 C1335 0.950 . S
H1340 C1337 0.950 . S
C1341 C1332 1.390 . S
C1341 H1334 0.950 . S
C1341 C1338 1.387 . S
C1342 C1343 1.387 . S
C1342 H1346 0.950 . S
C1342 C1351 1.390 . S
C1343 C1342 1.387 . S
C1343 C1345 1.387 . S
H1344 C1351 0.950 . S
C1345 C1343 1.387 . S
C1345 C1347 1.390 . S
C1345 H1349 0.950 . S
H1346 C1342 0.950 . S
C1347 C1345 1.390 . S
C1347 C1348 1.387 . S
C1347 H1350 0.950 . S
C1348 C1347 1.387 . S
C1348 C1351 1.387 . S
H1349 C1345 0.950 . S
H1350 C1347 0.950 . S
C1351 C1342 1.390 . S
C1351 H1344 0.950 . S
C1351 C1348 1.387 . S
C1352 C1353 1.387 . S
C1352 H1356 0.950 . S
C1352 C1361 1.390 . S
C1353 C1352 1.387 . S
C1353 C1355 1.387 . S
H1354 C1361 0.950 . S
C1355 C1353 1.387 . S
C1355 C1357 1.390 . S
C1355 H1359 0.950 . S
H1356 C1352 0.950 . S
C1357 C1355 1.390 . S
C1357 C1358 1.387 . S
C1357 H1360 0.950 . S
C1358 C1357 1.387 . S
C1358 C1361 1.387 . S
H1359 C1355 0.950 . S
H1360 C1357 0.950 . S
C1361 C1352 1.390 . S
C1361 H1354 0.950 . S
C1361 C1358 1.387 . S
C1362 C1363 1.387 . S
C1362 H1366 0.950 . S
C1362 C1371 1.390 . S
C1363 C1362 1.387 . S
C1363 C1365 1.387 . S
H1364 C1371 0.950 . S
C1365 C1363 1.387 . S
C1365 C1367 1.390 . S
C1365 H1369 0.950 . S
H1366 C1362 0.950 . S
C1367 C1365 1.390 . S
C1367 C1368 1.387 . S
C1367 H1370 0.950 . S
C1368 C1367 1.387 . S
C1368 C1371 1.387 . S
H1369 C1365 0.950 . S
H1370 C1367 0.950 . S
C1371 C1362 1.390 . S
C1371 H1364 0.950 . S
C1371 C1368 1.387 . S
C1372 C1373 1.387 . S
C1372 H1376 0.950 . S
C1372 C1381 1.390 . S
C1373 C1372 1.387 . S
C1373 C1375 1.387 . S
H1374 C1381 0.950 . S
C1375 C1373 1.387 . S
C1375 C1377 1.390 . S
C1375 H1379 0.950 . S
H1376 C1372 0.950 . S
C1377 C1375 1.390 . S
C1377 C1378 1.387 . S
C1377 H1380 0.950 . S
C1378 C1377 1.387 . S
C1378 C1381 1.387 . S
H1379 C1375 0.950 . S
H1380 C1377 0.950 . S
C1381 C1372 1.390 . S
C1381 H1374 0.950 . S
C1381 C1378 1.387 . S
C1382 C1383 1.387 . S
C1382 H1386 0.950 . S
C1382 C1391 1.390 . S
C1383 C1382 1.387 . S
C1383 C1385 1.387 . S
H1384 C1391 0.950 . S
C1385 C1383 1.387 . S
C1385 C1387 1.390 . S
C1385 H1389 0.950 . S
H1386 C1382 0.950 . S
C1387 C1385 1.390 . S
C1387 C1388 1.387 . S
C1387 H1390 0.950 . S
C1388 C1387 1.387 . S
C1388 C1391 1.387 . S
H1389 C1385 0.950 . S
H1390 C1387 0.950 . S
C1391 C1382 1.390 . S
C1391 H1384 0.950 . S
C1391 C1388 1.387 . S
C1392 C1393 1.387 . S
C1392 H1396 0.950 1_455 S
C1392 C1401 1.390 . S
C1393 C1392 1.387 . S
C1393 C1395 1.387 . S
H1394 C1401 0.950 1_655 S
C1395 C1393 1.387 . S
C1395 C1397 1.390 . S
C1395 H1399 0.950 . S
H1396 C1392 0.950 1_655 S
C1397 C1395 1.390 . S
C1397 C1398 1.387 . S
C1397 H1400 0.950 . S
C1398 C1397 1.387 . S
C1398 C1401 1.387 . S
H1399 C1395 0.950 . S
H1400 C1397 0.950 . S
C1401 C1392 1.390 . S
C1401 H1394 0.950 1_455 S
C1401 C1398 1.387 . S
C1402 C1403 1.387 . S
C1402 H1406 0.950 . S
C1402 C1411 1.390 1_565 S
C1403 C1402 1.387 . S
C1403 C1405 1.387 . S
H1404 C1411 0.950 . S
C1405 C1403 1.387 . S
C1405 C1407 1.390 1_565 S
C1405 H1409 0.950 1_655 S
H1406 C1402 0.950 . S
C1407 C1405 1.390 1_545 S
C1407 C1408 1.387 . S
C1407 H1410 0.950 1_655 S
C1408 C1407 1.387 . S
C1408 C1411 1.387 . S
H1409 C1405 0.950 1_455 S
H1410 C1407 0.950 1_455 S
C1411 C1402 1.390 1_545 S
C1411 H1404 0.950 . S
C1411 C1408 1.387 . S
C1412 C1413 1.387 . S
C1412 H1416 0.950 1_545 S
C1412 C1421 1.390 . S
C1413 C1412 1.387 . S
C1413 C1415 1.387 . S
H1414 C1421 0.950 1_565 S
C1415 C1413 1.387 . S
C1415 C1417 1.390 . S
C1415 H1419 0.950 . S
H1416 C1412 0.950 1_565 S
C1417 C1415 1.390 . S
C1417 C1418 1.387 . S
C1417 H1420 0.950 . S
C1418 C1417 1.387 . S
C1418 C1421 1.387 . S
H1419 C1415 0.950 . S
H1420 C1417 0.950 . S
C1421 C1412 1.390 . S
C1421 H1414 0.950 1_545 S
C1421 C1418 1.387 . S
C1422 C1423 1.387 . S
C1422 H1426 0.950 . S
C1422 C1431 1.390 . S
C1423 C1422 1.387 . S
C1423 C1425 1.387 . S
H1424 C1431 0.950 . S
C1425 C1423 1.387 . S
C1425 C1427 1.390 . S
C1425 H1429 0.950 . S
H1426 C1422 0.950 . S
C1427 C1425 1.390 . S
C1427 C1428 1.387 . S
C1427 H1430 0.950 . S
C1428 C1427 1.387 . S
C1428 C1431 1.387 . S
H1429 C1425 0.950 . S
H1430 C1427 0.950 . S
C1431 C1422 1.390 . S
C1431 H1424 0.950 . S
C1431 C1428 1.387 . S
C1432 C1433 1.387 . S
C1432 H1436 0.950 1_565 S
C1432 C1441 1.390 1_556 S
C1433 C1432 1.387 . S
C1433 C1435 1.387 . S
H1434 C1441 0.950 1_545 S
C1435 C1433 1.387 . S
C1435 C1437 1.390 1_556 S
C1435 H1439 0.950 . S
H1436 C1432 0.950 1_545 S
C1437 C1435 1.390 1_554 S
C1437 C1438 1.387 . S
C1437 H1440 0.950 . S
C1438 C1437 1.387 . S
C1438 C1441 1.387 . S
H1439 C1435 0.950 . S
H1440 C1437 0.950 . S
C1441 C1432 1.390 1_554 S
C1441 H1434 0.950 1_565 S
C1441 C1438 1.387 . S
C1442 C1443 1.387 . S
C1442 H1446 0.950 . S
C1442 C1451 1.390 1_554 S
C1443 C1442 1.387 . S
C1443 C1445 1.387 . S
H1444 C1451 0.950 . S
C1445 C1443 1.387 . S
C1445 C1447 1.390 1_554 S
C1445 H1449 0.950 . S
H1446 C1442 0.950 . S
C1447 C1445 1.390 1_556 S
C1447 C1448 1.387 . S
C1447 H1450 0.950 . S
C1448 C1447 1.387 . S
C1448 C1451 1.387 . S
H1449 C1445 0.950 . S
H1450 C1447 0.950 . S
C1451 C1442 1.390 1_556 S
C1451 H1444 0.950 . S
C1451 C1448 1.387 . S
C1452 C1453 1.387 . S
C1452 H1456 0.950 1_554 S
C1452 C1461 1.390 . S
C1453 C1452 1.387 . S
C1453 C1455 1.387 . S
H1454 C1461 0.950 1_556 S
C1455 C1453 1.387 . S
C1455 C1457 1.390 . S
C1455 H1459 0.950 . S
H1456 C1452 0.950 1_556 S
C1457 C1455 1.390 . S
C1457 C1458 1.387 . S
C1457 H1460 0.950 . S
C1458 C1457 1.387 . S
C1458 C1461 1.387 . S
H1459 C1455 0.950 . S
H1460 C1457 0.950 . S
C1461 C1452 1.390 . S
C1461 H1454 0.950 1_554 S
C1461 C1458 1.387 . S
C1462 C1463 1.387 . S
C1462 H1466 0.950 . S
C1462 C1471 1.390 . S
C1463 C1462 1.387 . S
C1463 C1465 1.387 . S
H1464 C1471 0.950 . S
C1465 C1463 1.387 . S
C1465 C1467 1.390 . S
C1465 H1469 0.950 . S
H1466 C1462 0.950 . S
C1467 C1465 1.390 . S
C1467 C1468 1.387 . S
C1467 H1470 0.950 . S
C1468 C1467 1.387 . S
C1468 C1471 1.387 . S
H1469 C1465 0.950 . S
H1470 C1467 0.950 . S
C1471 C1462 1.390 . S
C1471 H1464 0.950 . S
C1471 C1468 1.387 . S
C1472 C1473 1.387 . S
C1472 H1476 0.950 . S
C1472 C1481 1.390 1_455 S
C1473 C1472 1.387 . S
C1473 C1475 1.387 . S
H1474 C1481 0.950 . S
C1475 C1473 1.387 . S
C1475 C1477 1.390 1_455 S
C1475 H1479 0.950 . S
H1476 C1472 0.950 . S
C1477 C1475 1.390 1_655 S
C1477 C1478 1.387 . S
C1477 H1480 0.950 . S
C1478 C1477 1.387 . S
C1478 C1481 1.387 . S
H1479 C1475 0.950 . S
H1480 C1477 0.950 . S
C1481 C1472 1.390 1_655 S
C1481 H1474 0.950 . S
C1481 C1478 1.387 . S
C1482 C1483 1.387 . S
C1482 H1486 0.950 . S
C1482 C1491 1.390 . S
C1483 C1482 1.387 . S
C1483 C1485 1.387 . S
H1484 C1491 0.950 . S
C1485 C1483 1.387 . S
C1485 C1487 1.390 . S
C1485 H1489 0.950 1_655 S
H1486 C1482 0.950 . S
C1487 C1485 1.390 . S
C1487 C1488 1.387 . S
C1487 H1490 0.950 1_655 S
C1488 C1487 1.387 . S
C1488 C1491 1.387 . S
H1489 C1485 0.950 1_455 S
H1490 C1487 0.950 1_455 S
C1491 C1482 1.390 . S
C1491 H1484 0.950 . S
C1491 C1488 1.387 . S
C1492 C1493 1.387 . S
C1492 H1496 0.950 . S
C1492 C1501 1.390 1_545 S
C1493 C1492 1.387 . S
C1493 C1495 1.387 . S
H1494 C1501 0.950 . S
C1495 C1493 1.387 . S
C1495 C1497 1.390 1_545 S
C1495 H1499 0.950 1_455 S
H1496 C1492 0.950 . S
C1497 C1495 1.390 1_565 S
C1497 C1498 1.387 . S
C1497 H1500 0.950 1_455 S
C1498 C1497 1.387 . S
C1498 C1501 1.387 . S
H1499 C1495 0.950 1_655 S
H1500 C1497 0.950 1_655 S
C1501 C1492 1.390 1_565 S
C1501 H1494 0.950 . S
C1501 C1498 1.387 . S
C1502 C1503 1.387 . S
C1502 H1506 0.950 1_565 S
C1502 C1511 1.390 . S
C1503 C1502 1.387 . S
C1503 C1505 1.387 . S
H1504 C1511 0.950 1_545 S
C1505 C1503 1.387 . S
C1505 C1507 1.390 . S
C1505 H1509 0.950 . S
H1506 C1502 0.950 1_545 S
C1507 C1505 1.390 . S
C1507 C1508 1.387 . S
C1507 H1510 0.950 . S
C1508 C1507 1.387 . S
C1508 C1511 1.387 . S
H1509 C1505 0.950 . S
H1510 C1507 0.950 . S
C1511 C1502 1.390 . S
C1511 H1504 0.950 1_565 S
C1511 C1508 1.387 . S
C1512 C1513 1.387 . S
C1512 H1516 0.950 . S
C1512 C1521 1.390 . S
C1513 C1512 1.387 . S
C1513 C1515 1.387 . S
H1514 C1521 0.950 . S
C1515 C1513 1.387 . S
C1515 C1517 1.390 . S
C1515 H1519 0.950 . S
H1516 C1512 0.950 . S
C1517 C1515 1.390 . S
C1517 C1518 1.387 . S
C1517 H1520 0.950 . S
C1518 C1517 1.387 . S
C1518 C1521 1.387 . S
H1519 C1515 0.950 . S
H1520 C1517 0.950 . S
C1521 C1512 1.390 . S
C1521 H1514 0.950 . S
C1521 C1518 1.387 . S
C1522 C1523 1.387 . S
C1522 H1526 0.950 1_545 S
C1522 C1531 1.390 1_556 S
C1523 C1522 1.387 . S
C1523 C1525 1.387 . S
H1524 C1531 0.950 1_565 S
C1525 C1523 1.387 . S
C1525 C1527 1.390 1_556 S
C1525 H1529 0.950 . S
H1526 C1522 0.950 1_565 S
C1527 C1525 1.390 1_554 S
C1527 C1528 1.387 . S
C1527 H1530 0.950 . S
C1528 C1527 1.387 . S
C1528 C1531 1.387 . S
H1529 C1525 0.950 . S
H1530 C1527 0.950 . S
C1531 C1522 1.390 1_554 S
C1531 H1524 0.950 1_545 S
C1531 C1528 1.387 . S
C1532 C1533 1.387 . S
C1532 H1536 0.950 . S
C1532 C1541 1.390 1_556 S
C1533 C1532 1.387 . S
C1533 C1535 1.387 . S
H1534 C1541 0.950 . S
C1535 C1533 1.387 . S
C1535 C1537 1.390 1_556 S
C1535 H1539 0.950 . S
H1536 C1532 0.950 . S
C1537 C1535 1.390 1_554 S
C1537 C1538 1.387 . S
C1537 H1540 0.950 . S
C1538 C1537 1.387 . S
C1538 C1541 1.387 . S
H1539 C1535 0.950 . S
H1540 C1537 0.950 . S
C1541 C1532 1.390 1_554 S
C1541 H1534 0.950 . S
C1541 C1538 1.387 . S
C1542 C1543 1.387 . S
C1542 H1546 0.950 . S
C1542 C1551 1.390 . S
C1543 C1542 1.387 . S
C1543 C1545 1.387 . S
H1544 C1551 0.950 . S
C1545 C1543 1.387 . S
C1545 C1547 1.390 . S
C1545 H1549 0.950 1_556 S
H1546 C1542 0.950 . S
C1547 C1545 1.390 . S
C1547 C1548 1.387 . S
C1547 H1550 0.950 1_556 S
C1548 C1547 1.387 . S
C1548 C1551 1.387 . S
H1549 C1545 0.950 1_554 S
H1550 C1547 0.950 1_554 S
C1551 C1542 1.390 . S
C1551 H1544 0.950 . S
C1551 C1548 1.387 . S
C1552 C1553 1.387 . S
C1552 H1556 0.950 . S
C1552 C1561 1.390 . S
C1553 C1552 1.387 . S
C1553 C1555 1.387 . S
H1554 C1561 0.950 . S
C1555 C1553 1.387 . S
C1555 C1557 1.390 . S
C1555 H1559 0.950 . S
H1556 C1552 0.950 . S
C1557 C1555 1.390 . S
C1557 C1558 1.387 . S
C1557 H1560 0.950 . S
C1558 C1557 1.387 . S
C1558 C1561 1.387 . S
H1559 C1555 0.950 . S
H1560 C1557 0.950 . S
C1561 C1552 1.390 . S
C1561 H1554 0.950 . S
C1561 C1558 1.387 . S
C1562 C1563 1.387 . S
C1562 H1566 0.950 . S
C1562 C1571 1.390 1_655 S
C1563 C1562 1.387 . S
C1563 C1565 1.387 . S
H1564 C1571 0.950 . S
C1565 C1563 1.387 . S
C1565 C1567 1.390 1_655 S
C1565 H1569 0.950 . S
H1566 C1562 0.950 . S
C1567 C1565 1.390 1_455 S
C1567 C1568 1.387 . S
C1567 H1570 0.950 . S
C1568 C1567 1.387 . S
C1568 C1571 1.387 . S
H1569 C1565 0.950 . S
H1570 C1567 0.950 . S
C1571 C1562 1.390 1_455 S
C1571 H1564 0.950 . S
C1571 C1568 1.387 . S
C1572 C1573 1.387 . S
C1572 H1576 0.950 . S
C1572 C1581 1.390 1_545 S
C1573 C1572 1.387 . S
C1573 C1575 1.387 . S
H1574 C1581 0.950 . S
C1575 C1573 1.387 . S
C1575 C1577 1.390 1_545 S
C1575 H1579 0.950 . S
H1576 C1572 0.950 . S
C1577 C1575 1.390 1_565 S
C1577 C1578 1.387 . S
C1577 H1580 0.950 . S
C1578 C1577 1.387 . S
C1578 C1581 1.387 . S
H1579 C1575 0.950 . S
H1580 C1577 0.950 . S
C1581 C1572 1.390 1_565 S
C1581 H1574 0.950 . S
C1581 C1578 1.387 . S
C1582 C1583 1.387 . S
C1582 H1586 0.950 . S
C1582 C1591 1.390 . S
C1583 C1582 1.387 . S
C1583 C1585 1.387 . S
H1584 C1591 0.950 . S
C1585 C1583 1.387 . S
C1585 C1587 1.390 . S
C1585 H1589 0.950 . S
H1586 C1582 0.950 . S
C1587 C1585 1.390 . S
C1587 C1588 1.387 . S
C1587 H1590 0.950 . S
C1588 C1587 1.387 . S
C1588 C1591 1.387 . S
H1589 C1585 0.950 . S
H1590 C1587 0.950 . S
C1591 C1582 1.390 . S
C1591 H1584 0.950 . S
C1591 C1588 1.387 . S
C1592 C1593 1.387 . S
C1592 H1596 0.950 . S
C1592 C1601 1.390 1_455 S
C1593 C1592 1.387 . S
C1593 C1595 1.387 . S
H1594 C1601 0.950 . S
C1595 C1593 1.387 . S
C1595 C1597 1.390 1_455 S
C1595 H1599 0.950 1_556 S
H1596 C1592 0.950 . S
C1597 C1595 1.390 1_655 S
C1597 C1598 1.387 . S
C1597 H1600 0.950 1_556 S
C1598 C1597 1.387 . S
C1598 C1601 1.387 . S
H1599 C1595 0.950 1_554 S
H1600 C1597 0.950 1_554 S
C1601 C1592 1.390 1_655 S
C1601 H1594 0.950 . S
C1601 C1598 1.387 . S
C1602 C1603 1.387 . S
C1602 H1606 0.950 . S
C1602 C1611 1.390 1_545 S
C1603 C1602 1.387 . S
C1603 C1605 1.387 . S
H1604 C1611 0.950 . S
C1605 C1603 1.387 . S
C1605 C1607 1.390 1_545 S
C1605 H1609 0.950 . S
H1606 C1602 0.950 . S
C1607 C1605 1.390 1_565 S
C1607 C1608 1.387 . S
C1607 H1610 0.950 . S
C1608 C1607 1.387 . S
C1608 C1611 1.387 . S
H1609 C1605 0.950 . S
H1610 C1607 0.950 . S
C1611 C1602 1.390 1_565 S
C1611 H1604 0.950 . S
C1611 C1608 1.387 . S
C1612 C1613 1.387 . S
C1612 H1616 0.950 . S
C1612 C1621 1.390 . S
C1613 C1612 1.387 . S
C1613 C1615 1.387 . S
H1614 C1621 0.950 . S
C1615 C1613 1.387 . S
C1615 C1617 1.390 . S
C1615 H1619 0.950 . S
H1616 C1612 0.950 . S
C1617 C1615 1.390 . S
C1617 C1618 1.387 . S
C1617 H1620 0.950 . S
C1618 C1617 1.387 . S
C1618 C1621 1.387 . S
H1619 C1615 0.950 . S
H1620 C1617 0.950 . S
C1621 C1612 1.390 . S
C1621 H1614 0.950 . S
C1621 C1618 1.387 . S
C1622 C1623 1.387 . S
C1622 H1626 0.950 1_554 S
C1622 C1631 1.390 1_455 S
C1623 C1622 1.387 . S
C1623 C1625 1.387 . S
H1624 C1631 0.950 1_556 S
C1625 C1623 1.387 . S
C1625 C1627 1.390 1_455 S
C1625 H1629 0.950 . S
H1626 C1622 0.950 1_556 S
C1627 C1625 1.390 1_655 S
C1627 C1628 1.387 . S
C1627 H1630 0.950 . S
C1628 C1627 1.387 . S
C1628 C1631 1.387 . S
H1629 C1625 0.950 . S
H1630 C1627 0.950 . S
C1631 C1622 1.390 1_655 S
C1631 H1624 0.950 1_554 S
C1631 C1628 1.387 . S
C673 C20 1.912 . S
C678 C6 1.912 . S
C683 C34 1.912 . S
C688 C48 1.912 . S
C693 C90 1.912 . S
C698 C62 1.912 . S
C703 C104 1.912 . S
C708 C76 1.912 . S
C713 C118 1.912 . S
C718 C482 1.912 . S
C723 C132 1.912 . S
C728 C160 1.912 . S
C733 C454 1.912 . S
C738 C146 1.912 . S
C743 C188 1.912 . S
C748 C174 1.912 . S
C753 C216 1.912 . S
C758 C202 1.912 . S
C763 C258 1.912 . S
C768 C230 1.912 . S
C773 C272 1.912 . S
C778 C244 1.912 . S
C783 C286 1.912 . S
C788 C650 1.912 . S
C793 C300 1.912 . S
C798 C328 1.912 . S
C803 C622 1.912 . S
C808 C314 1.912 . S
C813 C342 1.912 . S
C818 C356 1.912 . S
C823 C384 1.912 . S
C828 C370 1.912 . S
C833 C398 1.912 . S
C838 C426 1.912 . S
C843 C440 1.912 . S
C848 C412 1.912 . S
C853 C496 1.912 . S
C858 C468 1.912 . S
C863 C524 1.912 . S
C868 C510 1.912 . S
C873 C538 1.912 . S
C878 C552 1.912 . S
C883 C594 1.912 . S
C888 C566 1.912 . S
C893 C580 1.912 . S
C898 C608 1.912 . S
C903 C636 1.912 . S
C908 C664 1.912 . S
C913 C623 1.453 . S
C918 C8 1.662 . S
C923 C329 1.452 . S
C928 C22 1.662 . S
C933 C637 1.453 . S
C938 C36 1.662 . S
C943 C50 1.662 . S
C948 C651 1.451 . S
C953 C64 1.662 . S
C958 C511 1.452 . S
C963 C525 1.452 . S
C968 C78 1.662 . S
C973 C92 1.662 . S
C978 C539 1.453 . S
C983 C553 1.454 . S
C988 C106 1.662 . S
C993 C567 1.454 . S
C998 C120 1.662 . S
C1003 C134 1.662 . S
C1008 C595 1.452 . S
C1013 C609 1.454 . S
C1018 C148 1.662 . S
C1023 C162 1.662 . S
C1028 C245 1.455 . S
C1033 C176 1.662 . S
C1038 C455 1.452 . S
C1043 C190 1.662 . S
C1048 C161 1.455 . S
C1053 C204 1.662 . S
C1058 C469 1.452 . S
C1063 C218 1.662 . S
C1068 C483 1.453 . S
C1073 C343 1.452 . S
C1078 C232 1.662 . S
C1083 C357 1.453 . S
C1088 C246 1.662 . S
C1093 C260 1.662 . S
C1098 C371 1.454 . S
C1103 C274 1.662 . S
C1108 C385 1.453 . S
C1113 C288 1.662 . S
C1118 C399 1.452 . S
C1123 C302 1.662 . S
C1128 C427 1.455 . S
C1133 C441 1.455 . S
C1138 C316 1.662 . S
C1143 C77 1.451 . S
C1148 C330 1.662 . S
C1153 C344 1.662 . S
C1158 C287 1.453 . S
C1163 C358 1.662 . S
C1168 C665 1.454 . S
C1173 C372 1.662 . S
C1178 C301 1.455 . S
C1183 C386 1.662 . S
C1188 C315 1.453 . S
C1193 C175 1.453 . S
C1198 C400 1.662 . S
C1203 C414 1.662 . S
C1208 C189 1.452 . S
C1213 C203 1.451 . S
C1218 C428 1.662 . S
C1223 C217 1.451 . S
C1228 C442 1.662 . S
C1233 C231 1.452 . S
C1238 C456 1.662 . S
C1243 C259 1.454 . S
C1248 C470 1.662 . S
C1253 C484 1.662 . S
C1258 C273 1.455 . S
C1263 C498 1.662 . S
C1268 C581 1.451 . S
C1273 C119 1.452 . S
C1278 C512 1.662 . S
C1283 C526 1.662 . S
C1288 C497 1.453 . S
C1293 C540 1.662 . S
C1298 C133 1.453 . S
C1303 C147 1.451 . S
C1308 C554 1.662 . S
C1313 C568 1.662 . S
C1318 C7 1.452 . S
C1323 C582 1.662 . S
C1328 C21 1.452 . S
C1333 C35 1.454 . S
C1338 C596 1.662 . S
C1343 C610 1.662 . S
C1348 C49 1.452 . S
C1353 C624 1.662 . S
C1358 C63 1.451 . S
C1363 C91 1.455 . S
C1368 C638 1.662 . S
C1373 C652 1.662 . S
C1378 C105 1.452 . S
C1383 C413 1.452 . S
C1388 C666 1.662 . S
C1393 C37 1.291 . S
C1398 C9 1.291 . S
C1403 C51 1.288 . S
C1408 C23 1.288 . S
C1413 C443 1.291 . S
C1418 C65 1.291 . S
C1423 C429 1.288 . S
C1428 C79 1.288 . S
C1433 C415 1.291 . S
C1438 C93 1.291 . S
C1443 C107 1.291 . S
C1448 C401 1.291 . S
C1453 C121 1.291 . S
C1458 C499 1.291 . S
C1463 C149 1.291 . S
C1468 C135 1.291 . S
C1473 C163 1.291 . S
C1478 C457 1.291 . S
C1483 C205 1.291 . S
C1488 C177 1.291 . S
C1493 C219 1.291 . S
C1498 C191 1.291 . S
C1503 C611 1.288 . S
C1508 C233 1.288 . S
C1513 C597 1.291 . S
C1518 C247 1.291 . S
C1523 C261 1.288 . S
C1528 C583 1.288 . S
C1533 C275 1.288 . S
C1538 C569 1.288 . S
C1543 C667 1.291 . S
C1548 C289 1.291 . S
C1553 C317 1.288 . S
C1558 C303 1.288 . S
C1563 C331 1.291 . S
C1568 C625 1.291 . S
C1573 C373 1.291 . S
C1578 C345 1.291 . S
C1583 C359 1.288 . S
C1588 C387 1.288 . S
C1593 C485 1.288 . S
C1598 C471 1.288 . S
C1603 C513 1.288 . S
C1608 C541 1.288 . S
C1613 C527 1.288 . S
C1618 C555 1.288 . S
C1623 C639 1.288 . S
C1628 C653 1.288 . S
