# Generated by pormake.
# Topology umy, (4)-cn, num edge types: 1
# Building blocks:
#     Node 0, Type 0, BuildingBlock: UXUYUI_clean_sbu_0, # of connection points: 4
#     Node 1, Type 0, BuildingBlock: UXUYUI_clean_sbu_0, # of connection points: 4
#     Node 2, Type 0, BuildingBlock: UXUYUI_clean_sbu_0, # of connection points: 4
#     Node 3, Type 0, BuildingBlock: UXUYUI_clean_sbu_0, # of connection points: 4
#     Node 4, Type 0, BuildingBlock: UXUYUI_clean_sbu_0, # of connection points: 4
#     Node 5, Type 0, BuildingBlock: UXUYUI_clean_sbu_0, # of connection points: 4
#     Node 6, Type 0, BuildingBlock: UXUYUI_clean_sbu_0, # of connection points: 4
#     Node 7, Type 0, BuildingBlock: UXUYUI_clean_sbu_0, # of connection points: 4
#     Node 8, Type 0, BuildingBlock: UXUYUI_clean_sbu_0, # of connection points: 4
#     Node 9, Type 0, BuildingBlock: UXUYUI_clean_sbu_0, # of connection points: 4
#     Node 10, Type 0, BuildingBlock: UXUYUI_clean_sbu_0, # of connection points: 4
#     Node 11, Type 0, BuildingBlock: UXUYUI_clean_sbu_0, # of connection points: 4
#     Edge 12, Type (0, 0), BuildingBlock: MIFKUJ_clean_linker_0, # of connection points: 2
#     Edge 13, Type (0, 0), BuildingBlock: MIFKUJ_clean_linker_0, # of connection points: 2
#     Edge 14, Type (0, 0), BuildingBlock: MIFKUJ_clean_linker_0, # of connection points: 2
#     Edge 15, Type (0, 0), BuildingBlock: MIFKUJ_clean_linker_0, # of connection points: 2
#     Edge 16, Type (0, 0), BuildingBlock: MIFKUJ_clean_linker_0, # of connection points: 2
#     Edge 17, Type (0, 0), BuildingBlock: MIFKUJ_clean_linker_0, # of connection points: 2
#     Edge 18, Type (0, 0), BuildingBlock: MIFKUJ_clean_linker_0, # of connection points: 2
#     Edge 19, Type (0, 0), BuildingBlock: MIFKUJ_clean_linker_0, # of connection points: 2
#     Edge 20, Type (0, 0), BuildingBlock: MIFKUJ_clean_linker_0, # of connection points: 2
#     Edge 21, Type (0, 0), BuildingBlock: MIFKUJ_clean_linker_0, # of connection points: 2
#     Edge 22, Type (0, 0), BuildingBlock: MIFKUJ_clean_linker_0, # of connection points: 2
#     Edge 23, Type (0, 0), BuildingBlock: MIFKUJ_clean_linker_0, # of connection points: 2
#     Edge 24, Type (0, 0), BuildingBlock: MIFKUJ_clean_linker_0, # of connection points: 2
#     Edge 25, Type (0, 0), BuildingBlock: MIFKUJ_clean_linker_0, # of connection points: 2
#     Edge 26, Type (0, 0), BuildingBlock: MIFKUJ_clean_linker_0, # of connection points: 2
#     Edge 27, Type (0, 0), BuildingBlock: MIFKUJ_clean_linker_0, # of connection points: 2
#     Edge 28, Type (0, 0), BuildingBlock: MIFKUJ_clean_linker_0, # of connection points: 2
#     Edge 29, Type (0, 0), BuildingBlock: MIFKUJ_clean_linker_0, # of connection points: 2
#     Edge 30, Type (0, 0), BuildingBlock: MIFKUJ_clean_linker_0, # of connection points: 2
#     Edge 31, Type (0, 0), BuildingBlock: MIFKUJ_clean_linker_0, # of connection points: 2
#     Edge 32, Type (0, 0), BuildingBlock: MIFKUJ_clean_linker_0, # of connection points: 2
#     Edge 33, Type (0, 0), BuildingBlock: MIFKUJ_clean_linker_0, # of connection points: 2
#     Edge 34, Type (0, 0), BuildingBlock: MIFKUJ_clean_linker_0, # of connection points: 2
#     Edge 35, Type (0, 0), BuildingBlock: MIFKUJ_clean_linker_0, # of connection points: 2
# Relax obj value: 0.205
# Max RMSD: 0.156
# Mean RMSD: 0.156
data_MOF--net-umy--node1-UXUYUI_clean_sbu_0--edge1-MIFKUJ_clean_linker_0
_symmetry_space_group_name_H-M    P1
_symmetry_Int_Tables_number       1
_symmetry_cell_setting            triclinic
loop_
_symmetry_equiv_pos_as_xyz
'x, y, z'
_cell_length_a     70.343062
_cell_length_b     70.342734
_cell_length_c     79.271241
_cell_angle_alpha  90.000165
_cell_angle_beta   90.002699
_cell_angle_gamma 119.99917
loop_
_atom_site_label
_atom_site_type_symbol
_atom_site_fract_x
_atom_site_fract_y
_atom_site_fract_z
_atom_type_partial_charge
Li0 Li 0.08546 0.34169 0.08976 0.0
Li1 Li 0.09037 0.35183 0.12054 0.0
Li2 Li 0.05467 0.33031 0.10828 0.0
Li3 Li 0.07499 0.36815 0.10103 0.0
C4 C 0.06653 0.30134 0.11467 0.0
N5 N 0.04072 0.2581 0.12448 0.0
C6 C 0.06597 0.29545 0.13158 0.0
C7 C 0.05413 0.28523 0.10272 0.0
C8 C 0.05278 0.2735 0.13629 0.0
C9 C 0.04114 0.26346 0.10795 0.0
C10 C 0.12629 0.38398 0.09838 0.0
C11 C 0.15868 0.41988 0.0975 0.0
N12 N 0.17098 0.41049 0.09366 0.0
C13 C 0.13926 0.3747 0.09439 0.0
C14 C 0.13606 0.40677 0.0999 0.0
C15 C 0.16182 0.38837 0.09207 0.0
C16 C 0.10749 0.3494 0.05837 0.0
N17 N 0.09891 0.3353 0.07159 0.0
C18 C 0.11417 0.31391 0.0613 0.0
C19 C 0.10177 0.31766 0.07315 0.0
C20 C 0.124 0.32862 0.04783 0.0
C21 C 0.12015 0.34633 0.04623 0.0
H22 H 0.10525 0.36352 0.05765 0.0
H23 H 0.09512 0.30694 0.08394 0.0
C24 C 0.09738 0.35204 0.15547 0.0
N25 N 0.10773 0.35622 0.14029 0.0
C26 C 0.109 0.35475 0.17039 0.0
C27 C 0.14164 0.36537 0.15382 0.0
C28 C 0.12941 0.36262 0.13922 0.0
C29 C 0.13143 0.36148 0.16966 0.0
H30 H 0.07999 0.34633 0.156 0.0
H31 H 0.13722 0.36538 0.12709 0.0
C32 C 0.03992 0.34332 0.07997 0.0
N33 N 0.00317 0.34458 0.06931 0.0
C34 C 0.02664 0.3461 0.09168 0.0
C35 C 0.03451 0.34119 0.06285 0.0
C36 C 0.00813 0.34669 0.08604 0.0
C37 C 0.01586 0.34187 0.05771 0.0
C38 C 0.06891 0.37159 0.13537 0.0
C39 C 0.053 0.36926 0.14703 0.0
C40 C 0.08955 0.3906 0.13551 0.0
C41 C 0.05798 0.38606 0.15864 0.0
C42 C 0.0939 0.40701 0.14732 0.0
N43 N 0.07815 0.40443 0.15855 0.0
C44 C 0.02228 0.30322 0.13083 0.0
C45 C 0.01101 0.29393 0.10236 0.0
C46 C 0.00243 0.28588 0.13655 0.0
N47 N 0.02625 0.30678 0.11402 0.0
C48 C 0.99069 0.27659 0.10756 0.0
C49 C 0.98638 0.27232 0.12485 0.0
H50 H 0.03475 0.31371 0.13978 0.0
H51 H 0.0147 0.297 0.08906 0.0
C52 C 0.08758 0.40783 0.08364 0.0
N53 N 0.07411 0.39415 0.09583 0.0
C54 C 0.08787 0.42744 0.08007 0.0
C55 C 0.06013 0.41823 0.10147 0.0
C56 C 0.06026 0.39879 0.10451 0.0
C57 C 0.07414 0.43297 0.08917 0.0
H58 H 0.09822 0.40357 0.07678 0.0
H59 H 0.04942 0.38751 0.11394 0.0
O60 O 0.07886 0.32283 0.10989 0.0
O61 O 0.10407 0.37095 0.10032 0.0
O62 O 0.05824 0.34281 0.0851 0.0
O63 O 0.06412 0.35524 0.12391 0.0
H64 H 0.07545 0.30773 0.14098 0.0
H65 H 0.05424 0.28956 0.0896 0.0
H66 H 0.05207 0.26872 0.14935 0.0
H67 H 0.03131 0.25084 0.09887 0.0
H68 H 0.16645 0.43753 0.09866 0.0
H69 H 0.13207 0.3571 0.09337 0.0
H70 H 0.12629 0.41428 0.1029 0.0
H71 H 0.17205 0.38138 0.08905 0.0
H72 H 0.11643 0.29987 0.0629 0.0
H73 H 0.12761 0.35821 0.03616 0.0
H74 H 0.10042 0.35116 0.18233 0.0
H75 H 0.15892 0.37061 0.15272 0.0
H76 H 0.0305 0.34771 0.10498 0.0
H77 H 0.04465 0.33906 0.05363 0.0
H78 H 0.99772 0.34883 0.09496 0.0
H79 H 0.01147 0.34024 0.0445 0.0
H80 H 0.03694 0.35464 0.14707 0.0
H81 H 0.10209 0.39265 0.12666 0.0
H82 H 0.0458 0.38449 0.16773 0.0
H83 H 0.10979 0.42181 0.14757 0.0
H84 H 0.99959 0.28319 0.14999 0.0
H85 H 0.97869 0.26636 0.0982 0.0
H86 H 0.09867 0.43808 0.07028 0.0
H87 H 0.04946 0.42184 0.10898 0.0
Li88 Li 0.74232 0.08671 0.25756 0.0
Li89 Li 0.73637 0.0917 0.28761 0.0
Li90 Li 0.72258 0.0557 0.27583 0.0
Li91 Li 0.70593 0.07668 0.2681 0.0
C92 C 0.76433 0.06765 0.27826 0.0
N93 N 0.78429 0.04239 0.27931 0.0
C94 C 0.77342 0.06551 0.29332 0.0
C95 C 0.76549 0.05704 0.26371 0.0
C96 C 0.78341 0.05263 0.2936 0.0
C97 C 0.77563 0.04433 0.26451 0.0
C98 C 0.74874 0.12781 0.26572 0.0
C99 C 0.76142 0.1651 0.25697 0.0
N100 N 0.78213 0.17075 0.26185 0.0
C101 C 0.77015 0.134 0.27067 0.0
C102 C 0.74433 0.14348 0.25881 0.0
C103 C 0.78679 0.15578 0.26861 0.0
C104 C 0.75612 0.10092 0.22381 0.0
N105 N 0.76275 0.0992 0.23956 0.0
C106 C 0.80025 0.11764 0.23085 0.0
C107 C 0.7843 0.10719 0.24323 0.0
C108 C 0.79403 0.11985 0.21444 0.0
C109 C 0.77159 0.11124 0.21096 0.0
H110 H 0.73885 0.09448 0.2213 0.0
H111 H 0.78916 0.10586 0.25591 0.0
C112 C 0.75066 0.09719 0.3208 0.0
N113 N 0.74788 0.10822 0.30785 0.0
C114 C 0.75876 0.10751 0.33629 0.0
C115 C 0.76063 0.14032 0.32495 0.0
C116 C 0.75219 0.12924 0.30974 0.0
C117 C 0.76406 0.12943 0.33843 0.0
H118 H 0.74643 0.08027 0.31909 0.0
H119 H 0.74895 0.13741 0.29956 0.0
C120 C 0.69561 0.04145 0.24695 0.0
N121 N 0.65789 0.00507 0.23542 0.0
C122 C 0.67974 0.02718 0.25838 0.0
C123 C 0.69229 0.03721 0.22966 0.0
C124 C 0.66078 0.00888 0.2523 0.0
C125 C 0.67311 0.01873 0.22408 0.0
C126 C 0.69566 0.07078 0.30221 0.0
C127 C 0.68326 0.0558 0.31483 0.0
C128 C 0.69631 0.09095 0.30127 0.0
C129 C 0.67165 0.06124 0.3263 0.0
C130 C 0.68448 0.09577 0.31297 0.0
N131 N 0.6725 0.08094 0.32514 0.0
C132 C 0.71899 0.02446 0.29876 0.0
C133 C 0.71537 0.01195 0.27052 0.0
C134 C 0.71695 0.00492 0.30478 0.0
N135 N 0.71822 0.02761 0.28193 0.0
C136 C 0.7129 0.99194 0.27602 0.0
C137 C 0.71384 0.98837 0.29336 0.0
H138 H 0.72145 0.03732 0.30749 0.0
H139 H 0.71523 0.01505 0.25717 0.0
C140 C 0.67907 0.0914 0.25307 0.0
N141 N 0.67895 0.07568 0.2631 0.0
C142 C 0.65974 0.092 0.25038 0.0
C143 C 0.64048 0.05988 0.26805 0.0
C144 C 0.66015 0.05996 0.27044 0.0
C145 C 0.64012 0.07622 0.2581 0.0
H146 H 0.69429 0.10373 0.24743 0.0
H147 H 0.66046 0.0477 0.27844 0.0
O148 O 0.75385 0.07961 0.27781 0.0
O149 O 0.73217 0.10649 0.26729 0.0
O150 O 0.7143 0.05956 0.25252 0.0
O151 O 0.70709 0.06557 0.29094 0.0
H152 H 0.77271 0.07364 0.30468 0.0
H153 H 0.75831 0.05832 0.25199 0.0
H154 H 0.79044 0.05076 0.30518 0.0
H155 H 0.77653 0.03591 0.25338 0.0
H156 H 0.75824 0.17739 0.25164 0.0
H157 H 0.77389 0.1222 0.27617 0.0
H158 H 0.72787 0.13898 0.25489 0.0
H159 H 0.80342 0.16078 0.2724 0.0
H160 H 0.81735 0.12444 0.23425 0.0
H161 H 0.76606 0.11249 0.19847 0.0
H162 H 0.76116 0.09857 0.3464 0.0
H163 H 0.76414 0.1571 0.32626 0.0
H164 H 0.68202 0.03014 0.27181 0.0
H165 H 0.70443 0.04812 0.22066 0.0
H166 H 0.64838 0.9977 0.26101 0.0
H167 H 0.67033 0.01526 0.21073 0.0
H168 H 0.68262 0.04013 0.31572 0.0
H169 H 0.7058 0.10277 0.29161 0.0
H170 H 0.66197 0.04979 0.33612 0.0
H171 H 0.68483 0.1113 0.31238 0.0
H172 H 0.71758 0.00268 0.31825 0.0
H173 H 0.7107 0.97959 0.26685 0.0
H174 H 0.66029 0.10503 0.24274 0.0
H175 H 0.62572 0.04718 0.27402 0.0
Li176 Li 0.65587 0.74202 0.42431 0.0
Li177 Li 0.64494 0.73487 0.45504 0.0
Li178 Li 0.66698 0.72105 0.44208 0.0
Li179 Li 0.62867 0.70397 0.43567 0.0
C180 C 0.69596 0.76213 0.44865 0.0
N181 N 0.7398 0.78024 0.45681 0.0
C182 C 0.70245 0.76478 0.46555 0.0
C183 C 0.71173 0.7688 0.43589 0.0
C184 C 0.72471 0.77394 0.46942 0.0
C185 C 0.73382 0.77791 0.44028 0.0
C186 C 0.61329 0.73966 0.43904 0.0
C187 C 0.58314 0.73808 0.4547 0.0
N188 N 0.58761 0.75762 0.44787 0.0
C189 C 0.61749 0.75964 0.43207 0.0
C190 C 0.59588 0.72869 0.45034 0.0
C191 C 0.60435 0.76849 0.43673 0.0
C192 C 0.65582 0.75719 0.39086 0.0
N193 N 0.66341 0.76298 0.40689 0.0
C194 C 0.68191 0.80098 0.39961 0.0
C195 C 0.67623 0.78433 0.41142 0.0
C196 C 0.67438 0.79564 0.3829 0.0
C197 C 0.66119 0.77337 0.37856 0.0
H198 H 0.64553 0.74004 0.38767 0.0
H199 H 0.68171 0.78843 0.42434 0.0
C200 C 0.64024 0.73778 0.48995 0.0
N201 N 0.64097 0.74754 0.47498 0.0
C202 C 0.63803 0.74672 0.50503 0.0
C203 C 0.63745 0.77568 0.48905 0.0
C204 C 0.63999 0.76633 0.47429 0.0
C205 C 0.63652 0.76591 0.50475 0.0
H206 H 0.64176 0.72324 0.4902 0.0
H207 H 0.64133 0.77419 0.4623 0.0
C208 C 0.66437 0.70534 0.4101 0.0
N209 N 0.68682 0.68958 0.39157 0.0
C210 C 0.66199 0.68485 0.41388 0.0
C211 C 0.67811 0.71779 0.39687 0.0
C212 C 0.67352 0.67719 0.40438 0.0
C213 C 0.68932 0.70953 0.38765 0.0
C214 C 0.62928 0.68637 0.46558 0.0
C215 C 0.63531 0.67021 0.46582 0.0
C216 C 0.60965 0.68223 0.47319 0.0
C217 C 0.62143 0.65004 0.47351 0.0
C218 C 0.59621 0.66185 0.48073 0.0
N219 N 0.60232 0.64631 0.48072 0.0
C220 C 0.69228 0.7124 0.46423 0.0
C221 C 0.70652 0.71825 0.43644 0.0
C222 C 0.70936 0.70956 0.47015 0.0
N223 N 0.69099 0.71643 0.44761 0.0
C224 C 0.72366 0.71504 0.44175 0.0
C225 C 0.72518 0.7107 0.45881 0.0
H226 H 0.68013 0.71168 0.47297 0.0
H227 H 0.70595 0.72258 0.42349 0.0
C228 C 0.58392 0.67843 0.4266 0.0
N229 N 0.60212 0.67734 0.4307 0.0
C230 C 0.56387 0.65924 0.42397 0.0
C231 C 0.58172 0.63815 0.42949 0.0
C232 C 0.60145 0.65773 0.4318 0.0
C233 C 0.56248 0.63868 0.42565 0.0
H234 H 0.58493 0.69421 0.42547 0.0
H235 H 0.61611 0.65721 0.43482 0.0
O236 O 0.67422 0.75254 0.44462 0.0
O237 O 0.62606 0.73081 0.43469 0.0
O238 O 0.65309 0.71307 0.41911 0.0
O239 O 0.64258 0.70617 0.45802 0.0
H240 H 0.69039 0.75958 0.47555 0.0
H241 H 0.7069 0.76667 0.42275 0.0
H242 H 0.72999 0.77596 0.48243 0.0
H243 H 0.74621 0.78302 0.43055 0.0
H244 H 0.56968 0.72982 0.4635 0.0
H245 H 0.63079 0.7683 0.42322 0.0
H246 H 0.59226 0.7131 0.45571 0.0
H247 H 0.60747 0.78399 0.4315 0.0
H248 H 0.69166 0.81789 0.40366 0.0
H249 H 0.65512 0.76851 0.36583 0.0
H250 H 0.63801 0.7389 0.5168 0.0
H251 H 0.63622 0.79037 0.48813 0.0
H252 H 0.65166 0.67515 0.42419 0.0
H253 H 0.6802 0.73371 0.39382 0.0
H254 H 0.67194 0.66142 0.40722 0.0
H255 H 0.70005 0.719 0.37741 0.0
H256 H 0.65037 0.67306 0.4599 0.0
H257 H 0.60485 0.69462 0.47327 0.0
H258 H 0.62581 0.63733 0.47369 0.0
H259 H 0.58092 0.6584 0.4866 0.0
H260 H 0.7101 0.70632 0.48342 0.0
H261 H 0.73585 0.71641 0.43274 0.0
H262 H 0.54964 0.66055 0.42065 0.0
H263 H 0.58151 0.62276 0.43112 0.0
Li264 Li 0.94382 0.66746 0.60971 0.0
Li265 Li 0.92266 0.62891 0.60298 0.0
Li266 Li 0.91087 0.654 0.59326 0.0
Li267 Li 0.90817 0.64461 0.62263 0.0
C268 C 0.95626 0.65371 0.58067 0.0
N269 N 0.99275 0.6533 0.56821 0.0
C270 C 0.971 0.65229 0.5917 0.0
C271 C 0.96008 0.65493 0.5633 0.0
C272 C 0.98935 0.65211 0.58516 0.0
C273 C 0.97862 0.6547 0.55725 0.0
C274 C 0.93173 0.62739 0.63742 0.0
C275 C 0.90999 0.59144 0.64971 0.0
N276 N 0.92517 0.59705 0.66217 0.0
C277 C 0.9471 0.63282 0.65034 0.0
C278 C 0.913 0.60655 0.63709 0.0
C279 C 0.94349 0.61725 0.66274 0.0
C280 C 0.97576 0.69676 0.6313 0.0
N281 N 0.97202 0.69173 0.61465 0.0
C282 C 0.00779 0.72112 0.6076 0.0
C283 C 0.98739 0.70361 0.60276 0.0
C284 C 0.01211 0.72661 0.62475 0.0
C285 C 0.99576 0.71425 0.63666 0.0
H286 H 0.96313 0.68709 0.64042 0.0
H287 H 0.98385 0.69951 0.58956 0.0
C288 C 0.9087 0.58766 0.58774 0.0
N289 N 0.92418 0.60319 0.59797 0.0
C290 C 0.90831 0.56784 0.58498 0.0
C291 C 0.94007 0.58062 0.60305 0.0
C292 C 0.93989 0.60017 0.60541 0.0
C293 C 0.92396 0.56401 0.59291 0.0
H294 H 0.89639 0.59051 0.58202 0.0
H295 H 0.95204 0.61274 0.61349 0.0
C296 C 0.92724 0.69537 0.60774 0.0
N297 N 0.94203 0.73806 0.59749 0.0
C298 C 0.92304 0.70934 0.61759 0.0
C299 C 0.93897 0.70312 0.59267 0.0
C300 C 0.93065 0.73086 0.61219 0.0
C301 C 0.9463 0.72474 0.58771 0.0
C302 C 0.87088 0.61887 0.60298 0.0
C303 C 0.86425 0.63322 0.60924 0.0
C304 C 0.85529 0.59876 0.59607 0.0
C305 C 0.84211 0.62723 0.60843 0.0
C306 C 0.83329 0.59336 0.59549 0.0
N307 N 0.82722 0.60759 0.60162 0.0
C308 C 0.89689 0.65404 0.55953 0.0
C309 C 0.88583 0.67149 0.57967 0.0
C310 C 0.88597 0.65848 0.54671 0.0
N311 N 0.89659 0.66057 0.57563 0.0
C312 C 0.87473 0.67623 0.56732 0.0
C313 C 0.8747 0.66974 0.55056 0.0
H314 H 0.90555 0.64533 0.55669 0.0
H315 H 0.88565 0.67639 0.59256 0.0
C316 C 0.89929 0.6578 0.65339 0.0
N317 N 0.89238 0.64015 0.64307 0.0
C318 C 0.88858 0.65586 0.66865 0.0
C319 C 0.86393 0.61751 0.66243 0.0
C320 C 0.87508 0.62023 0.64725 0.0
C321 C 0.87064 0.63549 0.67337 0.0
H322 H 0.91313 0.67341 0.64972 0.0
H323 H 0.86996 0.60643 0.63882 0.0
O324 O 0.93808 0.6538 0.58668 0.0
O325 O 0.93508 0.64254 0.62524 0.0
O326 O 0.9199 0.67428 0.61296 0.0
O327 O 0.89247 0.62432 0.60354 0.0
H328 H 0.96842 0.65146 0.60518 0.0
H329 H 0.94882 0.65603 0.55459 0.0
H330 H 0.00089 0.65103 0.59357 0.0
H331 H 0.98178 0.65563 0.54383 0.0
H332 H 0.89558 0.57524 0.6496 0.0
H333 H 0.96168 0.6489 0.65077 0.0
H334 H 0.90093 0.60203 0.62718 0.0
H335 H 0.95526 0.62122 0.67282 0.0
H336 H 0.01995 0.73042 0.59804 0.0
H337 H 0.99854 0.71782 0.65002 0.0
H338 H 0.89551 0.55541 0.57715 0.0
H339 H 0.95262 0.57847 0.60919 0.0
H340 H 0.91397 0.70359 0.62929 0.0
H341 H 0.94237 0.69258 0.58485 0.0
H342 H 0.92751 0.74185 0.61969 0.0
H343 H 0.95539 0.73095 0.57608 0.0
H344 H 0.87603 0.64883 0.61467 0.0
H345 H 0.86013 0.58743 0.59119 0.0
H346 H 0.83677 0.6382 0.61321 0.0
H347 H 0.82106 0.57785 0.59016 0.0
H348 H 0.88649 0.6533 0.53394 0.0
H349 H 0.86592 0.68455 0.57096 0.0
H350 H 0.89414 0.67023 0.67655 0.0
H351 H 0.85038 0.60146 0.66564 0.0
Li352 Li 0.29485 0.92213 0.7692 0.0
Li353 Li 0.27732 0.94267 0.77598 0.0
Li354 Li 0.26465 0.90718 0.78891 0.0
Li355 Li 0.25653 0.91051 0.75833 0.0
C356 C 0.31376 0.94092 0.79796 0.0
N357 N 0.35548 0.95495 0.81026 0.0
C358 C 0.32975 0.96316 0.79732 0.0
C359 C 0.31897 0.92586 0.80499 0.0
C360 C 0.35075 0.96992 0.80359 0.0
C361 C 0.34016 0.93326 0.81108 0.0
C362 C 0.29183 0.95648 0.74451 0.0
C363 C 0.28626 0.97746 0.723 0.0
N364 N 0.30553 0.99548 0.72747 0.0
C365 C 0.31161 0.97517 0.74885 0.0
C366 C 0.27905 0.95759 0.73146 0.0
C367 C 0.31822 0.99475 0.74011 0.0
C368 C 0.32074 0.90307 0.76106 0.0
N369 N 0.32157 0.92256 0.76378 0.0
C370 C 0.36069 0.94187 0.7613 0.0
C371 C 0.34098 0.94183 0.76348 0.0
C372 C 0.36032 0.92193 0.75894 0.0
C373 C 0.34003 0.90238 0.75851 0.0
H374 H 0.30512 0.888 0.76112 0.0
H375 H 0.34126 0.95715 0.76533 0.0
C376 C 0.28743 0.97756 0.79765 0.0
N377 N 0.28091 0.9709 0.78153 0.0
C378 C 0.28932 0.99706 0.80361 0.0
C379 C 0.27747 0.00258 0.77636 0.0
C380 C 0.27563 0.98281 0.77095 0.0
C381 C 0.28429 0.00984 0.79293 0.0
H382 H 0.29075 0.96745 0.80603 0.0
H383 H 0.26942 0.97674 0.75848 0.0
C384 C 0.25896 0.87084 0.77352 0.0
N385 N 0.23969 0.82763 0.78393 0.0
C386 C 0.23855 0.8552 0.76707 0.0
C387 C 0.26969 0.86445 0.78511 0.0
C388 C 0.22905 0.83344 0.77252 0.0
C389 C 0.25963 0.84255 0.79026 0.0
C390 C 0.23608 0.92928 0.78396 0.0
C391 C 0.23548 0.93366 0.80108 0.0
C392 C 0.22678 0.93691 0.77209 0.0
C393 C 0.22573 0.94587 0.80605 0.0
C394 C 0.21714 0.94903 0.77758 0.0
N395 N 0.21685 0.95325 0.79429 0.0
C396 C 0.2637 0.89891 0.82365 0.0
C397 C 0.23262 0.87198 0.80876 0.0
C398 C 0.25505 0.88804 0.83887 0.0
N399 N 0.25252 0.89069 0.809 0.0
C400 C 0.22346 0.86041 0.82368 0.0
C401 C 0.23467 0.86853 0.839 0.0
H402 H 0.27917 0.91413 0.82358 0.0
H403 H 0.22372 0.86621 0.79703 0.0
C404 C 0.2419 0.89583 0.72491 0.0
N405 N 0.23558 0.89693 0.7409 0.0
C406 C 0.22614 0.88504 0.71234 0.0
C407 C 0.19779 0.87668 0.73306 0.0
C408 C 0.21406 0.88771 0.74515 0.0
C409 C 0.2037 0.87518 0.71637 0.0
H410 H 0.25918 0.90326 0.72194 0.0
H411 H 0.20955 0.88859 0.75805 0.0
O412 O 0.29316 0.93391 0.7917 0.0
O413 O 0.28511 0.93712 0.75281 0.0
O414 O 0.26842 0.89227 0.76846 0.0
O415 O 0.24616 0.91797 0.77881 0.0
H416 H 0.32614 0.97505 0.79178 0.0
H417 H 0.3068 0.90863 0.80566 0.0
H418 H 0.36331 0.98705 0.80307 0.0
H419 H 0.34443 0.92176 0.81646 0.0
H420 H 0.27652 0.97858 0.7129 0.0
H421 H 0.32154 0.97468 0.75904 0.0
H422 H 0.26366 0.94331 0.72797 0.0
H423 H 0.33342 0.00938 0.74342 0.0
H424 H 0.37605 0.9573 0.76148 0.0
H425 H 0.33914 0.88668 0.75672 0.0
H426 H 0.29469 0.00208 0.81647 0.0
H427 H 0.27302 0.01176 0.76784 0.0
H428 H 0.23007 0.85978 0.75802 0.0
H429 H 0.28555 0.87628 0.79012 0.0
H430 H 0.21322 0.82119 0.7677 0.0
H431 H 0.26769 0.83741 0.7993 0.0
H432 H 0.24271 0.92793 0.81039 0.0
H433 H 0.22728 0.93377 0.75877 0.0
H434 H 0.22528 0.94955 0.81924 0.0
H435 H 0.21001 0.95518 0.76853 0.0
H436 H 0.2642 0.89482 0.85042 0.0
H437 H 0.20752 0.84563 0.82331 0.0
H438 H 0.23148 0.8845 0.69963 0.0
H439 H 0.18074 0.86896 0.73687 0.0
Li440 Li 0.37053 0.29292 0.93445 0.0
Li441 Li 0.33109 0.27626 0.93991 0.0
Li442 Li 0.35341 0.26329 0.95442 0.0
Li443 Li 0.3445 0.256 0.92441 0.0
C444 C 0.35783 0.29669 0.97256 0.0
N445 N 0.36113 0.30303 0.00708 0.0
C446 C 0.34014 0.29517 0.98173 0.0
C447 C 0.37725 0.30159 0.98094 0.0
C448 C 0.34213 0.29841 0.99917 0.0
C449 C 0.37857 0.30467 0.9984 0.0
C450 C 0.33706 0.29421 0.90969 0.0
C451 C 0.3059 0.29302 0.89595 0.0
N452 N 0.31736 0.31526 0.89442 0.0
C453 C 0.34857 0.31704 0.90794 0.0
C454 C 0.3156 0.28207 0.90359 0.0
C455 C 0.33831 0.32738 0.90019 0.0
C456 C 0.40626 0.32312 0.91406 0.0
N457 N 0.3967 0.31971 0.92951 0.0
C458 C 0.42482 0.35488 0.93897 0.0
C459 C 0.40543 0.33516 0.94183 0.0
C460 C 0.4353 0.35878 0.92323 0.0
C461 C 0.42577 0.3426 0.91066 0.0
H462 H 0.39873 0.31068 0.90439 0.0
H463 H 0.39736 0.33219 0.95391 0.0
C464 C 0.28805 0.26479 0.94886 0.0
N465 N 0.30752 0.28175 0.94348 0.0
C466 C 0.2712 0.2685 0.95394 0.0
C467 C 0.2944 0.30695 0.94723 0.0
C468 C 0.31096 0.30255 0.94253 0.0
C469 C 0.27442 0.28985 0.95337 0.0
H470 H 0.28592 0.24852 0.94987 0.0
H471 H 0.32685 0.31586 0.93876 0.0
C472 C 0.39395 0.27357 0.93042 0.0
N473 N 0.43649 0.29058 0.91898 0.0
C474 C 0.3979 0.27001 0.91377 0.0
C475 C 0.41161 0.28567 0.9413 0.0
C476 C 0.41954 0.27875 0.90822 0.0
C477 C 0.43301 0.29419 0.93526 0.0
C478 C 0.31056 0.22438 0.94039 0.0
C479 C 0.31386 0.20837 0.94805 0.0
C480 C 0.29379 0.21818 0.9285 0.0
C481 C 0.30044 0.18637 0.94355 0.0
C482 C 0.28075 0.19602 0.92432 0.0
N483 N 0.28433 0.18071 0.93185 0.0
C484 C 0.34123 0.24629 0.98719 0.0
C485 C 0.37333 0.24707 0.97703 0.0
C486 C 0.34295 0.23765 0.00257 0.0
N487 N 0.35649 0.25111 0.97493 0.0
C488 C 0.37548 0.23808 0.99214 0.0
C489 C 0.36025 0.23344 0.00516 0.0
H490 H 0.32774 0.24923 0.985 0.0
H491 H 0.38503 0.25076 0.96697 0.0
C492 C 0.32946 0.23555 0.89222 0.0
N493 N 0.33803 0.23462 0.90736 0.0
C494 C 0.32373 0.21884 0.88035 0.0
C495 C 0.33603 0.2008 0.89987 0.0
C496 C 0.34174 0.21794 0.91124 0.0
C497 C 0.32672 0.20103 0.88426 0.0
H498 H 0.32683 0.2491 0.88944 0.0
H499 H 0.34883 0.21782 0.92331 0.0
O500 O 0.35609 0.29322 0.9555 0.0
O501 O 0.34677 0.2838 0.91733 0.0
O502 O 0.3729 0.26548 0.936 0.0
O503 O 0.32387 0.24605 0.9443 0.0
H504 H 0.32498 0.29136 0.97549 0.0
H505 H 0.39104 0.30267 0.97407 0.0
H506 H 0.32855 0.2972 0.00643 0.0
H507 H 0.39343 0.30829 0.00506 0.0
H508 H 0.28926 0.28385 0.89126 0.0
H509 H 0.36518 0.32669 0.91261 0.0
H510 H 0.30645 0.2644 0.9049 0.0
H511 H 0.34698 0.34504 0.8988 0.0
H512 H 0.43168 0.36681 0.94907 0.0
H513 H 0.43316 0.34509 0.89828 0.0
H514 H 0.256 0.25494 0.95866 0.0
H515 H 0.29759 0.32369 0.94691 0.0
H516 H 0.38442 0.26077 0.90516 0.0
H517 H 0.40883 0.28866 0.9542 0.0
H518 H 0.42285 0.27621 0.89535 0.0
H519 H 0.44684 0.30371 0.94349 0.0
H520 H 0.32681 0.21289 0.95723 0.0
H521 H 0.29106 0.23039 0.92244 0.0
H522 H 0.30288 0.17381 0.94929 0.0
H523 H 0.26783 0.191 0.91504 0.0
H524 H 0.3307 0.23395 0.01224 0.0
H525 H 0.38902 0.23503 0.9937 0.0
H526 H 0.31656 0.21955 0.86845 0.0
H527 H 0.3389 0.18753 0.90324 0.0
Li528 Li 0.66763 0.94475 0.7232 0.0
Li529 Li 0.62851 0.92112 0.73046 0.0
Li530 Li 0.65636 0.91287 0.74065 0.0
Li531 Li 0.64694 0.90846 0.71162 0.0
C532 C 0.65194 0.9564 0.75191 0.0
N533 N 0.64818 0.9914 0.76357 0.0
C534 C 0.64703 0.96871 0.74072 0.0
C535 C 0.65489 0.96187 0.76902 0.0
C536 C 0.64521 0.98635 0.74686 0.0
C537 C 0.65295 0.97963 0.77467 0.0
C538 C 0.63107 0.92828 0.69308 0.0
C539 C 0.59923 0.90492 0.67623 0.0
N540 N 0.60991 0.91661 0.66226 0.0
C541 C 0.64169 0.94012 0.67857 0.0
C542 C 0.60964 0.91057 0.69192 0.0
C543 C 0.63072 0.93394 0.6631 0.0
C544 C 0.69778 0.97614 0.70169 0.0
N545 N 0.69053 0.97365 0.71785 0.0
C546 C 0.71561 0.01153 0.72364 0.0
C547 C 0.69946 0.99066 0.72897 0.0
C548 C 0.72271 0.01478 0.70676 0.0
C549 C 0.71384 0.99663 0.69583 0.0
H550 H 0.691 0.96212 0.69334 0.0
H551 H 0.69401 0.98815 0.74193 0.0
C552 C 0.58968 0.90962 0.74898 0.0
N553 N 0.60189 0.92079 0.73534 0.0
C554 C 0.5698 0.90892 0.75231 0.0
C555 C 0.57558 0.9312 0.72751 0.0
C556 C 0.59544 0.93178 0.72484 0.0
C557 C 0.56246 0.91956 0.74132 0.0
H558 H 0.59532 0.90115 0.75718 0.0
H559 H 0.60567 0.94092 0.71429 0.0
C560 C 0.69805 0.93167 0.72651 0.0
N561 N 0.74106 0.95036 0.73728 0.0
C562 C 0.7132 0.92862 0.71724 0.0
C563 C 0.70477 0.94428 0.74125 0.0
C564 C 0.73487 0.93818 0.7229 0.0
C565 C 0.72659 0.95358 0.74648 0.0
C566 C 0.62261 0.87134 0.73293 0.0
C567 C 0.63722 0.86476 0.72718 0.0
C568 C 0.60352 0.85635 0.74142 0.0
C569 C 0.63243 0.84321 0.72999 0.0
C570 C 0.59932 0.83494 0.74398 0.0
N571 N 0.61374 0.82886 0.73826 0.0
C572 C 0.65487 0.89854 0.77434 0.0
C573 C 0.67663 0.89111 0.75563 0.0
C574 C 0.65875 0.88753 0.78741 0.0
N575 N 0.66372 0.9 0.75883 0.0
C576 C 0.68105 0.88014 0.76829 0.0
C577 C 0.67193 0.87807 0.78441 0.0
H578 H 0.64445 0.90555 0.77647 0.0
H579 H 0.68304 0.89199 0.74309 0.0
C580 C 0.66062 0.90043 0.68067 0.0
N581 N 0.64347 0.89207 0.69162 0.0
C582 C 0.65896 0.88982 0.66541 0.0
C583 C 0.62202 0.86212 0.67303 0.0
C584 C 0.6244 0.8733 0.68814 0.0
C585 C 0.63944 0.87042 0.6614 0.0
H586 H 0.67553 0.91547 0.68377 0.0
H587 H 0.6109 0.8672 0.69698 0.0
O588 O 0.65357 0.93887 0.74632 0.0
O589 O 0.6417 0.93367 0.7083 0.0
O590 O 0.67683 0.92247 0.72097 0.0
O591 O 0.6271 0.89246 0.73064 0.0
H592 H 0.64479 0.96484 0.72742 0.0
H593 H 0.65864 0.95245 0.77785 0.0
H594 H 0.64145 0.99603 0.73834 0.0
H595 H 0.65521 0.98405 0.78789 0.0
H596 H 0.5827 0.89117 0.67514 0.0
H597 H 0.6582 0.95394 0.6792 0.0
H598 H 0.60127 0.90103 0.70299 0.0
H599 H 0.63877 0.94293 0.65176 0.0
H600 H 0.72208 0.02504 0.73251 0.0
H601 H 0.71928 0.99824 0.68286 0.0
H602 H 0.56005 0.89979 0.7631 0.0
H603 H 0.57058 0.93987 0.71893 0.0
H604 H 0.70825 0.91894 0.70579 0.0
H605 H 0.69335 0.94688 0.74861 0.0
H606 H 0.74677 0.93594 0.71585 0.0
H607 H 0.73202 0.96336 0.75786 0.0
H608 H 0.65218 0.8762 0.72073 0.0
H609 H 0.59212 0.86126 0.74603 0.0
H610 H 0.64361 0.8379 0.72563 0.0
H611 H 0.58461 0.82316 0.75053 0.0
H612 H 0.65145 0.88634 0.79967 0.0
H613 H 0.69092 0.87271 0.76533 0.0
H614 H 0.67288 0.89664 0.65692 0.0
H615 H 0.60659 0.8474 0.67034 0.0
Li616 Li 0.72068 0.66785 0.89174 0.0
Li617 Li 0.70442 0.62859 0.89799 0.0
Li618 Li 0.74287 0.65576 0.90777 0.0
Li619 Li 0.73465 0.64482 0.87815 0.0
C620 C 0.70848 0.66361 0.92623 0.0
N621 N 0.69663 0.68434 0.95016 0.0
C622 C 0.68654 0.65447 0.93112 0.0
C623 C 0.72443 0.68313 0.93369 0.0
C624 C 0.68086 0.66524 0.9432 0.0
C625 C 0.7181 0.69341 0.94571 0.0
C626 C 0.68498 0.63164 0.86924 0.0
C627 C 0.65632 0.60027 0.85467 0.0
N628 N 0.64301 0.60905 0.85607 0.0
C629 C 0.67108 0.64046 0.8704 0.0
C630 C 0.67763 0.61148 0.86118 0.0
C631 C 0.64991 0.62876 0.8637 0.0
C632 C 0.72582 0.70318 0.87302 0.0
N633 N 0.71561 0.69157 0.88711 0.0
C634 C 0.6988 0.71349 0.89152 0.0
C635 C 0.70224 0.69634 0.89637 0.0
C636 C 0.70905 0.72571 0.87692 0.0
C637 C 0.72278 0.72037 0.86767 0.0
H638 H 0.7361 0.69882 0.86576 0.0
H639 H 0.6939 0.68668 0.90731 0.0
C640 C 0.67862 0.58369 0.9064 0.0
N641 N 0.67777 0.60223 0.90315 0.0
C642 C 0.65931 0.56367 0.90869 0.0
C643 C 0.63859 0.58227 0.90479 0.0
C644 C 0.65832 0.60195 0.90269 0.0
C645 C 0.63889 0.5627 0.90761 0.0
H646 H 0.69429 0.58438 0.90703 0.0
H647 H 0.65806 0.61693 0.90031 0.0
C648 C 0.77 0.6946 0.88959 0.0
N649 N 0.80784 0.73468 0.89374 0.0
C650 C 0.7895 0.69871 0.88175 0.0
C651 C 0.76967 0.71101 0.89929 0.0
C652 C 0.80848 0.71903 0.88409 0.0
C653 C 0.78898 0.73113 0.9013 0.0
C654 C 0.73799 0.61198 0.89189 0.0
C655 C 0.75749 0.61353 0.89768 0.0
C656 C 0.72538 0.59615 0.87983 0.0
C657 C 0.76426 0.59947 0.89104 0.0
C658 C 0.73271 0.58242 0.87349 0.0
N659 N 0.75185 0.58436 0.87917 0.0
C660 C 0.76117 0.66357 0.94119 0.0
C661 C 0.78533 0.66912 0.9185 0.0
C662 C 0.77824 0.66972 0.95282 0.0
N663 N 0.7651 0.66365 0.92438 0.0
C664 C 0.8028 0.67535 0.92961 0.0
C665 C 0.79945 0.67587 0.94703 0.0
H666 H 0.74481 0.65871 0.94557 0.0
H667 H 0.78782 0.66831 0.90513 0.0
C668 C 0.73598 0.63714 0.84328 0.0
N669 N 0.74693 0.6407 0.85811 0.0
C670 C 0.74499 0.6345 0.82838 0.0
C671 C 0.77632 0.63914 0.84434 0.0
C672 C 0.76679 0.64189 0.85888 0.0
C673 C 0.76546 0.6355 0.82876 0.0
H674 H 0.72038 0.63665 0.84298 0.0
H675 H 0.77527 0.64503 0.87082 0.0
O676 O 0.71429 0.65325 0.91442 0.0
O677 O 0.70573 0.64282 0.8758 0.0
O678 O 0.75128 0.67475 0.88746 0.0
O679 O 0.73124 0.62582 0.89806 0.0
H680 H 0.67401 0.63927 0.92563 0.0
H681 H 0.74154 0.69019 0.93036 0.0
H682 H 0.66393 0.65841 0.94703 0.0
H683 H 0.73028 0.70855 0.95155 0.0
H684 H 0.65038 0.58458 0.8485 0.0
H685 H 0.67649 0.65606 0.87653 0.0
H686 H 0.68822 0.60454 0.85997 0.0
H687 H 0.63893 0.63532 0.86461 0.0
H688 H 0.68817 0.71708 0.8991 0.0
H689 H 0.73067 0.72898 0.85615 0.0
H690 H 0.66038 0.54911 0.91122 0.0
H691 H 0.62328 0.58234 0.90373 0.0
H692 H 0.79 0.68629 0.87404 0.0
H693 H 0.75463 0.70836 0.90507 0.0
H694 H 0.82372 0.72237 0.8782 0.0
H695 H 0.78895 0.74395 0.90882 0.0
H696 H 0.76731 0.62546 0.90717 0.0
H697 H 0.71016 0.59459 0.87535 0.0
H698 H 0.77938 0.60058 0.89534 0.0
H699 H 0.72319 0.57021 0.86406 0.0
H700 H 0.77492 0.66986 0.96614 0.0
H701 H 0.81869 0.67935 0.92459 0.0
H702 H 0.73621 0.63217 0.81664 0.0
H703 H 0.79198 0.63979 0.84532 0.0
Li704 Li 0.09214 0.73427 0.04505 0.0
Li705 Li 0.0893 0.74272 0.07554 0.0
Li706 Li 0.07641 0.70392 0.06479 0.0
Li707 Li 0.05683 0.72264 0.05791 0.0
C708 C 0.12744 0.73702 0.05968 0.0
N709 N 0.16943 0.75181 0.0477 0.0
C710 C 0.14479 0.75713 0.06516 0.0
C711 C 0.13149 0.7243 0.04828 0.0
C712 C 0.16589 0.76435 0.05892 0.0
C713 C 0.15282 0.7321 0.04232 0.0
C714 C 0.07132 0.76454 0.05176 0.0
C715 C 0.05174 0.78251 0.0613 0.0
N716 N 0.04815 0.7858 0.04497 0.0
C717 C 0.06759 0.76822 0.03508 0.0
C718 C 0.06346 0.77182 0.065 0.0
C719 C 0.05578 0.77895 0.03191 0.0
C720 C 0.102 0.735 0.01048 0.0
N721 N 0.10909 0.74628 0.0252 0.0
C722 C 0.13953 0.776 0.01121 0.0
C723 C 0.12735 0.76649 0.02582 0.0
C724 C 0.13261 0.76475 0.99576 0.0
C725 C 0.11358 0.74393 0.99555 0.0
H726 H 0.08707 0.71926 0.01024 0.0
H727 H 0.13232 0.77532 0.03764 0.0
C728 C 0.1032 0.75867 0.10913 0.0
N729 N 0.10407 0.76398 0.09254 0.0
C730 C 0.11553 0.77497 0.12101 0.0
C731 C 0.1294 0.80166 0.09841 0.0
C732 C 0.11659 0.78497 0.08706 0.0
C733 C 0.12909 0.7967 0.11559 0.0
H734 H 0.09324 0.74176 0.11307 0.0
H735 H 0.11701 0.78864 0.07377 0.0
C736 C 0.05568 0.68544 0.03574 0.0
N737 N 0.03691 0.64354 0.02251 0.0
C738 C 0.03293 0.6715 0.03637 0.0
C739 C 0.06885 0.6781 0.02827 0.0
C740 C 0.02376 0.65038 0.02962 0.0
C741 C 0.05906 0.65684 0.0217 0.0
C742 C 0.04277 0.70713 0.08959 0.0
C743 C 0.02459 0.68689 0.08538 0.0
C744 C 0.04115 0.71956 0.10269 0.0
C745 C 0.00501 0.67944 0.09431 0.0
C746 C 0.02129 0.7115 0.11135 0.0
N747 N 0.00378 0.69179 0.107 0.0
C748 C 0.09441 0.6779 0.07503 0.0
C749 C 0.0564 0.65736 0.06903 0.0
C750 C 0.09509 0.65866 0.07789 0.0
N751 N 0.07535 0.67692 0.07035 0.0
C752 C 0.05639 0.63771 0.07148 0.0
C753 C 0.07599 0.63813 0.07579 0.0
H754 H 0.10919 0.69363 0.07639 0.0
H755 H 0.04134 0.65689 0.06564 0.0
C756 C 0.02461 0.71687 0.03523 0.0
N757 N 0.02909 0.72001 0.05201 0.0
C758 C 0.00561 0.71562 0.02876 0.0
C759 C 0.99601 0.72099 0.05692 0.0
C760 C 0.01545 0.7225 0.06283 0.0
C761 C 0.991 0.7176 0.03966 0.0
H762 H 0.03601 0.7156 0.0268 0.0
H763 H 0.01976 0.72609 0.07595 0.0
O764 O 0.10659 0.72982 0.06542 0.0
O765 O 0.08219 0.75342 0.05512 0.0
O766 O 0.06499 0.7062 0.04229 0.0
O767 O 0.06214 0.71463 0.08112 0.0
H768 H 0.14199 0.76711 0.07406 0.0
H769 H 0.1183 0.70861 0.04404 0.0
H770 H 0.17945 0.77995 0.06298 0.0
H771 H 0.15616 0.72248 0.03342 0.0
H772 H 0.04542 0.78811 0.0714 0.0
H773 H 0.07354 0.76258 0.02471 0.0
H774 H 0.06613 0.76895 0.07798 0.0
H775 H 0.05261 0.78177 0.01906 0.0
H776 H 0.15417 0.792 0.01202 0.0
H777 H 0.10732 0.73487 0.9839 0.0
H778 H 0.11501 0.77056 0.13416 0.0
H779 H 0.13952 0.81827 0.09381 0.0
H780 H 0.02245 0.67676 0.04223 0.0
H781 H 0.08644 0.68867 0.02758 0.0
H782 H 0.0062 0.63938 0.03011 0.0
H783 H 0.06908 0.65093 0.01596 0.0
H784 H 0.0255 0.6772 0.07518 0.0
H785 H 0.05502 0.73531 0.10605 0.0
H786 H 0.99077 0.66386 0.09112 0.0
H787 H 0.01978 0.72096 0.12148 0.0
H788 H 0.11048 0.65992 0.08164 0.0
H789 H 0.04125 0.62239 0.06953 0.0
H790 H 0.00229 0.71294 0.01537 0.0
H791 H 0.98527 0.72296 0.06565 0.0
Li792 Li 0.33262 0.05634 0.22592 0.0
Li793 Li 0.37216 0.07928 0.23028 0.0
Li794 Li 0.34628 0.08965 0.24168 0.0
Li795 Li 0.35367 0.09171 0.2114 0.0
C796 C 0.33997 0.04379 0.25494 0.0
N797 N 0.3207 0.00201 0.2684 0.0
C798 C 0.35129 0.03217 0.25493 0.0
C799 C 0.31891 0.03423 0.26189 0.0
C800 C 0.34126 0.01105 0.26178 0.0
C801 C 0.30943 0.01306 0.26859 0.0
C802 C 0.35813 0.06353 0.19231 0.0
C803 C 0.37834 0.07668 0.16627 0.0
N804 N 0.36056 0.06133 0.15762 0.0
C805 C 0.34007 0.04785 0.18316 0.0
C806 C 0.37745 0.07802 0.18381 0.0
C807 C 0.34163 0.04701 0.16563 0.0
C808 C 0.28861 0.02215 0.2209 0.0
N809 N 0.30976 0.0269 0.2226 0.0
C810 C 0.29994 0.99021 0.21517 0.0
C811 C 0.3156 0.01139 0.22012 0.0
C812 C 0.27809 0.98501 0.21262 0.0
C813 C 0.27238 0.00114 0.21597 0.0
H814 H 0.28451 0.03492 0.22263 0.0
H815 H 0.33263 0.01576 0.22127 0.0
C816 C 0.40917 0.08561 0.24923 0.0
N817 N 0.39874 0.07899 0.23413 0.0
C818 C 0.42907 0.08614 0.25188 0.0
C819 C 0.42661 0.07221 0.22361 0.0
C820 C 0.40686 0.07207 0.2215 0.0
C821 C 0.43813 0.07951 0.23891 0.0
H822 H 0.40212 0.09066 0.25917 0.0
H823 H 0.39797 0.06634 0.20977 0.0
C824 C 0.31179 0.08759 0.22734 0.0
N825 N 0.28688 0.10572 0.23789 0.0
C826 C 0.3148 0.10696 0.21999 0.0
C827 C 0.296 0.07734 0.23997 0.0
C828 C 0.30205 0.11588 0.22551 0.0
C829 C 0.28362 0.08681 0.24516 0.0
C830 C 0.39538 0.12213 0.23425 0.0
C831 C 0.40031 0.12977 0.25085 0.0
C832 C 0.41239 0.12792 0.22266 0.0
C833 C 0.42224 0.143 0.2556 0.0
C834 C 0.4341 0.14114 0.22792 0.0
N835 N 0.43854 0.14834 0.24414 0.0
C836 C 0.33295 0.09531 0.27461 0.0
C837 C 0.34578 0.12554 0.25589 0.0
C838 C 0.32907 0.107 0.28711 0.0
N839 N 0.34106 0.10472 0.25936 0.0
C840 C 0.3421 0.13775 0.26795 0.0
C841 C 0.33366 0.12855 0.28384 0.0
H842 H 0.3295 0.07877 0.27706 0.0
H843 H 0.35227 0.13259 0.24364 0.0
C844 C 0.34052 0.09708 0.17901 0.0
N845 N 0.35594 0.1073 0.19121 0.0
C846 C 0.34197 0.10778 0.16384 0.0
C847 C 0.3745 0.13975 0.17441 0.0
C848 C 0.37262 0.12829 0.18929 0.0
C849 C 0.35914 0.12939 0.16142 0.0
H850 H 0.32713 0.08057 0.18107 0.0
H851 H 0.38442 0.13615 0.19931 0.0
O852 O 0.34936 0.06433 0.24804 0.0
O853 O 0.35684 0.06486 0.20946 0.0
O854 O 0.3245 0.07891 0.22242 0.0
O855 O 0.37404 0.10886 0.22941 0.0
H856 H 0.36757 0.0393 0.24956 0.0
H857 H 0.30988 0.04296 0.2619 0.0
H858 H 0.34978 0.00183 0.2618 0.0
H859 H 0.29309 0.0054 0.27391 0.0
H860 H 0.39313 0.08789 0.15953 0.0
H861 H 0.32491 0.03662 0.18946 0.0
H862 H 0.39153 0.09037 0.19066 0.0
H863 H 0.32775 0.03502 0.15839 0.0
H864 H 0.30501 0.97821 0.21287 0.0
H865 H 0.25581 0.99793 0.21393 0.0
H866 H 0.4374 0.09199 0.26385 0.0
H867 H 0.43267 0.06644 0.21342 0.0
H868 H 0.32701 0.11516 0.21025 0.0
H869 H 0.29357 0.06242 0.24587 0.0
H870 H 0.30428 0.13093 0.21999 0.0
H871 H 0.27147 0.07916 0.25502 0.0
H872 H 0.38738 0.12533 0.26002 0.0
H873 H 0.40887 0.12206 0.20979 0.0
H874 H 0.42631 0.14895 0.26842 0.0
H875 H 0.44743 0.14562 0.21911 0.0
H876 H 0.32277 0.09934 0.29924 0.0
H877 H 0.34554 0.15413 0.26473 0.0
H878 H 0.32963 0.09939 0.1542 0.0
H879 H 0.38795 0.15642 0.17299 0.0
Li880 Li 0.2925 0.37076 0.39735 0.0
Li881 Li 0.27385 0.33027 0.39136 0.0
Li882 Li 0.26228 0.35337 0.37727 0.0
Li883 Li 0.25336 0.34384 0.40622 0.0
C884 C 0.29553 0.35727 0.35942 0.0
N885 N 0.3016 0.36059 0.32489 0.0
C886 C 0.28766 0.33833 0.34957 0.0
C887 C 0.30654 0.3779 0.35173 0.0
C888 C 0.29089 0.34036 0.33213 0.0
C889 C 0.30944 0.37923 0.33424 0.0
C890 C 0.29146 0.33611 0.42192 0.0
C891 C 0.28995 0.30547 0.4368 0.0
N892 N 0.31224 0.31648 0.43775 0.0
C893 C 0.31435 0.34719 0.42315 0.0
C894 C 0.27913 0.31515 0.4289 0.0
C895 C 0.32455 0.33697 0.43117 0.0
C896 C 0.32057 0.40887 0.41616 0.0
N897 N 0.31933 0.3963 0.40273 0.0
C898 C 0.35682 0.42094 0.39573 0.0
C899 C 0.33697 0.40175 0.3927 0.0
C900 C 0.35862 0.43455 0.40935 0.0
C901 C 0.34017 0.42818 0.41973 0.0
H902 H 0.30625 0.404 0.42397 0.0
H903 H 0.33557 0.39128 0.38224 0.0
C904 C 0.26296 0.28676 0.38334 0.0
N905 N 0.27962 0.30684 0.38794 0.0
C906 C 0.26728 0.2701 0.37883 0.0
C907 C 0.3058 0.29498 0.38417 0.0
C908 C 0.30074 0.31121 0.38843 0.0
C909 C 0.289 0.27417 0.37899 0.0
H910 H 0.24641 0.28391 0.3825 0.0
H911 H 0.31376 0.32751 0.39164 0.0
C912 C 0.26046 0.38846 0.39002 0.0
N913 N 0.24957 0.41858 0.37779 0.0
C914 C 0.23906 0.38153 0.3846 0.0
C915 C 0.27632 0.41073 0.38922 0.0
C916 C 0.23389 0.397 0.37844 0.0
C917 C 0.27049 0.4257 0.38301 0.0
C918 C 0.22257 0.30913 0.39102 0.0
C919 C 0.20516 0.31044 0.38371 0.0
C920 C 0.21822 0.2931 0.4032 0.0
C921 C 0.18369 0.29575 0.38882 0.0
C922 C 0.19653 0.27875 0.40799 0.0
N923 N 0.17986 0.28036 0.40076 0.0
C924 C 0.2387 0.33958 0.3469 0.0
C925 C 0.25993 0.37829 0.34928 0.0
C926 C 0.23092 0.3414 0.33114 0.0
N927 N 0.25258 0.35787 0.35577 0.0
C928 C 0.25229 0.38089 0.33369 0.0
C929 C 0.2375 0.36227 0.32449 0.0
H930 H 0.23371 0.32353 0.35205 0.0
H931 H 0.2718 0.3926 0.35614 0.0
C932 C 0.23631 0.334 0.43976 0.0
N933 N 0.23246 0.33818 0.42375 0.0
C934 C 0.22133 0.33059 0.45265 0.0
C935 C 0.19869 0.33561 0.43227 0.0
C936 C 0.21412 0.33907 0.41988 0.0
C937 C 0.20226 0.33155 0.44898 0.0
H938 H 0.25115 0.33361 0.44257 0.0
H939 H 0.21136 0.34243 0.40714 0.0
O940 O 0.29194 0.3556 0.37645 0.0
O941 O 0.2812 0.34574 0.41393 0.0
O942 O 0.26591 0.37364 0.39618 0.0
O943 O 0.24374 0.32352 0.38634 0.0
H944 H 0.27891 0.32224 0.3553 0.0
H945 H 0.31243 0.39272 0.35913 0.0
H946 H 0.28479 0.32584 0.32434 0.0
H947 H 0.3178 0.39508 0.3281 0.0
H948 H 0.28061 0.28921 0.44218 0.0
H949 H 0.32415 0.36343 0.41785 0.0
H950 H 0.26141 0.30642 0.42818 0.0
H951 H 0.34225 0.3453 0.43213 0.0
H952 H 0.37046 0.42526 0.38725 0.0
H953 H 0.34087 0.43796 0.43051 0.0
H954 H 0.25385 0.25452 0.37457 0.0
H955 H 0.32275 0.29886 0.38463 0.0
H956 H 0.22675 0.36434 0.38463 0.0
H957 H 0.29298 0.41639 0.39329 0.0
H958 H 0.21744 0.39183 0.37407 0.0
H959 H 0.2826 0.44297 0.38231 0.0
H960 H 0.20819 0.32287 0.3744 0.0
H961 H 0.23147 0.29184 0.40897 0.0
H962 H 0.17008 0.29667 0.38335 0.0
H963 H 0.19295 0.26634 0.41747 0.0
H964 H 0.21958 0.32665 0.32436 0.0
H965 H 0.25806 0.39725 0.32879 0.0
H966 H 0.22488 0.32773 0.46539 0.0
H967 H 0.18404 0.33605 0.42873 0.0
Li968 Li 0.94338 0.27759 0.55715 0.0
Li969 Li 0.92161 0.29364 0.56441 0.0
Li970 Li 0.91245 0.25784 0.57469 0.0
Li971 Li 0.9075 0.26223 0.54449 0.0
C972 C 0.95701 0.30517 0.58519 0.0
N973 N 0.99339 0.34375 0.59549 0.0
C974 C 0.96997 0.32117 0.57334 0.0
C975 C 0.96256 0.30879 0.60227 0.0
C976 C 0.9883 0.34056 0.5788 0.0
C977 C 0.98102 0.3284 0.60723 0.0
C978 C 0.92772 0.30277 0.52956 0.0
C979 C 0.90242 0.31281 0.5176 0.0
N980 N 0.91724 0.3242 0.50526 0.0
C981 C 0.94268 0.31456 0.51675 0.0
C982 C 0.9074 0.30186 0.52999 0.0
C983 C 0.93708 0.32529 0.50459 0.0
C984 C 0.97739 0.28616 0.5351 0.0
N985 N 0.97221 0.28351 0.55176 0.0
C986 C 0.00772 0.2892 0.55884 0.0
C987 C 0.98677 0.28481 0.56363 0.0
C988 C 0.01364 0.29237 0.54171 0.0
C989 C 0.9981 0.29066 0.52977 0.0
H990 H 0.96531 0.28466 0.52595 0.0
H991 H 0.98212 0.28245 0.5768 0.0
C992 C 0.90996 0.3217 0.58191 0.0
N993 N 0.92247 0.32077 0.56922 0.0
C994 C 0.90957 0.34108 0.58499 0.0
C995 C 0.93555 0.35838 0.56228 0.0
C996 C 0.93558 0.33879 0.55976 0.0
C997 C 0.9222 0.35961 0.57488 0.0
H998 H 0.90022 0.30738 0.58958 0.0
H999 H 0.94604 0.33802 0.55015 0.0
C1000 C 0.93348 0.23672 0.55503 0.0
N1001 N 0.96121 0.2195 0.55468 0.0
C1002 C 0.93821 0.22986 0.53985 0.0
C1003 C 0.94277 0.23474 0.57005 0.0
C1004 C 0.9523 0.22123 0.53993 0.0
C1005 C 0.95675 0.226 0.56961 0.0
C1006 C 0.87248 0.25113 0.57048 0.0
C1007 C 0.86272 0.22949 0.56468 0.0
C1008 C 0.86247 0.25639 0.58347 0.0
C1009 C 0.84312 0.21347 0.57198 0.0
C1010 C 0.84289 0.23989 0.59046 0.0
N1011 N 0.8337 0.21895 0.58463 0.0
C1012 C 0.89695 0.24432 0.60827 0.0
C1013 C 0.89085 0.21594 0.58908 0.0
C1014 C 0.88471 0.22886 0.6207 0.0
N1015 N 0.89944 0.23757 0.59277 0.0
C1016 C 0.87839 0.2 0.60102 0.0
C1017 C 0.87485 0.20638 0.61695 0.0
H1018 H 0.90378 0.26166 0.61075 0.0
H1019 H 0.89289 0.21104 0.57659 0.0
C1020 C 0.90196 0.24751 0.51115 0.0
N1021 N 0.89118 0.25011 0.52437 0.0
C1022 C 0.89108 0.23887 0.49592 0.0
C1023 C 0.85831 0.23621 0.50808 0.0
C1024 C 0.86989 0.2451 0.52302 0.0
C1025 C 0.86889 0.2329 0.49432 0.0
H1026 H 0.91907 0.25229 0.51243 0.0
H1027 H 0.86193 0.24812 0.5335 0.0
O1028 O 0.9389 0.28602 0.58026 0.0
O1029 O 0.93301 0.29206 0.54145 0.0
O1030 O 0.92027 0.24584 0.55517 0.0
O1031 O 0.89209 0.26686 0.56384 0.0
H1032 H 0.96604 0.3187 0.56006 0.0
H1033 H 0.95267 0.29656 0.6116 0.0
H1034 H 0.99847 0.35307 0.56976 0.0
H1035 H 0.9855 0.33142 0.62042 0.0
H1036 H 0.88677 0.31225 0.51779 0.0
H1037 H 0.95847 0.31544 0.51624 0.0
H1038 H 0.89558 0.29286 0.53978 0.0
H1039 H 0.94851 0.33449 0.49462 0.0
H1040 H 0.01925 0.29046 0.56844 0.0
H1041 H 0.00183 0.29255 0.51641 0.0
H1042 H 0.89914 0.34141 0.5949 0.0
H1043 H 0.94593 0.37246 0.55448 0.0
H1044 H 0.93119 0.23127 0.52812 0.0
H1045 H 0.93952 0.24025 0.58188 0.0
H1046 H 0.95619 0.21594 0.52827 0.0
H1047 H 0.96416 0.2245 0.58111 0.0
H1048 H 0.87045 0.22499 0.55488 0.0
H1049 H 0.86975 0.27296 0.5882 0.0
H1050 H 0.8355 0.19664 0.56768 0.0
H1051 H 0.83501 0.24373 0.60056 0.0
H1052 H 0.88219 0.23438 0.63281 0.0
H1053 H 0.87122 0.18282 0.59772 0.0
H1054 H 0.89983 0.23658 0.4856 0.0
H1055 H 0.84134 0.23223 0.50721 0.0
H1056 H 0.10941 0.63043 0.06725 0.0
H1057 H 0.11006 0.59627 0.06968 0.0
H1058 H 0.04415 0.56401 0.08958 0.0
H1059 H 0.04397 0.59853 0.08845 0.0
H1060 H 0.06655 0.55057 0.10604 0.0
H1061 H 0.05677 0.55854 0.04716 0.0
H1062 H 0.06542 0.57719 0.01955 0.0
H1063 H 0.12779 0.57994 0.01916 0.0
H1064 H 0.11964 0.56157 0.04689 0.0
H1065 H 0.03963 0.44077 0.08957 0.0
H1066 H 0.04103 0.47604 0.0871 0.0
H1067 H 0.11094 0.50837 0.07906 0.0
H1068 H 0.10992 0.47327 0.08215 0.0
H1069 H 0.0874 0.5217 0.05657 0.0
H1070 H 0.09526 0.51226 0.11596 0.0
H1071 H 0.0845 0.49208 0.14292 0.0
H1072 H 0.02264 0.49036 0.14128 0.0
H1073 H 0.03291 0.51025 0.11417 0.0
C1074 C 0.09517 0.61623 0.07246 0.0
C1075 C 0.07659 0.61734 0.07759 0.0
C1076 C 0.09545 0.59655 0.07358 0.0
C1077 C 0.07697 0.57739 0.07946 0.0
C1078 C 0.05856 0.57851 0.08488 0.0
C1079 C 0.0584 0.59827 0.08403 0.0
C1080 C 0.0768 0.55618 0.08001 0.0
C1081 C 0.07084 0.54418 0.09513 0.0
C1082 C 0.08277 0.54792 0.06589 0.0
C1083 C 0.08768 0.55887 0.04918 0.0
C1084 C 0.0724 0.56326 0.04124 0.0
C1085 C 0.0772 0.57376 0.02556 0.0
C1086 C 0.09717 0.57979 0.01763 0.0
C1087 C 0.11235 0.57528 0.02534 0.0
C1088 C 0.10763 0.56481 0.04102 0.0
C1089 C 0.05536 0.45536 0.08741 0.0
C1090 C 0.0747 0.45415 0.08624 0.0
C1091 C 0.05609 0.47548 0.08589 0.0
C1092 C 0.07611 0.49477 0.08305 0.0
C1093 C 0.09533 0.49361 0.08123 0.0
C1094 C 0.09467 0.4735 0.08292 0.0
C1095 C 0.07702 0.51623 0.08251 0.0
C1096 C 0.08314 0.52822 0.06742 0.0
C1097 C 0.07088 0.52433 0.09657 0.0
C1098 C 0.06477 0.51256 0.11295 0.0
C1099 C 0.07929 0.50743 0.12128 0.0
C1100 C 0.0733 0.49607 0.1366 0.0
C1101 C 0.05288 0.48989 0.14379 0.0
C1102 C 0.03844 0.49513 0.13569 0.0
C1103 C 0.04435 0.50646 0.12035 0.0
H1104 H 0.04826 0.4811 0.15565 0.0
H1105 H 0.10086 0.58792 0.00549 0.0
H1106 H 0.62437 0.08598 0.22968 0.0
H1107 H 0.59048 0.08742 0.22679 0.0
H1108 H 0.5753 0.06957 0.27914 0.0
H1109 H 0.60926 0.06845 0.28224 0.0
H1110 H 0.53991 0.04583 0.25873 0.0
H1111 H 0.59424 0.12158 0.26712 0.0
H1112 H 0.62867 0.156 0.2613 0.0
H1113 H 0.6063 0.15748 0.21117 0.0
H1114 H 0.57184 0.12287 0.21662 0.0
H1115 H 0.45317 0.06874 0.26722 0.0
H1116 H 0.48789 0.06919 0.27078 0.0
H1117 H 0.50552 0.09116 0.21938 0.0
H1118 H 0.47132 0.09174 0.21596 0.0
H1119 H 0.53983 0.1129 0.23947 0.0
H1120 H 0.48588 0.03717 0.23067 0.0
H1121 H 0.45152 0.0025 0.2361 0.0
H1122 H 0.47318 0.0006 0.28639 0.0
H1123 H 0.50756 0.03544 0.28134 0.0
C1124 C 0.61394 0.08258 0.24062 0.0
C1125 C 0.61953 0.07707 0.25618 0.0
C1126 C 0.59455 0.08335 0.23894 0.0
C1127 C 0.58046 0.07873 0.25278 0.0
C1128 C 0.58591 0.07311 0.26828 0.0
C1129 C 0.60529 0.07238 0.27 0.0
C1130 C 0.5599 0.07956 0.2511 0.0
C1131 C 0.53989 0.06057 0.25473 0.0
C1132 C 0.55988 0.09865 0.24551 0.0
C1133 C 0.58055 0.11952 0.24223 0.0
C1134 C 0.59673 0.12914 0.25481 0.0
C1135 C 0.61624 0.14871 0.25159 0.0
C1136 C 0.6197 0.15889 0.23586 0.0
C1137 C 0.60362 0.14956 0.22334 0.0
C1138 C 0.58408 0.12998 0.2265 0.0
C1139 C 0.46455 0.07395 0.25674 0.0
C1140 C 0.45938 0.08008 0.24127 0.0
C1141 C 0.48429 0.07396 0.25873 0.0
C1142 C 0.49916 0.07987 0.24526 0.0
C1143 C 0.49425 0.08642 0.22992 0.0
C1144 C 0.47458 0.08652 0.22794 0.0
C1145 C 0.51978 0.07914 0.24708 0.0
C1146 C 0.53982 0.09815 0.24348 0.0
C1147 C 0.51982 0.06002 0.25263 0.0
C1148 C 0.49919 0.03903 0.25568 0.0
C1149 C 0.48324 0.02945 0.24293 0.0
C1150 C 0.46377 0.00975 0.24593 0.0
C1151 C 0.46014 0.99938 0.2616 0.0
C1152 C 0.476 0.00866 0.27428 0.0
C1153 C 0.49549 0.02838 0.27134 0.0
H1154 H 0.44506 0.98413 0.2639 0.0
H1155 H 0.63481 0.17404 0.23339 0.0
H1156 H 0.52157 0.6304 0.43539 0.0
H1157 H 0.48673 0.59622 0.43264 0.0
H1158 H 0.52013 0.56532 0.40984 0.0
H1159 H 0.55482 0.59984 0.4115 0.0
H1160 H 0.48382 0.55321 0.39384 0.0
H1161 H 0.50306 0.55708 0.45224 0.0
H1162 H 0.5137 0.57379 0.4805 0.0
H1163 H 0.45398 0.57614 0.48386 0.0
H1164 H 0.44312 0.55971 0.45551 0.0
H1165 H 0.40076 0.44243 0.40596 0.0
H1166 H 0.43487 0.47739 0.40903 0.0
H1167 H 0.3981 0.5089 0.42312 0.0
H1168 H 0.36378 0.47414 0.4196 0.0
H1169 H 0.43537 0.52065 0.44362 0.0
H1170 H 0.41649 0.51572 0.38473 0.0
H1171 H 0.40633 0.49783 0.35684 0.0
H1172 H 0.46648 0.49613 0.35509 0.0
H1173 H 0.47685 0.51373 0.38309 0.0
C1174 C 0.52151 0.61647 0.42952 0.0
C1175 C 0.54112 0.61793 0.42373 0.0
C1176 C 0.50157 0.59681 0.42819 0.0
C1177 C 0.50083 0.57804 0.42134 0.0
C1178 C 0.52028 0.57953 0.41528 0.0
C1179 C 0.54018 0.59925 0.41641 0.0
C1180 C 0.47981 0.55687 0.42039 0.0
C1181 C 0.4734 0.54599 0.40479 0.0
C1182 C 0.46594 0.54757 0.4346 0.0
C1183 C 0.47238 0.55737 0.45168 0.0
C1184 C 0.49227 0.56131 0.45896 0.0
C1185 C 0.49833 0.5707 0.475 0.0
C1186 C 0.48455 0.57607 0.48395 0.0
C1187 C 0.46465 0.572 0.4769 0.0
C1188 C 0.45853 0.56263 0.46085 0.0
C1189 C 0.39986 0.45679 0.40959 0.0
C1190 C 0.37946 0.45546 0.41238 0.0
C1191 C 0.41939 0.47673 0.41143 0.0
C1192 C 0.41895 0.49573 0.41614 0.0
C1193 C 0.39874 0.49438 0.41949 0.0
C1194 C 0.37916 0.47447 0.41754 0.0
C1195 C 0.43959 0.5171 0.41714 0.0
C1196 C 0.44586 0.52797 0.43271 0.0
C1197 C 0.45347 0.52627 0.40298 0.0
C1198 C 0.44734 0.51585 0.38608 0.0
C1199 C 0.42747 0.51137 0.37846 0.0
C1200 C 0.42169 0.50131 0.36262 0.0
C1201 C 0.43573 0.4958 0.35422 0.0
C1202 C 0.45561 0.50039 0.36162 0.0
C1203 C 0.46145 0.51042 0.37747 0.0
H1204 H 0.43122 0.48801 0.34196 0.0
H1205 H 0.48927 0.58335 0.49637 0.0
H1206 H 0.92908 0.53988 0.61757 0.0
H1207 H 0.92816 0.50488 0.61466 0.0
H1208 H 0.91597 0.50462 0.56129 0.0
H1209 H 0.91675 0.53969 0.56416 0.0
H1210 H 0.89017 0.465 0.57455 0.0
H1211 H 0.96685 0.51795 0.57618 0.0
H1212 H 0.00075 0.54916 0.58752 0.0
H1213 H 0.99372 0.51307 0.63301 0.0
H1214 H 0.95958 0.48174 0.62204 0.0
H1215 H 0.91838 0.38482 0.55051 0.0
H1216 H 0.91771 0.41901 0.55414 0.0
H1217 H 0.92327 0.41481 0.60803 0.0
H1218 H 0.92411 0.38058 0.60447 0.0
H1219 H 0.95219 0.45634 0.59479 0.0
H1220 H 0.87541 0.4029 0.59226 0.0
H1221 H 0.84208 0.37183 0.58009 0.0
H1222 H 0.85019 0.40923 0.53515 0.0
H1223 H 0.88377 0.44043 0.54695 0.0
C1224 C 0.9264 0.53248 0.60518 0.0
C1225 C 0.92318 0.54264 0.59106 0.0
C1226 C 0.92585 0.51245 0.60354 0.0
C1227 C 0.92232 0.50228 0.58771 0.0
C1228 C 0.91874 0.5122 0.57362 0.0
C1229 C 0.91917 0.5322 0.57528 0.0
C1230 C 0.9223 0.48127 0.58591 0.0
C1231 C 0.90386 0.4632 0.57877 0.0
C1232 C 0.93998 0.47878 0.59173 0.0
C1233 C 0.96054 0.49758 0.59835 0.0
C1234 C 0.97243 0.51673 0.58866 0.0
C1235 C 0.99171 0.53444 0.59501 0.0
C1236 C 0.99935 0.53312 0.61099 0.0
C1237 C 0.98776 0.51408 0.62064 0.0
C1238 C 0.96846 0.49633 0.61436 0.0
C1239 C 0.91953 0.39122 0.56313 0.0
C1240 C 0.92133 0.38007 0.57721 0.0
C1241 C 0.91899 0.41065 0.56519 0.0
C1242 C 0.9203 0.41934 0.58135 0.0
C1243 C 0.92219 0.40832 0.59545 0.0
C1244 C 0.92253 0.38874 0.59341 0.0
C1245 C 0.92008 0.44015 0.58346 0.0
C1246 C 0.9385 0.45818 0.59062 0.0
C1247 C 0.90247 0.44263 0.57753 0.0
C1248 C 0.88223 0.42393 0.57043 0.0
C1249 C 0.8702 0.40444 0.57972 0.0
C1250 C 0.85124 0.38681 0.5729 0.0
C1251 C 0.84406 0.38854 0.55684 0.0
C1252 C 0.85579 0.40791 0.54758 0.0
C1253 C 0.87478 0.42558 0.55434 0.0
H1254 H 0.82937 0.37488 0.55158 0.0
H1255 H 0.01428 0.54685 0.61588 0.0
H1256 H 0.52952 0.90741 0.71857 0.0
H1257 H 0.49488 0.90709 0.7223 0.0
H1258 H 0.51298 0.9296 0.77359 0.0
H1259 H 0.54735 0.92903 0.77004 0.0
H1260 H 0.47162 0.90094 0.7728 0.0
H1261 H 0.51752 0.96482 0.7404 0.0
H1262 H 0.54219 0.98639 0.71715 0.0
H1263 H 0.49107 0.9496 0.68121 0.0
H1264 H 0.46617 0.92758 0.70424 0.0
H1265 H 0.39595 0.9412 0.77964 0.0
H1266 H 0.43013 0.94003 0.77725 0.0
H1267 H 0.40563 0.90076 0.73219 0.0
H1268 H 0.37126 0.90159 0.73467 0.0
H1269 H 0.45032 0.93887 0.73044 0.0
H1270 H 0.40469 0.87513 0.76477 0.0
H1271 H 0.38099 0.85612 0.78917 0.0
H1272 H 0.43352 0.89671 0.82298 0.0
H1273 H 0.45744 0.91621 0.79876 0.0
C1274 C 0.52603 0.91222 0.73064 0.0
C1275 C 0.54111 0.91842 0.74398 0.0
C1276 C 0.5063 0.91214 0.73275 0.0
C1277 C 0.50152 0.91884 0.7481 0.0
C1278 C 0.51633 0.92447 0.7616 0.0
C1279 C 0.53594 0.92416 0.75959 0.0
C1280 C 0.48116 0.92014 0.74994 0.0
C1281 C 0.46716 0.9095 0.76364 0.0
C1282 C 0.47515 0.93115 0.73794 0.0
C1283 C 0.49004 0.94442 0.72404 0.0
C1284 C 0.51159 0.96123 0.72753 0.0
C1285 C 0.52561 0.97355 0.71439 0.0
C1286 C 0.51822 0.96933 0.69771 0.0
C1287 C 0.49678 0.95282 0.69414 0.0
C1288 C 0.48269 0.94043 0.70723 0.0
C1289 C 0.39793 0.93239 0.76921 0.0
C1290 C 0.38105 0.92149 0.75732 0.0
C1291 C 0.41736 0.93166 0.7679 0.0
C1292 C 0.42029 0.92025 0.75458 0.0
C1293 C 0.4036 0.90961 0.74256 0.0
C1294 C 0.38401 0.91003 0.74402 0.0
C1295 C 0.44088 0.91953 0.75313 0.0
C1296 C 0.4549 0.93035 0.73955 0.0
C1297 C 0.4471 0.90909 0.7654 0.0
C1298 C 0.43277 0.89728 0.77996 0.0
C1299 C 0.41112 0.88014 0.77741 0.0
C1300 C 0.39766 0.86925 0.7912 0.0
C1301 C 0.40572 0.87524 0.80761 0.0
C1302 C 0.42728 0.89211 0.81026 0.0
C1303 C 0.44081 0.90307 0.7965 0.0
H1304 H 0.39527 0.86679 0.81828 0.0
H1305 H 0.5291 0.97889 0.68755 0.0
H1306 H 0.44539 0.40025 0.93239 0.0
H1307 H 0.48012 0.43435 0.92844 0.0
H1308 H 0.50679 0.3988 0.90275 0.0
H1309 H 0.47219 0.36443 0.90709 0.0
H1310 H 0.53524 0.42685 0.92575 0.0
H1311 H 0.49236 0.43075 0.88069 0.0
H1312 H 0.46014 0.42953 0.8673 0.0
H1313 H 0.46901 0.48387 0.89773 0.0
H1314 H 0.50112 0.48521 0.91149 0.0
H1315 H 0.62979 0.52281 0.89485 0.0
H1316 H 0.59543 0.48787 0.89682 0.0
H1317 H 0.56624 0.51927 0.92492 0.0
H1318 H 0.6007 0.55424 0.92336 0.0
H1319 H 0.53944 0.49282 0.89938 0.0
H1320 H 0.58176 0.48776 0.94504 0.0
H1321 H 0.61409 0.48883 0.95809 0.0
H1322 H 0.60638 0.43641 0.92581 0.0
H1323 H 0.57416 0.43524 0.91239 0.0
C1324 C 0.45866 0.39966 0.92595 0.0
C1325 C 0.45606 0.37963 0.92007 0.0
C1326 C 0.47844 0.4192 0.92356 0.0
C1327 C 0.49597 0.41915 0.91516 0.0
C1328 C 0.49343 0.39921 0.90922 0.0
C1329 C 0.47361 0.37962 0.91159 0.0
C1330 C 0.51714 0.43987 0.91305 0.0
C1331 C 0.53623 0.44117 0.91973 0.0
C1332 C 0.51833 0.45868 0.90549 0.0
C1333 C 0.49903 0.45795 0.89723 0.0
C1334 C 0.48734 0.44232 0.88463 0.0
C1335 C 0.46911 0.44163 0.87695 0.0
C1336 C 0.4625 0.45658 0.88169 0.0
C1337 C 0.47413 0.47228 0.89409 0.0
C1338 C 0.49236 0.47303 0.90182 0.0
C1339 C 0.61619 0.52226 0.90168 0.0
C1340 C 0.61807 0.54136 0.90902 0.0
C1341 C 0.59653 0.50229 0.90271 0.0
C1342 C 0.57835 0.50098 0.9111 0.0
C1343 C 0.58008 0.51997 0.91834 0.0
C1344 C 0.59977 0.53995 0.91739 0.0
C1345 C 0.55746 0.47982 0.9122 0.0
C1346 C 0.53844 0.47846 0.90532 0.0
C1347 C 0.55635 0.46094 0.91951 0.0
C1348 C 0.57569 0.46158 0.92759 0.0
C1349 C 0.58707 0.47659 0.94062 0.0
C1350 C 0.60536 0.47719 0.94811 0.0
C1351 C 0.61233 0.46274 0.94275 0.0
C1352 C 0.60099 0.44762 0.92993 0.0
C1353 C 0.5827 0.44697 0.92238 0.0
H1354 H 0.62649 0.46323 0.94856 0.0
H1355 H 0.44838 0.45602 0.87573 0.0
H1356 H 0.12802 0.33474 0.01344 0.0
H1357 H 0.15356 0.33088 0.99464 0.0
H1358 H 0.17944 0.31267 0.0371 0.0
H1359 H 0.15471 0.31729 0.05594 0.0
H1360 H 0.21179 0.34083 0.01784 0.0
H1361 H 0.14275 0.27435 0.00917 0.0
H1362 H 0.1035 0.25239 0.00185 0.0
H1363 H 0.11709 0.28078 0.95227 0.0
H1364 H 0.15641 0.30314 0.95939 0.0
H1365 H 0.25529 0.27781 0.98417 0.0
H1366 H 0.22953 0.28725 0.99715 0.0
H1367 H 0.23035 0.32198 0.95209 0.0
H1368 H 0.25661 0.31289 0.93907 0.0
H1369 H 0.18553 0.28957 0.96917 0.0
H1370 H 0.25634 0.35367 0.97826 0.0
H1371 H 0.29537 0.37296 0.98648 0.0
H1372 H 0.27777 0.34636 0.0365 0.0
H1373 H 0.23863 0.32659 0.02848 0.0
C1374 C 0.13927 0.33007 0.01876 0.0
C1375 C 0.13917 0.32612 0.03618 0.0
C1376 C 0.15373 0.3277 0.00799 0.0
C1377 C 0.16828 0.32128 0.01444 0.0
C1378 C 0.16835 0.3176 0.03183 0.0
C1379 C 0.154 0.32 0.04256 0.0
C1380 C 0.18352 0.31832 0.00325 0.0
C1381 C 0.20599 0.32958 0.00722 0.0
C1382 C 0.17608 0.30399 0.98917 0.0
C1383 C 0.15246 0.29062 0.98488 0.0
C1384 C 0.13733 0.27606 0.99676 0.0
C1385 C 0.11508 0.26351 0.99264 0.0
C1386 C 0.10779 0.26525 0.97662 0.0
C1387 C 0.12275 0.27949 0.96468 0.0
C1388 C 0.14502 0.2921 0.96875 0.0
C1389 C 0.24979 0.28724 0.97696 0.0
C1390 C 0.25783 0.29458 0.96062 0.0
C1391 C 0.23517 0.29268 0.9844 0.0
C1392 C 0.22812 0.3053 0.97555 0.0
C1393 C 0.23563 0.31218 0.95905 0.0
C1394 C 0.25062 0.30708 0.95169 0.0
C1395 C 0.21353 0.3118 0.98401 0.0
C1396 C 0.19127 0.30115 0.97957 0.0
C1397 C 0.22107 0.32649 0.99779 0.0
C1398 C 0.24457 0.33849 0.00272 0.0
C1399 C 0.26081 0.35176 0.99096 0.0
C1400 C 0.28295 0.36282 0.9956 0.0
C1401 C 0.28905 0.36085 0.01199 0.0
C1402 C 0.27302 0.34785 0.0238 0.0
C1403 C 0.25085 0.33674 0.01922 0.0
H1404 H 0.3062 0.36942 0.01556 0.0
H1405 H 0.09056 0.25551 0.97345 0.0
H1406 H 0.83149 0.11812 0.20874 0.0
H1407 H 0.86212 0.14186 0.19035 0.0
H1408 H 0.82601 0.17223 0.17192 0.0
H1409 H 0.7954 0.14895 0.19069 0.0
H1410 H 0.8518 0.16378 0.1464 0.0
H1411 H 0.85892 0.19804 0.20064 0.0
H1412 H 0.85936 0.19887 0.23174 0.0
H1413 H 0.91325 0.18647 0.23217 0.0
H1414 H 0.91288 0.1852 0.20105 0.0
H1415 H 0.94492 0.26273 0.11619 0.0
H1416 H 0.91026 0.23433 0.12847 0.0
H1417 H 0.94588 0.21179 0.15906 0.0
H1418 H 0.98048 0.2406 0.14724 0.0
H1419 H 0.91875 0.21626 0.17783 0.0
H1420 H 0.91272 0.18222 0.12413 0.0
H1421 H 0.91218 0.17977 0.09308 0.0
H1422 H 0.85707 0.19022 0.09126 0.0
H1423 H 0.85746 0.19302 0.1223 0.0
C1424 C 0.82997 0.12977 0.20074 0.0
C1425 C 0.81113 0.13189 0.20141 0.0
C1426 C 0.84742 0.14318 0.19014 0.0
C1427 C 0.84635 0.15889 0.17993 0.0
C1428 C 0.82707 0.16013 0.1797 0.0
C1429 C 0.8096 0.14679 0.19042 0.0
C1430 C 0.86619 0.17535 0.17087 0.0
C1431 C 0.86641 0.17547 0.15319 0.0
C1432 C 0.88528 0.19024 0.17982 0.0
C1433 C 0.88573 0.19131 0.19853 0.0
C1434 C 0.87075 0.19532 0.20737 0.0
C1435 C 0.871 0.19589 0.225 0.0
C1436 C 0.88629 0.19267 0.23393 0.0
C1437 C 0.9014 0.18893 0.22524 0.0
C1438 C 0.90118 0.1883 0.20761 0.0
C1439 C 0.94523 0.25147 0.12537 0.0
C1440 C 0.96529 0.25386 0.13087 0.0
C1441 C 0.92545 0.23521 0.13233 0.0
C1442 C 0.9254 0.22079 0.14464 0.0
C1443 C 0.94547 0.22277 0.14967 0.0
C1444 C 0.96521 0.2392 0.14292 0.0
C1445 C 0.90474 0.20461 0.15317 0.0
C1446 C 0.90427 0.20461 0.17088 0.0
C1447 C 0.88555 0.18975 0.14419 0.0
C1448 C 0.88527 0.18805 0.12553 0.0
C1449 C 0.9006 0.18417 0.1171 0.0
C1450 C 0.9003 0.18269 0.0995 0.0
C1451 C 0.88464 0.1849 0.0902 0.0
C1452 C 0.86921 0.18854 0.09848 0.0
C1453 C 0.86945 0.19006 0.11607 0.0
H1454 H 0.88444 0.18374 0.07658 0.0
H1455 H 0.88646 0.19312 0.24758 0.0
H1456 H 0.71332 0.83399 0.37892 0.0
H1457 H 0.72065 0.86513 0.36097 0.0
H1458 H 0.65533 0.82872 0.34032 0.0
H1459 H 0.64757 0.79758 0.3586 0.0
H1460 H 0.6896 0.85474 0.31594 0.0
H1461 H 0.6617 0.86174 0.3698 0.0
H1462 H 0.66078 0.86235 0.40088 0.0
H1463 H 0.72684 0.91667 0.40174 0.0
H1464 H 0.72827 0.91614 0.37064 0.0
H1465 H 0.68222 0.94659 0.28523 0.0
H1466 H 0.67656 0.91232 0.2978 0.0
H1467 H 0.73483 0.949 0.32807 0.0
H1468 H 0.7401 0.98323 0.31589 0.0
H1469 H 0.70329 0.92165 0.34705 0.0
H1470 H 0.73187 0.91583 0.29363 0.0
H1471 H 0.73406 0.91523 0.26261 0.0
H1472 H 0.66887 0.85953 0.26059 0.0
H1473 H 0.66618 0.85997 0.29161 0.0
C1474 C 0.70049 0.83254 0.37055 0.0
C1475 C 0.67973 0.81339 0.3704 0.0
C1476 C 0.70478 0.8503 0.36021 0.0
C1477 C 0.68845 0.84926 0.34947 0.0
C1478 C 0.66814 0.82978 0.34853 0.0
C1479 C 0.66377 0.812 0.35896 0.0
C1480 C 0.69206 0.86916 0.34036 0.0
C1481 C 0.69236 0.86934 0.32267 0.0
C1482 C 0.69608 0.88825 0.34922 0.0
C1483 C 0.69516 0.88875 0.36791 0.0
C1484 C 0.67609 0.8737 0.37662 0.0
C1485 C 0.67547 0.87405 0.39424 0.0
C1486 C 0.69376 0.8895 0.40328 0.0
C1487 C 0.71269 0.90468 0.39472 0.0
C1488 C 0.71341 0.90437 0.3771 0.0
C1489 C 0.69395 0.94724 0.29439 0.0
C1490 C 0.71152 0.96751 0.29967 0.0
C1491 C 0.69076 0.92766 0.30153 0.0
C1492 C 0.70535 0.92803 0.31383 0.0
C1493 C 0.72329 0.94828 0.31869 0.0
C1494 C 0.7263 0.96782 0.31173 0.0
C1495 C 0.70122 0.90756 0.32248 0.0
C1496 C 0.70066 0.90718 0.34019 0.0
C1497 C 0.69716 0.8884 0.31359 0.0
C1498 C 0.69874 0.88807 0.29494 0.0
C1499 C 0.71793 0.90356 0.28657 0.0
C1500 C 0.71928 0.90323 0.26899 0.0
C1501 C 0.70159 0.88739 0.25963 0.0
C1502 C 0.68255 0.87181 0.26785 0.0
C1503 C 0.68111 0.87208 0.28543 0.0
H1504 H 0.70267 0.88716 0.24602 0.0
H1505 H 0.69325 0.88975 0.41692 0.0
H1506 H 0.73664 0.68128 0.44738 0.0
H1507 H 0.76474 0.67401 0.45916 0.0
H1508 H 0.78238 0.72578 0.49554 0.0
H1509 H 0.75403 0.73274 0.48407 0.0
H1510 H 0.81921 0.72433 0.47841 0.0
H1511 H 0.75128 0.67908 0.50914 0.0
H1512 H 0.71197 0.65138 0.51109 0.0
H1513 H 0.7242 0.60391 0.48691 0.0
H1514 H 0.76358 0.63148 0.48458 0.0
H1515 H 0.87238 0.70713 0.54657 0.0
H1516 H 0.84952 0.71349 0.52694 0.0
H1517 H 0.82712 0.64981 0.50463 0.0
H1518 H 0.84927 0.64289 0.52486 0.0
H1519 H 0.79357 0.65516 0.51052 0.0
H1520 H 0.86192 0.69788 0.48312 0.0
H1521 H 0.90127 0.72503 0.48024 0.0
H1522 H 0.88914 0.77632 0.49623 0.0
H1523 H 0.84974 0.74944 0.49946 0.0
C1524 C 0.74672 0.69122 0.45777 0.0
C1525 C 0.74322 0.70748 0.46491 0.0
C1526 C 0.76268 0.68705 0.46447 0.0
C1527 C 0.77555 0.69937 0.4782 0.0
C1528 C 0.77262 0.71617 0.48491 0.0
C1529 C 0.75641 0.72005 0.47843 0.0
C1530 C 0.7912 0.69397 0.48628 0.0
C1531 C 0.8137 0.70928 0.48551 0.0
C1532 C 0.78393 0.67399 0.49502 0.0
C1533 C 0.7603 0.65741 0.49648 0.0
C1534 C 0.74555 0.6628 0.50408 0.0
C1535 C 0.72327 0.64712 0.50529 0.0
C1536 C 0.71558 0.62592 0.49907 0.0
C1537 C 0.73018 0.62035 0.49168 0.0
C1538 C 0.75248 0.636 0.49042 0.0
C1539 C 0.8626 0.69445 0.5375 0.0
C1540 C 0.86254 0.67442 0.53739 0.0
C1541 C 0.84974 0.69823 0.52611 0.0
C1542 C 0.83676 0.68224 0.51415 0.0
C1543 C 0.83706 0.66243 0.5137 0.0
C1544 C 0.84987 0.65857 0.52518 0.0
C1545 C 0.8218 0.68574 0.50299 0.0
C1546 C 0.79932 0.67007 0.5032 0.0
C1547 C 0.82916 0.7053 0.49356 0.0
C1548 C 0.85287 0.72159 0.49164 0.0
C1549 C 0.86765 0.71492 0.48615 0.0
C1550 C 0.88997 0.73027 0.48443 0.0
C1551 C 0.89771 0.75238 0.48808 0.0
C1552 C 0.88312 0.75919 0.49342 0.0
C1553 C 0.86079 0.7439 0.49517 0.0
H1554 H 0.91499 0.76424 0.48674 0.0
H1555 H 0.69832 0.61379 0.50003 0.0
H1556 H 0.05298 0.73512 0.61521 0.0
H1557 H 0.08841 0.76324 0.62668 0.0
H1558 H 0.05514 0.78705 0.65859 0.0
H1559 H 0.01976 0.75909 0.64715 0.0
H1560 H 0.09382 0.82087 0.64383 0.0
H1561 H 0.06887 0.75274 0.67457 0.0
H1562 H 0.05644 0.71326 0.67688 0.0
H1563 H 0.11667 0.7242 0.65446 0.0
H1564 H 0.12932 0.76374 0.6518 0.0
H1565 H 0.16438 0.8739 0.71229 0.0
H1566 H 0.1348 0.85119 0.69286 0.0
H1567 H 0.17451 0.82649 0.67121 0.0
H1568 H 0.2038 0.8483 0.69129 0.0
H1569 H 0.13541 0.79399 0.67709 0.0
H1570 H 0.16277 0.86268 0.64942 0.0
H1571 H 0.17556 0.90218 0.64661 0.0
H1572 H 0.11221 0.89089 0.66199 0.0
H1573 H 0.09911 0.85135 0.66513 0.0
C1574 C 0.05329 0.7466 0.62446 0.0
C1575 C 0.03364 0.74485 0.6304 0.0
C1576 C 0.07349 0.76257 0.63104 0.0
C1577 C 0.07434 0.77709 0.64357 0.0
C1578 C 0.05482 0.77599 0.64894 0.0
C1579 C 0.03464 0.75993 0.64249 0.0
C1580 C 0.09531 0.79247 0.65196 0.0
C1581 C 0.10292 0.81507 0.65117 0.0
C1582 C 0.10745 0.78485 0.6611 0.0
C1583 C 0.09992 0.76113 0.6628 0.0
C1584 C 0.07938 0.7467 0.67001 0.0
C1585 C 0.07231 0.72432 0.6714 0.0
C1586 C 0.08572 0.71622 0.66577 0.0
C1587 C 0.10627 0.7305 0.65878 0.0
C1588 C 0.1134 0.75288 0.65733 0.0
C1589 C 0.16685 0.8636 0.70344 0.0
C1590 C 0.18647 0.86286 0.70346 0.0
C1591 C 0.15 0.85084 0.69214 0.0
C1592 C 0.1525 0.83731 0.68038 0.0
C1593 C 0.17223 0.83688 0.68011 0.0
C1594 C 0.18905 0.84952 0.69151 0.0
C1595 C 0.13392 0.82257 0.66923 0.0
C1596 C 0.12666 0.79999 0.66952 0.0
C1597 C 0.12222 0.83027 0.65952 0.0
C1598 C 0.13 0.85405 0.65762 0.0
C1599 C 0.1516 0.86863 0.65232 0.0
C1600 C 0.15891 0.89103 0.65065 0.0
C1601 C 0.14472 0.89904 0.65415 0.0
C1602 C 0.12319 0.88466 0.65929 0.0
C1603 C 0.1158 0.86224 0.66099 0.0
H1604 H 0.15041 0.91639 0.65285 0.0
H1605 H 0.08022 0.69889 0.66686 0.0
H1606 H 0.2697 0.01628 0.82304 0.0
H1607 H 0.27452 0.05062 0.83449 0.0
H1608 H 0.30697 0.08424 0.78864 0.0
H1609 H 0.30252 0.04982 0.77719 0.0
H1610 H 0.32987 0.10621 0.81644 0.0
H1611 H 0.25653 0.07571 0.79718 0.0
H1612 H 0.21776 0.04738 0.79316 0.0
H1613 H 0.20717 0.04471 0.84665 0.0
H1614 H 0.24597 0.0728 0.85103 0.0
H1615 H 0.33496 0.20311 0.85036 0.0
H1616 H 0.32535 0.17231 0.83105 0.0
H1617 H 0.2938 0.1267 0.87195 0.0
H1618 H 0.30323 0.15732 0.89121 0.0
H1619 H 0.26957 0.11362 0.84214 0.0
H1620 H 0.34417 0.13997 0.86109 0.0
H1621 H 0.38307 0.16799 0.86513 0.0
H1622 H 0.39097 0.17834 0.8116 0.0
H1623 H 0.35199 0.15057 0.80726 0.0
C1624 C 0.27783 0.03097 0.81538 0.0
C1625 C 0.28586 0.03041 0.79927 0.0
C1626 C 0.28038 0.05054 0.82187 0.0
C1627 C 0.29092 0.06995 0.81236 0.0
C1628 C 0.29869 0.06942 0.79615 0.0
C1629 C 0.29605 0.04976 0.7896 0.0
C1630 C 0.29488 0.09092 0.8199 0.0
C1631 C 0.31664 0.10804 0.8217 0.0
C1632 C 0.27764 0.09317 0.82698 0.0
C1633 C 0.25423 0.07628 0.82444 0.0
C1634 C 0.24599 0.06897 0.8081 0.0
C1635 C 0.22399 0.05297 0.80576 0.0
C1636 C 0.21002 0.04422 0.81964 0.0
C1637 C 0.21801 0.0515 0.83591 0.0
C1638 C 0.24001 0.06749 0.83833 0.0
C1639 C 0.32577 0.18649 0.85515 0.0
C1640 C 0.31999 0.18257 0.87229 0.0
C1641 C 0.32037 0.16896 0.84415 0.0
C1642 C 0.30899 0.14726 0.85012 0.0
C1643 C 0.30259 0.14333 0.8671 0.0
C1644 C 0.30814 0.16081 0.87811 0.0
C1645 C 0.30454 0.12858 0.83898 0.0
C1646 C 0.28272 0.11192 0.83655 0.0
C1647 C 0.32171 0.12676 0.83128 0.0
C1648 C 0.34512 0.14342 0.83387 0.0
C1649 C 0.35415 0.14837 0.85019 0.0
C1650 C 0.37622 0.16418 0.85253 0.0
C1651 C 0.38946 0.17499 0.83863 0.0
C1652 C 0.38068 0.16998 0.82235 0.0
C1653 C 0.3586 0.15421 0.81995 0.0
H1654 H 0.40655 0.18722 0.84047 0.0
H1655 H 0.19299 0.03184 0.8178 0.0
H1656 H 0.67026 0.72614 0.87749 0.0
H1657 H 0.66295 0.754 0.86584 0.0
H1658 H 0.73064 0.79249 0.85039 0.0
H1659 H 0.73835 0.76527 0.86276 0.0
H1660 H 0.71636 0.81861 0.8618 0.0
H1661 H 0.68997 0.75808 0.82276 0.0
H1662 H 0.66813 0.71933 0.81402 0.0
H1663 H 0.60871 0.71902 0.827 0.0
H1664 H 0.63024 0.75771 0.83603 0.0
H1665 H 0.71017 0.87904 0.7925 0.0
H1666 H 0.7151 0.85499 0.81204 0.0
H1667 H 0.64668 0.82396 0.8258 0.0
H1668 H 0.64153 0.84768 0.80595 0.0
H1669 H 0.65877 0.79422 0.81771 0.0
H1670 H 0.6861 0.85696 0.85369 0.0
H1671 H 0.70879 0.89599 0.86142 0.0
H1672 H 0.76736 0.89262 0.85315 0.0
H1673 H 0.74502 0.85363 0.84514 0.0
C1674 C 0.68372 0.74074 0.87194 0.0
C1675 C 0.70487 0.74334 0.87093 0.0
C1676 C 0.67945 0.75656 0.86512 0.0
C1677 C 0.69616 0.77515 0.85697 0.0
C1678 C 0.71746 0.77822 0.85654 0.0
C1679 C 0.72178 0.76251 0.86346 0.0
C1680 C 0.69131 0.79089 0.84817 0.0
C1681 C 0.70386 0.81331 0.85208 0.0
C1682 C 0.67468 0.78392 0.83574 0.0
C1683 C 0.66172 0.7607 0.83024 0.0
C1684 C 0.67226 0.7497 0.82386 0.0
C1685 C 0.65994 0.72775 0.81884 0.0
C1686 C 0.63705 0.7167 0.82 0.0
C1687 C 0.62644 0.72759 0.82614 0.0
C1688 C 0.63869 0.74953 0.8312 0.0
C1689 C 0.69621 0.86719 0.79977 0.0
C1690 C 0.67544 0.8652 0.79764 0.0
C1691 C 0.69909 0.85359 0.81105 0.0
C1692 C 0.68129 0.83778 0.82048 0.0
C1693 C 0.66065 0.83611 0.81869 0.0
C1694 C 0.65777 0.84978 0.80744 0.0
C1695 C 0.68396 0.82199 0.83121 0.0
C1696 C 0.67104 0.79953 0.82761 0.0
C1697 C 0.70037 0.82896 0.84381 0.0
C1698 C 0.71387 0.8524 0.8487 0.0
C1699 C 0.70382 0.86458 0.8534 0.0
C1700 C 0.71662 0.88669 0.85785 0.0
C1701 C 0.7395 0.89679 0.85775 0.0
C1702 C 0.74963 0.88478 0.85322 0.0
C1703 C 0.73691 0.86266 0.84875 0.0
H1704 H 0.74938 0.91391 0.8612 0.0
H1705 H 0.62754 0.69971 0.81611 0.0
H1706 H 0.79922 0.65735 0.97758 0.0
H1707 H 0.83073 0.66635 0.99582 0.0
H1708 H 0.87312 0.71779 0.96149 0.0
H1709 H 0.84176 0.70915 0.94337 0.0
H1710 H 0.88834 0.68993 0.96883 0.0
H1711 H 0.86044 0.73013 0.99935 0.0
H1712 H 0.83227 0.73453 0.01451 0.0
H1713 H 0.82612 0.68683 0.05117 0.0
H1714 H 0.85405 0.68192 0.03608 0.0
H1715 H 0.98731 0.73949 0.01274 0.0
H1716 H 0.95359 0.73412 0.9995 0.0
H1717 H 0.91515 0.68648 0.03764 0.0
H1718 H 0.94902 0.69225 0.0512 0.0
H1719 H 0.89674 0.71078 0.02932 0.0
H1720 H 0.92364 0.66995 0.99951 0.0
H1721 H 0.95119 0.66424 0.98465 0.0
H1722 H 0.9579 0.71084 0.94677 0.0
H1723 H 0.93062 0.71708 0.96155 0.0
C1724 C 0.81518 0.67086 0.97409 0.0
C1725 C 0.81802 0.68241 0.95894 0.0
C1726 C 0.83317 0.67595 0.98451 0.0
C1727 C 0.85426 0.69273 0.97999 0.0
C1728 C 0.857 0.70469 0.96515 0.0
C1729 C 0.83908 0.69966 0.95478 0.0
C1730 C 0.87376 0.69698 0.99005 0.0
C1731 C 0.89031 0.69479 0.98199 0.0
C1732 C 0.87592 0.70251 0.00738 0.0
C1733 C 0.85917 0.70549 0.01648 0.0
C1734 C 0.85294 0.72044 0.01056 0.0
C1735 C 0.83705 0.72305 0.01916 0.0
C1736 C 0.82737 0.71092 0.03377 0.0
C1737 C 0.83361 0.69619 0.03984 0.0
C1738 C 0.84948 0.6935 0.03128 0.0
C1739 C 0.97165 0.72802 0.01837 0.0
C1740 C 0.97069 0.71606 0.03285 0.0
C1741 C 0.95242 0.72495 0.01081 0.0
C1742 C 0.93184 0.70952 0.01736 0.0
C1743 C 0.93085 0.69838 0.03233 0.0
C1744 C 0.95016 0.70167 0.04005 0.0
C1745 C 0.91151 0.70417 0.00797 0.0
C1746 C 0.89476 0.70596 0.01615 0.0
C1747 C 0.90898 0.69801 0.99075 0.0
C1748 C 0.92522 0.69412 0.98172 0.0
C1749 C 0.93109 0.67908 0.98807 0.0
C1750 C 0.94665 0.67574 0.97966 0.0
C1751 C 0.95632 0.68721 0.9648 0.0
C1752 C 0.95041 0.70199 0.95829 0.0
C1753 C 0.93489 0.70542 0.96667 0.0
H1754 H 0.96836 0.68461 0.9583 0.0
H1755 H 0.81506 0.71297 0.04041 0.0
H1756 H 0.23471 0.95831 0.22107 0.0
H1757 H 0.20763 0.92469 0.20663 0.0
H1758 H 0.25788 0.93017 0.17249 0.0
H1759 H 0.28479 0.9638 0.18657 0.0
H1760 H 0.22098 0.92423 0.15612 0.0
H1761 H 0.23887 0.89205 0.20314 0.0
H1762 H 0.24251 0.88592 0.23331 0.0
H1763 H 0.17369 0.86181 0.24064 0.0
H1764 H 0.1697 0.86808 0.21054 0.0
H1765 H 0.17275 0.82524 0.11241 0.0
H1766 H 0.19635 0.85559 0.13108 0.0
H1767 H 0.14144 0.83831 0.16429 0.0
H1768 H 0.11785 0.80732 0.14577 0.0
H1769 H 0.17757 0.85062 0.18227 0.0
H1770 H 0.15855 0.88091 0.13585 0.0
H1771 H 0.15387 0.88731 0.10594 0.0
H1772 H 0.22322 0.916 0.09785 0.0
H1773 H 0.22828 0.90948 0.12767 0.0
C1774 C 0.23996 0.95225 0.21054 0.0
C1775 C 0.26191 0.96367 0.205 0.0
C1776 C 0.22453 0.933 0.20238 0.0
C1777 C 0.23079 0.92492 0.18854 0.0
C1778 C 0.25273 0.93611 0.18317 0.0
C1779 C 0.26813 0.95523 0.19134 0.0
C1780 C 0.21443 0.90545 0.17899 0.0
C1781 C 0.21165 0.90809 0.1618 0.0
C1782 C 0.20165 0.8846 0.18657 0.0
C1783 C 0.20404 0.88077 0.20463 0.0
C1784 C 0.22455 0.88562 0.21122 0.0
C1785 C 0.22667 0.88208 0.2283 0.0
C1786 C 0.20836 0.87354 0.2389 0.0
C1787 C 0.18787 0.86846 0.23242 0.0
C1788 C 0.18567 0.87199 0.21535 0.0
C1789 C 0.16574 0.82789 0.12372 0.0
C1790 C 0.14345 0.81416 0.12757 0.0
C1791 C 0.17921 0.84525 0.13436 0.0
C1792 C 0.17055 0.84958 0.14888 0.0
C1793 C 0.14844 0.83537 0.1531 0.0
C1794 C 0.13499 0.81772 0.14254 0.0
C1795 C 0.18456 0.8693 0.15927 0.0
C1796 C 0.1868 0.86678 0.17661 0.0
C1797 C 0.1967 0.89039 0.15189 0.0
C1798 C 0.19376 0.89455 0.13397 0.0
C1799 C 0.17278 0.88846 0.12767 0.0
C1800 C 0.17006 0.89212 0.11073 0.0
C1801 C 0.18823 0.90202 0.1 0.0
C1802 C 0.20916 0.90833 0.10618 0.0
C1803 C 0.21197 0.90467 0.12311 0.0
H1804 H 0.18608 0.90483 0.08689 0.0
H1805 H 0.21003 0.87081 0.25212 0.0
H1806 H 0.2989 0.11402 0.30574 0.0
H1807 H 0.29127 0.13584 0.32574 0.0
H1808 H 0.35093 0.19402 0.31066 0.0
H1809 H 0.35916 0.1722 0.29126 0.0
H1810 H 0.34559 0.19431 0.34368 0.0
H1811 H 0.30029 0.18125 0.29447 0.0
H1812 H 0.27264 0.15843 0.27318 0.0
H1813 H 0.2244 0.12716 0.31216 0.0
H1814 H 0.25187 0.1496 0.33372 0.0
H1815 H 0.32421 0.28076 0.35987 0.0
H1816 H 0.33158 0.25318 0.34792 0.0
H1817 H 0.27265 0.20183 0.37094 0.0
H1818 H 0.26537 0.22941 0.3834 0.0
H1819 H 0.27565 0.19472 0.33711 0.0
H1820 H 0.32104 0.2122 0.38599 0.0
H1821 H 0.34919 0.23643 0.40644 0.0
H1822 H 0.39785 0.26097 0.36726 0.0
H1823 H 0.36993 0.23712 0.34651 0.0
C1824 C 0.3106 0.13139 0.3069 0.0
C1825 C 0.32954 0.1414 0.29675 0.0
C1826 C 0.3061 0.14388 0.31823 0.0
C1827 C 0.32034 0.16664 0.3195 0.0
C1828 C 0.33964 0.17651 0.30985 0.0
C1829 C 0.3442 0.16404 0.29861 0.0
C1830 C 0.31484 0.18045 0.33032 0.0
C1831 C 0.33035 0.19449 0.34218 0.0
C1832 C 0.29473 0.18034 0.32865 0.0
C1833 C 0.27819 0.1669 0.31571 0.0
C1834 C 0.28383 0.16938 0.29851 0.0
C1835 C 0.26819 0.15654 0.2864 0.0
C1836 C 0.2468 0.14131 0.29132 0.0
C1837 C 0.24099 0.13893 0.30837 0.0
C1838 C 0.25658 0.15171 0.32054 0.0
C1839 C 0.31305 0.26366 0.36278 0.0
C1840 C 0.29421 0.25736 0.37267 0.0
C1841 C 0.31727 0.24789 0.35586 0.0
C1842 C 0.30275 0.22547 0.35865 0.0
C1843 C 0.28406 0.21906 0.36865 0.0
C1844 C 0.27988 0.23485 0.37568 0.0
C1845 C 0.30655 0.20883 0.35025 0.0
C1846 C 0.29073 0.19429 0.33882 0.0
C1847 C 0.32645 0.20865 0.3522 0.0
C1848 C 0.34334 0.22297 0.36466 0.0
C1849 C 0.33771 0.22288 0.3817 0.0
C1850 C 0.35363 0.23653 0.39336 0.0
C1851 C 0.37528 0.25026 0.38815 0.0
C1852 C 0.38107 0.25033 0.37128 0.0
C1853 C 0.3652 0.23673 0.35957 0.0
H1854 H 0.38758 0.26081 0.39719 0.0
H1855 H 0.23471 0.13138 0.28193 0.0
H1856 H 0.18001 0.35389 0.45267 0.0
H1857 H 0.15161 0.34736 0.47309 0.0
H1858 H 0.1603 0.29698 0.49675 0.0
H1859 H 0.18808 0.30262 0.47563 0.0
H1860 H 0.11844 0.28291 0.4927 0.0
H1861 H 0.17743 0.34755 0.51627 0.0
H1862 H 0.20904 0.38524 0.51662 0.0
H1863 H 0.16756 0.41031 0.50035 0.0
H1864 H 0.13575 0.37274 0.49967 0.0
H1865 H 0.03757 0.27351 0.55226 0.0
H1866 H 0.07334 0.28077 0.54159 0.0
H1867 H 0.07525 0.32975 0.50777 0.0
H1868 H 0.03992 0.32296 0.51861 0.0
H1869 H 0.11503 0.34323 0.52237 0.0
H1870 H 0.05812 0.27768 0.49437 0.0
H1871 H 0.02662 0.2399 0.49391 0.0
H1872 H 0.06512 0.21672 0.51925 0.0
H1873 H 0.09677 0.25444 0.52005 0.0
C1874 C 0.17585 0.34132 0.46214 0.0
C1875 C 0.18622 0.32864 0.46239 0.0
C1876 C 0.15981 0.33784 0.47401 0.0
C1877 C 0.15402 0.32191 0.48666 0.0
C1878 C 0.16459 0.30946 0.48717 0.0
C1879 C 0.18059 0.31282 0.47517 0.0
C1880 C 0.13593 0.31747 0.49854 0.0
C1881 C 0.11796 0.29603 0.49952 0.0
C1882 C 0.13513 0.33459 0.50734 0.0
C1883 C 0.1542 0.35728 0.50785 0.0
C1884 C 0.17507 0.36108 0.51267 0.0
C1885 C 0.19302 0.38243 0.51294 0.0
C1886 C 0.19031 0.40015 0.50849 0.0
C1887 C 0.16963 0.39656 0.5038 0.0
C1888 C 0.15162 0.37524 0.5035 0.0
C1889 C 0.0458 0.28605 0.54273 0.0
C1890 C 0.03586 0.29753 0.53615 0.0
C1891 C 0.06614 0.29008 0.53658 0.0
C1892 C 0.07683 0.30564 0.52377 0.0
C1893 C 0.06728 0.31764 0.51764 0.0
C1894 C 0.04699 0.3136 0.52373 0.0
C1895 C 0.09743 0.30889 0.51602 0.0
C1896 C 0.11582 0.33008 0.51585 0.0
C1897 C 0.09867 0.29155 0.50804 0.0
C1898 C 0.0797 0.26889 0.50745 0.0
C1899 C 0.0598 0.26454 0.49995 0.0
C1900 C 0.04194 0.24314 0.49961 0.0
C1901 C 0.04385 0.22593 0.50659 0.0
C1902 C 0.06365 0.23007 0.51388 0.0
C1903 C 0.08155 0.25146 0.51427 0.0
H1904 H 0.03 0.20937 0.50632 0.0
H1905 H 0.20424 0.41667 0.5087 0.0
H1906 H 0.83431 0.17176 0.61063 0.0
H1907 H 0.80983 0.14305 0.63015 0.0
H1908 H 0.85685 0.17413 0.67028 0.0
H1909 H 0.88163 0.20304 0.65064 0.0
H1910 H 0.84053 0.12869 0.66779 0.0
H1911 H 0.81221 0.17741 0.67174 0.0
H1912 H 0.79892 0.20164 0.66115 0.0
H1913 H 0.74556 0.14709 0.63584 0.0
H1914 H 0.75871 0.12257 0.64606 0.0
H1915 H 0.76009 0.04649 0.7224 0.0
H1916 H 0.787 0.08263 0.71128 0.0
H1917 H 0.74905 0.06894 0.66556 0.0
H1918 H 0.72186 0.03328 0.67676 0.0
H1919 H 0.76313 0.10998 0.67592 0.0
H1920 H 0.79465 0.06314 0.66784 0.0
H1921 H 0.80815 0.03855 0.67719 0.0
H1922 H 0.85544 0.08931 0.70935 0.0
H1923 H 0.84202 0.11412 0.70035 0.0
C1924 C 0.83946 0.17246 0.62361 0.0
C1925 C 0.85991 0.18952 0.62912 0.0
C1926 C 0.8254 0.15617 0.63477 0.0
C1927 C 0.83146 0.15658 0.65168 0.0
C1928 C 0.85186 0.1736 0.65729 0.0
C1929 C 0.86591 0.1901 0.64611 0.0
C1930 C 0.8166 0.13865 0.66317 0.0
C1931 C 0.82374 0.12486 0.66993 0.0
C1932 C 0.79463 0.13352 0.6657 0.0
C1933 C 0.78654 0.14817 0.6596 0.0
C1934 C 0.79773 0.1706 0.66381 0.0
C1935 C 0.79021 0.18439 0.65789 0.0
C1936 C 0.77143 0.17592 0.64781 0.0
C1937 C 0.76011 0.15363 0.64366 0.0
C1938 C 0.76757 0.13977 0.64953 0.0
C1939 C 0.75737 0.05131 0.71006 0.0
C1940 C 0.73893 0.03693 0.7004 0.0
C1941 C 0.77284 0.07189 0.70368 0.0
C1942 C 0.77014 0.07839 0.68751 0.0
C1943 C 0.7515 0.06426 0.67804 0.0
C1944 C 0.73608 0.04377 0.6844 0.0
C1945 C 0.78685 0.09963 0.6801 0.0
C1946 C 0.78004 0.11404 0.6741 0.0
C1947 C 0.80908 0.10526 0.67819 0.0
C1948 C 0.81715 0.09037 0.68359 0.0
C1949 C 0.8078 0.06899 0.67702 0.0
C1950 C 0.81546 0.05503 0.68223 0.0
C1951 C 0.83259 0.06234 0.6939 0.0
C1952 C 0.84214 0.08365 0.70035 0.0
C1953 C 0.83452 0.09767 0.69519 0.0
H1954 H 0.8385 0.05151 0.69792 0.0
H1955 H 0.76563 0.18662 0.64324 0.0
H1956 H 0.21966 0.38795 0.31741 0.0
H1957 H 0.20321 0.39021 0.29075 0.0
H1958 H 0.21905 0.34408 0.26814 0.0
H1959 H 0.23537 0.34161 0.29483 0.0
H1960 H 0.22882 0.3821 0.24759 0.0
H1961 H 0.1699 0.3248 0.28023 0.0
H1962 H 0.14677 0.30968 0.30556 0.0
H1963 H 0.12669 0.35797 0.30152 0.0
H1964 H 0.14998 0.37361 0.27629 0.0
H1965 H 0.16031 0.34699 0.1756 0.0
H1966 H 0.18003 0.3499 0.20171 0.0
H1967 H 0.15065 0.38434 0.22523 0.0
H1968 H 0.13059 0.38116 0.19917 0.0
H1969 H 0.14866 0.35444 0.24578 0.0
H1970 H 0.20529 0.41111 0.21292 0.0
H1971 H 0.22893 0.42795 0.18808 0.0
H1972 H 0.25414 0.38381 0.19285 0.0
H1973 H 0.23041 0.36648 0.2176 0.0
C1974 C 0.21981 0.37848 0.30669 0.0
C1975 C 0.22868 0.36455 0.30814 0.0
C1976 C 0.21037 0.37972 0.29153 0.0
C1977 C 0.20987 0.36724 0.27756 0.0
C1978 C 0.21931 0.35383 0.27882 0.0
C1979 C 0.22847 0.35233 0.29405 0.0
C1980 C 0.19875 0.36751 0.26181 0.0
C1981 C 0.21126 0.37586 0.24709 0.0
C1982 C 0.17598 0.35999 0.26139 0.0
C1983 C 0.16187 0.35053 0.27649 0.0
C1984 C 0.16071 0.33233 0.28483 0.0
C1985 C 0.14754 0.32364 0.29915 0.0
C1986 C 0.13532 0.3329 0.30517 0.0
C1987 C 0.13619 0.35084 0.29686 0.0
C1988 C 0.14937 0.35961 0.28254 0.0
C1989 C 0.15826 0.3554 0.18627 0.0
C1990 C 0.14396 0.3639 0.18534 0.0
C1991 C 0.16956 0.35709 0.20119 0.0
C1992 C 0.16706 0.3676 0.21538 0.0
C1993 C 0.15283 0.37616 0.21445 0.0
C1994 C 0.14137 0.37431 0.19957 0.0
C1995 C 0.17867 0.36893 0.23137 0.0
C1996 C 0.16625 0.36085 0.24619 0.0
C1997 C 0.20159 0.37698 0.23191 0.0
C1998 C 0.21591 0.38736 0.21703 0.0
C1999 C 0.21574 0.40487 0.2086 0.0
C2000 C 0.22918 0.41453 0.19454 0.0
C2001 C 0.24299 0.40692 0.18886 0.0
C2002 C 0.24342 0.38967 0.19725 0.0
C2003 C 0.22999 0.37993 0.21131 0.0
H2004 H 0.25339 0.41442 0.17798 0.0
H2005 H 0.12513 0.32615 0.31626 0.0
H2006 H 0.88269 0.24638 0.46203 0.0
H2007 H 0.86318 0.22933 0.4358 0.0
H2008 H 0.80847 0.18029 0.46448 0.0
H2009 H 0.82797 0.19716 0.49076 0.0
H2010 H 0.82184 0.16278 0.43869 0.0
H2011 H 0.80367 0.21968 0.44598 0.0
H2012 H 0.81171 0.25766 0.45057 0.0
H2013 H 0.84945 0.27801 0.40485 0.0
H2014 H 0.8419 0.2402 0.40011 0.0
H2015 H 0.74903 0.11469 0.37021 0.0
H2016 H 0.76526 0.13298 0.39696 0.0
H2017 H 0.81651 0.18796 0.36984 0.0
H2018 H 0.79991 0.16996 0.34306 0.0
H2019 H 0.80409 0.20246 0.39538 0.0
H2020 H 0.8244 0.14723 0.38827 0.0
H2021 H 0.81811 0.10989 0.38338 0.0
H2022 H 0.77876 0.08717 0.42823 0.0
H2023 H 0.78457 0.12432 0.43327 0.0
C2024 C 0.86651 0.23196 0.46273 0.0
C2025 C 0.85683 0.22309 0.47843 0.0
C2026 C 0.85534 0.22234 0.44776 0.0
C2027 C 0.83434 0.20365 0.44823 0.0
C2028 C 0.82464 0.19475 0.46387 0.0
C2029 C 0.83572 0.20447 0.47885 0.0
C2030 C 0.82278 0.193 0.43238 0.0
C2031 C 0.81763 0.17131 0.42931 0.0
C2032 C 0.81792 0.20441 0.41999 0.0
C2033 C 0.82238 0.22714 0.42278 0.0
C2034 C 0.81383 0.23229 0.43698 0.0
C2035 C 0.81827 0.25378 0.43959 0.0
C2036 C 0.83113 0.27025 0.42803 0.0
C2037 C 0.83952 0.26525 0.4138 0.0
C2038 C 0.83515 0.24378 0.41114 0.0
C2039 C 0.76375 0.13069 0.36999 0.0
C2040 C 0.77332 0.14087 0.3546 0.0
C2041 C 0.77304 0.14111 0.38526 0.0
C2042 C 0.79236 0.16168 0.38543 0.0
C2043 C 0.80163 0.17209 0.37004 0.0
C2044 C 0.79215 0.16181 0.35476 0.0
C2045 C 0.80313 0.17217 0.40162 0.0
C2046 C 0.80819 0.19385 0.40476 0.0
C2047 C 0.80817 0.16084 0.41401 0.0
C2048 C 0.80474 0.13851 0.41106 0.0
C2049 C 0.81428 0.13423 0.39703 0.0
C2050 C 0.81082 0.11311 0.39424 0.0
C2051 C 0.79799 0.09616 0.40546 0.0
C2052 C 0.78866 0.10031 0.41953 0.0
C2053 C 0.79204 0.1214 0.42237 0.0
H2054 H 0.79533 0.07981 0.40328 0.0
H2055 H 0.83454 0.28688 0.43008 0.0
H2056 H 0.62054 0.82619 0.65589 0.0
H2057 H 0.61766 0.80749 0.62922 0.0
H2058 H 0.65106 0.86995 0.60365 0.0
H2059 H 0.65335 0.88873 0.63017 0.0
H2060 H 0.61695 0.84027 0.58531 0.0
H2061 H 0.67825 0.84328 0.61428 0.0
H2062 H 0.6975 0.83763 0.63805 0.0
H2063 H 0.65343 0.76805 0.63544 0.0
H2064 H 0.6337 0.77331 0.6118 0.0
H2065 H 0.65487 0.8097 0.51242 0.0
H2066 H 0.65228 0.82602 0.53886 0.0
H2067 H 0.61227 0.76154 0.56014 0.0
H2068 H 0.61392 0.74493 0.53351 0.0
H2069 H 0.64802 0.79078 0.58075 0.0
H2070 H 0.58794 0.78834 0.55045 0.0
H2071 H 0.56978 0.79475 0.5263 0.0
H2072 H 0.61299 0.8643 0.53097 0.0
H2073 H 0.63165 0.85827 0.555 0.0
C2074 C 0.62704 0.83594 0.64456 0.0
C2075 C 0.63729 0.85896 0.64517 0.0
C2076 C 0.62555 0.82523 0.62935 0.0
C2077 C 0.6344 0.83735 0.61449 0.0
C2078 C 0.64421 0.86029 0.61498 0.0
C2079 C 0.64569 0.871 0.63018 0.0
C2080 C 0.63376 0.82616 0.59846 0.0
C2081 C 0.62395 0.82963 0.58426 0.0
C2082 C 0.6425 0.81194 0.5972 0.0
C2083 C 0.65435 0.80871 0.61139 0.0
C2084 C 0.67254 0.82679 0.61887 0.0
C2085 C 0.68357 0.82365 0.6323 0.0
C2086 C 0.67665 0.8025 0.63828 0.0
C2087 C 0.65874 0.78443 0.63081 0.0
C2088 C 0.64764 0.78747 0.61739 0.0
C2089 C 0.64513 0.79891 0.52256 0.0
C2090 C 0.63458 0.77594 0.52075 0.0
C2091 C 0.6438 0.80831 0.53771 0.0
C2092 C 0.63204 0.79496 0.5514 0.0
C2093 C 0.62149 0.77209 0.54971 0.0
C2094 C 0.62258 0.76265 0.53449 0.0
C2095 C 0.63131 0.80498 0.56763 0.0
C2096 C 0.6409 0.80131 0.58185 0.0
C2097 C 0.62252 0.81914 0.56887 0.0
C2098 C 0.61134 0.82283 0.55442 0.0
C2099 C 0.59371 0.80499 0.54623 0.0
C2100 C 0.5833 0.80856 0.53258 0.0
C2101 C 0.59026 0.82992 0.52707 0.0
C2102 C 0.60763 0.84776 0.53523 0.0
C2103 C 0.61812 0.84428 0.54888 0.0
H2104 H 0.58217 0.83265 0.51651 0.0
H2105 H 0.68522 0.80011 0.64868 0.0
H2106 H 0.88856 0.65381 0.70394 0.0
H2107 H 0.86937 0.65106 0.73025 0.0
H2108 H 0.80734 0.6084 0.70609 0.0
H2109 H 0.82638 0.61187 0.67947 0.0
H2110 H 0.80458 0.63834 0.72421 0.0
H2111 H 0.83044 0.58831 0.73412 0.0
H2112 H 0.85745 0.57576 0.73545 0.0
H2113 H 0.89445 0.62499 0.77262 0.0
H2114 H 0.86783 0.63806 0.77134 0.0
H2115 H 0.74515 0.60817 0.80185 0.0
H2116 H 0.76192 0.60579 0.7755 0.0
H2117 H 0.82556 0.65489 0.7937 0.0
H2118 H 0.80894 0.65792 0.81985 0.0
H2119 H 0.82555 0.61882 0.77852 0.0
H2120 H 0.80006 0.66977 0.76693 0.0
H2121 H 0.77239 0.68147 0.76556 0.0
H2122 H 0.73362 0.62867 0.73138 0.0
H2123 H 0.76094 0.61647 0.73275 0.0
C2124 C 0.87082 0.64396 0.70416 0.0
C2125 C 0.85901 0.63309 0.68957 0.0
C2126 C 0.85988 0.64218 0.71929 0.0
C2127 C 0.83693 0.62928 0.72021 0.0
C2128 C 0.82508 0.61836 0.70569 0.0
C2129 C 0.836 0.62021 0.69052 0.0
C2130 C 0.8253 0.62785 0.73619 0.0
C2131 C 0.80891 0.63368 0.73602 0.0
C2132 C 0.83118 0.62213 0.75167 0.0
C2133 C 0.84723 0.61429 0.75252 0.0
C2134 C 0.84443 0.59658 0.74248 0.0
C2135 C 0.85966 0.58935 0.74325 0.0
C2136 C 0.87768 0.5996 0.75409 0.0
C2137 C 0.88049 0.61708 0.76422 0.0
C2138 C 0.86532 0.62439 0.76349 0.0
C2139 C 0.76269 0.61861 0.80022 0.0
C2140 C 0.77566 0.63331 0.81298 0.0
C2141 C 0.77224 0.61712 0.78519 0.0
C2142 C 0.79494 0.63024 0.78266 0.0
C2143 C 0.80801 0.64455 0.79547 0.0
C2144 C 0.79847 0.64618 0.81044 0.0
C2145 C 0.80506 0.62948 0.76648 0.0
C2146 C 0.82115 0.62327 0.76665 0.0
C2147 C 0.79879 0.63468 0.75098 0.0
C2148 C 0.78241 0.64206 0.75009 0.0
C2149 C 0.78554 0.66054 0.75924 0.0
C2150 C 0.76994 0.66728 0.75844 0.0
C2151 C 0.75122 0.65578 0.74843 0.0
C2152 C 0.7481 0.63754 0.73915 0.0
C2153 C 0.76365 0.63071 0.73993 0.0
H2154 H 0.73916 0.66103 0.74782 0.0
H2155 H 0.88945 0.59398 0.75466 0.0
H2156 H 0.21557 0.82466 0.84581 0.0
H2157 H 0.1994 0.80601 0.87249 0.0
H2158 H 0.21517 0.86805 0.89504 0.0
H2159 H 0.23175 0.88676 0.86854 0.0
H2160 H 0.2245 0.84551 0.91623 0.0
H2161 H 0.16222 0.82982 0.88163 0.0
H2162 H 0.13863 0.81636 0.85638 0.0
H2163 H 0.1289 0.75173 0.86451 0.0
H2164 H 0.15268 0.76489 0.88969 0.0
H2165 H 0.15152 0.80783 0.9861 0.0
H2166 H 0.17038 0.82433 0.95967 0.0
H2167 H 0.15928 0.76134 0.94268 0.0
H2168 H 0.1408 0.74472 0.96928 0.0
H2169 H 0.14826 0.78275 0.91871 0.0
H2170 H 0.20936 0.799 0.95473 0.0
H2171 H 0.23215 0.81318 0.98032 0.0
H2172 H 0.24316 0.8778 0.96982 0.0
H2173 H 0.22016 0.86395 0.94429 0.0
C2174 C 0.21549 0.83426 0.85646 0.0
C2175 C 0.22488 0.85714 0.85511 0.0
C2176 C 0.20623 0.82361 0.87169 0.0
C2177 C 0.20581 0.83559 0.88573 0.0
C2178 C 0.21534 0.85846 0.88441 0.0
C2179 C 0.22482 0.86914 0.86927 0.0
C2180 C 0.19547 0.82439 0.90183 0.0
C2181 C 0.20774 0.83194 0.91678 0.0
C2182 C 0.17377 0.80635 0.90254 0.0
C2183 C 0.15941 0.79839 0.88744 0.0
C2184 C 0.15518 0.81278 0.87796 0.0
C2185 C 0.14176 0.8052 0.86367 0.0
C2186 C 0.13233 0.78322 0.85882 0.0
C2187 C 0.13625 0.76876 0.86827 0.0
C2188 C 0.14968 0.77626 0.88256 0.0
C2189 C 0.1534 0.79751 0.97689 0.0
C2190 C 0.14467 0.77493 0.97986 0.0
C2191 C 0.16412 0.80697 0.96175 0.0
C2192 C 0.16634 0.79407 0.94928 0.0
C2193 C 0.15768 0.77156 0.95215 0.0
C2194 C 0.14705 0.76209 0.96734 0.0
C2195 C 0.17723 0.80404 0.93305 0.0
C2196 C 0.16505 0.79624 0.91811 0.0
C2197 C 0.19893 0.82198 0.93237 0.0
C2198 C 0.21288 0.83039 0.94767 0.0
C2199 C 0.2165 0.8162 0.95795 0.0
C2200 C 0.22948 0.82419 0.97243 0.0
C2201 C 0.23906 0.84637 0.97672 0.0
C2202 C 0.23571 0.86062 0.9665 0.0
C2203 C 0.22273 0.85271 0.95201 0.0
H2204 H 0.2491 0.85252 0.98793 0.0
H2205 H 0.12194 0.77738 0.84776 0.0
H2206 H 0.35711 0.11455 0.12933 0.0
H2207 H 0.35927 0.13369 0.10291 0.0
H2208 H 0.36692 0.18949 0.13116 0.0
H2209 H 0.36495 0.1705 0.15763 0.0
H2210 H 0.33421 0.17421 0.10504 0.0
H2211 H 0.40992 0.19457 0.11326 0.0
H2212 H 0.44033 0.18737 0.11834 0.0
H2213 H 0.42427 0.14938 0.07279 0.0
H2214 H 0.39353 0.15608 0.06757 0.0
H2215 H 0.35851 0.24724 0.03694 0.0
H2216 H 0.36022 0.2308 0.06368 0.0
H2217 H 0.3672 0.18144 0.03652 0.0
H2218 H 0.36625 0.19835 0.00976 0.0
H2219 H 0.39296 0.19373 0.06256 0.0
H2220 H 0.31725 0.17124 0.05416 0.0
H2221 H 0.28543 0.17609 0.04862 0.0
H2222 H 0.29927 0.21472 0.09367 0.0
H2223 H 0.33137 0.21036 0.09936 0.0
C2224 C 0.35926 0.1309 0.12987 0.0
C2225 C 0.36087 0.14109 0.14548 0.0
C2226 C 0.3606 0.14183 0.11481 0.0
C2227 C 0.36334 0.163 0.11513 0.0
C2228 C 0.36485 0.17317 0.13069 0.0
C2229 C 0.36383 0.16238 0.14576 0.0
C2230 C 0.36415 0.17433 0.0992 0.0
C2231 C 0.34721 0.1788 0.09583 0.0
C2232 C 0.38075 0.17962 0.08704 0.0
C2233 C 0.39928 0.17565 0.09012 0.0
C2234 C 0.41274 0.18452 0.10441 0.0
C2235 C 0.43007 0.18056 0.1073 0.0
C2236 C 0.43419 0.16788 0.09592 0.0
C2237 C 0.42103 0.15918 0.0816 0.0
C2238 C 0.40367 0.16307 0.07867 0.0
C2239 C 0.36043 0.23289 0.03672 0.0
C2240 C 0.3621 0.22395 0.02132 0.0
C2241 C 0.36134 0.22346 0.05198 0.0
C2242 C 0.3634 0.20459 0.05213 0.0
C2243 C 0.36557 0.19595 0.03674 0.0
C2244 C 0.36502 0.2056 0.02147 0.0
C2245 C 0.36298 0.1937 0.0683 0.0
C2246 C 0.37995 0.18924 0.07174 0.0
C2247 C 0.34619 0.18808 0.08043 0.0
C2248 C 0.32684 0.19066 0.07709 0.0
C2249 C 0.3136 0.18091 0.06282 0.0
C2250 C 0.2955 0.18355 0.05966 0.0
C2251 C 0.29036 0.19575 0.07076 0.0
C2252 C 0.30328 0.2053 0.08507 0.0
C2253 C 0.32142 0.20273 0.08827 0.0
H2254 H 0.27634 0.19778 0.0683 0.0
H2255 H 0.44762 0.16484 0.09818 0.0
loop_
_geom_bond_atom_site_label_1
_geom_bond_atom_site_label_2
_geom_bond_distance
_geom_bond_site_symmetry_2
_ccdc_geom_bond_type
Li0 N17 1.990 . S
Li0 O60 1.956 . S
Li0 O61 1.970 . S
Li0 O62 1.961 . S
Li1 N25 1.990 . S
Li1 O60 1.970 . S
Li1 O61 1.956 . S
Li1 O63 1.961 . S
Li2 N47 1.990 . S
Li2 O60 1.961 . S
Li2 O62 1.956 . S
Li2 O63 1.970 . S
Li3 N53 1.990 . S
Li3 O61 1.961 . S
Li3 O62 1.970 . S
Li3 O63 1.956 . S
C4 C6 1.348 . S
C4 C7 1.356 . S
C4 O60 1.325 . S
N5 C8 1.314 . S
N5 C9 1.279 . S
C6 C4 1.348 . S
C6 C8 1.353 . S
C6 H64 0.929 . S
C7 C4 1.356 . S
C7 C9 1.358 . S
C7 H65 0.930 . S
C8 N5 1.314 . S
C8 C6 1.353 . S
C8 H66 0.930 . S
C9 N5 1.279 . S
C9 C7 1.358 . S
C9 H67 0.930 . S
C10 C13 1.348 . S
C10 C14 1.356 . S
C10 O61 1.325 . S
C11 N12 1.279 . S
C11 C14 1.358 . S
C11 H68 0.930 . S
N12 C11 1.279 . S
N12 C15 1.314 . S
C13 C10 1.348 . S
C13 C15 1.353 . S
C13 H69 0.929 . S
C14 C10 1.356 . S
C14 C11 1.358 . S
C14 H70 0.930 . S
C15 N12 1.314 . S
C15 C13 1.353 . S
C15 H71 0.930 . S
C16 N17 1.314 . S
C16 C21 1.353 . S
C16 H22 0.930 . S
N17 Li0 1.990 . S
N17 C16 1.314 . S
N17 C19 1.279 . S
C18 C19 1.358 . S
C18 C20 1.356 . S
C18 H72 0.930 . S
C19 N17 1.279 . S
C19 C18 1.358 . S
C19 H23 0.930 . S
C20 C18 1.356 . S
C20 C21 1.348 . S
C21 C16 1.353 . S
C21 C20 1.348 . S
C21 H73 0.929 . S
H22 C16 0.930 . S
H23 C19 0.930 . S
C24 N25 1.314 . S
C24 C26 1.353 . S
C24 H30 0.930 . S
N25 Li1 1.990 . S
N25 C24 1.314 . S
N25 C28 1.279 . S
C26 C24 1.353 . S
C26 C29 1.348 . S
C26 H74 0.929 . S
C27 C28 1.358 . S
C27 C29 1.356 . S
C27 H75 0.930 . S
C28 N25 1.279 . S
C28 C27 1.358 . S
C28 H31 0.930 . S
C29 C26 1.348 . S
C29 C27 1.356 . S
H30 C24 0.930 . S
H31 C28 0.930 . S
C32 C34 1.348 . S
C32 C35 1.356 . S
C32 O62 1.325 . S
N33 C36 1.314 . S
N33 C37 1.279 . S
C34 C32 1.348 . S
C34 C36 1.353 . S
C34 H76 0.929 . S
C35 C32 1.356 . S
C35 C37 1.358 . S
C35 H77 0.930 . S
C36 N33 1.314 . S
C36 C34 1.353 . S
C36 H78 0.930 . S
C37 N33 1.279 . S
C37 C35 1.358 . S
C37 H79 0.930 . S
C38 C39 1.348 . S
C38 C40 1.356 . S
C38 O63 1.325 . S
C39 C38 1.348 . S
C39 C41 1.353 . S
C39 H80 0.929 . S
C40 C38 1.356 . S
C40 C42 1.358 . S
C40 H81 0.930 . S
C41 C39 1.353 . S
C41 N43 1.314 . S
C41 H82 0.930 . S
C42 C40 1.358 . S
C42 N43 1.279 . S
C42 H83 0.930 . S
N43 C41 1.314 . S
N43 C42 1.279 . S
C44 C46 1.353 1_455 S
C44 N47 1.314 . S
C44 H50 0.930 . S
C45 N47 1.279 . S
C45 C48 1.358 1_455 S
C45 H51 0.930 . S
C46 C44 1.353 1_655 S
C46 C49 1.348 . S
C46 H84 0.929 . S
N47 Li2 1.990 . S
N47 C44 1.314 . S
N47 C45 1.279 . S
C48 C45 1.358 1_655 S
C48 C49 1.356 . S
C48 H85 0.930 . S
C49 C46 1.348 . S
C49 C48 1.356 . S
H50 C44 0.930 . S
H51 C45 0.930 . S
C52 N53 1.314 . S
C52 C54 1.353 . S
C52 H58 0.930 . S
N53 Li3 1.990 . S
N53 C52 1.314 . S
N53 C56 1.279 . S
C54 C52 1.353 . S
C54 C57 1.348 . S
C54 H86 0.929 . S
C55 C56 1.358 . S
C55 C57 1.356 . S
C55 H87 0.930 . S
C56 N53 1.279 . S
C56 C55 1.358 . S
C56 H59 0.930 . S
C57 C54 1.348 . S
C57 C55 1.356 . S
H58 C52 0.930 . S
H59 C56 0.930 . S
O60 Li0 1.956 . S
O60 Li1 1.970 . S
O60 Li2 1.961 . S
O60 C4 1.325 . S
O61 Li0 1.970 . S
O61 Li1 1.956 . S
O61 Li3 1.961 . S
O61 C10 1.325 . S
O62 Li0 1.961 . S
O62 Li2 1.956 . S
O62 Li3 1.970 . S
O62 C32 1.325 . S
O63 Li1 1.961 . S
O63 Li2 1.970 . S
O63 Li3 1.956 . S
O63 C38 1.325 . S
H64 C6 0.929 . S
H65 C7 0.930 . S
H66 C8 0.930 . S
H67 C9 0.930 . S
H68 C11 0.930 . S
H69 C13 0.929 . S
H70 C14 0.930 . S
H71 C15 0.930 . S
H72 C18 0.930 . S
H73 C21 0.929 . S
H74 C26 0.929 . S
H75 C27 0.930 . S
H76 C34 0.929 . S
H77 C35 0.930 . S
H78 C36 0.930 . S
H79 C37 0.930 . S
H80 C39 0.929 . S
H81 C40 0.930 . S
H82 C41 0.930 . S
H83 C42 0.930 . S
H84 C46 0.929 . S
H85 C48 0.930 . S
H86 C54 0.929 . S
H87 C55 0.930 . S
Li88 N105 1.990 . S
Li88 O148 1.956 . S
Li88 O149 1.970 . S
Li88 O150 1.961 . S
Li89 N113 1.990 . S
Li89 O148 1.970 . S
Li89 O149 1.956 . S
Li89 O151 1.961 . S
Li90 N135 1.990 . S
Li90 O148 1.961 . S
Li90 O150 1.956 . S
Li90 O151 1.970 . S
Li91 N141 1.990 . S
Li91 O149 1.961 . S
Li91 O150 1.970 . S
Li91 O151 1.956 . S
C92 C94 1.348 . S
C92 C95 1.356 . S
C92 O148 1.325 . S
N93 C96 1.314 . S
N93 C97 1.279 . S
C94 C92 1.348 . S
C94 C96 1.353 . S
C94 H152 0.929 . S
C95 C92 1.356 . S
C95 C97 1.358 . S
C95 H153 0.930 . S
C96 N93 1.314 . S
C96 C94 1.353 . S
C96 H154 0.930 . S
C97 N93 1.279 . S
C97 C95 1.358 . S
C97 H155 0.930 . S
C98 C101 1.348 . S
C98 C102 1.356 . S
C98 O149 1.325 . S
C99 N100 1.279 . S
C99 C102 1.358 . S
C99 H156 0.930 . S
N100 C99 1.279 . S
N100 C103 1.314 . S
C101 C98 1.348 . S
C101 C103 1.353 . S
C101 H157 0.929 . S
C102 C98 1.356 . S
C102 C99 1.358 . S
C102 H158 0.930 . S
C103 N100 1.314 . S
C103 C101 1.353 . S
C103 H159 0.930 . S
C104 N105 1.314 . S
C104 C109 1.353 . S
C104 H110 0.930 . S
N105 Li88 1.990 . S
N105 C104 1.314 . S
N105 C107 1.279 . S
C106 C107 1.358 . S
C106 C108 1.356 . S
C106 H160 0.930 . S
C107 N105 1.279 . S
C107 C106 1.358 . S
C107 H111 0.930 . S
C108 C106 1.356 . S
C108 C109 1.348 . S
C109 C104 1.353 . S
C109 C108 1.348 . S
C109 H161 0.929 . S
H110 C104 0.930 . S
H111 C107 0.930 . S
C112 N113 1.314 . S
C112 C114 1.353 . S
C112 H118 0.930 . S
N113 Li89 1.990 . S
N113 C112 1.314 . S
N113 C116 1.279 . S
C114 C112 1.353 . S
C114 C117 1.348 . S
C114 H162 0.929 . S
C115 C116 1.358 . S
C115 C117 1.356 . S
C115 H163 0.930 . S
C116 N113 1.279 . S
C116 C115 1.358 . S
C116 H119 0.930 . S
C117 C114 1.348 . S
C117 C115 1.356 . S
H118 C112 0.930 . S
H119 C116 0.930 . S
C120 C122 1.348 . S
C120 C123 1.356 . S
C120 O150 1.325 . S
N121 C124 1.314 . S
N121 C125 1.279 . S
C122 C120 1.348 . S
C122 C124 1.353 . S
C122 H164 0.929 . S
C123 C120 1.356 . S
C123 C125 1.358 . S
C123 H165 0.930 . S
C124 N121 1.314 . S
C124 C122 1.353 . S
C124 H166 0.930 . S
C125 N121 1.279 . S
C125 C123 1.358 . S
C125 H167 0.930 . S
C126 C127 1.348 . S
C126 C128 1.356 . S
C126 O151 1.325 . S
C127 C126 1.348 . S
C127 C129 1.353 . S
C127 H168 0.929 . S
C128 C126 1.356 . S
C128 C130 1.358 . S
C128 H169 0.930 . S
C129 C127 1.353 . S
C129 N131 1.314 . S
C129 H170 0.930 . S
C130 C128 1.358 . S
C130 N131 1.279 . S
C130 H171 0.930 . S
N131 C129 1.314 . S
N131 C130 1.279 . S
C132 C134 1.353 1_545 S
C132 N135 1.314 . S
C132 H138 0.930 . S
C133 N135 1.279 . S
C133 C136 1.358 1_545 S
C133 H139 0.930 . S
C134 C132 1.353 1_565 S
C134 C137 1.348 . S
C134 H172 0.929 . S
N135 Li90 1.990 . S
N135 C132 1.314 . S
N135 C133 1.279 . S
C136 C133 1.358 1_565 S
C136 C137 1.356 . S
C136 H173 0.930 . S
C137 C134 1.348 . S
C137 C136 1.356 . S
H138 C132 0.930 . S
H139 C133 0.930 . S
C140 N141 1.314 . S
C140 C142 1.353 . S
C140 H146 0.930 . S
N141 Li91 1.990 . S
N141 C140 1.314 . S
N141 C144 1.279 . S
C142 C140 1.353 . S
C142 C145 1.348 . S
C142 H174 0.929 . S
C143 C144 1.358 . S
C143 C145 1.356 . S
C143 H175 0.930 . S
C144 N141 1.279 . S
C144 C143 1.358 . S
C144 H147 0.930 . S
C145 C142 1.348 . S
C145 C143 1.356 . S
H146 C140 0.930 . S
H147 C144 0.930 . S
O148 Li88 1.956 . S
O148 Li89 1.970 . S
O148 Li90 1.961 . S
O148 C92 1.325 . S
O149 Li88 1.970 . S
O149 Li89 1.956 . S
O149 Li91 1.961 . S
O149 C98 1.325 . S
O150 Li88 1.961 . S
O150 Li90 1.956 . S
O150 Li91 1.970 . S
O150 C120 1.325 . S
O151 Li89 1.961 . S
O151 Li90 1.970 . S
O151 Li91 1.956 . S
O151 C126 1.325 . S
H152 C94 0.929 . S
H153 C95 0.930 . S
H154 C96 0.930 . S
H155 C97 0.930 . S
H156 C99 0.930 . S
H157 C101 0.929 . S
H158 C102 0.930 . S
H159 C103 0.930 . S
H160 C106 0.930 . S
H161 C109 0.929 . S
H162 C114 0.929 . S
H163 C115 0.930 . S
H164 C122 0.929 . S
H165 C123 0.930 . S
H166 C124 0.930 . S
H167 C125 0.930 . S
H168 C127 0.929 . S
H169 C128 0.930 . S
H170 C129 0.930 . S
H171 C130 0.930 . S
H172 C134 0.929 . S
H173 C136 0.930 . S
H174 C142 0.929 . S
H175 C143 0.930 . S
Li176 N193 1.990 . S
Li176 O236 1.956 . S
Li176 O237 1.970 . S
Li176 O238 1.961 . S
Li177 N201 1.990 . S
Li177 O236 1.970 . S
Li177 O237 1.956 . S
Li177 O239 1.961 . S
Li178 N223 1.990 . S
Li178 O236 1.961 . S
Li178 O238 1.956 . S
Li178 O239 1.970 . S
Li179 N229 1.990 . S
Li179 O237 1.961 . S
Li179 O238 1.970 . S
Li179 O239 1.956 . S
C180 C182 1.348 . S
C180 C183 1.356 . S
C180 O236 1.325 . S
N181 C184 1.314 . S
N181 C185 1.279 . S
C182 C180 1.348 . S
C182 C184 1.353 . S
C182 H240 0.929 . S
C183 C180 1.356 . S
C183 C185 1.358 . S
C183 H241 0.930 . S
C184 N181 1.314 . S
C184 C182 1.353 . S
C184 H242 0.930 . S
C185 N181 1.279 . S
C185 C183 1.358 . S
C185 H243 0.930 . S
C186 C189 1.348 . S
C186 C190 1.356 . S
C186 O237 1.325 . S
C187 N188 1.279 . S
C187 C190 1.358 . S
C187 H244 0.930 . S
N188 C187 1.279 . S
N188 C191 1.314 . S
C189 C186 1.348 . S
C189 C191 1.353 . S
C189 H245 0.929 . S
C190 C186 1.356 . S
C190 C187 1.358 . S
C190 H246 0.930 . S
C191 N188 1.314 . S
C191 C189 1.353 . S
C191 H247 0.930 . S
C192 N193 1.314 . S
C192 C197 1.353 . S
C192 H198 0.930 . S
N193 Li176 1.990 . S
N193 C192 1.314 . S
N193 C195 1.279 . S
C194 C195 1.358 . S
C194 C196 1.356 . S
C194 H248 0.930 . S
C195 N193 1.279 . S
C195 C194 1.358 . S
C195 H199 0.930 . S
C196 C194 1.356 . S
C196 C197 1.348 . S
C197 C192 1.353 . S
C197 C196 1.348 . S
C197 H249 0.929 . S
H198 C192 0.930 . S
H199 C195 0.930 . S
C200 N201 1.314 . S
C200 C202 1.353 . S
C200 H206 0.930 . S
N201 Li177 1.990 . S
N201 C200 1.314 . S
N201 C204 1.279 . S
C202 C200 1.353 . S
C202 C205 1.348 . S
C202 H250 0.929 . S
C203 C204 1.358 . S
C203 C205 1.356 . S
C203 H251 0.930 . S
C204 N201 1.279 . S
C204 C203 1.358 . S
C204 H207 0.930 . S
C205 C202 1.348 . S
C205 C203 1.356 . S
H206 C200 0.930 . S
H207 C204 0.930 . S
C208 C210 1.348 . S
C208 C211 1.356 . S
C208 O238 1.325 . S
N209 C212 1.314 . S
N209 C213 1.279 . S
C210 C208 1.348 . S
C210 C212 1.353 . S
C210 H252 0.929 . S
C211 C208 1.356 . S
C211 C213 1.358 . S
C211 H253 0.930 . S
C212 N209 1.314 . S
C212 C210 1.353 . S
C212 H254 0.930 . S
C213 N209 1.279 . S
C213 C211 1.358 . S
C213 H255 0.930 . S
C214 C215 1.348 . S
C214 C216 1.356 . S
C214 O239 1.325 . S
C215 C214 1.348 . S
C215 C217 1.353 . S
C215 H256 0.929 . S
C216 C214 1.356 . S
C216 C218 1.358 . S
C216 H257 0.930 . S
C217 C215 1.353 . S
C217 N219 1.314 . S
C217 H258 0.930 . S
C218 C216 1.358 . S
C218 N219 1.279 . S
C218 H259 0.930 . S
N219 C217 1.314 . S
N219 C218 1.279 . S
C220 C222 1.353 . S
C220 N223 1.314 . S
C220 H226 0.930 . S
C221 N223 1.279 . S
C221 C224 1.358 . S
C221 H227 0.930 . S
C222 C220 1.353 . S
C222 C225 1.348 . S
C222 H260 0.929 . S
N223 Li178 1.990 . S
N223 C220 1.314 . S
N223 C221 1.279 . S
C224 C221 1.358 . S
C224 C225 1.356 . S
C224 H261 0.930 . S
C225 C222 1.348 . S
C225 C224 1.356 . S
H226 C220 0.930 . S
H227 C221 0.930 . S
C228 N229 1.314 . S
C228 C230 1.353 . S
C228 H234 0.930 . S
N229 Li179 1.990 . S
N229 C228 1.314 . S
N229 C232 1.279 . S
C230 C228 1.353 . S
C230 C233 1.348 . S
C230 H262 0.929 . S
C231 C232 1.358 . S
C231 C233 1.356 . S
C231 H263 0.930 . S
C232 N229 1.279 . S
C232 C231 1.358 . S
C232 H235 0.930 . S
C233 C230 1.348 . S
C233 C231 1.356 . S
H234 C228 0.930 . S
H235 C232 0.930 . S
O236 Li176 1.956 . S
O236 Li177 1.970 . S
O236 Li178 1.961 . S
O236 C180 1.325 . S
O237 Li176 1.970 . S
O237 Li177 1.956 . S
O237 Li179 1.961 . S
O237 C186 1.325 . S
O238 Li176 1.961 . S
O238 Li178 1.956 . S
O238 Li179 1.970 . S
O238 C208 1.325 . S
O239 Li177 1.961 . S
O239 Li178 1.970 . S
O239 Li179 1.956 . S
O239 C214 1.325 . S
H240 C182 0.929 . S
H241 C183 0.930 . S
H242 C184 0.930 . S
H243 C185 0.930 . S
H244 C187 0.930 . S
H245 C189 0.929 . S
H246 C190 0.930 . S
H247 C191 0.930 . S
H248 C194 0.930 . S
H249 C197 0.929 . S
H250 C202 0.929 . S
H251 C203 0.930 . S
H252 C210 0.929 . S
H253 C211 0.930 . S
H254 C212 0.930 . S
H255 C213 0.930 . S
H256 C215 0.929 . S
H257 C216 0.930 . S
H258 C217 0.930 . S
H259 C218 0.930 . S
H260 C222 0.929 . S
H261 C224 0.930 . S
H262 C230 0.929 . S
H263 C231 0.930 . S
Li264 N281 1.990 . S
Li264 O324 1.956 . S
Li264 O325 1.970 . S
Li264 O326 1.961 . S
Li265 N289 1.990 . S
Li265 O324 1.970 . S
Li265 O325 1.956 . S
Li265 O327 1.961 . S
Li266 N311 1.990 . S
Li266 O324 1.961 . S
Li266 O326 1.956 . S
Li266 O327 1.970 . S
Li267 N317 1.990 . S
Li267 O325 1.961 . S
Li267 O326 1.970 . S
Li267 O327 1.956 . S
C268 C270 1.348 . S
C268 C271 1.356 . S
C268 O324 1.325 . S
N269 C272 1.314 . S
N269 C273 1.279 . S
C270 C268 1.348 . S
C270 C272 1.353 . S
C270 H328 0.929 . S
C271 C268 1.356 . S
C271 C273 1.358 . S
C271 H329 0.930 . S
C272 N269 1.314 . S
C272 C270 1.353 . S
C272 H330 0.930 . S
C273 N269 1.279 . S
C273 C271 1.358 . S
C273 H331 0.930 . S
C274 C277 1.348 . S
C274 C278 1.356 . S
C274 O325 1.325 . S
C275 N276 1.279 . S
C275 C278 1.358 . S
C275 H332 0.930 . S
N276 C275 1.279 . S
N276 C279 1.314 . S
C277 C274 1.348 . S
C277 C279 1.353 . S
C277 H333 0.929 . S
C278 C274 1.356 . S
C278 C275 1.358 . S
C278 H334 0.930 . S
C279 N276 1.314 . S
C279 C277 1.353 . S
C279 H335 0.930 . S
C280 N281 1.314 . S
C280 C285 1.353 1_655 S
C280 H286 0.930 . S
N281 Li264 1.990 . S
N281 C280 1.314 . S
N281 C283 1.279 . S
C282 C283 1.358 1_455 S
C282 C284 1.356 . S
C282 H336 0.930 . S
C283 N281 1.279 . S
C283 C282 1.358 1_655 S
C283 H287 0.930 . S
C284 C282 1.356 . S
C284 C285 1.348 . S
C285 C280 1.353 1_455 S
C285 C284 1.348 . S
C285 H337 0.929 . S
H286 C280 0.930 . S
H287 C283 0.930 . S
C288 N289 1.314 . S
C288 C290 1.353 . S
C288 H294 0.930 . S
N289 Li265 1.990 . S
N289 C288 1.314 . S
N289 C292 1.279 . S
C290 C288 1.353 . S
C290 C293 1.348 . S
C290 H338 0.929 . S
C291 C292 1.358 . S
C291 C293 1.356 . S
C291 H339 0.930 . S
C292 N289 1.279 . S
C292 C291 1.358 . S
C292 H295 0.930 . S
C293 C290 1.348 . S
C293 C291 1.356 . S
H294 C288 0.930 . S
H295 C292 0.930 . S
C296 C298 1.348 . S
C296 C299 1.356 . S
C296 O326 1.325 . S
N297 C300 1.314 . S
N297 C301 1.279 . S
C298 C296 1.348 . S
C298 C300 1.353 . S
C298 H340 0.929 . S
C299 C296 1.356 . S
C299 C301 1.358 . S
C299 H341 0.930 . S
C300 N297 1.314 . S
C300 C298 1.353 . S
C300 H342 0.930 . S
C301 N297 1.279 . S
C301 C299 1.358 . S
C301 H343 0.930 . S
C302 C303 1.348 . S
C302 C304 1.356 . S
C302 O327 1.325 . S
C303 C302 1.348 . S
C303 C305 1.353 . S
C303 H344 0.929 . S
C304 C302 1.356 . S
C304 C306 1.358 . S
C304 H345 0.930 . S
C305 C303 1.353 . S
C305 N307 1.314 . S
C305 H346 0.930 . S
C306 C304 1.358 . S
C306 N307 1.279 . S
C306 H347 0.930 . S
N307 C305 1.314 . S
N307 C306 1.279 . S
C308 C310 1.353 . S
C308 N311 1.314 . S
C308 H314 0.930 . S
C309 N311 1.279 . S
C309 C312 1.358 . S
C309 H315 0.930 . S
C310 C308 1.353 . S
C310 C313 1.348 . S
C310 H348 0.929 . S
N311 Li266 1.990 . S
N311 C308 1.314 . S
N311 C309 1.279 . S
C312 C309 1.358 . S
C312 C313 1.356 . S
C312 H349 0.930 . S
C313 C310 1.348 . S
C313 C312 1.356 . S
H314 C308 0.930 . S
H315 C309 0.930 . S
C316 N317 1.314 . S
C316 C318 1.353 . S
C316 H322 0.930 . S
N317 Li267 1.990 . S
N317 C316 1.314 . S
N317 C320 1.279 . S
C318 C316 1.353 . S
C318 C321 1.348 . S
C318 H350 0.929 . S
C319 C320 1.358 . S
C319 C321 1.356 . S
C319 H351 0.930 . S
C320 N317 1.279 . S
C320 C319 1.358 . S
C320 H323 0.930 . S
C321 C318 1.348 . S
C321 C319 1.356 . S
H322 C316 0.930 . S
H323 C320 0.930 . S
O324 Li264 1.956 . S
O324 Li265 1.970 . S
O324 Li266 1.961 . S
O324 C268 1.325 . S
O325 Li264 1.970 . S
O325 Li265 1.956 . S
O325 Li267 1.961 . S
O325 C274 1.325 . S
O326 Li264 1.961 . S
O326 Li266 1.956 . S
O326 Li267 1.970 . S
O326 C296 1.325 . S
O327 Li265 1.961 . S
O327 Li266 1.970 . S
O327 Li267 1.956 . S
O327 C302 1.325 . S
H328 C270 0.929 . S
H329 C271 0.930 . S
H330 C272 0.930 . S
H331 C273 0.930 . S
H332 C275 0.930 . S
H333 C277 0.929 . S
H334 C278 0.930 . S
H335 C279 0.930 . S
H336 C282 0.930 . S
H337 C285 0.929 . S
H338 C290 0.929 . S
H339 C291 0.930 . S
H340 C298 0.929 . S
H341 C299 0.930 . S
H342 C300 0.930 . S
H343 C301 0.930 . S
H344 C303 0.929 . S
H345 C304 0.930 . S
H346 C305 0.930 . S
H347 C306 0.930 . S
H348 C310 0.929 . S
H349 C312 0.930 . S
H350 C318 0.929 . S
H351 C319 0.930 . S
Li352 N369 1.990 . S
Li352 O412 1.956 . S
Li352 O413 1.970 . S
Li352 O414 1.961 . S
Li353 N377 1.990 . S
Li353 O412 1.970 . S
Li353 O413 1.956 . S
Li353 O415 1.961 . S
Li354 N399 1.990 . S
Li354 O412 1.961 . S
Li354 O414 1.956 . S
Li354 O415 1.970 . S
Li355 N405 1.990 . S
Li355 O413 1.961 . S
Li355 O414 1.970 . S
Li355 O415 1.956 . S
C356 C358 1.348 . S
C356 C359 1.356 . S
C356 O412 1.325 . S
N357 C360 1.314 . S
N357 C361 1.279 . S
C358 C356 1.348 . S
C358 C360 1.353 . S
C358 H416 0.929 . S
C359 C356 1.356 . S
C359 C361 1.358 . S
C359 H417 0.930 . S
C360 N357 1.314 . S
C360 C358 1.353 . S
C360 H418 0.930 . S
C361 N357 1.279 . S
C361 C359 1.358 . S
C361 H419 0.930 . S
C362 C365 1.348 . S
C362 C366 1.356 . S
C362 O413 1.325 . S
C363 N364 1.279 . S
C363 C366 1.358 . S
C363 H420 0.930 . S
N364 C363 1.279 . S
N364 C367 1.314 . S
C365 C362 1.348 . S
C365 C367 1.353 . S
C365 H421 0.929 . S
C366 C362 1.356 . S
C366 C363 1.358 . S
C366 H422 0.930 . S
C367 N364 1.314 . S
C367 C365 1.353 . S
C367 H423 0.930 . S
C368 N369 1.314 . S
C368 C373 1.353 . S
C368 H374 0.930 . S
N369 Li352 1.990 . S
N369 C368 1.314 . S
N369 C371 1.279 . S
C370 C371 1.358 . S
C370 C372 1.356 . S
C370 H424 0.930 . S
C371 N369 1.279 . S
C371 C370 1.358 . S
C371 H375 0.930 . S
C372 C370 1.356 . S
C372 C373 1.348 . S
C373 C368 1.353 . S
C373 C372 1.348 . S
C373 H425 0.929 . S
H374 C368 0.930 . S
H375 C371 0.930 . S
C376 N377 1.314 . S
C376 C378 1.353 1_565 S
C376 H382 0.930 . S
N377 Li353 1.990 . S
N377 C376 1.314 . S
N377 C380 1.279 . S
C378 C376 1.353 1_545 S
C378 C381 1.348 . S
C378 H426 0.929 . S
C379 C380 1.358 1_545 S
C379 C381 1.356 . S
C379 H427 0.930 . S
C380 N377 1.279 . S
C380 C379 1.358 1_565 S
C380 H383 0.930 . S
C381 C378 1.348 . S
C381 C379 1.356 . S
H382 C376 0.930 . S
H383 C380 0.930 . S
C384 C386 1.348 . S
C384 C387 1.356 . S
C384 O414 1.325 . S
N385 C388 1.314 . S
N385 C389 1.279 . S
C386 C384 1.348 . S
C386 C388 1.353 . S
C386 H428 0.929 . S
C387 C384 1.356 . S
C387 C389 1.358 . S
C387 H429 0.930 . S
C388 N385 1.314 . S
C388 C386 1.353 . S
C388 H430 0.930 . S
C389 N385 1.279 . S
C389 C387 1.358 . S
C389 H431 0.930 . S
C390 C391 1.348 . S
C390 C392 1.356 . S
C390 O415 1.325 . S
C391 C390 1.348 . S
C391 C393 1.353 . S
C391 H432 0.929 . S
C392 C390 1.356 . S
C392 C394 1.358 . S
C392 H433 0.930 . S
C393 C391 1.353 . S
C393 N395 1.314 . S
C393 H434 0.930 . S
C394 C392 1.358 . S
C394 N395 1.279 . S
C394 H435 0.930 . S
N395 C393 1.314 . S
N395 C394 1.279 . S
C396 C398 1.353 . S
C396 N399 1.314 . S
C396 H402 0.930 . S
C397 N399 1.279 . S
C397 C400 1.358 . S
C397 H403 0.930 . S
C398 C396 1.353 . S
C398 C401 1.348 . S
C398 H436 0.929 . S
N399 Li354 1.990 . S
N399 C396 1.314 . S
N399 C397 1.279 . S
C400 C397 1.358 . S
C400 C401 1.356 . S
C400 H437 0.930 . S
C401 C398 1.348 . S
C401 C400 1.356 . S
H402 C396 0.930 . S
H403 C397 0.930 . S
C404 N405 1.314 . S
C404 C406 1.353 . S
C404 H410 0.930 . S
N405 Li355 1.990 . S
N405 C404 1.314 . S
N405 C408 1.279 . S
C406 C404 1.353 . S
C406 C409 1.348 . S
C406 H438 0.929 . S
C407 C408 1.358 . S
C407 C409 1.356 . S
C407 H439 0.930 . S
C408 N405 1.279 . S
C408 C407 1.358 . S
C408 H411 0.930 . S
C409 C406 1.348 . S
C409 C407 1.356 . S
H410 C404 0.930 . S
H411 C408 0.930 . S
O412 Li352 1.956 . S
O412 Li353 1.970 . S
O412 Li354 1.961 . S
O412 C356 1.325 . S
O413 Li352 1.970 . S
O413 Li353 1.956 . S
O413 Li355 1.961 . S
O413 C362 1.325 . S
O414 Li352 1.961 . S
O414 Li354 1.956 . S
O414 Li355 1.970 . S
O414 C384 1.325 . S
O415 Li353 1.961 . S
O415 Li354 1.970 . S
O415 Li355 1.956 . S
O415 C390 1.325 . S
H416 C358 0.929 . S
H417 C359 0.930 . S
H418 C360 0.930 . S
H419 C361 0.930 . S
H420 C363 0.930 . S
H421 C365 0.929 . S
H422 C366 0.930 . S
H423 C367 0.930 . S
H424 C370 0.930 . S
H425 C373 0.929 . S
H426 C378 0.929 . S
H427 C379 0.930 . S
H428 C386 0.929 . S
H429 C387 0.930 . S
H430 C388 0.930 . S
H431 C389 0.930 . S
H432 C391 0.929 . S
H433 C392 0.930 . S
H434 C393 0.930 . S
H435 C394 0.930 . S
H436 C398 0.929 . S
H437 C400 0.930 . S
H438 C406 0.929 . S
H439 C407 0.930 . S
Li440 N457 1.990 . S
Li440 O500 1.956 . S
Li440 O501 1.970 . S
Li440 O502 1.961 . S
Li441 N465 1.990 . S
Li441 O500 1.970 . S
Li441 O501 1.956 . S
Li441 O503 1.961 . S
Li442 N487 1.990 . S
Li442 O500 1.961 . S
Li442 O502 1.956 . S
Li442 O503 1.970 . S
Li443 N493 1.990 . S
Li443 O501 1.961 . S
Li443 O502 1.970 . S
Li443 O503 1.956 . S
C444 C446 1.348 . S
C444 C447 1.356 . S
C444 O500 1.325 . S
N445 C448 1.314 . S
N445 C449 1.279 . S
C446 C444 1.348 . S
C446 C448 1.353 . S
C446 H504 0.929 . S
C447 C444 1.356 . S
C447 C449 1.358 . S
C447 H505 0.930 . S
C448 N445 1.314 . S
C448 C446 1.353 . S
C448 H506 0.930 . S
C449 N445 1.279 . S
C449 C447 1.358 . S
C449 H507 0.932 . S
C450 C453 1.348 . S
C450 C454 1.356 . S
C450 O501 1.325 . S
C451 N452 1.279 . S
C451 C454 1.358 . S
C451 H508 0.930 . S
N452 C451 1.279 . S
N452 C455 1.314 . S
C453 C450 1.348 . S
C453 C455 1.353 . S
C453 H509 0.929 . S
C454 C450 1.356 . S
C454 C451 1.358 . S
C454 H510 0.930 . S
C455 N452 1.314 . S
C455 C453 1.353 . S
C455 H511 0.930 . S
C456 N457 1.314 . S
C456 C461 1.353 . S
C456 H462 0.930 . S
N457 Li440 1.990 . S
N457 C456 1.314 . S
N457 C459 1.279 . S
C458 C459 1.358 . S
C458 C460 1.356 . S
C458 H512 0.930 . S
C459 N457 1.279 . S
C459 C458 1.358 . S
C459 H463 0.930 . S
C460 C458 1.356 . S
C460 C461 1.348 . S
C461 C456 1.353 . S
C461 C460 1.348 . S
C461 H513 0.929 . S
H462 C456 0.930 . S
H463 C459 0.930 . S
C464 N465 1.314 . S
C464 C466 1.353 . S
C464 H470 0.930 . S
N465 Li441 1.990 . S
N465 C464 1.314 . S
N465 C468 1.279 . S
C466 C464 1.353 . S
C466 C469 1.348 . S
C466 H514 0.929 . S
C467 C468 1.358 . S
C467 C469 1.356 . S
C467 H515 0.930 . S
C468 N465 1.279 . S
C468 C467 1.358 . S
C468 H471 0.930 . S
C469 C466 1.348 . S
C469 C467 1.356 . S
H470 C464 0.930 . S
H471 C468 0.930 . S
C472 C474 1.348 . S
C472 C475 1.356 . S
C472 O502 1.325 . S
N473 C476 1.314 . S
N473 C477 1.279 . S
C474 C472 1.348 . S
C474 C476 1.353 . S
C474 H516 0.929 . S
C475 C472 1.356 . S
C475 C477 1.358 . S
C475 H517 0.930 . S
C476 N473 1.314 . S
C476 C474 1.353 . S
C476 H518 0.930 . S
C477 N473 1.279 . S
C477 C475 1.358 . S
C477 H519 0.930 . S
C478 C479 1.348 . S
C478 C480 1.356 . S
C478 O503 1.325 . S
C479 C478 1.348 . S
C479 C481 1.353 . S
C479 H520 0.929 . S
C480 C478 1.356 . S
C480 C482 1.358 . S
C480 H521 0.930 . S
C481 C479 1.353 . S
C481 N483 1.314 . S
C481 H522 0.930 . S
C482 C480 1.358 . S
C482 N483 1.279 . S
C482 H523 0.930 . S
N483 C481 1.314 . S
N483 C482 1.279 . S
C484 C486 1.353 1_556 S
C484 N487 1.314 . S
C484 H490 0.930 . S
C485 N487 1.279 . S
C485 C488 1.358 . S
C485 H491 0.930 . S
C486 C484 1.353 1_554 S
C486 C489 1.348 . S
C486 H524 0.929 . S
N487 Li442 1.990 . S
N487 C484 1.314 . S
N487 C485 1.279 . S
C488 C485 1.358 . S
C488 C489 1.356 1_556 S
C488 H525 0.930 . S
C489 C486 1.348 . S
C489 C488 1.356 1_554 S
H490 C484 0.930 . S
H491 C485 0.930 . S
C492 N493 1.314 . S
C492 C494 1.353 . S
C492 H498 0.930 . S
N493 Li443 1.990 . S
N493 C492 1.314 . S
N493 C496 1.279 . S
C494 C492 1.353 . S
C494 C497 1.348 . S
C494 H526 0.929 . S
C495 C496 1.358 . S
C495 C497 1.356 . S
C495 H527 0.930 . S
C496 N493 1.279 . S
C496 C495 1.358 . S
C496 H499 0.930 . S
C497 C494 1.348 . S
C497 C495 1.356 . S
H498 C492 0.930 . S
H499 C496 0.930 . S
O500 Li440 1.956 . S
O500 Li441 1.970 . S
O500 Li442 1.961 . S
O500 C444 1.325 . S
O501 Li440 1.970 . S
O501 Li441 1.956 . S
O501 Li443 1.961 . S
O501 C450 1.325 . S
O502 Li440 1.961 . S
O502 Li442 1.956 . S
O502 Li443 1.970 . S
O502 C472 1.325 . S
O503 Li441 1.961 . S
O503 Li442 1.970 . S
O503 Li443 1.956 . S
O503 C478 1.325 . S
H504 C446 0.929 . S
H505 C447 0.930 . S
H506 C448 0.930 . S
H507 C449 0.932 . S
H508 C451 0.930 . S
H509 C453 0.929 . S
H510 C454 0.930 . S
H511 C455 0.930 . S
H512 C458 0.930 . S
H513 C461 0.929 . S
H514 C466 0.929 . S
H515 C467 0.930 . S
H516 C474 0.929 . S
H517 C475 0.930 . S
H518 C476 0.930 . S
H519 C477 0.930 . S
H520 C479 0.929 . S
H521 C480 0.930 . S
H522 C481 0.930 . S
H523 C482 0.930 . S
H524 C486 0.929 . S
H525 C488 0.930 . S
H526 C494 0.929 . S
H527 C495 0.930 . S
Li528 N545 1.990 . S
Li528 O588 1.956 . S
Li528 O589 1.970 . S
Li528 O590 1.961 . S
Li529 N553 1.990 . S
Li529 O588 1.970 . S
Li529 O589 1.956 . S
Li529 O591 1.961 . S
Li530 N575 1.990 . S
Li530 O588 1.961 . S
Li530 O590 1.956 . S
Li530 O591 1.970 . S
Li531 N581 1.990 . S
Li531 O589 1.961 . S
Li531 O590 1.970 . S
Li531 O591 1.956 . S
C532 C534 1.348 . S
C532 C535 1.356 . S
C532 O588 1.325 . S
N533 C536 1.314 . S
N533 C537 1.279 . S
C534 C532 1.348 . S
C534 C536 1.353 . S
C534 H592 0.929 . S
C535 C532 1.356 . S
C535 C537 1.358 . S
C535 H593 0.930 . S
C536 N533 1.314 . S
C536 C534 1.353 . S
C536 H594 0.930 . S
C537 N533 1.279 . S
C537 C535 1.358 . S
C537 H595 0.930 . S
C538 C541 1.348 . S
C538 C542 1.356 . S
C538 O589 1.325 . S
C539 N540 1.279 . S
C539 C542 1.358 . S
C539 H596 0.930 . S
N540 C539 1.279 . S
N540 C543 1.314 . S
C541 C538 1.348 . S
C541 C543 1.353 . S
C541 H597 0.929 . S
C542 C538 1.356 . S
C542 C539 1.358 . S
C542 H598 0.930 . S
C543 N540 1.314 . S
C543 C541 1.353 . S
C543 H599 0.930 . S
C544 N545 1.314 . S
C544 C549 1.353 1_565 S
C544 H550 0.930 . S
N545 Li528 1.990 . S
N545 C544 1.314 . S
N545 C547 1.279 . S
C546 C547 1.358 1_545 S
C546 C548 1.356 . S
C546 H600 0.930 . S
C547 N545 1.279 . S
C547 C546 1.358 1_565 S
C547 H551 0.930 . S
C548 C546 1.356 . S
C548 C549 1.348 . S
C549 C544 1.353 1_545 S
C549 C548 1.348 . S
C549 H601 0.929 . S
H550 C544 0.930 . S
H551 C547 0.930 . S
C552 N553 1.314 . S
C552 C554 1.353 . S
C552 H558 0.930 . S
N553 Li529 1.990 . S
N553 C552 1.314 . S
N553 C556 1.279 . S
C554 C552 1.353 . S
C554 C557 1.348 . S
C554 H602 0.929 . S
C555 C556 1.358 . S
C555 C557 1.356 . S
C555 H603 0.930 . S
C556 N553 1.279 . S
C556 C555 1.358 . S
C556 H559 0.930 . S
C557 C554 1.348 . S
C557 C555 1.356 . S
H558 C552 0.930 . S
H559 C556 0.930 . S
C560 C562 1.348 . S
C560 C563 1.356 . S
C560 O590 1.325 . S
N561 C564 1.314 . S
N561 C565 1.279 . S
C562 C560 1.348 . S
C562 C564 1.353 . S
C562 H604 0.929 . S
C563 C560 1.356 . S
C563 C565 1.358 . S
C563 H605 0.930 . S
C564 N561 1.314 . S
C564 C562 1.353 . S
C564 H606 0.930 . S
C565 N561 1.279 . S
C565 C563 1.358 . S
C565 H607 0.930 . S
C566 C567 1.348 . S
C566 C568 1.356 . S
C566 O591 1.325 . S
C567 C566 1.348 . S
C567 C569 1.353 . S
C567 H608 0.929 . S
C568 C566 1.356 . S
C568 C570 1.358 . S
C568 H609 0.930 . S
C569 C567 1.353 . S
C569 N571 1.314 . S
C569 H610 0.930 . S
C570 C568 1.358 . S
C570 N571 1.279 . S
C570 H611 0.930 . S
N571 C569 1.314 . S
N571 C570 1.279 . S
C572 C574 1.353 . S
C572 N575 1.314 . S
C572 H578 0.930 . S
C573 N575 1.279 . S
C573 C576 1.358 . S
C573 H579 0.930 . S
C574 C572 1.353 . S
C574 C577 1.348 . S
C574 H612 0.929 . S
N575 Li530 1.990 . S
N575 C572 1.314 . S
N575 C573 1.279 . S
C576 C573 1.358 . S
C576 C577 1.356 . S
C576 H613 0.930 . S
C577 C574 1.348 . S
C577 C576 1.356 . S
H578 C572 0.930 . S
H579 C573 0.930 . S
C580 N581 1.314 . S
C580 C582 1.353 . S
C580 H586 0.930 . S
N581 Li531 1.990 . S
N581 C580 1.314 . S
N581 C584 1.279 . S
C582 C580 1.353 . S
C582 C585 1.348 . S
C582 H614 0.929 . S
C583 C584 1.358 . S
C583 C585 1.356 . S
C583 H615 0.930 . S
C584 N581 1.279 . S
C584 C583 1.358 . S
C584 H587 0.930 . S
C585 C582 1.348 . S
C585 C583 1.356 . S
H586 C580 0.930 . S
H587 C584 0.930 . S
O588 Li528 1.956 . S
O588 Li529 1.970 . S
O588 Li530 1.961 . S
O588 C532 1.325 . S
O589 Li528 1.970 . S
O589 Li529 1.956 . S
O589 Li531 1.961 . S
O589 C538 1.325 . S
O590 Li528 1.961 . S
O590 Li530 1.956 . S
O590 Li531 1.970 . S
O590 C560 1.325 . S
O591 Li529 1.961 . S
O591 Li530 1.970 . S
O591 Li531 1.956 . S
O591 C566 1.325 . S
H592 C534 0.929 . S
H593 C535 0.930 . S
H594 C536 0.930 . S
H595 C537 0.930 . S
H596 C539 0.930 . S
H597 C541 0.929 . S
H598 C542 0.930 . S
H599 C543 0.930 . S
H600 C546 0.930 . S
H601 C549 0.929 . S
H602 C554 0.929 . S
H603 C555 0.930 . S
H604 C562 0.929 . S
H605 C563 0.930 . S
H606 C564 0.930 . S
H607 C565 0.930 . S
H608 C567 0.929 . S
H609 C568 0.930 . S
H610 C569 0.930 . S
H611 C570 0.930 . S
H612 C574 0.929 . S
H613 C576 0.930 . S
H614 C582 0.929 . S
H615 C583 0.930 . S
Li616 N633 1.990 . S
Li616 O676 1.956 . S
Li616 O677 1.970 . S
Li616 O678 1.961 . S
Li617 N641 1.990 . S
Li617 O676 1.970 . S
Li617 O677 1.956 . S
Li617 O679 1.961 . S
Li618 N663 1.990 . S
Li618 O676 1.961 . S
Li618 O678 1.956 . S
Li618 O679 1.970 . S
Li619 N669 1.990 . S
Li619 O677 1.961 . S
Li619 O678 1.970 . S
Li619 O679 1.956 . S
C620 C622 1.348 . S
C620 C623 1.356 . S
C620 O676 1.325 . S
N621 C624 1.314 . S
N621 C625 1.279 . S
C622 C620 1.348 . S
C622 C624 1.353 . S
C622 H680 0.929 . S
C623 C620 1.356 . S
C623 C625 1.358 . S
C623 H681 0.930 . S
C624 N621 1.314 . S
C624 C622 1.353 . S
C624 H682 0.930 . S
C625 N621 1.279 . S
C625 C623 1.358 . S
C625 H683 0.930 . S
C626 C629 1.348 . S
C626 C630 1.356 . S
C626 O677 1.325 . S
C627 N628 1.279 . S
C627 C630 1.358 . S
C627 H684 0.930 . S
N628 C627 1.279 . S
N628 C631 1.314 . S
C629 C626 1.348 . S
C629 C631 1.353 . S
C629 H685 0.929 . S
C630 C626 1.356 . S
C630 C627 1.358 . S
C630 H686 0.930 . S
C631 N628 1.314 . S
C631 C629 1.353 . S
C631 H687 0.930 . S
C632 N633 1.314 . S
C632 C637 1.353 . S
C632 H638 0.930 . S
N633 Li616 1.990 . S
N633 C632 1.314 . S
N633 C635 1.279 . S
C634 C635 1.358 . S
C634 C636 1.356 . S
C634 H688 0.930 . S
C635 N633 1.279 . S
C635 C634 1.358 . S
C635 H639 0.930 . S
C636 C634 1.356 . S
C636 C637 1.348 . S
C637 C632 1.353 . S
C637 C636 1.348 . S
C637 H689 0.929 . S
H638 C632 0.930 . S
H639 C635 0.930 . S
C640 N641 1.314 . S
C640 C642 1.353 . S
C640 H646 0.930 . S
N641 Li617 1.990 . S
N641 C640 1.314 . S
N641 C644 1.279 . S
C642 C640 1.353 . S
C642 C645 1.348 . S
C642 H690 0.929 . S
C643 C644 1.358 . S
C643 C645 1.356 . S
C643 H691 0.930 . S
C644 N641 1.279 . S
C644 C643 1.358 . S
C644 H647 0.930 . S
C645 C642 1.348 . S
C645 C643 1.356 . S
H646 C640 0.930 . S
H647 C644 0.930 . S
C648 C650 1.348 . S
C648 C651 1.356 . S
C648 O678 1.325 . S
N649 C652 1.314 . S
N649 C653 1.279 . S
C650 C648 1.348 . S
C650 C652 1.353 . S
C650 H692 0.929 . S
C651 C648 1.356 . S
C651 C653 1.358 . S
C651 H693 0.930 . S
C652 N649 1.314 . S
C652 C650 1.353 . S
C652 H694 0.930 . S
C653 N649 1.279 . S
C653 C651 1.358 . S
C653 H695 0.930 . S
C654 C655 1.348 . S
C654 C656 1.356 . S
C654 O679 1.325 . S
C655 C654 1.348 . S
C655 C657 1.353 . S
C655 H696 0.929 . S
C656 C654 1.356 . S
C656 C658 1.358 . S
C656 H697 0.930 . S
C657 C655 1.353 . S
C657 N659 1.314 . S
C657 H698 0.930 . S
C658 C656 1.358 . S
C658 N659 1.279 . S
C658 H699 0.930 . S
N659 C657 1.314 . S
N659 C658 1.279 . S
C660 C662 1.353 . S
C660 N663 1.314 . S
C660 H666 0.930 . S
C661 N663 1.279 . S
C661 C664 1.358 . S
C661 H667 0.930 . S
C662 C660 1.353 . S
C662 C665 1.348 . S
C662 H700 0.929 . S
N663 Li618 1.990 . S
N663 C660 1.314 . S
N663 C661 1.279 . S
C664 C661 1.358 . S
C664 C665 1.356 . S
C664 H701 0.930 . S
C665 C662 1.348 . S
C665 C664 1.356 . S
H666 C660 0.930 . S
H667 C661 0.930 . S
C668 N669 1.314 . S
C668 C670 1.353 . S
C668 H674 0.930 . S
N669 Li619 1.990 . S
N669 C668 1.314 . S
N669 C672 1.279 . S
C670 C668 1.353 . S
C670 C673 1.348 . S
C670 H702 0.929 . S
C671 C672 1.358 . S
C671 C673 1.356 . S
C671 H703 0.930 . S
C672 N669 1.279 . S
C672 C671 1.358 . S
C672 H675 0.930 . S
C673 C670 1.348 . S
C673 C671 1.356 . S
H674 C668 0.930 . S
H675 C672 0.930 . S
O676 Li616 1.956 . S
O676 Li617 1.970 . S
O676 Li618 1.961 . S
O676 C620 1.325 . S
O677 Li616 1.970 . S
O677 Li617 1.956 . S
O677 Li619 1.961 . S
O677 C626 1.325 . S
O678 Li616 1.961 . S
O678 Li618 1.956 . S
O678 Li619 1.970 . S
O678 C648 1.325 . S
O679 Li617 1.961 . S
O679 Li618 1.970 . S
O679 Li619 1.956 . S
O679 C654 1.325 . S
H680 C622 0.929 . S
H681 C623 0.930 . S
H682 C624 0.930 . S
H683 C625 0.930 . S
H684 C627 0.930 . S
H685 C629 0.929 . S
H686 C630 0.930 . S
H687 C631 0.930 . S
H688 C634 0.930 . S
H689 C637 0.929 . S
H690 C642 0.929 . S
H691 C643 0.930 . S
H692 C650 0.929 . S
H693 C651 0.930 . S
H694 C652 0.930 . S
H695 C653 0.930 . S
H696 C655 0.929 . S
H697 C656 0.930 . S
H698 C657 0.930 . S
H699 C658 0.930 . S
H700 C662 0.929 . S
H701 C664 0.930 . S
H702 C670 0.929 . S
H703 C671 0.930 . S
Li704 N721 1.990 . S
Li704 O764 1.956 . S
Li704 O765 1.970 . S
Li704 O766 1.961 . S
Li705 N729 1.990 . S
Li705 O764 1.970 . S
Li705 O765 1.956 . S
Li705 O767 1.961 . S
Li706 N751 1.990 . S
Li706 O764 1.961 . S
Li706 O766 1.956 . S
Li706 O767 1.970 . S
Li707 N757 1.990 . S
Li707 O765 1.961 . S
Li707 O766 1.970 . S
Li707 O767 1.956 . S
C708 C710 1.348 . S
C708 C711 1.356 . S
C708 O764 1.325 . S
N709 C712 1.314 . S
N709 C713 1.279 . S
C710 C708 1.348 . S
C710 C712 1.353 . S
C710 H768 0.929 . S
C711 C708 1.356 . S
C711 C713 1.358 . S
C711 H769 0.930 . S
C712 N709 1.314 . S
C712 C710 1.353 . S
C712 H770 0.930 . S
C713 N709 1.279 . S
C713 C711 1.358 . S
C713 H771 0.930 . S
C714 C717 1.348 . S
C714 C718 1.356 . S
C714 O765 1.325 . S
C715 N716 1.279 . S
C715 C718 1.358 . S
C715 H772 0.930 . S
N716 C715 1.279 . S
N716 C719 1.314 . S
C717 C714 1.348 . S
C717 C719 1.353 . S
C717 H773 0.929 . S
C718 C714 1.356 . S
C718 C715 1.358 . S
C718 H774 0.930 . S
C719 N716 1.314 . S
C719 C717 1.353 . S
C719 H775 0.930 . S
C720 N721 1.314 . S
C720 C725 1.353 1_554 S
C720 H726 0.930 . S
N721 Li704 1.990 . S
N721 C720 1.314 . S
N721 C723 1.279 . S
C722 C723 1.358 . S
C722 C724 1.356 1_554 S
C722 H776 0.930 . S
C723 N721 1.279 . S
C723 C722 1.358 . S
C723 H727 0.930 . S
C724 C722 1.356 1_556 S
C724 C725 1.348 . S
C725 C720 1.353 1_556 S
C725 C724 1.348 . S
C725 H777 0.929 . S
H726 C720 0.930 . S
H727 C723 0.930 . S
C728 N729 1.314 . S
C728 C730 1.353 . S
C728 H734 0.930 . S
N729 Li705 1.990 . S
N729 C728 1.314 . S
N729 C732 1.279 . S
C730 C728 1.353 . S
C730 C733 1.348 . S
C730 H778 0.929 . S
C731 C732 1.358 . S
C731 C733 1.356 . S
C731 H779 0.930 . S
C732 N729 1.279 . S
C732 C731 1.358 . S
C732 H735 0.930 . S
C733 C730 1.348 . S
C733 C731 1.356 . S
H734 C728 0.930 . S
H735 C732 0.930 . S
C736 C738 1.348 . S
C736 C739 1.356 . S
C736 O766 1.325 . S
N737 C740 1.314 . S
N737 C741 1.279 . S
C738 C736 1.348 . S
C738 C740 1.353 . S
C738 H780 0.929 . S
C739 C736 1.356 . S
C739 C741 1.358 . S
C739 H781 0.930 . S
C740 N737 1.314 . S
C740 C738 1.353 . S
C740 H782 0.930 . S
C741 N737 1.279 . S
C741 C739 1.358 . S
C741 H783 0.933 . S
C742 C743 1.348 . S
C742 C744 1.356 . S
C742 O767 1.325 . S
C743 C742 1.348 . S
C743 C745 1.353 . S
C743 H784 0.929 . S
C744 C742 1.356 . S
C744 C746 1.358 . S
C744 H785 0.930 . S
C745 C743 1.353 . S
C745 N747 1.314 . S
C745 H786 0.930 . S
C746 C744 1.358 . S
C746 N747 1.279 . S
C746 H787 0.930 . S
N747 C745 1.314 . S
N747 C746 1.279 . S
C748 C750 1.353 . S
C748 N751 1.314 . S
C748 H754 0.930 . S
C749 N751 1.279 . S
C749 C752 1.358 . S
C749 H755 0.930 . S
C750 C748 1.353 . S
C750 C753 1.348 . S
C750 H788 0.929 . S
N751 Li706 1.990 . S
N751 C748 1.314 . S
N751 C749 1.279 . S
C752 C749 1.358 . S
C752 C753 1.356 . S
C752 H789 0.930 . S
C753 C750 1.348 . S
C753 C752 1.356 . S
H754 C748 0.930 . S
H755 C749 0.930 . S
C756 N757 1.314 . S
C756 C758 1.353 1_455 S
C756 H762 0.930 . S
N757 Li707 1.990 . S
N757 C756 1.314 . S
N757 C760 1.279 . S
C758 C756 1.353 1_655 S
C758 C761 1.348 . S
C758 H790 0.929 . S
C759 C760 1.358 1_655 S
C759 C761 1.356 . S
C759 H791 0.930 . S
C760 N757 1.279 . S
C760 C759 1.358 1_455 S
C760 H763 0.930 . S
C761 C758 1.348 . S
C761 C759 1.356 . S
H762 C756 0.930 . S
H763 C760 0.930 . S
O764 Li704 1.956 . S
O764 Li705 1.970 . S
O764 Li706 1.961 . S
O764 C708 1.325 . S
O765 Li704 1.970 . S
O765 Li705 1.956 . S
O765 Li707 1.961 . S
O765 C714 1.325 . S
O766 Li704 1.961 . S
O766 Li706 1.956 . S
O766 Li707 1.970 . S
O766 C736 1.325 . S
O767 Li705 1.961 . S
O767 Li706 1.970 . S
O767 Li707 1.956 . S
O767 C742 1.325 . S
H768 C710 0.929 . S
H769 C711 0.930 . S
H770 C712 0.930 . S
H771 C713 0.930 . S
H772 C715 0.930 . S
H773 C717 0.929 . S
H774 C718 0.930 . S
H775 C719 0.930 . S
H776 C722 0.930 . S
H777 C725 0.929 . S
H778 C730 0.929 . S
H779 C731 0.930 . S
H780 C738 0.929 . S
H781 C739 0.930 . S
H782 C740 0.930 . S
H783 C741 0.933 . S
H784 C743 0.929 . S
H785 C744 0.930 . S
H786 C745 0.930 . S
H787 C746 0.930 . S
H788 C750 0.929 . S
H789 C752 0.930 . S
H790 C758 0.929 . S
H791 C759 0.930 . S
Li792 N809 1.990 . S
Li792 O852 1.956 . S
Li792 O853 1.970 . S
Li792 O854 1.961 . S
Li793 N817 1.990 . S
Li793 O852 1.970 . S
Li793 O853 1.956 . S
Li793 O855 1.961 . S
Li794 N839 1.990 . S
Li794 O852 1.961 . S
Li794 O854 1.956 . S
Li794 O855 1.970 . S
Li795 N845 1.990 . S
Li795 O853 1.961 . S
Li795 O854 1.970 . S
Li795 O855 1.956 . S
C796 C798 1.348 . S
C796 C799 1.356 . S
C796 O852 1.325 . S
N797 C800 1.314 . S
N797 C801 1.279 . S
C798 C796 1.348 . S
C798 C800 1.353 . S
C798 H856 0.929 . S
C799 C796 1.356 . S
C799 C801 1.358 . S
C799 H857 0.930 . S
C800 N797 1.314 . S
C800 C798 1.353 . S
C800 H858 0.930 . S
C801 N797 1.279 . S
C801 C799 1.358 . S
C801 H859 0.930 . S
C802 C805 1.348 . S
C802 C806 1.356 . S
C802 O853 1.325 . S
C803 N804 1.279 . S
C803 C806 1.358 . S
C803 H860 0.930 . S
N804 C803 1.279 . S
N804 C807 1.314 . S
C805 C802 1.348 . S
C805 C807 1.353 . S
C805 H861 0.929 . S
C806 C802 1.356 . S
C806 C803 1.358 . S
C806 H862 0.930 . S
C807 N804 1.314 . S
C807 C805 1.353 . S
C807 H863 0.930 . S
C808 N809 1.314 . S
C808 C813 1.353 1_545 S
C808 H814 0.930 . S
N809 Li792 1.990 . S
N809 C808 1.314 . S
N809 C811 1.279 . S
C810 C811 1.358 1_565 S
C810 C812 1.356 . S
C810 H864 0.930 . S
C811 N809 1.279 . S
C811 C810 1.358 1_545 S
C811 H815 0.930 . S
C812 C810 1.356 . S
C812 C813 1.348 . S
C813 C808 1.353 1_565 S
C813 C812 1.348 . S
C813 H865 0.929 . S
H814 C808 0.930 . S
H815 C811 0.930 . S
C816 N817 1.314 . S
C816 C818 1.353 . S
C816 H822 0.930 . S
N817 Li793 1.990 . S
N817 C816 1.314 . S
N817 C820 1.279 . S
C818 C816 1.353 . S
C818 C821 1.348 . S
C818 H866 0.929 . S
C819 C820 1.358 . S
C819 C821 1.356 . S
C819 H867 0.930 . S
C820 N817 1.279 . S
C820 C819 1.358 . S
C820 H823 0.930 . S
C821 C818 1.348 . S
C821 C819 1.356 . S
H822 C816 0.930 . S
H823 C820 0.930 . S
C824 C826 1.348 . S
C824 C827 1.356 . S
C824 O854 1.325 . S
N825 C828 1.314 . S
N825 C829 1.279 . S
C826 C824 1.348 . S
C826 C828 1.353 . S
C826 H868 0.929 . S
C827 C824 1.356 . S
C827 C829 1.358 . S
C827 H869 0.930 . S
C828 N825 1.314 . S
C828 C826 1.353 . S
C828 H870 0.930 . S
C829 N825 1.279 . S
C829 C827 1.358 . S
C829 H871 0.930 . S
C830 C831 1.348 . S
C830 C832 1.356 . S
C830 O855 1.325 . S
C831 C830 1.348 . S
C831 C833 1.353 . S
C831 H872 0.929 . S
C832 C830 1.356 . S
C832 C834 1.358 . S
C832 H873 0.930 . S
C833 C831 1.353 . S
C833 N835 1.314 . S
C833 H874 0.930 . S
C834 C832 1.358 . S
C834 N835 1.279 . S
C834 H875 0.930 . S
N835 C833 1.314 . S
N835 C834 1.279 . S
C836 C838 1.353 . S
C836 N839 1.314 . S
C836 H842 0.930 . S
C837 N839 1.279 . S
C837 C840 1.358 . S
C837 H843 0.930 . S
C838 C836 1.353 . S
C838 C841 1.348 . S
C838 H876 0.929 . S
N839 Li794 1.990 . S
N839 C836 1.314 . S
N839 C837 1.279 . S
C840 C837 1.358 . S
C840 C841 1.356 . S
C840 H877 0.930 . S
C841 C838 1.348 . S
C841 C840 1.356 . S
H842 C836 0.930 . S
H843 C837 0.930 . S
C844 N845 1.314 . S
C844 C846 1.353 . S
C844 H850 0.930 . S
N845 Li795 1.990 . S
N845 C844 1.314 . S
N845 C848 1.279 . S
C846 C844 1.353 . S
C846 C849 1.348 . S
C846 H878 0.929 . S
C847 C848 1.358 . S
C847 C849 1.356 . S
C847 H879 0.930 . S
C848 N845 1.279 . S
C848 C847 1.358 . S
C848 H851 0.930 . S
C849 C846 1.348 . S
C849 C847 1.356 . S
H850 C844 0.930 . S
H851 C848 0.930 . S
O852 Li792 1.956 . S
O852 Li793 1.970 . S
O852 Li794 1.961 . S
O852 C796 1.325 . S
O853 Li792 1.970 . S
O853 Li793 1.956 . S
O853 Li795 1.961 . S
O853 C802 1.325 . S
O854 Li792 1.961 . S
O854 Li794 1.956 . S
O854 Li795 1.970 . S
O854 C824 1.325 . S
O855 Li793 1.961 . S
O855 Li794 1.970 . S
O855 Li795 1.956 . S
O855 C830 1.325 . S
H856 C798 0.929 . S
H857 C799 0.930 . S
H858 C800 0.930 . S
H859 C801 0.930 . S
H860 C803 0.930 . S
H861 C805 0.929 . S
H862 C806 0.930 . S
H863 C807 0.930 . S
H864 C810 0.930 . S
H865 C813 0.929 . S
H866 C818 0.929 . S
H867 C819 0.930 . S
H868 C826 0.929 . S
H869 C827 0.930 . S
H870 C828 0.930 . S
H871 C829 0.930 . S
H872 C831 0.929 . S
H873 C832 0.930 . S
H874 C833 0.930 . S
H875 C834 0.930 . S
H876 C838 0.929 . S
H877 C840 0.930 . S
H878 C846 0.929 . S
H879 C847 0.930 . S
Li880 N897 1.990 . S
Li880 O940 1.956 . S
Li880 O941 1.970 . S
Li880 O942 1.961 . S
Li881 N905 1.990 . S
Li881 O940 1.970 . S
Li881 O941 1.956 . S
Li881 O943 1.961 . S
Li882 N927 1.990 . S
Li882 O940 1.961 . S
Li882 O942 1.956 . S
Li882 O943 1.970 . S
Li883 N933 1.990 . S
Li883 O941 1.961 . S
Li883 O942 1.970 . S
Li883 O943 1.956 . S
C884 C886 1.348 . S
C884 C887 1.356 . S
C884 O940 1.325 . S
N885 C888 1.314 . S
N885 C889 1.279 . S
C886 C884 1.348 . S
C886 C888 1.353 . S
C886 H944 0.929 . S
C887 C884 1.356 . S
C887 C889 1.358 . S
C887 H945 0.930 . S
C888 N885 1.314 . S
C888 C886 1.353 . S
C888 H946 0.930 . S
C889 N885 1.279 . S
C889 C887 1.358 . S
C889 H947 0.930 . S
C890 C893 1.348 . S
C890 C894 1.356 . S
C890 O941 1.325 . S
C891 N892 1.279 . S
C891 C894 1.358 . S
C891 H948 0.930 . S
N892 C891 1.279 . S
N892 C895 1.314 . S
C893 C890 1.348 . S
C893 C895 1.353 . S
C893 H949 0.929 . S
C894 C890 1.356 . S
C894 C891 1.358 . S
C894 H950 0.930 . S
C895 N892 1.314 . S
C895 C893 1.353 . S
C895 H951 0.930 . S
C896 N897 1.314 . S
C896 C901 1.353 . S
C896 H902 0.930 . S
N897 Li880 1.990 . S
N897 C896 1.314 . S
N897 C899 1.279 . S
C898 C899 1.358 . S
C898 C900 1.356 . S
C898 H952 0.930 . S
C899 N897 1.279 . S
C899 C898 1.358 . S
C899 H903 0.930 . S
C900 C898 1.356 . S
C900 C901 1.348 . S
C901 C896 1.353 . S
C901 C900 1.348 . S
C901 H953 0.929 . S
H902 C896 0.930 . S
H903 C899 0.930 . S
C904 N905 1.314 . S
C904 C906 1.353 . S
C904 H910 0.930 . S
N905 Li881 1.990 . S
N905 C904 1.314 . S
N905 C908 1.279 . S
C906 C904 1.353 . S
C906 C909 1.348 . S
C906 H954 0.929 . S
C907 C908 1.358 . S
C907 C909 1.356 . S
C907 H955 0.930 . S
C908 N905 1.279 . S
C908 C907 1.358 . S
C908 H911 0.930 . S
C909 C906 1.348 . S
C909 C907 1.356 . S
H910 C904 0.930 . S
H911 C908 0.930 . S
C912 C914 1.348 . S
C912 C915 1.356 . S
C912 O942 1.325 . S
N913 C916 1.314 . S
N913 C917 1.279 . S
C914 C912 1.348 . S
C914 C916 1.353 . S
C914 H956 0.929 . S
C915 C912 1.356 . S
C915 C917 1.358 . S
C915 H957 0.930 . S
C916 N913 1.314 . S
C916 C914 1.353 . S
C916 H958 0.930 . S
C917 N913 1.279 . S
C917 C915 1.358 . S
C917 H959 0.930 . S
C918 C919 1.348 . S
C918 C920 1.356 . S
C918 O943 1.325 . S
C919 C918 1.348 . S
C919 C921 1.353 . S
C919 H960 0.929 . S
C920 C918 1.356 . S
C920 C922 1.358 . S
C920 H961 0.930 . S
C921 C919 1.353 . S
C921 N923 1.314 . S
C921 H962 0.930 . S
C922 C920 1.358 . S
C922 N923 1.279 . S
C922 H963 0.930 . S
N923 C921 1.314 . S
N923 C922 1.279 . S
C924 C926 1.353 . S
C924 N927 1.314 . S
C924 H930 0.930 . S
C925 N927 1.279 . S
C925 C928 1.358 . S
C925 H931 0.930 . S
C926 C924 1.353 . S
C926 C929 1.348 . S
C926 H964 0.929 . S
N927 Li882 1.990 . S
N927 C924 1.314 . S
N927 C925 1.279 . S
C928 C925 1.358 . S
C928 C929 1.356 . S
C928 H965 0.930 . S
C929 C926 1.348 . S
C929 C928 1.356 . S
H930 C924 0.930 . S
H931 C925 0.930 . S
C932 N933 1.314 . S
C932 C934 1.353 . S
C932 H938 0.930 . S
N933 Li883 1.990 . S
N933 C932 1.314 . S
N933 C936 1.279 . S
C934 C932 1.353 . S
C934 C937 1.348 . S
C934 H966 0.929 . S
C935 C936 1.358 . S
C935 C937 1.356 . S
C935 H967 0.930 . S
C936 N933 1.279 . S
C936 C935 1.358 . S
C936 H939 0.930 . S
C937 C934 1.348 . S
C937 C935 1.356 . S
H938 C932 0.930 . S
H939 C936 0.930 . S
O940 Li880 1.956 . S
O940 Li881 1.970 . S
O940 Li882 1.961 . S
O940 C884 1.325 . S
O941 Li880 1.970 . S
O941 Li881 1.956 . S
O941 Li883 1.961 . S
O941 C890 1.325 . S
O942 Li880 1.961 . S
O942 Li882 1.956 . S
O942 Li883 1.970 . S
O942 C912 1.325 . S
O943 Li881 1.961 . S
O943 Li882 1.970 . S
O943 Li883 1.956 . S
O943 C918 1.325 . S
H944 C886 0.929 . S
H945 C887 0.930 . S
H946 C888 0.930 . S
H947 C889 0.930 . S
H948 C891 0.930 . S
H949 C893 0.929 . S
H950 C894 0.930 . S
H951 C895 0.930 . S
H952 C898 0.930 . S
H953 C901 0.929 . S
H954 C906 0.929 . S
H955 C907 0.930 . S
H956 C914 0.929 . S
H957 C915 0.930 . S
H958 C916 0.930 . S
H959 C917 0.930 . S
H960 C919 0.929 . S
H961 C920 0.930 . S
H962 C921 0.930 . S
H963 C922 0.930 . S
H964 C926 0.929 . S
H965 C928 0.930 . S
H966 C934 0.929 . S
H967 C935 0.930 . S
Li968 N985 1.990 . S
Li968 O1028 1.956 . S
Li968 O1029 1.970 . S
Li968 O1030 1.961 . S
Li969 N993 1.990 . S
Li969 O1028 1.970 . S
Li969 O1029 1.956 . S
Li969 O1031 1.961 . S
Li970 N1015 1.990 . S
Li970 O1028 1.961 . S
Li970 O1030 1.956 . S
Li970 O1031 1.970 . S
Li971 N1021 1.990 . S
Li971 O1029 1.961 . S
Li971 O1030 1.970 . S
Li971 O1031 1.956 . S
C972 C974 1.348 . S
C972 C975 1.356 . S
C972 O1028 1.325 . S
N973 C976 1.314 . S
N973 C977 1.279 . S
C974 C972 1.348 . S
C974 C976 1.353 . S
C974 H1032 0.929 . S
C975 C972 1.356 . S
C975 C977 1.358 . S
C975 H1033 0.930 . S
C976 N973 1.314 . S
C976 C974 1.353 . S
C976 H1034 0.930 . S
C977 N973 1.279 . S
C977 C975 1.358 . S
C977 H1035 0.930 . S
C978 C981 1.348 . S
C978 C982 1.356 . S
C978 O1029 1.325 . S
C979 N980 1.279 . S
C979 C982 1.358 . S
C979 H1036 0.930 . S
N980 C979 1.279 . S
N980 C983 1.314 . S
C981 C978 1.348 . S
C981 C983 1.353 . S
C981 H1037 0.929 . S
C982 C978 1.356 . S
C982 C979 1.358 . S
C982 H1038 0.930 . S
C983 N980 1.314 . S
C983 C981 1.353 . S
C983 H1039 0.930 . S
C984 N985 1.314 . S
C984 C989 1.353 1_655 S
C984 H990 0.930 . S
N985 Li968 1.990 . S
N985 C984 1.314 . S
N985 C987 1.279 . S
C986 C987 1.358 1_455 S
C986 C988 1.356 . S
C986 H1040 0.930 . S
C987 N985 1.279 . S
C987 C986 1.358 1_655 S
C987 H991 0.930 . S
C988 C986 1.356 . S
C988 C989 1.348 . S
C989 C984 1.353 1_455 S
C989 C988 1.348 . S
C989 H1041 0.929 . S
H990 C984 0.930 . S
H991 C987 0.930 . S
C992 N993 1.314 . S
C992 C994 1.353 . S
C992 H998 0.930 . S
N993 Li969 1.990 . S
N993 C992 1.314 . S
N993 C996 1.279 . S
C994 C992 1.353 . S
C994 C997 1.348 . S
C994 H1042 0.929 . S
C995 C996 1.358 . S
C995 C997 1.356 . S
C995 H1043 0.930 . S
C996 N993 1.279 . S
C996 C995 1.358 . S
C996 H999 0.930 . S
C997 C994 1.348 . S
C997 C995 1.356 . S
H998 C992 0.930 . S
H999 C996 0.930 . S
C1000 C1002 1.348 . S
C1000 C1003 1.356 . S
C1000 O1030 1.325 . S
N1001 C1004 1.314 . S
N1001 C1005 1.279 . S
C1002 C1000 1.348 . S
C1002 C1004 1.353 . S
C1002 H1044 0.929 . S
C1003 C1000 1.356 . S
C1003 C1005 1.358 . S
C1003 H1045 0.930 . S
C1004 N1001 1.314 . S
C1004 C1002 1.353 . S
C1004 H1046 0.930 . S
C1005 N1001 1.279 . S
C1005 C1003 1.358 . S
C1005 H1047 0.930 . S
C1006 C1007 1.348 . S
C1006 C1008 1.356 . S
C1006 O1031 1.325 . S
C1007 C1006 1.348 . S
C1007 C1009 1.353 . S
C1007 H1048 0.929 . S
C1008 C1006 1.356 . S
C1008 C1010 1.358 . S
C1008 H1049 0.930 . S
C1009 C1007 1.353 . S
C1009 N1011 1.314 . S
C1009 H1050 0.930 . S
C1010 C1008 1.358 . S
C1010 N1011 1.279 . S
C1010 H1051 0.930 . S
N1011 C1009 1.314 . S
N1011 C1010 1.279 . S
C1012 C1014 1.353 . S
C1012 N1015 1.314 . S
C1012 H1018 0.930 . S
C1013 N1015 1.279 . S
C1013 C1016 1.358 . S
C1013 H1019 0.930 . S
C1014 C1012 1.353 . S
C1014 C1017 1.348 . S
C1014 H1052 0.929 . S
N1015 Li970 1.990 . S
N1015 C1012 1.314 . S
N1015 C1013 1.279 . S
C1016 C1013 1.358 . S
C1016 C1017 1.356 . S
C1016 H1053 0.930 . S
C1017 C1014 1.348 . S
C1017 C1016 1.356 . S
H1018 C1012 0.930 . S
H1019 C1013 0.930 . S
C1020 N1021 1.314 . S
C1020 C1022 1.353 . S
C1020 H1026 0.930 . S
N1021 Li971 1.990 . S
N1021 C1020 1.314 . S
N1021 C1024 1.279 . S
C1022 C1020 1.353 . S
C1022 C1025 1.348 . S
C1022 H1054 0.929 . S
C1023 C1024 1.358 . S
C1023 C1025 1.356 . S
C1023 H1055 0.930 . S
C1024 N1021 1.279 . S
C1024 C1023 1.358 . S
C1024 H1027 0.930 . S
C1025 C1022 1.348 . S
C1025 C1023 1.356 . S
H1026 C1020 0.930 . S
H1027 C1024 0.930 . S
O1028 Li968 1.956 . S
O1028 Li969 1.970 . S
O1028 Li970 1.961 . S
O1028 C972 1.325 . S
O1029 Li968 1.970 . S
O1029 Li969 1.956 . S
O1029 Li971 1.961 . S
O1029 C978 1.325 . S
O1030 Li968 1.961 . S
O1030 Li970 1.956 . S
O1030 Li971 1.970 . S
O1030 C1000 1.325 . S
O1031 Li969 1.961 . S
O1031 Li970 1.970 . S
O1031 Li971 1.956 . S
O1031 C1006 1.325 . S
H1032 C974 0.929 . S
H1033 C975 0.930 . S
H1034 C976 0.930 . S
H1035 C977 0.930 . S
H1036 C979 0.930 . S
H1037 C981 0.929 . S
H1038 C982 0.930 . S
H1039 C983 0.930 . S
H1040 C986 0.930 . S
H1041 C989 0.929 . S
H1042 C994 0.929 . S
H1043 C995 0.930 . S
H1044 C1002 0.929 . S
H1045 C1003 0.930 . S
H1046 C1004 0.930 . S
H1047 C1005 0.930 . S
H1048 C1007 0.929 . S
H1049 C1008 0.930 . S
H1050 C1009 0.930 . S
H1051 C1010 0.930 . S
H1052 C1014 0.929 . S
H1053 C1016 0.930 . S
H1054 C1022 0.929 . S
H1055 C1023 0.930 . S
H1056 C1074 0.951 . S
H1057 C1076 0.951 . S
H1058 C1078 0.950 . S
H1059 C1079 0.950 . S
H1060 C1081 0.950 . S
H1061 C1084 0.950 . S
H1062 C1085 0.950 . S
H1063 C1087 0.950 . S
H1064 C1088 0.950 . S
H1065 C1089 0.951 . S
H1066 C1091 0.951 . S
H1067 C1093 0.950 . S
H1068 C1094 0.950 . S
H1069 C1096 0.950 . S
H1070 C1099 0.950 . S
H1071 C1100 0.950 . S
H1072 C1102 0.950 . S
H1073 C1103 0.950 . S
C1074 H1056 0.951 . S
C1074 C1075 1.366 . S
C1074 C1076 1.388 . S
C1075 C1074 1.366 . S
C1075 C1079 1.385 . S
C1076 H1057 0.951 . S
C1076 C1074 1.388 . S
C1076 C1077 1.366 . S
C1077 C1076 1.366 . S
C1077 C1078 1.414 . S
C1077 C1080 1.499 . S
C1078 H1058 0.950 . S
C1078 C1077 1.414 . S
C1078 C1079 1.374 . S
C1079 H1059 0.950 . S
C1079 C1075 1.385 . S
C1079 C1078 1.374 . S
C1080 C1077 1.499 . S
C1080 C1081 1.373 . S
C1080 C1082 1.389 . S
C1081 H1060 0.950 . S
C1081 C1080 1.373 . S
C1081 C1097 1.377 . S
C1082 C1080 1.389 . S
C1082 C1083 1.524 . S
C1082 C1096 1.377 . S
C1083 C1082 1.524 . S
C1083 C1084 1.397 . S
C1083 C1088 1.363 . S
C1084 H1061 0.950 . S
C1084 C1083 1.397 . S
C1084 C1085 1.334 . S
C1085 H1062 0.950 . S
C1085 C1084 1.334 . S
C1085 C1086 1.287 . S
C1086 C1085 1.287 . S
C1086 C1087 1.524 . S
C1086 H1105 0.913 . S
C1087 H1063 0.950 . S
C1087 C1086 1.524 . S
C1087 C1088 1.415 . S
C1088 H1064 0.950 . S
C1088 C1083 1.363 . S
C1088 C1087 1.415 . S
C1089 H1065 0.951 . S
C1089 C1090 1.366 . S
C1089 C1091 1.388 . S
C1090 C1089 1.366 . S
C1090 C1094 1.385 . S
C1091 H1066 0.951 . S
C1091 C1089 1.388 . S
C1091 C1092 1.366 . S
C1092 C1091 1.366 . S
C1092 C1093 1.414 . S
C1092 C1095 1.499 . S
C1093 H1067 0.950 . S
C1093 C1092 1.414 . S
C1093 C1094 1.374 . S
C1094 H1068 0.950 . S
C1094 C1090 1.385 . S
C1094 C1093 1.374 . S
C1095 C1092 1.499 . S
C1095 C1096 1.373 . S
C1095 C1097 1.389 . S
C1096 H1069 0.950 . S
C1096 C1082 1.377 . S
C1096 C1095 1.373 . S
C1097 C1081 1.377 . S
C1097 C1095 1.389 . S
C1097 C1098 1.524 . S
C1098 C1097 1.524 . S
C1098 C1099 1.397 . S
C1098 C1103 1.363 . S
C1099 H1070 0.950 . S
C1099 C1098 1.397 . S
C1099 C1100 1.334 . S
C1100 H1071 0.950 . S
C1100 C1099 1.334 . S
C1100 C1101 1.287 . S
C1101 C1100 1.287 . S
C1101 C1102 1.524 . S
C1101 H1104 0.999 . S
C1102 H1072 0.950 . S
C1102 C1101 1.524 . S
C1102 C1103 1.415 . S
C1103 H1073 0.950 . S
C1103 C1098 1.363 . S
C1103 C1102 1.415 . S
H1104 C1101 0.999 . S
H1105 C1086 0.913 . S
H1106 C1124 0.951 . S
H1107 C1126 0.951 . S
H1108 C1128 0.950 . S
H1109 C1129 0.950 . S
H1110 C1131 0.950 . S
H1111 C1134 0.950 . S
H1112 C1135 0.950 . S
H1113 C1137 0.950 . S
H1114 C1138 0.950 . S
H1115 C1139 0.951 . S
H1116 C1141 0.951 . S
H1117 C1143 0.950 . S
H1118 C1144 0.950 . S
H1119 C1146 0.950 . S
H1120 C1149 0.950 . S
H1121 C1150 0.950 . S
H1122 C1152 0.950 1_565 S
H1123 C1153 0.950 . S
C1124 H1106 0.951 . S
C1124 C1125 1.366 . S
C1124 C1126 1.388 . S
C1125 C1124 1.366 . S
C1125 C1129 1.385 . S
C1126 H1107 0.951 . S
C1126 C1124 1.388 . S
C1126 C1127 1.366 . S
C1127 C1126 1.366 . S
C1127 C1128 1.414 . S
C1127 C1130 1.499 . S
C1128 H1108 0.950 . S
C1128 C1127 1.414 . S
C1128 C1129 1.374 . S
C1129 H1109 0.950 . S
C1129 C1125 1.385 . S
C1129 C1128 1.374 . S
C1130 C1127 1.499 . S
C1130 C1131 1.373 . S
C1130 C1132 1.389 . S
C1131 H1110 0.950 . S
C1131 C1130 1.373 . S
C1131 C1147 1.377 . S
C1132 C1130 1.389 . S
C1132 C1133 1.524 . S
C1132 C1146 1.377 . S
C1133 C1132 1.524 . S
C1133 C1134 1.397 . S
C1133 C1138 1.363 . S
C1134 H1111 0.950 . S
C1134 C1133 1.397 . S
C1134 C1135 1.334 . S
C1135 H1112 0.950 . S
C1135 C1134 1.334 . S
C1135 C1136 1.287 . S
C1136 C1135 1.287 . S
C1136 C1137 1.524 . S
C1136 H1155 0.913 . S
C1137 H1113 0.950 . S
C1137 C1136 1.524 . S
C1137 C1138 1.415 . S
C1138 H1114 0.950 . S
C1138 C1133 1.363 . S
C1138 C1137 1.415 . S
C1139 H1115 0.951 . S
C1139 C1140 1.366 . S
C1139 C1141 1.388 . S
C1140 C1139 1.366 . S
C1140 C1144 1.385 . S
C1141 H1116 0.951 . S
C1141 C1139 1.388 . S
C1141 C1142 1.366 . S
C1142 C1141 1.366 . S
C1142 C1143 1.414 . S
C1142 C1145 1.499 . S
C1143 H1117 0.950 . S
C1143 C1142 1.414 . S
C1143 C1144 1.374 . S
C1144 H1118 0.950 . S
C1144 C1140 1.385 . S
C1144 C1143 1.374 . S
C1145 C1142 1.499 . S
C1145 C1146 1.373 . S
C1145 C1147 1.389 . S
C1146 H1119 0.950 . S
C1146 C1132 1.377 . S
C1146 C1145 1.373 . S
C1147 C1131 1.377 . S
C1147 C1145 1.389 . S
C1147 C1148 1.524 . S
C1148 C1147 1.524 . S
C1148 C1149 1.397 . S
C1148 C1153 1.363 . S
C1149 H1120 0.950 . S
C1149 C1148 1.397 . S
C1149 C1150 1.334 . S
C1150 H1121 0.950 . S
C1150 C1149 1.334 . S
C1150 C1151 1.287 1_545 S
C1151 C1150 1.287 1_565 S
C1151 C1152 1.524 1_565 S
C1151 H1154 0.999 . S
C1152 H1122 0.950 1_545 S
C1152 C1151 1.524 1_545 S
C1152 C1153 1.415 . S
C1153 H1123 0.950 . S
C1153 C1148 1.363 . S
C1153 C1152 1.415 . S
H1154 C1151 0.999 . S
H1155 C1136 0.913 . S
H1156 C1174 0.951 . S
H1157 C1176 0.951 . S
H1158 C1178 0.950 . S
H1159 C1179 0.950 . S
H1160 C1181 0.950 . S
H1161 C1184 0.950 . S
H1162 C1185 0.950 . S
H1163 C1187 0.950 . S
H1164 C1188 0.950 . S
H1165 C1189 0.951 . S
H1166 C1191 0.951 . S
H1167 C1193 0.950 . S
H1168 C1194 0.950 . S
H1169 C1196 0.950 . S
H1170 C1199 0.950 . S
H1171 C1200 0.950 . S
H1172 C1202 0.950 . S
H1173 C1203 0.950 . S
C1174 H1156 0.951 . S
C1174 C1175 1.366 . S
C1174 C1176 1.388 . S
C1175 C1174 1.366 . S
C1175 C1179 1.385 . S
C1176 H1157 0.951 . S
C1176 C1174 1.388 . S
C1176 C1177 1.366 . S
C1177 C1176 1.366 . S
C1177 C1178 1.414 . S
C1177 C1180 1.499 . S
C1178 H1158 0.950 . S
C1178 C1177 1.414 . S
C1178 C1179 1.374 . S
C1179 H1159 0.950 . S
C1179 C1175 1.385 . S
C1179 C1178 1.374 . S
C1180 C1177 1.499 . S
C1180 C1181 1.373 . S
C1180 C1182 1.389 . S
C1181 H1160 0.950 . S
C1181 C1180 1.373 . S
C1181 C1197 1.377 . S
C1182 C1180 1.389 . S
C1182 C1183 1.524 . S
C1182 C1196 1.377 . S
C1183 C1182 1.524 . S
C1183 C1184 1.397 . S
C1183 C1188 1.363 . S
C1184 H1161 0.950 . S
C1184 C1183 1.397 . S
C1184 C1185 1.334 . S
C1185 H1162 0.950 . S
C1185 C1184 1.334 . S
C1185 C1186 1.287 . S
C1186 C1185 1.287 . S
C1186 C1187 1.524 . S
C1186 H1205 0.913 . S
C1187 H1163 0.950 . S
C1187 C1186 1.524 . S
C1187 C1188 1.415 . S
C1188 H1164 0.950 . S
C1188 C1183 1.363 . S
C1188 C1187 1.415 . S
C1189 H1165 0.951 . S
C1189 C1190 1.366 . S
C1189 C1191 1.388 . S
C1190 C1189 1.366 . S
C1190 C1194 1.385 . S
C1191 H1166 0.951 . S
C1191 C1189 1.388 . S
C1191 C1192 1.366 . S
C1192 C1191 1.366 . S
C1192 C1193 1.414 . S
C1192 C1195 1.499 . S
C1193 H1167 0.950 . S
C1193 C1192 1.414 . S
C1193 C1194 1.374 . S
C1194 H1168 0.950 . S
C1194 C1190 1.385 . S
C1194 C1193 1.374 . S
C1195 C1192 1.499 . S
C1195 C1196 1.373 . S
C1195 C1197 1.389 . S
C1196 H1169 0.950 . S
C1196 C1182 1.377 . S
C1196 C1195 1.373 . S
C1197 C1181 1.377 . S
C1197 C1195 1.389 . S
C1197 C1198 1.524 . S
C1198 C1197 1.524 . S
C1198 C1199 1.397 . S
C1198 C1203 1.363 . S
C1199 H1170 0.950 . S
C1199 C1198 1.397 . S
C1199 C1200 1.334 . S
C1200 H1171 0.950 . S
C1200 C1199 1.334 . S
C1200 C1201 1.287 . S
C1201 C1200 1.287 . S
C1201 C1202 1.524 . S
C1201 H1204 0.999 . S
C1202 H1172 0.950 . S
C1202 C1201 1.524 . S
C1202 C1203 1.415 . S
C1203 H1173 0.950 . S
C1203 C1198 1.363 . S
C1203 C1202 1.415 . S
H1204 C1201 0.999 . S
H1205 C1186 0.913 . S
H1206 C1224 0.951 . S
H1207 C1226 0.951 . S
H1208 C1228 0.950 . S
H1209 C1229 0.950 . S
H1210 C1231 0.950 . S
H1211 C1234 0.950 . S
H1212 C1235 0.950 . S
H1213 C1237 0.924 1_455 S
H1214 C1238 0.950 . S
H1215 C1239 0.951 . S
H1216 C1241 0.951 . S
H1217 C1243 0.950 . S
H1218 C1244 0.950 . S
H1219 C1246 0.950 . S
H1220 C1249 0.950 . S
H1221 C1250 0.950 . S
H1222 C1252 0.950 . S
H1223 C1253 0.950 . S
C1224 H1206 0.951 . S
C1224 C1225 1.366 . S
C1224 C1226 1.388 . S
C1225 C1224 1.366 . S
C1225 C1229 1.385 . S
C1226 H1207 0.951 . S
C1226 C1224 1.388 . S
C1226 C1227 1.366 . S
C1227 C1226 1.366 . S
C1227 C1228 1.414 . S
C1227 C1230 1.499 . S
C1228 H1208 0.950 . S
C1228 C1227 1.414 . S
C1228 C1229 1.374 . S
C1229 H1209 0.950 . S
C1229 C1225 1.385 . S
C1229 C1228 1.374 . S
C1230 C1227 1.499 . S
C1230 C1231 1.373 . S
C1230 C1232 1.389 . S
C1231 H1210 0.950 . S
C1231 C1230 1.373 . S
C1231 C1247 1.377 . S
C1232 C1230 1.389 . S
C1232 C1233 1.524 . S
C1232 C1246 1.377 . S
C1233 C1232 1.524 . S
C1233 C1234 1.397 . S
C1233 C1238 1.363 . S
C1234 H1211 0.950 . S
C1234 C1233 1.397 . S
C1234 C1235 1.334 . S
C1235 H1212 0.950 . S
C1235 C1234 1.334 . S
C1235 C1236 1.287 1_655 S
C1236 C1235 1.287 1_455 S
C1236 C1237 1.531 1_455 S
C1236 H1255 0.913 . S
C1237 H1213 0.924 1_655 S
C1237 C1236 1.531 1_655 S
C1237 C1238 1.437 . S
C1238 H1214 0.950 . S
C1238 C1233 1.363 . S
C1238 C1237 1.437 . S
C1239 H1215 0.951 . S
C1239 C1240 1.366 . S
C1239 C1241 1.388 . S
C1240 C1239 1.366 . S
C1240 C1244 1.385 . S
C1241 H1216 0.951 . S
C1241 C1239 1.388 . S
C1241 C1242 1.366 . S
C1242 C1241 1.366 . S
C1242 C1243 1.414 . S
C1242 C1245 1.499 . S
C1243 H1217 0.950 . S
C1243 C1242 1.414 . S
C1243 C1244 1.374 . S
C1244 H1218 0.950 . S
C1244 C1240 1.385 . S
C1244 C1243 1.374 . S
C1245 C1242 1.499 . S
C1245 C1246 1.373 . S
C1245 C1247 1.389 . S
C1246 H1219 0.950 . S
C1246 C1232 1.377 . S
C1246 C1245 1.373 . S
C1247 C1231 1.377 . S
C1247 C1245 1.389 . S
C1247 C1248 1.524 . S
C1248 C1247 1.524 . S
C1248 C1249 1.397 . S
C1248 C1253 1.363 . S
C1249 H1220 0.950 . S
C1249 C1248 1.397 . S
C1249 C1250 1.334 . S
C1250 H1221 0.950 . S
C1250 C1249 1.334 . S
C1250 C1251 1.287 . S
C1251 C1250 1.287 . S
C1251 C1252 1.524 . S
C1251 H1254 0.999 . S
C1252 H1222 0.950 . S
C1252 C1251 1.524 . S
C1252 C1253 1.415 . S
C1253 H1223 0.950 . S
C1253 C1248 1.363 . S
C1253 C1252 1.415 . S
H1254 C1251 0.999 . S
H1255 C1236 0.913 . S
H1256 C1274 0.951 . S
H1257 C1276 0.951 . S
H1258 C1278 0.950 . S
H1259 C1279 0.950 . S
H1260 C1281 0.950 . S
H1261 C1284 0.950 . S
H1262 C1285 0.950 . S
H1263 C1287 0.950 . S
H1264 C1288 0.950 . S
H1265 C1289 0.951 . S
H1266 C1291 0.951 . S
H1267 C1293 0.950 . S
H1268 C1294 0.950 . S
H1269 C1296 0.950 . S
H1270 C1299 0.950 . S
H1271 C1300 0.950 . S
H1272 C1302 0.950 . S
H1273 C1303 0.950 . S
C1274 H1256 0.951 . S
C1274 C1275 1.366 . S
C1274 C1276 1.388 . S
C1275 C1274 1.366 . S
C1275 C1279 1.385 . S
C1276 H1257 0.951 . S
C1276 C1274 1.388 . S
C1276 C1277 1.366 . S
C1277 C1276 1.366 . S
C1277 C1278 1.414 . S
C1277 C1280 1.499 . S
C1278 H1258 0.950 . S
C1278 C1277 1.414 . S
C1278 C1279 1.374 . S
C1279 H1259 0.950 . S
C1279 C1275 1.385 . S
C1279 C1278 1.374 . S
C1280 C1277 1.499 . S
C1280 C1281 1.373 . S
C1280 C1282 1.389 . S
C1281 H1260 0.950 . S
C1281 C1280 1.373 . S
C1281 C1297 1.377 . S
C1282 C1280 1.389 . S
C1282 C1283 1.524 . S
C1282 C1296 1.377 . S
C1283 C1282 1.524 . S
C1283 C1284 1.397 . S
C1283 C1288 1.363 . S
C1284 H1261 0.950 . S
C1284 C1283 1.397 . S
C1284 C1285 1.334 . S
C1285 H1262 0.950 . S
C1285 C1284 1.334 . S
C1285 C1286 1.287 . S
C1286 C1285 1.287 . S
C1286 C1287 1.524 . S
C1286 H1305 0.913 . S
C1287 H1263 0.950 . S
C1287 C1286 1.524 . S
C1287 C1288 1.415 . S
C1288 H1264 0.950 . S
C1288 C1283 1.363 . S
C1288 C1287 1.415 . S
C1289 H1265 0.951 . S
C1289 C1290 1.366 . S
C1289 C1291 1.388 . S
C1290 C1289 1.366 . S
C1290 C1294 1.385 . S
C1291 H1266 0.951 . S
C1291 C1289 1.388 . S
C1291 C1292 1.366 . S
C1292 C1291 1.366 . S
C1292 C1293 1.414 . S
C1292 C1295 1.499 . S
C1293 H1267 0.950 . S
C1293 C1292 1.414 . S
C1293 C1294 1.374 . S
C1294 H1268 0.950 . S
C1294 C1290 1.385 . S
C1294 C1293 1.374 . S
C1295 C1292 1.499 . S
C1295 C1296 1.373 . S
C1295 C1297 1.389 . S
C1296 H1269 0.950 . S
C1296 C1282 1.377 . S
C1296 C1295 1.373 . S
C1297 C1281 1.377 . S
C1297 C1295 1.389 . S
C1297 C1298 1.524 . S
C1298 C1297 1.524 . S
C1298 C1299 1.397 . S
C1298 C1303 1.363 . S
C1299 H1270 0.950 . S
C1299 C1298 1.397 . S
C1299 C1300 1.334 . S
C1300 H1271 0.950 . S
C1300 C1299 1.334 . S
C1300 C1301 1.287 . S
C1301 C1300 1.287 . S
C1301 C1302 1.524 . S
C1301 H1304 0.999 . S
C1302 H1272 0.950 . S
C1302 C1301 1.524 . S
C1302 C1303 1.415 . S
C1303 H1273 0.950 . S
C1303 C1298 1.363 . S
C1303 C1302 1.415 . S
H1304 C1301 0.999 . S
H1305 C1286 0.913 . S
H1306 C1324 0.951 . S
H1307 C1326 0.951 . S
H1308 C1328 0.950 . S
H1309 C1329 0.950 . S
H1310 C1331 0.950 . S
H1311 C1334 0.950 . S
H1312 C1335 0.950 . S
H1313 C1337 0.950 . S
H1314 C1338 0.950 . S
H1315 C1339 0.951 . S
H1316 C1341 0.951 . S
H1317 C1343 0.950 . S
H1318 C1344 0.950 . S
H1319 C1346 0.950 . S
H1320 C1349 0.950 . S
H1321 C1350 0.950 . S
H1322 C1352 0.950 . S
H1323 C1353 0.950 . S
C1324 H1306 0.951 . S
C1324 C1325 1.366 . S
C1324 C1326 1.388 . S
C1325 C1324 1.366 . S
C1325 C1329 1.385 . S
C1326 H1307 0.951 . S
C1326 C1324 1.388 . S
C1326 C1327 1.366 . S
C1327 C1326 1.366 . S
C1327 C1328 1.414 . S
C1327 C1330 1.499 . S
C1328 H1308 0.950 . S
C1328 C1327 1.414 . S
C1328 C1329 1.374 . S
C1329 H1309 0.950 . S
C1329 C1325 1.385 . S
C1329 C1328 1.374 . S
C1330 C1327 1.499 . S
C1330 C1331 1.373 . S
C1330 C1332 1.389 . S
C1331 H1310 0.950 . S
C1331 C1330 1.373 . S
C1331 C1347 1.377 . S
C1332 C1330 1.389 . S
C1332 C1333 1.524 . S
C1332 C1346 1.377 . S
C1333 C1332 1.524 . S
C1333 C1334 1.397 . S
C1333 C1338 1.363 . S
C1334 H1311 0.950 . S
C1334 C1333 1.397 . S
C1334 C1335 1.334 . S
C1335 H1312 0.950 . S
C1335 C1334 1.334 . S
C1335 C1336 1.287 . S
C1336 C1335 1.287 . S
C1336 C1337 1.524 . S
C1336 H1355 0.913 . S
C1337 H1313 0.950 . S
C1337 C1336 1.524 . S
C1337 C1338 1.415 . S
C1338 H1314 0.950 . S
C1338 C1333 1.363 . S
C1338 C1337 1.415 . S
C1339 H1315 0.951 . S
C1339 C1340 1.366 . S
C1339 C1341 1.388 . S
C1340 C1339 1.366 . S
C1340 C1344 1.385 . S
C1341 H1316 0.951 . S
C1341 C1339 1.388 . S
C1341 C1342 1.366 . S
C1342 C1341 1.366 . S
C1342 C1343 1.414 . S
C1342 C1345 1.499 . S
C1343 H1317 0.950 . S
C1343 C1342 1.414 . S
C1343 C1344 1.374 . S
C1344 H1318 0.950 . S
C1344 C1340 1.385 . S
C1344 C1343 1.374 . S
C1345 C1342 1.499 . S
C1345 C1346 1.373 . S
C1345 C1347 1.389 . S
C1346 H1319 0.950 . S
C1346 C1332 1.377 . S
C1346 C1345 1.373 . S
C1347 C1331 1.377 . S
C1347 C1345 1.389 . S
C1347 C1348 1.524 . S
C1348 C1347 1.524 . S
C1348 C1349 1.397 . S
C1348 C1353 1.363 . S
C1349 H1320 0.950 . S
C1349 C1348 1.397 . S
C1349 C1350 1.334 . S
C1350 H1321 0.950 . S
C1350 C1349 1.334 . S
C1350 C1351 1.287 . S
C1351 C1350 1.287 . S
C1351 C1352 1.524 . S
C1351 H1354 0.999 . S
C1352 H1322 0.950 . S
C1352 C1351 1.524 . S
C1352 C1353 1.415 . S
C1353 H1323 0.950 . S
C1353 C1348 1.363 . S
C1353 C1352 1.415 . S
H1354 C1351 0.999 . S
H1355 C1336 0.913 . S
H1356 C1374 0.951 . S
H1357 C1376 0.944 1_556 S
H1358 C1378 0.950 . S
H1359 C1379 0.950 . S
H1360 C1381 0.950 . S
H1361 C1384 0.950 . S
H1362 C1385 0.950 . S
H1363 C1387 0.950 . S
H1364 C1388 0.950 . S
H1365 C1389 0.951 . S
H1366 C1391 0.958 . S
H1367 C1393 0.950 . S
H1368 C1394 0.950 . S
H1369 C1396 0.950 . S
H1370 C1399 0.950 . S
H1371 C1400 0.950 . S
H1372 C1402 0.950 . S
H1373 C1403 0.950 . S
C1374 H1356 0.951 . S
C1374 C1375 1.366 . S
C1374 C1376 1.388 . S
C1375 C1374 1.366 . S
C1375 C1379 1.385 . S
C1376 H1357 0.944 1_554 S
C1376 C1374 1.388 . S
C1376 C1377 1.366 . S
C1377 C1376 1.366 . S
C1377 C1378 1.414 . S
C1377 C1380 1.499 . S
C1378 H1358 0.950 . S
C1378 C1377 1.414 . S
C1378 C1379 1.374 . S
C1379 H1359 0.950 . S
C1379 C1375 1.385 . S
C1379 C1378 1.374 . S
C1380 C1377 1.499 . S
C1380 C1381 1.373 . S
C1380 C1382 1.389 1_554 S
C1381 H1360 0.950 . S
C1381 C1380 1.373 . S
C1381 C1397 1.377 . S
C1382 C1380 1.389 1_556 S
C1382 C1383 1.524 . S
C1382 C1396 1.377 . S
C1383 C1382 1.524 . S
C1383 C1384 1.397 1_556 S
C1383 C1388 1.363 . S
C1384 H1361 0.950 . S
C1384 C1383 1.397 1_554 S
C1384 C1385 1.334 . S
C1385 H1362 0.950 . S
C1385 C1384 1.334 . S
C1385 C1386 1.287 1_554 S
C1386 C1385 1.287 1_556 S
C1386 C1387 1.524 . S
C1386 H1405 0.913 . S
C1387 H1363 0.950 . S
C1387 C1386 1.524 . S
C1387 C1388 1.415 . S
C1388 H1364 0.950 . S
C1388 C1383 1.363 . S
C1388 C1387 1.415 . S
C1389 H1365 0.951 . S
C1389 C1390 1.366 . S
C1389 C1391 1.388 . S
C1390 C1389 1.366 . S
C1390 C1394 1.385 . S
C1391 H1366 0.958 . S
C1391 C1389 1.388 . S
C1391 C1392 1.366 . S
C1392 C1391 1.366 . S
C1392 C1393 1.414 . S
C1392 C1395 1.499 . S
C1393 H1367 0.950 . S
C1393 C1392 1.414 . S
C1393 C1394 1.374 . S
C1394 H1368 0.950 . S
C1394 C1390 1.385 . S
C1394 C1393 1.374 . S
C1395 C1392 1.499 . S
C1395 C1396 1.373 . S
C1395 C1397 1.389 1_556 S
C1396 H1369 0.950 . S
C1396 C1382 1.377 . S
C1396 C1395 1.373 . S
C1397 C1381 1.377 . S
C1397 C1395 1.389 1_554 S
C1397 C1398 1.524 . S
C1398 C1397 1.524 . S
C1398 C1399 1.397 1_554 S
C1398 C1403 1.363 . S
C1399 H1370 0.950 . S
C1399 C1398 1.397 1_556 S
C1399 C1400 1.334 . S
C1400 H1371 0.950 . S
C1400 C1399 1.334 . S
C1400 C1401 1.287 1_556 S
C1401 C1400 1.287 1_554 S
C1401 C1402 1.524 . S
C1401 H1404 0.999 . S
C1402 H1372 0.950 . S
C1402 C1401 1.524 . S
C1402 C1403 1.415 . S
C1403 H1373 0.950 . S
C1403 C1398 1.363 . S
C1403 C1402 1.415 . S
H1404 C1401 0.999 . S
H1405 C1386 0.913 . S
H1406 C1424 0.951 . S
H1407 C1426 0.951 . S
H1408 C1428 0.950 . S
H1409 C1429 0.950 . S
H1410 C1431 0.950 . S
H1411 C1434 0.950 . S
H1412 C1435 0.950 . S
H1413 C1437 0.950 . S
H1414 C1438 0.950 . S
H1415 C1439 0.951 . S
H1416 C1441 0.951 . S
H1417 C1443 0.950 . S
H1418 C1444 0.950 . S
H1419 C1446 0.950 . S
H1420 C1449 0.950 . S
H1421 C1450 0.950 . S
H1422 C1452 0.950 . S
H1423 C1453 0.950 . S
C1424 H1406 0.951 . S
C1424 C1425 1.366 . S
C1424 C1426 1.388 . S
C1425 C1424 1.366 . S
C1425 C1429 1.385 . S
C1426 H1407 0.951 . S
C1426 C1424 1.388 . S
C1426 C1427 1.366 . S
C1427 C1426 1.366 . S
C1427 C1428 1.414 . S
C1427 C1430 1.499 . S
C1428 H1408 0.950 . S
C1428 C1427 1.414 . S
C1428 C1429 1.374 . S
C1429 H1409 0.950 . S
C1429 C1425 1.385 . S
C1429 C1428 1.374 . S
C1430 C1427 1.499 . S
C1430 C1431 1.373 . S
C1430 C1432 1.389 . S
C1431 H1410 0.950 . S
C1431 C1430 1.373 . S
C1431 C1447 1.377 . S
C1432 C1430 1.389 . S
C1432 C1433 1.524 . S
C1432 C1446 1.377 . S
C1433 C1432 1.524 . S
C1433 C1434 1.397 . S
C1433 C1438 1.363 . S
C1434 H1411 0.950 . S
C1434 C1433 1.397 . S
C1434 C1435 1.334 . S
C1435 H1412 0.950 . S
C1435 C1434 1.334 . S
C1435 C1436 1.287 . S
C1436 C1435 1.287 . S
C1436 C1437 1.524 . S
C1436 H1455 0.913 . S
C1437 H1413 0.950 . S
C1437 C1436 1.524 . S
C1437 C1438 1.415 . S
C1438 H1414 0.950 . S
C1438 C1433 1.363 . S
C1438 C1437 1.415 . S
C1439 H1415 0.951 . S
C1439 C1440 1.366 . S
C1439 C1441 1.388 . S
C1440 C1439 1.366 . S
C1440 C1444 1.385 . S
C1441 H1416 0.951 . S
C1441 C1439 1.388 . S
C1441 C1442 1.366 . S
C1442 C1441 1.366 . S
C1442 C1443 1.414 . S
C1442 C1445 1.499 . S
C1443 H1417 0.950 . S
C1443 C1442 1.414 . S
C1443 C1444 1.374 . S
C1444 H1418 0.950 . S
C1444 C1440 1.385 . S
C1444 C1443 1.374 . S
C1445 C1442 1.499 . S
C1445 C1446 1.373 . S
C1445 C1447 1.389 . S
C1446 H1419 0.950 . S
C1446 C1432 1.377 . S
C1446 C1445 1.373 . S
C1447 C1431 1.377 . S
C1447 C1445 1.389 . S
C1447 C1448 1.524 . S
C1448 C1447 1.524 . S
C1448 C1449 1.397 . S
C1448 C1453 1.363 . S
C1449 H1420 0.950 . S
C1449 C1448 1.397 . S
C1449 C1450 1.334 . S
C1450 H1421 0.950 . S
C1450 C1449 1.334 . S
C1450 C1451 1.287 . S
C1451 C1450 1.287 . S
C1451 C1452 1.524 . S
C1451 H1454 0.999 . S
C1452 H1422 0.950 . S
C1452 C1451 1.524 . S
C1452 C1453 1.415 . S
C1453 H1423 0.950 . S
C1453 C1448 1.363 . S
C1453 C1452 1.415 . S
H1454 C1451 0.999 . S
H1455 C1436 0.913 . S
H1456 C1474 0.951 . S
H1457 C1476 0.951 . S
H1458 C1478 0.950 . S
H1459 C1479 0.950 . S
H1460 C1481 0.950 . S
H1461 C1484 0.950 . S
H1462 C1485 0.950 . S
H1463 C1487 0.950 . S
H1464 C1488 0.950 . S
H1465 C1489 0.951 . S
H1466 C1491 0.951 . S
H1467 C1493 0.950 . S
H1468 C1494 0.950 . S
H1469 C1496 0.950 . S
H1470 C1499 0.950 . S
H1471 C1500 0.950 . S
H1472 C1502 0.950 . S
H1473 C1503 0.950 . S
C1474 H1456 0.951 . S
C1474 C1475 1.366 . S
C1474 C1476 1.388 . S
C1475 C1474 1.366 . S
C1475 C1479 1.385 . S
C1476 H1457 0.951 . S
C1476 C1474 1.388 . S
C1476 C1477 1.366 . S
C1477 C1476 1.366 . S
C1477 C1478 1.414 . S
C1477 C1480 1.499 . S
C1478 H1458 0.950 . S
C1478 C1477 1.414 . S
C1478 C1479 1.374 . S
C1479 H1459 0.950 . S
C1479 C1475 1.385 . S
C1479 C1478 1.374 . S
C1480 C1477 1.499 . S
C1480 C1481 1.373 . S
C1480 C1482 1.389 . S
C1481 H1460 0.950 . S
C1481 C1480 1.373 . S
C1481 C1497 1.377 . S
C1482 C1480 1.389 . S
C1482 C1483 1.524 . S
C1482 C1496 1.377 . S
C1483 C1482 1.524 . S
C1483 C1484 1.397 . S
C1483 C1488 1.363 . S
C1484 H1461 0.950 . S
C1484 C1483 1.397 . S
C1484 C1485 1.334 . S
C1485 H1462 0.950 . S
C1485 C1484 1.334 . S
C1485 C1486 1.287 . S
C1486 C1485 1.287 . S
C1486 C1487 1.524 . S
C1486 H1505 0.913 . S
C1487 H1463 0.950 . S
C1487 C1486 1.524 . S
C1487 C1488 1.415 . S
C1488 H1464 0.950 . S
C1488 C1483 1.363 . S
C1488 C1487 1.415 . S
C1489 H1465 0.951 . S
C1489 C1490 1.366 . S
C1489 C1491 1.388 . S
C1490 C1489 1.366 . S
C1490 C1494 1.385 . S
C1491 H1466 0.951 . S
C1491 C1489 1.388 . S
C1491 C1492 1.366 . S
C1492 C1491 1.366 . S
C1492 C1493 1.414 . S
C1492 C1495 1.499 . S
C1493 H1467 0.950 . S
C1493 C1492 1.414 . S
C1493 C1494 1.374 . S
C1494 H1468 0.950 . S
C1494 C1490 1.385 . S
C1494 C1493 1.374 . S
C1495 C1492 1.499 . S
C1495 C1496 1.373 . S
C1495 C1497 1.389 . S
C1496 H1469 0.950 . S
C1496 C1482 1.377 . S
C1496 C1495 1.373 . S
C1497 C1481 1.377 . S
C1497 C1495 1.389 . S
C1497 C1498 1.524 . S
C1498 C1497 1.524 . S
C1498 C1499 1.397 . S
C1498 C1503 1.363 . S
C1499 H1470 0.950 . S
C1499 C1498 1.397 . S
C1499 C1500 1.334 . S
C1500 H1471 0.950 . S
C1500 C1499 1.334 . S
C1500 C1501 1.287 . S
C1501 C1500 1.287 . S
C1501 C1502 1.524 . S
C1501 H1504 0.999 . S
C1502 H1472 0.950 . S
C1502 C1501 1.524 . S
C1502 C1503 1.415 . S
C1503 H1473 0.950 . S
C1503 C1498 1.363 . S
C1503 C1502 1.415 . S
H1504 C1501 0.999 . S
H1505 C1486 0.913 . S
H1506 C1524 0.951 . S
H1507 C1526 0.951 . S
H1508 C1528 0.950 . S
H1509 C1529 0.950 . S
H1510 C1531 0.950 . S
H1511 C1534 0.950 . S
H1512 C1535 0.950 . S
H1513 C1537 0.950 . S
H1514 C1538 0.950 . S
H1515 C1539 0.951 . S
H1516 C1541 0.951 . S
H1517 C1543 0.950 . S
H1518 C1544 0.950 . S
H1519 C1546 0.950 . S
H1520 C1549 0.950 . S
H1521 C1550 0.950 . S
H1522 C1552 0.950 . S
H1523 C1553 0.950 . S
C1524 H1506 0.951 . S
C1524 C1525 1.366 . S
C1524 C1526 1.388 . S
C1525 C1524 1.366 . S
C1525 C1529 1.385 . S
C1526 H1507 0.951 . S
C1526 C1524 1.388 . S
C1526 C1527 1.366 . S
C1527 C1526 1.366 . S
C1527 C1528 1.414 . S
C1527 C1530 1.499 . S
C1528 H1508 0.950 . S
C1528 C1527 1.414 . S
C1528 C1529 1.374 . S
C1529 H1509 0.950 . S
C1529 C1525 1.385 . S
C1529 C1528 1.374 . S
C1530 C1527 1.499 . S
C1530 C1531 1.373 . S
C1530 C1532 1.389 . S
C1531 H1510 0.950 . S
C1531 C1530 1.373 . S
C1531 C1547 1.377 . S
C1532 C1530 1.389 . S
C1532 C1533 1.524 . S
C1532 C1546 1.377 . S
C1533 C1532 1.524 . S
C1533 C1534 1.397 . S
C1533 C1538 1.363 . S
C1534 H1511 0.950 . S
C1534 C1533 1.397 . S
C1534 C1535 1.334 . S
C1535 H1512 0.950 . S
C1535 C1534 1.334 . S
C1535 C1536 1.287 . S
C1536 C1535 1.287 . S
C1536 C1537 1.524 . S
C1536 H1555 0.913 . S
C1537 H1513 0.950 . S
C1537 C1536 1.524 . S
C1537 C1538 1.415 . S
C1538 H1514 0.950 . S
C1538 C1533 1.363 . S
C1538 C1537 1.415 . S
C1539 H1515 0.951 . S
C1539 C1540 1.366 . S
C1539 C1541 1.388 . S
C1540 C1539 1.366 . S
C1540 C1544 1.385 . S
C1541 H1516 0.951 . S
C1541 C1539 1.388 . S
C1541 C1542 1.366 . S
C1542 C1541 1.366 . S
C1542 C1543 1.414 . S
C1542 C1545 1.499 . S
C1543 H1517 0.950 . S
C1543 C1542 1.414 . S
C1543 C1544 1.374 . S
C1544 H1518 0.950 . S
C1544 C1540 1.385 . S
C1544 C1543 1.374 . S
C1545 C1542 1.499 . S
C1545 C1546 1.373 . S
C1545 C1547 1.389 . S
C1546 H1519 0.950 . S
C1546 C1532 1.377 . S
C1546 C1545 1.373 . S
C1547 C1531 1.377 . S
C1547 C1545 1.389 . S
C1547 C1548 1.524 . S
C1548 C1547 1.524 . S
C1548 C1549 1.397 . S
C1548 C1553 1.363 . S
C1549 H1520 0.950 . S
C1549 C1548 1.397 . S
C1549 C1550 1.334 . S
C1550 H1521 0.950 . S
C1550 C1549 1.334 . S
C1550 C1551 1.287 . S
C1551 C1550 1.287 . S
C1551 C1552 1.524 . S
C1551 H1554 0.999 . S
C1552 H1522 0.950 . S
C1552 C1551 1.524 . S
C1552 C1553 1.415 . S
C1553 H1523 0.950 . S
C1553 C1548 1.363 . S
C1553 C1552 1.415 . S
H1554 C1551 0.999 . S
H1555 C1536 0.913 . S
H1556 C1574 0.951 . S
H1557 C1576 0.951 . S
H1558 C1578 0.950 . S
H1559 C1579 0.950 . S
H1560 C1581 0.950 . S
H1561 C1584 0.950 . S
H1562 C1585 0.950 . S
H1563 C1587 0.950 . S
H1564 C1588 0.950 . S
H1565 C1589 0.951 . S
H1566 C1591 0.951 . S
H1567 C1593 0.950 . S
H1568 C1594 0.950 . S
H1569 C1596 0.950 . S
H1570 C1599 0.950 . S
H1571 C1600 0.950 . S
H1572 C1602 0.950 . S
H1573 C1603 0.950 . S
C1574 H1556 0.951 . S
C1574 C1575 1.366 . S
C1574 C1576 1.388 . S
C1575 C1574 1.366 . S
C1575 C1579 1.385 . S
C1576 H1557 0.951 . S
C1576 C1574 1.388 . S
C1576 C1577 1.366 . S
C1577 C1576 1.366 . S
C1577 C1578 1.414 . S
C1577 C1580 1.499 . S
C1578 H1558 0.950 . S
C1578 C1577 1.414 . S
C1578 C1579 1.374 . S
C1579 H1559 0.950 . S
C1579 C1575 1.385 . S
C1579 C1578 1.374 . S
C1580 C1577 1.499 . S
C1580 C1581 1.373 . S
C1580 C1582 1.389 . S
C1581 H1560 0.950 . S
C1581 C1580 1.373 . S
C1581 C1597 1.377 . S
C1582 C1580 1.389 . S
C1582 C1583 1.524 . S
C1582 C1596 1.377 . S
C1583 C1582 1.524 . S
C1583 C1584 1.397 . S
C1583 C1588 1.363 . S
C1584 H1561 0.950 . S
C1584 C1583 1.397 . S
C1584 C1585 1.334 . S
C1585 H1562 0.950 . S
C1585 C1584 1.334 . S
C1585 C1586 1.287 . S
C1586 C1585 1.287 . S
C1586 C1587 1.524 . S
C1586 H1605 0.913 . S
C1587 H1563 0.950 . S
C1587 C1586 1.524 . S
C1587 C1588 1.415 . S
C1588 H1564 0.950 . S
C1588 C1583 1.363 . S
C1588 C1587 1.415 . S
C1589 H1565 0.951 . S
C1589 C1590 1.366 . S
C1589 C1591 1.388 . S
C1590 C1589 1.366 . S
C1590 C1594 1.385 . S
C1591 H1566 0.951 . S
C1591 C1589 1.388 . S
C1591 C1592 1.366 . S
C1592 C1591 1.366 . S
C1592 C1593 1.414 . S
C1592 C1595 1.499 . S
C1593 H1567 0.950 . S
C1593 C1592 1.414 . S
C1593 C1594 1.374 . S
C1594 H1568 0.950 . S
C1594 C1590 1.385 . S
C1594 C1593 1.374 . S
C1595 C1592 1.499 . S
C1595 C1596 1.373 . S
C1595 C1597 1.389 . S
C1596 H1569 0.950 . S
C1596 C1582 1.377 . S
C1596 C1595 1.373 . S
C1597 C1581 1.377 . S
C1597 C1595 1.389 . S
C1597 C1598 1.524 . S
C1598 C1597 1.524 . S
C1598 C1599 1.397 . S
C1598 C1603 1.363 . S
C1599 H1570 0.950 . S
C1599 C1598 1.397 . S
C1599 C1600 1.334 . S
C1600 H1571 0.950 . S
C1600 C1599 1.334 . S
C1600 C1601 1.287 . S
C1601 C1600 1.287 . S
C1601 C1602 1.524 . S
C1601 H1604 0.999 . S
C1602 H1572 0.950 . S
C1602 C1601 1.524 . S
C1602 C1603 1.415 . S
C1603 H1573 0.950 . S
C1603 C1598 1.363 . S
C1603 C1602 1.415 . S
H1604 C1601 0.999 . S
H1605 C1586 0.913 . S
H1606 C1624 0.951 . S
H1607 C1626 0.951 . S
H1608 C1628 0.950 . S
H1609 C1629 0.950 . S
H1610 C1631 0.950 . S
H1611 C1634 0.950 . S
H1612 C1635 0.950 . S
H1613 C1637 0.950 . S
H1614 C1638 0.950 . S
H1615 C1639 0.951 . S
H1616 C1641 0.951 . S
H1617 C1643 0.950 . S
H1618 C1644 0.950 . S
H1619 C1646 0.950 . S
H1620 C1649 0.950 . S
H1621 C1650 0.950 . S
H1622 C1652 0.950 . S
H1623 C1653 0.950 . S
C1624 H1606 0.951 . S
C1624 C1625 1.366 . S
C1624 C1626 1.388 . S
C1625 C1624 1.366 . S
C1625 C1629 1.385 . S
C1626 H1607 0.951 . S
C1626 C1624 1.388 . S
C1626 C1627 1.366 . S
C1627 C1626 1.366 . S
C1627 C1628 1.414 . S
C1627 C1630 1.499 . S
C1628 H1608 0.950 . S
C1628 C1627 1.414 . S
C1628 C1629 1.374 . S
C1629 H1609 0.950 . S
C1629 C1625 1.385 . S
C1629 C1628 1.374 . S
C1630 C1627 1.499 . S
C1630 C1631 1.373 . S
C1630 C1632 1.389 . S
C1631 H1610 0.950 . S
C1631 C1630 1.373 . S
C1631 C1647 1.377 . S
C1632 C1630 1.389 . S
C1632 C1633 1.524 . S
C1632 C1646 1.377 . S
C1633 C1632 1.524 . S
C1633 C1634 1.397 . S
C1633 C1638 1.363 . S
C1634 H1611 0.950 . S
C1634 C1633 1.397 . S
C1634 C1635 1.334 . S
C1635 H1612 0.950 . S
C1635 C1634 1.334 . S
C1635 C1636 1.287 . S
C1636 C1635 1.287 . S
C1636 C1637 1.524 . S
C1636 H1655 0.913 . S
C1637 H1613 0.950 . S
C1637 C1636 1.524 . S
C1637 C1638 1.415 . S
C1638 H1614 0.950 . S
C1638 C1633 1.363 . S
C1638 C1637 1.415 . S
C1639 H1615 0.951 . S
C1639 C1640 1.366 . S
C1639 C1641 1.388 . S
C1640 C1639 1.366 . S
C1640 C1644 1.385 . S
C1641 H1616 0.951 . S
C1641 C1639 1.388 . S
C1641 C1642 1.366 . S
C1642 C1641 1.366 . S
C1642 C1643 1.414 . S
C1642 C1645 1.499 . S
C1643 H1617 0.950 . S
C1643 C1642 1.414 . S
C1643 C1644 1.374 . S
C1644 H1618 0.950 . S
C1644 C1640 1.385 . S
C1644 C1643 1.374 . S
C1645 C1642 1.499 . S
C1645 C1646 1.373 . S
C1645 C1647 1.389 . S
C1646 H1619 0.950 . S
C1646 C1632 1.377 . S
C1646 C1645 1.373 . S
C1647 C1631 1.377 . S
C1647 C1645 1.389 . S
C1647 C1648 1.524 . S
C1648 C1647 1.524 . S
C1648 C1649 1.397 . S
C1648 C1653 1.363 . S
C1649 H1620 0.950 . S
C1649 C1648 1.397 . S
C1649 C1650 1.334 . S
C1650 H1621 0.950 . S
C1650 C1649 1.334 . S
C1650 C1651 1.287 . S
C1651 C1650 1.287 . S
C1651 C1652 1.524 . S
C1651 H1654 0.999 . S
C1652 H1622 0.950 . S
C1652 C1651 1.524 . S
C1652 C1653 1.415 . S
C1653 H1623 0.950 . S
C1653 C1648 1.363 . S
C1653 C1652 1.415 . S
H1654 C1651 0.999 . S
H1655 C1636 0.913 . S
H1656 C1674 0.951 . S
H1657 C1676 0.951 . S
H1658 C1678 0.950 . S
H1659 C1679 0.950 . S
H1660 C1681 0.950 . S
H1661 C1684 0.950 . S
H1662 C1685 0.950 . S
H1663 C1687 0.950 . S
H1664 C1688 0.950 . S
H1665 C1689 0.951 . S
H1666 C1691 0.951 . S
H1667 C1693 0.950 . S
H1668 C1694 0.950 . S
H1669 C1696 0.950 . S
H1670 C1699 0.950 . S
H1671 C1700 0.950 . S
H1672 C1702 0.950 . S
H1673 C1703 0.950 . S
C1674 H1656 0.951 . S
C1674 C1675 1.366 . S
C1674 C1676 1.388 . S
C1675 C1674 1.366 . S
C1675 C1679 1.385 . S
C1676 H1657 0.951 . S
C1676 C1674 1.388 . S
C1676 C1677 1.366 . S
C1677 C1676 1.366 . S
C1677 C1678 1.414 . S
C1677 C1680 1.499 . S
C1678 H1658 0.950 . S
C1678 C1677 1.414 . S
C1678 C1679 1.374 . S
C1679 H1659 0.950 . S
C1679 C1675 1.385 . S
C1679 C1678 1.374 . S
C1680 C1677 1.499 . S
C1680 C1681 1.373 . S
C1680 C1682 1.389 . S
C1681 H1660 0.950 . S
C1681 C1680 1.373 . S
C1681 C1697 1.377 . S
C1682 C1680 1.389 . S
C1682 C1683 1.524 . S
C1682 C1696 1.377 . S
C1683 C1682 1.524 . S
C1683 C1684 1.397 . S
C1683 C1688 1.363 . S
C1684 H1661 0.950 . S
C1684 C1683 1.397 . S
C1684 C1685 1.334 . S
C1685 H1662 0.950 . S
C1685 C1684 1.334 . S
C1685 C1686 1.287 . S
C1686 C1685 1.287 . S
C1686 C1687 1.524 . S
C1686 H1705 0.913 . S
C1687 H1663 0.950 . S
C1687 C1686 1.524 . S
C1687 C1688 1.415 . S
C1688 H1664 0.950 . S
C1688 C1683 1.363 . S
C1688 C1687 1.415 . S
C1689 H1665 0.951 . S
C1689 C1690 1.366 . S
C1689 C1691 1.388 . S
C1690 C1689 1.366 . S
C1690 C1694 1.385 . S
C1691 H1666 0.951 . S
C1691 C1689 1.388 . S
C1691 C1692 1.366 . S
C1692 C1691 1.366 . S
C1692 C1693 1.414 . S
C1692 C1695 1.499 . S
C1693 H1667 0.950 . S
C1693 C1692 1.414 . S
C1693 C1694 1.374 . S
C1694 H1668 0.950 . S
C1694 C1690 1.385 . S
C1694 C1693 1.374 . S
C1695 C1692 1.499 . S
C1695 C1696 1.373 . S
C1695 C1697 1.389 . S
C1696 H1669 0.950 . S
C1696 C1682 1.377 . S
C1696 C1695 1.373 . S
C1697 C1681 1.377 . S
C1697 C1695 1.389 . S
C1697 C1698 1.524 . S
C1698 C1697 1.524 . S
C1698 C1699 1.397 . S
C1698 C1703 1.363 . S
C1699 H1670 0.950 . S
C1699 C1698 1.397 . S
C1699 C1700 1.334 . S
C1700 H1671 0.950 . S
C1700 C1699 1.334 . S
C1700 C1701 1.287 . S
C1701 C1700 1.287 . S
C1701 C1702 1.524 . S
C1701 H1704 0.999 . S
C1702 H1672 0.950 . S
C1702 C1701 1.524 . S
C1702 C1703 1.415 . S
C1703 H1673 0.950 . S
C1703 C1698 1.363 . S
C1703 C1702 1.415 . S
H1704 C1701 0.999 . S
H1705 C1686 0.913 . S
H1706 C1724 0.951 . S
H1707 C1726 0.951 . S
H1708 C1728 0.950 . S
H1709 C1729 0.950 . S
H1710 C1731 0.950 . S
H1711 C1734 0.950 . S
H1712 C1735 0.950 . S
H1713 C1737 0.950 . S
H1714 C1738 0.950 . S
H1715 C1739 0.951 . S
H1716 C1741 0.951 . S
H1717 C1743 0.950 . S
H1718 C1744 0.950 . S
H1719 C1746 0.950 . S
H1720 C1749 0.950 . S
H1721 C1750 0.950 . S
H1722 C1752 0.950 . S
H1723 C1753 0.950 . S
C1724 H1706 0.951 . S
C1724 C1725 1.366 . S
C1724 C1726 1.388 . S
C1725 C1724 1.366 . S
C1725 C1729 1.385 . S
C1726 H1707 0.951 . S
C1726 C1724 1.388 . S
C1726 C1727 1.366 . S
C1727 C1726 1.366 . S
C1727 C1728 1.414 . S
C1727 C1730 1.499 . S
C1728 H1708 0.950 . S
C1728 C1727 1.414 . S
C1728 C1729 1.374 . S
C1729 H1709 0.950 . S
C1729 C1725 1.385 . S
C1729 C1728 1.374 . S
C1730 C1727 1.499 . S
C1730 C1731 1.373 . S
C1730 C1732 1.389 1_556 S
C1731 H1710 0.950 . S
C1731 C1730 1.373 . S
C1731 C1747 1.377 . S
C1732 C1730 1.389 1_554 S
C1732 C1733 1.524 . S
C1732 C1746 1.377 . S
C1733 C1732 1.524 . S
C1733 C1734 1.397 . S
C1733 C1738 1.363 . S
C1734 H1711 0.950 . S
C1734 C1733 1.397 . S
C1734 C1735 1.334 . S
C1735 H1712 0.950 . S
C1735 C1734 1.334 . S
C1735 C1736 1.287 . S
C1736 C1735 1.287 . S
C1736 C1737 1.524 . S
C1736 H1755 0.913 . S
C1737 H1713 0.950 . S
C1737 C1736 1.524 . S
C1737 C1738 1.415 . S
C1738 H1714 0.950 . S
C1738 C1733 1.363 . S
C1738 C1737 1.415 . S
C1739 H1715 0.951 . S
C1739 C1740 1.366 . S
C1739 C1741 1.388 . S
C1740 C1739 1.366 . S
C1740 C1744 1.385 . S
C1741 H1716 0.951 . S
C1741 C1739 1.388 . S
C1741 C1742 1.366 . S
C1742 C1741 1.366 . S
C1742 C1743 1.414 . S
C1742 C1745 1.499 . S
C1743 H1717 0.950 . S
C1743 C1742 1.414 . S
C1743 C1744 1.374 . S
C1744 H1718 0.950 . S
C1744 C1740 1.385 . S
C1744 C1743 1.374 . S
C1745 C1742 1.499 . S
C1745 C1746 1.373 . S
C1745 C1747 1.389 1_554 S
C1746 H1719 0.950 . S
C1746 C1732 1.377 . S
C1746 C1745 1.373 . S
C1747 C1731 1.377 . S
C1747 C1745 1.389 1_556 S
C1747 C1748 1.524 . S
C1748 C1747 1.524 . S
C1748 C1749 1.397 . S
C1748 C1753 1.363 . S
C1749 H1720 0.950 . S
C1749 C1748 1.397 . S
C1749 C1750 1.334 . S
C1750 H1721 0.950 . S
C1750 C1749 1.334 . S
C1750 C1751 1.287 . S
C1751 C1750 1.287 . S
C1751 C1752 1.524 . S
C1751 H1754 0.999 . S
C1752 H1722 0.950 . S
C1752 C1751 1.524 . S
C1752 C1753 1.415 . S
C1753 H1723 0.950 . S
C1753 C1748 1.363 . S
C1753 C1752 1.415 . S
H1754 C1751 0.999 . S
H1755 C1736 0.913 . S
H1756 C1774 0.951 . S
H1757 C1776 0.951 . S
H1758 C1778 0.950 . S
H1759 C1779 0.950 . S
H1760 C1781 0.950 . S
H1761 C1784 0.950 . S
H1762 C1785 0.950 . S
H1763 C1787 0.950 . S
H1764 C1788 0.950 . S
H1765 C1789 0.951 . S
H1766 C1791 0.951 . S
H1767 C1793 0.950 . S
H1768 C1794 0.950 . S
H1769 C1796 0.950 . S
H1770 C1799 0.950 . S
H1771 C1800 0.950 . S
H1772 C1802 0.950 . S
H1773 C1803 0.950 . S
C1774 H1756 0.951 . S
C1774 C1775 1.366 . S
C1774 C1776 1.388 . S
C1775 C1774 1.366 . S
C1775 C1779 1.385 . S
C1776 H1757 0.951 . S
C1776 C1774 1.388 . S
C1776 C1777 1.366 . S
C1777 C1776 1.366 . S
C1777 C1778 1.414 . S
C1777 C1780 1.499 . S
C1778 H1758 0.950 . S
C1778 C1777 1.414 . S
C1778 C1779 1.374 . S
C1779 H1759 0.950 . S
C1779 C1775 1.385 . S
C1779 C1778 1.374 . S
C1780 C1777 1.499 . S
C1780 C1781 1.373 . S
C1780 C1782 1.389 . S
C1781 H1760 0.950 . S
C1781 C1780 1.373 . S
C1781 C1797 1.377 . S
C1782 C1780 1.389 . S
C1782 C1783 1.524 . S
C1782 C1796 1.377 . S
C1783 C1782 1.524 . S
C1783 C1784 1.397 . S
C1783 C1788 1.363 . S
C1784 H1761 0.950 . S
C1784 C1783 1.397 . S
C1784 C1785 1.334 . S
C1785 H1762 0.950 . S
C1785 C1784 1.334 . S
C1785 C1786 1.287 . S
C1786 C1785 1.287 . S
C1786 C1787 1.524 . S
C1786 H1805 0.913 . S
C1787 H1763 0.950 . S
C1787 C1786 1.524 . S
C1787 C1788 1.415 . S
C1788 H1764 0.950 . S
C1788 C1783 1.363 . S
C1788 C1787 1.415 . S
C1789 H1765 0.951 . S
C1789 C1790 1.366 . S
C1789 C1791 1.388 . S
C1790 C1789 1.366 . S
C1790 C1794 1.385 . S
C1791 H1766 0.951 . S
C1791 C1789 1.388 . S
C1791 C1792 1.366 . S
C1792 C1791 1.366 . S
C1792 C1793 1.414 . S
C1792 C1795 1.499 . S
C1793 H1767 0.950 . S
C1793 C1792 1.414 . S
C1793 C1794 1.374 . S
C1794 H1768 0.950 . S
C1794 C1790 1.385 . S
C1794 C1793 1.374 . S
C1795 C1792 1.499 . S
C1795 C1796 1.373 . S
C1795 C1797 1.389 . S
C1796 H1769 0.950 . S
C1796 C1782 1.377 . S
C1796 C1795 1.373 . S
C1797 C1781 1.377 . S
C1797 C1795 1.389 . S
C1797 C1798 1.524 . S
C1798 C1797 1.524 . S
C1798 C1799 1.397 . S
C1798 C1803 1.363 . S
C1799 H1770 0.950 . S
C1799 C1798 1.397 . S
C1799 C1800 1.334 . S
C1800 H1771 0.950 . S
C1800 C1799 1.334 . S
C1800 C1801 1.287 . S
C1801 C1800 1.287 . S
C1801 C1802 1.524 . S
C1801 H1804 0.999 . S
C1802 H1772 0.950 . S
C1802 C1801 1.524 . S
C1802 C1803 1.415 . S
C1803 H1773 0.950 . S
C1803 C1798 1.363 . S
C1803 C1802 1.415 . S
H1804 C1801 0.999 . S
H1805 C1786 0.913 . S
H1806 C1824 0.951 . S
H1807 C1826 0.951 . S
H1808 C1828 0.950 . S
H1809 C1829 0.950 . S
H1810 C1831 0.950 . S
H1811 C1834 0.950 . S
H1812 C1835 0.950 . S
H1813 C1837 0.950 . S
H1814 C1838 0.950 . S
H1815 C1839 0.951 . S
H1816 C1841 0.951 . S
H1817 C1843 0.950 . S
H1818 C1844 0.950 . S
H1819 C1846 0.950 . S
H1820 C1849 0.950 . S
H1821 C1850 0.950 . S
H1822 C1852 0.950 . S
H1823 C1853 0.950 . S
C1824 H1806 0.951 . S
C1824 C1825 1.366 . S
C1824 C1826 1.388 . S
C1825 C1824 1.366 . S
C1825 C1829 1.385 . S
C1826 H1807 0.951 . S
C1826 C1824 1.388 . S
C1826 C1827 1.366 . S
C1827 C1826 1.366 . S
C1827 C1828 1.414 . S
C1827 C1830 1.499 . S
C1828 H1808 0.950 . S
C1828 C1827 1.414 . S
C1828 C1829 1.374 . S
C1829 H1809 0.950 . S
C1829 C1825 1.385 . S
C1829 C1828 1.374 . S
C1830 C1827 1.499 . S
C1830 C1831 1.373 . S
C1830 C1832 1.389 . S
C1831 H1810 0.950 . S
C1831 C1830 1.373 . S
C1831 C1847 1.377 . S
C1832 C1830 1.389 . S
C1832 C1833 1.524 . S
C1832 C1846 1.377 . S
C1833 C1832 1.524 . S
C1833 C1834 1.397 . S
C1833 C1838 1.363 . S
C1834 H1811 0.950 . S
C1834 C1833 1.397 . S
C1834 C1835 1.334 . S
C1835 H1812 0.950 . S
C1835 C1834 1.334 . S
C1835 C1836 1.287 . S
C1836 C1835 1.287 . S
C1836 C1837 1.524 . S
C1836 H1855 0.913 . S
C1837 H1813 0.950 . S
C1837 C1836 1.524 . S
C1837 C1838 1.415 . S
C1838 H1814 0.950 . S
C1838 C1833 1.363 . S
C1838 C1837 1.415 . S
C1839 H1815 0.951 . S
C1839 C1840 1.366 . S
C1839 C1841 1.388 . S
C1840 C1839 1.366 . S
C1840 C1844 1.385 . S
C1841 H1816 0.951 . S
C1841 C1839 1.388 . S
C1841 C1842 1.366 . S
C1842 C1841 1.366 . S
C1842 C1843 1.414 . S
C1842 C1845 1.499 . S
C1843 H1817 0.950 . S
C1843 C1842 1.414 . S
C1843 C1844 1.374 . S
C1844 H1818 0.950 . S
C1844 C1840 1.385 . S
C1844 C1843 1.374 . S
C1845 C1842 1.499 . S
C1845 C1846 1.373 . S
C1845 C1847 1.389 . S
C1846 H1819 0.950 . S
C1846 C1832 1.377 . S
C1846 C1845 1.373 . S
C1847 C1831 1.377 . S
C1847 C1845 1.389 . S
C1847 C1848 1.524 . S
C1848 C1847 1.524 . S
C1848 C1849 1.397 . S
C1848 C1853 1.363 . S
C1849 H1820 0.950 . S
C1849 C1848 1.397 . S
C1849 C1850 1.334 . S
C1850 H1821 0.950 . S
C1850 C1849 1.334 . S
C1850 C1851 1.287 . S
C1851 C1850 1.287 . S
C1851 C1852 1.524 . S
C1851 H1854 0.999 . S
C1852 H1822 0.950 . S
C1852 C1851 1.524 . S
C1852 C1853 1.415 . S
C1853 H1823 0.950 . S
C1853 C1848 1.363 . S
C1853 C1852 1.415 . S
H1854 C1851 0.999 . S
H1855 C1836 0.913 . S
H1856 C1874 0.951 . S
H1857 C1876 0.951 . S
H1858 C1878 0.950 . S
H1859 C1879 0.950 . S
H1860 C1881 0.950 . S
H1861 C1884 0.950 . S
H1862 C1885 0.950 . S
H1863 C1887 0.950 . S
H1864 C1888 0.950 . S
H1865 C1889 0.951 . S
H1866 C1891 0.951 . S
H1867 C1893 0.950 . S
H1868 C1894 0.950 . S
H1869 C1896 0.950 . S
H1870 C1899 0.950 . S
H1871 C1900 0.950 . S
H1872 C1902 0.950 . S
H1873 C1903 0.950 . S
C1874 H1856 0.951 . S
C1874 C1875 1.366 . S
C1874 C1876 1.388 . S
C1875 C1874 1.366 . S
C1875 C1879 1.385 . S
C1876 H1857 0.951 . S
C1876 C1874 1.388 . S
C1876 C1877 1.366 . S
C1877 C1876 1.366 . S
C1877 C1878 1.414 . S
C1877 C1880 1.499 . S
C1878 H1858 0.950 . S
C1878 C1877 1.414 . S
C1878 C1879 1.374 . S
C1879 H1859 0.950 . S
C1879 C1875 1.385 . S
C1879 C1878 1.374 . S
C1880 C1877 1.499 . S
C1880 C1881 1.373 . S
C1880 C1882 1.389 . S
C1881 H1860 0.950 . S
C1881 C1880 1.373 . S
C1881 C1897 1.377 . S
C1882 C1880 1.389 . S
C1882 C1883 1.524 . S
C1882 C1896 1.377 . S
C1883 C1882 1.524 . S
C1883 C1884 1.397 . S
C1883 C1888 1.363 . S
C1884 H1861 0.950 . S
C1884 C1883 1.397 . S
C1884 C1885 1.334 . S
C1885 H1862 0.950 . S
C1885 C1884 1.334 . S
C1885 C1886 1.287 . S
C1886 C1885 1.287 . S
C1886 C1887 1.524 . S
C1886 H1905 0.913 . S
C1887 H1863 0.950 . S
C1887 C1886 1.524 . S
C1887 C1888 1.415 . S
C1888 H1864 0.950 . S
C1888 C1883 1.363 . S
C1888 C1887 1.415 . S
C1889 H1865 0.951 . S
C1889 C1890 1.366 . S
C1889 C1891 1.388 . S
C1890 C1889 1.366 . S
C1890 C1894 1.385 . S
C1891 H1866 0.951 . S
C1891 C1889 1.388 . S
C1891 C1892 1.366 . S
C1892 C1891 1.366 . S
C1892 C1893 1.414 . S
C1892 C1895 1.499 . S
C1893 H1867 0.950 . S
C1893 C1892 1.414 . S
C1893 C1894 1.374 . S
C1894 H1868 0.950 . S
C1894 C1890 1.385 . S
C1894 C1893 1.374 . S
C1895 C1892 1.499 . S
C1895 C1896 1.373 . S
C1895 C1897 1.389 . S
C1896 H1869 0.950 . S
C1896 C1882 1.377 . S
C1896 C1895 1.373 . S
C1897 C1881 1.377 . S
C1897 C1895 1.389 . S
C1897 C1898 1.524 . S
C1898 C1897 1.524 . S
C1898 C1899 1.397 . S
C1898 C1903 1.363 . S
C1899 H1870 0.950 . S
C1899 C1898 1.397 . S
C1899 C1900 1.334 . S
C1900 H1871 0.950 . S
C1900 C1899 1.334 . S
C1900 C1901 1.287 . S
C1901 C1900 1.287 . S
C1901 C1902 1.524 . S
C1901 H1904 0.999 . S
C1902 H1872 0.950 . S
C1902 C1901 1.524 . S
C1902 C1903 1.415 . S
C1903 H1873 0.950 . S
C1903 C1898 1.363 . S
C1903 C1902 1.415 . S
H1904 C1901 0.999 . S
H1905 C1886 0.913 . S
H1906 C1924 0.951 . S
H1907 C1926 0.951 . S
H1908 C1928 0.950 . S
H1909 C1929 0.950 . S
H1910 C1931 0.950 . S
H1911 C1934 0.950 . S
H1912 C1935 0.950 . S
H1913 C1937 0.950 . S
H1914 C1938 0.950 . S
H1915 C1939 0.951 . S
H1916 C1941 0.951 . S
H1917 C1943 0.950 . S
H1918 C1944 0.950 . S
H1919 C1946 0.950 . S
H1920 C1949 0.950 . S
H1921 C1950 0.950 . S
H1922 C1952 0.950 . S
H1923 C1953 0.950 . S
C1924 H1906 0.951 . S
C1924 C1925 1.366 . S
C1924 C1926 1.388 . S
C1925 C1924 1.366 . S
C1925 C1929 1.385 . S
C1926 H1907 0.951 . S
C1926 C1924 1.388 . S
C1926 C1927 1.366 . S
C1927 C1926 1.366 . S
C1927 C1928 1.414 . S
C1927 C1930 1.499 . S
C1928 H1908 0.950 . S
C1928 C1927 1.414 . S
C1928 C1929 1.374 . S
C1929 H1909 0.950 . S
C1929 C1925 1.385 . S
C1929 C1928 1.374 . S
C1930 C1927 1.499 . S
C1930 C1931 1.373 . S
C1930 C1932 1.389 . S
C1931 H1910 0.950 . S
C1931 C1930 1.373 . S
C1931 C1947 1.377 . S
C1932 C1930 1.389 . S
C1932 C1933 1.524 . S
C1932 C1946 1.377 . S
C1933 C1932 1.524 . S
C1933 C1934 1.397 . S
C1933 C1938 1.363 . S
C1934 H1911 0.950 . S
C1934 C1933 1.397 . S
C1934 C1935 1.334 . S
C1935 H1912 0.950 . S
C1935 C1934 1.334 . S
C1935 C1936 1.287 . S
C1936 C1935 1.287 . S
C1936 C1937 1.524 . S
C1936 H1955 0.913 . S
C1937 H1913 0.950 . S
C1937 C1936 1.524 . S
C1937 C1938 1.415 . S
C1938 H1914 0.950 . S
C1938 C1933 1.363 . S
C1938 C1937 1.415 . S
C1939 H1915 0.951 . S
C1939 C1940 1.366 . S
C1939 C1941 1.388 . S
C1940 C1939 1.366 . S
C1940 C1944 1.385 . S
C1941 H1916 0.951 . S
C1941 C1939 1.388 . S
C1941 C1942 1.366 . S
C1942 C1941 1.366 . S
C1942 C1943 1.414 . S
C1942 C1945 1.499 . S
C1943 H1917 0.950 . S
C1943 C1942 1.414 . S
C1943 C1944 1.374 . S
C1944 H1918 0.950 . S
C1944 C1940 1.385 . S
C1944 C1943 1.374 . S
C1945 C1942 1.499 . S
C1945 C1946 1.373 . S
C1945 C1947 1.389 . S
C1946 H1919 0.950 . S
C1946 C1932 1.377 . S
C1946 C1945 1.373 . S
C1947 C1931 1.377 . S
C1947 C1945 1.389 . S
C1947 C1948 1.524 . S
C1948 C1947 1.524 . S
C1948 C1949 1.397 . S
C1948 C1953 1.363 . S
C1949 H1920 0.950 . S
C1949 C1948 1.397 . S
C1949 C1950 1.334 . S
C1950 H1921 0.950 . S
C1950 C1949 1.334 . S
C1950 C1951 1.287 . S
C1951 C1950 1.287 . S
C1951 C1952 1.524 . S
C1951 H1954 0.999 . S
C1952 H1922 0.950 . S
C1952 C1951 1.524 . S
C1952 C1953 1.415 . S
C1953 H1923 0.950 . S
C1953 C1948 1.363 . S
C1953 C1952 1.415 . S
H1954 C1951 0.999 . S
H1955 C1936 0.913 . S
H1956 C1974 0.951 . S
H1957 C1976 0.951 . S
H1958 C1978 0.950 . S
H1959 C1979 0.950 . S
H1960 C1981 0.950 . S
H1961 C1984 0.950 . S
H1962 C1985 0.950 . S
H1963 C1987 0.950 . S
H1964 C1988 0.950 . S
H1965 C1989 0.951 . S
H1966 C1991 0.951 . S
H1967 C1993 0.950 . S
H1968 C1994 0.950 . S
H1969 C1996 0.950 . S
H1970 C1999 0.950 . S
H1971 C2000 0.950 . S
H1972 C2002 0.950 . S
H1973 C2003 0.950 . S
C1974 H1956 0.951 . S
C1974 C1975 1.366 . S
C1974 C1976 1.388 . S
C1975 C1974 1.366 . S
C1975 C1979 1.385 . S
C1976 H1957 0.951 . S
C1976 C1974 1.388 . S
C1976 C1977 1.366 . S
C1977 C1976 1.366 . S
C1977 C1978 1.414 . S
C1977 C1980 1.499 . S
C1978 H1958 0.950 . S
C1978 C1977 1.414 . S
C1978 C1979 1.374 . S
C1979 H1959 0.950 . S
C1979 C1975 1.385 . S
C1979 C1978 1.374 . S
C1980 C1977 1.499 . S
C1980 C1981 1.373 . S
C1980 C1982 1.389 . S
C1981 H1960 0.950 . S
C1981 C1980 1.373 . S
C1981 C1997 1.377 . S
C1982 C1980 1.389 . S
C1982 C1983 1.524 . S
C1982 C1996 1.377 . S
C1983 C1982 1.524 . S
C1983 C1984 1.397 . S
C1983 C1988 1.363 . S
C1984 H1961 0.950 . S
C1984 C1983 1.397 . S
C1984 C1985 1.334 . S
C1985 H1962 0.950 . S
C1985 C1984 1.334 . S
C1985 C1986 1.287 . S
C1986 C1985 1.287 . S
C1986 C1987 1.524 . S
C1986 H2005 0.913 . S
C1987 H1963 0.950 . S
C1987 C1986 1.524 . S
C1987 C1988 1.415 . S
C1988 H1964 0.950 . S
C1988 C1983 1.363 . S
C1988 C1987 1.415 . S
C1989 H1965 0.951 . S
C1989 C1990 1.366 . S
C1989 C1991 1.388 . S
C1990 C1989 1.366 . S
C1990 C1994 1.385 . S
C1991 H1966 0.951 . S
C1991 C1989 1.388 . S
C1991 C1992 1.366 . S
C1992 C1991 1.366 . S
C1992 C1993 1.414 . S
C1992 C1995 1.499 . S
C1993 H1967 0.950 . S
C1993 C1992 1.414 . S
C1993 C1994 1.374 . S
C1994 H1968 0.950 . S
C1994 C1990 1.385 . S
C1994 C1993 1.374 . S
C1995 C1992 1.499 . S
C1995 C1996 1.373 . S
C1995 C1997 1.389 . S
C1996 H1969 0.950 . S
C1996 C1982 1.377 . S
C1996 C1995 1.373 . S
C1997 C1981 1.377 . S
C1997 C1995 1.389 . S
C1997 C1998 1.524 . S
C1998 C1997 1.524 . S
C1998 C1999 1.397 . S
C1998 C2003 1.363 . S
C1999 H1970 0.950 . S
C1999 C1998 1.397 . S
C1999 C2000 1.334 . S
C2000 H1971 0.950 . S
C2000 C1999 1.334 . S
C2000 C2001 1.287 . S
C2001 C2000 1.287 . S
C2001 C2002 1.524 . S
C2001 H2004 0.999 . S
C2002 H1972 0.950 . S
C2002 C2001 1.524 . S
C2002 C2003 1.415 . S
C2003 H1973 0.950 . S
C2003 C1998 1.363 . S
C2003 C2002 1.415 . S
H2004 C2001 0.999 . S
H2005 C1986 0.913 . S
H2006 C2024 0.951 . S
H2007 C2026 0.951 . S
H2008 C2028 0.950 . S
H2009 C2029 0.950 . S
H2010 C2031 0.950 . S
H2011 C2034 0.950 . S
H2012 C2035 0.950 . S
H2013 C2037 0.950 . S
H2014 C2038 0.950 . S
H2015 C2039 0.951 . S
H2016 C2041 0.951 . S
H2017 C2043 0.950 . S
H2018 C2044 0.950 . S
H2019 C2046 0.950 . S
H2020 C2049 0.950 . S
H2021 C2050 0.950 . S
H2022 C2052 0.950 . S
H2023 C2053 0.950 . S
C2024 H2006 0.951 . S
C2024 C2025 1.366 . S
C2024 C2026 1.388 . S
C2025 C2024 1.366 . S
C2025 C2029 1.385 . S
C2026 H2007 0.951 . S
C2026 C2024 1.388 . S
C2026 C2027 1.366 . S
C2027 C2026 1.366 . S
C2027 C2028 1.414 . S
C2027 C2030 1.499 . S
C2028 H2008 0.950 . S
C2028 C2027 1.414 . S
C2028 C2029 1.374 . S
C2029 H2009 0.950 . S
C2029 C2025 1.385 . S
C2029 C2028 1.374 . S
C2030 C2027 1.499 . S
C2030 C2031 1.373 . S
C2030 C2032 1.389 . S
C2031 H2010 0.950 . S
C2031 C2030 1.373 . S
C2031 C2047 1.377 . S
C2032 C2030 1.389 . S
C2032 C2033 1.524 . S
C2032 C2046 1.377 . S
C2033 C2032 1.524 . S
C2033 C2034 1.397 . S
C2033 C2038 1.363 . S
C2034 H2011 0.950 . S
C2034 C2033 1.397 . S
C2034 C2035 1.334 . S
C2035 H2012 0.950 . S
C2035 C2034 1.334 . S
C2035 C2036 1.287 . S
C2036 C2035 1.287 . S
C2036 C2037 1.524 . S
C2036 H2055 0.913 . S
C2037 H2013 0.950 . S
C2037 C2036 1.524 . S
C2037 C2038 1.415 . S
C2038 H2014 0.950 . S
C2038 C2033 1.363 . S
C2038 C2037 1.415 . S
C2039 H2015 0.951 . S
C2039 C2040 1.366 . S
C2039 C2041 1.388 . S
C2040 C2039 1.366 . S
C2040 C2044 1.385 . S
C2041 H2016 0.951 . S
C2041 C2039 1.388 . S
C2041 C2042 1.366 . S
C2042 C2041 1.366 . S
C2042 C2043 1.414 . S
C2042 C2045 1.499 . S
C2043 H2017 0.950 . S
C2043 C2042 1.414 . S
C2043 C2044 1.374 . S
C2044 H2018 0.950 . S
C2044 C2040 1.385 . S
C2044 C2043 1.374 . S
C2045 C2042 1.499 . S
C2045 C2046 1.373 . S
C2045 C2047 1.389 . S
C2046 H2019 0.950 . S
C2046 C2032 1.377 . S
C2046 C2045 1.373 . S
C2047 C2031 1.377 . S
C2047 C2045 1.389 . S
C2047 C2048 1.524 . S
C2048 C2047 1.524 . S
C2048 C2049 1.397 . S
C2048 C2053 1.363 . S
C2049 H2020 0.950 . S
C2049 C2048 1.397 . S
C2049 C2050 1.334 . S
C2050 H2021 0.950 . S
C2050 C2049 1.334 . S
C2050 C2051 1.287 . S
C2051 C2050 1.287 . S
C2051 C2052 1.524 . S
C2051 H2054 0.999 . S
C2052 H2022 0.950 . S
C2052 C2051 1.524 . S
C2052 C2053 1.415 . S
C2053 H2023 0.950 . S
C2053 C2048 1.363 . S
C2053 C2052 1.415 . S
H2054 C2051 0.999 . S
H2055 C2036 0.913 . S
H2056 C2074 0.951 . S
H2057 C2076 0.951 . S
H2058 C2078 0.950 . S
H2059 C2079 0.950 . S
H2060 C2081 0.950 . S
H2061 C2084 0.950 . S
H2062 C2085 0.950 . S
H2063 C2087 0.950 . S
H2064 C2088 0.950 . S
H2065 C2089 0.951 . S
H2066 C2091 0.951 . S
H2067 C2093 0.950 . S
H2068 C2094 0.950 . S
H2069 C2096 0.950 . S
H2070 C2099 0.950 . S
H2071 C2100 0.950 . S
H2072 C2102 0.950 . S
H2073 C2103 0.950 . S
C2074 H2056 0.951 . S
C2074 C2075 1.366 . S
C2074 C2076 1.388 . S
C2075 C2074 1.366 . S
C2075 C2079 1.385 . S
C2076 H2057 0.951 . S
C2076 C2074 1.388 . S
C2076 C2077 1.366 . S
C2077 C2076 1.366 . S
C2077 C2078 1.414 . S
C2077 C2080 1.499 . S
C2078 H2058 0.950 . S
C2078 C2077 1.414 . S
C2078 C2079 1.374 . S
C2079 H2059 0.950 . S
C2079 C2075 1.385 . S
C2079 C2078 1.374 . S
C2080 C2077 1.499 . S
C2080 C2081 1.373 . S
C2080 C2082 1.389 . S
C2081 H2060 0.950 . S
C2081 C2080 1.373 . S
C2081 C2097 1.377 . S
C2082 C2080 1.389 . S
C2082 C2083 1.524 . S
C2082 C2096 1.377 . S
C2083 C2082 1.524 . S
C2083 C2084 1.397 . S
C2083 C2088 1.363 . S
C2084 H2061 0.950 . S
C2084 C2083 1.397 . S
C2084 C2085 1.334 . S
C2085 H2062 0.950 . S
C2085 C2084 1.334 . S
C2085 C2086 1.287 . S
C2086 C2085 1.287 . S
C2086 C2087 1.524 . S
C2086 H2105 0.913 . S
C2087 H2063 0.950 . S
C2087 C2086 1.524 . S
C2087 C2088 1.415 . S
C2088 H2064 0.950 . S
C2088 C2083 1.363 . S
C2088 C2087 1.415 . S
C2089 H2065 0.951 . S
C2089 C2090 1.366 . S
C2089 C2091 1.388 . S
C2090 C2089 1.366 . S
C2090 C2094 1.385 . S
C2091 H2066 0.951 . S
C2091 C2089 1.388 . S
C2091 C2092 1.366 . S
C2092 C2091 1.366 . S
C2092 C2093 1.414 . S
C2092 C2095 1.499 . S
C2093 H2067 0.950 . S
C2093 C2092 1.414 . S
C2093 C2094 1.374 . S
C2094 H2068 0.950 . S
C2094 C2090 1.385 . S
C2094 C2093 1.374 . S
C2095 C2092 1.499 . S
C2095 C2096 1.373 . S
C2095 C2097 1.389 . S
C2096 H2069 0.950 . S
C2096 C2082 1.377 . S
C2096 C2095 1.373 . S
C2097 C2081 1.377 . S
C2097 C2095 1.389 . S
C2097 C2098 1.524 . S
C2098 C2097 1.524 . S
C2098 C2099 1.397 . S
C2098 C2103 1.363 . S
C2099 H2070 0.950 . S
C2099 C2098 1.397 . S
C2099 C2100 1.334 . S
C2100 H2071 0.950 . S
C2100 C2099 1.334 . S
C2100 C2101 1.287 . S
C2101 C2100 1.287 . S
C2101 C2102 1.524 . S
C2101 H2104 0.999 . S
C2102 H2072 0.950 . S
C2102 C2101 1.524 . S
C2102 C2103 1.415 . S
C2103 H2073 0.950 . S
C2103 C2098 1.363 . S
C2103 C2102 1.415 . S
H2104 C2101 0.999 . S
H2105 C2086 0.913 . S
H2106 C2124 0.951 . S
H2107 C2126 0.951 . S
H2108 C2128 0.950 . S
H2109 C2129 0.950 . S
H2110 C2131 0.950 . S
H2111 C2134 0.950 . S
H2112 C2135 0.950 . S
H2113 C2137 0.950 . S
H2114 C2138 0.950 . S
H2115 C2139 0.951 . S
H2116 C2141 0.951 . S
H2117 C2143 0.950 . S
H2118 C2144 0.950 . S
H2119 C2146 0.950 . S
H2120 C2149 0.950 . S
H2121 C2150 0.950 . S
H2122 C2152 0.950 . S
H2123 C2153 0.950 . S
C2124 H2106 0.951 . S
C2124 C2125 1.366 . S
C2124 C2126 1.388 . S
C2125 C2124 1.366 . S
C2125 C2129 1.385 . S
C2126 H2107 0.951 . S
C2126 C2124 1.388 . S
C2126 C2127 1.366 . S
C2127 C2126 1.366 . S
C2127 C2128 1.414 . S
C2127 C2130 1.499 . S
C2128 H2108 0.950 . S
C2128 C2127 1.414 . S
C2128 C2129 1.374 . S
C2129 H2109 0.950 . S
C2129 C2125 1.385 . S
C2129 C2128 1.374 . S
C2130 C2127 1.499 . S
C2130 C2131 1.373 . S
C2130 C2132 1.389 . S
C2131 H2110 0.950 . S
C2131 C2130 1.373 . S
C2131 C2147 1.377 . S
C2132 C2130 1.389 . S
C2132 C2133 1.524 . S
C2132 C2146 1.377 . S
C2133 C2132 1.524 . S
C2133 C2134 1.397 . S
C2133 C2138 1.363 . S
C2134 H2111 0.950 . S
C2134 C2133 1.397 . S
C2134 C2135 1.334 . S
C2135 H2112 0.950 . S
C2135 C2134 1.334 . S
C2135 C2136 1.287 . S
C2136 C2135 1.287 . S
C2136 C2137 1.524 . S
C2136 H2155 0.913 . S
C2137 H2113 0.950 . S
C2137 C2136 1.524 . S
C2137 C2138 1.415 . S
C2138 H2114 0.950 . S
C2138 C2133 1.363 . S
C2138 C2137 1.415 . S
C2139 H2115 0.951 . S
C2139 C2140 1.366 . S
C2139 C2141 1.388 . S
C2140 C2139 1.366 . S
C2140 C2144 1.385 . S
C2141 H2116 0.951 . S
C2141 C2139 1.388 . S
C2141 C2142 1.366 . S
C2142 C2141 1.366 . S
C2142 C2143 1.414 . S
C2142 C2145 1.499 . S
C2143 H2117 0.950 . S
C2143 C2142 1.414 . S
C2143 C2144 1.374 . S
C2144 H2118 0.950 . S
C2144 C2140 1.385 . S
C2144 C2143 1.374 . S
C2145 C2142 1.499 . S
C2145 C2146 1.373 . S
C2145 C2147 1.389 . S
C2146 H2119 0.950 . S
C2146 C2132 1.377 . S
C2146 C2145 1.373 . S
C2147 C2131 1.377 . S
C2147 C2145 1.389 . S
C2147 C2148 1.524 . S
C2148 C2147 1.524 . S
C2148 C2149 1.397 . S
C2148 C2153 1.363 . S
C2149 H2120 0.950 . S
C2149 C2148 1.397 . S
C2149 C2150 1.334 . S
C2150 H2121 0.950 . S
C2150 C2149 1.334 . S
C2150 C2151 1.287 . S
C2151 C2150 1.287 . S
C2151 C2152 1.524 . S
C2151 H2154 0.999 . S
C2152 H2122 0.950 . S
C2152 C2151 1.524 . S
C2152 C2153 1.415 . S
C2153 H2123 0.950 . S
C2153 C2148 1.363 . S
C2153 C2152 1.415 . S
H2154 C2151 0.999 . S
H2155 C2136 0.913 . S
H2156 C2174 0.951 . S
H2157 C2176 0.951 . S
H2158 C2178 0.950 . S
H2159 C2179 0.950 . S
H2160 C2181 0.950 . S
H2161 C2184 0.950 . S
H2162 C2185 0.950 . S
H2163 C2187 0.950 . S
H2164 C2188 0.950 . S
H2165 C2189 0.951 . S
H2166 C2191 0.951 . S
H2167 C2193 0.950 . S
H2168 C2194 0.950 . S
H2169 C2196 0.950 . S
H2170 C2199 0.950 . S
H2171 C2200 0.950 . S
H2172 C2202 0.950 . S
H2173 C2203 0.950 . S
C2174 H2156 0.951 . S
C2174 C2175 1.366 . S
C2174 C2176 1.388 . S
C2175 C2174 1.366 . S
C2175 C2179 1.385 . S
C2176 H2157 0.951 . S
C2176 C2174 1.388 . S
C2176 C2177 1.366 . S
C2177 C2176 1.366 . S
C2177 C2178 1.414 . S
C2177 C2180 1.499 . S
C2178 H2158 0.950 . S
C2178 C2177 1.414 . S
C2178 C2179 1.374 . S
C2179 H2159 0.950 . S
C2179 C2175 1.385 . S
C2179 C2178 1.374 . S
C2180 C2177 1.499 . S
C2180 C2181 1.373 . S
C2180 C2182 1.389 . S
C2181 H2160 0.950 . S
C2181 C2180 1.373 . S
C2181 C2197 1.377 . S
C2182 C2180 1.389 . S
C2182 C2183 1.524 . S
C2182 C2196 1.377 . S
C2183 C2182 1.524 . S
C2183 C2184 1.397 . S
C2183 C2188 1.363 . S
C2184 H2161 0.950 . S
C2184 C2183 1.397 . S
C2184 C2185 1.334 . S
C2185 H2162 0.950 . S
C2185 C2184 1.334 . S
C2185 C2186 1.287 . S
C2186 C2185 1.287 . S
C2186 C2187 1.524 . S
C2186 H2205 0.913 . S
C2187 H2163 0.950 . S
C2187 C2186 1.524 . S
C2187 C2188 1.415 . S
C2188 H2164 0.950 . S
C2188 C2183 1.363 . S
C2188 C2187 1.415 . S
C2189 H2165 0.951 . S
C2189 C2190 1.366 . S
C2189 C2191 1.388 . S
C2190 C2189 1.366 . S
C2190 C2194 1.385 . S
C2191 H2166 0.951 . S
C2191 C2189 1.388 . S
C2191 C2192 1.366 . S
C2192 C2191 1.366 . S
C2192 C2193 1.414 . S
C2192 C2195 1.499 . S
C2193 H2167 0.950 . S
C2193 C2192 1.414 . S
C2193 C2194 1.374 . S
C2194 H2168 0.950 . S
C2194 C2190 1.385 . S
C2194 C2193 1.374 . S
C2195 C2192 1.499 . S
C2195 C2196 1.373 . S
C2195 C2197 1.389 . S
C2196 H2169 0.950 . S
C2196 C2182 1.377 . S
C2196 C2195 1.373 . S
C2197 C2181 1.377 . S
C2197 C2195 1.389 . S
C2197 C2198 1.524 . S
C2198 C2197 1.524 . S
C2198 C2199 1.397 . S
C2198 C2203 1.363 . S
C2199 H2170 0.950 . S
C2199 C2198 1.397 . S
C2199 C2200 1.334 . S
C2200 H2171 0.950 . S
C2200 C2199 1.334 . S
C2200 C2201 1.287 . S
C2201 C2200 1.287 . S
C2201 C2202 1.524 . S
C2201 H2204 0.999 . S
C2202 H2172 0.950 . S
C2202 C2201 1.524 . S
C2202 C2203 1.415 . S
C2203 H2173 0.950 . S
C2203 C2198 1.363 . S
C2203 C2202 1.415 . S
H2204 C2201 0.999 . S
H2205 C2186 0.913 . S
H2206 C2224 0.951 . S
H2207 C2226 0.951 . S
H2208 C2228 0.950 . S
H2209 C2229 0.950 . S
H2210 C2231 0.950 . S
H2211 C2234 0.950 . S
H2212 C2235 0.950 . S
H2213 C2237 0.950 . S
H2214 C2238 0.950 . S
H2215 C2239 0.951 . S
H2216 C2241 0.951 . S
H2217 C2243 0.950 . S
H2218 C2244 0.950 . S
H2219 C2246 0.950 . S
H2220 C2249 0.950 . S
H2221 C2250 0.950 . S
H2222 C2252 0.950 . S
H2223 C2253 0.950 . S
C2224 H2206 0.951 . S
C2224 C2225 1.366 . S
C2224 C2226 1.388 . S
C2225 C2224 1.366 . S
C2225 C2229 1.385 . S
C2226 H2207 0.951 . S
C2226 C2224 1.388 . S
C2226 C2227 1.366 . S
C2227 C2226 1.366 . S
C2227 C2228 1.414 . S
C2227 C2230 1.499 . S
C2228 H2208 0.950 . S
C2228 C2227 1.414 . S
C2228 C2229 1.374 . S
C2229 H2209 0.950 . S
C2229 C2225 1.385 . S
C2229 C2228 1.374 . S
C2230 C2227 1.499 . S
C2230 C2231 1.373 . S
C2230 C2232 1.389 . S
C2231 H2210 0.950 . S
C2231 C2230 1.373 . S
C2231 C2247 1.377 . S
C2232 C2230 1.389 . S
C2232 C2233 1.524 . S
C2232 C2246 1.377 . S
C2233 C2232 1.524 . S
C2233 C2234 1.397 . S
C2233 C2238 1.363 . S
C2234 H2211 0.950 . S
C2234 C2233 1.397 . S
C2234 C2235 1.334 . S
C2235 H2212 0.950 . S
C2235 C2234 1.334 . S
C2235 C2236 1.287 . S
C2236 C2235 1.287 . S
C2236 C2237 1.524 . S
C2236 H2255 0.913 . S
C2237 H2213 0.950 . S
C2237 C2236 1.524 . S
C2237 C2238 1.415 . S
C2238 H2214 0.950 . S
C2238 C2233 1.363 . S
C2238 C2237 1.415 . S
C2239 H2215 0.951 . S
C2239 C2240 1.366 . S
C2239 C2241 1.388 . S
C2240 C2239 1.366 . S
C2240 C2244 1.385 . S
C2241 H2216 0.951 . S
C2241 C2239 1.388 . S
C2241 C2242 1.366 . S
C2242 C2241 1.366 . S
C2242 C2243 1.414 . S
C2242 C2245 1.499 . S
C2243 H2217 0.950 . S
C2243 C2242 1.414 . S
C2243 C2244 1.374 . S
C2244 H2218 0.950 . S
C2244 C2240 1.385 . S
C2244 C2243 1.374 . S
C2245 C2242 1.499 . S
C2245 C2246 1.373 . S
C2245 C2247 1.389 . S
C2246 H2219 0.950 . S
C2246 C2232 1.377 . S
C2246 C2245 1.373 . S
C2247 C2231 1.377 . S
C2247 C2245 1.389 . S
C2247 C2248 1.524 . S
C2248 C2247 1.524 . S
C2248 C2249 1.397 . S
C2248 C2253 1.363 . S
C2249 H2220 0.950 . S
C2249 C2248 1.397 . S
C2249 C2250 1.334 . S
C2250 H2221 0.950 . S
C2250 C2249 1.334 . S
C2250 C2251 1.287 . S
C2251 C2250 1.287 . S
C2251 C2252 1.524 . S
C2251 H2254 0.999 . S
C2252 H2222 0.950 . S
C2252 C2251 1.524 . S
C2252 C2253 1.415 . S
C2253 H2223 0.950 . S
C2253 C2248 1.363 . S
C2253 C2252 1.415 . S
H2254 C2251 0.999 . S
H2255 C2236 0.913 . S
C1075 C753 1.309 . S
C1090 C57 1.309 . S
C1125 C145 1.309 . S
C1140 C821 1.309 . S
C1175 C233 1.309 . S
C1190 C900 1.309 . S
C1225 C293 1.309 . S
C1240 C997 1.309 . S
C1275 C557 1.309 . S
C1290 C372 1.309 . S
C1325 C460 1.308 . S
C1340 C645 1.308 . S
C1375 C20 1.370 . S
C1390 C469 1.363 . S
C1425 C108 1.371 . S
C1440 C49 1.363 . S
C1475 C196 1.371 . S
C1490 C137 1.363 . S
C1525 C225 1.364 . S
C1540 C313 1.370 . S
C1575 C284 1.363 . S
C1590 C409 1.370 . S
C1625 C381 1.363 . S
C1640 C497 1.371 . S
C1675 C636 1.363 . S
C1690 C577 1.370 . S
C1725 C665 1.370 . S
C1740 C761 1.363 . S
C1775 C812 1.363 . S
C1790 C733 1.371 . S
C1825 C841 1.370 . S
C1840 C909 1.363 . S
C1875 C937 1.370 . S
C1890 C988 1.363 . S
C1925 C1017 1.370 . S
C1940 C548 1.363 . S
C1975 C929 1.054 . S
C1990 C29 1.053 . S
C2025 C1025 1.053 . S
C2040 C117 1.054 . S
C2075 C585 1.054 . S
C2090 C205 1.053 . S
C2125 C321 1.053 . S
C2140 C673 1.054 . S
C2175 C401 1.054 . S
C2190 C724 1.053 . S
C2225 C849 1.053 . S
C2240 C489 1.054 . S
