# Generated by pormake.
# Topology unj, (4)-cn, num edge types: 1
# Building blocks:
#     Node 0, Type 0, BuildingBlock: UXUYUI_clean_sbu_0, # of connection points: 4
#     Node 1, Type 0, BuildingBlock: UXUYUI_clean_sbu_0, # of connection points: 4
#     Node 2, Type 0, BuildingBlock: UXUYUI_clean_sbu_0, # of connection points: 4
#     Node 3, Type 0, BuildingBlock: UXUYUI_clean_sbu_0, # of connection points: 4
#     Node 4, Type 0, BuildingBlock: UXUYUI_clean_sbu_0, # of connection points: 4
#     Node 5, Type 0, BuildingBlock: UXUYUI_clean_sbu_0, # of connection points: 4
#     Edge 6, Type (0, 0), BuildingBlock: TEMPAE_clean_linker_10, # of connection points: 2
#     Edge 7, Type (0, 0), BuildingBlock: TEMPAE_clean_linker_10, # of connection points: 2
#     Edge 8, Type (0, 0), BuildingBlock: TEMPAE_clean_linker_10, # of connection points: 2
#     Edge 9, Type (0, 0), BuildingBlock: TEMPAE_clean_linker_10, # of connection points: 2
#     Edge 10, Type (0, 0), BuildingBlock: TEMPAE_clean_linker_10, # of connection points: 2
#     Edge 11, Type (0, 0), BuildingBlock: TEMPAE_clean_linker_10, # of connection points: 2
#     Edge 12, Type (0, 0), BuildingBlock: TEMPAE_clean_linker_10, # of connection points: 2
#     Edge 13, Type (0, 0), BuildingBlock: TEMPAE_clean_linker_10, # of connection points: 2
#     Edge 14, Type (0, 0), BuildingBlock: TEMPAE_clean_linker_10, # of connection points: 2
#     Edge 15, Type (0, 0), BuildingBlock: TEMPAE_clean_linker_10, # of connection points: 2
#     Edge 16, Type (0, 0), BuildingBlock: TEMPAE_clean_linker_10, # of connection points: 2
#     Edge 17, Type (0, 0), BuildingBlock: TEMPAE_clean_linker_10, # of connection points: 2
# Relax obj value: 0.030
# Max RMSD: 0.052
# Mean RMSD: 0.052
data_MOF--net-unj--node1-UXUYUI_clean_sbu_0--edge1-TEMPAE_clean_linker_10
_symmetry_space_group_name_H-M    P1
_symmetry_Int_Tables_number       1
_symmetry_cell_setting            triclinic
loop_
_symmetry_equiv_pos_as_xyz
'x, y, z'
_cell_length_a     51.412137
_cell_length_b     51.407951
_cell_length_c     49.673088
_cell_angle_alpha  89.981312
_cell_angle_beta   89.997254
_cell_angle_gamma 120.00954
loop_
_atom_site_label
_atom_site_type_symbol
_atom_site_fract_x
_atom_site_fract_y
_atom_site_fract_z
_atom_type_partial_charge
Li0 Li 0.45762 0.20781 0.58057 0.0
Li1 Li 0.49803 0.23937 0.61241 0.0
Li2 Li 0.45761 0.25111 0.59974 0.0
Li3 Li 0.4976 0.26073 0.56756 0.0
C4 C 0.43428 0.18858 0.63029 0.0
N5 N 0.39448 0.13301 0.65173 0.0
C6 C 0.44449 0.17449 0.648 0.0
C7 C 0.40379 0.17458 0.62373 0.0
C8 C 0.42402 0.14636 0.65858 0.0
C9 C 0.38404 0.14643 0.6347 0.0
C10 C 0.52459 0.21946 0.57151 0.0
C11 C 0.57671 0.23678 0.56171 0.0
N12 N 0.57077 0.20786 0.56168 0.0
C13 C 0.51894 0.18988 0.571 0.0
C14 C 0.55366 0.24309 0.56651 0.0
C15 C 0.5426 0.18449 0.56616 0.0
C16 C 0.41803 0.16265 0.54429 0.0
N17 N 0.4339 0.16756 0.56746 0.0
C18 C 0.41758 0.11521 0.5712 0.0
C19 C 0.43405 0.14458 0.58086 0.0
C20 C 0.40117 0.10936 0.54713 0.0
C21 C 0.4015 0.13363 0.53369 0.0
H22 H 0.41861 0.18136 0.53379 0.0
H23 H 0.44728 0.14906 0.59895 0.0
C24 C 0.53043 0.2596 0.66115 0.0
N25 N 0.52303 0.2393 0.6409 0.0
C26 C 0.54899 0.26064 0.68217 0.0
C27 C 0.55153 0.21946 0.66141 0.0
C28 C 0.53281 0.21914 0.64089 0.0
C29 C 0.55997 0.2405 0.68236 0.0
H30 H 0.52202 0.27514 0.66088 0.0
H31 H 0.52585 0.20255 0.62514 0.0
C32 C 0.43286 0.24668 0.552 0.0
N33 N 0.39137 0.26237 0.5351 0.0
C34 C 0.44228 0.27342 0.53785 0.0
C35 C 0.40232 0.22771 0.55725 0.0
C36 C 0.42096 0.28101 0.52954 0.0
C37 C 0.3817 0.2361 0.54864 0.0
C38 C 0.52737 0.30572 0.60778 0.0
C39 C 0.52614 0.33199 0.6119 0.0
C40 C 0.55513 0.30694 0.60822 0.0
C41 C 0.5528 0.35914 0.61586 0.0
C42 C 0.58128 0.3345 0.61228 0.0
N43 N 0.57959 0.35984 0.61594 0.0
C44 C 0.41212 0.25273 0.63151 0.0
C45 C 0.43938 0.2944 0.60258 0.0
C46 C 0.39533 0.26529 0.64129 0.0
N47 N 0.43366 0.26741 0.61252 0.0
C48 C 0.42312 0.30774 0.61173 0.0
C49 C 0.40085 0.29328 0.63149 0.0
H50 H 0.40827 0.23149 0.63936 0.0
H51 H 0.45673 0.30567 0.58759 0.0
C52 C 0.52905 0.27329 0.51823 0.0
N53 N 0.52194 0.28592 0.53891 0.0
C54 C 0.54721 0.29109 0.49712 0.0
C55 C 0.54984 0.33449 0.51867 0.0
C56 C 0.53155 0.31583 0.53928 0.0
C57 C 0.55804 0.32219 0.49728 0.0
H58 H 0.52076 0.24936 0.51825 0.0
H59 H 0.5248 0.32522 0.55544 0.0
O60 O 0.45405 0.21602 0.6196 0.0
O61 O 0.50157 0.22507 0.57609 0.0
O62 O 0.45346 0.23914 0.56074 0.0
O63 O 0.50144 0.27897 0.60376 0.0
H64 H 0.46797 0.18508 0.65343 0.0
H65 H 0.39551 0.18524 0.61017 0.0
H66 H 0.43162 0.13512 0.67221 0.0
H67 H 0.36042 0.13525 0.62965 0.0
H68 H 0.59931 0.25488 0.55788 0.0
H69 H 0.49659 0.17128 0.57452 0.0
H70 H 0.55838 0.26605 0.56595 0.0
H71 H 0.53856 0.16172 0.56594 0.0
H72 H 0.41775 0.09731 0.58253 0.0
H73 H 0.38969 0.13043 0.51485 0.0
H74 H 0.55503 0.27728 0.69789 0.0
H75 H 0.55896 0.20312 0.66109 0.0
H76 H 0.46583 0.2883 0.53356 0.0
H77 H 0.39466 0.20681 0.56795 0.0
H78 H 0.42794 0.30174 0.51873 0.0
H79 H 0.358 0.22174 0.55271 0.0
H80 H 0.50486 0.33147 0.61194 0.0
H81 H 0.55646 0.28678 0.60587 0.0
H82 H 0.55218 0.37966 0.61891 0.0
H83 H 0.6029 0.33573 0.61264 0.0
H84 H 0.37868 0.25353 0.65679 0.0
H85 H 0.42791 0.32913 0.60333 0.0
H86 H 0.55308 0.28071 0.48108 0.0
H87 H 0.55717 0.35823 0.51929 0.0
Li88 Li 0.26429 0.49488 0.77409 0.0
Li89 Li 0.2554 0.45602 0.74177 0.0
Li90 Li 0.24303 0.49609 0.73137 0.0
Li91 Li 0.21165 0.45638 0.7638 0.0
C92 C 0.31205 0.52155 0.73982 0.0
N93 N 0.3716 0.56583 0.74439 0.0
C94 C 0.33473 0.51412 0.73844 0.0
C95 C 0.31969 0.55153 0.74319 0.0
C96 C 0.3647 0.53683 0.74087 0.0
C97 C 0.34991 0.57358 0.74557 0.0
C98 C 0.26006 0.44627 0.79999 0.0
C99 C 0.26593 0.43517 0.84603 0.0
N100 N 0.29337 0.43893 0.83984 0.0
C101 C 0.28832 0.45001 0.79409 0.0
C102 C 0.24875 0.43878 0.82616 0.0
C103 C 0.30481 0.44621 0.8145 0.0
C104 C 0.27868 0.53196 0.81997 0.0
N105 N 0.28985 0.51924 0.80291 0.0
C106 C 0.33648 0.54207 0.82685 0.0
C107 C 0.31802 0.5236 0.80626 0.0
C108 C 0.32569 0.5558 0.84452 0.0
C109 C 0.29627 0.55034 0.84107 0.0
H110 H 0.2561 0.52789 0.81715 0.0
H111 H 0.32631 0.51279 0.79299 0.0
C112 C 0.28627 0.44085 0.70388 0.0
N113 N 0.26937 0.43112 0.72662 0.0
C114 C 0.29841 0.42432 0.6927 0.0
C115 C 0.27477 0.38757 0.72812 0.0
C116 C 0.26313 0.40485 0.73864 0.0
C117 C 0.29296 0.39739 0.70497 0.0
H118 H 0.29081 0.46182 0.69474 0.0
H119 H 0.24943 0.39752 0.75661 0.0
C120 C 0.21965 0.52032 0.76564 0.0
N121 N 0.1999 0.56115 0.76063 0.0
C122 C 0.18895 0.51027 0.76352 0.0
C123 C 0.24027 0.55112 0.76564 0.0
C124 C 0.17942 0.53128 0.7609 0.0
C125 C 0.22985 0.57141 0.76296 0.0
C126 C 0.20092 0.42334 0.71525 0.0
C127 C 0.19108 0.41825 0.68855 0.0
C128 C 0.19361 0.39895 0.73226 0.0
C129 C 0.17392 0.38875 0.6793 0.0
C130 C 0.17643 0.36979 0.72224 0.0
N131 N 0.16702 0.36533 0.69619 0.0
C132 C 0.26731 0.53852 0.68899 0.0
C133 C 0.21574 0.52047 0.69765 0.0
C134 C 0.26732 0.55718 0.66853 0.0
N135 N 0.24186 0.52094 0.70328 0.0
C136 C 0.21483 0.53909 0.67761 0.0
C137 C 0.24089 0.55779 0.66279 0.0
H138 H 0.28761 0.53799 0.69336 0.0
H139 H 0.19555 0.50554 0.70863 0.0
C140 C 0.16789 0.43209 0.80489 0.0
N141 N 0.17172 0.43329 0.77775 0.0
C142 C 0.13908 0.41641 0.81602 0.0
C143 C 0.11861 0.40372 0.77105 0.0
C144 C 0.14779 0.41982 0.7608 0.0
C145 C 0.11395 0.40189 0.79902 0.0
H146 H 0.18721 0.44369 0.81788 0.0
H147 H 0.15124 0.42193 0.73927 0.0
O148 O 0.28258 0.49961 0.73756 0.0
O149 O 0.24367 0.45012 0.7803 0.0
O150 O 0.22943 0.50009 0.76811 0.0
O151 O 0.218 0.45211 0.72449 0.0
H152 H 0.32927 0.49105 0.7358 0.0
H153 H 0.30246 0.55769 0.74397 0.0
H154 H 0.38246 0.53139 0.74001 0.0
H155 H 0.35612 0.59685 0.74832 0.0
H156 H 0.25744 0.42937 0.86637 0.0
H157 H 0.29767 0.45627 0.77408 0.0
H158 H 0.22694 0.43576 0.83112 0.0
H159 H 0.32677 0.44919 0.81022 0.0
H160 H 0.35887 0.54531 0.82911 0.0
H161 H 0.28714 0.56056 0.85427 0.0
H162 H 0.31255 0.43296 0.67504 0.0
H163 H 0.26961 0.36675 0.73802 0.0
H164 H 0.17267 0.48652 0.76364 0.0
H165 H 0.26404 0.55929 0.76779 0.0
H166 H 0.15575 0.52382 0.75904 0.0
H167 H 0.24557 0.59532 0.76279 0.0
H168 H 0.19666 0.43693 0.67514 0.0
H169 H 0.20107 0.40247 0.75298 0.0
H170 H 0.16612 0.38446 0.65868 0.0
H171 H 0.17059 0.35071 0.73517 0.0
H172 H 0.28787 0.57125 0.65754 0.0
H173 H 0.19387 0.53852 0.67344 0.0
H174 H 0.13651 0.41556 0.83769 0.0
H175 H 0.09984 0.39338 0.75721 0.0
Li176 Li 0.80642 0.2508 0.91198 0.0
Li177 Li 0.7764 0.25946 0.94567 0.0
Li178 Li 0.76369 0.20778 0.93339 0.0
Li179 Li 0.75392 0.23823 0.90182 0.0
C180 C 0.81852 0.22769 0.95834 0.0
N181 N 0.85322 0.20285 0.97314 0.0
C182 C 0.83051 0.2322 0.98428 0.0
C183 C 0.82413 0.21052 0.93992 0.0
C184 C 0.84802 0.21947 0.99137 0.0
C185 C 0.84173 0.19816 0.94779 0.0
C186 C 0.79854 0.30704 0.90548 0.0
C187 C 0.78751 0.34664 0.89651 0.0
N188 N 0.81739 0.36706 0.89716 0.0
C189 C 0.82916 0.32837 0.90574 0.0
C190 C 0.77754 0.31618 0.90055 0.0
C191 C 0.83823 0.35862 0.90163 0.0
C192 C 0.84908 0.26683 0.87022 0.0
N193 N 0.84585 0.26741 0.89734 0.0
C194 C 0.89914 0.2939 0.90334 0.0
C195 C 0.87011 0.28065 0.91393 0.0
C196 C 0.90324 0.29388 0.87537 0.0
C197 C 0.87773 0.28007 0.85874 0.0
H198 H 0.82936 0.25634 0.85752 0.0
H199 H 0.86693 0.28133 0.93538 0.0
C200 C 0.75683 0.27258 0.99433 0.0
N201 N 0.77778 0.28483 0.97447 0.0
C202 C 0.75634 0.29048 0.01527 0.0
C203 C 0.79948 0.33314 0.99539 0.0
C204 C 0.79923 0.31438 0.97494 0.0
C205 C 0.77769 0.32127 0.01582 0.0
H206 H 0.74031 0.24891 0.99378 0.0
H207 H 0.81627 0.32345 0.95952 0.0
C208 C 0.75477 0.18952 0.87901 0.0
N209 N 0.71618 0.14049 0.8482 0.0
C210 C 0.72472 0.17165 0.88664 0.0
C211 C 0.76519 0.18247 0.85572 0.0
C212 C 0.70557 0.14696 0.8708 0.0
C213 C 0.74533 0.15758 0.84041 0.0
C214 C 0.71016 0.22391 0.94248 0.0
C215 C 0.68379 0.1969 0.94783 0.0
C216 C 0.70946 0.2507 0.94148 0.0
C217 C 0.65701 0.19714 0.95183 0.0
C218 C 0.68225 0.25002 0.94562 0.0
N219 N 0.6568 0.22347 0.95065 0.0
C220 C 0.73274 0.16163 0.97097 0.0
C221 C 0.75285 0.14739 0.93463 0.0
C222 C 0.71995 0.1328 0.98198 0.0
N223 N 0.74858 0.16826 0.94761 0.0
C224 C 0.74018 0.11818 0.94478 0.0
C225 C 0.72333 0.11055 0.96869 0.0
H226 H 0.72976 0.1787 0.98086 0.0
H227 H 0.76581 0.1533 0.91624 0.0
C228 C 0.74148 0.25747 0.85293 0.0
N229 N 0.72832 0.23821 0.87385 0.0
C230 C 0.72403 0.25852 0.83184 0.0
C231 C 0.67981 0.21959 0.85403 0.0
C232 C 0.69811 0.21926 0.87463 0.0
C233 C 0.6927 0.23942 0.83222 0.0
H234 H 0.76561 0.272 0.85261 0.0
H235 H 0.68811 0.2037 0.89112 0.0
O236 O 0.80118 0.23988 0.95121 0.0
O237 O 0.7893 0.2773 0.90924 0.0
O238 O 0.77396 0.21395 0.89405 0.0
O239 O 0.73647 0.22395 0.9383 0.0
H240 H 0.8263 0.24539 0.99877 0.0
H241 H 0.81504 0.20677 0.91975 0.0
H242 H 0.85746 0.22278 0.01139 0.0
H243 H 0.84626 0.18483 0.93374 0.0
H244 H 0.7715 0.35403 0.89275 0.0
H245 H 0.84574 0.32169 0.90933 0.0
H246 H 0.75381 0.29995 0.89959 0.0
H247 H 0.86185 0.37539 0.90197 0.0
H248 H 0.91819 0.3047 0.91683 0.0
H249 H 0.87991 0.27942 0.8371 0.0
H250 H 0.73912 0.28043 0.03061 0.0
H251 H 0.81673 0.35662 0.99537 0.0
H252 H 0.71627 0.17671 0.90463 0.0
H253 H 0.7884 0.19612 0.84954 0.0
H254 H 0.68227 0.13293 0.87648 0.0
H255 H 0.75309 0.15185 0.82232 0.0
H256 H 0.68398 0.17596 0.94868 0.0
H257 H 0.72973 0.2718 0.93776 0.0
H258 H 0.6364 0.1764 0.95587 0.0
H259 H 0.68138 0.2706 0.9449 0.0
H260 H 0.70693 0.12777 1.00034 0.0
H261 H 0.74359 0.10177 0.9341 0.0
H262 H 0.73503 0.27381 0.81524 0.0
H263 H 0.65577 0.20464 0.85534 0.0
Li264 Li 0.55883 0.80095 0.07631 0.0
Li265 Li 0.519 0.77074 0.10911 0.0
Li266 Li 0.55893 0.75874 0.09872 0.0
Li267 Li 0.51983 0.74835 0.06577 0.0
C268 C 0.59216 0.814 0.1238 0.0
N269 N 0.65085 0.85009 0.14043 0.0
C270 C 0.59828 0.82582 0.14984 0.0
C271 C 0.61588 0.82055 0.10619 0.0
C272 C 0.62811 0.84403 0.15788 0.0
C273 C 0.64539 0.83883 0.11498 0.0
C274 C 0.49176 0.7884 0.06733 0.0
C275 C 0.43945 0.76972 0.05734 0.0
N276 N 0.44468 0.7984 0.05681 0.0
C277 C 0.4967 0.8177 0.0663 0.0
C278 C 0.46297 0.76421 0.0625 0.0
C279 C 0.47258 0.82229 0.06112 0.0
C280 C 0.59766 0.84578 0.03912 0.0
N281 N 0.58223 0.84068 0.06258 0.0
C282 C 0.59881 0.89297 0.06716 0.0
C283 C 0.58273 0.86352 0.07677 0.0
C284 C 0.6148 0.89897 0.04286 0.0
C285 C 0.61433 0.87496 0.0289 0.0
H286 H 0.59681 0.82716 0.02826 0.0
H287 H 0.57036 0.85876 0.09547 0.0
C288 C 0.48527 0.7516 0.15719 0.0
N289 N 0.49436 0.77235 0.13714 0.0
C290 C 0.46675 0.75149 0.17781 0.0
C291 C 0.46818 0.79486 0.1574 0.0
C292 C 0.48662 0.79407 0.13713 0.0
C293 C 0.45781 0.77323 0.17802 0.0
H294 H 0.49239 0.73505 0.15715 0.0
H295 H 0.49483 0.81086 0.12147 0.0
C296 C 0.57056 0.74914 0.04584 0.0
N297 N 0.58294 0.70976 0.01848 0.0
C298 C 0.55685 0.71899 0.05359 0.0
C299 C 0.59063 0.75926 0.0242 0.0
C300 C 0.56337 0.69943 0.0395 0.0
C301 C 0.59658 0.73901 0.01062 0.0
C302 C 0.48984 0.70413 0.10694 0.0
C303 C 0.49183 0.67837 0.11174 0.0
C304 C 0.46172 0.70212 0.10689 0.0
C305 C 0.46557 0.65095 0.11605 0.0
C306 C 0.43599 0.67431 0.11131 0.0
N307 N 0.43842 0.6495 0.11573 0.0
C308 C 0.57213 0.72595 0.13604 0.0
C309 C 0.61005 0.7508 0.10309 0.0
C310 C 0.58793 0.71308 0.14737 0.0
N311 N 0.58318 0.74409 0.11413 0.0
C312 C 0.6267 0.73856 0.11388 0.0
C313 C 0.6155 0.71914 0.13615 0.0
H314 H 0.55082 0.7212 0.14452 0.0
H315 H 0.61835 0.76528 0.08565 0.0
C316 C 0.49256 0.73629 0.01481 0.0
N317 N 0.49555 0.7227 0.03712 0.0
C318 C 0.47476 0.71911 0.99327 0.0
C319 C 0.46369 0.67423 0.01792 0.0
C320 C 0.48189 0.69227 0.03885 0.0
C321 C 0.45982 0.68756 0.9947 0.0
H322 H 0.50396 0.76055 0.0138 0.0
H323 H 0.48504 0.68183 0.0564 0.0
O324 O 0.56304 0.79609 0.11573 0.0
O325 O 0.51524 0.78359 0.07216 0.0
O326 O 0.56457 0.76878 0.05932 0.0
O327 O 0.51539 0.73112 0.10262 0.0
H328 H 0.58014 0.82094 0.1637 0.0
H329 H 0.6116 0.81161 0.08596 0.0
H330 H 0.63319 0.85332 0.178 0.0
H331 H 0.66396 0.84405 0.10158 0.0
H332 H 0.41705 0.75119 0.05363 0.0
H333 H 0.51888 0.83671 0.06967 0.0
H334 H 0.45883 0.74143 0.06238 0.0
H335 H 0.47605 0.84484 0.06048 0.0
H336 H 0.59887 0.91089 0.07868 0.0
H337 H 0.62617 0.87863 0.01 0.0
H338 H 0.45982 0.73479 0.1936 0.0
H339 H 0.46182 0.812 0.15674 0.0
H340 H 0.54142 0.71075 0.07034 0.0
H341 H 0.60153 0.78254 0.01797 0.0
H342 H 0.55289 0.67605 0.04531 0.0
H343 H 0.61206 0.74655 0.99383 0.0
H344 H 0.51342 0.67948 0.1119 0.0
H345 H 0.45979 0.72188 0.10383 0.0
H346 H 0.46677 0.63082 0.11964 0.0
H347 H 0.41409 0.67247 0.11133 0.0
H348 H 0.57869 0.69858 0.16476 0.0
H349 H 0.64773 0.74363 0.10448 0.0
H350 H 0.47298 0.73047 0.97561 0.0
H351 H 0.45247 0.65006 0.02015 0.0
Li352 Li 0.76288 0.55746 0.24527 0.0
Li353 Li 0.75295 0.51734 0.27764 0.0
Li354 Li 0.80566 0.5576 0.26557 0.0
Li355 Li 0.77555 0.51724 0.23337 0.0
C356 C 0.76535 0.58127 0.29355 0.0
N357 N 0.7479 0.62119 0.31122 0.0
C358 C 0.73942 0.57111 0.30914 0.0
C359 C 0.78262 0.61178 0.28723 0.0
C360 C 0.73093 0.59164 0.31783 0.0
C361 C 0.77335 0.63159 0.29626 0.0
C362 C 0.7082 0.489 0.23586 0.0
C363 C 0.67683 0.43589 0.22755 0.0
N364 N 0.65257 0.43965 0.22509 0.0
C365 C 0.68302 0.49239 0.23288 0.0
C366 C 0.70514 0.46056 0.23287 0.0
C367 C 0.65507 0.46715 0.2276 0.0
C368 C 0.76071 0.60066 0.21085 0.0
N369 N 0.74684 0.58134 0.23161 0.0
C370 C 0.70854 0.59477 0.23297 0.0
C371 C 0.72117 0.57807 0.24265 0.0
C372 C 0.72225 0.61483 0.21147 0.0
C373 C 0.74871 0.61768 0.20037 0.0
H374 H 0.78097 0.60268 0.20227 0.0
H375 H 0.71033 0.56225 0.25887 0.0
C376 C 0.7402 0.48663 0.32722 0.0
N377 N 0.72737 0.49271 0.30602 0.0
C378 C 0.72244 0.46837 0.3483 0.0
C379 C 0.67864 0.4635 0.32564 0.0
C380 C 0.69725 0.4819 0.30505 0.0
C381 C 0.69115 0.45639 0.34764 0.0
H382 H 0.76428 0.49593 0.32771 0.0
H383 H 0.68762 0.48764 0.28839 0.0
C384 C 0.82695 0.5811 0.2173 0.0
N385 N 0.88446 0.62088 0.19979 0.0
C386 C 0.84294 0.57077 0.20225 0.0
C387 C 0.84004 0.61169 0.22317 0.0
C388 C 0.87202 0.59124 0.19363 0.0
C389 C 0.8692 0.63144 0.21423 0.0
C390 C 0.79164 0.48899 0.27548 0.0
C391 C 0.81996 0.49207 0.27954 0.0
C392 C 0.766 0.46062 0.27763 0.0
C393 C 0.82217 0.4666 0.28509 0.0
C394 C 0.76913 0.4357 0.28326 0.0
N395 N 0.79692 0.43917 0.28679 0.0
C396 C 0.85135 0.60162 0.29925 0.0
C397 C 0.86777 0.57761 0.26848 0.0
C398 C 0.88043 0.61863 0.3096 0.0
N399 N 0.84562 0.58159 0.27906 0.0
C400 C 0.89714 0.59426 0.27808 0.0
C401 C 0.90379 0.61502 0.29901 0.0
H402 H 0.83331 0.60419 0.30748 0.0
H403 H 0.86254 0.56123 0.25272 0.0
C404 C 0.75833 0.4869 0.18358 0.0
N405 N 0.77666 0.49255 0.20516 0.0
C406 C 0.75807 0.46868 0.16258 0.0
C407 C 0.79591 0.46282 0.18619 0.0
C408 C 0.79554 0.48126 0.20664 0.0
C409 C 0.77694 0.45621 0.16376 0.0
H410 H 0.74385 0.49653 0.18272 0.0
H411 H 0.81045 0.48664 0.22361 0.0
O412 O 0.7738 0.56144 0.28457 0.0
O413 O 0.73576 0.51355 0.24097 0.0
O414 O 0.79863 0.56134 0.22624 0.0
O415 O 0.78914 0.51377 0.27003 0.0
H416 H 0.72587 0.5476 0.31431 0.0
H417 H 0.80283 0.62002 0.27532 0.0
H418 H 0.71081 0.58407 0.32977 0.0
H419 H 0.78637 0.65522 0.29135 0.0
H420 H 0.67417 0.41376 0.22524 0.0
H421 H 0.68495 0.51423 0.23476 0.0
H422 H 0.72443 0.45756 0.23424 0.0
H423 H 0.63537 0.46945 0.22545 0.0
H424 H 0.68788 0.59152 0.24184 0.0
H425 H 0.76008 0.633 0.18387 0.0
H426 H 0.73316 0.46399 0.36506 0.0
H427 H 0.65465 0.45467 0.32416 0.0
H428 H 0.83309 0.54718 0.19745 0.0
H429 H 0.8279 0.62006 0.23465 0.0
H430 H 0.88474 0.58355 0.18211 0.0
H431 H 0.87969 0.65515 0.21878 0.0
H432 H 0.84004 0.51385 0.27831 0.0
H433 H 0.74388 0.45786 0.27541 0.0
H434 H 0.84396 0.46865 0.2881 0.0
H435 H 0.74945 0.41362 0.28494 0.0
H436 H 0.88461 0.63452 0.32564 0.0
H437 H 0.91434 0.5904 0.26961 0.0
H438 H 0.74347 0.4647 0.14549 0.0
H439 H 0.81069 0.45359 0.18813 0.0
Li440 Li 0.21221 0.76059 0.40989 0.0
Li441 Li 0.24175 0.75225 0.44206 0.0
Li442 Li 0.25196 0.80261 0.43169 0.0
Li443 Li 0.2628 0.77469 0.39695 0.0
C444 C 0.19084 0.74932 0.4625 0.0
N445 N 0.14052 0.70763 0.49025 0.0
C446 C 0.17589 0.71915 0.45466 0.0
C447 C 0.1802 0.75826 0.48446 0.0
C448 C 0.1505 0.69843 0.46894 0.0
C449 C 0.15472 0.73685 0.49822 0.0
C450 C 0.23809 0.71333 0.40044 0.0
C451 C 0.27554 0.69825 0.40321 0.0
N452 N 0.25659 0.67222 0.39026 0.0
C453 C 0.21902 0.68646 0.38712 0.0
C454 C 0.26663 0.71932 0.40854 0.0
C455 C 0.22877 0.66595 0.38219 0.0
C456 C 0.16474 0.7246 0.37458 0.0
N457 N 0.17244 0.74399 0.39559 0.0
C458 C 0.12352 0.73874 0.39588 0.0
C459 C 0.15258 0.75128 0.40632 0.0
C460 C 0.1148 0.71835 0.37434 0.0
C461 C 0.13589 0.71141 0.36362 0.0
H462 H 0.1811 0.71943 0.3663 0.0
H463 H 0.15932 0.76684 0.423 0.0
C464 C 0.2519 0.73973 0.49505 0.0
N465 N 0.24092 0.72676 0.47072 0.0
C466 C 0.25156 0.72237 0.51687 0.0
C467 C 0.22788 0.67844 0.48842 0.0
C468 C 0.22848 0.6966 0.46726 0.0
C469 C 0.2396 0.69125 0.51369 0.0
H470 H 0.26057 0.76356 0.49759 0.0
H471 H 0.2187 0.6864 0.44817 0.0
C472 C 0.22458 0.80377 0.37641 0.0
N473 N 0.18506 0.81109 0.34395 0.0
C474 C 0.22071 0.7946 0.34952 0.0
C475 C 0.20851 0.81685 0.38676 0.0
C476 C 0.20057 0.79844 0.33345 0.0
C477 C 0.18862 0.82033 0.37003 0.0
C478 C 0.30697 0.81257 0.44157 0.0
C479 C 0.32024 0.838 0.42505 0.0
C480 C 0.31968 0.81331 0.46663 0.0
C481 C 0.3458 0.86392 0.43405 0.0
C482 C 0.34529 0.83965 0.47489 0.0
N483 N 0.35768 0.86421 0.45859 0.0
C484 C 0.27253 0.84539 0.47376 0.0
C485 C 0.27212 0.86517 0.43078 0.0
C486 C 0.28571 0.87405 0.48517 0.0
N487 N 0.26634 0.84157 0.44699 0.0
C488 C 0.28487 0.89415 0.4414 0.0
C489 C 0.29225 0.89904 0.46892 0.0
H490 H 0.26806 0.82623 0.4861 0.0
H491 H 0.26743 0.8616 0.40947 0.0
C492 C 0.27523 0.76073 0.34536 0.0
N493 N 0.28832 0.77583 0.36844 0.0
C494 C 0.29283 0.75996 0.32427 0.0
C495 C 0.33707 0.78999 0.35121 0.0
C496 C 0.31861 0.79004 0.3718 0.0
C497 C 0.32425 0.77478 0.327 0.0
H498 H 0.25102 0.74885 0.34352 0.0
H499 H 0.32851 0.80113 0.39057 0.0
O500 O 0.21585 0.77016 0.44899 0.0
O501 O 0.22882 0.73368 0.40506 0.0
O502 O 0.24356 0.79947 0.39268 0.0
O503 O 0.28141 0.78727 0.43341 0.0
H504 H 0.1837 0.71173 0.43773 0.0
H505 H 0.19155 0.78153 0.4908 0.0
H506 H 0.13872 0.67503 0.46309 0.0
H507 H 0.14624 0.74347 0.51526 0.0
H508 H 0.29754 0.70259 0.40937 0.0
H509 H 0.19688 0.68148 0.3807 0.0
H510 H 0.28177 0.73994 0.41885 0.0
H511 H 0.21421 0.64505 0.37194 0.0
H512 H 0.10789 0.74452 0.40488 0.0
H513 H 0.13023 0.69612 0.34679 0.0
H514 H 0.26016 0.73317 0.53612 0.0
H515 H 0.21853 0.65463 0.48489 0.0
H516 H 0.23296 0.78447 0.3412 0.0
H517 H 0.21097 0.82374 0.40763 0.0
H518 H 0.19723 0.7913 0.31264 0.0
H519 H 0.17586 0.8302 0.37782 0.0
H520 H 0.31059 0.83783 0.40563 0.0
H521 H 0.30996 0.79378 0.47955 0.0
H522 H 0.35611 0.88384 0.42158 0.0
H523 H 0.35532 0.84057 0.49427 0.0
H524 H 0.29143 0.87664 0.50635 0.0
H525 H 0.28902 0.91251 0.4281 0.0
H526 H 0.28188 0.7474 0.30624 0.0
H527 H 0.36116 0.80189 0.3542 0.0
C528 C 0.39625 0.05895 0.53801 0.0
C529 C 0.38442 0.07829 0.53588 0.0
C530 C 0.38083 0.02966 0.52756 0.0
C531 C 0.35309 0.0195 0.51419 0.0
C532 C 0.34105 0.03886 0.5118 0.0
C533 C 0.35672 0.0679 0.52282 0.0
C534 C 0.39433 0.00963 0.53071 0.0
C535 C 0.31166 0.02895 0.49745 0.0
C536 C 0.3288 0.95451 0.46528 0.0
C537 C 0.30736 0.93004 0.4804 0.0
C538 C 0.34342 0.98376 0.47585 0.0
C539 C 0.33692 0.98872 0.50241 0.0
C540 C 0.31541 0.96422 0.51785 0.0
C541 C 0.30074 0.93525 0.50661 0.0
C542 C 0.36603 0.00933 0.45864 0.0
C543 C 0.3081 0.96855 0.54636 0.0
H544 H 0.41786 0.06681 0.54755 0.0
H545 H 0.3471 0.0824 0.52138 0.0
H546 H 0.37815 0.98845 0.54098 0.0
H547 H 0.39901 1.00348 0.51062 0.0
H548 H 0.41556 0.02055 0.54246 0.0
H549 H 0.30547 0.04678 0.49709 0.0
H550 H 0.31314 0.02256 0.47641 0.0
H551 H 0.29337 0.00878 0.50744 0.0
H552 H 0.3346 0.95079 0.44524 0.0
H553 H 0.28392 0.91669 0.51837 0.0
H554 H 0.38855 0.01963 0.46814 0.0
H555 H 0.35984 0.02709 0.4571 0.0
H556 H 0.36762 1.00192 0.438 0.0
H557 H 0.32873 0.97828 0.55887 0.0
H558 H 0.29091 0.94716 0.55574 0.0
H559 H 0.29971 0.98467 0.54668 0.0
C560 C 0.35306 0.29054 0.64729 0.0
C561 C 0.38401 0.30766 0.6422 0.0
C562 C 0.33703 0.30393 0.65747 0.0
C563 C 0.35231 0.3352 0.66267 0.0
C564 C 0.38354 0.3526 0.65758 0.0
C565 C 0.39899 0.33863 0.64746 0.0
C566 C 0.30375 0.28463 0.66262 0.0
C567 C 0.40067 0.38599 0.66293 0.0
C568 C 0.30872 0.37694 0.66624 0.0
C569 C 0.30689 0.38019 0.69411 0.0
C570 C 0.32302 0.36194 0.65574 0.0
C571 C 0.33575 0.34983 0.67352 0.0
C572 C 0.33352 0.35255 0.70167 0.0
C573 C 0.31917 0.36772 0.71162 0.0
C574 C 0.32488 0.35946 0.62559 0.0
C575 C 0.34683 0.33996 0.7213 0.0
H576 H 0.34124 0.26667 0.64299 0.0
H577 H 0.42298 0.35196 0.64402 0.0
H578 H 0.2988 0.28623 0.6841 0.0
H579 H 0.29123 0.29288 0.65048 0.0
H580 H 0.29522 0.26064 0.65761 0.0
H581 H 0.42485 0.39635 0.65769 0.0
H582 H 0.39083 0.39727 0.65109 0.0
H583 H 0.39879 0.39037 0.6845 0.0
H584 H 0.29893 0.38611 0.65257 0.0
H585 H 0.31824 0.37047 0.73317 0.0
H586 H 0.31495 0.33554 0.61968 0.0
H587 H 0.34876 0.37117 0.61918 0.0
H588 H 0.31308 0.36931 0.61452 0.0
H589 H 0.33776 0.31568 0.71741 0.0
H590 H 0.34211 0.34287 0.74257 0.0
H591 H 0.37153 0.35132 0.71849 0.0
C592 C 0.95646 0.30447 0.87517 0.0
C593 C 0.93397 0.30877 0.86366 0.0
C594 C 0.98576 0.31893 0.86466 0.0
C595 C 0.99283 0.33838 0.84227 0.0
C596 C 0.97019 0.34273 0.83051 0.0
C597 C 0.94101 0.32777 0.84127 0.0
C598 C 0.00918 0.31345 0.87759 0.0
C599 C 0.97689 0.36351 0.80678 0.0
C600 C 0.07456 0.39803 0.8312 0.0
C601 C 0.08303 0.38542 0.81033 0.0
C602 C 0.0453 0.38298 0.84177 0.0
C603 C 0.02401 0.35451 0.83134 0.0
C604 C 0.03248 0.34156 0.8104 0.0
C605 C 0.06185 0.35722 0.80008 0.0
C606 C 0.03707 0.39767 0.86392 0.0
C607 C 0.01053 0.31113 0.79893 0.0
H608 H 0.95105 0.28956 0.89229 0.0
H609 H 0.92381 0.33146 0.83251 0.0
H610 H 0.01875 0.30476 0.8624 0.0
H611 H 0.02794 0.33491 0.88533 0.0
H612 H 0.9999 0.29716 0.8945 0.0
H613 H 0.95673 0.36426 0.79984 0.0
H614 H 0.99458 0.3866 0.81229 0.0
H615 H 0.98566 0.35619 0.78976 0.0
H616 H 0.09071 0.41999 0.83897 0.0
H617 H 0.06836 0.34721 0.78415 0.0
H618 H 0.0293 0.38294 0.88194 0.0
H619 H 0.01822 0.40082 0.85728 0.0
H620 H 0.05623 0.41986 0.86983 0.0
H621 H 1.0021 0.294 0.81515 0.0
H622 H 0.02075 0.30402 0.78292 0.0
H623 H 0.99083 0.31158 0.79036 0.0
C624 C 0.66082 0.94188 0.02215 0.0
C625 C 0.63146 0.93004 0.03196 0.0
C626 C 0.67677 0.97127 0.01189 0.0
C627 C 0.66288 0.9891 0.01111 0.0
C628 C 0.63316 0.97718 0.02084 0.0
C629 C 0.61789 0.94787 0.03128 0.0
C630 C 0.70853 0.9833 1.00201 0.0
C631 C 0.61742 0.99531 0.02005 0.0
C632 C 0.71052 0.07424 0.00691 0.0
C633 C 0.70877 0.07941 0.97942 0.0
C634 C 0.69616 0.04493 0.01741 0.0
C635 C 0.67933 0.02022 1.00006 0.0
C636 C 0.67763 0.02531 0.97226 0.0
C637 C 0.69251 0.05483 0.96225 0.0
C638 C 0.69883 0.04043 0.04711 0.0
C639 C 0.65962 0.99961 0.95316 0.0
H640 H 0.67148 0.92827 0.02288 0.0
H641 H 0.59506 0.93867 0.03853 0.0
H642 H 0.71017 0.98965 0.98047 0.0
H643 H 0.72405 1.00392 0.01334 0.0
H644 H 0.71621 0.9667 1.00427 0.0
H645 H 0.5942 0.98266 0.02818 0.0
H646 H 0.63027 0.01623 0.03192 0.0
H647 H 0.61638 1.00203 0.99903 0.0
H648 H 0.72333 0.09316 0.02019 0.0
H649 H 0.69081 0.05874 0.94105 0.0
H650 H 0.70793 0.02509 0.05009 0.0
H651 H 0.67628 0.02969 0.05661 0.0
H652 H 0.71362 0.0619 0.05769 0.0
H653 H 0.66777 0.98331 0.95386 0.0
H654 H 0.66094 0.00731 0.93205 0.0
H655 H 0.6357 0.98744 0.95945 0.0
C656 C 0.70586 0.63415 0.17242 0.0
C657 C 0.70852 0.63204 0.20033 0.0
C658 C 0.69162 0.6491 0.16166 0.0
C659 C 0.67992 0.66243 0.17923 0.0
C660 C 0.68308 0.6609 0.20742 0.0
C661 C 0.69724 0.64565 0.21762 0.0
C662 C 0.68852 0.65005 0.1315 0.0
C663 C 0.67114 0.67504 0.22682 0.0
C664 C 0.66334 0.72147 0.151 0.0
C665 C 0.63212 0.70477 0.14728 0.0
C666 C 0.6792 0.70804 0.16145 0.0
C667 C 0.66351 0.67711 0.16817 0.0
C668 C 0.63202 0.66013 0.16435 0.0
C669 C 0.61672 0.67417 0.15403 0.0
C670 C 0.71273 0.72695 0.16543 0.0
C671 C 0.61449 0.62705 0.17105 0.0
H672 H 0.71421 0.6234 0.15896 0.0
H673 H 0.69957 0.64442 0.23921 0.0
H674 H 0.66439 0.63825 0.12592 0.0
H675 H 0.69841 0.67365 0.12459 0.0
H676 H 0.69965 0.63941 0.12058 0.0
H677 H 0.67641 0.67284 0.2481 0.0
H678 H 0.68079 0.69923 0.22208 0.0
H679 H 0.64641 0.66428 0.22466 0.0
H680 H 0.67532 0.74519 0.14606 0.0
H681 H 0.59266 0.66104 0.15084 0.0
H682 H 0.72438 0.71752 0.15358 0.0
H683 H 0.71841 0.72649 0.18691 0.0
H684 H 0.72158 0.75068 0.15927 0.0
H685 H 0.62326 0.61478 0.15924 0.0
H686 H 0.59012 0.61701 0.16679 0.0
H687 H 0.61733 0.62359 0.19266 0.0
C688 C 0.06801 0.67327 0.3575 0.0
C689 C 0.08378 0.7041 0.36331 0.0
C690 C 0.03868 0.65939 0.34717 0.0
C691 C 0.02478 0.67678 0.34237 0.0
C692 C 0.04058 0.70793 0.34815 0.0
C693 C 0.06986 0.7212 0.35863 0.0
C694 C 0.02252 0.62607 0.34147 0.0
C695 C 0.02661 0.72726 0.34312 0.0
C696 C 0.95969 0.64476 0.29282 0.0
C697 C 0.93476 0.63216 0.31011 0.0
C698 C 0.9891 0.65985 0.30304 0.0
C699 C 0.99372 0.66228 0.33124 0.0
C700 C 0.96865 0.65001 0.3488 0.0
C701 C 0.93948 0.63517 0.33802 0.0
C702 C 0.01522 0.67284 0.28365 0.0
C703 C 0.97265 0.65197 0.37898 0.0
H704 H 0.07849 0.65985 0.36142 0.0
H705 H 0.08205 0.7451 0.36281 0.0
H706 H 1.00141 0.6146 0.35332 0.0
H707 H 0.01624 0.62194 0.31989 0.0
H708 H 0.03641 0.61572 0.34646 0.0
H709 H 0.04187 0.75112 0.34869 0.0
H710 H 0.02061 0.72622 0.32154 0.0
H711 H 1.00553 0.71863 0.35486 0.0
H712 H 0.95618 0.64285 0.27123 0.0
H713 H 0.92033 0.62519 0.3515 0.0
H714 H 0.02877 0.66172 0.28653 0.0
H715 H 0.03016 0.69713 0.28773 0.0
H716 H 1.00782 0.67003 0.26231 0.0
H717 H 0.9845 0.63992 0.3853 0.0
H718 H 0.95087 0.64215 0.38986 0.0
H719 H 0.98677 0.67575 0.38523 0.0
C720 C 0.60314 0.36951 0.48122 0.0
C721 C 0.57773 0.34172 0.47527 0.0
C722 C 0.6219 0.38827 0.46068 0.0
C723 C 0.61503 0.3791 0.43349 0.0
C724 C 0.58942 0.35107 0.42734 0.0
C725 C 0.57113 0.33268 0.44831 0.0
C726 C 0.64913 0.41788 0.46807 0.0
C727 C 0.58123 0.3406 0.39859 0.0
C728 C 0.64741 0.43929 0.37922 0.0
C729 C 0.6717 0.43664 0.36973 0.0
C730 C 0.62873 0.42064 0.39988 0.0
C731 C 0.63456 0.39891 0.41148 0.0
C732 C 0.65909 0.39618 0.4021 0.0
C733 C 0.67729 0.415 0.3813 0.0
C734 C 0.60279 0.42425 0.40933 0.0
C735 C 0.66605 0.3733 0.41398 0.0
H736 H 0.60857 0.37643 0.50204 0.0
H737 H 0.55133 0.31139 0.44356 0.0
H738 H 0.66977 0.41869 0.46034 0.0
H739 H 0.64771 0.43663 0.45849 0.0
H740 H 0.65142 0.42165 0.49017 0.0
H741 H 0.56067 0.31814 0.3972 0.0
H742 H 0.57746 0.35695 0.38711 0.0
H743 H 0.60001 0.33952 0.3887 0.0
H744 H 0.64316 0.45623 0.37071 0.0
H745 H 0.69572 0.41247 0.37385 0.0
H746 H 0.60543 0.43013 0.43102 0.0
H747 H 0.58139 0.4027 0.40705 0.0
H748 H 0.60104 0.44193 0.39796 0.0
H749 H 0.66995 0.37707 0.43596 0.0
H750 H 0.68616 0.37426 0.40466 0.0
H751 H 0.6466 0.35036 0.4112 0.0
C752 C 0.21478 0.64313 0.5402 0.0
C753 C 0.23928 0.67221 0.53648 0.0
C754 C 0.21464 0.62452 0.56096 0.0
C755 C 0.23944 0.63532 0.57871 0.0
C756 C 0.264 0.66481 0.57543 0.0
C757 C 0.2637 0.68283 0.55429 0.0
C758 C 0.18807 0.59315 0.56372 0.0
C759 C 0.29077 0.67722 0.59406 0.0
C760 C 0.22763 0.59568 0.64606 0.0
C761 C 0.24047 0.57763 0.64129 0.0
C762 C 0.22739 0.61479 0.62597 0.0
C763 C 0.23991 0.61553 0.60039 0.0
C764 C 0.25273 0.59719 0.59542 0.0
C765 C 0.25303 0.57861 0.61599 0.0
C766 C 0.21389 0.63431 0.63215 0.0
C767 C 0.26591 0.59701 0.5683 0.0
H768 H 0.19554 0.63487 0.52692 0.0
H769 H 0.28292 0.70508 0.55143 0.0
H770 H 0.19561 0.57643 0.56183 0.0
H771 H 0.17783 0.59019 0.58395 0.0
H772 H 0.17055 0.58815 0.54828 0.0
H773 H 0.30749 0.70101 0.58949 0.0
H774 H 0.28333 0.67571 0.61526 0.0
H775 H 0.30198 0.66362 0.59239 0.0
H776 H 0.21819 0.59519 0.6657 0.0
H777 H 0.26269 0.56444 0.61216 0.0
H778 H 0.19502 0.62892 0.61819 0.0
H779 H 0.23093 0.6583 0.62902 0.0
H780 H 0.20543 0.63138 0.65315 0.0
H781 H 0.24851 0.59036 0.55245 0.0
H782 H 0.27488 0.58135 0.56767 0.0
H783 H 0.28434 0.61992 0.56327 0.0
C784 C 0.67945 0.26741 0.79851 0.0
C785 C 0.67356 0.24004 0.81 0.0
C786 C 0.66145 0.26828 0.77765 0.0
C787 C 0.63686 0.24115 0.76812 0.0
C788 C 0.63078 0.21346 0.77962 0.0
C789 C 0.64924 0.21324 0.80033 0.0
C790 C 0.66869 0.29824 0.76586 0.0
C791 C 0.60476 0.18404 0.77001 0.0
C792 C 0.57349 0.24397 0.73127 0.0
C793 C 0.57996 0.24126 0.70433 0.0
C794 C 0.59189 0.24411 0.75223 0.0
C795 C 0.61748 0.24166 0.74609 0.0
C796 C 0.62431 0.23925 0.71891 0.0
C797 C 0.60542 0.23898 0.69837 0.0
C798 C 0.58373 0.24648 0.78097 0.0
C799 C 0.65154 0.23686 0.71153 0.0
H800 H 0.69791 0.28827 0.80609 0.0
H801 H 0.64479 0.19195 0.80875 0.0
H802 H 0.67263 0.29844 0.74388 0.0
H803 H 0.64935 0.30191 0.76865 0.0
H804 H 0.68886 0.31726 0.77524 0.0
H805 H 0.60282 0.16449 0.78129 0.0
H806 H 0.58343 0.18433 0.77227 0.0
H807 H 0.60746 0.1809 0.7483 0.0
H808 H 0.55366 0.2454 0.736 0.0
H809 H 0.61074 0.23728 0.67756 0.0
H810 H 0.60263 0.26621 0.79089 0.0
H811 H 0.57968 0.22626 0.79243 0.0
H812 H 0.56334 0.24867 0.78233 0.0
H813 H 0.67216 0.25656 0.71947 0.0
H814 H 0.65398 0.23564 0.68942 0.0
H815 H 0.64996 0.21654 0.72092 0.0
C816 C 0.37482 0.59795 0.86093 0.0
C817 C 0.34511 0.57571 0.86638 0.0
C818 C 0.3936 0.61678 0.88142 0.0
C819 C 0.38251 0.61302 0.90807 0.0
C820 C 0.35251 0.59061 0.91369 0.0
C821 C 0.3341 0.57235 0.89273 0.0
C822 C 0.4253 0.6407 0.87454 0.0
C823 C 0.33999 0.58564 0.94191 0.0
C824 C 0.43943 0.64182 0.9651 0.0
C825 C 0.44026 0.66866 0.97222 0.0
C826 C 0.42062 0.62344 0.94441 0.0
C827 C 0.40245 0.63226 0.93015 0.0
C828 C 0.40338 0.65945 0.93697 0.0
C829 C 0.4221 0.6772 0.95801 0.0
C830 C 0.42014 0.59452 0.93785 0.0
C831 C 0.38453 0.66975 0.92207 0.0
H832 H 0.38328 0.60082 0.84051 0.0
H833 H 0.31123 0.55499 0.89704 0.0
H834 H 0.42905 0.66311 0.88051 0.0
H835 H 0.44156 0.63677 0.88598 0.0
H836 H 0.43024 0.64116 0.85271 0.0
H837 H 0.31616 0.56738 0.9429 0.0
H838 H 0.35348 0.57983 0.95549 0.0
H839 H 0.34157 0.60659 0.94973 0.0
H840 H 0.45372 0.63522 0.97556 0.0
H841 H 0.42215 0.69761 0.96357 0.0
H842 H 0.42722 0.59496 0.91668 0.0
H843 H 0.39694 0.57525 0.93981 0.0
H844 H 0.43515 0.59056 0.9512 0.0
H845 H 0.38967 0.67159 0.90023 0.0
H846 H 0.38838 0.69183 0.92938 0.0
H847 H 0.36036 0.65294 0.92445 0.0
C848 C 0.78095 0.36922 0.03126 0.0
C849 C 0.77726 0.34095 0.03751 0.0
C850 C 0.78062 0.38811 0.0515 0.0
C851 C 0.77671 0.37859 0.07869 0.0
C852 C 0.77298 0.35008 0.08514 0.0
C853 C 0.77318 0.33155 0.06445 0.0
C854 C 0.78437 0.41821 0.04379 0.0
C855 C 0.76903 0.33925 0.11391 0.0
C856 C 0.80383 0.43835 0.13325 0.0
C857 C 0.77689 0.43646 0.14177 0.0
C858 C 0.80407 0.41959 0.11285 0.0
C859 C 0.77675 0.39857 0.10042 0.0
C860 C 0.74951 0.39666 0.10873 0.0
C861 C 0.74989 0.41551 0.12937 0.0
C862 C 0.83358 0.42226 0.10458 0.0
C863 C 0.71994 0.37461 0.09588 0.0
H864 H 0.78372 0.37643 0.01043 0.0
H865 H 0.77064 0.30987 0.06942 0.0
H866 H 0.76464 0.41971 0.05069 0.0
H867 H 0.80444 0.43649 0.05391 0.0
H868 H 0.7869 0.42215 0.02171 0.0
H869 H 0.76627 0.31645 0.11553 0.0
H870 H 0.7888 0.35505 0.12604 0.0
H871 H 0.74905 0.33877 0.12291 0.0
H872 H 0.82487 0.45477 0.14236 0.0
H873 H 0.7289 0.41353 0.13604 0.0
H874 H 0.83793 0.42833 0.08296 0.0
H875 H 0.83253 0.40031 0.10712 0.0
H876 H 0.85279 0.43943 0.11651 0.0
H877 H 0.72097 0.37859 0.07385 0.0
H878 H 0.70082 0.3763 0.1043 0.0
H879 H 0.71547 0.35134 0.0989 0.0
C880 C 0.33703 0.77679 0.27792 0.0
C881 C 0.34353 0.77418 0.3049 0.0
C882 C 0.35516 0.77646 0.25692 0.0
C883 C 0.38053 0.77362 0.26302 0.0
C884 C 0.38722 0.77094 0.29017 0.0
C885 C 0.3686 0.77114 0.31075 0.0
C886 C 0.34726 0.77931 0.2282 0.0
C887 C 0.41406 0.76786 0.29749 0.0
C888 C 0.41321 0.74638 0.20857 0.0
C889 C 0.43788 0.77338 0.19967 0.0
C890 C 0.39428 0.74613 0.22906 0.0
C891 C 0.40017 0.77356 0.241 0.0
C892 C 0.42498 0.8009 0.23208 0.0
C893 C 0.44351 0.80048 0.21152 0.0
C894 C 0.36796 0.71653 0.23792 0.0
C895 C 0.43209 0.83058 0.24442 0.0
H896 H 0.31797 0.77955 0.27319 0.0
H897 H 0.37354 0.76859 0.33147 0.0
H898 H 0.36598 0.79966 0.21881 0.0
H899 H 0.34408 0.75969 0.21626 0.0
H900 H 0.32648 0.7808 0.22681 0.0
H901 H 0.4163 0.76624 0.31959 0.0
H902 H 0.41218 0.74753 0.28785 0.0
H903 H 0.43493 0.78747 0.28979 0.0
H904 H 0.40848 0.72539 0.19925 0.0
H905 H 0.46274 0.8214 0.20499 0.0
H906 H 0.34673 0.71689 0.23518 0.0
H907 H 0.36995 0.71292 0.25967 0.0
H908 H 0.36639 0.69721 0.22651 0.0
H909 H 0.41256 0.83406 0.24224 0.0
H910 H 0.452 0.84987 0.235 0.0
H911 H 0.43641 0.83045 0.26629 0.0
loop_
_geom_bond_atom_site_label_1
_geom_bond_atom_site_label_2
_geom_bond_distance
_geom_bond_site_symmetry_2
_ccdc_geom_bond_type
Li0 N17 1.990 . S
Li0 O60 1.956 . S
Li0 O61 1.970 . S
Li0 O62 1.961 . S
Li1 N25 1.990 . S
Li1 O60 1.970 . S
Li1 O61 1.956 . S
Li1 O63 1.961 . S
Li2 N47 1.990 . S
Li2 O60 1.961 . S
Li2 O62 1.956 . S
Li2 O63 1.970 . S
Li3 N53 1.990 . S
Li3 O61 1.961 . S
Li3 O62 1.970 . S
Li3 O63 1.956 . S
C4 C6 1.348 . S
C4 C7 1.356 . S
C4 O60 1.325 . S
N5 C8 1.314 . S
N5 C9 1.279 . S
C6 C4 1.348 . S
C6 C8 1.353 . S
C6 H64 0.929 . S
C7 C4 1.356 . S
C7 C9 1.358 . S
C7 H65 0.930 . S
C8 N5 1.314 . S
C8 C6 1.353 . S
C8 H66 0.930 . S
C9 N5 1.279 . S
C9 C7 1.358 . S
C9 H67 0.930 . S
C10 C13 1.348 . S
C10 C14 1.356 . S
C10 O61 1.325 . S
C11 N12 1.279 . S
C11 C14 1.358 . S
C11 H68 0.930 . S
N12 C11 1.279 . S
N12 C15 1.314 . S
C13 C10 1.348 . S
C13 C15 1.353 . S
C13 H69 0.929 . S
C14 C10 1.356 . S
C14 C11 1.358 . S
C14 H70 0.930 . S
C15 N12 1.314 . S
C15 C13 1.353 . S
C15 H71 0.930 . S
C16 N17 1.314 . S
C16 C21 1.353 . S
C16 H22 0.930 . S
N17 Li0 1.990 . S
N17 C16 1.314 . S
N17 C19 1.279 . S
C18 C19 1.358 . S
C18 C20 1.356 . S
C18 H72 0.930 . S
C19 N17 1.279 . S
C19 C18 1.358 . S
C19 H23 0.930 . S
C20 C18 1.356 . S
C20 C21 1.348 . S
C21 C16 1.353 . S
C21 C20 1.348 . S
C21 H73 0.929 . S
H22 C16 0.930 . S
H23 C19 0.930 . S
C24 N25 1.314 . S
C24 C26 1.353 . S
C24 H30 0.930 . S
N25 Li1 1.990 . S
N25 C24 1.314 . S
N25 C28 1.279 . S
C26 C24 1.353 . S
C26 C29 1.348 . S
C26 H74 0.929 . S
C27 C28 1.358 . S
C27 C29 1.356 . S
C27 H75 0.930 . S
C28 N25 1.279 . S
C28 C27 1.358 . S
C28 H31 0.930 . S
C29 C26 1.348 . S
C29 C27 1.356 . S
H30 C24 0.930 . S
H31 C28 0.930 . S
C32 C34 1.348 . S
C32 C35 1.356 . S
C32 O62 1.325 . S
N33 C36 1.314 . S
N33 C37 1.279 . S
C34 C32 1.348 . S
C34 C36 1.353 . S
C34 H76 0.929 . S
C35 C32 1.356 . S
C35 C37 1.358 . S
C35 H77 0.930 . S
C36 N33 1.314 . S
C36 C34 1.353 . S
C36 H78 0.930 . S
C37 N33 1.279 . S
C37 C35 1.358 . S
C37 H79 0.930 . S
C38 C39 1.348 . S
C38 C40 1.356 . S
C38 O63 1.325 . S
C39 C38 1.348 . S
C39 C41 1.353 . S
C39 H80 0.929 . S
C40 C38 1.356 . S
C40 C42 1.358 . S
C40 H81 0.930 . S
C41 C39 1.353 . S
C41 N43 1.314 . S
C41 H82 0.930 . S
C42 C40 1.358 . S
C42 N43 1.279 . S
C42 H83 0.930 . S
N43 C41 1.314 . S
N43 C42 1.279 . S
C44 C46 1.353 . S
C44 N47 1.314 . S
C44 H50 0.930 . S
C45 N47 1.279 . S
C45 C48 1.358 . S
C45 H51 0.930 . S
C46 C44 1.353 . S
C46 C49 1.348 . S
C46 H84 0.929 . S
N47 Li2 1.990 . S
N47 C44 1.314 . S
N47 C45 1.279 . S
C48 C45 1.358 . S
C48 C49 1.356 . S
C48 H85 0.930 . S
C49 C46 1.348 . S
C49 C48 1.356 . S
H50 C44 0.930 . S
H51 C45 0.930 . S
C52 N53 1.314 . S
C52 C54 1.353 . S
C52 H58 0.930 . S
N53 Li3 1.990 . S
N53 C52 1.314 . S
N53 C56 1.279 . S
C54 C52 1.353 . S
C54 C57 1.348 . S
C54 H86 0.929 . S
C55 C56 1.358 . S
C55 C57 1.356 . S
C55 H87 0.930 . S
C56 N53 1.279 . S
C56 C55 1.358 . S
C56 H59 0.930 . S
C57 C54 1.348 . S
C57 C55 1.356 . S
H58 C52 0.930 . S
H59 C56 0.930 . S
O60 Li0 1.956 . S
O60 Li1 1.970 . S
O60 Li2 1.961 . S
O60 C4 1.325 . S
O61 Li0 1.970 . S
O61 Li1 1.956 . S
O61 Li3 1.961 . S
O61 C10 1.325 . S
O62 Li0 1.961 . S
O62 Li2 1.956 . S
O62 Li3 1.970 . S
O62 C32 1.325 . S
O63 Li1 1.961 . S
O63 Li2 1.970 . S
O63 Li3 1.956 . S
O63 C38 1.325 . S
H64 C6 0.929 . S
H65 C7 0.930 . S
H66 C8 0.930 . S
H67 C9 0.930 . S
H68 C11 0.930 . S
H69 C13 0.929 . S
H70 C14 0.930 . S
H71 C15 0.930 . S
H72 C18 0.930 . S
H73 C21 0.929 . S
H74 C26 0.929 . S
H75 C27 0.930 . S
H76 C34 0.929 . S
H77 C35 0.930 . S
H78 C36 0.930 . S
H79 C37 0.930 . S
H80 C39 0.929 . S
H81 C40 0.930 . S
H82 C41 0.930 . S
H83 C42 0.930 . S
H84 C46 0.929 . S
H85 C48 0.930 . S
H86 C54 0.929 . S
H87 C55 0.930 . S
Li88 N105 1.990 . S
Li88 O148 1.956 . S
Li88 O149 1.970 . S
Li88 O150 1.961 . S
Li89 N113 1.990 . S
Li89 O148 1.970 . S
Li89 O149 1.956 . S
Li89 O151 1.961 . S
Li90 N135 1.990 . S
Li90 O148 1.961 . S
Li90 O150 1.956 . S
Li90 O151 1.970 . S
Li91 N141 1.990 . S
Li91 O149 1.961 . S
Li91 O150 1.970 . S
Li91 O151 1.956 . S
C92 C94 1.348 . S
C92 C95 1.356 . S
C92 O148 1.325 . S
N93 C96 1.314 . S
N93 C97 1.279 . S
C94 C92 1.348 . S
C94 C96 1.353 . S
C94 H152 0.929 . S
C95 C92 1.356 . S
C95 C97 1.358 . S
C95 H153 0.930 . S
C96 N93 1.314 . S
C96 C94 1.353 . S
C96 H154 0.930 . S
C97 N93 1.279 . S
C97 C95 1.358 . S
C97 H155 0.930 . S
C98 C101 1.348 . S
C98 C102 1.356 . S
C98 O149 1.325 . S
C99 N100 1.279 . S
C99 C102 1.358 . S
C99 H156 0.930 . S
N100 C99 1.279 . S
N100 C103 1.314 . S
C101 C98 1.348 . S
C101 C103 1.353 . S
C101 H157 0.929 . S
C102 C98 1.356 . S
C102 C99 1.358 . S
C102 H158 0.930 . S
C103 N100 1.314 . S
C103 C101 1.353 . S
C103 H159 0.930 . S
C104 N105 1.314 . S
C104 C109 1.353 . S
C104 H110 0.930 . S
N105 Li88 1.990 . S
N105 C104 1.314 . S
N105 C107 1.279 . S
C106 C107 1.358 . S
C106 C108 1.356 . S
C106 H160 0.930 . S
C107 N105 1.279 . S
C107 C106 1.358 . S
C107 H111 0.930 . S
C108 C106 1.356 . S
C108 C109 1.348 . S
C109 C104 1.353 . S
C109 C108 1.348 . S
C109 H161 0.929 . S
H110 C104 0.930 . S
H111 C107 0.930 . S
C112 N113 1.314 . S
C112 C114 1.353 . S
C112 H118 0.930 . S
N113 Li89 1.990 . S
N113 C112 1.314 . S
N113 C116 1.279 . S
C114 C112 1.353 . S
C114 C117 1.348 . S
C114 H162 0.929 . S
C115 C116 1.358 . S
C115 C117 1.356 . S
C115 H163 0.930 . S
C116 N113 1.279 . S
C116 C115 1.358 . S
C116 H119 0.930 . S
C117 C114 1.348 . S
C117 C115 1.356 . S
H118 C112 0.930 . S
H119 C116 0.930 . S
C120 C122 1.348 . S
C120 C123 1.356 . S
C120 O150 1.325 . S
N121 C124 1.314 . S
N121 C125 1.279 . S
C122 C120 1.348 . S
C122 C124 1.353 . S
C122 H164 0.929 . S
C123 C120 1.356 . S
C123 C125 1.358 . S
C123 H165 0.930 . S
C124 N121 1.314 . S
C124 C122 1.353 . S
C124 H166 0.930 . S
C125 N121 1.279 . S
C125 C123 1.358 . S
C125 H167 0.930 . S
C126 C127 1.348 . S
C126 C128 1.356 . S
C126 O151 1.325 . S
C127 C126 1.348 . S
C127 C129 1.353 . S
C127 H168 0.929 . S
C128 C126 1.356 . S
C128 C130 1.358 . S
C128 H169 0.930 . S
C129 C127 1.353 . S
C129 N131 1.314 . S
C129 H170 0.930 . S
C130 C128 1.358 . S
C130 N131 1.279 . S
C130 H171 0.930 . S
N131 C129 1.314 . S
N131 C130 1.279 . S
C132 C134 1.353 . S
C132 N135 1.314 . S
C132 H138 0.930 . S
C133 N135 1.279 . S
C133 C136 1.358 . S
C133 H139 0.930 . S
C134 C132 1.353 . S
C134 C137 1.348 . S
C134 H172 0.929 . S
N135 Li90 1.990 . S
N135 C132 1.314 . S
N135 C133 1.279 . S
C136 C133 1.358 . S
C136 C137 1.356 . S
C136 H173 0.930 . S
C137 C134 1.348 . S
C137 C136 1.356 . S
H138 C132 0.930 . S
H139 C133 0.930 . S
C140 N141 1.314 . S
C140 C142 1.353 . S
C140 H146 0.930 . S
N141 Li91 1.990 . S
N141 C140 1.314 . S
N141 C144 1.279 . S
C142 C140 1.353 . S
C142 C145 1.348 . S
C142 H174 0.929 . S
C143 C144 1.358 . S
C143 C145 1.356 . S
C143 H175 0.930 . S
C144 N141 1.279 . S
C144 C143 1.358 . S
C144 H147 0.930 . S
C145 C142 1.348 . S
C145 C143 1.356 . S
H146 C140 0.930 . S
H147 C144 0.930 . S
O148 Li88 1.956 . S
O148 Li89 1.970 . S
O148 Li90 1.961 . S
O148 C92 1.325 . S
O149 Li88 1.970 . S
O149 Li89 1.956 . S
O149 Li91 1.961 . S
O149 C98 1.325 . S
O150 Li88 1.961 . S
O150 Li90 1.956 . S
O150 Li91 1.970 . S
O150 C120 1.325 . S
O151 Li89 1.961 . S
O151 Li90 1.970 . S
O151 Li91 1.956 . S
O151 C126 1.325 . S
H152 C94 0.929 . S
H153 C95 0.930 . S
H154 C96 0.930 . S
H155 C97 0.930 . S
H156 C99 0.930 . S
H157 C101 0.929 . S
H158 C102 0.930 . S
H159 C103 0.930 . S
H160 C106 0.930 . S
H161 C109 0.929 . S
H162 C114 0.929 . S
H163 C115 0.930 . S
H164 C122 0.929 . S
H165 C123 0.930 . S
H166 C124 0.930 . S
H167 C125 0.930 . S
H168 C127 0.929 . S
H169 C128 0.930 . S
H170 C129 0.930 . S
H171 C130 0.930 . S
H172 C134 0.929 . S
H173 C136 0.930 . S
H174 C142 0.929 . S
H175 C143 0.930 . S
Li176 N193 1.990 . S
Li176 O236 1.956 . S
Li176 O237 1.970 . S
Li176 O238 1.961 . S
Li177 N201 1.990 . S
Li177 O236 1.970 . S
Li177 O237 1.956 . S
Li177 O239 1.961 . S
Li178 N223 1.990 . S
Li178 O236 1.961 . S
Li178 O238 1.956 . S
Li178 O239 1.970 . S
Li179 N229 1.990 . S
Li179 O237 1.961 . S
Li179 O238 1.970 . S
Li179 O239 1.956 . S
C180 C182 1.348 . S
C180 C183 1.356 . S
C180 O236 1.325 . S
N181 C184 1.313 1_554 S
N181 C185 1.279 1_554 S
C182 C180 1.348 . S
C182 C184 1.367 . S
C182 H240 0.929 . S
C183 C180 1.356 . S
C183 C185 1.358 . S
C183 H241 0.930 . S
C184 N181 1.313 1_556 S
C184 C182 1.367 . S
C184 H242 0.916 1_556 S
C185 N181 1.279 1_556 S
C185 C183 1.358 . S
C185 H243 0.930 . S
C186 C189 1.348 . S
C186 C190 1.356 . S
C186 O237 1.325 . S
C187 N188 1.279 . S
C187 C190 1.358 . S
C187 H244 0.930 . S
N188 C187 1.279 . S
N188 C191 1.314 . S
C189 C186 1.348 . S
C189 C191 1.353 . S
C189 H245 0.929 . S
C190 C186 1.356 . S
C190 C187 1.358 . S
C190 H246 0.930 . S
C191 N188 1.314 . S
C191 C189 1.353 . S
C191 H247 0.930 . S
C192 N193 1.314 . S
C192 C197 1.353 . S
C192 H198 0.930 . S
N193 Li176 1.990 . S
N193 C192 1.314 . S
N193 C195 1.279 . S
C194 C195 1.358 . S
C194 C196 1.356 . S
C194 H248 0.930 . S
C195 N193 1.279 . S
C195 C194 1.358 . S
C195 H199 0.930 . S
C196 C194 1.356 . S
C196 C197 1.348 . S
C197 C192 1.353 . S
C197 C196 1.348 . S
C197 H249 0.929 . S
H198 C192 0.930 . S
H199 C195 0.930 . S
C200 N201 1.314 . S
C200 C202 1.353 1_556 S
C200 H206 0.930 . S
N201 Li177 1.990 . S
N201 C200 1.314 . S
N201 C204 1.279 . S
C202 C200 1.353 1_554 S
C202 C205 1.348 . S
C202 H250 0.929 . S
C203 C204 1.358 . S
C203 C205 1.356 1_556 S
C203 H251 0.930 . S
C204 N201 1.279 . S
C204 C203 1.358 . S
C204 H207 0.930 . S
C205 C202 1.348 . S
C205 C203 1.356 1_554 S
H206 C200 0.930 . S
H207 C204 0.930 . S
C208 C210 1.348 . S
C208 C211 1.356 . S
C208 O238 1.325 . S
N209 C212 1.314 . S
N209 C213 1.279 . S
C210 C208 1.348 . S
C210 C212 1.353 . S
C210 H252 0.929 . S
C211 C208 1.356 . S
C211 C213 1.358 . S
C211 H253 0.930 . S
C212 N209 1.314 . S
C212 C210 1.353 . S
C212 H254 0.930 . S
C213 N209 1.279 . S
C213 C211 1.358 . S
C213 H255 0.930 . S
C214 C215 1.348 . S
C214 C216 1.356 . S
C214 O239 1.325 . S
C215 C214 1.348 . S
C215 C217 1.353 . S
C215 H256 0.929 . S
C216 C214 1.356 . S
C216 C218 1.358 . S
C216 H257 0.930 . S
C217 C215 1.353 . S
C217 N219 1.314 . S
C217 H258 0.930 . S
C218 C216 1.358 . S
C218 N219 1.279 . S
C218 H259 0.930 . S
N219 C217 1.314 . S
N219 C218 1.279 . S
C220 C222 1.353 . S
C220 N223 1.314 . S
C220 H226 0.930 . S
C221 N223 1.279 . S
C221 C224 1.358 . S
C221 H227 0.930 . S
C222 C220 1.353 . S
C222 C225 1.348 . S
C222 H260 0.929 . S
N223 Li178 1.990 . S
N223 C220 1.314 . S
N223 C221 1.279 . S
C224 C221 1.358 . S
C224 C225 1.356 . S
C224 H261 0.930 . S
C225 C222 1.348 . S
C225 C224 1.356 . S
H226 C220 0.930 . S
H227 C221 0.930 . S
C228 N229 1.314 . S
C228 C230 1.353 . S
C228 H234 0.930 . S
N229 Li179 1.990 . S
N229 C228 1.314 . S
N229 C232 1.279 . S
C230 C228 1.353 . S
C230 C233 1.348 . S
C230 H262 0.929 . S
C231 C232 1.358 . S
C231 C233 1.356 . S
C231 H263 0.930 . S
C232 N229 1.279 . S
C232 C231 1.358 . S
C232 H235 0.930 . S
C233 C230 1.348 . S
C233 C231 1.356 . S
H234 C228 0.930 . S
H235 C232 0.930 . S
O236 Li176 1.956 . S
O236 Li177 1.970 . S
O236 Li178 1.961 . S
O236 C180 1.325 . S
O237 Li176 1.970 . S
O237 Li177 1.956 . S
O237 Li179 1.961 . S
O237 C186 1.325 . S
O238 Li176 1.961 . S
O238 Li178 1.956 . S
O238 Li179 1.970 . S
O238 C208 1.325 . S
O239 Li177 1.961 . S
O239 Li178 1.970 . S
O239 Li179 1.956 . S
O239 C214 1.325 . S
H240 C182 0.929 . S
H241 C183 0.930 . S
H242 C184 0.916 1_554 S
H243 C185 0.930 . S
H244 C187 0.930 . S
H245 C189 0.929 . S
H246 C190 0.930 . S
H247 C191 0.930 . S
H248 C194 0.930 . S
H249 C197 0.929 . S
H250 C202 0.929 . S
H251 C203 0.930 . S
H252 C210 0.929 . S
H253 C211 0.930 . S
H254 C212 0.930 . S
H255 C213 0.930 . S
H256 C215 0.929 . S
H257 C216 0.930 . S
H258 C217 0.930 . S
H259 C218 0.930 . S
H260 C222 0.929 . S
H261 C224 0.930 . S
H262 C230 0.929 . S
H263 C231 0.930 . S
Li264 N281 1.990 . S
Li264 O324 1.956 . S
Li264 O325 1.970 . S
Li264 O326 1.961 . S
Li265 N289 1.990 . S
Li265 O324 1.970 . S
Li265 O325 1.956 . S
Li265 O327 1.961 . S
Li266 N311 1.990 . S
Li266 O324 1.961 . S
Li266 O326 1.956 . S
Li266 O327 1.970 . S
Li267 N317 1.990 . S
Li267 O325 1.961 . S
Li267 O326 1.970 . S
Li267 O327 1.956 . S
C268 C270 1.348 . S
C268 C271 1.356 . S
C268 O324 1.325 . S
N269 C272 1.314 . S
N269 C273 1.279 . S
C270 C268 1.348 . S
C270 C272 1.353 . S
C270 H328 0.929 . S
C271 C268 1.356 . S
C271 C273 1.358 . S
C271 H329 0.930 . S
C272 N269 1.314 . S
C272 C270 1.353 . S
C272 H330 0.930 . S
C273 N269 1.279 . S
C273 C271 1.358 . S
C273 H331 0.930 . S
C274 C277 1.348 . S
C274 C278 1.356 . S
C274 O325 1.325 . S
C275 N276 1.279 . S
C275 C278 1.358 . S
C275 H332 0.930 . S
N276 C275 1.279 . S
N276 C279 1.314 . S
C277 C274 1.348 . S
C277 C279 1.353 . S
C277 H333 0.929 . S
C278 C274 1.356 . S
C278 C275 1.358 . S
C278 H334 0.930 . S
C279 N276 1.314 . S
C279 C277 1.353 . S
C279 H335 0.930 . S
C280 N281 1.314 . S
C280 C285 1.353 . S
C280 H286 0.930 . S
N281 Li264 1.990 . S
N281 C280 1.314 . S
N281 C283 1.279 . S
C282 C283 1.358 . S
C282 C284 1.356 . S
C282 H336 0.930 . S
C283 N281 1.279 . S
C283 C282 1.358 . S
C283 H287 0.930 . S
C284 C282 1.356 . S
C284 C285 1.348 . S
C285 C280 1.353 . S
C285 C284 1.348 . S
C285 H337 0.929 . S
H286 C280 0.930 . S
H287 C283 0.930 . S
C288 N289 1.314 . S
C288 C290 1.353 . S
C288 H294 0.930 . S
N289 Li265 1.990 . S
N289 C288 1.314 . S
N289 C292 1.279 . S
C290 C288 1.353 . S
C290 C293 1.348 . S
C290 H338 0.929 . S
C291 C292 1.358 . S
C291 C293 1.356 . S
C291 H339 0.930 . S
C292 N289 1.279 . S
C292 C291 1.358 . S
C292 H295 0.930 . S
C293 C290 1.348 . S
C293 C291 1.356 . S
H294 C288 0.930 . S
H295 C292 0.930 . S
C296 C298 1.348 . S
C296 C299 1.356 . S
C296 O326 1.325 . S
N297 C300 1.313 1_556 S
N297 C301 1.279 1_556 S
C298 C296 1.348 . S
C298 C300 1.367 . S
C298 H340 0.929 . S
C299 C296 1.356 . S
C299 C301 1.358 . S
C299 H341 0.930 . S
C300 N297 1.313 1_554 S
C300 C298 1.367 . S
C300 H342 0.916 1_554 S
C301 N297 1.279 1_554 S
C301 C299 1.358 . S
C301 H343 0.930 . S
C302 C303 1.348 . S
C302 C304 1.356 . S
C302 O327 1.325 . S
C303 C302 1.348 . S
C303 C305 1.353 . S
C303 H344 0.929 . S
C304 C302 1.356 . S
C304 C306 1.358 . S
C304 H345 0.930 . S
C305 C303 1.353 . S
C305 N307 1.314 . S
C305 H346 0.930 . S
C306 C304 1.358 . S
C306 N307 1.279 . S
C306 H347 0.930 . S
N307 C305 1.314 . S
N307 C306 1.279 . S
C308 C310 1.353 . S
C308 N311 1.314 . S
C308 H314 0.930 . S
C309 N311 1.279 . S
C309 C312 1.358 . S
C309 H315 0.930 . S
C310 C308 1.353 . S
C310 C313 1.348 . S
C310 H348 0.929 . S
N311 Li266 1.990 . S
N311 C308 1.314 . S
N311 C309 1.279 . S
C312 C309 1.358 . S
C312 C313 1.356 . S
C312 H349 0.930 . S
C313 C310 1.348 . S
C313 C312 1.356 . S
H314 C308 0.930 . S
H315 C309 0.930 . S
C316 N317 1.314 . S
C316 C318 1.353 1_554 S
C316 H322 0.930 . S
N317 Li267 1.990 . S
N317 C316 1.314 . S
N317 C320 1.279 . S
C318 C316 1.353 1_556 S
C318 C321 1.348 . S
C318 H350 0.929 . S
C319 C320 1.358 . S
C319 C321 1.356 1_554 S
C319 H351 0.930 . S
C320 N317 1.279 . S
C320 C319 1.358 . S
C320 H323 0.930 . S
C321 C318 1.348 . S
C321 C319 1.356 1_556 S
H322 C316 0.930 . S
H323 C320 0.930 . S
O324 Li264 1.956 . S
O324 Li265 1.970 . S
O324 Li266 1.961 . S
O324 C268 1.325 . S
O325 Li264 1.970 . S
O325 Li265 1.956 . S
O325 Li267 1.961 . S
O325 C274 1.325 . S
O326 Li264 1.961 . S
O326 Li266 1.956 . S
O326 Li267 1.970 . S
O326 C296 1.325 . S
O327 Li265 1.961 . S
O327 Li266 1.970 . S
O327 Li267 1.956 . S
O327 C302 1.325 . S
H328 C270 0.929 . S
H329 C271 0.930 . S
H330 C272 0.930 . S
H331 C273 0.930 . S
H332 C275 0.930 . S
H333 C277 0.929 . S
H334 C278 0.930 . S
H335 C279 0.930 . S
H336 C282 0.930 . S
H337 C285 0.929 . S
H338 C290 0.929 . S
H339 C291 0.930 . S
H340 C298 0.929 . S
H341 C299 0.930 . S
H342 C300 0.916 1_556 S
H343 C301 0.930 . S
H344 C303 0.929 . S
H345 C304 0.930 . S
H346 C305 0.930 . S
H347 C306 0.930 . S
H348 C310 0.929 . S
H349 C312 0.930 . S
H350 C318 0.929 . S
H351 C319 0.930 . S
Li352 N369 1.990 . S
Li352 O412 1.956 . S
Li352 O413 1.970 . S
Li352 O414 1.961 . S
Li353 N377 1.990 . S
Li353 O412 1.970 . S
Li353 O413 1.956 . S
Li353 O415 1.961 . S
Li354 N399 1.990 . S
Li354 O412 1.961 . S
Li354 O414 1.956 . S
Li354 O415 1.970 . S
Li355 N405 1.990 . S
Li355 O413 1.961 . S
Li355 O414 1.970 . S
Li355 O415 1.956 . S
C356 C358 1.348 . S
C356 C359 1.356 . S
C356 O412 1.325 . S
N357 C360 1.314 . S
N357 C361 1.279 . S
C358 C356 1.348 . S
C358 C360 1.353 . S
C358 H416 0.929 . S
C359 C356 1.356 . S
C359 C361 1.358 . S
C359 H417 0.930 . S
C360 N357 1.314 . S
C360 C358 1.353 . S
C360 H418 0.930 . S
C361 N357 1.279 . S
C361 C359 1.358 . S
C361 H419 0.930 . S
C362 C365 1.348 . S
C362 C366 1.356 . S
C362 O413 1.325 . S
C363 N364 1.279 . S
C363 C366 1.358 . S
C363 H420 0.930 . S
N364 C363 1.279 . S
N364 C367 1.314 . S
C365 C362 1.348 . S
C365 C367 1.353 . S
C365 H421 0.929 . S
C366 C362 1.356 . S
C366 C363 1.358 . S
C366 H422 0.930 . S
C367 N364 1.314 . S
C367 C365 1.353 . S
C367 H423 0.930 . S
C368 N369 1.314 . S
C368 C373 1.353 . S
C368 H374 0.930 . S
N369 Li352 1.990 . S
N369 C368 1.314 . S
N369 C371 1.279 . S
C370 C371 1.358 . S
C370 C372 1.356 . S
C370 H424 0.930 . S
C371 N369 1.279 . S
C371 C370 1.358 . S
C371 H375 0.930 . S
C372 C370 1.356 . S
C372 C373 1.348 . S
C373 C368 1.353 . S
C373 C372 1.348 . S
C373 H425 0.929 . S
H374 C368 0.930 . S
H375 C371 0.930 . S
C376 N377 1.314 . S
C376 C378 1.353 . S
C376 H382 0.930 . S
N377 Li353 1.990 . S
N377 C376 1.314 . S
N377 C380 1.279 . S
C378 C376 1.353 . S
C378 C381 1.348 . S
C378 H426 0.929 . S
C379 C380 1.358 . S
C379 C381 1.356 . S
C379 H427 0.930 . S
C380 N377 1.279 . S
C380 C379 1.358 . S
C380 H383 0.930 . S
C381 C378 1.348 . S
C381 C379 1.356 . S
H382 C376 0.930 . S
H383 C380 0.930 . S
C384 C386 1.348 . S
C384 C387 1.356 . S
C384 O414 1.325 . S
N385 C388 1.314 . S
N385 C389 1.279 . S
C386 C384 1.348 . S
C386 C388 1.353 . S
C386 H428 0.929 . S
C387 C384 1.356 . S
C387 C389 1.358 . S
C387 H429 0.930 . S
C388 N385 1.314 . S
C388 C386 1.353 . S
C388 H430 0.930 . S
C389 N385 1.279 . S
C389 C387 1.358 . S
C389 H431 0.930 . S
C390 C391 1.348 . S
C390 C392 1.356 . S
C390 O415 1.325 . S
C391 C390 1.348 . S
C391 C393 1.353 . S
C391 H432 0.929 . S
C392 C390 1.356 . S
C392 C394 1.358 . S
C392 H433 0.930 . S
C393 C391 1.353 . S
C393 N395 1.314 . S
C393 H434 0.930 . S
C394 C392 1.358 . S
C394 N395 1.279 . S
C394 H435 0.930 . S
N395 C393 1.314 . S
N395 C394 1.279 . S
C396 C398 1.353 . S
C396 N399 1.314 . S
C396 H402 0.930 . S
C397 N399 1.279 . S
C397 C400 1.358 . S
C397 H403 0.930 . S
C398 C396 1.353 . S
C398 C401 1.348 . S
C398 H436 0.929 . S
N399 Li354 1.990 . S
N399 C396 1.314 . S
N399 C397 1.279 . S
C400 C397 1.358 . S
C400 C401 1.356 . S
C400 H437 0.930 . S
C401 C398 1.348 . S
C401 C400 1.356 . S
H402 C396 0.930 . S
H403 C397 0.930 . S
C404 N405 1.314 . S
C404 C406 1.353 . S
C404 H410 0.930 . S
N405 Li355 1.990 . S
N405 C404 1.314 . S
N405 C408 1.279 . S
C406 C404 1.353 . S
C406 C409 1.348 . S
C406 H438 0.929 . S
C407 C408 1.358 . S
C407 C409 1.356 . S
C407 H439 0.930 . S
C408 N405 1.279 . S
C408 C407 1.358 . S
C408 H411 0.930 . S
C409 C406 1.348 . S
C409 C407 1.356 . S
H410 C404 0.930 . S
H411 C408 0.930 . S
O412 Li352 1.956 . S
O412 Li353 1.970 . S
O412 Li354 1.961 . S
O412 C356 1.325 . S
O413 Li352 1.970 . S
O413 Li353 1.956 . S
O413 Li355 1.961 . S
O413 C362 1.325 . S
O414 Li352 1.961 . S
O414 Li354 1.956 . S
O414 Li355 1.970 . S
O414 C384 1.325 . S
O415 Li353 1.961 . S
O415 Li354 1.970 . S
O415 Li355 1.956 . S
O415 C390 1.325 . S
H416 C358 0.929 . S
H417 C359 0.930 . S
H418 C360 0.930 . S
H419 C361 0.930 . S
H420 C363 0.930 . S
H421 C365 0.929 . S
H422 C366 0.930 . S
H423 C367 0.930 . S
H424 C370 0.930 . S
H425 C373 0.929 . S
H426 C378 0.929 . S
H427 C379 0.930 . S
H428 C386 0.929 . S
H429 C387 0.930 . S
H430 C388 0.930 . S
H431 C389 0.930 . S
H432 C391 0.929 . S
H433 C392 0.930 . S
H434 C393 0.930 . S
H435 C394 0.930 . S
H436 C398 0.929 . S
H437 C400 0.930 . S
H438 C406 0.929 . S
H439 C407 0.930 . S
Li440 N457 1.990 . S
Li440 O500 1.956 . S
Li440 O501 1.970 . S
Li440 O502 1.961 . S
Li441 N465 1.990 . S
Li441 O500 1.970 . S
Li441 O501 1.956 . S
Li441 O503 1.961 . S
Li442 N487 1.990 . S
Li442 O500 1.961 . S
Li442 O502 1.956 . S
Li442 O503 1.970 . S
Li443 N493 1.990 . S
Li443 O501 1.961 . S
Li443 O502 1.970 . S
Li443 O503 1.956 . S
C444 C446 1.348 . S
C444 C447 1.356 . S
C444 O500 1.325 . S
N445 C448 1.314 . S
N445 C449 1.279 . S
C446 C444 1.348 . S
C446 C448 1.353 . S
C446 H504 0.929 . S
C447 C444 1.356 . S
C447 C449 1.358 . S
C447 H505 0.930 . S
C448 N445 1.314 . S
C448 C446 1.353 . S
C448 H506 0.930 . S
C449 N445 1.279 . S
C449 C447 1.358 . S
C449 H507 0.930 . S
C450 C453 1.348 . S
C450 C454 1.356 . S
C450 O501 1.325 . S
C451 N452 1.279 . S
C451 C454 1.358 . S
C451 H508 0.930 . S
N452 C451 1.279 . S
N452 C455 1.314 . S
C453 C450 1.348 . S
C453 C455 1.353 . S
C453 H509 0.929 . S
C454 C450 1.356 . S
C454 C451 1.358 . S
C454 H510 0.930 . S
C455 N452 1.314 . S
C455 C453 1.353 . S
C455 H511 0.930 . S
C456 N457 1.314 . S
C456 C461 1.353 . S
C456 H462 0.930 . S
N457 Li440 1.990 . S
N457 C456 1.314 . S
N457 C459 1.279 . S
C458 C459 1.358 . S
C458 C460 1.356 . S
C458 H512 0.930 . S
C459 N457 1.279 . S
C459 C458 1.358 . S
C459 H463 0.930 . S
C460 C458 1.356 . S
C460 C461 1.348 . S
C461 C456 1.353 . S
C461 C460 1.348 . S
C461 H513 0.929 . S
H462 C456 0.930 . S
H463 C459 0.930 . S
C464 N465 1.314 . S
C464 C466 1.353 . S
C464 H470 0.930 . S
N465 Li441 1.990 . S
N465 C464 1.314 . S
N465 C468 1.279 . S
C466 C464 1.353 . S
C466 C469 1.348 . S
C466 H514 0.929 . S
C467 C468 1.358 . S
C467 C469 1.356 . S
C467 H515 0.930 . S
C468 N465 1.279 . S
C468 C467 1.358 . S
C468 H471 0.930 . S
C469 C466 1.348 . S
C469 C467 1.356 . S
H470 C464 0.930 . S
H471 C468 0.930 . S
C472 C474 1.348 . S
C472 C475 1.356 . S
C472 O502 1.325 . S
N473 C476 1.314 . S
N473 C477 1.279 . S
C474 C472 1.348 . S
C474 C476 1.353 . S
C474 H516 0.929 . S
C475 C472 1.356 . S
C475 C477 1.358 . S
C475 H517 0.930 . S
C476 N473 1.314 . S
C476 C474 1.353 . S
C476 H518 0.930 . S
C477 N473 1.279 . S
C477 C475 1.358 . S
C477 H519 0.930 . S
C478 C479 1.348 . S
C478 C480 1.356 . S
C478 O503 1.325 . S
C479 C478 1.348 . S
C479 C481 1.353 . S
C479 H520 0.929 . S
C480 C478 1.356 . S
C480 C482 1.358 . S
C480 H521 0.930 . S
C481 C479 1.353 . S
C481 N483 1.314 . S
C481 H522 0.930 . S
C482 C480 1.358 . S
C482 N483 1.279 . S
C482 H523 0.930 . S
N483 C481 1.314 . S
N483 C482 1.279 . S
C484 C486 1.353 . S
C484 N487 1.314 . S
C484 H490 0.930 . S
C485 N487 1.279 . S
C485 C488 1.358 . S
C485 H491 0.930 . S
C486 C484 1.353 . S
C486 C489 1.348 . S
C486 H524 0.929 . S
N487 Li442 1.990 . S
N487 C484 1.314 . S
N487 C485 1.279 . S
C488 C485 1.358 . S
C488 C489 1.356 . S
C488 H525 0.930 . S
C489 C486 1.348 . S
C489 C488 1.356 . S
H490 C484 0.930 . S
H491 C485 0.930 . S
C492 N493 1.314 . S
C492 C494 1.353 . S
C492 H498 0.930 . S
N493 Li443 1.990 . S
N493 C492 1.314 . S
N493 C496 1.279 . S
C494 C492 1.353 . S
C494 C497 1.348 . S
C494 H526 0.929 . S
C495 C496 1.358 . S
C495 C497 1.356 . S
C495 H527 0.930 . S
C496 N493 1.279 . S
C496 C495 1.358 . S
C496 H499 0.930 . S
C497 C494 1.348 . S
C497 C495 1.356 . S
H498 C492 0.930 . S
H499 C496 0.930 . S
O500 Li440 1.956 . S
O500 Li441 1.970 . S
O500 Li442 1.961 . S
O500 C444 1.325 . S
O501 Li440 1.970 . S
O501 Li441 1.956 . S
O501 Li443 1.961 . S
O501 C450 1.325 . S
O502 Li440 1.961 . S
O502 Li442 1.956 . S
O502 Li443 1.970 . S
O502 C472 1.325 . S
O503 Li441 1.961 . S
O503 Li442 1.970 . S
O503 Li443 1.956 . S
O503 C478 1.325 . S
H504 C446 0.929 . S
H505 C447 0.930 . S
H506 C448 0.930 . S
H507 C449 0.930 . S
H508 C451 0.930 . S
H509 C453 0.929 . S
H510 C454 0.930 . S
H511 C455 0.930 . S
H512 C458 0.930 . S
H513 C461 0.929 . S
H514 C466 0.929 . S
H515 C467 0.930 . S
H516 C474 0.929 . S
H517 C475 0.930 . S
H518 C476 0.930 . S
H519 C477 0.930 . S
H520 C479 0.929 . S
H521 C480 0.930 . S
H522 C481 0.930 . S
H523 C482 0.930 . S
H524 C486 0.929 . S
H525 C488 0.930 . S
H526 C494 0.929 . S
H527 C495 0.930 . S
C528 C529 1.391 . S
C528 C530 1.394 . S
C528 H544 0.931 . S
C529 C528 1.391 . S
C529 C533 1.376 . S
C530 C528 1.394 . S
C530 C531 1.369 . S
C530 C534 1.531 1_545 S
C531 C530 1.369 . S
C531 C532 1.410 . S
C531 C539 1.503 1_545 S
C532 C531 1.410 . S
C532 C533 1.392 . S
C532 C535 1.511 . S
C533 C529 1.376 . S
C533 C532 1.392 . S
C533 H545 0.929 . S
C534 C530 1.531 1_565 S
C534 H546 0.960 . S
C534 H547 0.962 . S
C534 H548 0.960 . S
C535 C532 1.511 . S
C535 H549 0.961 . S
C535 H550 0.961 . S
C535 H551 0.961 . S
C536 C537 1.370 . S
C536 C538 1.363 . S
C536 H552 0.931 . S
C537 C536 1.370 . S
C537 C541 1.408 . S
C538 C536 1.363 . S
C538 C539 1.370 . S
C538 C542 1.524 1_565 S
C539 C531 1.503 1_565 S
C539 C538 1.370 . S
C539 C540 1.403 . S
C540 C539 1.403 . S
C540 C541 1.404 . S
C540 C543 1.539 . S
C541 C537 1.408 . S
C541 C540 1.404 . S
C541 H553 0.930 . S
C542 C538 1.524 1_545 S
C542 H554 0.956 . S
C542 H555 0.961 . S
C542 H556 0.961 1_545 S
C543 C540 1.539 . S
C543 H557 0.958 . S
C543 H558 0.961 . S
C543 H559 0.960 . S
H544 C528 0.931 . S
H545 C533 0.929 . S
H546 C534 0.960 . S
H547 C534 0.962 . S
H548 C534 0.960 . S
H549 C535 0.961 . S
H550 C535 0.961 . S
H551 C535 0.961 . S
H552 C536 0.931 . S
H553 C541 0.930 . S
H554 C542 0.956 . S
H555 C542 0.961 . S
H556 C542 0.961 1_565 S
H557 C543 0.958 . S
H558 C543 0.961 . S
H559 C543 0.960 . S
C560 C561 1.391 . S
C560 C562 1.394 . S
C560 H576 0.931 . S
C561 C560 1.391 . S
C561 C565 1.376 . S
C562 C560 1.394 . S
C562 C563 1.369 . S
C562 C566 1.531 . S
C563 C562 1.369 . S
C563 C564 1.410 . S
C563 C571 1.503 . S
C564 C563 1.410 . S
C564 C565 1.392 . S
C564 C567 1.511 . S
C565 C561 1.376 . S
C565 C564 1.392 . S
C565 H577 0.929 . S
C566 C562 1.531 . S
C566 H578 0.960 . S
C566 H579 0.962 . S
C566 H580 0.960 . S
C567 C564 1.511 . S
C567 H581 0.961 . S
C567 H582 0.961 . S
C567 H583 0.961 . S
C568 C569 1.370 . S
C568 C570 1.363 . S
C568 H584 0.931 . S
C569 C568 1.370 . S
C569 C573 1.408 . S
C570 C568 1.363 . S
C570 C571 1.370 . S
C570 C574 1.524 . S
C571 C563 1.503 . S
C571 C570 1.370 . S
C571 C572 1.403 . S
C572 C571 1.403 . S
C572 C573 1.404 . S
C572 C575 1.539 . S
C573 C569 1.408 . S
C573 C572 1.404 . S
C573 H585 0.930 . S
C574 C570 1.524 . S
C574 H586 0.956 . S
C574 H587 0.961 . S
C574 H588 0.961 . S
C575 C572 1.539 . S
C575 H589 0.958 . S
C575 H590 0.961 . S
C575 H591 0.960 . S
H576 C560 0.931 . S
H577 C565 0.929 . S
H578 C566 0.960 . S
H579 C566 0.962 . S
H580 C566 0.960 . S
H581 C567 0.961 . S
H582 C567 0.961 . S
H583 C567 0.961 . S
H584 C568 0.931 . S
H585 C573 0.930 . S
H586 C574 0.956 . S
H587 C574 0.961 . S
H588 C574 0.961 . S
H589 C575 0.958 . S
H590 C575 0.961 . S
H591 C575 0.960 . S
C592 C593 1.391 . S
C592 C594 1.394 . S
C592 H608 0.931 . S
C593 C592 1.391 . S
C593 C597 1.376 . S
C594 C592 1.394 . S
C594 C595 1.369 . S
C594 C598 1.531 1_655 S
C595 C594 1.369 . S
C595 C596 1.410 . S
C595 C603 1.503 1_655 S
C596 C595 1.410 . S
C596 C597 1.392 . S
C596 C599 1.511 . S
C597 C593 1.376 . S
C597 C596 1.392 . S
C597 H609 0.929 . S
C598 C594 1.531 1_455 S
C598 H610 0.960 . S
C598 H611 0.962 . S
C598 H612 0.960 1_455 S
C599 C596 1.511 . S
C599 H613 0.961 . S
C599 H614 0.961 . S
C599 H615 0.961 . S
C600 C601 1.370 . S
C600 C602 1.363 . S
C600 H616 0.931 . S
C601 C600 1.370 . S
C601 C605 1.408 . S
C602 C600 1.363 . S
C602 C603 1.370 . S
C602 C606 1.524 . S
C603 C595 1.503 1_455 S
C603 C602 1.370 . S
C603 C604 1.403 . S
C604 C603 1.403 . S
C604 C605 1.404 . S
C604 C607 1.539 . S
C605 C601 1.408 . S
C605 C604 1.404 . S
C605 H617 0.930 . S
C606 C602 1.524 . S
C606 H618 0.956 . S
C606 H619 0.961 . S
C606 H620 0.961 . S
C607 C604 1.539 . S
C607 H621 0.958 . S
C607 H622 0.961 . S
C607 H623 0.960 1_455 S
H608 C592 0.931 . S
H609 C597 0.929 . S
H610 C598 0.960 . S
H611 C598 0.962 . S
H612 C598 0.960 1_655 S
H613 C599 0.961 . S
H614 C599 0.961 . S
H615 C599 0.961 . S
H616 C600 0.931 . S
H617 C605 0.930 . S
H618 C606 0.956 . S
H619 C606 0.961 . S
H620 C606 0.961 . S
H621 C607 0.958 . S
H622 C607 0.961 . S
H623 C607 0.960 1_655 S
C624 C625 1.391 . S
C624 C626 1.394 . S
C624 H640 0.931 . S
C625 C624 1.391 . S
C625 C629 1.376 . S
C626 C624 1.394 . S
C626 C627 1.371 . S
C626 C630 1.531 1_554 S
C627 C626 1.371 . S
C627 C628 1.413 . S
C627 C635 1.499 1_564 S
C628 C627 1.413 . S
C628 C629 1.392 . S
C628 C631 1.511 . S
C629 C625 1.376 . S
C629 C628 1.392 . S
C629 H641 0.929 . S
C630 C626 1.531 1_556 S
C630 H642 0.960 . S
C630 H643 0.962 1_556 S
C630 H644 0.960 . S
C631 C628 1.511 . S
C631 H645 0.961 . S
C631 H646 0.961 1_565 S
C631 H647 0.961 1_554 S
C632 C633 1.370 . S
C632 C634 1.363 1_556 S
C632 H648 0.931 1_556 S
C633 C632 1.370 . S
C633 C637 1.408 . S
C634 C632 1.363 1_554 S
C634 C635 1.370 1_554 S
C634 C638 1.524 . S
C635 C627 1.499 1_546 S
C635 C634 1.370 1_556 S
C635 C636 1.403 . S
C636 C635 1.403 . S
C636 C637 1.404 . S
C636 C639 1.539 1_545 S
C637 C633 1.408 . S
C637 C636 1.404 . S
C637 H649 0.930 . S
C638 C634 1.524 . S
C638 H650 0.956 . S
C638 H651 0.961 . S
C638 H652 0.961 . S
C639 C636 1.539 1_565 S
C639 H653 0.958 . S
C639 H654 0.961 . S
C639 H655 0.960 . S
H640 C624 0.931 . S
H641 C629 0.929 . S
H642 C630 0.960 . S
H643 C630 0.962 1_554 S
H644 C630 0.960 . S
H645 C631 0.961 . S
H646 C631 0.961 1_545 S
H647 C631 0.961 1_556 S
H648 C632 0.931 1_554 S
H649 C637 0.930 . S
H650 C638 0.956 . S
H651 C638 0.961 . S
H652 C638 0.961 . S
H653 C639 0.958 . S
H654 C639 0.961 . S
H655 C639 0.960 . S
C656 C657 1.391 . S
C656 C658 1.394 . S
C656 H672 0.931 . S
C657 C656 1.391 . S
C657 C661 1.376 . S
C658 C656 1.394 . S
C658 C659 1.369 . S
C658 C662 1.531 . S
C659 C658 1.369 . S
C659 C660 1.410 . S
C659 C667 1.503 . S
C660 C659 1.410 . S
C660 C661 1.392 . S
C660 C663 1.511 . S
C661 C657 1.376 . S
C661 C660 1.392 . S
C661 H673 0.929 . S
C662 C658 1.531 . S
C662 H674 0.960 . S
C662 H675 0.962 . S
C662 H676 0.960 . S
C663 C660 1.511 . S
C663 H677 0.961 . S
C663 H678 0.961 . S
C663 H679 0.961 . S
C664 C665 1.370 . S
C664 C666 1.363 . S
C664 H680 0.931 . S
C665 C664 1.370 . S
C665 C669 1.408 . S
C666 C664 1.363 . S
C666 C667 1.370 . S
C666 C670 1.524 . S
C667 C659 1.503 . S
C667 C666 1.370 . S
C667 C668 1.403 . S
C668 C667 1.403 . S
C668 C669 1.404 . S
C668 C671 1.539 . S
C669 C665 1.408 . S
C669 C668 1.404 . S
C669 H681 0.930 . S
C670 C666 1.524 . S
C670 H682 0.956 . S
C670 H683 0.961 . S
C670 H684 0.961 . S
C671 C668 1.539 . S
C671 H685 0.958 . S
C671 H686 0.961 . S
C671 H687 0.960 . S
H672 C656 0.931 . S
H673 C661 0.929 . S
H674 C662 0.960 . S
H675 C662 0.962 . S
H676 C662 0.960 . S
H677 C663 0.961 . S
H678 C663 0.961 . S
H679 C663 0.961 . S
H680 C664 0.931 . S
H681 C669 0.930 . S
H682 C670 0.956 . S
H683 C670 0.961 . S
H684 C670 0.961 . S
H685 C671 0.958 . S
H686 C671 0.961 . S
H687 C671 0.960 . S
C688 C689 1.391 . S
C688 C690 1.394 . S
C688 H704 0.931 . S
C689 C688 1.391 . S
C689 C693 1.376 . S
C690 C688 1.394 . S
C690 C691 1.369 . S
C690 C694 1.531 . S
C691 C690 1.369 . S
C691 C692 1.410 . S
C691 C699 1.503 1_455 S
C692 C691 1.410 . S
C692 C693 1.392 . S
C692 C695 1.475 1_455 S
C693 C689 1.376 . S
C693 C692 1.392 . S
C693 H705 0.929 . S
C694 C690 1.531 . S
C694 H706 0.960 . S
C694 H707 0.962 . S
C694 H708 0.960 . S
C695 C692 1.475 1_655 S
C695 H709 0.961 1_655 S
C695 H710 0.987 . S
C695 H711 0.973 . S
C696 C697 1.370 . S
C696 C698 1.363 . S
C696 H712 0.931 . S
C697 C696 1.370 . S
C697 C701 1.408 . S
C698 C696 1.363 . S
C698 C699 1.370 . S
C698 C702 1.524 1_655 S
C699 C691 1.503 1_655 S
C699 C698 1.370 . S
C699 C700 1.403 . S
C700 C699 1.403 . S
C700 C701 1.404 . S
C700 C703 1.539 . S
C701 C697 1.408 . S
C701 C700 1.404 . S
C701 H713 0.930 . S
C702 C698 1.524 1_455 S
C702 H714 0.956 . S
C702 H715 0.961 . S
C702 H716 0.955 1_455 S
C703 C700 1.539 . S
C703 H717 0.958 . S
C703 H718 0.961 . S
C703 H719 0.960 . S
H704 C688 0.931 . S
H705 C693 0.929 . S
H706 C694 0.960 . S
H707 C694 0.962 . S
H708 C694 0.960 . S
H709 C695 0.961 1_455 S
H710 C695 0.987 . S
H711 C695 0.973 . S
H712 C696 0.931 . S
H713 C701 0.930 . S
H714 C702 0.956 . S
H715 C702 0.961 . S
H716 C702 0.955 1_655 S
H717 C703 0.958 . S
H718 C703 0.961 . S
H719 C703 0.960 . S
C720 C721 1.391 . S
C720 C722 1.394 . S
C720 H736 0.931 . S
C721 C720 1.391 . S
C721 C725 1.376 . S
C722 C720 1.394 . S
C722 C723 1.369 . S
C722 C726 1.531 . S
C723 C722 1.369 . S
C723 C724 1.410 . S
C723 C731 1.503 . S
C724 C723 1.410 . S
C724 C725 1.392 . S
C724 C727 1.511 . S
C725 C721 1.376 . S
C725 C724 1.392 . S
C725 H737 0.929 . S
C726 C722 1.531 . S
C726 H738 0.960 . S
C726 H739 0.962 . S
C726 H740 0.960 . S
C727 C724 1.511 . S
C727 H741 0.961 . S
C727 H742 0.961 . S
C727 H743 0.961 . S
C728 C729 1.370 . S
C728 C730 1.363 . S
C728 H744 0.931 . S
C729 C728 1.370 . S
C729 C733 1.408 . S
C730 C728 1.363 . S
C730 C731 1.370 . S
C730 C734 1.524 . S
C731 C723 1.503 . S
C731 C730 1.370 . S
C731 C732 1.403 . S
C732 C731 1.403 . S
C732 C733 1.404 . S
C732 C735 1.539 . S
C733 C729 1.408 . S
C733 C732 1.404 . S
C733 H745 0.930 . S
C734 C730 1.524 . S
C734 H746 0.956 . S
C734 H747 0.961 . S
C734 H748 0.961 . S
C735 C732 1.539 . S
C735 H749 0.958 . S
C735 H750 0.961 . S
C735 H751 0.960 . S
H736 C720 0.931 . S
H737 C725 0.929 . S
H738 C726 0.960 . S
H739 C726 0.962 . S
H740 C726 0.960 . S
H741 C727 0.961 . S
H742 C727 0.961 . S
H743 C727 0.961 . S
H744 C728 0.931 . S
H745 C733 0.930 . S
H746 C734 0.956 . S
H747 C734 0.961 . S
H748 C734 0.961 . S
H749 C735 0.958 . S
H750 C735 0.961 . S
H751 C735 0.960 . S
C752 C753 1.391 . S
C752 C754 1.394 . S
C752 H768 0.931 . S
C753 C752 1.391 . S
C753 C757 1.376 . S
C754 C752 1.394 . S
C754 C755 1.369 . S
C754 C758 1.531 . S
C755 C754 1.369 . S
C755 C756 1.410 . S
C755 C763 1.503 . S
C756 C755 1.410 . S
C756 C757 1.392 . S
C756 C759 1.511 . S
C757 C753 1.376 . S
C757 C756 1.392 . S
C757 H769 0.929 . S
C758 C754 1.531 . S
C758 H770 0.960 . S
C758 H771 0.962 . S
C758 H772 0.960 . S
C759 C756 1.511 . S
C759 H773 0.961 . S
C759 H774 0.961 . S
C759 H775 0.961 . S
C760 C761 1.370 . S
C760 C762 1.363 . S
C760 H776 0.931 . S
C761 C760 1.370 . S
C761 C765 1.408 . S
C762 C760 1.363 . S
C762 C763 1.370 . S
C762 C766 1.524 . S
C763 C755 1.503 . S
C763 C762 1.370 . S
C763 C764 1.403 . S
C764 C763 1.403 . S
C764 C765 1.404 . S
C764 C767 1.539 . S
C765 C761 1.408 . S
C765 C764 1.404 . S
C765 H777 0.930 . S
C766 C762 1.524 . S
C766 H778 0.956 . S
C766 H779 0.961 . S
C766 H780 0.961 . S
C767 C764 1.539 . S
C767 H781 0.958 . S
C767 H782 0.961 . S
C767 H783 0.960 . S
H768 C752 0.931 . S
H769 C757 0.929 . S
H770 C758 0.960 . S
H771 C758 0.962 . S
H772 C758 0.960 . S
H773 C759 0.961 . S
H774 C759 0.961 . S
H775 C759 0.961 . S
H776 C760 0.931 . S
H777 C765 0.930 . S
H778 C766 0.956 . S
H779 C766 0.961 . S
H780 C766 0.961 . S
H781 C767 0.958 . S
H782 C767 0.961 . S
H783 C767 0.960 . S
C784 C785 1.391 . S
C784 C786 1.394 . S
C784 H800 0.931 . S
C785 C784 1.391 . S
C785 C789 1.376 . S
C786 C784 1.394 . S
C786 C787 1.369 . S
C786 C790 1.531 . S
C787 C786 1.369 . S
C787 C788 1.410 . S
C787 C795 1.503 . S
C788 C787 1.410 . S
C788 C789 1.392 . S
C788 C791 1.511 . S
C789 C785 1.376 . S
C789 C788 1.392 . S
C789 H801 0.929 . S
C790 C786 1.531 . S
C790 H802 0.960 . S
C790 H803 0.962 . S
C790 H804 0.960 . S
C791 C788 1.511 . S
C791 H805 0.961 . S
C791 H806 0.961 . S
C791 H807 0.961 . S
C792 C793 1.370 . S
C792 C794 1.363 . S
C792 H808 0.931 . S
C793 C792 1.370 . S
C793 C797 1.408 . S
C794 C792 1.363 . S
C794 C795 1.370 . S
C794 C798 1.524 . S
C795 C787 1.503 . S
C795 C794 1.370 . S
C795 C796 1.403 . S
C796 C795 1.403 . S
C796 C797 1.404 . S
C796 C799 1.539 . S
C797 C793 1.408 . S
C797 C796 1.404 . S
C797 H809 0.930 . S
C798 C794 1.524 . S
C798 H810 0.956 . S
C798 H811 0.961 . S
C798 H812 0.961 . S
C799 C796 1.539 . S
C799 H813 0.958 . S
C799 H814 0.961 . S
C799 H815 0.960 . S
H800 C784 0.931 . S
H801 C789 0.929 . S
H802 C790 0.960 . S
H803 C790 0.962 . S
H804 C790 0.960 . S
H805 C791 0.961 . S
H806 C791 0.961 . S
H807 C791 0.961 . S
H808 C792 0.931 . S
H809 C797 0.930 . S
H810 C798 0.956 . S
H811 C798 0.961 . S
H812 C798 0.961 . S
H813 C799 0.958 . S
H814 C799 0.961 . S
H815 C799 0.960 . S
C816 C817 1.391 . S
C816 C818 1.394 . S
C816 H832 0.931 . S
C817 C816 1.391 . S
C817 C821 1.376 . S
C818 C816 1.394 . S
C818 C819 1.369 . S
C818 C822 1.531 . S
C819 C818 1.369 . S
C819 C820 1.410 . S
C819 C827 1.503 . S
C820 C819 1.410 . S
C820 C821 1.392 . S
C820 C823 1.511 . S
C821 C817 1.376 . S
C821 C820 1.392 . S
C821 H833 0.929 . S
C822 C818 1.531 . S
C822 H834 0.960 . S
C822 H835 0.962 . S
C822 H836 0.960 . S
C823 C820 1.511 . S
C823 H837 0.961 . S
C823 H838 0.961 . S
C823 H839 0.961 . S
C824 C825 1.370 . S
C824 C826 1.363 . S
C824 H840 0.931 . S
C825 C824 1.370 . S
C825 C829 1.408 . S
C826 C824 1.363 . S
C826 C827 1.370 . S
C826 C830 1.524 . S
C827 C819 1.503 . S
C827 C826 1.370 . S
C827 C828 1.403 . S
C828 C827 1.403 . S
C828 C829 1.404 . S
C828 C831 1.539 . S
C829 C825 1.408 . S
C829 C828 1.404 . S
C829 H841 0.930 . S
C830 C826 1.524 . S
C830 H842 0.956 . S
C830 H843 0.961 . S
C830 H844 0.961 . S
C831 C828 1.539 . S
C831 H845 0.958 . S
C831 H846 0.961 . S
C831 H847 0.960 . S
H832 C816 0.931 . S
H833 C821 0.929 . S
H834 C822 0.960 . S
H835 C822 0.962 . S
H836 C822 0.960 . S
H837 C823 0.961 . S
H838 C823 0.961 . S
H839 C823 0.961 . S
H840 C824 0.931 . S
H841 C829 0.930 . S
H842 C830 0.956 . S
H843 C830 0.961 . S
H844 C830 0.961 . S
H845 C831 0.958 . S
H846 C831 0.961 . S
H847 C831 0.960 . S
C848 C849 1.391 . S
C848 C850 1.394 . S
C848 H864 0.931 . S
C849 C848 1.391 . S
C849 C853 1.376 . S
C850 C848 1.394 . S
C850 C851 1.369 . S
C850 C854 1.531 . S
C851 C850 1.369 . S
C851 C852 1.410 . S
C851 C859 1.503 . S
C852 C851 1.410 . S
C852 C853 1.392 . S
C852 C855 1.511 . S
C853 C849 1.376 . S
C853 C852 1.392 . S
C853 H865 0.929 . S
C854 C850 1.531 . S
C854 H866 0.960 . S
C854 H867 0.962 . S
C854 H868 0.960 . S
C855 C852 1.511 . S
C855 H869 0.961 . S
C855 H870 0.961 . S
C855 H871 0.961 . S
C856 C857 1.370 . S
C856 C858 1.363 . S
C856 H872 0.931 . S
C857 C856 1.370 . S
C857 C861 1.408 . S
C858 C856 1.363 . S
C858 C859 1.370 . S
C858 C862 1.524 . S
C859 C851 1.503 . S
C859 C858 1.370 . S
C859 C860 1.403 . S
C860 C859 1.403 . S
C860 C861 1.404 . S
C860 C863 1.539 . S
C861 C857 1.408 . S
C861 C860 1.404 . S
C861 H873 0.930 . S
C862 C858 1.524 . S
C862 H874 0.956 . S
C862 H875 0.961 . S
C862 H876 0.961 . S
C863 C860 1.539 . S
C863 H877 0.958 . S
C863 H878 0.961 . S
C863 H879 0.960 . S
H864 C848 0.931 . S
H865 C853 0.929 . S
H866 C854 0.960 . S
H867 C854 0.962 . S
H868 C854 0.960 . S
H869 C855 0.961 . S
H870 C855 0.961 . S
H871 C855 0.961 . S
H872 C856 0.931 . S
H873 C861 0.930 . S
H874 C862 0.956 . S
H875 C862 0.961 . S
H876 C862 0.961 . S
H877 C863 0.958 . S
H878 C863 0.961 . S
H879 C863 0.960 . S
C880 C881 1.391 . S
C880 C882 1.394 . S
C880 H896 0.931 . S
C881 C880 1.391 . S
C881 C885 1.376 . S
C882 C880 1.394 . S
C882 C883 1.369 . S
C882 C886 1.531 . S
C883 C882 1.369 . S
C883 C884 1.410 . S
C883 C891 1.503 . S
C884 C883 1.410 . S
C884 C885 1.392 . S
C884 C887 1.511 . S
C885 C881 1.376 . S
C885 C884 1.392 . S
C885 H897 0.929 . S
C886 C882 1.531 . S
C886 H898 0.960 . S
C886 H899 0.962 . S
C886 H900 0.960 . S
C887 C884 1.511 . S
C887 H901 0.961 . S
C887 H902 0.961 . S
C887 H903 0.961 . S
C888 C889 1.370 . S
C888 C890 1.363 . S
C888 H904 0.931 . S
C889 C888 1.370 . S
C889 C893 1.408 . S
C890 C888 1.363 . S
C890 C891 1.370 . S
C890 C894 1.524 . S
C891 C883 1.503 . S
C891 C890 1.370 . S
C891 C892 1.403 . S
C892 C891 1.403 . S
C892 C893 1.404 . S
C892 C895 1.539 . S
C893 C889 1.408 . S
C893 C892 1.404 . S
C893 H905 0.930 . S
C894 C890 1.524 . S
C894 H906 0.956 . S
C894 H907 0.961 . S
C894 H908 0.961 . S
C895 C892 1.539 . S
C895 H909 0.958 . S
C895 H910 0.961 . S
C895 H911 0.960 . S
H896 C880 0.931 . S
H897 C885 0.929 . S
H898 C886 0.960 . S
H899 C886 0.962 . S
H900 C886 0.960 . S
H901 C887 0.961 . S
H902 C887 0.961 . S
H903 C887 0.961 . S
H904 C888 0.931 . S
H905 C893 0.930 . S
H906 C894 0.956 . S
H907 C894 0.961 . S
H908 C894 0.961 . S
H909 C895 0.958 . S
H910 C895 0.961 . S
H911 C895 0.960 . S
C529 C20 1.354 . S
C537 C489 1.353 . S
C561 C49 1.344 . S
C569 C117 1.351 . S
C593 C196 1.351 . S
C601 C145 1.354 . S
C625 C284 1.345 . S
C633 C225 1.352 . S
C657 C372 1.342 . S
C665 C313 1.349 . S
C689 C460 1.347 . S
C697 C401 1.349 . S
C721 C57 1.587 . S
C729 C381 1.588 . S
C753 C469 1.580 . S
C761 C137 1.592 . S
C785 C233 1.591 . S
C793 C29 1.587 . S
C817 C108 1.581 . S
C825 C321 1.590 . S
C849 C205 1.581 . S
C857 C409 1.590 . S
C881 C497 1.584 . S
C889 C293 1.591 . S
