# Generated by pormake.
# Topology rkf, (6)-cn, num edge types: 1
# Building blocks:
#     Node 0, Type 0, BuildingBlock: INOVEN_clean_sbu_0, # of connection points: 6
#     Node 1, Type 0, BuildingBlock: INOVEN_clean_sbu_0, # of connection points: 6
#     Node 2, Type 0, BuildingBlock: INOVEN_clean_sbu_0, # of connection points: 6
#     Node 3, Type 0, BuildingBlock: INOVEN_clean_sbu_0, # of connection points: 6
#     Node 4, Type 0, BuildingBlock: INOVEN_clean_sbu_0, # of connection points: 6
#     Node 5, Type 0, BuildingBlock: INOVEN_clean_sbu_0, # of connection points: 6
#     Edge 6, Type (0, 0), BuildingBlock: CIFDUS_clean_linker_0, # of connection points: 2
#     Edge 7, Type (0, 0), BuildingBlock: CIFDUS_clean_linker_0, # of connection points: 2
#     Edge 8, Type (0, 0), BuildingBlock: CIFDUS_clean_linker_0, # of connection points: 2
#     Edge 9, Type (0, 0), BuildingBlock: CIFDUS_clean_linker_0, # of connection points: 2
#     Edge 10, Type (0, 0), BuildingBlock: CIFDUS_clean_linker_0, # of connection points: 2
#     Edge 11, Type (0, 0), BuildingBlock: CIFDUS_clean_linker_0, # of connection points: 2
#     Edge 12, Type (0, 0), BuildingBlock: CIFDUS_clean_linker_0, # of connection points: 2
#     Edge 13, Type (0, 0), BuildingBlock: CIFDUS_clean_linker_0, # of connection points: 2
#     Edge 14, Type (0, 0), BuildingBlock: CIFDUS_clean_linker_0, # of connection points: 2
#     Edge 15, Type (0, 0), BuildingBlock: CIFDUS_clean_linker_0, # of connection points: 2
#     Edge 16, Type (0, 0), BuildingBlock: CIFDUS_clean_linker_0, # of connection points: 2
#     Edge 17, Type (0, 0), BuildingBlock: CIFDUS_clean_linker_0, # of connection points: 2
#     Edge 18, Type (0, 0), BuildingBlock: CIFDUS_clean_linker_0, # of connection points: 2
#     Edge 19, Type (0, 0), BuildingBlock: CIFDUS_clean_linker_0, # of connection points: 2
#     Edge 20, Type (0, 0), BuildingBlock: CIFDUS_clean_linker_0, # of connection points: 2
#     Edge 21, Type (0, 0), BuildingBlock: CIFDUS_clean_linker_0, # of connection points: 2
#     Edge 22, Type (0, 0), BuildingBlock: CIFDUS_clean_linker_0, # of connection points: 2
#     Edge 23, Type (0, 0), BuildingBlock: CIFDUS_clean_linker_0, # of connection points: 2
# Relax obj value: 0.798
# Max RMSD: 0.254
# Mean RMSD: 0.254
data_MOF--net-rkf--node1-INOVEN_clean_sbu_0--edge1-CIFDUS_clean_linker_0
_symmetry_space_group_name_H-M    P1
_symmetry_Int_Tables_number       1
_symmetry_cell_setting            triclinic
loop_
_symmetry_equiv_pos_as_xyz
'x, y, z'
_cell_length_a     22.510019
_cell_length_b     22.652159
_cell_length_c     38.241764
_cell_angle_alpha  90.290293
_cell_angle_beta   90.031707
_cell_angle_gamma 120.0636
loop_
_atom_site_label
_atom_site_type_symbol
_atom_site_fract_x
_atom_site_fract_y
_atom_site_fract_z
_atom_type_partial_charge
Gd0 Gd 0.25219 0.95143 0.20964 0.0
Gd1 Gd 0.23877 0.07485 1.18566 0.0
C2 C 0.25703 0.05368 0.26909 0.0
C3 C 0.29573 0.86638 0.21761 0.0
C4 C 0.32444 0.84819 0.2473 0.0
C5 C 0.30077 0.77909 0.25378 0.0
C6 C 0.3613 0.89679 0.27338 0.0
C7 C 0.33007 0.80592 0.31505 0.0
C8 C 0.3649 0.87572 0.30708 0.0
C9 C 0.30398 0.75794 0.28759 0.0
C10 C 0.12791 0.93778 0.21803 0.0
C11 C 0.2079 0.96241 1.12656 0.0
C12 C 0.20012 0.16497 1.18325 0.0
C13 C 0.21397 0.23009 1.16867 0.0
C14 C 0.18221 0.26372 1.18371 0.0
C15 C 0.25735 0.2586 1.13994 0.0
C16 C 0.23577 0.35385 1.14073 0.0
C17 C 0.26805 0.31997 1.126 0.0
C18 C 0.19288 0.32515 1.16982 0.0
C19 C 0.36716 0.09239 1.18426 0.0
O20 O 0.28099 0.01216 0.26108 0.0
O21 O 0.2264 0.07102 0.24486 0.0
O22 O 0.2314 0.84985 0.22163 0.0
O23 O 0.33375 0.92747 0.20449 0.0
O24 O 0.15291 0.91227 0.2402 0.0
O25 O 0.1686 0.96502 1.19291 0.0
O26 O 0.20253 0.01618 1.13513 0.0
O27 O 0.23134 0.9344 1.14961 0.0
O28 O 0.24461 0.1671 0.20585 0.0
O29 O 0.17772 0.11314 1.1617 0.0
O30 O 0.34745 0.1228 1.16209 0.0
O31 O 0.32051 0.06088 0.20592 0.0
H32 H 0.27255 0.74092 0.23385 0.0
H33 H 0.38015 0.95039 0.26898 0.0
H34 H 0.38549 0.91382 0.32771 0.0
H35 H 0.27725 0.70382 0.29313 0.0
H36 H 0.14869 0.24216 0.20606 0.0
H37 H 0.28206 0.23298 1.12805 0.0
H38 H 0.30011 0.33983 1.10305 0.0
H39 H 0.16745 0.35001 1.18175 0.0
Gd40 Gd 0.4088 0.28877 0.53972 0.0
Gd41 Gd 0.30615 0.32501 0.51258 0.0
C42 C 0.33387 0.33087 0.59736 0.0
C43 C 0.52008 0.28391 0.54909 0.0
C44 C 0.5592 0.27978 0.57862 0.0
C45 C 0.58797 0.23757 0.57576 0.0
C46 C 0.55904 0.30873 0.61107 0.0
C47 C 0.60157 0.24086 0.63878 0.0
C48 C 0.58078 0.28986 0.64096 0.0
C49 C 0.60916 0.21819 0.60572 0.0
C50 C 0.27683 0.19414 0.55102 0.0
C51 C 0.34576 0.24349 0.45877 0.0
C52 C 0.21217 0.3571 0.50429 0.0
C53 C 0.21147 0.41446 0.48733 0.0
C54 C 0.24852 0.44178 0.45655 0.0
C55 C 0.17602 0.44409 0.50265 0.0
C56 C 0.2066 0.52196 0.45361 0.0
C57 C 0.17393 0.49784 0.48604 0.0
C58 C 0.24577 0.49458 0.43974 0.0
C59 C 0.43859 0.41967 0.49979 0.0
O60 O 0.39136 0.32964 0.59106 0.0
O61 O 0.29016 0.3203 0.57163 0.0
O62 O 0.45971 0.22977 0.54431 0.0
O63 O 0.51941 0.34106 0.54549 0.0
O64 O 0.32519 0.20534 0.57338 0.0
O65 O 0.3025 0.22958 0.52432 0.0
O66 O 0.29646 0.25636 0.46751 0.0
O67 O 0.39809 0.25999 0.48073 0.0
O68 O 0.25095 0.37354 0.53207 0.0
O69 O 0.21824 0.31395 0.48378 0.0
O70 O 0.38858 0.40488 0.47839 0.0
O71 O 0.41542 0.38705 0.52772 0.0
H72 H 0.58865 0.21506 0.5508 0.0
H73 H 0.5369 0.34137 0.6138 0.0
H74 H 0.57359 0.30753 0.66614 0.0
H75 H 0.62488 0.18026 0.60345 0.0
H76 H 0.2778 0.42082 0.44478 0.0
H77 H 0.1488 0.42469 0.52705 0.0
H78 H 0.14433 0.51839 0.4978 0.0
H79 H 0.27084 0.51041 0.41462 0.0
Gd80 Gd 0.18553 0.39646 0.86312 0.0
Gd81 Gd 0.04086 0.27962 0.83984 0.0
C82 C 0.07684 0.30195 0.92379 0.0
C83 C 0.28027 0.51369 0.88518 0.0
C84 C 0.28389 0.55223 0.91673 0.0
C85 C 0.22554 0.52813 0.9377 0.0
C86 C 0.34732 0.60306 0.92969 0.0
C87 C 0.2975 0.58895 0.98782 0.0
C88 C 0.35376 0.62274 0.96487 0.0
C89 C 0.23212 0.54589 0.97293 0.0
C90 C 0.17679 0.27701 0.84914 0.0
C91 C 0.15954 0.34563 0.78094 0.0
C92 C 0.92 0.17395 0.83496 0.0
C93 C 0.85604 0.14768 0.81512 0.0
C94 C 0.83168 0.19077 0.8041 0.0
C95 C 0.81802 0.07782 0.80778 0.0
C96 C 0.73347 0.09439 0.77652 0.0
C97 C 0.75731 0.05133 0.78858 0.0
C98 C 0.77061 0.16422 0.78504 0.0
C99 C 0.06328 0.40779 0.83504 0.0
O100 O 0.13468 0.36015 0.91724 0.0
O101 O 0.03916 0.26103 0.89801 0.0
O102 O 0.28001 0.45663 0.89161 0.0
O103 O 0.23434 0.50662 0.86176 0.0
O104 O 0.23509 0.33383 0.84742 0.0
O105 O 0.13192 0.28651 0.86296 0.0
O106 O 0.10012 0.29202 0.79012 0.0
O107 O 0.19622 0.39705 0.80317 0.0
O108 O 0.93519 0.22579 0.85571 0.0
O109 O -0.02678 0.17884 0.81829 0.0
O110 O 0.02639 0.36014 0.8127 0.0
O111 O 0.08281 0.38395 0.85898 0.0
H112 H 0.17579 0.48982 0.92786 0.0
H113 H 0.39278 0.62333 0.9135 0.0
H114 H 0.40427 0.65942 0.97455 0.0
H115 H 0.18648 0.51888 0.98868 0.0
H116 H 0.86027 0.24497 0.80977 0.0
H117 H 0.83609 0.04393 0.81628 0.0
H118 H 0.73094 -0.00237 0.78178 0.0
H119 H 0.75344 0.19854 0.77612 0.0
Gd120 Gd 0.88947 0.22915 0.20179 0.0
Gd121 Gd 0.82978 0.08438 1.17636 0.0
C122 C 0.83788 0.11202 0.26021 0.0
C123 C 0.92124 0.35405 0.21338 0.0
C124 C 0.95446 0.40653 0.24071 0.0
C125 C 0.01989 0.42424 0.25325 0.0
C126 C 0.9204 0.43886 0.25477 0.0
C127 C 0.01444 0.5016 0.29569 0.0
C128 C 0.95002 0.48589 0.28223 0.0
C129 C 0.04954 0.47128 0.28033 0.0
C130 C -0.02801 0.17466 0.20628 0.0
C131 C 0.91232 0.20425 1.11896 0.0
C132 C 0.80097 0.96275 1.15918 0.0
C133 C 0.83068 0.92174 1.14682 0.0
C134 C 0.81926 0.86536 1.16692 0.0
C135 C 0.86874 0.93633 1.1159 0.0
C136 C 0.87727 0.834 1.12368 0.0
C137 C 0.89194 0.89267 1.1044 0.0
C138 C 0.84242 0.82195 1.15554 0.0
C139 C 0.73545 0.1244 1.18737 0.0
O140 O 0.84181 0.17109 0.25255 0.0
O141 O 0.84456 0.07567 0.2349 0.0
O142 O -0.03919 0.33653 0.19662 0.0
O143 O 0.86074 0.30194 0.22078 0.0
O144 O -0.02927 0.21372 0.231 0.0
O145 O 0.93225 0.16942 1.18252 0.0
O146 O 0.8851 0.13808 1.12589 0.0
O147 O 0.91369 0.247 1.14337 0.0
O148 O 0.79299 0.003 1.13738 0.0
O149 O 0.82131 -0.01092 1.19037 0.0
O150 O 0.72565 0.06439 0.19378 0.0
O151 O 0.79326 0.15938 1.1736 0.0
H152 H 0.04751 0.40025 0.24296 0.0
H153 H 0.87009 0.4263 0.24516 0.0
H154 H 0.92175 0.50824 0.29365 0.0
H155 H 0.09838 0.48061 0.29058 0.0
H156 H 0.7907 0.85383 1.19115 0.0
H157 H 0.87901 -0.01984 1.10026 0.0
H158 H 0.9182 0.90294 1.07953 0.0
H159 H 0.83105 0.77766 1.17107 0.0
Gd160 Gd 0.76723 0.91048 0.53464 0.0
Gd161 Gd 0.89433 0.90694 0.51317 0.0
C162 C 0.86021 0.9038 0.59638 0.0
C163 C 0.64017 0.87914 0.53964 0.0
C164 C 0.58845 0.85738 0.56721 0.0
C165 C 0.54103 0.88026 0.56625 0.0
C166 C 0.59526 0.82705 0.59764 0.0
C167 C 0.52341 0.86154 0.62867 0.0
C168 C 0.5621 0.82836 0.6282 0.0
C169 C 0.50823 0.88201 0.59688 0.0
C170 C 0.88264 0.02987 0.54113 0.0
C171 C 0.82405 0.94446 0.45114 0.0
C172 C 0.01492 0.91957 0.51028 0.0
C173 C 0.04588 0.88173 0.49553 0.0
C174 C 0.00653 0.81115 0.48963 0.0
C175 C 0.11543 0.91684 0.48673 0.0
C176 C 0.10519 0.8121 0.46331 0.0
C177 C 0.14493 0.88239 0.47068 0.0
C178 C 0.03611 0.77648 0.47381 0.0
C179 C 0.77633 0.78518 0.51016 0.0
O180 O 0.79535 0.88434 0.58812 0.0
O181 O 0.90773 0.92803 0.5717 0.0
O182 O 0.69198 0.94117 0.54368 0.0
O183 O 0.65898 0.83547 0.52971 0.0
O184 O 0.83323 0.00978 0.56388 0.0
O185 O 0.86738 -0.01264 0.51666 0.0
O186 O 0.87874 0.94105 0.46059 0.0
O187 O 0.7743 0.93149 0.4743 0.0
O188 O -0.02812 0.88955 0.5358 0.0
O189 O -0.00639 0.94849 0.48793 0.0
O190 O 0.82597 0.80266 0.48804 0.0
O191 O 0.79414 0.83033 0.53321 0.0
H192 H 0.53504 0.90354 0.54283 0.0
H193 H 0.63163 0.809 0.5988 0.0
H194 H 0.57497 0.81241 0.65233 0.0
H195 H 0.47857 0.90771 0.59663 0.0
H196 H 0.95263 0.78321 0.4965 0.0
H197 H 0.14639 0.97133 0.49126 0.0
H198 H 0.19784 0.91173 0.46228 0.0
H199 H 0.00435 0.72234 0.46862 0.0
Gd200 Gd 0.92637 0.76154 0.86956 0.0
Gd201 Gd 0.07323 0.87055 0.85105 0.0
C202 C 0.03794 0.83037 0.93406 0.0
C203 C 0.82234 0.64692 0.88727 0.0
C204 C 0.8127 0.60276 0.91726 0.0
C205 C 0.86786 0.59636 0.92987 0.0
C206 C 0.7544 0.58107 0.93807 0.0
C207 C 0.81584 0.56944 0.98744 0.0
C208 C 0.75577 0.56426 0.97297 0.0
C209 C 0.86885 0.5786 0.96469 0.0
C210 C 0.95341 0.89101 0.8699 0.0
C211 C 0.95469 0.83001 0.79207 0.0
C212 C 0.19955 0.96616 0.84775 0.0
C213 C 0.25931 -0.01646 0.82579 0.0
C214 C 0.27049 0.93238 0.81188 0.0
C215 C 0.30701 0.05208 0.81962 0.0
C216 C 0.37545 0.01848 0.78444 0.0
C217 C 0.36449 0.06949 0.79902 0.0
C218 C 0.32832 0.94975 0.79155 0.0
C219 C 0.03531 0.74234 0.8306 0.0
O220 O -0.02598 0.78373 0.9249 0.0
O221 O 0.08255 0.87051 0.91035 0.0
O222 O 0.82868 0.70604 0.89575 0.0
O223 O 0.86676 0.65175 0.8636 0.0
O224 O 0.89507 0.84133 0.85833 0.0
O225 O -0.0099 0.86819 0.88063 0.0
O226 O 0.01464 0.87991 0.80424 0.0
O227 O 0.91714 0.77397 0.81087 0.0
O228 O 0.17823 0.91094 0.86638 0.0
O229 O 0.14947 0.97208 0.83376 0.0
O230 O 0.07444 0.79574 0.81235 0.0
O231 O 0.02156 0.75993 0.85924 0.0
H232 H 0.91332 0.61206 0.91413 0.0
H233 H 0.71112 0.58505 0.92866 0.0
H234 H 0.71343 0.55674 0.98942 0.0
H235 H 0.91494 0.58088 0.97478 0.0
H236 H 0.2343 0.87896 0.81652 0.0
H237 H 0.29924 0.09211 0.83031 0.0
H238 H 0.39874 0.12288 0.79336 0.0
H239 H 0.33538 0.90937 0.7808 0.0
H240 H 0.00613 0.11967 0.26242 0.0
H241 H -0.00419 0.12304 1.14958 0.0
H242 H 0.02023 0.03128 1.14489 0.0
H243 H 0.0558 0.95864 1.17107 0.0
H244 H 0.08889 0.96454 0.28214 0.0
H245 H 0.04063 0.0403 0.28975 0.0
C246 C 0.0108 0.101 0.237 0.0
C247 C -0.00032 0.12834 0.20643 0.0
C248 C 0.02707 0.04853 0.23419 0.0
C249 C 0.00428 0.10289 1.17353 0.0
C250 C 0.01745 0.04981 1.17071 0.0
C251 C 0.05077 -0.02482 0.19709 0.0
C252 C 0.0766 0.9576 0.22584 0.0
C253 C 0.02972 0.02297 0.20069 0.0
C254 C 0.06906 -0.02216 0.25956 0.0
C255 C 0.04309 0.02239 0.26376 0.0
H256 H -0.03291 0.06133 0.59766 0.0
H257 H 0.95421 0.1208 0.4923 0.0
H258 H 0.07845 0.17952 0.48711 0.0
H259 H 0.18477 0.19241 0.5075 0.0
H260 H 0.20582 0.13631 0.61237 0.0
H261 H 0.0829 0.09416 0.6226 0.0
C262 C -0.00779 0.08922 0.57418 0.0
C263 C 0.95253 0.08637 0.54514 0.0
C264 C 0.06379 0.11971 0.57073 0.0
C265 C -0.01554 0.12279 0.51482 0.0
C266 C 0.05514 0.1551 0.51164 0.0
C267 C 0.16315 0.17192 0.53288 0.0
C268 C 0.20373 0.16628 0.55894 0.0
C269 C 0.09439 0.1501 0.53857 0.0
C270 C 0.17477 0.13945 0.59162 0.0
C271 C 0.10488 0.11605 0.59748 0.0
H272 H 0.06683 -0.01074 0.8985 0.0
H273 H 0.91571 0.95104 0.81874 0.0
H274 H -0.01318 0.0684 0.79761 0.0
H275 H 0.08856 0.18186 0.80487 0.0
H276 H 0.23559 0.21891 0.8863 0.0
H277 H 0.17292 0.09791 0.90156 0.0
C278 C 0.04913 0.00676 0.87658 0.0
C279 C -0.01404 0.96269 0.8604 0.0
C280 C 0.09102 0.0722 0.86405 0.0
C281 C -0.03656 -0.01482 0.83202 0.0
C282 C 0.00467 0.05145 0.81961 0.0
C283 C 0.10762 0.163 0.82535 0.0
C284 C 0.16543 0.20854 0.84494 0.0
C285 C 0.06836 0.0952 0.83559 0.0
C286 C 0.19144 0.18402 0.87072 0.0
C287 C 0.1545 0.11557 0.88009 0.0
H288 H 0.35229 0.46025 1.115 0.0
H289 H 0.13618 0.38725 1.12867 0.0
H290 H 0.14396 0.47576 1.08973 0.0
H291 H 0.20594 0.55591 1.0427 0.0
H292 H 0.41559 0.6086 1.02112 0.0
H293 H 0.41802 0.55179 1.07361 0.0
C294 C 0.30707 0.46429 1.10979 0.0
C295 C 0.24351 0.41617 1.12394 0.0
C296 C 0.31095 0.51262 1.08586 0.0
C297 C 0.1858 0.42341 1.11798 0.0
C298 C 0.19011 0.47382 1.09549 0.0
C299 C 0.25234 0.55504 1.0492 0.0
C300 C 0.30858 0.58294 1.02601 0.0
C301 C 0.25151 0.51595 1.07772 0.0
C302 C 0.3701 0.58643 1.03718 0.0
C303 C 0.37148 0.5526 1.06724 0.0
H304 H 0.08409 0.51861 0.44875 0.0
H305 H 0.28899 0.6197 0.40607 0.0
H306 H 0.24513 0.63586 0.3511 0.0
H307 H 0.14589 0.59656 0.31208 0.0
H308 H 0.94154 0.48917 0.35494 0.0
H309 H -0.01129 0.50821 0.41385 0.0
C310 C 0.12017 0.54792 0.42836 0.0
C311 C 0.18905 0.56377 0.43065 0.0
C312 C 0.09454 0.55725 0.39679 0.0
C313 C 0.2349 0.60342 0.40418 0.0
C314 C 0.20989 0.61284 0.37268 0.0
C315 C 0.11179 0.57913 0.33445 0.0
C316 C 0.04059 0.53899 0.32916 0.0
C317 C 0.13919 0.58578 0.36803 0.0
C318 C -0.00331 0.51933 0.35823 0.0
C319 C 0.02368 0.52929 0.39199 0.0
H320 H 0.6131 -0.02719 0.77748 0.0
H321 H 0.72836 0.15597 0.71678 0.0
H322 H 0.6559 0.10057 0.66641 0.0
H323 H 0.5776 -0.00448 0.63677 0.0
H324 H 0.4759 0.80671 0.69376 0.0
H325 H 0.52144 0.86938 0.74886 0.0
C326 C 0.62082 0.00105 0.75348 0.0
C327 C 0.67679 0.06792 0.7507 0.0
C328 C 0.58052 0.96786 0.724 0.0
C329 C 0.68573 0.10452 0.71974 0.0
C330 C 0.64462 0.07262 0.69072 0.0
C331 C 0.56287 0.96824 0.66138 0.0
C332 C 0.5238 0.89669 0.66134 0.0
C333 C 0.59408 0.00361 0.69216 0.0
C334 C 0.50579 0.8619 0.69333 0.0
C335 C 0.5327 0.89766 0.72467 0.0
H336 H 0.78947 0.6974 1.12192 0.0
H337 H -0.00778 0.85185 1.09047 0.0
H338 H -0.00089 0.77018 1.05083 0.0
H339 H 0.93553 0.66872 1.01516 0.0
H340 H 0.72996 0.51562 1.04429 0.0
H341 H 0.73742 0.58255 1.0961 0.0
C342 C 0.83625 0.71263 1.10738 0.0
C343 C 0.88959 0.78114 1.1081 0.0
C344 C 0.83892 0.66616 1.084 0.0
C345 C 0.94988 0.79996 1.08927 0.0
C346 C 0.95379 0.75341 1.06676 0.0
C347 C 0.89331 0.64781 1.03356 0.0
C348 C 0.83104 0.58845 1.025 0.0
C349 C 0.89678 0.68799 1.06226 0.0
C350 C 0.77766 0.56231 1.04968 0.0
C351 C 0.78167 0.60091 1.07913 0.0
H352 H 0.23345 0.82703 0.46374 0.0
H353 H 0.03904 0.72568 0.40906 0.0
H354 H 0.09208 0.70136 0.36019 0.0
H355 H 0.19635 0.73327 0.32805 0.0
H356 H 0.39324 0.84017 0.37956 0.0
H357 H 0.33668 0.83852 0.43471 0.0
C358 C 0.20254 0.79824 0.44142 0.0
C359 C 0.13285 0.7798 0.43968 0.0
C360 C 0.23401 0.78668 0.41263 0.0
C361 C 0.0928 0.7408 0.41114 0.0
C362 C 0.12329 0.72761 0.38289 0.0
C363 C 0.22686 0.75349 0.35169 0.0
C364 C 0.29872 0.78617 0.34997 0.0
C365 C 0.19432 0.75387 0.38261 0.0
C366 C 0.33771 0.81396 0.38054 0.0
C367 C 0.30539 0.81347 0.41187 0.0
H368 H 0.50653 0.12619 0.78603 0.0
H369 H 0.36658 0.95279 0.72302 0.0
H370 H 0.43987 0.00175 0.67244 0.0
H371 H 0.52393 0.10538 0.64351 0.0
H372 H 0.65723 0.28475 0.70423 0.0
H373 H 0.60716 0.22184 0.75833 0.0
C374 C 0.49294 0.09858 0.76137 0.0
C375 C 0.43003 0.03721 0.75802 0.0
C376 C 0.5335 0.12874 0.73181 0.0
C377 C 0.41424 0.00051 0.72635 0.0
C378 C 0.45571 0.02891 0.69719 0.0
C379 C 0.5441 0.13002 0.66859 0.0
C380 C 0.5935 0.19969 0.67005 0.0
C381 C 0.51259 0.09486 0.69917 0.0
C382 C 0.61896 0.23109 0.70267 0.0
C383 C 0.58983 0.19534 0.73348 0.0
H384 H 0.48318 0.15746 1.14215 0.0
H385 H 0.40893 0.05259 0.24025 0.0
H386 H 0.51636 0.05585 0.25042 0.0
H387 H 0.62912 0.08147 0.23045 0.0
H388 H 0.71175 0.19358 1.13531 0.0
H389 H 0.60502 0.19608 1.1253 0.0
C390 C 0.49101 0.13589 1.16575 0.0
C391 C 0.4369 0.10255 1.18977 0.0
C392 C 0.55477 0.13954 1.17212 0.0
C393 C 0.44847 0.07624 0.22065 0.0
C394 C 0.51034 0.07856 0.22676 0.0
C395 C 0.62402 0.10733 0.2078 0.0
C396 C 0.67748 0.13684 1.1836 0.0
C397 C 0.5633 0.10888 0.20246 0.0
C398 C 0.67096 0.17073 1.15442 0.0
C399 C 0.60979 0.17167 1.14858 0.0
H400 H 0.5151 0.50703 0.55143 0.0
H401 H 0.51105 0.47291 0.44033 0.0
H402 H 0.6185 0.58148 0.43355 0.0
H403 H 0.71085 0.68933 0.45917 0.0
H404 H 0.70608 0.72749 0.56945 0.0
H405 H 0.60518 0.61487 0.57668 0.0
C406 C 0.53836 0.52312 0.52585 0.0
C407 C 0.50599 0.48212 0.49645 0.0
C408 C 0.5983 0.58676 0.52201 0.0
C409 C 0.53558 0.50386 0.46331 0.0
C410 C 0.59678 0.56591 0.45943 0.0
C411 C 0.68777 0.67255 0.48473 0.0
C412 C 0.71595 0.71629 0.51372 0.0
C413 C 0.62819 0.6083 0.48855 0.0
C414 C 0.68523 0.69462 0.5467 0.0
C415 C 0.62758 0.63017 0.5509 0.0
H416 H 0.04531 0.48052 0.7844 0.0
H417 H 0.0718 0.47323 0.89572 0.0
H418 H 0.05901 0.57294 0.90435 0.0
H419 H 0.04167 0.66276 0.88035 0.0
H420 H 0.02713 0.67906 0.76882 0.0
H421 H 0.03272 0.57453 0.75994 0.0
C422 C 0.04845 0.50119 0.81043 0.0
C423 C 0.0595 0.47011 0.83936 0.0
C424 C 0.04248 0.55945 0.81512 0.0
C425 C 0.064 0.49703 0.87304 0.0
C426 C 0.0562 0.55364 0.87804 0.0
C427 C 0.03896 0.64286 0.85415 0.0
C428 C 0.03314 0.67733 0.82524 0.0
C429 C 0.04535 0.58512 0.84929 0.0
C430 C 0.03115 0.65245 0.79136 0.0
C431 C 0.03464 0.59313 0.78632 0.0
H432 H 0.35278 0.07926 0.32251 0.0
H433 H 0.17665 0.09897 0.29717 0.0
H434 H 0.18761 0.15689 0.3523 0.0
H435 H 0.2485 0.20674 0.40727 0.0
H436 H 0.42787 0.1938 0.43359 0.0
H437 H 0.41472 0.13013 0.37923 0.0
C438 C 0.31624 0.09539 0.32929 0.0
C439 C 0.26316 0.08332 0.3053 0.0
C440 C 0.32398 0.13127 0.36135 0.0
C441 C 0.21751 0.10625 0.31472 0.0
C442 C 0.22397 0.1401 0.34642 0.0
C443 C 0.28501 0.19023 0.4013 0.0
C444 C 0.33936 0.20586 0.42492 0.0
C445 C 0.27734 0.15374 0.36982 0.0
C446 C 0.38564 0.18332 0.41614 0.0
C447 C 0.37801 0.14649 0.38495 0.0
H448 H 0.20689 0.30014 0.62123 0.0
H449 H 0.41549 0.38139 0.65667 0.0
H450 H 0.38227 0.39803 0.71551 0.0
H451 H 0.29229 0.38794 0.75785 0.0
H452 H 0.08326 0.2995 0.72165 0.0
H453 H 0.11829 0.28816 0.66277 0.0
C454 C 0.24551 0.32182 0.64168 0.0
C455 C 0.31411 0.33986 0.63398 0.0
C456 C 0.22575 0.33042 0.67568 0.0
C457 C 0.36248 0.3669 0.66142 0.0
C458 C 0.34339 0.37666 0.69521 0.0
C459 C 0.25465 0.36716 0.73694 0.0
C460 C 0.18498 0.3456 0.74443 0.0
C461 C 0.27505 0.35871 0.7028 0.0
C462 C 0.13703 0.31707 0.71693 0.0
C463 C 0.15707 0.31032 0.6831 0.0
H464 H 0.07864 0.37434 0.98375 0.0
H465 H 0.01656 0.1716 0.94636 0.0
H466 H -0.03866 0.12357 1.00204 0.0
H467 H 0.92489 0.13689 1.06112 0.0
H468 H -0.01662 0.3387 1.09872 0.0
H469 H 0.04429 0.38794 1.04422 0.0
C470 C 0.05403 0.31982 0.988 0.0
C471 C 0.05246 0.277 0.96046 0.0
C472 C 0.02022 0.29161 1.02037 0.0
C473 C 0.01897 0.2062 0.96671 0.0
C474 C -0.01312 0.17837 0.99871 0.0
C475 C 0.95062 0.19164 1.05747 0.0
C476 C 0.94811 0.23332 1.08445 0.0
C477 C -0.01404 0.22021 1.02564 0.0
C478 C -0.01699 0.30448 1.07874 0.0
C479 C 0.01848 0.33308 1.04738 0.0
H480 H 0.85888 0.01119 0.28759 0.0
H481 H 0.79695 0.15561 0.31843 0.0
H482 H 0.7817 0.11437 0.37881 0.0
H483 H 0.78842 0.03789 0.42432 0.0
H484 H 0.85788 0.89965 0.39282 0.0
H485 H 0.86677 0.93689 0.33228 0.0
C486 C 0.84169 0.03368 0.30737 0.0
C487 C 0.82885 0.08674 0.29775 0.0
C488 C 0.83391 0.0102 0.3425 0.0
C489 C 0.80743 0.11504 0.32446 0.0
C490 C 0.79848 0.09116 0.35925 0.0
C491 C 0.80437 0.01509 0.40413 0.0
C492 C 0.82129 0.96465 0.41359 0.0
C493 C 0.81159 0.03865 0.36881 0.0
C494 C 0.84379 0.93771 0.38675 0.0
C495 C 0.84919 0.95932 0.35189 0.0
H496 H 0.7871 0.82085 0.65347 0.0
H497 H -0.0105 -0.0227 0.6226 0.0
H498 H 0.03555 0.97211 0.67915 0.0
H499 H 0.02147 0.92036 0.73766 0.0
H500 H 0.82208 0.75672 0.76758 0.0
H501 H 0.77342 0.76711 0.71236 0.0
C502 C 0.84107 0.85449 0.65925 0.0
C503 C 0.88391 0.90085 0.63331 0.0
C504 C 0.86871 0.84927 0.69211 0.0
C505 C 0.95423 0.94229 0.64167 0.0
C506 C -0.01885 0.93892 0.67424 0.0
C507 C -0.0327 0.88689 0.73224 0.0
C508 C 0.92612 0.83757 0.75737 0.0
C509 C 0.93933 0.89222 0.69971 0.0
C510 C 0.85589 0.79492 0.74915 0.0
C511 C 0.82765 0.80099 0.71733 0.0
H512 H 0.12866 0.81333 0.97629 0.0
H513 H -0.00647 0.89652 0.97609 0.0
H514 H 0.03631 0.94754 1.03384 0.0
H515 H 0.11398 0.97129 1.0843 0.0
H516 H 0.24146 0.87941 1.0881 0.0
H517 H 0.19992 0.82905 1.02989 0.0
C518 C 0.10765 0.84149 0.98924 0.0
C519 C 0.05684 0.85004 0.97182 0.0
C520 C 0.13193 0.87 1.02317 0.0
C521 C 0.03131 0.88777 0.98895 0.0
C522 C 0.05651 0.91775 1.02192 0.0
C523 C 0.13317 0.94053 1.07244 0.0
C524 C 0.182 0.93035 1.09085 0.0
C525 C 0.10727 0.90984 1.03924 0.0
C526 C 0.20442 0.88877 1.0749 0.0
C527 C 0.18051 0.85983 1.04143 0.0
loop_
_geom_bond_atom_site_label_1
_geom_bond_atom_site_label_2
_geom_bond_distance
_geom_bond_site_symmetry_2
_ccdc_geom_bond_type
Gd0 C3 2.818 . S
Gd0 O20 2.377 . S
Gd0 O22 2.448 . S
Gd0 O23 2.506 . S
Gd0 O24 2.435 . S
Gd0 O25 2.721 . S
Gd0 O27 2.395 1_554 S
Gd0 O31 2.327 . S
Gd1 C12 2.818 . S
Gd1 O21 2.395 1_556 S
Gd1 O25 2.325 1_556 S
Gd1 O26 2.377 . S
Gd1 O28 2.448 . S
Gd1 O29 2.506 . S
Gd1 O30 2.435 . S
Gd1 O31 2.717 1_556 S
C2 O20 1.240 . S
C2 O21 1.240 . S
C3 Gd0 2.818 . S
C3 C4 1.510 . S
C3 O22 1.249 . S
C3 O23 1.252 . S
C4 C3 1.510 . S
C4 C5 1.404 . S
C4 C6 1.352 . S
C5 C4 1.404 . S
C5 C9 1.389 . S
C5 H32 0.930 . S
C6 C4 1.352 . S
C6 C8 1.374 . S
C6 H33 0.931 . S
C7 C8 1.359 . S
C7 C9 1.364 . S
C8 C6 1.374 . S
C8 C7 1.359 . S
C8 H34 0.931 . S
C9 C5 1.389 . S
C9 C7 1.364 . S
C9 H35 0.931 1_545 S
C10 O24 1.256 . S
C10 O25 1.260 . S
C11 O26 1.240 . S
C11 O27 1.240 . S
C12 Gd1 2.818 . S
C12 C13 1.510 . S
C12 O28 1.249 . S
C12 O29 1.252 . S
C13 C12 1.510 . S
C13 C14 1.404 . S
C13 C15 1.352 . S
C14 C13 1.404 . S
C14 C18 1.389 . S
C14 H36 0.930 . S
C15 C13 1.352 . S
C15 C17 1.374 . S
C15 H37 0.931 . S
C16 C17 1.359 . S
C16 C18 1.364 . S
C17 C15 1.374 . S
C17 C16 1.359 . S
C17 H38 0.931 . S
C18 C14 1.389 . S
C18 C16 1.364 . S
C18 H39 0.931 . S
C19 O30 1.256 1_554 S
C19 O31 1.257 . S
O20 Gd0 2.377 . S
O20 C2 1.240 . S
O21 Gd1 2.395 1_554 S
O21 C2 1.240 . S
O22 Gd0 2.448 . S
O22 C3 1.249 . S
O23 Gd0 2.506 . S
O23 C3 1.252 . S
O24 Gd0 2.435 . S
O24 C10 1.256 . S
O25 Gd0 2.721 . S
O25 Gd1 2.325 1_554 S
O25 C10 1.260 . S
O26 Gd1 2.377 . S
O26 C11 1.240 . S
O27 Gd0 2.395 1_556 S
O27 C11 1.240 . S
O28 Gd1 2.448 . S
O28 C12 1.249 . S
O29 Gd1 2.506 . S
O29 C12 1.252 . S
O30 Gd1 2.435 . S
O30 C19 1.256 1_556 S
O31 Gd0 2.327 . S
O31 Gd1 2.717 1_554 S
O31 C19 1.257 . S
H32 C5 0.930 . S
H33 C6 0.931 . S
H34 C8 0.931 . S
H35 C9 0.931 1_565 S
H36 C14 0.930 . S
H37 C15 0.931 . S
H38 C17 0.931 . S
H39 C18 0.931 . S
Gd40 C43 2.818 . S
Gd40 O60 2.377 . S
Gd40 O62 2.448 . S
Gd40 O63 2.506 . S
Gd40 O64 2.435 . S
Gd40 O65 2.717 . S
Gd40 O67 2.395 . S
Gd40 O71 2.327 . S
Gd41 C52 2.818 . S
Gd41 O61 2.395 . S
Gd41 O65 2.327 . S
Gd41 O66 2.377 . S
Gd41 O68 2.448 . S
Gd41 O69 2.506 . S
Gd41 O70 2.435 . S
Gd41 O71 2.717 . S
C42 O60 1.240 . S
C42 O61 1.240 . S
C43 Gd40 2.818 . S
C43 C44 1.510 . S
C43 O62 1.249 . S
C43 O63 1.252 . S
C44 C43 1.510 . S
C44 C45 1.404 . S
C44 C46 1.352 . S
C45 C44 1.404 . S
C45 C49 1.389 . S
C45 H72 0.930 . S
C46 C44 1.352 . S
C46 C48 1.374 . S
C46 H73 0.931 . S
C47 C48 1.359 . S
C47 C49 1.364 . S
C48 C46 1.374 . S
C48 C47 1.359 . S
C48 H74 0.931 . S
C49 C45 1.389 . S
C49 C47 1.364 . S
C49 H75 0.931 . S
C50 O64 1.256 . S
C50 O65 1.257 . S
C51 O66 1.240 . S
C51 O67 1.240 . S
C52 Gd41 2.818 . S
C52 C53 1.510 . S
C52 O68 1.249 . S
C52 O69 1.252 . S
C53 C52 1.510 . S
C53 C54 1.404 . S
C53 C55 1.352 . S
C54 C53 1.404 . S
C54 C58 1.389 . S
C54 H76 0.930 . S
C55 C53 1.352 . S
C55 C57 1.374 . S
C55 H77 0.931 . S
C56 C57 1.359 . S
C56 C58 1.364 . S
C57 C55 1.374 . S
C57 C56 1.359 . S
C57 H78 0.931 . S
C58 C54 1.389 . S
C58 C56 1.364 . S
C58 H79 0.931 . S
C59 O70 1.256 . S
C59 O71 1.257 . S
O60 Gd40 2.377 . S
O60 C42 1.240 . S
O61 Gd41 2.395 . S
O61 C42 1.240 . S
O62 Gd40 2.448 . S
O62 C43 1.249 . S
O63 Gd40 2.506 . S
O63 C43 1.252 . S
O64 Gd40 2.435 . S
O64 C50 1.256 . S
O65 Gd40 2.717 . S
O65 Gd41 2.327 . S
O65 C50 1.257 . S
O66 Gd41 2.377 . S
O66 C51 1.240 . S
O67 Gd40 2.395 . S
O67 C51 1.240 . S
O68 Gd41 2.448 . S
O68 C52 1.249 . S
O69 Gd41 2.506 . S
O69 C52 1.252 . S
O70 Gd41 2.435 . S
O70 C59 1.256 . S
O71 Gd40 2.327 . S
O71 Gd41 2.717 . S
O71 C59 1.257 . S
H72 C45 0.930 . S
H73 C46 0.931 . S
H74 C48 0.931 . S
H75 C49 0.931 . S
H76 C54 0.930 . S
H77 C55 0.931 . S
H78 C57 0.931 . S
H79 C58 0.931 . S
Gd80 C83 2.818 . S
Gd80 O100 2.377 1_455 S
Gd80 O102 2.448 . S
Gd80 O103 2.506 . S
Gd80 O104 2.435 . S
Gd80 O105 2.717 1_455 S
Gd80 O107 2.395 . S
Gd80 O111 2.327 . S
Gd81 C92 2.818 . S
Gd81 O101 2.395 . S
Gd81 O105 2.327 . S
Gd81 O106 2.377 1_655 S
Gd81 O108 2.448 . S
Gd81 O109 2.506 . S
Gd81 O110 2.435 . S
Gd81 O111 2.717 1_655 S
C82 O100 1.240 . S
C82 O101 1.240 . S
C83 Gd80 2.818 . S
C83 C84 1.510 . S
C83 O102 1.249 . S
C83 O103 1.252 . S
C84 C83 1.510 . S
C84 C85 1.404 . S
C84 C86 1.352 . S
C85 C84 1.404 . S
C85 C89 1.389 . S
C85 H112 0.930 . S
C86 C84 1.352 . S
C86 C88 1.374 . S
C86 H113 0.931 . S
C87 C88 1.359 . S
C87 C89 1.364 . S
C88 C86 1.374 . S
C88 C87 1.359 . S
C88 H114 0.931 . S
C89 C85 1.389 . S
C89 C87 1.364 . S
C89 H115 0.931 . S
C90 O104 1.256 . S
C90 O105 1.257 1_455 S
C91 O106 1.240 . S
C91 O107 1.240 . S
C92 Gd81 2.818 . S
C92 C93 1.510 . S
C92 O108 1.249 . S
C92 O109 1.252 . S
C93 C92 1.510 . S
C93 C94 1.404 . S
C93 C95 1.352 . S
C94 C93 1.404 . S
C94 C98 1.389 . S
C94 H116 0.930 . S
C95 C93 1.352 . S
C95 C97 1.374 . S
C95 H117 0.931 . S
C96 C97 1.359 . S
C96 C98 1.364 . S
C97 C95 1.374 . S
C97 C96 1.359 . S
C97 H118 0.931 . S
C98 C94 1.389 . S
C98 C96 1.364 . S
C98 H119 0.931 . S
C99 O110 1.256 . S
C99 O111 1.257 1_655 S
O100 Gd80 2.377 1_655 S
O100 C82 1.240 . S
O101 Gd81 2.395 . S
O101 C82 1.240 . S
O102 Gd80 2.448 . S
O102 C83 1.249 . S
O103 Gd80 2.506 . S
O103 C83 1.252 . S
O104 Gd80 2.435 . S
O104 C90 1.256 . S
O105 Gd80 2.717 1_655 S
O105 Gd81 2.327 . S
O105 C90 1.257 1_655 S
O106 Gd81 2.377 1_455 S
O106 C91 1.240 . S
O107 Gd80 2.395 . S
O107 C91 1.240 . S
O108 Gd81 2.448 . S
O108 C92 1.249 . S
O109 Gd81 2.506 . S
O109 C92 1.252 . S
O110 Gd81 2.435 . S
O110 C99 1.256 . S
O111 Gd80 2.327 . S
O111 Gd81 2.717 1_455 S
O111 C99 1.257 1_455 S
H112 C85 0.930 . S
H113 C86 0.931 . S
H114 C88 0.931 . S
H115 C89 0.931 . S
H116 C94 0.930 . S
H117 C95 0.931 . S
H118 C97 0.931 . S
H119 C98 0.931 . S
Gd120 C123 2.818 . S
Gd120 O140 2.377 . S
Gd120 O142 2.448 . S
Gd120 O143 2.506 . S
Gd120 O144 2.435 . S
Gd120 O145 2.721 . S
Gd120 O147 2.395 1_554 S
Gd120 O151 2.327 . S
Gd121 C132 2.818 . S
Gd121 O141 2.395 1_556 S
Gd121 O145 2.325 1_566 S
Gd121 O146 2.377 1_565 S
Gd121 O148 2.448 . S
Gd121 O149 2.506 . S
Gd121 O150 2.435 . S
Gd121 O151 2.717 1_566 S
C122 O140 1.240 1_565 S
C122 O141 1.240 . S
C123 Gd120 2.818 . S
C123 C124 1.510 . S
C123 O142 1.249 . S
C123 O143 1.252 . S
C124 C123 1.510 . S
C124 C125 1.404 . S
C124 C126 1.352 . S
C125 C124 1.404 . S
C125 C129 1.389 . S
C125 H152 0.930 . S
C126 C124 1.352 . S
C126 C128 1.374 . S
C126 H153 0.931 . S
C127 C128 1.359 . S
C127 C129 1.364 . S
C128 C126 1.374 . S
C128 C127 1.359 . S
C128 H154 0.931 . S
C129 C125 1.389 . S
C129 C127 1.364 . S
C129 H155 0.931 . S
C130 O144 1.256 . S
C130 O145 1.260 . S
C131 O146 1.240 . S
C131 O147 1.240 . S
C132 Gd121 2.818 . S
C132 C133 1.510 . S
C132 O148 1.249 . S
C132 O149 1.252 . S
C133 C132 1.510 . S
C133 C134 1.404 . S
C133 C135 1.352 . S
C134 C133 1.404 . S
C134 C138 1.389 . S
C134 H156 0.930 . S
C135 C133 1.352 . S
C135 C137 1.374 . S
C135 H157 0.931 . S
C136 C137 1.359 . S
C136 C138 1.364 . S
C137 C135 1.374 . S
C137 C136 1.359 . S
C137 H158 0.931 . S
C138 C134 1.389 . S
C138 C136 1.364 . S
C138 H159 0.931 . S
C139 O150 1.256 1_554 S
C139 O151 1.257 1_565 S
O140 Gd120 2.377 . S
O140 C122 1.240 1_545 S
O141 Gd121 2.395 1_554 S
O141 C122 1.240 . S
O142 Gd120 2.448 . S
O142 C123 1.249 . S
O143 Gd120 2.506 . S
O143 C123 1.252 . S
O144 Gd120 2.435 . S
O144 C130 1.256 . S
O145 Gd120 2.721 . S
O145 Gd121 2.325 1_544 S
O145 C130 1.260 . S
O146 Gd121 2.377 1_545 S
O146 C131 1.240 . S
O147 Gd120 2.395 1_556 S
O147 C131 1.240 . S
O148 Gd121 2.448 . S
O148 C132 1.249 . S
O149 Gd121 2.506 . S
O149 C132 1.252 . S
O150 Gd121 2.435 . S
O150 C139 1.256 1_556 S
O151 Gd120 2.327 . S
O151 Gd121 2.717 1_544 S
O151 C139 1.257 1_545 S
H152 C125 0.930 . S
H153 C126 0.931 . S
H154 C128 0.931 . S
H155 C129 0.931 . S
H156 C134 0.930 . S
H157 C135 0.931 . S
H158 C137 0.931 . S
H159 C138 0.931 . S
Gd160 C163 2.818 . S
Gd160 O180 2.377 . S
Gd160 O182 2.448 . S
Gd160 O183 2.506 . S
Gd160 O184 2.435 1_655 S
Gd160 O185 2.717 1_655 S
Gd160 O187 2.395 . S
Gd160 O191 2.327 . S
Gd161 C172 2.818 1_655 S
Gd161 O181 2.395 . S
Gd161 O185 2.327 1_655 S
Gd161 O186 2.377 . S
Gd161 O188 2.448 . S
Gd161 O189 2.506 1_655 S
Gd161 O190 2.435 . S
Gd161 O191 2.717 . S
C162 O180 1.240 . S
C162 O181 1.240 . S
C163 Gd160 2.818 . S
C163 C164 1.510 . S
C163 O182 1.249 . S
C163 O183 1.252 . S
C164 C163 1.510 . S
C164 C165 1.404 . S
C164 C166 1.352 . S
C165 C164 1.404 . S
C165 C169 1.389 . S
C165 H192 0.930 . S
C166 C164 1.352 . S
C166 C168 1.374 . S
C166 H193 0.931 . S
C167 C168 1.359 . S
C167 C169 1.364 . S
C168 C166 1.374 . S
C168 C167 1.359 . S
C168 H194 0.931 . S
C169 C165 1.389 . S
C169 C167 1.364 . S
C169 H195 0.931 . S
C170 O184 1.256 . S
C170 O185 1.257 . S
C171 O186 1.240 . S
C171 O187 1.240 . S
C172 Gd161 2.818 1_455 S
C172 C173 1.510 . S
C172 O188 1.249 1_455 S
C172 O189 1.252 . S
C173 C172 1.510 . S
C173 C174 1.404 . S
C173 C175 1.352 . S
C174 C173 1.404 . S
C174 C178 1.389 . S
C174 H196 0.930 1_455 S
C175 C173 1.352 . S
C175 C177 1.374 . S
C175 H197 0.931 . S
C176 C177 1.359 . S
C176 C178 1.364 . S
C177 C175 1.374 . S
C177 C176 1.359 . S
C177 H198 0.931 . S
C178 C174 1.389 . S
C178 C176 1.364 . S
C178 H199 0.931 . S
C179 O190 1.256 . S
C179 O191 1.257 . S
O180 Gd160 2.377 . S
O180 C162 1.240 . S
O181 Gd161 2.395 . S
O181 C162 1.240 . S
O182 Gd160 2.448 . S
O182 C163 1.249 . S
O183 Gd160 2.506 . S
O183 C163 1.252 . S
O184 Gd160 2.435 1_455 S
O184 C170 1.256 . S
O185 Gd160 2.717 1_455 S
O185 Gd161 2.327 1_455 S
O185 C170 1.257 . S
O186 Gd161 2.377 . S
O186 C171 1.240 . S
O187 Gd160 2.395 . S
O187 C171 1.240 . S
O188 Gd161 2.448 . S
O188 C172 1.249 1_655 S
O189 Gd161 2.506 1_455 S
O189 C172 1.252 . S
O190 Gd161 2.435 . S
O190 C179 1.256 . S
O191 Gd160 2.327 . S
O191 Gd161 2.717 . S
O191 C179 1.257 . S
H192 C165 0.930 . S
H193 C166 0.931 . S
H194 C168 0.931 . S
H195 C169 0.931 . S
H196 C174 0.930 1_655 S
H197 C175 0.931 . S
H198 C177 0.931 . S
H199 C178 0.931 . S
Gd200 C203 2.818 . S
Gd200 O220 2.377 . S
Gd200 O222 2.448 . S
Gd200 O223 2.506 . S
Gd200 O224 2.435 1_565 S
Gd200 O225 2.717 1_565 S
Gd200 O227 2.395 . S
Gd200 O231 2.327 . S
Gd201 C212 2.818 1_565 S
Gd201 O221 2.395 . S
Gd201 O225 2.327 1_565 S
Gd201 O226 2.377 . S
Gd201 O228 2.448 . S
Gd201 O229 2.506 1_565 S
Gd201 O230 2.435 . S
Gd201 O231 2.717 . S
C202 O220 1.240 . S
C202 O221 1.240 . S
C203 Gd200 2.818 . S
C203 C204 1.510 . S
C203 O222 1.249 . S
C203 O223 1.252 . S
C204 C203 1.510 . S
C204 C205 1.404 . S
C204 C206 1.352 . S
C205 C204 1.404 . S
C205 C209 1.390 . S
C205 H232 0.930 . S
C206 C204 1.352 . S
C206 C208 1.374 . S
C206 H233 0.931 . S
C207 C208 1.359 . S
C207 C209 1.369 . S
C208 C206 1.374 . S
C208 C207 1.359 . S
C208 H234 0.931 . S
C209 C205 1.390 . S
C209 C207 1.369 . S
C209 H235 0.925 1_455 S
C210 O224 1.256 . S
C210 O225 1.257 . S
C211 O226 1.240 . S
C211 O227 1.240 . S
C212 Gd201 2.818 1_545 S
C212 C213 1.510 . S
C212 O228 1.249 1_545 S
C212 O229 1.252 . S
C213 C212 1.510 . S
C213 C214 1.404 . S
C213 C215 1.352 . S
C214 C213 1.404 . S
C214 C218 1.389 . S
C214 H236 0.930 1_545 S
C215 C213 1.352 . S
C215 C217 1.374 . S
C215 H237 0.931 . S
C216 C217 1.359 . S
C216 C218 1.364 . S
C217 C215 1.374 . S
C217 C216 1.359 . S
C217 H238 0.931 . S
C218 C214 1.389 . S
C218 C216 1.364 . S
C218 H239 0.931 . S
C219 O230 1.256 . S
C219 O231 1.257 . S
O220 Gd200 2.377 . S
O220 C202 1.240 . S
O221 Gd201 2.395 . S
O221 C202 1.240 . S
O222 Gd200 2.448 . S
O222 C203 1.249 . S
O223 Gd200 2.506 . S
O223 C203 1.252 . S
O224 Gd200 2.435 1_545 S
O224 C210 1.256 . S
O225 Gd200 2.717 1_545 S
O225 Gd201 2.327 1_545 S
O225 C210 1.257 . S
O226 Gd201 2.377 . S
O226 C211 1.240 . S
O227 Gd200 2.395 . S
O227 C211 1.240 . S
O228 Gd201 2.448 . S
O228 C212 1.249 1_565 S
O229 Gd201 2.506 1_545 S
O229 C212 1.252 . S
O230 Gd201 2.435 . S
O230 C219 1.256 . S
O231 Gd200 2.327 . S
O231 Gd201 2.717 . S
O231 C219 1.257 . S
H232 C205 0.930 . S
H233 C206 0.931 . S
H234 C208 0.931 . S
H235 C209 0.925 1_655 S
H236 C214 0.930 1_565 S
H237 C215 0.931 . S
H238 C217 0.931 . S
H239 C218 0.931 . S
H240 C246 0.930 1_565 S
H241 C249 0.930 . S
H242 C250 0.930 . S
H243 C251 0.930 . S
H244 C254 0.930 . S
H245 C255 0.930 . S
C246 H240 0.930 1_545 S
C246 C247 1.355 1_455 S
C246 C248 1.415 . S
C247 C246 1.355 1_655 S
C247 C249 1.419 1_554 S
C248 C246 1.415 . S
C248 C253 1.425 1_554 S
C248 C255 1.409 . S
C249 H241 0.930 . S
C249 C247 1.419 1_556 S
C249 C250 1.362 1_655 S
C250 H242 0.930 . S
C250 C249 1.362 1_455 S
C250 C253 1.409 . S
C251 H243 0.930 . S
C251 C252 1.355 1_556 S
C251 C253 1.415 . S
C252 C251 1.355 1_554 S
C252 C254 1.419 . S
C253 C248 1.425 1_556 S
C253 C250 1.409 . S
C253 C251 1.415 . S
C254 H244 0.930 . S
C254 C252 1.419 . S
C254 C255 1.362 . S
C255 H245 0.930 . S
C255 C248 1.409 . S
C255 C254 1.362 . S
H256 C262 0.930 1_665 S
H257 C265 0.930 . S
H258 C266 0.930 . S
H259 C267 0.930 . S
H260 C270 0.930 . S
H261 C271 0.930 1_655 S
C262 H256 0.930 1_445 S
C262 C263 1.355 1_545 S
C262 C264 1.415 . S
C263 C262 1.355 1_565 S
C263 C265 1.419 1_565 S
C264 C262 1.415 . S
C264 C269 1.425 . S
C264 C271 1.409 . S
C265 H257 0.930 . S
C265 C263 1.419 1_545 S
C265 C266 1.362 . S
C266 H258 0.930 . S
C266 C265 1.362 . S
C266 C269 1.409 . S
C267 H259 0.930 . S
C267 C268 1.355 . S
C267 C269 1.415 . S
C268 C267 1.355 . S
C268 C270 1.419 . S
C269 C264 1.425 . S
C269 C266 1.409 . S
C269 C267 1.415 . S
C270 H260 0.930 . S
C270 C268 1.419 . S
C270 C271 1.362 . S
C271 H261 0.930 1_455 S
C271 C264 1.409 . S
C271 C270 1.362 . S
H272 C278 0.930 . S
H273 C281 0.930 . S
H274 C282 0.930 . S
H275 C283 0.930 . S
H276 C286 0.930 1_655 S
H277 C287 0.930 . S
C278 H272 0.930 . S
C278 C279 1.355 . S
C278 C280 1.415 . S
C279 C278 1.355 . S
C279 C281 1.419 . S
C280 C278 1.415 . S
C280 C285 1.425 . S
C280 C287 1.409 . S
C281 H273 0.930 . S
C281 C279 1.419 . S
C281 C282 1.362 . S
C282 H274 0.930 . S
C282 C281 1.362 . S
C282 C285 1.409 . S
C283 H275 0.930 . S
C283 C284 1.355 . S
C283 C285 1.415 . S
C284 C283 1.355 . S
C284 C286 1.419 . S
C285 C280 1.425 . S
C285 C282 1.409 . S
C285 C283 1.415 . S
C286 H276 0.930 1_455 S
C286 C284 1.419 . S
C286 C287 1.362 . S
C287 H277 0.930 . S
C287 C280 1.409 . S
C287 C286 1.362 . S
H288 C294 0.930 . S
H289 C297 0.930 . S
H290 C298 0.930 . S
H291 C299 0.930 . S
H292 C302 0.930 . S
H293 C303 0.930 . S
C294 H288 0.930 . S
C294 C295 1.355 . S
C294 C296 1.415 . S
C295 C294 1.355 . S
C295 C297 1.419 . S
C296 C294 1.415 . S
C296 C301 1.425 . S
C296 C303 1.409 . S
C297 H289 0.930 . S
C297 C295 1.419 . S
C297 C298 1.362 . S
C298 H290 0.930 . S
C298 C297 1.362 . S
C298 C301 1.409 . S
C299 H291 0.930 . S
C299 C300 1.355 . S
C299 C301 1.415 . S
C300 C299 1.355 . S
C300 C302 1.419 . S
C301 C296 1.425 . S
C301 C298 1.409 . S
C301 C299 1.415 . S
C302 H292 0.930 . S
C302 C300 1.419 . S
C302 C303 1.362 . S
C303 H293 0.930 . S
C303 C296 1.409 . S
C303 C302 1.362 . S
H304 C310 0.930 . S
H305 C313 0.930 . S
H306 C314 0.930 . S
H307 C315 0.930 . S
H308 C318 0.930 . S
H309 C319 0.930 . S
C310 H304 0.930 . S
C310 C311 1.355 . S
C310 C312 1.415 . S
C311 C310 1.355 . S
C311 C313 1.419 . S
C312 C310 1.415 . S
C312 C317 1.425 1_455 S
C312 C319 1.409 . S
C313 H305 0.930 . S
C313 C311 1.419 . S
C313 C314 1.362 1_455 S
C314 H306 0.930 . S
C314 C313 1.362 1_655 S
C314 C317 1.409 . S
C315 H307 0.930 . S
C315 C316 1.355 . S
C315 C317 1.415 . S
C316 C315 1.355 . S
C316 C318 1.419 . S
C317 C312 1.425 1_655 S
C317 C314 1.409 . S
C317 C315 1.415 . S
C318 H308 0.930 . S
C318 C316 1.419 . S
C318 C319 1.362 1_655 S
C319 H309 0.930 . S
C319 C312 1.409 . S
C319 C318 1.362 1_455 S
H320 C326 0.930 . S
H321 C329 0.930 . S
H322 C330 0.930 . S
H323 C331 0.930 . S
H324 C334 0.930 . S
H325 C335 0.930 . S
C326 H320 0.930 . S
C326 C327 1.355 . S
C326 C328 1.415 . S
C327 C326 1.355 . S
C327 C329 1.419 . S
C328 C326 1.415 . S
C328 C333 1.425 . S
C328 C335 1.409 1_545 S
C329 H321 0.930 . S
C329 C327 1.419 . S
C329 C330 1.362 . S
C330 H322 0.930 . S
C330 C329 1.362 . S
C330 C333 1.409 . S
C331 H323 0.930 . S
C331 C332 1.355 . S
C331 C333 1.415 1_565 S
C332 C331 1.355 . S
C332 C334 1.419 . S
C333 C328 1.425 . S
C333 C330 1.409 . S
C333 C331 1.415 1_545 S
C334 H324 0.930 . S
C334 C332 1.419 . S
C334 C335 1.362 . S
C335 H325 0.930 . S
C335 C328 1.409 1_565 S
C335 C334 1.362 . S
H336 C342 0.930 . S
H337 C345 0.930 . S
H338 C346 0.930 . S
H339 C347 0.930 . S
H340 C350 0.930 . S
H341 C351 0.930 . S
C342 H336 0.930 . S
C342 C343 1.355 . S
C342 C344 1.415 . S
C343 C342 1.355 . S
C343 C345 1.419 . S
C344 C342 1.415 . S
C344 C349 1.425 . S
C344 C351 1.409 . S
C345 H337 0.930 . S
C345 C343 1.419 . S
C345 C346 1.362 . S
C346 H338 0.930 . S
C346 C345 1.362 . S
C346 C349 1.409 . S
C347 H339 0.930 . S
C347 C348 1.355 . S
C347 C349 1.415 . S
C348 C347 1.355 . S
C348 C350 1.419 . S
C349 C344 1.425 . S
C349 C346 1.409 . S
C349 C347 1.415 . S
C350 H340 0.930 . S
C350 C348 1.419 . S
C350 C351 1.362 . S
C351 H341 0.930 . S
C351 C344 1.409 . S
C351 C350 1.362 . S
H352 C358 0.930 . S
H353 C361 0.930 . S
H354 C362 0.930 . S
H355 C363 0.930 1_545 S
H356 C366 0.930 . S
H357 C367 0.930 . S
C358 H352 0.930 . S
C358 C359 1.355 . S
C358 C360 1.415 . S
C359 C358 1.355 . S
C359 C361 1.419 . S
C360 C358 1.415 . S
C360 C365 1.425 . S
C360 C367 1.409 . S
C361 H353 0.930 . S
C361 C359 1.419 . S
C361 C362 1.362 . S
C362 H354 0.930 . S
C362 C361 1.362 . S
C362 C365 1.409 . S
C363 H355 0.930 1_565 S
C363 C364 1.355 . S
C363 C365 1.415 . S
C364 C363 1.355 . S
C364 C366 1.419 . S
C365 C360 1.425 . S
C365 C362 1.409 . S
C365 C363 1.415 . S
C366 H356 0.930 . S
C366 C364 1.419 . S
C366 C367 1.362 . S
C367 H357 0.930 . S
C367 C360 1.409 . S
C367 C366 1.362 . S
H368 C374 0.930 . S
H369 C377 0.930 . S
H370 C378 0.930 . S
H371 C379 0.930 . S
H372 C382 0.930 . S
H373 C383 0.930 . S
C374 H368 0.930 . S
C374 C375 1.355 . S
C374 C376 1.415 . S
C375 C374 1.355 . S
C375 C377 1.419 . S
C376 C374 1.415 . S
C376 C381 1.425 . S
C376 C383 1.409 . S
C377 H369 0.930 . S
C377 C375 1.419 . S
C377 C378 1.362 . S
C378 H370 0.930 . S
C378 C377 1.362 . S
C378 C381 1.409 . S
C379 H371 0.930 . S
C379 C380 1.355 . S
C379 C381 1.415 . S
C380 C379 1.355 . S
C380 C382 1.419 . S
C381 C376 1.425 . S
C381 C378 1.409 . S
C381 C379 1.415 . S
C382 H372 0.930 . S
C382 C380 1.419 . S
C382 C383 1.362 . S
C383 H373 0.930 . S
C383 C376 1.409 . S
C383 C382 1.362 . S
H384 C390 0.930 . S
H385 C393 0.939 . S
H386 C394 0.930 . S
H387 C395 0.930 1_556 S
H388 C398 0.930 . S
H389 C399 0.930 . S
C390 H384 0.930 . S
C390 C391 1.355 . S
C390 C392 1.415 . S
C391 C390 1.355 . S
C391 C393 1.409 1_554 S
C392 C390 1.415 . S
C392 C397 1.425 . S
C392 C399 1.409 . S
C393 H385 0.939 . S
C393 C391 1.409 1_556 S
C393 C394 1.365 . S
C394 H386 0.930 . S
C394 C393 1.365 . S
C394 C397 1.409 1_556 S
C395 H387 0.930 1_554 S
C395 C396 1.355 . S
C395 C397 1.415 . S
C396 C395 1.355 . S
C396 C398 1.419 1_545 S
C397 C392 1.425 . S
C397 C394 1.409 1_554 S
C397 C395 1.415 . S
C398 H388 0.930 . S
C398 C396 1.419 1_565 S
C398 C399 1.362 1_565 S
C399 H389 0.930 . S
C399 C392 1.409 . S
C399 C398 1.362 1_545 S
H400 C406 0.930 . S
H401 C409 0.930 . S
H402 C410 0.930 . S
H403 C411 0.930 . S
H404 C414 0.930 . S
H405 C415 0.930 . S
C406 H400 0.930 . S
C406 C407 1.355 . S
C406 C408 1.415 . S
C407 C406 1.355 . S
C407 C409 1.419 . S
C408 C406 1.415 . S
C408 C413 1.425 . S
C408 C415 1.409 . S
C409 H401 0.930 . S
C409 C407 1.419 . S
C409 C410 1.362 . S
C410 H402 0.930 . S
C410 C409 1.362 . S
C410 C413 1.409 . S
C411 H403 0.930 . S
C411 C412 1.355 . S
C411 C413 1.415 . S
C412 C411 1.355 . S
C412 C414 1.419 . S
C413 C408 1.425 . S
C413 C410 1.409 . S
C413 C411 1.415 . S
C414 H404 0.930 . S
C414 C412 1.419 . S
C414 C415 1.362 . S
C415 H405 0.930 . S
C415 C408 1.409 . S
C415 C414 1.362 . S
H416 C422 0.930 1_655 S
H417 C425 0.930 . S
H418 C426 0.930 . S
H419 C427 0.930 . S
H420 C430 0.930 . S
H421 C431 0.930 . S
C422 H416 0.930 1_455 S
C422 C423 1.355 . S
C422 C424 1.415 . S
C423 C422 1.355 . S
C423 C425 1.419 . S
C424 C422 1.415 . S
C424 C429 1.425 . S
C424 C431 1.409 . S
C425 H417 0.930 . S
C425 C423 1.419 . S
C425 C426 1.362 . S
C426 H418 0.930 . S
C426 C425 1.362 . S
C426 C429 1.409 . S
C427 H419 0.930 . S
C427 C428 1.355 . S
C427 C429 1.415 . S
C428 C427 1.355 . S
C428 C430 1.419 . S
C429 C424 1.425 . S
C429 C426 1.409 . S
C429 C427 1.415 . S
C430 H420 0.930 . S
C430 C428 1.419 . S
C430 C431 1.362 . S
C431 H421 0.930 . S
C431 C424 1.409 . S
C431 C430 1.362 . S
H432 C438 0.930 . S
H433 C441 0.930 . S
H434 C442 0.930 . S
H435 C443 0.930 . S
H436 C446 0.930 . S
H437 C447 0.930 . S
C438 H432 0.930 . S
C438 C439 1.355 . S
C438 C440 1.415 . S
C439 C438 1.355 . S
C439 C441 1.419 . S
C440 C438 1.415 . S
C440 C445 1.425 . S
C440 C447 1.409 . S
C441 H433 0.930 . S
C441 C439 1.419 . S
C441 C442 1.362 . S
C442 H434 0.930 . S
C442 C441 1.362 . S
C442 C445 1.409 . S
C443 H435 0.930 . S
C443 C444 1.355 . S
C443 C445 1.415 . S
C444 C443 1.355 . S
C444 C446 1.419 . S
C445 C440 1.425 . S
C445 C442 1.409 . S
C445 C443 1.415 . S
C446 H436 0.930 . S
C446 C444 1.419 . S
C446 C447 1.362 . S
C447 H437 0.930 . S
C447 C440 1.409 . S
C447 C446 1.362 . S
H448 C454 0.930 . S
H449 C457 0.930 . S
H450 C458 0.930 . S
H451 C459 0.930 . S
H452 C462 0.930 . S
H453 C463 0.930 . S
C454 H448 0.930 . S
C454 C455 1.355 . S
C454 C456 1.415 . S
C455 C454 1.355 . S
C455 C457 1.419 . S
C456 C454 1.415 . S
C456 C461 1.425 . S
C456 C463 1.409 . S
C457 H449 0.930 . S
C457 C455 1.419 . S
C457 C458 1.362 . S
C458 H450 0.930 . S
C458 C457 1.362 . S
C458 C461 1.409 . S
C459 H451 0.930 . S
C459 C460 1.355 . S
C459 C461 1.415 . S
C460 C459 1.355 . S
C460 C462 1.419 . S
C461 C456 1.425 . S
C461 C458 1.409 . S
C461 C459 1.415 . S
C462 H452 0.930 . S
C462 C460 1.419 . S
C462 C463 1.362 . S
C463 H453 0.930 . S
C463 C456 1.409 . S
C463 C462 1.362 . S
H464 C470 0.930 . S
H465 C473 0.930 . S
H466 C474 0.930 . S
H467 C475 0.930 . S
H468 C478 0.930 . S
H469 C479 0.930 1_455 S
C470 H464 0.930 . S
C470 C471 1.355 . S
C470 C472 1.415 . S
C471 C470 1.355 . S
C471 C473 1.419 . S
C472 C470 1.415 . S
C472 C477 1.425 . S
C472 C479 1.409 . S
C473 H465 0.930 . S
C473 C471 1.419 . S
C473 C474 1.362 . S
C474 H466 0.930 . S
C474 C473 1.362 . S
C474 C477 1.409 . S
C475 H467 0.930 . S
C475 C476 1.355 . S
C475 C477 1.415 . S
C476 C475 1.355 . S
C476 C478 1.419 . S
C477 C472 1.425 . S
C477 C474 1.409 . S
C477 C475 1.415 . S
C478 H468 0.930 . S
C478 C476 1.419 . S
C478 C479 1.362 . S
C479 H469 0.930 1_655 S
C479 C472 1.409 . S
C479 C478 1.362 . S
H480 C486 0.930 . S
H481 C489 0.930 . S
H482 C490 0.930 . S
H483 C491 0.930 . S
H484 C494 0.930 . S
H485 C495 0.930 . S
C486 H480 0.930 . S
C486 C487 1.355 . S
C486 C488 1.415 . S
C487 C486 1.355 . S
C487 C489 1.419 . S
C488 C486 1.415 . S
C488 C493 1.425 . S
C488 C495 1.409 . S
C489 H481 0.930 . S
C489 C487 1.419 . S
C489 C490 1.362 . S
C490 H482 0.930 . S
C490 C489 1.362 . S
C490 C493 1.409 . S
C491 H483 0.930 . S
C491 C492 1.355 . S
C491 C493 1.415 . S
C492 C491 1.355 . S
C492 C494 1.419 . S
C493 C488 1.425 . S
C493 C490 1.409 . S
C493 C491 1.415 . S
C494 H484 0.930 . S
C494 C492 1.419 . S
C494 C495 1.362 . S
C495 H485 0.930 . S
C495 C488 1.409 . S
C495 C494 1.362 . S
H496 C502 0.930 . S
H497 C505 0.930 . S
H498 C506 0.930 . S
H499 C507 0.930 . S
H500 C510 0.930 1_655 S
H501 C511 0.930 . S
C502 H496 0.930 . S
C502 C503 1.355 1_655 S
C502 C504 1.415 1_655 S
C503 C502 1.355 1_455 S
C503 C505 1.419 . S
C504 C502 1.415 1_455 S
C504 C509 1.425 . S
C504 C511 1.409 1_455 S
C505 H497 0.930 . S
C505 C503 1.419 . S
C505 C506 1.362 . S
C506 H498 0.930 . S
C506 C505 1.362 . S
C506 C509 1.409 . S
C507 H499 0.930 . S
C507 C508 1.355 . S
C507 C509 1.415 . S
C508 C507 1.355 . S
C508 C510 1.419 . S
C509 C504 1.425 . S
C509 C506 1.409 . S
C509 C507 1.415 . S
C510 H500 0.930 1_455 S
C510 C508 1.419 . S
C510 C511 1.362 1_455 S
C511 H501 0.930 . S
C511 C504 1.409 1_655 S
C511 C510 1.362 1_655 S
H512 C518 0.930 . S
H513 C521 0.930 1_565 S
H514 C522 0.930 . S
H515 C523 0.930 . S
H516 C526 0.930 . S
H517 C527 0.930 . S
C518 H512 0.930 . S
C518 C519 1.355 . S
C518 C520 1.415 . S
C519 C518 1.355 . S
C519 C521 1.419 . S
C520 C518 1.415 . S
C520 C525 1.425 . S
C520 C527 1.409 . S
C521 H513 0.930 1_545 S
C521 C519 1.419 . S
C521 C522 1.362 . S
C522 H514 0.930 . S
C522 C521 1.362 . S
C522 C525 1.409 . S
C523 H515 0.930 . S
C523 C524 1.355 . S
C523 C525 1.415 . S
C524 C523 1.355 . S
C524 C526 1.419 . S
C525 C520 1.425 . S
C525 C522 1.409 . S
C525 C523 1.415 . S
C526 H516 0.930 . S
C526 C524 1.419 . S
C526 C527 1.362 . S
C527 H517 0.930 . S
C527 C520 1.409 . S
C527 C526 1.362 . S
C247 C130 0.766 . S
C252 C10 0.765 . S
C263 C170 0.960 . S
C268 C50 0.918 . S
C279 C210 0.903 . S
C284 C90 0.827 . S
C295 C16 0.855 . S
C300 C87 0.861 . S
C311 C56 0.919 . S
C316 C127 0.906 . S
C327 C96 0.804 . S
C332 C167 0.938 . S
C343 C136 0.819 . S
C348 C207 0.847 1_655 S
C359 C176 0.793 . S
C364 C7 0.925 1_565 S
C375 C216 0.834 . S
C380 C47 0.967 . S
C391 C19 1.527 . S
C396 C139 1.534 1_545 S
C407 C59 1.475 . S
C412 C179 1.463 . S
C423 C99 1.464 1_455 S
C428 C219 1.470 . S
C439 C2 4.122 . S
C444 C51 4.181 . S
C455 C42 4.113 . S
C460 C91 4.172 . S
C471 C82 4.131 . S
C476 C131 4.181 . S
C487 C122 4.132 . S
C492 C171 4.177 . S
C503 C162 4.119 1_455 S
C508 C211 4.180 . S
C519 C202 4.133 1_545 S
C524 C11 4.181 . S
