# Generated by pormake.
# Topology sme, (6)-cn, num edge types: 1
# Building blocks:
#     Node 0, Type 0, BuildingBlock: IZENUY_clean_sbu_0, # of connection points: 6
#     Node 1, Type 0, BuildingBlock: IZENUY_clean_sbu_0, # of connection points: 6
#     Node 2, Type 0, BuildingBlock: IZENUY_clean_sbu_0, # of connection points: 6
#     Node 3, Type 0, BuildingBlock: IZENUY_clean_sbu_0, # of connection points: 6
#     Node 4, Type 0, BuildingBlock: IZENUY_clean_sbu_0, # of connection points: 6
#     Node 5, Type 0, BuildingBlock: IZENUY_clean_sbu_0, # of connection points: 6
#     Node 6, Type 0, BuildingBlock: IZENUY_clean_sbu_0, # of connection points: 6
#     Node 7, Type 0, BuildingBlock: IZENUY_clean_sbu_0, # of connection points: 6
#     Node 8, Type 0, BuildingBlock: IZENUY_clean_sbu_0, # of connection points: 6
#     Node 9, Type 0, BuildingBlock: IZENUY_clean_sbu_0, # of connection points: 6
#     Node 10, Type 0, BuildingBlock: IZENUY_clean_sbu_0, # of connection points: 6
#     Node 11, Type 0, BuildingBlock: IZENUY_clean_sbu_0, # of connection points: 6
#     Node 12, Type 0, BuildingBlock: IZENUY_clean_sbu_0, # of connection points: 6
#     Node 13, Type 0, BuildingBlock: IZENUY_clean_sbu_0, # of connection points: 6
#     Node 14, Type 0, BuildingBlock: IZENUY_clean_sbu_0, # of connection points: 6
#     Node 15, Type 0, BuildingBlock: IZENUY_clean_sbu_0, # of connection points: 6
#     Node 16, Type 0, BuildingBlock: IZENUY_clean_sbu_0, # of connection points: 6
#     Node 17, Type 0, BuildingBlock: IZENUY_clean_sbu_0, # of connection points: 6
#     Edge 18, Type (0, 0), BuildingBlock: UVAHIK_clean_linker_0, # of connection points: 2
#     Edge 19, Type (0, 0), BuildingBlock: UVAHIK_clean_linker_0, # of connection points: 2
#     Edge 20, Type (0, 0), BuildingBlock: UVAHIK_clean_linker_0, # of connection points: 2
#     Edge 21, Type (0, 0), BuildingBlock: UVAHIK_clean_linker_0, # of connection points: 2
#     Edge 22, Type (0, 0), BuildingBlock: UVAHIK_clean_linker_0, # of connection points: 2
#     Edge 23, Type (0, 0), BuildingBlock: UVAHIK_clean_linker_0, # of connection points: 2
#     Edge 24, Type (0, 0), BuildingBlock: UVAHIK_clean_linker_0, # of connection points: 2
#     Edge 25, Type (0, 0), BuildingBlock: UVAHIK_clean_linker_0, # of connection points: 2
#     Edge 26, Type (0, 0), BuildingBlock: UVAHIK_clean_linker_0, # of connection points: 2
#     Edge 27, Type (0, 0), BuildingBlock: UVAHIK_clean_linker_0, # of connection points: 2
#     Edge 28, Type (0, 0), BuildingBlock: UVAHIK_clean_linker_0, # of connection points: 2
#     Edge 29, Type (0, 0), BuildingBlock: UVAHIK_clean_linker_0, # of connection points: 2
#     Edge 30, Type (0, 0), BuildingBlock: UVAHIK_clean_linker_0, # of connection points: 2
#     Edge 31, Type (0, 0), BuildingBlock: UVAHIK_clean_linker_0, # of connection points: 2
#     Edge 32, Type (0, 0), BuildingBlock: UVAHIK_clean_linker_0, # of connection points: 2
#     Edge 33, Type (0, 0), BuildingBlock: UVAHIK_clean_linker_0, # of connection points: 2
#     Edge 34, Type (0, 0), BuildingBlock: UVAHIK_clean_linker_0, # of connection points: 2
#     Edge 35, Type (0, 0), BuildingBlock: UVAHIK_clean_linker_0, # of connection points: 2
#     Edge 36, Type (0, 0), BuildingBlock: UVAHIK_clean_linker_0, # of connection points: 2
#     Edge 37, Type (0, 0), BuildingBlock: UVAHIK_clean_linker_0, # of connection points: 2
#     Edge 38, Type (0, 0), BuildingBlock: UVAHIK_clean_linker_0, # of connection points: 2
#     Edge 39, Type (0, 0), BuildingBlock: UVAHIK_clean_linker_0, # of connection points: 2
#     Edge 40, Type (0, 0), BuildingBlock: UVAHIK_clean_linker_0, # of connection points: 2
#     Edge 41, Type (0, 0), BuildingBlock: UVAHIK_clean_linker_0, # of connection points: 2
#     Edge 42, Type (0, 0), BuildingBlock: UVAHIK_clean_linker_0, # of connection points: 2
#     Edge 43, Type (0, 0), BuildingBlock: UVAHIK_clean_linker_0, # of connection points: 2
#     Edge 44, Type (0, 0), BuildingBlock: UVAHIK_clean_linker_0, # of connection points: 2
#     Edge 45, Type (0, 0), BuildingBlock: UVAHIK_clean_linker_0, # of connection points: 2
#     Edge 46, Type (0, 0), BuildingBlock: UVAHIK_clean_linker_0, # of connection points: 2
#     Edge 47, Type (0, 0), BuildingBlock: UVAHIK_clean_linker_0, # of connection points: 2
#     Edge 48, Type (0, 0), BuildingBlock: UVAHIK_clean_linker_0, # of connection points: 2
#     Edge 49, Type (0, 0), BuildingBlock: UVAHIK_clean_linker_0, # of connection points: 2
#     Edge 50, Type (0, 0), BuildingBlock: UVAHIK_clean_linker_0, # of connection points: 2
#     Edge 51, Type (0, 0), BuildingBlock: UVAHIK_clean_linker_0, # of connection points: 2
#     Edge 52, Type (0, 0), BuildingBlock: UVAHIK_clean_linker_0, # of connection points: 2
#     Edge 53, Type (0, 0), BuildingBlock: UVAHIK_clean_linker_0, # of connection points: 2
#     Edge 54, Type (0, 0), BuildingBlock: UVAHIK_clean_linker_0, # of connection points: 2
#     Edge 55, Type (0, 0), BuildingBlock: UVAHIK_clean_linker_0, # of connection points: 2
#     Edge 56, Type (0, 0), BuildingBlock: UVAHIK_clean_linker_0, # of connection points: 2
#     Edge 57, Type (0, 0), BuildingBlock: UVAHIK_clean_linker_0, # of connection points: 2
#     Edge 58, Type (0, 0), BuildingBlock: UVAHIK_clean_linker_0, # of connection points: 2
#     Edge 59, Type (0, 0), BuildingBlock: UVAHIK_clean_linker_0, # of connection points: 2
#     Edge 60, Type (0, 0), BuildingBlock: UVAHIK_clean_linker_0, # of connection points: 2
#     Edge 61, Type (0, 0), BuildingBlock: UVAHIK_clean_linker_0, # of connection points: 2
#     Edge 62, Type (0, 0), BuildingBlock: UVAHIK_clean_linker_0, # of connection points: 2
#     Edge 63, Type (0, 0), BuildingBlock: UVAHIK_clean_linker_0, # of connection points: 2
#     Edge 64, Type (0, 0), BuildingBlock: UVAHIK_clean_linker_0, # of connection points: 2
#     Edge 65, Type (0, 0), BuildingBlock: UVAHIK_clean_linker_0, # of connection points: 2
#     Edge 66, Type (0, 0), BuildingBlock: UVAHIK_clean_linker_0, # of connection points: 2
#     Edge 67, Type (0, 0), BuildingBlock: UVAHIK_clean_linker_0, # of connection points: 2
#     Edge 68, Type (0, 0), BuildingBlock: UVAHIK_clean_linker_0, # of connection points: 2
#     Edge 69, Type (0, 0), BuildingBlock: UVAHIK_clean_linker_0, # of connection points: 2
#     Edge 70, Type (0, 0), BuildingBlock: UVAHIK_clean_linker_0, # of connection points: 2
#     Edge 71, Type (0, 0), BuildingBlock: UVAHIK_clean_linker_0, # of connection points: 2
# Relax obj value: 0.119
# Max RMSD: 0.169
# Mean RMSD: 0.168
data_MOF--net-sme--node1-IZENUY_clean_sbu_0--edge1-UVAHIK_clean_linker_0
_symmetry_space_group_name_H-M    P1
_symmetry_Int_Tables_number       1
_symmetry_cell_setting            triclinic
loop_
_symmetry_equiv_pos_as_xyz
'x, y, z'
_cell_length_a     56.728213
_cell_length_b     56.603143
_cell_length_c     48.406599
_cell_angle_alpha  90.023108
_cell_angle_beta   90.124746
_cell_angle_gamma 120.11896
loop_
_atom_site_label
_atom_site_type_symbol
_atom_site_fract_x
_atom_site_fract_y
_atom_site_fract_z
_atom_type_partial_charge
Fe0 Fe 0.02872 0.29631 0.832 0.0
Fe1 Fe 0.03715 0.25673 0.86883 0.0
O2 O 0.03244 0.26702 0.83544 0.0
Fe3 Fe 0.0317 0.24902 0.80505 0.0
O4 O 0.0599 0.27958 0.78907 0.0
O5 O 0.0418 0.30498 0.7966 0.0
O6 O 0.063 0.3177 0.84409 0.0
C7 C 0.07285 0.31405 0.86604 0.0
C8 C 0.98854 0.26032 0.79829 0.0
O9 O 0.06012 0.29221 0.88015 0.0
C10 C 1.00135 0.20618 0.84128 0.0
O11 O 0.01537 0.29512 0.86663 0.0
O12 O 0.007 0.25599 0.88339 0.0
O13 O 0.00568 0.25439 0.78842 0.0
O14 O 0.99414 0.27544 0.81942 0.0
C15 C 0.07185 0.24577 0.83782 0.0
O16 O 0.01549 0.21985 0.86194 0.0
O17 O 1.00395 0.21712 0.81789 0.0
C18 C 1.00381 0.27646 0.8843 0.0
O19 O 0.06772 0.25621 0.8589 0.0
O20 O 0.05683 0.23994 0.81668 0.0
C21 C 0.05868 0.30077 0.78376 0.0
Fe22 Fe 0.85493 0.8664 0.87374 0.0
Fe23 Fe 0.86217 0.86869 0.80993 0.0
O24 O 0.84447 0.85131 0.84034 0.0
Fe25 Fe 0.81537 0.81808 0.8368 0.0
O26 O 0.79392 0.83065 0.84911 0.0
O27 O 0.81957 0.85393 0.88499 0.0
O28 O 0.85559 0.89769 0.86389 0.0
C29 C 0.86589 0.9123 0.8428 0.0
C30 C 0.83519 0.81315 0.88935 0.0
O31 O 0.8714 0.90301 0.82161 0.0
C32 C 0.85123 0.81429 0.80292 0.0
O33 O 0.8917 0.88152 0.86678 0.0
O34 O 0.89401 0.8728 0.82261 0.0
O35 O 0.81676 0.80581 0.87135 0.0
O36 O 0.85558 0.83691 0.88847 0.0
C37 C 0.81045 0.84379 0.78882 0.0
O38 O 0.85675 0.83732 0.79308 0.0
O39 O 0.83631 0.8046 0.82406 0.0
C40 C 0.90511 0.88102 0.84598 0.0
O41 O 0.83156 0.8663 0.79422 0.0
O42 O 0.80645 0.82259 0.80145 0.0
C43 C 0.79754 0.84416 0.87107 0.0
Fe44 Fe 0.29139 0.08279 0.83247 0.0
Fe45 Fe 0.24045 0.0781 0.80532 0.0
O46 O 0.25835 0.07884 0.83582 0.0
Fe47 Fe 0.24392 0.07548 0.86927 0.0
O48 O 0.27337 0.10657 0.88253 0.0
O49 O 0.30429 0.09823 0.86638 0.0
O50 O 0.30465 0.11668 0.81815 0.0
C51 C 0.29476 0.12115 0.79665 0.0
C52 C 0.2663 0.04048 0.86886 0.0
O53 O 0.27146 0.10345 0.78751 0.0
C54 C 0.19777 0.0391 0.83966 0.0
O55 O 0.28616 0.06776 0.79781 0.0
O56 O 0.24249 0.04928 0.79064 0.0
O57 O 0.25698 0.05353 0.88197 0.0
O58 O 0.27911 0.0492 0.8464 0.0
C59 C 0.2286 0.10983 0.84007 0.0
O60 O 0.20643 0.05336 0.81801 0.0
O61 O 0.21288 0.04414 0.8605 0.0
C62 C 0.26482 0.0504 0.78542 0.0
O63 O 0.23667 0.10643 0.8169 0.0
O64 O 0.22823 0.09636 0.86121 0.0
C65 C 0.29725 0.11043 0.88333 0.0
Fe66 Fe 0.05559 0.87574 0.20555 0.0
Fe67 Fe 0.06101 0.83432 0.24256 0.0
O68 O 0.05836 0.86427 0.23912 0.0
Fe69 Fe 0.05821 0.8817 0.26969 0.0
O70 O 0.03384 0.8914 0.25727 0.0
O71 O 0.02523 0.87732 0.21415 0.0
O72 O 0.03222 0.84079 0.19314 0.0
C73 C 0.01872 0.81846 0.20632 0.0
C74 C 0.09065 0.92528 0.23494 0.0
O75 O 0.02722 0.81393 0.22876 0.0
C76 C 0.10026 0.86894 0.27804 0.0
O77 O 0.08573 0.87564 0.19211 0.0
O78 O 0.07569 0.83593 0.20858 0.0
O79 O 0.08658 0.91383 0.25822 0.0
O80 O 0.07791 0.91227 0.21343 0.0
C81 C 0.02957 0.82951 0.28977 0.0
O82 O 0.09509 0.85414 0.25672 0.0
O83 O 0.08328 0.87545 0.28719 0.0
C84 C 0.08817 0.85472 0.19125 0.0
O85 O 0.04633 0.82484 0.27735 0.0
O86 O 0.02922 0.85114 0.28452 0.0
C87 C 0.02012 0.88687 0.23536 0.0
Fe88 Fe 0.2353 0.26627 0.20422 0.0
Fe89 Fe 0.27593 0.3138 0.24134 0.0
O90 O 0.24674 0.28059 0.23781 0.0
Fe91 Fe 0.22999 0.26258 0.26836 0.0
O92 O 0.22122 0.22869 0.25579 0.0
O93 O 0.23447 0.23456 0.2124 0.0
O94 O 0.27036 0.27885 0.19187 0.0
C95 C 0.29268 0.28815 0.20523 0.0
C96 C 0.18592 0.25074 0.23383 0.0
O97 O 0.297 0.30141 0.22751 0.0
C98 C 0.24075 0.31682 0.27688 0.0
O99 O 0.2344 0.29614 0.19107 0.0
O100 O 0.27376 0.32678 0.20748 0.0
O101 O 0.19755 0.25803 0.25707 0.0
O102 O 0.19882 0.25117 0.21224 0.0
C103 C 0.28216 0.28765 0.28822 0.0
O104 O 0.25528 0.32694 0.25555 0.0
O105 O 0.23536 0.29359 0.28606 0.0
C106 C 0.25465 0.31997 0.19045 0.0
O107 O 0.2858 0.30892 0.27606 0.0
O108 O 0.2611 0.26516 0.28284 0.0
C109 C 0.2257 0.21987 0.23364 0.0
Fe110 Fe 0.84978 0.05235 0.27216 0.0
Fe111 Fe 0.79906 0.04805 0.24495 0.0
O112 O 0.83227 0.05239 0.24168 0.0
Fe113 Fe 0.84725 0.05692 0.20836 0.0
O114 O 0.86308 0.03604 0.21575 0.0
O115 O 0.85397 0.0245 0.2597 0.0
O116 O 0.81863 0.02639 0.2892 0.0
C117 C 0.79557 0.00879 0.2795 0.0
C118 C 0.89281 0.09259 0.23915 0.0
O119 O 0.78584 0.01379 0.25821 0.0
C120 C 0.82449 0.09154 0.20996 0.0
O121 O 0.84731 0.08066 0.28765 0.0
O122 O 0.8037 0.06204 0.28004 0.0
O123 O 0.87808 0.08814 0.21808 0.0
O124 O 0.88385 0.07758 0.26026 0.0
C125 C 0.79413 0.02191 0.19338 0.0
O126 O 0.81129 0.08199 0.23209 0.0
O127 O 0.83411 0.07902 0.19638 0.0
C128 C 0.82485 0.07931 0.29276 0.0
O129 O 0.78674 0.03358 0.2106 0.0
O130 O 0.81813 0.02608 0.19416 0.0
C131 C 0.86247 0.02193 0.23642 0.0
Fe132 Fe 0.69489 0.62826 0.17402 0.0
Fe133 Fe 0.6989 0.58388 0.20743 0.0
O134 O 0.69673 0.59777 0.17514 0.0
Fe135 Fe 0.6971 0.58098 0.14437 0.0
O136 O 0.71517 0.6118 0.12303 0.0
O137 O 0.72404 0.6458 0.15093 0.0
O138 O 0.71905 0.64428 0.20269 0.0
C139 C 0.73628 0.63849 0.21258 0.0
C140 C 0.6576 0.59408 0.13246 0.0
O141 O 0.7312 0.6141 0.21425 0.0
C142 C 0.66276 0.5374 0.18055 0.0
O143 O 0.66548 0.61459 0.19702 0.0
O144 O 0.68091 0.59737 0.22764 0.0
O145 O 0.66449 0.5761 0.13374 0.0
O146 O 0.67081 0.61676 0.145 0.0
C147 C 0.7344 0.57484 0.17426 0.0
O148 O 0.66656 0.55246 0.20145 0.0
O149 O 0.67837 0.54669 0.15971 0.0
C150 C 0.66546 0.60661 0.22133 0.0
O151 O 0.71813 0.56808 0.19438 0.0
O152 O 0.73024 0.58491 0.15284 0.0
C153 C 0.72774 0.63708 0.12833 0.0
Fe154 Fe 0.48023 0.15025 0.16554 0.0
Fe155 Fe 0.5197 0.19842 0.20267 0.0
O156 O 0.50901 0.18359 0.16924 0.0
Fe157 Fe 0.52651 0.20154 0.139 0.0
O158 O 0.49588 0.19965 0.12426 0.0
O159 O 0.47035 0.15573 0.13092 0.0
O160 O 0.45842 0.16167 0.17951 0.0
C161 C 0.46203 0.17423 0.20208 0.0
C162 C 0.51557 0.1476 0.12991 0.0
O163 O 0.48453 0.18459 0.21517 0.0
C164 C 0.56969 0.21386 0.17412 0.0
O165 O 0.48314 0.1375 0.19936 0.0
O166 O 0.52188 0.1694 0.21622 0.0
O167 O 0.52066 0.17068 0.12078 0.0
O168 O 0.50122 0.13754 0.15128 0.0
C169 C 0.52944 0.2442 0.17285 0.0
O170 O 0.55647 0.21494 0.19482 0.0
O171 O 0.55825 0.20491 0.15103 0.0
C172 C 0.50227 0.14514 0.21664 0.0
O173 O 0.51865 0.22901 0.19347 0.0
O174 O 0.5361 0.23562 0.15187 0.0
C175 C 0.47444 0.17736 0.119 0.0
Fe176 Fe 0.90881 0.41288 0.20053 0.0
Fe177 Fe 0.9059 0.41256 0.13743 0.0
O178 O 0.92376 0.4136 0.16802 0.0
Fe179 Fe 0.95584 0.41505 0.16634 0.0
O180 O 0.94822 0.39163 0.1955 0.0
O181 O 0.90667 0.38082 0.20867 0.0
O182 O 0.87339 0.39295 0.18839 0.0
C183 C 0.86295 0.37626 0.16853 0.0
C184 C 0.96549 0.44651 0.2128 0.0
O185 O 0.8765 0.3797 0.14673 0.0
C186 C 0.9585 0.4519 0.1247 0.0
O187 O 0.90986 0.4451 0.19345 0.0
O188 O 0.89073 0.43158 0.15255 0.0
O189 O 0.97277 0.44507 0.18859 0.0
O190 O 0.94088 0.43182 0.21983 0.0
C191 C 0.93056 0.3813 0.12145 0.0
O192 O 0.93365 0.44501 0.12625 0.0
O193 O 0.96793 0.43849 0.13677 0.0
C194 C 0.89778 0.44801 0.17279 0.0
O195 O 0.91803 0.39397 0.11611 0.0
O196 O 0.94313 0.38519 0.14399 0.0
C197 C 0.92566 0.37537 0.20691 0.0
Fe198 Fe 0.72657 0.21751 0.60528 0.0
Fe199 Fe 0.73055 0.1705 0.57925 0.0
O200 O 0.7266 0.19958 0.57516 0.0
Fe201 Fe 0.72248 0.2098 0.54146 0.0
O202 O 0.74385 0.24675 0.54847 0.0
O203 O 0.75455 0.24936 0.59277 0.0
O204 O 0.75224 0.21231 0.62294 0.0
C205 C 0.76979 0.20669 0.61367 0.0
C206 C 0.68702 0.22057 0.57133 0.0
O207 O 0.76478 0.1916 0.59262 0.0
C208 C 0.68716 0.15231 0.54403 0.0
O209 O 0.69807 0.18694 0.62078 0.0
O210 O 0.71656 0.16173 0.61431 0.0
O211 O 0.6916 0.21019 0.55047 0.0
O212 O 0.70167 0.22648 0.59273 0.0
C213 C 0.75677 0.19056 0.5276 0.0
O214 O 0.69667 0.14883 0.56632 0.0
O215 O 0.69987 0.17425 0.53004 0.0
C216 C 0.69929 0.16583 0.62648 0.0
O217 O 0.7449 0.17188 0.54518 0.0
O218 O 0.753 0.21069 0.52768 0.0
C219 C 0.75755 0.26038 0.56937 0.0
Fe220 Fe 0.89224 0.59749 0.60603 0.0
Fe221 Fe 0.93955 0.64845 0.58005 0.0
O222 O 0.91052 0.61524 0.57601 0.0
Fe223 Fe 0.9006 0.60047 0.54242 0.0
O224 O 0.86369 0.58477 0.54892 0.0
O225 O 0.86069 0.59371 0.59282 0.0
O226 O 0.89749 0.62859 0.6233 0.0
C227 C 0.90334 0.65183 0.61386 0.0
C228 C 0.88944 0.55441 0.57292 0.0
O229 O 0.9185 0.66176 0.59292 0.0
C230 C 0.95802 0.62312 0.54548 0.0
O231 O 0.92247 0.59956 0.62221 0.0
O232 O 0.94813 0.64334 0.61535 0.0
O233 O 0.90032 0.56932 0.55214 0.0
O234 O 0.88316 0.56334 0.59389 0.0
C235 C 0.91975 0.65389 0.52769 0.0
O236 O 0.96129 0.6362 0.56766 0.0
O237 O 0.93611 0.6135 0.53139 0.0
C238 C 0.94364 0.62191 0.62791 0.0
O239 O 0.93825 0.66119 0.54564 0.0
O240 O 0.89967 0.62991 0.52808 0.0
C241 C 0.84992 0.58529 0.56937 0.0
Fe242 Fe 0.46366 0.37958 0.5779 0.0
Fe243 Fe 0.51112 0.3881 0.54029 0.0
O244 O 0.49671 0.38375 0.57389 0.0
Fe245 Fe 0.51467 0.38373 0.604 0.0
O246 O 0.48372 0.35804 0.62166 0.0
O247 O 0.45054 0.34533 0.59115 0.0
O248 O 0.45072 0.36509 0.54375 0.0
C249 C 0.45767 0.35341 0.5261 0.0
C250 C 0.49053 0.41115 0.62514 0.0
O251 O 0.48161 0.3574 0.52629 0.0
C252 C 0.55733 0.42359 0.57035 0.0
O253 O 0.47578 0.41348 0.56508 0.0
O254 O 0.49807 0.41052 0.52886 0.0
O255 O 0.51281 0.41232 0.61955 0.0
O256 O 0.46905 0.39373 0.61299 0.0
C257 C 0.52639 0.35288 0.56794 0.0
O258 O 0.54222 0.41919 0.54964 0.0
O259 O 0.54867 0.40865 0.59154 0.0
C260 C 0.48867 0.42305 0.54282 0.0
O261 O 0.52683 0.36694 0.54725 0.0
O262 O 0.51821 0.35563 0.59132 0.0
C263 C 0.46048 0.34041 0.61233 0.0
Fe264 Fe 0.36677 0.92279 0.53546 0.0
Fe265 Fe 0.36429 0.9155 0.47166 0.0
O266 O 0.36353 0.93328 0.50161 0.0
Fe267 Fe 0.3597 0.96241 0.49722 0.0
O268 O 0.39313 0.98398 0.51126 0.0
O269 O 0.38881 0.9582 0.54754 0.0
O270 O 0.39802 0.92285 0.52735 0.0
C271 C 0.40302 0.91234 0.50689 0.0
C272 C 0.33198 0.94164 0.54817 0.0
O273 O 0.38873 0.90624 0.48519 0.0
C274 C 0.32153 0.92664 0.46159 0.0
O275 O 0.34583 0.88589 0.52797 0.0
O276 O 0.33584 0.88368 0.48353 0.0
O277 O 0.34418 0.96048 0.5308 0.0
O278 O 0.33578 0.92152 0.5482 0.0
C279 C 0.39253 0.96745 0.45119 0.0
O280 O 0.3393 0.92104 0.45299 0.0
O281 O 0.32592 0.94147 0.48273 0.0
C282 C 0.33243 0.87245 0.50685 0.0
O283 O 0.39326 0.94608 0.45689 0.0
O284 O 0.37498 0.97162 0.46266 0.0
C285 C 0.4019 0.98033 0.53394 0.0
Fe286 Fe 0.1886 0.53209 0.53241 0.0
Fe287 Fe 0.19788 0.53534 0.46889 0.0
O288 O 0.17898 0.51767 0.49866 0.0
Fe289 Fe 0.14957 0.48484 0.49422 0.0
O290 O 0.12828 0.49787 0.50599 0.0
O291 O 0.15301 0.51962 0.54282 0.0
O292 O 0.1897 0.56362 0.52267 0.0
C293 C 0.20084 0.57853 0.50194 0.0
C294 C 0.16823 0.47837 0.5467 0.0
O295 O 0.20715 0.56954 0.48103 0.0
C296 C 0.18593 0.48067 0.46141 0.0
O297 O 0.22554 0.54727 0.52653 0.0
O298 O 0.22904 0.53864 0.48266 0.0
O299 O 0.14991 0.47185 0.5287 0.0
O300 O 0.18867 0.50215 0.54675 0.0
C301 C 0.14688 0.51172 0.44607 0.0
O302 O 0.19242 0.50405 0.45182 0.0
O303 O 0.17026 0.47092 0.48202 0.0
C304 C 0.23952 0.54682 0.50626 0.0
O305 O 0.16817 0.53385 0.45205 0.0
O306 O 0.14183 0.49018 0.4587 0.0
C307 C 0.13154 0.51094 0.52818 0.0
Fe308 Fe 0.62522 0.75264 0.49982 0.0
Fe309 Fe 0.57486 0.75103 0.47469 0.0
O310 O 0.59269 0.74965 0.50437 0.0
Fe311 Fe 0.57859 0.74518 0.53819 0.0
O312 O 0.60869 0.77522 0.55236 0.0
O313 O 0.63879 0.76681 0.53397 0.0
O314 O 0.63937 0.78712 0.48681 0.0
C315 C 0.6296 0.79287 0.46607 0.0
C316 C 0.59959 0.70905 0.53467 0.0
O317 O 0.60595 0.77616 0.45702 0.0
C318 C 0.5319 0.71115 0.50805 0.0
O319 O 0.61892 0.73844 0.46471 0.0
O320 O 0.57538 0.7223 0.45797 0.0
O321 O 0.59077 0.72188 0.54897 0.0
O322 O 0.61229 0.71853 0.51233 0.0
C323 C 0.56452 0.78194 0.51189 0.0
O324 O 0.54068 0.72666 0.48726 0.0
O325 O 0.54703 0.71471 0.52855 0.0
C326 C 0.59701 0.72213 0.45243 0.0
O327 O 0.57267 0.77956 0.48838 0.0
O328 O 0.56364 0.76719 0.53211 0.0
C329 C 0.63242 0.77858 0.5521 0.0
Fe330 Fe 0.39265 0.54403 0.87375 0.0
Fe331 Fe 0.4014 0.50537 0.91185 0.0
O332 O 0.39731 0.53434 0.90748 0.0
Fe333 Fe 0.39773 0.55283 0.93733 0.0
O334 O 0.37279 0.56173 0.92463 0.0
O335 O 0.3615 0.54377 0.88311 0.0
O336 O 0.37048 0.50837 0.86249 0.0
C337 C 0.35815 0.4864 0.87644 0.0
C338 C 0.42797 0.59506 0.90078 0.0
O339 O 0.36758 0.48338 0.89898 0.0
C340 C 0.44089 0.54206 0.94578 0.0
O341 O 0.4233 0.54532 0.8599 0.0
O342 O 0.41587 0.50683 0.8778 0.0
O343 O 0.42569 0.58439 0.92423 0.0
O344 O 0.41358 0.58111 0.88035 0.0
C345 C 0.37004 0.50118 0.95883 0.0
O346 O 0.43561 0.5266 0.92505 0.0
O347 O 0.42345 0.54779 0.95513 0.0
C348 C 0.42747 0.52544 0.86008 0.0
O349 O 0.38728 0.49682 0.94692 0.0
O350 O 0.36932 0.52258 0.95324 0.0
C351 C 0.35736 0.55477 0.90372 0.0
Fe352 Fe 0.57032 0.93504 0.87498 0.0
Fe353 Fe 0.61091 0.98202 0.91255 0.0
O354 O 0.58159 0.94908 0.90864 0.0
Fe355 Fe 0.56426 0.93081 0.93884 0.0
O356 O 0.55421 0.89682 0.92532 0.0
O357 O 0.57052 0.90381 0.88313 0.0
O358 O 0.60525 0.94832 0.86204 0.0
C359 C 0.62776 0.95768 0.87496 0.0
C360 C 0.52084 0.91971 0.9044 0.0
O361 O 0.63192 0.96995 0.89782 0.0
C362 C 0.57643 0.9851 0.94904 0.0
O363 O 0.56888 0.96479 0.86234 0.0
O364 O 0.60816 0.99552 0.87919 0.0
O365 O 0.5325 0.92791 0.92752 0.0
O366 O 0.53376 0.91914 0.88323 0.0
C367 C 0.61648 0.95408 0.95838 0.0
O368 O 0.59068 0.99523 0.92761 0.0
O369 O 0.57068 0.96162 0.95762 0.0
C370 C 0.58895 0.9888 0.86223 0.0
O371 O 0.62083 0.9759 0.94679 0.0
O372 O 0.59481 0.93203 0.95305 0.0
C373 C 0.56006 0.88838 0.90368 0.0
Fe374 Fe 0.18303 0.71906 0.87409 0.0
Fe375 Fe 0.18434 0.71616 0.93719 0.0
O376 O 0.16731 0.71669 0.90658 0.0
Fe377 Fe 0.13528 0.71535 0.90821 0.0
O378 O 0.11882 0.68632 0.88468 0.0
O379 O 0.15132 0.70113 0.85394 0.0
O380 O 0.18191 0.68654 0.87932 0.0
C381 C 0.19316 0.68234 0.89992 0.0
C382 C 0.1665 0.757 0.86993 0.0
O383 O 0.19957 0.69755 0.92114 0.0
C384 C 0.15978 0.74718 0.95449 0.0
O385 O 0.21812 0.73821 0.88717 0.0
O386 O 0.21409 0.74931 0.92951 0.0
O387 O 0.14355 0.74001 0.88011 0.0
O388 O 0.18547 0.75158 0.86779 0.0
C389 C 0.13139 0.67657 0.94812 0.0
O390 O 0.17194 0.73404 0.95935 0.0
O391 O 0.14767 0.74426 0.93182 0.0
C392 C 0.22808 0.75388 0.90784 0.0
O393 O 0.1562 0.68332 0.94684 0.0
O394 O 0.12242 0.6907 0.93673 0.0
C395 C 0.12658 0.68602 0.86038 0.0
C396 C 0.21221 0.13887 0.81736 0.0
C397 C 0.2171 0.12836 0.84168 0.0
C398 C 0.19955 0.15461 0.81833 0.0
C399 C 0.15588 0.16991 0.86363 0.0
H400 H 0.17226 0.22608 0.80891 0.0
C401 C 0.10441 0.23621 0.86423 0.0
C402 C 0.09301 0.23759 0.83884 0.0
C403 C 0.12203 0.22563 0.86562 0.0
C404 C 0.16742 0.21041 0.82428 0.0
H405 H 0.21319 0.1271 0.88627 0.0
H406 H 0.19185 0.15529 0.88808 0.0
H407 H 0.19893 0.20316 0.81014 0.0
H408 H 0.09227 0.22998 0.79483 0.0
H409 H 0.12337 0.21201 0.79724 0.0
H410 H 0.12452 0.1775 0.87786 0.0
C411 C 0.19717 0.15074 0.86811 0.0
C412 C 0.18262 0.19712 0.82495 0.0
C413 C 0.20963 0.1347 0.86711 0.0
C414 C 0.10059 0.22918 0.81474 0.0
C415 C 0.11851 0.21896 0.81609 0.0
C416 C 0.14092 0.18346 0.86317 0.0
C417 C 0.19163 0.16065 0.84368 0.0
C418 C 0.17681 0.17634 0.84435 0.0
C419 C 0.12903 0.21658 0.84161 0.0
C420 C 0.14625 0.20359 0.84325 0.0
H421 H 0.21749 0.13433 0.79734 0.0
H422 H 0.19526 0.16133 0.799 0.0
H423 H 0.1504 0.15378 0.8786 0.0
H424 H 0.09904 0.24247 0.88323 0.0
H425 H 0.13002 0.22432 0.88554 0.0
C426 C 0.97141 0.16015 0.81973 0.0
C427 C 0.98293 0.17606 0.84363 0.0
C428 C 0.95585 0.13166 0.82125 0.0
C429 C 0.94256 0.07325 0.86696 0.0
H430 H 0.88462 0.03235 0.81406 0.0
C431 C 0.87656 0.95491 0.86922 0.0
C432 C 0.87421 0.94178 0.8438 0.0
C433 C 0.88723 0.98323 0.87044 0.0
C434 C 0.90079 0.04349 0.82893 0.0
H435 H 0.9862 0.17419 0.8881 0.0
H436 H 0.95831 0.1245 0.89091 0.0
H437 H 0.90735 0.08208 0.81467 0.0
H438 H 0.88028 0.94821 0.79961 0.0
H439 H 0.89837 0.99746 0.80173 0.0
H440 H 0.93562 0.03443 0.88133 0.0
C441 C 0.96192 0.13405 0.8708 0.0
C442 C 0.91398 0.07207 0.82923 0.0
C443 C 0.97778 0.16264 0.86924 0.0
C444 C 0.88182 0.95759 0.81955 0.0
C445 C 0.89211 0.98584 0.82074 0.0
C446 C 0.9291 0.04463 0.86687 0.0
C447 C 0.95098 0.11809 0.84676 0.0
C448 C 0.93541 0.08746 0.84794 0.0
C449 C 0.8954 0.99908 0.84624 0.0
C450 C 0.90834 0.02942 0.84759 0.0
H451 H 0.975 0.16962 0.79956 0.0
H452 H 0.94834 0.1203 0.80216 0.0
H453 H 0.95917 0.08419 0.8814 0.0
H454 H 0.87096 0.94344 0.88834 0.0
H455 H 0.88926 0.99278 0.89038 0.0
C456 C 0.9491 0.90163 0.87334 0.0
C457 C 0.93514 0.89254 0.84803 0.0
C458 C 0.97764 0.91423 0.87442 0.0
C459 C 0.03823 0.92627 0.83217 0.0
H460 H 0.07745 0.9881 0.88134 0.0
C461 C 0.15184 0.00886 0.81791 0.0
C462 C 0.16843 0.0179 0.84165 0.0
C463 C 0.12373 0.99083 0.8201 0.0
C464 C 0.06679 0.97068 0.86771 0.0
H465 H 0.94055 0.88936 0.80404 0.0
H466 H 0.98971 0.91176 0.80579 0.0
H467 H 0.02782 0.96179 0.88296 0.0
H468 H 0.16836 0.01445 0.88632 0.0
H469 H 0.11928 0.98334 0.89007 0.0
H470 H 0.07734 0.93604 0.81619 0.0
C471 C 0.97883 0.90868 0.82502 0.0
C472 C 0.03827 0.95546 0.86869 0.0
C473 C 0.95044 0.89591 0.82399 0.0
C474 C 0.15627 0.00792 0.86758 0.0
C475 C 0.1281 0.99022 0.86978 0.0
C476 C 0.06671 0.94173 0.83094 0.0
C477 C 0.99296 0.91824 0.85019 0.0
C478 C 0.0235 0.9332 0.8507 0.0
C479 C 0.11147 0.9817 0.8461 0.0
C480 C 0.08131 0.96426 0.8485 0.0
H481 H 0.93803 0.89931 0.89229 0.0
H482 H 0.98766 0.92088 0.89428 0.0
H483 H 0.02778 0.90893 0.81841 0.0
H484 H 0.16049 0.01609 0.79763 0.0
H485 H 0.11144 0.98476 0.80148 0.0
C486 C 0.99003 0.9019 0.25817 0.0
C487 C 0.99907 0.89519 0.23394 0.0
C488 C 0.9721 0.9121 0.25679 0.0
C489 C 0.95171 0.9503 0.21102 0.0
H490 H 0.89139 0.9272 0.26184 0.0
C491 C 0.88258 0.99866 0.20849 0.0
C492 C 0.87414 1.00357 0.2341 0.0
C493 C 0.89522 0.98282 0.20687 0.0
C494 C 0.90832 0.93417 0.24767 0.0
H495 H 0.9957 0.89339 0.18924 0.0
H496 H 0.96464 0.9115 0.18688 0.0
H497 H 0.91815 0.90437 0.26229 0.0
H498 H 0.87215 0.9952 0.27806 0.0
H499 H 0.89462 0.96845 0.27534 0.0
H500 H 0.94268 0.98075 0.19703 0.0
C501 C 0.9715 0.90886 0.20694 0.0
C502 C 0.9236 0.92095 0.24788 0.0
C503 C 0.98916 0.89831 0.20832 0.0
C504 C 0.87821 0.9918 0.25792 0.0
C505 C 0.89101 0.97621 0.25633 0.0
C506 C 0.93664 0.96375 0.21101 0.0
C507 C 0.96299 0.91615 0.23114 0.0
C508 C 0.94563 0.92901 0.22973 0.0
C509 C 0.89993 0.97163 0.23083 0.0
C510 C 0.91488 0.95609 0.22955 0.0
H511 H 0.99717 0.89973 0.27826 0.0
H512 H 0.9661 0.91769 0.27581 0.0
H513 H 0.96877 0.95723 0.19699 0.0
H514 H 0.87968 0.00726 0.18969 0.0
H515 H 0.90132 0.97941 0.18677 0.0
C516 C 0.12438 0.9687 0.21064 0.0
C517 C 0.1084 0.95541 0.23385 0.0
C518 C 0.14045 0.99734 0.21001 0.0
C519 C 0.16513 0.0596 0.2561 0.0
H520 H 0.18126 0.09725 0.18599 0.0
C521 C 0.22282 0.17762 0.2536 0.0
C522 C 0.21759 0.19064 0.23178 0.0
C523 C 0.2131 0.14945 0.25268 0.0
C524 C 0.17662 0.08729 0.20591 0.0
H525 H 0.09595 0.9617 0.27415 0.0
H526 H 0.12198 0.01097 0.27243 0.0
H527 H 0.15642 0.04795 0.18679 0.0
H528 H 0.19801 0.18453 0.19194 0.0
H529 H 0.17935 0.13545 0.19104 0.0
H530 H 0.18298 0.09862 0.27538 0.0
C531 C 0.12376 0.9998 0.25521 0.0
C532 C 0.16273 0.05864 0.20634 0.0
C533 C 0.10848 0.97131 0.25616 0.0
C534 C 0.20266 0.17503 0.2089 0.0
C535 C 0.19209 0.14673 0.20838 0.0
C536 C 0.17818 0.08814 0.25571 0.0
C537 C 0.14025 0.01346 0.23224 0.0
C538 C 0.15647 0.04421 0.23148 0.0
C539 C 0.19689 0.13328 0.23038 0.0
C540 C 0.18407 0.10262 0.23062 0.0
H541 H 0.12473 0.95694 0.19315 0.0
H542 H 0.15309 0.00668 0.19208 0.0
H543 H 0.16171 0.04972 0.276 0.0
H544 H 0.23446 0.18926 0.27141 0.0
H545 H 0.21825 0.14049 0.2697 0.0
C546 C 0.14123 0.23613 0.25718 0.0
C547 C 0.15586 0.23924 0.23267 0.0
C548 C 0.1128 0.22291 0.25699 0.0
C549 C 0.05202 0.20127 0.21351 0.0
H550 H 0.01639 0.14535 0.26938 0.0
C551 C 0.93536 0.12402 0.21272 0.0
C552 C 0.92212 0.11392 0.23814 0.0
C553 C 0.96367 0.14142 0.21164 0.0
C554 C 0.02585 0.16121 0.25393 0.0
H555 H 0.15172 0.23175 0.18849 0.0
H556 H 0.10183 0.20884 0.1882 0.0
H557 H 0.06581 0.17191 0.2679 0.0
H558 H 0.92813 0.11561 0.28249 0.0
H559 H 0.97711 0.14666 0.28076 0.0
H560 H 0.012 0.19084 0.19975 0.0
C561 C 0.11261 0.21664 0.20755 0.0
C562 C 0.05429 0.17637 0.25302 0.0
C563 C 0.14119 0.2297 0.20775 0.0
C564 C 0.93769 0.12273 0.26253 0.0
C565 C 0.9659 0.14039 0.26148 0.0
C566 C 0.02345 0.18628 0.21461 0.0
C567 C 0.0981 0.21259 0.2323 0.0
C568 C 0.06775 0.19659 0.23284 0.0
C569 C 0.97945 0.14943 0.23599 0.0
C570 C 0.00992 0.16601 0.23488 0.0
H571 H 0.15169 0.24331 0.27679 0.0
H572 H 0.10225 0.2205 0.27633 0.0
H573 H 0.06181 0.21686 0.19783 0.0
H574 H 0.92402 0.11757 0.1935 0.0
H575 H 0.97325 0.14768 0.19159 0.0
C576 C 0.87118 0.4676 0.15157 0.0
C577 C 0.88761 0.46766 0.17341 0.0
C578 C 0.8597 0.48434 0.15222 0.0
C579 C 0.84033 0.5223 0.2007 0.0
H580 H 0.82338 0.54589 0.13203 0.0
C581 C 0.75485 0.54846 0.19434 0.0
C582 C 0.75609 0.56746 0.17486 0.0
C583 C 0.77468 0.54076 0.19495 0.0
C584 C 0.82826 0.53998 0.15153 0.0
H585 H 0.90563 0.48636 0.21276 0.0
H586 H 0.88606 0.51635 0.21363 0.0
H587 H 0.85282 0.52632 0.13153 0.0
H588 H 0.77972 0.5939 0.14118 0.0
H589 H 0.81499 0.58115 0.14275 0.0
H590 H 0.81646 0.53676 0.2208 0.0
C591 C 0.88158 0.50274 0.1962 0.0
C592 C 0.84488 0.52827 0.15119 0.0
C593 C 0.89296 0.48567 0.19565 0.0
C594 C 0.77803 0.57901 0.15627 0.0
C595 C 0.7982 0.57158 0.15714 0.0
C596 C 0.82404 0.53442 0.20109 0.0
C597 C 0.86452 0.50207 0.17457 0.0
C598 C 0.8504 0.51838 0.17563 0.0
C599 C 0.79668 0.55214 0.17638 0.0
C600 C 0.81701 0.54263 0.1764 0.0
H601 H 0.86648 0.45404 0.13404 0.0
H602 H 0.84625 0.4826 0.13546 0.0
H603 H 0.844 0.51497 0.21997 0.0
H604 H 0.73814 0.53899 0.20888 0.0
H605 H 0.77224 0.52526 0.20962 0.0
C606 C 0.54692 0.28999 0.15051 0.0
C607 C 0.53731 0.27354 0.17423 0.0
C608 C 0.55724 0.31816 0.15214 0.0
C609 C 0.56218 0.37428 0.19685 0.0
H610 H 0.62675 0.41798 0.15282 0.0
C611 C 0.63282 0.49336 0.20641 0.0
C612 C 0.64312 0.50751 0.18141 0.0
C613 C 0.61736 0.46465 0.20667 0.0
C614 C 0.60856 0.40613 0.16505 0.0
H615 H 0.53003 0.27389 0.21817 0.0
H616 H 0.5485 0.32319 0.22109 0.0
H617 H 0.60457 0.36856 0.15096 0.0
H618 H 0.64349 0.50259 0.13697 0.0
H619 H 0.61661 0.45311 0.13745 0.0
H620 H 0.56672 0.41232 0.2112 0.0
C621 C 0.54779 0.31422 0.20113 0.0
C622 C 0.59574 0.37768 0.16392 0.0
C623 C 0.53726 0.28591 0.19946 0.0
C624 C 0.63633 0.49242 0.15667 0.0
C625 C 0.62098 0.46396 0.15693 0.0
C626 C 0.57517 0.40292 0.19808 0.0
C627 C 0.55851 0.33082 0.17758 0.0
C628 C 0.57217 0.36128 0.17951 0.0
C629 C 0.61194 0.44961 0.18194 0.0
C630 C 0.59834 0.41918 0.18189 0.0
H631 H 0.54698 0.28118 0.13066 0.0
H632 H 0.5646 0.3301 0.13341 0.0
H633 H 0.54402 0.36235 0.20908 0.0
H634 H 0.63766 0.50435 0.22583 0.0
H635 H 0.61066 0.45421 0.22629 0.0
C636 C 0.61438 0.23947 0.19983 0.0
C637 C 0.59981 0.22599 0.17582 0.0
C638 C 0.64295 0.25313 0.2002 0.0
C639 C 0.70357 0.2607 0.16181 0.0
H640 H 0.74041 0.3314 0.19789 0.0
C641 C 0.81893 0.34025 0.14648 0.0
C642 C 0.83344 0.35543 0.16985 0.0
C643 C 0.79062 0.32247 0.14777 0.0
C644 C 0.73051 0.31155 0.18798 0.0
H645 H 0.60414 0.2156 0.13365 0.0
H646 H 0.65359 0.23959 0.13422 0.0
H647 H 0.691 0.30386 0.19989 0.0
H648 H 0.82958 0.36266 0.21323 0.0
H649 H 0.78071 0.33179 0.21542 0.0
H650 H 0.74327 0.26877 0.14954 0.0
C651 C 0.64306 0.23943 0.15291 0.0
C652 C 0.70209 0.29567 0.1892 0.0
C653 C 0.61456 0.22576 0.15255 0.0
C654 C 0.81911 0.35162 0.19469 0.0
C655 C 0.79097 0.33398 0.19594 0.0
C656 C 0.73206 0.27667 0.16051 0.0
C657 C 0.65771 0.25368 0.17658 0.0
C658 C 0.68817 0.27002 0.17612 0.0
C659 C 0.77623 0.31953 0.17242 0.0
C660 C 0.7459 0.3023 0.17361 0.0
H661 H 0.60377 0.24002 0.21818 0.0
H662 H 0.65349 0.26346 0.21898 0.0
H663 H 0.69364 0.24093 0.15176 0.0
H664 H 0.82929 0.34263 0.12703 0.0
H665 H 0.77989 0.31172 0.12922 0.0
C666 C 0.65657 0.23266 0.54431 0.0
C667 C 0.66581 0.22863 0.56991 0.0
C668 C 0.63919 0.24357 0.54304 0.0
C669 C 0.61741 0.28395 0.58606 0.0
H670 H 0.56381 0.26611 0.52801 0.0
C671 C 0.54058 0.32171 0.5897 0.0
C672 C 0.5383 0.3347 0.56587 0.0
C673 C 0.55429 0.30698 0.58894 0.0
C674 C 0.57883 0.27139 0.54424 0.0
H675 H 0.66263 0.23134 0.61426 0.0
H676 H 0.63157 0.24915 0.61217 0.0
H677 H 0.59031 0.24282 0.52965 0.0
H678 H 0.54772 0.34113 0.52215 0.0
H679 H 0.57144 0.31491 0.52082 0.0
H680 H 0.60558 0.3121 0.6009 0.0
C681 C 0.63852 0.24499 0.59294 0.0
C682 C 0.59411 0.25811 0.54518 0.0
C683 C 0.65619 0.2345 0.59419 0.0
C684 C 0.54911 0.33148 0.54091 0.0
C685 C 0.56265 0.31641 0.54012 0.0
C686 C 0.60195 0.2969 0.5853 0.0
C687 C 0.63031 0.2504 0.56735 0.0
C688 C 0.6136 0.26415 0.56619 0.0
C689 C 0.56591 0.30454 0.5643 0.0
C690 C 0.58242 0.29075 0.56446 0.0
H691 H 0.66368 0.22849 0.52518 0.0
H692 H 0.63359 0.24758 0.52293 0.0
H693 H 0.63269 0.28987 0.6021 0.0
H694 H 0.53242 0.32349 0.6093 0.0
H695 H 0.55607 0.29772 0.60783 0.0
C696 C 0.77935 0.30472 0.54247 0.0
C697 C 0.77563 0.29059 0.56749 0.0
C698 C 0.79427 0.33341 0.54179 0.0
C699 C 0.81246 0.39229 0.58673 0.0
H700 H 0.86786 0.4351 0.53258 0.0
C701 C 0.87445 0.50938 0.59608 0.0
C702 C 0.88118 0.52498 0.57177 0.0
C703 C 0.86389 0.48112 0.59492 0.0
C704 C 0.8522 0.42352 0.54767 0.0
H705 H 0.78578 0.29591 0.61124 0.0
H706 H 0.81127 0.34548 0.60997 0.0
H707 H 0.84472 0.38519 0.53083 0.0
H708 H 0.88269 0.52303 0.52712 0.0
H709 H 0.86349 0.47371 0.525 0.0
H710 H 0.81897 0.4301 0.60317 0.0
C711 C 0.80253 0.33442 0.59092 0.0
C712 C 0.839 0.39488 0.54667 0.0
C713 C 0.78797 0.3059 0.59156 0.0
C714 C 0.87787 0.51168 0.54628 0.0
C715 C 0.8669 0.4833 0.54509 0.0
C716 C 0.82532 0.42079 0.58753 0.0
C717 C 0.80549 0.34857 0.56617 0.0
C718 C 0.81916 0.37896 0.56637 0.0
C719 C 0.85927 0.46749 0.56938 0.0
C720 C 0.84559 0.43693 0.56819 0.0
H721 H 0.7702 0.29366 0.52353 0.0
H722 H 0.79617 0.34376 0.5224 0.0
H723 H 0.79691 0.38061 0.60192 0.0
H724 H 0.877 0.51898 0.61608 0.0
H725 H 0.85909 0.46994 0.61417 0.0
C726 C 0.60285 0.45378 0.59281 0.0
C727 C 0.58662 0.44498 0.56882 0.0
C728 C 0.63092 0.47212 0.59112 0.0
C729 C 0.68881 0.49385 0.54451 0.0
H730 H 0.72613 0.55498 0.59487 0.0
C731 C 0.8064 0.56441 0.54124 0.0
C732 C 0.81987 0.57339 0.56681 0.0
C733 C 0.77786 0.55142 0.53964 0.0
C734 C 0.71616 0.53782 0.58083 0.0
H735 H 0.58729 0.44909 0.52421 0.0
H736 H 0.63638 0.48075 0.5213 0.0
H737 H 0.67659 0.52722 0.59609 0.0
H738 H 0.81358 0.57593 0.61071 0.0
H739 H 0.76441 0.55283 0.60806 0.0
H740 H 0.72825 0.50356 0.52997 0.0
C741 C 0.62728 0.47346 0.54141 0.0
C742 C 0.68769 0.52199 0.58148 0.0
C743 C 0.59912 0.45546 0.54313 0.0
C744 C 0.80408 0.56949 0.59058 0.0
C745 C 0.77567 0.55632 0.58903 0.0
C746 C 0.71733 0.50944 0.54411 0.0
C747 C 0.64354 0.4818 0.56536 0.0
C748 C 0.67369 0.49966 0.56352 0.0
C749 C 0.76203 0.54687 0.5636 0.0
C750 C 0.7315 0.53149 0.5625 0.0
H751 H 0.59393 0.44617 0.61293 0.0
H752 H 0.64292 0.47803 0.60993 0.0
H753 H 0.67862 0.4766 0.53058 0.0
H754 H 0.81787 0.56713 0.52249 0.0
H755 H 0.76824 0.54487 0.51959 0.0
C756 C 0.55027 0.81343 0.49106 0.0
C757 C 0.5531 0.80049 0.51463 0.0
C758 C 0.53722 0.82876 0.49254 0.0
C759 C 0.48863 0.83845 0.53599 0.0
H760 H 0.50805 0.89869 0.48557 0.0
C761 C 0.43393 0.90202 0.53536 0.0
C762 C 0.42439 0.90454 0.50928 0.0
C763 C 0.452 0.89203 0.53777 0.0
C764 C 0.50237 0.88188 0.49975 0.0
H765 H 0.54514 0.79456 0.5586 0.0
H766 H 0.5231 0.82213 0.56142 0.0
H767 H 0.53602 0.8772 0.48764 0.0
H768 H 0.42727 0.8995 0.46523 0.0
H769 H 0.45926 0.88269 0.46944 0.0
H770 H 0.45513 0.84356 0.54824 0.0
C771 C 0.53039 0.81978 0.54154 0.0
C772 C 0.51832 0.86941 0.50088 0.0
C773 C 0.54327 0.80413 0.54 0.0
C774 C 0.43415 0.89778 0.48563 0.0
C775 C 0.45257 0.88824 0.48803 0.0
C776 C 0.47292 0.85122 0.53513 0.0
C777 C 0.52683 0.83202 0.51772 0.0
C778 C 0.51139 0.8471 0.51859 0.0
C779 C 0.46134 0.88481 0.51414 0.0
C780 C 0.47933 0.87275 0.51664 0.0
H781 H 0.55741 0.81107 0.47108 0.0
H782 H 0.53453 0.83729 0.47359 0.0
H783 H 0.48229 0.82115 0.54962 0.0
H784 H 0.4268 0.90696 0.55403 0.0
H785 H 0.45857 0.88982 0.55815 0.0
C786 C 0.30249 0.82711 0.48414 0.0
C787 C 0.31434 0.84223 0.50842 0.0
C788 C 0.28793 0.79858 0.48456 0.0
C789 C 0.25064 0.73785 0.52824 0.0
H790 H 0.2719 0.70304 0.47243 0.0
C791 C 0.21211 0.62117 0.52854 0.0
C792 C 0.20922 0.60798 0.50308 0.0
C793 C 0.22302 0.64954 0.52978 0.0
C794 C 0.26522 0.71223 0.48786 0.0
H795 H 0.31892 0.83885 0.55251 0.0
H796 H 0.29296 0.78876 0.55324 0.0
H797 H 0.29385 0.75251 0.4739 0.0
H798 H 0.21414 0.61415 0.45881 0.0
H799 H 0.232 0.66318 0.46078 0.0
H800 H 0.22158 0.69754 0.5419 0.0
C801 C 0.29524 0.79924 0.53386 0.0
C802 C 0.278 0.74072 0.48879 0.0
C803 C 0.31015 0.82793 0.53341 0.0
C804 C 0.21636 0.62367 0.47881 0.0
C805 C 0.22688 0.65192 0.48 0.0
C806 C 0.23753 0.70923 0.52711 0.0
C807 C 0.2845 0.78427 0.5093 0.0
C808 C 0.27086 0.75389 0.50892 0.0
C809 C 0.23103 0.66543 0.50554 0.0
C810 C 0.24459 0.69597 0.50683 0.0
H811 H 0.30506 0.83725 0.46448 0.0
H812 H 0.27957 0.78766 0.46537 0.0
H813 H 0.24458 0.74742 0.54389 0.0
H814 H 0.20694 0.60975 0.54768 0.0
H815 H 0.22607 0.65905 0.54988 0.0
C816 C 0.28562 0.56293 0.48556 0.0
C817 C 0.26954 0.55871 0.50917 0.0
C818 C 0.31402 0.57637 0.48741 0.0
C819 C 0.37161 0.62346 0.53304 0.0
H820 H 0.41355 0.60736 0.48097 0.0
C821 C 0.48997 0.67883 0.53484 0.0
C822 C 0.50256 0.68988 0.50933 0.0
C823 C 0.46185 0.66061 0.53631 0.0
C824 C 0.4021 0.61211 0.49561 0.0
H825 H 0.27102 0.56458 0.55353 0.0
H826 H 0.32064 0.58726 0.55695 0.0
H827 H 0.36407 0.5788 0.48179 0.0
H828 H 0.49546 0.68956 0.46525 0.0
H829 H 0.44652 0.65728 0.4678 0.0
H830 H 0.40994 0.65659 0.54703 0.0
C831 C 0.31125 0.5808 0.53679 0.0
C832 C 0.37366 0.59583 0.49604 0.0
C833 C 0.28271 0.56756 0.53489 0.0
C834 C 0.48646 0.68151 0.48524 0.0
C835 C 0.45842 0.66293 0.48667 0.0
C836 C 0.4001 0.63948 0.53288 0.0
C837 C 0.32737 0.58576 0.51299 0.0
C838 C 0.35789 0.60156 0.51438 0.0
C839 C 0.44572 0.65259 0.51227 0.0
C840 C 0.41563 0.63428 0.51384 0.0
H841 H 0.27634 0.55661 0.46532 0.0
H842 H 0.32549 0.58016 0.46848 0.0
H843 H 0.36034 0.62889 0.5472 0.0
H844 H 0.50171 0.68486 0.55382 0.0
H845 H 0.45266 0.65282 0.5563 0.0
C846 C 0.20801 0.65365 0.87297 0.0
C847 C 0.20339 0.6628 0.89834 0.0
C848 C 0.22163 0.63863 0.8722 0.0
C849 C 0.27147 0.63025 0.91356 0.0
H850 H 0.25267 0.56698 0.86779 0.0
C851 C 0.32849 0.57122 0.92645 0.0
C852 C 0.33563 0.56217 0.90254 0.0
C853 C 0.31018 0.5809 0.92509 0.0
C854 C 0.25837 0.58481 0.88049 0.0
H855 H 0.20759 0.66147 0.94281 0.0
H856 H 0.2309 0.63541 0.94141 0.0
H857 H 0.2244 0.58848 0.86623 0.0
H858 H 0.32814 0.55529 0.8585 0.0
H859 H 0.29658 0.57273 0.85602 0.0
H860 H 0.30555 0.62721 0.92753 0.0
C861 C 0.2247 0.64032 0.92208 0.0
C862 C 0.24213 0.59709 0.87959 0.0
C863 C 0.2112 0.6552 0.92286 0.0
C864 C 0.32312 0.56209 0.87735 0.0
C865 C 0.30491 0.57202 0.87594 0.0
C866 C 0.2877 0.61816 0.91433 0.0
C867 C 0.23087 0.63256 0.89677 0.0
C868 C 0.24832 0.61976 0.89643 0.0
C869 C 0.29864 0.58212 0.89972 0.0
C870 C 0.28125 0.59505 0.89812 0.0
H871 H 0.20226 0.65915 0.85372 0.0
H872 H 0.22604 0.6329 0.85236 0.0
H873 H 0.27724 0.64808 0.9263 0.0
H874 H 0.33741 0.57126 0.94628 0.0
H875 H 0.30532 0.58776 0.94399 0.0
C876 C 0.54513 0.84267 0.92536 0.0
C877 C 0.55194 0.85902 0.90154 0.0
C878 C 0.53523 0.81455 0.92328 0.0
C879 C 0.49771 0.75656 0.87653 0.0
H880 H 0.52243 0.71925 0.92555 0.0
C881 C 0.45012 0.63863 0.87272 0.0
C882 C 0.44614 0.6252 0.8982 0.0
C883 C 0.46571 0.66724 0.87112 0.0
C884 C 0.51499 0.72921 0.91188 0.0
H885 H 0.55406 0.85852 0.85681 0.0
H886 H 0.53636 0.80932 0.85323 0.0
H887 H 0.54448 0.76891 0.92697 0.0
H888 H 0.45592 0.63165 0.94195 0.0
H889 H 0.4821 0.68095 0.93933 0.0
H890 H 0.46748 0.71697 0.86218 0.0
C891 C 0.53878 0.81837 0.87351 0.0
C892 C 0.52778 0.75776 0.91264 0.0
C893 C 0.54911 0.84659 0.8756 0.0
C894 C 0.45858 0.64112 0.92188 0.0
C895 C 0.47387 0.6696 0.92034 0.0
C896 C 0.48464 0.72796 0.87601 0.0
C897 C 0.53151 0.80198 0.89731 0.0
C898 C 0.51912 0.77176 0.89519 0.0
C899 C 0.47757 0.68319 0.895 0.0
C900 C 0.49284 0.7138 0.89395 0.0
H901 H 0.54707 0.85153 0.94566 0.0
H902 H 0.52965 0.80248 0.942 0.0
H903 H 0.49037 0.76673 0.863 0.0
H904 H 0.44096 0.62708 0.85402 0.0
H905 H 0.4684 0.67683 0.85114 0.0
C906 C 0.2716 0.789 0.93138 0.0
C907 C 0.25748 0.77507 0.90733 0.0
C908 C 0.29985 0.80722 0.93066 0.0
C909 C 0.36057 0.82142 0.88969 0.0
H910 H 0.39633 0.89005 0.92967 0.0
C911 C 0.47613 0.89551 0.87866 0.0
C912 C 0.49072 0.9077 0.90305 0.0
C913 C 0.44758 0.88164 0.87843 0.0
C914 C 0.3867 0.87084 0.91855 0.0
H915 H 0.26191 0.77056 0.8634 0.0
H916 H 0.31065 0.8022 0.86219 0.0
H917 H 0.34672 0.86138 0.93148 0.0
H918 H 0.48646 0.91569 0.94612 0.0
H919 H 0.43696 0.89131 0.94576 0.0
H920 H 0.40032 0.83046 0.87708 0.0
C921 C 0.30015 0.79867 0.88174 0.0
C922 C 0.35824 0.8544 0.91962 0.0
C923 C 0.27209 0.78058 0.88244 0.0
C924 C 0.476 0.90654 0.92691 0.0
C925 C 0.4475 0.89264 0.92669 0.0
C926 C 0.38893 0.83776 0.88869 0.0
C927 C 0.31453 0.81185 0.90589 0.0
C928 C 0.34481 0.82951 0.90513 0.0
C929 C 0.43285 0.87955 0.9026 0.0
C930 C 0.40244 0.86271 0.90306 0.0
H931 H 0.261 0.7853 0.95088 0.0
H932 H 0.31031 0.81698 0.94967 0.0
H933 H 0.351 0.80213 0.87871 0.0
H934 H 0.48672 0.89608 0.85986 0.0
H935 H 0.43702 0.87227 0.85934 0.0
C936 C 0.06851 0.33996 0.75237 0.0
C937 C 0.07397 0.31917 0.76011 0.0
C938 C 0.08136 0.35675 0.72963 0.0
C939 C 0.14069 0.3839 0.68306 0.0
H940 H 0.09312 0.3946 0.63343 0.0
C941 C 0.17773 0.46702 0.59492 0.0
C942 C 0.16275 0.45891 0.57004 0.0
C943 C 0.16951 0.44927 0.61786 0.0
C944 C 0.10677 0.39178 0.64693 0.0
H945 H 0.09827 0.3006 0.75005 0.0
H946 H 0.1211 0.33038 0.71018 0.0
H947 H 0.07403 0.36515 0.67352 0.0
H948 H 0.12831 0.42494 0.54958 0.0
H949 H 0.11425 0.39451 0.58907 0.0
H950 H 0.17353 0.41096 0.65629 0.0
C951 C 0.1066 0.33341 0.72192 0.0
C952 C 0.0958 0.375 0.67011 0.0
C953 C 0.09342 0.31626 0.74469 0.0
C954 C 0.14025 0.43218 0.56838 0.0
C955 C 0.13204 0.41466 0.59116 0.0
C956 C 0.15179 0.40109 0.65991 0.0
C957 C 0.10036 0.3536 0.71384 0.0
C958 C 0.11254 0.37083 0.68859 0.0
C959 C 0.14605 0.42311 0.61647 0.0
C960 C 0.13491 0.40517 0.64145 0.0
H961 H 0.05386 0.34313 0.76367 0.0
H962 H 0.07632 0.37229 0.72435 0.0
H963 H 0.1542 0.38128 0.69694 0.0
H964 H 0.19513 0.4874 0.59705 0.0
H965 H 0.1808 0.45649 0.63703 0.0
C966 C 0.67874 0.79702 0.57348 0.0
C967 C 0.65201 0.79252 0.5754 0.0
C968 C 0.69633 0.80604 0.59628 0.0
C969 C 0.70978 0.83788 0.66586 0.0
H970 H 0.74622 0.79626 0.67775 0.0
C971 C 0.79452 0.86342 0.75046 0.0
C972 C 0.79199 0.84081 0.76523 0.0
C973 C 0.77734 0.85968 0.72776 0.0
C974 C 0.73622 0.80811 0.67483 0.0
H975 H 0.62357 0.79562 0.6029 0.0
H976 H 0.65457 0.81169 0.64288 0.0
H977 H 0.71678 0.78658 0.63768 0.0
H978 H 0.76875 0.79652 0.76771 0.0
H979 H 0.73948 0.7902 0.72846 0.0
H980 H 0.72942 0.85934 0.70336 0.0
C981 C 0.66176 0.80807 0.62351 0.0
C982 C 0.71945 0.80269 0.65166 0.0
C983 C 0.64397 0.79886 0.60056 0.0
C984 C 0.77158 0.81452 0.75691 0.0
C985 C 0.75475 0.81081 0.73421 0.0
C986 C 0.72695 0.84357 0.68901 0.0
C987 C 0.68792 0.811 0.62185 0.0
C988 C 0.70589 0.8174 0.6468 0.0
C989 C 0.7575 0.83324 0.71909 0.0
C990 C 0.7402 0.82855 0.69392 0.0
H991 H 0.68592 0.79272 0.55447 0.0
H992 H 0.71647 0.8086 0.59399 0.0
H993 H 0.69977 0.84969 0.66273 0.0
H994 H 0.80989 0.88396 0.75628 0.0
H995 H 0.78006 0.87742 0.71653 0.0
C996 C 0.29367 0.03982 0.75429 0.0
C997 C 0.26755 0.03459 0.76204 0.0
C998 C 0.29728 0.02681 0.73149 0.0
C999 C 0.26457 0.9675 0.68471 0.0
H1000 H 0.32203 0.01544 0.63459 0.0
C1001 C 0.31072 0.9314 0.59607 0.0
C1002 C 0.31723 0.94632 0.57122 0.0
C1003 C 0.301 0.93931 0.61902 0.0
C1004 C 0.30579 1.0017 0.64823 0.0
H1005 H 0.22456 0.01048 0.75203 0.0
H1006 H 0.23094 0.98732 0.71209 0.0
H1007 H 0.31215 0.03445 0.67507 0.0
H1008 H 0.31669 0.98016 0.55074 0.0
H1009 H 0.29994 0.9937 0.5903 0.0
H1010 H 0.2586 0.93464 0.65773 0.0
C1011 C 0.24861 1.00178 0.72385 0.0
C1012 C 0.30025 0.01262 0.67161 0.0
C1013 C 0.24497 0.01513 0.74668 0.0
C1014 C 0.31227 0.9683 0.56953 0.0
C1015 C 0.30275 0.97621 0.59233 0.0
C1016 C 0.27041 0.95644 0.66136 0.0
C1017 C 0.27492 0.00788 0.71569 0.0
C1018 C 0.27965 0.99573 0.69026 0.0
C1019 C 0.29771 0.96238 0.61766 0.0
C1020 C 0.29107 0.97347 0.64275 0.0
H1021 H 0.31164 0.05447 0.76556 0.0
H1022 H 0.31778 0.03173 0.72611 0.0
H1023 H 0.24867 0.9539 0.69873 0.0
H1024 H 0.31431 0.91441 0.59822 0.0
H1025 H 0.29733 0.92818 0.63821 0.0
C1026 C 0.4613 0.19759 0.0791 0.0
C1027 C 0.4555 0.17531 0.09636 0.0
C1028 C 0.44391 0.19466 0.05695 0.0
C1029 C 0.37359 0.14848 1.02897 0.0
H1030 H 0.4059 0.18162 0.95876 0.0
C1031 C 0.30658 0.13104 0.93143 0.0
C1032 C 0.31601 0.12528 0.90689 0.0
C1033 C 0.3236 0.14119 0.95482 0.0
C1034 C 0.39646 0.17214 0.97818 0.0
H1035 H 0.42627 0.13259 0.10396 0.0
H1036 H 0.39645 0.12749 0.06561 0.0
H1037 H 0.43499 0.19082 0.99917 0.0
H1038 H 0.35134 0.12707 0.88754 0.0
H1039 H 0.38063 0.14448 0.92788 0.0
H1040 H 0.3352 0.12893 1.00776 0.0
C1041 C 0.41421 0.14737 0.0692 0.0
C1042 C 0.41319 0.1777 1.00153 0.0
C1043 C 0.43155 0.15026 0.09119 0.0
C1044 C 0.34326 0.13118 0.90602 0.0
C1045 C 0.36021 0.14138 0.92925 0.0
C1046 C 0.35687 0.14293 1.00563 0.0
C1047 C 0.42016 0.16942 0.05155 0.0
C1048 C 0.40209 0.16555 1.02719 0.0
C1049 C 0.35054 0.14603 0.95423 0.0
C1050 C 0.36808 0.15427 0.97973 0.0
H1051 H 0.47949 0.21721 0.08243 0.0
H1052 H 0.44908 0.21222 0.04406 0.0
H1053 H 0.36414 0.13906 0.0484 0.0
H1054 H 0.28574 0.12671 0.93295 0.0
H1055 H 0.31548 0.14487 0.97352 0.0
C1056 C 0.98111 0.26415 0.93157 0.0
C1057 C 0.9904 0.28152 0.90842 0.0
C1058 C 0.97119 0.27109 0.95508 0.0
C1059 C 0.94779 0.31941 0.97909 0.0
H1060 H 0.96467 0.30361 0.05193 0.0
C1061 C 0.91545 0.35524 0.07651 0.0
C1062 C 0.93312 0.36417 0.09944 0.0
C1063 C 0.91945 0.34156 0.05443 0.0
C1064 C 0.95994 0.30848 1.03179 0.0
H1065 H 0.99591 0.31968 0.89204 0.0
H1066 H 0.97956 0.33186 0.93252 0.0
H1067 H 0.97717 0.2871 1.01119 0.0
H1068 H 0.96864 0.36501 0.11718 0.0
H1069 H 0.97625 0.34216 0.07847 0.0
H1070 H 0.93202 0.34205 0.99931 0.0
C1071 C 0.97921 0.31256 0.93266 0.0
C1072 C 0.96678 0.29855 1.00828 0.0
C1073 C 0.98888 0.3056 0.90928 0.0
C1074 C 0.95449 0.35832 0.09998 0.0
C1075 C 0.95877 0.34502 0.07767 0.0
C1076 C 0.94127 0.32956 1.00249 0.0
C1077 C 0.97035 0.2956 0.9561 0.0
C1078 C 0.96115 0.30417 0.98148 0.0
C1079 C 0.94159 0.33678 0.05425 0.0
C1080 C 0.94742 0.32453 1.02931 0.0
H1081 H 0.98199 0.24548 0.93177 0.0
H1082 H 0.96427 0.25723 0.97248 0.0
H1083 H 0.94249 0.32381 0.959 0.0
H1084 H 0.89861 0.35912 0.07544 0.0
H1085 H 0.9052 0.33498 1.03734 0.0
C1086 C 0.7541 0.6479 0.08379 0.0
C1087 C 0.74481 0.65673 0.10627 0.0
C1088 C 0.76785 0.66544 0.06165 0.0
C1089 C 0.80056 0.73892 1.03801 0.0
H1090 H 0.7869 0.7051 0.96575 0.0
C1091 C 0.84664 0.80342 0.93745 0.0
C1092 C 0.82987 0.79487 0.91378 0.0
C1093 C 0.83927 0.78685 0.96125 0.0
C1094 C 0.79083 0.7151 0.98566 0.0
H1095 H 0.7434 0.69146 0.12316 0.0
H1096 H 0.76639 0.72169 0.08428 0.0
H1097 H 0.76806 0.67681 1.00623 0.0
H1098 H 0.79235 0.76165 0.89681 0.0
H1099 H 0.77944 0.7336 0.93773 0.0
H1100 H 0.82209 0.77739 1.017 0.0
C1101 C 0.76373 0.70138 0.0839 0.0
C1102 C 0.78033 0.69866 1.0092 0.0
C1103 C 0.75036 0.68393 0.1063 0.0
C1104 C 0.80598 0.76906 0.91444 0.0
C1105 C 0.79859 0.75271 0.93809 0.0
C1106 C 0.81084 0.75543 1.01435 0.0
C1107 C 0.77235 0.69232 0.06092 0.0
C1108 C 0.78479 0.71021 1.03586 0.0
C1109 C 0.81491 0.7613 0.96206 0.0
C1110 C 0.80585 0.74381 0.98769 0.0
H1111 H 0.75049 0.62721 0.08313 0.0
H1112 H 0.77474 0.65768 0.04497 0.0
H1113 H 0.80498 0.7488 0.05802 0.0
H1114 H 0.86513 0.82316 0.93784 0.0
H1115 H 0.85266 0.79417 0.97904 0.0
C1116 C 0.94638 0.69968 0.50455 0.0
C1117 C 0.92448 0.67257 0.50379 0.0
C1118 C 0.95351 0.71655 0.48124 0.0
C1119 C 0.9477 0.71306 0.40465 0.0
H1120 H 0.9798 0.79155 0.41125 0.0
C1121 C 0.01353 0.78663 0.31765 0.0
C1122 C 0.01305 0.81093 0.31284 0.0
C1123 C 0.99955 0.7696 0.33998 0.0
C1124 C 0.97061 0.76966 0.40885 0.0
H1125 H 0.89231 0.64248 0.47769 0.0
H1126 H 0.90452 0.67205 0.43703 0.0
H1127 H 0.96031 0.7627 0.45182 0.0
H1128 H 0.99673 0.83589 0.32787 0.0
H1129 H 0.9721 0.80601 0.36684 0.0
H1130 H 0.95784 0.71997 0.36167 0.0
C1131 C 0.91648 0.68013 0.45571 0.0
C1132 C 0.95967 0.75305 0.4323 0.0
C1133 C 0.90926 0.6632 0.47917 0.0
C1134 C 0.99765 0.81741 0.33087 0.0
C1135 C 0.98365 0.80031 0.35338 0.0
C1136 C 0.95863 0.72966 0.38122 0.0
C1137 C 0.93903 0.70697 0.45624 0.0
C1138 C 0.94843 0.72449 0.43071 0.0
C1139 C 0.98452 0.77618 0.35837 0.0
C1140 C 0.97071 0.75829 0.38299 0.0
H1141 H 0.95866 0.70774 0.52305 0.0
H1142 H 0.97116 0.73685 0.48259 0.0
H1143 H 0.93947 0.69127 0.40243 0.0
H1144 H 0.0251 0.78082 0.30433 0.0
H1145 H 1.0012 0.75156 0.34319 0.0
C1146 C 0.32145 0.31675 0.31968 0.0
C1147 C 0.30084 0.29051 0.31149 0.0
C1148 C 0.33821 0.32037 0.3424 0.0
C1149 C 0.36554 0.28769 0.38808 0.0
H1150 H 0.37429 0.34403 0.43961 0.0
C1151 C 0.44727 0.33323 0.47763 0.0
C1152 C 0.43851 0.33896 0.50267 0.0
C1153 C 0.42981 0.32376 0.45445 0.0
C1154 C 0.37201 0.3281 0.42556 0.0
H1155 H 0.28261 0.24734 0.32055 0.0
H1156 H 0.31235 0.25374 0.36033 0.0
H1157 H 0.34545 0.33444 0.39905 0.0
H1158 H 0.40372 0.33728 0.52324 0.0
H1159 H 0.37374 0.32097 0.48328 0.0
H1160 H 0.39254 0.28171 0.41477 0.0
C1161 C 0.31525 0.2715 0.349 0.0
C1162 C 0.35559 0.32274 0.40213 0.0
C1163 C 0.29814 0.26785 0.32628 0.0
C1164 C 0.41143 0.33348 0.5043 0.0
C1165 C 0.39417 0.32421 0.48128 0.0
C1166 C 0.38237 0.29335 0.41148 0.0
C1167 C 0.33518 0.2979 0.35763 0.0
C1168 C 0.35214 0.30254 0.383 0.0
C1169 C 0.4033 0.31996 0.4558 0.0
C1170 C 0.38572 0.31359 0.4306 0.0
H1171 H 0.32443 0.33478 0.30884 0.0
H1172 H 0.35357 0.34095 0.34815 0.0
H1173 H 0.36343 0.27209 0.37368 0.0
H1174 H 0.46796 0.33723 0.47554 0.0
H1175 H 0.43751 0.32069 0.43514 0.0
C1176 C 0.77707 0.16427 0.50673 0.0
C1177 C 0.77137 0.18572 0.5045 0.0
C1178 C 0.78655 0.1561 0.48409 0.0
C1179 C 0.81763 0.17449 0.41445 0.0
H1180 H 0.77758 0.09604 0.40325 0.0
C1181 C 0.84429 0.11525 0.33092 0.0
C1182 C 0.8218 0.09494 0.31611 0.0
C1183 C 0.84044 0.12881 0.35342 0.0
C1184 C 0.789 0.11799 0.406 0.0
H1185 H 0.77288 0.21644 0.47668 0.0
H1186 H 0.78978 0.20221 0.43692 0.0
H1187 H 0.76747 0.11568 0.44305 0.0
H1188 H 0.77761 0.07363 0.31334 0.0
H1189 H 0.7711 0.09673 0.35225 0.0
H1190 H 0.83913 0.17652 0.37705 0.0
C1191 C 0.78674 0.19171 0.45642 0.0
C1192 C 0.78333 0.12928 0.42899 0.0
C1193 C 0.77706 0.19988 0.47923 0.0
C1194 C 0.79552 0.08897 0.32417 0.0
C1195 C 0.7917 0.10218 0.34666 0.0
C1196 C 0.8236 0.16308 0.39148 0.0
C1197 C 0.79079 0.16913 0.45837 0.0
C1198 C 0.79746 0.15768 0.43358 0.0
C1199 C 0.81401 0.12208 0.36183 0.0
C1200 C 0.80914 0.13466 0.38684 0.0
H1201 H 0.77332 0.15302 0.52586 0.0
H1202 H 0.78998 0.13904 0.48658 0.0
H1203 H 0.82898 0.19642 0.41739 0.0
H1204 H 0.86482 0.12051 0.32529 0.0
H1205 H 0.85808 0.144 0.3647 0.0
C1206 C 0.74821 1.00114 0.17052 0.0
C1207 C 0.77546 0.00705 0.16976 0.0
C1208 C 0.73123 0.99065 0.14735 0.0
C1209 C 0.73439 0.98778 0.071 0.0
H1210 H 0.6562 0.94063 0.078 0.0
C1211 C 0.65982 0.98052 0.98557 0.0
C1212 C 0.63547 0.95574 0.98078 0.0
C1213 C 0.6772 0.98328 1.00744 0.0
C1214 C 0.67801 0.95351 0.07549 0.0
H1215 H 0.80571 0.00531 0.14395 0.0
H1216 H 0.77592 0.98659 0.10348 0.0
H1217 H 0.68542 0.9502 0.11836 0.0
H1218 H 0.61082 0.91411 0.99523 0.0
H1219 H 0.64135 0.91883 1.03343 0.0
H1220 H 0.72701 0.99099 1.02813 0.0
C1221 C 0.76782 0.99052 0.12204 0.0
C1222 C 0.69482 0.95931 0.09881 0.0
C1223 C 0.78488 1.00102 0.14537 0.0
C1224 C 0.62933 0.93352 0.99826 0.0
C1225 C 0.6468 0.93631 1.02031 0.0
C1226 C 0.71759 0.98196 0.04769 0.0
C1227 C 0.74085 0.98564 0.12253 0.0
C1228 C 0.72323 0.97699 0.09707 0.0
C1229 C 0.67093 0.96134 1.02535 0.0
C1230 C 0.68906 0.96519 0.04966 0.0
H1231 H 0.74011 0.00544 0.18888 0.0
H1232 H 0.71082 0.98756 0.14864 0.0
H1233 H 0.75607 1.00161 0.06871 0.0
H1234 H 0.66538 0.99815 0.97262 0.0
H1235 H 0.69525 1.003 1.01075 0.0
C1236 C 0.17431 0.7717 1.00038 0.0
C1237 C 0.15726 0.76395 0.97699 0.0
C1238 C 0.17052 0.78543 1.02258 0.0
C1239 C 0.13219 0.82107 0.04461 0.0
H1240 H 0.14757 0.80428 0.11767 0.0
C1241 C 0.1117 0.86667 0.14434 0.0
C1242 C 0.10173 0.84932 0.16746 0.0
C1243 C 0.1215 0.8593 0.12102 0.0
C1244 C 0.14284 0.8091 0.09751 0.0
H1245 H 0.12302 0.76519 0.95863 0.0
H1246 H 0.11572 0.78807 0.9975 0.0
H1247 H 0.15751 0.78535 0.07756 0.0
H1248 H 0.09495 0.81075 0.18402 0.0
H1249 H 0.11107 0.79785 0.14389 0.0
H1250 H 0.11602 0.84357 0.0649 0.0
C1251 C 0.13259 0.78428 0.99859 0.0
C1252 C 0.14906 0.79853 0.07421 0.0
C1253 C 0.13668 0.77093 0.97619 0.0
C1254 C 0.10251 0.82484 0.1668 0.0
C1255 C 0.11205 0.81744 0.14361 0.0
C1256 C 0.12562 0.83139 0.06801 0.0
C1257 C 0.14921 0.79148 1.0224 0.0
C1258 C 0.14367 0.80408 0.04728 0.0
C1259 C 0.12154 0.83436 0.12015 0.0
C1260 C 0.1305 0.82528 0.09492 0.0
H1261 H 0.19055 0.76695 1.00168 0.0
H1262 H 0.18434 0.79116 0.03997 0.0
H1263 H 0.12809 0.82639 1.02441 0.0
H1264 H 0.11139 0.88564 0.14397 0.0
H1265 H 0.12894 0.87316 0.10363 0.0
C1266 C 0.35384 0.4582 0.98647 0.0
C1267 C 0.35295 0.48224 0.98135 0.0
C1268 C 0.33888 0.44056 1.00802 0.0
C1269 C 0.30572 0.43824 0.07481 0.0
H1270 H 0.27652 0.36025 0.06689 0.0
C1271 C 0.28009 0.36646 0.16884 0.0
C1272 C 0.25887 0.33908 0.16719 0.0
C1273 C 0.28729 0.38386 0.14599 0.0
C1274 C 0.28415 0.3819 0.06948 0.0
H1275 H 0.33492 0.5061 0.99498 0.0
H1276 H 0.30858 0.47515 1.03265 0.0
H1277 H 0.29639 0.39005 1.0271 0.0
H1278 H 0.22783 0.30902 0.14013 0.0
H1279 H 0.24018 0.33955 0.10017 0.0
H1280 H 0.29339 0.43006 0.11719 0.0
C1281 C 0.32121 0.47015 1.02003 0.0
C1282 C 0.29595 0.39913 0.04664 0.0
C1283 C 0.33621 0.48787 0.9983 0.0
C1284 C 0.24423 0.32996 0.14224 0.0
C1285 C 0.25153 0.34743 0.11921 0.0
C1286 C 0.29391 0.421 0.09767 0.0
C1287 C 0.32241 0.44624 1.02528 0.0
C1288 C 0.30743 0.42765 0.04905 0.0
C1289 C 0.27354 0.37453 0.1206 0.0
C1290 C 0.2834 0.39259 0.09552 0.0
H1291 H 0.36641 0.45303 0.97395 0.0
H1292 H 0.34081 0.42271 1.01153 0.0
H1293 H 0.31438 0.46003 0.07764 0.0
H1294 H 0.29187 0.37432 0.18767 0.0
H1295 H 0.30451 0.40436 0.14798 0.0
C1296 C 0.10574 0.48428 0.41616 0.0
C1297 C 0.12909 0.50957 0.42219 0.0
C1298 C 0.08912 0.48122 0.39348 0.0
C1299 C 0.08761 0.51187 0.32596 0.0
H1300 H 0.00988 0.46249 0.33326 0.0
C1301 C 0.0137 0.46845 0.2313 0.0
C1302 C 0.98632 0.46151 0.23477 0.0
C1303 C 0.03206 0.47815 0.25367 0.0
C1304 C 0.03145 0.47668 0.33075 0.0
H1305 H 0.15297 0.55163 0.40872 0.0
H1306 H 0.12363 0.54636 0.36906 0.0
H1307 H 0.03931 0.47244 0.37314 0.0
H1308 H 0.95746 0.4612 0.26423 0.0
H1309 H 0.98942 0.47888 0.3027 0.0
H1310 H 0.07952 0.51633 0.28349 0.0
C1311 C 0.11843 0.52876 0.38191 0.0
C1312 C 0.0485 0.4821 0.35371 0.0
C1313 C 0.13519 0.53185 0.40479 0.0
C1314 C 0.97828 0.46606 0.26078 0.0
C1315 C 0.99664 0.47598 0.28301 0.0
C1316 C 0.07047 0.50648 0.30289 0.0
C1317 C 0.09508 0.50335 0.37595 0.0
C1318 C 0.07691 0.49944 0.35165 0.0
C1319 C 0.02362 0.48138 0.2801 0.0
C1320 C 0.0421 0.48858 0.30486 0.0
H1321 H 0.10028 0.46654 0.42889 0.0
H1322 H 0.07174 0.46119 0.38944 0.0
H1323 H 0.10935 0.52522 0.32342 0.0
H1324 H 0.02064 0.46507 0.21166 0.0
H1325 H 0.05253 0.48187 0.25047 0.0
C1326 C 0.61734 0.69657 0.43037 0.0
C1327 C 0.59828 0.70548 0.42926 0.0
C1328 C 0.62123 0.68352 0.40775 0.0
C1329 C 0.59289 0.65158 0.33827 0.0
H1330 H 0.66667 0.66569 0.3285 0.0
C1331 C 0.63593 0.62547 0.23883 0.0
C1332 C 0.6517 0.61305 0.24406 0.0
C1333 C 0.6264 0.63479 0.26075 0.0
C1334 C 0.64591 0.66139 0.33098 0.0
H1335 H 0.56782 0.70702 0.40357 0.0
H1336 H 0.57525 0.68512 0.3635 0.0
H1337 H 0.65621 0.68592 0.36734 0.0
H1338 H 0.6686 0.59974 0.27681 0.0
H1339 H 0.65246 0.61627 0.31451 0.0
H1340 H 0.58322 0.62777 0.30088 0.0
C1341 C 0.58684 0.6876 0.38214 0.0
C1342 C 0.63976 0.67285 0.3535 0.0
C1343 C 0.58255 0.70024 0.40514 0.0
C1344 C 0.65666 0.60925 0.27178 0.0
C1345 C 0.64752 0.61887 0.29351 0.0
C1346 C 0.59922 0.64044 0.31536 0.0
C1347 C 0.60668 0.67951 0.38289 0.0
C1348 C 0.61305 0.6678 0.3579 0.0
C1349 C 0.63276 0.63227 0.28833 0.0
C1350 C 0.62575 0.6449 0.31171 0.0
H1351 H 0.62955 0.69996 0.44878 0.0
H1352 H 0.63596 0.6768 0.40982 0.0
H1353 H 0.57206 0.64695 0.34083 0.0
H1354 H 0.63169 0.62878 0.21781 0.0
H1355 H 0.61508 0.64504 0.25608 0.0
C1356 C 0.51389 0.13602 0.26466 0.0
C1357 C 0.49868 0.1264 0.24007 0.0
C1358 C 0.50731 0.11892 0.28791 0.0
C1359 C 0.46587 0.04568 0.31084 0.0
H1360 H 0.46532 0.07787 0.3813 0.0
C1361 C 0.42601 0.98041 0.41143 0.0
C1362 C 0.40964 0.98632 0.42864 0.0
C1363 C 0.44063 0.99784 0.38937 0.0
C1364 C 0.46523 0.06844 0.3618 0.0
H1365 H 0.46541 0.09067 0.2205 0.0
H1366 H 0.45397 0.0613 0.26061 0.0
H1367 H 0.48393 0.10693 0.34085 0.0
H1368 H 0.39652 0.01577 0.43624 0.0
H1369 H 0.42144 0.04557 0.39811 0.0
H1370 H 0.44606 0.00702 0.3316 0.0
C1371 C 0.47112 0.0819 0.26212 0.0
C1372 C 0.47631 0.08526 0.33856 0.0
C1373 C 0.47762 0.09892 0.23901 0.0
C1374 C 0.40882 0.0104 0.42352 0.0
C1375 C 0.42339 0.02774 0.40165 0.0
C1376 C 0.45476 0.02885 0.33409 0.0
C1377 C 0.48544 0.09173 0.28715 0.0
C1378 C 0.47634 0.07411 0.31256 0.0
C1379 C 0.4394 0.02172 0.38406 0.0
C1380 C 0.45375 0.03989 0.35984 0.0
H1381 H 0.53021 0.15703 0.26632 0.0
H1382 H 0.51913 0.12719 0.30664 0.0
H1383 H 0.46587 0.03629 0.29135 0.0
H1384 H 0.42722 0.96213 0.41473 0.0
H1385 H 0.45292 0.9926 0.3765 0.0
C1386 C 0.68949 0.12733 0.65879 0.0
C1387 C 0.68358 0.14754 0.64999 0.0
C1388 C 0.67624 0.11072 0.68151 0.0
C1389 C 0.61542 0.08232 0.72568 0.0
H1390 H 0.66272 0.0751 0.77874 0.0
C1391 C 0.57909 0.99965 0.81406 0.0
C1392 C 0.59315 0.00833 0.83941 0.0
C1393 C 0.58707 0.01752 0.79127 0.0
C1394 C 0.64915 0.07696 0.76429 0.0
H1395 H 0.65811 0.16523 0.65804 0.0
H1396 H 0.63453 0.13568 0.69784 0.0
H1397 H 0.68237 0.10434 0.7386 0.0
H1398 H 0.62529 0.04336 0.86101 0.0
H1399 H 0.6389 0.0741 0.82174 0.0
H1400 H 0.5821 0.05443 0.7515 0.0
C1401 C 0.64971 0.13302 0.68698 0.0
C1402 C 0.66044 0.09362 0.7411 0.0
C1403 C 0.6633 0.15003 0.66426 0.0
C1404 C 0.61416 0.03573 0.8418 0.0
C1405 C 0.62211 0.05342 0.81917 0.0
C1406 C 0.604 0.06525 0.74885 0.0
C1407 C 0.65639 0.11345 0.69614 0.0
C1408 C 0.6438 0.09649 0.72139 0.0
C1409 C 0.60931 0.04439 0.79334 0.0
C1410 C 0.62078 0.06242 0.76851 0.0
H1411 H 0.70481 0.12454 0.64839 0.0
H1412 H 0.68165 0.09565 0.6877 0.0
H1413 H 0.60202 0.08396 0.71082 0.0
H1414 H 0.56289 0.9787 0.81139 0.0
H1415 H 0.57675 0.00987 0.77167 0.0
C1416 C 0.11462 0.6691 0.81137 0.0
C1417 C 0.1061 0.67184 0.83787 0.0
C1418 C 0.09635 0.65964 0.78904 0.0
C1419 C 0.02221 0.62689 0.7695 0.0
H1420 H 0.05221 0.66408 0.70021 0.0
C1421 C 0.95676 0.60198 0.66828 0.0
C1422 C 0.96186 0.62439 0.65152 0.0
C1423 C 0.97388 0.60526 0.69087 0.0
C1424 C 0.04332 0.65354 0.71939 0.0
H1425 H 0.07108 0.66559 0.86164 0.0
H1426 H 0.03938 0.6496 0.82269 0.0
H1427 H 0.08195 0.67394 0.73982 0.0
H1428 H 0.98927 0.66786 0.64569 0.0
H1429 H 0.01841 0.67354 0.68471 0.0
H1430 H 0.98328 0.60733 0.74907 0.0
C1431 C 0.06015 0.65439 0.81916 0.0
C1432 C 0.06058 0.65892 0.74217 0.0
C1433 C 0.07842 0.66364 0.84161 0.0
C1434 C 0.98459 0.65001 0.65791 0.0
C1435 C 1.00157 0.65327 0.68035 0.0
C1436 C 0.00486 0.62155 0.74663 0.0
C1437 C 0.06898 0.65287 0.79234 0.0
C1438 C 0.05036 0.64586 0.76771 0.0
C1439 C 0.9966 0.63101 0.69723 0.0
C1440 C 0.01511 0.63508 0.72129 0.0
H1441 H 0.13569 0.67497 0.80767 0.0
H1442 H 0.10392 0.6581 0.769 0.0
H1443 H 0.01349 0.61613 0.78861 0.0
H1444 H 0.93948 0.58193 0.66405 0.0
H1445 H 0.96945 0.58754 0.70318 0.0
C1446 C 0.4621 0.42125 0.65733 0.0
C1447 C 0.48814 0.42715 0.64847 0.0
C1448 C 0.45896 0.43488 0.67985 0.0
C1449 C 0.4919 0.49664 0.72314 0.0
H1450 H 0.43804 0.45003 0.77698 0.0
C1451 C 0.44684 0.53422 0.81142 0.0
C1452 C 0.44209 0.5207 0.83699 0.0
C1453 C 0.45628 0.52586 0.78859 0.0
C1454 C 0.45329 0.46341 0.76228 0.0
H1455 H 0.53142 0.45299 0.65618 0.0
H1456 H 0.52585 0.47722 0.69564 0.0
H1457 H 0.4471 0.42971 0.73703 0.0
H1458 H 0.44558 0.48913 0.85889 0.0
H1459 H 0.46188 0.47484 0.81954 0.0
H1460 H 0.49769 0.53043 0.74852 0.0
C1461 C 0.50789 0.46176 0.68498 0.0
C1462 C 0.45834 0.45173 0.73922 0.0
C1463 C 0.51107 0.44779 0.66246 0.0
C1464 C 0.4486 0.49984 0.83952 0.0
C1465 C 0.45787 0.4915 0.81685 0.0
C1466 C 0.48654 0.50843 0.74617 0.0
C1467 C 0.48172 0.45511 0.6942 0.0
C1468 C 0.47762 0.46812 0.71926 0.0
C1469 C 0.46105 0.50377 0.79085 0.0
C1470 C 0.4672 0.49191 0.7661 0.0
H1471 H 0.44388 0.40567 0.64712 0.0
H1472 H 0.43854 0.42948 0.68611 0.0
H1473 H 0.50677 0.50984 0.70806 0.0
H1474 H 0.44201 0.55031 0.80866 0.0
H1475 H 0.45851 0.53577 0.76886 0.0
C1476 C 0.11385 0.35995 0.86031 0.0
C1477 C 0.1011 0.33433 0.87333 0.0
C1478 C 0.14205 0.37654 0.86132 0.0
C1479 C 0.20481 0.3873 0.89517 0.0
H1480 H 0.23648 0.41417 0.82286 0.0
C1481 C 0.31933 0.4389 0.8802 0.0
C1482 C 0.33086 0.46481 0.8679 0.0
C1483 C 0.29149 0.42063 0.87797 0.0
C1484 C 0.22789 0.40686 0.84315 0.0
H1485 H 0.10755 0.30695 0.8995 0.0
H1486 H 0.15693 0.33601 0.90122 0.0
H1487 H 0.18705 0.38922 0.82815 0.0
H1488 H 0.3229 0.491 0.8415 0.0
H1489 H 0.27413 0.45909 0.83775 0.0
H1490 H 0.24562 0.40509 0.91023 0.0
C1491 C 0.1451 0.34324 0.89028 0.0
C1492 C 0.19967 0.39277 0.84625 0.0
C1493 C 0.11681 0.32664 0.88936 0.0
C1494 C 0.31455 0.47114 0.85116 0.0
C1495 C 0.28662 0.45287 0.84904 0.0
C1496 C 0.23302 0.40139 0.89208 0.0
C1497 C 0.15799 0.36777 0.87529 0.0
C1498 C 0.1879 0.38305 0.87232 0.0
C1499 C 0.27472 0.42801 0.86349 0.0
C1500 C 0.24482 0.41138 0.86607 0.0
H1501 H 0.1022 0.36654 0.84805 0.0
H1502 H 0.15149 0.39572 0.85018 0.0
H1503 H 0.19625 0.38017 0.91551 0.0
H1504 H 0.33153 0.43333 0.89292 0.0
H1505 H 0.28287 0.40128 0.88873 0.0
C1506 C 0.78447 0.87549 0.89346 0.0
C1507 C 0.77693 0.8515 0.87841 0.0
C1508 C 0.76755 0.88676 0.8936 0.0
C1509 C 0.69899 0.87427 0.87551 0.0
H1510 H 0.73822 0.95093 0.85518 0.0
C1511 C 0.6408 0.92847 0.8482 0.0
C1512 C 0.64846 0.95143 0.86502 0.0
C1513 C 0.65809 0.91776 0.84547 0.0
C1514 C 0.72705 0.92953 0.86082 0.0
H1515 H 0.74464 0.81887 0.8544 0.0
H1516 H 0.71517 0.8385 0.85473 0.0
H1517 H 0.76345 0.92739 0.86486 0.0
H1518 H 0.68133 0.98322 0.88924 0.0
H1519 H 0.71142 0.96456 0.88445 0.0
H1520 H 0.66261 0.87643 0.87165 0.0
C1521 C 0.73414 0.84873 0.8662 0.0
C1522 C 0.74145 0.91615 0.86667 0.0
C1523 C 0.75106 0.83753 0.86597 0.0
C1524 C 0.6748 0.96528 0.87642 0.0
C1525 C 0.6921 0.95467 0.87357 0.0
C1526 C 0.6846 0.88764 0.86965 0.0
C1527 C 0.74283 0.87408 0.87889 0.0
C1528 C 0.72754 0.88845 0.87423 0.0
C1529 C 0.68327 0.93003 0.85933 0.0
C1530 C 0.69851 0.91541 0.86238 0.0
H1531 H 0.8043 0.88668 0.90326 0.0
H1532 H 0.77441 0.90609 0.90402 0.0
H1533 H 0.68781 0.85294 0.88138 0.0
H1534 H 0.62063 0.91744 0.83909 0.0
H1535 H 0.65109 0.89899 0.83394 0.0
C1536 C 0.19767 0.80396 0.85245 0.0
C1537 C 0.17268 0.78514 0.8645 0.0
C1538 C 0.20695 0.83184 0.85385 0.0
C1539 C 0.18767 0.88355 0.87012 0.0
H1540 H 0.26323 0.92583 0.89361 0.0
C1541 C 0.23639 0.99741 0.89432 0.0
C1542 C 0.25982 0.01323 0.87839 0.0
C1543 C 0.22635 0.96946 0.89747 0.0
C1544 C 0.24211 0.91424 0.88712 0.0
H1545 H 0.13673 0.78058 0.88528 0.0
H1546 H 0.15306 0.8293 0.88779 0.0
H1547 H 0.24289 0.87695 0.88525 0.0
H1548 H 0.2926 0.01301 0.85562 0.0
H1549 H 0.27522 0.96437 0.86133 0.0
H1550 H 0.18704 0.92098 0.87173 0.0
C1551 C 0.16545 0.8225 0.87728 0.0
C1552 C 0.23054 0.88637 0.88208 0.0
C1553 C 0.15608 0.79457 0.87577 0.0
C1554 C 0.2744 1.00123 0.86786 0.0
C1555 C 0.26451 0.9734 0.87123 0.0
C1556 C 0.19925 0.91145 0.87524 0.0
C1557 C 0.19147 0.8414 0.86739 0.0
C1558 C 0.20336 0.87086 0.87307 0.0
C1559 C 0.23979 0.95709 0.88502 0.0
C1560 C 0.22668 0.92709 0.88338 0.0
H1561 H 0.2108 0.7973 0.84336 0.0
H1562 H 0.22678 0.84599 0.84536 0.0
H1563 H 0.16671 0.87209 0.86314 0.0
H1564 H 0.22472 0.00614 0.90263 0.0
H1565 H 0.20741 0.9573 0.90851 0.0
C1566 C 0.41548 0.2992 0.62375 0.0
C1567 C 0.44347 0.31591 0.62911 0.0
C1568 C 0.39927 0.27747 0.64132 0.0
C1569 C 0.40238 0.23305 0.69532 0.0
H1570 H 0.33378 0.22576 0.71904 0.0
C1571 C 0.33984 0.16198 0.78461 0.0
C1572 C 0.31182 0.1453 0.77942 0.0
C1573 C 0.35604 0.18343 0.76673 0.0
C1574 C 0.35279 0.22743 0.71244 0.0
H1575 H 0.47661 0.32219 0.65637 0.0
H1576 H 0.44835 0.28455 0.68698 0.0
H1577 H 0.3615 0.2605 0.68511 0.0
H1578 H 0.27861 0.1387 0.75208 0.0
H1579 H 0.30685 0.17587 0.72097 0.0
H1580 H 0.39367 0.2 0.72269 0.0
C1581 C 0.43892 0.28813 0.66921 0.0
C1582 C 0.36858 0.24721 0.69294 0.0
C1583 C 0.45507 0.30983 0.65175 0.0
C1584 C 0.30018 0.15106 0.75659 0.0
C1585 C 0.31631 0.17249 0.73883 0.0
C1586 C 0.38658 0.21327 0.71482 0.0
C1587 C 0.4108 0.27198 0.66443 0.0
C1588 C 0.39354 0.25022 0.68421 0.0
C1589 C 0.34445 0.18866 0.7435 0.0
C1590 C 0.36164 0.21028 0.72357 0.0
H1591 H 0.40597 0.30329 0.6064 0.0
H1592 H 0.37768 0.26508 0.63696 0.0
H1593 H 0.4214 0.23473 0.68874 0.0
H1594 H 0.34938 0.15812 0.80209 0.0
H1595 H 0.37765 0.19584 0.77099 0.0
C1596 C 0.80119 0.23366 0.6519 0.0
C1597 C 0.79431 0.2145 0.63048 0.0
C1598 C 0.82268 0.2394 0.66975 0.0
C1599 C 0.88414 0.23393 0.67811 0.0
H1600 H 0.87046 0.23626 0.75633 0.0
C1601 C 0.95635 0.23379 0.76046 0.0
C1602 C 0.96388 0.25301 0.78192 0.0
C1603 C 0.935 0.22876 0.74273 0.0
C1604 C 0.87464 0.23593 0.73456 0.0
H1605 H 0.80527 0.18718 0.61021 0.0
H1606 H 0.84285 0.19709 0.64171 0.0
H1607 H 0.83537 0.22905 0.72269 0.0
H1608 H 0.95412 0.2811 0.80246 0.0
H1609 H 0.91665 0.27232 0.77119 0.0
H1610 H 0.92336 0.24071 0.68998 0.0
C1611 C 0.83161 0.20773 0.64453 0.0
C1612 C 0.85461 0.23184 0.7153 0.0
C1613 C 0.81009 0.20202 0.62655 0.0
C1614 C 0.94879 0.2662 0.78608 0.0
C1615 C 0.92735 0.26116 0.76823 0.0
C1616 C 0.90414 0.23799 0.69736 0.0
C1617 C 0.83774 0.22609 0.66661 0.0
C1618 C 0.85916 0.23076 0.6869 0.0
C1619 C 0.9207 0.24283 0.74604 0.0
C1620 C 0.89953 0.23891 0.72576 0.0
H1621 H 0.78968 0.24395 0.6552 0.0
H1622 H 0.82734 0.25409 0.6862 0.0
H1623 H 0.88833 0.23357 0.65634 0.0
H1624 H 0.96731 0.22297 0.75698 0.0
H1625 H 0.92987 0.21405 0.7262 0.0
C1626 C 0.84541 0.76876 0.78989 0.0
C1627 C 0.85885 0.79723 0.78652 0.0
C1628 C 0.85074 0.75272 0.77186 0.0
C1629 C 0.90004 0.75574 0.72021 0.0
H1630 H 0.83704 0.69246 0.68876 0.0
C1631 C 0.90933 0.69731 0.62741 0.0
C1632 C 0.89581 0.66882 0.63053 0.0
C1633 C 0.90408 0.71326 0.64566 0.0
C1634 C 0.85483 0.70998 0.69749 0.0
H1635 H 0.88952 0.83136 0.76278 0.0
H1636 H 0.89863 0.80344 0.73143 0.0
H1637 H 0.83067 0.719 0.72464 0.0
H1638 H 0.86511 0.63454 0.6541 0.0
H1639 H 0.85616 0.66229 0.68584 0.0
H1640 H 0.92419 0.74672 0.69305 0.0
C1641 C 0.88402 0.79346 0.74788 0.0
C1642 C 0.85119 0.72505 0.71813 0.0
C1643 C 0.87863 0.80943 0.76574 0.0
C1644 C 0.87605 0.6565 0.65131 0.0
C1645 C 0.87076 0.67237 0.6694 0.0
C1646 C 0.90367 0.74066 0.69957 0.0
C1647 C 0.86975 0.76493 0.75039 0.0
C1648 C 0.87376 0.74809 0.72966 0.0
C1649 C 0.88509 0.70092 0.66713 0.0
C1650 C 0.8811 0.71765 0.68802 0.0
H1651 H 0.83013 0.75882 0.80578 0.0
H1652 H 0.83972 0.73075 0.77445 0.0
H1653 H 0.91781 0.77327 0.72892 0.0
H1654 H 0.92459 0.70735 0.61153 0.0
H1655 H 0.91515 0.73525 0.64324 0.0
C1656 C 0.97891 0.7714 0.20688 0.0
C1657 C 0.99125 0.79824 0.19684 0.0
C1658 C 0.95098 0.75399 0.20386 0.0
C1659 C 0.89037 0.75943 0.20257 0.0
H1660 H 0.85379 0.68091 0.19263 0.0
C1661 C 0.77343 0.6867 0.20649 0.0
C1662 C 0.76434 0.66066 0.21781 0.0
C1663 C 0.80126 0.70522 0.2041 0.0
C1664 C 0.86382 0.7028 0.19575 0.0
H1665 H 0.98466 0.82727 0.17371 0.0
H1666 H 0.93561 0.79666 0.16844 0.0
H1667 H 0.9022 0.70858 0.18215 0.0
H1668 H 0.77703 0.63483 0.23847 0.0
H1669 H 0.82556 0.66745 0.23488 0.0
H1670 H 0.85206 0.75356 0.21671 0.0
C1671 C 0.94758 0.78926 0.17882 0.0
C1672 C 0.89139 0.7186 0.18949 0.0
C1673 C 0.97564 0.80663 0.18162 0.0
C1674 C 0.78343 0.6546 0.22932 0.0
C1675 C 0.8112 0.67314 0.22702 0.0
C1676 C 0.86274 0.7436 0.20885 0.0
C1677 C 0.93493 0.76321 0.1909 0.0
C1678 C 0.90502 0.74698 0.19331 0.0
C1679 C 0.82032 0.69801 0.21315 0.0
C1680 C 0.84938 0.7151 0.20602 0.0
H1681 H 0.99054 0.76438 0.21855 0.0
H1682 H 0.94173 0.73405 0.21348 0.0
H1683 H 0.90053 0.78126 0.20612 0.0
H1684 H 0.75921 0.69199 0.19744 0.0
H1685 H 0.80777 0.72433 0.19343 0.0
C1686 C 0.33892 0.29394 0.20849 0.0
C1687 C 0.3126 0.28014 0.19705 0.0
C1688 C 0.35516 0.28197 0.20812 0.0
C1689 C 0.36289 0.22597 0.17973 0.0
H1690 H 0.3914 0.22656 0.25291 0.0
C1691 C 0.41403 0.16384 0.20066 0.0
C1692 C 0.44051 0.17954 0.2114 0.0
C1693 C 0.39564 0.17321 0.20251 0.0
C1694 C 0.38359 0.22627 0.2324 0.0
H1695 H 0.28366 0.24444 0.17378 0.0
H1696 H 0.31213 0.22349 0.17316 0.0
H1697 H 0.36746 0.25162 0.2446 0.0
H1698 H 0.46761 0.21572 0.23509 0.0
H1699 H 0.43551 0.23226 0.23814 0.0
H1700 H 0.37924 0.20088 0.16743 0.0
C1701 C 0.32015 0.24351 0.18244 0.0
C1702 C 0.37011 0.24076 0.22756 0.0
C1703 C 0.30391 0.25556 0.18269 0.0
C1704 C 0.44731 0.20322 0.22664 0.0
C1705 C 0.42893 0.2127 0.22835 0.0
C1706 C 0.37638 0.2115 0.18456 0.0
C1707 C 0.3453 0.25601 0.19638 0.0
C1708 C 0.3599 0.24095 0.20111 0.0
C1709 C 0.4035 0.19848 0.21501 0.0
C1710 C 0.38699 0.21166 0.2109 0.0
H1711 H 0.34625 0.31311 0.21939 0.0
H1712 H 0.37483 0.29235 0.21833 0.0
H1713 H 0.35528 0.22588 0.15916 0.0
H1714 H 0.40814 0.14525 0.18917 0.0
H1715 H 0.37587 0.16154 0.19269 0.0
C1716 C 0.8549 0.13553 0.18621 0.0
C1717 C 0.83123 0.11918 0.2016 0.0
C1718 C 0.86517 0.16362 0.18431 0.0
C1719 C 0.84952 0.21854 0.19674 0.0
H1720 H 0.92516 0.26025 0.22007 0.0
C1721 C 0.89533 0.32978 0.22783 0.0
C1722 C 0.91985 0.34776 0.21446 0.0
C1723 C 0.88602 0.30186 0.2282 0.0
C1724 C 0.9041 0.24889 0.21336 0.0
H1725 H 0.79829 0.11872 0.22474 0.0
H1726 H 0.81607 0.16762 0.2212 0.0
H1727 H 0.90443 0.21131 0.21142 0.0
H1728 H 0.95517 0.35101 0.1935 0.0
H1729 H 0.93876 0.30225 0.19401 0.0
H1730 H 0.84908 0.25599 0.19872 0.0
C1731 C 0.82681 0.15888 0.21079 0.0
C1732 C 0.89231 0.22097 0.2082 0.0
C1733 C 0.81668 0.1309 0.21288 0.0
C1734 C 0.93616 0.33766 0.20392 0.0
C1735 C 0.92675 0.30969 0.20418 0.0
C1736 C 0.8613 0.24642 0.20183 0.0
C1737 C 0.85172 0.17561 0.19749 0.0
C1738 C 0.86485 0.20554 0.20007 0.0
C1739 C 0.901 0.29147 0.21515 0.0
C1740 C 0.88861 0.2618 0.21048 0.0
H1741 H 0.86657 0.12703 0.17735 0.0
H1742 H 0.88424 0.17611 0.1736 0.0
H1743 H 0.82838 0.20711 0.19029 0.0
H1744 H 0.88248 0.337 0.23646 0.0
H1745 H 0.86642 0.28826 0.23749 0.0
C1746 C 0.7502 0.96867 0.29189 0.0
C1747 C 0.77849 0.98421 0.29609 0.0
C1748 C 0.73401 0.94726 0.30981 0.0
C1749 C 0.73644 0.90147 0.36249 0.0
H1750 H 0.67186 0.89992 0.39107 0.0
C1751 C 0.67538 0.8323 0.4534 0.0
C1752 C 0.64704 0.81725 0.44935 0.0
C1753 C 0.69179 0.85364 0.4355 0.0
C1754 C 0.68974 0.9 0.38313 0.0
H1755 H 0.81219 0.98861 0.3213 0.0
H1756 H 0.78397 0.95147 0.35248 0.0
H1757 H 0.69922 0.93339 0.35598 0.0
H1758 H 0.61354 0.81361 0.4243 0.0
H1759 H 0.6421 0.85052 0.39315 0.0
H1760 H 0.72692 0.86804 0.3896 0.0
C1761 C 0.77428 0.95575 0.33544 0.0
C1762 C 0.70529 0.91903 0.36297 0.0
C1763 C 0.7904 0.97716 0.31768 0.0
C1764 C 0.63535 0.82467 0.42786 0.0
C1765 C 0.65169 0.84596 0.41009 0.0
C1766 C 0.72086 0.88241 0.38264 0.0
C1767 C 0.74589 0.94095 0.33202 0.0
C1768 C 0.72878 0.91994 0.35245 0.0
C1769 C 0.68009 0.86036 0.41343 0.0
C1770 C 0.69735 0.88147 0.39312 0.0
H1771 H 0.74047 0.97357 0.27537 0.0
H1772 H 0.71217 0.93588 0.30653 0.0
H1773 H 0.75434 0.9016 0.35456 0.0
H1774 H 0.68495 0.82712 0.46985 0.0
H1775 H 0.71364 0.8647 0.43874 0.0
C1776 C 0.14054 0.86378 0.29002 0.0
C1777 C 0.12444 0.87575 0.29509 0.0
C1778 C 0.16205 0.8689 0.3078 0.0
C1779 C 0.1851 0.89033 0.3792 0.0
H1780 H 0.25533 0.90485 0.352 0.0
C1781 C 0.28024 0.92971 0.44894 0.0
C1782 C 0.29729 0.91877 0.44423 0.0
C1783 C 0.25849 0.92345 0.43108 0.0
C1784 C 0.23571 0.9005 0.3599 0.0
H1785 H 0.11912 0.90349 0.32195 0.0
H1786 H 0.15663 0.91251 0.35258 0.0
H1787 H 0.2191 0.89615 0.31923 0.0
H1788 H 0.30417 0.89171 0.4179 0.0
H1789 H 0.26617 0.88067 0.38708 0.0
H1790 H 0.20168 0.89474 0.41986 0.0
C1791 C 0.15228 0.89871 0.33533 0.0
C1792 C 0.21501 0.89553 0.34115 0.0
C1793 C 0.13086 0.89362 0.31766 0.0
C1794 C 0.29164 0.90079 0.4219 0.0
C1795 C 0.26995 0.89454 0.40414 0.0
C1796 C 0.20577 0.89528 0.39795 0.0
C1797 C 0.1678 0.88607 0.33087 0.0
C1798 C 0.18957 0.89057 0.35063 0.0
C1799 C 0.2534 0.9061 0.40829 0.0
C1800 C 0.2313 0.9005 0.38848 0.0
H1801 H 0.13611 0.84995 0.27279 0.0
H1802 H 0.17369 0.85883 0.30395 0.0
H1803 H 0.1655 0.88611 0.3871 0.0
H1804 H 0.28406 0.9436 0.46598 0.0
H1805 H 0.24614 0.93279 0.43467 0.0
C1806 C 0.18076 0.43511 0.44986 0.0
C1807 C 0.19361 0.46341 0.44543 0.0
C1808 C 0.18643 0.41878 0.43263 0.0
C1809 C 0.23599 0.4214 0.3816 0.0
H1810 H 0.17388 0.35579 0.35241 0.0
C1811 C 0.24576 0.36191 0.29018 0.0
C1812 C 0.23327 0.33356 0.29401 0.0
C1813 C 0.24033 0.37775 0.30836 0.0
C1814 C 0.19142 0.37396 0.36054 0.0
H1815 H 0.22346 0.49698 0.42047 0.0
H1816 H 0.23306 0.46855 0.39044 0.0
H1817 H 0.16678 0.38294 0.38701 0.0
H1818 H 0.20431 0.29937 0.31893 0.0
H1819 H 0.195 0.32699 0.35055 0.0
H1820 H 0.2606 0.41249 0.355 0.0
C1821 C 0.21872 0.45894 0.40718 0.0
C1822 C 0.18738 0.38939 0.38044 0.0
C1823 C 0.21303 0.47519 0.42428 0.0
C1824 C 0.21445 0.32122 0.31558 0.0
C1825 C 0.20895 0.337 0.3336 0.0
C1826 C 0.24002 0.40599 0.36167 0.0
C1827 C 0.20514 0.43054 0.41086 0.0
C1828 C 0.20962 0.4133 0.39108 0.0
C1829 C 0.22218 0.36544 0.33046 0.0
C1830 C 0.21776 0.38218 0.35092 0.0
H1831 H 0.16579 0.42548 0.46608 0.0
H1832 H 0.17594 0.39694 0.43612 0.0
H1833 H 0.25354 0.43959 0.38968 0.0
H1834 H 0.26029 0.37196 0.27368 0.0
H1835 H 0.25052 0.39964 0.3053 0.0
C1836 C 1.00376 0.48229 0.10254 0.0
C1837 C 0.97653 0.47529 0.10696 0.0
C1838 C 0.02044 0.50397 0.08514 0.0
C1839 C 0.02729 0.56643 0.05404 0.0
H1840 H 0.07358 0.55743 1.00131 0.0
C1841 C 0.08559 0.64555 0.9689 0.0
C1842 C 0.11286 0.65256 0.96488 0.0
C1843 C 0.0685 0.62342 0.98562 0.0
C1844 C 0.06093 0.56031 1.01609 0.0
H1845 H 0.94558 0.4858 0.0968 0.0
H1846 H 0.97463 0.52339 0.06638 0.0
H1847 H 0.04507 0.52008 1.03253 0.0
H1848 H 0.14343 0.64148 0.97488 0.0
H1849 H 0.1137 0.60315 1.00418 0.0
H1850 H 0.0432 0.60668 1.03768 0.0
C1851 C 0.98313 0.51228 0.07654 0.0
C1852 C 0.04467 0.53897 1.03398 0.0
C1853 C 0.96645 0.49062 0.09386 0.0
C1854 C 0.12254 0.63669 0.97756 0.0
C1855 C 0.10546 0.61459 0.99422 0.0
C1856 C 0.04356 0.58777 1.03617 0.0
C1857 C 0.01024 0.51911 0.07192 0.0
C1858 C 0.02771 0.54183 0.05314 0.0
C1859 C 0.07833 0.60784 0.99857 0.0
C1860 C 0.06057 0.58494 1.01705 0.0
H1861 H 0.01217 0.47095 0.11237 0.0
H1862 H 0.04138 0.50902 0.0822 0.0
H1863 H 0.01468 0.56933 0.06885 0.0
H1864 H 0.07746 0.65728 0.95935 0.0
H1865 H 0.04755 0.61845 0.98834 0.0
C1866 C 0.47488 0.57228 0.98073 0.0
C1867 C 0.46596 0.55061 0.96183 0.0
C1868 C 0.49723 0.57918 0.99776 0.0
C1869 C 0.55624 0.56904 1.00807 0.0
H1870 H 0.54829 0.58409 0.08466 0.0
C1871 C 0.62415 0.56725 0.0953 0.0
C1872 C 0.63515 0.58949 0.11372 0.0
C1873 C 0.6042 0.56379 0.07628 0.0
C1874 C 0.55088 0.5802 0.06328 0.0
H1875 H 0.47397 0.51977 0.94516 0.0
H1876 H 0.51269 0.53135 0.97547 0.0
H1877 H 0.51279 0.57619 0.05138 0.0
H1878 H 0.63333 0.62516 0.12706 0.0
H1879 H 0.5981 0.61883 0.0939 0.0
H1880 H 0.59407 0.57235 1.02035 0.0
C1881 C 0.50267 0.54331 0.97682 0.0
C1882 C 0.53064 0.57578 0.04418 0.0
C1883 C 0.48043 0.53659 0.95954 0.0
C1884 C 0.6253 0.60785 0.11312 0.0
C1885 C 0.60512 0.60422 0.09422 0.0
C1886 C 0.57638 0.57324 1.02725 0.0
C1887 C 0.51099 0.56437 0.99645 0.0
C1888 C 0.53305 0.57005 1.01639 0.0
C1889 C 0.59466 0.58233 0.07546 0.0
C1890 C 0.57378 0.57872 0.05502 0.0
H1891 H 0.46436 0.58375 0.9826 0.0
H1892 H 0.50354 0.59594 1.01218 0.0
H1893 H 0.55888 0.56508 0.98674 0.0
H1894 H 0.63126 0.55271 0.09521 0.0
H1895 H 0.59615 0.54653 0.06226 0.0
C1896 C 0.51348 0.10333 0.11878 0.0
C1897 C 0.52348 0.13107 0.113 0.0
C1898 C 0.51981 0.08761 0.10141 0.0
C1899 C 0.54043 0.08573 1.03007 0.0
H1900 H 0.55965 0.03359 0.05859 0.0
C1901 C 0.57967 0.02973 0.96094 0.0
C1902 C 0.56937 1.00191 0.96658 0.0
C1903 C 0.57399 0.04567 0.97869 0.0
C1904 C 0.55405 0.04789 0.05035 0.0
H1905 H 0.54899 0.1644 0.08529 0.0
H1906 H 0.56013 0.13704 0.05528 0.0
H1907 H 0.55029 0.06109 0.09071 0.0
H1908 H 0.54424 0.96876 0.99465 0.0
H1909 H 0.53421 0.99652 1.0253 0.0
H1910 H 0.54411 0.0725 0.98974 0.0
C1911 C 0.54694 0.12731 0.07282 0.0
C1912 C 0.5487 0.06359 0.06872 0.0
C1913 C 0.54063 0.14297 0.0901 0.0
C1914 C 0.55276 0.99022 0.98987 0.0
C1915 C 0.54711 0.00612 1.00754 0.0
C1916 C 0.54576 0.07003 1.01172 0.0
C1917 C 0.53627 0.09941 0.07805 0.0
C1918 C 0.54187 0.08266 0.05873 0.0
C1919 C 0.55791 0.03404 1.00231 0.0
C1920 C 0.55257 0.05094 1.02169 0.0
H1921 H 0.50027 0.09361 0.13631 0.0
H1922 H 0.51123 0.06607 0.10582 0.0
H1923 H 0.53479 0.1 1.02183 0.0
H1924 H 0.59251 0.0393 0.94314 0.0
H1925 H 0.5827 0.06722 0.97428 0.0
C1926 C 0.64678 0.10583 0.54896 0.0
C1927 C 0.65924 0.13155 0.53613 0.0
C1928 C 0.61866 0.0887 0.54749 0.0
C1929 C 0.55816 0.09494 0.54188 0.0
H1930 H 0.51995 0.01587 0.53788 0.0
C1931 C 0.44214 0.02705 0.53045 0.0
C1932 C 0.42945 1.00112 0.54283 0.0
C1933 C 0.47018 0.04429 0.5328 0.0
C1934 C 0.53043 0.03793 0.53953 0.0
H1935 H 0.65243 0.15848 0.50963 0.0
H1936 H 0.60317 0.12825 0.50677 0.0
H1937 H 0.56907 0.04167 0.53056 0.0
H1938 H 0.43565 0.97392 0.56955 0.0
H1939 H 0.48477 0.00434 0.57393 0.0
H1940 H 0.5195 0.09119 0.55078 0.0
C1941 C 0.61518 0.12165 0.51838 0.0
C1942 C 0.55847 0.05267 0.53508 0.0
C1943 C 0.64339 0.13878 0.51974 0.0
C1944 C 0.44489 0.99378 0.55975 0.0
C1945 C 0.47302 0.01103 0.562 0.0
C1946 C 0.53012 0.0802 0.54633 0.0
C1947 C 0.60251 0.097 0.5332 0.0
C1948 C 0.57258 0.08131 0.53614 0.0
C1949 C 0.48601 0.03589 0.54755 0.0
C1950 C 0.516 0.05156 0.54517 0.0
H1951 H 0.65853 0.09964 0.56159 0.0
H1952 H 0.60945 0.06982 0.55913 0.0
H1953 H 0.56864 0.11701 0.54346 0.0
H1954 H 0.43069 0.03331 0.51743 0.0
H1955 H 0.47964 0.06332 0.52142 0.0
C1956 C 0.97292 0.59467 0.51977 0.0
C1957 C 0.97925 0.61678 0.53744 0.0
C1958 C 0.99077 0.58458 0.51739 0.0
C1959 C 0.04155 0.57991 0.55961 0.0
H1960 H 0.05523 0.55056 0.49314 0.0
C1961 C 0.11794 0.54089 0.55295 0.0
C1962 C 0.11101 0.51848 0.53551 0.0
C1963 C 0.10095 0.55205 0.55473 0.0
C1964 C 0.05125 0.55835 0.51193 0.0
H1965 H 0.01032 0.64736 0.56427 0.0
H1966 H 0.04161 0.63 0.55968 0.0
H1967 H 0.02966 0.57456 0.49011 0.0
H1968 H 0.07977 0.48862 0.5083 0.0
H1969 H 0.04992 0.50778 0.5119 0.0
H1970 H 0.06303 0.56361 0.58146 0.0
C1971 C 0.02256 0.62003 0.54831 0.0
C1972 C 0.03678 0.5722 0.51014 0.0
C1973 C 0.00472 0.63006 0.55077 0.0
C1974 C 0.0858 0.50609 0.52168 0.0
C1975 C 0.06881 0.51718 0.52354 0.0
C1976 C 0.05601 0.56605 0.5614 0.0
C1977 C 0.01524 0.59652 0.53254 0.0
C1978 C 0.03177 0.58308 0.53397 0.0
C1979 C 0.07675 0.54088 0.53919 0.0
C1980 C 0.06089 0.55504 0.5376 0.0
H1981 H 0.9534 0.58398 0.5093 0.0
H1982 H 0.9846 0.56639 0.5051 0.0
H1983 H 0.0375 0.58762 0.57842 0.0
H1984 H 0.1373 0.55094 0.56376 0.0
H1985 H 0.10758 0.57037 0.56694 0.0
C1986 C 0.56907 0.66478 0.55803 0.0
C1987 C 0.59255 0.68116 0.54241 0.0
C1988 C 0.5584 0.63658 0.55921 0.0
C1989 C 0.55656 0.58285 0.51591 0.0
H1990 H 0.52134 0.53624 0.57897 0.0
C1991 C 0.51883 0.46727 0.51923 0.0
C1992 C 0.49538 0.4508 0.53486 0.0
C1993 C 0.52928 0.49544 0.51794 0.0
C1994 C 0.53075 0.54902 0.56108 0.0
H1995 H 0.6249 0.68147 0.51826 0.0
H1996 H 0.6066 0.63239 0.52089 0.0
H1997 H 0.545 0.58571 0.58467 0.0
H1998 H 0.46283 0.45026 0.55886 0.0
H1999 H 0.48077 0.49929 0.55605 0.0
H2000 H 0.54233 0.54616 0.49232 0.0
C2001 C 0.59599 0.64117 0.53147 0.0
C2002 C 0.54441 0.5773 0.56441 0.0
C2003 C 0.60656 0.66927 0.53017 0.0
C2004 C 0.48116 0.46254 0.54695 0.0
C2005 C 0.49152 0.4906 0.54554 0.0
C2006 C 0.5429 0.55458 0.51258 0.0
C2007 C 0.57118 0.62445 0.54492 0.0
C2008 C 0.5575 0.59447 0.54188 0.0
C2009 C 0.51632 0.50743 0.53211 0.0
C2010 C 0.52984 0.53741 0.53512 0.0
H2011 H 0.55779 0.6734 0.56754 0.0
H2012 H 0.53921 0.62415 0.56973 0.0
H2013 H 0.56598 0.59563 0.49802 0.0
H2014 H 0.53028 0.45879 0.50982 0.0
H2015 H 0.54846 0.50795 0.50743 0.0
loop_
_geom_bond_atom_site_label_1
_geom_bond_atom_site_label_2
_geom_bond_distance
_geom_bond_site_symmetry_2
_ccdc_geom_bond_type
Fe0 O2 1.918 . S
Fe0 O5 1.997 . S
Fe0 O6 2.002 . S
Fe0 O11 1.976 . S
Fe0 O14 1.996 . S
Fe1 O2 1.918 . S
Fe1 O9 1.997 . S
Fe1 O12 1.996 . S
Fe1 O16 1.976 . S
Fe1 O19 2.002 . S
O2 Fe0 1.918 . S
O2 Fe1 1.918 . S
O2 Fe3 1.918 . S
Fe3 O2 1.918 . S
Fe3 O4 2.002 . S
Fe3 O13 1.976 1_455 S
Fe3 O17 1.996 . S
Fe3 O20 1.997 . S
O4 Fe3 2.002 . S
O4 C21 1.295 . S
O5 Fe0 1.997 . S
O5 C21 1.235 . S
O6 Fe0 2.002 . S
O6 C7 1.295 . S
C7 O6 1.295 . S
C7 O9 1.235 . S
C8 O13 1.287 . S
C8 O14 1.255 1_655 S
O9 Fe1 1.997 . S
O9 C7 1.235 . S
C10 O16 1.287 . S
C10 O17 1.255 . S
O11 Fe0 1.976 . S
O11 C18 1.287 . S
O12 Fe1 1.996 . S
O12 C18 1.255 . S
O13 Fe3 1.976 1_655 S
O13 C8 1.287 . S
O14 Fe0 1.996 . S
O14 C8 1.255 1_455 S
C15 O19 1.295 . S
C15 O20 1.235 . S
O16 Fe1 1.976 . S
O16 C10 1.287 . S
O17 Fe3 1.996 . S
O17 C10 1.255 . S
C18 O11 1.287 . S
C18 O12 1.255 . S
O19 Fe1 2.002 . S
O19 C15 1.295 . S
O20 Fe3 1.997 . S
O20 C15 1.235 . S
C21 O4 1.295 . S
C21 O5 1.235 . S
Fe22 O24 1.918 . S
Fe22 O27 1.997 . S
Fe22 O28 2.002 . S
Fe22 O33 1.976 . S
Fe22 O36 1.996 . S
Fe23 O24 1.918 . S
Fe23 O31 1.997 . S
Fe23 O34 1.996 . S
Fe23 O38 1.976 . S
Fe23 O41 2.002 . S
O24 Fe22 1.918 . S
O24 Fe23 1.918 . S
O24 Fe25 1.918 . S
Fe25 O24 1.918 . S
Fe25 O26 2.002 . S
Fe25 O35 1.976 . S
Fe25 O39 1.996 . S
Fe25 O42 1.997 . S
O26 Fe25 2.002 . S
O26 C43 1.295 . S
O27 Fe22 1.997 . S
O27 C43 1.235 . S
O28 Fe22 2.002 . S
O28 C29 1.295 . S
C29 O28 1.295 . S
C29 O31 1.235 . S
C30 O35 1.287 . S
C30 O36 1.255 . S
O31 Fe23 1.997 . S
O31 C29 1.235 . S
C32 O38 1.287 . S
C32 O39 1.255 . S
O33 Fe22 1.976 . S
O33 C40 1.287 . S
O34 Fe23 1.996 . S
O34 C40 1.255 . S
O35 Fe25 1.976 . S
O35 C30 1.287 . S
O36 Fe22 1.996 . S
O36 C30 1.255 . S
C37 O41 1.295 . S
C37 O42 1.235 . S
O38 Fe23 1.976 . S
O38 C32 1.287 . S
O39 Fe25 1.996 . S
O39 C32 1.255 . S
C40 O33 1.287 . S
C40 O34 1.255 . S
O41 Fe23 2.002 . S
O41 C37 1.295 . S
O42 Fe25 1.997 . S
O42 C37 1.235 . S
C43 O26 1.295 . S
C43 O27 1.235 . S
Fe44 O46 1.918 . S
Fe44 O49 1.997 . S
Fe44 O50 2.002 . S
Fe44 O55 1.976 . S
Fe44 O58 1.996 . S
Fe45 O46 1.918 . S
Fe45 O53 1.997 . S
Fe45 O56 1.996 . S
Fe45 O60 1.976 . S
Fe45 O63 2.002 . S
O46 Fe44 1.918 . S
O46 Fe45 1.918 . S
O46 Fe47 1.918 . S
Fe47 O46 1.918 . S
Fe47 O48 2.002 . S
Fe47 O57 1.976 . S
Fe47 O61 1.996 . S
Fe47 O64 1.997 . S
O48 Fe47 2.002 . S
O48 C65 1.295 . S
O49 Fe44 1.997 . S
O49 C65 1.235 . S
O50 Fe44 2.002 . S
O50 C51 1.295 . S
C51 O50 1.295 . S
C51 O53 1.235 . S
C52 O57 1.287 . S
C52 O58 1.255 . S
O53 Fe45 1.997 . S
O53 C51 1.235 . S
C54 O60 1.287 . S
C54 O61 1.255 . S
O55 Fe44 1.976 . S
O55 C62 1.287 . S
O56 Fe45 1.996 . S
O56 C62 1.255 . S
O57 Fe47 1.976 . S
O57 C52 1.287 . S
O58 Fe44 1.996 . S
O58 C52 1.255 . S
C59 O63 1.295 . S
C59 O64 1.235 . S
O60 Fe45 1.976 . S
O60 C54 1.287 . S
O61 Fe47 1.996 . S
O61 C54 1.255 . S
C62 O55 1.287 . S
C62 O56 1.255 . S
O63 Fe45 2.002 . S
O63 C59 1.295 . S
O64 Fe47 1.997 . S
O64 C59 1.235 . S
C65 O48 1.295 . S
C65 O49 1.235 . S
Fe66 O68 1.918 . S
Fe66 O71 1.997 . S
Fe66 O72 2.002 1_455 S
Fe66 O77 1.976 . S
Fe66 O80 1.996 . S
Fe67 O68 1.918 . S
Fe67 O75 1.997 . S
Fe67 O78 1.996 . S
Fe67 O82 1.976 . S
Fe67 O85 2.002 . S
O68 Fe66 1.918 . S
O68 Fe67 1.918 . S
O68 Fe69 1.918 . S
Fe69 O68 1.918 . S
Fe69 O70 2.002 . S
Fe69 O79 1.976 . S
Fe69 O83 1.996 . S
Fe69 O86 1.997 . S
O70 Fe69 2.002 . S
O70 C87 1.295 . S
O71 Fe66 1.997 . S
O71 C87 1.235 . S
O72 Fe66 2.002 1_655 S
O72 C73 1.295 . S
C73 O72 1.295 . S
C73 O75 1.235 1_655 S
C74 O79 1.287 . S
C74 O80 1.255 . S
O75 Fe67 1.997 . S
O75 C73 1.235 1_455 S
C76 O82 1.287 . S
C76 O83 1.255 . S
O77 Fe66 1.976 . S
O77 C84 1.287 . S
O78 Fe67 1.996 . S
O78 C84 1.255 . S
O79 Fe69 1.976 . S
O79 C74 1.287 . S
O80 Fe66 1.996 . S
O80 C74 1.255 . S
C81 O85 1.295 . S
C81 O86 1.235 . S
O82 Fe67 1.976 . S
O82 C76 1.287 . S
O83 Fe69 1.996 . S
O83 C76 1.255 . S
C84 O77 1.287 . S
C84 O78 1.255 . S
O85 Fe67 2.002 . S
O85 C81 1.295 . S
O86 Fe69 1.997 . S
O86 C81 1.235 . S
C87 O70 1.295 . S
C87 O71 1.235 . S
Fe88 O90 1.918 . S
Fe88 O93 1.997 . S
Fe88 O94 2.002 . S
Fe88 O99 1.976 . S
Fe88 O102 1.996 . S
Fe89 O90 1.918 . S
Fe89 O97 1.997 . S
Fe89 O100 1.996 . S
Fe89 O104 1.976 . S
Fe89 O107 2.002 . S
O90 Fe88 1.918 . S
O90 Fe89 1.918 . S
O90 Fe91 1.918 . S
Fe91 O90 1.918 . S
Fe91 O92 2.002 . S
Fe91 O101 1.976 . S
Fe91 O105 1.996 . S
Fe91 O108 1.997 . S
O92 Fe91 2.002 . S
O92 C109 1.295 . S
O93 Fe88 1.997 . S
O93 C109 1.235 . S
O94 Fe88 2.002 . S
O94 C95 1.295 . S
C95 O94 1.295 . S
C95 O97 1.235 . S
C96 O101 1.287 . S
C96 O102 1.255 . S
O97 Fe89 1.997 . S
O97 C95 1.235 . S
C98 O104 1.287 . S
C98 O105 1.255 . S
O99 Fe88 1.976 . S
O99 C106 1.287 . S
O100 Fe89 1.996 . S
O100 C106 1.255 . S
O101 Fe91 1.976 . S
O101 C96 1.287 . S
O102 Fe88 1.996 . S
O102 C96 1.255 . S
C103 O107 1.295 . S
C103 O108 1.235 . S
O104 Fe89 1.976 . S
O104 C98 1.287 . S
O105 Fe91 1.996 . S
O105 C98 1.255 . S
C106 O99 1.287 . S
C106 O100 1.255 . S
O107 Fe89 2.002 . S
O107 C103 1.295 . S
O108 Fe91 1.997 . S
O108 C103 1.235 . S
C109 O92 1.295 . S
C109 O93 1.235 . S
Fe110 O112 1.918 . S
Fe110 O115 1.997 . S
Fe110 O116 2.002 . S
Fe110 O121 1.976 . S
Fe110 O124 1.996 . S
Fe111 O112 1.918 . S
Fe111 O119 1.997 . S
Fe111 O122 1.996 . S
Fe111 O126 1.976 . S
Fe111 O129 2.002 . S
O112 Fe110 1.918 . S
O112 Fe111 1.918 . S
O112 Fe113 1.918 . S
Fe113 O112 1.918 . S
Fe113 O114 2.002 . S
Fe113 O123 1.976 . S
Fe113 O127 1.996 . S
Fe113 O130 1.997 . S
O114 Fe113 2.002 . S
O114 C131 1.295 . S
O115 Fe110 1.997 . S
O115 C131 1.235 . S
O116 Fe110 2.002 . S
O116 C117 1.295 . S
C117 O116 1.295 . S
C117 O119 1.235 . S
C118 O123 1.287 . S
C118 O124 1.255 . S
O119 Fe111 1.997 . S
O119 C117 1.235 . S
C120 O126 1.287 . S
C120 O127 1.255 . S
O121 Fe110 1.976 . S
O121 C128 1.287 . S
O122 Fe111 1.996 . S
O122 C128 1.255 . S
O123 Fe113 1.976 . S
O123 C118 1.287 . S
O124 Fe110 1.996 . S
O124 C118 1.255 . S
C125 O129 1.295 . S
C125 O130 1.235 . S
O126 Fe111 1.976 . S
O126 C120 1.287 . S
O127 Fe113 1.996 . S
O127 C120 1.255 . S
C128 O121 1.287 . S
C128 O122 1.255 . S
O129 Fe111 2.002 . S
O129 C125 1.295 . S
O130 Fe113 1.997 . S
O130 C125 1.235 . S
C131 O114 1.295 . S
C131 O115 1.235 . S
Fe132 O134 1.918 . S
Fe132 O137 1.997 . S
Fe132 O138 2.002 . S
Fe132 O143 1.976 . S
Fe132 O146 1.996 . S
Fe133 O134 1.918 . S
Fe133 O141 1.997 . S
Fe133 O144 1.996 . S
Fe133 O148 1.976 . S
Fe133 O151 2.002 . S
O134 Fe132 1.918 . S
O134 Fe133 1.918 . S
O134 Fe135 1.918 . S
Fe135 O134 1.918 . S
Fe135 O136 2.002 . S
Fe135 O145 1.976 . S
Fe135 O149 1.996 . S
Fe135 O152 1.997 . S
O136 Fe135 2.002 . S
O136 C153 1.295 . S
O137 Fe132 1.997 . S
O137 C153 1.235 . S
O138 Fe132 2.002 . S
O138 C139 1.295 . S
C139 O138 1.295 . S
C139 O141 1.235 . S
C140 O145 1.287 . S
C140 O146 1.255 . S
O141 Fe133 1.997 . S
O141 C139 1.235 . S
C142 O148 1.287 . S
C142 O149 1.255 . S
O143 Fe132 1.976 . S
O143 C150 1.287 . S
O144 Fe133 1.996 . S
O144 C150 1.255 . S
O145 Fe135 1.976 . S
O145 C140 1.287 . S
O146 Fe132 1.996 . S
O146 C140 1.255 . S
C147 O151 1.295 . S
C147 O152 1.235 . S
O148 Fe133 1.976 . S
O148 C142 1.287 . S
O149 Fe135 1.996 . S
O149 C142 1.255 . S
C150 O143 1.287 . S
C150 O144 1.255 . S
O151 Fe133 2.002 . S
O151 C147 1.295 . S
O152 Fe135 1.997 . S
O152 C147 1.235 . S
C153 O136 1.295 . S
C153 O137 1.235 . S
Fe154 O156 1.918 . S
Fe154 O159 1.997 . S
Fe154 O160 2.002 . S
Fe154 O165 1.976 . S
Fe154 O168 1.996 . S
Fe155 O156 1.918 . S
Fe155 O163 1.997 . S
Fe155 O166 1.996 . S
Fe155 O170 1.976 . S
Fe155 O173 2.002 . S
O156 Fe154 1.918 . S
O156 Fe155 1.918 . S
O156 Fe157 1.918 . S
Fe157 O156 1.918 . S
Fe157 O158 2.002 . S
Fe157 O167 1.976 . S
Fe157 O171 1.996 . S
Fe157 O174 1.997 . S
O158 Fe157 2.002 . S
O158 C175 1.295 . S
O159 Fe154 1.997 . S
O159 C175 1.235 . S
O160 Fe154 2.002 . S
O160 C161 1.295 . S
C161 O160 1.295 . S
C161 O163 1.235 . S
C162 O167 1.287 . S
C162 O168 1.255 . S
O163 Fe155 1.997 . S
O163 C161 1.235 . S
C164 O170 1.287 . S
C164 O171 1.255 . S
O165 Fe154 1.976 . S
O165 C172 1.287 . S
O166 Fe155 1.996 . S
O166 C172 1.255 . S
O167 Fe157 1.976 . S
O167 C162 1.287 . S
O168 Fe154 1.996 . S
O168 C162 1.255 . S
C169 O173 1.295 . S
C169 O174 1.235 . S
O170 Fe155 1.976 . S
O170 C164 1.287 . S
O171 Fe157 1.996 . S
O171 C164 1.255 . S
C172 O165 1.287 . S
C172 O166 1.255 . S
O173 Fe155 2.002 . S
O173 C169 1.295 . S
O174 Fe157 1.997 . S
O174 C169 1.235 . S
C175 O158 1.295 . S
C175 O159 1.235 . S
Fe176 O178 1.918 . S
Fe176 O181 1.997 . S
Fe176 O182 2.002 . S
Fe176 O187 1.976 . S
Fe176 O190 1.996 . S
Fe177 O178 1.918 . S
Fe177 O185 1.997 . S
Fe177 O188 1.996 . S
Fe177 O192 1.976 . S
Fe177 O195 2.002 . S
O178 Fe176 1.918 . S
O178 Fe177 1.918 . S
O178 Fe179 1.918 . S
Fe179 O178 1.918 . S
Fe179 O180 2.002 . S
Fe179 O189 1.976 . S
Fe179 O193 1.996 . S
Fe179 O196 1.997 . S
O180 Fe179 2.002 . S
O180 C197 1.295 . S
O181 Fe176 1.997 . S
O181 C197 1.235 . S
O182 Fe176 2.002 . S
O182 C183 1.295 . S
C183 O182 1.295 . S
C183 O185 1.235 . S
C184 O189 1.287 . S
C184 O190 1.255 . S
O185 Fe177 1.997 . S
O185 C183 1.235 . S
C186 O192 1.287 . S
C186 O193 1.255 . S
O187 Fe176 1.976 . S
O187 C194 1.287 . S
O188 Fe177 1.996 . S
O188 C194 1.255 . S
O189 Fe179 1.976 . S
O189 C184 1.287 . S
O190 Fe176 1.996 . S
O190 C184 1.255 . S
C191 O195 1.295 . S
C191 O196 1.235 . S
O192 Fe177 1.976 . S
O192 C186 1.287 . S
O193 Fe179 1.996 . S
O193 C186 1.255 . S
C194 O187 1.287 . S
C194 O188 1.255 . S
O195 Fe177 2.002 . S
O195 C191 1.295 . S
O196 Fe179 1.997 . S
O196 C191 1.235 . S
C197 O180 1.295 . S
C197 O181 1.235 . S
Fe198 O200 1.918 . S
Fe198 O203 1.997 . S
Fe198 O204 2.002 . S
Fe198 O209 1.976 . S
Fe198 O212 1.996 . S
Fe199 O200 1.918 . S
Fe199 O207 1.997 . S
Fe199 O210 1.996 . S
Fe199 O214 1.976 . S
Fe199 O217 2.002 . S
O200 Fe198 1.918 . S
O200 Fe199 1.918 . S
O200 Fe201 1.918 . S
Fe201 O200 1.918 . S
Fe201 O202 2.002 . S
Fe201 O211 1.976 . S
Fe201 O215 1.996 . S
Fe201 O218 1.997 . S
O202 Fe201 2.002 . S
O202 C219 1.295 . S
O203 Fe198 1.997 . S
O203 C219 1.235 . S
O204 Fe198 2.002 . S
O204 C205 1.295 . S
C205 O204 1.295 . S
C205 O207 1.235 . S
C206 O211 1.287 . S
C206 O212 1.255 . S
O207 Fe199 1.997 . S
O207 C205 1.235 . S
C208 O214 1.287 . S
C208 O215 1.255 . S
O209 Fe198 1.976 . S
O209 C216 1.287 . S
O210 Fe199 1.996 . S
O210 C216 1.255 . S
O211 Fe201 1.976 . S
O211 C206 1.287 . S
O212 Fe198 1.996 . S
O212 C206 1.255 . S
C213 O217 1.295 . S
C213 O218 1.235 . S
O214 Fe199 1.976 . S
O214 C208 1.287 . S
O215 Fe201 1.996 . S
O215 C208 1.255 . S
C216 O209 1.287 . S
C216 O210 1.255 . S
O217 Fe199 2.002 . S
O217 C213 1.295 . S
O218 Fe201 1.997 . S
O218 C213 1.235 . S
C219 O202 1.295 . S
C219 O203 1.235 . S
Fe220 O222 1.918 . S
Fe220 O225 1.997 . S
Fe220 O226 2.002 . S
Fe220 O231 1.976 . S
Fe220 O234 1.996 . S
Fe221 O222 1.918 . S
Fe221 O229 1.997 . S
Fe221 O232 1.996 . S
Fe221 O236 1.976 . S
Fe221 O239 2.002 . S
O222 Fe220 1.918 . S
O222 Fe221 1.918 . S
O222 Fe223 1.918 . S
Fe223 O222 1.918 . S
Fe223 O224 2.002 . S
Fe223 O233 1.976 . S
Fe223 O237 1.996 . S
Fe223 O240 1.997 . S
O224 Fe223 2.002 . S
O224 C241 1.295 . S
O225 Fe220 1.997 . S
O225 C241 1.235 . S
O226 Fe220 2.002 . S
O226 C227 1.295 . S
C227 O226 1.295 . S
C227 O229 1.235 . S
C228 O233 1.287 . S
C228 O234 1.255 . S
O229 Fe221 1.997 . S
O229 C227 1.235 . S
C230 O236 1.287 . S
C230 O237 1.255 . S
O231 Fe220 1.976 . S
O231 C238 1.287 . S
O232 Fe221 1.996 . S
O232 C238 1.255 . S
O233 Fe223 1.976 . S
O233 C228 1.287 . S
O234 Fe220 1.996 . S
O234 C228 1.255 . S
C235 O239 1.295 . S
C235 O240 1.235 . S
O236 Fe221 1.976 . S
O236 C230 1.287 . S
O237 Fe223 1.996 . S
O237 C230 1.255 . S
C238 O231 1.287 . S
C238 O232 1.255 . S
O239 Fe221 2.002 . S
O239 C235 1.295 . S
O240 Fe223 1.997 . S
O240 C235 1.235 . S
C241 O224 1.295 . S
C241 O225 1.235 . S
Fe242 O244 1.918 . S
Fe242 O247 1.997 . S
Fe242 O248 2.002 . S
Fe242 O253 1.976 . S
Fe242 O256 1.996 . S
Fe243 O244 1.918 . S
Fe243 O251 1.997 . S
Fe243 O254 1.996 . S
Fe243 O258 1.976 . S
Fe243 O261 2.002 . S
O244 Fe242 1.918 . S
O244 Fe243 1.918 . S
O244 Fe245 1.918 . S
Fe245 O244 1.918 . S
Fe245 O246 2.002 . S
Fe245 O255 1.976 . S
Fe245 O259 1.996 . S
Fe245 O262 1.997 . S
O246 Fe245 2.002 . S
O246 C263 1.295 . S
O247 Fe242 1.997 . S
O247 C263 1.235 . S
O248 Fe242 2.002 . S
O248 C249 1.295 . S
C249 O248 1.295 . S
C249 O251 1.235 . S
C250 O255 1.287 . S
C250 O256 1.255 . S
O251 Fe243 1.997 . S
O251 C249 1.235 . S
C252 O258 1.287 . S
C252 O259 1.255 . S
O253 Fe242 1.976 . S
O253 C260 1.287 . S
O254 Fe243 1.996 . S
O254 C260 1.255 . S
O255 Fe245 1.976 . S
O255 C250 1.287 . S
O256 Fe242 1.996 . S
O256 C250 1.255 . S
C257 O261 1.295 . S
C257 O262 1.235 . S
O258 Fe243 1.976 . S
O258 C252 1.287 . S
O259 Fe245 1.996 . S
O259 C252 1.255 . S
C260 O253 1.287 . S
C260 O254 1.255 . S
O261 Fe243 2.002 . S
O261 C257 1.295 . S
O262 Fe245 1.997 . S
O262 C257 1.235 . S
C263 O246 1.295 . S
C263 O247 1.235 . S
Fe264 O266 1.918 . S
Fe264 O269 1.997 . S
Fe264 O270 2.002 . S
Fe264 O275 1.976 . S
Fe264 O278 1.996 . S
Fe265 O266 1.918 . S
Fe265 O273 1.997 . S
Fe265 O276 1.996 . S
Fe265 O280 1.976 . S
Fe265 O283 2.002 . S
O266 Fe264 1.918 . S
O266 Fe265 1.918 . S
O266 Fe267 1.918 . S
Fe267 O266 1.918 . S
Fe267 O268 2.002 . S
Fe267 O277 1.976 . S
Fe267 O281 1.996 . S
Fe267 O284 1.997 . S
O268 Fe267 2.002 . S
O268 C285 1.295 . S
O269 Fe264 1.997 . S
O269 C285 1.235 . S
O270 Fe264 2.002 . S
O270 C271 1.295 . S
C271 O270 1.295 . S
C271 O273 1.235 . S
C272 O277 1.287 . S
C272 O278 1.255 . S
O273 Fe265 1.997 . S
O273 C271 1.235 . S
C274 O280 1.287 . S
C274 O281 1.255 . S
O275 Fe264 1.976 . S
O275 C282 1.287 . S
O276 Fe265 1.996 . S
O276 C282 1.255 . S
O277 Fe267 1.976 . S
O277 C272 1.287 . S
O278 Fe264 1.996 . S
O278 C272 1.255 . S
C279 O283 1.295 . S
C279 O284 1.235 . S
O280 Fe265 1.976 . S
O280 C274 1.287 . S
O281 Fe267 1.996 . S
O281 C274 1.255 . S
C282 O275 1.287 . S
C282 O276 1.255 . S
O283 Fe265 2.002 . S
O283 C279 1.295 . S
O284 Fe267 1.997 . S
O284 C279 1.235 . S
C285 O268 1.295 . S
C285 O269 1.235 . S
Fe286 O288 1.918 . S
Fe286 O291 1.997 . S
Fe286 O292 2.002 . S
Fe286 O297 1.976 . S
Fe286 O300 1.996 . S
Fe287 O288 1.918 . S
Fe287 O295 1.997 . S
Fe287 O298 1.996 . S
Fe287 O302 1.976 . S
Fe287 O305 2.002 . S
O288 Fe286 1.918 . S
O288 Fe287 1.918 . S
O288 Fe289 1.918 . S
Fe289 O288 1.918 . S
Fe289 O290 2.002 . S
Fe289 O299 1.976 . S
Fe289 O303 1.996 . S
Fe289 O306 1.997 . S
O290 Fe289 2.002 . S
O290 C307 1.295 . S
O291 Fe286 1.997 . S
O291 C307 1.235 . S
O292 Fe286 2.002 . S
O292 C293 1.295 . S
C293 O292 1.295 . S
C293 O295 1.235 . S
C294 O299 1.287 . S
C294 O300 1.255 . S
O295 Fe287 1.997 . S
O295 C293 1.235 . S
C296 O302 1.287 . S
C296 O303 1.255 . S
O297 Fe286 1.976 . S
O297 C304 1.287 . S
O298 Fe287 1.996 . S
O298 C304 1.255 . S
O299 Fe289 1.976 . S
O299 C294 1.287 . S
O300 Fe286 1.996 . S
O300 C294 1.255 . S
C301 O305 1.295 . S
C301 O306 1.235 . S
O302 Fe287 1.976 . S
O302 C296 1.287 . S
O303 Fe289 1.996 . S
O303 C296 1.255 . S
C304 O297 1.287 . S
C304 O298 1.255 . S
O305 Fe287 2.002 . S
O305 C301 1.295 . S
O306 Fe289 1.997 . S
O306 C301 1.235 . S
C307 O290 1.295 . S
C307 O291 1.235 . S
Fe308 O310 1.918 . S
Fe308 O313 1.997 . S
Fe308 O314 2.002 . S
Fe308 O319 1.976 . S
Fe308 O322 1.996 . S
Fe309 O310 1.918 . S
Fe309 O317 1.997 . S
Fe309 O320 1.996 . S
Fe309 O324 1.976 . S
Fe309 O327 2.002 . S
O310 Fe308 1.918 . S
O310 Fe309 1.918 . S
O310 Fe311 1.918 . S
Fe311 O310 1.918 . S
Fe311 O312 2.002 . S
Fe311 O321 1.976 . S
Fe311 O325 1.996 . S
Fe311 O328 1.997 . S
O312 Fe311 2.002 . S
O312 C329 1.295 . S
O313 Fe308 1.997 . S
O313 C329 1.235 . S
O314 Fe308 2.002 . S
O314 C315 1.295 . S
C315 O314 1.295 . S
C315 O317 1.235 . S
C316 O321 1.287 . S
C316 O322 1.255 . S
O317 Fe309 1.997 . S
O317 C315 1.235 . S
C318 O324 1.287 . S
C318 O325 1.255 . S
O319 Fe308 1.976 . S
O319 C326 1.287 . S
O320 Fe309 1.996 . S
O320 C326 1.255 . S
O321 Fe311 1.976 . S
O321 C316 1.287 . S
O322 Fe308 1.996 . S
O322 C316 1.255 . S
C323 O327 1.295 . S
C323 O328 1.235 . S
O324 Fe309 1.976 . S
O324 C318 1.287 . S
O325 Fe311 1.996 . S
O325 C318 1.255 . S
C326 O319 1.287 . S
C326 O320 1.255 . S
O327 Fe309 2.002 . S
O327 C323 1.295 . S
O328 Fe311 1.997 . S
O328 C323 1.235 . S
C329 O312 1.295 . S
C329 O313 1.235 . S
Fe330 O332 1.918 . S
Fe330 O335 1.997 . S
Fe330 O336 2.002 . S
Fe330 O341 1.976 . S
Fe330 O344 1.996 . S
Fe331 O332 1.918 . S
Fe331 O339 1.997 . S
Fe331 O342 1.996 . S
Fe331 O346 1.976 . S
Fe331 O349 2.002 . S
O332 Fe330 1.918 . S
O332 Fe331 1.918 . S
O332 Fe333 1.918 . S
Fe333 O332 1.918 . S
Fe333 O334 2.002 . S
Fe333 O343 1.976 . S
Fe333 O347 1.996 . S
Fe333 O350 1.997 . S
O334 Fe333 2.002 . S
O334 C351 1.295 . S
O335 Fe330 1.997 . S
O335 C351 1.235 . S
O336 Fe330 2.002 . S
O336 C337 1.295 . S
C337 O336 1.295 . S
C337 O339 1.235 . S
C338 O343 1.287 . S
C338 O344 1.255 . S
O339 Fe331 1.997 . S
O339 C337 1.235 . S
C340 O346 1.287 . S
C340 O347 1.255 . S
O341 Fe330 1.976 . S
O341 C348 1.287 . S
O342 Fe331 1.996 . S
O342 C348 1.255 . S
O343 Fe333 1.976 . S
O343 C338 1.287 . S
O344 Fe330 1.996 . S
O344 C338 1.255 . S
C345 O349 1.295 . S
C345 O350 1.235 . S
O346 Fe331 1.976 . S
O346 C340 1.287 . S
O347 Fe333 1.996 . S
O347 C340 1.255 . S
C348 O341 1.287 . S
C348 O342 1.255 . S
O349 Fe331 2.002 . S
O349 C345 1.295 . S
O350 Fe333 1.997 . S
O350 C345 1.235 . S
C351 O334 1.295 . S
C351 O335 1.235 . S
Fe352 O354 1.918 . S
Fe352 O357 1.997 . S
Fe352 O358 2.002 . S
Fe352 O363 1.976 . S
Fe352 O366 1.996 . S
Fe353 O354 1.918 . S
Fe353 O361 1.997 . S
Fe353 O364 1.996 . S
Fe353 O368 1.976 . S
Fe353 O371 2.002 . S
O354 Fe352 1.918 . S
O354 Fe353 1.918 . S
O354 Fe355 1.918 . S
Fe355 O354 1.918 . S
Fe355 O356 2.002 . S
Fe355 O365 1.976 . S
Fe355 O369 1.996 . S
Fe355 O372 1.997 . S
O356 Fe355 2.002 . S
O356 C373 1.295 . S
O357 Fe352 1.997 . S
O357 C373 1.235 . S
O358 Fe352 2.002 . S
O358 C359 1.295 . S
C359 O358 1.295 . S
C359 O361 1.235 . S
C360 O365 1.287 . S
C360 O366 1.255 . S
O361 Fe353 1.997 . S
O361 C359 1.235 . S
C362 O368 1.287 . S
C362 O369 1.255 . S
O363 Fe352 1.976 . S
O363 C370 1.287 . S
O364 Fe353 1.996 . S
O364 C370 1.255 . S
O365 Fe355 1.976 . S
O365 C360 1.287 . S
O366 Fe352 1.996 . S
O366 C360 1.255 . S
C367 O371 1.295 . S
C367 O372 1.235 . S
O368 Fe353 1.976 . S
O368 C362 1.287 . S
O369 Fe355 1.996 . S
O369 C362 1.255 . S
C370 O363 1.287 . S
C370 O364 1.255 . S
O371 Fe353 2.002 . S
O371 C367 1.295 . S
O372 Fe355 1.997 . S
O372 C367 1.235 . S
C373 O356 1.295 . S
C373 O357 1.235 . S
Fe374 O376 1.918 . S
Fe374 O379 1.997 . S
Fe374 O380 2.002 . S
Fe374 O385 1.976 . S
Fe374 O388 1.996 . S
Fe375 O376 1.918 . S
Fe375 O383 1.997 . S
Fe375 O386 1.996 . S
Fe375 O390 1.976 . S
Fe375 O393 2.002 . S
O376 Fe374 1.918 . S
O376 Fe375 1.918 . S
O376 Fe377 1.918 . S
Fe377 O376 1.918 . S
Fe377 O378 2.002 . S
Fe377 O387 1.976 . S
Fe377 O391 1.996 . S
Fe377 O394 1.997 . S
O378 Fe377 2.002 . S
O378 C395 1.295 . S
O379 Fe374 1.997 . S
O379 C395 1.235 . S
O380 Fe374 2.002 . S
O380 C381 1.295 . S
C381 O380 1.295 . S
C381 O383 1.235 . S
C382 O387 1.287 . S
C382 O388 1.255 . S
O383 Fe375 1.997 . S
O383 C381 1.235 . S
C384 O390 1.287 . S
C384 O391 1.255 . S
O385 Fe374 1.976 . S
O385 C392 1.287 . S
O386 Fe375 1.996 . S
O386 C392 1.255 . S
O387 Fe377 1.976 . S
O387 C382 1.287 . S
O388 Fe374 1.996 . S
O388 C382 1.255 . S
C389 O393 1.295 . S
C389 O394 1.235 . S
O390 Fe375 1.976 . S
O390 C384 1.287 . S
O391 Fe377 1.996 . S
O391 C384 1.255 . S
C392 O385 1.287 . S
C392 O386 1.255 . S
O393 Fe375 2.002 . S
O393 C389 1.295 . S
O394 Fe377 1.997 . S
O394 C389 1.235 . S
C395 O378 1.295 . S
C395 O379 1.235 . S
C396 C397 1.349 . S
C396 C398 1.327 . S
C396 H421 0.950 . S
C397 C396 1.349 . S
C397 C413 1.349 . S
C398 C396 1.327 . S
C398 C417 1.429 . S
C398 H422 0.950 . S
C399 C416 1.574 . S
C399 C418 1.368 . S
C399 H423 0.949 . S
H400 C404 0.949 . S
C401 C402 1.349 . S
C401 C403 1.327 . S
C401 H424 0.950 . S
C402 C401 1.349 . S
C402 C414 1.349 . S
C403 C401 1.327 . S
C403 C419 1.429 . S
C403 H425 0.950 . S
C404 H400 0.949 . S
C404 C412 1.574 . S
C404 C420 1.368 . S
H405 C413 0.950 . S
H406 C411 0.950 . S
H407 C412 0.949 . S
H408 C414 0.950 . S
H409 C415 0.950 . S
H410 C416 0.949 . S
C411 H406 0.950 . S
C411 C413 1.327 . S
C411 C417 1.429 . S
C412 C404 1.574 . S
C412 H407 0.949 . S
C412 C418 1.368 . S
C413 C397 1.349 . S
C413 H405 0.950 . S
C413 C411 1.327 . S
C414 C402 1.349 . S
C414 H408 0.950 . S
C414 C415 1.327 . S
C415 H409 0.950 . S
C415 C414 1.327 . S
C415 C419 1.429 . S
C416 C399 1.574 . S
C416 H410 0.949 . S
C416 C420 1.368 . S
C417 C398 1.429 . S
C417 C411 1.429 . S
C417 C418 1.523 . S
C418 C399 1.368 . S
C418 C412 1.368 . S
C418 C417 1.523 . S
C419 C403 1.429 . S
C419 C415 1.429 . S
C419 C420 1.523 . S
C420 C404 1.368 . S
C420 C416 1.368 . S
C420 C419 1.523 . S
H421 C396 0.950 . S
H422 C398 0.950 . S
H423 C399 0.949 . S
H424 C401 0.950 . S
H425 C403 0.950 . S
C426 C427 1.349 . S
C426 C428 1.327 . S
C426 H451 0.950 1_655 S
C427 C426 1.349 . S
C427 C443 1.349 . S
C428 C426 1.327 . S
C428 C447 1.429 . S
C428 H452 0.950 . S
C429 C446 1.574 . S
C429 C448 1.368 . S
C429 H453 0.949 . S
H430 C434 0.949 . S
C431 C432 1.349 . S
C431 C433 1.327 . S
C431 H454 0.950 . S
C432 C431 1.349 . S
C432 C444 1.349 . S
C433 C431 1.327 . S
C433 C449 1.429 1_565 S
C433 H455 0.950 . S
C434 H430 0.949 . S
C434 C442 1.574 . S
C434 C450 1.368 . S
H435 C443 0.950 . S
H436 C441 0.950 . S
H437 C442 0.949 . S
H438 C444 0.950 . S
H439 C445 0.943 1_545 S
H440 C446 0.949 . S
C441 H436 0.950 . S
C441 C443 1.327 . S
C441 C447 1.429 . S
C442 C434 1.574 . S
C442 H437 0.949 . S
C442 C448 1.368 . S
C443 C427 1.349 . S
C443 H435 0.950 . S
C443 C441 1.327 . S
C444 C432 1.349 . S
C444 H438 0.950 . S
C444 C445 1.327 . S
C445 H439 0.943 1_565 S
C445 C444 1.327 . S
C445 C449 1.429 1_565 S
C446 C429 1.574 . S
C446 H440 0.949 . S
C446 C450 1.368 . S
C447 C428 1.429 . S
C447 C441 1.429 . S
C447 C448 1.523 . S
C448 C429 1.368 . S
C448 C442 1.368 . S
C448 C447 1.523 . S
C449 C433 1.429 1_545 S
C449 C445 1.429 1_545 S
C449 C450 1.523 . S
C450 C434 1.368 . S
C450 C446 1.368 . S
C450 C449 1.523 . S
H451 C426 0.950 1_455 S
H452 C428 0.950 . S
H453 C429 0.949 . S
H454 C431 0.950 . S
H455 C433 0.950 . S
C456 C457 1.349 . S
C456 C458 1.327 . S
C456 H481 0.950 . S
C457 C456 1.349 . S
C457 C473 1.349 . S
C458 C456 1.327 . S
C458 C477 1.429 . S
C458 H482 0.950 . S
C459 C476 1.574 . S
C459 C478 1.368 . S
C459 H483 0.949 . S
H460 C464 0.949 . S
C461 C462 1.349 . S
C461 C463 1.327 1_545 S
C461 H484 0.950 . S
C462 C461 1.349 . S
C462 C474 1.349 . S
C463 C461 1.327 1_565 S
C463 C479 1.429 . S
C463 H485 0.950 . S
C464 H460 0.949 . S
C464 C472 1.574 . S
C464 C480 1.368 . S
H465 C473 0.950 . S
H466 C471 0.950 . S
H467 C472 0.949 . S
H468 C474 0.950 . S
H469 C475 0.950 . S
H470 C476 0.949 . S
C471 H466 0.950 . S
C471 C473 1.327 . S
C471 C477 1.429 . S
C472 C464 1.574 . S
C472 H467 0.949 . S
C472 C478 1.368 . S
C473 C457 1.349 . S
C473 H465 0.950 . S
C473 C471 1.327 . S
C474 C462 1.349 . S
C474 H468 0.950 . S
C474 C475 1.327 1_545 S
C475 H469 0.950 . S
C475 C474 1.327 1_565 S
C475 C479 1.429 . S
C476 C459 1.574 . S
C476 H470 0.949 . S
C476 C480 1.368 . S
C477 C458 1.429 . S
C477 C471 1.429 . S
C477 C478 1.523 1_655 S
C478 C459 1.368 . S
C478 C472 1.368 . S
C478 C477 1.523 1_455 S
C479 C463 1.429 . S
C479 C475 1.429 . S
C479 C480 1.523 . S
C480 C464 1.368 . S
C480 C476 1.368 . S
C480 C479 1.523 . S
H481 C456 0.950 . S
H482 C458 0.950 . S
H483 C459 0.949 . S
H484 C461 0.950 . S
H485 C463 0.950 . S
C486 C487 1.349 . S
C486 C488 1.327 . S
C486 H511 0.950 1_655 S
C487 C486 1.349 . S
C487 C503 1.349 . S
C488 C486 1.327 . S
C488 C507 1.429 . S
C488 H512 0.950 . S
C489 C506 1.574 . S
C489 C508 1.368 . S
C489 H513 0.949 . S
H490 C494 0.949 . S
C491 C492 1.349 1_565 S
C491 C493 1.327 . S
C491 H514 0.950 . S
C492 C491 1.349 1_545 S
C492 C504 1.349 . S
C493 C491 1.327 . S
C493 C509 1.429 . S
C493 H515 0.950 . S
C494 H490 0.949 . S
C494 C502 1.574 . S
C494 C510 1.368 . S
H495 C503 0.950 . S
H496 C501 0.950 . S
H497 C502 0.949 . S
H498 C504 0.950 . S
H499 C505 0.950 . S
H500 C506 0.949 . S
C501 H496 0.950 . S
C501 C503 1.327 . S
C501 C507 1.429 . S
C502 C494 1.574 . S
C502 H497 0.949 . S
C502 C508 1.368 . S
C503 C487 1.349 . S
C503 H495 0.950 . S
C503 C501 1.327 . S
C504 C492 1.349 . S
C504 H498 0.950 . S
C504 C505 1.327 . S
C505 H499 0.950 . S
C505 C504 1.327 . S
C505 C509 1.429 1_545 S
C506 C489 1.574 . S
C506 H500 0.949 . S
C506 C510 1.368 . S
C507 C488 1.429 . S
C507 C501 1.429 . S
C507 C508 1.523 . S
C508 C489 1.368 . S
C508 C502 1.368 . S
C508 C507 1.523 . S
C509 C493 1.429 . S
C509 C505 1.429 1_565 S
C509 C510 1.523 . S
C510 C494 1.368 . S
C510 C506 1.368 . S
C510 C509 1.523 . S
H511 C486 0.950 1_455 S
H512 C488 0.950 . S
H513 C489 0.949 . S
H514 C491 0.950 . S
H515 C493 0.950 . S
C516 C517 1.349 . S
C516 C518 1.327 . S
C516 H541 0.950 . S
C517 C516 1.349 . S
C517 C533 1.349 . S
C518 C516 1.327 . S
C518 C537 1.429 1_565 S
C518 H542 0.950 1_565 S
C519 C536 1.574 . S
C519 C538 1.368 . S
C519 H543 0.949 . S
H520 C524 0.949 . S
C521 C522 1.349 . S
C521 C523 1.327 . S
C521 H544 0.950 . S
C522 C521 1.349 . S
C522 C534 1.349 . S
C523 C521 1.327 . S
C523 C539 1.429 . S
C523 H545 0.950 . S
C524 H520 0.949 . S
C524 C532 1.574 . S
C524 C540 1.368 . S
H525 C533 0.950 . S
H526 C531 0.950 . S
H527 C532 0.949 . S
H528 C534 0.950 . S
H529 C535 0.950 . S
H530 C536 0.949 . S
C531 H526 0.950 . S
C531 C533 1.327 . S
C531 C537 1.429 1_565 S
C532 C524 1.574 . S
C532 H527 0.949 . S
C532 C538 1.368 . S
C533 C517 1.349 . S
C533 H525 0.950 . S
C533 C531 1.327 . S
C534 C522 1.349 . S
C534 H528 0.950 . S
C534 C535 1.327 . S
C535 H529 0.950 . S
C535 C534 1.327 . S
C535 C539 1.429 . S
C536 C519 1.574 . S
C536 H530 0.949 . S
C536 C540 1.368 . S
C537 C518 1.429 1_545 S
C537 C531 1.429 1_545 S
C537 C538 1.523 . S
C538 C519 1.368 . S
C538 C532 1.368 . S
C538 C537 1.523 . S
C539 C523 1.429 . S
C539 C535 1.429 . S
C539 C540 1.523 . S
C540 C524 1.368 . S
C540 C536 1.368 . S
C540 C539 1.523 . S
H541 C516 0.950 . S
H542 C518 0.950 1_545 S
H543 C519 0.949 . S
H544 C521 0.950 . S
H545 C523 0.950 . S
C546 C547 1.349 . S
C546 C548 1.327 . S
C546 H571 0.950 . S
C547 C546 1.349 . S
C547 C563 1.349 . S
C548 C546 1.327 . S
C548 C567 1.429 . S
C548 H572 0.950 . S
C549 C566 1.574 . S
C549 C568 1.368 . S
C549 H573 0.949 . S
H550 C554 0.949 . S
C551 C552 1.349 . S
C551 C553 1.327 . S
C551 H574 0.950 . S
C552 C551 1.349 . S
C552 C564 1.349 . S
C553 C551 1.327 . S
C553 C569 1.429 . S
C553 H575 0.950 . S
C554 H550 0.949 . S
C554 C562 1.574 . S
C554 C570 1.368 . S
H555 C563 0.950 . S
H556 C561 0.950 . S
H557 C562 0.949 . S
H558 C564 0.950 . S
H559 C565 0.950 . S
H560 C566 0.949 . S
C561 H556 0.950 . S
C561 C563 1.327 . S
C561 C567 1.429 . S
C562 C554 1.574 . S
C562 H557 0.949 . S
C562 C568 1.368 . S
C563 C547 1.349 . S
C563 H555 0.950 . S
C563 C561 1.327 . S
C564 C552 1.349 . S
C564 H558 0.950 . S
C564 C565 1.327 . S
C565 H559 0.950 . S
C565 C564 1.327 . S
C565 C569 1.429 . S
C566 C549 1.574 . S
C566 H560 0.949 . S
C566 C570 1.368 . S
C567 C548 1.429 . S
C567 C561 1.429 . S
C567 C568 1.523 . S
C568 C549 1.368 . S
C568 C562 1.368 . S
C568 C567 1.523 . S
C569 C553 1.429 . S
C569 C565 1.429 . S
C569 C570 1.523 1_655 S
C570 C554 1.368 . S
C570 C566 1.368 . S
C570 C569 1.523 1_455 S
H571 C546 0.950 . S
H572 C548 0.950 . S
H573 C549 0.949 . S
H574 C551 0.950 . S
H575 C553 0.950 . S
C576 C577 1.349 . S
C576 C578 1.327 . S
C576 H601 0.950 . S
C577 C576 1.349 . S
C577 C593 1.349 . S
C578 C576 1.327 . S
C578 C597 1.429 . S
C578 H602 0.950 . S
C579 C596 1.574 . S
C579 C598 1.368 . S
C579 H603 0.949 . S
H580 C584 0.949 . S
C581 C582 1.349 . S
C581 C583 1.327 . S
C581 H604 0.950 . S
C582 C581 1.349 . S
C582 C594 1.349 . S
C583 C581 1.327 . S
C583 C599 1.429 . S
C583 H605 0.950 . S
C584 H580 0.949 . S
C584 C592 1.574 . S
C584 C600 1.368 . S
H585 C593 0.950 . S
H586 C591 0.950 . S
H587 C592 0.949 . S
H588 C594 0.950 . S
H589 C595 0.950 . S
H590 C596 0.949 . S
C591 H586 0.950 . S
C591 C593 1.327 . S
C591 C597 1.429 . S
C592 C584 1.574 . S
C592 H587 0.949 . S
C592 C598 1.368 . S
C593 C577 1.349 . S
C593 H585 0.950 . S
C593 C591 1.327 . S
C594 C582 1.349 . S
C594 H588 0.950 . S
C594 C595 1.327 . S
C595 H589 0.950 . S
C595 C594 1.327 . S
C595 C599 1.429 . S
C596 C579 1.574 . S
C596 H590 0.949 . S
C596 C600 1.368 . S
C597 C578 1.429 . S
C597 C591 1.429 . S
C597 C598 1.523 . S
C598 C579 1.368 . S
C598 C592 1.368 . S
C598 C597 1.523 . S
C599 C583 1.429 . S
C599 C595 1.429 . S
C599 C600 1.523 . S
C600 C584 1.368 . S
C600 C596 1.368 . S
C600 C599 1.523 . S
H601 C576 0.950 . S
H602 C578 0.950 . S
H603 C579 0.949 . S
H604 C581 0.950 . S
H605 C583 0.950 . S
C606 C607 1.349 . S
C606 C608 1.327 . S
C606 H631 0.950 . S
C607 C606 1.349 . S
C607 C623 1.349 . S
C608 C606 1.327 . S
C608 C627 1.429 . S
C608 H632 0.950 . S
C609 C626 1.574 . S
C609 C628 1.368 . S
C609 H633 0.949 . S
H610 C614 0.949 . S
C611 C612 1.349 . S
C611 C613 1.327 . S
C611 H634 0.950 . S
C612 C611 1.349 . S
C612 C624 1.349 . S
C613 C611 1.327 . S
C613 C629 1.429 . S
C613 H635 0.950 . S
C614 H610 0.949 . S
C614 C622 1.574 . S
C614 C630 1.368 . S
H615 C623 0.950 . S
H616 C621 0.950 . S
H617 C622 0.949 . S
H618 C624 0.950 . S
H619 C625 0.950 . S
H620 C626 0.949 . S
C621 H616 0.950 . S
C621 C623 1.327 . S
C621 C627 1.429 . S
C622 C614 1.574 . S
C622 H617 0.949 . S
C622 C628 1.368 . S
C623 C607 1.349 . S
C623 H615 0.950 . S
C623 C621 1.327 . S
C624 C612 1.349 . S
C624 H618 0.950 . S
C624 C625 1.327 . S
C625 H619 0.950 . S
C625 C624 1.327 . S
C625 C629 1.429 . S
C626 C609 1.574 . S
C626 H620 0.949 . S
C626 C630 1.368 . S
C627 C608 1.429 . S
C627 C621 1.429 . S
C627 C628 1.523 . S
C628 C609 1.368 . S
C628 C622 1.368 . S
C628 C627 1.523 . S
C629 C613 1.429 . S
C629 C625 1.429 . S
C629 C630 1.523 . S
C630 C614 1.368 . S
C630 C626 1.368 . S
C630 C629 1.523 . S
H631 C606 0.950 . S
H632 C608 0.950 . S
H633 C609 0.949 . S
H634 C611 0.950 . S
H635 C613 0.950 . S
C636 C637 1.349 . S
C636 C638 1.327 . S
C636 H661 0.950 . S
C637 C636 1.349 . S
C637 C653 1.349 . S
C638 C636 1.327 . S
C638 C657 1.429 . S
C638 H662 0.950 . S
C639 C656 1.574 . S
C639 C658 1.368 . S
C639 H663 0.949 . S
H640 C644 0.949 . S
C641 C642 1.349 . S
C641 C643 1.327 . S
C641 H664 0.950 . S
C642 C641 1.349 . S
C642 C654 1.349 . S
C643 C641 1.327 . S
C643 C659 1.429 . S
C643 H665 0.950 . S
C644 H640 0.949 . S
C644 C652 1.574 . S
C644 C660 1.368 . S
H645 C653 0.950 . S
H646 C651 0.950 . S
H647 C652 0.949 . S
H648 C654 0.950 . S
H649 C655 0.950 . S
H650 C656 0.949 . S
C651 H646 0.950 . S
C651 C653 1.327 . S
C651 C657 1.429 . S
C652 C644 1.574 . S
C652 H647 0.949 . S
C652 C658 1.368 . S
C653 C637 1.349 . S
C653 H645 0.950 . S
C653 C651 1.327 . S
C654 C642 1.349 . S
C654 H648 0.950 . S
C654 C655 1.327 . S
C655 H649 0.950 . S
C655 C654 1.327 . S
C655 C659 1.429 . S
C656 C639 1.574 . S
C656 H650 0.949 . S
C656 C660 1.368 . S
C657 C638 1.429 . S
C657 C651 1.429 . S
C657 C658 1.523 . S
C658 C639 1.368 . S
C658 C652 1.368 . S
C658 C657 1.523 . S
C659 C643 1.429 . S
C659 C655 1.429 . S
C659 C660 1.523 . S
C660 C644 1.368 . S
C660 C656 1.368 . S
C660 C659 1.523 . S
H661 C636 0.950 . S
H662 C638 0.950 . S
H663 C639 0.949 . S
H664 C641 0.950 . S
H665 C643 0.950 . S
C666 C667 1.349 . S
C666 C668 1.327 . S
C666 H691 0.950 . S
C667 C666 1.349 . S
C667 C683 1.349 . S
C668 C666 1.327 . S
C668 C687 1.429 . S
C668 H692 0.950 . S
C669 C686 1.574 . S
C669 C688 1.368 . S
C669 H693 0.949 . S
H670 C674 0.949 . S
C671 C672 1.349 . S
C671 C673 1.327 . S
C671 H694 0.950 . S
C672 C671 1.349 . S
C672 C684 1.349 . S
C673 C671 1.327 . S
C673 C689 1.429 . S
C673 H695 0.950 . S
C674 H670 0.949 . S
C674 C682 1.574 . S
C674 C690 1.368 . S
H675 C683 0.950 . S
H676 C681 0.950 . S
H677 C682 0.949 . S
H678 C684 0.950 . S
H679 C685 0.950 . S
H680 C686 0.949 . S
C681 H676 0.950 . S
C681 C683 1.327 . S
C681 C687 1.429 . S
C682 C674 1.574 . S
C682 H677 0.949 . S
C682 C688 1.368 . S
C683 C667 1.349 . S
C683 H675 0.950 . S
C683 C681 1.327 . S
C684 C672 1.349 . S
C684 H678 0.950 . S
C684 C685 1.327 . S
C685 H679 0.950 . S
C685 C684 1.327 . S
C685 C689 1.429 . S
C686 C669 1.574 . S
C686 H680 0.949 . S
C686 C690 1.368 . S
C687 C668 1.429 . S
C687 C681 1.429 . S
C687 C688 1.523 . S
C688 C669 1.368 . S
C688 C682 1.368 . S
C688 C687 1.523 . S
C689 C673 1.429 . S
C689 C685 1.429 . S
C689 C690 1.523 . S
C690 C674 1.368 . S
C690 C686 1.368 . S
C690 C689 1.523 . S
H691 C666 0.950 . S
H692 C668 0.950 . S
H693 C669 0.949 . S
H694 C671 0.950 . S
H695 C673 0.950 . S
C696 C697 1.349 . S
C696 C698 1.327 . S
C696 H721 0.950 . S
C697 C696 1.349 . S
C697 C713 1.349 . S
C698 C696 1.327 . S
C698 C717 1.429 . S
C698 H722 0.950 . S
C699 C716 1.574 . S
C699 C718 1.368 . S
C699 H723 0.949 . S
H700 C704 0.949 . S
C701 C702 1.349 . S
C701 C703 1.327 . S
C701 H724 0.950 . S
C702 C701 1.349 . S
C702 C714 1.349 . S
C703 C701 1.327 . S
C703 C719 1.429 . S
C703 H725 0.950 . S
C704 H700 0.949 . S
C704 C712 1.574 . S
C704 C720 1.368 . S
H705 C713 0.950 . S
H706 C711 0.950 . S
H707 C712 0.949 . S
H708 C714 0.950 . S
H709 C715 0.950 . S
H710 C716 0.949 . S
C711 H706 0.950 . S
C711 C713 1.327 . S
C711 C717 1.429 . S
C712 C704 1.574 . S
C712 H707 0.949 . S
C712 C718 1.368 . S
C713 C697 1.349 . S
C713 H705 0.950 . S
C713 C711 1.327 . S
C714 C702 1.349 . S
C714 H708 0.950 . S
C714 C715 1.327 . S
C715 H709 0.950 . S
C715 C714 1.327 . S
C715 C719 1.429 . S
C716 C699 1.574 . S
C716 H710 0.949 . S
C716 C720 1.368 . S
C717 C698 1.429 . S
C717 C711 1.429 . S
C717 C718 1.523 . S
C718 C699 1.368 . S
C718 C712 1.368 . S
C718 C717 1.523 . S
C719 C703 1.429 . S
C719 C715 1.429 . S
C719 C720 1.523 . S
C720 C704 1.368 . S
C720 C716 1.368 . S
C720 C719 1.523 . S
H721 C696 0.950 . S
H722 C698 0.950 . S
H723 C699 0.949 . S
H724 C701 0.950 . S
H725 C703 0.950 . S
C726 C727 1.349 . S
C726 C728 1.327 . S
C726 H751 0.950 . S
C727 C726 1.349 . S
C727 C743 1.349 . S
C728 C726 1.327 . S
C728 C747 1.429 . S
C728 H752 0.950 . S
C729 C746 1.574 . S
C729 C748 1.368 . S
C729 H753 0.949 . S
H730 C734 0.949 . S
C731 C732 1.349 . S
C731 C733 1.327 . S
C731 H754 0.950 . S
C732 C731 1.349 . S
C732 C744 1.349 . S
C733 C731 1.327 . S
C733 C749 1.429 . S
C733 H755 0.950 . S
C734 H730 0.949 . S
C734 C742 1.574 . S
C734 C750 1.368 . S
H735 C743 0.950 . S
H736 C741 0.950 . S
H737 C742 0.949 . S
H738 C744 0.950 . S
H739 C745 0.950 . S
H740 C746 0.949 . S
C741 H736 0.950 . S
C741 C743 1.327 . S
C741 C747 1.429 . S
C742 C734 1.574 . S
C742 H737 0.949 . S
C742 C748 1.368 . S
C743 C727 1.349 . S
C743 H735 0.950 . S
C743 C741 1.327 . S
C744 C732 1.349 . S
C744 H738 0.950 . S
C744 C745 1.327 . S
C745 H739 0.950 . S
C745 C744 1.327 . S
C745 C749 1.429 . S
C746 C729 1.574 . S
C746 H740 0.949 . S
C746 C750 1.368 . S
C747 C728 1.429 . S
C747 C741 1.429 . S
C747 C748 1.523 . S
C748 C729 1.368 . S
C748 C742 1.368 . S
C748 C747 1.523 . S
C749 C733 1.429 . S
C749 C745 1.429 . S
C749 C750 1.523 . S
C750 C734 1.368 . S
C750 C746 1.368 . S
C750 C749 1.523 . S
H751 C726 0.950 . S
H752 C728 0.950 . S
H753 C729 0.949 . S
H754 C731 0.950 . S
H755 C733 0.950 . S
C756 C757 1.349 . S
C756 C758 1.327 . S
C756 H781 0.950 . S
C757 C756 1.349 . S
C757 C773 1.349 . S
C758 C756 1.327 . S
C758 C777 1.429 . S
C758 H782 0.950 . S
C759 C776 1.574 . S
C759 C778 1.368 . S
C759 H783 0.949 . S
H760 C764 0.949 . S
C761 C762 1.349 . S
C761 C763 1.327 . S
C761 H784 0.950 . S
C762 C761 1.349 . S
C762 C774 1.349 . S
C763 C761 1.327 . S
C763 C779 1.429 . S
C763 H785 0.950 . S
C764 H760 0.949 . S
C764 C772 1.574 . S
C764 C780 1.368 . S
H765 C773 0.950 . S
H766 C771 0.950 . S
H767 C772 0.949 . S
H768 C774 0.950 . S
H769 C775 0.950 . S
H770 C776 0.949 . S
C771 H766 0.950 . S
C771 C773 1.327 . S
C771 C777 1.429 . S
C772 C764 1.574 . S
C772 H767 0.949 . S
C772 C778 1.368 . S
C773 C757 1.349 . S
C773 H765 0.950 . S
C773 C771 1.327 . S
C774 C762 1.349 . S
C774 H768 0.950 . S
C774 C775 1.327 . S
C775 H769 0.950 . S
C775 C774 1.327 . S
C775 C779 1.429 . S
C776 C759 1.574 . S
C776 H770 0.949 . S
C776 C780 1.368 . S
C777 C758 1.429 . S
C777 C771 1.429 . S
C777 C778 1.523 . S
C778 C759 1.368 . S
C778 C772 1.368 . S
C778 C777 1.523 . S
C779 C763 1.429 . S
C779 C775 1.429 . S
C779 C780 1.523 . S
C780 C764 1.368 . S
C780 C776 1.368 . S
C780 C779 1.523 . S
H781 C756 0.950 . S
H782 C758 0.950 . S
H783 C759 0.949 . S
H784 C761 0.950 . S
H785 C763 0.950 . S
C786 C787 1.349 . S
C786 C788 1.327 . S
C786 H811 0.950 . S
C787 C786 1.349 . S
C787 C803 1.349 . S
C788 C786 1.327 . S
C788 C807 1.429 . S
C788 H812 0.950 . S
C789 C806 1.574 . S
C789 C808 1.368 . S
C789 H813 0.949 . S
H790 C794 0.949 . S
C791 C792 1.349 . S
C791 C793 1.327 . S
C791 H814 0.950 . S
C792 C791 1.349 . S
C792 C804 1.349 . S
C793 C791 1.327 . S
C793 C809 1.429 . S
C793 H815 0.950 . S
C794 H790 0.949 . S
C794 C802 1.574 . S
C794 C810 1.368 . S
H795 C803 0.950 . S
H796 C801 0.950 . S
H797 C802 0.949 . S
H798 C804 0.950 . S
H799 C805 0.950 . S
H800 C806 0.949 . S
C801 H796 0.950 . S
C801 C803 1.327 . S
C801 C807 1.429 . S
C802 C794 1.574 . S
C802 H797 0.949 . S
C802 C808 1.368 . S
C803 C787 1.349 . S
C803 H795 0.950 . S
C803 C801 1.327 . S
C804 C792 1.349 . S
C804 H798 0.950 . S
C804 C805 1.327 . S
C805 H799 0.950 . S
C805 C804 1.327 . S
C805 C809 1.429 . S
C806 C789 1.574 . S
C806 H800 0.949 . S
C806 C810 1.368 . S
C807 C788 1.429 . S
C807 C801 1.429 . S
C807 C808 1.523 . S
C808 C789 1.368 . S
C808 C802 1.368 . S
C808 C807 1.523 . S
C809 C793 1.429 . S
C809 C805 1.429 . S
C809 C810 1.523 . S
C810 C794 1.368 . S
C810 C806 1.368 . S
C810 C809 1.523 . S
H811 C786 0.950 . S
H812 C788 0.950 . S
H813 C789 0.949 . S
H814 C791 0.950 . S
H815 C793 0.950 . S
C816 C817 1.349 . S
C816 C818 1.327 . S
C816 H841 0.950 . S
C817 C816 1.349 . S
C817 C833 1.349 . S
C818 C816 1.327 . S
C818 C837 1.429 . S
C818 H842 0.950 . S
C819 C836 1.574 . S
C819 C838 1.368 . S
C819 H843 0.949 . S
H820 C824 0.949 . S
C821 C822 1.349 . S
C821 C823 1.327 . S
C821 H844 0.950 . S
C822 C821 1.349 . S
C822 C834 1.349 . S
C823 C821 1.327 . S
C823 C839 1.429 . S
C823 H845 0.950 . S
C824 H820 0.949 . S
C824 C832 1.574 . S
C824 C840 1.368 . S
H825 C833 0.950 . S
H826 C831 0.950 . S
H827 C832 0.949 . S
H828 C834 0.950 . S
H829 C835 0.950 . S
H830 C836 0.949 . S
C831 H826 0.950 . S
C831 C833 1.327 . S
C831 C837 1.429 . S
C832 C824 1.574 . S
C832 H827 0.949 . S
C832 C838 1.368 . S
C833 C817 1.349 . S
C833 H825 0.950 . S
C833 C831 1.327 . S
C834 C822 1.349 . S
C834 H828 0.950 . S
C834 C835 1.327 . S
C835 H829 0.950 . S
C835 C834 1.327 . S
C835 C839 1.429 . S
C836 C819 1.574 . S
C836 H830 0.949 . S
C836 C840 1.368 . S
C837 C818 1.429 . S
C837 C831 1.429 . S
C837 C838 1.523 . S
C838 C819 1.368 . S
C838 C832 1.368 . S
C838 C837 1.523 . S
C839 C823 1.429 . S
C839 C835 1.429 . S
C839 C840 1.523 . S
C840 C824 1.368 . S
C840 C836 1.368 . S
C840 C839 1.523 . S
H841 C816 0.950 . S
H842 C818 0.950 . S
H843 C819 0.949 . S
H844 C821 0.950 . S
H845 C823 0.950 . S
C846 C847 1.349 . S
C846 C848 1.327 . S
C846 H871 0.950 . S
C847 C846 1.349 . S
C847 C863 1.349 . S
C848 C846 1.327 . S
C848 C867 1.429 . S
C848 H872 0.950 . S
C849 C866 1.574 . S
C849 C868 1.368 . S
C849 H873 0.949 . S
H850 C854 0.949 . S
C851 C852 1.349 . S
C851 C853 1.327 . S
C851 H874 0.950 . S
C852 C851 1.349 . S
C852 C864 1.349 . S
C853 C851 1.327 . S
C853 C869 1.429 . S
C853 H875 0.950 . S
C854 H850 0.949 . S
C854 C862 1.574 . S
C854 C870 1.368 . S
H855 C863 0.950 . S
H856 C861 0.950 . S
H857 C862 0.949 . S
H858 C864 0.950 . S
H859 C865 0.950 . S
H860 C866 0.949 . S
C861 H856 0.950 . S
C861 C863 1.327 . S
C861 C867 1.429 . S
C862 C854 1.574 . S
C862 H857 0.949 . S
C862 C868 1.368 . S
C863 C847 1.349 . S
C863 H855 0.950 . S
C863 C861 1.327 . S
C864 C852 1.349 . S
C864 H858 0.950 . S
C864 C865 1.327 . S
C865 H859 0.950 . S
C865 C864 1.327 . S
C865 C869 1.429 . S
C866 C849 1.574 . S
C866 H860 0.949 . S
C866 C870 1.368 . S
C867 C848 1.429 . S
C867 C861 1.429 . S
C867 C868 1.523 . S
C868 C849 1.368 . S
C868 C862 1.368 . S
C868 C867 1.523 . S
C869 C853 1.429 . S
C869 C865 1.429 . S
C869 C870 1.523 . S
C870 C854 1.368 . S
C870 C866 1.368 . S
C870 C869 1.523 . S
H871 C846 0.950 . S
H872 C848 0.950 . S
H873 C849 0.949 . S
H874 C851 0.950 . S
H875 C853 0.950 . S
C876 C877 1.349 . S
C876 C878 1.327 . S
C876 H901 0.950 . S
C877 C876 1.349 . S
C877 C893 1.349 . S
C878 C876 1.327 . S
C878 C897 1.429 . S
C878 H902 0.950 . S
C879 C896 1.574 . S
C879 C898 1.368 . S
C879 H903 0.949 . S
H880 C884 0.949 . S
C881 C882 1.349 . S
C881 C883 1.327 . S
C881 H904 0.950 . S
C882 C881 1.349 . S
C882 C894 1.349 . S
C883 C881 1.327 . S
C883 C899 1.429 . S
C883 H905 0.950 . S
C884 H880 0.949 . S
C884 C892 1.574 . S
C884 C900 1.368 . S
H885 C893 0.950 . S
H886 C891 0.950 . S
H887 C892 0.949 . S
H888 C894 0.950 . S
H889 C895 0.950 . S
H890 C896 0.949 . S
C891 H886 0.950 . S
C891 C893 1.327 . S
C891 C897 1.429 . S
C892 C884 1.574 . S
C892 H887 0.949 . S
C892 C898 1.368 . S
C893 C877 1.349 . S
C893 H885 0.950 . S
C893 C891 1.327 . S
C894 C882 1.349 . S
C894 H888 0.950 . S
C894 C895 1.327 . S
C895 H889 0.950 . S
C895 C894 1.327 . S
C895 C899 1.429 . S
C896 C879 1.574 . S
C896 H890 0.949 . S
C896 C900 1.368 . S
C897 C878 1.429 . S
C897 C891 1.429 . S
C897 C898 1.523 . S
C898 C879 1.368 . S
C898 C892 1.368 . S
C898 C897 1.523 . S
C899 C883 1.429 . S
C899 C895 1.429 . S
C899 C900 1.523 . S
C900 C884 1.368 . S
C900 C896 1.368 . S
C900 C899 1.523 . S
H901 C876 0.950 . S
H902 C878 0.950 . S
H903 C879 0.949 . S
H904 C881 0.950 . S
H905 C883 0.950 . S
C906 C907 1.349 . S
C906 C908 1.327 . S
C906 H931 0.950 . S
C907 C906 1.349 . S
C907 C923 1.349 . S
C908 C906 1.327 . S
C908 C927 1.429 . S
C908 H932 0.950 . S
C909 C926 1.574 . S
C909 C928 1.368 . S
C909 H933 0.949 . S
H910 C914 0.949 . S
C911 C912 1.349 . S
C911 C913 1.327 . S
C911 H934 0.950 . S
C912 C911 1.349 . S
C912 C924 1.349 . S
C913 C911 1.327 . S
C913 C929 1.429 . S
C913 H935 0.950 . S
C914 H910 0.949 . S
C914 C922 1.574 . S
C914 C930 1.368 . S
H915 C923 0.950 . S
H916 C921 0.950 . S
H917 C922 0.949 . S
H918 C924 0.950 . S
H919 C925 0.950 . S
H920 C926 0.949 . S
C921 H916 0.950 . S
C921 C923 1.327 . S
C921 C927 1.429 . S
C922 C914 1.574 . S
C922 H917 0.949 . S
C922 C928 1.368 . S
C923 C907 1.349 . S
C923 H915 0.950 . S
C923 C921 1.327 . S
C924 C912 1.349 . S
C924 H918 0.950 . S
C924 C925 1.327 . S
C925 H919 0.950 . S
C925 C924 1.327 . S
C925 C929 1.429 . S
C926 C909 1.574 . S
C926 H920 0.949 . S
C926 C930 1.368 . S
C927 C908 1.429 . S
C927 C921 1.429 . S
C927 C928 1.523 . S
C928 C909 1.368 . S
C928 C922 1.368 . S
C928 C927 1.523 . S
C929 C913 1.429 . S
C929 C925 1.429 . S
C929 C930 1.523 . S
C930 C914 1.368 . S
C930 C926 1.368 . S
C930 C929 1.523 . S
H931 C906 0.950 . S
H932 C908 0.950 . S
H933 C909 0.949 . S
H934 C911 0.950 . S
H935 C913 0.950 . S
C936 C937 1.349 . S
C936 C938 1.327 . S
C936 H961 0.950 . S
C937 C936 1.349 . S
C937 C953 1.349 . S
C938 C936 1.327 . S
C938 C957 1.429 . S
C938 H962 0.950 . S
C939 C956 1.574 . S
C939 C958 1.368 . S
C939 H963 0.949 . S
H940 C944 0.949 . S
C941 C942 1.349 . S
C941 C943 1.327 . S
C941 H964 0.950 . S
C942 C941 1.349 . S
C942 C954 1.349 . S
C943 C941 1.327 . S
C943 C959 1.429 . S
C943 H965 0.950 . S
C944 H940 0.949 . S
C944 C952 1.574 . S
C944 C960 1.368 . S
H945 C953 0.950 . S
H946 C951 0.950 . S
H947 C952 0.949 . S
H948 C954 0.950 . S
H949 C955 0.950 . S
H950 C956 0.949 . S
C951 H946 0.950 . S
C951 C953 1.327 . S
C951 C957 1.429 . S
C952 C944 1.574 . S
C952 H947 0.949 . S
C952 C958 1.368 . S
C953 C937 1.349 . S
C953 H945 0.950 . S
C953 C951 1.327 . S
C954 C942 1.349 . S
C954 H948 0.950 . S
C954 C955 1.327 . S
C955 H949 0.950 . S
C955 C954 1.327 . S
C955 C959 1.429 . S
C956 C939 1.574 . S
C956 H950 0.949 . S
C956 C960 1.368 . S
C957 C938 1.429 . S
C957 C951 1.429 . S
C957 C958 1.523 . S
C958 C939 1.368 . S
C958 C952 1.368 . S
C958 C957 1.523 . S
C959 C943 1.429 . S
C959 C955 1.429 . S
C959 C960 1.523 . S
C960 C944 1.368 . S
C960 C956 1.368 . S
C960 C959 1.523 . S
H961 C936 0.950 . S
H962 C938 0.950 . S
H963 C939 0.949 . S
H964 C941 0.950 . S
H965 C943 0.950 . S
C966 C967 1.349 . S
C966 C968 1.327 . S
C966 H991 0.950 . S
C967 C966 1.349 . S
C967 C983 1.349 . S
C968 C966 1.327 . S
C968 C987 1.429 . S
C968 H992 0.950 . S
C969 C986 1.574 . S
C969 C988 1.368 . S
C969 H993 0.949 . S
H970 C974 0.949 . S
C971 C972 1.349 . S
C971 C973 1.327 . S
C971 H994 0.950 . S
C972 C971 1.349 . S
C972 C984 1.349 . S
C973 C971 1.327 . S
C973 C989 1.429 . S
C973 H995 0.950 . S
C974 H970 0.949 . S
C974 C982 1.574 . S
C974 C990 1.368 . S
H975 C983 0.950 . S
H976 C981 0.950 . S
H977 C982 0.949 . S
H978 C984 0.950 . S
H979 C985 0.950 . S
H980 C986 0.949 . S
C981 H976 0.950 . S
C981 C983 1.327 . S
C981 C987 1.429 . S
C982 C974 1.574 . S
C982 H977 0.949 . S
C982 C988 1.368 . S
C983 C967 1.349 . S
C983 H975 0.950 . S
C983 C981 1.327 . S
C984 C972 1.349 . S
C984 H978 0.950 . S
C984 C985 1.327 . S
C985 H979 0.950 . S
C985 C984 1.327 . S
C985 C989 1.429 . S
C986 C969 1.574 . S
C986 H980 0.949 . S
C986 C990 1.368 . S
C987 C968 1.429 . S
C987 C981 1.429 . S
C987 C988 1.523 . S
C988 C969 1.368 . S
C988 C982 1.368 . S
C988 C987 1.523 . S
C989 C973 1.429 . S
C989 C985 1.429 . S
C989 C990 1.523 . S
C990 C974 1.368 . S
C990 C986 1.368 . S
C990 C989 1.523 . S
H991 C966 0.950 . S
H992 C968 0.950 . S
H993 C969 0.949 . S
H994 C971 0.950 . S
H995 C973 0.950 . S
C996 C997 1.349 . S
C996 C998 1.327 . S
C996 H1021 0.950 . S
C997 C996 1.349 . S
C997 C1013 1.349 . S
C998 C996 1.327 . S
C998 C1017 1.429 . S
C998 H1022 0.950 . S
C999 C1016 1.574 . S
C999 C1018 1.368 . S
C999 H1023 0.949 . S
H1000 C1004 0.949 . S
C1001 C1002 1.349 . S
C1001 C1003 1.327 . S
C1001 H1024 0.950 . S
C1002 C1001 1.349 . S
C1002 C1014 1.349 . S
C1003 C1001 1.327 . S
C1003 C1019 1.429 . S
C1003 H1025 0.950 . S
C1004 H1000 0.949 . S
C1004 C1012 1.574 . S
C1004 C1020 1.368 1_545 S
H1005 C1013 0.950 1_565 S
H1006 C1011 0.950 . S
H1007 C1012 0.949 . S
H1008 C1014 0.950 . S
H1009 C1015 0.950 . S
H1010 C1016 0.949 . S
C1011 H1006 0.950 . S
C1011 C1013 1.327 1_565 S
C1011 C1017 1.429 1_565 S
C1012 C1004 1.574 . S
C1012 H1007 0.949 . S
C1012 C1018 1.368 1_545 S
C1013 C997 1.349 . S
C1013 H1005 0.950 1_545 S
C1013 C1011 1.327 1_545 S
C1014 C1002 1.349 . S
C1014 H1008 0.950 . S
C1014 C1015 1.327 . S
C1015 H1009 0.950 . S
C1015 C1014 1.327 . S
C1015 C1019 1.429 . S
C1016 C999 1.574 . S
C1016 H1010 0.949 . S
C1016 C1020 1.368 . S
C1017 C998 1.429 . S
C1017 C1011 1.429 1_545 S
C1017 C1018 1.523 1_545 S
C1018 C999 1.368 . S
C1018 C1012 1.368 1_565 S
C1018 C1017 1.523 1_565 S
C1019 C1003 1.429 . S
C1019 C1015 1.429 . S
C1019 C1020 1.523 . S
C1020 C1004 1.368 1_565 S
C1020 C1016 1.368 . S
C1020 C1019 1.523 . S
H1021 C996 0.950 . S
H1022 C998 0.950 . S
H1023 C999 0.949 . S
H1024 C1001 0.950 . S
H1025 C1003 0.950 . S
C1026 C1027 1.349 1_556 S
C1026 C1028 1.327 . S
C1026 H1051 0.950 . S
C1027 C1026 1.349 1_554 S
C1027 C1043 1.349 . S
C1028 C1026 1.327 . S
C1028 C1047 1.429 . S
C1028 H1052 0.950 . S
C1029 C1046 1.574 . S
C1029 C1048 1.368 . S
C1029 H1053 0.949 . S
H1030 C1034 0.949 . S
C1031 C1032 1.349 . S
C1031 C1033 1.327 . S
C1031 H1054 0.950 . S
C1032 C1031 1.349 . S
C1032 C1044 1.349 . S
C1033 C1031 1.327 . S
C1033 C1049 1.429 . S
C1033 H1055 0.950 . S
C1034 H1030 0.949 . S
C1034 C1042 1.574 . S
C1034 C1050 1.368 . S
H1035 C1043 0.950 . S
H1036 C1041 0.950 . S
H1037 C1042 0.949 . S
H1038 C1044 0.950 . S
H1039 C1045 0.950 . S
H1040 C1046 0.949 . S
C1041 H1036 0.950 . S
C1041 C1043 1.327 1_556 S
C1041 C1047 1.429 . S
C1042 C1034 1.574 . S
C1042 H1037 0.949 . S
C1042 C1048 1.368 . S
C1043 C1027 1.349 . S
C1043 H1035 0.950 . S
C1043 C1041 1.327 1_554 S
C1044 C1032 1.349 . S
C1044 H1038 0.950 . S
C1044 C1045 1.327 . S
C1045 H1039 0.950 . S
C1045 C1044 1.327 . S
C1045 C1049 1.429 . S
C1046 C1029 1.574 . S
C1046 H1040 0.949 . S
C1046 C1050 1.368 . S
C1047 C1028 1.429 . S
C1047 C1041 1.429 . S
C1047 C1048 1.523 . S
C1048 C1029 1.368 . S
C1048 C1042 1.368 . S
C1048 C1047 1.523 . S
C1049 C1033 1.429 . S
C1049 C1045 1.429 . S
C1049 C1050 1.523 . S
C1050 C1034 1.368 . S
C1050 C1046 1.368 . S
C1050 C1049 1.523 . S
H1051 C1026 0.950 . S
H1052 C1028 0.950 . S
H1053 C1029 0.949 . S
H1054 C1031 0.950 . S
H1055 C1033 0.950 . S
C1056 C1057 1.349 . S
C1056 C1058 1.326 1_455 S
C1056 H1081 0.951 . S
C1057 C1056 1.349 . S
C1057 C1073 1.349 1_455 S
C1058 C1056 1.326 1_655 S
C1058 C1077 1.429 . S
C1058 H1082 0.950 . S
C1059 C1076 1.574 . S
C1059 C1078 1.368 . S
C1059 H1083 0.949 . S
H1060 C1064 0.949 . S
C1061 C1062 1.349 1_556 S
C1061 C1063 1.327 . S
C1061 H1084 0.950 . S
C1062 C1061 1.349 1_554 S
C1062 C1074 1.349 . S
C1063 C1061 1.327 . S
C1063 C1079 1.429 . S
C1063 H1085 0.950 . S
C1064 H1060 0.949 . S
C1064 C1072 1.574 . S
C1064 C1080 1.368 . S
H1065 C1073 0.950 . S
H1066 C1071 0.950 . S
H1067 C1072 0.949 . S
H1068 C1074 0.950 . S
H1069 C1075 0.950 . S
H1070 C1076 0.949 . S
C1071 H1066 0.950 . S
C1071 C1073 1.327 . S
C1071 C1077 1.429 . S
C1072 C1064 1.574 . S
C1072 H1067 0.949 . S
C1072 C1078 1.368 . S
C1073 C1057 1.349 1_655 S
C1073 H1065 0.950 . S
C1073 C1071 1.327 . S
C1074 C1062 1.349 . S
C1074 H1068 0.950 . S
C1074 C1075 1.327 1_554 S
C1075 H1069 0.950 . S
C1075 C1074 1.327 1_556 S
C1075 C1079 1.429 . S
C1076 C1059 1.574 . S
C1076 H1070 0.949 . S
C1076 C1080 1.368 . S
C1077 C1058 1.429 . S
C1077 C1071 1.429 . S
C1077 C1078 1.523 . S
C1078 C1059 1.368 . S
C1078 C1072 1.368 . S
C1078 C1077 1.523 . S
C1079 C1063 1.429 . S
C1079 C1075 1.429 . S
C1079 C1080 1.523 . S
C1080 C1064 1.368 . S
C1080 C1076 1.368 . S
C1080 C1079 1.523 . S
H1081 C1056 0.951 . S
H1082 C1058 0.950 . S
H1083 C1059 0.949 . S
H1084 C1061 0.950 . S
H1085 C1063 0.950 . S
C1086 C1087 1.349 1_556 S
C1086 C1088 1.327 . S
C1086 H1111 0.950 . S
C1087 C1086 1.349 1_554 S
C1087 C1103 1.349 . S
C1088 C1086 1.327 . S
C1088 C1107 1.429 . S
C1088 H1112 0.950 . S
C1089 C1106 1.574 . S
C1089 C1108 1.368 . S
C1089 H1113 0.949 . S
H1090 C1094 0.949 . S
C1091 C1092 1.349 . S
C1091 C1093 1.327 . S
C1091 H1114 0.950 . S
C1092 C1091 1.349 . S
C1092 C1104 1.349 . S
C1093 C1091 1.327 . S
C1093 C1109 1.429 . S
C1093 H1115 0.950 . S
C1094 H1090 0.949 . S
C1094 C1102 1.574 . S
C1094 C1110 1.368 . S
H1095 C1103 0.950 . S
H1096 C1101 0.950 . S
H1097 C1102 0.949 . S
H1098 C1104 0.950 . S
H1099 C1105 0.950 . S
H1100 C1106 0.949 . S
C1101 H1096 0.950 . S
C1101 C1103 1.327 1_556 S
C1101 C1107 1.429 . S
C1102 C1094 1.574 . S
C1102 H1097 0.949 . S
C1102 C1108 1.368 . S
C1103 C1087 1.349 . S
C1103 H1095 0.950 . S
C1103 C1101 1.327 1_554 S
C1104 C1092 1.349 . S
C1104 H1098 0.950 . S
C1104 C1105 1.327 . S
C1105 H1099 0.950 . S
C1105 C1104 1.327 . S
C1105 C1109 1.429 . S
C1106 C1089 1.574 . S
C1106 H1100 0.949 . S
C1106 C1110 1.368 . S
C1107 C1088 1.429 . S
C1107 C1101 1.429 . S
C1107 C1108 1.523 . S
C1108 C1089 1.368 . S
C1108 C1102 1.368 . S
C1108 C1107 1.523 . S
C1109 C1093 1.429 . S
C1109 C1105 1.429 . S
C1109 C1110 1.523 . S
C1110 C1094 1.368 . S
C1110 C1106 1.368 . S
C1110 C1109 1.523 . S
H1111 C1086 0.950 . S
H1112 C1088 0.950 . S
H1113 C1089 0.949 . S
H1114 C1091 0.950 . S
H1115 C1093 0.950 . S
C1116 C1117 1.349 . S
C1116 C1118 1.327 . S
C1116 H1141 0.950 . S
C1117 C1116 1.349 . S
C1117 C1133 1.349 . S
C1118 C1116 1.327 . S
C1118 C1137 1.429 . S
C1118 H1142 0.950 . S
C1119 C1136 1.574 . S
C1119 C1138 1.368 . S
C1119 H1143 0.949 . S
H1120 C1124 0.949 . S
C1121 C1122 1.349 1_655 S
C1121 C1123 1.327 . S
C1121 H1144 0.950 . S
C1122 C1121 1.349 1_455 S
C1122 C1134 1.349 . S
C1123 C1121 1.327 . S
C1123 C1139 1.429 . S
C1123 H1145 0.950 . S
C1124 H1120 0.949 . S
C1124 C1132 1.574 . S
C1124 C1140 1.368 . S
H1125 C1133 0.950 . S
H1126 C1131 0.950 . S
H1127 C1132 0.949 . S
H1128 C1134 0.950 . S
H1129 C1135 0.949 1_455 S
H1130 C1136 0.949 . S
C1131 H1126 0.950 . S
C1131 C1133 1.327 . S
C1131 C1137 1.429 . S
C1132 C1124 1.574 . S
C1132 H1127 0.949 . S
C1132 C1138 1.368 . S
C1133 C1117 1.349 . S
C1133 H1125 0.950 . S
C1133 C1131 1.327 . S
C1134 C1122 1.349 . S
C1134 H1128 0.950 . S
C1134 C1135 1.328 1_455 S
C1135 H1129 0.949 1_655 S
C1135 C1134 1.328 1_655 S
C1135 C1139 1.430 . S
C1136 C1119 1.574 . S
C1136 H1130 0.949 . S
C1136 C1140 1.368 . S
C1137 C1118 1.429 . S
C1137 C1131 1.429 . S
C1137 C1138 1.523 . S
C1138 C1119 1.368 . S
C1138 C1132 1.368 . S
C1138 C1137 1.523 . S
C1139 C1123 1.429 . S
C1139 C1135 1.430 . S
C1139 C1140 1.523 . S
C1140 C1124 1.368 . S
C1140 C1136 1.368 . S
C1140 C1139 1.523 . S
H1141 C1116 0.950 . S
H1142 C1118 0.950 . S
H1143 C1119 0.949 . S
H1144 C1121 0.950 . S
H1145 C1123 0.950 . S
C1146 C1147 1.349 . S
C1146 C1148 1.327 . S
C1146 H1171 0.950 . S
C1147 C1146 1.349 . S
C1147 C1163 1.349 . S
C1148 C1146 1.327 . S
C1148 C1167 1.429 . S
C1148 H1172 0.950 . S
C1149 C1166 1.574 . S
C1149 C1168 1.368 . S
C1149 H1173 0.949 . S
H1150 C1154 0.949 . S
C1151 C1152 1.349 . S
C1151 C1153 1.327 . S
C1151 H1174 0.950 . S
C1152 C1151 1.349 . S
C1152 C1164 1.349 . S
C1153 C1151 1.327 . S
C1153 C1169 1.429 . S
C1153 H1175 0.950 . S
C1154 H1150 0.949 . S
C1154 C1162 1.574 . S
C1154 C1170 1.368 . S
H1155 C1163 0.950 . S
H1156 C1161 0.950 . S
H1157 C1162 0.949 . S
H1158 C1164 0.950 . S
H1159 C1165 0.950 . S
H1160 C1166 0.949 . S
C1161 H1156 0.950 . S
C1161 C1163 1.327 . S
C1161 C1167 1.429 . S
C1162 C1154 1.574 . S
C1162 H1157 0.949 . S
C1162 C1168 1.368 . S
C1163 C1147 1.349 . S
C1163 H1155 0.950 . S
C1163 C1161 1.327 . S
C1164 C1152 1.349 . S
C1164 H1158 0.950 . S
C1164 C1165 1.327 . S
C1165 H1159 0.950 . S
C1165 C1164 1.327 . S
C1165 C1169 1.429 . S
C1166 C1149 1.574 . S
C1166 H1160 0.949 . S
C1166 C1170 1.368 . S
C1167 C1148 1.429 . S
C1167 C1161 1.429 . S
C1167 C1168 1.523 . S
C1168 C1149 1.368 . S
C1168 C1162 1.368 . S
C1168 C1167 1.523 . S
C1169 C1153 1.429 . S
C1169 C1165 1.429 . S
C1169 C1170 1.523 . S
C1170 C1154 1.368 . S
C1170 C1166 1.368 . S
C1170 C1169 1.523 . S
H1171 C1146 0.950 . S
H1172 C1148 0.950 . S
H1173 C1149 0.949 . S
H1174 C1151 0.950 . S
H1175 C1153 0.950 . S
C1176 C1177 1.349 . S
C1176 C1178 1.327 . S
C1176 H1201 0.950 . S
C1177 C1176 1.349 . S
C1177 C1193 1.349 . S
C1178 C1176 1.327 . S
C1178 C1197 1.429 . S
C1178 H1202 0.950 . S
C1179 C1196 1.574 . S
C1179 C1198 1.368 . S
C1179 H1203 0.949 . S
H1180 C1184 0.949 . S
C1181 C1182 1.349 . S
C1181 C1183 1.327 . S
C1181 H1204 0.950 . S
C1182 C1181 1.349 . S
C1182 C1194 1.349 . S
C1183 C1181 1.327 . S
C1183 C1199 1.429 . S
C1183 H1205 0.950 . S
C1184 H1180 0.949 . S
C1184 C1192 1.574 . S
C1184 C1200 1.368 . S
H1185 C1193 0.950 . S
H1186 C1191 0.950 . S
H1187 C1192 0.949 . S
H1188 C1194 0.950 . S
H1189 C1195 0.950 . S
H1190 C1196 0.949 . S
C1191 H1186 0.950 . S
C1191 C1193 1.327 . S
C1191 C1197 1.429 . S
C1192 C1184 1.574 . S
C1192 H1187 0.949 . S
C1192 C1198 1.368 . S
C1193 C1177 1.349 . S
C1193 H1185 0.950 . S
C1193 C1191 1.327 . S
C1194 C1182 1.349 . S
C1194 H1188 0.950 . S
C1194 C1195 1.327 . S
C1195 H1189 0.950 . S
C1195 C1194 1.327 . S
C1195 C1199 1.429 . S
C1196 C1179 1.574 . S
C1196 H1190 0.949 . S
C1196 C1200 1.368 . S
C1197 C1178 1.429 . S
C1197 C1191 1.429 . S
C1197 C1198 1.523 . S
C1198 C1179 1.368 . S
C1198 C1192 1.368 . S
C1198 C1197 1.523 . S
C1199 C1183 1.429 . S
C1199 C1195 1.429 . S
C1199 C1200 1.523 . S
C1200 C1184 1.368 . S
C1200 C1196 1.368 . S
C1200 C1199 1.523 . S
H1201 C1176 0.950 . S
H1202 C1178 0.950 . S
H1203 C1179 0.949 . S
H1204 C1181 0.950 . S
H1205 C1183 0.950 . S
C1206 C1207 1.349 . S
C1206 C1208 1.327 . S
C1206 H1231 0.950 . S
C1207 C1206 1.349 . S
C1207 C1223 1.349 . S
C1208 C1206 1.327 . S
C1208 C1227 1.429 . S
C1208 H1232 0.950 1_545 S
C1209 C1226 1.574 1_545 S
C1209 C1228 1.368 1_545 S
C1209 H1233 0.949 . S
H1210 C1214 0.949 . S
C1211 C1212 1.352 . S
C1211 C1213 1.327 1_556 S
C1211 H1234 0.950 . S
C1212 C1211 1.352 . S
C1212 C1224 1.330 1_556 S
C1213 C1211 1.327 1_554 S
C1213 C1229 1.429 . S
C1213 H1235 0.950 . S
C1214 H1210 0.949 . S
C1214 C1222 1.574 . S
C1214 C1230 1.368 . S
H1215 C1223 0.950 . S
H1216 C1221 0.950 . S
H1217 C1222 0.949 . S
H1218 C1224 0.950 . S
H1219 C1225 0.950 . S
H1220 C1226 0.949 . S
C1221 H1216 0.950 . S
C1221 C1223 1.327 . S
C1221 C1227 1.429 . S
C1222 C1214 1.574 . S
C1222 H1217 0.949 . S
C1222 C1228 1.368 . S
C1223 C1207 1.349 . S
C1223 H1215 0.950 . S
C1223 C1221 1.327 . S
C1224 C1212 1.330 1_554 S
C1224 H1218 0.950 . S
C1224 C1225 1.327 . S
C1225 H1219 0.950 . S
C1225 C1224 1.327 . S
C1225 C1229 1.429 . S
C1226 C1209 1.574 1_565 S
C1226 H1220 0.949 . S
C1226 C1230 1.368 . S
C1227 C1208 1.429 . S
C1227 C1221 1.429 . S
C1227 C1228 1.523 1_545 S
C1228 C1209 1.368 1_565 S
C1228 C1222 1.368 . S
C1228 C1227 1.523 1_565 S
C1229 C1213 1.429 . S
C1229 C1225 1.429 . S
C1229 C1230 1.523 . S
C1230 C1214 1.368 . S
C1230 C1226 1.368 . S
C1230 C1229 1.523 . S
H1231 C1206 0.950 . S
H1232 C1208 0.950 1_565 S
H1233 C1209 0.949 . S
H1234 C1211 0.950 . S
H1235 C1213 0.950 . S
C1236 C1237 1.366 . S
C1236 C1238 1.327 . S
C1236 H1261 0.950 . S
C1237 C1236 1.366 . S
C1237 C1253 1.346 1_554 S
C1238 C1236 1.327 . S
C1238 C1257 1.429 . S
C1238 H1262 0.950 . S
C1239 C1256 1.574 . S
C1239 C1258 1.368 . S
C1239 H1263 0.949 . S
H1240 C1244 0.949 . S
C1241 C1242 1.349 . S
C1241 C1243 1.327 . S
C1241 H1264 0.950 . S
C1242 C1241 1.349 . S
C1242 C1254 1.349 . S
C1243 C1241 1.327 . S
C1243 C1259 1.429 . S
C1243 H1265 0.950 . S
C1244 H1240 0.949 . S
C1244 C1252 1.574 . S
C1244 C1260 1.368 . S
H1245 C1253 0.950 . S
H1246 C1251 0.950 . S
H1247 C1252 0.949 . S
H1248 C1254 0.950 . S
H1249 C1255 0.950 . S
H1250 C1256 0.949 . S
C1251 H1246 0.950 . S
C1251 C1253 1.327 1_554 S
C1251 C1257 1.429 . S
C1252 C1244 1.574 . S
C1252 H1247 0.949 . S
C1252 C1258 1.368 . S
C1253 C1237 1.346 1_556 S
C1253 H1245 0.950 . S
C1253 C1251 1.327 1_556 S
C1254 C1242 1.349 . S
C1254 H1248 0.950 . S
C1254 C1255 1.327 . S
C1255 H1249 0.950 . S
C1255 C1254 1.327 . S
C1255 C1259 1.429 . S
C1256 C1239 1.574 . S
C1256 H1250 0.949 . S
C1256 C1260 1.368 . S
C1257 C1238 1.429 . S
C1257 C1251 1.429 . S
C1257 C1258 1.523 . S
C1258 C1239 1.368 . S
C1258 C1252 1.368 . S
C1258 C1257 1.523 . S
C1259 C1243 1.429 . S
C1259 C1255 1.429 . S
C1259 C1260 1.523 . S
C1260 C1244 1.368 . S
C1260 C1256 1.368 . S
C1260 C1259 1.523 . S
H1261 C1236 0.950 . S
H1262 C1238 0.950 . S
H1263 C1239 0.949 . S
H1264 C1241 0.950 . S
H1265 C1243 0.950 . S
C1266 C1267 1.349 . S
C1266 C1268 1.327 1_556 S
C1266 H1291 0.950 . S
C1267 C1266 1.349 . S
C1267 C1283 1.349 1_556 S
C1268 C1266 1.327 1_554 S
C1268 C1287 1.429 . S
C1268 H1292 0.950 . S
C1269 C1286 1.574 . S
C1269 C1288 1.368 . S
C1269 H1293 0.949 . S
H1270 C1274 0.949 . S
C1271 C1272 1.349 . S
C1271 C1273 1.327 . S
C1271 H1294 0.950 . S
C1272 C1271 1.349 . S
C1272 C1284 1.349 . S
C1273 C1271 1.327 . S
C1273 C1289 1.429 . S
C1273 H1295 0.950 . S
C1274 H1270 0.949 . S
C1274 C1282 1.574 . S
C1274 C1290 1.368 . S
H1275 C1283 0.950 . S
H1276 C1281 0.950 . S
H1277 C1282 0.949 . S
H1278 C1284 0.950 . S
H1279 C1285 0.950 . S
H1280 C1286 0.949 . S
C1281 H1276 0.950 . S
C1281 C1283 1.327 . S
C1281 C1287 1.429 . S
C1282 C1274 1.574 . S
C1282 H1277 0.949 . S
C1282 C1288 1.368 . S
C1283 C1267 1.349 1_554 S
C1283 H1275 0.950 . S
C1283 C1281 1.327 . S
C1284 C1272 1.349 . S
C1284 H1278 0.950 . S
C1284 C1285 1.327 . S
C1285 H1279 0.950 . S
C1285 C1284 1.327 . S
C1285 C1289 1.429 . S
C1286 C1269 1.574 . S
C1286 H1280 0.949 . S
C1286 C1290 1.368 . S
C1287 C1268 1.429 . S
C1287 C1281 1.429 . S
C1287 C1288 1.523 . S
C1288 C1269 1.368 . S
C1288 C1282 1.368 . S
C1288 C1287 1.523 . S
C1289 C1273 1.429 . S
C1289 C1285 1.429 . S
C1289 C1290 1.523 . S
C1290 C1274 1.368 . S
C1290 C1286 1.368 . S
C1290 C1289 1.523 . S
H1291 C1266 0.950 . S
H1292 C1268 0.950 . S
H1293 C1269 0.949 . S
H1294 C1271 0.950 . S
H1295 C1273 0.950 . S
C1296 C1297 1.349 . S
C1296 C1298 1.327 . S
C1296 H1321 0.950 . S
C1297 C1296 1.349 . S
C1297 C1313 1.349 . S
C1298 C1296 1.327 . S
C1298 C1317 1.429 . S
C1298 H1322 0.950 . S
C1299 C1316 1.574 . S
C1299 C1318 1.368 . S
C1299 H1323 0.949 . S
H1300 C1304 0.949 1_655 S
C1301 C1302 1.349 . S
C1301 C1303 1.327 1_655 S
C1301 H1324 0.950 1_655 S
C1302 C1301 1.349 . S
C1302 C1314 1.349 . S
C1303 C1301 1.327 1_455 S
C1303 C1319 1.429 . S
C1303 H1325 0.950 . S
C1304 H1300 0.949 1_455 S
C1304 C1312 1.574 . S
C1304 C1320 1.368 . S
H1305 C1313 0.950 . S
H1306 C1311 0.950 . S
H1307 C1312 0.949 . S
H1308 C1314 0.950 . S
H1309 C1315 0.950 . S
H1310 C1316 0.949 . S
C1311 H1306 0.950 . S
C1311 C1313 1.327 . S
C1311 C1317 1.429 . S
C1312 C1304 1.574 . S
C1312 H1307 0.949 . S
C1312 C1318 1.368 . S
C1313 C1297 1.349 . S
C1313 H1305 0.950 . S
C1313 C1311 1.327 . S
C1314 C1302 1.349 . S
C1314 H1308 0.950 . S
C1314 C1315 1.327 . S
C1315 H1309 0.950 . S
C1315 C1314 1.327 . S
C1315 C1319 1.429 1_655 S
C1316 C1299 1.574 . S
C1316 H1310 0.949 . S
C1316 C1320 1.368 . S
C1317 C1298 1.429 . S
C1317 C1311 1.429 . S
C1317 C1318 1.523 . S
C1318 C1299 1.368 . S
C1318 C1312 1.368 . S
C1318 C1317 1.523 . S
C1319 C1303 1.429 . S
C1319 C1315 1.429 1_455 S
C1319 C1320 1.523 . S
C1320 C1304 1.368 . S
C1320 C1316 1.368 . S
C1320 C1319 1.523 . S
H1321 C1296 0.950 . S
H1322 C1298 0.950 . S
H1323 C1299 0.949 . S
H1324 C1301 0.950 1_455 S
H1325 C1303 0.950 . S
C1326 C1327 1.349 . S
C1326 C1328 1.327 . S
C1326 H1351 0.950 . S
C1327 C1326 1.349 . S
C1327 C1343 1.349 . S
C1328 C1326 1.327 . S
C1328 C1347 1.429 . S
C1328 H1352 0.950 . S
C1329 C1346 1.574 . S
C1329 C1348 1.368 . S
C1329 H1353 0.949 . S
H1330 C1334 0.949 . S
C1331 C1332 1.349 . S
C1331 C1333 1.327 . S
C1331 H1354 0.950 . S
C1332 C1331 1.349 . S
C1332 C1344 1.349 . S
C1333 C1331 1.327 . S
C1333 C1349 1.429 . S
C1333 H1355 0.950 . S
C1334 H1330 0.949 . S
C1334 C1342 1.574 . S
C1334 C1350 1.368 . S
H1335 C1343 0.950 . S
H1336 C1341 0.950 . S
H1337 C1342 0.949 . S
H1338 C1344 0.950 . S
H1339 C1345 0.950 . S
H1340 C1346 0.949 . S
C1341 H1336 0.950 . S
C1341 C1343 1.327 . S
C1341 C1347 1.429 . S
C1342 C1334 1.574 . S
C1342 H1337 0.949 . S
C1342 C1348 1.368 . S
C1343 C1327 1.349 . S
C1343 H1335 0.950 . S
C1343 C1341 1.327 . S
C1344 C1332 1.349 . S
C1344 H1338 0.950 . S
C1344 C1345 1.327 . S
C1345 H1339 0.950 . S
C1345 C1344 1.327 . S
C1345 C1349 1.429 . S
C1346 C1329 1.574 . S
C1346 H1340 0.949 . S
C1346 C1350 1.368 . S
C1347 C1328 1.429 . S
C1347 C1341 1.429 . S
C1347 C1348 1.523 . S
C1348 C1329 1.368 . S
C1348 C1342 1.368 . S
C1348 C1347 1.523 . S
C1349 C1333 1.429 . S
C1349 C1345 1.429 . S
C1349 C1350 1.523 . S
C1350 C1334 1.368 . S
C1350 C1346 1.368 . S
C1350 C1349 1.523 . S
H1351 C1326 0.950 . S
H1352 C1328 0.950 . S
H1353 C1329 0.949 . S
H1354 C1331 0.950 . S
H1355 C1333 0.950 . S
C1356 C1357 1.349 . S
C1356 C1358 1.327 . S
C1356 H1381 0.950 . S
C1357 C1356 1.349 . S
C1357 C1373 1.349 . S
C1358 C1356 1.327 . S
C1358 C1377 1.429 . S
C1358 H1382 0.950 . S
C1359 C1376 1.574 . S
C1359 C1378 1.368 . S
C1359 H1383 0.949 . S
H1360 C1364 0.949 . S
C1361 C1362 1.349 . S
C1361 C1363 1.327 . S
C1361 H1384 0.950 . S
C1362 C1361 1.349 . S
C1362 C1374 1.349 1_565 S
C1363 C1361 1.327 . S
C1363 C1379 1.429 1_565 S
C1363 H1385 0.950 . S
C1364 H1360 0.949 . S
C1364 C1372 1.574 . S
C1364 C1380 1.368 . S
H1365 C1373 0.950 . S
H1366 C1371 0.950 . S
H1367 C1372 0.949 . S
H1368 C1374 0.950 . S
H1369 C1375 0.950 . S
H1370 C1376 0.949 . S
C1371 H1366 0.950 . S
C1371 C1373 1.327 . S
C1371 C1377 1.429 . S
C1372 C1364 1.574 . S
C1372 H1367 0.949 . S
C1372 C1378 1.368 . S
C1373 C1357 1.349 . S
C1373 H1365 0.950 . S
C1373 C1371 1.327 . S
C1374 C1362 1.349 1_545 S
C1374 H1368 0.950 . S
C1374 C1375 1.327 . S
C1375 H1369 0.950 . S
C1375 C1374 1.327 . S
C1375 C1379 1.429 . S
C1376 C1359 1.574 . S
C1376 H1370 0.949 . S
C1376 C1380 1.368 . S
C1377 C1358 1.429 . S
C1377 C1371 1.429 . S
C1377 C1378 1.523 . S
C1378 C1359 1.368 . S
C1378 C1372 1.368 . S
C1378 C1377 1.523 . S
C1379 C1363 1.429 1_545 S
C1379 C1375 1.429 . S
C1379 C1380 1.523 . S
C1380 C1364 1.368 . S
C1380 C1376 1.368 . S
C1380 C1379 1.523 . S
H1381 C1356 0.950 . S
H1382 C1358 0.950 . S
H1383 C1359 0.949 . S
H1384 C1361 0.950 . S
H1385 C1363 0.950 . S
C1386 C1387 1.349 . S
C1386 C1388 1.327 . S
C1386 H1411 0.950 . S
C1387 C1386 1.349 . S
C1387 C1403 1.349 . S
C1388 C1386 1.327 . S
C1388 C1407 1.429 . S
C1388 H1412 0.950 . S
C1389 C1406 1.574 . S
C1389 C1408 1.368 . S
C1389 H1413 0.949 . S
H1390 C1394 0.949 . S
C1391 C1392 1.349 . S
C1391 C1393 1.327 1_565 S
C1391 H1414 0.950 . S
C1392 C1391 1.349 . S
C1392 C1404 1.349 1_565 S
C1393 C1391 1.327 1_545 S
C1393 C1409 1.429 . S
C1393 H1415 0.950 . S
C1394 H1390 0.949 . S
C1394 C1402 1.574 . S
C1394 C1410 1.368 . S
H1395 C1403 0.950 . S
H1396 C1401 0.950 . S
H1397 C1402 0.949 . S
H1398 C1404 0.950 . S
H1399 C1405 0.950 . S
H1400 C1406 0.949 . S
C1401 H1396 0.950 . S
C1401 C1403 1.327 . S
C1401 C1407 1.429 . S
C1402 C1394 1.574 . S
C1402 H1397 0.949 . S
C1402 C1408 1.368 . S
C1403 C1387 1.349 . S
C1403 H1395 0.950 . S
C1403 C1401 1.327 . S
C1404 C1392 1.349 1_545 S
C1404 H1398 0.950 . S
C1404 C1405 1.327 . S
C1405 H1399 0.950 . S
C1405 C1404 1.327 . S
C1405 C1409 1.429 . S
C1406 C1389 1.574 . S
C1406 H1400 0.949 . S
C1406 C1410 1.368 . S
C1407 C1388 1.429 . S
C1407 C1401 1.429 . S
C1407 C1408 1.523 . S
C1408 C1389 1.368 . S
C1408 C1402 1.368 . S
C1408 C1407 1.523 . S
C1409 C1393 1.429 . S
C1409 C1405 1.429 . S
C1409 C1410 1.523 . S
C1410 C1394 1.368 . S
C1410 C1406 1.368 . S
C1410 C1409 1.523 . S
H1411 C1386 0.950 . S
H1412 C1388 0.950 . S
H1413 C1389 0.949 . S
H1414 C1391 0.950 . S
H1415 C1393 0.950 . S
C1416 C1417 1.349 . S
C1416 C1418 1.327 . S
C1416 H1441 0.950 . S
C1417 C1416 1.349 . S
C1417 C1433 1.349 . S
C1418 C1416 1.327 . S
C1418 C1437 1.429 . S
C1418 H1442 0.950 . S
C1419 C1436 1.574 . S
C1419 C1438 1.368 . S
C1419 H1443 0.949 . S
H1420 C1424 0.949 . S
C1421 C1422 1.349 . S
C1421 C1423 1.327 . S
C1421 H1444 0.950 . S
C1422 C1421 1.349 . S
C1422 C1434 1.349 . S
C1423 C1421 1.327 . S
C1423 C1439 1.429 1_655 S
C1423 H1445 0.950 . S
C1424 H1420 0.949 . S
C1424 C1432 1.574 . S
C1424 C1440 1.368 . S
H1425 C1433 0.950 . S
H1426 C1431 0.950 . S
H1427 C1432 0.949 . S
H1428 C1434 0.950 1_455 S
H1429 C1435 0.950 . S
H1430 C1436 0.949 1_655 S
C1431 H1426 0.950 . S
C1431 C1433 1.327 . S
C1431 C1437 1.429 . S
C1432 C1424 1.574 . S
C1432 H1427 0.949 . S
C1432 C1438 1.368 . S
C1433 C1417 1.349 . S
C1433 H1425 0.950 . S
C1433 C1431 1.327 . S
C1434 C1422 1.349 . S
C1434 H1428 0.950 1_655 S
C1434 C1435 1.327 1_655 S
C1435 H1429 0.950 . S
C1435 C1434 1.327 1_455 S
C1435 C1439 1.429 . S
C1436 C1419 1.574 . S
C1436 H1430 0.949 1_455 S
C1436 C1440 1.368 . S
C1437 C1418 1.429 . S
C1437 C1431 1.429 . S
C1437 C1438 1.523 . S
C1438 C1419 1.368 . S
C1438 C1432 1.368 . S
C1438 C1437 1.523 . S
C1439 C1423 1.429 1_455 S
C1439 C1435 1.429 . S
C1439 C1440 1.523 . S
C1440 C1424 1.368 . S
C1440 C1436 1.368 . S
C1440 C1439 1.523 . S
H1441 C1416 0.950 . S
H1442 C1418 0.950 . S
H1443 C1419 0.949 . S
H1444 C1421 0.950 . S
H1445 C1423 0.950 . S
C1446 C1447 1.349 . S
C1446 C1448 1.327 . S
C1446 H1471 0.950 . S
C1447 C1446 1.349 . S
C1447 C1463 1.349 . S
C1448 C1446 1.327 . S
C1448 C1467 1.429 . S
C1448 H1472 0.950 . S
C1449 C1466 1.574 . S
C1449 C1468 1.368 . S
C1449 H1473 0.949 . S
H1450 C1454 0.949 . S
C1451 C1452 1.349 . S
C1451 C1453 1.327 . S
C1451 H1474 0.950 . S
C1452 C1451 1.349 . S
C1452 C1464 1.349 . S
C1453 C1451 1.327 . S
C1453 C1469 1.429 . S
C1453 H1475 0.950 . S
C1454 H1450 0.949 . S
C1454 C1462 1.574 . S
C1454 C1470 1.368 . S
H1455 C1463 0.950 . S
H1456 C1461 0.950 . S
H1457 C1462 0.949 . S
H1458 C1464 0.950 . S
H1459 C1465 0.950 . S
H1460 C1466 0.949 . S
C1461 H1456 0.950 . S
C1461 C1463 1.327 . S
C1461 C1467 1.429 . S
C1462 C1454 1.574 . S
C1462 H1457 0.949 . S
C1462 C1468 1.368 . S
C1463 C1447 1.349 . S
C1463 H1455 0.950 . S
C1463 C1461 1.327 . S
C1464 C1452 1.349 . S
C1464 H1458 0.950 . S
C1464 C1465 1.327 . S
C1465 H1459 0.950 . S
C1465 C1464 1.327 . S
C1465 C1469 1.429 . S
C1466 C1449 1.574 . S
C1466 H1460 0.949 . S
C1466 C1470 1.368 . S
C1467 C1448 1.429 . S
C1467 C1461 1.429 . S
C1467 C1468 1.523 . S
C1468 C1449 1.368 . S
C1468 C1462 1.368 . S
C1468 C1467 1.523 . S
C1469 C1453 1.429 . S
C1469 C1465 1.429 . S
C1469 C1470 1.523 . S
C1470 C1454 1.368 . S
C1470 C1466 1.368 . S
C1470 C1469 1.523 . S
H1471 C1446 0.950 . S
H1472 C1448 0.950 . S
H1473 C1449 0.949 . S
H1474 C1451 0.950 . S
H1475 C1453 0.950 . S
C1476 C1477 1.349 . S
C1476 C1478 1.327 . S
C1476 H1501 0.950 . S
C1477 C1476 1.349 . S
C1477 C1493 1.349 . S
C1478 C1476 1.327 . S
C1478 C1497 1.429 . S
C1478 H1502 0.950 . S
C1479 C1496 1.574 . S
C1479 C1498 1.368 . S
C1479 H1503 0.949 . S
H1480 C1484 0.949 . S
C1481 C1482 1.349 . S
C1481 C1483 1.327 . S
C1481 H1504 0.950 . S
C1482 C1481 1.349 . S
C1482 C1494 1.349 . S
C1483 C1481 1.327 . S
C1483 C1499 1.429 . S
C1483 H1505 0.950 . S
C1484 H1480 0.949 . S
C1484 C1492 1.574 . S
C1484 C1500 1.368 . S
H1485 C1493 0.950 . S
H1486 C1491 0.950 . S
H1487 C1492 0.949 . S
H1488 C1494 0.950 . S
H1489 C1495 0.950 . S
H1490 C1496 0.949 . S
C1491 H1486 0.950 . S
C1491 C1493 1.327 . S
C1491 C1497 1.429 . S
C1492 C1484 1.574 . S
C1492 H1487 0.949 . S
C1492 C1498 1.368 . S
C1493 C1477 1.349 . S
C1493 H1485 0.950 . S
C1493 C1491 1.327 . S
C1494 C1482 1.349 . S
C1494 H1488 0.950 . S
C1494 C1495 1.327 . S
C1495 H1489 0.950 . S
C1495 C1494 1.327 . S
C1495 C1499 1.429 . S
C1496 C1479 1.574 . S
C1496 H1490 0.949 . S
C1496 C1500 1.368 . S
C1497 C1478 1.429 . S
C1497 C1491 1.429 . S
C1497 C1498 1.523 . S
C1498 C1479 1.368 . S
C1498 C1492 1.368 . S
C1498 C1497 1.523 . S
C1499 C1483 1.429 . S
C1499 C1495 1.429 . S
C1499 C1500 1.523 . S
C1500 C1484 1.368 . S
C1500 C1496 1.368 . S
C1500 C1499 1.523 . S
H1501 C1476 0.950 . S
H1502 C1478 0.950 . S
H1503 C1479 0.949 . S
H1504 C1481 0.950 . S
H1505 C1483 0.950 . S
C1506 C1507 1.349 . S
C1506 C1508 1.327 . S
C1506 H1531 0.950 . S
C1507 C1506 1.349 . S
C1507 C1523 1.349 . S
C1508 C1506 1.327 . S
C1508 C1527 1.429 . S
C1508 H1532 0.950 . S
C1509 C1526 1.574 . S
C1509 C1528 1.368 . S
C1509 H1533 0.949 . S
H1510 C1514 0.949 . S
C1511 C1512 1.349 . S
C1511 C1513 1.327 . S
C1511 H1534 0.950 . S
C1512 C1511 1.349 . S
C1512 C1524 1.349 . S
C1513 C1511 1.327 . S
C1513 C1529 1.429 . S
C1513 H1535 0.950 . S
C1514 H1510 0.949 . S
C1514 C1522 1.574 . S
C1514 C1530 1.368 . S
H1515 C1523 0.950 . S
H1516 C1521 0.950 . S
H1517 C1522 0.949 . S
H1518 C1524 0.950 . S
H1519 C1525 0.950 . S
H1520 C1526 0.949 . S
C1521 H1516 0.950 . S
C1521 C1523 1.327 . S
C1521 C1527 1.429 . S
C1522 C1514 1.574 . S
C1522 H1517 0.949 . S
C1522 C1528 1.368 . S
C1523 C1507 1.349 . S
C1523 H1515 0.950 . S
C1523 C1521 1.327 . S
C1524 C1512 1.349 . S
C1524 H1518 0.950 . S
C1524 C1525 1.327 . S
C1525 H1519 0.950 . S
C1525 C1524 1.327 . S
C1525 C1529 1.429 . S
C1526 C1509 1.574 . S
C1526 H1520 0.949 . S
C1526 C1530 1.368 . S
C1527 C1508 1.429 . S
C1527 C1521 1.429 . S
C1527 C1528 1.523 . S
C1528 C1509 1.368 . S
C1528 C1522 1.368 . S
C1528 C1527 1.523 . S
C1529 C1513 1.429 . S
C1529 C1525 1.429 . S
C1529 C1530 1.523 . S
C1530 C1514 1.368 . S
C1530 C1526 1.368 . S
C1530 C1529 1.523 . S
H1531 C1506 0.950 . S
H1532 C1508 0.950 . S
H1533 C1509 0.949 . S
H1534 C1511 0.950 . S
H1535 C1513 0.950 . S
C1536 C1537 1.349 . S
C1536 C1538 1.327 . S
C1536 H1561 0.950 . S
C1537 C1536 1.349 . S
C1537 C1553 1.349 . S
C1538 C1536 1.327 . S
C1538 C1557 1.429 . S
C1538 H1562 0.950 . S
C1539 C1556 1.574 . S
C1539 C1558 1.368 . S
C1539 H1563 0.949 . S
H1540 C1544 0.949 . S
C1541 C1542 1.349 . S
C1541 C1543 1.327 . S
C1541 H1564 0.950 . S
C1542 C1541 1.349 . S
C1542 C1554 1.349 . S
C1543 C1541 1.327 . S
C1543 C1559 1.429 . S
C1543 H1565 0.950 . S
C1544 H1540 0.949 . S
C1544 C1552 1.574 . S
C1544 C1560 1.368 . S
H1545 C1553 0.950 . S
H1546 C1551 0.950 . S
H1547 C1552 0.949 . S
H1548 C1554 0.950 1_545 S
H1549 C1555 0.950 . S
H1550 C1556 0.949 . S
C1551 H1546 0.950 . S
C1551 C1553 1.327 . S
C1551 C1557 1.429 . S
C1552 C1544 1.574 . S
C1552 H1547 0.949 . S
C1552 C1558 1.368 . S
C1553 C1537 1.349 . S
C1553 H1545 0.950 . S
C1553 C1551 1.327 . S
C1554 C1542 1.349 . S
C1554 H1548 0.950 1_565 S
C1554 C1555 1.327 . S
C1555 H1549 0.950 . S
C1555 C1554 1.327 . S
C1555 C1559 1.429 . S
C1556 C1539 1.574 . S
C1556 H1550 0.949 . S
C1556 C1560 1.368 . S
C1557 C1538 1.429 . S
C1557 C1551 1.429 . S
C1557 C1558 1.523 . S
C1558 C1539 1.368 . S
C1558 C1552 1.368 . S
C1558 C1557 1.523 . S
C1559 C1543 1.429 . S
C1559 C1555 1.429 . S
C1559 C1560 1.523 . S
C1560 C1544 1.368 . S
C1560 C1556 1.368 . S
C1560 C1559 1.523 . S
H1561 C1536 0.950 . S
H1562 C1538 0.950 . S
H1563 C1539 0.949 . S
H1564 C1541 0.950 . S
H1565 C1543 0.950 . S
C1566 C1567 1.349 . S
C1566 C1568 1.327 . S
C1566 H1591 0.950 . S
C1567 C1566 1.349 . S
C1567 C1583 1.349 . S
C1568 C1566 1.327 . S
C1568 C1587 1.429 . S
C1568 H1592 0.950 . S
C1569 C1586 1.574 . S
C1569 C1588 1.368 . S
C1569 H1593 0.949 . S
H1570 C1574 0.949 . S
C1571 C1572 1.349 . S
C1571 C1573 1.327 . S
C1571 H1594 0.950 . S
C1572 C1571 1.349 . S
C1572 C1584 1.349 . S
C1573 C1571 1.327 . S
C1573 C1589 1.429 . S
C1573 H1595 0.950 . S
C1574 H1570 0.949 . S
C1574 C1582 1.574 . S
C1574 C1590 1.368 . S
H1575 C1583 0.950 . S
H1576 C1581 0.950 . S
H1577 C1582 0.949 . S
H1578 C1584 0.950 . S
H1579 C1585 0.950 . S
H1580 C1586 0.949 . S
C1581 H1576 0.950 . S
C1581 C1583 1.327 . S
C1581 C1587 1.429 . S
C1582 C1574 1.574 . S
C1582 H1577 0.949 . S
C1582 C1588 1.368 . S
C1583 C1567 1.349 . S
C1583 H1575 0.950 . S
C1583 C1581 1.327 . S
C1584 C1572 1.349 . S
C1584 H1578 0.950 . S
C1584 C1585 1.327 . S
C1585 H1579 0.950 . S
C1585 C1584 1.327 . S
C1585 C1589 1.429 . S
C1586 C1569 1.574 . S
C1586 H1580 0.949 . S
C1586 C1590 1.368 . S
C1587 C1568 1.429 . S
C1587 C1581 1.429 . S
C1587 C1588 1.523 . S
C1588 C1569 1.368 . S
C1588 C1582 1.368 . S
C1588 C1587 1.523 . S
C1589 C1573 1.429 . S
C1589 C1585 1.429 . S
C1589 C1590 1.523 . S
C1590 C1574 1.368 . S
C1590 C1586 1.368 . S
C1590 C1589 1.523 . S
H1591 C1566 0.950 . S
H1592 C1568 0.950 . S
H1593 C1569 0.949 . S
H1594 C1571 0.950 . S
H1595 C1573 0.950 . S
C1596 C1597 1.349 . S
C1596 C1598 1.327 . S
C1596 H1621 0.950 . S
C1597 C1596 1.349 . S
C1597 C1613 1.349 . S
C1598 C1596 1.327 . S
C1598 C1617 1.429 . S
C1598 H1622 0.950 . S
C1599 C1616 1.574 . S
C1599 C1618 1.368 . S
C1599 H1623 0.949 . S
H1600 C1604 0.949 . S
C1601 C1602 1.349 . S
C1601 C1603 1.327 . S
C1601 H1624 0.950 . S
C1602 C1601 1.349 . S
C1602 C1614 1.349 . S
C1603 C1601 1.327 . S
C1603 C1619 1.429 . S
C1603 H1625 0.950 . S
C1604 H1600 0.949 . S
C1604 C1612 1.574 . S
C1604 C1620 1.368 . S
H1605 C1613 0.950 . S
H1606 C1611 0.950 . S
H1607 C1612 0.949 . S
H1608 C1614 0.950 . S
H1609 C1615 0.950 . S
H1610 C1616 0.949 . S
C1611 H1606 0.950 . S
C1611 C1613 1.327 . S
C1611 C1617 1.429 . S
C1612 C1604 1.574 . S
C1612 H1607 0.949 . S
C1612 C1618 1.368 . S
C1613 C1597 1.349 . S
C1613 H1605 0.950 . S
C1613 C1611 1.327 . S
C1614 C1602 1.349 . S
C1614 H1608 0.950 . S
C1614 C1615 1.327 . S
C1615 H1609 0.950 . S
C1615 C1614 1.327 . S
C1615 C1619 1.429 . S
C1616 C1599 1.574 . S
C1616 H1610 0.949 . S
C1616 C1620 1.368 . S
C1617 C1598 1.429 . S
C1617 C1611 1.429 . S
C1617 C1618 1.523 . S
C1618 C1599 1.368 . S
C1618 C1612 1.368 . S
C1618 C1617 1.523 . S
C1619 C1603 1.429 . S
C1619 C1615 1.429 . S
C1619 C1620 1.523 . S
C1620 C1604 1.368 . S
C1620 C1616 1.368 . S
C1620 C1619 1.523 . S
H1621 C1596 0.950 . S
H1622 C1598 0.950 . S
H1623 C1599 0.949 . S
H1624 C1601 0.950 . S
H1625 C1603 0.950 . S
C1626 C1627 1.349 . S
C1626 C1628 1.327 . S
C1626 H1651 0.950 . S
C1627 C1626 1.349 . S
C1627 C1643 1.349 . S
C1628 C1626 1.327 . S
C1628 C1647 1.429 . S
C1628 H1652 0.950 . S
C1629 C1646 1.574 . S
C1629 C1648 1.368 . S
C1629 H1653 0.949 . S
H1630 C1634 0.949 . S
C1631 C1632 1.349 . S
C1631 C1633 1.327 . S
C1631 H1654 0.950 . S
C1632 C1631 1.349 . S
C1632 C1644 1.349 . S
C1633 C1631 1.327 . S
C1633 C1649 1.429 . S
C1633 H1655 0.950 . S
C1634 H1630 0.949 . S
C1634 C1642 1.574 . S
C1634 C1650 1.368 . S
H1635 C1643 0.950 . S
H1636 C1641 0.950 . S
H1637 C1642 0.949 . S
H1638 C1644 0.950 . S
H1639 C1645 0.950 . S
H1640 C1646 0.949 . S
C1641 H1636 0.950 . S
C1641 C1643 1.327 . S
C1641 C1647 1.429 . S
C1642 C1634 1.574 . S
C1642 H1637 0.949 . S
C1642 C1648 1.368 . S
C1643 C1627 1.349 . S
C1643 H1635 0.950 . S
C1643 C1641 1.327 . S
C1644 C1632 1.349 . S
C1644 H1638 0.950 . S
C1644 C1645 1.327 . S
C1645 H1639 0.950 . S
C1645 C1644 1.327 . S
C1645 C1649 1.429 . S
C1646 C1629 1.574 . S
C1646 H1640 0.949 . S
C1646 C1650 1.368 . S
C1647 C1628 1.429 . S
C1647 C1641 1.429 . S
C1647 C1648 1.523 . S
C1648 C1629 1.368 . S
C1648 C1642 1.368 . S
C1648 C1647 1.523 . S
C1649 C1633 1.429 . S
C1649 C1645 1.429 . S
C1649 C1650 1.523 . S
C1650 C1634 1.368 . S
C1650 C1646 1.368 . S
C1650 C1649 1.523 . S
H1651 C1626 0.950 . S
H1652 C1628 0.950 . S
H1653 C1629 0.949 . S
H1654 C1631 0.950 . S
H1655 C1633 0.950 . S
C1656 C1657 1.349 . S
C1656 C1658 1.327 . S
C1656 H1681 0.950 . S
C1657 C1656 1.349 . S
C1657 C1673 1.349 . S
C1658 C1656 1.327 . S
C1658 C1677 1.429 . S
C1658 H1682 0.950 . S
C1659 C1676 1.574 . S
C1659 C1678 1.368 . S
C1659 H1683 0.949 . S
H1660 C1664 0.949 . S
C1661 C1662 1.349 . S
C1661 C1663 1.327 . S
C1661 H1684 0.950 . S
C1662 C1661 1.349 . S
C1662 C1674 1.349 . S
C1663 C1661 1.327 . S
C1663 C1679 1.429 . S
C1663 H1685 0.950 . S
C1664 H1660 0.949 . S
C1664 C1672 1.574 . S
C1664 C1680 1.368 . S
H1665 C1673 0.950 . S
H1666 C1671 0.950 . S
H1667 C1672 0.949 . S
H1668 C1674 0.950 . S
H1669 C1675 0.950 . S
H1670 C1676 0.949 . S
C1671 H1666 0.950 . S
C1671 C1673 1.327 . S
C1671 C1677 1.429 . S
C1672 C1664 1.574 . S
C1672 H1667 0.949 . S
C1672 C1678 1.368 . S
C1673 C1657 1.349 . S
C1673 H1665 0.950 . S
C1673 C1671 1.327 . S
C1674 C1662 1.349 . S
C1674 H1668 0.950 . S
C1674 C1675 1.327 . S
C1675 H1669 0.950 . S
C1675 C1674 1.327 . S
C1675 C1679 1.429 . S
C1676 C1659 1.574 . S
C1676 H1670 0.949 . S
C1676 C1680 1.368 . S
C1677 C1658 1.429 . S
C1677 C1671 1.429 . S
C1677 C1678 1.523 . S
C1678 C1659 1.368 . S
C1678 C1672 1.368 . S
C1678 C1677 1.523 . S
C1679 C1663 1.429 . S
C1679 C1675 1.429 . S
C1679 C1680 1.523 . S
C1680 C1664 1.368 . S
C1680 C1676 1.368 . S
C1680 C1679 1.523 . S
H1681 C1656 0.950 . S
H1682 C1658 0.950 . S
H1683 C1659 0.949 . S
H1684 C1661 0.950 . S
H1685 C1663 0.950 . S
C1686 C1687 1.349 . S
C1686 C1688 1.327 . S
C1686 H1711 0.950 . S
C1687 C1686 1.349 . S
C1687 C1703 1.349 . S
C1688 C1686 1.327 . S
C1688 C1707 1.429 . S
C1688 H1712 0.950 . S
C1689 C1706 1.574 . S
C1689 C1708 1.368 . S
C1689 H1713 0.949 . S
H1690 C1694 0.949 . S
C1691 C1692 1.349 . S
C1691 C1693 1.327 . S
C1691 H1714 0.950 . S
C1692 C1691 1.349 . S
C1692 C1704 1.349 . S
C1693 C1691 1.327 . S
C1693 C1709 1.429 . S
C1693 H1715 0.950 . S
C1694 H1690 0.949 . S
C1694 C1702 1.574 . S
C1694 C1710 1.368 . S
H1695 C1703 0.950 . S
H1696 C1701 0.950 . S
H1697 C1702 0.949 . S
H1698 C1704 0.950 . S
H1699 C1705 0.950 . S
H1700 C1706 0.949 . S
C1701 H1696 0.950 . S
C1701 C1703 1.327 . S
C1701 C1707 1.429 . S
C1702 C1694 1.574 . S
C1702 H1697 0.949 . S
C1702 C1708 1.368 . S
C1703 C1687 1.349 . S
C1703 H1695 0.950 . S
C1703 C1701 1.327 . S
C1704 C1692 1.349 . S
C1704 H1698 0.950 . S
C1704 C1705 1.327 . S
C1705 H1699 0.950 . S
C1705 C1704 1.327 . S
C1705 C1709 1.429 . S
C1706 C1689 1.574 . S
C1706 H1700 0.949 . S
C1706 C1710 1.368 . S
C1707 C1688 1.429 . S
C1707 C1701 1.429 . S
C1707 C1708 1.523 . S
C1708 C1689 1.368 . S
C1708 C1702 1.368 . S
C1708 C1707 1.523 . S
C1709 C1693 1.429 . S
C1709 C1705 1.429 . S
C1709 C1710 1.523 . S
C1710 C1694 1.368 . S
C1710 C1706 1.368 . S
C1710 C1709 1.523 . S
H1711 C1686 0.950 . S
H1712 C1688 0.950 . S
H1713 C1689 0.949 . S
H1714 C1691 0.950 . S
H1715 C1693 0.950 . S
C1716 C1717 1.349 . S
C1716 C1718 1.327 . S
C1716 H1741 0.950 . S
C1717 C1716 1.349 . S
C1717 C1733 1.349 . S
C1718 C1716 1.327 . S
C1718 C1737 1.429 . S
C1718 H1742 0.950 . S
C1719 C1736 1.574 . S
C1719 C1738 1.368 . S
C1719 H1743 0.949 . S
H1720 C1724 0.949 . S
C1721 C1722 1.349 . S
C1721 C1723 1.327 . S
C1721 H1744 0.950 . S
C1722 C1721 1.349 . S
C1722 C1734 1.349 . S
C1723 C1721 1.327 . S
C1723 C1739 1.429 . S
C1723 H1745 0.950 . S
C1724 H1720 0.949 . S
C1724 C1732 1.574 . S
C1724 C1740 1.368 . S
H1725 C1733 0.950 . S
H1726 C1731 0.950 . S
H1727 C1732 0.949 . S
H1728 C1734 0.950 . S
H1729 C1735 0.950 . S
H1730 C1736 0.949 . S
C1731 H1726 0.950 . S
C1731 C1733 1.327 . S
C1731 C1737 1.429 . S
C1732 C1724 1.574 . S
C1732 H1727 0.949 . S
C1732 C1738 1.368 . S
C1733 C1717 1.349 . S
C1733 H1725 0.950 . S
C1733 C1731 1.327 . S
C1734 C1722 1.349 . S
C1734 H1728 0.950 . S
C1734 C1735 1.327 . S
C1735 H1729 0.950 . S
C1735 C1734 1.327 . S
C1735 C1739 1.429 . S
C1736 C1719 1.574 . S
C1736 H1730 0.949 . S
C1736 C1740 1.368 . S
C1737 C1718 1.429 . S
C1737 C1731 1.429 . S
C1737 C1738 1.523 . S
C1738 C1719 1.368 . S
C1738 C1732 1.368 . S
C1738 C1737 1.523 . S
C1739 C1723 1.429 . S
C1739 C1735 1.429 . S
C1739 C1740 1.523 . S
C1740 C1724 1.368 . S
C1740 C1736 1.368 . S
C1740 C1739 1.523 . S
H1741 C1716 0.950 . S
H1742 C1718 0.950 . S
H1743 C1719 0.949 . S
H1744 C1721 0.950 . S
H1745 C1723 0.950 . S
C1746 C1747 1.349 . S
C1746 C1748 1.327 . S
C1746 H1771 0.950 1_565 S
C1747 C1746 1.349 . S
C1747 C1763 1.349 . S
C1748 C1746 1.327 . S
C1748 C1767 1.429 . S
C1748 H1772 0.950 . S
C1749 C1766 1.574 . S
C1749 C1768 1.368 . S
C1749 H1773 0.949 . S
H1750 C1754 0.949 . S
C1751 C1752 1.349 . S
C1751 C1753 1.327 . S
C1751 H1774 0.950 . S
C1752 C1751 1.349 . S
C1752 C1764 1.349 . S
C1753 C1751 1.327 . S
C1753 C1769 1.429 . S
C1753 H1775 0.950 . S
C1754 H1750 0.949 . S
C1754 C1762 1.574 . S
C1754 C1770 1.368 . S
H1755 C1763 0.950 . S
H1756 C1761 0.950 . S
H1757 C1762 0.949 . S
H1758 C1764 0.950 . S
H1759 C1765 0.950 . S
H1760 C1766 0.949 . S
C1761 H1756 0.950 . S
C1761 C1763 1.327 . S
C1761 C1767 1.429 . S
C1762 C1754 1.574 . S
C1762 H1757 0.949 . S
C1762 C1768 1.368 . S
C1763 C1747 1.349 . S
C1763 H1755 0.950 . S
C1763 C1761 1.327 . S
C1764 C1752 1.349 . S
C1764 H1758 0.950 . S
C1764 C1765 1.327 . S
C1765 H1759 0.950 . S
C1765 C1764 1.327 . S
C1765 C1769 1.429 . S
C1766 C1749 1.574 . S
C1766 H1760 0.949 . S
C1766 C1770 1.368 . S
C1767 C1748 1.429 . S
C1767 C1761 1.429 . S
C1767 C1768 1.523 . S
C1768 C1749 1.368 . S
C1768 C1762 1.368 . S
C1768 C1767 1.523 . S
C1769 C1753 1.429 . S
C1769 C1765 1.429 . S
C1769 C1770 1.523 . S
C1770 C1754 1.368 . S
C1770 C1766 1.368 . S
C1770 C1769 1.523 . S
H1771 C1746 0.950 1_545 S
H1772 C1748 0.950 . S
H1773 C1749 0.949 . S
H1774 C1751 0.950 . S
H1775 C1753 0.950 . S
C1776 C1777 1.349 . S
C1776 C1778 1.327 . S
C1776 H1801 0.950 . S
C1777 C1776 1.349 . S
C1777 C1793 1.349 . S
C1778 C1776 1.327 . S
C1778 C1797 1.429 . S
C1778 H1802 0.950 . S
C1779 C1796 1.574 . S
C1779 C1798 1.368 . S
C1779 H1803 0.949 . S
H1780 C1784 0.949 . S
C1781 C1782 1.349 . S
C1781 C1783 1.327 . S
C1781 H1804 0.950 . S
C1782 C1781 1.349 . S
C1782 C1794 1.349 . S
C1783 C1781 1.327 . S
C1783 C1799 1.429 . S
C1783 H1805 0.950 . S
C1784 H1780 0.949 . S
C1784 C1792 1.574 . S
C1784 C1800 1.368 . S
H1785 C1793 0.950 . S
H1786 C1791 0.950 . S
H1787 C1792 0.949 . S
H1788 C1794 0.950 . S
H1789 C1795 0.950 . S
H1790 C1796 0.949 . S
C1791 H1786 0.950 . S
C1791 C1793 1.327 . S
C1791 C1797 1.429 . S
C1792 C1784 1.574 . S
C1792 H1787 0.949 . S
C1792 C1798 1.368 . S
C1793 C1777 1.349 . S
C1793 H1785 0.950 . S
C1793 C1791 1.327 . S
C1794 C1782 1.349 . S
C1794 H1788 0.950 . S
C1794 C1795 1.327 . S
C1795 H1789 0.950 . S
C1795 C1794 1.327 . S
C1795 C1799 1.429 . S
C1796 C1779 1.574 . S
C1796 H1790 0.949 . S
C1796 C1800 1.368 . S
C1797 C1778 1.429 . S
C1797 C1791 1.429 . S
C1797 C1798 1.523 . S
C1798 C1779 1.368 . S
C1798 C1792 1.368 . S
C1798 C1797 1.523 . S
C1799 C1783 1.429 . S
C1799 C1795 1.429 . S
C1799 C1800 1.523 . S
C1800 C1784 1.368 . S
C1800 C1796 1.368 . S
C1800 C1799 1.523 . S
H1801 C1776 0.950 . S
H1802 C1778 0.950 . S
H1803 C1779 0.949 . S
H1804 C1781 0.950 . S
H1805 C1783 0.950 . S
C1806 C1807 1.349 . S
C1806 C1808 1.327 . S
C1806 H1831 0.950 . S
C1807 C1806 1.349 . S
C1807 C1823 1.349 . S
C1808 C1806 1.327 . S
C1808 C1827 1.429 . S
C1808 H1832 0.950 . S
C1809 C1826 1.574 . S
C1809 C1828 1.368 . S
C1809 H1833 0.949 . S
H1810 C1814 0.949 . S
C1811 C1812 1.349 . S
C1811 C1813 1.327 . S
C1811 H1834 0.950 . S
C1812 C1811 1.349 . S
C1812 C1824 1.349 . S
C1813 C1811 1.327 . S
C1813 C1829 1.429 . S
C1813 H1835 0.950 . S
C1814 H1810 0.949 . S
C1814 C1822 1.574 . S
C1814 C1830 1.368 . S
H1815 C1823 0.950 . S
H1816 C1821 0.950 . S
H1817 C1822 0.949 . S
H1818 C1824 0.950 . S
H1819 C1825 0.950 . S
H1820 C1826 0.949 . S
C1821 H1816 0.950 . S
C1821 C1823 1.327 . S
C1821 C1827 1.429 . S
C1822 C1814 1.574 . S
C1822 H1817 0.949 . S
C1822 C1828 1.368 . S
C1823 C1807 1.349 . S
C1823 H1815 0.950 . S
C1823 C1821 1.327 . S
C1824 C1812 1.349 . S
C1824 H1818 0.950 . S
C1824 C1825 1.327 . S
C1825 H1819 0.950 . S
C1825 C1824 1.327 . S
C1825 C1829 1.429 . S
C1826 C1809 1.574 . S
C1826 H1820 0.949 . S
C1826 C1830 1.368 . S
C1827 C1808 1.429 . S
C1827 C1821 1.429 . S
C1827 C1828 1.523 . S
C1828 C1809 1.368 . S
C1828 C1822 1.368 . S
C1828 C1827 1.523 . S
C1829 C1813 1.429 . S
C1829 C1825 1.429 . S
C1829 C1830 1.523 . S
C1830 C1814 1.368 . S
C1830 C1826 1.368 . S
C1830 C1829 1.523 . S
H1831 C1806 0.950 . S
H1832 C1808 0.950 . S
H1833 C1809 0.949 . S
H1834 C1811 0.950 . S
H1835 C1813 0.950 . S
C1836 C1837 1.349 . S
C1836 C1838 1.327 1_655 S
C1836 H1861 0.950 . S
C1837 C1836 1.349 . S
C1837 C1853 1.349 . S
C1838 C1836 1.327 1_455 S
C1838 C1857 1.429 . S
C1838 H1862 0.950 . S
C1839 C1856 1.574 . S
C1839 C1858 1.368 1_556 S
C1839 H1863 0.949 . S
H1840 C1844 0.949 . S
C1841 C1842 1.349 . S
C1841 C1843 1.327 . S
C1841 H1864 0.950 . S
C1842 C1841 1.349 . S
C1842 C1854 1.349 . S
C1843 C1841 1.327 . S
C1843 C1859 1.429 . S
C1843 H1865 0.950 . S
C1844 H1840 0.949 . S
C1844 C1852 1.574 . S
C1844 C1860 1.368 1_554 S
H1845 C1853 0.950 . S
H1846 C1851 0.950 1_556 S
H1847 C1852 0.949 . S
H1848 C1854 0.950 . S
H1849 C1855 0.950 1_554 S
H1850 C1856 0.949 . S
C1851 H1846 0.950 1_554 S
C1851 C1853 1.327 . S
C1851 C1857 1.429 1_655 S
C1852 C1844 1.574 . S
C1852 H1847 0.949 . S
C1852 C1858 1.368 . S
C1853 C1837 1.349 . S
C1853 H1845 0.950 . S
C1853 C1851 1.327 . S
C1854 C1842 1.349 . S
C1854 H1848 0.950 . S
C1854 C1855 1.327 . S
C1855 H1849 0.950 1_556 S
C1855 C1854 1.327 . S
C1855 C1859 1.429 . S
C1856 C1839 1.574 . S
C1856 H1850 0.949 . S
C1856 C1860 1.368 . S
C1857 C1838 1.429 . S
C1857 C1851 1.429 1_455 S
C1857 C1858 1.523 . S
C1858 C1839 1.368 1_554 S
C1858 C1852 1.368 . S
C1858 C1857 1.523 . S
C1859 C1843 1.429 . S
C1859 C1855 1.429 . S
C1859 C1860 1.523 . S
C1860 C1844 1.368 1_556 S
C1860 C1856 1.368 . S
C1860 C1859 1.523 . S
H1861 C1836 0.950 . S
H1862 C1838 0.950 . S
H1863 C1839 0.949 . S
H1864 C1841 0.950 . S
H1865 C1843 0.950 . S
C1866 C1867 1.349 . S
C1866 C1868 1.327 . S
C1866 H1891 0.950 . S
C1867 C1866 1.349 . S
C1867 C1883 1.349 . S
C1868 C1866 1.327 . S
C1868 C1887 1.429 . S
C1868 H1892 0.950 . S
C1869 C1886 1.574 . S
C1869 C1888 1.368 1_554 S
C1869 H1893 0.949 . S
H1870 C1874 0.949 . S
C1871 C1872 1.349 . S
C1871 C1873 1.327 . S
C1871 H1894 0.950 . S
C1872 C1871 1.349 . S
C1872 C1884 1.349 . S
C1873 C1871 1.327 . S
C1873 C1889 1.429 . S
C1873 H1895 0.950 . S
C1874 H1870 0.949 . S
C1874 C1882 1.581 . S
C1874 C1890 1.361 1_556 S
H1875 C1883 0.950 . S
H1876 C1881 0.950 . S
H1877 C1882 0.949 . S
H1878 C1884 0.950 . S
H1879 C1885 0.950 . S
H1880 C1886 0.949 . S
C1881 H1876 0.950 . S
C1881 C1883 1.327 . S
C1881 C1887 1.429 . S
C1882 C1874 1.581 . S
C1882 H1877 0.949 . S
C1882 C1888 1.368 . S
C1883 C1867 1.349 . S
C1883 H1875 0.950 . S
C1883 C1881 1.327 . S
C1884 C1872 1.349 . S
C1884 H1878 0.950 . S
C1884 C1885 1.327 . S
C1885 H1879 0.950 . S
C1885 C1884 1.327 . S
C1885 C1889 1.429 . S
C1886 C1869 1.574 . S
C1886 H1880 0.949 . S
C1886 C1890 1.368 . S
C1887 C1868 1.429 . S
C1887 C1881 1.429 . S
C1887 C1888 1.523 . S
C1888 C1869 1.368 1_556 S
C1888 C1882 1.368 . S
C1888 C1887 1.523 . S
C1889 C1873 1.429 . S
C1889 C1885 1.429 . S
C1889 C1890 1.523 . S
C1890 C1874 1.361 1_554 S
C1890 C1886 1.368 . S
C1890 C1889 1.523 . S
H1891 C1866 0.950 . S
H1892 C1868 0.950 . S
H1893 C1869 0.949 . S
H1894 C1871 0.950 . S
H1895 C1873 0.950 . S
C1896 C1897 1.349 . S
C1896 C1898 1.327 . S
C1896 H1921 0.950 . S
C1897 C1896 1.349 . S
C1897 C1913 1.349 . S
C1898 C1896 1.327 . S
C1898 C1917 1.429 . S
C1898 H1922 0.950 . S
C1899 C1916 1.584 . S
C1899 C1918 1.358 1_556 S
C1899 H1923 0.950 . S
H1900 C1904 0.949 . S
C1901 C1902 1.349 1_545 S
C1901 C1903 1.327 . S
C1901 H1924 0.950 . S
C1902 C1901 1.349 1_565 S
C1902 C1914 1.349 . S
C1903 C1901 1.327 . S
C1903 C1919 1.429 . S
C1903 H1925 0.950 . S
C1904 H1900 0.949 . S
C1904 C1912 1.574 . S
C1904 C1920 1.368 1_554 S
H1905 C1913 0.950 . S
H1906 C1911 0.950 . S
H1907 C1912 0.949 . S
H1908 C1914 0.950 . S
H1909 C1915 0.950 . S
H1910 C1916 0.949 . S
C1911 H1906 0.950 . S
C1911 C1913 1.327 . S
C1911 C1917 1.429 . S
C1912 C1904 1.574 . S
C1912 H1907 0.949 . S
C1912 C1918 1.368 . S
C1913 C1897 1.349 . S
C1913 H1905 0.950 . S
C1913 C1911 1.327 . S
C1914 C1902 1.349 . S
C1914 H1908 0.950 . S
C1914 C1915 1.327 . S
C1915 H1909 0.950 . S
C1915 C1914 1.327 . S
C1915 C1919 1.429 1_565 S
C1916 C1899 1.584 . S
C1916 H1910 0.949 . S
C1916 C1920 1.368 . S
C1917 C1898 1.429 . S
C1917 C1911 1.429 . S
C1917 C1918 1.523 . S
C1918 C1899 1.358 1_554 S
C1918 C1912 1.368 . S
C1918 C1917 1.523 . S
C1919 C1903 1.429 . S
C1919 C1915 1.429 1_545 S
C1919 C1920 1.523 . S
C1920 C1904 1.368 1_556 S
C1920 C1916 1.368 . S
C1920 C1919 1.523 . S
H1921 C1896 0.950 . S
H1922 C1898 0.950 . S
H1923 C1899 0.950 . S
H1924 C1901 0.950 . S
H1925 C1903 0.950 . S
C1926 C1927 1.349 . S
C1926 C1928 1.327 . S
C1926 H1951 0.950 . S
C1927 C1926 1.349 . S
C1927 C1943 1.349 . S
C1928 C1926 1.327 . S
C1928 C1947 1.429 . S
C1928 H1952 0.950 . S
C1929 C1946 1.574 . S
C1929 C1948 1.368 . S
C1929 H1953 0.949 . S
H1930 C1934 0.949 . S
C1931 C1932 1.349 1_545 S
C1931 C1933 1.327 . S
C1931 H1954 0.950 . S
C1932 C1931 1.349 1_565 S
C1932 C1944 1.349 . S
C1933 C1931 1.327 . S
C1933 C1949 1.429 . S
C1933 H1955 0.950 . S
C1934 H1930 0.949 . S
C1934 C1942 1.574 . S
C1934 C1950 1.368 . S
H1935 C1943 0.950 . S
H1936 C1941 0.950 . S
H1937 C1942 0.949 . S
H1938 C1944 0.950 . S
H1939 C1945 0.950 . S
H1940 C1946 0.949 . S
C1941 H1936 0.950 . S
C1941 C1943 1.327 . S
C1941 C1947 1.429 . S
C1942 C1934 1.574 . S
C1942 H1937 0.949 . S
C1942 C1948 1.368 . S
C1943 C1927 1.349 . S
C1943 H1935 0.950 . S
C1943 C1941 1.327 . S
C1944 C1932 1.349 . S
C1944 H1938 0.950 . S
C1944 C1945 1.327 1_565 S
C1945 H1939 0.950 . S
C1945 C1944 1.327 1_545 S
C1945 C1949 1.429 . S
C1946 C1929 1.574 . S
C1946 H1940 0.949 . S
C1946 C1950 1.368 . S
C1947 C1928 1.429 . S
C1947 C1941 1.429 . S
C1947 C1948 1.523 . S
C1948 C1929 1.368 . S
C1948 C1942 1.368 . S
C1948 C1947 1.523 . S
C1949 C1933 1.429 . S
C1949 C1945 1.429 . S
C1949 C1950 1.523 . S
C1950 C1934 1.368 . S
C1950 C1946 1.368 . S
C1950 C1949 1.523 . S
H1951 C1926 0.950 . S
H1952 C1928 0.950 . S
H1953 C1929 0.949 . S
H1954 C1931 0.950 . S
H1955 C1933 0.950 . S
C1956 C1957 1.349 . S
C1956 C1958 1.327 . S
C1956 H1981 0.950 . S
C1957 C1956 1.349 . S
C1957 C1973 1.349 . S
C1958 C1956 1.327 . S
C1958 C1977 1.429 1_655 S
C1958 H1982 0.950 . S
C1959 C1976 1.574 . S
C1959 C1978 1.368 . S
C1959 H1983 0.949 . S
H1960 C1964 0.949 . S
C1961 C1962 1.349 . S
C1961 C1963 1.327 . S
C1961 H1984 0.950 . S
C1962 C1961 1.349 . S
C1962 C1974 1.349 . S
C1963 C1961 1.327 . S
C1963 C1979 1.429 . S
C1963 H1985 0.950 . S
C1964 H1960 0.949 . S
C1964 C1972 1.574 . S
C1964 C1980 1.368 . S
H1965 C1973 0.950 1_455 S
H1966 C1971 0.950 . S
H1967 C1972 0.949 1_655 S
H1968 C1974 0.950 . S
H1969 C1975 0.950 . S
H1970 C1976 0.949 . S
C1971 H1966 0.950 . S
C1971 C1973 1.327 1_455 S
C1971 C1977 1.429 . S
C1972 C1964 1.574 . S
C1972 H1967 0.949 1_455 S
C1972 C1978 1.368 . S
C1973 C1957 1.349 . S
C1973 H1965 0.950 1_655 S
C1973 C1971 1.327 1_655 S
C1974 C1962 1.349 . S
C1974 H1968 0.950 . S
C1974 C1975 1.327 . S
C1975 H1969 0.950 . S
C1975 C1974 1.327 . S
C1975 C1979 1.429 . S
C1976 C1959 1.574 . S
C1976 H1970 0.949 . S
C1976 C1980 1.368 . S
C1977 C1958 1.429 1_455 S
C1977 C1971 1.429 . S
C1977 C1978 1.523 . S
C1978 C1959 1.368 . S
C1978 C1972 1.368 . S
C1978 C1977 1.523 . S
C1979 C1963 1.429 . S
C1979 C1975 1.429 . S
C1979 C1980 1.523 . S
C1980 C1964 1.368 . S
C1980 C1976 1.368 . S
C1980 C1979 1.523 . S
H1981 C1956 0.950 . S
H1982 C1958 0.950 . S
H1983 C1959 0.949 . S
H1984 C1961 0.950 . S
H1985 C1963 0.950 . S
C1986 C1987 1.349 . S
C1986 C1988 1.327 . S
C1986 H2011 0.950 . S
C1987 C1986 1.349 . S
C1987 C2003 1.349 . S
C1988 C1986 1.327 . S
C1988 C2007 1.429 . S
C1988 H2012 0.950 . S
C1989 C2006 1.574 . S
C1989 C2008 1.368 . S
C1989 H2013 0.949 . S
H1990 C1994 0.949 . S
C1991 C1992 1.349 . S
C1991 C1993 1.327 . S
C1991 H2014 0.950 . S
C1992 C1991 1.349 . S
C1992 C2004 1.349 . S
C1993 C1991 1.327 . S
C1993 C2009 1.429 . S
C1993 H2015 0.950 . S
C1994 H1990 0.949 . S
C1994 C2002 1.574 . S
C1994 C2010 1.368 . S
H1995 C2003 0.950 . S
H1996 C2001 0.950 . S
H1997 C2002 0.949 . S
H1998 C2004 0.950 . S
H1999 C2005 0.950 . S
H2000 C2006 0.949 . S
C2001 H1996 0.950 . S
C2001 C2003 1.327 . S
C2001 C2007 1.429 . S
C2002 C1994 1.574 . S
C2002 H1997 0.949 . S
C2002 C2008 1.368 . S
C2003 C1987 1.349 . S
C2003 H1995 0.950 . S
C2003 C2001 1.327 . S
C2004 C1992 1.349 . S
C2004 H1998 0.950 . S
C2004 C2005 1.327 . S
C2005 H1999 0.950 . S
C2005 C2004 1.327 . S
C2005 C2009 1.429 . S
C2006 C1989 1.574 . S
C2006 H2000 0.949 . S
C2006 C2010 1.368 . S
C2007 C1988 1.429 . S
C2007 C2001 1.429 . S
C2007 C2008 1.523 . S
C2008 C1989 1.368 . S
C2008 C2002 1.368 . S
C2008 C2007 1.523 . S
C2009 C1993 1.429 . S
C2009 C2005 1.429 . S
C2009 C2010 1.523 . S
C2010 C1994 1.368 . S
C2010 C2006 1.368 . S
C2010 C2009 1.523 . S
H2011 C1986 0.950 . S
H2012 C1988 0.950 . S
H2013 C1989 0.949 . S
H2014 C1991 0.950 . S
H2015 C1993 0.950 . S
C397 C59 1.289 . S
C402 C15 1.292 . S
C427 C10 1.253 1_655 S
C432 C29 1.237 . S
C457 C40 1.203 . S
C462 C54 1.204 . S
C487 C87 1.281 1_655 S
C492 C131 1.281 . S
C517 C74 1.250 . S
C522 C109 1.232 . S
C547 C96 1.195 . S
C552 C118 1.195 . S
C577 C194 1.242 . S
C582 C147 1.227 . S
C607 C169 1.232 . S
C612 C142 1.247 . S
C637 C164 1.252 . S
C642 C183 1.236 . S
C667 C206 1.237 . S
C672 C257 1.220 . S
C697 C219 1.226 . S
C702 C228 1.242 . S
C727 C252 1.247 . S
C732 C241 1.230 . S
C757 C323 1.273 . S
C762 C271 1.275 . S
C787 C282 1.242 . S
C792 C293 1.226 . S
C817 C304 1.187 . S
C822 C318 1.188 . S
C847 C381 1.272 . S
C852 C351 1.272 . S
C877 C373 1.218 . S
C882 C338 1.236 . S
C907 C392 1.186 . S
C912 C360 1.186 . S
C937 C21 2.044 . S
C942 C294 2.061 . S
C967 C329 2.084 . S
C972 C37 2.086 . S
C997 C62 2.020 . S
C1002 C272 2.019 . S
C1027 C175 2.105 . S
C1032 C65 2.103 . S
C1057 C18 2.070 . S
C1062 C191 2.052 . S
C1087 C153 2.048 . S
C1092 C30 2.066 . S
C1117 C235 2.105 . S
C1122 C81 2.103 . S
C1147 C103 2.100 . S
C1152 C249 2.102 . S
C1177 C213 2.048 . S
C1182 C128 2.066 . S
C1207 C125 2.088 . S
C1212 C367 2.102 . S
C1237 C384 2.007 1_554 S
C1242 C84 2.022 . S
C1267 C345 2.045 . S
C1272 C106 2.065 . S
C1297 C301 2.036 . S
C1302 C184 2.054 . S
C1327 C326 2.002 . S
C1332 C150 2.000 . S
C1357 C172 2.057 . S
C1362 C279 2.039 . S
C1387 C216 2.005 . S
C1392 C370 2.006 . S
C1417 C395 2.044 . S
C1422 C238 2.062 . S
C1447 C250 2.008 . S
C1452 C348 2.009 . S
C1477 C7 0.977 . S
C1482 C337 0.975 . S
C1507 C43 0.986 . S
C1512 C359 0.984 . S
C1537 C382 0.906 . S
C1542 C52 0.907 1_565 S
C1567 C263 0.984 . S
C1572 C51 0.985 . S
C1597 C205 0.945 . S
C1602 C8 0.948 . S
C1627 C32 0.971 . S
C1632 C227 0.968 . S
C1657 C73 0.970 . S
C1662 C139 0.972 . S
C1687 C95 0.994 . S
C1692 C161 0.996 . S
C1717 C120 0.956 . S
C1722 C197 0.958 . S
C1747 C117 0.957 1_565 S
C1752 C315 0.959 . S
C1777 C76 0.878 . S
C1782 C274 0.879 . S
C1807 C296 0.889 . S
C1812 C98 0.888 . S
C1837 C186 0.908 . S
C1842 C389 0.906 . S
C1867 C340 0.869 . S
C1872 C140 0.870 . S
C1897 C162 0.893 . S
C1902 C362 0.892 . S
C1927 C208 0.894 . S
C1932 C285 0.895 . S
C1957 C230 0.918 . S
C1962 C307 0.919 . S
C1987 C316 0.881 . S
C1992 C260 0.880 . S
