# Generated by pormake.
# Topology son, (6)-cn, num edge types: 1
# Building blocks:
#     Node 0, Type 0, BuildingBlock: MIFKUJ_clean_sbu_0, # of connection points: 6
#     Node 1, Type 0, BuildingBlock: MIFKUJ_clean_sbu_0, # of connection points: 6
#     Node 2, Type 0, BuildingBlock: MIFKUJ_clean_sbu_0, # of connection points: 6
#     Node 3, Type 0, BuildingBlock: MIFKUJ_clean_sbu_0, # of connection points: 6
#     Node 4, Type 0, BuildingBlock: MIFKUJ_clean_sbu_0, # of connection points: 6
#     Node 5, Type 0, BuildingBlock: MIFKUJ_clean_sbu_0, # of connection points: 6
#     Node 6, Type 0, BuildingBlock: MIFKUJ_clean_sbu_0, # of connection points: 6
#     Node 7, Type 0, BuildingBlock: MIFKUJ_clean_sbu_0, # of connection points: 6
#     Node 8, Type 0, BuildingBlock: MIFKUJ_clean_sbu_0, # of connection points: 6
#     Node 9, Type 0, BuildingBlock: MIFKUJ_clean_sbu_0, # of connection points: 6
#     Node 10, Type 0, BuildingBlock: MIFKUJ_clean_sbu_0, # of connection points: 6
#     Node 11, Type 0, BuildingBlock: MIFKUJ_clean_sbu_0, # of connection points: 6
#     Node 12, Type 0, BuildingBlock: MIFKUJ_clean_sbu_0, # of connection points: 6
#     Node 13, Type 0, BuildingBlock: MIFKUJ_clean_sbu_0, # of connection points: 6
#     Node 14, Type 0, BuildingBlock: MIFKUJ_clean_sbu_0, # of connection points: 6
#     Node 15, Type 0, BuildingBlock: MIFKUJ_clean_sbu_0, # of connection points: 6
#     Node 16, Type 0, BuildingBlock: MIFKUJ_clean_sbu_0, # of connection points: 6
#     Node 17, Type 0, BuildingBlock: MIFKUJ_clean_sbu_0, # of connection points: 6
#     Node 18, Type 0, BuildingBlock: MIFKUJ_clean_sbu_0, # of connection points: 6
#     Node 19, Type 0, BuildingBlock: MIFKUJ_clean_sbu_0, # of connection points: 6
#     Node 20, Type 0, BuildingBlock: MIFKUJ_clean_sbu_0, # of connection points: 6
#     Node 21, Type 0, BuildingBlock: MIFKUJ_clean_sbu_0, # of connection points: 6
#     Node 22, Type 0, BuildingBlock: MIFKUJ_clean_sbu_0, # of connection points: 6
#     Node 23, Type 0, BuildingBlock: MIFKUJ_clean_sbu_0, # of connection points: 6
#     Node 24, Type 0, BuildingBlock: MIFKUJ_clean_sbu_0, # of connection points: 6
#     Node 25, Type 0, BuildingBlock: MIFKUJ_clean_sbu_0, # of connection points: 6
#     Node 26, Type 0, BuildingBlock: MIFKUJ_clean_sbu_0, # of connection points: 6
#     Node 27, Type 0, BuildingBlock: MIFKUJ_clean_sbu_0, # of connection points: 6
#     Node 28, Type 0, BuildingBlock: MIFKUJ_clean_sbu_0, # of connection points: 6
#     Node 29, Type 0, BuildingBlock: MIFKUJ_clean_sbu_0, # of connection points: 6
#     Node 30, Type 0, BuildingBlock: MIFKUJ_clean_sbu_0, # of connection points: 6
#     Node 31, Type 0, BuildingBlock: MIFKUJ_clean_sbu_0, # of connection points: 6
#     Edge 32, Type (0, 0), None
#     Edge 33, Type (0, 0), None
#     Edge 34, Type (0, 0), None
#     Edge 35, Type (0, 0), None
#     Edge 36, Type (0, 0), None
#     Edge 37, Type (0, 0), None
#     Edge 38, Type (0, 0), None
#     Edge 39, Type (0, 0), None
#     Edge 40, Type (0, 0), None
#     Edge 41, Type (0, 0), None
#     Edge 42, Type (0, 0), None
#     Edge 43, Type (0, 0), None
#     Edge 44, Type (0, 0), None
#     Edge 45, Type (0, 0), None
#     Edge 46, Type (0, 0), None
#     Edge 47, Type (0, 0), None
#     Edge 48, Type (0, 0), None
#     Edge 49, Type (0, 0), None
#     Edge 50, Type (0, 0), None
#     Edge 51, Type (0, 0), None
#     Edge 52, Type (0, 0), None
#     Edge 53, Type (0, 0), None
#     Edge 54, Type (0, 0), None
#     Edge 55, Type (0, 0), None
#     Edge 56, Type (0, 0), None
#     Edge 57, Type (0, 0), None
#     Edge 58, Type (0, 0), None
#     Edge 59, Type (0, 0), None
#     Edge 60, Type (0, 0), None
#     Edge 61, Type (0, 0), None
#     Edge 62, Type (0, 0), None
#     Edge 63, Type (0, 0), None
#     Edge 64, Type (0, 0), None
#     Edge 65, Type (0, 0), None
#     Edge 66, Type (0, 0), None
#     Edge 67, Type (0, 0), None
#     Edge 68, Type (0, 0), None
#     Edge 69, Type (0, 0), None
#     Edge 70, Type (0, 0), None
#     Edge 71, Type (0, 0), None
#     Edge 72, Type (0, 0), None
#     Edge 73, Type (0, 0), None
#     Edge 74, Type (0, 0), None
#     Edge 75, Type (0, 0), None
#     Edge 76, Type (0, 0), None
#     Edge 77, Type (0, 0), None
#     Edge 78, Type (0, 0), None
#     Edge 79, Type (0, 0), None
#     Edge 80, Type (0, 0), None
#     Edge 81, Type (0, 0), None
#     Edge 82, Type (0, 0), None
#     Edge 83, Type (0, 0), None
#     Edge 84, Type (0, 0), None
#     Edge 85, Type (0, 0), None
#     Edge 86, Type (0, 0), None
#     Edge 87, Type (0, 0), None
#     Edge 88, Type (0, 0), None
#     Edge 89, Type (0, 0), None
#     Edge 90, Type (0, 0), None
#     Edge 91, Type (0, 0), None
#     Edge 92, Type (0, 0), None
#     Edge 93, Type (0, 0), None
#     Edge 94, Type (0, 0), None
#     Edge 95, Type (0, 0), None
#     Edge 96, Type (0, 0), None
#     Edge 97, Type (0, 0), None
#     Edge 98, Type (0, 0), None
#     Edge 99, Type (0, 0), None
#     Edge 100, Type (0, 0), None
#     Edge 101, Type (0, 0), None
#     Edge 102, Type (0, 0), None
#     Edge 103, Type (0, 0), None
#     Edge 104, Type (0, 0), None
#     Edge 105, Type (0, 0), None
#     Edge 106, Type (0, 0), None
#     Edge 107, Type (0, 0), None
#     Edge 108, Type (0, 0), None
#     Edge 109, Type (0, 0), None
#     Edge 110, Type (0, 0), None
#     Edge 111, Type (0, 0), None
#     Edge 112, Type (0, 0), None
#     Edge 113, Type (0, 0), None
#     Edge 114, Type (0, 0), None
#     Edge 115, Type (0, 0), None
#     Edge 116, Type (0, 0), None
#     Edge 117, Type (0, 0), None
#     Edge 118, Type (0, 0), None
#     Edge 119, Type (0, 0), None
#     Edge 120, Type (0, 0), None
#     Edge 121, Type (0, 0), None
#     Edge 122, Type (0, 0), None
#     Edge 123, Type (0, 0), None
#     Edge 124, Type (0, 0), None
#     Edge 125, Type (0, 0), None
#     Edge 126, Type (0, 0), None
#     Edge 127, Type (0, 0), None
# Relax obj value: 0.075
# Max RMSD: 0.145
# Mean RMSD: 0.144
data_MOF--net-son--node1-MIFKUJ_clean_sbu_0--edge1-none
_symmetry_space_group_name_H-M    P1
_symmetry_Int_Tables_number       1
_symmetry_cell_setting            triclinic
loop_
_symmetry_equiv_pos_as_xyz
'x, y, z'
_cell_length_a     67.931309
_cell_length_b     19.728995
_cell_length_c     10.136921
_cell_angle_alpha  89.999133
_cell_angle_beta   89.958293
_cell_angle_gamma 90.000851
loop_
_atom_site_label
_atom_site_type_symbol
_atom_site_fract_x
_atom_site_fract_y
_atom_site_fract_z
_atom_type_partial_charge
Zn0 Zn 0.31928 0.20502 0.41092 0.0
Zn1 Zn 0.29419 0.27534 0.06851 0.0
C2 C 0.35824 0.15929 0.38018 0.0
O3 O 0.34884 0.10125 0.38654 0.0
C4 C 0.25336 0.26501 0.00355 0.0
O5 O 0.25589 0.32918 0.97439 0.0
O6 O 0.30897 0.19807 0.59521 0.0
O7 O 0.30639 0.28762 0.33739 0.0
O8 O 0.29275 0.3571 0.19842 0.0
C9 C 0.31144 0.24805 0.6728 0.0
O10 O 0.32283 0.29866 0.63736 0.0
O11 O 0.34882 0.21424 0.39783 0.0
C12 C 0.30123 0.24937 0.79982 0.0
O13 O 0.28804 0.20262 0.82542 0.0
O14 O 0.30542 0.2934 0.88726 0.0
O15 O 0.31258 0.20802 0.14856 0.0
O16 O 0.3122 0.12613 0.28939 0.0
O17 O 0.26756 0.23134 0.05138 0.0
C18 C 0.2989 0.34507 0.31517 0.0
C19 C 0.3095 0.14585 0.17167 0.0
Zn20 Zn 0.9184 0.03735 0.40984 0.0
Zn21 Zn 0.94358 0.96751 0.06749 0.0
C22 C 0.87942 0.08293 0.38013 0.0
O23 O 0.88882 0.14098 0.38627 0.0
C24 C 0.98449 0.98116 0.00273 0.0
O25 O 0.98246 0.91712 0.97088 0.0
O26 O 0.92881 0.04437 0.5938 0.0
O27 O 0.93134 0.95495 0.33596 0.0
O28 O 0.94508 0.88559 0.19712 0.0
C29 C 0.92639 0.99442 0.67156 0.0
O30 O 0.91498 0.9438 0.63668 0.0
O31 O 0.88886 0.02799 0.39744 0.0
C32 C 0.93666 0.99322 0.79829 0.0
O33 O 0.94982 0.04009 0.82354 0.0
O34 O 0.9325 0.94926 0.88598 0.0
O35 O 0.92498 0.03432 0.14706 0.0
O36 O 0.92546 0.11618 0.2881 0.0
O37 O 0.97002 0.01304 0.0517 0.0
C38 C 0.93885 0.89752 0.31377 0.0
C39 C 0.92814 0.09643 0.17033 0.0
Zn40 Zn 0.31933 0.03733 0.82303 0.0
Zn41 Zn 0.29416 0.96749 0.16541 0.0
C42 C 0.35832 0.08292 0.85274 0.0
O43 O 0.34892 0.14097 0.84653 0.0
C44 C 0.25324 0.98118 0.23014 0.0
O45 O 0.25526 0.91714 0.262 0.0
O46 O 0.30893 0.04435 0.63907 0.0
O47 O 0.3064 0.95493 0.8969 0.0
O48 O 0.29265 0.88558 0.03576 0.0
C49 C 0.31134 0.99438 0.56133 0.0
O50 O 0.32275 0.94377 0.59621 0.0
O51 O 0.34888 0.02797 0.83546 0.0
C52 C 0.30107 0.99318 0.43461 0.0
O53 O 0.2879 0.04004 0.40939 0.0
O54 O 0.30523 0.94924 0.34691 0.0
O55 O 0.31275 0.03429 0.08581 0.0
O56 O 0.31228 0.11616 0.94474 0.0
O57 O 0.26771 0.01305 0.18119 0.0
C58 C 0.29888 0.89751 0.91911 0.0
C59 C 0.3096 0.09641 0.0625 0.0
Zn60 Zn 0.91842 0.20505 0.82196 0.0
Zn61 Zn 0.94352 0.27534 0.16439 0.0
C62 C 0.87946 0.15931 0.85268 0.0
O63 O 0.88886 0.10127 0.84624 0.0
C64 C 0.98436 0.26498 0.22932 0.0
O65 O 0.98184 0.32916 0.25846 0.0
O66 O 0.92873 0.19809 0.63767 0.0
O67 O 0.93131 0.28764 0.89547 0.0
O68 O 0.94497 0.3571 0.03446 0.0
C69 C 0.92626 0.24808 0.56009 0.0
O70 O 0.91488 0.2987 0.59553 0.0
O71 O 0.88888 0.21427 0.83509 0.0
C72 C 0.93647 0.2494 0.43309 0.0
O73 O 0.94967 0.20266 0.40753 0.0
O74 O 0.93229 0.29341 0.34562 0.0
O75 O 0.92514 0.20805 0.08429 0.0
O76 O 0.92549 0.12614 0.94345 0.0
O77 O 0.97015 0.23133 0.18154 0.0
C78 C 0.93882 0.34508 0.91771 0.0
C79 C 0.9282 0.14588 0.06116 0.0
Zn80 Zn 0.69353 0.72177 0.91432 0.0
Zn81 Zn 0.66845 0.79209 0.57192 0.0
C82 C 0.73437 0.7321 0.97929 0.0
O83 O 0.73183 0.66793 0.00849 0.0
C84 C 0.62948 0.83782 0.60267 0.0
O85 O 0.63888 0.89586 0.59632 0.0
O86 O 0.68231 0.70371 0.09558 0.0
O87 O 0.67514 0.78908 0.8343 0.0
O88 O 0.67552 0.87098 0.69345 0.0
C89 C 0.68649 0.74774 0.18302 0.0
O90 O 0.69968 0.79449 0.1574 0.0
O91 O 0.72016 0.76577 0.93144 0.0
C92 C 0.67628 0.74906 0.31004 0.0
O93 O 0.6649 0.69845 0.34548 0.0
O94 O 0.67876 0.79904 0.38764 0.0
O95 O 0.68133 0.70949 0.64545 0.0
O96 O 0.69497 0.64 0.78442 0.0
O97 O 0.6389 0.78287 0.58501 0.0
C98 C 0.67822 0.85125 0.81118 0.0
C99 C 0.68883 0.65204 0.66767 0.0
Zn100 Zn 0.04415 0.0296 0.91536 0.0
Zn101 Zn 0.06932 0.95976 0.573 0.0
C102 C 0.00323 0.01595 0.98012 0.0
O103 O 0.00526 0.07999 0.01197 0.0
C104 C 0.1083 0.91418 0.60271 0.0
O105 O 0.0989 0.85613 0.59656 0.0
O106 O 0.05522 0.04785 0.09687 0.0
O107 O 0.06274 0.96279 0.83578 0.0
O108 O 0.06226 0.88093 0.69474 0.0
C109 C 0.05106 0.00389 0.18455 0.0
O110 O 0.0379 0.95702 0.15931 0.0
O111 O 0.0177 0.98407 0.93115 0.0
C112 C 0.06133 0.00269 0.31129 0.0
O113 O 0.07274 0.05331 0.34616 0.0
O114 O 0.05891 0.95274 0.38904 0.0
O115 O 0.05639 0.04216 0.64688 0.0
O116 O 0.04264 0.11151 0.78572 0.0
O117 O 0.09887 0.96912 0.58541 0.0
C118 C 0.05958 0.90067 0.81251 0.0
C119 C 0.04887 0.09958 0.66907 0.0
Zn120 Zn 0.69356 0.02961 0.81742 0.0
Zn121 Zn 0.66838 0.95978 0.15981 0.0
C122 C 0.73448 0.01593 0.7527 0.0
O123 O 0.73246 0.07998 0.72088 0.0
C124 C 0.6294 0.91419 0.13011 0.0
O125 O 0.6388 0.85614 0.13634 0.0
O126 O 0.68248 0.04787 0.63593 0.0
O127 O 0.67497 0.96281 0.89704 0.0
O128 O 0.67544 0.88094 0.03811 0.0
C129 C 0.68664 0.00393 0.54822 0.0
O130 O 0.69981 0.95707 0.57343 0.0
O131 O 0.72 0.98406 0.80163 0.0
C132 C 0.67637 0.00272 0.42151 0.0
O133 O 0.66496 0.05334 0.38663 0.0
O134 O 0.67879 0.95276 0.34377 0.0
O135 O 0.68132 0.04218 0.08594 0.0
O136 O 0.69507 0.11152 0.94708 0.0
O137 O 0.63883 0.96914 0.14737 0.0
C138 C 0.67812 0.9007 0.92035 0.0
C139 C 0.68884 0.09959 0.06373 0.0
Zn140 Zn 0.0442 0.72176 0.81845 0.0
Zn141 Zn 0.0693 0.79206 0.16088 0.0
C142 C 0.00336 0.73213 0.75353 0.0
O143 O 0.00588 0.66795 0.72439 0.0
C144 C 0.10826 0.8378 0.13016 0.0
O145 O 0.09886 0.89584 0.13659 0.0
O146 O 0.05543 0.70369 0.63723 0.0
O147 O 0.06259 0.78906 0.89854 0.0
O148 O 0.06223 0.87097 0.03939 0.0
C149 C 0.05124 0.74771 0.54976 0.0
O150 O 0.03805 0.79445 0.57533 0.0
O151 O 0.01757 0.76578 0.80131 0.0
C152 C 0.06146 0.74903 0.42275 0.0
O153 O 0.07284 0.69841 0.38731 0.0
O154 O 0.05899 0.79902 0.34517 0.0
O155 O 0.05641 0.70947 0.08737 0.0
O156 O 0.04275 0.64001 0.94839 0.0
O157 O 0.09884 0.78284 0.14776 0.0
C158 C 0.05952 0.85123 0.92168 0.0
C159 C 0.0489 0.65203 0.06513 0.0
Zn160 Zn 0.3193 0.70504 0.91092 0.0
Zn161 Zn 0.29418 0.77533 0.56849 0.0
C162 C 0.35826 0.65933 0.88021 0.0
O163 O 0.34886 0.60129 0.88662 0.0
C164 C 0.25334 0.765 0.5035 0.0
O165 O 0.25587 0.82918 0.47439 0.0
O166 O 0.30898 0.69808 0.09521 0.0
O167 O 0.3064 0.78763 0.8374 0.0
O168 O 0.29274 0.85708 0.69843 0.0
C169 C 0.31145 0.74806 0.1728 0.0
O170 O 0.32283 0.79869 0.13738 0.0
O171 O 0.34884 0.71429 0.89782 0.0
C172 C 0.30123 0.74937 0.2998 0.0
O173 O 0.28804 0.70264 0.32535 0.0
O174 O 0.30542 0.79339 0.38727 0.0
O175 O 0.31256 0.70803 0.64862 0.0
O176 O 0.31223 0.62612 0.78942 0.0
O177 O 0.26755 0.73133 0.5513 0.0
C178 C 0.29889 0.84507 0.81516 0.0
C179 C 0.3095 0.64585 0.67172 0.0
Zn180 Zn 0.91841 0.53738 0.90984 0.0
Zn181 Zn 0.94357 0.46751 0.56749 0.0
C182 C 0.87942 0.58299 0.8801 0.0
O183 O 0.88882 0.64104 0.8862 0.0
C184 C 0.98449 0.48116 0.50272 0.0
O185 O 0.98246 0.41712 0.47084 0.0
O186 O 0.92882 0.54439 0.0938 0.0
O187 O 0.93133 0.45495 0.83598 0.0
O188 O 0.94507 0.38559 0.69712 0.0
C189 C 0.92639 0.49444 0.17156 0.0
O190 O 0.91497 0.44384 0.13669 0.0
O191 O 0.88886 0.52805 0.89745 0.0
C192 C 0.93666 0.49324 0.2983 0.0
O193 O 0.94982 0.54011 0.32355 0.0
O194 O 0.9325 0.44928 0.38597 0.0
O195 O 0.92498 0.53433 0.64706 0.0
O196 O 0.92547 0.61619 0.78809 0.0
O197 O 0.97002 0.51303 0.55172 0.0
C198 C 0.93884 0.39752 0.81376 0.0
C199 C 0.92815 0.59645 0.67033 0.0
Zn200 Zn 0.31932 0.53736 0.32304 0.0
Zn201 Zn 0.29415 0.46749 0.66541 0.0
C202 C 0.3583 0.58298 0.35277 0.0
O203 O 0.3489 0.64102 0.34662 0.0
C204 C 0.25323 0.48119 0.73013 0.0
O205 O 0.25526 0.41715 0.76203 0.0
O206 O 0.30891 0.54437 0.13908 0.0
O207 O 0.3064 0.45493 0.3969 0.0
O208 O 0.29266 0.38558 0.53577 0.0
C209 C 0.31134 0.49442 0.06133 0.0
O210 O 0.32275 0.44382 0.09621 0.0
O211 O 0.34887 0.52803 0.33546 0.0
C212 C 0.30107 0.49321 0.9346 0.0
O213 O 0.2879 0.54007 0.90935 0.0
O214 O 0.30523 0.44925 0.84692 0.0
O215 O 0.31275 0.5343 0.58583 0.0
O216 O 0.31226 0.61618 0.44477 0.0
O217 O 0.26771 0.51304 0.68115 0.0
C218 C 0.29889 0.39751 0.41912 0.0
C219 C 0.30959 0.59641 0.56254 0.0
Zn220 Zn 0.91842 0.70506 0.32197 0.0
Zn221 Zn 0.94354 0.77534 0.6644 0.0
C222 C 0.87946 0.65935 0.35268 0.0
O223 O 0.88886 0.60131 0.34623 0.0
C224 C 0.98438 0.76497 0.72936 0.0
O225 O 0.98186 0.82915 0.7585 0.0
O226 O 0.92873 0.69811 0.13768 0.0
O227 O 0.93132 0.78765 0.39548 0.0
O228 O 0.94499 0.8571 0.53445 0.0
C229 C 0.92626 0.74809 0.06009 0.0
O230 O 0.91489 0.79872 0.09552 0.0
O231 O 0.88888 0.71431 0.33509 0.0
C232 C 0.93648 0.7494 0.9331 0.0
O233 O 0.94968 0.70267 0.90756 0.0
O234 O 0.9323 0.79342 0.84562 0.0
O235 O 0.92515 0.70806 0.58428 0.0
O236 O 0.92549 0.62614 0.44345 0.0
O237 O 0.97016 0.73132 0.68157 0.0
C238 C 0.93883 0.84508 0.41772 0.0
C239 C 0.9282 0.64588 0.56115 0.0
Zn240 Zn 0.69354 0.22177 0.41434 0.0
Zn241 Zn 0.66843 0.29207 0.07192 0.0
C242 C 0.73438 0.23211 0.47934 0.0
O243 O 0.73185 0.16793 0.50849 0.0
C244 C 0.62947 0.33778 0.10264 0.0
O245 O 0.63887 0.39582 0.09624 0.0
O246 O 0.68231 0.20371 0.59557 0.0
O247 O 0.67516 0.28908 0.33424 0.0
O248 O 0.6755 0.37098 0.19343 0.0
C249 C 0.68649 0.24773 0.68304 0.0
O250 O 0.69968 0.29447 0.65747 0.0
O251 O 0.72017 0.26578 0.43152 0.0
C252 C 0.67627 0.24904 0.81004 0.0
O253 O 0.66489 0.19842 0.84546 0.0
O254 O 0.67874 0.29902 0.88764 0.0
O255 O 0.68132 0.20947 0.14544 0.0
O256 O 0.69498 0.14002 0.28441 0.0
O257 O 0.63889 0.28282 0.08502 0.0
C258 C 0.67822 0.35126 0.31114 0.0
C259 C 0.68883 0.15204 0.16768 0.0
Zn260 Zn 0.04415 0.5296 0.41536 0.0
Zn261 Zn 0.06932 0.45973 0.073 0.0
C262 C 0.00323 0.51595 0.48013 0.0
O263 O 0.00526 0.57999 0.51201 0.0
C264 C 0.1083 0.41412 0.10274 0.0
O265 O 0.0989 0.35608 0.09663 0.0
O266 O 0.05522 0.54783 0.59687 0.0
O267 O 0.06274 0.46277 0.33577 0.0
O268 O 0.06225 0.38091 0.19475 0.0
C269 C 0.05106 0.50387 0.68455 0.0
O270 O 0.0379 0.45701 0.65929 0.0
O271 O 0.0177 0.48407 0.43113 0.0
C272 C 0.06133 0.50267 0.81128 0.0
O273 O 0.07275 0.55327 0.84615 0.0
O274 O 0.05891 0.45272 0.88905 0.0
O275 O 0.05639 0.54216 0.14686 0.0
O276 O 0.04265 0.61151 0.28573 0.0
O277 O 0.09887 0.46907 0.0854 0.0
C278 C 0.05957 0.40066 0.31251 0.0
C279 C 0.04888 0.59959 0.16908 0.0
Zn280 Zn 0.69357 0.52961 0.31743 0.0
Zn281 Zn 0.66839 0.45975 0.6598 0.0
C282 C 0.73449 0.51592 0.25272 0.0
O283 O 0.73247 0.57997 0.22085 0.0
C284 C 0.62941 0.41413 0.63007 0.0
O285 O 0.63881 0.35609 0.63624 0.0
O286 O 0.68249 0.54785 0.13592 0.0
O287 O 0.67497 0.46281 0.39702 0.0
O288 O 0.67546 0.38093 0.53808 0.0
C289 C 0.68665 0.5039 0.04824 0.0
O290 O 0.69982 0.45704 0.07347 0.0
O291 O 0.72001 0.48406 0.30167 0.0
C292 C 0.67638 0.50269 0.92151 0.0
O293 O 0.66497 0.55329 0.88663 0.0
O294 O 0.6788 0.45273 0.84376 0.0
O295 O 0.68132 0.54217 0.58594 0.0
O296 O 0.69506 0.61152 0.44707 0.0
O297 O 0.63884 0.46908 0.64738 0.0
C298 C 0.67813 0.40069 0.42031 0.0
C299 C 0.68883 0.5996 0.56372 0.0
Zn300 Zn 0.04418 0.22176 0.31844 0.0
Zn301 Zn 0.0693 0.29205 0.66088 0.0
C302 C 0.00334 0.23214 0.25349 0.0
O303 O 0.00586 0.16796 0.22435 0.0
C304 C 0.10826 0.33776 0.63016 0.0
O305 O 0.09886 0.3958 0.63661 0.0
O306 O 0.05542 0.20369 0.13722 0.0
O307 O 0.06257 0.28904 0.39856 0.0
O308 O 0.06223 0.37096 0.53939 0.0
C309 C 0.05124 0.24771 0.04975 0.0
O310 O 0.03804 0.29444 0.07529 0.0
O311 O 0.01756 0.26579 0.30128 0.0
C312 C 0.06145 0.24902 0.92275 0.0
O313 O 0.07283 0.19839 0.88732 0.0
O314 O 0.05899 0.299 0.84516 0.0
O315 O 0.0564 0.20946 0.58736 0.0
O316 O 0.04273 0.14001 0.44839 0.0
O317 O 0.09884 0.2828 0.64775 0.0
C318 C 0.05951 0.35122 0.42169 0.0
C319 C 0.04889 0.15202 0.56512 0.0
Zn320 Zn 0.81934 0.20499 0.91114 0.0
Zn321 Zn 0.7942 0.27524 0.56868 0.0
C322 C 0.8583 0.1593 0.88048 0.0
O323 O 0.84891 0.10126 0.88702 0.0
C324 C 0.75336 0.26493 0.50356 0.0
O325 O 0.75589 0.32911 0.47445 0.0
O326 O 0.80903 0.19803 0.09544 0.0
O327 O 0.80643 0.28758 0.83766 0.0
O328 O 0.79275 0.35699 0.69866 0.0
C329 C 0.8115 0.24802 0.17302 0.0
O330 O 0.82287 0.29866 0.1376 0.0
O331 O 0.84888 0.21426 0.89798 0.0
C332 C 0.80127 0.24934 0.29998 0.0
O333 O 0.78805 0.20265 0.32542 0.0
O334 O 0.80546 0.29331 0.38752 0.0
O335 O 0.81256 0.20795 0.64896 0.0
O336 O 0.81228 0.12603 0.78973 0.0
O337 O 0.76757 0.23126 0.55138 0.0
C338 C 0.79891 0.34499 0.8154 0.0
C339 C 0.80952 0.14576 0.67205 0.0
Zn340 Zn 0.41847 0.03731 0.90976 0.0
Zn341 Zn 0.44358 0.96739 0.56748 0.0
C342 C 0.37948 0.08293 0.87986 0.0
O343 O 0.38889 0.14098 0.88582 0.0
C344 C 0.48449 0.98115 0.50264 0.0
O345 O 0.48245 0.91718 0.4703 0.0
O346 O 0.42888 0.04433 0.09372 0.0
O347 O 0.43137 0.95488 0.83589 0.0
O348 O 0.44508 0.88546 0.69704 0.0
C349 C 0.42645 0.99438 0.17148 0.0
O350 O 0.41503 0.94378 0.13658 0.0
O351 O 0.38891 0.028 0.89736 0.0
C352 C 0.4367 0.99317 0.29827 0.0
O353 O 0.44983 0.04011 0.32369 0.0
O354 O 0.43255 0.94916 0.38586 0.0
O355 O 0.42497 0.03422 0.64684 0.0
O356 O 0.42554 0.11607 0.78791 0.0
O357 O 0.47003 0.01295 0.55192 0.0
C358 C 0.43886 0.89743 0.81371 0.0
C359 C 0.42817 0.09631 0.6701 0.0
Zn360 Zn 0.81927 0.03731 0.32326 0.0
Zn361 Zn 0.79414 0.96741 0.66558 0.0
C362 C 0.85825 0.08293 0.35304 0.0
O363 O 0.84885 0.14097 0.34701 0.0
C364 C 0.75322 0.98111 0.73014 0.0
O365 O 0.75524 0.91707 0.76201 0.0
O366 O 0.80886 0.04432 0.1393 0.0
O367 O 0.80636 0.95488 0.39715 0.0
O368 O 0.79264 0.88548 0.53599 0.0
C369 C 0.81128 0.99437 0.06156 0.0
O370 O 0.8227 0.94378 0.09645 0.0
O371 O 0.84882 0.02799 0.33562 0.0
C372 C 0.80103 0.99316 0.93478 0.0
O373 O 0.78788 0.04008 0.90941 0.0
O374 O 0.80518 0.94917 0.84717 0.0
O375 O 0.81275 0.03422 0.58617 0.0
O376 O 0.81221 0.11609 0.44508 0.0
O377 O 0.7677 0.01298 0.68122 0.0
C378 C 0.79886 0.89744 0.41933 0.0
C379 C 0.80957 0.09632 0.56287 0.0
Zn380 Zn 0.41836 0.20499 0.32187 0.0
Zn381 Zn 0.44351 0.27523 0.66439 0.0
C382 C 0.37939 0.1593 0.35241 0.0
O383 O 0.38879 0.10126 0.34579 0.0
C384 C 0.48436 0.26497 0.72926 0.0
O385 O 0.48184 0.3292 0.75797 0.0
O386 O 0.42866 0.19803 0.13759 0.0
O387 O 0.43128 0.28757 0.39536 0.0
O388 O 0.44497 0.35696 0.53438 0.0
C389 C 0.4262 0.24803 0.06001 0.0
O390 O 0.41483 0.29867 0.09544 0.0
O391 O 0.38882 0.21427 0.33501 0.0
C392 C 0.43643 0.24934 0.93307 0.0
O393 O 0.44966 0.20268 0.90767 0.0
O394 O 0.43224 0.2933 0.8455 0.0
O395 O 0.42516 0.20795 0.58402 0.0
O396 O 0.42541 0.12601 0.44326 0.0
O397 O 0.47014 0.23124 0.68175 0.0
C398 C 0.4388 0.34498 0.41764 0.0
C399 C 0.42817 0.14575 0.56091 0.0
Zn400 Zn 0.19352 0.72187 0.41417 0.0
Zn401 Zn 0.16838 0.79212 0.0717 0.0
C402 C 0.23436 0.73218 0.47927 0.0
O403 O 0.23183 0.66799 0.50835 0.0
C404 C 0.12941 0.83781 0.10236 0.0
O405 O 0.13881 0.89585 0.09581 0.0
O406 O 0.18226 0.7038 0.59532 0.0
O407 O 0.17516 0.78917 0.33388 0.0
O408 O 0.17544 0.87108 0.19312 0.0
C409 C 0.18645 0.74778 0.68286 0.0
O410 O 0.19967 0.79446 0.65743 0.0
O411 O 0.22015 0.76585 0.43147 0.0
C412 C 0.17622 0.74909 0.80982 0.0
O413 O 0.16485 0.69845 0.84525 0.0
O414 O 0.17868 0.79908 0.88741 0.0
O415 O 0.18129 0.70954 0.14519 0.0
O416 O 0.19497 0.64013 0.28419 0.0
O417 O 0.13884 0.78285 0.08486 0.0
C418 C 0.1782 0.85136 0.31078 0.0
C419 C 0.18881 0.65212 0.16745 0.0
Zn420 Zn 0.54414 0.02972 0.41536 0.0
Zn421 Zn 0.56925 0.9598 0.07309 0.0
C422 C 0.50323 0.01597 0.48019 0.0
O423 O 0.50527 0.07994 0.51253 0.0
C424 C 0.60823 0.91418 0.10299 0.0
O425 O 0.59883 0.85613 0.09704 0.0
O426 O 0.55517 0.04796 0.59698 0.0
O427 O 0.56275 0.9629 0.33602 0.0
O428 O 0.56218 0.88105 0.19494 0.0
C429 C 0.55102 0.00394 0.68456 0.0
O430 O 0.53789 0.957 0.65914 0.0
O431 O 0.51769 0.98417 0.43091 0.0
C432 C 0.56127 0.00274 0.81137 0.0
O433 O 0.57269 0.05333 0.84627 0.0
O434 O 0.55884 0.95279 0.88912 0.0
O435 O 0.55635 0.04224 0.14696 0.0
O436 O 0.54264 0.11166 0.2858 0.0
O437 O 0.5988 0.96911 0.08548 0.0
C438 C 0.55955 0.90081 0.31276 0.0
C439 C 0.54886 0.09969 0.16914 0.0
Zn440 Zn 0.19358 0.02971 0.31727 0.0
Zn441 Zn 0.16845 0.9598 0.65959 0.0
C442 C 0.2345 0.016 0.25269 0.0
O443 O 0.23248 0.08004 0.22079 0.0
C444 C 0.12947 0.91418 0.6298 0.0
O445 O 0.13887 0.85614 0.63583 0.0
O446 O 0.18254 0.04795 0.13568 0.0
O447 O 0.17497 0.96289 0.39667 0.0
O448 O 0.17552 0.88103 0.53777 0.0
C449 C 0.18669 0.00395 0.04807 0.0
O450 O 0.19984 0.95703 0.07345 0.0
O451 O 0.22002 0.98414 0.30164 0.0
C452 C 0.17644 0.00274 0.92129 0.0
O453 O 0.16502 0.05333 0.88639 0.0
O454 O 0.17886 0.95279 0.84354 0.0
O455 O 0.18136 0.04223 0.5857 0.0
O456 O 0.19508 0.11163 0.44685 0.0
O457 O 0.1389 0.96912 0.64723 0.0
C458 C 0.17815 0.9008 0.41997 0.0
C459 C 0.18886 0.09968 0.56351 0.0
Zn460 Zn 0.54421 0.72189 0.31845 0.0
Zn461 Zn 0.56937 0.79212 0.66097 0.0
C462 C 0.50336 0.73215 0.25357 0.0
O463 O 0.50588 0.66791 0.22487 0.0
C464 C 0.60833 0.83781 0.63044 0.0
O465 O 0.59894 0.89585 0.63707 0.0
O466 O 0.55548 0.70382 0.13734 0.0
O467 O 0.56256 0.78917 0.39883 0.0
O468 O 0.56231 0.87111 0.53959 0.0
C469 C 0.55129 0.74777 0.04977 0.0
O470 O 0.53806 0.79443 0.07515 0.0
O471 O 0.51758 0.76588 0.30107 0.0
C472 C 0.56152 0.74909 0.92283 0.0
O473 O 0.57289 0.69844 0.88741 0.0
O474 O 0.55906 0.79908 0.84525 0.0
O475 O 0.55644 0.70954 0.58748 0.0
O476 O 0.54275 0.64016 0.44846 0.0
O477 O 0.59891 0.78284 0.64783 0.0
C478 C 0.55955 0.85137 0.42194 0.0
C479 C 0.54892 0.65214 0.5652 0.0
Zn480 Zn 0.81934 0.70501 0.41114 0.0
Zn481 Zn 0.79418 0.77524 0.06867 0.0
C482 C 0.8583 0.65934 0.38049 0.0
O483 O 0.84891 0.60129 0.38705 0.0
C484 C 0.75335 0.76492 0.0035 0.0
O485 O 0.75588 0.82909 0.97435 0.0
O486 O 0.80903 0.69804 0.59543 0.0
O487 O 0.80642 0.78759 0.33765 0.0
O488 O 0.79273 0.85698 0.19866 0.0
C489 C 0.81149 0.74803 0.67302 0.0
O490 O 0.82286 0.79868 0.63761 0.0
O491 O 0.84888 0.7143 0.39798 0.0
C492 C 0.80126 0.74934 0.79997 0.0
O493 O 0.78805 0.70264 0.8254 0.0
O494 O 0.80545 0.79332 0.88752 0.0
O495 O 0.81255 0.70796 0.14898 0.0
O496 O 0.81228 0.62604 0.28972 0.0
O497 O 0.76756 0.73125 0.05136 0.0
C498 C 0.7989 0.845 0.31539 0.0
C499 C 0.80952 0.64576 0.17206 0.0
Zn500 Zn 0.41845 0.53733 0.40977 0.0
Zn501 Zn 0.44358 0.46741 0.06748 0.0
C502 C 0.37947 0.58299 0.37988 0.0
O503 O 0.38888 0.64103 0.38583 0.0
C504 C 0.48449 0.48115 0.00264 0.0
O505 O 0.48245 0.41717 0.97034 0.0
O506 O 0.42886 0.54435 0.59373 0.0
O507 O 0.43135 0.45488 0.33591 0.0
O508 O 0.44506 0.38547 0.19705 0.0
C509 C 0.42643 0.4944 0.67149 0.0
O510 O 0.41501 0.44381 0.6366 0.0
O511 O 0.3889 0.52805 0.39738 0.0
C512 C 0.43669 0.49319 0.79827 0.0
O513 O 0.44983 0.5401 0.82365 0.0
O514 O 0.43253 0.44919 0.88588 0.0
O515 O 0.42497 0.53424 0.14688 0.0
O516 O 0.42553 0.61609 0.28794 0.0
O517 O 0.47002 0.51295 0.05189 0.0
C518 C 0.43884 0.39742 0.3137 0.0
C519 C 0.42817 0.59633 0.17014 0.0
Zn520 Zn 0.81927 0.53733 0.82326 0.0
Zn521 Zn 0.79414 0.46742 0.16558 0.0
C522 C 0.85825 0.58299 0.85303 0.0
O523 O 0.84885 0.64102 0.84702 0.0
C524 C 0.75322 0.48111 0.23017 0.0
O525 O 0.75524 0.41707 0.26208 0.0
O526 O 0.80886 0.54435 0.63931 0.0
O527 O 0.80637 0.45489 0.89713 0.0
O528 O 0.79265 0.38549 0.03599 0.0
C529 C 0.81129 0.4944 0.56155 0.0
O530 O 0.82271 0.44381 0.59645 0.0
O531 O 0.84883 0.52804 0.83561 0.0
C532 C 0.80103 0.49318 0.43478 0.0
O533 O 0.78789 0.54009 0.40941 0.0
O534 O 0.80519 0.44919 0.34717 0.0
O535 O 0.81275 0.53423 0.08615 0.0
O536 O 0.81221 0.6161 0.94508 0.0
O537 O 0.7677 0.51297 0.18122 0.0
C538 C 0.79888 0.39744 0.91934 0.0
C539 C 0.80957 0.59633 0.06287 0.0
Zn540 Zn 0.41837 0.70501 0.82189 0.0
Zn541 Zn 0.44354 0.77523 0.16439 0.0
C542 C 0.37941 0.65934 0.85244 0.0
O543 O 0.38881 0.60129 0.84583 0.0
C544 C 0.48438 0.76496 0.22925 0.0
O545 O 0.48187 0.82919 0.25796 0.0
O546 O 0.42868 0.69805 0.63761 0.0
O547 O 0.4313 0.78758 0.89539 0.0
O548 O 0.44499 0.85697 0.03438 0.0
C549 C 0.42622 0.74804 0.56002 0.0
O550 O 0.41485 0.79868 0.59542 0.0
O551 O 0.38884 0.7143 0.83501 0.0
C552 C 0.43646 0.74934 0.43307 0.0
O553 O 0.44967 0.70266 0.40766 0.0
O554 O 0.43227 0.79331 0.34551 0.0
O555 O 0.42517 0.70797 0.08406 0.0
O556 O 0.42543 0.62603 0.94329 0.0
O557 O 0.47016 0.73123 0.18175 0.0
C558 C 0.43882 0.84498 0.91766 0.0
C559 C 0.42819 0.64577 0.06095 0.0
Zn560 Zn 0.19354 0.22187 0.91418 0.0
Zn561 Zn 0.16838 0.2921 0.57171 0.0
C562 C 0.23437 0.23219 0.97934 0.0
O563 O 0.23184 0.16801 0.00845 0.0
C564 C 0.12941 0.33777 0.60236 0.0
O565 O 0.13881 0.39582 0.59579 0.0
O566 O 0.18227 0.2038 0.09532 0.0
O567 O 0.17518 0.28915 0.83386 0.0
O568 O 0.17544 0.37107 0.69312 0.0
C569 C 0.18646 0.24778 0.18287 0.0
O570 O 0.19967 0.29447 0.15745 0.0
O571 O 0.22016 0.26586 0.9315 0.0
C572 C 0.17623 0.24908 0.30982 0.0
O573 O 0.16486 0.19843 0.34524 0.0
O574 O 0.17869 0.29907 0.38741 0.0
O575 O 0.1813 0.20953 0.64519 0.0
O576 O 0.19499 0.14013 0.78419 0.0
O577 O 0.13884 0.28281 0.58487 0.0
C578 C 0.1782 0.35135 0.81078 0.0
C579 C 0.18882 0.15212 0.66746 0.0
Zn580 Zn 0.54414 0.52971 0.91536 0.0
Zn581 Zn 0.56926 0.45978 0.57308 0.0
C582 C 0.50323 0.51597 0.98019 0.0
O583 O 0.50526 0.57995 0.01249 0.0
C584 C 0.60824 0.41412 0.60297 0.0
O585 O 0.59884 0.35608 0.59703 0.0
O586 O 0.55518 0.54793 0.09697 0.0
O587 O 0.56275 0.46288 0.83597 0.0
O588 O 0.56219 0.38102 0.69491 0.0
C589 C 0.55103 0.50392 0.18457 0.0
O590 O 0.53789 0.45701 0.15917 0.0
O591 O 0.51769 0.48417 0.93094 0.0
C592 C 0.56128 0.50272 0.31136 0.0
O593 O 0.5727 0.5533 0.34625 0.0
O594 O 0.55885 0.45277 0.38912 0.0
O595 O 0.55637 0.54224 0.64693 0.0
O596 O 0.54266 0.61165 0.7858 0.0
O597 O 0.59882 0.46906 0.58546 0.0
C598 C 0.55955 0.40078 0.81272 0.0
C599 C 0.54888 0.59969 0.66914 0.0
Zn600 Zn 0.19358 0.5297 0.81726 0.0
Zn601 Zn 0.16845 0.45978 0.15959 0.0
C602 C 0.2345 0.516 0.75266 0.0
O603 O 0.23248 0.58004 0.72073 0.0
C604 C 0.12947 0.41413 0.12981 0.0
O605 O 0.13887 0.35609 0.13582 0.0
O606 O 0.18253 0.54793 0.63568 0.0
O607 O 0.17497 0.46288 0.89669 0.0
O608 O 0.17552 0.38101 0.03777 0.0
C609 C 0.18669 0.50393 0.54807 0.0
O610 O 0.19983 0.45702 0.57345 0.0
O611 O 0.22002 0.48415 0.80164 0.0
C612 C 0.17643 0.50272 0.42129 0.0
O613 O 0.16501 0.5533 0.3864 0.0
O614 O 0.17886 0.45277 0.34354 0.0
O615 O 0.18135 0.54223 0.08572 0.0
O616 O 0.19507 0.61163 0.94685 0.0
O617 O 0.1389 0.46907 0.14724 0.0
C618 C 0.17815 0.40078 0.91997 0.0
C619 C 0.18884 0.59968 0.06351 0.0
Zn620 Zn 0.54418 0.22189 0.81845 0.0
Zn621 Zn 0.56935 0.2921 0.16096 0.0
C622 C 0.50334 0.23216 0.75357 0.0
O623 O 0.50585 0.16792 0.72487 0.0
C624 C 0.60831 0.33777 0.13041 0.0
O625 O 0.59892 0.39582 0.13703 0.0
O626 O 0.55545 0.2038 0.63733 0.0
O627 O 0.56255 0.28915 0.8988 0.0
O628 O 0.5623 0.37109 0.03956 0.0
C629 C 0.55127 0.24777 0.54977 0.0
O630 O 0.53805 0.29445 0.57517 0.0
O631 O 0.51756 0.26589 0.80108 0.0
C632 C 0.5615 0.24908 0.42283 0.0
O633 O 0.57287 0.19843 0.38742 0.0
O634 O 0.55904 0.29907 0.34524 0.0
O635 O 0.55642 0.20954 0.08745 0.0
O636 O 0.54273 0.14015 0.94846 0.0
O637 O 0.59889 0.28281 0.14783 0.0
C638 C 0.55954 0.35135 0.92191 0.0
C639 C 0.5489 0.15213 0.06519 0.0
loop_
_geom_bond_atom_site_label_1
_geom_bond_atom_site_label_2
_geom_bond_distance
_geom_bond_site_symmetry_2
_ccdc_geom_bond_type
Zn0 O6 1.969 . S
Zn0 O7 1.965 . S
Zn0 O11 2.024 . S
Zn0 O16 1.969 . S
Zn1 O8 1.969 . S
Zn1 O14 1.969 1_554 S
Zn1 O15 1.965 . S
Zn1 O17 2.024 . S
C2 O3 1.229 . S
C2 O11 1.058 . S
O3 C2 1.229 . S
C4 O5 1.229 1_554 S
C4 O17 1.058 . S
O5 C4 1.229 1_556 S
O6 Zn0 1.969 . S
O6 C9 1.267 . S
O7 Zn0 1.965 . S
O7 C18 1.260 . S
O8 Zn1 1.969 . S
O8 C18 1.258 . S
C9 O6 1.267 . S
C9 O10 1.228 . S
O10 C9 1.228 . S
O11 Zn0 2.024 . S
O11 C2 1.058 . S
C12 O13 1.228 . S
C12 O14 1.267 . S
O13 C12 1.228 . S
O14 Zn1 1.969 1_556 S
O14 C12 1.267 . S
O15 Zn1 1.965 . S
O15 C19 1.260 . S
O16 Zn0 1.969 . S
O16 C19 1.258 . S
O17 Zn1 2.024 . S
O17 C4 1.058 . S
C18 O7 1.260 . S
C18 O8 1.258 . S
C19 O15 1.260 . S
C19 O16 1.258 . S
Zn20 O26 1.969 . S
Zn20 O27 1.965 1_545 S
Zn20 O31 2.024 1_545 S
Zn20 O36 1.969 . S
Zn21 O28 1.969 . S
Zn21 O34 1.969 1_554 S
Zn21 O35 1.965 1_565 S
Zn21 O37 2.024 1_565 S
C22 O23 1.229 . S
C22 O31 1.058 1_545 S
O23 C22 1.229 . S
C24 O25 1.229 1_554 S
C24 O37 1.058 1_565 S
O25 C24 1.229 1_556 S
O26 Zn20 1.969 . S
O26 C29 1.267 . S
O27 Zn20 1.965 1_565 S
O27 C38 1.260 . S
O28 Zn21 1.969 . S
O28 C38 1.258 . S
C29 O26 1.267 . S
C29 O30 1.228 1_545 S
O30 C29 1.228 1_565 S
O31 Zn20 2.024 1_565 S
O31 C22 1.058 1_565 S
C32 O33 1.228 1_565 S
C32 O34 1.267 . S
O33 C32 1.228 1_545 S
O34 Zn21 1.969 1_556 S
O34 C32 1.267 . S
O35 Zn21 1.965 1_545 S
O35 C39 1.260 . S
O36 Zn20 1.969 . S
O36 C39 1.258 . S
O37 Zn21 2.024 1_545 S
O37 C24 1.058 1_545 S
C38 O27 1.260 . S
C38 O28 1.258 . S
C39 O35 1.260 . S
C39 O36 1.258 . S
Zn40 O46 1.969 . S
Zn40 O47 1.965 1_545 S
Zn40 O51 2.024 1_545 S
Zn40 O56 1.969 . S
Zn41 O48 1.969 . S
Zn41 O54 1.969 . S
Zn41 O55 1.965 1_565 S
Zn41 O57 2.024 1_565 S
C42 O43 1.229 . S
C42 O51 1.058 1_545 S
O43 C42 1.229 . S
C44 O45 1.229 . S
C44 O57 1.058 1_565 S
O45 C44 1.229 . S
O46 Zn40 1.969 . S
O46 C49 1.267 . S
O47 Zn40 1.965 1_565 S
O47 C58 1.260 . S
O48 Zn41 1.969 . S
O48 C58 1.258 1_554 S
C49 O46 1.267 . S
C49 O50 1.228 1_545 S
O50 C49 1.228 1_565 S
O51 Zn40 2.024 1_565 S
O51 C42 1.058 1_565 S
C52 O53 1.228 1_565 S
C52 O54 1.267 . S
O53 C52 1.228 1_545 S
O54 Zn41 1.969 . S
O54 C52 1.267 . S
O55 Zn41 1.965 1_545 S
O55 C59 1.260 . S
O56 Zn40 1.969 . S
O56 C59 1.258 1_556 S
O57 Zn41 2.024 1_545 S
O57 C44 1.058 1_545 S
C58 O47 1.260 . S
C58 O48 1.258 1_556 S
C59 O55 1.260 . S
C59 O56 1.258 1_554 S
Zn60 O66 1.969 . S
Zn60 O67 1.965 . S
Zn60 O71 2.024 . S
Zn60 O76 1.969 . S
Zn61 O68 1.969 . S
Zn61 O74 1.969 . S
Zn61 O75 1.965 . S
Zn61 O77 2.024 . S
C62 O63 1.229 . S
C62 O71 1.058 . S
O63 C62 1.229 . S
C64 O65 1.229 . S
C64 O77 1.058 . S
O65 C64 1.229 . S
O66 Zn60 1.969 . S
O66 C69 1.267 . S
O67 Zn60 1.965 . S
O67 C78 1.260 . S
O68 Zn61 1.969 . S
O68 C78 1.258 1_554 S
C69 O66 1.267 . S
C69 O70 1.228 . S
O70 C69 1.228 . S
O71 Zn60 2.024 . S
O71 C62 1.058 . S
C72 O73 1.228 . S
C72 O74 1.267 . S
O73 C72 1.228 . S
O74 Zn61 1.969 . S
O74 C72 1.267 . S
O75 Zn61 1.965 . S
O75 C79 1.260 . S
O76 Zn60 1.969 . S
O76 C79 1.258 1_556 S
O77 Zn61 2.024 . S
O77 C64 1.058 . S
C78 O67 1.260 . S
C78 O68 1.258 1_556 S
C79 O75 1.260 . S
C79 O76 1.258 1_554 S
Zn80 O86 1.969 1_556 S
Zn80 O87 1.965 . S
Zn80 O91 2.024 . S
Zn80 O96 1.969 . S
Zn81 O88 1.969 . S
Zn81 O94 1.969 . S
Zn81 O95 1.965 . S
Zn81 O97 2.024 . S
C82 O83 1.229 1_556 S
C82 O91 1.058 . S
O83 C82 1.229 1_554 S
C84 O85 1.229 . S
C84 O97 1.058 . S
O85 C84 1.229 . S
O86 Zn80 1.969 1_554 S
O86 C89 1.267 . S
O87 Zn80 1.965 . S
O87 C98 1.260 . S
O88 Zn81 1.969 . S
O88 C98 1.258 . S
C89 O86 1.267 . S
C89 O90 1.228 . S
O90 C89 1.228 . S
O91 Zn80 2.024 . S
O91 C82 1.058 . S
C92 O93 1.228 . S
C92 O94 1.267 . S
O93 C92 1.228 . S
O94 Zn81 1.969 . S
O94 C92 1.267 . S
O95 Zn81 1.965 . S
O95 C99 1.260 . S
O96 Zn80 1.969 . S
O96 C99 1.258 . S
O97 Zn81 2.024 . S
O97 C84 1.058 . S
C98 O87 1.260 . S
C98 O88 1.258 . S
C99 O95 1.260 . S
C99 O96 1.258 . S
Zn100 O106 1.969 1_556 S
Zn100 O107 1.965 1_545 S
Zn100 O111 2.024 1_545 S
Zn100 O116 1.969 . S
Zn101 O108 1.969 . S
Zn101 O114 1.969 . S
Zn101 O115 1.965 1_565 S
Zn101 O117 2.024 1_565 S
C102 O103 1.229 1_556 S
C102 O111 1.058 1_545 S
O103 C102 1.229 1_554 S
C104 O105 1.229 . S
C104 O117 1.058 1_565 S
O105 C104 1.229 . S
O106 Zn100 1.969 1_554 S
O106 C109 1.267 . S
O107 Zn100 1.965 1_565 S
O107 C118 1.260 . S
O108 Zn101 1.969 . S
O108 C118 1.258 . S
C109 O106 1.267 . S
C109 O110 1.228 1_545 S
O110 C109 1.228 1_565 S
O111 Zn100 2.024 1_565 S
O111 C102 1.058 1_565 S
C112 O113 1.228 1_565 S
C112 O114 1.267 . S
O113 C112 1.228 1_545 S
O114 Zn101 1.969 . S
O114 C112 1.267 . S
O115 Zn101 1.965 1_545 S
O115 C119 1.260 . S
O116 Zn100 1.969 . S
O116 C119 1.258 . S
O117 Zn101 2.024 1_545 S
O117 C104 1.058 1_545 S
C118 O107 1.260 . S
C118 O108 1.258 . S
C119 O115 1.260 . S
C119 O116 1.258 . S
Zn120 O126 1.969 . S
Zn120 O127 1.965 1_545 S
Zn120 O131 2.024 1_545 S
Zn120 O136 1.969 . S
Zn121 O128 1.969 . S
Zn121 O134 1.969 . S
Zn121 O135 1.965 1_565 S
Zn121 O137 2.024 1_565 S
C122 O123 1.229 . S
C122 O131 1.058 1_545 S
O123 C122 1.229 . S
C124 O125 1.229 . S
C124 O137 1.058 1_565 S
O125 C124 1.229 . S
O126 Zn120 1.969 . S
O126 C129 1.267 . S
O127 Zn120 1.965 1_565 S
O127 C138 1.260 . S
O128 Zn121 1.969 . S
O128 C138 1.258 1_554 S
C129 O126 1.267 . S
C129 O130 1.228 1_545 S
O130 C129 1.228 1_565 S
O131 Zn120 2.024 1_565 S
O131 C122 1.058 1_565 S
C132 O133 1.228 1_565 S
C132 O134 1.267 . S
O133 C132 1.228 1_545 S
O134 Zn121 1.969 . S
O134 C132 1.267 . S
O135 Zn121 1.965 1_545 S
O135 C139 1.260 . S
O136 Zn120 1.969 . S
O136 C139 1.258 1_556 S
O137 Zn121 2.024 1_545 S
O137 C124 1.058 1_545 S
C138 O127 1.260 . S
C138 O128 1.258 1_556 S
C139 O135 1.260 . S
C139 O136 1.258 1_554 S
Zn140 O146 1.969 . S
Zn140 O147 1.965 . S
Zn140 O151 2.024 . S
Zn140 O156 1.969 . S
Zn141 O148 1.969 . S
Zn141 O154 1.969 . S
Zn141 O155 1.965 . S
Zn141 O157 2.024 . S
C142 O143 1.229 . S
C142 O151 1.058 . S
O143 C142 1.229 . S
C144 O145 1.229 . S
C144 O157 1.058 . S
O145 C144 1.229 . S
O146 Zn140 1.969 . S
O146 C149 1.267 . S
O147 Zn140 1.965 . S
O147 C158 1.260 . S
O148 Zn141 1.969 . S
O148 C158 1.258 1_554 S
C149 O146 1.267 . S
C149 O150 1.228 . S
O150 C149 1.228 . S
O151 Zn140 2.024 . S
O151 C142 1.058 . S
C152 O153 1.228 . S
C152 O154 1.267 . S
O153 C152 1.228 . S
O154 Zn141 1.969 . S
O154 C152 1.267 . S
O155 Zn141 1.965 . S
O155 C159 1.260 . S
O156 Zn140 1.969 . S
O156 C159 1.258 1_556 S
O157 Zn141 2.024 . S
O157 C144 1.058 . S
C158 O147 1.260 . S
C158 O148 1.258 1_556 S
C159 O155 1.260 . S
C159 O156 1.258 1_554 S
Zn160 O166 1.969 1_556 S
Zn160 O167 1.965 . S
Zn160 O171 2.024 . S
Zn160 O176 1.969 . S
Zn161 O168 1.969 . S
Zn161 O174 1.969 . S
Zn161 O175 1.965 . S
Zn161 O177 2.024 . S
C162 O163 1.229 . S
C162 O171 1.058 . S
O163 C162 1.229 . S
C164 O165 1.229 . S
C164 O177 1.058 . S
O165 C164 1.229 . S
O166 Zn160 1.969 1_554 S
O166 C169 1.267 . S
O167 Zn160 1.965 . S
O167 C178 1.260 . S
O168 Zn161 1.969 . S
O168 C178 1.258 . S
C169 O166 1.267 . S
C169 O170 1.228 . S
O170 C169 1.228 . S
O171 Zn160 2.024 . S
O171 C162 1.058 . S
C172 O173 1.228 . S
C172 O174 1.267 . S
O173 C172 1.228 . S
O174 Zn161 1.969 . S
O174 C172 1.267 . S
O175 Zn161 1.965 . S
O175 C179 1.260 . S
O176 Zn160 1.969 . S
O176 C179 1.258 . S
O177 Zn161 2.024 . S
O177 C164 1.058 . S
C178 O167 1.260 . S
C178 O168 1.258 . S
C179 O175 1.260 . S
C179 O176 1.258 . S
Zn180 O186 1.969 1_556 S
Zn180 O187 1.965 . S
Zn180 O191 2.024 . S
Zn180 O196 1.969 . S
Zn181 O188 1.969 . S
Zn181 O194 1.969 . S
Zn181 O195 1.965 . S
Zn181 O197 2.024 . S
C182 O183 1.229 . S
C182 O191 1.058 . S
O183 C182 1.229 . S
C184 O185 1.229 . S
C184 O197 1.058 . S
O185 C184 1.229 . S
O186 Zn180 1.969 1_554 S
O186 C189 1.267 . S
O187 Zn180 1.965 . S
O187 C198 1.260 . S
O188 Zn181 1.969 . S
O188 C198 1.258 . S
C189 O186 1.267 . S
C189 O190 1.228 . S
O190 C189 1.228 . S
O191 Zn180 2.024 . S
O191 C182 1.058 . S
C192 O193 1.228 . S
C192 O194 1.267 . S
O193 C192 1.228 . S
O194 Zn181 1.969 . S
O194 C192 1.267 . S
O195 Zn181 1.965 . S
O195 C199 1.260 . S
O196 Zn180 1.969 . S
O196 C199 1.258 . S
O197 Zn181 2.024 . S
O197 C184 1.058 . S
C198 O187 1.260 . S
C198 O188 1.258 . S
C199 O195 1.260 . S
C199 O196 1.258 . S
Zn200 O206 1.969 . S
Zn200 O207 1.965 . S
Zn200 O211 2.024 . S
Zn200 O216 1.969 . S
Zn201 O208 1.969 . S
Zn201 O214 1.969 . S
Zn201 O215 1.965 . S
Zn201 O217 2.024 . S
C202 O203 1.229 . S
C202 O211 1.058 . S
O203 C202 1.229 . S
C204 O205 1.229 . S
C204 O217 1.058 . S
O205 C204 1.229 . S
O206 Zn200 1.969 . S
O206 C209 1.267 . S
O207 Zn200 1.965 . S
O207 C218 1.260 . S
O208 Zn201 1.969 . S
O208 C218 1.258 . S
C209 O206 1.267 . S
C209 O210 1.228 . S
O210 C209 1.228 . S
O211 Zn200 2.024 . S
O211 C202 1.058 . S
C212 O213 1.228 . S
C212 O214 1.267 . S
O213 C212 1.228 . S
O214 Zn201 1.969 . S
O214 C212 1.267 . S
O215 Zn201 1.965 . S
O215 C219 1.260 . S
O216 Zn200 1.969 . S
O216 C219 1.258 . S
O217 Zn201 2.024 . S
O217 C204 1.058 . S
C218 O207 1.260 . S
C218 O208 1.258 . S
C219 O215 1.260 . S
C219 O216 1.258 . S
Zn220 O226 1.969 . S
Zn220 O227 1.965 . S
Zn220 O231 2.024 . S
Zn220 O236 1.969 . S
Zn221 O228 1.969 . S
Zn221 O234 1.969 . S
Zn221 O235 1.965 . S
Zn221 O237 2.024 . S
C222 O223 1.229 . S
C222 O231 1.058 . S
O223 C222 1.229 . S
C224 O225 1.229 . S
C224 O237 1.058 . S
O225 C224 1.229 . S
O226 Zn220 1.969 . S
O226 C229 1.267 . S
O227 Zn220 1.965 . S
O227 C238 1.260 . S
O228 Zn221 1.969 . S
O228 C238 1.258 . S
C229 O226 1.267 . S
C229 O230 1.228 . S
O230 C229 1.228 . S
O231 Zn220 2.024 . S
O231 C222 1.058 . S
C232 O233 1.228 . S
C232 O234 1.267 . S
O233 C232 1.228 . S
O234 Zn221 1.969 . S
O234 C232 1.267 . S
O235 Zn221 1.965 . S
O235 C239 1.260 . S
O236 Zn220 1.969 . S
O236 C239 1.258 . S
O237 Zn221 2.024 . S
O237 C224 1.058 . S
C238 O227 1.260 . S
C238 O228 1.258 . S
C239 O235 1.260 . S
C239 O236 1.258 . S
Zn240 O246 1.969 . S
Zn240 O247 1.965 . S
Zn240 O251 2.024 . S
Zn240 O256 1.969 . S
Zn241 O248 1.969 . S
Zn241 O254 1.969 1_554 S
Zn241 O255 1.965 . S
Zn241 O257 2.024 . S
C242 O243 1.229 . S
C242 O251 1.058 . S
O243 C242 1.229 . S
C244 O245 1.229 . S
C244 O257 1.058 . S
O245 C244 1.229 . S
O246 Zn240 1.969 . S
O246 C249 1.267 . S
O247 Zn240 1.965 . S
O247 C258 1.260 . S
O248 Zn241 1.969 . S
O248 C258 1.258 . S
C249 O246 1.267 . S
C249 O250 1.228 . S
O250 C249 1.228 . S
O251 Zn240 2.024 . S
O251 C242 1.058 . S
C252 O253 1.228 . S
C252 O254 1.267 . S
O253 C252 1.228 . S
O254 Zn241 1.969 1_556 S
O254 C252 1.267 . S
O255 Zn241 1.965 . S
O255 C259 1.260 . S
O256 Zn240 1.969 . S
O256 C259 1.258 . S
O257 Zn241 2.024 . S
O257 C244 1.058 . S
C258 O247 1.260 . S
C258 O248 1.258 . S
C259 O255 1.260 . S
C259 O256 1.258 . S
Zn260 O266 1.969 . S
Zn260 O267 1.965 . S
Zn260 O271 2.024 . S
Zn260 O276 1.969 . S
Zn261 O268 1.969 . S
Zn261 O274 1.969 1_554 S
Zn261 O275 1.965 . S
Zn261 O277 2.024 . S
C262 O263 1.229 . S
C262 O271 1.058 . S
O263 C262 1.229 . S
C264 O265 1.229 . S
C264 O277 1.058 . S
O265 C264 1.229 . S
O266 Zn260 1.969 . S
O266 C269 1.267 . S
O267 Zn260 1.965 . S
O267 C278 1.260 . S
O268 Zn261 1.969 . S
O268 C278 1.258 . S
C269 O266 1.267 . S
C269 O270 1.228 . S
O270 C269 1.228 . S
O271 Zn260 2.024 . S
O271 C262 1.058 . S
C272 O273 1.228 . S
C272 O274 1.267 . S
O273 C272 1.228 . S
O274 Zn261 1.969 1_556 S
O274 C272 1.267 . S
O275 Zn261 1.965 . S
O275 C279 1.260 . S
O276 Zn260 1.969 . S
O276 C279 1.258 . S
O277 Zn261 2.024 . S
O277 C264 1.058 . S
C278 O267 1.260 . S
C278 O268 1.258 . S
C279 O275 1.260 . S
C279 O276 1.258 . S
Zn280 O286 1.969 . S
Zn280 O287 1.965 . S
Zn280 O291 2.024 . S
Zn280 O296 1.969 . S
Zn281 O288 1.969 . S
Zn281 O294 1.969 . S
Zn281 O295 1.965 . S
Zn281 O297 2.024 . S
C282 O283 1.229 . S
C282 O291 1.058 . S
O283 C282 1.229 . S
C284 O285 1.229 . S
C284 O297 1.058 . S
O285 C284 1.229 . S
O286 Zn280 1.969 . S
O286 C289 1.267 . S
O287 Zn280 1.965 . S
O287 C298 1.260 . S
O288 Zn281 1.969 . S
O288 C298 1.258 . S
C289 O286 1.267 . S
C289 O290 1.228 . S
O290 C289 1.228 . S
O291 Zn280 2.024 . S
O291 C282 1.058 . S
C292 O293 1.228 . S
C292 O294 1.267 . S
O293 C292 1.228 . S
O294 Zn281 1.969 . S
O294 C292 1.267 . S
O295 Zn281 1.965 . S
O295 C299 1.260 . S
O296 Zn280 1.969 . S
O296 C299 1.258 . S
O297 Zn281 2.024 . S
O297 C284 1.058 . S
C298 O287 1.260 . S
C298 O288 1.258 . S
C299 O295 1.260 . S
C299 O296 1.258 . S
Zn300 O306 1.969 . S
Zn300 O307 1.965 . S
Zn300 O311 2.024 . S
Zn300 O316 1.969 . S
Zn301 O308 1.969 . S
Zn301 O314 1.969 . S
Zn301 O315 1.965 . S
Zn301 O317 2.024 . S
C302 O303 1.229 . S
C302 O311 1.058 . S
O303 C302 1.229 . S
C304 O305 1.229 . S
C304 O317 1.058 . S
O305 C304 1.229 . S
O306 Zn300 1.969 . S
O306 C309 1.267 . S
O307 Zn300 1.965 . S
O307 C318 1.260 . S
O308 Zn301 1.969 . S
O308 C318 1.258 . S
C309 O306 1.267 . S
C309 O310 1.228 . S
O310 C309 1.228 . S
O311 Zn300 2.024 . S
O311 C302 1.058 . S
C312 O313 1.228 . S
C312 O314 1.267 . S
O313 C312 1.228 . S
O314 Zn301 1.969 . S
O314 C312 1.267 . S
O315 Zn301 1.965 . S
O315 C319 1.260 . S
O316 Zn300 1.969 . S
O316 C319 1.258 . S
O317 Zn301 2.024 . S
O317 C304 1.058 . S
C318 O307 1.260 . S
C318 O308 1.258 . S
C319 O315 1.260 . S
C319 O316 1.258 . S
Zn320 O326 1.969 1_556 S
Zn320 O327 1.965 . S
Zn320 O331 2.024 . S
Zn320 O336 1.969 . S
Zn321 O328 1.969 . S
Zn321 O334 1.969 . S
Zn321 O335 1.965 . S
Zn321 O337 2.024 . S
C322 O323 1.229 . S
C322 O331 1.058 . S
O323 C322 1.229 . S
C324 O325 1.229 . S
C324 O337 1.058 . S
O325 C324 1.229 . S
O326 Zn320 1.969 1_554 S
O326 C329 1.267 . S
O327 Zn320 1.965 . S
O327 C338 1.260 . S
O328 Zn321 1.969 . S
O328 C338 1.258 . S
C329 O326 1.267 . S
C329 O330 1.228 . S
O330 C329 1.228 . S
O331 Zn320 2.024 . S
O331 C322 1.058 . S
C332 O333 1.228 . S
C332 O334 1.267 . S
O333 C332 1.228 . S
O334 Zn321 1.969 . S
O334 C332 1.267 . S
O335 Zn321 1.965 . S
O335 C339 1.260 . S
O336 Zn320 1.969 . S
O336 C339 1.258 . S
O337 Zn321 2.024 . S
O337 C324 1.058 . S
C338 O327 1.260 . S
C338 O328 1.258 . S
C339 O335 1.260 . S
C339 O336 1.258 . S
Zn340 O346 1.969 1_556 S
Zn340 O347 1.965 1_545 S
Zn340 O351 2.024 1_545 S
Zn340 O356 1.969 . S
Zn341 O348 1.969 . S
Zn341 O354 1.969 . S
Zn341 O355 1.965 1_565 S
Zn341 O357 2.024 1_565 S
C342 O343 1.229 . S
C342 O351 1.058 1_545 S
O343 C342 1.229 . S
C344 O345 1.229 . S
C344 O357 1.058 1_565 S
O345 C344 1.229 . S
O346 Zn340 1.969 1_554 S
O346 C349 1.267 . S
O347 Zn340 1.965 1_565 S
O347 C358 1.260 . S
O348 Zn341 1.969 . S
O348 C358 1.258 . S
C349 O346 1.267 . S
C349 O350 1.228 1_545 S
O350 C349 1.228 1_565 S
O351 Zn340 2.024 1_565 S
O351 C342 1.058 1_565 S
C352 O353 1.228 1_565 S
C352 O354 1.267 . S
O353 C352 1.228 1_545 S
O354 Zn341 1.969 . S
O354 C352 1.267 . S
O355 Zn341 1.965 1_545 S
O355 C359 1.260 . S
O356 Zn340 1.969 . S
O356 C359 1.258 . S
O357 Zn341 2.024 1_545 S
O357 C344 1.058 1_545 S
C358 O347 1.260 . S
C358 O348 1.258 . S
C359 O355 1.260 . S
C359 O356 1.258 . S
Zn360 O366 1.969 . S
Zn360 O367 1.965 1_545 S
Zn360 O371 2.024 1_545 S
Zn360 O376 1.969 . S
Zn361 O368 1.969 . S
Zn361 O374 1.969 . S
Zn361 O375 1.965 1_565 S
Zn361 O377 2.024 1_565 S
C362 O363 1.229 . S
C362 O371 1.058 1_545 S
O363 C362 1.229 . S
C364 O365 1.229 . S
C364 O377 1.058 1_565 S
O365 C364 1.229 . S
O366 Zn360 1.969 . S
O366 C369 1.267 . S
O367 Zn360 1.965 1_565 S
O367 C378 1.260 . S
O368 Zn361 1.969 . S
O368 C378 1.258 . S
C369 O366 1.267 . S
C369 O370 1.228 1_545 S
O370 C369 1.228 1_565 S
O371 Zn360 2.024 1_565 S
O371 C362 1.058 1_565 S
C372 O373 1.228 1_565 S
C372 O374 1.267 . S
O373 C372 1.228 1_545 S
O374 Zn361 1.969 . S
O374 C372 1.267 . S
O375 Zn361 1.965 1_545 S
O375 C379 1.260 . S
O376 Zn360 1.969 . S
O376 C379 1.258 . S
O377 Zn361 2.024 1_545 S
O377 C364 1.058 1_545 S
C378 O367 1.260 . S
C378 O368 1.258 . S
C379 O375 1.260 . S
C379 O376 1.258 . S
Zn380 O386 1.969 . S
Zn380 O387 1.965 . S
Zn380 O391 2.024 . S
Zn380 O396 1.969 . S
Zn381 O388 1.969 . S
Zn381 O394 1.969 . S
Zn381 O395 1.965 . S
Zn381 O397 2.024 . S
C382 O383 1.229 . S
C382 O391 1.058 . S
O383 C382 1.229 . S
C384 O385 1.229 . S
C384 O397 1.058 . S
O385 C384 1.229 . S
O386 Zn380 1.969 . S
O386 C389 1.267 . S
O387 Zn380 1.965 . S
O387 C398 1.260 . S
O388 Zn381 1.969 . S
O388 C398 1.258 . S
C389 O386 1.267 . S
C389 O390 1.228 . S
O390 C389 1.228 . S
O391 Zn380 2.024 . S
O391 C382 1.058 . S
C392 O393 1.228 . S
C392 O394 1.267 . S
O393 C392 1.228 . S
O394 Zn381 1.969 . S
O394 C392 1.267 . S
O395 Zn381 1.965 . S
O395 C399 1.260 . S
O396 Zn380 1.969 . S
O396 C399 1.258 . S
O397 Zn381 2.024 . S
O397 C384 1.058 . S
C398 O387 1.260 . S
C398 O388 1.258 . S
C399 O395 1.260 . S
C399 O396 1.258 . S
Zn400 O406 1.969 . S
Zn400 O407 1.965 . S
Zn400 O411 2.024 . S
Zn400 O416 1.969 . S
Zn401 O408 1.969 . S
Zn401 O414 1.969 1_554 S
Zn401 O415 1.965 . S
Zn401 O417 2.024 . S
C402 O403 1.229 . S
C402 O411 1.058 . S
O403 C402 1.229 . S
C404 O405 1.229 . S
C404 O417 1.058 . S
O405 C404 1.229 . S
O406 Zn400 1.969 . S
O406 C409 1.267 . S
O407 Zn400 1.965 . S
O407 C418 1.260 . S
O408 Zn401 1.969 . S
O408 C418 1.258 . S
C409 O406 1.267 . S
C409 O410 1.228 . S
O410 C409 1.228 . S
O411 Zn400 2.024 . S
O411 C402 1.058 . S
C412 O413 1.228 . S
C412 O414 1.267 . S
O413 C412 1.228 . S
O414 Zn401 1.969 1_556 S
O414 C412 1.267 . S
O415 Zn401 1.965 . S
O415 C419 1.260 . S
O416 Zn400 1.969 . S
O416 C419 1.258 . S
O417 Zn401 2.024 . S
O417 C404 1.058 . S
C418 O407 1.260 . S
C418 O408 1.258 . S
C419 O415 1.260 . S
C419 O416 1.258 . S
Zn420 O426 1.969 . S
Zn420 O427 1.965 1_545 S
Zn420 O431 2.024 1_545 S
Zn420 O436 1.969 . S
Zn421 O428 1.969 . S
Zn421 O434 1.969 1_554 S
Zn421 O435 1.965 1_565 S
Zn421 O437 2.024 1_565 S
C422 O423 1.229 . S
C422 O431 1.058 1_545 S
O423 C422 1.229 . S
C424 O425 1.229 . S
C424 O437 1.058 1_565 S
O425 C424 1.229 . S
O426 Zn420 1.969 . S
O426 C429 1.267 . S
O427 Zn420 1.965 1_565 S
O427 C438 1.260 . S
O428 Zn421 1.969 . S
O428 C438 1.258 . S
C429 O426 1.267 . S
C429 O430 1.228 1_545 S
O430 C429 1.228 1_565 S
O431 Zn420 2.024 1_565 S
O431 C422 1.058 1_565 S
C432 O433 1.228 1_565 S
C432 O434 1.267 . S
O433 C432 1.228 1_545 S
O434 Zn421 1.969 1_556 S
O434 C432 1.267 . S
O435 Zn421 1.965 1_545 S
O435 C439 1.260 . S
O436 Zn420 1.969 . S
O436 C439 1.258 . S
O437 Zn421 2.024 1_545 S
O437 C424 1.058 1_545 S
C438 O427 1.260 . S
C438 O428 1.258 . S
C439 O435 1.260 . S
C439 O436 1.258 . S
Zn440 O446 1.969 . S
Zn440 O447 1.965 1_545 S
Zn440 O451 2.024 1_545 S
Zn440 O456 1.969 . S
Zn441 O448 1.969 . S
Zn441 O454 1.969 . S
Zn441 O455 1.965 1_565 S
Zn441 O457 2.024 1_565 S
C442 O443 1.229 . S
C442 O451 1.058 1_545 S
O443 C442 1.229 . S
C444 O445 1.229 . S
C444 O457 1.058 1_565 S
O445 C444 1.229 . S
O446 Zn440 1.969 . S
O446 C449 1.267 . S
O447 Zn440 1.965 1_565 S
O447 C458 1.260 . S
O448 Zn441 1.969 . S
O448 C458 1.258 . S
C449 O446 1.267 . S
C449 O450 1.228 1_545 S
O450 C449 1.228 1_565 S
O451 Zn440 2.024 1_565 S
O451 C442 1.058 1_565 S
C452 O453 1.228 1_565 S
C452 O454 1.267 . S
O453 C452 1.228 1_545 S
O454 Zn441 1.969 . S
O454 C452 1.267 . S
O455 Zn441 1.965 1_545 S
O455 C459 1.260 . S
O456 Zn440 1.969 . S
O456 C459 1.258 . S
O457 Zn441 2.024 1_545 S
O457 C444 1.058 1_545 S
C458 O447 1.260 . S
C458 O448 1.258 . S
C459 O455 1.260 . S
C459 O456 1.258 . S
Zn460 O466 1.969 . S
Zn460 O467 1.965 . S
Zn460 O471 2.024 . S
Zn460 O476 1.969 . S
Zn461 O468 1.969 . S
Zn461 O474 1.969 . S
Zn461 O475 1.965 . S
Zn461 O477 2.024 . S
C462 O463 1.229 . S
C462 O471 1.058 . S
O463 C462 1.229 . S
C464 O465 1.229 . S
C464 O477 1.058 . S
O465 C464 1.229 . S
O466 Zn460 1.969 . S
O466 C469 1.267 . S
O467 Zn460 1.965 . S
O467 C478 1.260 . S
O468 Zn461 1.969 . S
O468 C478 1.258 . S
C469 O466 1.267 . S
C469 O470 1.228 . S
O470 C469 1.228 . S
O471 Zn460 2.024 . S
O471 C462 1.058 . S
C472 O473 1.228 . S
C472 O474 1.267 . S
O473 C472 1.228 . S
O474 Zn461 1.969 . S
O474 C472 1.267 . S
O475 Zn461 1.965 . S
O475 C479 1.260 . S
O476 Zn460 1.969 . S
O476 C479 1.258 . S
O477 Zn461 2.024 . S
O477 C464 1.058 . S
C478 O467 1.260 . S
C478 O468 1.258 . S
C479 O475 1.260 . S
C479 O476 1.258 . S
Zn480 O486 1.969 . S
Zn480 O487 1.965 . S
Zn480 O491 2.024 . S
Zn480 O496 1.969 . S
Zn481 O488 1.969 . S
Zn481 O494 1.969 1_554 S
Zn481 O495 1.965 . S
Zn481 O497 2.024 . S
C482 O483 1.229 . S
C482 O491 1.058 . S
O483 C482 1.229 . S
C484 O485 1.229 1_554 S
C484 O497 1.058 . S
O485 C484 1.229 1_556 S
O486 Zn480 1.969 . S
O486 C489 1.267 . S
O487 Zn480 1.965 . S
O487 C498 1.260 . S
O488 Zn481 1.969 . S
O488 C498 1.258 . S
C489 O486 1.267 . S
C489 O490 1.228 . S
O490 C489 1.228 . S
O491 Zn480 2.024 . S
O491 C482 1.058 . S
C492 O493 1.228 . S
C492 O494 1.267 . S
O493 C492 1.228 . S
O494 Zn481 1.969 1_556 S
O494 C492 1.267 . S
O495 Zn481 1.965 . S
O495 C499 1.260 . S
O496 Zn480 1.969 . S
O496 C499 1.258 . S
O497 Zn481 2.024 . S
O497 C484 1.058 . S
C498 O487 1.260 . S
C498 O488 1.258 . S
C499 O495 1.260 . S
C499 O496 1.258 . S
Zn500 O506 1.969 . S
Zn500 O507 1.965 . S
Zn500 O511 2.024 . S
Zn500 O516 1.969 . S
Zn501 O508 1.969 . S
Zn501 O514 1.969 1_554 S
Zn501 O515 1.965 . S
Zn501 O517 2.024 . S
C502 O503 1.229 . S
C502 O511 1.058 . S
O503 C502 1.229 . S
C504 O505 1.229 1_554 S
C504 O517 1.058 . S
O505 C504 1.229 1_556 S
O506 Zn500 1.969 . S
O506 C509 1.267 . S
O507 Zn500 1.965 . S
O507 C518 1.260 . S
O508 Zn501 1.969 . S
O508 C518 1.258 . S
C509 O506 1.267 . S
C509 O510 1.228 . S
O510 C509 1.228 . S
O511 Zn500 2.024 . S
O511 C502 1.058 . S
C512 O513 1.228 . S
C512 O514 1.267 . S
O513 C512 1.228 . S
O514 Zn501 1.969 1_556 S
O514 C512 1.267 . S
O515 Zn501 1.965 . S
O515 C519 1.260 . S
O516 Zn500 1.969 . S
O516 C519 1.258 . S
O517 Zn501 2.024 . S
O517 C504 1.058 . S
C518 O507 1.260 . S
C518 O508 1.258 . S
C519 O515 1.260 . S
C519 O516 1.258 . S
Zn520 O526 1.969 . S
Zn520 O527 1.965 . S
Zn520 O531 2.024 . S
Zn520 O536 1.969 . S
Zn521 O528 1.969 . S
Zn521 O534 1.969 . S
Zn521 O535 1.965 . S
Zn521 O537 2.024 . S
C522 O523 1.229 . S
C522 O531 1.058 . S
O523 C522 1.229 . S
C524 O525 1.229 . S
C524 O537 1.058 . S
O525 C524 1.229 . S
O526 Zn520 1.969 . S
O526 C529 1.267 . S
O527 Zn520 1.965 . S
O527 C538 1.260 . S
O528 Zn521 1.969 . S
O528 C538 1.258 1_554 S
C529 O526 1.267 . S
C529 O530 1.228 . S
O530 C529 1.228 . S
O531 Zn520 2.024 . S
O531 C522 1.058 . S
C532 O533 1.228 . S
C532 O534 1.267 . S
O533 C532 1.228 . S
O534 Zn521 1.969 . S
O534 C532 1.267 . S
O535 Zn521 1.965 . S
O535 C539 1.260 . S
O536 Zn520 1.969 . S
O536 C539 1.258 1_556 S
O537 Zn521 2.024 . S
O537 C524 1.058 . S
C538 O527 1.260 . S
C538 O528 1.258 1_556 S
C539 O535 1.260 . S
C539 O536 1.258 1_554 S
Zn540 O546 1.969 . S
Zn540 O547 1.965 . S
Zn540 O551 2.024 . S
Zn540 O556 1.969 . S
Zn541 O548 1.969 . S
Zn541 O554 1.969 . S
Zn541 O555 1.965 . S
Zn541 O557 2.024 . S
C542 O543 1.229 . S
C542 O551 1.058 . S
O543 C542 1.229 . S
C544 O545 1.229 . S
C544 O557 1.058 . S
O545 C544 1.229 . S
O546 Zn540 1.969 . S
O546 C549 1.267 . S
O547 Zn540 1.965 . S
O547 C558 1.260 . S
O548 Zn541 1.969 . S
O548 C558 1.258 1_554 S
C549 O546 1.267 . S
C549 O550 1.228 . S
O550 C549 1.228 . S
O551 Zn540 2.024 . S
O551 C542 1.058 . S
C552 O553 1.228 . S
C552 O554 1.267 . S
O553 C552 1.228 . S
O554 Zn541 1.969 . S
O554 C552 1.267 . S
O555 Zn541 1.965 . S
O555 C559 1.260 . S
O556 Zn540 1.969 . S
O556 C559 1.258 1_556 S
O557 Zn541 2.024 . S
O557 C544 1.058 . S
C558 O547 1.260 . S
C558 O548 1.258 1_556 S
C559 O555 1.260 . S
C559 O556 1.258 1_554 S
Zn560 O566 1.969 1_556 S
Zn560 O567 1.965 . S
Zn560 O571 2.024 . S
Zn560 O576 1.969 . S
Zn561 O568 1.969 . S
Zn561 O574 1.969 . S
Zn561 O575 1.965 . S
Zn561 O577 2.024 . S
C562 O563 1.229 1_556 S
C562 O571 1.058 . S
O563 C562 1.229 1_554 S
C564 O565 1.229 . S
C564 O577 1.058 . S
O565 C564 1.229 . S
O566 Zn560 1.969 1_554 S
O566 C569 1.267 . S
O567 Zn560 1.965 . S
O567 C578 1.260 . S
O568 Zn561 1.969 . S
O568 C578 1.258 . S
C569 O566 1.267 . S
C569 O570 1.228 . S
O570 C569 1.228 . S
O571 Zn560 2.024 . S
O571 C562 1.058 . S
C572 O573 1.228 . S
C572 O574 1.267 . S
O573 C572 1.228 . S
O574 Zn561 1.969 . S
O574 C572 1.267 . S
O575 Zn561 1.965 . S
O575 C579 1.260 . S
O576 Zn560 1.969 . S
O576 C579 1.258 . S
O577 Zn561 2.024 . S
O577 C564 1.058 . S
C578 O567 1.260 . S
C578 O568 1.258 . S
C579 O575 1.260 . S
C579 O576 1.258 . S
Zn580 O586 1.969 1_556 S
Zn580 O587 1.965 . S
Zn580 O591 2.024 . S
Zn580 O596 1.969 . S
Zn581 O588 1.969 . S
Zn581 O594 1.969 . S
Zn581 O595 1.965 . S
Zn581 O597 2.024 . S
C582 O583 1.229 1_556 S
C582 O591 1.058 . S
O583 C582 1.229 1_554 S
C584 O585 1.229 . S
C584 O597 1.058 . S
O585 C584 1.229 . S
O586 Zn580 1.969 1_554 S
O586 C589 1.267 . S
O587 Zn580 1.965 . S
O587 C598 1.260 . S
O588 Zn581 1.969 . S
O588 C598 1.258 . S
C589 O586 1.267 . S
C589 O590 1.228 . S
O590 C589 1.228 . S
O591 Zn580 2.024 . S
O591 C582 1.058 . S
C592 O593 1.228 . S
C592 O594 1.267 . S
O593 C592 1.228 . S
O594 Zn581 1.969 . S
O594 C592 1.267 . S
O595 Zn581 1.965 . S
O595 C599 1.260 . S
O596 Zn580 1.969 . S
O596 C599 1.258 . S
O597 Zn581 2.024 . S
O597 C584 1.058 . S
C598 O587 1.260 . S
C598 O588 1.258 . S
C599 O595 1.260 . S
C599 O596 1.258 . S
Zn600 O606 1.969 . S
Zn600 O607 1.965 . S
Zn600 O611 2.024 . S
Zn600 O616 1.969 . S
Zn601 O608 1.969 . S
Zn601 O614 1.969 . S
Zn601 O615 1.965 . S
Zn601 O617 2.024 . S
C602 O603 1.229 . S
C602 O611 1.058 . S
O603 C602 1.229 . S
C604 O605 1.229 . S
C604 O617 1.058 . S
O605 C604 1.229 . S
O606 Zn600 1.969 . S
O606 C609 1.267 . S
O607 Zn600 1.965 . S
O607 C618 1.260 . S
O608 Zn601 1.969 . S
O608 C618 1.258 1_554 S
C609 O606 1.267 . S
C609 O610 1.228 . S
O610 C609 1.228 . S
O611 Zn600 2.024 . S
O611 C602 1.058 . S
C612 O613 1.228 . S
C612 O614 1.267 . S
O613 C612 1.228 . S
O614 Zn601 1.969 . S
O614 C612 1.267 . S
O615 Zn601 1.965 . S
O615 C619 1.260 . S
O616 Zn600 1.969 . S
O616 C619 1.258 1_556 S
O617 Zn601 2.024 . S
O617 C604 1.058 . S
C618 O607 1.260 . S
C618 O608 1.258 1_556 S
C619 O615 1.260 . S
C619 O616 1.258 1_554 S
Zn620 O626 1.969 . S
Zn620 O627 1.965 . S
Zn620 O631 2.024 . S
Zn620 O636 1.969 . S
Zn621 O628 1.969 . S
Zn621 O634 1.969 . S
Zn621 O635 1.965 . S
Zn621 O637 2.024 . S
C622 O623 1.229 . S
C622 O631 1.058 . S
O623 C622 1.229 . S
C624 O625 1.229 . S
C624 O637 1.058 . S
O625 C624 1.229 . S
O626 Zn620 1.969 . S
O626 C629 1.267 . S
O627 Zn620 1.965 . S
O627 C638 1.260 . S
O628 Zn621 1.969 . S
O628 C638 1.258 1_554 S
C629 O626 1.267 . S
C629 O630 1.228 . S
O630 C629 1.228 . S
O631 Zn620 2.024 . S
O631 C622 1.058 . S
C632 O633 1.228 . S
C632 O634 1.267 . S
O633 C632 1.228 . S
O634 Zn621 1.969 . S
O634 C632 1.267 . S
O635 Zn621 1.965 . S
O635 C639 1.260 . S
O636 Zn620 1.969 . S
O636 C639 1.258 1_556 S
O637 Zn621 2.024 . S
O637 C624 1.058 . S
C638 O627 1.260 . S
C638 O628 1.258 1_556 S
C639 O635 1.260 . S
C639 O636 1.258 1_554 S
C562 C4 1.354 1_556 S
C102 C24 1.488 1_446 S
C442 C44 1.487 1_545 S
C302 C64 1.354 1_455 S
C82 C484 1.354 1_556 S
C364 C122 1.487 1_565 S
C224 C142 1.354 1_655 S
C402 C164 1.355 . S
C184 C262 1.421 1_655 S
C204 C602 1.420 . S
C324 C242 1.355 . S
C282 C524 1.420 . S
C344 C422 1.486 1_565 S
C384 C622 1.354 . S
C544 C462 1.354 . S
C582 C504 1.420 1_556 S
C382 C2 1.982 . S
C362 C22 1.953 . S
C342 C42 1.954 . S
C322 C62 1.982 . S
C464 C84 1.982 . S
C104 C444 1.953 . S
C124 C424 1.954 . S
C144 C404 1.982 . S
C162 C542 1.993 . S
C182 C522 1.976 . S
C202 C502 1.976 . S
C482 C222 1.995 . S
C244 C624 1.993 . S
C264 C604 1.976 . S
C284 C584 1.976 . S
C564 C304 1.994 . S
C9 C12 1.611 . S
C29 C32 1.620 1_545 S
C52 C49 1.621 1_565 S
C72 C69 1.611 . S
C89 C92 1.611 . S
C109 C112 1.620 1_545 S
C129 C132 1.621 1_545 S
C152 C149 1.611 . S
C169 C172 1.636 . S
C192 C189 1.624 . S
C212 C209 1.625 1_556 S
C232 C229 1.636 1_556 S
C249 C252 1.636 . S
C272 C269 1.624 . S
C289 C292 1.625 1_554 S
C312 C309 1.636 1_556 S
C329 C332 1.611 . S
C352 C349 1.620 1_565 S
C372 C369 1.620 1_566 S
C392 C389 1.611 1_556 S
C412 C409 1.611 . S
C429 C432 1.620 1_545 S
C452 C449 1.620 1_566 S
C472 C469 1.611 1_556 S
C489 C492 1.636 . S
C512 C509 1.624 . S
C532 C529 1.624 . S
C549 C552 1.635 . S
C569 C572 1.636 . S
C592 C589 1.624 . S
C612 C609 1.624 . S
C632 C629 1.635 . S
C218 C18 2.322 . S
C238 C38 2.281 . S
C58 C178 2.282 . S
C198 C78 2.321 . S
C99 C299 2.322 . S
C119 C319 2.281 . S
C139 C259 2.282 . S
C159 C279 2.321 . S
C538 C338 2.322 . S
C358 C558 2.281 . S
C498 C378 2.281 . S
C398 C518 2.321 . S
C619 C419 2.322 . S
C439 C639 2.281 . S
C459 C579 2.281 . S
C599 C479 2.321 . S
C19 C59 1.201 . S
C79 C39 1.200 . S
C138 C98 1.201 . S
C118 C158 1.200 . S
C179 C219 1.146 . S
C239 C199 1.146 . S
C298 C258 1.146 . S
C318 C278 1.146 . S
C379 C339 1.201 . S
C399 C359 1.200 . S
C458 C418 1.201 . S
C478 C438 1.200 . S
C499 C539 1.146 . S
C519 C559 1.145 . S
C578 C618 1.146 . S
C638 C598 1.145 . S
