# Generated by pormake.
# Topology cdl, (4)-cn, num edge types: 1
# Building blocks:
#     Node 0, Type 0, BuildingBlock: KOZSID_clean_sbu_0, # of connection points: 4
#     Node 1, Type 0, BuildingBlock: KOZSID_clean_sbu_0, # of connection points: 4
#     Node 2, Type 0, BuildingBlock: KOZSID_clean_sbu_0, # of connection points: 4
#     Node 3, Type 0, BuildingBlock: KOZSID_clean_sbu_0, # of connection points: 4
#     Edge 4, Type (0, 0), BuildingBlock: ZUJKAS_clean_linker_0, # of connection points: 2
#     Edge 5, Type (0, 0), BuildingBlock: ZUJKAS_clean_linker_0, # of connection points: 2
#     Edge 6, Type (0, 0), BuildingBlock: ZUJKAS_clean_linker_0, # of connection points: 2
#     Edge 7, Type (0, 0), BuildingBlock: ZUJKAS_clean_linker_0, # of connection points: 2
#     Edge 8, Type (0, 0), BuildingBlock: ZUJKAS_clean_linker_0, # of connection points: 2
#     Edge 9, Type (0, 0), BuildingBlock: ZUJKAS_clean_linker_0, # of connection points: 2
#     Edge 10, Type (0, 0), BuildingBlock: ZUJKAS_clean_linker_0, # of connection points: 2
#     Edge 11, Type (0, 0), BuildingBlock: ZUJKAS_clean_linker_0, # of connection points: 2
# Relax obj value: 0.000
# Max RMSD: 0.022
# Mean RMSD: 0.020
data_MOF--net-cdl--node1-KOZSID_clean_sbu_0--edge1-ZUJKAS_clean_linker_0
_symmetry_space_group_name_H-M    P1
_symmetry_Int_Tables_number       1
_symmetry_cell_setting            triclinic
loop_
_symmetry_equiv_pos_as_xyz
'x, y, z'
_cell_length_a     21.201148
_cell_length_b     24.120766
_cell_length_c     90.586382
_cell_angle_alpha  107.52491
_cell_angle_beta   106.02412
_cell_angle_gamma 84.023581
loop_
_atom_site_label
_atom_site_type_symbol
_atom_site_fract_x
_atom_site_fract_y
_atom_site_fract_z
_atom_type_partial_charge
C0 C 0.1499 0.1491 0.15675 0.0
C1 C 0.21107 0.15481 0.16769 0.0
C2 C 0.25655 0.14602 0.15906 0.0
C3 C 0.22074 0.13582 0.14343 0.0
N4 N 0.15503 0.13829 0.14154 0.0
Co5 Co 0.08489 0.12536 0.12085 0.0
N6 N 0.15198 0.10872 0.10807 0.0
C7 C 0.21805 0.10767 0.11379 0.0
C8 C 0.25134 0.09736 0.10221 0.0
C9 C 0.20381 0.09229 0.08825 0.0
C10 C 0.14398 0.09966 0.09214 0.0
N11 N 0.01478 0.11256 0.10016 0.0
C12 C 0.01995 0.10321 0.08501 0.0
C13 C 0.95887 0.09792 0.07405 0.0
C14 C 0.91333 0.10545 0.08262 0.0
C15 C 0.94907 0.11464 0.09823 0.0
N16 N 0.01778 0.14198 0.13362 0.0
C17 C 0.95169 0.1422 0.12784 0.0
C18 C 0.91827 0.15253 0.13939 0.0
C19 C 0.9657 0.15869 0.1534 0.0
C20 C 0.02569 0.15205 0.14958 0.0
N21 N 0.08506 0.20944 0.12224 0.0
C22 C 0.08504 0.32726 0.1226 0.0
C23 C 0.02633 0.29888 0.11932 0.0
C24 C 0.02746 0.24064 0.11923 0.0
C25 C 0.14377 0.29567 0.12595 0.0
C26 C 0.14267 0.2375 0.12573 0.0
N27 N 0.08476 0.04119 0.11946 0.0
C28 C 0.02611 0.95472 0.11561 0.0
C29 C 0.08485 0.92325 0.11906 0.0
C30 C 0.14353 0.95181 0.12246 0.0
C31 C 0.14236 0.01008 0.12257 0.0
C32 C 0.02717 0.01292 0.11585 0.0
H33 H 0.18882 0.02907 0.12532 0.0
H34 H 0.98069 0.03426 0.11325 0.0
H35 H 0.98102 0.22167 0.11658 0.0
H36 H 0.18912 0.21596 0.12823 0.0
C37 C 0.24738 0.12099 0.13023 0.0
C38 C 0.08864 0.15254 0.16138 0.0
C39 C 0.08116 0.10127 0.0805 0.0
C40 C 0.92241 0.12898 0.11141 0.0
H41 H 0.22171 0.16348 0.18056 0.0
H42 H 0.30943 0.14587 0.1636 0.0
H43 H 0.30395 0.09579 0.1038 0.0
H44 H 0.21239 0.08561 0.07659 0.0
H45 H 0.94836 0.09062 0.06123 0.0
H46 H 0.86045 0.10581 0.07807 0.0
H47 H 0.86566 0.15367 0.13776 0.0
H48 H 0.95684 0.16575 0.16504 0.0
H49 H 0.97944 0.32152 0.11692 0.0
H50 H 0.19067 0.31524 0.12841 0.0
H51 H 0.97921 0.93503 0.11305 0.0
H52 H 0.19046 0.92929 0.12494 0.0
C53 C 0.19089 0.15823 0.64386 0.0
C54 C 0.22045 0.21202 0.6502 0.0
C55 C 0.1713 0.25279 0.65187 0.0
C56 C 0.1148 0.22177 0.64646 0.0
N57 N 0.12489 0.16348 0.64162 0.0
Co58 Co 0.05638 0.10214 0.63228 0.0
N59 N 0.98379 0.16245 0.63341 0.0
C60 C 0.98976 0.22093 0.63847 0.0
C61 C 0.93107 0.25093 0.63816 0.0
C62 C 0.88484 0.20916 0.63282 0.0
C63 C 0.91828 0.15594 0.63023 0.0
N64 N 0.98787 0.04079 0.62304 0.0
C65 C 0.92192 0.04607 0.62093 0.0
C66 C 0.89239 0.99227 0.61479 0.0
C67 C 0.9415 0.95146 0.61312 0.0
C68 C 0.99796 0.98249 0.61835 0.0
N69 N 0.12896 0.04185 0.63106 0.0
C70 C 0.12294 0.98337 0.6258 0.0
C71 C 0.18158 0.95337 0.62599 0.0
C72 C 0.22784 0.99515 0.63145 0.0
C73 C 0.19446 0.04838 0.63423 0.0
N74 N 0.05915 0.09952 0.65418 0.0
C75 C 0.05778 0.09576 0.68495 0.0
C76 C 0.0626 0.04475 0.67282 0.0
C77 C 0.06307 0.04759 0.65768 0.0
C78 C 0.0544 0.14872 0.68142 0.0
C79 C 0.0554 0.14959 0.66614 0.0
N80 N 0.0536 0.10478 0.61038 0.0
C81 C 0.05545 0.0555 0.58294 0.0
C82 C 0.05517 0.1085 0.57963 0.0
C83 C 0.05326 0.15959 0.59195 0.0
C84 C 0.05252 0.15675 0.60708 0.0
C85 C 0.05455 0.05466 0.59824 0.0
H86 H 0.05149 0.19726 0.61591 0.0
H87 H 0.05537 0.01288 0.59997 0.0
H88 H 0.06628 1.00713 0.64898 0.0
H89 H 0.05235 0.19133 0.66426 0.0
C90 C 0.05143 0.24623 0.64458 0.0
C91 C 0.22692 0.10377 0.6392 0.0
C92 C 0.88594 0.10061 0.62551 0.0
C93 C 0.0613 0.95805 0.61996 0.0
H94 H 0.27198 0.22103 0.65291 0.0
H95 H 0.17599 0.29957 0.65601 0.0
H96 H 0.92306 0.29758 0.64187 0.0
H97 H 0.83255 0.21689 0.63136 0.0
H98 H 0.8409 0.9833 0.61219 0.0
H99 H 0.93683 0.90468 0.60906 0.0
H100 H 0.18957 0.90674 0.62222 0.0
H101 H 0.28012 0.98744 0.6329 0.0
H102 H 0.06646 1.00258 0.67498 0.0
H103 H 0.04977 0.18953 0.69031 0.0
H104 H 0.05767 0.01462 0.57387 0.0
H105 H 0.05188 0.20181 0.58995 0.0
C106 C 0.11282 0.13247 0.91827 0.0
C107 C 0.17405 0.13798 0.92917 0.0
C108 C 0.21934 0.13027 0.92053 0.0
C109 C 0.18333 0.12079 0.90494 0.0
N110 N 0.11765 0.12283 0.90309 0.0
Co111 Co 0.04717 0.11009 0.88246 0.0
N112 N 0.11391 0.0933 0.86961 0.0
C113 C 0.18 0.0916 0.87526 0.0
C114 C 0.21302 0.07926 0.86357 0.0
C115 C 0.16528 0.0735 0.84962 0.0
C116 C 0.10566 0.0831 0.85365 0.0
N117 N 0.97669 0.09762 0.8618 0.0
C118 C 0.98152 0.08797 0.8466 0.0
C119 C 0.92009 0.0851 0.83582 0.0
C120 C 0.8749 0.09335 0.84451 0.0
C121 C 0.91102 0.10111 0.86003 0.0
N122 N 0.98046 0.12656 0.89533 0.0
C123 C 0.91437 0.12735 0.88967 0.0
C124 C 0.88134 0.13729 0.9013 0.0
C125 C 0.92911 0.14236 0.91522 0.0
C126 C 0.98879 0.1354 0.91126 0.0
N127 N 0.04756 0.19425 0.88391 0.0
C128 C 0.04779 0.31226 0.8844 0.0
C129 C 0.98908 0.28412 0.8813 0.0
C130 C 0.9901 0.22584 0.88116 0.0
C131 C 0.10643 0.28028 0.8875 0.0
C132 C 0.1052 0.22202 0.88719 0.0
N133 N 0.04677 0.02596 0.88101 0.0
C134 C 0.98759 0.9394 0.87675 0.0
C135 C 0.04617 0.90803 0.8805 0.0
C136 C 0.10506 0.93671 0.88427 0.0
C137 C 0.10425 0.99499 0.88443 0.0
C138 C 0.989 0.99763 0.87706 0.0
H139 H 0.15082 0.01421 0.88755 0.0
H140 H 0.94263 0.0189 0.87415 0.0
H141 H 0.94362 0.20716 0.8786 0.0
H142 H 0.15159 0.20028 0.88955 0.0
C143 C 0.2097 0.10541 0.89169 0.0
C144 C 0.05182 0.13421 0.92286 0.0
C145 C 0.04286 0.08436 0.84196 0.0
C146 C 0.88477 0.11509 0.87327 0.0
H147 H 0.18482 0.14543 0.94201 0.0
H148 H 0.27224 0.12979 0.92503 0.0
H149 H 0.26559 0.07628 0.86506 0.0
H150 H 0.17344 0.06446 0.83783 0.0
H151 H 0.90885 0.07915 0.82306 0.0
H152 H 0.82202 0.09524 0.84009 0.0
H153 H 0.82877 0.13885 0.89976 0.0
H154 H 0.9208 0.14893 0.92689 0.0
H155 H 0.94215 0.30645 0.87864 0.0
H156 H 0.15342 0.30009 0.89026 0.0
H157 H 0.94056 0.9191 0.87348 0.0
H158 H 0.1519 0.91478 0.88744 0.0
C159 C 0.21688 0.1859 0.38281 0.0
C160 C 0.24836 0.23873 0.38965 0.0
C161 C 0.20053 0.28065 0.39163 0.0
C162 C 0.14291 0.2511 0.38598 0.0
N163 N 0.15108 0.19272 0.3807 0.0
Co164 Co 0.08073 0.13313 0.37129 0.0
N165 N 0.00991 0.19513 0.37258 0.0
C166 C 0.01782 0.25339 0.3777 0.0
C167 C 0.96011 0.28486 0.37754 0.0
C168 C 0.91245 0.24436 0.37219 0.0
C169 C 0.94406 0.19028 0.36937 0.0
N170 N 0.01038 0.07349 0.36217 0.0
C171 C 0.94466 0.08037 0.36026 0.0
C172 C 0.91334 0.02741 0.35403 0.0
C173 C 0.96117 0.98538 0.35224 0.0
C174 C 0.01863 0.01498 0.35743 0.0
N175 N 0.15154 0.07116 0.3697 0.0
C176 C 0.14358 0.01293 0.36405 0.0
C177 C 0.20114 0.98159 0.36369 0.0
C178 C 0.24874 0.02218 0.36919 0.0
C179 C 0.21725 0.07615 0.37264 0.0
N180 N 0.08349 0.13024 0.39316 0.0
C181 C 0.08189 0.12581 0.42384 0.0
C182 C 0.08655 0.07497 0.41166 0.0
C183 C 0.08736 0.07815 0.39657 0.0
C184 C 0.07884 0.17895 0.42044 0.0
C185 C 0.07973 0.18016 0.40518 0.0
N186 N 0.07797 0.13601 0.34941 0.0
C187 C 0.07384 0.08704 0.32161 0.0
C188 C 0.07955 0.13967 0.31864 0.0
C189 C 0.08363 0.19053 0.33135 0.0
C190 C 0.08249 0.18775 0.34646 0.0
C191 C 0.0733 0.0862 0.33692 0.0
H192 H 0.08605 0.22806 0.35559 0.0
H193 H 0.06943 0.04463 0.33836 0.0
H194 H 0.09074 0.03781 0.38784 0.0
H195 H 0.07659 0.22201 0.40335 0.0
C196 C 0.0803 0.2771 0.38404 0.0
C197 C 0.25126 0.13088 0.37777 0.0
C198 C 0.91009 0.13575 0.36473 0.0
C199 C 0.08118 0.98911 0.35852 0.0
H200 H 0.30039 0.2462 0.39249 0.0
H201 H 0.20681 0.32724 0.39611 0.0
H202 H 0.95366 0.33165 0.38145 0.0
H203 H 0.86054 0.25365 0.37099 0.0
H204 H 0.86137 0.01999 0.35134 0.0
H205 H 0.95494 0.93877 0.34799 0.0
H206 H 0.20754 0.93486 0.35952 0.0
H207 H 0.30055 0.01308 0.37016 0.0
H208 H 0.09007 0.03271 0.41376 0.0
H209 H 0.07445 0.2196 0.42941 0.0
H210 H 0.06933 0.04643 0.31213 0.0
H211 H 0.08892 0.23242 0.32978 0.0
H212 H 0.0007 0.38106 0.10183 0.0
H213 H 0.0015 0.48179 0.10131 0.0
H214 H 0.16991 0.51416 0.14212 0.0
H215 H 0.16922 0.41369 0.14284 0.0
H216 H 0.98981 0.5851 0.12472 0.0
H217 H 0.22962 0.57126 0.11015 0.0
H218 H 0.18676 0.50761 0.10826 0.0
H219 H 0.23304 0.54913 0.12759 0.0
C220 C 0.03768 0.40963 0.11079 0.0
C221 C 0.08506 0.38895 0.12235 0.0
C222 C 0.03826 0.4672 0.11041 0.0
C223 C 0.0864 0.50537 0.1215 0.0
C224 C 0.13323 0.48519 0.13319 0.0
H225 H 0.16902 0.86949 0.13987 0.0
H226 H 0.16838 0.76871 0.14035 0.0
C227 C 0.13273 0.42763 0.13358 0.0
C228 C 0.08673 0.56653 0.12103 0.0
H229 H 0.18036 0.66531 0.11687 0.0
C230 C 0.03134 0.60256 0.12292 0.0
C231 C 0.14099 0.58939 0.11871 0.0
C232 C 0.20077 0.55228 0.11591 0.0
C233 C 0.02917 0.661 0.12287 0.0
C234 C 0.08343 0.68386 0.12056 0.0
C235 C 0.13883 0.64783 0.11866 0.0
C236 C 0.08374 0.74503 0.12009 0.0
C237 C 0.96939 0.69811 0.12567 0.0
C238 C 0.03701 0.76517 0.10838 0.0
C239 C 0.03743 0.82276 0.10801 0.0
C240 C 0.0849 0.86153 0.11929 0.0
C241 C 0.13219 0.84087 0.13087 0.0
C242 C 0.13171 0.78327 0.13123 0.0
H243 H 0.94046 0.67909 0.1314 0.0
H244 H 0.98343 0.74275 0.13335 0.0
H245 H 0.93721 0.70137 0.11399 0.0
H246 H 0.00046 0.73615 0.09942 0.0
H247 H 0.00103 0.83667 0.09873 0.0
H248 H 0.33864 0.12537 0.66352 0.0
H249 H 0.45162 0.12603 0.66127 0.0
H250 H 0.37994 0.08267 0.6098 0.0
H251 H 0.26717 0.08281 0.61211 0.0
H252 H 0.52219 0.03451 0.64451 0.0
H253 H 0.49189 0.22592 0.62096 0.0
H254 H 0.43387 0.20962 0.63031 0.0
H255 H 0.43242 0.17052 0.60991 0.0
C256 C 0.34744 0.11643 0.65179 0.0
C257 C 0.29499 0.10464 0.63798 0.0
C258 C 0.41159 0.11667 0.65049 0.0
C259 C 0.42388 0.10532 0.63538 0.0
C260 C 0.37131 0.09275 0.62158 0.0
H261 H 0.77375 0.07871 0.60135 0.0
H262 H 0.66107 0.07846 0.60383 0.0
C263 C 0.30724 0.09252 0.62287 0.0
C264 C 0.49185 0.10518 0.63401 0.0
H265 H 0.59136 0.17085 0.62073 0.0
C266 C 0.53751 0.06449 0.6394 0.0
C267 C 0.51144 0.14429 0.62729 0.0
C268 C 0.46509 0.19044 0.62191 0.0
C269 C 0.60214 0.06112 0.63797 0.0
C270 C 0.62169 0.10015 0.63122 0.0
C271 C 0.57605 0.1409 0.62585 0.0
C272 C 0.68951 0.09973 0.62973 0.0
C273 C 0.64854 0.01503 0.64337 0.0
C274 C 0.74237 0.11246 0.64346 0.0
C275 C 0.80629 0.11248 0.64204 0.0
C276 C 0.81806 0.09997 0.62687 0.0
C277 C 0.76531 0.08798 0.61313 0.0
C278 C 0.70133 0.08796 0.61455 0.0
H279 H 0.62183 0.97977 0.64445 0.0
H280 H 0.67941 0.99555 0.6349 0.0
H281 H 0.68156 0.03511 0.65531 0.0
H282 H 0.7341 0.12283 0.65528 0.0
H283 H 0.84659 0.12233 0.65275 0.0
H284 H 0.12869 0.36198 0.87312 0.0
H285 H 0.12893 0.46314 0.873 0.0
H286 H 0.96522 0.50343 0.89431 0.0
H287 H 0.9664 0.40303 0.89515 0.0
H288 H 0.03295 0.527 0.85786 0.0
H289 H 0.0911 0.62999 0.92352 0.0
H290 H 0.09966 0.55262 0.91488 0.0
H291 H 0.02019 0.58522 0.91597 0.0
C292 C 0.09341 0.39248 0.87806 0.0
C293 C 0.04784 0.37411 0.88426 0.0
C294 C 0.09328 0.4503 0.87784 0.0
C295 C 0.04781 0.49127 0.88387 0.0
C296 C 0.00175 0.47304 0.8899 0.0
H297 H 0.96308 0.85815 0.89111 0.0
H298 H 0.96258 0.75699 0.89129 0.0
C299 C 0.00195 0.41526 0.89017 0.0
C300 C 0.04758 0.5526 0.88346 0.0
H301 H 0.05998 0.69357 0.90703 0.0
C302 C 0.0392 0.56339 0.86863 0.0
C303 C 0.0556 0.6002 0.8975 0.0
C304 C 0.06777 0.59157 0.91389 0.0
C305 C 0.03747 0.62034 0.86741 0.0
C306 C 0.04544 0.66791 0.88144 0.0
C307 C 0.05375 0.65715 0.89627 0.0
C308 C 0.0454 0.72918 0.88102 0.0
C309 C 0.02563 0.62907 0.85104 0.0
C310 C 0.09249 0.74752 0.87532 0.0
C311 C 0.0926 0.80529 0.87508 0.0
C312 C 0.04584 0.84624 0.88063 0.0
C313 C 0.99911 0.82775 0.88647 0.0
C314 C 0.99905 0.76996 0.88671 0.0
H315 H 0.003 0.59047 0.84136 0.0
H316 H 0.99326 0.66772 0.85 0.0
H317 H 0.07324 0.63612 0.84909 0.0
H318 H 0.12958 0.7172 0.87116 0.0
H319 H 0.12904 0.8177 0.87039 0.0
H320 H 0.2897 0.1589 0.35485 0.0
H321 H 0.40216 0.16005 0.35244 0.0
H322 H 0.47702 0.10498 0.3953 0.0
H323 H 0.36435 0.10445 0.39777 0.0
H324 H 0.54368 0.19973 0.39435 0.0
H325 H 0.51865 0.01625 0.33868 0.0
H326 H 0.45701 0.07294 0.33751 0.0
H327 H 0.46104 0.02994 0.35087 0.0
C328 C 0.33042 0.14691 0.36368 0.0
C329 C 0.31917 0.13111 0.3764 0.0
C330 C 0.39431 0.14728 0.36227 0.0
C331 C 0.44768 0.13169 0.37356 0.0
C332 C 0.43637 0.11673 0.38642 0.0
H333 H 0.8706 0.1103 0.38788 0.0
H334 H 0.75783 0.1101 0.39016 0.0
C335 C 0.3724 0.11632 0.38782 0.0
C336 C 0.51543 0.13215 0.37211 0.0
H337 H 0.61679 0.06939 0.34788 0.0
C338 C 0.55985 0.17109 0.38424 0.0
C339 C 0.53608 0.09485 0.35886 0.0
C340 C 0.49098 0.05073 0.34578 0.0
C341 C 0.62434 0.17437 0.38335 0.0
C342 C 0.64509 0.13693 0.37012 0.0
C343 C 0.6006 0.09807 0.35798 0.0
C344 C 0.71305 0.13694 0.36876 0.0
C345 C 0.66932 0.21866 0.3964 0.0
C346 C 0.72491 0.15063 0.35576 0.0
C347 C 0.78908 0.15039 0.35443 0.0
C348 C 0.84197 0.13629 0.36605 0.0
C349 C 0.83017 0.12179 0.3789 0.0
C350 C 0.76608 0.12199 0.38024 0.0
H351 H 0.64143 0.25362 0.40331 0.0
H352 H 0.70256 0.19677 0.40487 0.0
H353 H 0.69999 0.23881 0.39135 0.0
H354 H 0.68455 0.16184 0.34673 0.0
H355 H 0.79754 0.16122 0.34437 0.0
H356 H 0.02514 0.22092 0.94786 0.0
H357 H 0.03137 0.21534 0.97491 0.0
H358 H 0.09025 0.03434 0.96112 0.0
H359 H 0.0845 0.0402 0.93417 0.0
H360 H 0.96292 0.14213 0.98386 0.0
H361 H 0.23226 0.1034 0.00221 0.0
H362 H 0.19293 0.12933 0.98507 0.0
H363 H 0.191 0.05356 0.98366 0.0
C364 C 0.03936 0.18013 0.9507 0.0
C365 C 0.05429 0.13094 0.9391 0.0
C366 C 0.04294 0.17692 0.96608 0.0
C367 C 0.06214 0.12464 0.97007 0.0
C368 C 0.07655 0.07535 0.95838 0.0
H369 H 0.10802 0.0146 0.05552 0.0
H370 H 0.1022 0.02028 0.0285 0.0
C371 C 0.07291 0.07857 0.94302 0.0
C372 C 0.06587 0.12135 0.98637 0.0
H373 H 0.17096 0.09356 0.01957 0.0
C374 C 0.00843 0.1318 0.99171 0.0
C375 C 0.12531 0.10771 0.99655 0.0
C376 C 0.18906 0.09835 0.99168 0.0
C377 C 0.00857 0.12799 0.00689 0.0
C378 C 0.06802 0.11436 0.01707 0.0
C379 C 0.12546 0.1039 0.01172 0.0
C380 C 0.07171 0.11105 0.03336 0.0
C381 C 0.94482 0.13736 0.01176 0.0
C382 C 0.05736 0.16035 0.04505 0.0
C383 C 0.06079 0.15709 0.0604 0.0
C384 C 0.07913 0.10464 0.0643 0.0
C385 C 0.09404 0.05545 0.05269 0.0
C386 C 0.09068 0.05872 0.03734 0.0
H387 H 0.90163 0.13238 1.00123 0.0
H388 H 0.94093 0.10632 0.01835 0.0
H389 H 0.94293 0.18212 0.01979 0.0
H390 H 0.04382 0.2014 0.04233 0.0
H391 H 0.0492 0.19545 0.06925 0.0
H392 H 0.14271 0.19702 0.45325 0.0
H393 H 0.13809 0.1932 0.47962 0.0
H394 H 0.01154 0.04581 0.45723 0.0
H395 H 0.0154 0.04954 0.43082 0.0
H396 H 0.02778 0.20228 0.49169 0.0
H397 H 0.15799 0.9894 0.4901 0.0
H398 H 0.15944 0.02965 0.47632 0.0
H399 H 0.08903 0.98791 0.4732 0.0
C400 C 0.11363 0.16394 0.45392 0.0
C401 C 0.07968 0.12338 0.43991 0.0
C402 C 0.11131 0.16167 0.469 0.0
C403 C 0.07533 0.11868 0.47038 0.0
C404 C 0.04085 0.07851 0.45645 0.0
H405 H 0.99182 0.03859 0.55024 0.0
H406 H 0.99644 0.04183 0.52381 0.0
C407 C 0.04316 0.0807 0.44136 0.0
C408 C 0.0726 0.11677 0.4864 0.0
H409 H 0.10886 0.03093 0.51167 0.0
C410 C 0.04577 0.16496 0.4961 0.0
C411 C 0.09601 0.06794 0.4921 0.0
C412 C 0.1278 0.01595 0.48247 0.0
C413 C 0.04074 0.16528 0.51126 0.0
C414 C 0.0641 0.11645 0.51694 0.0
C415 C 0.09087 0.06823 0.50725 0.0
C416 C 0.06156 0.11469 0.53298 0.0
C417 C 0.00926 0.21735 0.52094 0.0
C418 C 0.09739 0.15409 0.54688 0.0
C419 C 0.09525 0.15213 0.562 0.0
C420 C 0.05737 0.11054 0.56352 0.0
C421 C 0.022 0.07078 0.54953 0.0
C422 C 0.02429 0.07273 0.53441 0.0
H423 H 0.97972 0.24443 0.51339 0.0
H424 H 0.97707 0.20363 0.52696 0.0
H425 H 0.04818 0.24484 0.53034 0.0
H426 H 0.12758 0.18601 0.54604 0.0
H427 H 0.12414 0.18263 0.57251 0.0
H428 H 0.02391 0.22156 0.30311 0.0
H429 H 0.02816 0.22427 0.27662 0.0
H430 H 0.14256 0.06436 0.2709 0.0
H431 H 0.14036 0.06195 0.29754 0.0
H432 H 0.14876 0.21997 0.26527 0.0
H433 H 0.97952 0.037 0.23045 0.0
H434 H 0.98185 0.07687 0.25097 0.0
H435 H 0.04543 0.02428 0.2466 0.0
C436 C 0.0506 0.18723 0.29632 0.0
C437 C 0.08161 0.1414 0.30248 0.0
C438 C 0.05262 0.18873 0.28115 0.0
C439 C 0.08507 0.14422 0.27178 0.0
C440 C 0.11643 0.09866 0.27788 0.0
H441 H 0.12832 0.06438 0.17494 0.0
H442 H 0.13079 0.06378 0.20216 0.0
C443 C 0.11481 0.09726 0.29308 0.0
C444 C 0.08658 0.14565 0.25567 0.0
H445 H 0.03015 0.07648 0.21584 0.0
C446 C 0.12275 0.18878 0.25443 0.0
C447 C 0.05288 0.10462 0.24163 0.0
C448 C 0.01226 0.0582 0.24236 0.0
C449 C 0.12697 0.19145 0.23946 0.0
C450 C 0.09258 0.15079 0.22535 0.0
C451 C 0.05645 0.10763 0.22664 0.0
C452 C 0.0932 0.15215 0.20912 0.0
C453 C 0.16958 0.23684 0.23894 0.0
C454 C 0.07103 0.20188 0.20397 0.0
C455 C 0.07032 0.20237 0.18853 0.0
C456 C 0.09056 0.15279 0.17792 0.0
C457 C 0.11251 0.10303 0.183 0.0
C458 C 0.11377 0.10268 0.19848 0.0
H459 H 0.20709 0.25244 0.25049 0.0
H460 H 0.195 0.21963 0.22922 0.0
H461 H 0.1384 0.27481 0.23666 0.0
H462 H 0.05346 0.24006 0.21182 0.0
H463 H 0.05323 0.24114 0.18478 0.0
H464 H 0.11511 0.16999 0.71426 0.0
H465 H 0.11028 0.16716 0.74069 0.0
H466 H 0.99265 0.01403 0.71881 0.0
H467 H 0.99553 0.01723 0.69228 0.0
H468 H 0.9899 0.16696 0.75127 0.0
H469 H 0.1519 0.97112 0.75349 0.0
H470 H 0.15159 0.01387 0.74017 0.0
H471 H 0.08609 0.96503 0.73564 0.0
C472 C 0.08766 0.13596 0.71502 0.0
C473 C 0.05583 0.09374 0.7011 0.0
C474 C 0.08532 0.13427 0.73015 0.0
C475 C 0.05172 0.09006 0.73167 0.0
C476 C 0.01971 0.04797 0.71787 0.0
H477 H 0.00182 0.99978 0.81377 0.0
H478 H 0.00093 1.00214 0.78678 0.0
C479 C 0.02168 0.04978 0.70272 0.0
C480 C 0.04929 0.08853 0.74772 0.0
H481 H 0.10186 0.01046 0.77481 0.0
C482 C 0.01443 0.13287 0.75646 0.0
C483 C 0.08102 0.04376 0.75435 0.0
C484 C 0.12023 0.99583 0.74553 0.0
C485 C 0.00973 0.13328 0.77166 0.0
C486 C 0.04232 0.08892 0.77844 0.0
C487 C 0.07696 0.04443 0.76961 0.0
C488 C 0.04164 0.08807 0.79471 0.0
C489 C 0.96864 0.18045 0.78012 0.0
C490 C 0.06551 0.13521 0.80812 0.0
C491 C 0.06524 0.1341 0.82344 0.0
C492 C 0.04189 0.08554 0.8256 0.0
C493 C 0.01927 0.03789 0.81228 0.0
C494 C 0.019 0.0392 0.79693 0.0
H495 H 0.93183 0.19972 0.77155 0.0
H496 H 0.94251 0.16355 0.78688 0.0
H497 H 0.00103 0.21578 0.78871 0.0
H498 H 0.08495 0.17266 0.80677 0.0
H499 H 0.0836 0.17097 0.83363 0.0
loop_
_geom_bond_atom_site_label_1
_geom_bond_atom_site_label_2
_geom_bond_distance
_geom_bond_site_symmetry_2
_ccdc_geom_bond_type
C0 C1 1.443 . S
C0 N4 1.376 . S
C0 C38 1.389 . S
C1 C0 1.443 . S
C1 C2 1.340 . S
C1 H41 0.951 . S
C2 C1 1.340 . S
C2 C3 1.439 . S
C2 H42 0.950 . S
C3 C2 1.439 . S
C3 N4 1.374 . S
C3 C37 1.395 . S
N4 C0 1.376 . S
N4 C3 1.374 . S
N4 Co5 2.008 . S
Co5 N4 2.008 . S
Co5 N6 1.995 . S
Co5 N11 2.008 . S
Co5 N16 1.995 . S
Co5 N21 2.282 . S
Co5 N27 2.282 . S
N6 Co5 1.995 . S
N6 C7 1.376 . S
N6 C10 1.383 . S
C7 N6 1.376 . S
C7 C8 1.446 . S
C7 C37 1.391 . S
C8 C7 1.446 . S
C8 C9 1.339 . S
C8 H43 0.949 . S
C9 C8 1.339 . S
C9 C10 1.439 . S
C9 H44 0.950 . S
C10 N6 1.383 . S
C10 C9 1.439 . S
C10 C39 1.392 . S
N11 Co5 2.008 . S
N11 C12 1.376 . S
N11 C15 1.374 1_455 S
C12 N11 1.376 . S
C12 C13 1.443 1_455 S
C12 C39 1.389 . S
C13 C12 1.443 1_655 S
C13 C14 1.340 . S
C13 H45 0.951 . S
C14 C13 1.340 . S
C14 C15 1.439 . S
C14 H46 0.950 . S
C15 N11 1.374 1_655 S
C15 C14 1.439 . S
C15 C40 1.395 . S
N16 Co5 1.995 . S
N16 C17 1.376 1_455 S
N16 C20 1.383 . S
C17 N16 1.376 1_655 S
C17 C18 1.446 . S
C17 C40 1.391 . S
C18 C17 1.446 . S
C18 C19 1.339 . S
C18 H47 0.949 . S
C19 C18 1.339 . S
C19 C20 1.439 1_655 S
C19 H48 0.950 . S
C20 N16 1.383 . S
C20 C19 1.439 1_455 S
C20 C38 1.392 . S
N21 Co5 2.282 . S
N21 C24 1.332 . S
N21 C26 1.332 . S
C22 C23 1.386 . S
C22 C25 1.388 . S
C23 C22 1.386 . S
C23 C24 1.382 . S
C23 H49 0.950 . S
C24 N21 1.332 . S
C24 C23 1.382 . S
C24 H35 0.952 . S
C25 C22 1.388 . S
C25 C26 1.382 . S
C25 H50 0.950 . S
C26 N21 1.332 . S
C26 C25 1.382 . S
C26 H36 0.948 . S
N27 Co5 2.282 . S
N27 C31 1.332 1_545 S
N27 C32 1.332 1_545 S
C28 C29 1.388 . S
C28 C32 1.382 . S
C28 H51 0.950 . S
C29 C28 1.388 . S
C29 C30 1.386 . S
C30 C29 1.386 . S
C30 C31 1.382 . S
C30 H52 0.950 . S
C31 N27 1.332 1_565 S
C31 C30 1.382 . S
C31 H33 0.950 1_565 S
C32 N27 1.332 1_565 S
C32 C28 1.382 . S
C32 H34 0.948 1_565 S
H33 C31 0.950 1_545 S
H34 C32 0.948 1_545 S
H35 C24 0.952 . S
H36 C26 0.948 . S
C37 C3 1.395 . S
C37 C7 1.391 . S
C38 C0 1.389 . S
C38 C20 1.392 . S
C39 C10 1.392 . S
C39 C12 1.389 . S
C40 C15 1.395 . S
C40 C17 1.391 . S
H41 C1 0.951 . S
H42 C2 0.950 . S
H43 C8 0.949 . S
H44 C9 0.950 . S
H45 C13 0.951 . S
H46 C14 0.950 . S
H47 C18 0.949 . S
H48 C19 0.950 . S
H49 C23 0.950 . S
H50 C25 0.950 . S
H51 C28 0.950 . S
H52 C30 0.950 . S
C53 C54 1.443 . S
C53 N57 1.376 . S
C53 C91 1.389 . S
C54 C53 1.443 . S
C54 C55 1.340 . S
C54 H94 0.951 . S
C55 C54 1.340 . S
C55 C56 1.439 . S
C55 H95 0.950 . S
C56 C55 1.439 . S
C56 N57 1.374 . S
C56 C90 1.395 . S
N57 C53 1.376 . S
N57 C56 1.374 . S
N57 Co58 2.008 . S
Co58 N57 2.008 . S
Co58 N59 1.995 1_455 S
Co58 N64 2.008 1_455 S
Co58 N69 1.995 . S
Co58 N74 2.282 . S
Co58 N80 2.282 . S
N59 Co58 1.995 1_655 S
N59 C60 1.376 . S
N59 C63 1.383 . S
C60 N59 1.376 . S
C60 C61 1.446 . S
C60 C90 1.391 1_655 S
C61 C60 1.446 . S
C61 C62 1.339 . S
C61 H96 0.949 . S
C62 C61 1.339 . S
C62 C63 1.439 . S
C62 H97 0.950 . S
C63 N59 1.383 . S
C63 C62 1.439 . S
C63 C92 1.392 . S
N64 Co58 2.008 1_655 S
N64 C65 1.376 . S
N64 C68 1.374 1_645 S
C65 N64 1.376 . S
C65 C66 1.443 1_545 S
C65 C92 1.389 . S
C66 C65 1.443 1_565 S
C66 C67 1.340 . S
C66 H98 0.951 . S
C67 C66 1.340 . S
C67 C68 1.439 1_655 S
C67 H99 0.950 . S
C68 N64 1.374 1_465 S
C68 C67 1.439 1_455 S
C68 C93 1.395 . S
N69 Co58 1.995 . S
N69 C70 1.376 1_545 S
N69 C73 1.383 . S
C70 N69 1.376 1_565 S
C70 C71 1.446 . S
C70 C93 1.391 . S
C71 C70 1.446 . S
C71 C72 1.339 . S
C71 H100 0.949 . S
C72 C71 1.339 . S
C72 C73 1.439 1_565 S
C72 H101 0.950 . S
C73 N69 1.383 . S
C73 C72 1.439 1_545 S
C73 C91 1.392 . S
N74 Co58 2.282 . S
N74 C77 1.332 . S
N74 C79 1.332 . S
C75 C76 1.386 . S
C75 C78 1.388 . S
C76 C75 1.386 . S
C76 C77 1.382 . S
C76 H102 0.950 . S
C77 N74 1.332 . S
C77 C76 1.382 . S
C77 H88 0.952 . S
C78 C75 1.388 . S
C78 C79 1.382 . S
C78 H103 0.950 . S
C79 N74 1.332 . S
C79 C78 1.382 . S
C79 H89 0.948 . S
N80 Co58 2.282 . S
N80 C84 1.332 . S
N80 C85 1.332 . S
C81 C82 1.388 . S
C81 C85 1.382 . S
C81 H104 0.950 . S
C82 C81 1.388 . S
C82 C83 1.386 . S
C83 C82 1.386 . S
C83 C84 1.382 . S
C83 H105 0.950 . S
C84 N80 1.332 . S
C84 C83 1.382 . S
C84 H86 0.952 . S
C85 N80 1.332 . S
C85 C81 1.382 . S
C85 H87 0.948 . S
H86 C84 0.952 . S
H87 C85 0.948 . S
H88 C77 0.952 . S
H89 C79 0.948 . S
C90 C56 1.395 . S
C90 C60 1.391 1_455 S
C91 C53 1.389 . S
C91 C73 1.392 . S
C92 C63 1.392 . S
C92 C65 1.389 . S
C93 C68 1.395 . S
C93 C70 1.391 . S
H94 C54 0.951 . S
H95 C55 0.950 . S
H96 C61 0.949 . S
H97 C62 0.950 . S
H98 C66 0.951 . S
H99 C67 0.950 . S
H100 C71 0.949 . S
H101 C72 0.950 . S
H102 C76 0.950 . S
H103 C78 0.950 . S
H104 C81 0.950 . S
H105 C83 0.950 . S
C106 C107 1.443 . S
C106 N110 1.376 . S
C106 C144 1.389 . S
C107 C106 1.443 . S
C107 C108 1.340 . S
C107 H147 0.951 . S
C108 C107 1.340 . S
C108 C109 1.439 . S
C108 H148 0.950 . S
C109 C108 1.439 . S
C109 N110 1.374 . S
C109 C143 1.395 . S
N110 C106 1.376 . S
N110 C109 1.374 . S
N110 Co111 2.008 . S
Co111 N110 2.008 . S
Co111 N112 1.995 . S
Co111 N117 2.008 1_455 S
Co111 N122 1.995 1_455 S
Co111 N127 2.282 . S
Co111 N133 2.282 . S
N112 Co111 1.995 . S
N112 C113 1.376 . S
N112 C116 1.383 . S
C113 N112 1.376 . S
C113 C114 1.446 . S
C113 C143 1.391 . S
C114 C113 1.446 . S
C114 C115 1.339 . S
C114 H149 0.949 . S
C115 C114 1.339 . S
C115 C116 1.439 . S
C115 H150 0.950 . S
C116 N112 1.383 . S
C116 C115 1.439 . S
C116 C145 1.392 . S
N117 Co111 2.008 1_655 S
N117 C118 1.376 . S
N117 C121 1.374 . S
C118 N117 1.376 . S
C118 C119 1.443 . S
C118 C145 1.389 1_655 S
C119 C118 1.443 . S
C119 C120 1.340 . S
C119 H151 0.951 . S
C120 C119 1.340 . S
C120 C121 1.439 . S
C120 H152 0.950 . S
C121 N117 1.374 . S
C121 C120 1.439 . S
C121 C146 1.395 . S
N122 Co111 1.995 1_655 S
N122 C123 1.376 . S
N122 C126 1.383 . S
C123 N122 1.376 . S
C123 C124 1.446 . S
C123 C146 1.391 . S
C124 C123 1.446 . S
C124 C125 1.339 . S
C124 H153 0.949 . S
C125 C124 1.339 . S
C125 C126 1.439 . S
C125 H154 0.950 . S
C126 N122 1.383 . S
C126 C125 1.439 . S
C126 C144 1.392 1_655 S
N127 Co111 2.282 . S
N127 C130 1.332 1_455 S
N127 C132 1.332 . S
C128 C129 1.386 1_455 S
C128 C131 1.388 . S
C129 C128 1.386 1_655 S
C129 C130 1.382 . S
C129 H155 0.950 . S
C130 N127 1.332 1_655 S
C130 C129 1.382 . S
C130 H141 0.952 . S
C131 C128 1.388 . S
C131 C132 1.382 . S
C131 H156 0.950 . S
C132 N127 1.332 . S
C132 C131 1.382 . S
C132 H142 0.948 . S
N133 Co111 2.282 . S
N133 C137 1.332 1_545 S
N133 C138 1.332 1_445 S
C134 C135 1.388 1_655 S
C134 C138 1.382 . S
C134 H157 0.950 . S
C135 C134 1.388 1_455 S
C135 C136 1.386 . S
C136 C135 1.386 . S
C136 C137 1.382 . S
C136 H158 0.950 . S
C137 N133 1.332 1_565 S
C137 C136 1.382 . S
C137 H139 0.952 . S
C138 N133 1.332 1_665 S
C138 C134 1.382 . S
C138 H140 0.948 1_565 S
H139 C137 0.952 . S
H140 C138 0.948 1_545 S
H141 C130 0.952 . S
H142 C132 0.948 . S
C143 C109 1.395 . S
C143 C113 1.391 . S
C144 C106 1.389 . S
C144 C126 1.392 1_455 S
C145 C116 1.392 . S
C145 C118 1.389 1_455 S
C146 C121 1.395 . S
C146 C123 1.391 . S
H147 C107 0.951 . S
H148 C108 0.950 . S
H149 C114 0.949 . S
H150 C115 0.950 . S
H151 C119 0.951 . S
H152 C120 0.950 . S
H153 C124 0.949 . S
H154 C125 0.950 . S
H155 C129 0.950 . S
H156 C131 0.950 . S
H157 C134 0.950 . S
H158 C136 0.950 . S
C159 C160 1.443 . S
C159 N163 1.376 . S
C159 C197 1.389 . S
C160 C159 1.443 . S
C160 C161 1.340 . S
C160 H200 0.951 . S
C161 C160 1.340 . S
C161 C162 1.439 . S
C161 H201 0.950 . S
C162 C161 1.439 . S
C162 N163 1.374 . S
C162 C196 1.395 . S
N163 C159 1.376 . S
N163 C162 1.374 . S
N163 Co164 2.008 . S
Co164 N163 2.008 . S
Co164 N165 1.995 . S
Co164 N170 2.008 . S
Co164 N175 1.995 . S
Co164 N180 2.282 . S
Co164 N186 2.282 . S
N165 Co164 1.995 . S
N165 C166 1.376 . S
N165 C169 1.383 1_455 S
C166 N165 1.376 . S
C166 C167 1.446 1_455 S
C166 C196 1.391 . S
C167 C166 1.446 1_655 S
C167 C168 1.339 . S
C167 H202 0.949 . S
C168 C167 1.339 . S
C168 C169 1.439 . S
C168 H203 0.950 . S
C169 N165 1.383 1_655 S
C169 C168 1.439 . S
C169 C198 1.392 . S
N170 Co164 2.008 . S
N170 C171 1.376 1_455 S
N170 C174 1.374 . S
C171 N170 1.376 1_655 S
C171 C172 1.443 . S
C171 C198 1.389 . S
C172 C171 1.443 . S
C172 C173 1.340 1_545 S
C172 H204 0.951 . S
C173 C172 1.340 1_565 S
C173 C174 1.439 1_665 S
C173 H205 0.950 . S
C174 N170 1.374 . S
C174 C173 1.439 1_445 S
C174 C199 1.395 1_545 S
N175 Co164 1.995 . S
N175 C176 1.376 . S
N175 C179 1.383 . S
C176 N175 1.376 . S
C176 C177 1.446 1_545 S
C176 C199 1.391 1_545 S
C177 C176 1.446 1_565 S
C177 C178 1.339 1_565 S
C177 H206 0.949 . S
C178 C177 1.339 1_545 S
C178 C179 1.439 . S
C178 H207 0.950 . S
C179 N175 1.383 . S
C179 C178 1.439 . S
C179 C197 1.392 . S
N180 Co164 2.282 . S
N180 C183 1.332 . S
N180 C185 1.332 . S
C181 C182 1.386 . S
C181 C184 1.388 . S
C182 C181 1.386 . S
C182 C183 1.382 . S
C182 H208 0.950 . S
C183 N180 1.332 . S
C183 C182 1.382 . S
C183 H194 0.952 . S
C184 C181 1.388 . S
C184 C185 1.382 . S
C184 H209 0.950 . S
C185 N180 1.332 . S
C185 C184 1.382 . S
C185 H195 0.948 . S
N186 Co164 2.282 . S
N186 C190 1.332 . S
N186 C191 1.332 . S
C187 C188 1.388 . S
C187 C191 1.382 . S
C187 H210 0.950 . S
C188 C187 1.388 . S
C188 C189 1.386 . S
C189 C188 1.386 . S
C189 C190 1.382 . S
C189 H211 0.950 . S
C190 N186 1.332 . S
C190 C189 1.382 . S
C190 H192 0.952 . S
C191 N186 1.332 . S
C191 C187 1.382 . S
C191 H193 0.948 . S
H192 C190 0.952 . S
H193 C191 0.948 . S
H194 C183 0.952 . S
H195 C185 0.948 . S
C196 C162 1.395 . S
C196 C166 1.391 . S
C197 C159 1.389 . S
C197 C179 1.392 . S
C198 C169 1.392 . S
C198 C171 1.389 . S
C199 C174 1.395 1_565 S
C199 C176 1.391 1_565 S
H200 C160 0.951 . S
H201 C161 0.950 . S
H202 C167 0.949 . S
H203 C168 0.950 . S
H204 C172 0.951 . S
H205 C173 0.950 . S
H206 C177 0.949 . S
H207 C178 0.950 . S
H208 C182 0.950 . S
H209 C184 0.950 . S
H210 C187 0.950 . S
H211 C189 0.950 . S
H212 C220 0.929 . S
H213 C222 0.930 1_655 S
H214 C224 0.930 . S
H215 C227 0.929 . S
H216 C230 0.930 . S
H217 C232 0.960 . S
H218 C232 0.960 . S
H219 C232 0.960 . S
C220 H212 0.929 . S
C220 C221 1.377 . S
C220 C222 1.384 . S
C221 C220 1.377 . S
C221 C227 1.390 . S
C222 H213 0.930 1_455 S
C222 C220 1.384 . S
C222 C223 1.372 . S
C223 C222 1.372 . S
C223 C224 1.400 . S
C223 C228 1.490 . S
C224 H214 0.930 . S
C224 C223 1.400 . S
C224 C227 1.386 . S
H225 C241 0.930 . S
H226 C242 0.931 . S
C227 H215 0.929 . S
C227 C221 1.390 . S
C227 C224 1.386 . S
C228 C223 1.490 . S
C228 C230 1.395 . S
C228 C231 1.403 . S
H229 C235 0.930 . S
C230 H216 0.930 . S
C230 C228 1.395 . S
C230 C233 1.403 . S
C231 C228 1.403 . S
C231 C232 1.524 . S
C231 C235 1.400 . S
C232 H217 0.960 . S
C232 H218 0.960 . S
C232 H219 0.960 . S
C232 C231 1.524 . S
C233 C230 1.403 . S
C233 C234 1.392 . S
C233 C237 1.495 . S
C234 C233 1.392 . S
C234 C235 1.385 . S
C234 C236 1.478 . S
C235 H229 0.930 . S
C235 C231 1.400 . S
C235 C234 1.385 . S
C236 C234 1.478 . S
C236 C238 1.381 . S
C236 C242 1.383 . S
C237 C233 1.495 . S
C237 H243 0.959 . S
C237 H244 0.961 . S
C237 H245 0.960 1_455 S
C238 C236 1.381 . S
C238 C239 1.394 . S
C238 H246 0.930 1_455 S
C239 C238 1.394 . S
C239 C240 1.383 . S
C239 H247 0.926 1_455 S
C240 C239 1.383 . S
C240 C241 1.377 . S
C241 H225 0.930 . S
C241 C240 1.377 . S
C241 C242 1.379 . S
C242 H226 0.931 . S
C242 C236 1.383 . S
C242 C241 1.379 . S
H243 C237 0.959 . S
H244 C237 0.961 . S
H245 C237 0.960 1_655 S
H246 C238 0.930 1_655 S
H247 C239 0.926 1_655 S
H248 C256 0.929 . S
H249 C258 0.930 . S
H250 C260 0.930 . S
H251 C263 0.929 . S
H252 C266 0.930 . S
H253 C268 0.960 . S
H254 C268 0.960 . S
H255 C268 0.960 . S
C256 H248 0.929 . S
C256 C257 1.377 . S
C256 C258 1.384 . S
C257 C256 1.377 . S
C257 C263 1.390 . S
C258 H249 0.930 . S
C258 C256 1.384 . S
C258 C259 1.372 . S
C259 C258 1.372 . S
C259 C260 1.400 . S
C259 C264 1.490 . S
C260 H250 0.930 . S
C260 C259 1.400 . S
C260 C263 1.386 . S
H261 C277 0.930 . S
H262 C278 0.931 . S
C263 H251 0.929 . S
C263 C257 1.390 . S
C263 C260 1.386 . S
C264 C259 1.490 . S
C264 C266 1.395 . S
C264 C267 1.403 . S
H265 C271 0.930 . S
C266 H252 0.930 . S
C266 C264 1.395 . S
C266 C269 1.403 . S
C267 C264 1.403 . S
C267 C268 1.524 . S
C267 C271 1.400 . S
C268 H253 0.960 . S
C268 H254 0.960 . S
C268 H255 0.960 . S
C268 C267 1.524 . S
C269 C266 1.403 . S
C269 C270 1.392 . S
C269 C273 1.495 . S
C270 C269 1.392 . S
C270 C271 1.385 . S
C270 C272 1.478 . S
C271 H265 0.930 . S
C271 C267 1.400 . S
C271 C270 1.385 . S
C272 C270 1.478 . S
C272 C274 1.381 . S
C272 C278 1.383 . S
C273 C269 1.495 . S
C273 H279 0.959 1_545 S
C273 H280 0.961 1_545 S
C273 H281 0.960 . S
C274 C272 1.381 . S
C274 C275 1.394 . S
C274 H282 0.930 . S
C275 C274 1.394 . S
C275 C276 1.383 . S
C275 H283 0.929 . S
C276 C275 1.383 . S
C276 C277 1.377 . S
C277 H261 0.930 . S
C277 C276 1.377 . S
C277 C278 1.379 . S
C278 H262 0.931 . S
C278 C272 1.383 . S
C278 C277 1.379 . S
H279 C273 0.959 1_565 S
H280 C273 0.961 1_565 S
H281 C273 0.960 . S
H282 C274 0.930 . S
H283 C275 0.929 . S
H284 C292 0.929 . S
H285 C294 0.930 . S
H286 C296 0.930 . S
H287 C299 0.929 . S
H288 C302 0.930 . S
H289 C304 0.960 . S
H290 C304 0.960 . S
H291 C304 0.960 . S
C292 H284 0.929 . S
C292 C293 1.377 . S
C292 C294 1.384 . S
C293 C292 1.377 . S
C293 C299 1.390 1_455 S
C294 H285 0.930 . S
C294 C292 1.384 . S
C294 C295 1.372 . S
C295 C294 1.372 . S
C295 C296 1.400 1_455 S
C295 C300 1.490 . S
C296 H286 0.930 . S
C296 C295 1.400 1_655 S
C296 C299 1.386 . S
H297 C313 0.930 . S
H298 C314 0.931 . S
C299 H287 0.929 . S
C299 C293 1.390 1_655 S
C299 C296 1.386 . S
C300 C295 1.490 . S
C300 C302 1.395 . S
C300 C303 1.403 . S
H301 C307 0.930 . S
C302 H288 0.930 . S
C302 C300 1.395 . S
C302 C305 1.403 . S
C303 C300 1.403 . S
C303 C304 1.524 . S
C303 C307 1.400 . S
C304 H289 0.960 . S
C304 H290 0.960 . S
C304 H291 0.960 . S
C304 C303 1.524 . S
C305 C302 1.403 . S
C305 C306 1.392 . S
C305 C309 1.495 . S
C306 C305 1.392 . S
C306 C307 1.385 . S
C306 C308 1.478 . S
C307 H301 0.930 . S
C307 C303 1.400 . S
C307 C306 1.385 . S
C308 C306 1.478 . S
C308 C310 1.381 . S
C308 C314 1.383 1_455 S
C309 C305 1.495 . S
C309 H315 0.959 . S
C309 H316 0.961 1_455 S
C309 H317 0.960 . S
C310 C308 1.381 . S
C310 C311 1.394 . S
C310 H318 0.930 . S
C311 C310 1.394 . S
C311 C312 1.383 . S
C311 H319 0.929 . S
C312 C311 1.383 . S
C312 C313 1.377 1_455 S
C313 H297 0.930 . S
C313 C312 1.377 1_655 S
C313 C314 1.379 . S
C314 H298 0.931 . S
C314 C308 1.383 1_655 S
C314 C313 1.379 . S
H315 C309 0.959 . S
H316 C309 0.961 1_655 S
H317 C309 0.960 . S
H318 C310 0.930 . S
H319 C311 0.929 . S
H320 C328 0.929 . S
H321 C330 0.930 . S
H322 C332 0.930 . S
H323 C335 0.929 . S
H324 C338 0.930 . S
H325 C340 0.960 . S
H326 C340 0.960 . S
H327 C340 0.960 . S
C328 H320 0.929 . S
C328 C329 1.377 . S
C328 C330 1.384 . S
C329 C328 1.377 . S
C329 C335 1.390 . S
C330 H321 0.930 . S
C330 C328 1.384 . S
C330 C331 1.372 . S
C331 C330 1.372 . S
C331 C332 1.400 . S
C331 C336 1.490 . S
C332 H322 0.930 . S
C332 C331 1.400 . S
C332 C335 1.386 . S
H333 C349 0.930 . S
H334 C350 0.931 . S
C335 H323 0.929 . S
C335 C329 1.390 . S
C335 C332 1.386 . S
C336 C331 1.490 . S
C336 C338 1.395 . S
C336 C339 1.403 . S
H337 C343 0.930 . S
C338 H324 0.930 . S
C338 C336 1.395 . S
C338 C341 1.403 . S
C339 C336 1.403 . S
C339 C340 1.524 . S
C339 C343 1.400 . S
C340 H325 0.960 . S
C340 H326 0.960 . S
C340 H327 0.960 . S
C340 C339 1.524 . S
C341 C338 1.403 . S
C341 C342 1.392 . S
C341 C345 1.495 . S
C342 C341 1.392 . S
C342 C343 1.385 . S
C342 C344 1.478 . S
C343 H337 0.930 . S
C343 C339 1.400 . S
C343 C342 1.385 . S
C344 C342 1.478 . S
C344 C346 1.381 . S
C344 C350 1.383 . S
C345 C341 1.495 . S
C345 H351 0.959 . S
C345 H352 0.961 . S
C345 H353 0.960 . S
C346 C344 1.381 . S
C346 C347 1.394 . S
C346 H354 0.930 . S
C347 C346 1.394 . S
C347 C348 1.383 . S
C347 H355 0.929 . S
C348 C347 1.383 . S
C348 C349 1.377 . S
C349 H333 0.930 . S
C349 C348 1.377 . S
C349 C350 1.379 . S
C350 H334 0.931 . S
C350 C344 1.383 . S
C350 C349 1.379 . S
H351 C345 0.959 . S
H352 C345 0.961 . S
H353 C345 0.960 . S
H354 C346 0.930 . S
H355 C347 0.929 . S
H356 C364 0.929 . S
H357 C366 0.930 . S
H358 C368 0.930 . S
H359 C371 0.929 . S
H360 C374 0.930 1_655 S
H361 C376 0.947 1_554 S
H362 C376 0.960 . S
H363 C376 0.960 . S
C364 H356 0.929 . S
C364 C365 1.377 . S
C364 C366 1.384 . S
C365 C364 1.377 . S
C365 C371 1.390 . S
C366 H357 0.930 . S
C366 C364 1.384 . S
C366 C367 1.372 . S
C367 C366 1.372 . S
C367 C368 1.400 . S
C367 C372 1.490 . S
C368 H358 0.930 . S
C368 C367 1.400 . S
C368 C371 1.386 . S
H369 C385 0.930 . S
H370 C386 0.931 . S
C371 H359 0.929 . S
C371 C365 1.390 . S
C371 C368 1.386 . S
C372 C367 1.490 . S
C372 C374 1.395 . S
C372 C375 1.403 . S
H373 C379 0.930 . S
C374 H360 0.930 1_455 S
C374 C372 1.395 . S
C374 C377 1.403 1_556 S
C375 C372 1.403 . S
C375 C376 1.524 . S
C375 C379 1.400 1_556 S
C376 H361 0.947 1_556 S
C376 H362 0.960 . S
C376 H363 0.960 . S
C376 C375 1.524 . S
C377 C374 1.403 1_554 S
C377 C378 1.392 . S
C377 C381 1.495 1_455 S
C378 C377 1.392 . S
C378 C379 1.385 . S
C378 C380 1.478 . S
C379 H373 0.930 . S
C379 C375 1.400 1_554 S
C379 C378 1.385 . S
C380 C378 1.478 . S
C380 C382 1.381 . S
C380 C386 1.383 . S
C381 C377 1.495 1_655 S
C381 H387 0.982 . S
C381 H388 0.961 . S
C381 H389 0.960 . S
C382 C380 1.381 . S
C382 C383 1.394 . S
C382 H390 0.930 . S
C383 C382 1.394 . S
C383 C384 1.383 . S
C383 H391 0.929 . S
C384 C383 1.383 . S
C384 C385 1.377 . S
C385 H369 0.930 . S
C385 C384 1.377 . S
C385 C386 1.379 . S
C386 H370 0.931 . S
C386 C380 1.383 . S
C386 C385 1.379 . S
H387 C381 0.982 . S
H388 C381 0.961 . S
H389 C381 0.960 . S
H390 C382 0.930 . S
H391 C383 0.929 . S
H392 C400 0.929 . S
H393 C402 0.930 . S
H394 C404 0.930 . S
H395 C407 0.929 . S
H396 C410 0.930 1_655 S
H397 C412 0.960 . S
H398 C412 0.960 . S
H399 C412 0.960 . S
C400 H392 0.929 . S
C400 C401 1.377 . S
C400 C402 1.384 . S
C401 C400 1.377 . S
C401 C407 1.390 . S
C402 H393 0.930 . S
C402 C400 1.384 . S
C402 C403 1.372 . S
C403 C402 1.372 . S
C403 C404 1.400 . S
C403 C408 1.490 . S
C404 H394 0.930 . S
C404 C403 1.400 . S
C404 C407 1.386 . S
H405 C421 0.930 . S
H406 C422 0.931 . S
C407 H395 0.929 . S
C407 C401 1.390 . S
C407 C404 1.386 . S
C408 C403 1.490 . S
C408 C410 1.395 . S
C408 C411 1.403 . S
H409 C415 0.930 . S
C410 H396 0.930 1_455 S
C410 C408 1.395 . S
C410 C413 1.403 . S
C411 C408 1.403 . S
C411 C412 1.524 . S
C411 C415 1.400 . S
C412 H397 0.960 . S
C412 H398 0.960 . S
C412 H399 0.960 . S
C412 C411 1.524 . S
C413 C410 1.403 . S
C413 C414 1.392 . S
C413 C417 1.495 1_455 S
C414 C413 1.392 . S
C414 C415 1.385 . S
C414 C416 1.478 . S
C415 H409 0.930 . S
C415 C411 1.400 . S
C415 C414 1.385 . S
C416 C414 1.478 . S
C416 C418 1.381 . S
C416 C422 1.383 . S
C417 C413 1.495 1_655 S
C417 H423 0.959 . S
C417 H424 0.961 . S
C417 H425 0.960 . S
C418 C416 1.381 . S
C418 C419 1.394 . S
C418 H426 0.930 . S
C419 C418 1.394 . S
C419 C420 1.383 . S
C419 H427 0.929 . S
C420 C419 1.383 . S
C420 C421 1.377 . S
C421 H405 0.930 . S
C421 C420 1.377 . S
C421 C422 1.379 . S
C422 H406 0.931 . S
C422 C416 1.383 . S
C422 C421 1.379 . S
H423 C417 0.959 . S
H424 C417 0.961 . S
H425 C417 0.960 . S
H426 C418 0.930 . S
H427 C419 0.929 . S
H428 C436 0.931 1_655 S
H429 C438 0.930 . S
H430 C440 0.930 . S
H431 C443 0.929 . S
H432 C446 0.930 . S
H433 C448 0.960 1_565 S
H434 C448 0.960 . S
H435 C448 0.960 . S
C436 H428 0.931 1_455 S
C436 C437 1.377 . S
C436 C438 1.384 . S
C437 C436 1.377 . S
C437 C443 1.390 . S
C438 H429 0.930 . S
C438 C436 1.384 . S
C438 C439 1.372 . S
C439 C438 1.372 . S
C439 C440 1.400 . S
C439 C444 1.490 . S
C440 H430 0.930 . S
C440 C439 1.400 . S
C440 C443 1.386 . S
H441 C457 0.930 . S
H442 C458 0.931 . S
C443 H431 0.929 . S
C443 C437 1.390 . S
C443 C440 1.386 . S
C444 C439 1.490 . S
C444 C446 1.395 . S
C444 C447 1.403 . S
H445 C451 0.930 . S
C446 H432 0.930 . S
C446 C444 1.395 . S
C446 C449 1.403 . S
C447 C444 1.403 . S
C447 C448 1.524 . S
C447 C451 1.400 . S
C448 H433 0.960 1_545 S
C448 H434 0.960 . S
C448 H435 0.960 . S
C448 C447 1.524 . S
C449 C446 1.403 . S
C449 C450 1.392 . S
C449 C453 1.495 . S
C450 C449 1.392 . S
C450 C451 1.385 . S
C450 C452 1.478 . S
C451 H445 0.930 . S
C451 C447 1.400 . S
C451 C450 1.385 . S
C452 C450 1.478 . S
C452 C454 1.381 . S
C452 C458 1.383 . S
C453 C449 1.495 . S
C453 H459 0.959 . S
C453 H460 0.961 . S
C453 H461 0.960 . S
C454 C452 1.381 . S
C454 C455 1.394 . S
C454 H462 0.930 . S
C455 C454 1.394 . S
C455 C456 1.383 . S
C455 H463 0.929 . S
C456 C455 1.383 . S
C456 C457 1.377 . S
C457 H441 0.930 . S
C457 C456 1.377 . S
C457 C458 1.379 . S
C458 H442 0.931 . S
C458 C452 1.383 . S
C458 C457 1.379 . S
H459 C453 0.959 . S
H460 C453 0.961 . S
H461 C453 0.960 . S
H462 C454 0.930 . S
H463 C455 0.929 . S
H464 C472 0.929 . S
H465 C474 0.930 . S
H466 C476 0.930 1_655 S
H467 C479 0.929 1_655 S
H468 C482 0.930 . S
H469 C484 0.960 . S
H470 C484 0.960 1_545 S
H471 C484 0.960 . S
C472 H464 0.929 . S
C472 C473 1.377 . S
C472 C474 1.384 . S
C473 C472 1.377 . S
C473 C479 1.390 . S
C474 H465 0.930 . S
C474 C472 1.384 . S
C474 C475 1.372 . S
C475 C474 1.372 . S
C475 C476 1.400 . S
C475 C480 1.490 . S
C476 H466 0.930 1_455 S
C476 C475 1.400 . S
C476 C479 1.386 . S
H477 C493 0.930 . S
H478 C494 0.931 . S
C479 H467 0.929 1_455 S
C479 C473 1.390 . S
C479 C476 1.386 . S
C480 C475 1.490 . S
C480 C482 1.395 . S
C480 C483 1.403 . S
H481 C487 0.930 . S
C482 H468 0.930 . S
C482 C480 1.395 . S
C482 C485 1.403 . S
C483 C480 1.403 . S
C483 C484 1.524 1_545 S
C483 C487 1.400 . S
C484 H469 0.960 . S
C484 H470 0.960 1_565 S
C484 H471 0.960 . S
C484 C483 1.524 1_565 S
C485 C482 1.403 . S
C485 C486 1.392 . S
C485 C489 1.495 1_455 S
C486 C485 1.392 . S
C486 C487 1.385 . S
C486 C488 1.478 . S
C487 H481 0.930 . S
C487 C483 1.400 . S
C487 C486 1.385 . S
C488 C486 1.478 . S
C488 C490 1.381 . S
C488 C494 1.383 1_455 S
C489 C485 1.495 1_655 S
C489 H495 0.959 . S
C489 H496 0.961 . S
C489 H497 0.960 1_655 S
C490 C488 1.381 . S
C490 C491 1.394 . S
C490 H498 0.930 . S
C491 C490 1.394 . S
C491 C492 1.383 . S
C491 H499 0.929 . S
C492 C491 1.383 . S
C492 C493 1.377 1_455 S
C493 H477 0.930 . S
C493 C492 1.377 1_655 S
C493 C494 1.379 . S
C494 H478 0.931 . S
C494 C488 1.383 1_655 S
C494 C493 1.379 . S
H495 C489 0.959 . S
H496 C489 0.961 . S
H497 C489 0.960 1_455 S
H498 C490 0.930 . S
H499 C491 0.929 . S
C221 C22 1.500 . S
C240 C29 1.498 . S
C257 C91 1.499 . S
C276 C92 1.497 . S
C293 C128 1.499 . S
C312 C135 1.494 . S
C329 C197 1.500 . S
C348 C198 1.499 . S
C365 C144 1.508 . S
C384 C39 1.502 . S
C401 C181 1.505 . S
C420 C82 1.499 . S
C437 C188 1.506 . S
C456 C38 1.500 . S
C473 C75 1.506 . S
C492 C145 1.506 . S
