# Generated by pormake.
# Topology loh, (5)-cn, num edge types: 1
# Building blocks:
#     Node 0, Type 0, BuildingBlock: XOMCOT_clean_sbu_1, # of connection points: 5
#     Node 1, Type 0, BuildingBlock: XOMCOT_clean_sbu_1, # of connection points: 5
#     Node 2, Type 0, BuildingBlock: XOMCOT_clean_sbu_1, # of connection points: 5
#     Node 3, Type 0, BuildingBlock: XOMCOT_clean_sbu_1, # of connection points: 5
#     Node 4, Type 0, BuildingBlock: XOMCOT_clean_sbu_1, # of connection points: 5
#     Node 5, Type 0, BuildingBlock: XOMCOT_clean_sbu_1, # of connection points: 5
#     Node 6, Type 0, BuildingBlock: XOMCOT_clean_sbu_1, # of connection points: 5
#     Node 7, Type 0, BuildingBlock: XOMCOT_clean_sbu_1, # of connection points: 5
#     Edge 8, Type (0, 0), BuildingBlock: AJUNOK_clean_linker_0, # of connection points: 2
#     Edge 9, Type (0, 0), BuildingBlock: AJUNOK_clean_linker_0, # of connection points: 2
#     Edge 10, Type (0, 0), BuildingBlock: AJUNOK_clean_linker_0, # of connection points: 2
#     Edge 11, Type (0, 0), BuildingBlock: AJUNOK_clean_linker_0, # of connection points: 2
#     Edge 12, Type (0, 0), BuildingBlock: AJUNOK_clean_linker_0, # of connection points: 2
#     Edge 13, Type (0, 0), BuildingBlock: AJUNOK_clean_linker_0, # of connection points: 2
#     Edge 14, Type (0, 0), BuildingBlock: AJUNOK_clean_linker_0, # of connection points: 2
#     Edge 15, Type (0, 0), BuildingBlock: AJUNOK_clean_linker_0, # of connection points: 2
#     Edge 16, Type (0, 0), BuildingBlock: AJUNOK_clean_linker_0, # of connection points: 2
#     Edge 17, Type (0, 0), BuildingBlock: AJUNOK_clean_linker_0, # of connection points: 2
#     Edge 18, Type (0, 0), BuildingBlock: AJUNOK_clean_linker_0, # of connection points: 2
#     Edge 19, Type (0, 0), BuildingBlock: AJUNOK_clean_linker_0, # of connection points: 2
#     Edge 20, Type (0, 0), BuildingBlock: AJUNOK_clean_linker_0, # of connection points: 2
#     Edge 21, Type (0, 0), BuildingBlock: AJUNOK_clean_linker_0, # of connection points: 2
#     Edge 22, Type (0, 0), BuildingBlock: AJUNOK_clean_linker_0, # of connection points: 2
#     Edge 23, Type (0, 0), BuildingBlock: AJUNOK_clean_linker_0, # of connection points: 2
#     Edge 24, Type (0, 0), BuildingBlock: AJUNOK_clean_linker_0, # of connection points: 2
#     Edge 25, Type (0, 0), BuildingBlock: AJUNOK_clean_linker_0, # of connection points: 2
#     Edge 26, Type (0, 0), BuildingBlock: AJUNOK_clean_linker_0, # of connection points: 2
#     Edge 27, Type (0, 0), BuildingBlock: AJUNOK_clean_linker_0, # of connection points: 2
# Relax obj value: 0.222
# Max RMSD: 0.136
# Mean RMSD: 0.136
data_MOF--net-loh--node1-XOMCOT_clean_sbu_1--edge1-AJUNOK_clean_linker_0
_symmetry_space_group_name_H-M    P1
_symmetry_Int_Tables_number       1
_symmetry_cell_setting            triclinic
loop_
_symmetry_equiv_pos_as_xyz
'x, y, z'
_cell_length_a     19.846812
_cell_length_b     18.723746
_cell_length_c     31.013353
_cell_angle_alpha  90.419664
_cell_angle_beta   89.861
_cell_angle_gamma 90.465262
loop_
_atom_site_label
_atom_site_type_symbol
_atom_site_fract_x
_atom_site_fract_y
_atom_site_fract_z
_atom_type_partial_charge
C0 C 1.04482 0.11446 0.14828 0.0
C1 C 1.05572 0.04818 0.16496 0.0
N2 N 1.04953 0.05215 0.20807 0.0
N3 N 1.03147 0.16139 0.18042 0.0
C4 C 1.03462 0.12148 0.21677 0.0
H5 H 1.04844 0.12758 0.11454 0.0
Co6 Co 1.01511 0.25944 0.17022 0.0
C7 C 1.03569 0.30017 0.25389 0.0
O8 O 0.97382 0.27477 0.25567 0.0
N9 N 0.99892 0.35493 0.15881 0.0
C10 C 0.95845 0.46536 0.15693 0.0
C11 C 0.96487 0.40469 0.18167 0.0
C12 C 1.01231 0.38617 0.12073 0.0
N13 N 0.98815 0.45255 0.11866 0.0
O14 O 0.09478 0.26387 0.13298 0.0
H15 H 0.94311 0.39639 0.21323 0.0
H16 H 1.03657 0.35988 0.09382 0.0
O17 O 1.06904 0.28964 0.21923 0.0
C18 C 0.15533 0.24538 0.14084 0.0
O19 O 0.16975 0.21671 0.1782 0.0
N20 N 0.95652 0.23563 0.12425 0.0
C21 C 0.85396 0.24913 0.06336 0.0
C22 C 0.83914 0.24776 0.10754 0.0
C23 C 0.89114 0.24019 0.1374 0.0
C24 C 0.9718 0.23227 0.08123 0.0
C25 C 0.92084 0.2384 0.05016 0.0
H26 H 0.87998 0.2444 0.17149 0.0
H27 H 1.02361 0.23032 0.07055 0.0
H28 H 1.02849 0.14309 0.24895 0.0
H29 H 1.06824 1.0006 0.14667 0.0
H30 H 0.93108 0.51324 0.16538 0.0
H31 H 0.78813 0.25597 0.11895 0.0
H32 H 0.93421 0.23984 1.01629 0.0
C33 C 0.52597 0.87277 0.70063 0.0
C34 C 0.5089 0.93753 0.71837 0.0
N35 N 0.56347 0.9804 0.71726 0.0
N36 N 0.59088 0.87468 0.68736 0.0
C37 C 0.61286 0.94105 0.69889 0.0
H38 H 0.49283 0.82688 0.69753 0.0
Co39 Co 0.63484 0.79547 0.6619 0.0
C40 C 0.63105 0.70921 0.73375 0.0
O41 O 0.69214 0.73561 0.73827 0.0
N42 N 0.6792 0.71787 0.63823 0.0
C43 C 0.76433 0.64917 0.61765 0.0
C44 C 0.74319 0.69932 0.64724 0.0
C45 C 0.66221 0.67803 0.60354 0.0
N46 N 0.71336 0.63685 0.59002 0.0
O47 O 0.55603 0.77799 0.62362 0.0
H48 H 0.77399 0.72404 0.67197 0.0
H49 H 0.61532 0.68285 0.58623 0.0
O50 O 0.59389 0.73293 0.70366 0.0
C51 C 0.51779 0.82138 0.60368 0.0
O52 O 0.53159 0.89011 0.60559 0.0
N53 N 0.68128 0.85291 0.62133 0.0
C54 C 0.79584 0.85745 0.56881 0.0
C55 C 0.79936 0.87854 0.61226 0.0
C56 C 0.74138 0.87556 0.63804 0.0
C57 C 0.67535 0.84239 0.57772 0.0
C58 C 0.73212 0.84459 0.55095 0.0
H59 H 0.74716 0.87994 0.67261 0.0
H60 H 0.63003 0.8207 0.56375 0.0
H61 H 0.66369 0.96052 0.69408 0.0
H62 H 0.46045 0.95174 0.73194 0.0
H63 H 0.81374 0.62531 0.61584 0.0
H64 H 0.84755 0.88989 0.62725 0.0
H65 H 0.7271 0.82764 0.51763 0.0
C66 C 0.08171 0.93855 0.91744 0.0
C67 C 0.09296 1.0017 0.89622 0.0
N68 N 0.08663 0.98906 0.85375 0.0
N69 N 1.06791 0.8861 0.8885 0.0
C70 C 1.07202 0.91872 0.84972 0.0
H71 H 0.08365 0.93154 0.95196 0.0
Co72 Co 1.04302 0.79181 0.9022 0.0
C73 C 1.05749 0.73849 0.81962 0.0
O74 O 0.99543 0.7621 0.81719 0.0
N75 N 1.01608 0.69972 0.91613 0.0
C76 C 0.94156 0.61569 0.9336 0.0
C77 C 0.95614 0.67033 0.90545 0.0
C78 C 1.03795 0.66068 0.94953 0.0
N79 N 0.99261 0.61107 0.96197 0.0
O80 O 0.12431 0.7825 0.93724 0.0
H81 H 0.9219 0.69236 0.88206 0.0
H82 H 0.08382 0.67189 0.9666 0.0
O83 O 0.09138 0.75364 0.85334 0.0
C84 C 0.18577 0.79676 0.9283 0.0
O85 O 0.20115 0.82339 0.89042 0.0
N86 N 0.99115 0.8244 0.94944 0.0
C87 C 0.89366 0.82348 1.01464 0.0
C88 C 0.87537 0.83372 0.97145 0.0
C89 C 0.92509 0.83424 0.93933 0.0
C90 C 1.0106 0.821 0.99164 0.0
C91 C 0.96254 0.82109 1.02471 0.0
H92 H 0.91027 0.83573 0.9058 0.0
H93 H 1.06267 0.8133 1.00021 0.0
H94 H 1.06393 0.89192 0.81914 0.0
H95 H 0.10612 0.05272 0.91069 0.0
H96 H 0.89435 0.58652 0.93559 0.0
H97 H 0.82286 0.83613 0.96218 0.0
H98 H 0.97904 0.81547 0.05776 0.0
C99 C 0.59098 0.12909 0.41979 0.0
C100 C 0.57765 0.06167 0.40434 0.0
N101 N 0.59749 0.05788 0.36281 0.0
N102 N 0.61905 0.16893 0.38835 0.0
C103 C 0.62253 0.12395 0.35388 0.0
H104 H 0.58223 0.1472 0.45248 0.0
Co105 Co 0.65275 0.2623 0.39712 0.0
C106 C 0.6358 0.30705 0.31438 0.0
O107 O 0.69216 0.27117 0.31065 0.0
N108 N 0.68696 0.35359 0.40641 0.0
C109 C 0.74302 0.45668 0.4032 0.0
C110 C 0.72926 0.39323 0.38204 0.0
C111 C 0.67688 0.39309 0.44218 0.0
N112 N 0.70993 0.45599 0.4412 0.0
O113 O 0.57673 0.28312 0.43728 0.0
H114 H 0.74988 0.37692 0.35128 0.0
H115 H 0.64794 0.37486 0.46958 0.0
O116 O 0.60228 0.29976 0.3492 0.0
C117 C 0.51399 0.29292 0.42995 0.0
O118 O 0.49063 0.28534 0.3906 0.0
N119 N 0.70897 0.22993 0.44162 0.0
C120 C 0.81701 0.23404 0.49892 0.0
C121 C 0.82777 0.22231 0.45478 0.0
C122 C 0.77284 0.21993 0.42668 0.0
C123 C 0.69688 0.2346 0.48495 0.0
C124 C 0.75058 0.23659 0.51429 0.0
H125 H 0.78176 0.21774 0.39227 0.0
H126 H 0.64676 0.24356 0.49694 0.0
H127 H 0.64284 0.13947 0.32294 0.0
H128 H 0.55623 1.01813 0.42275 0.0
H129 H 0.77464 0.49953 0.39129 0.0
H130 H 0.87844 0.22056 0.44176 0.0
H131 H 0.74051 0.24635 0.54816 0.0
C132 C 0.59071 0.62092 0.14691 0.0
C133 C 0.60464 0.55469 0.1626 0.0
N134 N 0.59361 0.555 0.20539 0.0
N135 N 0.56959 0.66418 0.17918 0.0
C136 C 0.57139 0.62195 0.21472 0.0
H137 H 0.59628 0.63624 0.11365 0.0
Co138 Co 0.54267 0.76001 0.16923 0.0
C139 C 0.55469 0.80927 0.25218 0.0
O140 O 0.49409 0.78064 0.2542 0.0
N141 N 0.51534 0.85296 0.15824 0.0
C142 C 0.44951 0.94756 0.15033 0.0
C143 C 0.46221 0.88817 0.17508 0.0
C144 C 0.53425 0.89202 0.12389 0.0
N145 N 0.49545 0.94961 0.11837 0.0
O146 O 0.62324 0.7757 0.13412 0.0
H147 H 0.43113 0.86876 0.20122 0.0
H148 H 0.57071 0.87473 0.10022 0.0
O149 O 0.59053 0.79561 0.21904 0.0
C150 C 0.68491 0.7646 0.1431 0.0
O151 O 0.70088 0.73707 0.18052 0.0
N152 N 0.49079 0.73058 0.12156 0.0
C153 C 0.39424 0.73607 0.05619 0.0
C154 C 0.37496 0.72992 0.09964 0.0
C155 C 0.42411 0.72636 0.13172 0.0
C156 C 0.51091 0.73141 0.07938 0.0
C157 C 0.46328 0.73242 0.04622 0.0
H158 H 0.40896 0.7273 0.16525 0.0
H159 H 0.56356 0.73548 0.07088 0.0
H160 H 0.55757 0.64002 0.24673 0.0
H161 H 0.62107 0.50931 0.1436 0.0
H162 H 0.40751 0.98368 0.15387 0.0
H163 H 0.32252 0.73248 0.10918 0.0
H164 H 0.48076 0.7336 1.01315 0.0
C165 C 1.05719 0.37691 0.70431 0.0
C166 C 1.04159 0.4413 0.72284 0.0
N167 N 0.09605 0.48407 0.7203 0.0
N168 N 0.12097 0.37883 0.68891 0.0
C169 C 0.14397 0.44502 0.70003 0.0
H170 H 1.0237 0.33116 0.70217 0.0
Co171 Co 0.16074 0.29808 0.66244 0.0
C172 C 0.16162 0.20709 0.73265 0.0
O173 O 0.22648 0.22119 0.73071 0.0
N174 N 0.20048 0.21855 0.63785 0.0
C175 C 0.28119 0.15153 0.6094 0.0
C176 C 0.26748 0.20653 0.63753 0.0
C177 C 0.17416 0.16914 0.61082 0.0
N178 N 0.22231 0.12836 0.59301 0.0
O179 O 0.07823 0.28281 0.62728 0.0
H180 H 0.30431 0.23893 0.65447 0.0
H181 H 0.12164 0.16635 0.60164 0.0
O182 O 0.12199 0.23802 0.70657 0.0
C183 C 1.0409 0.328 0.60803 0.0
O184 O 1.05701 0.39617 0.60982 0.0
N185 N 0.20451 0.35305 0.61891 0.0
C186 C 0.30986 0.36579 0.55877 0.0
C187 C 0.31919 0.38639 0.602 0.0
C188 C 0.26567 0.37984 0.63154 0.0
C189 C 0.19335 0.33908 0.57604 0.0
C190 C 0.2449 0.34609 0.54562 0.0
H191 H 0.27625 0.38639 0.66552 0.0
H192 H 0.14842 0.31219 0.56516 0.0
H193 H 0.19444 0.46438 0.69369 0.0
H194 H 0.99425 0.45529 0.73801 0.0
H195 H 0.33048 0.13233 0.60007 0.0
H196 H 0.36856 0.40229 0.61356 0.0
H197 H 0.23553 0.32851 0.5128 0.0
C198 C 0.48458 0.43394 0.89967 0.0
C199 C 0.49619 0.49608 0.87784 0.0
N200 N 0.54056 0.48278 0.84619 0.0
N201 N 0.52131 0.38029 0.88212 0.0
C202 C 0.55543 0.41247 0.84942 0.0
H203 H 0.44996 0.42942 0.92637 0.0
Co204 Co 0.51515 0.28183 0.89763 0.0
C205 C 0.52985 0.23899 0.81397 0.0
O206 O 0.46743 0.26186 0.81351 0.0
N207 N 0.50646 0.1869 0.91245 0.0
C208 C 0.45513 0.08289 0.92324 0.0
C209 C 0.46183 0.13984 0.89563 0.0
C210 C 0.52712 0.15717 0.94953 0.0
N211 N 0.49637 0.09424 0.95707 0.0
O212 O 0.59979 0.28656 0.93008 0.0
H213 H 0.43131 0.14955 0.86748 0.0
H214 H 0.55793 0.18478 0.97316 0.0
O215 O 0.56519 0.25249 0.84737 0.0
C216 C 0.6383 0.33407 0.94686 0.0
O217 O 0.62194 0.40175 0.94458 0.0
N218 N 0.46106 0.30353 0.94588 0.0
C219 C 0.36393 0.29719 1.01112 0.0
C220 C 0.34525 0.29281 0.96765 0.0
C221 C 0.39465 0.29577 0.93561 0.0
C222 C 0.48021 0.3118 0.98794 0.0
C223 C 0.43216 0.30905 1.02108 0.0
H224 H 0.38045 0.28789 0.90224 0.0
H225 H 0.53253 0.31636 0.99665 0.0
H226 H 0.58873 0.38466 0.82746 0.0
H227 H 0.47339 0.54734 0.88456 0.0
H228 H 0.4193 0.03939 0.92017 0.0
H229 H 0.29328 0.28335 0.9585 0.0
H230 H 0.44853 0.31381 0.05427 0.0
C231 C 1.01716 0.65562 0.37743 0.0
C232 C 1.00397 0.58822 0.36189 0.0
N233 N 1.06273 0.55383 0.35715 0.0
N234 N 0.08406 0.6641 0.38396 0.0
C235 C 0.11082 0.60129 0.37002 0.0
H236 H 0.98005 0.69696 0.38201 0.0
Co237 Co 0.12457 0.75268 0.39991 0.0
C238 C 0.1112 0.81523 0.32059 0.0
O239 O 0.171 0.78666 0.31557 0.0
N240 N 0.16501 0.83894 0.41354 0.0
C241 C 0.24741 0.9168 0.42613 0.0
C242 C 0.22891 0.85672 0.4032 0.0
C243 C 0.14486 0.8898 0.44153 0.0
N244 N 0.19472 0.93658 0.45079 0.0
O245 O 1.04745 0.77519 0.43804 0.0
H246 H 0.26153 0.82479 0.38296 0.0
H247 H 0.09592 0.89037 0.4568 0.0
O248 O 0.07756 0.79957 0.35424 0.0
C249 C 1.01352 0.73861 0.46527 0.0
O250 O 1.02934 0.67159 0.47207 0.0
N251 N 0.17657 0.71157 0.44536 0.0
C252 C 0.28826 0.71879 0.50085 0.0
C253 C 0.29433 0.68918 0.45932 0.0
C254 C 0.23757 0.68581 0.43208 0.0
C255 C 0.16938 0.7342 0.4873 0.0
C256 C 0.22392 0.73661 0.51552 0.0
H257 H 0.24494 0.67217 0.39849 0.0
H258 H 0.12511 0.76115 0.49835 0.0
H259 H 0.16428 0.59112 0.36807 0.0
H260 H 0.95507 0.56721 0.35261 0.0
H261 H 0.29736 0.9404 0.42735 0.0
H262 H 0.34343 0.67552 0.44654 0.0
H263 H 0.21712 0.76016 0.54725 0.0
C264 C 0.25019 0.32013 0.04396 0.0
C265 C 0.3126 0.28509 0.0455 0.0
C266 C 0.19967 0.30669 0.07469 0.0
C267 C 0.20945 0.2577 0.10833 0.0
H268 H 0.24033 0.35844 1.01879 0.0
H269 H 0.1528 0.33548 0.07216 0.0
S270 S 0.36218 0.1477 0.12476 0.0
N271 N 0.38003 0.19625 0.08195 0.0
N272 N 0.28584 0.1717 0.14006 0.0
C273 C 0.27157 0.22184 0.11002 0.0
C274 C 0.3229 0.23538 0.0786 0.0
C275 C 0.45229 0.72189 0.56611 0.0
C276 C 0.45981 0.79497 0.57701 0.0
C277 C 0.39778 0.69707 0.54067 0.0
C278 C 0.34825 0.74424 0.52582 0.0
H279 H 0.48878 0.68351 0.57716 0.0
H280 H 0.3937 0.64058 0.53327 0.0
S281 S 0.34479 0.94025 0.54422 0.0
N282 N 0.41265 0.91382 0.56991 0.0
N283 N 0.31137 0.86739 0.5227 0.0
C284 C 0.35556 0.81719 0.53617 0.0
C285 C 0.41088 0.84244 0.56159 0.0
C286 C 0.27886 0.71759 1.02397 0.0
C287 C 0.34273 0.75081 1.02226 0.0
C288 C 0.22842 0.73347 0.99398 0.0
C289 C 0.23979 0.78214 0.96029 0.0
H290 H 0.26752 0.67875 0.0487 0.0
H291 H 0.18041 0.70663 0.99725 0.0
S292 S 0.39659 0.88741 0.94264 0.0
N293 N 0.41274 0.83884 0.98549 0.0
N294 N 0.3193 0.86547 0.92789 0.0
C295 C 0.30333 0.81589 0.95812 0.0
C296 C 0.35436 0.80093 0.98925 0.0
C297 C 0.41162 0.35943 0.45447 0.0
C298 C 0.46684 0.31599 0.46484 0.0
C299 C 0.36324 0.37859 0.48554 0.0
C300 C 0.36768 0.35497 0.52842 0.0
H301 H 0.40512 0.37821 0.4218 0.0
H302 H 0.32097 0.41078 0.47562 0.0
S303 S 0.50075 0.23764 0.57209 0.0
N304 N 0.52239 0.24914 0.52115 0.0
N305 N 0.43136 0.28431 0.57938 0.0
C306 C 0.42327 0.31248 0.53948 0.0
C307 C 0.47279 0.29321 0.50779 0.0
C308 C 0.73238 0.83677 0.08181 0.0
C309 C 0.73822 0.77946 0.1107 0.0
C310 C 0.78305 0.85148 0.05124 0.0
C311 C 0.84127 0.80912 0.04822 0.0
H312 H 0.68885 0.87111 0.08318 0.0
H313 H 0.77676 0.89657 1.02997 0.0
S314 S 0.87609 0.64759 0.11304 0.0
N315 N 0.80423 0.67756 0.13247 0.0
N316 N 0.89827 0.70358 0.07457 0.0
C317 C 0.84659 0.75061 0.07632 0.0
C318 C 0.79545 0.73623 0.10762 0.0
C319 C 0.95217 0.2369 0.58657 0.0
C320 C 0.98398 0.30369 0.58011 0.0
C321 C 0.89763 0.21425 0.5606 0.0
C322 C 0.87408 0.25702 0.52681 0.0
H323 H 0.96897 0.20229 0.61216 0.0
H324 H 0.87414 0.16289 0.56672 0.0
S325 S 0.94022 0.43485 0.49563 0.0
N326 N 0.98762 0.4114 0.53667 0.0
N327 N 0.88605 0.36859 0.48829 0.0
C328 C 0.90556 0.32333 0.51989 0.0
C329 C 0.96026 0.34669 0.54639 0.0
C330 C 0.76939 0.33635 0.0364 0.0
C331 C 0.80095 0.26966 1.03204 0.0
C332 C 0.71832 0.35736 1.00802 0.0
C333 C 0.69577 0.31199 0.97451 0.0
H334 H 0.78446 0.37273 0.06203 0.0
H335 H 0.69529 0.409 1.01311 0.0
S336 S 0.76361 0.13229 0.94869 0.0
N337 N 0.80776 0.15915 0.99099 0.0
N338 N 0.71069 0.19752 0.93813 0.0
C339 C 0.72744 0.24522 0.96962 0.0
C340 C 0.78034 0.22441 0.99817 0.0
C341 C 0.86701 0.85515 0.50123 0.0
C342 C 0.85731 0.83509 0.54453 0.0
C343 C 0.91927 0.82581 0.47611 0.0
C344 C 0.96255 0.77395 0.49306 0.0
H345 H 0.83302 0.89266 0.4864 0.0
H346 H 0.92413 0.84174 0.44272 0.0
S347 S 0.96084 0.70526 0.60497 0.0
N348 N 0.89767 0.76198 0.60352 0.0
N349 N 0.99491 0.7069 0.55638 0.0
C350 C 0.95482 0.75517 0.5366 0.0
C351 C 0.90247 0.78567 0.56229 0.0
C352 C 0.10153 0.41187 0.27417 0.0
C353 C 1.05635 0.35651 0.2858 0.0
C354 C 0.10805 0.47456 0.29957 0.0
C355 C 1.06953 0.48407 0.33733 0.0
H356 H 0.12844 0.40913 0.24379 0.0
H357 H 0.13957 0.51785 0.288 0.0
S358 S 0.95238 0.3516 0.38546 0.0
N359 N 0.97927 0.31256 0.34081 0.0
N360 N 0.99084 0.43008 0.3875 0.0
C361 C 1.02841 0.42707 0.35087 0.0
C362 C 1.02209 0.36342 0.32543 0.0
C363 C 0.53966 0.63819 0.76995 0.0
C364 C 0.60847 0.64859 0.76097 0.0
C365 C 0.51781 0.58266 0.79691 0.0
C366 C 0.5637 0.53441 0.8151 0.0
H367 H 0.50257 0.67429 0.75699 0.0
H368 H 0.46452 0.57766 0.80397 0.0
S369 S 0.74866 0.53514 0.79933 0.0
N370 N 0.72222 0.60371 0.77093 0.0
N371 N 0.68049 0.49903 0.82104 0.0
C372 C 0.63224 0.54256 0.80517 0.0
C373 C 0.65477 0.59981 0.77833 0.0
C374 C 1.04901 0.60427 0.72782 0.0
C375 C 0.09961 0.55527 0.73809 0.0
C376 C 1.03975 0.66672 0.75224 0.0
C377 C 0.0801 0.68232 0.78851 0.0
H378 H 1.0139 0.59199 0.70207 0.0
H379 H 0.99784 0.70074 0.74408 0.0
S380 S 0.22447 0.57411 0.82601 0.0
N381 N 0.19446 0.52894 0.7842 0.0
N382 N 0.1773 0.6461 0.83071 0.0
C383 C 0.13431 0.63622 0.79713 0.0
C384 C 0.14392 0.57267 0.77183 0.0
C385 C 0.56836 0.41531 0.29197 0.0
C386 C 0.62291 0.36854 0.28484 0.0
C387 C 0.55971 0.47729 0.26687 0.0
C388 C 0.60533 0.49505 0.23372 0.0
H389 H 0.53228 0.40436 0.31738 0.0
H390 H 0.5165 0.51086 0.27293 0.0
S391 S 0.75935 0.39444 0.20367 0.0
N392 N 0.72443 0.3469 0.24245 0.0
N393 N 0.70938 0.46344 0.19711 0.0
C394 C 0.66066 0.44967 0.22689 0.0
C395 C 0.66906 0.3865 0.25186 0.0
C396 C 0.52769 0.88609 0.31617 0.0
C397 C 0.57218 0.86957 0.28215 0.0
C398 C 0.53642 0.9474 0.34178 0.0
C399 C 0.59029 0.99553 0.335 0.0
H400 H 0.48437 0.85224 0.32262 0.0
H401 H 0.49943 0.95787 0.36668 0.0
S402 S 0.72423 0.97535 0.25206 0.0
N403 N 0.67415 0.90565 0.24402 0.0
N404 N 0.6913 1.02018 0.29295 0.0
C405 C 0.63637 0.9791 0.30179 0.0
C406 C 0.62733 0.91631 0.27539 0.0
C407 C 0.15671 0.03259 0.79389 0.0
C408 C 0.09962 0.03989 0.82024 0.0
C409 C 0.17576 0.08687 0.76525 0.0
C410 C 0.1374 0.14947 0.76129 0.0
H411 H 0.18819 0.98591 0.79681 0.0
H412 H 0.2212 0.08003 0.74627 0.0
S413 S 0.98187 0.19232 0.82213 0.0
N414 N 1.00439 0.11334 0.84046 0.0
N415 N 1.03841 0.21428 0.78519 0.0
C416 C 0.07874 0.15607 0.78634 0.0
C417 C 1.06039 0.10156 0.81629 0.0
C418 C 0.60824 0.06805 0.77019 0.0
C419 C 0.56664 0.05185 0.73477 0.0
C420 C 0.60013 0.132 0.79388 0.0
C421 C 0.55015 0.18189 0.7828 0.0
H422 H 0.64391 0.02888 0.78137 0.0
H423 H 0.63009 0.13991 0.82269 0.0
S424 S 0.43687 0.1687 0.68783 0.0
N425 N 0.47994 0.09363 0.68658 0.0
N426 N 0.4651 0.21401 0.73005 0.0
C427 C 0.51243 0.16848 0.7451 0.0
C428 C 0.52045 0.10337 0.72142 0.0
C429 C 0.11428 0.94515 0.22722 0.0
C430 C 1.06311 0.9942 0.23732 0.0
C431 C 0.12753 0.88662 0.25362 0.0
C432 C 0.09018 0.87401 0.29146 0.0
H433 H 0.14521 0.95256 0.19879 0.0
H434 H 0.16822 0.85142 0.24437 0.0
S435 S 0.94891 0.98535 0.33195 0.0
N436 N 0.97348 1.02544 0.28724 0.0
N437 N 0.99854 0.91557 0.33742 0.0
C438 C 1.03814 0.92223 0.30186 0.0
C439 C 1.0248 0.98236 0.27482 0.0
C440 C 0.96111 0.50454 1.00384 0.0
C441 C 0.992 0.57228 1.00196 0.0
C442 C 0.95892 0.46621 0.04241 0.0
C443 C 0.98667 0.49479 0.08049 0.0
H444 H 0.93934 0.48067 0.97513 0.0
H445 H 0.93559 0.41369 0.0426 0.0
S446 S 1.07134 0.66986 0.09406 0.0
N447 N 1.04917 0.66698 0.0428 0.0
N448 N 1.04574 0.59326 0.11472 0.0
C449 C 1.01726 0.5621 0.07943 0.0
C450 C 1.01981 0.60133 0.04027 0.0
C451 C 0.65587 0.55428 0.54065 0.0
C452 C 0.71357 0.59395 0.55159 0.0
C453 C 0.65429 0.51208 0.50347 0.0
C454 C 0.71054 0.50752 0.47583 0.0
H455 H 0.61196 0.55502 0.56144 0.0
H456 H 0.60868 0.48205 0.49662 0.0
S457 S 0.87035 0.60981 0.48722 0.0
N458 N 0.82547 0.63309 0.52986 0.0
N459 N 0.82353 0.55176 0.46016 0.0
C460 C 0.76757 0.54972 0.48538 0.0
C461 C 0.769 0.59309 0.52337 0.0
C462 C 0.43569 0.0343 1.01642 0.0
C463 C 0.49653 0.05749 0.99755 0.0
C464 C 0.43498 1.00203 0.05709 0.0
C465 C 0.49509 0.99202 0.08004 0.0
H466 H 0.38839 0.04168 0.99978 0.0
H467 H 0.38754 0.98286 0.07008 0.0
S468 S 0.66702 0.04492 0.04528 0.0
N469 N 0.61793 0.06896 1.00508 0.0
N470 N 0.61638 1.00942 0.08178 0.0
C471 C 0.55589 1.01608 0.06183 0.0
C472 C 0.55667 0.04862 1.02055 0.0
C473 C 0.23568 0.04956 0.48242 0.0
C474 C 0.19697 0.98665 0.48608 0.0
C475 C 0.24405 0.09581 0.51766 0.0
C476 C 0.21345 0.08071 0.5574 0.0
H477 H 0.26027 0.06249 0.45223 0.0
H478 H 0.27442 0.14372 0.51398 0.0
S479 S 0.11003 0.92259 0.58504 0.0
N480 N 0.13033 0.91063 0.53386 0.0
N481 N 0.14422 0.99991 0.59928 0.0
C482 C 0.174 1.01907 0.56156 0.0
C483 C 0.16612 0.97133 0.52603 0.0
loop_
_geom_bond_atom_site_label_1
_geom_bond_atom_site_label_2
_geom_bond_distance
_geom_bond_site_symmetry_2
_ccdc_geom_bond_type
C0 C1 1.351 . S
C0 N3 1.368 . S
C0 H5 0.931 . S
C1 C0 1.351 . S
C1 N2 1.373 . S
C1 H29 0.930 . S
N2 C1 1.373 . S
N2 C4 1.340 . S
N3 C0 1.368 . S
N3 C4 1.321 . S
N3 Co6 2.135 . S
C4 N2 1.340 . S
C4 N3 1.321 . S
C4 H28 0.930 . S
H5 C0 0.931 . S
Co6 N3 2.135 . S
Co6 N9 2.121 . S
Co6 O14 2.055 . S
Co6 O17 2.039 . S
Co6 N20 2.140 1_455 S
C7 O8 1.227 1_455 S
C7 O17 1.265 . S
O8 C7 1.227 1_655 S
N9 Co6 2.121 . S
N9 C11 1.375 . S
N9 C12 1.313 . S
C10 C11 1.338 . S
C10 N13 1.377 . S
C10 H30 0.930 1_455 S
C11 N9 1.375 . S
C11 C10 1.338 . S
C11 H15 0.931 1_455 S
C12 N9 1.313 . S
C12 N13 1.344 . S
C12 H16 0.930 . S
N13 C10 1.377 . S
N13 C12 1.344 . S
O14 Co6 2.055 . S
O14 C18 1.253 . S
H15 C11 0.931 1_655 S
H16 C12 0.930 . S
O17 Co6 2.039 . S
O17 C7 1.265 . S
C18 O14 1.253 . S
C18 O19 1.227 . S
O19 C18 1.227 . S
N20 Co6 2.140 1_655 S
N20 C23 1.346 . S
N20 C24 1.345 . S
C21 C22 1.387 . S
C21 C25 1.391 . S
C22 C21 1.387 . S
C22 C23 1.369 . S
C22 H31 0.929 . S
C23 N20 1.346 . S
C23 C22 1.369 . S
C23 H26 0.928 . S
C24 N20 1.345 . S
C24 C25 1.371 . S
C24 H27 0.931 . S
C25 C21 1.391 . S
C25 C24 1.371 . S
C25 H32 0.930 . S
H26 C23 0.928 . S
H27 C24 0.931 . S
H28 C4 0.930 . S
H29 C1 0.930 . S
H30 C10 0.930 1_655 S
H31 C22 0.929 . S
H32 C25 0.930 . S
C33 C34 1.351 . S
C33 N36 1.368 . S
C33 H38 0.931 . S
C34 C33 1.351 . S
C34 N35 1.373 . S
C34 H62 0.930 . S
N35 C34 1.373 . S
N35 C37 1.340 . S
N36 C33 1.368 . S
N36 C37 1.321 . S
N36 Co39 2.135 . S
C37 N35 1.340 . S
C37 N36 1.321 . S
C37 H61 0.930 . S
H38 C33 0.931 . S
Co39 N36 2.135 . S
Co39 N42 2.121 . S
Co39 O47 2.055 . S
Co39 O50 2.039 . S
Co39 N53 2.140 . S
C40 O41 1.227 . S
C40 O50 1.265 . S
O41 C40 1.227 . S
N42 Co39 2.121 . S
N42 C44 1.375 . S
N42 C45 1.313 . S
C43 C44 1.338 . S
C43 N46 1.377 . S
C43 H63 0.930 . S
C44 N42 1.375 . S
C44 C43 1.338 . S
C44 H48 0.931 . S
C45 N42 1.313 . S
C45 N46 1.344 . S
C45 H49 0.930 . S
N46 C43 1.377 . S
N46 C45 1.344 . S
O47 Co39 2.055 . S
O47 C51 1.253 . S
H48 C44 0.931 . S
H49 C45 0.930 . S
O50 Co39 2.039 . S
O50 C40 1.265 . S
C51 O47 1.253 . S
C51 O52 1.227 . S
O52 C51 1.227 . S
N53 Co39 2.140 . S
N53 C56 1.346 . S
N53 C57 1.345 . S
C54 C55 1.387 . S
C54 C58 1.391 . S
C55 C54 1.387 . S
C55 C56 1.369 . S
C55 H64 0.929 . S
C56 N53 1.346 . S
C56 C55 1.369 . S
C56 H59 0.928 . S
C57 N53 1.345 . S
C57 C58 1.371 . S
C57 H60 0.931 . S
C58 C54 1.391 . S
C58 C57 1.371 . S
C58 H65 0.930 . S
H59 C56 0.928 . S
H60 C57 0.931 . S
H61 C37 0.930 . S
H62 C34 0.930 . S
H63 C43 0.930 . S
H64 C55 0.929 . S
H65 C58 0.930 . S
C66 C67 1.351 . S
C66 N69 1.368 . S
C66 H71 0.931 . S
C67 C66 1.351 . S
C67 N68 1.373 . S
C67 H95 0.930 . S
N68 C67 1.373 . S
N68 C70 1.340 . S
N69 C66 1.368 . S
N69 C70 1.321 . S
N69 Co72 2.135 . S
C70 N68 1.340 . S
C70 N69 1.321 . S
C70 H94 0.930 . S
H71 C66 0.931 . S
Co72 N69 2.135 . S
Co72 N75 2.121 . S
Co72 O80 2.055 . S
Co72 O83 2.039 . S
Co72 N86 2.140 1_455 S
C73 O74 1.227 1_455 S
C73 O83 1.265 . S
O74 C73 1.227 1_655 S
N75 Co72 2.121 . S
N75 C77 1.375 . S
N75 C78 1.313 . S
C76 C77 1.338 . S
C76 N79 1.377 . S
C76 H96 0.930 1_455 S
C77 N75 1.375 . S
C77 C76 1.338 . S
C77 H81 0.931 1_455 S
C78 N75 1.313 . S
C78 N79 1.344 . S
C78 H82 0.930 . S
N79 C76 1.377 . S
N79 C78 1.344 . S
O80 Co72 2.055 . S
O80 C84 1.253 . S
H81 C77 0.931 1_655 S
H82 C78 0.930 . S
O83 Co72 2.039 . S
O83 C73 1.265 . S
C84 O80 1.253 . S
C84 O85 1.227 . S
O85 C84 1.227 . S
N86 Co72 2.140 1_655 S
N86 C89 1.346 . S
N86 C90 1.345 . S
C87 C88 1.387 . S
C87 C91 1.391 . S
C88 C87 1.387 . S
C88 C89 1.369 . S
C88 H97 0.929 . S
C89 N86 1.346 . S
C89 C88 1.369 . S
C89 H92 0.928 . S
C90 N86 1.345 . S
C90 C91 1.371 . S
C90 H93 0.931 . S
C91 C87 1.391 . S
C91 C90 1.371 . S
C91 H98 0.930 . S
H92 C89 0.928 . S
H93 C90 0.931 . S
H94 C70 0.930 . S
H95 C67 0.930 . S
H96 C76 0.930 1_655 S
H97 C88 0.929 . S
H98 C91 0.930 . S
C99 C100 1.351 . S
C99 N102 1.368 . S
C99 H104 0.931 . S
C100 C99 1.351 . S
C100 N101 1.373 . S
C100 H128 0.930 . S
N101 C100 1.373 . S
N101 C103 1.340 . S
N102 C99 1.368 . S
N102 C103 1.321 . S
N102 Co105 2.135 . S
C103 N101 1.340 . S
C103 N102 1.321 . S
C103 H127 0.930 . S
H104 C99 0.931 . S
Co105 N102 2.135 . S
Co105 N108 2.121 . S
Co105 O113 2.055 . S
Co105 O116 2.039 . S
Co105 N119 2.140 . S
C106 O107 1.227 . S
C106 O116 1.265 . S
O107 C106 1.227 . S
N108 Co105 2.121 . S
N108 C110 1.375 . S
N108 C111 1.313 . S
C109 C110 1.338 . S
C109 N112 1.377 . S
C109 H129 0.930 . S
C110 N108 1.375 . S
C110 C109 1.338 . S
C110 H114 0.931 . S
C111 N108 1.313 . S
C111 N112 1.344 . S
C111 H115 0.930 . S
N112 C109 1.377 . S
N112 C111 1.344 . S
O113 Co105 2.055 . S
O113 C117 1.253 . S
H114 C110 0.931 . S
H115 C111 0.930 . S
O116 Co105 2.039 . S
O116 C106 1.265 . S
C117 O113 1.253 . S
C117 O118 1.227 . S
O118 C117 1.227 . S
N119 Co105 2.140 . S
N119 C122 1.346 . S
N119 C123 1.345 . S
C120 C121 1.387 . S
C120 C124 1.391 . S
C121 C120 1.387 . S
C121 C122 1.369 . S
C121 H130 0.929 . S
C122 N119 1.346 . S
C122 C121 1.369 . S
C122 H125 0.928 . S
C123 N119 1.345 . S
C123 C124 1.371 . S
C123 H126 0.931 . S
C124 C120 1.391 . S
C124 C123 1.371 . S
C124 H131 0.930 . S
H125 C122 0.928 . S
H126 C123 0.931 . S
H127 C103 0.930 . S
H128 C100 0.930 . S
H129 C109 0.930 . S
H130 C121 0.929 . S
H131 C124 0.930 . S
C132 C133 1.351 . S
C132 N135 1.368 . S
C132 H137 0.931 . S
C133 C132 1.351 . S
C133 N134 1.373 . S
C133 H161 0.930 . S
N134 C133 1.373 . S
N134 C136 1.340 . S
N135 C132 1.368 . S
N135 C136 1.321 . S
N135 Co138 2.135 . S
C136 N134 1.340 . S
C136 N135 1.321 . S
C136 H160 0.930 . S
H137 C132 0.931 . S
Co138 N135 2.135 . S
Co138 N141 2.121 . S
Co138 O146 2.055 . S
Co138 O149 2.039 . S
Co138 N152 2.140 . S
C139 O140 1.227 . S
C139 O149 1.265 . S
O140 C139 1.227 . S
N141 Co138 2.121 . S
N141 C143 1.375 . S
N141 C144 1.313 . S
C142 C143 1.338 . S
C142 N145 1.377 . S
C142 H162 0.930 1_565 S
C143 N141 1.375 . S
C143 C142 1.338 . S
C143 H147 0.931 . S
C144 N141 1.313 . S
C144 N145 1.344 . S
C144 H148 0.930 . S
N145 C142 1.377 . S
N145 C144 1.344 . S
O146 Co138 2.055 . S
O146 C150 1.253 . S
H147 C143 0.931 . S
H148 C144 0.930 . S
O149 Co138 2.039 . S
O149 C139 1.265 . S
C150 O146 1.253 . S
C150 O151 1.227 . S
O151 C150 1.227 . S
N152 Co138 2.140 . S
N152 C155 1.346 . S
N152 C156 1.345 . S
C153 C154 1.387 . S
C153 C157 1.391 . S
C154 C153 1.387 . S
C154 C155 1.369 . S
C154 H163 0.929 . S
C155 N152 1.346 . S
C155 C154 1.369 . S
C155 H158 0.928 . S
C156 N152 1.345 . S
C156 C157 1.371 . S
C156 H159 0.931 . S
C157 C153 1.391 . S
C157 C156 1.371 . S
C157 H164 0.930 . S
H158 C155 0.928 . S
H159 C156 0.931 . S
H160 C136 0.930 . S
H161 C133 0.930 . S
H162 C142 0.930 1_545 S
H163 C154 0.929 . S
H164 C157 0.930 . S
C165 C166 1.351 . S
C165 N168 1.368 . S
C165 H170 0.931 . S
C166 C165 1.351 . S
C166 N167 1.373 . S
C166 H194 0.930 . S
N167 C166 1.373 . S
N167 C169 1.340 . S
N168 C165 1.368 . S
N168 C169 1.321 . S
N168 Co171 2.135 . S
C169 N167 1.340 . S
C169 N168 1.321 . S
C169 H193 0.930 . S
H170 C165 0.931 . S
Co171 N168 2.135 . S
Co171 N174 2.121 . S
Co171 O179 2.055 . S
Co171 O182 2.039 . S
Co171 N185 2.140 1_655 S
C172 O173 1.227 . S
C172 O182 1.265 1_455 S
O173 C172 1.227 . S
N174 Co171 2.121 . S
N174 C176 1.375 1_655 S
N174 C177 1.313 . S
C175 C176 1.338 . S
C175 N178 1.377 1_455 S
C175 H195 0.930 1_545 S
C176 N174 1.375 1_455 S
C176 C175 1.338 . S
C176 H180 0.931 . S
C177 N174 1.313 . S
C177 N178 1.344 . S
C177 H181 0.930 . S
N178 C175 1.377 1_655 S
N178 C177 1.344 . S
O179 Co171 2.055 . S
O179 C183 1.253 . S
H180 C176 0.931 . S
H181 C177 0.930 . S
O182 Co171 2.039 . S
O182 C172 1.265 1_655 S
C183 O179 1.253 . S
C183 O184 1.227 . S
O184 C183 1.227 . S
N185 Co171 2.140 1_455 S
N185 C188 1.346 . S
N185 C189 1.345 . S
C186 C187 1.387 . S
C186 C190 1.391 . S
C187 C186 1.387 . S
C187 C188 1.369 . S
C187 H196 0.929 . S
C188 N185 1.346 . S
C188 C187 1.369 . S
C188 H191 0.928 . S
C189 N185 1.345 . S
C189 C190 1.371 . S
C189 H192 0.931 . S
C190 C186 1.391 . S
C190 C189 1.371 . S
C190 H197 0.930 . S
H191 C188 0.928 . S
H192 C189 0.931 . S
H193 C169 0.930 . S
H194 C166 0.930 . S
H195 C175 0.930 1_565 S
H196 C187 0.929 . S
H197 C190 0.930 . S
C198 C199 1.351 . S
C198 N201 1.368 . S
C198 H203 0.931 . S
C199 C198 1.351 . S
C199 N200 1.373 . S
C199 H227 0.930 . S
N200 C199 1.373 . S
N200 C202 1.340 . S
N201 C198 1.368 . S
N201 C202 1.321 . S
N201 Co204 2.135 . S
C202 N200 1.340 . S
C202 N201 1.321 . S
C202 H226 0.930 . S
H203 C198 0.931 . S
Co204 N201 2.135 . S
Co204 N207 2.121 . S
Co204 O212 2.055 . S
Co204 O215 2.039 . S
Co204 N218 2.140 . S
C205 O206 1.227 . S
C205 O215 1.265 . S
O206 C205 1.227 . S
N207 Co204 2.121 . S
N207 C209 1.375 . S
N207 C210 1.313 . S
C208 C209 1.338 . S
C208 N211 1.377 . S
C208 H228 0.930 1_545 S
C209 N207 1.375 . S
C209 C208 1.338 . S
C209 H213 0.931 . S
C210 N207 1.313 . S
C210 N211 1.344 . S
C210 H214 0.930 . S
N211 C208 1.377 . S
N211 C210 1.344 . S
O212 Co204 2.055 . S
O212 C216 1.253 . S
H213 C209 0.931 . S
H214 C210 0.930 . S
O215 Co204 2.039 . S
O215 C205 1.265 . S
C216 O212 1.253 . S
C216 O217 1.227 . S
O217 C216 1.227 . S
N218 Co204 2.140 . S
N218 C221 1.346 . S
N218 C222 1.345 . S
C219 C220 1.387 . S
C219 C223 1.391 . S
C220 C219 1.387 . S
C220 C221 1.369 . S
C220 H229 0.929 . S
C221 N218 1.346 . S
C221 C220 1.369 . S
C221 H224 0.928 . S
C222 N218 1.345 . S
C222 C223 1.371 . S
C222 H225 0.931 . S
C223 C219 1.391 . S
C223 C222 1.371 . S
C223 H230 0.930 . S
H224 C221 0.928 . S
H225 C222 0.931 . S
H226 C202 0.930 . S
H227 C199 0.930 . S
H228 C208 0.930 1_565 S
H229 C220 0.929 . S
H230 C223 0.930 . S
C231 C232 1.351 . S
C231 N234 1.368 . S
C231 H236 0.931 . S
C232 C231 1.351 . S
C232 N233 1.373 . S
C232 H260 0.930 . S
N233 C232 1.373 . S
N233 C235 1.340 . S
N234 C231 1.368 . S
N234 C235 1.321 . S
N234 Co237 2.135 . S
C235 N233 1.340 . S
C235 N234 1.321 . S
C235 H259 0.930 . S
H236 C231 0.931 . S
Co237 N234 2.135 . S
Co237 N240 2.121 . S
Co237 O245 2.055 . S
Co237 O248 2.039 . S
Co237 N251 2.140 1_655 S
C238 O239 1.227 . S
C238 O248 1.265 1_455 S
O239 C238 1.227 . S
N240 Co237 2.121 . S
N240 C242 1.375 1_655 S
N240 C243 1.313 . S
C241 C242 1.338 . S
C241 N244 1.377 1_455 S
C241 H261 0.930 1_565 S
C242 N240 1.375 1_455 S
C242 C241 1.338 . S
C242 H246 0.931 . S
C243 N240 1.313 . S
C243 N244 1.344 . S
C243 H247 0.930 . S
N244 C241 1.377 1_655 S
N244 C243 1.344 . S
O245 Co237 2.055 . S
O245 C249 1.253 . S
H246 C242 0.931 . S
H247 C243 0.930 . S
O248 Co237 2.039 . S
O248 C238 1.265 1_655 S
C249 O245 1.253 . S
C249 O250 1.227 . S
O250 C249 1.227 . S
N251 Co237 2.140 1_455 S
N251 C254 1.346 . S
N251 C255 1.345 . S
C252 C253 1.387 . S
C252 C256 1.391 . S
C253 C252 1.387 . S
C253 C254 1.369 . S
C253 H262 0.929 . S
C254 N251 1.346 . S
C254 C253 1.369 . S
C254 H257 0.928 . S
C255 N251 1.345 . S
C255 C256 1.371 . S
C255 H258 0.931 . S
C256 C252 1.391 . S
C256 C255 1.371 . S
C256 H263 0.930 . S
H257 C254 0.928 . S
H258 C255 0.931 . S
H259 C235 0.930 . S
H260 C232 0.930 . S
H261 C241 0.930 1_545 S
H262 C253 0.929 . S
H263 C256 0.930 . S
C264 C265 1.369 . S
C264 C266 1.419 1_556 S
C264 H268 0.930 . S
C265 C264 1.369 . S
C265 C274 1.429 . S
C266 C264 1.419 1_554 S
C266 C267 1.363 . S
C266 H269 0.929 . S
C267 C266 1.363 . S
C267 C273 1.428 . S
H268 C264 0.930 . S
H269 C266 0.929 . S
S270 N271 1.613 1_554 S
S270 N272 1.610 . S
N271 S270 1.613 1_556 S
N271 C274 1.350 . S
N272 S270 1.610 . S
N272 C273 1.351 . S
C273 C267 1.428 . S
C273 N272 1.351 . S
C273 C274 1.434 1_554 S
C274 C265 1.429 . S
C274 N271 1.350 . S
C274 C273 1.434 1_556 S
C275 C276 1.369 . S
C275 C277 1.419 . S
C275 H279 0.930 . S
C276 C275 1.369 . S
C276 C285 1.429 . S
C277 C275 1.419 . S
C277 C278 1.363 . S
C277 H280 0.929 . S
C278 C277 1.363 . S
C278 C284 1.428 . S
H279 C275 0.930 . S
H280 C277 0.929 . S
S281 N282 1.613 . S
S281 N283 1.610 . S
N282 S281 1.613 . S
N282 C285 1.350 . S
N283 S281 1.610 . S
N283 C284 1.351 . S
C284 C278 1.428 . S
C284 N283 1.351 . S
C284 C285 1.434 . S
C285 C276 1.429 . S
C285 N282 1.350 . S
C285 C284 1.434 . S
C286 C287 1.369 . S
C286 C288 1.419 1_554 S
C286 H290 0.930 . S
C287 C286 1.369 . S
C287 C296 1.429 . S
C288 C286 1.419 1_556 S
C288 C289 1.363 . S
C288 H291 0.929 . S
C289 C288 1.363 . S
C289 C295 1.428 . S
H290 C286 0.930 . S
H291 C288 0.929 . S
S292 N293 1.613 1_556 S
S292 N294 1.610 . S
N293 S292 1.613 1_554 S
N293 C296 1.350 . S
N294 S292 1.610 . S
N294 C295 1.351 . S
C295 C289 1.428 . S
C295 N294 1.351 . S
C295 C296 1.434 1_556 S
C296 C287 1.429 . S
C296 N293 1.350 . S
C296 C295 1.434 1_554 S
C297 C298 1.369 . S
C297 C299 1.419 . S
C297 H301 0.930 . S
C298 C297 1.369 . S
C298 C307 1.429 . S
C299 C297 1.419 . S
C299 C300 1.363 . S
C299 H302 0.929 . S
C300 C299 1.363 . S
C300 C306 1.428 . S
H301 C297 0.930 . S
H302 C299 0.929 . S
S303 N304 1.613 . S
S303 N305 1.610 . S
N304 S303 1.613 . S
N304 C307 1.350 . S
N305 S303 1.610 . S
N305 C306 1.351 . S
C306 C300 1.428 . S
C306 N305 1.351 . S
C306 C307 1.434 . S
C307 C298 1.429 . S
C307 N304 1.350 . S
C307 C306 1.434 . S
C308 C309 1.369 . S
C308 C310 1.419 . S
C308 H312 0.930 . S
C309 C308 1.369 . S
C309 C318 1.429 1_554 S
C310 C308 1.419 . S
C310 C311 1.363 1_554 S
C310 H313 0.929 . S
C311 C310 1.363 1_556 S
C311 C317 1.428 . S
H312 C308 0.930 . S
H313 C310 0.929 . S
S314 N315 1.613 . S
S314 N316 1.610 . S
N315 S314 1.613 . S
N315 C318 1.350 . S
N316 S314 1.610 . S
N316 C317 1.351 . S
C317 C311 1.428 . S
C317 N316 1.351 . S
C317 C318 1.434 . S
C318 C309 1.429 1_556 S
C318 N315 1.350 . S
C318 C317 1.434 . S
C319 C320 1.369 . S
C319 C321 1.419 . S
C319 H323 0.930 . S
C320 C319 1.369 . S
C320 C329 1.429 . S
C321 C319 1.419 . S
C321 C322 1.363 . S
C321 H324 0.929 . S
C322 C321 1.363 . S
C322 C328 1.428 . S
H323 C319 0.930 . S
H324 C321 0.929 . S
S325 N326 1.613 . S
S325 N327 1.610 . S
N326 S325 1.613 . S
N326 C329 1.350 . S
N327 S325 1.610 . S
N327 C328 1.351 . S
C328 C322 1.428 . S
C328 N327 1.351 . S
C328 C329 1.434 . S
C329 C320 1.429 . S
C329 N326 1.350 . S
C329 C328 1.434 . S
C330 C331 1.369 . S
C330 C332 1.419 . S
C330 H334 0.930 . S
C331 C330 1.369 . S
C331 C340 1.429 1_554 S
C332 C330 1.419 . S
C332 C333 1.363 1_554 S
C332 H335 0.929 . S
C333 C332 1.363 1_556 S
C333 C339 1.428 . S
H334 C330 0.930 . S
H335 C332 0.929 . S
S336 N337 1.613 . S
S336 N338 1.610 . S
N337 S336 1.613 . S
N337 C340 1.350 . S
N338 S336 1.610 . S
N338 C339 1.351 . S
C339 C333 1.428 . S
C339 N338 1.351 . S
C339 C340 1.434 . S
C340 C331 1.429 1_556 S
C340 N337 1.350 . S
C340 C339 1.434 . S
C341 C342 1.369 . S
C341 C343 1.419 . S
C341 H345 0.930 . S
C342 C341 1.369 . S
C342 C351 1.429 . S
C343 C341 1.419 . S
C343 C344 1.363 . S
C343 H346 0.929 . S
C344 C343 1.363 . S
C344 C350 1.428 . S
H345 C341 0.930 . S
H346 C343 0.929 . S
S347 N348 1.613 . S
S347 N349 1.610 . S
N348 S347 1.613 . S
N348 C351 1.350 . S
N349 S347 1.610 . S
N349 C350 1.351 . S
C350 C344 1.428 . S
C350 N349 1.351 . S
C350 C351 1.434 . S
C351 C342 1.429 . S
C351 N348 1.350 . S
C351 C350 1.434 . S
C352 C353 1.369 . S
C352 C354 1.419 . S
C352 H356 0.930 . S
C353 C352 1.369 . S
C353 C362 1.429 . S
C354 C352 1.419 . S
C354 C355 1.363 1_455 S
C354 H357 0.929 1_455 S
C355 C354 1.363 1_655 S
C355 C361 1.428 1_655 S
H356 C352 0.930 . S
H357 C354 0.929 1_655 S
S358 N359 1.613 1_655 S
S358 N360 1.610 . S
N359 S358 1.613 1_455 S
N359 C362 1.350 . S
N360 S358 1.610 . S
N360 C361 1.351 1_655 S
C361 C355 1.428 1_455 S
C361 N360 1.351 1_455 S
C361 C362 1.434 . S
C362 C353 1.429 . S
C362 N359 1.350 . S
C362 C361 1.434 . S
C363 C364 1.369 . S
C363 C365 1.419 . S
C363 H367 0.930 . S
C364 C363 1.369 . S
C364 C373 1.429 . S
C365 C363 1.419 . S
C365 C366 1.363 . S
C365 H368 0.929 . S
C366 C365 1.363 . S
C366 C372 1.428 . S
H367 C363 0.930 . S
H368 C365 0.929 . S
S369 N370 1.613 . S
S369 N371 1.610 . S
N370 S369 1.613 . S
N370 C373 1.350 . S
N371 S369 1.610 . S
N371 C372 1.351 . S
C372 C366 1.428 . S
C372 N371 1.351 . S
C372 C373 1.434 . S
C373 C364 1.429 . S
C373 N370 1.350 . S
C373 C372 1.434 . S
C374 C375 1.369 1_455 S
C374 C376 1.419 . S
C374 H378 0.930 1_455 S
C375 C374 1.369 1_655 S
C375 C384 1.429 1_655 S
C376 C374 1.419 . S
C376 C377 1.363 . S
C376 H379 0.929 . S
C377 C376 1.363 . S
C377 C383 1.428 . S
H378 C374 0.930 1_655 S
H379 C376 0.929 . S
S380 N381 1.613 1_455 S
S380 N382 1.610 . S
N381 S380 1.613 1_655 S
N381 C384 1.350 1_655 S
N382 S380 1.610 . S
N382 C383 1.351 . S
C383 C377 1.428 . S
C383 N382 1.351 . S
C383 C384 1.434 . S
C384 C375 1.429 1_455 S
C384 N381 1.350 1_455 S
C384 C383 1.434 . S
C385 C386 1.369 . S
C385 C387 1.419 . S
C385 H389 0.930 . S
C386 C385 1.369 . S
C386 C395 1.429 . S
C387 C385 1.419 . S
C387 C388 1.363 . S
C387 H390 0.929 . S
C388 C387 1.363 . S
C388 C394 1.428 . S
H389 C385 0.930 . S
H390 C387 0.929 . S
S391 N392 1.613 . S
S391 N393 1.610 . S
N392 S391 1.613 . S
N392 C395 1.350 . S
N393 S391 1.610 . S
N393 C394 1.351 . S
C394 C388 1.428 . S
C394 N393 1.351 . S
C394 C395 1.434 . S
C395 C386 1.429 . S
C395 N392 1.350 . S
C395 C394 1.434 . S
C396 C397 1.369 . S
C396 C398 1.419 1_565 S
C396 H400 0.930 . S
C397 C396 1.369 . S
C397 C406 1.429 . S
C398 C396 1.419 1_545 S
C398 C399 1.363 . S
C398 H401 0.929 . S
C399 C398 1.363 . S
C399 C405 1.428 . S
H400 C396 0.930 . S
H401 C398 0.929 . S
S402 N403 1.613 . S
S402 N404 1.610 1_565 S
N403 S402 1.613 . S
N403 C406 1.350 . S
N404 S402 1.610 1_545 S
N404 C405 1.351 . S
C405 C399 1.428 . S
C405 N404 1.351 . S
C405 C406 1.434 1_545 S
C406 C397 1.429 . S
C406 N403 1.350 . S
C406 C405 1.434 1_565 S
C407 C408 1.369 . S
C407 C409 1.419 1_565 S
C407 H411 0.930 . S
C408 C407 1.369 . S
C408 C417 1.429 1_565 S
C409 C407 1.419 1_545 S
C409 C410 1.363 . S
C409 H412 0.929 . S
C410 C409 1.363 . S
C410 C416 1.428 . S
H411 C407 0.930 . S
H412 C409 0.929 . S
S413 N414 1.613 . S
S413 N415 1.610 . S
N414 S413 1.613 . S
N414 C417 1.350 . S
N415 S413 1.610 . S
N415 C416 1.351 . S
C416 C410 1.428 . S
C416 N415 1.351 . S
C416 C417 1.434 . S
C417 C408 1.429 1_545 S
C417 N414 1.350 . S
C417 C416 1.434 . S
C418 C419 1.369 . S
C418 C420 1.419 1_565 S
C418 H422 0.930 . S
C419 C418 1.369 . S
C419 C428 1.429 1_565 S
C420 C418 1.419 1_545 S
C420 C421 1.363 . S
C420 H423 0.929 . S
C421 C420 1.363 . S
C421 C427 1.428 . S
H422 C418 0.930 . S
H423 C420 0.929 . S
S424 N425 1.613 . S
S424 N426 1.610 . S
N425 S424 1.613 . S
N425 C428 1.350 . S
N426 S424 1.610 . S
N426 C427 1.351 . S
C427 C421 1.428 . S
C427 N426 1.351 . S
C427 C428 1.434 . S
C428 C419 1.429 1_545 S
C428 N425 1.350 . S
C428 C427 1.434 . S
C429 C430 1.369 . S
C429 C431 1.419 1_545 S
C429 H433 0.930 . S
C430 C429 1.369 . S
C430 C439 1.429 1_455 S
C431 C429 1.419 1_565 S
C431 C432 1.363 . S
C431 H434 0.929 . S
C432 C431 1.363 . S
C432 C438 1.428 1_455 S
H433 C429 0.930 . S
H434 C431 0.929 . S
S435 N436 1.613 1_565 S
S435 N437 1.610 . S
N436 S435 1.613 1_545 S
N436 C439 1.350 . S
N437 S435 1.610 . S
N437 C438 1.351 . S
C438 C432 1.428 1_655 S
C438 N437 1.351 . S
C438 C439 1.434 1_565 S
C439 C430 1.429 1_655 S
C439 N436 1.350 . S
C439 C438 1.434 1_545 S
C440 C441 1.369 . S
C440 C442 1.419 . S
C440 H444 0.930 . S
C441 C440 1.369 . S
C441 C450 1.429 1_556 S
C442 C440 1.419 . S
C442 C443 1.363 1_556 S
C442 H445 0.929 . S
C443 C442 1.363 1_554 S
C443 C449 1.428 . S
H444 C440 0.930 . S
H445 C442 0.929 . S
S446 N447 1.613 . S
S446 N448 1.610 . S
N447 S446 1.613 . S
N447 C450 1.350 . S
N448 S446 1.610 . S
N448 C449 1.351 . S
C449 C443 1.428 . S
C449 N448 1.351 . S
C449 C450 1.434 . S
C450 C441 1.429 1_554 S
C450 N447 1.350 . S
C450 C449 1.434 . S
C451 C452 1.369 . S
C451 C453 1.419 . S
C451 H455 0.930 . S
C452 C451 1.369 . S
C452 C461 1.429 . S
C453 C451 1.419 . S
C453 C454 1.363 . S
C453 H456 0.929 . S
C454 C453 1.363 . S
C454 C460 1.428 . S
H455 C451 0.930 . S
H456 C453 0.929 . S
S457 N458 1.613 . S
S457 N459 1.610 . S
N458 S457 1.613 . S
N458 C461 1.350 . S
N459 S457 1.610 . S
N459 C460 1.351 . S
C460 C454 1.428 . S
C460 N459 1.351 . S
C460 C461 1.434 . S
C461 C452 1.429 . S
C461 N458 1.350 . S
C461 C460 1.434 . S
C462 C463 1.369 . S
C462 C464 1.419 1_546 S
C462 H466 0.930 . S
C463 C462 1.369 . S
C463 C472 1.429 . S
C464 C462 1.419 1_564 S
C464 C465 1.363 . S
C464 H467 0.929 . S
C465 C464 1.363 . S
C465 C471 1.428 . S
H466 C462 0.930 . S
H467 C464 0.929 . S
S468 N469 1.613 1_565 S
S468 N470 1.610 1_556 S
N469 S468 1.613 1_545 S
N469 C472 1.350 . S
N470 S468 1.610 1_554 S
N470 C471 1.351 . S
C471 C465 1.428 . S
C471 N470 1.351 . S
C471 C472 1.434 1_564 S
C472 C463 1.429 . S
C472 N469 1.350 . S
C472 C471 1.434 1_546 S
C473 C474 1.369 1_455 S
C473 C475 1.419 1_565 S
C473 H477 0.930 . S
C474 C473 1.369 1_655 S
C474 C483 1.429 . S
C475 C473 1.419 1_545 S
C475 C476 1.363 1_455 S
C475 H478 0.929 . S
C476 C475 1.363 1_655 S
C476 C482 1.428 . S
H477 C473 0.930 . S
H478 C475 0.929 . S
S479 N480 1.613 . S
S479 N481 1.610 1_565 S
N480 S479 1.613 . S
N480 C483 1.350 . S
N481 S479 1.610 1_545 S
N481 C482 1.351 . S
C482 C476 1.428 . S
C482 N481 1.351 . S
C482 C483 1.434 1_545 S
C483 C474 1.429 . S
C483 N480 1.350 . S
C483 C482 1.434 1_565 S
C265 C219 1.810 . S
C267 C18 1.830 . S
C276 C51 1.830 . S
C278 C252 1.812 . S
C287 C153 1.811 . S
C289 C84 1.830 . S
C298 C117 1.826 . S
C300 C186 1.816 . S
C309 C150 1.830 . S
C311 C87 1.813 . S
C320 C183 1.828 . S
C322 C120 1.814 . S
C331 C21 1.810 . S
C333 C216 1.830 . S
C342 C54 1.819 . S
C344 C249 1.824 . S
C353 C7 1.916 . S
C355 N233 1.870 . S
C364 C40 1.914 . S
C366 N200 1.871 . S
C375 N167 1.874 . S
C377 C73 1.914 . S
C386 C106 1.915 . S
C388 N134 1.870 . S
C397 C139 1.917 . S
C399 N101 1.872 . S
C408 N68 1.870 . S
C410 C172 1.917 . S
C419 N35 1.869 . S
C421 C205 1.916 . S
C430 N2 1.874 . S
C432 C238 1.916 . S
C441 N79 0.423 . S
C443 N13 0.399 . S
C452 N46 0.408 . S
C454 N112 0.399 . S
C463 N211 0.411 . S
C465 N145 0.421 . S
C474 N244 0.424 . S
C476 N178 0.412 . S
