# Generated by pormake.
# Topology vmb, (5)-cn, num edge types: 1
# Building blocks:
#     Node 0, Type 0, BuildingBlock: BEQFEK_clean_sbu_0, # of connection points: 5
#     Node 1, Type 0, BuildingBlock: BEQFEK_clean_sbu_0, # of connection points: 5
#     Node 2, Type 0, BuildingBlock: BEQFEK_clean_sbu_0, # of connection points: 5
#     Node 3, Type 0, BuildingBlock: BEQFEK_clean_sbu_0, # of connection points: 5
#     Node 4, Type 0, BuildingBlock: BEQFEK_clean_sbu_0, # of connection points: 5
#     Node 5, Type 0, BuildingBlock: BEQFEK_clean_sbu_0, # of connection points: 5
#     Node 6, Type 0, BuildingBlock: BEQFEK_clean_sbu_0, # of connection points: 5
#     Node 7, Type 0, BuildingBlock: BEQFEK_clean_sbu_0, # of connection points: 5
#     Edge 8, Type (0, 0), BuildingBlock: ZUJKAS_clean_linker_0, # of connection points: 2
#     Edge 9, Type (0, 0), BuildingBlock: ZUJKAS_clean_linker_0, # of connection points: 2
#     Edge 10, Type (0, 0), BuildingBlock: ZUJKAS_clean_linker_0, # of connection points: 2
#     Edge 11, Type (0, 0), BuildingBlock: ZUJKAS_clean_linker_0, # of connection points: 2
#     Edge 12, Type (0, 0), BuildingBlock: ZUJKAS_clean_linker_0, # of connection points: 2
#     Edge 13, Type (0, 0), BuildingBlock: ZUJKAS_clean_linker_0, # of connection points: 2
#     Edge 14, Type (0, 0), BuildingBlock: ZUJKAS_clean_linker_0, # of connection points: 2
#     Edge 15, Type (0, 0), BuildingBlock: ZUJKAS_clean_linker_0, # of connection points: 2
#     Edge 16, Type (0, 0), BuildingBlock: ZUJKAS_clean_linker_0, # of connection points: 2
#     Edge 17, Type (0, 0), BuildingBlock: ZUJKAS_clean_linker_0, # of connection points: 2
#     Edge 18, Type (0, 0), BuildingBlock: ZUJKAS_clean_linker_0, # of connection points: 2
#     Edge 19, Type (0, 0), BuildingBlock: ZUJKAS_clean_linker_0, # of connection points: 2
#     Edge 20, Type (0, 0), BuildingBlock: ZUJKAS_clean_linker_0, # of connection points: 2
#     Edge 21, Type (0, 0), BuildingBlock: ZUJKAS_clean_linker_0, # of connection points: 2
#     Edge 22, Type (0, 0), BuildingBlock: ZUJKAS_clean_linker_0, # of connection points: 2
#     Edge 23, Type (0, 0), BuildingBlock: ZUJKAS_clean_linker_0, # of connection points: 2
#     Edge 24, Type (0, 0), BuildingBlock: ZUJKAS_clean_linker_0, # of connection points: 2
#     Edge 25, Type (0, 0), BuildingBlock: ZUJKAS_clean_linker_0, # of connection points: 2
#     Edge 26, Type (0, 0), BuildingBlock: ZUJKAS_clean_linker_0, # of connection points: 2
#     Edge 27, Type (0, 0), BuildingBlock: ZUJKAS_clean_linker_0, # of connection points: 2
# Relax obj value: 0.033
# Max RMSD: 0.088
# Mean RMSD: 0.088
data_MOF--net-vmb--node1-BEQFEK_clean_sbu_0--edge1-ZUJKAS_clean_linker_0
_symmetry_space_group_name_H-M    P1
_symmetry_Int_Tables_number       1
_symmetry_cell_setting            triclinic
loop_
_symmetry_equiv_pos_as_xyz
'x, y, z'
_cell_length_a     51.41966
_cell_length_b     48.871155
_cell_length_c     38.24725
_cell_angle_alpha  90.002601
_cell_angle_beta   113.69856
_cell_angle_gamma 90.012799
loop_
_atom_site_label
_atom_site_type_symbol
_atom_site_fract_x
_atom_site_fract_y
_atom_site_fract_z
_atom_type_partial_charge
Co0 Co 0.21347 0.06871 0.36708 0.0
Co1 Co 0.28034 0.06709 0.40072 0.0
C2 C 0.24812 0.03306 0.43433 0.0
O3 O 0.22462 0.04238 0.41016 0.0
O4 O 0.27174 0.04048 0.43386 0.0
C5 C 0.15705 0.04623 0.3386 0.0
O6 O 0.1703 0.02405 0.35627 0.0
C7 C 0.33957 0.04767 0.42626 0.0
C8 C 0.36089 0.08501 0.41847 0.0
C9 C 0.36585 0.05796 0.43018 0.0
N10 N 0.32018 0.06776 0.41293 0.0
N11 N 0.33312 0.09004 0.40855 0.0
C12 C 0.33227 0.01884 0.43195 0.0
H13 H 0.3097 0.01449 0.41348 0.0
H14 H 0.34615 0.00414 0.42541 0.0
H15 H 0.33531 0.01608 0.46215 0.0
C16 C 0.22122 0.056 0.29605 0.0
N17 N 0.23163 0.06053 0.33397 0.0
N18 N 0.25955 0.05945 0.34801 0.0
C19 C 0.2678 0.05406 0.31943 0.0
C20 C 0.2438 0.05183 0.28553 0.0
C21 C 0.19033 0.05734 0.27031 0.0
H22 H 0.18071 0.07574 0.27726 0.0
H23 H 0.17945 0.03907 0.27527 0.0
H24 H 0.18692 0.05808 0.23978 0.0
O25 O 0.22376 0.10594 0.3887 0.0
O26 O 0.27085 0.10408 0.41308 0.0
H27 H 0.30928 0.07012 0.33215 0.0
H28 H 0.2997 0.0419 0.29877 0.0
C29 C 0.29804 0.0502 0.32478 0.0
H30 H 0.30865 0.03582 0.34867 0.0
H31 H 0.3229 0.10862 0.39839 0.0
O32 O 0.17145 0.0675 0.33914 0.0
C33 C 0.24791 0.11698 0.40688 0.0
Co34 Co 0.79519 0.06867 0.13103 0.0
Co35 Co 0.7283 0.06838 0.09795 0.0
C36 C 0.75964 0.03452 0.06268 0.0
O37 O 0.78345 0.04312 0.08698 0.0
O38 O 0.7363 0.04231 0.06372 0.0
C39 C 0.85179 0.0467 0.15623 0.0
O40 O 0.83869 0.02568 0.13509 0.0
C41 C 0.66893 0.04946 0.07143 0.0
C42 C 0.64786 0.08641 0.08094 0.0
C43 C 0.64277 0.0597 0.06786 0.0
N44 N 0.6885 0.06928 0.08589 0.0
N45 N 0.67571 0.09135 0.09126 0.0
C46 C 0.67575 0.02093 0.06373 0.0
H47 H 0.69788 0.01565 0.08304 0.0
H48 H 0.66082 0.00603 0.06757 0.0
H49 H 0.67388 0.01963 0.03385 0.0
C50 C 0.78751 0.05409 0.20155 0.0
N51 N 0.77701 0.0599 0.16397 0.0
N52 N 0.74908 0.05936 0.15018 0.0
C53 C 0.7409 0.05302 0.17856 0.0
C54 C 0.76498 0.04953 0.21207 0.0
C55 C 0.81855 0.05214 0.22635 0.0
H56 H 0.82874 0.07224 0.22683 0.0
H57 H 0.82848 0.03696 0.21396 0.0
H58 H 0.82249 0.04588 0.25591 0.0
O59 O 0.78547 0.10635 0.11086 0.0
O60 O 0.73837 0.10553 0.08711 0.0
H61 H 0.70053 0.07217 0.16363 0.0
H62 H 0.70873 0.04738 0.20129 0.0
C63 C 0.71062 0.05207 0.17405 0.0
H64 H 0.699 0.03637 0.15249 0.0
H65 H 0.68608 0.10972 0.10235 0.0
O66 O 0.83725 0.06702 0.15895 0.0
C67 C 0.76156 0.11803 0.0935 0.0
Co68 Co 0.79622 0.92478 0.63251 0.0
Co69 Co 0.72937 0.92672 0.59735 0.0
C70 C 0.76252 0.96066 0.56508 0.0
O71 O 0.78579 0.95128 0.58973 0.0
O72 O 0.73866 0.95327 0.56478 0.0
C73 C 0.85197 0.94824 0.66676 0.0
O74 O 0.83801 0.97133 0.65548 0.0
C75 C 0.67016 0.94647 0.57072 0.0
C76 C 0.64839 0.90918 0.57767 0.0
C77 C 0.64371 0.93629 0.56623 0.0
N78 N 0.68938 0.92624 0.58416 0.0
N79 N 0.67617 0.90399 0.588 0.0
C80 C 0.67774 0.97529 0.5655 0.0
H81 H 0.70029 0.97946 0.58422 0.0
H82 H 0.66386 0.99001 0.57203 0.0
H83 H 0.6749 0.97822 0.53541 0.0
C84 C 0.78734 0.93749 0.70295 0.0
N85 N 0.77751 0.93301 0.66504 0.0
N86 N 0.74957 0.93426 0.65025 0.0
C87 C 0.74077 0.9397 0.6783 0.0
C88 C 0.76438 0.94181 0.71262 0.0
C89 C 0.81802 0.93604 0.72958 0.0
H90 H 0.82828 0.91849 0.72177 0.0
H91 H 0.82882 0.95506 0.72681 0.0
H92 H 0.82066 0.9338 0.75969 0.0
O93 O 0.78597 0.88761 0.61068 0.0
O94 O 0.73889 0.88966 0.58532 0.0
H95 H 0.69897 0.92394 0.66408 0.0
H96 H 0.70827 0.95191 0.69785 0.0
C97 C 0.71036 0.94375 0.67205 0.0
H98 H 0.70023 0.95834 0.64828 0.0
H99 H 0.68623 0.88534 0.59814 0.0
O100 O 0.83818 0.92589 0.66057 0.0
C101 C 0.76185 0.87665 0.59204 0.0
Co102 Co 0.21363 0.92607 0.86693 0.0
Co103 Co 0.28057 0.92578 0.90256 0.0
C104 C 0.24772 0.96124 0.93429 0.0
O105 O 0.22409 0.95267 0.90957 0.0
O106 O 0.27123 0.9528 0.93451 0.0
C107 C 0.15764 0.94944 0.83495 0.0
O108 O 0.17129 0.97212 0.84993 0.0
C109 C 0.33942 0.9458 0.92448 0.0
C110 C 0.36325 0.90685 0.93837 0.0
C111 C 0.36664 0.9349 0.93749 0.0
N112 N 0.32082 0.92505 0.91781 0.0
N113 N 0.33525 0.90184 0.92602 0.0
C114 C 0.33139 0.97541 0.9212 0.0
H115 H 0.30874 0.97791 0.91621 0.0
H116 H 0.33473 0.9847 0.89689 0.0
H117 H 0.34514 0.98646 0.94752 0.0
C118 C 0.22342 0.93858 0.7971 0.0
N119 N 0.23304 0.93352 0.83485 0.0
N120 N 0.26101 0.93312 0.84955 0.0
C121 C 0.27005 0.93759 0.82149 0.0
C122 C 0.24658 0.94137 0.78738 0.0
C123 C 0.19267 0.94179 0.77149 0.0
H124 H 0.18343 0.9583 0.78279 0.0
H125 H 0.18946 0.94704 0.74185 0.0
H126 H 0.18123 0.92255 0.77153 0.0
O127 O 0.22293 0.88878 0.88919 0.0
O128 O 0.27005 0.88923 0.91444 0.0
H129 H 0.30234 0.9337 0.79891 0.0
H130 H 0.31132 0.95547 0.84014 0.0
C131 C 0.30046 0.93627 0.82662 0.0
H132 H 0.31124 0.91889 0.84548 0.0
H133 H 0.326 0.88257 0.9238 0.0
O134 O 0.17169 0.9275 0.83798 0.0
C135 C 0.24665 0.87708 0.90777 0.0
Co136 Co 0.71126 0.56891 0.36818 0.0
Co137 Co 0.77828 0.56748 0.40297 0.0
C138 C 0.74505 0.53376 0.43594 0.0
O139 O 0.72155 0.54265 0.41127 0.0
O140 O 0.76868 0.54147 0.43579 0.0
C141 C 0.65492 0.54637 0.33742 0.0
O142 O 0.66813 0.52387 0.35397 0.0
C143 C 0.83793 0.54774 0.42805 0.0
C144 C 0.85981 0.58673 0.42839 0.0
C145 C 0.86451 0.55901 0.43564 0.0
N146 N 0.81846 0.56793 0.41651 0.0
N147 N 0.83176 0.59113 0.41679 0.0
C148 C 0.83136 0.51857 0.4333 0.0
H149 H 0.82965 0.50653 0.40788 0.0
H150 H 0.84861 0.50961 0.45876 0.0
H151 H 0.81092 0.51688 0.43631 0.0
C152 C 0.72002 0.55599 0.29786 0.0
N153 N 0.73004 0.56054 0.33575 0.0
N154 N 0.75799 0.55977 0.35019 0.0
C155 C 0.76663 0.5547 0.32189 0.0
C156 C 0.74287 0.55218 0.28777 0.0
C157 C 0.68922 0.55709 0.27166 0.0
H158 H 0.67933 0.57546 0.27823 0.0
H159 H 0.67836 0.53877 0.27652 0.0
H160 H 0.6861 0.55775 0.24124 0.0
O161 O 0.72147 0.6062 0.38971 0.0
O162 O 0.76858 0.60461 0.41447 0.0
H163 H 0.80824 0.57139 0.33752 0.0
H164 H 0.79929 0.54496 0.3014 0.0
C165 C 0.79707 0.55161 0.32777 0.0
H166 H 0.80735 0.53618 0.3503 0.0
H167 H 0.82169 0.61007 0.40931 0.0
O168 O 0.66934 0.5679 0.33945 0.0
C169 C 0.74553 0.61742 0.40789 0.0
Co170 Co 0.29299 0.56839 0.12798 0.0
Co171 Co 0.2261 0.56783 0.09507 0.0
C172 C 0.2575 0.5336 0.06034 0.0
O173 O 0.28124 0.54246 0.08446 0.0
O174 O 0.23412 0.54136 0.06127 0.0
C175 C 0.34981 0.54708 0.15227 0.0
O176 O 0.33692 0.52641 0.13013 0.0
C177 C 0.16734 0.54803 0.07176 0.0
C178 C 0.14514 0.58612 0.07468 0.0
C179 C 0.14079 0.55848 0.06623 0.0
N180 N 0.1863 0.5686 0.08285 0.0
N181 N 0.17286 0.59132 0.08435 0.0
C182 C 0.17523 0.51887 0.06919 0.0
H183 H 0.19789 0.51536 0.08808 0.0
H184 H 0.16159 0.50479 0.07723 0.0
H185 H 0.17228 0.51438 0.03939 0.0
C186 C 0.28555 0.55457 0.19881 0.0
N187 N 0.27491 0.56 0.16113 0.0
N188 N 0.24698 0.55956 0.14753 0.0
C189 C 0.23895 0.55384 0.17623 0.0
C190 C 0.26312 0.5505 0.20966 0.0
C191 C 0.31663 0.55245 0.22337 0.0
H192 H 0.32647 0.53753 0.21051 0.0
H193 H 0.32067 0.54578 0.25282 0.0
H194 H 0.32682 0.57261 0.2243 0.0
O195 O 0.28304 0.60588 0.10703 0.0
O196 O 0.23595 0.60479 0.08336 0.0
H197 H 0.19808 0.57262 0.15839 0.0
H198 H 0.20718 0.55139 0.20009 0.0
C199 C 0.20875 0.55341 0.17214 0.0
H200 H 0.19749 0.53606 0.15354 0.0
H201 H 0.18268 0.61034 0.09228 0.0
O202 O 0.33509 0.56693 0.15589 0.0
C203 C 0.25905 0.61736 0.08944 0.0
Co204 Co 0.29406 0.42541 0.63017 0.0
Co205 Co 0.22707 0.42613 0.5924 0.0
C206 C 0.26144 0.46059 0.56205 0.0
O207 O 0.2846 0.45179 0.58755 0.0
O208 O 0.23749 0.45257 0.56073 0.0
C209 C 0.34978 0.44883 0.66314 0.0
O210 O 0.33598 0.47136 0.64779 0.0
C211 C 0.16787 0.44651 0.56736 0.0
C212 C 0.14458 0.40744 0.55981 0.0
C213 C 0.14076 0.43553 0.55666 0.0
N214 N 0.1867 0.42577 0.57662 0.0
N215 N 0.17258 0.40253 0.57206 0.0
C216 C 0.17569 0.47597 0.56685 0.0
H217 H 0.19697 0.47799 0.56636 0.0
H218 H 0.17628 0.48619 0.59304 0.0
H219 H 0.15965 0.48652 0.54172 0.0
C220 C 0.283 0.43855 0.69878 0.0
N221 N 0.27397 0.43348 0.66111 0.0
N222 N 0.246 0.43368 0.64548 0.0
C223 C 0.23636 0.43867 0.67284 0.0
C224 C 0.25946 0.44203 0.70747 0.0
C225 C 0.31363 0.44105 0.72531 0.0
H226 H 0.32356 0.4575 0.71491 0.0
H227 H 0.31639 0.44602 0.75487 0.0
H228 H 0.32476 0.42163 0.72519 0.0
O229 O 0.28458 0.38812 0.60809 0.0
O230 O 0.23746 0.38923 0.58132 0.0
H231 H 0.1952 0.42002 0.64927 0.0
H232 H 0.20296 0.43748 0.69382 0.0
C233 C 0.20567 0.43819 0.6665 0.0
H234 H 0.19509 0.45679 0.65055 0.0
H235 H 0.18205 0.38324 0.57707 0.0
O236 O 0.33588 0.42677 0.66005 0.0
C237 C 0.2608 0.3767 0.58888 0.0
Co238 Co 0.71118 0.42541 0.86929 0.0
Co239 Co 0.77794 0.42668 0.90204 0.0
C240 C 0.74627 0.46127 0.93591 0.0
O241 O 0.72258 0.45208 0.91203 0.0
O242 O 0.76969 0.45352 0.93513 0.0
C243 C 0.65542 0.44902 0.83568 0.0
O244 O 0.66944 0.47219 0.84566 0.0
C245 C 0.83721 0.44591 0.92752 0.0
C246 C 0.85845 0.40844 0.91995 0.0
C247 C 0.86351 0.43547 0.93174 0.0
N248 N 0.81774 0.4259 0.91398 0.0
N249 N 0.83061 0.40355 0.9097 0.0
C250 C 0.83001 0.47476 0.93321 0.0
H251 H 0.80752 0.47922 0.91455 0.0
H252 H 0.84406 0.4894 0.92691 0.0
H253 H 0.83286 0.47749 0.96334 0.0
C254 C 0.7185 0.43757 0.79753 0.0
N255 N 0.72899 0.43316 0.83551 0.0
N256 N 0.75692 0.43419 0.84935 0.0
C257 C 0.76507 0.43948 0.82066 0.0
C258 C 0.74101 0.44168 0.78684 0.0
C259 C 0.68762 0.43621 0.77177 0.0
H260 H 0.67746 0.41898 0.7804 0.0
H261 H 0.67718 0.45548 0.77447 0.0
H262 H 0.6844 0.4335 0.7415 0.0
O263 O 0.72143 0.38828 0.89123 0.0
O264 O 0.7685 0.3898 0.91484 0.0
H265 H 0.80653 0.42352 0.83306 0.0
H266 H 0.79685 0.45186 0.79988 0.0
C267 C 0.79528 0.44343 0.82588 0.0
H268 H 0.80594 0.45774 0.84985 0.0
H269 H 0.82032 0.385 0.8995 0.0
O270 O 0.66916 0.42664 0.84247 0.0
C271 C 0.74553 0.3771 0.90912 0.0
H272 H 0.2019 0.98149 0.94526 0.0
H273 H 0.20208 0.00347 0.00264 0.0
H274 H 0.29365 0.00255 0.0527 0.0
H275 H 0.29378 0.9803 0.99555 0.0
H276 H 0.26927 0.97737 0.09724 0.0
H277 H 0.22196 0.07996 0.0503 0.0
H278 H 0.20168 0.05238 0.02087 0.0
H279 H 0.23657 0.05966 0.02304 0.0
C280 C 0.22213 0.98648 0.96808 0.0
C281 C 0.24784 0.97886 0.9659 0.0
C282 C 0.22216 -0.00078 0.00081 0.0
C283 C 0.24787 0.00476 0.03183 0.0
C284 C 0.27358 -0.00151 0.02899 0.0
H285 H 0.27099 0.08012 0.24895 0.0
H286 H 0.27177 0.06979 0.18652 0.0
C287 C 0.27359 0.98578 0.99627 0.0
C288 C 0.24785 0.01398 0.06871 0.0
H289 H 0.22462 0.06442 0.11097 0.0
C290 C 0.25973 0.99652 0.10032 0.0
C291 C 0.23547 0.039 0.07265 0.0
C292 C 0.22341 0.05898 0.04002 0.0
C293 C 0.25898 0.00309 0.13557 0.0
C294 C 0.2457 0.02761 0.13915 0.0
C295 C 0.23447 0.04547 0.1079 0.0
C296 C 0.24358 0.03498 0.17542 0.0
C297 C 0.27248 0.98377 0.16879 0.0
C298 C 0.22703 0.01912 0.18932 0.0
C299 C 0.22661 0.02497 0.22485 0.0
C300 C 0.24276 0.04671 0.24693 0.0
C301 C 0.25862 0.06307 0.23248 0.0
C302 C 0.25897 0.05729 0.19689 0.0
H303 H 0.28706 0.96905 0.16374 0.0
H304 H 0.28453 0.99529 0.19547 0.0
H305 H 0.25559 0.97192 0.17311 0.0
H306 H 0.2148 0.00198 0.17291 0.0
H307 H 0.21424 0.01211 0.23551 0.0
H308 H 0.79042 0.07933 0.27711 0.0
H309 H 0.79192 0.06896 0.34081 0.0
H310 H 0.74326 0.99551 0.29638 0.0
H311 H 0.74201 0.00572 0.23289 0.0
H312 H 0.74435 0.06038 0.36228 0.0
H313 H 0.81499 0.96981 0.38946 0.0
H314 H 0.8115 0.99483 0.35309 0.0
H315 H 0.78463 0.96914 0.34459 0.0
C316 C 0.78025 0.06091 0.28119 0.0
C317 C 0.76621 0.0432 0.25043 0.0
C318 C 0.78098 0.0551 0.31737 0.0
C319 C 0.76791 0.03137 0.32327 0.0
C320 C 0.75375 0.01376 0.29245 0.0
H321 H 0.71767 0.97834 0.50107 0.0
H322 H 0.71993 -0.00028 0.44461 0.0
C323 C 0.75294 0.01962 0.25629 0.0
C324 C 0.76899 0.02491 0.36162 0.0
H325 H 0.79243 0.97683 0.43207 0.0
C326 C 0.75503 0.04224 0.37776 0.0
C327 C 0.78326 0.00145 0.38186 0.0
C328 C 0.79968 0.98282 0.36662 0.0
C329 C 0.7542 0.03619 0.41322 0.0
C330 C 0.76746 0.01209 0.43269 0.0
C331 C 0.78215 0.99525 0.41701 0.0
C332 C 0.76576 0.00322 0.46876 0.0
C333 C 0.73922 0.05564 0.42957 0.0
C334 C 0.79073 -0.00162 0.50126 0.0
C335 C 0.78955 0.98599 0.53348 0.0
C336 C 0.76333 0.97801 0.53374 0.0
C337 C 0.73821 0.98424 0.50188 0.0
C338 C 0.73944 0.99661 0.4696 0.0
H339 H 0.73734 0.07643 0.41702 0.0
H340 H 0.71745 0.04792 0.42297 0.0
H341 H 0.75056 0.05719 0.46107 0.0
H342 H 0.81125 0.00331 0.50116 0.0
H343 H 0.80931 0.98165 0.55756 0.0
H344 H 0.73635 0.91375 0.74829 0.0
H345 H 0.73461 0.92437 0.81011 0.0
H346 H 0.79169 0.9922 0.82457 0.0
H347 H 0.79335 0.9817 0.76269 0.0
H348 H 0.78247 0.93069 0.88681 0.0
H349 H 0.71731 0.0242 0.83114 0.0
H350 H 0.72012 0.99744 0.80027 0.0
H351 H 0.74862 0.02145 0.82133 0.0
C352 C 0.74855 0.93086 0.76483 0.0
C353 C 0.76479 0.94711 0.75084 0.0
C354 C 0.74764 0.93681 0.80006 0.0
C355 C 0.7628 0.9592 0.82158 0.0
C356 C 0.77967 0.97498 0.80813 0.0
H357 H 0.80501 0.01506 0.05005 0.0
H358 H 0.80419 0.9928 0.99256 0.0
C359 C 0.7807 0.96893 0.773 0.0
C360 C 0.76023 0.96671 0.85749 0.0
H361 H 0.73534 0.01687 0.8979 0.0
C362 C 0.77205 0.94943 0.8893 0.0
C363 C 0.74619 0.99092 0.86029 0.0
C364 C 0.73209 0.00954 0.82642 0.0
C365 C 0.77101 0.95628 0.9244 0.0
C366 C 0.75799 0.98111 0.92763 0.0
C367 C 0.74538 -0.00212 0.89539 0.0
C368 C 0.75835 0.99096 0.96445 0.0
C369 C 0.7838 0.93692 0.95767 0.0
C370 C 0.73283 0.9972 0.96786 0.0
C371 C 0.73319 0.01011 0.00067 0.0
C372 C 0.75912 0.01725 0.03054 0.0
C373 C 0.78465 0.00987 0.02765 0.0
C374 C 0.78425 0.99696 0.99486 0.0
H375 H 0.78526 0.91577 0.94796 0.0
H376 H 0.80562 0.94384 0.97595 0.0
H377 H 0.77116 0.93654 0.97534 0.0
H378 H 0.71262 0.99283 0.94461 0.0
H379 H 0.71314 0.01544 0.00192 0.0
H380 H 0.21868 0.91409 0.72035 0.0
H381 H 0.21874 0.92482 0.6576 0.0
H382 H 0.27518 0.99275 0.70723 0.0
H383 H 0.27473 0.98234 0.7697 0.0
H384 H 0.22718 0.00549 0.64 0.0
H385 H 0.28414 0.91356 0.6216 0.0
H386 H 0.25413 0.90699 0.63323 0.0
H387 H 0.28491 0.92379 0.66739 0.0
C388 C 0.23098 0.93133 0.71767 0.0
C389 C 0.2466 0.94751 0.74958 0.0
C390 C 0.23126 0.93726 0.68203 0.0
C391 C 0.24725 0.95937 0.67794 0.0
C392 C 0.26284 0.97551 0.70988 0.0
H393 H 0.29377 0.01474 0.49695 0.0
H394 H 0.29271 0.99366 0.55441 0.0
C395 C 0.26261 0.96955 0.74545 0.0
C396 C 0.24681 0.96659 0.64013 0.0
H397 H 0.26615 0.94427 0.56931 0.0
C398 C 0.23562 0.99209 0.62448 0.0
C399 C 0.25808 0.94911 0.6202 0.0
C400 C 0.27123 0.9219 0.63647 0.0
C401 C 0.23534 0.00063 0.58936 0.0
C402 C 0.24623 0.98302 0.56912 0.0
C403 C 0.25756 0.95755 0.58478 0.0
C404 C 0.24689 0.99148 0.53234 0.0
C405 C 0.22399 0.02872 0.57457 0.0
C406 C 0.2215 0.99611 0.50043 0.0
C407 C 0.22198 0.0082 0.46762 0.0
C408 C 0.24792 0.01582 0.46612 0.0
C409 C 0.27342 0.00931 0.4972 0.0
C410 C 0.27288 0.99724 0.53006 0.0
H411 H 0.22195 0.04178 0.59712 0.0
H412 H 0.23802 0.03925 0.56308 0.0
H413 H 0.20264 0.02667 0.55103 0.0
H414 H 0.20124 0.9914 0.5015 0.0
H415 H 0.20194 0.01262 0.44409 0.0
H416 H 0.76971 0.5809 0.25098 0.0
H417 H 0.77045 0.57074 0.18851 0.0
H418 H 0.71487 0.50186 0.17573 0.0
H419 H 0.71447 0.51176 0.23844 0.0
H420 H 0.76445 0.49008 0.16309 0.0
H421 H 0.70678 0.58072 0.0802 0.0
H422 H 0.73576 0.58795 0.12507 0.0
H423 H 0.7049 0.57045 0.1245 0.0
C424 C 0.7576 0.56367 0.23466 0.0
C425 C 0.74212 0.547 0.24934 0.0
C426 C 0.75784 0.55804 0.19894 0.0
C427 C 0.74248 0.53572 0.17739 0.0
C428 C 0.72673 0.51926 0.19189 0.0
H429 H 0.70071 0.48041 0.94843 0.0
H430 H 0.70144 0.50177 0.00653 0.0
C431 C 0.72645 0.52494 0.22753 0.0
C432 C 0.74411 0.52848 0.14074 0.0
H433 H 0.72681 0.55048 0.04933 0.0
C434 C 0.7563 0.5033 0.13823 0.0
C435 C 0.73332 0.54577 0.1084 0.0
C436 C 0.71923 0.57266 0.10936 0.0
C437 C 0.7579 0.49481 0.10414 0.0
C438 C 0.74738 0.51218 0.07185 0.0
C439 C 0.73517 0.53741 0.07431 0.0
C440 C 0.74725 0.50345 0.03472 0.0
C441 C 0.77012 0.46696 0.10265 0.0
C442 C 0.77279 0.49842 0.03076 0.0
C443 C 0.7725 0.48612 0.9976 0.0
C444 C 0.74662 0.4787 0.96782 0.0
C445 C 0.72104 0.48561 0.97089 0.0
C446 C 0.72138 0.49789 0.00406 0.0
H447 H 0.77192 0.454 0.12739 0.0
H448 H 0.75678 0.45606 0.07595 0.0
H449 H 0.79168 0.46944 0.10304 0.0
H450 H 0.79297 0.50301 0.05394 0.0
H451 H 0.79259 0.48134 0.99608 0.0
H452 H 0.28998 0.57994 0.27475 0.0
H453 H 0.29204 0.56976 0.3388 0.0
H454 H 0.24098 0.49762 0.29459 0.0
H455 H 0.23911 0.50764 0.23075 0.0
H456 H 0.24427 0.56206 0.36131 0.0
H457 H 0.3137 0.47071 0.38635 0.0
H458 H 0.31038 0.49602 0.35039 0.0
H459 H 0.28314 0.4707 0.34167 0.0
C460 C 0.27938 0.56185 0.27894 0.0
C461 C 0.26452 0.54443 0.24816 0.0
C462 C 0.28044 0.55616 0.31532 0.0
C463 C 0.26687 0.53284 0.32136 0.0
C464 C 0.25184 0.51555 0.29051 0.0
H465 H 0.21692 0.47889 0.49817 0.0
H466 H 0.21956 0.5009 0.44235 0.0
C467 C 0.25068 0.52131 0.25416 0.0
C468 C 0.2684 0.52639 0.35989 0.0
H469 H 0.29178 0.47785 0.42968 0.0
C470 C 0.25484 0.54379 0.37651 0.0
C471 C 0.28256 0.50276 0.37973 0.0
C472 C 0.29851 0.48405 0.36387 0.0
C473 C 0.25421 0.53759 0.41203 0.0
C474 C 0.26727 0.51328 0.43105 0.0
C475 C 0.28166 0.49642 0.41496 0.0
C476 C 0.26541 0.50408 0.46687 0.0
C477 C 0.23958 0.55704 0.42887 0.0
C478 C 0.29029 0.49885 0.49934 0.0
C479 C 0.28889 0.48611 0.5312 0.0
C480 C 0.26254 0.47814 0.53108 0.0
C481 C 0.23755 0.48474 0.49925 0.0
C482 C 0.239 0.49748 0.46736 0.0
H483 H 0.23793 0.57793 0.41669 0.0
H484 H 0.21773 0.54955 0.42227 0.0
H485 H 0.25104 0.55828 0.46039 0.0
H486 H 0.31088 0.50375 0.49948 0.0
H487 H 0.30856 0.48149 0.55527 0.0
H488 H 0.30303 0.5121 0.05004 0.0
H489 H 0.30305 0.491 0.99222 0.0
H490 H 0.21167 0.49559 0.93955 0.0
H491 H 0.21128 0.51654 0.99747 0.0
H492 H 0.23687 0.44562 0.92358 0.0
H493 H 0.2836 0.54219 0.89765 0.0
H494 H 0.30258 0.52658 0.94346 0.0
H495 H 0.2675 0.53989 0.93167 0.0
C496 C 0.28285 0.50822 0.02648 0.0
C497 C 0.25716 0.51646 0.0282 0.0
C498 C 0.28295 0.49619 0.99343 0.0
C499 C 0.25742 0.49226 0.96148 0.0
C500 C 0.23161 0.49862 0.96393 0.0
H501 H 0.23214 0.48398 0.72465 0.0
H502 H 0.23082 0.4945 0.78661 0.0
C503 C 0.23145 0.51063 0.99705 0.0
C504 C 0.25783 0.48391 0.92454 0.0
H505 H 0.27796 0.50596 0.85446 0.0
C506 C 0.24588 0.45872 0.90842 0.0
C507 C 0.26927 0.5013 0.90471 0.0
C508 C 0.28127 0.52911 0.91998 0.0
C509 C 0.24536 0.45032 0.87299 0.0
C510 C 0.25728 0.46752 0.85354 0.0
C511 C 0.26901 0.49277 0.8696 0.0
C512 C 0.25719 0.4602 0.81594 0.0
C513 C 0.23156 0.42342 0.85625 0.0
C514 C 0.27259 0.43754 0.81206 0.0
C515 C 0.27334 0.43155 0.77672 0.0
C516 C 0.25883 0.44822 0.74491 0.0
C517 C 0.2434 0.47082 0.74883 0.0
C518 C 0.24267 0.47683 0.7841 0.0
H519 H 0.21795 0.41562 0.87044 0.0
H520 H 0.21842 0.4255 0.82518 0.0
H521 H 0.2483 0.40799 0.86003 0.0
H522 H 0.28432 0.42473 0.83643 0.0
H523 H 0.28519 0.41389 0.77418 0.0
H524 H 0.76839 0.41398 0.74994 0.0
H525 H 0.76894 0.42476 0.68752 0.0
H526 H 0.71121 0.49179 0.67441 0.0
H527 H 0.71086 0.48121 0.73699 0.0
H528 H 0.72134 0.43022 0.61181 0.0
H529 H 0.78349 0.52567 0.66571 0.0
H530 H 0.78127 0.49904 0.69713 0.0
H531 H 0.75214 0.52226 0.67527 0.0
C532 C 0.7558 0.43096 0.73359 0.0
C533 C 0.7398 0.44699 0.7482 0.0
C534 C 0.75601 0.43699 0.69799 0.0
C535 C 0.74035 0.45922 0.67666 0.0
C536 C 0.72364 0.47471 0.6907 0.0
H537 H 0.69897 0.51428 0.447 0.0
H538 H 0.69887 0.49231 0.50426 0.0
C539 C 0.72335 0.46861 0.72623 0.0
C540 C 0.74238 0.46693 0.64046 0.0
H541 H 0.76589 0.51764 0.59918 0.0
C542 C 0.73115 0.44926 0.60897 0.0
C543 C 0.75561 0.49157 0.63718 0.0
C544 C 0.76906 0.51069 0.67065 0.0
C545 C 0.73213 0.45604 0.5738 0.0
C546 C 0.74451 0.48115 0.5702 0.0
C547 C 0.75635 0.49843 0.60202 0.0
C548 C 0.74464 0.49059 0.53347 0.0
C549 C 0.72007 0.43627 0.54089 0.0
C550 C 0.77042 0.49666 0.53074 0.0
C551 C 0.7706 0.50933 0.49809 0.0
C552 C 0.74494 0.51644 0.4677 0.0
C553 C 0.71913 0.50914 0.46984 0.0
C554 C 0.719 0.49641 0.50249 0.0
H555 H 0.71837 0.41525 0.55083 0.0
H556 H 0.69845 0.44308 0.52162 0.0
H557 H 0.73338 0.43564 0.52413 0.0
H558 H 0.79044 0.49239 0.55443 0.0
H559 H 0.79086 0.51458 0.49741 0.0
H560 H 0.62211 0.97608 0.51105 0.0
H561 H 0.57531 -0.00227 0.48909 0.0
H562 H 0.55474 0.94827 0.56783 0.0
H563 H 0.60175 0.92718 0.59075 0.0
H564 H 0.52239 0.97139 0.45615 0.0
H565 H 0.53402 0.02564 0.58913 0.0
H566 H 0.56406 0.01256 0.58122 0.0
H567 H 0.5426 0.98987 0.59554 0.0
C568 C 0.60798 0.97038 0.52447 0.0
C569 C 0.61592 0.95041 0.55334 0.0
C570 C 0.5811 0.98253 0.51157 0.0
C571 C 0.56176 0.97497 0.52734 0.0
C572 C 0.56956 0.95487 0.55589 0.0
H573 H 0.388 0.0185 0.48572 0.0
H574 H 0.43493 0.99718 0.50751 0.0
C575 C 0.59636 0.9427 0.56874 0.0
C576 C 0.53294 0.98713 0.5128 0.0
H577 H 0.48755 0.02365 0.53994 0.0
C578 C 0.5148 0.98298 0.47437 0.0
C579 C 0.52309 0.00208 0.53673 0.0
C580 C 0.54201 0.00806 0.57787 0.0
C581 C 0.48685 0.99297 0.45935 0.0
C582 C 0.47699 0.00791 0.48329 0.0
C583 C 0.49514 0.01209 0.52171 0.0
C584 C 0.44809 0.01989 0.46884 0.0
C585 C 0.46793 0.98695 0.41822 0.0
C586 C 0.44002 0.03985 0.44009 0.0
C587 C 0.41312 0.05182 0.4273 0.0
C588 C 0.39374 0.04405 0.44298 0.0
C589 C 0.40197 0.02423 0.47206 0.0
C590 C 0.42893 0.01227 0.48488 0.0
H591 H 0.47594 0.96939 0.40697 0.0
H592 H 0.44589 0.9824 0.4149 0.0
H593 H 0.46728 0.00514 0.40053 0.0
H594 H 0.4547 0.04651 0.42794 0.0
H595 H 0.40751 0.06724 0.40513 0.0
H596 H 0.38143 0.97706 0.90186 0.0
H597 H 0.42829 -0.00164 0.92116 0.0
H598 H 0.4608 0.94598 0.02025 0.0
H599 H 0.41423 0.92424 0.00051 0.0
H600 H 0.46084 0.02664 0.98219 0.0
H601 H 0.51789 0.93218 0.97577 0.0
H602 H 0.47966 0.93386 0.9572 0.0
H603 H 0.50021 0.92838 0.00743 0.0
C604 C 0.39848 0.9704 0.92802 0.0
C605 C 0.3942 0.94919 0.94991 0.0
C606 C 0.4253 0.9824 0.93886 0.0
C607 C 0.44825 0.97339 0.97175 0.0
C608 C 0.4437 0.95272 0.99416 0.0
H609 H 0.60286 0.06316 0.09716 0.0
H610 H 0.55567 0.04226 0.07254 0.0
C611 C 0.41704 0.94048 0.98305 0.0
C612 C 0.47684 0.98581 0.98299 0.0
H613 H 0.54684 0.97013 0.00876 0.0
C614 C 0.47961 0.0143 0.98769 0.0
C615 C 0.5013 0.96981 0.98935 0.0
C616 C 0.4996 0.93941 0.98176 0.0
C617 C 0.50623 0.02712 -0.00028 0.0
C618 C 0.5309 0.01091 0.00853 0.0
C619 C 0.52802 0.98252 0.00264 0.0
C620 C 0.55988 0.02293 0.02411 0.0
C621 C 0.5075 0.05795 0.00228 0.0
C622 C 0.5785 0.01804 0.00614 0.0
C623 C 0.60575 0.02946 0.02073 0.0
C624 C 0.61481 0.04599 0.05353 0.0
C625 C 0.59631 0.0506 0.07171 0.0
C626 C 0.56926 0.03887 0.05746 0.0
H627 H 0.48707 0.06734 0.98303 0.0
H628 H 0.51159 0.06427 0.0319 0.0
H629 H 0.52472 0.06623 0.99481 0.0
H630 H 0.57178 0.00573 0.98045 0.0
H631 H 0.61937 0.02602 0.00571 0.0
H632 H 0.87815 0.50864 0.41566 0.0
H633 H 0.92524 0.48764 0.43778 0.0
H634 H 0.96192 0.5589 0.50638 0.0
H635 H 0.91479 0.57973 0.48519 0.0
H636 H 0.9735 0.50962 0.42894 0.0
H637 H 0.99383 0.49471 0.58175 0.0
H638 H 0.95872 0.50073 0.5454 0.0
H639 H 0.98314 0.52869 0.5638 0.0
C640 C 0.89607 0.51952 0.43627 0.0
C641 C 0.89265 0.54554 0.44948 0.0
C642 C 0.92302 0.50763 0.44852 0.0
C643 C 0.94696 0.52152 0.47423 0.0
C644 C 0.94364 0.5476 0.48717 0.0
H645 H 0.12747 0.48496 0.58025 0.0
H646 H 0.08084 0.50673 0.55834 0.0
C647 C 0.91674 0.55952 0.47484 0.0
C648 C 0.97559 0.50928 0.48629 0.0
H649 H 0.03247 0.48669 0.56425 0.0
C650 C 0.98638 0.50447 0.45848 0.0
C651 C 0.99234 0.50279 0.52488 0.0
C652 C 0.98141 0.50675 0.55571 0.0
C653 C 0.01371 0.49367 0.46832 0.0
C654 C 0.03042 0.487 0.5069 0.0
C655 C 0.01964 0.49189 0.53472 0.0
C656 C 0.0589 0.47437 0.51889 0.0
C657 C 0.02465 0.49003 0.43744 0.0
C658 C 0.06201 0.44885 0.50425 0.0
C659 C 0.08871 0.43657 0.51629 0.0
C660 C 0.11286 0.44953 0.54327 0.0
C661 C 0.10963 0.47491 0.55834 0.0
C662 C 0.08287 0.48723 0.54622 0.0
H663 H 0.0129 0.50306 0.41219 0.0
H664 H 0.04761 0.49505 0.44816 0.0
H665 H 0.02179 0.46838 0.42788 0.0
H666 H 0.0437 0.43822 0.48388 0.0
H667 H 0.09044 0.41685 0.50447 0.0
H668 H 0.11981 0.51659 0.01429 0.0
H669 H 0.07272 0.49558 0.99236 0.0
H670 H 0.05148 0.54834 0.06738 0.0
H671 H 0.09855 0.56934 0.08957 0.0
H672 H 0.04559 0.46839 0.03318 0.0
H673 H 0.98696 0.56227 0.96327 0.0
H674 H 0.02487 0.55885 0.97828 0.0
H675 H 0.01023 0.56679 0.01258 0.0
C676 C 0.10538 0.52332 0.02674 0.0
C677 C 0.11305 0.54437 0.05409 0.0
C678 C 0.07836 0.51149 0.01388 0.0
C679 C 0.05849 0.52068 0.02785 0.0
C680 C 0.06629 0.54133 0.05565 0.0
H681 H 0.88529 0.47518 0.98713 0.0
H682 H 0.93253 0.49596 0.01013 0.0
C683 C 0.09322 0.5532 0.06842 0.0
C684 C 0.02958 0.50871 0.01336 0.0
H685 H 0.95921 0.5247 0.96782 0.0
C686 C 0.0267 0.48065 0.01873 0.0
C687 C 0.00498 0.5248 0.99456 0.0
C688 C 0.00681 0.5548 0.98647 0.0
C689 C 0.99982 0.46831 0.00636 0.0
C690 C 0.97525 0.48441 0.98764 0.0
C691 C 0.97811 0.51246 0.9823 0.0
C692 C 0.94638 0.47241 0.97288 0.0
C693 C 0.99791 0.43825 0.01404 0.0
C694 C 0.93839 0.45266 0.94385 0.0
C695 C 0.91131 0.44103 0.93031 0.0
C696 C 0.89158 0.44913 0.94522 0.0
C697 C 0.89957 0.4691 0.97411 0.0
C698 C 0.92669 0.48078 0.98762 0.0
H699 H 0.0179 0.43049 0.03665 0.0
H700 H 0.98012 0.43423 0.0228 0.0
H701 H 0.99387 0.4265 0.98753 0.0
H702 H 0.95312 0.44625 0.93166 0.0
H703 H 0.90579 0.42569 0.90803 0.0
H704 H 0.1232 0.08731 0.29516 0.0
H705 H 0.07124 0.08841 0.26484 0.0
H706 H 0.0679 0.00743 0.30755 0.0
H707 H 0.11979 0.00615 0.33814 0.0
H708 H 0.03366 0.05164 0.20979 0.0
H709 H 0.01585 0.0537 0.34369 0.0
H710 H 0.0498 0.06152 0.34247 0.0
H711 H 0.03856 0.02657 0.34097 0.0
C712 C 0.11143 0.06974 0.29817 0.0
C713 C 0.12565 0.04669 0.31926 0.0
C714 C 0.08175 0.0704 0.28079 0.0
C715 C 0.06577 0.04817 0.28445 0.0
C716 C 0.07987 0.02499 0.30497 0.0
H717 H 0.88918 0.00865 0.15146 0.0
H718 H 0.94104 0.00977 0.18247 0.0
C719 C 0.10953 0.02425 0.32223 0.0
C720 C 0.03433 0.04904 0.26633 0.0
H721 H 0.97515 0.04708 0.28596 0.0
C722 C 0.02084 0.05074 0.2264 0.0
C723 C 0.01772 0.04822 0.28816 0.0
C724 C 0.03114 0.04765 0.33122 0.0
C725 C 0.9911 0.051 0.20763 0.0
C726 C 0.97449 0.04922 0.22939 0.0
C727 C 0.98797 0.04817 0.26936 0.0
C728 C 0.94305 0.04838 0.21112 0.0
C729 C 0.97769 0.05344 0.16469 0.0
C730 C 0.92699 0.06938 0.21775 0.0
C731 C 0.89731 0.06878 0.20014 0.0
C732 C 0.88318 0.04703 0.17582 0.0
C733 C 0.89937 0.02576 0.16988 0.0
C734 C 0.92903 0.02643 0.18739 0.0
H735 H 0.99296 0.06129 0.1532 0.0
H736 H 0.97038 0.03294 0.15207 0.0
H737 H 0.95896 0.06724 0.15533 0.0
H738 H 0.93744 0.08641 0.23619 0.0
H739 H 0.88548 0.08542 0.20548 0.0
H740 H 0.1225 0.90526 0.8076 0.0
H741 H 0.07051 0.90502 0.77814 0.0
H742 H 0.06967 0.99272 0.78967 0.0
H743 H 0.12161 0.99323 0.81914 0.0
H744 H 0.0334 0.9263 0.81248 0.0
H745 H 0.01748 0.97744 0.67556 0.0
H746 H 0.05069 0.96163 0.70578 0.0
H747 H 0.04124 0.99452 0.71805 0.0
C748 C 0.11129 0.92454 0.80363 0.0
C749 C 0.12622 0.94928 0.81569 0.0
C750 C 0.08159 0.92433 0.78686 0.0
C751 C 0.06631 0.94887 0.78143 0.0
C752 C 0.08111 0.97361 0.79314 0.0
H753 H 0.88775 0.99236 0.68678 0.0
H754 H 0.9397 0.99207 0.71598 0.0
C755 C 0.11079 0.97383 0.81012 0.0
C756 C 0.03485 0.94851 0.76472 0.0
H757 H 0.97649 0.97011 0.68801 0.0
C758 C 0.02089 0.93575 0.78519 0.0
C759 C 0.01871 0.96098 0.72924 0.0
C760 C 0.03269 0.97426 0.70562 0.0
C761 C 0.99112 0.93557 0.77143 0.0
C762 C 0.97492 0.94796 0.73581 0.0
C763 C 0.98894 0.96066 0.71532 0.0
C764 C 0.94339 0.94795 0.71919 0.0
C765 C 0.97736 0.92274 0.79564 0.0
C766 C 0.9282 0.92323 0.7111 0.0
C767 C 0.8985 0.92332 0.69462 0.0
C768 C 0.88341 0.94815 0.68548 0.0
C769 C 0.8987 0.97288 0.69351 0.0
C770 C 0.92839 0.97276 0.71015 0.0
H771 H 0.9924 0.92128 0.82607 0.0
H772 H 0.95848 0.93462 0.79391 0.0
H773 H 0.97035 0.9017 0.78519 0.0
H774 H 0.93931 0.90383 0.71701 0.0
H775 H 0.88741 0.9039 0.68857 0.0
H776 H 0.38311 0.5843 0.20477 0.0
H777 H 0.43507 0.58539 0.23598 0.0
H778 H 0.43938 0.51196 0.17606 0.0
H779 H 0.38756 0.51072 0.1446 0.0
H780 H 0.47275 0.54419 0.2825 0.0
H781 H 0.49143 0.56712 0.15224 0.0
H782 H 0.45735 0.57194 0.1546 0.0
H783 H 0.46868 0.53827 0.14803 0.0
C784 C 0.39511 0.5684 0.19817 0.0
C785 C 0.38119 0.5475 0.17202 0.0
C786 C 0.42478 0.56905 0.21606 0.0
C787 C 0.44103 0.54899 0.20788 0.0
C788 C 0.42722 0.5279 0.18225 0.0
H789 H 0.6176 0.5052 0.33268 0.0
H790 H 0.56574 0.50654 0.30157 0.0
C791 C 0.39758 0.52716 0.16447 0.0
C792 C 0.47244 0.54984 0.22653 0.0
H793 H 0.53192 0.55545 0.20806 0.0
C794 C 0.48572 0.54675 0.2663 0.0
C795 C 0.48924 0.55352 0.2053 0.0
C796 C 0.47603 0.55815 0.16271 0.0
C797 C 0.51545 0.54661 0.28536 0.0
C798 C 0.53225 0.54934 0.26397 0.0
C799 C 0.51896 0.55308 0.22431 0.0
C800 C 0.56368 0.54842 0.28229 0.0
C801 C 0.52864 0.54381 0.32826 0.0
C802 C 0.57972 0.57129 0.28088 0.0
C803 C 0.60938 0.57059 0.29853 0.0
C804 C 0.62354 0.54688 0.31767 0.0
C805 C 0.60739 0.52382 0.31835 0.0
C806 C 0.57773 0.52458 0.30078 0.0
H807 H 0.51323 0.54867 0.34106 0.0
H808 H 0.5359 0.52241 0.3359 0.0
H809 H 0.54736 0.55747 0.3411 0.0
H810 H 0.56925 0.58982 0.26651 0.0
H811 H 0.62118 0.58866 0.29732 0.0
H812 H 0.61963 0.49307 0.81312 0.0
H813 H 0.56762 0.49268 0.78443 0.0
H814 H 0.56804 0.40451 0.78804 0.0
H815 H 0.61999 0.40463 0.81676 0.0
H816 H 0.53054 0.46539 0.71464 0.0
H817 H 0.51619 0.42801 0.84306 0.0
H818 H 0.54916 0.44265 0.84557 0.0
H819 H 0.5398 0.40821 0.82889 0.0
C820 C 0.60868 0.47358 0.80784 0.0
C821 C 0.62397 0.44888 0.81741 0.0
C822 C 0.57898 0.47342 0.79143 0.0
C823 C 0.56405 0.44859 0.78464 0.0
C824 C 0.5792 0.4239 0.79365 0.0
H825 H 0.38521 0.4052 0.69315 0.0
H826 H 0.43718 0.40533 0.72221 0.0
C827 C 0.60889 0.42402 0.80988 0.0
C828 C 0.5326 0.44852 0.76765 0.0
H829 H 0.47481 0.4319 0.786 0.0
C830 C 0.5183 0.45818 0.73022 0.0
C831 C 0.5168 0.43894 0.78806 0.0
C832 C 0.53117 0.42904 0.82874 0.0
C833 C 0.48851 0.45814 0.71238 0.0
C834 C 0.47265 0.44881 0.73291 0.0
C835 C 0.487 0.43908 0.77034 0.0
C836 C 0.44113 0.44896 0.71603 0.0
C837 C 0.47435 0.46747 0.67139 0.0
C838 C 0.4261 0.47353 0.70367 0.0
C839 C 0.39642 0.47352 0.6869 0.0
C840 C 0.38118 0.44896 0.68254 0.0
C841 C 0.39629 0.42447 0.69596 0.0
C842 C 0.42599 0.4245 0.71258 0.0
H843 H 0.48912 0.46656 0.65674 0.0
H844 H 0.4554 0.45477 0.65516 0.0
H845 H 0.46734 0.48901 0.67067 0.0
H846 H 0.43734 0.49275 0.70693 0.0
H847 H 0.38546 0.49277 0.67719 0.0
H848 H 0.30588 0.34467 0.59349 0.0
H849 H 0.30412 0.30058 0.56221 0.0
H850 H 0.21263 0.3019 0.517 0.0
H851 H 0.21404 0.34596 0.54772 0.0
H852 H 0.27876 0.25024 0.56885 0.0
H853 H 0.2301 0.29219 0.42164 0.0
H854 H 0.24626 0.31367 0.46323 0.0
H855 H 0.21115 0.30017 0.45086 0.0
C856 C 0.28537 0.33553 0.57707 0.0
C857 C 0.2601 0.34899 0.57286 0.0
C858 C 0.28443 0.31037 0.5592 0.0
C859 C 0.25824 0.29833 0.53672 0.0
C860 C 0.23303 0.31119 0.53356 0.0
H861 H 0.20391 0.15002 0.40367 0.0
H862 H 0.20708 0.19422 0.43515 0.0
C863 C 0.23392 0.33631 0.55135 0.0
C864 C 0.2572 0.27233 0.51641 0.0
H865 H 0.23327 0.24382 0.42749 0.0
C866 C 0.26899 0.24881 0.53795 0.0
C867 C 0.2444 0.27065 0.4761 0.0
C868 C 0.23247 0.29554 0.4515 0.0
C869 C 0.26773 0.22342 0.52023 0.0
C870 C 0.25478 0.22171 0.47993 0.0
C871 C 0.24313 0.24525 0.45838 0.0
C872 C 0.253 0.19557 0.45961 0.0
C873 C 0.27965 0.19851 0.5448 0.0
C874 C 0.27777 0.18211 0.46217 0.0
C875 C 0.27608 0.1569 0.44423 0.0
C876 C 0.24952 0.14472 0.42322 0.0
C877 C 0.2247 0.15875 0.41969 0.0
C878 C 0.22644 0.18399 0.43767 0.0
H879 H 0.28257 0.20201 0.57486 0.0
H880 H 0.26553 0.18054 0.53347 0.0
H881 H 0.30069 0.19351 0.54476 0.0
H882 H 0.29845 0.19103 0.47833 0.0
H883 H 0.29563 0.14679 0.44735 0.0
H884 H 0.79314 0.34708 0.94927 0.0
H885 H 0.79582 0.30279 0.98011 0.0
H886 H 0.70447 0.30037 0.9382 0.0
H887 H 0.70146 0.34455 0.90684 0.0
H888 H 0.77544 0.29086 0.03638 0.0
H889 H 0.72451 0.22508 0.9084 0.0
H890 H 0.7376 0.259 0.90591 0.0
H891 H 0.7041 0.25461 0.90963 0.0
C892 C 0.77356 0.33704 0.9462 0.0
C893 C 0.74705 0.34939 0.9255 0.0
C894 C 0.77517 0.31175 0.96394 0.0
C895 C 0.75035 0.29824 0.96112 0.0
C896 C 0.72386 0.31027 0.94014 0.0
H897 H 0.71443 0.14899 0.05465 0.0
H898 H 0.71236 0.19353 0.02473 0.0
C899 C 0.72219 0.33558 0.92236 0.0
C900 C 0.75229 0.27213 0.98161 0.0
H901 H 0.73309 0.20485 0.96845 0.0
C902 C 0.76633 0.272 0.02158 0.0
C903 C 0.74031 0.24764 0.96213 0.0
C904 C 0.72599 0.2464 0.91913 0.0
C905 C 0.76826 0.24805 0.04271 0.0
C906 C 0.75621 0.22358 0.02323 0.0
C907 C 0.74223 0.22371 0.98326 0.0
C908 C 0.75787 0.19751 0.04367 0.0
C909 C 0.78263 0.24924 0.0857 0.0
C910 C 0.78421 0.18511 0.06444 0.0
C911 C 0.78553 0.15964 0.08168 0.0
C912 C 0.76048 0.14604 0.07821 0.0
C913 C 0.73416 0.15884 0.05793 0.0
C914 C 0.73289 0.18428 0.04073 0.0
H915 H 0.78445 0.27058 0.09648 0.0
H916 H 0.77084 0.23689 0.09891 0.0
H917 H 0.80438 0.24069 0.09516 0.0
H918 H 0.80371 0.19481 0.0665 0.0
H919 H 0.80614 0.15033 0.09691 0.0
H920 H 0.70125 0.65043 0.40367 0.0
H921 H 0.70402 0.69504 0.434 0.0
H922 H 0.79547 0.69169 0.47921 0.0
H923 H 0.79302 0.64737 0.44871 0.0
H924 H 0.73074 0.7058 0.51257 0.0
H925 H 0.77784 0.76798 0.43127 0.0
H926 H 0.76171 0.73498 0.41495 0.0
H927 H 0.79711 0.73721 0.45147 0.0
C928 C 0.72196 0.65932 0.41964 0.0
C929 C 0.74691 0.64531 0.42369 0.0
C930 C 0.72349 0.68478 0.43701 0.0
C931 C 0.74993 0.69675 0.45847 0.0
C932 C 0.77484 0.68303 0.46217 0.0
H933 H 0.80596 0.84344 0.59616 0.0
H934 H 0.80298 0.79892 0.56554 0.0
C935 C 0.77337 0.65761 0.44483 0.0
C936 C 0.75156 0.72292 0.47871 0.0
H937 H 0.77615 0.78848 0.48666 0.0
C938 C 0.7405 0.72395 0.50677 0.0
C939 C 0.76446 0.74645 0.47118 0.0
C940 C 0.77575 0.74679 0.44035 0.0
C941 C 0.74241 0.74783 0.52803 0.0
C942 C 0.75533 0.77135 0.52052 0.0
C943 C 0.76638 0.77033 0.49244 0.0
C944 C 0.75706 0.79748 0.54086 0.0
C945 C 0.73111 0.74751 0.55884 0.0
C946 C 0.73221 0.81133 0.53714 0.0
C947 C 0.73381 0.83671 0.55463 0.0
C948 C 0.76032 0.84883 0.57597 0.0
C949 C 0.78521 0.83469 0.58004 0.0
C950 C 0.78356 0.80928 0.5625 0.0
H951 H 0.72885 0.72632 0.56778 0.0
H952 H 0.74523 0.75919 0.58431 0.0
H953 H 0.70982 0.75724 0.54779 0.0
H954 H 0.71155 0.80279 0.51997 0.0
H955 H 0.7142 0.84705 0.55075 0.0
H956 H 0.20157 0.84588 0.90535 0.0
H957 H 0.2034 0.80187 0.93687 0.0
H958 H 0.29474 0.80175 0.97817 0.0
H959 H 0.29327 0.84571 0.94723 0.0
H960 H 0.22725 0.75116 0.9285 0.0
H961 H 0.28017 0.79234 0.07573 0.0
H962 H 0.26352 0.81409 0.03455 0.0
H963 H 0.29814 0.79995 0.04517 0.0
C964 C 0.22205 0.83644 0.92097 0.0
C965 C 0.24728 0.84946 0.92402 0.0
C966 C 0.22304 0.81133 0.93898 0.0
C967 C 0.24924 0.79891 0.96044 0.0
C968 C 0.27436 0.81134 0.96245 0.0
H969 H 0.30331 0.64951 0.09131 0.0
H970 H 0.30042 0.69382 0.06015 0.0
C971 C 0.27342 0.83641 0.94452 0.0
C972 C 0.25038 0.77291 0.98079 0.0
H973 H 0.27596 0.74403 0.06955 0.0
C974 C 0.23773 0.74959 0.95934 0.0
C975 C 0.26413 0.77102 0.02102 0.0
C976 C 0.27706 0.79571 0.04558 0.0
C977 C 0.239 0.72418 0.97704 0.0
C978 C 0.25286 0.72227 0.01726 0.0
C979 C 0.26541 0.74562 0.03872 0.0
C980 C 0.25457 0.69614 0.03755 0.0
C981 C 0.2261 0.69948 0.9525 0.0
C982 C 0.22979 0.68323 0.03598 0.0
C983 C 0.23132 0.65796 0.05372 0.0
C984 C 0.25774 0.6452 0.07355 0.0
C985 C 0.28263 0.65871 0.0762 0.0
C986 C 0.28104 0.68401 0.0584 0.0
H987 H 0.22254 0.70298 0.92221 0.0
H988 H 0.23992 0.68124 0.96319 0.0
H989 H 0.20526 0.69491 0.95346 0.0
H990 H 0.20921 0.69258 0.0207 0.0
H991 H 0.21174 0.64827 0.05133 0.0
loop_
_geom_bond_atom_site_label_1
_geom_bond_atom_site_label_2
_geom_bond_distance
_geom_bond_site_symmetry_2
_ccdc_geom_bond_type
Co0 O3 1.970 . S
Co0 N17 1.989 . S
Co0 O25 1.967 . S
Co0 O32 1.920 . S
Co1 O4 1.966 . S
Co1 N10 2.022 . S
Co1 N18 1.993 . S
Co1 O26 1.941 . S
C2 O3 1.258 . S
C2 O4 1.263 . S
O3 Co0 1.970 . S
O3 C2 1.258 . S
O4 Co1 1.966 . S
O4 C2 1.263 . S
C5 O6 1.235 . S
C5 O32 1.289 . S
O6 C5 1.235 . S
C7 C9 1.400 . S
C7 N10 1.351 . S
C7 C12 1.501 . S
C8 C9 1.387 . S
C8 N11 1.341 . S
C9 C7 1.400 . S
C9 C8 1.387 . S
N10 Co1 2.022 . S
N10 C7 1.351 . S
N10 N11 1.365 . S
N11 C8 1.341 . S
N11 N10 1.365 . S
N11 H31 0.862 . S
C12 C7 1.501 . S
C12 H13 0.961 . S
C12 H14 0.961 . S
C12 H15 0.960 . S
H13 C12 0.961 . S
H14 C12 0.961 . S
H15 C12 0.960 . S
C16 N17 1.342 . S
C16 C20 1.401 . S
C16 C21 1.499 . S
N17 Co0 1.989 . S
N17 C16 1.342 . S
N17 N18 1.388 . S
N18 Co1 1.993 . S
N18 N17 1.388 . S
N18 C19 1.346 . S
C19 N18 1.346 . S
C19 C20 1.396 . S
C19 C29 1.510 . S
C20 C16 1.401 . S
C20 C19 1.396 . S
C21 C16 1.499 . S
C21 H22 0.959 . S
C21 H23 0.960 . S
C21 H24 0.961 . S
H22 C21 0.959 . S
H23 C21 0.960 . S
H24 C21 0.961 . S
O25 Co0 1.967 . S
O25 C33 1.258 . S
O26 Co1 1.941 . S
O26 C33 1.266 . S
H27 C29 0.959 . S
H28 C29 0.961 . S
C29 C19 1.510 . S
C29 H27 0.959 . S
C29 H28 0.961 . S
C29 H30 0.960 . S
H30 C29 0.960 . S
H31 N11 0.862 . S
O32 Co0 1.920 . S
O32 C5 1.289 . S
C33 O25 1.258 . S
C33 O26 1.266 . S
Co34 O37 1.970 . S
Co34 N51 1.989 . S
Co34 O59 1.967 . S
Co34 O66 1.920 . S
Co35 O38 1.966 . S
Co35 N44 2.022 . S
Co35 N52 1.993 . S
Co35 O60 1.941 . S
C36 O37 1.258 . S
C36 O38 1.263 . S
O37 Co34 1.970 . S
O37 C36 1.258 . S
O38 Co35 1.966 . S
O38 C36 1.263 . S
C39 O40 1.235 . S
C39 O66 1.289 . S
O40 C39 1.235 . S
C41 C43 1.400 . S
C41 N44 1.351 . S
C41 C46 1.501 . S
C42 C43 1.387 . S
C42 N45 1.341 . S
C43 C41 1.400 . S
C43 C42 1.387 . S
N44 Co35 2.022 . S
N44 C41 1.351 . S
N44 N45 1.365 . S
N45 C42 1.341 . S
N45 N44 1.365 . S
N45 H65 0.862 . S
C46 C41 1.501 . S
C46 H47 0.961 . S
C46 H48 0.961 . S
C46 H49 0.960 1_554 S
H47 C46 0.961 . S
H48 C46 0.961 . S
H49 C46 0.960 1_556 S
C50 N51 1.342 . S
C50 C54 1.401 . S
C50 C55 1.499 . S
N51 Co34 1.989 . S
N51 C50 1.342 . S
N51 N52 1.388 . S
N52 Co35 1.993 . S
N52 N51 1.388 . S
N52 C53 1.346 . S
C53 N52 1.346 . S
C53 C54 1.396 . S
C53 C63 1.510 . S
C54 C50 1.401 . S
C54 C53 1.396 . S
C55 C50 1.499 . S
C55 H56 0.959 . S
C55 H57 0.960 . S
C55 H58 0.961 . S
H56 C55 0.959 . S
H57 C55 0.960 . S
H58 C55 0.961 . S
O59 Co34 1.967 . S
O59 C67 1.258 . S
O60 Co35 1.941 . S
O60 C67 1.266 . S
H61 C63 0.959 . S
H62 C63 0.961 . S
C63 C53 1.510 . S
C63 H61 0.959 . S
C63 H62 0.961 . S
C63 H64 0.960 . S
H64 C63 0.960 . S
H65 N45 0.862 . S
O66 Co34 1.920 . S
O66 C39 1.289 . S
C67 O59 1.258 . S
C67 O60 1.266 . S
Co68 O71 1.970 . S
Co68 N85 1.989 . S
Co68 O93 1.967 . S
Co68 O100 1.920 . S
Co69 O72 1.966 . S
Co69 N78 2.022 . S
Co69 N86 1.993 . S
Co69 O94 1.941 . S
C70 O71 1.258 . S
C70 O72 1.263 . S
O71 Co68 1.970 . S
O71 C70 1.258 . S
O72 Co69 1.966 . S
O72 C70 1.263 . S
C73 O74 1.235 . S
C73 O100 1.289 . S
O74 C73 1.235 . S
C75 C77 1.400 . S
C75 N78 1.351 . S
C75 C80 1.501 . S
C76 C77 1.387 . S
C76 N79 1.341 . S
C77 C75 1.400 . S
C77 C76 1.387 . S
N78 Co69 2.022 . S
N78 C75 1.351 . S
N78 N79 1.365 . S
N79 C76 1.341 . S
N79 N78 1.365 . S
N79 H99 0.862 . S
C80 C75 1.501 . S
C80 H81 0.961 . S
C80 H82 0.961 . S
C80 H83 0.960 . S
H81 C80 0.961 . S
H82 C80 0.961 . S
H83 C80 0.960 . S
C84 N85 1.342 . S
C84 C88 1.401 . S
C84 C89 1.499 . S
N85 Co68 1.989 . S
N85 C84 1.342 . S
N85 N86 1.388 . S
N86 Co69 1.993 . S
N86 N85 1.388 . S
N86 C87 1.346 . S
C87 N86 1.346 . S
C87 C88 1.396 . S
C87 C97 1.510 . S
C88 C84 1.401 . S
C88 C87 1.396 . S
C89 C84 1.499 . S
C89 H90 0.959 . S
C89 H91 0.960 . S
C89 H92 0.961 . S
H90 C89 0.959 . S
H91 C89 0.960 . S
H92 C89 0.961 . S
O93 Co68 1.967 . S
O93 C101 1.258 . S
O94 Co69 1.941 . S
O94 C101 1.266 . S
H95 C97 0.959 . S
H96 C97 0.961 . S
C97 C87 1.510 . S
C97 H95 0.959 . S
C97 H96 0.961 . S
C97 H98 0.960 . S
H98 C97 0.960 . S
H99 N79 0.862 . S
O100 Co68 1.920 . S
O100 C73 1.289 . S
C101 O93 1.258 . S
C101 O94 1.266 . S
Co102 O105 1.970 . S
Co102 N119 1.989 . S
Co102 O127 1.967 . S
Co102 O134 1.920 . S
Co103 O106 1.966 . S
Co103 N112 2.022 . S
Co103 N120 1.993 . S
Co103 O128 1.941 . S
C104 O105 1.258 . S
C104 O106 1.263 . S
O105 Co102 1.970 . S
O105 C104 1.258 . S
O106 Co103 1.966 . S
O106 C104 1.263 . S
C107 O108 1.235 . S
C107 O134 1.289 . S
O108 C107 1.235 . S
C109 C111 1.400 . S
C109 N112 1.351 . S
C109 C114 1.501 . S
C110 C111 1.387 . S
C110 N113 1.341 . S
C111 C109 1.400 . S
C111 C110 1.387 . S
N112 Co103 2.022 . S
N112 C109 1.351 . S
N112 N113 1.365 . S
N113 C110 1.341 . S
N113 N112 1.365 . S
N113 H133 0.862 . S
C114 C109 1.501 . S
C114 H115 0.961 . S
C114 H116 0.961 . S
C114 H117 0.960 1_556 S
H115 C114 0.961 . S
H116 C114 0.961 . S
H117 C114 0.960 1_554 S
C118 N119 1.342 . S
C118 C122 1.401 . S
C118 C123 1.499 . S
N119 Co102 1.989 . S
N119 C118 1.342 . S
N119 N120 1.388 . S
N120 Co103 1.993 . S
N120 N119 1.388 . S
N120 C121 1.346 . S
C121 N120 1.346 . S
C121 C122 1.396 . S
C121 C131 1.510 . S
C122 C118 1.401 . S
C122 C121 1.396 . S
C123 C118 1.499 . S
C123 H124 0.959 . S
C123 H125 0.960 . S
C123 H126 0.961 . S
H124 C123 0.959 . S
H125 C123 0.960 . S
H126 C123 0.961 . S
O127 Co102 1.967 . S
O127 C135 1.258 . S
O128 Co103 1.941 . S
O128 C135 1.266 . S
H129 C131 0.959 . S
H130 C131 0.961 . S
C131 C121 1.510 . S
C131 H129 0.959 . S
C131 H130 0.961 . S
C131 H132 0.960 . S
H132 C131 0.960 . S
H133 N113 0.862 . S
O134 Co102 1.920 . S
O134 C107 1.289 . S
C135 O127 1.258 . S
C135 O128 1.266 . S
Co136 O139 1.970 . S
Co136 N153 1.989 . S
Co136 O161 1.967 . S
Co136 O168 1.920 . S
Co137 O140 1.966 . S
Co137 N146 2.022 . S
Co137 N154 1.993 . S
Co137 O162 1.941 . S
C138 O139 1.258 . S
C138 O140 1.263 . S
O139 Co136 1.970 . S
O139 C138 1.258 . S
O140 Co137 1.966 . S
O140 C138 1.263 . S
C141 O142 1.235 . S
C141 O168 1.289 . S
O142 C141 1.235 . S
C143 C145 1.400 . S
C143 N146 1.351 . S
C143 C148 1.501 . S
C144 C145 1.387 . S
C144 N147 1.341 . S
C145 C143 1.400 . S
C145 C144 1.387 . S
N146 Co137 2.022 . S
N146 C143 1.351 . S
N146 N147 1.365 . S
N147 C144 1.341 . S
N147 N146 1.365 . S
N147 H167 0.862 . S
C148 C143 1.501 . S
C148 H149 0.961 . S
C148 H150 0.961 . S
C148 H151 0.960 . S
H149 C148 0.961 . S
H150 C148 0.961 . S
H151 C148 0.960 . S
C152 N153 1.342 . S
C152 C156 1.401 . S
C152 C157 1.499 . S
N153 Co136 1.989 . S
N153 C152 1.342 . S
N153 N154 1.388 . S
N154 Co137 1.993 . S
N154 N153 1.388 . S
N154 C155 1.346 . S
C155 N154 1.346 . S
C155 C156 1.396 . S
C155 C165 1.510 . S
C156 C152 1.401 . S
C156 C155 1.396 . S
C157 C152 1.499 . S
C157 H158 0.959 . S
C157 H159 0.960 . S
C157 H160 0.961 . S
H158 C157 0.959 . S
H159 C157 0.960 . S
H160 C157 0.961 . S
O161 Co136 1.967 . S
O161 C169 1.258 . S
O162 Co137 1.941 . S
O162 C169 1.266 . S
H163 C165 0.959 . S
H164 C165 0.961 . S
C165 C155 1.510 . S
C165 H163 0.959 . S
C165 H164 0.961 . S
C165 H166 0.960 . S
H166 C165 0.960 . S
H167 N147 0.862 . S
O168 Co136 1.920 . S
O168 C141 1.289 . S
C169 O161 1.258 . S
C169 O162 1.266 . S
Co170 O173 1.970 . S
Co170 N187 1.989 . S
Co170 O195 1.967 . S
Co170 O202 1.920 . S
Co171 O174 1.966 . S
Co171 N180 2.022 . S
Co171 N188 1.993 . S
Co171 O196 1.941 . S
C172 O173 1.258 . S
C172 O174 1.263 . S
O173 Co170 1.970 . S
O173 C172 1.258 . S
O174 Co171 1.966 . S
O174 C172 1.263 . S
C175 O176 1.235 . S
C175 O202 1.289 . S
O176 C175 1.235 . S
C177 C179 1.400 . S
C177 N180 1.351 . S
C177 C182 1.501 . S
C178 C179 1.387 . S
C178 N181 1.341 . S
C179 C177 1.400 . S
C179 C178 1.387 . S
N180 Co171 2.022 . S
N180 C177 1.351 . S
N180 N181 1.365 . S
N181 C178 1.341 . S
N181 N180 1.365 . S
N181 H201 0.862 . S
C182 C177 1.501 . S
C182 H183 0.961 . S
C182 H184 0.961 . S
C182 H185 0.960 1_554 S
H183 C182 0.961 . S
H184 C182 0.961 . S
H185 C182 0.960 1_556 S
C186 N187 1.342 . S
C186 C190 1.401 . S
C186 C191 1.499 . S
N187 Co170 1.989 . S
N187 C186 1.342 . S
N187 N188 1.388 . S
N188 Co171 1.993 . S
N188 N187 1.388 . S
N188 C189 1.346 . S
C189 N188 1.346 . S
C189 C190 1.396 . S
C189 C199 1.510 . S
C190 C186 1.401 . S
C190 C189 1.396 . S
C191 C186 1.499 . S
C191 H192 0.959 . S
C191 H193 0.960 . S
C191 H194 0.961 . S
H192 C191 0.959 . S
H193 C191 0.960 . S
H194 C191 0.961 . S
O195 Co170 1.967 . S
O195 C203 1.258 . S
O196 Co171 1.941 . S
O196 C203 1.266 . S
H197 C199 0.959 . S
H198 C199 0.961 . S
C199 C189 1.510 . S
C199 H197 0.959 . S
C199 H198 0.961 . S
C199 H200 0.960 . S
H200 C199 0.960 . S
H201 N181 0.862 . S
O202 Co170 1.920 . S
O202 C175 1.289 . S
C203 O195 1.258 . S
C203 O196 1.266 . S
Co204 O207 1.970 . S
Co204 N221 1.989 . S
Co204 O229 1.967 . S
Co204 O236 1.920 . S
Co205 O208 1.966 . S
Co205 N214 2.022 . S
Co205 N222 1.993 . S
Co205 O230 1.941 . S
C206 O207 1.258 . S
C206 O208 1.263 . S
O207 Co204 1.970 . S
O207 C206 1.258 . S
O208 Co205 1.966 . S
O208 C206 1.263 . S
C209 O210 1.235 . S
C209 O236 1.289 . S
O210 C209 1.235 . S
C211 C213 1.400 . S
C211 N214 1.351 . S
C211 C216 1.501 . S
C212 C213 1.387 . S
C212 N215 1.341 . S
C213 C211 1.400 . S
C213 C212 1.387 . S
N214 Co205 2.022 . S
N214 C211 1.351 . S
N214 N215 1.365 . S
N215 C212 1.341 . S
N215 N214 1.365 . S
N215 H235 0.862 . S
C216 C211 1.501 . S
C216 H217 0.961 . S
C216 H218 0.961 . S
C216 H219 0.960 . S
H217 C216 0.961 . S
H218 C216 0.961 . S
H219 C216 0.960 . S
C220 N221 1.342 . S
C220 C224 1.401 . S
C220 C225 1.499 . S
N221 Co204 1.989 . S
N221 C220 1.342 . S
N221 N222 1.388 . S
N222 Co205 1.993 . S
N222 N221 1.388 . S
N222 C223 1.346 . S
C223 N222 1.346 . S
C223 C224 1.396 . S
C223 C233 1.510 . S
C224 C220 1.401 . S
C224 C223 1.396 . S
C225 C220 1.499 . S
C225 H226 0.959 . S
C225 H227 0.960 . S
C225 H228 0.961 . S
H226 C225 0.959 . S
H227 C225 0.960 . S
H228 C225 0.961 . S
O229 Co204 1.967 . S
O229 C237 1.258 . S
O230 Co205 1.941 . S
O230 C237 1.266 . S
H231 C233 0.959 . S
H232 C233 0.961 . S
C233 C223 1.510 . S
C233 H231 0.959 . S
C233 H232 0.961 . S
C233 H234 0.960 . S
H234 C233 0.960 . S
H235 N215 0.862 . S
O236 Co204 1.920 . S
O236 C209 1.289 . S
C237 O229 1.258 . S
C237 O230 1.266 . S
Co238 O241 1.970 . S
Co238 N255 1.989 . S
Co238 O263 1.967 . S
Co238 O270 1.920 . S
Co239 O242 1.966 . S
Co239 N248 2.022 . S
Co239 N256 1.993 . S
Co239 O264 1.941 . S
C240 O241 1.258 . S
C240 O242 1.263 . S
O241 Co238 1.970 . S
O241 C240 1.258 . S
O242 Co239 1.966 . S
O242 C240 1.263 . S
C243 O244 1.235 . S
C243 O270 1.289 . S
O244 C243 1.235 . S
C245 C247 1.400 . S
C245 N248 1.351 . S
C245 C250 1.501 . S
C246 C247 1.387 . S
C246 N249 1.341 . S
C247 C245 1.400 . S
C247 C246 1.387 . S
N248 Co239 2.022 . S
N248 C245 1.351 . S
N248 N249 1.365 . S
N249 C246 1.341 . S
N249 N248 1.365 . S
N249 H269 0.862 . S
C250 C245 1.501 . S
C250 H251 0.961 . S
C250 H252 0.961 . S
C250 H253 0.960 1_556 S
H251 C250 0.961 . S
H252 C250 0.961 . S
H253 C250 0.960 1_554 S
C254 N255 1.342 . S
C254 C258 1.401 . S
C254 C259 1.499 . S
N255 Co238 1.989 . S
N255 C254 1.342 . S
N255 N256 1.388 . S
N256 Co239 1.993 . S
N256 N255 1.388 . S
N256 C257 1.346 . S
C257 N256 1.346 . S
C257 C258 1.396 . S
C257 C267 1.510 . S
C258 C254 1.401 . S
C258 C257 1.396 . S
C259 C254 1.499 . S
C259 H260 0.959 . S
C259 H261 0.960 . S
C259 H262 0.961 . S
H260 C259 0.959 . S
H261 C259 0.960 . S
H262 C259 0.961 . S
O263 Co238 1.967 . S
O263 C271 1.258 . S
O264 Co239 1.941 . S
O264 C271 1.266 . S
H265 C267 0.959 . S
H266 C267 0.961 . S
C267 C257 1.510 . S
C267 H265 0.959 . S
C267 H266 0.961 . S
C267 H268 0.960 . S
H268 C267 0.960 . S
H269 N249 0.862 . S
O270 Co238 1.920 . S
O270 C243 1.289 . S
C271 O263 1.258 . S
C271 O264 1.266 . S
H272 C280 0.929 . S
H273 C282 0.930 . S
H274 C284 0.930 1_545 S
H275 C287 0.929 . S
H276 C290 0.930 . S
H277 C292 0.960 . S
H278 C292 0.960 . S
H279 C292 0.960 . S
C280 H272 0.929 . S
C280 C281 1.377 . S
C280 C282 1.384 1_556 S
C281 C280 1.377 . S
C281 C287 1.390 1_556 S
C282 H273 0.930 . S
C282 C280 1.384 1_554 S
C282 C283 1.372 . S
C283 C282 1.372 . S
C283 C284 1.400 . S
C283 C288 1.490 . S
C284 H274 0.930 1_565 S
C284 C283 1.400 . S
C284 C287 1.386 . S
H285 C301 0.930 . S
H286 C302 0.931 . S
C287 H275 0.929 . S
C287 C281 1.390 1_554 S
C287 C284 1.386 . S
C288 C283 1.490 . S
C288 C290 1.395 . S
C288 C291 1.403 1_565 S
H289 C295 0.930 . S
C290 H276 0.930 . S
C290 C288 1.395 . S
C290 C293 1.403 . S
C291 C288 1.403 1_545 S
C291 C292 1.524 . S
C291 C295 1.400 . S
C292 H277 0.960 . S
C292 H278 0.960 . S
C292 H279 0.960 . S
C292 C291 1.524 . S
C293 C290 1.403 . S
C293 C294 1.392 1_565 S
C293 C297 1.495 . S
C294 C293 1.392 1_545 S
C294 C295 1.385 . S
C294 C296 1.478 . S
C295 H289 0.930 . S
C295 C291 1.400 . S
C295 C294 1.385 . S
C296 C294 1.478 . S
C296 C298 1.381 . S
C296 C302 1.383 . S
C297 C293 1.495 . S
C297 H303 0.959 . S
C297 H304 0.961 . S
C297 H305 0.960 . S
C298 C296 1.381 . S
C298 C299 1.394 . S
C298 H306 0.930 . S
C299 C298 1.394 . S
C299 C300 1.383 . S
C299 H307 0.929 . S
C300 C299 1.383 . S
C300 C301 1.377 . S
C301 H285 0.930 . S
C301 C300 1.377 . S
C301 C302 1.379 . S
C302 H286 0.931 . S
C302 C296 1.383 . S
C302 C301 1.379 . S
H303 C297 0.959 . S
H304 C297 0.961 . S
H305 C297 0.960 . S
H306 C298 0.930 . S
H307 C299 0.929 . S
H308 C316 0.929 . S
H309 C318 0.930 . S
H310 C320 0.930 1_565 S
H311 C323 0.905 1_565 S
H312 C326 0.930 . S
H313 C328 0.960 . S
H314 C328 0.960 . S
H315 C328 0.960 . S
C316 H308 0.929 . S
C316 C317 1.377 . S
C316 C318 1.384 . S
C317 C316 1.377 . S
C317 C323 1.390 . S
C318 H309 0.930 . S
C318 C316 1.384 . S
C318 C319 1.372 . S
C319 C318 1.372 . S
C319 C320 1.400 . S
C319 C324 1.490 . S
C320 H310 0.930 1_545 S
C320 C319 1.400 . S
C320 C323 1.386 . S
H321 C337 0.930 . S
H322 C338 0.931 . S
C323 H311 0.905 1_545 S
C323 C317 1.390 . S
C323 C320 1.386 . S
C324 C319 1.490 . S
C324 C326 1.395 . S
C324 C327 1.403 1_545 S
H325 C331 0.930 . S
C326 H312 0.930 . S
C326 C324 1.395 . S
C326 C329 1.403 . S
C327 C324 1.403 1_565 S
C327 C328 1.524 . S
C327 C331 1.400 . S
C328 H313 0.960 . S
C328 H314 0.960 . S
C328 H315 0.960 . S
C328 C327 1.524 . S
C329 C326 1.403 . S
C329 C330 1.392 1_545 S
C329 C333 1.495 . S
C330 C329 1.392 1_565 S
C330 C331 1.385 . S
C330 C332 1.478 . S
C331 H325 0.930 . S
C331 C327 1.400 . S
C331 C330 1.385 . S
C332 C330 1.478 . S
C332 C334 1.381 1_565 S
C332 C338 1.383 . S
C333 C329 1.495 . S
C333 H339 0.959 . S
C333 H340 0.961 . S
C333 H341 0.960 . S
C334 C332 1.381 1_545 S
C334 C335 1.394 1_545 S
C334 H342 0.930 . S
C335 C334 1.394 1_565 S
C335 C336 1.383 . S
C335 H343 0.929 1_565 S
C336 C335 1.383 . S
C336 C337 1.377 . S
C337 H321 0.930 . S
C337 C336 1.377 . S
C337 C338 1.379 . S
C338 H322 0.931 . S
C338 C332 1.383 . S
C338 C337 1.379 . S
H339 C333 0.959 . S
H340 C333 0.961 . S
H341 C333 0.960 . S
H342 C334 0.930 . S
H343 C335 0.929 1_545 S
H344 C352 0.929 . S
H345 C354 0.930 . S
H346 C356 0.930 1_545 S
H347 C359 0.929 1_545 S
H348 C362 0.930 . S
H349 C364 0.960 . S
H350 C364 0.960 1_565 S
H351 C364 0.960 . S
C352 H344 0.929 . S
C352 C353 1.377 . S
C352 C354 1.384 . S
C353 C352 1.377 . S
C353 C359 1.390 . S
C354 H345 0.930 . S
C354 C352 1.384 . S
C354 C355 1.372 . S
C355 C354 1.372 . S
C355 C356 1.400 . S
C355 C360 1.490 . S
C356 H346 0.930 1_565 S
C356 C355 1.400 . S
C356 C359 1.386 . S
H357 C373 0.930 . S
H358 C374 0.931 . S
C359 H347 0.929 1_565 S
C359 C353 1.390 . S
C359 C356 1.386 . S
C360 C355 1.490 . S
C360 C362 1.395 . S
C360 C363 1.403 1_565 S
H361 C367 0.930 . S
C362 H348 0.930 . S
C362 C360 1.395 . S
C362 C365 1.403 . S
C363 C360 1.403 1_545 S
C363 C364 1.524 . S
C363 C367 1.400 . S
C364 H349 0.960 . S
C364 H350 0.960 1_545 S
C364 H351 0.960 . S
C364 C363 1.524 . S
C365 C362 1.403 . S
C365 C366 1.392 1_565 S
C365 C369 1.495 . S
C366 C365 1.392 1_545 S
C366 C367 1.385 . S
C366 C368 1.478 . S
C367 H361 0.930 . S
C367 C363 1.400 . S
C367 C366 1.385 . S
C368 C366 1.478 . S
C368 C370 1.381 1_545 S
C368 C374 1.383 . S
C369 C365 1.495 . S
C369 H375 0.959 . S
C369 H376 0.961 . S
C369 H377 0.960 . S
C370 C368 1.381 1_565 S
C370 C371 1.394 1_566 S
C370 H378 0.930 . S
C371 C370 1.394 1_544 S
C371 C372 1.383 . S
C371 H379 0.929 1_545 S
C372 C371 1.383 . S
C372 C373 1.377 1_554 S
C373 H357 0.930 . S
C373 C372 1.377 1_556 S
C373 C374 1.379 . S
C374 H358 0.931 . S
C374 C368 1.383 . S
C374 C373 1.379 . S
H375 C369 0.959 . S
H376 C369 0.961 . S
H377 C369 0.960 . S
H378 C370 0.930 . S
H379 C371 0.929 1_565 S
H380 C388 0.929 . S
H381 C390 0.930 . S
H382 C392 0.930 1_545 S
H383 C395 0.929 . S
H384 C398 0.930 . S
H385 C400 0.960 . S
H386 C400 0.960 . S
H387 C400 0.960 . S
C388 H380 0.929 . S
C388 C389 1.377 . S
C388 C390 1.384 . S
C389 C388 1.377 . S
C389 C395 1.390 . S
C390 H381 0.930 . S
C390 C388 1.384 . S
C390 C391 1.372 . S
C391 C390 1.372 . S
C391 C392 1.400 . S
C391 C396 1.490 . S
C392 H382 0.930 1_565 S
C392 C391 1.400 . S
C392 C395 1.386 . S
H393 C409 0.930 . S
H394 C410 0.931 . S
C395 H383 0.929 . S
C395 C389 1.390 . S
C395 C392 1.386 . S
C396 C391 1.490 . S
C396 C398 1.395 1_565 S
C396 C399 1.403 . S
H397 C403 0.930 . S
C398 H384 0.930 . S
C398 C396 1.395 1_545 S
C398 C401 1.403 . S
C399 C396 1.403 . S
C399 C400 1.524 . S
C399 C403 1.400 . S
C400 H385 0.960 . S
C400 H386 0.960 . S
C400 H387 0.960 . S
C400 C399 1.524 . S
C401 C398 1.403 . S
C401 C402 1.392 . S
C401 C405 1.495 . S
C402 C401 1.392 . S
C402 C403 1.385 1_545 S
C402 C404 1.478 . S
C403 H397 0.930 . S
C403 C399 1.400 . S
C403 C402 1.385 1_565 S
C404 C402 1.478 . S
C404 C406 1.381 . S
C404 C410 1.383 . S
C405 C401 1.495 . S
C405 H411 0.959 . S
C405 H412 0.961 . S
C405 H413 0.960 . S
C406 C404 1.381 . S
C406 C407 1.394 . S
C406 H414 0.930 1_545 S
C407 C406 1.394 . S
C407 C408 1.383 . S
C407 H415 0.929 . S
C408 C407 1.383 . S
C408 C409 1.377 . S
C409 H393 0.930 . S
C409 C408 1.377 . S
C409 C410 1.379 . S
C410 H394 0.931 . S
C410 C404 1.383 . S
C410 C409 1.379 . S
H411 C405 0.959 . S
H412 C405 0.961 . S
H413 C405 0.960 . S
H414 C406 0.930 1_565 S
H415 C407 0.929 . S
H416 C424 0.929 . S
H417 C426 0.930 . S
H418 C428 0.930 . S
H419 C431 0.929 . S
H420 C434 0.930 . S
H421 C436 0.960 . S
H422 C436 0.960 . S
H423 C436 0.960 . S
C424 H416 0.929 . S
C424 C425 1.377 . S
C424 C426 1.384 . S
C425 C424 1.377 . S
C425 C431 1.390 . S
C426 H417 0.930 . S
C426 C424 1.384 . S
C426 C427 1.372 . S
C427 C426 1.372 . S
C427 C428 1.400 . S
C427 C432 1.490 . S
C428 H418 0.930 . S
C428 C427 1.400 . S
C428 C431 1.386 . S
H429 C445 0.930 1_556 S
H430 C446 0.931 . S
C431 H419 0.929 . S
C431 C425 1.390 . S
C431 C428 1.386 . S
C432 C427 1.490 . S
C432 C434 1.395 . S
C432 C435 1.403 . S
H433 C439 0.930 . S
C434 H420 0.930 . S
C434 C432 1.395 . S
C434 C437 1.403 . S
C435 C432 1.403 . S
C435 C436 1.524 . S
C435 C439 1.400 . S
C436 H421 0.960 . S
C436 H422 0.960 . S
C436 H423 0.960 . S
C436 C435 1.524 . S
C437 C434 1.403 . S
C437 C438 1.392 . S
C437 C441 1.495 . S
C438 C437 1.392 . S
C438 C439 1.385 . S
C438 C440 1.478 . S
C439 H433 0.930 . S
C439 C435 1.400 . S
C439 C438 1.385 . S
C440 C438 1.478 . S
C440 C442 1.381 . S
C440 C446 1.383 . S
C441 C437 1.495 . S
C441 H447 0.959 . S
C441 H448 0.961 . S
C441 H449 0.960 . S
C442 C440 1.381 . S
C442 C443 1.394 . S
C442 H450 0.930 . S
C443 C442 1.394 . S
C443 C444 1.383 1_554 S
C443 H451 0.929 1_554 S
C444 C443 1.383 1_556 S
C444 C445 1.377 1_556 S
C445 H429 0.930 1_554 S
C445 C444 1.377 1_554 S
C445 C446 1.379 . S
C446 H430 0.931 . S
C446 C440 1.383 . S
C446 C445 1.379 . S
H447 C441 0.959 . S
H448 C441 0.961 . S
H449 C441 0.960 . S
H450 C442 0.930 . S
H451 C443 0.929 1_556 S
H452 C460 0.929 . S
H453 C462 0.930 . S
H454 C464 0.930 . S
H455 C467 0.929 . S
H456 C470 0.930 . S
H457 C472 0.960 . S
H458 C472 0.960 . S
H459 C472 0.960 . S
C460 H452 0.929 . S
C460 C461 1.377 . S
C460 C462 1.384 . S
C461 C460 1.377 . S
C461 C467 1.390 . S
C462 H453 0.930 . S
C462 C460 1.384 . S
C462 C463 1.372 . S
C463 C462 1.372 . S
C463 C464 1.400 . S
C463 C468 1.490 . S
C464 H454 0.930 . S
C464 C463 1.400 . S
C464 C467 1.386 . S
H465 C481 0.930 . S
H466 C482 0.931 . S
C467 H455 0.929 . S
C467 C461 1.390 . S
C467 C464 1.386 . S
C468 C463 1.490 . S
C468 C470 1.395 . S
C468 C471 1.403 . S
H469 C475 0.930 . S
C470 H456 0.930 . S
C470 C468 1.395 . S
C470 C473 1.403 . S
C471 C468 1.403 . S
C471 C472 1.524 . S
C471 C475 1.400 . S
C472 H457 0.960 . S
C472 H458 0.960 . S
C472 H459 0.960 . S
C472 C471 1.524 . S
C473 C470 1.403 . S
C473 C474 1.392 . S
C473 C477 1.495 . S
C474 C473 1.392 . S
C474 C475 1.385 . S
C474 C476 1.478 . S
C475 H469 0.930 . S
C475 C471 1.400 . S
C475 C474 1.385 . S
C476 C474 1.478 . S
C476 C478 1.381 . S
C476 C482 1.383 . S
C477 C473 1.495 . S
C477 H483 0.959 . S
C477 H484 0.961 . S
C477 H485 0.960 . S
C478 C476 1.381 . S
C478 C479 1.394 . S
C478 H486 0.930 . S
C479 C478 1.394 . S
C479 C480 1.383 . S
C479 H487 0.929 . S
C480 C479 1.383 . S
C480 C481 1.377 . S
C481 H465 0.930 . S
C481 C480 1.377 . S
C481 C482 1.379 . S
C482 H466 0.931 . S
C482 C476 1.383 . S
C482 C481 1.379 . S
H483 C477 0.959 . S
H484 C477 0.961 . S
H485 C477 0.960 . S
H486 C478 0.930 . S
H487 C479 0.929 . S
H488 C496 0.929 . S
H489 C498 0.930 . S
H490 C500 0.930 . S
H491 C503 0.929 . S
H492 C506 0.930 . S
H493 C508 0.960 . S
H494 C508 0.960 . S
H495 C508 0.960 . S
C496 H488 0.929 . S
C496 C497 1.377 . S
C496 C498 1.384 1_554 S
C497 C496 1.377 . S
C497 C503 1.390 1_554 S
C498 H489 0.930 . S
C498 C496 1.384 1_556 S
C498 C499 1.372 . S
C499 C498 1.372 . S
C499 C500 1.400 . S
C499 C504 1.490 . S
C500 H490 0.930 . S
C500 C499 1.400 . S
C500 C503 1.386 . S
H501 C517 0.930 . S
H502 C518 0.931 . S
C503 H491 0.929 . S
C503 C497 1.390 1_556 S
C503 C500 1.386 . S
C504 C499 1.490 . S
C504 C506 1.395 . S
C504 C507 1.403 . S
H505 C511 0.930 . S
C506 H492 0.930 . S
C506 C504 1.395 . S
C506 C509 1.403 . S
C507 C504 1.403 . S
C507 C508 1.524 . S
C507 C511 1.400 . S
C508 H493 0.960 . S
C508 H494 0.960 . S
C508 H495 0.960 . S
C508 C507 1.524 . S
C509 C506 1.403 . S
C509 C510 1.392 . S
C509 C513 1.495 . S
C510 C509 1.392 . S
C510 C511 1.385 . S
C510 C512 1.478 . S
C511 H505 0.930 . S
C511 C507 1.400 . S
C511 C510 1.385 . S
C512 C510 1.478 . S
C512 C514 1.381 . S
C512 C518 1.383 . S
C513 C509 1.495 . S
C513 H519 0.959 . S
C513 H520 0.961 . S
C513 H521 0.960 . S
C514 C512 1.381 . S
C514 C515 1.394 . S
C514 H522 0.930 . S
C515 C514 1.394 . S
C515 C516 1.383 . S
C515 H523 0.929 . S
C516 C515 1.383 . S
C516 C517 1.377 . S
C517 H501 0.930 . S
C517 C516 1.377 . S
C517 C518 1.379 . S
C518 H502 0.931 . S
C518 C512 1.383 . S
C518 C517 1.379 . S
H519 C513 0.959 . S
H520 C513 0.961 . S
H521 C513 0.960 . S
H522 C514 0.930 . S
H523 C515 0.929 . S
H524 C532 0.929 . S
H525 C534 0.930 . S
H526 C536 0.930 . S
H527 C539 0.929 . S
H528 C542 0.930 . S
H529 C544 0.960 . S
H530 C544 0.960 . S
H531 C544 0.960 . S
C532 H524 0.929 . S
C532 C533 1.377 . S
C532 C534 1.384 . S
C533 C532 1.377 . S
C533 C539 1.390 . S
C534 H525 0.930 . S
C534 C532 1.384 . S
C534 C535 1.372 . S
C535 C534 1.372 . S
C535 C536 1.400 . S
C535 C540 1.490 . S
C536 H526 0.930 . S
C536 C535 1.400 . S
C536 C539 1.386 . S
H537 C553 0.930 . S
H538 C554 0.931 . S
C539 H527 0.929 . S
C539 C533 1.390 . S
C539 C536 1.386 . S
C540 C535 1.490 . S
C540 C542 1.395 . S
C540 C543 1.403 . S
H541 C547 0.930 . S
C542 H528 0.930 . S
C542 C540 1.395 . S
C542 C545 1.403 . S
C543 C540 1.403 . S
C543 C544 1.524 . S
C543 C547 1.400 . S
C544 H529 0.960 . S
C544 H530 0.960 . S
C544 H531 0.960 . S
C544 C543 1.524 . S
C545 C542 1.403 . S
C545 C546 1.392 . S
C545 C549 1.495 . S
C546 C545 1.392 . S
C546 C547 1.385 . S
C546 C548 1.478 . S
C547 H541 0.930 . S
C547 C543 1.400 . S
C547 C546 1.385 . S
C548 C546 1.478 . S
C548 C550 1.381 . S
C548 C554 1.383 . S
C549 C545 1.495 . S
C549 H555 0.959 . S
C549 H556 0.961 . S
C549 H557 0.960 . S
C550 C548 1.381 . S
C550 C551 1.394 . S
C550 H558 0.930 . S
C551 C550 1.394 . S
C551 C552 1.383 . S
C551 H559 0.929 . S
C552 C551 1.383 . S
C552 C553 1.377 . S
C553 H537 0.930 . S
C553 C552 1.377 . S
C553 C554 1.379 . S
C554 H538 0.931 . S
C554 C548 1.383 . S
C554 C553 1.379 . S
H555 C549 0.959 . S
H556 C549 0.961 . S
H557 C549 0.960 . S
H558 C550 0.930 . S
H559 C551 0.929 . S
H560 C568 0.929 . S
H561 C570 0.930 . S
H562 C572 0.930 . S
H563 C575 0.929 . S
H564 C578 0.930 . S
H565 C580 0.960 . S
H566 C580 0.960 . S
H567 C580 0.960 . S
C568 H560 0.929 . S
C568 C569 1.377 . S
C568 C570 1.384 . S
C569 C568 1.377 . S
C569 C575 1.390 . S
C570 H561 0.930 . S
C570 C568 1.384 . S
C570 C571 1.372 . S
C571 C570 1.372 . S
C571 C572 1.400 . S
C571 C576 1.490 . S
C572 H562 0.930 . S
C572 C571 1.400 . S
C572 C575 1.386 . S
H573 C589 0.930 . S
H574 C590 0.931 . S
C575 H563 0.929 . S
C575 C569 1.390 . S
C575 C572 1.386 . S
C576 C571 1.490 . S
C576 C578 1.395 . S
C576 C579 1.403 1_565 S
H577 C583 0.930 . S
C578 H564 0.930 . S
C578 C576 1.395 . S
C578 C581 1.403 . S
C579 C576 1.403 1_545 S
C579 C580 1.524 . S
C579 C583 1.400 . S
C580 H565 0.960 . S
C580 H566 0.960 . S
C580 H567 0.960 . S
C580 C579 1.524 . S
C581 C578 1.403 . S
C581 C582 1.392 1_565 S
C581 C585 1.495 . S
C582 C581 1.392 1_545 S
C582 C583 1.385 . S
C582 C584 1.478 . S
C583 H577 0.930 . S
C583 C579 1.400 . S
C583 C582 1.385 . S
C584 C582 1.478 . S
C584 C586 1.381 . S
C584 C590 1.383 . S
C585 C581 1.495 . S
C585 H591 0.959 . S
C585 H592 0.961 . S
C585 H593 0.960 . S
C586 C584 1.381 . S
C586 C587 1.394 . S
C586 H594 0.930 . S
C587 C586 1.394 . S
C587 C588 1.383 . S
C587 H595 0.929 . S
C588 C587 1.383 . S
C588 C589 1.377 . S
C589 H573 0.930 . S
C589 C588 1.377 . S
C589 C590 1.379 . S
C590 H574 0.931 . S
C590 C584 1.383 . S
C590 C589 1.379 . S
H591 C585 0.959 . S
H592 C585 0.961 . S
H593 C585 0.960 . S
H594 C586 0.930 . S
H595 C587 0.929 . S
H596 C604 0.929 . S
H597 C606 0.930 1_545 S
H598 C608 0.930 . S
H599 C611 0.929 1_554 S
H600 C614 0.930 . S
H601 C616 0.960 1_554 S
H602 C616 0.960 . S
H603 C616 0.960 1_554 S
C604 H596 0.929 . S
C604 C605 1.377 . S
C604 C606 1.384 . S
C605 C604 1.377 . S
C605 C611 1.390 . S
C606 H597 0.930 1_565 S
C606 C604 1.384 . S
C606 C607 1.372 . S
C607 C606 1.372 . S
C607 C608 1.400 1_556 S
C607 C612 1.490 . S
C608 H598 0.930 . S
C608 C607 1.400 1_554 S
C608 C611 1.386 1_554 S
H609 C625 0.930 . S
H610 C626 0.931 . S
C611 H599 0.929 1_556 S
C611 C605 1.390 . S
C611 C608 1.386 1_556 S
C612 C607 1.490 . S
C612 C614 1.395 1_565 S
C612 C615 1.403 . S
H613 C619 0.930 . S
C614 H600 0.930 . S
C614 C612 1.395 1_545 S
C614 C617 1.403 . S
C615 C612 1.403 . S
C615 C616 1.524 . S
C615 C619 1.400 1_556 S
C616 H601 0.960 1_556 S
C616 H602 0.960 . S
C616 H603 0.960 1_556 S
C616 C615 1.524 . S
C617 C614 1.403 . S
C617 C618 1.392 1_556 S
C617 C621 1.495 . S
C618 C617 1.392 1_554 S
C618 C619 1.385 1_545 S
C618 C620 1.478 . S
C619 H613 0.930 . S
C619 C615 1.400 1_554 S
C619 C618 1.385 1_565 S
C620 C618 1.478 . S
C620 C622 1.381 1_554 S
C620 C626 1.383 . S
C621 C617 1.495 . S
C621 H627 0.959 . S
C621 H628 0.961 1_556 S
C621 H629 0.960 . S
C622 C620 1.381 1_556 S
C622 C623 1.394 1_556 S
C622 H630 0.930 . S
C623 C622 1.394 1_554 S
C623 C624 1.383 . S
C623 H631 0.929 1_554 S
C624 C623 1.383 . S
C624 C625 1.377 . S
C625 H609 0.930 . S
C625 C624 1.377 . S
C625 C626 1.379 . S
C626 H610 0.931 . S
C626 C620 1.383 . S
C626 C625 1.379 . S
H627 C621 0.959 . S
H628 C621 0.961 1_554 S
H629 C621 0.960 . S
H630 C622 0.930 . S
H631 C623 0.929 1_556 S
H632 C640 0.929 . S
H633 C642 0.930 . S
H634 C644 0.930 . S
H635 C647 0.929 . S
H636 C650 0.930 . S
H637 C652 0.960 . S
H638 C652 0.960 . S
H639 C652 0.960 . S
C640 H632 0.929 . S
C640 C641 1.377 . S
C640 C642 1.384 . S
C641 C640 1.377 . S
C641 C647 1.390 . S
C642 H633 0.930 . S
C642 C640 1.384 . S
C642 C643 1.372 . S
C643 C642 1.372 . S
C643 C644 1.400 . S
C643 C648 1.490 . S
C644 H634 0.930 . S
C644 C643 1.400 . S
C644 C647 1.386 . S
H645 C661 0.930 . S
H646 C662 0.931 . S
C647 H635 0.929 . S
C647 C641 1.390 . S
C647 C644 1.386 . S
C648 C643 1.490 . S
C648 C650 1.395 . S
C648 C651 1.403 . S
H649 C655 0.930 . S
C650 H636 0.930 . S
C650 C648 1.395 . S
C650 C653 1.403 1_655 S
C651 C648 1.403 . S
C651 C652 1.524 . S
C651 C655 1.400 1_655 S
C652 H637 0.960 . S
C652 H638 0.960 . S
C652 H639 0.960 . S
C652 C651 1.524 . S
C653 C650 1.403 1_455 S
C653 C654 1.392 . S
C653 C657 1.495 . S
C654 C653 1.392 . S
C654 C655 1.385 . S
C654 C656 1.478 . S
C655 H649 0.930 . S
C655 C651 1.400 1_455 S
C655 C654 1.385 . S
C656 C654 1.478 . S
C656 C658 1.381 . S
C656 C662 1.383 . S
C657 C653 1.495 . S
C657 H663 0.959 . S
C657 H664 0.961 . S
C657 H665 0.960 . S
C658 C656 1.381 . S
C658 C659 1.394 . S
C658 H666 0.930 . S
C659 C658 1.394 . S
C659 C660 1.383 . S
C659 H667 0.929 . S
C660 C659 1.383 . S
C660 C661 1.377 . S
C661 H645 0.930 . S
C661 C660 1.377 . S
C661 C662 1.379 . S
C662 H646 0.931 . S
C662 C656 1.383 . S
C662 C661 1.379 . S
H663 C657 0.959 . S
H664 C657 0.961 . S
H665 C657 0.960 . S
H666 C658 0.930 . S
H667 C659 0.929 . S
H668 C676 0.929 . S
H669 C678 0.930 1_556 S
H670 C680 0.930 . S
H671 C683 0.929 . S
H672 C686 0.930 . S
H673 C688 0.960 1_655 S
H674 C688 0.960 . S
H675 C688 0.960 . S
C676 H668 0.929 . S
C676 C677 1.377 . S
C676 C678 1.384 . S
C677 C676 1.377 . S
C677 C683 1.390 . S
C678 H669 0.930 1_554 S
C678 C676 1.384 . S
C678 C679 1.372 . S
C679 C678 1.372 . S
C679 C680 1.400 . S
C679 C684 1.490 . S
C680 H670 0.930 . S
C680 C679 1.400 . S
C680 C683 1.386 . S
H681 C697 0.930 . S
H682 C698 0.931 1_554 S
C683 H671 0.929 . S
C683 C677 1.390 . S
C683 C680 1.386 . S
C684 C679 1.490 . S
C684 C686 1.395 . S
C684 C687 1.403 1_554 S
H685 C691 0.930 . S
C686 H672 0.930 . S
C686 C684 1.395 . S
C686 C689 1.403 1_455 S
C687 C684 1.403 1_556 S
C687 C688 1.524 . S
C687 C691 1.400 1_455 S
C688 H673 0.960 1_455 S
C688 H674 0.960 . S
C688 H675 0.960 . S
C688 C687 1.524 . S
C689 C686 1.403 1_655 S
C689 C690 1.392 1_554 S
C689 C693 1.495 . S
C690 C689 1.392 1_556 S
C690 C691 1.385 . S
C690 C692 1.478 . S
C691 H685 0.930 . S
C691 C687 1.400 1_655 S
C691 C690 1.385 . S
C692 C690 1.478 . S
C692 C694 1.381 . S
C692 C698 1.383 . S
C693 C689 1.495 . S
C693 H699 0.959 1_655 S
C693 H700 0.961 . S
C693 H701 0.960 . S
C694 C692 1.381 . S
C694 C695 1.394 . S
C694 H702 0.930 . S
C695 C694 1.394 . S
C695 C696 1.383 . S
C695 H703 0.929 . S
C696 C695 1.383 . S
C696 C697 1.377 . S
C697 H681 0.930 . S
C697 C696 1.377 . S
C697 C698 1.379 . S
C698 H682 0.931 1_556 S
C698 C692 1.383 . S
C698 C697 1.379 . S
H699 C693 0.959 1_455 S
H700 C693 0.961 . S
H701 C693 0.960 . S
H702 C694 0.930 . S
H703 C695 0.929 . S
H704 C712 0.929 . S
H705 C714 0.930 . S
H706 C716 0.930 . S
H707 C719 0.929 . S
H708 C722 0.930 . S
H709 C724 0.960 . S
H710 C724 0.960 . S
H711 C724 0.960 . S
C712 H704 0.929 . S
C712 C713 1.377 . S
C712 C714 1.384 . S
C713 C712 1.377 . S
C713 C719 1.390 . S
C714 H705 0.930 . S
C714 C712 1.384 . S
C714 C715 1.372 . S
C715 C714 1.372 . S
C715 C716 1.400 . S
C715 C720 1.490 . S
C716 H706 0.930 . S
C716 C715 1.400 . S
C716 C719 1.386 . S
H717 C733 0.930 . S
H718 C734 0.931 . S
C719 H707 0.929 . S
C719 C713 1.390 . S
C719 C716 1.386 . S
C720 C715 1.490 . S
C720 C722 1.395 . S
C720 C723 1.403 . S
H721 C727 0.930 . S
C722 H708 0.930 . S
C722 C720 1.395 . S
C722 C725 1.403 1_455 S
C723 C720 1.403 . S
C723 C724 1.524 . S
C723 C727 1.400 1_455 S
C724 H709 0.960 . S
C724 H710 0.960 . S
C724 H711 0.960 . S
C724 C723 1.524 . S
C725 C722 1.403 1_655 S
C725 C726 1.392 . S
C725 C729 1.495 . S
C726 C725 1.392 . S
C726 C727 1.385 . S
C726 C728 1.478 . S
C727 H721 0.930 . S
C727 C723 1.400 1_655 S
C727 C726 1.385 . S
C728 C726 1.478 . S
C728 C730 1.381 . S
C728 C734 1.383 . S
C729 C725 1.495 . S
C729 H735 0.959 . S
C729 H736 0.961 . S
C729 H737 0.960 . S
C730 C728 1.381 . S
C730 C731 1.394 . S
C730 H738 0.930 . S
C731 C730 1.394 . S
C731 C732 1.383 . S
C731 H739 0.929 . S
C732 C731 1.383 . S
C732 C733 1.377 . S
C733 H717 0.930 . S
C733 C732 1.377 . S
C733 C734 1.379 . S
C734 H718 0.931 . S
C734 C728 1.383 . S
C734 C733 1.379 . S
H735 C729 0.959 . S
H736 C729 0.961 . S
H737 C729 0.960 . S
H738 C730 0.930 . S
H739 C731 0.929 . S
H740 C748 0.929 . S
H741 C750 0.930 . S
H742 C752 0.930 . S
H743 C755 0.929 . S
H744 C758 0.930 . S
H745 C760 0.960 . S
H746 C760 0.960 . S
H747 C760 0.960 . S
C748 H740 0.929 . S
C748 C749 1.377 . S
C748 C750 1.384 . S
C749 C748 1.377 . S
C749 C755 1.390 . S
C750 H741 0.930 . S
C750 C748 1.384 . S
C750 C751 1.372 . S
C751 C750 1.372 . S
C751 C752 1.400 . S
C751 C756 1.490 . S
C752 H742 0.930 . S
C752 C751 1.400 . S
C752 C755 1.386 . S
H753 C769 0.930 . S
H754 C770 0.931 . S
C755 H743 0.929 . S
C755 C749 1.390 . S
C755 C752 1.386 . S
C756 C751 1.490 . S
C756 C758 1.395 . S
C756 C759 1.403 . S
H757 C763 0.930 . S
C758 H744 0.930 . S
C758 C756 1.395 . S
C758 C761 1.403 1_455 S
C759 C756 1.403 . S
C759 C760 1.524 . S
C759 C763 1.400 1_455 S
C760 H745 0.960 . S
C760 H746 0.960 . S
C760 H747 0.960 . S
C760 C759 1.524 . S
C761 C758 1.403 1_655 S
C761 C762 1.392 . S
C761 C765 1.495 . S
C762 C761 1.392 . S
C762 C763 1.385 . S
C762 C764 1.478 . S
C763 H757 0.930 . S
C763 C759 1.400 1_655 S
C763 C762 1.385 . S
C764 C762 1.478 . S
C764 C766 1.381 . S
C764 C770 1.383 . S
C765 C761 1.495 . S
C765 H771 0.959 . S
C765 H772 0.961 . S
C765 H773 0.960 . S
C766 C764 1.381 . S
C766 C767 1.394 . S
C766 H774 0.930 . S
C767 C766 1.394 . S
C767 C768 1.383 . S
C767 H775 0.929 . S
C768 C767 1.383 . S
C768 C769 1.377 . S
C769 H753 0.930 . S
C769 C768 1.377 . S
C769 C770 1.379 . S
C770 H754 0.931 . S
C770 C764 1.383 . S
C770 C769 1.379 . S
H771 C765 0.959 . S
H772 C765 0.961 . S
H773 C765 0.960 . S
H774 C766 0.930 . S
H775 C767 0.929 . S
H776 C784 0.929 . S
H777 C786 0.930 . S
H778 C788 0.930 . S
H779 C791 0.929 . S
H780 C794 0.930 . S
H781 C796 0.960 . S
H782 C796 0.960 . S
H783 C796 0.960 . S
C784 H776 0.929 . S
C784 C785 1.377 . S
C784 C786 1.384 . S
C785 C784 1.377 . S
C785 C791 1.390 . S
C786 H777 0.930 . S
C786 C784 1.384 . S
C786 C787 1.372 . S
C787 C786 1.372 . S
C787 C788 1.400 . S
C787 C792 1.490 . S
C788 H778 0.930 . S
C788 C787 1.400 . S
C788 C791 1.386 . S
H789 C805 0.930 . S
H790 C806 0.931 . S
C791 H779 0.929 . S
C791 C785 1.390 . S
C791 C788 1.386 . S
C792 C787 1.490 . S
C792 C794 1.395 . S
C792 C795 1.403 . S
H793 C799 0.930 . S
C794 H780 0.930 . S
C794 C792 1.395 . S
C794 C797 1.403 . S
C795 C792 1.403 . S
C795 C796 1.524 . S
C795 C799 1.400 . S
C796 H781 0.960 . S
C796 H782 0.960 . S
C796 H783 0.960 . S
C796 C795 1.524 . S
C797 C794 1.403 . S
C797 C798 1.392 . S
C797 C801 1.495 . S
C798 C797 1.392 . S
C798 C799 1.385 . S
C798 C800 1.478 . S
C799 H793 0.930 . S
C799 C795 1.400 . S
C799 C798 1.385 . S
C800 C798 1.478 . S
C800 C802 1.381 . S
C800 C806 1.383 . S
C801 C797 1.495 . S
C801 H807 0.959 . S
C801 H808 0.961 . S
C801 H809 0.960 . S
C802 C800 1.381 . S
C802 C803 1.394 . S
C802 H810 0.930 . S
C803 C802 1.394 . S
C803 C804 1.383 . S
C803 H811 0.929 . S
C804 C803 1.383 . S
C804 C805 1.377 . S
C805 H789 0.930 . S
C805 C804 1.377 . S
C805 C806 1.379 . S
C806 H790 0.931 . S
C806 C800 1.383 . S
C806 C805 1.379 . S
H807 C801 0.959 . S
H808 C801 0.961 . S
H809 C801 0.960 . S
H810 C802 0.930 . S
H811 C803 0.929 . S
H812 C820 0.929 . S
H813 C822 0.930 . S
H814 C824 0.930 . S
H815 C827 0.929 . S
H816 C830 0.930 . S
H817 C832 0.960 . S
H818 C832 0.960 . S
H819 C832 0.960 . S
C820 H812 0.929 . S
C820 C821 1.377 . S
C820 C822 1.384 . S
C821 C820 1.377 . S
C821 C827 1.390 . S
C822 H813 0.930 . S
C822 C820 1.384 . S
C822 C823 1.372 . S
C823 C822 1.372 . S
C823 C824 1.400 . S
C823 C828 1.490 . S
C824 H814 0.930 . S
C824 C823 1.400 . S
C824 C827 1.386 . S
H825 C841 0.930 . S
H826 C842 0.931 . S
C827 H815 0.929 . S
C827 C821 1.390 . S
C827 C824 1.386 . S
C828 C823 1.490 . S
C828 C830 1.395 . S
C828 C831 1.403 . S
H829 C835 0.930 . S
C830 H816 0.930 . S
C830 C828 1.395 . S
C830 C833 1.403 . S
C831 C828 1.403 . S
C831 C832 1.524 . S
C831 C835 1.400 . S
C832 H817 0.960 . S
C832 H818 0.960 . S
C832 H819 0.960 . S
C832 C831 1.524 . S
C833 C830 1.403 . S
C833 C834 1.392 . S
C833 C837 1.495 . S
C834 C833 1.392 . S
C834 C835 1.385 . S
C834 C836 1.478 . S
C835 H829 0.930 . S
C835 C831 1.400 . S
C835 C834 1.385 . S
C836 C834 1.478 . S
C836 C838 1.381 . S
C836 C842 1.383 . S
C837 C833 1.495 . S
C837 H843 0.959 . S
C837 H844 0.961 . S
C837 H845 0.960 . S
C838 C836 1.381 . S
C838 C839 1.394 . S
C838 H846 0.930 . S
C839 C838 1.394 . S
C839 C840 1.383 . S
C839 H847 0.929 . S
C840 C839 1.383 . S
C840 C841 1.377 . S
C841 H825 0.930 . S
C841 C840 1.377 . S
C841 C842 1.379 . S
C842 H826 0.931 . S
C842 C836 1.383 . S
C842 C841 1.379 . S
H843 C837 0.959 . S
H844 C837 0.961 . S
H845 C837 0.960 . S
H846 C838 0.930 . S
H847 C839 0.929 . S
H848 C856 0.929 . S
H849 C858 0.930 . S
H850 C860 0.930 . S
H851 C863 0.929 . S
H852 C866 0.930 . S
H853 C868 0.960 . S
H854 C868 0.960 . S
H855 C868 0.960 . S
C856 H848 0.929 . S
C856 C857 1.377 . S
C856 C858 1.384 . S
C857 C856 1.377 . S
C857 C863 1.390 . S
C858 H849 0.930 . S
C858 C856 1.384 . S
C858 C859 1.372 . S
C859 C858 1.372 . S
C859 C860 1.400 . S
C859 C864 1.490 . S
C860 H850 0.930 . S
C860 C859 1.400 . S
C860 C863 1.386 . S
H861 C877 0.930 . S
H862 C878 0.931 . S
C863 H851 0.929 . S
C863 C857 1.390 . S
C863 C860 1.386 . S
C864 C859 1.490 . S
C864 C866 1.395 . S
C864 C867 1.403 . S
H865 C871 0.930 . S
C866 H852 0.930 . S
C866 C864 1.395 . S
C866 C869 1.403 . S
C867 C864 1.403 . S
C867 C868 1.524 . S
C867 C871 1.400 . S
C868 H853 0.960 . S
C868 H854 0.960 . S
C868 H855 0.960 . S
C868 C867 1.524 . S
C869 C866 1.403 . S
C869 C870 1.392 . S
C869 C873 1.495 . S
C870 C869 1.392 . S
C870 C871 1.385 . S
C870 C872 1.478 . S
C871 H865 0.930 . S
C871 C867 1.400 . S
C871 C870 1.385 . S
C872 C870 1.478 . S
C872 C874 1.381 . S
C872 C878 1.383 . S
C873 C869 1.495 . S
C873 H879 0.959 . S
C873 H880 0.961 . S
C873 H881 0.960 . S
C874 C872 1.381 . S
C874 C875 1.394 . S
C874 H882 0.930 . S
C875 C874 1.394 . S
C875 C876 1.383 . S
C875 H883 0.929 . S
C876 C875 1.383 . S
C876 C877 1.377 . S
C877 H861 0.930 . S
C877 C876 1.377 . S
C877 C878 1.379 . S
C878 H862 0.931 . S
C878 C872 1.383 . S
C878 C877 1.379 . S
H879 C873 0.959 . S
H880 C873 0.961 . S
H881 C873 0.960 . S
H882 C874 0.930 . S
H883 C875 0.929 . S
H884 C892 0.929 . S
H885 C894 0.930 . S
H886 C896 0.930 . S
H887 C899 0.929 . S
H888 C902 0.930 . S
H889 C904 0.960 . S
H890 C904 0.960 . S
H891 C904 0.960 . S
C892 H884 0.929 . S
C892 C893 1.377 . S
C892 C894 1.384 . S
C893 C892 1.377 . S
C893 C899 1.390 . S
C894 H885 0.930 . S
C894 C892 1.384 . S
C894 C895 1.372 . S
C895 C894 1.372 . S
C895 C896 1.400 . S
C895 C900 1.490 . S
C896 H886 0.930 . S
C896 C895 1.400 . S
C896 C899 1.386 . S
H897 C913 0.930 . S
H898 C914 0.931 . S
C899 H887 0.929 . S
C899 C893 1.390 . S
C899 C896 1.386 . S
C900 C895 1.490 . S
C900 C902 1.395 1_556 S
C900 C903 1.403 . S
H901 C907 0.930 . S
C902 H888 0.930 . S
C902 C900 1.395 1_554 S
C902 C905 1.403 . S
C903 C900 1.403 . S
C903 C904 1.524 . S
C903 C907 1.400 . S
C904 H889 0.960 . S
C904 H890 0.960 . S
C904 H891 0.960 . S
C904 C903 1.524 . S
C905 C902 1.403 . S
C905 C906 1.392 . S
C905 C909 1.495 . S
C906 C905 1.392 . S
C906 C907 1.385 1_554 S
C906 C908 1.478 . S
C907 H901 0.930 . S
C907 C903 1.400 . S
C907 C906 1.385 1_556 S
C908 C906 1.478 . S
C908 C910 1.381 . S
C908 C914 1.383 . S
C909 C905 1.495 . S
C909 H915 0.959 . S
C909 H916 0.961 . S
C909 H917 0.960 . S
C910 C908 1.381 . S
C910 C911 1.394 . S
C910 H918 0.930 . S
C911 C910 1.394 . S
C911 C912 1.383 . S
C911 H919 0.929 . S
C912 C911 1.383 . S
C912 C913 1.377 . S
C913 H897 0.930 . S
C913 C912 1.377 . S
C913 C914 1.379 . S
C914 H898 0.931 . S
C914 C908 1.383 . S
C914 C913 1.379 . S
H915 C909 0.959 . S
H916 C909 0.961 . S
H917 C909 0.960 . S
H918 C910 0.930 . S
H919 C911 0.929 . S
H920 C928 0.929 . S
H921 C930 0.930 . S
H922 C932 0.930 . S
H923 C935 0.929 . S
H924 C938 0.930 . S
H925 C940 0.960 . S
H926 C940 0.960 . S
H927 C940 0.960 . S
C928 H920 0.929 . S
C928 C929 1.377 . S
C928 C930 1.384 . S
C929 C928 1.377 . S
C929 C935 1.390 . S
C930 H921 0.930 . S
C930 C928 1.384 . S
C930 C931 1.372 . S
C931 C930 1.372 . S
C931 C932 1.400 . S
C931 C936 1.490 . S
C932 H922 0.930 . S
C932 C931 1.400 . S
C932 C935 1.386 . S
H933 C949 0.930 . S
H934 C950 0.931 . S
C935 H923 0.929 . S
C935 C929 1.390 . S
C935 C932 1.386 . S
C936 C931 1.490 . S
C936 C938 1.395 . S
C936 C939 1.403 . S
H937 C943 0.930 . S
C938 H924 0.930 . S
C938 C936 1.395 . S
C938 C941 1.403 . S
C939 C936 1.403 . S
C939 C940 1.524 . S
C939 C943 1.400 . S
C940 H925 0.960 . S
C940 H926 0.960 . S
C940 H927 0.960 . S
C940 C939 1.524 . S
C941 C938 1.403 . S
C941 C942 1.392 . S
C941 C945 1.495 . S
C942 C941 1.392 . S
C942 C943 1.385 . S
C942 C944 1.478 . S
C943 H937 0.930 . S
C943 C939 1.400 . S
C943 C942 1.385 . S
C944 C942 1.478 . S
C944 C946 1.381 . S
C944 C950 1.383 . S
C945 C941 1.495 . S
C945 H951 0.959 . S
C945 H952 0.961 . S
C945 H953 0.960 . S
C946 C944 1.381 . S
C946 C947 1.394 . S
C946 H954 0.930 . S
C947 C946 1.394 . S
C947 C948 1.383 . S
C947 H955 0.929 . S
C948 C947 1.383 . S
C948 C949 1.377 . S
C949 H933 0.930 . S
C949 C948 1.377 . S
C949 C950 1.379 . S
C950 H934 0.931 . S
C950 C944 1.383 . S
C950 C949 1.379 . S
H951 C945 0.959 . S
H952 C945 0.961 . S
H953 C945 0.960 . S
H954 C946 0.930 . S
H955 C947 0.929 . S
H956 C964 0.929 . S
H957 C966 0.930 . S
H958 C968 0.930 . S
H959 C971 0.929 . S
H960 C974 0.930 . S
H961 C976 0.960 . S
H962 C976 0.960 . S
H963 C976 0.960 . S
C964 H956 0.929 . S
C964 C965 1.377 . S
C964 C966 1.384 . S
C965 C964 1.377 . S
C965 C971 1.390 . S
C966 H957 0.930 . S
C966 C964 1.384 . S
C966 C967 1.372 . S
C967 C966 1.372 . S
C967 C968 1.400 . S
C967 C972 1.490 . S
C968 H958 0.930 . S
C968 C967 1.400 . S
C968 C971 1.386 . S
H969 C985 0.930 . S
H970 C986 0.931 . S
C971 H959 0.929 . S
C971 C965 1.390 . S
C971 C968 1.386 . S
C972 C967 1.490 . S
C972 C974 1.395 . S
C972 C975 1.403 1_556 S
H973 C979 0.930 . S
C974 H960 0.930 . S
C974 C972 1.395 . S
C974 C977 1.403 . S
C975 C972 1.403 1_554 S
C975 C976 1.524 . S
C975 C979 1.400 . S
C976 H961 0.960 . S
C976 H962 0.960 . S
C976 H963 0.960 . S
C976 C975 1.524 . S
C977 C974 1.403 . S
C977 C978 1.392 1_556 S
C977 C981 1.495 . S
C978 C977 1.392 1_554 S
C978 C979 1.385 . S
C978 C980 1.478 . S
C979 H973 0.930 . S
C979 C975 1.400 . S
C979 C978 1.385 . S
C980 C978 1.478 . S
C980 C982 1.381 . S
C980 C986 1.383 . S
C981 C977 1.495 . S
C981 H987 0.959 . S
C981 H988 0.961 . S
C981 H989 0.960 . S
C982 C980 1.381 . S
C982 C983 1.394 . S
C982 H990 0.930 . S
C983 C982 1.394 . S
C983 C984 1.383 . S
C983 H991 0.929 . S
C984 C983 1.383 . S
C984 C985 1.377 . S
C985 H969 0.930 . S
C985 C984 1.377 . S
C985 C986 1.379 . S
C986 H970 0.931 . S
C986 C980 1.383 . S
C986 C985 1.379 . S
H987 C981 0.959 . S
H988 C981 0.961 . S
H989 C981 0.960 . S
H990 C982 0.930 . S
H991 C983 0.929 . S
C281 C104 1.255 . S
C300 C20 1.244 . S
C317 C54 1.254 . S
C336 C70 1.259 . S
C353 C88 1.255 . S
C372 C36 1.251 . S
C389 C122 1.256 . S
C408 C2 1.247 . S
C425 C156 1.256 . S
C444 C240 1.253 . S
C461 C190 1.254 . S
C480 C206 1.259 . S
C497 C172 1.254 . S
C516 C224 1.258 . S
C533 C258 1.253 . S
C552 C138 1.259 . S
C569 C77 1.379 . S
C588 C9 1.392 . S
C605 C111 1.368 . S
C624 C43 1.340 . S
C641 C145 1.379 . S
C660 C213 1.396 . S
C677 C179 1.375 . S
C696 C247 1.350 . S
C713 C5 1.597 . S
C732 C39 1.592 . S
C749 C107 1.596 . S
C768 C73 1.589 . S
C785 C175 1.597 . S
C804 C141 1.591 . S
C821 C243 1.593 . S
C840 C209 1.594 . S
C857 C237 1.562 . S
C876 C33 1.547 . S
C893 C271 1.564 . S
C912 C67 1.570 . S
C929 C169 1.564 . S
C948 C101 1.552 . S
C965 C135 1.560 . S
C984 C203 1.551 . S
