# Generated by pormake.
# Topology mer, (4)-cn, num edge types: 1
# Building blocks:
#     Node 0, Type 0, BuildingBlock: ESEHIV_clean_sbu_0, # of connection points: 4
#     Node 1, Type 0, BuildingBlock: ESEHIV_clean_sbu_0, # of connection points: 4
#     Node 2, Type 0, BuildingBlock: ESEHIV_clean_sbu_0, # of connection points: 4
#     Node 3, Type 0, BuildingBlock: ESEHIV_clean_sbu_0, # of connection points: 4
#     Node 4, Type 0, BuildingBlock: ESEHIV_clean_sbu_0, # of connection points: 4
#     Node 5, Type 0, BuildingBlock: ESEHIV_clean_sbu_0, # of connection points: 4
#     Node 6, Type 0, BuildingBlock: ESEHIV_clean_sbu_0, # of connection points: 4
#     Node 7, Type 0, BuildingBlock: ESEHIV_clean_sbu_0, # of connection points: 4
#     Node 8, Type 0, BuildingBlock: ESEHIV_clean_sbu_0, # of connection points: 4
#     Node 9, Type 0, BuildingBlock: ESEHIV_clean_sbu_0, # of connection points: 4
#     Node 10, Type 0, BuildingBlock: ESEHIV_clean_sbu_0, # of connection points: 4
#     Node 11, Type 0, BuildingBlock: ESEHIV_clean_sbu_0, # of connection points: 4
#     Node 12, Type 0, BuildingBlock: ESEHIV_clean_sbu_0, # of connection points: 4
#     Node 13, Type 0, BuildingBlock: ESEHIV_clean_sbu_0, # of connection points: 4
#     Node 14, Type 0, BuildingBlock: ESEHIV_clean_sbu_0, # of connection points: 4
#     Node 15, Type 0, BuildingBlock: ESEHIV_clean_sbu_0, # of connection points: 4
#     Node 16, Type 0, BuildingBlock: ESEHIV_clean_sbu_0, # of connection points: 4
#     Node 17, Type 0, BuildingBlock: ESEHIV_clean_sbu_0, # of connection points: 4
#     Node 18, Type 0, BuildingBlock: ESEHIV_clean_sbu_0, # of connection points: 4
#     Node 19, Type 0, BuildingBlock: ESEHIV_clean_sbu_0, # of connection points: 4
#     Node 20, Type 0, BuildingBlock: ESEHIV_clean_sbu_0, # of connection points: 4
#     Node 21, Type 0, BuildingBlock: ESEHIV_clean_sbu_0, # of connection points: 4
#     Node 22, Type 0, BuildingBlock: ESEHIV_clean_sbu_0, # of connection points: 4
#     Node 23, Type 0, BuildingBlock: ESEHIV_clean_sbu_0, # of connection points: 4
#     Node 24, Type 0, BuildingBlock: ESEHIV_clean_sbu_0, # of connection points: 4
#     Node 25, Type 0, BuildingBlock: ESEHIV_clean_sbu_0, # of connection points: 4
#     Node 26, Type 0, BuildingBlock: ESEHIV_clean_sbu_0, # of connection points: 4
#     Node 27, Type 0, BuildingBlock: ESEHIV_clean_sbu_0, # of connection points: 4
#     Node 28, Type 0, BuildingBlock: ESEHIV_clean_sbu_0, # of connection points: 4
#     Node 29, Type 0, BuildingBlock: ESEHIV_clean_sbu_0, # of connection points: 4
#     Node 30, Type 0, BuildingBlock: ESEHIV_clean_sbu_0, # of connection points: 4
#     Node 31, Type 0, BuildingBlock: ESEHIV_clean_sbu_0, # of connection points: 4
#     Edge 32, Type (0, 0), BuildingBlock: XUDNAN_clean_linker_2, # of connection points: 2
#     Edge 33, Type (0, 0), BuildingBlock: XUDNAN_clean_linker_2, # of connection points: 2
#     Edge 34, Type (0, 0), BuildingBlock: XUDNAN_clean_linker_2, # of connection points: 2
#     Edge 35, Type (0, 0), BuildingBlock: XUDNAN_clean_linker_2, # of connection points: 2
#     Edge 36, Type (0, 0), BuildingBlock: XUDNAN_clean_linker_2, # of connection points: 2
#     Edge 37, Type (0, 0), BuildingBlock: XUDNAN_clean_linker_2, # of connection points: 2
#     Edge 38, Type (0, 0), BuildingBlock: XUDNAN_clean_linker_2, # of connection points: 2
#     Edge 39, Type (0, 0), BuildingBlock: XUDNAN_clean_linker_2, # of connection points: 2
#     Edge 40, Type (0, 0), BuildingBlock: XUDNAN_clean_linker_2, # of connection points: 2
#     Edge 41, Type (0, 0), BuildingBlock: XUDNAN_clean_linker_2, # of connection points: 2
#     Edge 42, Type (0, 0), BuildingBlock: XUDNAN_clean_linker_2, # of connection points: 2
#     Edge 43, Type (0, 0), BuildingBlock: XUDNAN_clean_linker_2, # of connection points: 2
#     Edge 44, Type (0, 0), BuildingBlock: XUDNAN_clean_linker_2, # of connection points: 2
#     Edge 45, Type (0, 0), BuildingBlock: XUDNAN_clean_linker_2, # of connection points: 2
#     Edge 46, Type (0, 0), BuildingBlock: XUDNAN_clean_linker_2, # of connection points: 2
#     Edge 47, Type (0, 0), BuildingBlock: XUDNAN_clean_linker_2, # of connection points: 2
#     Edge 48, Type (0, 0), BuildingBlock: XUDNAN_clean_linker_2, # of connection points: 2
#     Edge 49, Type (0, 0), BuildingBlock: XUDNAN_clean_linker_2, # of connection points: 2
#     Edge 50, Type (0, 0), BuildingBlock: XUDNAN_clean_linker_2, # of connection points: 2
#     Edge 51, Type (0, 0), BuildingBlock: XUDNAN_clean_linker_2, # of connection points: 2
#     Edge 52, Type (0, 0), BuildingBlock: XUDNAN_clean_linker_2, # of connection points: 2
#     Edge 53, Type (0, 0), BuildingBlock: XUDNAN_clean_linker_2, # of connection points: 2
#     Edge 54, Type (0, 0), BuildingBlock: XUDNAN_clean_linker_2, # of connection points: 2
#     Edge 55, Type (0, 0), BuildingBlock: XUDNAN_clean_linker_2, # of connection points: 2
#     Edge 56, Type (0, 0), BuildingBlock: XUDNAN_clean_linker_2, # of connection points: 2
#     Edge 57, Type (0, 0), BuildingBlock: XUDNAN_clean_linker_2, # of connection points: 2
#     Edge 58, Type (0, 0), BuildingBlock: XUDNAN_clean_linker_2, # of connection points: 2
#     Edge 59, Type (0, 0), BuildingBlock: XUDNAN_clean_linker_2, # of connection points: 2
#     Edge 60, Type (0, 0), BuildingBlock: XUDNAN_clean_linker_2, # of connection points: 2
#     Edge 61, Type (0, 0), BuildingBlock: XUDNAN_clean_linker_2, # of connection points: 2
#     Edge 62, Type (0, 0), BuildingBlock: XUDNAN_clean_linker_2, # of connection points: 2
#     Edge 63, Type (0, 0), BuildingBlock: XUDNAN_clean_linker_2, # of connection points: 2
#     Edge 64, Type (0, 0), BuildingBlock: XUDNAN_clean_linker_2, # of connection points: 2
#     Edge 65, Type (0, 0), BuildingBlock: XUDNAN_clean_linker_2, # of connection points: 2
#     Edge 66, Type (0, 0), BuildingBlock: XUDNAN_clean_linker_2, # of connection points: 2
#     Edge 67, Type (0, 0), BuildingBlock: XUDNAN_clean_linker_2, # of connection points: 2
#     Edge 68, Type (0, 0), BuildingBlock: XUDNAN_clean_linker_2, # of connection points: 2
#     Edge 69, Type (0, 0), BuildingBlock: XUDNAN_clean_linker_2, # of connection points: 2
#     Edge 70, Type (0, 0), BuildingBlock: XUDNAN_clean_linker_2, # of connection points: 2
#     Edge 71, Type (0, 0), BuildingBlock: XUDNAN_clean_linker_2, # of connection points: 2
#     Edge 72, Type (0, 0), BuildingBlock: XUDNAN_clean_linker_2, # of connection points: 2
#     Edge 73, Type (0, 0), BuildingBlock: XUDNAN_clean_linker_2, # of connection points: 2
#     Edge 74, Type (0, 0), BuildingBlock: XUDNAN_clean_linker_2, # of connection points: 2
#     Edge 75, Type (0, 0), BuildingBlock: XUDNAN_clean_linker_2, # of connection points: 2
#     Edge 76, Type (0, 0), BuildingBlock: XUDNAN_clean_linker_2, # of connection points: 2
#     Edge 77, Type (0, 0), BuildingBlock: XUDNAN_clean_linker_2, # of connection points: 2
#     Edge 78, Type (0, 0), BuildingBlock: XUDNAN_clean_linker_2, # of connection points: 2
#     Edge 79, Type (0, 0), BuildingBlock: XUDNAN_clean_linker_2, # of connection points: 2
#     Edge 80, Type (0, 0), BuildingBlock: XUDNAN_clean_linker_2, # of connection points: 2
#     Edge 81, Type (0, 0), BuildingBlock: XUDNAN_clean_linker_2, # of connection points: 2
#     Edge 82, Type (0, 0), BuildingBlock: XUDNAN_clean_linker_2, # of connection points: 2
#     Edge 83, Type (0, 0), BuildingBlock: XUDNAN_clean_linker_2, # of connection points: 2
#     Edge 84, Type (0, 0), BuildingBlock: XUDNAN_clean_linker_2, # of connection points: 2
#     Edge 85, Type (0, 0), BuildingBlock: XUDNAN_clean_linker_2, # of connection points: 2
#     Edge 86, Type (0, 0), BuildingBlock: XUDNAN_clean_linker_2, # of connection points: 2
#     Edge 87, Type (0, 0), BuildingBlock: XUDNAN_clean_linker_2, # of connection points: 2
#     Edge 88, Type (0, 0), BuildingBlock: XUDNAN_clean_linker_2, # of connection points: 2
#     Edge 89, Type (0, 0), BuildingBlock: XUDNAN_clean_linker_2, # of connection points: 2
#     Edge 90, Type (0, 0), BuildingBlock: XUDNAN_clean_linker_2, # of connection points: 2
#     Edge 91, Type (0, 0), BuildingBlock: XUDNAN_clean_linker_2, # of connection points: 2
#     Edge 92, Type (0, 0), BuildingBlock: XUDNAN_clean_linker_2, # of connection points: 2
#     Edge 93, Type (0, 0), BuildingBlock: XUDNAN_clean_linker_2, # of connection points: 2
#     Edge 94, Type (0, 0), BuildingBlock: XUDNAN_clean_linker_2, # of connection points: 2
#     Edge 95, Type (0, 0), BuildingBlock: XUDNAN_clean_linker_2, # of connection points: 2
# Relax obj value: 0.084
# Max RMSD: 0.220
# Mean RMSD: 0.220
data_MOF--net-mer--node1-ESEHIV_clean_sbu_0--edge1-XUDNAN_clean_linker_2
_symmetry_space_group_name_H-M    P1
_symmetry_Int_Tables_number       1
_symmetry_cell_setting            triclinic
loop_
_symmetry_equiv_pos_as_xyz
'x, y, z'
_cell_length_a     70.84209
_cell_length_b     70.862667
_cell_length_c     55.788876
_cell_angle_alpha  90.058762
_cell_angle_beta   90.00928
_cell_angle_gamma 89.913332
loop_
_atom_site_label
_atom_site_type_symbol
_atom_site_fract_x
_atom_site_fract_y
_atom_site_fract_z
_atom_type_partial_charge
Cu0 Cu 0.12726 0.30086 0.3932 0.0
N1 N 0.13673 0.27642 0.39531 0.0
N2 N 0.15633 0.25185 0.39835 0.0
C3 C 0.15482 0.27085 0.39759 0.0
C4 C 0.13847 0.24532 0.39671 0.0
C5 C 0.12644 0.2605 0.39486 0.0
O6 O 0.1416 0.31582 0.37013 0.0
C7 C 0.14065 0.31732 0.43685 0.0
O8 O 0.15678 0.31929 0.42552 0.0
H9 H 0.16659 0.28056 0.39812 0.0
H10 H 0.11123 0.26001 0.3933 0.0
N11 N 0.10277 0.29928 0.38143 0.0
N12 N 0.07137 0.29783 0.37904 0.0
C13 C 0.0864 0.30033 0.39362 0.0
C14 C 0.09797 0.29609 0.35846 0.0
C15 C 0.07863 0.29519 0.35692 0.0
C16 C 0.14808 0.30788 0.35131 0.0
O17 O 0.1464 0.28952 0.34894 0.0
H18 H 0.08556 0.30249 0.4128 0.0
H19 H 0.10788 0.29443 0.34387 0.0
O20 O 0.12643 0.31087 0.42561 0.0
H21 H 0.13432 0.23064 0.39705 0.0
H22 H 0.07055 0.29295 0.3407 0.0
Cu23 Cu 0.69168 0.13328 0.39421 0.0
N24 N 0.71727 0.13871 0.39059 0.0
N25 N 0.74384 0.15548 0.38844 0.0
C26 C 0.72496 0.15603 0.39156 0.0
C27 C 0.74819 0.13708 0.38546 0.0
C28 C 0.73173 0.12676 0.3867 0.0
O29 O 0.67721 0.14918 0.37237 0.0
C30 C 0.69549 0.12969 0.44358 0.0
O31 O 0.71016 0.11982 0.43644 0.0
H32 H 0.71685 0.16874 0.39472 0.0
H33 H 0.73041 0.11163 0.38484 0.0
N34 N 0.68654 0.10841 0.38532 0.0
N35 N 0.68629 0.07697 0.38217 0.0
C36 C 0.69437 0.09209 0.39281 0.0
C37 C 0.67316 0.10343 0.36945 0.0
C38 C 0.67296 0.08411 0.36745 0.0
C39 C 0.68347 0.15211 0.35126 0.0
O40 O 0.70011 0.14541 0.3453 0.0
H41 H 0.70556 0.09128 0.40596 0.0
H42 H 0.66414 0.11323 0.35996 0.0
O43 O 0.68485 0.13715 0.42778 0.0
H44 H 0.7622 0.13151 0.38222 0.0
H45 H 0.66387 0.07598 0.35577 0.0
Cu46 Cu 0.87856 0.71842 0.41095 0.0
N47 N 0.85986 0.73673 0.41547 0.0
N48 N 0.84095 0.76195 0.41217 0.0
C49 C 0.85466 0.75147 0.40165 0.0
C50 C 0.83759 0.75343 0.43339 0.0
C51 C 0.84919 0.73798 0.43532 0.0
O52 O 0.87396 0.70244 0.38295 0.0
C53 C 0.88881 0.70934 0.4585 0.0
O54 O 0.89958 0.72429 0.45626 0.0
H55 H 0.86075 0.75431 0.38424 0.0
H56 H 0.85002 0.72843 0.45039 0.0
N57 N 0.90196 0.72994 0.40622 0.0
N58 N 0.93318 0.7338 0.404 0.0
C59 C 0.91898 0.72172 0.40883 0.0
C60 C 0.90549 0.74778 0.39935 0.0
C61 C 0.92476 0.7502 0.3979 0.0
C62 C 0.86031 0.70401 0.36819 0.0
O63 O 0.84689 0.71638 0.37236 0.0
H64 H 0.92088 0.70713 0.41406 0.0
H65 H 0.89484 0.75833 0.39571 0.0
O66 O 0.87906 0.70378 0.44063 0.0
H67 H 0.82776 0.75819 0.44694 0.0
H68 H 0.93202 0.76309 0.3931 0.0
Cu69 Cu 0.30777 0.88034 0.39795 0.0
N70 N 0.28347 0.87026 0.39928 0.0
N71 N 0.25856 0.85094 0.39838 0.0
C72 C 0.27756 0.8523 0.39661 0.0
C73 C 0.25243 0.86874 0.40233 0.0
C74 C 0.26778 0.88054 0.40291 0.0
O75 O 0.32392 0.86718 0.37509 0.0
C76 C 0.31616 0.86775 0.44502 0.0
O77 O 0.30817 0.85207 0.43764 0.0
H78 H 0.28702 0.84056 0.39347 0.0
H79 H 0.26755 0.89567 0.40551 0.0
N80 N 0.30538 0.90484 0.38639 0.0
N81 N 0.30656 0.93617 0.38246 0.0
C82 C 0.31069 0.92123 0.3966 0.0
C83 C 0.2976 0.90953 0.36525 0.0
C84 C 0.29829 0.9288 0.36276 0.0
C85 C 0.31747 0.86125 0.35513 0.0
O86 O 0.29922 0.86205 0.3511 0.0
H87 H 0.31756 0.92213 0.4139 0.0
H88 H 0.29164 0.89961 0.35262 0.0
O89 O 0.31818 0.88131 0.43027 0.0
H90 H 0.23785 0.87308 0.40408 0.0
H91 H 0.29274 0.93678 0.34779 0.0
Cu92 Cu 0.13178 0.70509 0.64839 0.0
N93 N 0.1419 0.72922 0.6495 0.0
N94 N 0.16215 0.75317 0.65295 0.0
C95 C 0.15998 0.73423 0.6533 0.0
C96 C 0.14474 0.76024 0.64873 0.0
C97 C 0.13231 0.74544 0.6466 0.0
O98 O 0.14512 0.68984 0.67194 0.0
C99 C 0.12366 0.68624 0.60283 0.0
O100 O 0.10808 0.67953 0.61228 0.0
H101 H 0.17122 0.72418 0.65648 0.0
H102 H 0.11733 0.74638 0.64308 0.0
N103 N 0.1069 0.70719 0.65912 0.0
N104 N 0.07566 0.71003 0.66331 0.0
C105 C 0.09016 0.70837 0.64764 0.0
C106 C 0.10283 0.70865 0.68258 0.0
C107 C 0.08369 0.71031 0.68524 0.0
C108 C 0.13723 0.67542 0.6811 0.0
O109 O 0.12137 0.66926 0.67173 0.0
H110 H 0.08862 0.70803 0.62836 0.0
H111 H 0.1132 0.70863 0.6968 0.0
O112 O 0.13481 0.69616 0.61554 0.0
H113 H 0.14126 0.77504 0.64685 0.0
H114 H 0.0763 0.712 0.70209 0.0
Cu115 Cu 0.31367 0.12961 0.66735 0.0
N116 N 0.28841 0.13657 0.6706 0.0
N117 N 0.2623 0.15424 0.6689 0.0
C118 C 0.27993 0.15154 0.66038 0.0
C119 C 0.25947 0.14013 0.68476 0.0
C120 C 0.27563 0.12929 0.68581 0.0
O121 O 0.32825 0.14491 0.68955 0.0
C122 C 0.31025 0.12478 0.61826 0.0
O123 O 0.29473 0.11644 0.62553 0.0
H124 H 0.28687 0.16061 0.64753 0.0
H125 H 0.27821 0.11745 0.6976 0.0
N126 N 0.3168 0.10491 0.67806 0.0
N127 N 0.31752 0.0735 0.68128 0.0
C128 C 0.31361 0.08835 0.66688 0.0
C129 C 0.32295 0.1004 0.70011 0.0
C130 C 0.32344 0.0811 0.70217 0.0
C131 C 0.32478 0.16215 0.69409 0.0
O132 O 0.31308 0.17151 0.68024 0.0
H133 H 0.30829 0.08719 0.64878 0.0
H134 H 0.32682 0.11052 0.71378 0.0
O135 O 0.32122 0.13194 0.63389 0.0
H136 H 0.24704 0.13836 0.6958 0.0
H137 H 0.32802 0.0733 0.71779 0.0
Cu138 Cu 0.87926 0.29591 0.66871 0.0
N139 N 0.86886 0.2718 0.67191 0.0
N140 N 0.84935 0.24704 0.6695 0.0
C141 C 0.85273 0.26501 0.66246 0.0
C142 C 0.86404 0.24245 0.6838 0.0
C143 C 0.87598 0.25767 0.68521 0.0
O144 O 0.86959 0.31241 0.69389 0.0
C145 C 0.88053 0.29616 0.61841 0.0
O146 O 0.88971 0.2803 0.62206 0.0
H147 H 0.84363 0.2732 0.65086 0.0
H148 H 0.88882 0.25844 0.69561 0.0
N149 N 0.90502 0.29412 0.67528 0.0
N150 N 0.93646 0.2928 0.67368 0.0
C151 C 0.92039 0.29566 0.66111 0.0
C152 C 0.91168 0.29061 0.6974 0.0
C153 C 0.931 0.28966 0.69647 0.0
C154 C 0.85417 0.31024 0.70527 0.0
O155 O 0.84211 0.29733 0.69819 0.0
H156 H 0.91985 0.29853 0.64208 0.0
H157 H 0.90297 0.28878 0.71315 0.0
O158 O 0.87467 0.30552 0.63646 0.0
H159 H 0.8658 0.22926 0.6933 0.0
H160 H 0.94036 0.28707 0.71145 0.0
Cu161 Cu 0.6958 0.88098 0.65534 0.0
N162 N 0.72138 0.87692 0.66121 0.0
N163 N 0.74797 0.86078 0.66777 0.0
C164 C 0.72927 0.85975 0.66339 0.0
C165 C 0.752 0.87939 0.66834 0.0
C166 C 0.73552 0.88934 0.66441 0.0
O167 O 0.68235 0.86394 0.67678 0.0
C168 C 0.70138 0.88382 0.60601 0.0
O169 O 0.71497 0.8949 0.6136 0.0
H170 H 0.72141 0.84675 0.66152 0.0
H171 H 0.734 0.90451 0.66402 0.0
N172 N 0.68853 0.90567 0.66284 0.0
N173 N 0.68686 0.93713 0.66576 0.0
C174 C 0.69657 0.92225 0.65679 0.0
C175 C 0.67324 0.91023 0.67589 0.0
C176 C 0.6722 0.92953 0.67781 0.0
C177 C 0.68513 0.86592 0.69924 0.0
O178 O 0.69647 0.8794 0.70662 0.0
H179 H 0.70909 0.92338 0.64582 0.0
H180 H 0.66353 0.90016 0.68359 0.0
O181 O 0.69076 0.87593 0.62148 0.0
H182 H 0.76579 0.88538 0.67175 0.0
H183 H 0.6616 0.9373 0.68772 0.0
Cu184 Cu 0.88308 0.72244 0.673 0.0
N185 N 0.8725 0.74649 0.67346 0.0
N186 N 0.85177 0.77027 0.6744 0.0
C187 C 0.85412 0.75132 0.6741 0.0
C188 C 0.86939 0.77752 0.67396 0.0
C189 C 0.8821 0.76284 0.67337 0.0
O190 O 0.87257 0.70797 0.69954 0.0
C191 C 0.88793 0.69866 0.63148 0.0
O192 O 0.90249 0.69132 0.64266 0.0
H193 H 0.84277 0.74112 0.67408 0.0
H194 H 0.89732 0.76398 0.67302 0.0
N195 N 0.90885 0.72551 0.67901 0.0
N196 N 0.94029 0.72586 0.67689 0.0
C197 C 0.92402 0.72396 0.6645 0.0
C198 C 0.91581 0.7291 0.70097 0.0
C199 C 0.93515 0.72921 0.69977 0.0
C200 C 0.88214 0.69475 0.70914 0.0
O201 O 0.89805 0.68943 0.69907 0.0
H202 H 0.92323 0.72092 0.64553 0.0
H203 H 0.90731 0.73099 0.7169 0.0
O204 O 0.87796 0.71126 0.64172 0.0
H205 H 0.87292 0.79236 0.67445 0.0
H206 H 0.94473 0.7313 0.71466 0.0
Cu207 Cu 0.30717 0.88067 0.66751 0.0
N208 N 0.28328 0.86975 0.66581 0.0
N209 N 0.25928 0.84937 0.66487 0.0
C210 C 0.27813 0.8515 0.66756 0.0
C211 C 0.25244 0.86693 0.66126 0.0
C212 C 0.26725 0.87941 0.66182 0.0
O213 O 0.32341 0.86803 0.69072 0.0
C214 C 0.31641 0.86787 0.62072 0.0
O215 O 0.30893 0.85198 0.62819 0.0
H216 H 0.28798 0.8401 0.67079 0.0
H217 H 0.26646 0.89452 0.65921 0.0
N218 N 0.30371 0.90524 0.67847 0.0
N219 N 0.3035 0.93667 0.68125 0.0
C220 C 0.30892 0.92157 0.66808 0.0
C221 C 0.29468 0.91012 0.69873 0.0
C222 C 0.29452 0.92946 0.70052 0.0
C223 C 0.31696 0.86243 0.71083 0.0
O224 O 0.29874 0.86357 0.71493 0.0
H225 H 0.31659 0.92231 0.65134 0.0
H226 H 0.28837 0.90028 0.71116 0.0
O227 O 0.31787 0.88162 0.63533 0.0
H228 H 0.23783 0.8705 0.6578 0.0
H229 H 0.28792 0.93756 0.71468 0.0
Cu230 Cu 0.12937 0.29448 0.65894 0.0
N231 N 0.14019 0.27063 0.65584 0.0
N232 N 0.1608 0.24676 0.65462 0.0
C233 C 0.15845 0.26554 0.65782 0.0
C234 C 0.14335 0.23988 0.65044 0.0
C235 C 0.13071 0.25461 0.65119 0.0
O236 O 0.14129 0.30776 0.68565 0.0
C237 C 0.12457 0.30026 0.60967 0.0
O238 O 0.11472 0.28466 0.61184 0.0
H239 H 0.16969 0.27538 0.66185 0.0
H240 H 0.11562 0.25374 0.64849 0.0
N241 N 0.10417 0.2906 0.66736 0.0
N242 N 0.07268 0.28894 0.66845 0.0
C243 C 0.08794 0.29475 0.65585 0.0
C244 C 0.09903 0.28212 0.68786 0.0
C245 C 0.07971 0.28111 0.68863 0.0
C246 C 0.13195 0.32028 0.69702 0.0
O247 O 0.11538 0.32546 0.68874 0.0
H248 H 0.08734 0.30163 0.63857 0.0
H249 H 0.10877 0.27706 0.70133 0.0
O250 O 0.13194 0.30754 0.62835 0.0
H251 H 0.13995 0.22528 0.64674 0.0
H252 H 0.0715 0.27527 0.7032 0.0
Cu253 Cu 0.69761 0.1307 0.6692 0.0
N254 N 0.72347 0.13552 0.67106 0.0
N255 N 0.7502 0.15212 0.66801 0.0
C256 C 0.73231 0.14994 0.66013 0.0
C257 C 0.75282 0.13813 0.68413 0.0
C258 C 0.73628 0.12795 0.68601 0.0
O259 O 0.68499 0.14563 0.69399 0.0
C260 C 0.69885 0.12841 0.6198 0.0
O261 O 0.71339 0.11786 0.62568 0.0
H262 H 0.72529 0.15925 0.64762 0.0
H263 H 0.73344 0.11657 0.69841 0.0
N264 N 0.69233 0.10557 0.67666 0.0
N265 N 0.69084 0.07408 0.67722 0.0
C266 C 0.69969 0.08935 0.66803 0.0
C267 C 0.67861 0.10034 0.69192 0.0
C268 C 0.67765 0.08099 0.69231 0.0
C269 C 0.69109 0.16148 0.70142 0.0
O270 O 0.7048 0.16982 0.68971 0.0
H271 H 0.7109 0.08873 0.65489 0.0
H272 H 0.66972 0.11001 0.70184 0.0
O273 O 0.68919 0.13598 0.63653 0.0
H274 H 0.76532 0.13616 0.69501 0.0
H275 H 0.66797 0.07266 0.70292 0.0
Cu276 Cu 0.87871 0.29318 0.40023 0.0
N277 N 0.86846 0.26908 0.40035 0.0
N278 N 0.8477 0.24546 0.39787 0.0
C279 C 0.85015 0.26438 0.39826 0.0
C280 C 0.86524 0.23809 0.39986 0.0
C281 C 0.87798 0.25269 0.40138 0.0
O282 O 0.86394 0.3083 0.37787 0.0
C283 C 0.86625 0.31042 0.44406 0.0
O284 O 0.85108 0.31528 0.43199 0.0
H285 H 0.83894 0.27471 0.39703 0.0
H286 H 0.89317 0.25148 0.40271 0.0
N287 N 0.903 0.29114 0.38792 0.0
N288 N 0.93434 0.29116 0.38384 0.0
C289 C 0.91966 0.29409 0.3989 0.0
C290 C 0.9072 0.28618 0.36529 0.0
C291 C 0.92648 0.28622 0.36268 0.0
C292 C 0.87117 0.32168 0.36571 0.0
O293 O 0.88819 0.32764 0.37115 0.0
H294 H 0.92094 0.29812 0.41754 0.0
H295 H 0.89687 0.28294 0.35162 0.0
O296 O 0.87963 0.30195 0.43328 0.0
H297 H 0.86876 0.22323 0.3996 0.0
H298 H 0.93406 0.28319 0.34628 0.0
Cu299 Cu 0.70453 0.88406 0.38008 0.0
N300 N 0.73063 0.88218 0.37598 0.0
N301 N 0.75962 0.86959 0.37577 0.0
C302 C 0.74156 0.86773 0.38319 0.0
C303 C 0.76003 0.88612 0.36369 0.0
C304 C 0.74213 0.89383 0.36384 0.0
O305 O 0.69236 0.86884 0.35537 0.0
C306 C 0.7076 0.88453 0.42972 0.0
O307 O 0.72139 0.89604 0.42396 0.0
H308 H 0.73606 0.85575 0.39291 0.0
H309 H 0.7377 0.90676 0.35523 0.0
N310 N 0.69654 0.90873 0.37445 0.0
N311 N 0.69308 0.94008 0.37483 0.0
C312 C 0.70308 0.92521 0.38323 0.0
C313 C 0.68208 0.91332 0.35999 0.0
C314 C 0.67991 0.93258 0.36015 0.0
C315 C 0.6978 0.85246 0.349 0.0
O316 O 0.71089 0.84384 0.36155 0.0
H317 H 0.71476 0.92625 0.39565 0.0
H318 H 0.6737 0.9033 0.34996 0.0
O319 O 0.69796 0.87703 0.41292 0.0
H320 H 0.77227 0.89216 0.35503 0.0
H321 H 0.66958 0.94045 0.34992 0.0
Cu322 Cu 0.12526 0.71181 0.38356 0.0
N323 N 0.13592 0.73576 0.38354 0.0
N324 N 0.15695 0.75917 0.38478 0.0
C325 C 0.15438 0.7403 0.38355 0.0
C326 C 0.13945 0.7667 0.38548 0.0
C327 C 0.12652 0.75224 0.38471 0.0
O328 O 0.13673 0.69755 0.35746 0.0
C329 C 0.12013 0.69008 0.42753 0.0
O330 O 0.10444 0.6833 0.41846 0.0
H331 H 0.16563 0.72996 0.38328 0.0
H332 H 0.11132 0.7536 0.38522 0.0
N333 N 0.09958 0.71494 0.37685 0.0
N334 N 0.06838 0.71915 0.37934 0.0
C335 C 0.08449 0.71567 0.39157 0.0
C336 C 0.09278 0.71832 0.35475 0.0
C337 C 0.07358 0.72084 0.35619 0.0
C338 C 0.12787 0.68435 0.34682 0.0
O339 O 0.11155 0.67877 0.35541 0.0
H340 H 0.08533 0.7142 0.41084 0.0
H341 H 0.10129 0.71896 0.33868 0.0
O342 O 0.13035 0.70115 0.41513 0.0
H343 H 0.13619 0.78161 0.38637 0.0
H344 H 0.06415 0.72345 0.34129 0.0
Cu345 Cu 0.30523 0.12894 0.39382 0.0
N346 N 0.28033 0.13716 0.39584 0.0
N347 N 0.25513 0.15599 0.39841 0.0
C348 C 0.27417 0.15508 0.39742 0.0
C349 C 0.24918 0.13791 0.39745 0.0
C350 C 0.26475 0.12634 0.39587 0.0
O351 O 0.3179 0.14549 0.37105 0.0
C352 C 0.30701 0.12125 0.44242 0.0
O353 O 0.29202 0.1114 0.43652 0.0
H354 H 0.28347 0.16718 0.39747 0.0
H355 H 0.26474 0.1111 0.39492 0.0
N356 N 0.30473 0.10426 0.38221 0.0
N357 N 0.30692 0.07291 0.37915 0.0
C358 C 0.31087 0.08825 0.39267 0.0
C359 C 0.29659 0.09888 0.36154 0.0
C360 C 0.29797 0.0796 0.35955 0.0
C361 C 0.32779 0.13961 0.35348 0.0
O362 O 0.33174 0.12156 0.35166 0.0
H363 H 0.31789 0.08787 0.40988 0.0
H364 H 0.28979 0.10837 0.34904 0.0
O365 O 0.31589 0.12999 0.42598 0.0
H366 H 0.23463 0.13331 0.39817 0.0
H367 H 0.29219 0.07112 0.34517 0.0
Cu368 Cu 0.62921 0.79427 0.88858 0.0
N369 N 0.64197 0.7719 0.89549 0.0
N370 N 0.6638 0.74919 0.89796 0.0
C371 C 0.6593 0.76622 0.88859 0.0
C372 C 0.64874 0.74413 0.91129 0.0
C373 C 0.63537 0.75814 0.90976 0.0
O374 O 0.6397 0.80593 0.85973 0.0
C375 C 0.62058 0.8063 0.93534 0.0
O376 O 0.60745 0.79335 0.9332 0.0
H377 H 0.66832 0.77439 0.8769 0.0
H378 H 0.6218 0.75839 0.91863 0.0
N379 N 0.60409 0.7879 0.88215 0.0
N380 N 0.57258 0.78783 0.87998 0.0
C381 C 0.58813 0.7979 0.88584 0.0
C382 C 0.59844 0.77115 0.87339 0.0
C383 C 0.57911 0.77107 0.87197 0.0
C384 C 0.63939 0.79611 0.84056 0.0
O385 O 0.63312 0.77871 0.84167 0.0
H386 H 0.58793 0.81194 0.89349 0.0
H387 H 0.60777 0.75964 0.86867 0.0
O388 O 0.63125 0.8098 0.91747 0.0
H389 H 0.64759 0.73141 0.92191 0.0
H390 H 0.57056 0.75948 0.86556 0.0
Cu391 Cu 0.20679 0.62946 0.87963 0.0
N392 N 0.23071 0.64033 0.87803 0.0
N393 N 0.25432 0.66112 0.87917 0.0
C394 C 0.23552 0.65852 0.88147 0.0
C395 C 0.26154 0.64393 0.87412 0.0
C396 C 0.24695 0.63116 0.8734 0.0
O397 O 0.18981 0.64114 0.85639 0.0
C398 C 0.20897 0.62506 0.929 0.0
O399 O 0.22535 0.61791 0.92265 0.0
H400 H 0.22547 0.6695 0.88587 0.0
H401 H 0.24808 0.6162 0.86984 0.0
N402 N 0.20894 0.60435 0.87009 0.0
N403 N 0.2097 0.57283 0.86904 0.0
C404 C 0.20728 0.58832 0.88292 0.0
C405 C 0.21238 0.59885 0.84746 0.0
C406 C 0.21284 0.5795 0.84672 0.0
C407 C 0.19618 0.64778 0.83675 0.0
O408 O 0.21451 0.64861 0.83343 0.0
H409 H 0.20447 0.58806 0.90197 0.0
H410 H 0.21429 0.60833 0.83248 0.0
O411 O 0.19788 0.63103 0.91267 0.0
H412 H 0.27629 0.64083 0.87091 0.0
H413 H 0.21494 0.57104 0.83079 0.0
Cu414 Cu 0.37783 0.21008 0.89828 0.0
N415 N 0.37324 0.23562 0.90286 0.0
N416 N 0.35684 0.26224 0.90756 0.0
C417 C 0.35638 0.24323 0.90825 0.0
C418 C 0.37473 0.26677 0.90155 0.0
C419 C 0.38485 0.25026 0.89871 0.0
O420 O 0.36116 0.20262 0.8724 0.0
C421 C 0.38252 0.18636 0.94027 0.0
O422 O 0.39878 0.18099 0.93125 0.0
H423 H 0.34378 0.23494 0.91131 0.0
H424 H 0.39942 0.249 0.89314 0.0
N425 N 0.40265 0.20713 0.88754 0.0
N426 N 0.43416 0.20683 0.88457 0.0
C427 C 0.41916 0.20839 0.89951 0.0
C428 C 0.40739 0.20519 0.86434 0.0
C429 C 0.42668 0.2049 0.86245 0.0
C430 C 0.36277 0.18741 0.86045 0.0
O431 O 0.37481 0.17447 0.86762 0.0
H432 H 0.42008 0.21065 0.91864 0.0
H433 H 0.39748 0.20468 0.84962 0.0
O434 O 0.37193 0.19748 0.9284 0.0
H435 H 0.37999 0.28094 0.8989 0.0
H436 H 0.43451 0.20405 0.84584 0.0
Cu437 Cu 0.80575 0.38548 0.90099 0.0
N438 N 0.78108 0.37686 0.90494 0.0
N439 N 0.75548 0.3585 0.90531 0.0
C440 C 0.77439 0.35922 0.90223 0.0
C441 C 0.75019 0.37638 0.91038 0.0
C442 C 0.766 0.38764 0.91014 0.0
O443 O 0.81914 0.37067 0.8767 0.0
C444 C 0.81635 0.37192 0.94688 0.0
O445 O 0.80726 0.35673 0.93992 0.0
H446 H 0.78323 0.34724 0.89784 0.0
H447 H 0.76645 0.40273 0.91303 0.0
N448 N 0.80431 0.41014 0.88956 0.0
N449 N 0.80474 0.44159 0.88705 0.0
C450 C 0.8074 0.42643 0.90139 0.0
C451 C 0.79944 0.41514 0.86715 0.0
C452 C 0.7997 0.43448 0.86553 0.0
C453 C 0.81064 0.36505 0.85782 0.0
O454 O 0.79246 0.36824 0.85559 0.0
H455 H 0.81168 0.42712 0.91999 0.0
H456 H 0.79581 0.40539 0.85298 0.0
O457 O 0.81817 0.38558 0.93223 0.0
H458 H 0.73585 0.38115 0.91327 0.0
H459 H 0.79615 0.44265 0.84979 0.0
Cu460 Cu 0.62566 0.22281 0.16312 0.0
N461 N 0.63782 0.24597 0.16037 0.0
N462 N 0.6595 0.26881 0.16026 0.0
C463 C 0.65604 0.25033 0.16445 0.0
C464 C 0.6428 0.27624 0.15341 0.0
C465 C 0.6295 0.26216 0.15351 0.0
O466 O 0.6358 0.20906 0.1906 0.0
C467 C 0.6215 0.2168 0.114 0.0
O468 O 0.61193 0.23261 0.11606 0.0
H469 H 0.66653 0.24014 0.1701 0.0
H470 H 0.61473 0.2636 0.14898 0.0
N471 N 0.60037 0.22817 0.16955 0.0
N472 N 0.5689 0.22833 0.16985 0.0
C473 C 0.58457 0.22187 0.15874 0.0
C474 C 0.59448 0.23896 0.18794 0.0
C475 C 0.57509 0.23906 0.18821 0.0
C476 C 0.6251 0.19797 0.20236 0.0
O477 O 0.60808 0.19443 0.19419 0.0
H478 H 0.58455 0.2123 0.14361 0.0
H479 H 0.60374 0.24601 0.20049 0.0
O480 O 0.62853 0.2094 0.1328 0.0
H481 H 0.64026 0.2909 0.14904 0.0
H482 H 0.5662 0.24643 0.20095 0.0
Cu483 Cu 0.81016 0.63288 0.17912 0.0
N484 N 0.78485 0.64004 0.17878 0.0
N485 N 0.75857 0.65669 0.17198 0.0
C486 C 0.77766 0.65653 0.17107 0.0
C487 C 0.75371 0.63957 0.18065 0.0
C488 C 0.76993 0.62936 0.18479 0.0
O489 O 0.82313 0.64834 0.20283 0.0
C490 C 0.81018 0.62792 0.12984 0.0
O491 O 0.79475 0.61872 0.13563 0.0
H492 H 0.78632 0.6681 0.16488 0.0
H493 H 0.77078 0.615 0.19124 0.0
N494 N 0.81148 0.60793 0.18961 0.0
N495 N 0.81377 0.5765 0.19133 0.0
C496 C 0.81441 0.59192 0.17707 0.0
C497 C 0.80891 0.60249 0.21244 0.0
C498 C 0.8103 0.58317 0.21359 0.0
C499 C 0.83894 0.6432 0.21152 0.0
O500 O 0.84754 0.62849 0.20217 0.0
H501 H 0.81699 0.5916 0.15796 0.0
H502 H 0.80594 0.61198 0.22716 0.0
O503 O 0.81996 0.63533 0.14655 0.0
H504 H 0.73945 0.63452 0.18323 0.0
H505 H 0.80837 0.57471 0.22952 0.0
Cu506 Cu 0.38341 0.80222 0.16671 0.0
N507 N 0.37317 0.77807 0.16607 0.0
N508 N 0.35256 0.75426 0.16445 0.0
C509 C 0.3549 0.7732 0.16377 0.0
C510 C 0.3701 0.74708 0.16732 0.0
C511 C 0.38274 0.76177 0.1683 0.0
O512 O 0.37084 0.81622 0.19221 0.0
C513 C 0.39149 0.82338 0.12363 0.0
O514 O 0.40757 0.82797 0.13372 0.0
H515 H 0.34363 0.78336 0.16152 0.0
H516 H 0.39785 0.76068 0.17071 0.0
N517 N 0.40888 0.79969 0.17518 0.0
N518 N 0.44016 0.79524 0.17493 0.0
C519 C 0.42429 0.79654 0.16151 0.0
C520 C 0.41518 0.79994 0.19791 0.0
C521 C 0.43438 0.79737 0.19783 0.0
C522 C 0.37841 0.83079 0.20144 0.0
O523 O 0.39377 0.83771 0.19163 0.0
H524 H 0.42383 0.79503 0.14221 0.0
H525 H 0.40636 0.80193 0.21353 0.0
O526 O 0.37955 0.81346 0.13512 0.0
H527 H 0.37357 0.73227 0.16912 0.0
H528 H 0.4434 0.79752 0.21348 0.0
Cu529 Cu 0.21004 0.38191 0.16285 0.0
N530 N 0.2341 0.37153 0.16665 0.0
N531 N 0.259 0.35223 0.16357 0.0
C532 C 0.24157 0.35652 0.15524 0.0
C533 C 0.26255 0.36519 0.18078 0.0
C534 C 0.24721 0.37702 0.1826 0.0
O535 O 0.19298 0.37088 0.18637 0.0
C536 C 0.21278 0.38512 0.11329 0.0
O537 O 0.22887 0.39288 0.1196 0.0
H538 H 0.2342 0.34882 0.14136 0.0
H539 H 0.24556 0.38855 0.19513 0.0
N540 N 0.21111 0.40732 0.17128 0.0
N541 N 0.20915 0.43876 0.17169 0.0
C542 C 0.20877 0.42303 0.15795 0.0
C543 C 0.213 0.41333 0.19401 0.0
C544 C 0.21188 0.43266 0.19433 0.0
C545 C 0.19587 0.35537 0.1973 0.0
O546 O 0.2096 0.34423 0.19016 0.0
H547 H 0.20624 0.4229 0.13882 0.0
H548 H 0.21475 0.40418 0.20936 0.0
O549 O 0.20179 0.3791 0.12966 0.0
H550 H 0.27503 0.36574 0.19192 0.0
H551 H 0.21299 0.44155 0.21006 0.0
Cu552 Cu 0.37769 0.20273 0.15827 0.0
N553 N 0.37239 0.2283 0.15395 0.0
N554 N 0.35539 0.25462 0.14911 0.0
C555 C 0.35502 0.23561 0.15088 0.0
C556 C 0.37377 0.2594 0.15112 0.0
C557 C 0.38423 0.24312 0.15408 0.0
O558 O 0.36325 0.19375 0.18574 0.0
C559 C 0.38265 0.18212 0.11435 0.0
O560 O 0.40011 0.17957 0.12153 0.0
H561 H 0.34234 0.22713 0.15073 0.0
H562 H 0.39933 0.24223 0.15653 0.0
N563 N 0.40302 0.19919 0.16628 0.0
N564 N 0.43443 0.20081 0.16808 0.0
C565 C 0.41879 0.20603 0.15592 0.0
C566 C 0.40895 0.1893 0.18544 0.0
C567 C 0.42829 0.19031 0.18664 0.0
C568 C 0.3629 0.20432 0.20426 0.0
O569 O 0.37126 0.22083 0.20339 0.0
H570 H 0.41876 0.21487 0.14012 0.0
H571 H 0.39978 0.182 0.19783 0.0
O572 O 0.37092 0.19029 0.12824 0.0
H573 H 0.37931 0.27361 0.15054 0.0
H574 H 0.43717 0.18374 0.20005 0.0
Cu575 Cu 0.81406 0.38386 0.16827 0.0
N576 N 0.78904 0.37679 0.16394 0.0
N577 N 0.76286 0.35931 0.16306 0.0
C578 C 0.78142 0.35981 0.1686 0.0
C579 C 0.75874 0.37672 0.15468 0.0
C580 C 0.77493 0.38746 0.15526 0.0
O581 O 0.82473 0.36673 0.19199 0.0
C582 C 0.82318 0.37037 0.12214 0.0
O583 O 0.81368 0.35555 0.12944 0.0
H584 H 0.78946 0.348 0.17545 0.0
H585 H 0.77635 0.40202 0.14974 0.0
N586 N 0.81396 0.40813 0.18112 0.0
N587 N 0.81493 0.43945 0.18542 0.0
C588 C 0.81672 0.42478 0.17004 0.0
C589 C 0.81013 0.41237 0.2041 0.0
C590 C 0.81078 0.43163 0.20684 0.0
C591 C 0.83797 0.37132 0.20629 0.0
O592 O 0.84703 0.38725 0.20284 0.0
H593 H 0.81996 0.42608 0.15116 0.0
H594 H 0.80687 0.40211 0.21783 0.0
O595 O 0.82622 0.38376 0.1369 0.0
H596 H 0.74498 0.38148 0.14879 0.0
H597 H 0.8079 0.4393 0.22323 0.0
Cu598 Cu 0.6326 0.79864 0.1516 0.0
N599 N 0.63909 0.77339 0.148 0.0
N600 N 0.65721 0.74766 0.14584 0.0
C601 C 0.65676 0.76669 0.14553 0.0
C602 C 0.6391 0.74218 0.14856 0.0
C603 C 0.62793 0.75812 0.14983 0.0
O604 O 0.64952 0.80804 0.17635 0.0
C605 C 0.62404 0.81963 0.10841 0.0
O606 O 0.60755 0.82326 0.11807 0.0
H607 H 0.66911 0.77565 0.14468 0.0
H608 H 0.61283 0.75855 0.15265 0.0
N609 N 0.60776 0.79971 0.16305 0.0
N610 N 0.57645 0.7969 0.16664 0.0
C611 C 0.59138 0.79603 0.1516 0.0
C612 C 0.60297 0.80261 0.18611 0.0
C613 C 0.58374 0.80102 0.18835 0.0
C614 C 0.64745 0.82308 0.18859 0.0
O615 O 0.63394 0.83498 0.18293 0.0
H616 H 0.59047 0.79228 0.13282 0.0
H617 H 0.61284 0.8053 0.20048 0.0
O618 O 0.63645 0.81066 0.1204 0.0
H619 H 0.63431 0.72772 0.14988 0.0
H620 H 0.57573 0.80288 0.20471 0.0
Cu621 Cu 0.20325 0.63144 0.15453 0.0
N622 N 0.22778 0.64078 0.15711 0.0
N623 N 0.25263 0.66011 0.15837 0.0
C624 C 0.23377 0.65875 0.15513 0.0
C625 C 0.25864 0.64232 0.16247 0.0
C626 C 0.24331 0.63046 0.1617 0.0
O627 O 0.18624 0.64487 0.17617 0.0
C628 C 0.20668 0.62592 0.10531 0.0
O629 O 0.22254 0.61815 0.11252 0.0
H630 H 0.22447 0.67051 0.15138 0.0
H631 H 0.24341 0.61536 0.16446 0.0
N632 N 0.20344 0.60653 0.1652 0.0
N633 N 0.20272 0.57509 0.16764 0.0
C634 C 0.20207 0.59021 0.15288 0.0
C635 C 0.20507 0.60157 0.18835 0.0
C636 C 0.20464 0.58225 0.18993 0.0
C637 C 0.19212 0.65123 0.19623 0.0
O638 O 0.21024 0.65048 0.20111 0.0
H639 H 0.20044 0.58943 0.13362 0.0
H640 H 0.20661 0.61137 0.20308 0.0
O641 O 0.19548 0.63268 0.121 0.0
H642 H 0.27304 0.63818 0.16633 0.0
H643 H 0.20604 0.5741 0.20624 0.0
Cu644 Cu 0.38045 0.80617 0.90326 0.0
N645 N 0.36625 0.78478 0.91015 0.0
N646 N 0.34514 0.76147 0.90896 0.0
C647 C 0.35067 0.77805 0.89926 0.0
C648 C 0.35765 0.75778 0.92659 0.0
C649 C 0.37061 0.77216 0.92727 0.0
O650 O 0.36953 0.81916 0.87569 0.0
C651 C 0.39215 0.81699 0.9497 0.0
O652 O 0.40505 0.80396 0.94616 0.0
H653 H 0.34387 0.78487 0.88421 0.0
H654 H 0.38257 0.77324 0.93922 0.0
N655 N 0.40444 0.79754 0.89457 0.0
N656 N 0.4355 0.7944 0.88888 0.0
C657 C 0.42155 0.80559 0.89736 0.0
C658 C 0.40769 0.7809 0.88373 0.0
C659 C 0.42678 0.7789 0.88023 0.0
C660 C 0.37978 0.82993 0.86289 0.0
O661 O 0.39701 0.83374 0.87009 0.0
H662 H 0.42372 0.81916 0.90586 0.0
H663 H 0.39686 0.7709 0.87876 0.0
O664 O 0.38075 0.82106 0.93277 0.0
H665 H 0.35742 0.74557 0.93822 0.0
H666 H 0.43368 0.767 0.87176 0.0
Cu667 Cu 0.20477 0.37996 0.88769 0.0
N668 N 0.22978 0.37194 0.88547 0.0
N669 N 0.25615 0.35501 0.89013 0.0
C670 C 0.23726 0.35568 0.89354 0.0
C671 C 0.2606 0.37154 0.87951 0.0
C672 C 0.24433 0.38193 0.8767 0.0
O673 O 0.18861 0.36517 0.86642 0.0
C674 C 0.20848 0.38552 0.93691 0.0
O675 O 0.22419 0.39346 0.92953 0.0
H676 H 0.22894 0.34465 0.90176 0.0
H677 H 0.24322 0.39596 0.86921 0.0
N678 N 0.20361 0.40466 0.87638 0.0
N679 N 0.204 0.43604 0.87323 0.0
C680 C 0.2037 0.42118 0.88839 0.0
C681 C 0.20369 0.40926 0.853 0.0
C682 C 0.20394 0.42856 0.85098 0.0
C683 C 0.19491 0.35828 0.84684 0.0
O684 O 0.21305 0.35943 0.84219 0.0
H685 H 0.20406 0.4223 0.90773 0.0
H686 H 0.20386 0.3992 0.83841 0.0
O687 O 0.1972 0.37874 0.92133 0.0
H688 H 0.27465 0.3761 0.87465 0.0
H689 H 0.20405 0.43649 0.83441 0.0
Cu690 Cu 0.62672 0.21578 0.89776 0.0
N691 N 0.635 0.24056 0.89962 0.0
N692 N 0.6543 0.26541 0.89927 0.0
C693 C 0.65284 0.24653 0.89659 0.0
C694 C 0.63664 0.27148 0.9042 0.0
C695 C 0.62475 0.25609 0.90438 0.0
O696 O 0.64382 0.20298 0.87579 0.0
C697 C 0.63873 0.1975 0.94147 0.0
O698 O 0.65412 0.19245 0.92999 0.0
H699 H 0.66453 0.23712 0.89287 0.0
H700 H 0.60971 0.25618 0.90771 0.0
N701 N 0.60246 0.21596 0.88506 0.0
N702 N 0.57109 0.2151 0.88213 0.0
C703 C 0.58607 0.21427 0.89705 0.0
C704 C 0.59773 0.21817 0.86188 0.0
C705 C 0.57836 0.21752 0.85999 0.0
C706 C 0.63905 0.19004 0.86114 0.0
O707 O 0.62235 0.18217 0.86315 0.0
H708 H 0.58518 0.21229 0.91625 0.0
H709 H 0.60769 0.22013 0.84742 0.0
O710 O 0.62575 0.20629 0.93035 0.0
H711 H 0.63253 0.28601 0.90718 0.0
H712 H 0.57025 0.21904 0.84366 0.0
Cu713 Cu 0.81846 0.63429 0.90427 0.0
N714 N 0.793 0.64041 0.9005 0.0
N715 N 0.76683 0.65774 0.89659 0.0
C716 C 0.78552 0.65785 0.90139 0.0
C717 C 0.76243 0.63945 0.89269 0.0
C718 C 0.77862 0.6288 0.89505 0.0
O719 O 0.83335 0.64982 0.88243 0.0
C720 C 0.81419 0.63054 0.95364 0.0
O721 O 0.79889 0.62183 0.9463 0.0
H722 H 0.79372 0.67035 0.90529 0.0
H723 H 0.77989 0.61373 0.89252 0.0
N724 N 0.8228 0.60937 0.89488 0.0
N725 N 0.82264 0.57791 0.89199 0.0
C726 C 0.8161 0.59312 0.90411 0.0
C727 C 0.83395 0.60424 0.87649 0.0
C728 C 0.83388 0.58491 0.87464 0.0
C729 C 0.82676 0.65349 0.86165 0.0
O730 O 0.80961 0.64795 0.8562 0.0
H731 H 0.80644 0.59245 0.91908 0.0
H732 H 0.8417 0.61393 0.86522 0.0
O733 O 0.82531 0.63748 0.93799 0.0
H734 H 0.74862 0.63418 0.8878 0.0
H735 H 0.84175 0.57666 0.86171 0.0
H736 H 0.21898 0.15988 0.38295 0.0
H737 H 0.26485 0.18998 0.41748 0.0
H738 H 0.24469 0.21836 0.42054 0.0
H739 H 0.20103 0.19895 0.34876 0.0
H740 H 0.17671 0.19212 0.35253 0.0
H741 H 0.19499 0.17443 0.35261 0.0
H742 H 0.18357 0.16268 0.39414 0.0
H743 H 0.16527 0.18034 0.3942 0.0
H744 H 0.18184 0.17917 0.41868 0.0
H745 H 0.21897 0.24328 0.42063 0.0
H746 H 0.18999 0.26257 0.4176 0.0
H747 H 0.16138 0.21582 0.38288 0.0
C748 C 0.22479 0.17237 0.39131 0.0
C749 C 0.24352 0.17266 0.39999 0.0
C750 C 0.25063 0.18946 0.41044 0.0
C751 C 0.23925 0.20562 0.41237 0.0
C752 C 0.22082 0.20477 0.40372 0.0
C753 C 0.21367 0.18857 0.39335 0.0
C754 C 0.19339 0.19121 0.38557 0.0
C755 C 0.19143 0.18905 0.35825 0.0
C756 C 0.18025 0.17754 0.39896 0.0
C757 C 0.19016 0.21139 0.39338 0.0
C758 C 0.20613 0.21902 0.40374 0.0
C759 C 0.20641 0.23746 0.41244 0.0
C760 C 0.1899 0.24835 0.41053 0.0
C761 C 0.17334 0.24074 0.40003 0.0
C762 C 0.17364 0.22202 0.3913 0.0
H763 H 0.78051 0.1557 0.40265 0.0
H764 H 0.73605 0.19106 0.37358 0.0
H765 H 0.75783 0.21825 0.3732 0.0
H766 H 0.80079 0.19097 0.44122 0.0
H767 H 0.82473 0.18325 0.43628 0.0
H768 H 0.80562 0.1666 0.43418 0.0
H769 H 0.81626 0.1576 0.3912 0.0
H770 H 0.8354 0.17422 0.39317 0.0
H771 H 0.8187 0.17581 0.36888 0.0
H772 H 0.78469 0.24136 0.37521 0.0
H773 H 0.81439 0.2589 0.38012 0.0
H774 H 0.84102 0.20858 0.40912 0.0
C775 C 0.77541 0.16913 0.39604 0.0
C776 C 0.75659 0.17128 0.38814 0.0
C777 C 0.75035 0.18916 0.37997 0.0
C778 C 0.76264 0.20464 0.37957 0.0
C779 C 0.78109 0.20204 0.38753 0.0
C780 C 0.78744 0.18475 0.3957 0.0
C781 C 0.80788 0.18577 0.40351 0.0
C782 C 0.80986 0.18139 0.43039 0.0
C783 C 0.82029 0.17257 0.38827 0.0
C784 C 0.81207 0.2063 0.39828 0.0
C785 C 0.79645 0.21543 0.38906 0.0
C786 C 0.79699 0.23439 0.38259 0.0
C787 C 0.81395 0.24428 0.3856 0.0
C788 C 0.83019 0.23524 0.39512 0.0
C789 C 0.82906 0.21597 0.40158 0.0
H790 H 0.8074 0.77687 0.42685 0.0
H791 H 0.85365 0.7856 0.37698 0.0
H792 H 0.8381 0.8146 0.36239 0.0
H793 H 0.77036 0.79311 0.3892 0.0
H794 H 0.75757 0.80435 0.41323 0.0
H795 H 0.7723 0.7842 0.41936 0.0
H796 H 0.7907 0.80355 0.45115 0.0
H797 H 0.77602 0.82377 0.44511 0.0
H798 H 0.80132 0.82568 0.44272 0.0
H799 H 0.81699 0.84281 0.35314 0.0
H800 H 0.79229 0.86718 0.34976 0.0
H801 H 0.76133 0.84051 0.40775 0.0
C802 C 0.81449 0.78488 0.41306 0.0
C803 C 0.83187 0.77881 0.40319 0.0
C804 C 0.84027 0.78971 0.38474 0.0
C805 C 0.8316 0.80632 0.37642 0.0
C806 C 0.81457 0.81191 0.38679 0.0
C807 C 0.80616 0.80149 0.40474 0.0
C808 C 0.78789 0.81044 0.41302 0.0
C809 C 0.77104 0.79724 0.40842 0.0
C810 C 0.78906 0.8162 0.43957 0.0
C811 C 0.78724 0.82752 0.39685 0.0
C812 C 0.80271 0.82816 0.38181 0.0
C813 C 0.80488 0.84249 0.36495 0.0
C814 C 0.79077 0.85639 0.36329 0.0
C815 C 0.77467 0.85593 0.37845 0.0
C816 C 0.77318 0.84132 0.39561 0.0
H817 H 0.16344 0.79275 0.4066 0.0
H818 H 0.19045 0.74852 0.36513 0.0
H819 H 0.22037 0.76652 0.36575 0.0
H820 H 0.18537 0.83134 0.37775 0.0
H821 H 0.1876 0.84525 0.40466 0.0
H822 H 0.16879 0.82834 0.40195 0.0
H823 H 0.17975 0.81214 0.44123 0.0
H824 H 0.19861 0.82903 0.44407 0.0
H825 H 0.20383 0.80413 0.44389 0.0
H826 H 0.24689 0.79057 0.36911 0.0
H827 H 0.26759 0.81818 0.37523 0.0
H828 H 0.22293 0.84589 0.41536 0.0
C829 C 0.17561 0.78683 0.3976 0.0
C830 C 0.17459 0.76925 0.38574 0.0
C831 C 0.19096 0.76189 0.37451 0.0
C832 C 0.20799 0.77204 0.3747 0.0
C833 C 0.20842 0.78944 0.38639 0.0
C834 C 0.19266 0.79669 0.39774 0.0
C835 C 0.19662 0.81582 0.40865 0.0
C836 C 0.18384 0.83108 0.39758 0.0
C837 C 0.19458 0.81523 0.43608 0.0
C838 C 0.21698 0.81841 0.40127 0.0
C839 C 0.22361 0.80304 0.38854 0.0
C840 C 0.24189 0.80259 0.37927 0.0
C841 C 0.25359 0.81833 0.38295 0.0
C842 C 0.24696 0.83432 0.39577 0.0
C843 C 0.22846 0.83409 0.40524 0.0
H844 H 0.16543 0.78925 0.66884 0.0
H845 H 0.19798 0.74127 0.64362 0.0
H846 H 0.22719 0.7601 0.64684 0.0
H847 H 0.19015 0.82381 0.63652 0.0
H848 H 0.18876 0.84146 0.65975 0.0
H849 H 0.17079 0.82363 0.65749 0.0
H850 H 0.17693 0.81386 0.70159 0.0
H851 H 0.19494 0.8317 0.70399 0.0
H852 H 0.20048 0.80745 0.71078 0.0
H853 H 0.25262 0.78518 0.65016 0.0
H854 H 0.2718 0.81421 0.65305 0.0
H855 H 0.22226 0.84536 0.67615 0.0
C856 C 0.17867 0.78264 0.66401 0.0
C857 C 0.17936 0.76375 0.65595 0.0
C858 C 0.19708 0.75562 0.65012 0.0
C859 C 0.21375 0.76624 0.65182 0.0
C860 C 0.21248 0.78492 0.65952 0.0
C861 C 0.19537 0.793 0.66561 0.0
C862 C 0.19761 0.81353 0.6724 0.0
C863 C 0.18615 0.82636 0.65553 0.0
C864 C 0.19217 0.81682 0.69876 0.0
C865 C 0.2186 0.81591 0.66861 0.0
C866 C 0.227 0.79924 0.66141 0.0
C867 C 0.2462 0.79826 0.65604 0.0
C868 C 0.25701 0.8148 0.65783 0.0
C869 C 0.24855 0.8321 0.66478 0.0
C870 C 0.22914 0.83245 0.67055 0.0
H871 H 0.22405 0.15525 0.67314 0.0
H872 H 0.2727 0.1895 0.65487 0.0
H873 H 0.25189 0.21696 0.64874 0.0
H874 H 0.19164 0.17632 0.63097 0.0
H875 H 0.1718 0.17515 0.65113 0.0
H876 H 0.19052 0.15801 0.65335 0.0
H877 H 0.1952 0.16667 0.69811 0.0
H878 H 0.17652 0.18385 0.69602 0.0
H879 H 0.19958 0.19089 0.70632 0.0
H880 H 0.22577 0.24108 0.64584 0.0
H881 H 0.19618 0.25958 0.64504 0.0
H882 H 0.16486 0.20969 0.6661 0.0
C883 C 0.23034 0.16851 0.66788 0.0
C884 C 0.25003 0.17012 0.66438 0.0
C885 C 0.25765 0.18775 0.65726 0.0
C886 C 0.24595 0.20351 0.65391 0.0
C887 C 0.22664 0.20144 0.6577 0.0
C888 C 0.21888 0.18437 0.66444 0.0
C889 C 0.19771 0.18593 0.66756 0.0
C890 C 0.18731 0.17309 0.64968 0.0
C891 C 0.19192 0.18158 0.69355 0.0
C892 C 0.1948 0.20657 0.66163 0.0
C893 C 0.21164 0.21529 0.65602 0.0
C894 C 0.21248 0.23439 0.65018 0.0
C895 C 0.19562 0.24482 0.64993 0.0
C896 C 0.17815 0.23611 0.65544 0.0
C897 C 0.17789 0.21673 0.66143 0.0
H898 H 0.78847 0.15308 0.67298 0.0
H899 H 0.74005 0.18738 0.65335 0.0
H900 H 0.76076 0.21487 0.64831 0.0
H901 H 0.81088 0.18755 0.70815 0.0
H902 H 0.83454 0.18134 0.69922 0.0
H903 H 0.81624 0.16376 0.69887 0.0
H904 H 0.82311 0.15691 0.65406 0.0
H905 H 0.8415 0.17445 0.6543 0.0
H906 H 0.8226 0.17601 0.63276 0.0
H907 H 0.78626 0.23944 0.64882 0.0
H908 H 0.81463 0.25896 0.6546 0.0
H909 H 0.8466 0.20873 0.67336 0.0
C910 C 0.78223 0.16631 0.66742 0.0
C911 C 0.76258 0.16789 0.6634 0.0
C912 C 0.75504 0.18555 0.65609 0.0
C913 C 0.76671 0.20136 0.65329 0.0
C914 C 0.78593 0.19935 0.65774 0.0
C915 C 0.79367 0.18225 0.66452 0.0
C916 C 0.81463 0.18411 0.66934 0.0
C917 C 0.81934 0.17888 0.69544 0.0
C918 C 0.82614 0.17216 0.65155 0.0
C919 C 0.81733 0.20501 0.66484 0.0
C920 C 0.80065 0.21352 0.65797 0.0
C921 C 0.79948 0.23288 0.65387 0.0
C922 C 0.81575 0.24387 0.65712 0.0
C923 C 0.833 0.2355 0.66446 0.0
C924 C 0.83371 0.21572 0.66797 0.0
H925 H 0.84586 0.8065 0.65984 0.0
H926 H 0.81778 0.75788 0.69087 0.0
H927 H 0.78798 0.77589 0.69252 0.0
H928 H 0.82215 0.8415 0.69552 0.0
H929 H 0.82082 0.85844 0.67149 0.0
H930 H 0.83985 0.84157 0.6723 0.0
H931 H 0.83104 0.83016 0.62959 0.0
H932 H 0.812 0.84701 0.62863 0.0
H933 H 0.80729 0.82233 0.6236 0.0
H934 H 0.76125 0.79932 0.69093 0.0
H935 H 0.73959 0.82638 0.68617 0.0
H936 H 0.78537 0.85978 0.65691 0.0
C937 C 0.83354 0.79962 0.6672 0.0
C938 C 0.83426 0.7807 0.67522 0.0
C939 C 0.81761 0.77224 0.68431 0.0
C940 C 0.80062 0.7824 0.68547 0.0
C941 C 0.80049 0.80103 0.67751 0.0
C942 C 0.81652 0.80956 0.66856 0.0
C943 C 0.81265 0.82976 0.66118 0.0
C944 C 0.82458 0.84363 0.67601 0.0
C945 C 0.81594 0.83247 0.63415 0.0
C946 C 0.79192 0.83129 0.66744 0.0
C947 C 0.78516 0.81456 0.67678 0.0
C948 C 0.76638 0.81248 0.68361 0.0
C949 C 0.75416 0.8279 0.68071 0.0
C950 C 0.76077 0.84519 0.67112 0.0
C951 C 0.77995 0.84685 0.66455 0.0
H952 H 0.66857 0.71131 0.90294 0.0
H953 H 0.69853 0.76313 0.88671 0.0
H954 H 0.72831 0.74514 0.88355 0.0
H955 H 0.70417 0.69127 0.94015 0.0
H956 H 0.70012 0.66746 0.93001 0.0
H957 H 0.68109 0.68433 0.92978 0.0
H958 H 0.67577 0.67807 0.8845 0.0
H959 H 0.69478 0.66117 0.88457 0.0
H960 H 0.69521 0.68071 0.86392 0.0
H961 H 0.75507 0.72145 0.88364 0.0
H962 H 0.77644 0.69398 0.88606 0.0
H963 H 0.72883 0.65805 0.90352 0.0
C964 C 0.68135 0.71896 0.89882 0.0
C965 C 0.68114 0.7387 0.89512 0.0
C966 C 0.69823 0.74802 0.88935 0.0
C967 C 0.71526 0.73792 0.88765 0.0
C968 C 0.71494 0.71852 0.89172 0.0
C969 C 0.69841 0.70914 0.89711 0.0
C970 C 0.70186 0.6883 0.90111 0.0
C971 C 0.6965 0.68251 0.92679 0.0
C972 C 0.69128 0.67636 0.8824 0.0
C973 C 0.72298 0.6874 0.89729 0.0
C974 C 0.73028 0.70496 0.89186 0.0
C975 C 0.7495 0.70764 0.88788 0.0
C976 C 0.76155 0.69195 0.88948 0.0
C977 C 0.75436 0.67381 0.89504 0.0
C978 C 0.73478 0.67163 0.89895 0.0
H979 H 0.29032 0.66486 0.89481 0.0
H980 H 0.24189 0.69667 0.86966 0.0
H981 H 0.26013 0.72629 0.87369 0.0
H982 H 0.30561 0.69818 0.93861 0.0
H983 H 0.33036 0.69393 0.93333 0.0
H984 H 0.31347 0.67543 0.92804 0.0
H985 H 0.32552 0.67202 0.88436 0.0
H986 H 0.34244 0.69052 0.8895 0.0
H987 H 0.32588 0.69242 0.86509 0.0
H988 H 0.28429 0.75247 0.88006 0.0
H989 H 0.3115 0.77287 0.89046 0.0
H990 H 0.34353 0.72337 0.91135 0.0
C991 C 0.28358 0.67802 0.88993 0.0
C992 C 0.26471 0.67845 0.88181 0.0
C993 C 0.25629 0.69603 0.87609 0.0
C994 C 0.26658 0.7129 0.87818 0.0
C995 C 0.28522 0.71191 0.88612 0.0
C996 C 0.29357 0.6949 0.89203 0.0
C997 C 0.31362 0.69757 0.90062 0.0
C998 C 0.31589 0.69089 0.9267 0.0
C999 C 0.32769 0.68754 0.88389 0.0
C1000 C 0.31529 0.71877 0.89871 0.0
C1001 C 0.29885 0.72684 0.89015 0.0
C1002 C 0.29722 0.74628 0.8868 0.0
C1003 C 0.31274 0.75775 0.89262 0.0
C1004 C 0.32955 0.74971 0.90185 0.0
C1005 C 0.33077 0.72996 0.90469 0.0
H1006 H 0.35079 0.2949 0.8834 0.0
H1007 H 0.32673 0.25763 0.93681 0.0
H1008 H 0.29838 0.27798 0.93912 0.0
H1009 H 0.33279 0.33909 0.90817 0.0
H1010 H 0.32823 0.3491 0.87905 0.0
H1011 H 0.34703 0.33222 0.88283 0.0
H1012 H 0.33241 0.3113 0.84953 0.0
H1013 H 0.31353 0.32806 0.84574 0.0
H1014 H 0.30821 0.30373 0.85224 0.0
H1015 H 0.27232 0.30197 0.93464 0.0
H1016 H 0.25042 0.32758 0.92363 0.0
H1017 H 0.29126 0.34835 0.87195 0.0
C1018 C 0.33972 0.29124 0.89591 0.0
C1019 C 0.34096 0.27477 0.91005 0.0
C1020 C 0.32597 0.27016 0.92578 0.0
C1021 C 0.30988 0.28166 0.92727 0.0
C1022 C 0.30899 0.29766 0.91282 0.0
C1023 C 0.32351 0.30245 0.89745 0.0
C1024 C 0.31869 0.3199 0.88305 0.0
C1025 C 0.33251 0.33603 0.88862 0.0
C1026 C 0.31817 0.31547 0.85604 0.0
C1027 C 0.29916 0.32412 0.89265 0.0
C1028 C 0.29385 0.31122 0.90989 0.0
C1029 C 0.27632 0.31216 0.92114 0.0
C1030 C 0.2639 0.32671 0.9146 0.0
C1031 C 0.269 0.34008 0.89684 0.0
C1032 C 0.28692 0.33863 0.88581 0.0
H1033 H 0.66122 0.29921 0.92074 0.0
H1034 H 0.68581 0.25715 0.87347 0.0
H1035 H 0.71487 0.27613 0.87067 0.0
H1036 H 0.68017 0.3397 0.89048 0.0
H1037 H 0.68419 0.35276 0.91774 0.0
H1038 H 0.66545 0.33565 0.91632 0.0
H1039 H 0.67942 0.31845 0.95329 0.0
H1040 H 0.69823 0.33548 0.95478 0.0
H1041 H 0.70366 0.31067 0.95267 0.0
H1042 H 0.74112 0.29998 0.87255 0.0
H1043 H 0.7624 0.32705 0.8786 0.0
H1044 H 0.72067 0.35335 0.92489 0.0
C1045 C 0.67263 0.29403 0.90964 0.0
C1046 C 0.6712 0.27662 0.89739 0.0
C1047 C 0.68663 0.27028 0.88332 0.0
C1048 C 0.70318 0.28101 0.88151 0.0
C1049 C 0.7041 0.29806 0.89388 0.0
C1050 C 0.68924 0.30454 0.90766 0.0
C1051 C 0.69379 0.32338 0.91908 0.0
C1052 C 0.68009 0.33878 0.91038 0.0
C1053 C 0.69378 0.32189 0.94659 0.0
C1054 C 0.71351 0.32652 0.90947 0.0
C1055 C 0.71922 0.31175 0.89502 0.0
C1056 C 0.73684 0.31159 0.88394 0.0
C1057 C 0.7489 0.327 0.88764 0.0
C1058 C 0.74329 0.34238 0.9023 0.0
C1059 C 0.72536 0.34197 0.9134 0.0
H1060 H 0.67027 0.30026 0.13622 0.0
H1061 H 0.68862 0.26018 0.19017 0.0
H1062 H 0.71799 0.27847 0.19587 0.0
H1063 H 0.71637 0.30939 0.11055 0.0
H1064 H 0.71146 0.33406 0.10571 0.0
H1065 H 0.69251 0.31714 0.10508 0.0
H1066 H 0.67482 0.33619 0.13783 0.0
H1067 H 0.69373 0.35311 0.13864 0.0
H1068 H 0.68655 0.34133 0.16576 0.0
H1069 H 0.74459 0.30234 0.19709 0.0
H1070 H 0.76643 0.32925 0.19316 0.0
H1071 H 0.73036 0.35335 0.13818 0.0
C1072 C 0.68042 0.2953 0.14928 0.0
C1073 C 0.67709 0.2788 0.16281 0.0
C1074 C 0.69093 0.27266 0.17942 0.0
C1075 C 0.70761 0.28301 0.18286 0.0
C1076 C 0.71026 0.29939 0.16945 0.0
C1077 C 0.69707 0.30542 0.15289 0.0
C1078 C 0.70302 0.32367 0.14108 0.0
C1079 C 0.70602 0.32089 0.114 0.0
C1080 C 0.68868 0.33951 0.14614 0.0
C1081 C 0.7215 0.32718 0.15386 0.0
C1082 C 0.72551 0.313 0.17007 0.0
C1083 C 0.74167 0.31343 0.18428 0.0
C1084 C 0.75405 0.32876 0.18184 0.0
C1085 C 0.75019 0.34348 0.16532 0.0
C1086 C 0.73368 0.34251 0.15116 0.0
H1087 H 0.72188 0.66174 0.18543 0.0
H1088 H 0.76649 0.68591 0.14179 0.0
H1089 H 0.74508 0.71161 0.12976 0.0
H1090 H 0.68379 0.67191 0.14422 0.0
H1091 H 0.66714 0.67713 0.16775 0.0
H1092 H 0.68604 0.66061 0.17301 0.0
H1093 H 0.69695 0.68022 0.20971 0.0
H1094 H 0.67808 0.69678 0.20459 0.0
H1095 H 0.70214 0.70495 0.206 0.0
H1096 H 0.71896 0.73519 0.12318 0.0
H1097 H 0.68989 0.75455 0.12227 0.0
H1098 H 0.6622 0.71432 0.16899 0.0
C1099 C 0.72718 0.67225 0.17313 0.0
C1100 C 0.746 0.6717 0.16468 0.0
C1101 C 0.75229 0.68606 0.14888 0.0
C1102 C 0.74017 0.70069 0.14177 0.0
C1103 C 0.72174 0.70074 0.15046 0.0
C1104 C 0.71525 0.68687 0.16573 0.0
C1105 C 0.69485 0.69023 0.17264 0.0
C1106 C 0.68221 0.67401 0.16387 0.0
C1107 C 0.6929 0.69323 0.19985 0.0
C1108 C 0.69091 0.70825 0.15897 0.0
C1109 C 0.70661 0.7141 0.14632 0.0
C1110 C 0.70655 0.73069 0.13293 0.0
C1111 C 0.69003 0.74163 0.13259 0.0
C1112 C 0.67379 0.73589 0.14546 0.0
C1113 C 0.67427 0.71889 0.15864 0.0
H1114 H 0.28991 0.66261 0.14762 0.0
H1115 H 0.24136 0.69582 0.1694 0.0
H1116 H 0.26146 0.72427 0.17145 0.0
H1117 H 0.32286 0.68436 0.1863 0.0
H1118 H 0.34211 0.68337 0.1652 0.0
H1119 H 0.3236 0.66603 0.16388 0.0
H1120 H 0.31733 0.67456 0.1194 0.0
H1121 H 0.33588 0.6919 0.12056 0.0
H1122 H 0.31244 0.69872 0.1114 0.0
H1123 H 0.28754 0.7487 0.17344 0.0
H1124 H 0.31712 0.76704 0.17468 0.0
H1125 H 0.34824 0.71755 0.15115 0.0
C1126 C 0.28346 0.67584 0.15281 0.0
C1127 C 0.26404 0.67695 0.15837 0.0
C1128 C 0.25614 0.69464 0.16478 0.0
C1129 C 0.26747 0.71086 0.1661 0.0
C1130 C 0.28664 0.70917 0.16082 0.0
C1131 C 0.29453 0.6921 0.15418 0.0
C1132 C 0.31555 0.69385 0.15003 0.0
C1133 C 0.32668 0.68115 0.16739 0.0
C1134 C 0.32059 0.68951 0.12379 0.0
C1135 C 0.31836 0.71452 0.15578 0.0
C1136 C 0.30153 0.72316 0.16185 0.0
C1137 C 0.30077 0.74211 0.16849 0.0
C1138 C 0.31767 0.75245 0.16902 0.0
C1139 C 0.33511 0.74381 0.16301 0.0
C1140 C 0.33527 0.7246 0.15612 0.0
H1141 H 0.2969 0.34861 0.171 0.0
H1142 H 0.2482 0.31967 0.14129 0.0
H1143 H 0.26821 0.29218 0.13197 0.0
H1144 H 0.33187 0.33012 0.12949 0.0
H1145 H 0.34976 0.32789 0.1523 0.0
H1146 H 0.33191 0.34592 0.15484 0.0
H1147 H 0.32266 0.33324 0.19679 0.0
H1148 H 0.34047 0.3152 0.19439 0.0
H1149 H 0.31627 0.30876 0.20009 0.0
H1150 H 0.2932 0.26705 0.12799 0.0
H1151 H 0.32117 0.24631 0.12974 0.0
H1152 H 0.35308 0.29129 0.16358 0.0
C1153 C 0.29035 0.33656 0.16252 0.0
C1154 C 0.27087 0.33647 0.15689 0.0
C1155 C 0.26307 0.32035 0.14551 0.0
C1156 C 0.27433 0.30457 0.14023 0.0
C1157 C 0.29338 0.30509 0.14638 0.0
C1158 C 0.30133 0.32069 0.15725 0.0
C1159 C 0.32197 0.31738 0.16302 0.0
C1160 C 0.33462 0.33114 0.14908 0.0
C1161 C 0.32554 0.31872 0.19018 0.0
C1162 C 0.32432 0.29736 0.15402 0.0
C1163 C 0.30771 0.29057 0.14434 0.0
C1164 C 0.3063 0.27225 0.13547 0.0
C1165 C 0.32224 0.26052 0.13671 0.0
C1166 C 0.33937 0.2671 0.14685 0.0
C1167 C 0.34035 0.28586 0.15539 0.0
H1168 H 0.96336 0.27445 0.36002 0.0
H1169 H 0.95066 0.31249 0.4189 0.0
H1170 H 0.98479 0.31687 0.42598 0.0
H1171 H 1.00513 0.2529 0.38591 0.0
H1172 H 0.01722 0.25173 0.35753 0.0
H1173 H 0.99184 0.25049 0.35852 0.0
H1174 H 0.98965 0.2788 0.32924 0.0
H1175 H 0.01499 0.28015 0.32818 0.0
H1176 H 1.00138 0.30059 0.33669 0.0
H1177 H 0.02065 0.31835 0.425 0.0
H1178 H 0.05477 0.31715 0.41556 0.0
H1179 H 0.04328 0.27862 0.35692 0.0
C1180 C 0.96765 0.28373 0.37441 0.0
C1181 C 0.95422 0.29313 0.38886 0.0
C1182 C 0.96061 0.30493 0.40774 0.0
C1183 C 0.97999 0.30757 0.41185 0.0
C1184 C 0.9928 0.29827 0.39697 0.0
C1185 C 0.98685 0.28657 0.37867 0.0
C1186 C 1.00332 0.2788 0.36452 0.0
C1187 C 1.00444 0.2572 0.36677 0.0
C1188 C 1.00227 0.28496 0.3381 0.0
C1189 C 0.0195 0.28825 0.37741 0.0
C1190 C 0.01323 0.29928 0.39624 0.0
C1191 C 0.02571 0.30965 0.41039 0.0
C1192 C 0.04506 0.30883 0.40497 0.0
C1193 C 0.05168 0.29786 0.38545 0.0
C1194 C 0.03866 0.28732 0.37175 0.0
H1195 H 0.66248 0.04737 0.37693 0.0
H1196 H 0.7203 0.06185 0.39452 0.0
H1197 H 0.72822 0.02787 0.39734 0.0
H1198 H 0.659 0.00588 0.41526 0.0
H1199 H 0.64476 0.9932 0.39387 0.0
H1200 H 0.64356 0.01858 0.39526 0.0
H1201 H 0.6518 0.02047 0.35004 0.0
H1202 H 0.65307 0.99514 0.34853 0.0
H1203 H 0.67296 0.00916 0.33918 0.0
H1204 H 0.73006 0.99188 0.3952 0.0
H1205 H 0.72557 0.95762 0.38861 0.0
H1206 H 0.66643 0.96756 0.37279 0.0
C1207 C 0.67681 0.04345 0.38143 0.0
C1208 C 0.69079 0.05729 0.38542 0.0
C1209 C 0.70932 0.05151 0.39162 0.0
C1210 C 0.71395 0.03224 0.39318 0.0
C1211 C 0.69985 0.01897 0.38869 0.0
C1212 C 0.68163 0.0244 0.3831 0.0
C1213 C 0.66915 0.00755 0.37817 0.0
C1214 C 0.65318 0.00623 0.39676 0.0
C1215 C 0.66129 0.00812 0.35246 0.0
C1216 C 0.68328 0.99175 0.38128 0.0
C1217 C 0.70088 0.99852 0.38753 0.0
C1218 C 0.71627 0.98644 0.39055 0.0
C1219 C 0.71358 0.96699 0.38686 0.0
C1220 C 0.69566 0.95985 0.38008 0.0
C1221 C 0.68036 0.9725 0.37763 0.0
H1222 H 0.03981 0.74055 0.36183 0.0
H1223 H 0.05395 0.70029 0.4175 0.0
H1224 H 0.0207 0.70048 0.43115 0.0
H1225 H 1.00547 0.76751 0.39658 0.0
H1226 H 0.99027 0.77129 0.37112 0.0
H1227 H 0.01535 0.7687 0.36684 0.0
H1228 H 0.00941 0.74128 0.337 0.0
H1229 H 0.98434 0.74373 0.34125 0.0
H1230 H 0.99559 0.72127 0.34643 0.0
H1231 H 0.98527 0.70332 0.43647 0.0
H1232 H 0.95102 0.71011 0.43476 0.0
H1233 H 0.96049 0.74879 0.37584 0.0
C1234 C 0.03593 0.73182 0.37695 0.0
C1235 C 0.04943 0.72034 0.38857 0.0
C1236 C 0.04386 0.70932 0.4085 0.0
C1237 C 0.025 0.70927 0.41628 0.0
C1238 C 0.01198 0.7205 0.40409 0.0
C1239 C 0.01727 0.73174 0.38502 0.0
C1240 C 1.00057 0.74227 0.37465 0.0
C1241 C 1.00307 0.76371 0.37748 0.0
C1242 C 0.99729 0.7368 0.34828 0.0
C1243 C 0.98494 0.73497 0.39058 0.0
C1244 C 0.99177 0.72241 0.40744 0.0
C1245 C 0.97981 0.71326 0.42348 0.0
C1246 C 0.96038 0.71709 0.42227 0.0
C1247 C 0.95314 0.73003 0.40522 0.0
C1248 C 0.96566 0.73909 0.3893 0.0
H1249 H 0.31098 0.96404 0.34968 0.0
H1250 H 0.30898 0.95322 0.42615 0.0
H1251 H 0.3119 0.98744 0.43401 0.0
H1252 H 0.34394 1.00385 0.3518 0.0
H1253 H 0.33185 0.01622 0.32811 0.0
H1254 H 0.33171 0.9908 0.32881 0.0
H1255 H 0.29512 0.991 0.32788 0.0
H1256 H 0.29513 0.01637 0.32724 0.0
H1257 H 0.28234 1.0041 0.35037 0.0
H1258 H 0.31214 0.0233 0.43313 0.0
H1259 H 0.30948 0.05727 0.42363 0.0
H1260 H 0.31127 0.04404 0.34773 0.0
C1261 C 0.31125 0.9688 0.3681 0.0
C1262 C 0.3097 0.95591 0.38729 0.0
C1263 C 0.31036 0.96278 0.41115 0.0
C1264 C 0.31196 0.98221 0.41578 0.0
C1265 C 0.31305 0.99454 0.39636 0.0
C1266 C 0.31283 0.98805 0.373 0.0
C1267 C 0.31309 1.00413 0.35523 0.0
C1268 C 0.33123 1.00372 0.3401 0.0
C1269 C 0.29537 1.00388 0.33925 0.0
C1270 C 0.31294 0.02076 0.3722 0.0
C1271 C 0.31315 0.015 0.39586 0.0
C1272 C 0.31222 0.02795 0.41467 0.0
C1273 C 0.31079 0.04724 0.40909 0.0
C1274 C 0.31015 0.05335 0.38492 0.0
C1275 C 0.31157 0.03985 0.36637 0.0
H1276 H 0.04738 0.69907 0.69261 0.0
H1277 H 0.0586 0.72398 0.62312 0.0
H1278 H 0.02421 0.72855 0.61702 0.0
H1279 H 1.00311 0.67567 0.67733 0.0
H1280 H 0.99291 0.68081 0.70621 0.0
H1281 H 0.01804 0.67757 0.70338 0.0
H1282 H 0.02357 0.71037 0.72282 0.0
H1283 H 0.99851 0.71375 0.7256 0.0
H1284 H 0.01256 0.73092 0.70985 0.0
H1285 H 0.98813 0.73247 0.62048 0.0
H1286 H 0.95473 0.73581 0.63351 0.0
H1287 H 0.96867 0.70932 0.70117 0.0
C1288 C 0.04269 0.70544 0.67604 0.0
C1289 C 0.05572 0.71129 0.65842 0.0
C1290 C 0.04888 0.71925 0.6368 0.0
C1291 C 0.02938 0.72195 0.63322 0.0
C1292 C 0.01698 0.71647 0.65139 0.0
C1293 C 0.02347 0.7083 0.67231 0.0
C1294 C 0.00766 0.70468 0.68984 0.0
C1295 C 1.00529 0.68342 0.69445 0.0
C1296 C 0.01077 0.71559 0.7134 0.0
C1297 C 0.99123 0.71255 0.67586 0.0
C1298 C 0.99669 0.71905 0.65356 0.0
C1299 C 0.98374 0.72731 0.63786 0.0
C1300 C 0.96484 0.72914 0.64533 0.0
C1301 C 0.95925 0.723 0.66841 0.0
C1302 C 0.97262 0.7144 0.68358 0.0
H1303 H 0.30499 0.96546 0.71331 0.0
H1304 H 0.3086 0.95277 0.63734 0.0
H1305 H 0.31276 0.98673 0.62869 0.0
H1306 H 0.27813 0.00798 0.70741 0.0
H1307 H 0.29002 0.01968 0.73181 0.0
H1308 H 0.28782 0.99437 0.73178 0.0
H1309 H 0.32415 0.99109 0.73586 0.0
H1310 H 0.32645 0.01639 0.73589 0.0
H1311 H 0.33926 1.00245 0.71427 0.0
H1312 H 0.31593 0.02258 0.62863 0.0
H1313 H 0.3187 0.05671 0.63729 0.0
H1314 H 0.3119 0.04516 0.71318 0.0
C1315 C 0.3065 0.96975 0.69481 0.0
C1316 C 0.3064 0.95639 0.67601 0.0
C1317 C 0.30881 0.96268 0.65209 0.0
C1318 C 0.31107 0.98197 0.64699 0.0
C1319 C 0.31091 0.99475 0.66601 0.0
C1320 C 0.30873 0.98884 0.68944 0.0
C1321 C 0.30899 1.00527 0.70672 0.0
C1322 C 0.29012 0.00692 0.72022 0.0
C1323 C 0.32571 1.0037 0.72421 0.0
C1324 C 0.31163 0.02141 0.68938 0.0
C1325 C 0.3127 0.01514 0.66597 0.0
C1326 C 0.3151 0.02763 0.64691 0.0
C1327 C 0.31654 0.04701 0.65199 0.0
C1328 C 0.3156 0.05368 0.67593 0.0
C1329 C 0.313 0.04059 0.69473 0.0
H1330 H 0.04397 0.26717 0.68469 0.0
H1331 H 0.05643 0.3146 0.63823 0.0
H1332 H 0.02227 0.31866 0.63041 0.0
H1333 H 1.00306 0.24901 0.65188 0.0
H1334 H 0.9908 0.243 0.67912 0.0
H1335 H 0.01622 0.24241 0.67823 0.0
H1336 H 0.01757 0.2653 0.71449 0.0
H1337 H 0.99222 0.26595 0.71551 0.0
H1338 H 1.00536 0.28761 0.71285 0.0
H1339 H 0.98604 0.31903 0.63079 0.0
H1340 H 0.95195 0.31646 0.64081 0.0
H1341 H 0.96433 0.26963 0.68807 0.0
C1342 C 0.03964 0.27839 0.67278 0.0
C1343 C 0.05297 0.29061 0.66219 0.0
C1344 C 0.04655 0.30492 0.6464 0.0
C1345 C 0.02715 0.30735 0.64188 0.0
C1346 C 0.01439 0.29528 0.65316 0.0
C1347 C 0.02047 0.28106 0.66825 0.0
C1348 C 1.00412 0.27085 0.67976 0.0
C1349 C 1.00352 0.25009 0.67176 0.0
C1350 C 1.00487 0.27254 0.70727 0.0
C1351 C 0.98781 0.28189 0.66941 0.0
C1352 C 0.99388 0.29572 0.65375 0.0
C1353 C 0.98117 0.30812 0.64284 0.0
C1354 C 0.96187 0.30654 0.64853 0.0
C1355 C 0.95563 0.2929 0.66525 0.0
C1356 C 0.96878 0.28024 0.67533 0.0
H1357 H 0.66476 0.04621 0.67722 0.0
H1358 H 0.72409 0.0574 0.66482 0.0
H1359 H 0.72958 0.02324 0.65793 0.0
H1360 H 0.6706 1.00429 0.70989 0.0
H1361 H 0.65013 0.99284 0.69739 0.0
H1362 H 0.65088 0.01816 0.69947 0.0
H1363 H 0.64453 0.02079 0.65382 0.0
H1364 H 0.6437 0.99544 0.6516 0.0
H1365 H 0.6598 0.00862 0.63306 0.0
H1366 H 0.72859 0.98716 0.6554 0.0
H1367 H 0.72122 0.95308 0.65676 0.0
H1368 H 0.66234 0.96649 0.67002 0.0
C1369 C 0.67892 0.04152 0.67303 0.0
C1370 C 0.69403 0.05445 0.67171 0.0
C1371 C 0.71229 0.04775 0.66577 0.0
C1372 C 0.71553 0.02838 0.66191 0.0
C1373 C 0.70031 0.01598 0.66379 0.0
C1374 C 0.68234 0.02238 0.66903 0.0
C1375 C 0.66841 0.0063 0.67073 0.0
C1376 C 0.65949 1.00535 0.69586 0.0
C1377 C 0.65322 0.00789 0.65113 0.0
C1378 C 0.68139 0.98974 0.66622 0.0
C1379 C 0.69972 0.99552 0.66209 0.0
C1380 C 0.71423 0.98253 0.65835 0.0
C1381 C 0.70989 0.96317 0.65906 0.0
C1382 C 0.69118 0.95698 0.66356 0.0
C1383 C 0.67681 0.9706 0.66683 0.0
H1384 H 0.54283 0.76424 0.88591 0.0
H1385 H 0.55781 0.82343 0.88061 0.0
H1386 H 0.52404 0.83206 0.88428 0.0
H1387 H 0.50161 0.76671 0.85026 0.0
H1388 H 0.48881 0.74972 0.86791 0.0
H1389 H 0.51416 0.74856 0.86636 0.0
H1390 H 0.5161 0.75024 0.91273 0.0
H1391 H 0.49074 0.7514 0.91444 0.0
H1392 H 0.50486 0.76951 0.92832 0.0
H1393 H 0.48795 0.83379 0.88694 0.0
H1394 H 0.45339 0.8284 0.88786 0.0
H1395 H 0.46314 0.76803 0.89092 0.0
C1396 C 0.53912 0.77903 0.88536 0.0
C1397 C 0.55303 0.79314 0.88281 0.0
C1398 C 0.54744 0.81236 0.88273 0.0
C1399 C 0.52828 0.81739 0.88472 0.0
C1400 C 0.51494 0.80302 0.88689 0.0
C1401 C 0.52019 0.78424 0.88726 0.0
C1402 C 0.50328 0.77137 0.88911 0.0
C1403 C 0.50189 0.75833 0.8671 0.0
C1404 C 0.50378 0.75997 0.91255 0.0
C1405 C 0.48758 0.78579 0.88937 0.0
C1406 C 0.49449 0.804 0.88826 0.0
C1407 C 0.48243 0.81958 0.88793 0.0
C1408 C 0.46284 0.8164 0.88856 0.0
C1409 C 0.45555 0.79779 0.88933 0.0
C1410 C 0.46821 0.7824 0.88997 0.0
H1411 H 0.22165 0.46326 0.84788 0.0
H1412 H 0.18812 0.4536 0.91164 0.0
H1413 H 0.18763 0.48805 0.9196 0.0
H1414 H 0.24955 0.50247 0.87169 0.0
H1415 H 0.24973 0.5146 0.84331 0.0
H1416 H 0.24858 0.48921 0.84411 0.0
H1417 H 0.21813 0.4901 0.81833 0.0
H1418 H 0.21914 0.51545 0.81752 0.0
H1419 H 0.19822 0.50384 0.82843 0.0
H1420 H 0.18866 0.52411 0.91811 0.0
H1421 H 0.19172 0.55793 0.908 0.0
H1422 H 0.22542 0.543 0.84582 0.0
C1423 C 0.21427 0.46836 0.86359 0.0
C1424 C 0.20482 0.45581 0.87908 0.0
C1425 C 0.19555 0.46301 0.89965 0.0
C1426 C 0.19517 0.48253 0.90425 0.0
C1427 C 0.20435 0.49455 0.88825 0.0
C1428 C 0.21389 0.48766 0.86848 0.0
C1429 C 0.22209 0.50339 0.85351 0.0
C1430 C 0.24377 0.50235 0.85315 0.0
C1431 C 0.2139 0.50318 0.82795 0.0
C1432 C 0.21526 0.52031 0.86753 0.0
C1433 C 0.20515 0.51502 0.8876 0.0
C1434 C 0.19677 0.52838 0.9026 0.0
C1435 C 0.19864 0.54759 0.89675 0.0
C1436 C 0.20877 0.55324 0.87603 0.0
C1437 C 0.21738 0.53929 0.86159 0.0
H1438 H 0.46341 0.19417 0.85737 0.0
H1439 H 0.45032 0.22189 0.92482 0.0
H1440 H 0.48441 0.22511 0.93307 0.0
H1441 H 0.50547 0.16932 0.87684 0.0
H1442 H 0.51746 0.17307 0.84875 0.0
H1443 H 0.49209 0.17133 0.84947 0.0
H1444 H 0.4894 0.20383 0.82844 0.0
H1445 H 0.51472 0.20569 0.82769 0.0
H1446 H 0.50087 0.22407 0.84153 0.0
H1447 H 0.52033 0.22677 0.93269 0.0
H1448 H 0.55446 0.2275 0.9231 0.0
H1449 H 0.5432 0.2 0.85517 0.0
C1450 C 0.46756 0.20096 0.8739 0.0
C1451 C 0.45401 0.20784 0.89036 0.0
C1452 C 0.4603 0.21631 0.91197 0.0
C1453 C 0.47968 0.21827 0.9168 0.0
C1454 C 0.49258 0.21167 0.89986 0.0
C1455 C 0.48672 0.20318 0.87885 0.0
C1456 C 0.50322 0.19817 0.86288 0.0
C1457 C 0.50464 0.1767 0.85929 0.0
C1458 C 0.50197 0.20857 0.83871 0.0
C1459 C 0.51934 0.2055 0.87795 0.0
C1460 C 0.51301 0.213 0.89937 0.0
C1461 C 0.52542 0.22084 0.91602 0.0
C1462 C 0.54477 0.22114 0.91047 0.0
C1463 C 0.55142 0.21387 0.88836 0.0
C1464 C 0.53849 0.20584 0.87208 0.0
H1465 H 0.8135 0.4701 0.85665 0.0
H1466 H 0.80077 0.45785 0.93107 0.0
H1467 H 0.80368 0.49181 0.94081 0.0
H1468 H 0.84768 0.50608 0.86742 0.0
H1469 H 0.84037 0.52022 0.84223 0.0
H1470 H 0.83734 0.49501 0.84146 0.0
H1471 H 0.80162 0.49941 0.83297 0.0
H1472 H 0.80453 0.52464 0.83373 0.0
H1473 H 0.78755 0.51349 0.85314 0.0
H1474 H 0.80754 0.52762 0.94191 0.0
H1475 H 0.81333 0.56158 0.93456 0.0
H1476 H 0.8228 0.54961 0.85925 0.0
C1477 C 0.81115 0.47451 0.87498 0.0
C1478 C 0.80682 0.46128 0.89307 0.0
C1479 C 0.80426 0.46768 0.91694 0.0
C1480 C 0.80576 0.48696 0.9226 0.0
C1481 C 0.80988 0.49962 0.9042 0.0
C1482 C 0.8126 0.49359 0.8809 0.0
C1483 C 0.81703 0.50987 0.86435 0.0
C1484 C 0.83678 0.50766 0.85322 0.0
C1485 C 0.80177 0.51197 0.84491 0.0
C1486 C 0.81641 0.52607 0.88196 0.0
C1487 C 0.8122 0.51996 0.90486 0.0
C1488 C 0.81084 0.53254 0.92403 0.0
C1489 C 0.81403 0.55181 0.91967 0.0
C1490 C 0.81861 0.55827 0.89635 0.0
C1491 C 0.81964 0.54514 0.87734 0.0
H1492 H 0.46186 0.20775 0.20048 0.0
H1493 H 0.45059 0.20477 0.12424 0.0
H1494 H 0.48432 0.21148 0.11586 0.0
H1495 H 0.49521 0.24603 0.19764 0.0
H1496 H 0.50975 0.23664 0.22132 0.0
H1497 H 0.48482 0.23176 0.22088 0.0
H1498 H 0.49186 0.19585 0.22208 0.0
H1499 H 0.51681 0.20061 0.22243 0.0
H1500 H 0.50697 0.18557 0.19957 0.0
H1501 H 0.51997 0.21695 0.11638 0.0
H1502 H 0.55362 0.22335 0.12568 0.0
H1503 H 0.54052 0.22347 0.20153 0.0
C1504 C 0.46651 0.20845 0.18202 0.0
C1505 C 0.45373 0.20562 0.16298 0.0
C1506 C 0.46021 0.20701 0.13904 0.0
C1507 C 0.47932 0.2107 0.13415 0.0
C1508 C 0.49162 0.21318 0.15344 0.0
C1509 C 0.48538 0.21232 0.17688 0.0
C1510 C 0.50123 0.21574 0.19447 0.0
C1511 C 0.49753 0.2336 0.20945 0.0
C1512 C 0.5044 0.19841 0.21058 0.0
C1513 C 0.51747 0.21853 0.17731 0.0
C1514 C 0.51176 0.21687 0.15371 0.0
C1515 C 0.52454 0.21841 0.13479 0.0
C1516 C 0.5436 0.22193 0.14021 0.0
C1517 C 0.54956 0.22406 0.16428 0.0
C1518 C 0.53628 0.22224 0.18296 0.0
H1519 H 0.82433 0.54726 0.21981 0.0
H1520 H 0.80682 0.56108 0.14738 0.0
H1521 H 0.80764 0.52722 0.13676 0.0
H1522 H 0.85527 0.50779 0.20457 0.0
H1523 H 0.84833 0.49441 0.23058 0.0
H1524 H 0.84814 0.51983 0.23158 0.0
H1525 H 0.81295 0.51934 0.24436 0.0
H1526 H 0.81302 0.49397 0.24335 0.0
H1527 H 0.79602 0.50706 0.22597 0.0
H1528 H 0.80809 0.4913 0.13516 0.0
H1529 H 0.8079 0.45692 0.14285 0.0
H1530 H 0.82482 0.46723 0.21643 0.0
C1531 C 0.82071 0.54325 0.20167 0.0
C1532 C 0.81548 0.55692 0.18447 0.0
C1533 C 0.8111 0.55096 0.16083 0.0
C1534 C 0.81146 0.53173 0.15466 0.0
C1535 C 0.81633 0.51864 0.17226 0.0
C1536 C 0.82095 0.5242 0.19526 0.0
C1537 C 0.82476 0.50743 0.21129 0.0
C1538 C 0.84535 0.50736 0.22001 0.0
C1539 C 0.81086 0.50692 0.23248 0.0
C1540 C 0.82113 0.49148 0.19389 0.0
C1541 C 0.81647 0.49816 0.17139 0.0
C1542 C 0.81191 0.48594 0.15265 0.0
C1543 C 0.81191 0.46642 0.15716 0.0
C1544 C 0.8163 0.45934 0.18026 0.0
C1545 C 0.8212 0.47214 0.19865 0.0
H1546 H 0.46967 0.78146 0.20059 0.0
H1547 H 0.45465 0.80477 0.13127 0.0
H1548 H 0.4883 0.80438 0.11952 0.0
H1549 H 0.50925 0.80919 0.20941 0.0
H1550 H 0.52288 0.7912 0.22433 0.0
H1551 H 0.49754 0.79064 0.22572 0.0
H1552 H 0.49759 0.75666 0.20845 0.0
H1553 H 0.523 0.75708 0.20708 0.0
H1554 H 0.50947 0.75193 0.18051 0.0
H1555 H 0.52426 0.80446 0.11717 0.0
H1556 H 0.55871 0.80555 0.12484 0.0
H1557 H 0.54949 0.78301 0.19607 0.0
C1558 C 0.47335 0.78635 0.18284 0.0
C1559 C 0.45943 0.79319 0.1669 0.0
C1560 C 0.46496 0.79924 0.14373 0.0
C1561 C 0.48408 0.79912 0.13692 0.0
C1562 C 0.49747 0.79279 0.15342 0.0
C1563 C 0.49227 0.78643 0.17587 0.0
C1564 C 0.50929 0.78175 0.1911 0.0
C1565 C 0.50976 0.79393 0.21397 0.0
C1566 C 0.50987 0.7606 0.19713 0.0
C1567 C 0.52496 0.78705 0.17403 0.0
C1568 C 0.51795 0.7931 0.15222 0.0
C1569 C 0.52988 0.79952 0.13408 0.0
C1570 C 0.54942 0.80004 0.13855 0.0
C1571 C 0.55675 0.79442 0.16107 0.0
C1572 C 0.5443 0.78753 0.17875 0.0
H1573 H 0.19369 0.46695 0.19784 0.0
H1574 H 0.21929 0.45444 0.12907 0.0
H1575 H 0.21767 0.48837 0.11837 0.0
H1576 H 0.16233 0.50501 0.17719 0.0
H1577 H 0.16564 0.51838 0.20436 0.0
H1578 H 0.1669 0.49299 0.20506 0.0
H1579 H 0.20021 0.49493 0.22419 0.0
H1580 H 0.19908 0.52027 0.22348 0.0
H1581 H 0.21846 0.50816 0.20923 0.0
H1582 H 0.21603 0.52445 0.11734 0.0
H1583 H 0.21447 0.55872 0.12599 0.0
H1584 H 0.18975 0.54663 0.19537 0.0
C1585 C 0.19885 0.47129 0.18045 0.0
C1586 C 0.20672 0.45809 0.16433 0.0
C1587 C 0.21307 0.46432 0.1416 0.0
C1588 C 0.21223 0.48355 0.13542 0.0
C1589 C 0.20479 0.49626 0.15207 0.0
C1590 C 0.19806 0.49028 0.17404 0.0
C1591 C 0.19172 0.50666 0.18942 0.0
C1592 C 0.17038 0.5057 0.19428 0.0
C1593 C 0.20305 0.50755 0.21295 0.0
C1594 C 0.19652 0.52292 0.17306 0.0
C1595 C 0.20382 0.51673 0.15146 0.0
C1596 C 0.21009 0.52941 0.13407 0.0
C1597 C 0.2091 0.54885 0.13909 0.0
C1598 C 0.20206 0.55536 0.1614 0.0
C1599 C 0.19538 0.54213 0.17827 0.0
H1600 H 0.11445 0.30284 0.46776 0.0
H1601 H 0.16495 0.33732 0.46561 0.0
H1602 H 0.16466 0.33935 0.50993 0.0
H1603 H 0.09197 0.32525 0.52011 0.0
H1604 H 0.0834 0.30304 0.53141 0.0
H1605 H 0.08629 0.30641 0.49961 0.0
H1606 H 0.10784 0.27686 0.49765 0.0
H1607 H 0.10507 0.27343 0.52939 0.0
H1608 H 0.12836 0.27557 0.5167 0.0
H1609 H 0.15977 0.33587 0.55494 0.0
H1610 H 0.15192 0.32565 0.59619 0.0
H1611 H 0.10559 0.29222 0.56825 0.0
C1612 C 0.12521 0.31121 0.47654 0.0
C1613 C 0.1396 0.32014 0.46318 0.0
C1614 C 0.15371 0.33049 0.47546 0.0
C1615 C 0.15363 0.33175 0.50062 0.0
C1616 C 0.1394 0.32248 0.51327 0.0
C1617 C 0.12549 0.31236 0.50159 0.0
C1618 C 0.11276 0.30228 0.51922 0.0
C1619 C 0.0924 0.30969 0.51748 0.0
C1620 C 0.11357 0.28076 0.51552 0.0
C1621 C 0.12186 0.30802 0.54267 0.0
C1622 C 0.13701 0.31992 0.53896 0.0
C1623 C 0.14786 0.32664 0.55803 0.0
C1624 C 0.14328 0.3208 0.58141 0.0
C1625 C 0.12816 0.30812 0.58546 0.0
C1626 C 0.11723 0.30192 0.56578 0.0
H1627 H 0.71784 0.11396 0.58156 0.0
H1628 H 0.66981 0.14927 0.59963 0.0
H1629 H 0.66312 0.15356 0.55627 0.0
H1630 H 0.73323 0.14026 0.53079 0.0
H1631 H 0.74031 0.11958 0.51423 0.0
H1632 H 0.74087 0.11938 0.54648 0.0
H1633 H 0.71935 0.08981 0.54684 0.0
H1634 H 0.71872 0.08992 0.51458 0.0
H1635 H 0.697 0.0905 0.5314 0.0
H1636 H 0.66216 0.15377 0.50984 0.0
H1637 H 0.66716 0.15003 0.46605 0.0
H1638 H 0.7159 0.1146 0.48026 0.0
C1639 C 0.70586 0.12261 0.57655 0.0
C1640 C 0.69434 0.13127 0.59406 0.0
C1641 C 0.67884 0.14248 0.58655 0.0
C1642 C 0.67494 0.14498 0.56196 0.0
C1643 C 0.68668 0.13619 0.54518 0.0
C1644 C 0.70183 0.12523 0.5523 0.0
C1645 C 0.71247 0.1173 0.53108 0.0
C1646 C 0.73293 0.12457 0.53063 0.0
C1647 C 0.71183 0.0956 0.53097 0.0
C1648 C 0.70101 0.12547 0.51075 0.0
C1649 C 0.68616 0.13633 0.51906 0.0
C1650 C 0.67376 0.14528 0.50323 0.0
C1651 C 0.67669 0.14308 0.47839 0.0
C1652 C 0.69192 0.13203 0.46965 0.0
C1653 C 0.70412 0.12316 0.48621 0.0
H1654 H 0.91472 0.70685 0.49443 0.0
H1655 H 0.85633 0.69465 0.47729 0.0
H1656 H 0.85021 0.68714 0.51992 0.0
H1657 H 0.91965 0.6694 0.54187 0.0
H1658 H 0.93486 0.68419 0.55968 0.0
H1659 H 0.93501 0.68617 0.52746 0.0
H1660 H 0.9279 0.72193 0.5311 0.0
H1661 H 0.92752 0.72005 0.56323 0.0
H1662 H 0.90739 0.7296 0.54761 0.0
H1663 H 0.84929 0.68722 0.56529 0.0
H1664 H 0.85466 0.69055 0.60903 0.0
H1665 H 0.91426 0.69945 0.59616 0.0
C1666 C 0.90079 0.70204 0.49957 0.0
C1667 C 0.886 0.70124 0.48264 0.0
C1668 C 0.8679 0.69509 0.48996 0.0
C1669 C 0.86429 0.69089 0.51415 0.0
C1670 C 0.87907 0.69243 0.5306 0.0
C1671 C 0.89709 0.69737 0.52349 0.0
C1672 C 0.91031 0.69884 0.54475 0.0
C1673 C 0.92588 0.68374 0.54335 0.0
C1674 C 0.91876 0.71879 0.54678 0.0
C1675 C 0.89675 0.69483 0.56508 0.0
C1676 C 0.87876 0.69121 0.55659 0.0
C1677 C 0.86342 0.6894 0.57212 0.0
C1678 C 0.86656 0.69136 0.59687 0.0
C1679 C 0.88492 0.69472 0.60582 0.0
C1680 C 0.9002 0.69619 0.58973 0.0
H1681 H 0.31024 0.8429 0.58398 0.0
H1682 H 0.33248 0.89872 0.59895 0.0
H1683 H 0.33733 0.90385 0.55556 0.0
H1684 H 0.34119 0.83192 0.53278 0.0
H1685 H 0.32264 0.81991 0.51677 0.0
H1686 H 0.32275 0.81999 0.54907 0.0
H1687 H 0.28893 0.83397 0.54924 0.0
H1688 H 0.28873 0.83399 0.51699 0.0
H1689 H 0.28428 0.85556 0.5332 0.0
H1690 H 0.33732 0.90379 0.5101 0.0
H1691 H 0.33233 0.8986 0.46674 0.0
H1692 H 0.31 0.84285 0.48181 0.0
C1693 C 0.31648 0.85608 0.57823 0.0
C1694 C 0.32108 0.87036 0.59495 0.0
C1695 C 0.32893 0.88751 0.58654 0.0
C1696 C 0.33175 0.89055 0.5619 0.0
C1697 C 0.32673 0.87629 0.54588 0.0
C1698 C 0.31933 0.85936 0.55374 0.0
C1699 C 0.31399 0.84675 0.53287 0.0
C1700 C 0.32586 0.82857 0.53288 0.0
C1701 C 0.29272 0.84232 0.5331 0.0
C1702 C 0.31917 0.85937 0.512 0.0
C1703 C 0.32665 0.87628 0.51983 0.0
C1704 C 0.33167 0.8905 0.50379 0.0
C1705 C 0.32878 0.88743 0.47916 0.0
C1706 C 0.32086 0.87028 0.47078 0.0
C1707 C 0.31626 0.85604 0.48753 0.0
H1708 H 0.09697 0.67793 0.46407 0.0
H1709 H 0.15449 0.69509 0.44873 0.0
H1710 H 0.1623 0.69277 0.4917 0.0
H1711 H 0.09206 0.70449 0.51641 0.0
H1712 H 0.07809 0.68743 0.53246 0.0
H1713 H 0.07751 0.68796 0.50023 0.0
H1714 H 0.08721 0.65272 0.49877 0.0
H1715 H 0.08777 0.65206 0.53106 0.0
H1716 H 0.10829 0.6451 0.5141 0.0
H1717 H 0.1632 0.69174 0.53632 0.0
H1718 H 0.15713 0.69219 0.57981 0.0
H1719 H 0.09898 0.67578 0.56693 0.0
C1720 C 0.11133 0.68071 0.46968 0.0
C1721 C 0.12517 0.68654 0.45297 0.0
C1722 C 0.14367 0.69054 0.46115 0.0
C1723 C 0.14827 0.68921 0.48553 0.0
C1724 C 0.13422 0.68385 0.50161 0.0
C1725 C 0.11613 0.67959 0.49406 0.0
C1726 C 0.10333 0.67564 0.5153 0.0
C1727 C 0.08678 0.68972 0.51615 0.0
C1728 C 0.09623 0.65516 0.51477 0.0
C1729 C 0.11693 0.6788 0.53594 0.0
C1730 C 0.13472 0.68333 0.52757 0.0
C1731 C 0.14941 0.68796 0.54309 0.0
C1732 C 0.14579 0.68822 0.5678 0.0
C1733 C 0.12761 0.6839 0.57685 0.0
C1734 C 0.1131 0.67884 0.56063 0.0
H1735 H 0.28934 0.10522 0.48068 0.0
H1736 H 0.33646 0.14148 0.46228 0.0
H1737 H 0.34362 0.14553 0.5055 0.0
H1738 H 0.27374 0.13134 0.53056 0.0
H1739 H 0.26699 0.1109 0.54773 0.0
H1740 H 0.26661 0.10998 0.51551 0.0
H1741 H 0.28879 0.08085 0.51619 0.0
H1742 H 0.28919 0.08163 0.54846 0.0
H1743 H 0.31101 0.08224 0.53186 0.0
H1744 H 0.3445 0.14642 0.55165 0.0
H1745 H 0.33886 0.14423 0.59545 0.0
H1746 H 0.29087 0.10772 0.58209 0.0
C1747 C 0.30132 0.11387 0.48561 0.0
C1748 C 0.31238 0.12299 0.46804 0.0
C1749 C 0.32783 0.13429 0.47541 0.0
C1750 C 0.33199 0.13667 0.49992 0.0
C1751 C 0.32058 0.12763 0.51678 0.0
C1752 C 0.30559 0.11642 0.50983 0.0
C1753 C 0.29498 0.10876 0.53119 0.0
C1754 C 0.27436 0.11567 0.53124 0.0
C1755 C 0.29607 0.08709 0.53197 0.0
C1756 C 0.30615 0.11754 0.55137 0.0
C1757 C 0.32096 0.12829 0.54286 0.0
C1758 C 0.33298 0.13796 0.55845 0.0
C1759 C 0.32968 0.13664 0.58329 0.0
C1760 C 0.31442 0.12583 0.59224 0.0
C1761 C 0.30266 0.11613 0.57592 0.0
H1762 H 0.8896 0.29247 0.47593 0.0
H1763 H 0.84414 0.33345 0.47207 0.0
H1764 H 0.844 0.33579 0.51635 0.0
H1765 H 0.8718 0.26789 0.52592 0.0
H1766 H 0.89462 0.26309 0.53888 0.0
H1767 H 0.89234 0.26606 0.50698 0.0
H1768 H 0.91744 0.29262 0.50793 0.0
H1769 H 0.91985 0.28968 0.53986 0.0
H1770 H 0.91415 0.31253 0.52765 0.0
H1771 H 0.84824 0.33269 0.56154 0.0
H1772 H 0.85547 0.32338 0.60333 0.0
H1773 H 0.89708 0.28339 0.5771 0.0
C1774 C 0.87983 0.3022 0.48434 0.0
C1775 C 0.867 0.31293 0.47048 0.0
C1776 C 0.85417 0.32517 0.48228 0.0
C1777 C 0.85401 0.3266 0.50743 0.0
C1778 C 0.86668 0.31562 0.52056 0.0
C1779 C 0.87931 0.30361 0.50938 0.0
C1780 C 0.89064 0.29242 0.52751 0.0
C1781 C 0.88713 0.27111 0.52465 0.0
C1782 C 0.91177 0.2971 0.52562 0.0
C1783 C 0.8823 0.29984 0.55067 0.0
C1784 C 0.86866 0.31338 0.54636 0.0
C1785 C 0.85893 0.32212 0.56509 0.0
C1786 C 0.86314 0.31676 0.58878 0.0
C1787 C 0.87679 0.30262 0.59353 0.0
C1788 C 0.88652 0.2942 0.57412 0.0
H1789 H 0.72261 0.89861 0.56985 0.0
H1790 H 0.67448 0.86222 0.58279 0.0
H1791 H 0.67076 0.85775 0.53892 0.0
H1792 H 0.70438 0.92166 0.51803 0.0
H1793 H 0.72698 0.92283 0.50329 0.0
H1794 H 0.72576 0.92273 0.53551 0.0
H1795 H 0.74799 0.89365 0.53678 0.0
H1796 H 0.74927 0.89365 0.50455 0.0
H1797 H 0.7418 0.87271 0.52019 0.0
H1798 H 0.67248 0.85779 0.49264 0.0
H1799 H 0.67935 0.86251 0.44943 0.0
H1800 H 0.72635 0.89878 0.46838 0.0
C1801 C 0.71126 0.88966 0.56358 0.0
C1802 C 0.69883 0.88077 0.57984 0.0
C1803 C 0.68419 0.86918 0.57071 0.0
C1804 C 0.68198 0.86656 0.54581 0.0
C1805 C 0.69454 0.87559 0.5303 0.0
C1806 C 0.70889 0.88689 0.53896 0.0
C1807 C 0.7205 0.8952 0.51884 0.0
C1808 C 0.71932 0.91689 0.51893 0.0
C1809 C 0.74111 0.88839 0.52018 0.0
C1810 C 0.71045 0.88691 0.49738 0.0
C1811 C 0.69552 0.8756 0.5042 0.0
C1812 C 0.68417 0.86661 0.48718 0.0
C1813 C 0.68818 0.86935 0.46268 0.0
C1814 C 0.70339 0.881 0.45544 0.0
C1815 C 0.71462 0.88976 0.47318 0.0
H1816 H 0.59746 0.8195 0.07314 0.0
H1817 H 0.65752 0.82612 0.08512 0.0
H1818 H 0.66266 0.82817 0.04126 0.0
H1819 H 0.60225 0.78837 1.02583 0.0
H1820 H 0.58205 0.79673 1.00927 0.0
H1821 H 0.58277 0.79937 0.0413 0.0
H1822 H 0.57745 0.83539 0.03689 0.0
H1823 H 0.57671 0.83285 1.00475 0.0
H1824 H 0.59318 0.84901 1.01834 0.0
H1825 H 0.66135 0.82692 0.99572 0.0
H1826 H 0.6543 0.81908 0.95337 0.0
H1827 H 0.59544 0.8109 0.97183 0.0
C1828 C 0.61162 0.822 0.06656 0.0
C1829 C 0.62706 0.82306 0.08251 0.0
C1830 C 0.64548 0.82553 0.07318 0.0
C1831 C 0.6485 0.82678 0.04832 0.0
C1832 C 0.63297 0.8253 0.03301 0.0
C1833 C 0.6149 0.82282 0.04184 0.0
C1834 C 0.60095 0.81916 1.0218 0.0
C1835 C 0.59146 0.79976 1.02473 0.0
C1836 C 0.5862 0.83505 1.02036 0.0
C1837 C 0.61402 0.8195 1.00034 0.0
C1838 C 0.63236 0.82354 1.00704 0.0
C1839 C 0.64701 0.82391 0.99029 0.0
C1840 C 0.64287 0.81952 0.96625 0.0
C1841 C 0.62433 0.81443 0.95933 0.0
C1842 C 0.60973 0.81484 0.97658 0.0
H1843 H 0.22984 0.61248 0.96687 0.0
H1844 H 0.17716 0.64073 0.94975 0.0
H1845 H 0.17008 0.64353 0.99315 0.0
H1846 H 0.21266 0.58592 1.01746 0.0
H1847 H 0.23437 0.58843 0.03399 0.0
H1848 H 0.23475 0.58832 1.00172 0.0
H1849 H 0.25195 0.6206 1.00184 0.0
H1850 H 0.2516 0.62081 0.0341 0.0
H1851 H 0.24157 0.64026 1.01762 0.0
H1852 H 0.16953 0.64385 0.03932 0.0
H1853 H 0.17551 0.64152 0.08303 0.0
H1854 H 0.22853 0.61297 0.0685 0.0
C1855 C 0.21673 0.61919 0.97212 0.0
C1856 C 0.20405 0.62639 0.95484 0.0
C1857 C 0.18709 0.63508 0.96264 0.0
C1858 C 0.18296 0.63673 0.98726 0.0
C1859 C 0.1959 0.62957 1.00382 0.0
C1860 C 0.21242 0.62093 0.99647 0.0
C1861 C 0.22423 0.61462 1.01758 0.0
C1862 C 0.22663 0.59304 1.01769 0.0
C1863 C 0.24347 0.62468 1.01779 0.0
C1864 C 0.2119 0.62116 0.03808 0.0
C1865 C 0.19558 0.62972 0.02993 0.0
C1866 C 0.18225 0.6371 0.04584 0.0
C1867 C 0.18576 0.63572 0.07063 0.0
C1868 C 0.20247 0.62705 0.07926 0.0
C1869 C 0.21558 0.61965 0.06261 0.0
H1870 H 0.40611 0.17106 0.07782 0.0
H1871 H 0.34787 0.18587 0.09314 0.0
H1872 H 0.34058 0.18455 0.04989 0.0
H1873 H 0.41096 0.19934 1.02826 0.0
H1874 H 0.42571 0.18343 1.01135 0.0
H1875 H 0.4257 0.18243 0.04354 0.0
H1876 H 0.41694 0.14696 0.04198 0.0
H1877 H 0.41703 0.14782 1.00968 0.0
H1878 H 0.39639 0.13957 1.02538 0.0
H1879 H 0.34067 0.18606 1.00494 0.0
H1880 H 0.34799 0.18966 0.96192 0.0
H1881 H 0.40609 0.17356 0.97576 0.0
C1882 C 0.39168 0.17348 0.07219 0.0
C1883 C 0.37754 0.17846 0.08896 0.0
C1884 C 0.35893 0.18191 0.0807 0.0
C1885 C 0.35464 0.18117 0.05615 0.0
C1886 C 0.36906 0.17681 0.04005 0.0
C1887 C 0.38718 0.17284 0.04775 0.0
C1888 C 0.4005 0.17023 1.02673 0.0
C1889 C 0.41666 0.18472 1.02753 0.0
C1890 C 0.40816 0.14993 1.0259 0.0
C1891 C 0.3872 0.17401 1.00601 0.0
C1892 C 0.36908 0.17757 1.01405 0.0
C1893 C 0.35471 0.18293 0.9984 0.0
C1894 C 0.35902 0.185 0.97399 0.0
C1895 C 0.37757 0.18172 0.96541 0.0
C1896 C 0.39169 0.17578 0.98165 0.0
H1897 H 0.81485 0.34592 0.08555 0.0
H1898 H 0.8409 0.40016 0.09992 0.0
H1899 H 0.84465 0.40534 0.05634 0.0
H1900 H 0.84333 0.33362 0.03223 0.0
H1901 H 0.82349 0.32288 1.01733 0.0
H1902 H 0.82494 0.32259 0.04958 0.0
H1903 H 0.79202 0.33845 0.05219 0.0
H1904 H 0.7905 0.33887 1.02002 0.0
H1905 H 0.78797 0.36046 0.03684 0.0
H1906 H 0.84263 0.40586 1.01084 0.0
H1907 H 0.8353 0.40154 0.96783 0.0
H1908 H 0.81061 0.34694 0.98367 0.0
C1909 C 0.82174 0.35872 0.07963 0.0
C1910 C 0.82768 0.37259 0.09625 0.0
C1911 C 0.83635 0.38926 0.0876 0.0
C1912 C 0.83854 0.39233 0.06284 0.0
C1913 C 0.83209 0.37855 0.04694 0.0
C1914 C 0.82399 0.36202 0.05504 0.0
C1915 C 0.81708 0.34998 0.03437 0.0
C1916 C 0.82786 0.33115 0.03332 0.0
C1917 C 0.79562 0.34676 0.03596 0.0
C1918 C 0.82212 0.36251 1.01336 0.0
C1919 C 0.83092 0.37886 1.02091 0.0
C1920 C 0.83597 0.39299 1.00474 0.0
C1921 C 0.83173 0.39042 0.98032 0.0
C1922 C 0.82247 0.37386 0.97226 0.0
C1923 C 0.81789 0.35967 0.9891 0.0
H1924 H 0.60514 0.22752 0.07184 0.0
H1925 H 0.64602 0.18823 0.10132 0.0
H1926 H 0.65361 0.17719 0.06028 0.0
H1927 H 0.58848 0.19726 1.02304 0.0
H1928 H 0.586 0.21683 1.00265 0.0
H1929 H 0.58297 0.22045 0.03439 0.0
H1930 H 0.60859 0.24653 0.0336 0.0
H1931 H 0.61172 0.24296 1.00192 0.0
H1932 H 0.63167 0.2411 1.02184 0.0
H1933 H 0.65876 0.1728 1.0152 0.0
H1934 H 0.65989 0.17448 0.97084 0.0
H1935 H 0.61475 0.21592 0.97188 0.0
C1936 C 0.61552 0.2164 0.06978 0.0
C1937 C 0.625 0.20874 0.08984 0.0
C1938 C 0.63852 0.19426 0.08625 0.0
C1939 C 0.64293 0.18791 0.06299 0.0
C1940 C 0.63355 0.19606 0.04356 0.0
C1941 C 0.61998 0.20986 0.04681 0.0
C1942 C 0.61238 0.21691 1.0231 0.0
C1943 C 0.5912 0.21259 1.02066 0.0
C1944 C 0.61633 0.23813 1.01994 0.0
C1945 C 0.62398 0.20516 1.0059 0.0
C1946 C 0.63615 0.19321 1.01794 0.0
C1947 C 0.64909 0.1819 1.00563 0.0
C1948 C 0.64966 0.18297 0.98044 0.0
C1949 C 0.63728 0.19516 0.96784 0.0
C1950 C 0.62417 0.20618 0.98088 0.0
H1951 H 0.79133 0.61358 0.09135 0.0
H1952 H 0.84038 0.6471 0.11004 0.0
H1953 H 0.84759 0.65111 0.0668 0.0
H1954 H 0.81173 0.58961 0.04055 0.0
H1955 H 0.79 0.59003 1.02375 0.0
H1956 H 0.78938 0.58949 0.05601 0.0
H1957 H 0.76879 0.61977 0.05629 0.0
H1958 H 0.76937 0.62043 1.02405 0.0
H1959 H 0.7771 0.64061 0.04111 0.0
H1960 H 0.84862 0.65184 1.02048 0.0
H1961 H 0.84335 0.64922 0.97661 0.0
H1962 H 0.79345 0.61537 0.98994 0.0
C1963 C 0.80368 0.62169 0.08649 0.0
C1964 C 0.81531 0.63 0.10415 0.0
C1965 C 0.83128 0.64055 0.09684 0.0
C1966 C 0.83547 0.64291 0.07232 0.0
C1967 C 0.82356 0.6346 0.05537 0.0
C1968 C 0.80801 0.62418 0.06227 0.0
C1969 C 0.79712 0.61694 0.04086 0.0
C1970 C 0.79707 0.59523 0.04026 0.0
C1971 C 0.7769 0.62492 0.04057 0.0
C1972 C 0.80884 0.62499 1.0207 0.0
C1973 C 0.82409 0.63509 0.02926 0.0
C1974 C 0.83673 0.64391 1.01366 0.0
C1975 C 0.83363 0.64235 0.98877 0.0
C1976 C 0.81798 0.63211 0.97976 0.0
C1977 C 0.80556 0.62333 0.99611 0.0
H1978 H 0.41805 0.81918 0.98581 0.0
H1979 H 0.35916 0.82995 0.96954 0.0
H1980 H 0.35296 0.83598 1.01252 0.0
H1981 H 0.41139 0.79443 0.03787 0.0
H1982 H 0.43131 0.804 0.05387 0.0
H1983 H 0.43163 0.80306 1.02167 0.0
H1984 H 0.43778 0.83906 1.01979 0.0
H1985 H 0.43767 0.84009 0.05207 0.0
H1986 H 0.42201 0.85503 0.03507 0.0
H1987 H 0.35227 0.83511 0.0579 0.0
H1988 H 0.35792 0.83119 0.10146 0.0
H1989 H 0.41766 0.82353 0.08783 0.0
C1990 C 0.40396 0.82334 0.99121 0.0
C1991 C 0.38909 0.82416 0.97435 0.0
C1992 C 0.37081 0.82947 0.98211 0.0
C1993 C 0.36714 0.83283 1.00651 0.0
C1994 C 0.38201 0.83126 1.02282 0.0
C1995 C 0.40016 0.82707 1.01539 0.0
C1996 C 0.41348 0.82531 0.03653 0.0
C1997 C 0.42247 0.80553 0.03753 0.0
C1998 C 0.42863 0.8408 0.03582 0.0
C1999 C 0.39987 0.82839 0.0571 0.0
C2000 C 0.38177 0.83178 0.04886 0.0
C2001 C 0.36647 0.83302 0.06455 0.0
C2002 C 0.36978 0.83071 0.08922 0.0
C2003 C 0.38825 0.82748 0.09797 0.0
C2004 C 0.40348 0.8266 0.08168 0.0
H2005 H 0.23072 0.39819 0.97348 0.0
H2006 H 0.17781 0.36941 0.95962 0.0
H2007 H 0.17253 0.36645 1.0034 0.0
H2008 H 0.24481 0.37035 1.02333 0.0
H2009 H 0.25526 0.38986 0.03925 0.0
H2010 H 0.25434 0.39011 1.00701 0.0
H2011 H 0.23681 0.42224 1.0081 0.0
H2012 H 0.23771 0.42211 0.04036 0.0
H2013 H 0.21534 0.42446 1.02523 0.0
H2014 H 0.1737 0.36629 0.04954 0.0
H2015 H 0.18116 0.36896 0.09285 0.0
H2016 H 0.23337 0.39771 0.07515 0.0
C2017 C 0.21794 0.39133 0.97954 0.0
C2018 C 0.20466 0.38406 0.96304 0.0
C2019 C 0.18818 0.37514 0.97188 0.0
C2020 C 0.18507 0.37339 0.99673 0.0
C2021 C 0.19857 0.38064 1.01248 0.0
C2022 C 0.21466 0.38946 1.00412 0.0
C2023 C 0.22722 0.39585 1.0245 0.0
C2024 C 0.24655 0.38595 1.02345 0.0
C2025 C 0.22938 0.41745 1.02455 0.0
C2026 C 0.21578 0.3892 0.04574 0.0
C2027 C 0.19926 0.38049 0.03858 0.0
C2028 C 0.18658 0.37312 0.05528 0.0
C2029 C 0.19093 0.3747 0.07985 0.0
C2030 C 0.20785 0.38354 0.08747 0.0
C2031 C 0.22031 0.39087 0.07004 0.0
H2032 H 0.19527 0.32219 0.22274 0.0
H2033 H 0.17446 0.37983 0.22403 0.0
H2034 H 0.16098 0.37443 0.26425 0.0
H2035 H 0.15473 0.30149 0.25282 0.0
H2036 H 0.16886 0.28453 0.26889 0.0
H2037 H 0.17654 0.29301 0.24008 0.0
H2038 H 0.20834 0.30336 0.25891 0.0
H2039 H 0.20064 0.29516 0.28784 0.0
H2040 H 0.20827 0.31924 0.28418 0.0
H2041 H 0.15122 0.36314 0.30559 0.0
H2042 H 0.14267 0.34566 0.34242 0.0
H2043 H 0.16895 0.29525 0.31333 0.0
C2044 C 0.18772 0.33363 0.23136 0.0
C2045 C 0.18594 0.35144 0.22017 0.0
C2046 C 0.17592 0.36602 0.23211 0.0
C2047 C 0.16831 0.36313 0.25507 0.0
C2048 C 0.17068 0.34553 0.26579 0.0
C2049 C 0.17987 0.33094 0.25416 0.0
C2050 C 0.1802 0.31327 0.26942 0.0
C2051 C 0.16944 0.29713 0.25707 0.0
C2052 C 0.20058 0.30743 0.27544 0.0
C2053 C 0.16987 0.32023 0.2915 0.0
C2054 C 0.16465 0.33893 0.2892 0.0
C2055 C 0.15515 0.34845 0.30751 0.0
C2056 C 0.15047 0.33846 0.32844 0.0
C2057 C 0.15511 0.3191 0.33076 0.0
C2058 C 0.16515 0.31003 0.31209 0.0
H2059 H 0.66094 0.19389 0.22121 0.0
H2060 H 0.6016 0.18633 0.23796 0.0
H2061 H 0.61002 0.17587 0.2787 0.0
H2062 H 0.67676 0.15248 0.25271 0.0
H2063 H 0.69845 0.16308 0.26288 0.0
H2064 H 0.68771 0.17093 0.23538 0.0
H2065 H 0.68734 0.20524 0.25149 0.0
H2066 H 0.69793 0.19746 0.27914 0.0
H2067 H 0.67595 0.21029 0.27968 0.0
H2068 H 0.62473 0.16667 0.31794 0.0
H2069 H 0.64496 0.15577 0.35131 0.0
H2070 H 0.69477 0.16752 0.3086 0.0
C2071 C 0.64975 0.19007 0.23349 0.0
C2072 C 0.63061 0.19099 0.22641 0.0
C2073 C 0.61637 0.18567 0.24291 0.0
C2074 C 0.62099 0.17983 0.26618 0.0
C2075 C 0.63995 0.17916 0.27267 0.0
C2076 C 0.65414 0.18386 0.25673 0.0
C2077 C 0.67343 0.18087 0.26789 0.0
C2078 C 0.68475 0.16595 0.25389 0.0
C2079 C 0.6843 0.19958 0.26965 0.0
C2080 C 0.66784 0.17371 0.2925 0.0
C2081 C 0.64846 0.17312 0.29502 0.0
C2082 C 0.63994 0.16703 0.31618 0.0
C2083 C 0.65153 0.16096 0.33509 0.0
C2084 C 0.67141 0.16078 0.33257 0.0
C2085 C 0.6796 0.16747 0.31106 0.0
H2086 H 0.82192 0.67012 0.24007 0.0
H2087 H 0.87234 0.63551 0.23413 0.0
H2088 H 0.88327 0.64735 0.27333 0.0
H2089 H 0.84447 0.71036 0.26954 0.0
H2090 H 0.82439 0.71502 0.28851 0.0
H2091 H 0.82103 0.70454 0.25939 0.0
H2092 H 0.80322 0.67663 0.27899 0.0
H2093 H 0.8067 0.68691 0.30819 0.0
H2094 H 0.81461 0.66317 0.30229 0.0
H2095 H 0.88805 0.66171 0.31412 0.0
H2096 H 0.88713 0.67888 0.35261 0.0
H2097 H 0.83365 0.70424 0.3322 0.0
C2098 C 0.8354 0.66524 0.24682 0.0
C2099 C 0.84629 0.6519 0.2339 0.0
C2100 C 0.86375 0.64574 0.24358 0.0
C2101 C 0.87007 0.65236 0.2659 0.0
C2102 C 0.85883 0.66518 0.27837 0.0
C2103 C 0.84194 0.67169 0.26911 0.0
C2104 C 0.83237 0.68519 0.28641 0.0
C2105 C 0.83046 0.70495 0.2753 0.0
C2106 C 0.81308 0.67751 0.29444 0.0
C2107 C 0.84644 0.68513 0.3069 0.0
C2108 C 0.8616 0.67349 0.30189 0.0
C2109 C 0.87629 0.67094 0.31819 0.0
C2110 C 0.87561 0.68072 0.34007 0.0
C2111 C 0.86033 0.69294 0.34553 0.0
C2112 C 0.84553 0.69503 0.32866 0.0
H2113 H 0.34413 0.82499 0.22358 0.0
H2114 H 0.3986 0.85191 0.23332 0.0
H2115 H 0.38956 0.86104 0.27442 0.0
H2116 H 0.31736 0.86047 0.25605 0.0
H2117 H 0.30116 0.84359 0.26867 0.0
H2118 H 0.31209 0.83896 0.24013 0.0
H2119 H 0.32479 0.80714 0.25639 0.0
H2120 H 0.3141 0.8118 0.2851 0.0
H2121 H 0.33903 0.80693 0.28317 0.0
H2122 H 0.3752 0.86602 0.31519 0.0
H2123 H 0.35488 0.87033 0.35077 0.0
H2124 H 0.3091 0.84176 0.31396 0.0
C2125 C 0.3541 0.83291 0.23432 0.0
C2126 C 0.37209 0.83771 0.22522 0.0
C2127 C 0.3847 0.84816 0.23981 0.0
C2128 C 0.37975 0.85329 0.26327 0.0
C2129 C 0.36204 0.84809 0.27184 0.0
C2130 C 0.34927 0.83843 0.25769 0.0
C2131 C 0.33088 0.8352 0.27097 0.0
C2132 C 0.3144 0.84515 0.2582 0.0
C2133 C 0.32698 0.81401 0.27409 0.0
C2134 C 0.33535 0.84451 0.29479 0.0
C2135 C 0.3535 0.8516 0.29504 0.0
C2136 C 0.36092 0.86061 0.31517 0.0
C2137 C 0.34931 0.86288 0.33536 0.0
C2138 C 0.3304 0.85641 0.33516 0.0
C2139 C 0.32349 0.84689 0.31466 0.0
H2140 H 0.2041 0.66806 0.79624 0.0
H2141 H 0.15968 0.63582 0.83064 0.0
H2142 H 0.14013 0.63874 0.7941 0.0
H2143 H 0.17266 0.70057 0.76443 0.0
H2144 H 0.18775 0.70164 0.73846 0.0
H2145 H 0.1978 0.69751 0.76766 0.0
H2146 H 0.21359 0.66698 0.75171 0.0
H2147 H 0.20334 0.67084 0.72258 0.0
H2148 H 0.19918 0.64895 0.73813 0.0
H2149 H 0.12651 0.64312 0.7527 0.0
H2150 H 0.11788 0.65218 0.71147 0.0
H2151 H 0.17069 0.68273 0.70456 0.0
C2152 C 0.19016 0.66182 0.79622 0.0
C2153 C 0.18342 0.65169 0.8163 0.0
C2154 C 0.16509 0.64376 0.81555 0.0
C2155 C 0.15394 0.64523 0.79481 0.0
C2156 C 0.16123 0.65488 0.77511 0.0
C2157 C 0.17877 0.66336 0.7758 0.0
C2158 C 0.18325 0.67307 0.75228 0.0
C2159 C 0.18549 0.69447 0.75593 0.0
C2160 C 0.20089 0.66444 0.74049 0.0
C2161 C 0.16559 0.66853 0.7381 0.0
C2162 C 0.15315 0.65788 0.75153 0.0
C2163 C 0.13607 0.6516 0.74211 0.0
C2164 C 0.13136 0.65672 0.71856 0.0
C2165 C 0.14359 0.66819 0.70472 0.0
C2166 C 0.16102 0.67396 0.71464 0.0
H2167 H 0.34645 0.14542 0.72906 0.0
H2168 H 0.31588 0.19694 0.71235 0.0
H2169 H 0.32165 0.20855 0.75339 0.0
H2170 H 0.32946 0.14005 0.78806 0.0
H2171 H 0.35141 0.13154 0.80034 0.0
H2172 H 0.34599 0.12761 0.7692 0.0
H2173 H 0.37714 0.144 0.75668 0.0
H2174 H 0.38282 0.14769 0.7878 0.0
H2175 H 0.38213 0.16745 0.7675 0.0
H2176 H 0.32885 0.21366 0.79693 0.0
H2177 H 0.34003 0.21357 0.83875 0.0
H2178 H 0.36626 0.15886 0.82716 0.0
C2179 C 0.34125 0.1593 0.73385 0.0
C2180 C 0.33071 0.17027 0.7174 0.0
C2181 C 0.32405 0.18829 0.72454 0.0
C2182 C 0.32716 0.19498 0.74788 0.0
C2183 C 0.33707 0.18354 0.76384 0.0
C2184 C 0.34427 0.16622 0.75705 0.0
C2185 C 0.35429 0.15664 0.77776 0.0
C2186 C 0.34471 0.13785 0.78421 0.0
C2187 C 0.37534 0.15379 0.77209 0.0
C2188 C 0.35145 0.17122 0.79732 0.0
C2189 C 0.34139 0.18658 0.78892 0.0
C2190 C 0.33685 0.20178 0.80367 0.0
C2191 C 0.34319 0.20153 0.82747 0.0
C2192 C 0.35406 0.18621 0.83632 0.0
C2193 C 0.35795 0.17075 0.82103 0.0
H2194 H 0.82113 0.31374 0.73088 0.0
H2195 H 0.88029 0.32961 0.73179 0.0
H2196 H 0.87595 0.34429 0.77156 0.0
H2197 H 0.80388 0.35655 0.75917 0.0
H2198 H 0.78571 0.34448 0.77574 0.0
H2199 H 0.79359 0.33522 0.74737 0.0
H2200 H 0.80114 0.30321 0.76768 0.0
H2201 H 0.79349 0.31245 0.79616 0.0
H2202 H 0.81685 0.30262 0.7931 0.0
H2203 H 0.86544 0.35602 0.81234 0.0
H2204 H 0.84869 0.36704 0.84871 0.0
H2205 H 0.79623 0.34471 0.82034 0.0
C2206 C 0.83315 0.3204 0.73937 0.0
C2207 C 0.85106 0.32049 0.72817 0.0
C2208 C 0.8664 0.32944 0.73989 0.0
C2209 C 0.86411 0.33772 0.76259 0.0
C2210 C 0.84635 0.33713 0.77328 0.0
C2211 C 0.83107 0.32896 0.7619 0.0
C2212 C 0.81337 0.33065 0.77701 0.0
C2213 C 0.79825 0.34243 0.76405 0.0
C2214 C 0.80577 0.31107 0.78389 0.0
C2215 C 0.8211 0.34097 0.7987 0.0
C2216 C 0.84019 0.3444 0.79635 0.0
C2217 C 0.85046 0.3535 0.8143 0.0
C2218 C 0.84086 0.35961 0.83497 0.0
C2219 C 0.82116 0.35679 0.83736 0.0
C2220 C 0.81128 0.34716 0.81902 0.0
H2221 H 0.68417 0.87017 0.7481 0.0
H2222 H 0.66605 0.83286 0.69079 0.0
H2223 H 0.65242 0.81115 0.72083 0.0
H2224 H 0.69716 0.8344 0.79008 0.0
H2225 H 0.68858 0.8471 0.81589 0.0
H2226 H 0.69667 0.85984 0.78995 0.0
H2227 H 0.66455 0.87723 0.78732 0.0
H2228 H 0.65637 0.8646 0.81332 0.0
H2229 H 0.64306 0.8637 0.78581 0.0
H2230 H 0.64188 0.79301 0.75706 0.0
H2231 H 0.63354 0.7803 0.79667 0.0
H2232 H 0.65764 0.82984 0.83078 0.0
C2233 C 0.67729 0.85746 0.74181 0.0
C2234 C 0.67622 0.85319 0.71703 0.0
C2235 C 0.66701 0.83645 0.70963 0.0
C2236 C 0.65927 0.82402 0.72657 0.0
C2237 C 0.66072 0.8286 0.75084 0.0
C2238 C 0.66936 0.84499 0.75846 0.0
C2239 C 0.66892 0.84664 0.78559 0.0
C2240 C 0.68903 0.84701 0.79598 0.0
C2241 C 0.65754 0.86408 0.79347 0.0
C2242 C 0.65879 0.82853 0.7921 0.0
C2243 C 0.65427 0.81832 0.77175 0.0
C2244 C 0.64525 0.80093 0.77309 0.0
C2245 C 0.64063 0.79381 0.79576 0.0
C2246 C 0.64489 0.80407 0.81694 0.0
C2247 C 0.6541 0.8217 0.81498 0.0
H2248 H 0.84732 0.69485 0.7312 0.0
H2249 H 0.90583 0.67864 0.74173 0.0
H2250 H 0.89849 0.66855 0.78298 0.0
H2251 H 0.83829 0.71201 0.79103 0.0
H2252 H 0.81476 0.70241 0.7925 0.0
H2253 H 0.82464 0.7091 0.76399 0.0
H2254 H 0.81857 0.67546 0.74745 0.0
H2255 H 0.80846 0.66876 0.77579 0.0
H2256 H 0.82779 0.65536 0.76342 0.0
H2257 H 0.88499 0.66092 0.82361 0.0
H2258 H 0.86536 0.65223 0.85859 0.0
H2259 H 0.8154 0.67162 0.82092 0.0
C2260 C 0.85856 0.68917 0.7422 0.0
C2261 C 0.87716 0.68758 0.73326 0.0
C2262 C 0.89145 0.6799 0.74813 0.0
C2263 C 0.88746 0.67427 0.77167 0.0
C2264 C 0.86905 0.67618 0.78005 0.0
C2265 C 0.85475 0.68313 0.76565 0.0
C2266 C 0.83596 0.68272 0.77862 0.0
C2267 C 0.82795 0.70276 0.78171 0.0
C2268 C 0.82187 0.6698 0.76554 0.0
C2269 C 0.84193 0.67442 0.80249 0.0
C2270 C 0.86113 0.67105 0.80311 0.0
C2271 C 0.86992 0.66345 0.82331 0.0
C2272 C 0.8587 0.65868 0.84316 0.0
C2273 C 0.83889 0.66126 0.84246 0.0
C2274 C 0.83052 0.66949 0.82196 0.0
H2275 H 0.34401 0.82799 0.84317 0.0
H2276 H 0.40131 0.84608 0.82794 0.0
H2277 H 0.39178 0.85488 0.787 0.0
H2278 H 0.33378 0.80859 0.78499 0.0
H2279 H 0.30973 0.81691 0.78439 0.0
H2280 H 0.32095 0.81175 0.81262 0.0
H2281 H 0.31356 0.84557 0.82765 0.0
H2282 H 0.30216 0.85077 0.79956 0.0
H2283 H 0.32112 0.86554 0.81012 0.0
H2284 H 0.37639 0.86096 0.74722 0.0
H2285 H 0.35537 0.86689 0.71271 0.0
H2286 H 0.30778 0.84605 0.75391 0.0
C2287 C 0.35453 0.83387 0.83125 0.0
C2288 C 0.37343 0.8363 0.83884 0.0
C2289 C 0.38673 0.84411 0.82267 0.0
C2290 C 0.38149 0.84908 0.79927 0.0
C2291 C 0.36284 0.84631 0.79227 0.0
C2292 C 0.34948 0.83912 0.80784 0.0
C2293 C 0.33025 0.83813 0.79594 0.0
C2294 C 0.32327 0.81762 0.7944 0.0
C2295 C 0.31593 0.85076 0.8091 0.0
C2296 C 0.33492 0.84588 0.7713 0.0
C2297 C 0.35384 0.85031 0.76948 0.0
C2298 C 0.36153 0.8576 0.74844 0.0
C2299 C 0.34948 0.86084 0.72888 0.0
C2300 C 0.32991 0.85697 0.73056 0.0
C2301 C 0.32266 0.84918 0.75202 0.0
H2302 H 0.16747 0.31773 0.71742 0.0
H2303 H 0.11067 0.33833 0.73069 0.0
H2304 H 0.12013 0.34842 0.7712 0.0
H2305 H 0.17694 0.30062 0.7772 0.0
H2306 H 0.20118 0.30831 0.77739 0.0
H2307 H 0.18995 0.30211 0.7495 0.0
H2308 H 0.19822 0.33496 0.73206 0.0
H2309 H 0.20963 0.34117 0.7598 0.0
H2310 H 0.19107 0.35592 0.74802 0.0
H2311 H 0.13544 0.35581 0.81067 0.0
H2312 H 0.15654 0.36315 0.84467 0.0
H2313 H 0.20376 0.3391 0.80551 0.0
C2314 C 0.15705 0.32438 0.72885 0.0
C2315 C 0.1383 0.32719 0.72083 0.0
C2316 C 0.12513 0.33607 0.73632 0.0
C2317 C 0.13032 0.34176 0.75947 0.0
C2318 C 0.14882 0.33865 0.76691 0.0
C2319 C 0.16207 0.33041 0.75199 0.0
C2320 C 0.18122 0.32948 0.76412 0.0
C2321 C 0.1877 0.30891 0.76723 0.0
C2322 C 0.1959 0.34107 0.75017 0.0
C2323 C 0.17664 0.33851 0.78811 0.0
C2324 C 0.15781 0.34346 0.78946 0.0
C2325 C 0.15023 0.35203 0.80982 0.0
C2326 C 0.16231 0.35606 0.82911 0.0
C2327 C 0.18181 0.35172 0.82782 0.0
C2328 C 0.18893 0.34259 0.8071 0.0
H2329 H 0.66207 0.14895 0.73044 0.0
H2330 H 0.70682 0.19067 0.72638 0.0
H2331 H 0.69935 0.20117 0.76739 0.0
H2332 H 0.62928 0.17853 0.76389 0.0
H2333 H 0.62027 0.15919 0.78144 0.0
H2334 H 0.62913 0.15497 0.75165 0.0
H2335 H 0.65226 0.12995 0.76858 0.0
H2336 H 0.64366 0.1343 0.79847 0.0
H2337 H 0.66849 0.13651 0.79204 0.0
H2338 H 0.68811 0.20635 0.80935 0.0
H2339 H 0.67123 0.2086 0.84784 0.0
H2340 H 0.6329 0.16438 0.8247 0.0
C2341 C 0.67018 0.16041 0.73809 0.0
C2342 C 0.68507 0.16895 0.72511 0.0
C2343 C 0.69532 0.18392 0.73583 0.0
C2344 C 0.69126 0.18993 0.75922 0.0
C2345 C 0.6768 0.18097 0.77167 0.0
C2346 C 0.6662 0.16675 0.7614 0.0
C2347 C 0.65111 0.15985 0.77859 0.0
C2348 C 0.63127 0.16335 0.76828 0.0
C2349 C 0.65406 0.13891 0.78478 0.0
C2350 C 0.65494 0.17239 0.80011 0.0
C2351 C 0.66997 0.18431 0.79578 0.0
C2352 C 0.67626 0.19715 0.81291 0.0
C2353 C 0.66661 0.19825 0.83481 0.0
C2354 C 0.65069 0.18668 0.83939 0.0
C2355 C 0.64503 0.17338 0.82185 0.0
H2356 H 0.86501 0.37699 0.24101 0.0
H2357 H 0.81716 0.34147 0.22296 0.0
H2358 H 0.81968 0.32584 0.26235 0.0
H2359 H 0.89146 0.34093 0.27314 0.0
H2360 H 0.90032 0.35732 0.29514 0.0
H2361 H 0.89492 0.36535 0.2653 0.0
H2362 H 0.87261 0.39079 0.28304 0.0
H2363 H 0.87773 0.38264 0.31292 0.0
H2364 H 0.85364 0.38371 0.30259 0.0
H2365 H 0.82649 0.31501 0.30456 0.0
H2366 H 0.83919 0.30747 0.34464 0.0
H2367 H 0.88296 0.34961 0.33495 0.0
C2368 C 0.85518 0.36579 0.2452 0.0
C2369 C 0.84089 0.36049 0.2288 0.0
C2370 C 0.8283 0.34576 0.2351 0.0
C2371 C 0.82953 0.33685 0.25752 0.0
C2372 C 0.84351 0.34272 0.27345 0.0
C2373 C 0.85628 0.35666 0.26746 0.0
C2374 C 0.87008 0.36019 0.28775 0.0
C2375 C 0.8904 0.35567 0.27986 0.0
C2376 C 0.86841 0.38054 0.29713 0.0
C2377 C 0.86305 0.34611 0.30612 0.0
C2378 C 0.84761 0.33628 0.2976 0.0
C2379 C 0.83862 0.32257 0.31138 0.0
C2380 C 0.84589 0.31846 0.33421 0.0
C2381 C 0.86208 0.32793 0.34305 0.0
C2382 C 0.87054 0.34213 0.32883 0.0
H2383 H 0.64417 0.85131 0.2225 0.0
H2384 H 0.67478 0.79966 0.20646 0.0
H2385 H 0.69026 0.80127 0.24594 0.0
H2386 H 0.68252 0.87441 0.25498 0.0
H2387 H 0.66689 0.8852 0.27651 0.0
H2388 H 0.65866 0.88033 0.24658 0.0
H2389 H 0.63088 0.86103 0.26411 0.0
H2390 H 0.63916 0.86563 0.29408 0.0
H2391 H 0.63576 0.84167 0.28413 0.0
H2392 H 0.70136 0.8075 0.28785 0.0
H2393 H 0.70943 0.81949 0.32806 0.0
H2394 H 0.67206 0.86736 0.31705 0.0
C2395 C 0.65431 0.84047 0.22714 0.0
C2396 C 0.65822 0.82536 0.21127 0.0
C2397 C 0.67152 0.81141 0.21819 0.0
C2398 C 0.68037 0.81215 0.24066 0.0
C2399 C 0.67587 0.82696 0.25605 0.0
C2400 C 0.66334 0.84101 0.24952 0.0
C2401 C 0.661 0.85536 0.26952 0.0
C2402 C 0.66767 0.87499 0.26141 0.0
C2403 C 0.64048 0.85594 0.27849 0.0
C2404 C 0.6741 0.84711 0.28833 0.0
C2405 C 0.68245 0.83068 0.2802 0.0
C2406 C 0.69498 0.82041 0.29437 0.0
C2407 C 0.69941 0.82731 0.31726 0.0
C2408 C 0.6914 0.84438 0.32581 0.0
C2409 C 0.6784 0.85424 0.31113 0.0
H2410 H 0.16299 0.68854 0.32628 0.0
H2411 H 0.10751 0.66456 0.31367 0.0
H2412 H 0.11734 0.65506 0.27298 0.0
H2413 H 0.17071 0.70655 0.26705 0.0
H2414 H 0.19542 0.70049 0.26638 0.0
H2415 H 0.18406 0.70562 0.29453 0.0
H2416 H 0.19471 0.67321 0.31128 0.0
H2417 H 0.20629 0.66808 0.28329 0.0
H2418 H 0.18891 0.652 0.29501 0.0
H2419 H 0.13287 0.6491 0.23299 0.0
H2420 H 0.15418 0.64373 0.19855 0.0
H2421 H 0.19987 0.67041 0.23774 0.0
C2422 C 0.15294 0.68122 0.315 0.0
C2423 C 0.13446 0.67734 0.32319 0.0
C2424 C 0.12177 0.66763 0.30789 0.0
C2425 C 0.12718 0.66228 0.28465 0.0
C2426 C 0.14539 0.66656 0.27701 0.0
C2427 C 0.15818 0.67555 0.29184 0.0
C2428 C 0.1771 0.6779 0.27953 0.0
C2429 C 0.18211 0.69889 0.27671 0.0
C2430 C 0.19267 0.66715 0.29308 0.0
C2431 C 0.17293 0.66885 0.25547 0.0
C2432 C 0.1545 0.66262 0.25426 0.0
C2433 C 0.14736 0.65387 0.23377 0.0
C2434 C 0.15954 0.65098 0.21422 0.0
C2435 C 0.17869 0.65663 0.21542 0.0
C2436 C 0.18531 0.66592 0.23625 0.0
H2437 H 0.3407 0.13041 0.30855 0.0
H2438 H 0.32578 0.17824 0.35346 0.0
H2439 H 0.33206 0.19978 0.3196 0.0
H2440 H 0.37836 0.15305 0.2758 0.0
H2441 H 0.37257 0.14166 0.24786 0.0
H2442 H 0.36737 0.13012 0.27583 0.0
H2443 H 0.33233 0.12703 0.2631 0.0
H2444 H 0.33738 0.13875 0.2352 0.0
H2445 H 0.31928 0.14787 0.25475 0.0
H2446 H 0.34019 0.21609 0.28115 0.0
H2447 H 0.35015 0.22624 0.24081 0.0
H2448 H 0.35858 0.16777 0.22018 0.0
C2449 C 0.33894 0.14543 0.31137 0.0
C2450 C 0.33285 0.15265 0.33374 0.0
C2451 C 0.33048 0.17238 0.33654 0.0
C2452 C 0.33397 0.18472 0.31739 0.0
C2453 C 0.33967 0.1771 0.29551 0.0
C2454 C 0.34217 0.15793 0.29239 0.0
C2455 C 0.34819 0.15338 0.26693 0.0
C2456 C 0.36779 0.144 0.26659 0.0
C2457 C 0.33341 0.14103 0.25425 0.0
C2458 C 0.34881 0.17303 0.25624 0.0
C2459 C 0.34386 0.18649 0.27308 0.0
C2460 C 0.34399 0.20567 0.26778 0.0
C2461 C 0.34965 0.21129 0.24481 0.0
C2462 C 0.35497 0.19779 0.22732 0.0
C2463 C 0.35426 0.17838 0.23305 0.0
loop_
_geom_bond_atom_site_label_1
_geom_bond_atom_site_label_2
_geom_bond_distance
_geom_bond_site_symmetry_2
_ccdc_geom_bond_type
Cu0 N1 1.999 . S
Cu0 O6 1.974 . S
Cu0 N11 1.985 . S
Cu0 O20 1.959 . S
N1 Cu0 1.999 . S
N1 C3 1.263 . S
N1 C5 1.389 . S
N2 C3 1.358 . S
N2 C4 1.400 . S
C3 N1 1.263 . S
C3 N2 1.358 . S
C3 H9 0.930 . S
C4 N2 1.400 . S
C4 C5 1.351 . S
C4 H21 0.930 . S
C5 N1 1.389 . S
C5 C4 1.351 . S
C5 H10 0.930 . S
O6 Cu0 1.974 . S
O6 C16 1.282 . S
C7 O8 1.261 . S
C7 O20 1.251 . S
O8 C7 1.261 . S
H9 C3 0.930 . S
H10 C5 0.930 . S
N11 Cu0 1.985 . S
N11 C13 1.335 . S
N11 C14 1.390 . S
N12 C13 1.345 . S
N12 C15 1.336 . S
C13 N11 1.335 . S
C13 N12 1.345 . S
C13 H18 0.930 . S
C14 N11 1.390 . S
C14 C15 1.346 . S
C14 H19 0.930 . S
C15 N12 1.336 . S
C15 C14 1.346 . S
C15 H22 0.929 . S
C16 O6 1.282 . S
C16 O17 1.216 . S
O17 C16 1.216 . S
H18 C13 0.930 . S
H19 C14 0.930 . S
O20 Cu0 1.959 . S
O20 C7 1.251 . S
H21 C4 0.930 . S
H22 C15 0.929 . S
Cu23 N24 1.999 . S
Cu23 O29 1.974 . S
Cu23 N34 1.985 . S
Cu23 O43 1.959 . S
N24 Cu23 1.999 . S
N24 C26 1.263 . S
N24 C28 1.389 . S
N25 C26 1.358 . S
N25 C27 1.400 . S
C26 N24 1.263 . S
C26 N25 1.358 . S
C26 H32 0.930 . S
C27 N25 1.400 . S
C27 C28 1.351 . S
C27 H44 0.930 . S
C28 N24 1.389 . S
C28 C27 1.351 . S
C28 H33 0.930 . S
O29 Cu23 1.974 . S
O29 C39 1.282 . S
C30 O31 1.261 . S
C30 O43 1.251 . S
O31 C30 1.261 . S
H32 C26 0.930 . S
H33 C28 0.930 . S
N34 Cu23 1.985 . S
N34 C36 1.335 . S
N34 C37 1.390 . S
N35 C36 1.345 . S
N35 C38 1.336 . S
C36 N34 1.335 . S
C36 N35 1.345 . S
C36 H41 0.930 . S
C37 N34 1.390 . S
C37 C38 1.346 . S
C37 H42 0.930 . S
C38 N35 1.336 . S
C38 C37 1.346 . S
C38 H45 0.929 . S
C39 O29 1.282 . S
C39 O40 1.216 . S
O40 C39 1.216 . S
H41 C36 0.930 . S
H42 C37 0.930 . S
O43 Cu23 1.959 . S
O43 C30 1.251 . S
H44 C27 0.930 . S
H45 C38 0.929 . S
Cu46 N47 1.999 . S
Cu46 O52 1.974 . S
Cu46 N57 1.985 . S
Cu46 O66 1.959 . S
N47 Cu46 1.999 . S
N47 C49 1.263 . S
N47 C51 1.389 . S
N48 C49 1.358 . S
N48 C50 1.400 . S
C49 N47 1.263 . S
C49 N48 1.358 . S
C49 H55 0.930 . S
C50 N48 1.400 . S
C50 C51 1.351 . S
C50 H67 0.930 . S
C51 N47 1.389 . S
C51 C50 1.351 . S
C51 H56 0.930 . S
O52 Cu46 1.974 . S
O52 C62 1.282 . S
C53 O54 1.261 . S
C53 O66 1.251 . S
O54 C53 1.261 . S
H55 C49 0.930 . S
H56 C51 0.930 . S
N57 Cu46 1.985 . S
N57 C59 1.335 . S
N57 C60 1.390 . S
N58 C59 1.345 . S
N58 C61 1.336 . S
C59 N57 1.335 . S
C59 N58 1.345 . S
C59 H64 0.930 . S
C60 N57 1.390 . S
C60 C61 1.346 . S
C60 H65 0.930 . S
C61 N58 1.336 . S
C61 C60 1.346 . S
C61 H68 0.929 . S
C62 O52 1.282 . S
C62 O63 1.216 . S
O63 C62 1.216 . S
H64 C59 0.930 . S
H65 C60 0.930 . S
O66 Cu46 1.959 . S
O66 C53 1.251 . S
H67 C50 0.930 . S
H68 C61 0.929 . S
Cu69 N70 1.999 . S
Cu69 O75 1.974 . S
Cu69 N80 1.985 . S
Cu69 O89 1.959 . S
N70 Cu69 1.999 . S
N70 C72 1.263 . S
N70 C74 1.389 . S
N71 C72 1.358 . S
N71 C73 1.400 . S
C72 N70 1.263 . S
C72 N71 1.358 . S
C72 H78 0.930 . S
C73 N71 1.400 . S
C73 C74 1.351 . S
C73 H90 0.930 . S
C74 N70 1.389 . S
C74 C73 1.351 . S
C74 H79 0.930 . S
O75 Cu69 1.974 . S
O75 C85 1.282 . S
C76 O77 1.261 . S
C76 O89 1.251 . S
O77 C76 1.261 . S
H78 C72 0.930 . S
H79 C74 0.930 . S
N80 Cu69 1.985 . S
N80 C82 1.335 . S
N80 C83 1.390 . S
N81 C82 1.345 . S
N81 C84 1.336 . S
C82 N80 1.335 . S
C82 N81 1.345 . S
C82 H87 0.930 . S
C83 N80 1.390 . S
C83 C84 1.346 . S
C83 H88 0.930 . S
C84 N81 1.336 . S
C84 C83 1.346 . S
C84 H91 0.929 . S
C85 O75 1.282 . S
C85 O86 1.216 . S
O86 C85 1.216 . S
H87 C82 0.930 . S
H88 C83 0.930 . S
O89 Cu69 1.959 . S
O89 C76 1.251 . S
H90 C73 0.930 . S
H91 C84 0.929 . S
Cu92 N93 1.999 . S
Cu92 O98 1.974 . S
Cu92 N103 1.985 . S
Cu92 O112 1.959 . S
N93 Cu92 1.999 . S
N93 C95 1.263 . S
N93 C97 1.389 . S
N94 C95 1.358 . S
N94 C96 1.400 . S
C95 N93 1.263 . S
C95 N94 1.358 . S
C95 H101 0.930 . S
C96 N94 1.400 . S
C96 C97 1.351 . S
C96 H113 0.930 . S
C97 N93 1.389 . S
C97 C96 1.351 . S
C97 H102 0.930 . S
O98 Cu92 1.974 . S
O98 C108 1.282 . S
C99 O100 1.261 . S
C99 O112 1.251 . S
O100 C99 1.261 . S
H101 C95 0.930 . S
H102 C97 0.930 . S
N103 Cu92 1.985 . S
N103 C105 1.335 . S
N103 C106 1.390 . S
N104 C105 1.345 . S
N104 C107 1.336 . S
C105 N103 1.335 . S
C105 N104 1.345 . S
C105 H110 0.930 . S
C106 N103 1.390 . S
C106 C107 1.346 . S
C106 H111 0.930 . S
C107 N104 1.336 . S
C107 C106 1.346 . S
C107 H114 0.929 . S
C108 O98 1.282 . S
C108 O109 1.216 . S
O109 C108 1.216 . S
H110 C105 0.930 . S
H111 C106 0.930 . S
O112 Cu92 1.959 . S
O112 C99 1.251 . S
H113 C96 0.930 . S
H114 C107 0.929 . S
Cu115 N116 1.999 . S
Cu115 O121 1.974 . S
Cu115 N126 1.985 . S
Cu115 O135 1.959 . S
N116 Cu115 1.999 . S
N116 C118 1.263 . S
N116 C120 1.389 . S
N117 C118 1.358 . S
N117 C119 1.400 . S
C118 N116 1.263 . S
C118 N117 1.358 . S
C118 H124 0.930 . S
C119 N117 1.400 . S
C119 C120 1.351 . S
C119 H136 0.930 . S
C120 N116 1.389 . S
C120 C119 1.351 . S
C120 H125 0.930 . S
O121 Cu115 1.974 . S
O121 C131 1.282 . S
C122 O123 1.261 . S
C122 O135 1.251 . S
O123 C122 1.261 . S
H124 C118 0.930 . S
H125 C120 0.930 . S
N126 Cu115 1.985 . S
N126 C128 1.335 . S
N126 C129 1.390 . S
N127 C128 1.345 . S
N127 C130 1.336 . S
C128 N126 1.335 . S
C128 N127 1.345 . S
C128 H133 0.930 . S
C129 N126 1.390 . S
C129 C130 1.346 . S
C129 H134 0.930 . S
C130 N127 1.336 . S
C130 C129 1.346 . S
C130 H137 0.929 . S
C131 O121 1.282 . S
C131 O132 1.216 . S
O132 C131 1.216 . S
H133 C128 0.930 . S
H134 C129 0.930 . S
O135 Cu115 1.959 . S
O135 C122 1.251 . S
H136 C119 0.930 . S
H137 C130 0.929 . S
Cu138 N139 1.999 . S
Cu138 O144 1.974 . S
Cu138 N149 1.985 . S
Cu138 O158 1.959 . S
N139 Cu138 1.999 . S
N139 C141 1.263 . S
N139 C143 1.389 . S
N140 C141 1.358 . S
N140 C142 1.400 . S
C141 N139 1.263 . S
C141 N140 1.358 . S
C141 H147 0.930 . S
C142 N140 1.400 . S
C142 C143 1.351 . S
C142 H159 0.930 . S
C143 N139 1.389 . S
C143 C142 1.351 . S
C143 H148 0.930 . S
O144 Cu138 1.974 . S
O144 C154 1.282 . S
C145 O146 1.261 . S
C145 O158 1.251 . S
O146 C145 1.261 . S
H147 C141 0.930 . S
H148 C143 0.930 . S
N149 Cu138 1.985 . S
N149 C151 1.335 . S
N149 C152 1.390 . S
N150 C151 1.345 . S
N150 C153 1.336 . S
C151 N149 1.335 . S
C151 N150 1.345 . S
C151 H156 0.930 . S
C152 N149 1.390 . S
C152 C153 1.346 . S
C152 H157 0.930 . S
C153 N150 1.336 . S
C153 C152 1.346 . S
C153 H160 0.929 . S
C154 O144 1.282 . S
C154 O155 1.216 . S
O155 C154 1.216 . S
H156 C151 0.930 . S
H157 C152 0.930 . S
O158 Cu138 1.959 . S
O158 C145 1.251 . S
H159 C142 0.930 . S
H160 C153 0.929 . S
Cu161 N162 1.999 . S
Cu161 O167 1.974 . S
Cu161 N172 1.985 . S
Cu161 O181 1.959 . S
N162 Cu161 1.999 . S
N162 C164 1.263 . S
N162 C166 1.389 . S
N163 C164 1.358 . S
N163 C165 1.400 . S
C164 N162 1.263 . S
C164 N163 1.358 . S
C164 H170 0.930 . S
C165 N163 1.400 . S
C165 C166 1.351 . S
C165 H182 0.930 . S
C166 N162 1.389 . S
C166 C165 1.351 . S
C166 H171 0.930 . S
O167 Cu161 1.974 . S
O167 C177 1.282 . S
C168 O169 1.261 . S
C168 O181 1.251 . S
O169 C168 1.261 . S
H170 C164 0.930 . S
H171 C166 0.930 . S
N172 Cu161 1.985 . S
N172 C174 1.335 . S
N172 C175 1.390 . S
N173 C174 1.345 . S
N173 C176 1.336 . S
C174 N172 1.335 . S
C174 N173 1.345 . S
C174 H179 0.930 . S
C175 N172 1.390 . S
C175 C176 1.346 . S
C175 H180 0.930 . S
C176 N173 1.336 . S
C176 C175 1.346 . S
C176 H183 0.929 . S
C177 O167 1.282 . S
C177 O178 1.216 . S
O178 C177 1.216 . S
H179 C174 0.930 . S
H180 C175 0.930 . S
O181 Cu161 1.959 . S
O181 C168 1.251 . S
H182 C165 0.930 . S
H183 C176 0.929 . S
Cu184 N185 1.999 . S
Cu184 O190 1.974 . S
Cu184 N195 1.985 . S
Cu184 O204 1.959 . S
N185 Cu184 1.999 . S
N185 C187 1.263 . S
N185 C189 1.389 . S
N186 C187 1.358 . S
N186 C188 1.400 . S
C187 N185 1.263 . S
C187 N186 1.358 . S
C187 H193 0.930 . S
C188 N186 1.400 . S
C188 C189 1.351 . S
C188 H205 0.930 . S
C189 N185 1.389 . S
C189 C188 1.351 . S
C189 H194 0.930 . S
O190 Cu184 1.974 . S
O190 C200 1.282 . S
C191 O192 1.261 . S
C191 O204 1.251 . S
O192 C191 1.261 . S
H193 C187 0.930 . S
H194 C189 0.930 . S
N195 Cu184 1.985 . S
N195 C197 1.335 . S
N195 C198 1.390 . S
N196 C197 1.345 . S
N196 C199 1.336 . S
C197 N195 1.335 . S
C197 N196 1.345 . S
C197 H202 0.930 . S
C198 N195 1.390 . S
C198 C199 1.346 . S
C198 H203 0.930 . S
C199 N196 1.336 . S
C199 C198 1.346 . S
C199 H206 0.929 . S
C200 O190 1.282 . S
C200 O201 1.216 . S
O201 C200 1.216 . S
H202 C197 0.930 . S
H203 C198 0.930 . S
O204 Cu184 1.959 . S
O204 C191 1.251 . S
H205 C188 0.930 . S
H206 C199 0.929 . S
Cu207 N208 1.999 . S
Cu207 O213 1.974 . S
Cu207 N218 1.985 . S
Cu207 O227 1.959 . S
N208 Cu207 1.999 . S
N208 C210 1.263 . S
N208 C212 1.389 . S
N209 C210 1.358 . S
N209 C211 1.400 . S
C210 N208 1.263 . S
C210 N209 1.358 . S
C210 H216 0.930 . S
C211 N209 1.400 . S
C211 C212 1.351 . S
C211 H228 0.930 . S
C212 N208 1.389 . S
C212 C211 1.351 . S
C212 H217 0.930 . S
O213 Cu207 1.974 . S
O213 C223 1.282 . S
C214 O215 1.261 . S
C214 O227 1.251 . S
O215 C214 1.261 . S
H216 C210 0.930 . S
H217 C212 0.930 . S
N218 Cu207 1.985 . S
N218 C220 1.335 . S
N218 C221 1.390 . S
N219 C220 1.345 . S
N219 C222 1.336 . S
C220 N218 1.335 . S
C220 N219 1.345 . S
C220 H225 0.930 . S
C221 N218 1.390 . S
C221 C222 1.346 . S
C221 H226 0.930 . S
C222 N219 1.336 . S
C222 C221 1.346 . S
C222 H229 0.929 . S
C223 O213 1.282 . S
C223 O224 1.216 . S
O224 C223 1.216 . S
H225 C220 0.930 . S
H226 C221 0.930 . S
O227 Cu207 1.959 . S
O227 C214 1.251 . S
H228 C211 0.930 . S
H229 C222 0.929 . S
Cu230 N231 1.999 . S
Cu230 O236 1.974 . S
Cu230 N241 1.985 . S
Cu230 O250 1.959 . S
N231 Cu230 1.999 . S
N231 C233 1.263 . S
N231 C235 1.389 . S
N232 C233 1.358 . S
N232 C234 1.400 . S
C233 N231 1.263 . S
C233 N232 1.358 . S
C233 H239 0.930 . S
C234 N232 1.400 . S
C234 C235 1.351 . S
C234 H251 0.930 . S
C235 N231 1.389 . S
C235 C234 1.351 . S
C235 H240 0.930 . S
O236 Cu230 1.974 . S
O236 C246 1.282 . S
C237 O238 1.261 . S
C237 O250 1.251 . S
O238 C237 1.261 . S
H239 C233 0.930 . S
H240 C235 0.930 . S
N241 Cu230 1.985 . S
N241 C243 1.335 . S
N241 C244 1.390 . S
N242 C243 1.345 . S
N242 C245 1.336 . S
C243 N241 1.335 . S
C243 N242 1.345 . S
C243 H248 0.930 . S
C244 N241 1.390 . S
C244 C245 1.346 . S
C244 H249 0.930 . S
C245 N242 1.336 . S
C245 C244 1.346 . S
C245 H252 0.929 . S
C246 O236 1.282 . S
C246 O247 1.216 . S
O247 C246 1.216 . S
H248 C243 0.930 . S
H249 C244 0.930 . S
O250 Cu230 1.959 . S
O250 C237 1.251 . S
H251 C234 0.930 . S
H252 C245 0.929 . S
Cu253 N254 1.999 . S
Cu253 O259 1.974 . S
Cu253 N264 1.985 . S
Cu253 O273 1.959 . S
N254 Cu253 1.999 . S
N254 C256 1.263 . S
N254 C258 1.389 . S
N255 C256 1.358 . S
N255 C257 1.400 . S
C256 N254 1.263 . S
C256 N255 1.358 . S
C256 H262 0.930 . S
C257 N255 1.400 . S
C257 C258 1.351 . S
C257 H274 0.930 . S
C258 N254 1.389 . S
C258 C257 1.351 . S
C258 H263 0.930 . S
O259 Cu253 1.974 . S
O259 C269 1.282 . S
C260 O261 1.261 . S
C260 O273 1.251 . S
O261 C260 1.261 . S
H262 C256 0.930 . S
H263 C258 0.930 . S
N264 Cu253 1.985 . S
N264 C266 1.335 . S
N264 C267 1.390 . S
N265 C266 1.345 . S
N265 C268 1.336 . S
C266 N264 1.335 . S
C266 N265 1.345 . S
C266 H271 0.930 . S
C267 N264 1.390 . S
C267 C268 1.346 . S
C267 H272 0.930 . S
C268 N265 1.336 . S
C268 C267 1.346 . S
C268 H275 0.929 . S
C269 O259 1.282 . S
C269 O270 1.216 . S
O270 C269 1.216 . S
H271 C266 0.930 . S
H272 C267 0.930 . S
O273 Cu253 1.959 . S
O273 C260 1.251 . S
H274 C257 0.930 . S
H275 C268 0.929 . S
Cu276 N277 1.999 . S
Cu276 O282 1.974 . S
Cu276 N287 1.985 . S
Cu276 O296 1.959 . S
N277 Cu276 1.999 . S
N277 C279 1.263 . S
N277 C281 1.389 . S
N278 C279 1.358 . S
N278 C280 1.400 . S
C279 N277 1.263 . S
C279 N278 1.358 . S
C279 H285 0.930 . S
C280 N278 1.400 . S
C280 C281 1.351 . S
C280 H297 0.930 . S
C281 N277 1.389 . S
C281 C280 1.351 . S
C281 H286 0.930 . S
O282 Cu276 1.974 . S
O282 C292 1.282 . S
C283 O284 1.261 . S
C283 O296 1.251 . S
O284 C283 1.261 . S
H285 C279 0.930 . S
H286 C281 0.930 . S
N287 Cu276 1.985 . S
N287 C289 1.335 . S
N287 C290 1.390 . S
N288 C289 1.345 . S
N288 C291 1.336 . S
C289 N287 1.335 . S
C289 N288 1.345 . S
C289 H294 0.930 . S
C290 N287 1.390 . S
C290 C291 1.346 . S
C290 H295 0.930 . S
C291 N288 1.336 . S
C291 C290 1.346 . S
C291 H298 0.929 . S
C292 O282 1.282 . S
C292 O293 1.216 . S
O293 C292 1.216 . S
H294 C289 0.930 . S
H295 C290 0.930 . S
O296 Cu276 1.959 . S
O296 C283 1.251 . S
H297 C280 0.930 . S
H298 C291 0.929 . S
Cu299 N300 1.999 . S
Cu299 O305 1.974 . S
Cu299 N310 1.985 . S
Cu299 O319 1.959 . S
N300 Cu299 1.999 . S
N300 C302 1.263 . S
N300 C304 1.389 . S
N301 C302 1.358 . S
N301 C303 1.400 . S
C302 N300 1.263 . S
C302 N301 1.358 . S
C302 H308 0.930 . S
C303 N301 1.400 . S
C303 C304 1.351 . S
C303 H320 0.930 . S
C304 N300 1.389 . S
C304 C303 1.351 . S
C304 H309 0.930 . S
O305 Cu299 1.974 . S
O305 C315 1.282 . S
C306 O307 1.261 . S
C306 O319 1.251 . S
O307 C306 1.261 . S
H308 C302 0.930 . S
H309 C304 0.930 . S
N310 Cu299 1.985 . S
N310 C312 1.335 . S
N310 C313 1.390 . S
N311 C312 1.345 . S
N311 C314 1.336 . S
C312 N310 1.335 . S
C312 N311 1.345 . S
C312 H317 0.930 . S
C313 N310 1.390 . S
C313 C314 1.346 . S
C313 H318 0.930 . S
C314 N311 1.336 . S
C314 C313 1.346 . S
C314 H321 0.929 . S
C315 O305 1.282 . S
C315 O316 1.216 . S
O316 C315 1.216 . S
H317 C312 0.930 . S
H318 C313 0.930 . S
O319 Cu299 1.959 . S
O319 C306 1.251 . S
H320 C303 0.930 . S
H321 C314 0.929 . S
Cu322 N323 1.999 . S
Cu322 O328 1.974 . S
Cu322 N333 1.985 . S
Cu322 O342 1.959 . S
N323 Cu322 1.999 . S
N323 C325 1.263 . S
N323 C327 1.389 . S
N324 C325 1.358 . S
N324 C326 1.400 . S
C325 N323 1.263 . S
C325 N324 1.358 . S
C325 H331 0.930 . S
C326 N324 1.400 . S
C326 C327 1.351 . S
C326 H343 0.930 . S
C327 N323 1.389 . S
C327 C326 1.351 . S
C327 H332 0.930 . S
O328 Cu322 1.974 . S
O328 C338 1.282 . S
C329 O330 1.261 . S
C329 O342 1.251 . S
O330 C329 1.261 . S
H331 C325 0.930 . S
H332 C327 0.930 . S
N333 Cu322 1.985 . S
N333 C335 1.335 . S
N333 C336 1.390 . S
N334 C335 1.345 . S
N334 C337 1.336 . S
C335 N333 1.335 . S
C335 N334 1.345 . S
C335 H340 0.930 . S
C336 N333 1.390 . S
C336 C337 1.346 . S
C336 H341 0.930 . S
C337 N334 1.336 . S
C337 C336 1.346 . S
C337 H344 0.929 . S
C338 O328 1.282 . S
C338 O339 1.216 . S
O339 C338 1.216 . S
H340 C335 0.930 . S
H341 C336 0.930 . S
O342 Cu322 1.959 . S
O342 C329 1.251 . S
H343 C326 0.930 . S
H344 C337 0.929 . S
Cu345 N346 1.999 . S
Cu345 O351 1.974 . S
Cu345 N356 1.985 . S
Cu345 O365 1.959 . S
N346 Cu345 1.999 . S
N346 C348 1.263 . S
N346 C350 1.389 . S
N347 C348 1.358 . S
N347 C349 1.400 . S
C348 N346 1.263 . S
C348 N347 1.358 . S
C348 H354 0.930 . S
C349 N347 1.400 . S
C349 C350 1.351 . S
C349 H366 0.930 . S
C350 N346 1.389 . S
C350 C349 1.351 . S
C350 H355 0.930 . S
O351 Cu345 1.974 . S
O351 C361 1.282 . S
C352 O353 1.261 . S
C352 O365 1.251 . S
O353 C352 1.261 . S
H354 C348 0.930 . S
H355 C350 0.930 . S
N356 Cu345 1.985 . S
N356 C358 1.335 . S
N356 C359 1.390 . S
N357 C358 1.345 . S
N357 C360 1.336 . S
C358 N356 1.335 . S
C358 N357 1.345 . S
C358 H363 0.930 . S
C359 N356 1.390 . S
C359 C360 1.346 . S
C359 H364 0.930 . S
C360 N357 1.336 . S
C360 C359 1.346 . S
C360 H367 0.929 . S
C361 O351 1.282 . S
C361 O362 1.216 . S
O362 C361 1.216 . S
H363 C358 0.930 . S
H364 C359 0.930 . S
O365 Cu345 1.959 . S
O365 C352 1.251 . S
H366 C349 0.930 . S
H367 C360 0.929 . S
Cu368 N369 1.999 . S
Cu368 O374 1.974 . S
Cu368 N379 1.985 . S
Cu368 O388 1.959 . S
N369 Cu368 1.999 . S
N369 C371 1.263 . S
N369 C373 1.389 . S
N370 C371 1.358 . S
N370 C372 1.400 . S
C371 N369 1.263 . S
C371 N370 1.358 . S
C371 H377 0.930 . S
C372 N370 1.400 . S
C372 C373 1.351 . S
C372 H389 0.930 . S
C373 N369 1.389 . S
C373 C372 1.351 . S
C373 H378 0.930 . S
O374 Cu368 1.974 . S
O374 C384 1.282 . S
C375 O376 1.261 . S
C375 O388 1.251 . S
O376 C375 1.261 . S
H377 C371 0.930 . S
H378 C373 0.930 . S
N379 Cu368 1.985 . S
N379 C381 1.335 . S
N379 C382 1.390 . S
N380 C381 1.345 . S
N380 C383 1.336 . S
C381 N379 1.335 . S
C381 N380 1.345 . S
C381 H386 0.930 . S
C382 N379 1.390 . S
C382 C383 1.346 . S
C382 H387 0.930 . S
C383 N380 1.336 . S
C383 C382 1.346 . S
C383 H390 0.929 . S
C384 O374 1.282 . S
C384 O385 1.216 . S
O385 C384 1.216 . S
H386 C381 0.930 . S
H387 C382 0.930 . S
O388 Cu368 1.959 . S
O388 C375 1.251 . S
H389 C372 0.930 . S
H390 C383 0.929 . S
Cu391 N392 1.999 . S
Cu391 O397 1.974 . S
Cu391 N402 1.985 . S
Cu391 O411 1.959 . S
N392 Cu391 1.999 . S
N392 C394 1.263 . S
N392 C396 1.389 . S
N393 C394 1.358 . S
N393 C395 1.400 . S
C394 N392 1.263 . S
C394 N393 1.358 . S
C394 H400 0.930 . S
C395 N393 1.400 . S
C395 C396 1.351 . S
C395 H412 0.930 . S
C396 N392 1.389 . S
C396 C395 1.351 . S
C396 H401 0.930 . S
O397 Cu391 1.974 . S
O397 C407 1.282 . S
C398 O399 1.261 . S
C398 O411 1.251 . S
O399 C398 1.261 . S
H400 C394 0.930 . S
H401 C396 0.930 . S
N402 Cu391 1.985 . S
N402 C404 1.335 . S
N402 C405 1.390 . S
N403 C404 1.345 . S
N403 C406 1.336 . S
C404 N402 1.335 . S
C404 N403 1.345 . S
C404 H409 0.930 . S
C405 N402 1.390 . S
C405 C406 1.346 . S
C405 H410 0.930 . S
C406 N403 1.336 . S
C406 C405 1.346 . S
C406 H413 0.929 . S
C407 O397 1.282 . S
C407 O408 1.216 . S
O408 C407 1.216 . S
H409 C404 0.930 . S
H410 C405 0.930 . S
O411 Cu391 1.959 . S
O411 C398 1.251 . S
H412 C395 0.930 . S
H413 C406 0.929 . S
Cu414 N415 1.999 . S
Cu414 O420 1.974 . S
Cu414 N425 1.985 . S
Cu414 O434 1.959 . S
N415 Cu414 1.999 . S
N415 C417 1.263 . S
N415 C419 1.389 . S
N416 C417 1.358 . S
N416 C418 1.400 . S
C417 N415 1.263 . S
C417 N416 1.358 . S
C417 H423 0.930 . S
C418 N416 1.400 . S
C418 C419 1.351 . S
C418 H435 0.930 . S
C419 N415 1.389 . S
C419 C418 1.351 . S
C419 H424 0.930 . S
O420 Cu414 1.974 . S
O420 C430 1.282 . S
C421 O422 1.261 . S
C421 O434 1.251 . S
O422 C421 1.261 . S
H423 C417 0.930 . S
H424 C419 0.930 . S
N425 Cu414 1.985 . S
N425 C427 1.335 . S
N425 C428 1.390 . S
N426 C427 1.345 . S
N426 C429 1.336 . S
C427 N425 1.335 . S
C427 N426 1.345 . S
C427 H432 0.930 . S
C428 N425 1.390 . S
C428 C429 1.346 . S
C428 H433 0.930 . S
C429 N426 1.336 . S
C429 C428 1.346 . S
C429 H436 0.929 . S
C430 O420 1.282 . S
C430 O431 1.216 . S
O431 C430 1.216 . S
H432 C427 0.930 . S
H433 C428 0.930 . S
O434 Cu414 1.959 . S
O434 C421 1.251 . S
H435 C418 0.930 . S
H436 C429 0.929 . S
Cu437 N438 1.999 . S
Cu437 O443 1.974 . S
Cu437 N448 1.985 . S
Cu437 O457 1.959 . S
N438 Cu437 1.999 . S
N438 C440 1.263 . S
N438 C442 1.389 . S
N439 C440 1.358 . S
N439 C441 1.400 . S
C440 N438 1.263 . S
C440 N439 1.358 . S
C440 H446 0.930 . S
C441 N439 1.400 . S
C441 C442 1.351 . S
C441 H458 0.930 . S
C442 N438 1.389 . S
C442 C441 1.351 . S
C442 H447 0.930 . S
O443 Cu437 1.974 . S
O443 C453 1.282 . S
C444 O445 1.261 . S
C444 O457 1.251 . S
O445 C444 1.261 . S
H446 C440 0.930 . S
H447 C442 0.930 . S
N448 Cu437 1.985 . S
N448 C450 1.335 . S
N448 C451 1.390 . S
N449 C450 1.345 . S
N449 C452 1.336 . S
C450 N448 1.335 . S
C450 N449 1.345 . S
C450 H455 0.930 . S
C451 N448 1.390 . S
C451 C452 1.346 . S
C451 H456 0.930 . S
C452 N449 1.336 . S
C452 C451 1.346 . S
C452 H459 0.929 . S
C453 O443 1.282 . S
C453 O454 1.216 . S
O454 C453 1.216 . S
H455 C450 0.930 . S
H456 C451 0.930 . S
O457 Cu437 1.959 . S
O457 C444 1.251 . S
H458 C441 0.930 . S
H459 C452 0.929 . S
Cu460 N461 1.999 . S
Cu460 O466 1.974 . S
Cu460 N471 1.985 . S
Cu460 O480 1.959 . S
N461 Cu460 1.999 . S
N461 C463 1.263 . S
N461 C465 1.389 . S
N462 C463 1.358 . S
N462 C464 1.400 . S
C463 N461 1.263 . S
C463 N462 1.358 . S
C463 H469 0.930 . S
C464 N462 1.400 . S
C464 C465 1.351 . S
C464 H481 0.930 . S
C465 N461 1.389 . S
C465 C464 1.351 . S
C465 H470 0.930 . S
O466 Cu460 1.974 . S
O466 C476 1.282 . S
C467 O468 1.261 . S
C467 O480 1.251 . S
O468 C467 1.261 . S
H469 C463 0.930 . S
H470 C465 0.930 . S
N471 Cu460 1.985 . S
N471 C473 1.335 . S
N471 C474 1.390 . S
N472 C473 1.345 . S
N472 C475 1.336 . S
C473 N471 1.335 . S
C473 N472 1.345 . S
C473 H478 0.930 . S
C474 N471 1.390 . S
C474 C475 1.346 . S
C474 H479 0.930 . S
C475 N472 1.336 . S
C475 C474 1.346 . S
C475 H482 0.929 . S
C476 O466 1.282 . S
C476 O477 1.216 . S
O477 C476 1.216 . S
H478 C473 0.930 . S
H479 C474 0.930 . S
O480 Cu460 1.959 . S
O480 C467 1.251 . S
H481 C464 0.930 . S
H482 C475 0.929 . S
Cu483 N484 1.999 . S
Cu483 O489 1.974 . S
Cu483 N494 1.985 . S
Cu483 O503 1.959 . S
N484 Cu483 1.999 . S
N484 C486 1.263 . S
N484 C488 1.389 . S
N485 C486 1.358 . S
N485 C487 1.400 . S
C486 N484 1.263 . S
C486 N485 1.358 . S
C486 H492 0.930 . S
C487 N485 1.400 . S
C487 C488 1.351 . S
C487 H504 0.930 . S
C488 N484 1.389 . S
C488 C487 1.351 . S
C488 H493 0.930 . S
O489 Cu483 1.974 . S
O489 C499 1.282 . S
C490 O491 1.261 . S
C490 O503 1.251 . S
O491 C490 1.261 . S
H492 C486 0.930 . S
H493 C488 0.930 . S
N494 Cu483 1.985 . S
N494 C496 1.335 . S
N494 C497 1.390 . S
N495 C496 1.345 . S
N495 C498 1.336 . S
C496 N494 1.335 . S
C496 N495 1.345 . S
C496 H501 0.930 . S
C497 N494 1.390 . S
C497 C498 1.346 . S
C497 H502 0.930 . S
C498 N495 1.336 . S
C498 C497 1.346 . S
C498 H505 0.929 . S
C499 O489 1.282 . S
C499 O500 1.216 . S
O500 C499 1.216 . S
H501 C496 0.930 . S
H502 C497 0.930 . S
O503 Cu483 1.959 . S
O503 C490 1.251 . S
H504 C487 0.930 . S
H505 C498 0.929 . S
Cu506 N507 1.999 . S
Cu506 O512 1.974 . S
Cu506 N517 1.985 . S
Cu506 O526 1.959 . S
N507 Cu506 1.999 . S
N507 C509 1.263 . S
N507 C511 1.389 . S
N508 C509 1.358 . S
N508 C510 1.400 . S
C509 N507 1.263 . S
C509 N508 1.358 . S
C509 H515 0.930 . S
C510 N508 1.400 . S
C510 C511 1.351 . S
C510 H527 0.930 . S
C511 N507 1.389 . S
C511 C510 1.351 . S
C511 H516 0.930 . S
O512 Cu506 1.974 . S
O512 C522 1.282 . S
C513 O514 1.261 . S
C513 O526 1.251 . S
O514 C513 1.261 . S
H515 C509 0.930 . S
H516 C511 0.930 . S
N517 Cu506 1.985 . S
N517 C519 1.335 . S
N517 C520 1.390 . S
N518 C519 1.345 . S
N518 C521 1.336 . S
C519 N517 1.335 . S
C519 N518 1.345 . S
C519 H524 0.930 . S
C520 N517 1.390 . S
C520 C521 1.346 . S
C520 H525 0.930 . S
C521 N518 1.336 . S
C521 C520 1.346 . S
C521 H528 0.929 . S
C522 O512 1.282 . S
C522 O523 1.216 . S
O523 C522 1.216 . S
H524 C519 0.930 . S
H525 C520 0.930 . S
O526 Cu506 1.959 . S
O526 C513 1.251 . S
H527 C510 0.930 . S
H528 C521 0.929 . S
Cu529 N530 1.999 . S
Cu529 O535 1.974 . S
Cu529 N540 1.985 . S
Cu529 O549 1.959 . S
N530 Cu529 1.999 . S
N530 C532 1.263 . S
N530 C534 1.389 . S
N531 C532 1.358 . S
N531 C533 1.400 . S
C532 N530 1.263 . S
C532 N531 1.358 . S
C532 H538 0.930 . S
C533 N531 1.400 . S
C533 C534 1.351 . S
C533 H550 0.930 . S
C534 N530 1.389 . S
C534 C533 1.351 . S
C534 H539 0.930 . S
O535 Cu529 1.974 . S
O535 C545 1.282 . S
C536 O537 1.261 . S
C536 O549 1.251 . S
O537 C536 1.261 . S
H538 C532 0.930 . S
H539 C534 0.930 . S
N540 Cu529 1.985 . S
N540 C542 1.335 . S
N540 C543 1.390 . S
N541 C542 1.345 . S
N541 C544 1.336 . S
C542 N540 1.335 . S
C542 N541 1.345 . S
C542 H547 0.930 . S
C543 N540 1.390 . S
C543 C544 1.346 . S
C543 H548 0.930 . S
C544 N541 1.336 . S
C544 C543 1.346 . S
C544 H551 0.929 . S
C545 O535 1.282 . S
C545 O546 1.216 . S
O546 C545 1.216 . S
H547 C542 0.930 . S
H548 C543 0.930 . S
O549 Cu529 1.959 . S
O549 C536 1.251 . S
H550 C533 0.930 . S
H551 C544 0.929 . S
Cu552 N553 1.999 . S
Cu552 O558 1.974 . S
Cu552 N563 1.985 . S
Cu552 O572 1.959 . S
N553 Cu552 1.999 . S
N553 C555 1.263 . S
N553 C557 1.389 . S
N554 C555 1.358 . S
N554 C556 1.400 . S
C555 N553 1.263 . S
C555 N554 1.358 . S
C555 H561 0.930 . S
C556 N554 1.400 . S
C556 C557 1.351 . S
C556 H573 0.930 . S
C557 N553 1.389 . S
C557 C556 1.351 . S
C557 H562 0.930 . S
O558 Cu552 1.974 . S
O558 C568 1.282 . S
C559 O560 1.261 . S
C559 O572 1.251 . S
O560 C559 1.261 . S
H561 C555 0.930 . S
H562 C557 0.930 . S
N563 Cu552 1.985 . S
N563 C565 1.335 . S
N563 C566 1.390 . S
N564 C565 1.345 . S
N564 C567 1.336 . S
C565 N563 1.335 . S
C565 N564 1.345 . S
C565 H570 0.930 . S
C566 N563 1.390 . S
C566 C567 1.346 . S
C566 H571 0.930 . S
C567 N564 1.336 . S
C567 C566 1.346 . S
C567 H574 0.929 . S
C568 O558 1.282 . S
C568 O569 1.216 . S
O569 C568 1.216 . S
H570 C565 0.930 . S
H571 C566 0.930 . S
O572 Cu552 1.959 . S
O572 C559 1.251 . S
H573 C556 0.930 . S
H574 C567 0.929 . S
Cu575 N576 1.999 . S
Cu575 O581 1.974 . S
Cu575 N586 1.985 . S
Cu575 O595 1.959 . S
N576 Cu575 1.999 . S
N576 C578 1.263 . S
N576 C580 1.389 . S
N577 C578 1.358 . S
N577 C579 1.400 . S
C578 N576 1.263 . S
C578 N577 1.358 . S
C578 H584 0.930 . S
C579 N577 1.400 . S
C579 C580 1.351 . S
C579 H596 0.930 . S
C580 N576 1.389 . S
C580 C579 1.351 . S
C580 H585 0.930 . S
O581 Cu575 1.974 . S
O581 C591 1.282 . S
C582 O583 1.261 . S
C582 O595 1.251 . S
O583 C582 1.261 . S
H584 C578 0.930 . S
H585 C580 0.930 . S
N586 Cu575 1.985 . S
N586 C588 1.335 . S
N586 C589 1.390 . S
N587 C588 1.345 . S
N587 C590 1.336 . S
C588 N586 1.335 . S
C588 N587 1.345 . S
C588 H593 0.930 . S
C589 N586 1.390 . S
C589 C590 1.346 . S
C589 H594 0.930 . S
C590 N587 1.336 . S
C590 C589 1.346 . S
C590 H597 0.929 . S
C591 O581 1.282 . S
C591 O592 1.216 . S
O592 C591 1.216 . S
H593 C588 0.930 . S
H594 C589 0.930 . S
O595 Cu575 1.959 . S
O595 C582 1.251 . S
H596 C579 0.930 . S
H597 C590 0.929 . S
Cu598 N599 1.999 . S
Cu598 O604 1.974 . S
Cu598 N609 1.985 . S
Cu598 O618 1.959 . S
N599 Cu598 1.999 . S
N599 C601 1.263 . S
N599 C603 1.389 . S
N600 C601 1.358 . S
N600 C602 1.400 . S
C601 N599 1.263 . S
C601 N600 1.358 . S
C601 H607 0.930 . S
C602 N600 1.400 . S
C602 C603 1.351 . S
C602 H619 0.930 . S
C603 N599 1.389 . S
C603 C602 1.351 . S
C603 H608 0.930 . S
O604 Cu598 1.974 . S
O604 C614 1.282 . S
C605 O606 1.261 . S
C605 O618 1.251 . S
O606 C605 1.261 . S
H607 C601 0.930 . S
H608 C603 0.930 . S
N609 Cu598 1.985 . S
N609 C611 1.335 . S
N609 C612 1.390 . S
N610 C611 1.345 . S
N610 C613 1.336 . S
C611 N609 1.335 . S
C611 N610 1.345 . S
C611 H616 0.930 . S
C612 N609 1.390 . S
C612 C613 1.346 . S
C612 H617 0.930 . S
C613 N610 1.336 . S
C613 C612 1.346 . S
C613 H620 0.929 . S
C614 O604 1.282 . S
C614 O615 1.216 . S
O615 C614 1.216 . S
H616 C611 0.930 . S
H617 C612 0.930 . S
O618 Cu598 1.959 . S
O618 C605 1.251 . S
H619 C602 0.930 . S
H620 C613 0.929 . S
Cu621 N622 1.999 . S
Cu621 O627 1.974 . S
Cu621 N632 1.985 . S
Cu621 O641 1.959 . S
N622 Cu621 1.999 . S
N622 C624 1.263 . S
N622 C626 1.389 . S
N623 C624 1.358 . S
N623 C625 1.400 . S
C624 N622 1.263 . S
C624 N623 1.358 . S
C624 H630 0.930 . S
C625 N623 1.400 . S
C625 C626 1.351 . S
C625 H642 0.930 . S
C626 N622 1.389 . S
C626 C625 1.351 . S
C626 H631 0.930 . S
O627 Cu621 1.974 . S
O627 C637 1.282 . S
C628 O629 1.261 . S
C628 O641 1.251 . S
O629 C628 1.261 . S
H630 C624 0.930 . S
H631 C626 0.930 . S
N632 Cu621 1.985 . S
N632 C634 1.335 . S
N632 C635 1.390 . S
N633 C634 1.345 . S
N633 C636 1.336 . S
C634 N632 1.335 . S
C634 N633 1.345 . S
C634 H639 0.930 . S
C635 N632 1.390 . S
C635 C636 1.346 . S
C635 H640 0.930 . S
C636 N633 1.336 . S
C636 C635 1.346 . S
C636 H643 0.929 . S
C637 O627 1.282 . S
C637 O638 1.216 . S
O638 C637 1.216 . S
H639 C634 0.930 . S
H640 C635 0.930 . S
O641 Cu621 1.959 . S
O641 C628 1.251 . S
H642 C625 0.930 . S
H643 C636 0.929 . S
Cu644 N645 1.999 . S
Cu644 O650 1.974 . S
Cu644 N655 1.985 . S
Cu644 O664 1.959 . S
N645 Cu644 1.999 . S
N645 C647 1.263 . S
N645 C649 1.389 . S
N646 C647 1.358 . S
N646 C648 1.400 . S
C647 N645 1.263 . S
C647 N646 1.358 . S
C647 H653 0.930 . S
C648 N646 1.400 . S
C648 C649 1.351 . S
C648 H665 0.930 . S
C649 N645 1.389 . S
C649 C648 1.351 . S
C649 H654 0.930 . S
O650 Cu644 1.974 . S
O650 C660 1.282 . S
C651 O652 1.261 . S
C651 O664 1.251 . S
O652 C651 1.261 . S
H653 C647 0.930 . S
H654 C649 0.930 . S
N655 Cu644 1.985 . S
N655 C657 1.335 . S
N655 C658 1.390 . S
N656 C657 1.345 . S
N656 C659 1.336 . S
C657 N655 1.335 . S
C657 N656 1.345 . S
C657 H662 0.930 . S
C658 N655 1.390 . S
C658 C659 1.346 . S
C658 H663 0.930 . S
C659 N656 1.336 . S
C659 C658 1.346 . S
C659 H666 0.929 . S
C660 O650 1.282 . S
C660 O661 1.216 . S
O661 C660 1.216 . S
H662 C657 0.930 . S
H663 C658 0.930 . S
O664 Cu644 1.959 . S
O664 C651 1.251 . S
H665 C648 0.930 . S
H666 C659 0.929 . S
Cu667 N668 1.999 . S
Cu667 O673 1.974 . S
Cu667 N678 1.985 . S
Cu667 O687 1.959 . S
N668 Cu667 1.999 . S
N668 C670 1.263 . S
N668 C672 1.389 . S
N669 C670 1.358 . S
N669 C671 1.400 . S
C670 N668 1.263 . S
C670 N669 1.358 . S
C670 H676 0.930 . S
C671 N669 1.400 . S
C671 C672 1.351 . S
C671 H688 0.930 . S
C672 N668 1.389 . S
C672 C671 1.351 . S
C672 H677 0.930 . S
O673 Cu667 1.974 . S
O673 C683 1.282 . S
C674 O675 1.261 . S
C674 O687 1.251 . S
O675 C674 1.261 . S
H676 C670 0.930 . S
H677 C672 0.930 . S
N678 Cu667 1.985 . S
N678 C680 1.335 . S
N678 C681 1.390 . S
N679 C680 1.345 . S
N679 C682 1.336 . S
C680 N678 1.335 . S
C680 N679 1.345 . S
C680 H685 0.930 . S
C681 N678 1.390 . S
C681 C682 1.346 . S
C681 H686 0.930 . S
C682 N679 1.336 . S
C682 C681 1.346 . S
C682 H689 0.929 . S
C683 O673 1.282 . S
C683 O684 1.216 . S
O684 C683 1.216 . S
H685 C680 0.930 . S
H686 C681 0.930 . S
O687 Cu667 1.959 . S
O687 C674 1.251 . S
H688 C671 0.930 . S
H689 C682 0.929 . S
Cu690 N691 1.999 . S
Cu690 O696 1.974 . S
Cu690 N701 1.985 . S
Cu690 O710 1.959 . S
N691 Cu690 1.999 . S
N691 C693 1.263 . S
N691 C695 1.389 . S
N692 C693 1.358 . S
N692 C694 1.400 . S
C693 N691 1.263 . S
C693 N692 1.358 . S
C693 H699 0.930 . S
C694 N692 1.400 . S
C694 C695 1.351 . S
C694 H711 0.930 . S
C695 N691 1.389 . S
C695 C694 1.351 . S
C695 H700 0.930 . S
O696 Cu690 1.974 . S
O696 C706 1.282 . S
C697 O698 1.261 . S
C697 O710 1.251 . S
O698 C697 1.261 . S
H699 C693 0.930 . S
H700 C695 0.930 . S
N701 Cu690 1.985 . S
N701 C703 1.335 . S
N701 C704 1.390 . S
N702 C703 1.345 . S
N702 C705 1.336 . S
C703 N701 1.335 . S
C703 N702 1.345 . S
C703 H708 0.930 . S
C704 N701 1.390 . S
C704 C705 1.346 . S
C704 H709 0.930 . S
C705 N702 1.336 . S
C705 C704 1.346 . S
C705 H712 0.929 . S
C706 O696 1.282 . S
C706 O707 1.216 . S
O707 C706 1.216 . S
H708 C703 0.930 . S
H709 C704 0.930 . S
O710 Cu690 1.959 . S
O710 C697 1.251 . S
H711 C694 0.930 . S
H712 C705 0.929 . S
Cu713 N714 1.999 . S
Cu713 O719 1.974 . S
Cu713 N724 1.985 . S
Cu713 O733 1.959 . S
N714 Cu713 1.999 . S
N714 C716 1.263 . S
N714 C718 1.389 . S
N715 C716 1.358 . S
N715 C717 1.400 . S
C716 N714 1.263 . S
C716 N715 1.358 . S
C716 H722 0.930 . S
C717 N715 1.400 . S
C717 C718 1.351 . S
C717 H734 0.930 . S
C718 N714 1.389 . S
C718 C717 1.351 . S
C718 H723 0.930 . S
O719 Cu713 1.974 . S
O719 C729 1.282 . S
C720 O721 1.261 . S
C720 O733 1.251 . S
O721 C720 1.261 . S
H722 C716 0.930 . S
H723 C718 0.930 . S
N724 Cu713 1.985 . S
N724 C726 1.335 . S
N724 C727 1.390 . S
N725 C726 1.345 . S
N725 C728 1.336 . S
C726 N724 1.335 . S
C726 N725 1.345 . S
C726 H731 0.930 . S
C727 N724 1.390 . S
C727 C728 1.346 . S
C727 H732 0.930 . S
C728 N725 1.336 . S
C728 C727 1.346 . S
C728 H735 0.929 . S
C729 O719 1.282 . S
C729 O730 1.216 . S
O730 C729 1.216 . S
H731 C726 0.930 . S
H732 C727 0.930 . S
O733 Cu713 1.959 . S
O733 C720 1.251 . S
H734 C717 0.930 . S
H735 C728 0.929 . S
H736 C748 0.930 . S
H737 C750 0.930 . S
H738 C751 0.930 . S
H739 C755 0.959 . S
H740 C755 0.959 . S
H741 C755 0.961 . S
H742 C756 0.960 . S
H743 C756 0.961 . S
H744 C756 0.959 . S
H745 C759 0.929 . S
H746 C760 0.931 . S
H747 C762 0.930 . S
C748 H736 0.930 . S
C748 C749 1.399 . S
C748 C753 1.399 . S
C749 C748 1.399 . S
C749 C750 1.376 . S
C750 H737 0.930 . S
C750 C749 1.376 . S
C750 C751 1.388 . S
C751 H738 0.930 . S
C751 C750 1.388 . S
C751 C752 1.390 . S
C752 C751 1.390 . S
C752 C753 1.394 . S
C752 C758 1.465 . S
C753 C748 1.399 . S
C753 C752 1.394 . S
C753 C754 1.516 . S
C754 C753 1.516 . S
C754 C755 1.502 . S
C754 C756 1.561 . S
C754 C757 1.526 . S
C755 H739 0.959 . S
C755 H740 0.959 . S
C755 H741 0.961 . S
C755 C754 1.502 . S
C756 H742 0.960 . S
C756 H743 0.961 . S
C756 H744 0.959 . S
C756 C754 1.561 . S
C757 C754 1.526 . S
C757 C758 1.396 . S
C757 C762 1.390 . S
C758 C752 1.465 . S
C758 C757 1.396 . S
C758 C759 1.399 . S
C759 H745 0.929 . S
C759 C758 1.399 . S
C759 C760 1.385 . S
C760 H746 0.931 . S
C760 C759 1.385 . S
C760 C761 1.389 . S
C761 C760 1.389 . S
C761 C762 1.387 . S
C762 H747 0.930 . S
C762 C757 1.390 . S
C762 C761 1.387 . S
H763 C775 0.930 . S
H764 C777 0.930 . S
H765 C778 0.930 . S
H766 C782 0.959 . S
H767 C782 0.959 . S
H768 C782 0.961 . S
H769 C783 0.960 . S
H770 C783 0.961 . S
H771 C783 0.959 . S
H772 C786 0.929 . S
H773 C787 0.931 . S
H774 C789 0.930 . S
C775 H763 0.930 . S
C775 C776 1.399 . S
C775 C780 1.399 . S
C776 C775 1.399 . S
C776 C777 1.376 . S
C777 H764 0.930 . S
C777 C776 1.376 . S
C777 C778 1.388 . S
C778 H765 0.930 . S
C778 C777 1.388 . S
C778 C779 1.390 . S
C779 C778 1.390 . S
C779 C780 1.394 . S
C779 C785 1.465 . S
C780 C775 1.399 . S
C780 C779 1.394 . S
C780 C781 1.516 . S
C781 C780 1.516 . S
C781 C782 1.502 . S
C781 C783 1.561 . S
C781 C784 1.526 . S
C782 H766 0.959 . S
C782 H767 0.959 . S
C782 H768 0.961 . S
C782 C781 1.502 . S
C783 H769 0.960 . S
C783 H770 0.961 . S
C783 H771 0.959 . S
C783 C781 1.561 . S
C784 C781 1.526 . S
C784 C785 1.396 . S
C784 C789 1.390 . S
C785 C779 1.465 . S
C785 C784 1.396 . S
C785 C786 1.399 . S
C786 H772 0.929 . S
C786 C785 1.399 . S
C786 C787 1.385 . S
C787 H773 0.931 . S
C787 C786 1.385 . S
C787 C788 1.389 . S
C788 C787 1.389 . S
C788 C789 1.387 . S
C789 H774 0.930 . S
C789 C784 1.390 . S
C789 C788 1.387 . S
H790 C802 0.930 . S
H791 C804 0.930 . S
H792 C805 0.930 . S
H793 C809 0.959 . S
H794 C809 0.959 . S
H795 C809 0.961 . S
H796 C810 0.960 . S
H797 C810 0.961 . S
H798 C810 0.959 . S
H799 C813 0.929 . S
H800 C814 0.931 . S
H801 C816 0.930 . S
C802 H790 0.930 . S
C802 C803 1.399 . S
C802 C807 1.399 . S
C803 C802 1.399 . S
C803 C804 1.376 . S
C804 H791 0.930 . S
C804 C803 1.376 . S
C804 C805 1.388 . S
C805 H792 0.930 . S
C805 C804 1.388 . S
C805 C806 1.390 . S
C806 C805 1.390 . S
C806 C807 1.394 . S
C806 C812 1.465 . S
C807 C802 1.399 . S
C807 C806 1.394 . S
C807 C808 1.516 . S
C808 C807 1.516 . S
C808 C809 1.502 . S
C808 C810 1.561 . S
C808 C811 1.526 . S
C809 H793 0.959 . S
C809 H794 0.959 . S
C809 H795 0.961 . S
C809 C808 1.502 . S
C810 H796 0.960 . S
C810 H797 0.961 . S
C810 H798 0.959 . S
C810 C808 1.561 . S
C811 C808 1.526 . S
C811 C812 1.396 . S
C811 C816 1.390 . S
C812 C806 1.465 . S
C812 C811 1.396 . S
C812 C813 1.399 . S
C813 H799 0.929 . S
C813 C812 1.399 . S
C813 C814 1.385 . S
C814 H800 0.931 . S
C814 C813 1.385 . S
C814 C815 1.389 . S
C815 C814 1.389 . S
C815 C816 1.387 . S
C816 H801 0.930 . S
C816 C811 1.390 . S
C816 C815 1.387 . S
H817 C829 0.930 . S
H818 C831 0.930 . S
H819 C832 0.930 . S
H820 C836 0.959 . S
H821 C836 0.959 . S
H822 C836 0.961 . S
H823 C837 0.960 . S
H824 C837 0.961 . S
H825 C837 0.959 . S
H826 C840 0.929 . S
H827 C841 0.931 . S
H828 C843 0.930 . S
C829 H817 0.930 . S
C829 C830 1.399 . S
C829 C834 1.399 . S
C830 C829 1.399 . S
C830 C831 1.376 . S
C831 H818 0.930 . S
C831 C830 1.376 . S
C831 C832 1.388 . S
C832 H819 0.930 . S
C832 C831 1.388 . S
C832 C833 1.390 . S
C833 C832 1.390 . S
C833 C834 1.394 . S
C833 C839 1.465 . S
C834 C829 1.399 . S
C834 C833 1.394 . S
C834 C835 1.516 . S
C835 C834 1.516 . S
C835 C836 1.502 . S
C835 C837 1.561 . S
C835 C838 1.526 . S
C836 H820 0.959 . S
C836 H821 0.959 . S
C836 H822 0.961 . S
C836 C835 1.502 . S
C837 H823 0.960 . S
C837 H824 0.961 . S
C837 H825 0.959 . S
C837 C835 1.561 . S
C838 C835 1.526 . S
C838 C839 1.396 . S
C838 C843 1.390 . S
C839 C833 1.465 . S
C839 C838 1.396 . S
C839 C840 1.399 . S
C840 H826 0.929 . S
C840 C839 1.399 . S
C840 C841 1.385 . S
C841 H827 0.931 . S
C841 C840 1.385 . S
C841 C842 1.389 . S
C842 C841 1.389 . S
C842 C843 1.387 . S
C843 H828 0.930 . S
C843 C838 1.390 . S
C843 C842 1.387 . S
H844 C856 0.930 . S
H845 C858 0.930 . S
H846 C859 0.930 . S
H847 C863 0.959 . S
H848 C863 0.959 . S
H849 C863 0.961 . S
H850 C864 0.960 . S
H851 C864 0.961 . S
H852 C864 0.959 . S
H853 C867 0.929 . S
H854 C868 0.931 . S
H855 C870 0.930 . S
C856 H844 0.930 . S
C856 C857 1.399 . S
C856 C861 1.399 . S
C857 C856 1.399 . S
C857 C858 1.376 . S
C858 H845 0.930 . S
C858 C857 1.376 . S
C858 C859 1.388 . S
C859 H846 0.930 . S
C859 C858 1.388 . S
C859 C860 1.390 . S
C860 C859 1.390 . S
C860 C861 1.394 . S
C860 C866 1.465 . S
C861 C856 1.399 . S
C861 C860 1.394 . S
C861 C862 1.516 . S
C862 C861 1.516 . S
C862 C863 1.502 . S
C862 C864 1.561 . S
C862 C865 1.526 . S
C863 H847 0.959 . S
C863 H848 0.959 . S
C863 H849 0.961 . S
C863 C862 1.502 . S
C864 H850 0.960 . S
C864 H851 0.961 . S
C864 H852 0.959 . S
C864 C862 1.561 . S
C865 C862 1.526 . S
C865 C866 1.396 . S
C865 C870 1.390 . S
C866 C860 1.465 . S
C866 C865 1.396 . S
C866 C867 1.399 . S
C867 H853 0.929 . S
C867 C866 1.399 . S
C867 C868 1.385 . S
C868 H854 0.931 . S
C868 C867 1.385 . S
C868 C869 1.389 . S
C869 C868 1.389 . S
C869 C870 1.387 . S
C870 H855 0.930 . S
C870 C865 1.390 . S
C870 C869 1.387 . S
H871 C883 0.930 . S
H872 C885 0.930 . S
H873 C886 0.930 . S
H874 C890 0.959 . S
H875 C890 0.959 . S
H876 C890 0.961 . S
H877 C891 0.960 . S
H878 C891 0.961 . S
H879 C891 0.959 . S
H880 C894 0.929 . S
H881 C895 0.931 . S
H882 C897 0.930 . S
C883 H871 0.930 . S
C883 C884 1.399 . S
C883 C888 1.399 . S
C884 C883 1.399 . S
C884 C885 1.376 . S
C885 H872 0.930 . S
C885 C884 1.376 . S
C885 C886 1.388 . S
C886 H873 0.930 . S
C886 C885 1.388 . S
C886 C887 1.390 . S
C887 C886 1.390 . S
C887 C888 1.394 . S
C887 C893 1.465 . S
C888 C883 1.399 . S
C888 C887 1.394 . S
C888 C889 1.516 . S
C889 C888 1.516 . S
C889 C890 1.502 . S
C889 C891 1.561 . S
C889 C892 1.526 . S
C890 H874 0.959 . S
C890 H875 0.959 . S
C890 H876 0.961 . S
C890 C889 1.502 . S
C891 H877 0.960 . S
C891 H878 0.961 . S
C891 H879 0.959 . S
C891 C889 1.561 . S
C892 C889 1.526 . S
C892 C893 1.396 . S
C892 C897 1.390 . S
C893 C887 1.465 . S
C893 C892 1.396 . S
C893 C894 1.399 . S
C894 H880 0.929 . S
C894 C893 1.399 . S
C894 C895 1.385 . S
C895 H881 0.931 . S
C895 C894 1.385 . S
C895 C896 1.389 . S
C896 C895 1.389 . S
C896 C897 1.387 . S
C897 H882 0.930 . S
C897 C892 1.390 . S
C897 C896 1.387 . S
H898 C910 0.930 . S
H899 C912 0.930 . S
H900 C913 0.930 . S
H901 C917 0.959 . S
H902 C917 0.959 . S
H903 C917 0.961 . S
H904 C918 0.960 . S
H905 C918 0.961 . S
H906 C918 0.959 . S
H907 C921 0.929 . S
H908 C922 0.931 . S
H909 C924 0.930 . S
C910 H898 0.930 . S
C910 C911 1.399 . S
C910 C915 1.399 . S
C911 C910 1.399 . S
C911 C912 1.376 . S
C912 H899 0.930 . S
C912 C911 1.376 . S
C912 C913 1.388 . S
C913 H900 0.930 . S
C913 C912 1.388 . S
C913 C914 1.390 . S
C914 C913 1.390 . S
C914 C915 1.394 . S
C914 C920 1.465 . S
C915 C910 1.399 . S
C915 C914 1.394 . S
C915 C916 1.516 . S
C916 C915 1.516 . S
C916 C917 1.502 . S
C916 C918 1.561 . S
C916 C919 1.526 . S
C917 H901 0.959 . S
C917 H902 0.959 . S
C917 H903 0.961 . S
C917 C916 1.502 . S
C918 H904 0.960 . S
C918 H905 0.961 . S
C918 H906 0.959 . S
C918 C916 1.561 . S
C919 C916 1.526 . S
C919 C920 1.396 . S
C919 C924 1.390 . S
C920 C914 1.465 . S
C920 C919 1.396 . S
C920 C921 1.399 . S
C921 H907 0.929 . S
C921 C920 1.399 . S
C921 C922 1.385 . S
C922 H908 0.931 . S
C922 C921 1.385 . S
C922 C923 1.389 . S
C923 C922 1.389 . S
C923 C924 1.387 . S
C924 H909 0.930 . S
C924 C919 1.390 . S
C924 C923 1.387 . S
H925 C937 0.930 . S
H926 C939 0.930 . S
H927 C940 0.930 . S
H928 C944 0.959 . S
H929 C944 0.959 . S
H930 C944 0.961 . S
H931 C945 0.960 . S
H932 C945 0.961 . S
H933 C945 0.959 . S
H934 C948 0.929 . S
H935 C949 0.931 . S
H936 C951 0.930 . S
C937 H925 0.930 . S
C937 C938 1.399 . S
C937 C942 1.399 . S
C938 C937 1.399 . S
C938 C939 1.376 . S
C939 H926 0.930 . S
C939 C938 1.376 . S
C939 C940 1.388 . S
C940 H927 0.930 . S
C940 C939 1.388 . S
C940 C941 1.390 . S
C941 C940 1.390 . S
C941 C942 1.394 . S
C941 C947 1.465 . S
C942 C937 1.399 . S
C942 C941 1.394 . S
C942 C943 1.516 . S
C943 C942 1.516 . S
C943 C944 1.502 . S
C943 C945 1.561 . S
C943 C946 1.526 . S
C944 H928 0.959 . S
C944 H929 0.959 . S
C944 H930 0.961 . S
C944 C943 1.502 . S
C945 H931 0.960 . S
C945 H932 0.961 . S
C945 H933 0.959 . S
C945 C943 1.561 . S
C946 C943 1.526 . S
C946 C947 1.396 . S
C946 C951 1.390 . S
C947 C941 1.465 . S
C947 C946 1.396 . S
C947 C948 1.399 . S
C948 H934 0.929 . S
C948 C947 1.399 . S
C948 C949 1.385 . S
C949 H935 0.931 . S
C949 C948 1.385 . S
C949 C950 1.389 . S
C950 C949 1.389 . S
C950 C951 1.387 . S
C951 H936 0.930 . S
C951 C946 1.390 . S
C951 C950 1.387 . S
H952 C964 0.930 . S
H953 C966 0.930 . S
H954 C967 0.930 . S
H955 C971 0.959 . S
H956 C971 0.959 . S
H957 C971 0.961 . S
H958 C972 0.960 . S
H959 C972 0.961 . S
H960 C972 0.959 . S
H961 C975 0.929 . S
H962 C976 0.931 . S
H963 C978 0.930 . S
C964 H952 0.930 . S
C964 C965 1.399 . S
C964 C969 1.399 . S
C965 C964 1.399 . S
C965 C966 1.376 . S
C966 H953 0.930 . S
C966 C965 1.376 . S
C966 C967 1.388 . S
C967 H954 0.930 . S
C967 C966 1.388 . S
C967 C968 1.390 . S
C968 C967 1.390 . S
C968 C969 1.394 . S
C968 C974 1.465 . S
C969 C964 1.399 . S
C969 C968 1.394 . S
C969 C970 1.516 . S
C970 C969 1.516 . S
C970 C971 1.502 . S
C970 C972 1.561 . S
C970 C973 1.526 . S
C971 H955 0.959 . S
C971 H956 0.959 . S
C971 H957 0.961 . S
C971 C970 1.502 . S
C972 H958 0.960 . S
C972 H959 0.961 . S
C972 H960 0.959 . S
C972 C970 1.561 . S
C973 C970 1.526 . S
C973 C974 1.396 . S
C973 C978 1.390 . S
C974 C968 1.465 . S
C974 C973 1.396 . S
C974 C975 1.399 . S
C975 H961 0.929 . S
C975 C974 1.399 . S
C975 C976 1.385 . S
C976 H962 0.931 . S
C976 C975 1.385 . S
C976 C977 1.389 . S
C977 C976 1.389 . S
C977 C978 1.387 . S
C978 H963 0.930 . S
C978 C973 1.390 . S
C978 C977 1.387 . S
H979 C991 0.930 . S
H980 C993 0.930 . S
H981 C994 0.930 . S
H982 C998 0.959 . S
H983 C998 0.959 . S
H984 C998 0.961 . S
H985 C999 0.960 . S
H986 C999 0.961 . S
H987 C999 0.959 . S
H988 C1002 0.929 . S
H989 C1003 0.931 . S
H990 C1005 0.930 . S
C991 H979 0.930 . S
C991 C992 1.399 . S
C991 C996 1.399 . S
C992 C991 1.399 . S
C992 C993 1.376 . S
C993 H980 0.930 . S
C993 C992 1.376 . S
C993 C994 1.388 . S
C994 H981 0.930 . S
C994 C993 1.388 . S
C994 C995 1.390 . S
C995 C994 1.390 . S
C995 C996 1.394 . S
C995 C1001 1.465 . S
C996 C991 1.399 . S
C996 C995 1.394 . S
C996 C997 1.516 . S
C997 C996 1.516 . S
C997 C998 1.502 . S
C997 C999 1.561 . S
C997 C1000 1.526 . S
C998 H982 0.959 . S
C998 H983 0.959 . S
C998 H984 0.961 . S
C998 C997 1.502 . S
C999 H985 0.960 . S
C999 H986 0.961 . S
C999 H987 0.959 . S
C999 C997 1.561 . S
C1000 C997 1.526 . S
C1000 C1001 1.396 . S
C1000 C1005 1.390 . S
C1001 C995 1.465 . S
C1001 C1000 1.396 . S
C1001 C1002 1.399 . S
C1002 H988 0.929 . S
C1002 C1001 1.399 . S
C1002 C1003 1.385 . S
C1003 H989 0.931 . S
C1003 C1002 1.385 . S
C1003 C1004 1.389 . S
C1004 C1003 1.389 . S
C1004 C1005 1.387 . S
C1005 H990 0.930 . S
C1005 C1000 1.390 . S
C1005 C1004 1.387 . S
H1006 C1018 0.930 . S
H1007 C1020 0.930 . S
H1008 C1021 0.930 . S
H1009 C1025 0.959 . S
H1010 C1025 0.959 . S
H1011 C1025 0.961 . S
H1012 C1026 0.960 . S
H1013 C1026 0.961 . S
H1014 C1026 0.959 . S
H1015 C1029 0.929 . S
H1016 C1030 0.931 . S
H1017 C1032 0.930 . S
C1018 H1006 0.930 . S
C1018 C1019 1.399 . S
C1018 C1023 1.399 . S
C1019 C1018 1.399 . S
C1019 C1020 1.376 . S
C1020 H1007 0.930 . S
C1020 C1019 1.376 . S
C1020 C1021 1.388 . S
C1021 H1008 0.930 . S
C1021 C1020 1.388 . S
C1021 C1022 1.390 . S
C1022 C1021 1.390 . S
C1022 C1023 1.394 . S
C1022 C1028 1.465 . S
C1023 C1018 1.399 . S
C1023 C1022 1.394 . S
C1023 C1024 1.516 . S
C1024 C1023 1.516 . S
C1024 C1025 1.502 . S
C1024 C1026 1.561 . S
C1024 C1027 1.526 . S
C1025 H1009 0.959 . S
C1025 H1010 0.959 . S
C1025 H1011 0.961 . S
C1025 C1024 1.502 . S
C1026 H1012 0.960 . S
C1026 H1013 0.961 . S
C1026 H1014 0.959 . S
C1026 C1024 1.561 . S
C1027 C1024 1.526 . S
C1027 C1028 1.396 . S
C1027 C1032 1.390 . S
C1028 C1022 1.465 . S
C1028 C1027 1.396 . S
C1028 C1029 1.399 . S
C1029 H1015 0.929 . S
C1029 C1028 1.399 . S
C1029 C1030 1.385 . S
C1030 H1016 0.931 . S
C1030 C1029 1.385 . S
C1030 C1031 1.389 . S
C1031 C1030 1.389 . S
C1031 C1032 1.387 . S
C1032 H1017 0.930 . S
C1032 C1027 1.390 . S
C1032 C1031 1.387 . S
H1033 C1045 0.930 . S
H1034 C1047 0.930 . S
H1035 C1048 0.930 . S
H1036 C1052 0.959 . S
H1037 C1052 0.959 . S
H1038 C1052 0.961 . S
H1039 C1053 0.960 . S
H1040 C1053 0.961 . S
H1041 C1053 0.959 . S
H1042 C1056 0.929 . S
H1043 C1057 0.931 . S
H1044 C1059 0.930 . S
C1045 H1033 0.930 . S
C1045 C1046 1.399 . S
C1045 C1050 1.399 . S
C1046 C1045 1.399 . S
C1046 C1047 1.376 . S
C1047 H1034 0.930 . S
C1047 C1046 1.376 . S
C1047 C1048 1.388 . S
C1048 H1035 0.930 . S
C1048 C1047 1.388 . S
C1048 C1049 1.390 . S
C1049 C1048 1.390 . S
C1049 C1050 1.394 . S
C1049 C1055 1.465 . S
C1050 C1045 1.399 . S
C1050 C1049 1.394 . S
C1050 C1051 1.516 . S
C1051 C1050 1.516 . S
C1051 C1052 1.502 . S
C1051 C1053 1.561 . S
C1051 C1054 1.526 . S
C1052 H1036 0.959 . S
C1052 H1037 0.959 . S
C1052 H1038 0.961 . S
C1052 C1051 1.502 . S
C1053 H1039 0.960 . S
C1053 H1040 0.961 . S
C1053 H1041 0.959 . S
C1053 C1051 1.561 . S
C1054 C1051 1.526 . S
C1054 C1055 1.396 . S
C1054 C1059 1.390 . S
C1055 C1049 1.465 . S
C1055 C1054 1.396 . S
C1055 C1056 1.399 . S
C1056 H1042 0.929 . S
C1056 C1055 1.399 . S
C1056 C1057 1.385 . S
C1057 H1043 0.931 . S
C1057 C1056 1.385 . S
C1057 C1058 1.389 . S
C1058 C1057 1.389 . S
C1058 C1059 1.387 . S
C1059 H1044 0.930 . S
C1059 C1054 1.390 . S
C1059 C1058 1.387 . S
H1060 C1072 0.930 . S
H1061 C1074 0.930 . S
H1062 C1075 0.930 . S
H1063 C1079 0.959 . S
H1064 C1079 0.959 . S
H1065 C1079 0.961 . S
H1066 C1080 0.960 . S
H1067 C1080 0.961 . S
H1068 C1080 0.959 . S
H1069 C1083 0.929 . S
H1070 C1084 0.931 . S
H1071 C1086 0.930 . S
C1072 H1060 0.930 . S
C1072 C1073 1.399 . S
C1072 C1077 1.399 . S
C1073 C1072 1.399 . S
C1073 C1074 1.376 . S
C1074 H1061 0.930 . S
C1074 C1073 1.376 . S
C1074 C1075 1.388 . S
C1075 H1062 0.930 . S
C1075 C1074 1.388 . S
C1075 C1076 1.390 . S
C1076 C1075 1.390 . S
C1076 C1077 1.394 . S
C1076 C1082 1.465 . S
C1077 C1072 1.399 . S
C1077 C1076 1.394 . S
C1077 C1078 1.516 . S
C1078 C1077 1.516 . S
C1078 C1079 1.502 . S
C1078 C1080 1.561 . S
C1078 C1081 1.526 . S
C1079 H1063 0.959 . S
C1079 H1064 0.959 . S
C1079 H1065 0.961 . S
C1079 C1078 1.502 . S
C1080 H1066 0.960 . S
C1080 H1067 0.961 . S
C1080 H1068 0.959 . S
C1080 C1078 1.561 . S
C1081 C1078 1.526 . S
C1081 C1082 1.396 . S
C1081 C1086 1.390 . S
C1082 C1076 1.465 . S
C1082 C1081 1.396 . S
C1082 C1083 1.399 . S
C1083 H1069 0.929 . S
C1083 C1082 1.399 . S
C1083 C1084 1.385 . S
C1084 H1070 0.931 . S
C1084 C1083 1.385 . S
C1084 C1085 1.389 . S
C1085 C1084 1.389 . S
C1085 C1086 1.387 . S
C1086 H1071 0.930 . S
C1086 C1081 1.390 . S
C1086 C1085 1.387 . S
H1087 C1099 0.930 . S
H1088 C1101 0.930 . S
H1089 C1102 0.930 . S
H1090 C1106 0.959 . S
H1091 C1106 0.959 . S
H1092 C1106 0.961 . S
H1093 C1107 0.960 . S
H1094 C1107 0.961 . S
H1095 C1107 0.959 . S
H1096 C1110 0.929 . S
H1097 C1111 0.931 . S
H1098 C1113 0.930 . S
C1099 H1087 0.930 . S
C1099 C1100 1.399 . S
C1099 C1104 1.399 . S
C1100 C1099 1.399 . S
C1100 C1101 1.376 . S
C1101 H1088 0.930 . S
C1101 C1100 1.376 . S
C1101 C1102 1.388 . S
C1102 H1089 0.930 . S
C1102 C1101 1.388 . S
C1102 C1103 1.390 . S
C1103 C1102 1.390 . S
C1103 C1104 1.394 . S
C1103 C1109 1.465 . S
C1104 C1099 1.399 . S
C1104 C1103 1.394 . S
C1104 C1105 1.516 . S
C1105 C1104 1.516 . S
C1105 C1106 1.502 . S
C1105 C1107 1.561 . S
C1105 C1108 1.526 . S
C1106 H1090 0.959 . S
C1106 H1091 0.959 . S
C1106 H1092 0.961 . S
C1106 C1105 1.502 . S
C1107 H1093 0.960 . S
C1107 H1094 0.961 . S
C1107 H1095 0.959 . S
C1107 C1105 1.561 . S
C1108 C1105 1.526 . S
C1108 C1109 1.396 . S
C1108 C1113 1.390 . S
C1109 C1103 1.465 . S
C1109 C1108 1.396 . S
C1109 C1110 1.399 . S
C1110 H1096 0.929 . S
C1110 C1109 1.399 . S
C1110 C1111 1.385 . S
C1111 H1097 0.931 . S
C1111 C1110 1.385 . S
C1111 C1112 1.389 . S
C1112 C1111 1.389 . S
C1112 C1113 1.387 . S
C1113 H1098 0.930 . S
C1113 C1108 1.390 . S
C1113 C1112 1.387 . S
H1114 C1126 0.930 . S
H1115 C1128 0.930 . S
H1116 C1129 0.930 . S
H1117 C1133 0.959 . S
H1118 C1133 0.959 . S
H1119 C1133 0.961 . S
H1120 C1134 0.960 . S
H1121 C1134 0.961 . S
H1122 C1134 0.959 . S
H1123 C1137 0.929 . S
H1124 C1138 0.931 . S
H1125 C1140 0.930 . S
C1126 H1114 0.930 . S
C1126 C1127 1.399 . S
C1126 C1131 1.399 . S
C1127 C1126 1.399 . S
C1127 C1128 1.376 . S
C1128 H1115 0.930 . S
C1128 C1127 1.376 . S
C1128 C1129 1.388 . S
C1129 H1116 0.930 . S
C1129 C1128 1.388 . S
C1129 C1130 1.390 . S
C1130 C1129 1.390 . S
C1130 C1131 1.394 . S
C1130 C1136 1.465 . S
C1131 C1126 1.399 . S
C1131 C1130 1.394 . S
C1131 C1132 1.516 . S
C1132 C1131 1.516 . S
C1132 C1133 1.502 . S
C1132 C1134 1.561 . S
C1132 C1135 1.526 . S
C1133 H1117 0.959 . S
C1133 H1118 0.959 . S
C1133 H1119 0.961 . S
C1133 C1132 1.502 . S
C1134 H1120 0.960 . S
C1134 H1121 0.961 . S
C1134 H1122 0.959 . S
C1134 C1132 1.561 . S
C1135 C1132 1.526 . S
C1135 C1136 1.396 . S
C1135 C1140 1.390 . S
C1136 C1130 1.465 . S
C1136 C1135 1.396 . S
C1136 C1137 1.399 . S
C1137 H1123 0.929 . S
C1137 C1136 1.399 . S
C1137 C1138 1.385 . S
C1138 H1124 0.931 . S
C1138 C1137 1.385 . S
C1138 C1139 1.389 . S
C1139 C1138 1.389 . S
C1139 C1140 1.387 . S
C1140 H1125 0.930 . S
C1140 C1135 1.390 . S
C1140 C1139 1.387 . S
H1141 C1153 0.930 . S
H1142 C1155 0.930 . S
H1143 C1156 0.930 . S
H1144 C1160 0.959 . S
H1145 C1160 0.959 . S
H1146 C1160 0.961 . S
H1147 C1161 0.960 . S
H1148 C1161 0.961 . S
H1149 C1161 0.959 . S
H1150 C1164 0.929 . S
H1151 C1165 0.931 . S
H1152 C1167 0.930 . S
C1153 H1141 0.930 . S
C1153 C1154 1.399 . S
C1153 C1158 1.399 . S
C1154 C1153 1.399 . S
C1154 C1155 1.376 . S
C1155 H1142 0.930 . S
C1155 C1154 1.376 . S
C1155 C1156 1.388 . S
C1156 H1143 0.930 . S
C1156 C1155 1.388 . S
C1156 C1157 1.390 . S
C1157 C1156 1.390 . S
C1157 C1158 1.394 . S
C1157 C1163 1.465 . S
C1158 C1153 1.399 . S
C1158 C1157 1.394 . S
C1158 C1159 1.516 . S
C1159 C1158 1.516 . S
C1159 C1160 1.502 . S
C1159 C1161 1.561 . S
C1159 C1162 1.526 . S
C1160 H1144 0.959 . S
C1160 H1145 0.959 . S
C1160 H1146 0.961 . S
C1160 C1159 1.502 . S
C1161 H1147 0.960 . S
C1161 H1148 0.961 . S
C1161 H1149 0.959 . S
C1161 C1159 1.561 . S
C1162 C1159 1.526 . S
C1162 C1163 1.396 . S
C1162 C1167 1.390 . S
C1163 C1157 1.465 . S
C1163 C1162 1.396 . S
C1163 C1164 1.399 . S
C1164 H1150 0.929 . S
C1164 C1163 1.399 . S
C1164 C1165 1.385 . S
C1165 H1151 0.931 . S
C1165 C1164 1.385 . S
C1165 C1166 1.389 . S
C1166 C1165 1.389 . S
C1166 C1167 1.387 . S
C1167 H1152 0.930 . S
C1167 C1162 1.390 . S
C1167 C1166 1.387 . S
H1168 C1180 0.930 . S
H1169 C1182 0.930 . S
H1170 C1183 0.930 . S
H1171 C1187 0.962 . S
H1172 C1187 0.978 . S
H1173 C1187 0.941 1_655 S
H1174 C1188 0.959 1_655 S
H1175 C1188 0.962 . S
H1176 C1188 0.959 . S
H1177 C1191 0.929 . S
H1178 C1192 0.931 . S
H1179 C1194 0.930 . S
C1180 H1168 0.930 . S
C1180 C1181 1.399 . S
C1180 C1185 1.399 . S
C1181 C1180 1.399 . S
C1181 C1182 1.376 . S
C1182 H1169 0.930 . S
C1182 C1181 1.376 . S
C1182 C1183 1.388 . S
C1183 H1170 0.930 . S
C1183 C1182 1.388 . S
C1183 C1184 1.390 . S
C1184 C1183 1.390 . S
C1184 C1185 1.394 . S
C1184 C1190 1.465 1_655 S
C1185 C1180 1.399 . S
C1185 C1184 1.394 . S
C1185 C1186 1.518 1_655 S
C1186 C1185 1.518 1_455 S
C1186 C1187 1.502 . S
C1186 C1188 1.561 . S
C1186 C1189 1.524 . S
C1187 H1171 0.962 . S
C1187 H1172 0.978 . S
C1187 H1173 0.941 1_455 S
C1187 C1186 1.502 . S
C1188 H1174 0.959 1_455 S
C1188 H1175 0.962 . S
C1188 H1176 0.959 . S
C1188 C1186 1.561 . S
C1189 C1186 1.524 . S
C1189 C1190 1.396 . S
C1189 C1194 1.390 . S
C1190 C1184 1.465 1_455 S
C1190 C1189 1.396 . S
C1190 C1191 1.399 . S
C1191 H1177 0.929 . S
C1191 C1190 1.399 . S
C1191 C1192 1.385 . S
C1192 H1178 0.931 . S
C1192 C1191 1.385 . S
C1192 C1193 1.389 . S
C1193 C1192 1.389 . S
C1193 C1194 1.387 . S
C1194 H1179 0.930 . S
C1194 C1189 1.390 . S
C1194 C1193 1.387 . S
H1195 C1207 0.930 . S
H1196 C1209 0.930 . S
H1197 C1210 0.930 . S
H1198 C1214 0.962 . S
H1199 C1214 0.978 . S
H1200 C1214 0.941 1_545 S
H1201 C1215 0.959 1_545 S
H1202 C1215 0.962 . S
H1203 C1215 0.959 . S
H1204 C1218 0.929 . S
H1205 C1219 0.931 . S
H1206 C1221 0.930 . S
C1207 H1195 0.930 . S
C1207 C1208 1.399 . S
C1207 C1212 1.399 . S
C1208 C1207 1.399 . S
C1208 C1209 1.376 . S
C1209 H1196 0.930 . S
C1209 C1208 1.376 . S
C1209 C1210 1.388 . S
C1210 H1197 0.930 . S
C1210 C1209 1.388 . S
C1210 C1211 1.390 . S
C1211 C1210 1.390 . S
C1211 C1212 1.394 . S
C1211 C1217 1.465 1_545 S
C1212 C1207 1.399 . S
C1212 C1211 1.394 . S
C1212 C1213 1.518 1_545 S
C1213 C1212 1.518 1_565 S
C1213 C1214 1.502 . S
C1213 C1215 1.561 . S
C1213 C1216 1.524 . S
C1214 H1198 0.962 . S
C1214 H1199 0.978 . S
C1214 H1200 0.941 1_565 S
C1214 C1213 1.502 . S
C1215 H1201 0.959 1_565 S
C1215 H1202 0.962 . S
C1215 H1203 0.959 . S
C1215 C1213 1.561 . S
C1216 C1213 1.524 . S
C1216 C1217 1.396 . S
C1216 C1221 1.390 . S
C1217 C1211 1.465 1_565 S
C1217 C1216 1.396 . S
C1217 C1218 1.399 . S
C1218 H1204 0.929 . S
C1218 C1217 1.399 . S
C1218 C1219 1.385 . S
C1219 H1205 0.931 . S
C1219 C1218 1.385 . S
C1219 C1220 1.389 . S
C1220 C1219 1.389 . S
C1220 C1221 1.387 . S
C1221 H1206 0.930 . S
C1221 C1216 1.390 . S
C1221 C1220 1.387 . S
H1222 C1234 0.930 . S
H1223 C1236 0.930 . S
H1224 C1237 0.930 . S
H1225 C1241 0.962 . S
H1226 C1241 0.978 . S
H1227 C1241 0.941 1_455 S
H1228 C1242 0.959 1_455 S
H1229 C1242 0.962 . S
H1230 C1242 0.959 . S
H1231 C1245 0.929 . S
H1232 C1246 0.931 . S
H1233 C1248 0.930 . S
C1234 H1222 0.930 . S
C1234 C1235 1.399 . S
C1234 C1239 1.399 . S
C1235 C1234 1.399 . S
C1235 C1236 1.376 . S
C1236 H1223 0.930 . S
C1236 C1235 1.376 . S
C1236 C1237 1.388 . S
C1237 H1224 0.930 . S
C1237 C1236 1.388 . S
C1237 C1238 1.390 . S
C1238 C1237 1.390 . S
C1238 C1239 1.394 . S
C1238 C1244 1.465 1_455 S
C1239 C1234 1.399 . S
C1239 C1238 1.394 . S
C1239 C1240 1.518 1_455 S
C1240 C1239 1.518 1_655 S
C1240 C1241 1.502 . S
C1240 C1242 1.561 . S
C1240 C1243 1.524 . S
C1241 H1225 0.962 . S
C1241 H1226 0.978 . S
C1241 H1227 0.941 1_655 S
C1241 C1240 1.502 . S
C1242 H1228 0.959 1_655 S
C1242 H1229 0.962 . S
C1242 H1230 0.959 . S
C1242 C1240 1.561 . S
C1243 C1240 1.524 . S
C1243 C1244 1.396 . S
C1243 C1248 1.390 . S
C1244 C1238 1.465 1_655 S
C1244 C1243 1.396 . S
C1244 C1245 1.399 . S
C1245 H1231 0.929 . S
C1245 C1244 1.399 . S
C1245 C1246 1.385 . S
C1246 H1232 0.931 . S
C1246 C1245 1.385 . S
C1246 C1247 1.389 . S
C1247 C1246 1.389 . S
C1247 C1248 1.387 . S
C1248 H1233 0.930 . S
C1248 C1243 1.390 . S
C1248 C1247 1.387 . S
H1249 C1261 0.930 . S
H1250 C1263 0.930 . S
H1251 C1264 0.930 . S
H1252 C1268 0.962 . S
H1253 C1268 0.978 . S
H1254 C1268 0.941 1_565 S
H1255 C1269 0.959 1_565 S
H1256 C1269 0.962 . S
H1257 C1269 0.959 . S
H1258 C1272 0.929 . S
H1259 C1273 0.931 . S
H1260 C1275 0.930 . S
C1261 H1249 0.930 . S
C1261 C1262 1.399 . S
C1261 C1266 1.399 . S
C1262 C1261 1.399 . S
C1262 C1263 1.376 . S
C1263 H1250 0.930 . S
C1263 C1262 1.376 . S
C1263 C1264 1.388 . S
C1264 H1251 0.930 . S
C1264 C1263 1.388 . S
C1264 C1265 1.390 . S
C1265 C1264 1.390 . S
C1265 C1266 1.394 . S
C1265 C1271 1.465 1_565 S
C1266 C1261 1.399 . S
C1266 C1265 1.394 . S
C1266 C1267 1.518 1_565 S
C1267 C1266 1.518 1_545 S
C1267 C1268 1.502 . S
C1267 C1269 1.561 . S
C1267 C1270 1.524 . S
C1268 H1252 0.962 . S
C1268 H1253 0.978 . S
C1268 H1254 0.941 1_545 S
C1268 C1267 1.502 . S
C1269 H1255 0.959 1_545 S
C1269 H1256 0.962 . S
C1269 H1257 0.959 . S
C1269 C1267 1.561 . S
C1270 C1267 1.524 . S
C1270 C1271 1.396 . S
C1270 C1275 1.390 . S
C1271 C1265 1.465 1_545 S
C1271 C1270 1.396 . S
C1271 C1272 1.399 . S
C1272 H1258 0.929 . S
C1272 C1271 1.399 . S
C1272 C1273 1.385 . S
C1273 H1259 0.931 . S
C1273 C1272 1.385 . S
C1273 C1274 1.389 . S
C1274 C1273 1.389 . S
C1274 C1275 1.387 . S
C1275 H1260 0.930 . S
C1275 C1270 1.390 . S
C1275 C1274 1.387 . S
H1276 C1288 0.930 . S
H1277 C1290 0.930 . S
H1278 C1291 0.930 . S
H1279 C1295 0.962 . S
H1280 C1295 0.978 . S
H1281 C1295 0.941 1_455 S
H1282 C1296 0.959 1_455 S
H1283 C1296 0.962 . S
H1284 C1296 0.959 . S
H1285 C1299 0.929 . S
H1286 C1300 0.931 . S
H1287 C1302 0.930 . S
C1288 H1276 0.930 . S
C1288 C1289 1.399 . S
C1288 C1293 1.399 . S
C1289 C1288 1.399 . S
C1289 C1290 1.376 . S
C1290 H1277 0.930 . S
C1290 C1289 1.376 . S
C1290 C1291 1.388 . S
C1291 H1278 0.930 . S
C1291 C1290 1.388 . S
C1291 C1292 1.390 . S
C1292 C1291 1.390 . S
C1292 C1293 1.394 . S
C1292 C1298 1.465 1_455 S
C1293 C1288 1.399 . S
C1293 C1292 1.394 . S
C1293 C1294 1.518 1_455 S
C1294 C1293 1.518 1_655 S
C1294 C1295 1.502 . S
C1294 C1296 1.561 . S
C1294 C1297 1.524 . S
C1295 H1279 0.962 . S
C1295 H1280 0.978 . S
C1295 H1281 0.941 1_655 S
C1295 C1294 1.502 . S
C1296 H1282 0.959 1_655 S
C1296 H1283 0.962 . S
C1296 H1284 0.959 . S
C1296 C1294 1.561 . S
C1297 C1294 1.524 . S
C1297 C1298 1.396 . S
C1297 C1302 1.390 . S
C1298 C1292 1.465 1_655 S
C1298 C1297 1.396 . S
C1298 C1299 1.399 . S
C1299 H1285 0.929 . S
C1299 C1298 1.399 . S
C1299 C1300 1.385 . S
C1300 H1286 0.931 . S
C1300 C1299 1.385 . S
C1300 C1301 1.389 . S
C1301 C1300 1.389 . S
C1301 C1302 1.387 . S
C1302 H1287 0.930 . S
C1302 C1297 1.390 . S
C1302 C1301 1.387 . S
H1303 C1315 0.930 . S
H1304 C1317 0.930 . S
H1305 C1318 0.930 . S
H1306 C1322 0.962 . S
H1307 C1322 0.978 . S
H1308 C1322 0.941 1_565 S
H1309 C1323 0.959 1_565 S
H1310 C1323 0.962 . S
H1311 C1323 0.959 . S
H1312 C1326 0.929 . S
H1313 C1327 0.931 . S
H1314 C1329 0.930 . S
C1315 H1303 0.930 . S
C1315 C1316 1.399 . S
C1315 C1320 1.399 . S
C1316 C1315 1.399 . S
C1316 C1317 1.376 . S
C1317 H1304 0.930 . S
C1317 C1316 1.376 . S
C1317 C1318 1.388 . S
C1318 H1305 0.930 . S
C1318 C1317 1.388 . S
C1318 C1319 1.390 . S
C1319 C1318 1.390 . S
C1319 C1320 1.394 . S
C1319 C1325 1.465 1_565 S
C1320 C1315 1.399 . S
C1320 C1319 1.394 . S
C1320 C1321 1.518 1_565 S
C1321 C1320 1.518 1_545 S
C1321 C1322 1.502 . S
C1321 C1323 1.561 . S
C1321 C1324 1.524 . S
C1322 H1306 0.962 . S
C1322 H1307 0.978 . S
C1322 H1308 0.941 1_545 S
C1322 C1321 1.502 . S
C1323 H1309 0.959 1_545 S
C1323 H1310 0.962 . S
C1323 H1311 0.959 . S
C1323 C1321 1.561 . S
C1324 C1321 1.524 . S
C1324 C1325 1.396 . S
C1324 C1329 1.390 . S
C1325 C1319 1.465 1_545 S
C1325 C1324 1.396 . S
C1325 C1326 1.399 . S
C1326 H1312 0.929 . S
C1326 C1325 1.399 . S
C1326 C1327 1.385 . S
C1327 H1313 0.931 . S
C1327 C1326 1.385 . S
C1327 C1328 1.389 . S
C1328 C1327 1.389 . S
C1328 C1329 1.387 . S
C1329 H1314 0.930 . S
C1329 C1324 1.390 . S
C1329 C1328 1.387 . S
H1330 C1342 0.930 . S
H1331 C1344 0.930 . S
H1332 C1345 0.930 . S
H1333 C1349 0.962 . S
H1334 C1349 0.978 . S
H1335 C1349 0.941 1_455 S
H1336 C1350 0.959 1_455 S
H1337 C1350 0.962 . S
H1338 C1350 0.959 . S
H1339 C1353 0.929 . S
H1340 C1354 0.931 . S
H1341 C1356 0.930 . S
C1342 H1330 0.930 . S
C1342 C1343 1.399 . S
C1342 C1347 1.399 . S
C1343 C1342 1.399 . S
C1343 C1344 1.376 . S
C1344 H1331 0.930 . S
C1344 C1343 1.376 . S
C1344 C1345 1.388 . S
C1345 H1332 0.930 . S
C1345 C1344 1.388 . S
C1345 C1346 1.390 . S
C1346 C1345 1.390 . S
C1346 C1347 1.394 . S
C1346 C1352 1.465 1_455 S
C1347 C1342 1.399 . S
C1347 C1346 1.394 . S
C1347 C1348 1.518 1_455 S
C1348 C1347 1.518 1_655 S
C1348 C1349 1.502 . S
C1348 C1350 1.561 . S
C1348 C1351 1.524 . S
C1349 H1333 0.962 . S
C1349 H1334 0.978 . S
C1349 H1335 0.941 1_655 S
C1349 C1348 1.502 . S
C1350 H1336 0.959 1_655 S
C1350 H1337 0.962 . S
C1350 H1338 0.959 . S
C1350 C1348 1.561 . S
C1351 C1348 1.524 . S
C1351 C1352 1.396 . S
C1351 C1356 1.390 . S
C1352 C1346 1.465 1_655 S
C1352 C1351 1.396 . S
C1352 C1353 1.399 . S
C1353 H1339 0.929 . S
C1353 C1352 1.399 . S
C1353 C1354 1.385 . S
C1354 H1340 0.931 . S
C1354 C1353 1.385 . S
C1354 C1355 1.389 . S
C1355 C1354 1.389 . S
C1355 C1356 1.387 . S
C1356 H1341 0.930 . S
C1356 C1351 1.390 . S
C1356 C1355 1.387 . S
H1357 C1369 0.930 . S
H1358 C1371 0.930 . S
H1359 C1372 0.930 . S
H1360 C1376 0.962 . S
H1361 C1376 0.978 . S
H1362 C1376 0.941 1_545 S
H1363 C1377 0.959 1_545 S
H1364 C1377 0.962 . S
H1365 C1377 0.959 . S
H1366 C1380 0.929 . S
H1367 C1381 0.931 . S
H1368 C1383 0.930 . S
C1369 H1357 0.930 . S
C1369 C1370 1.399 . S
C1369 C1374 1.399 . S
C1370 C1369 1.399 . S
C1370 C1371 1.376 . S
C1371 H1358 0.930 . S
C1371 C1370 1.376 . S
C1371 C1372 1.388 . S
C1372 H1359 0.930 . S
C1372 C1371 1.388 . S
C1372 C1373 1.390 . S
C1373 C1372 1.390 . S
C1373 C1374 1.394 . S
C1373 C1379 1.465 1_545 S
C1374 C1369 1.399 . S
C1374 C1373 1.394 . S
C1374 C1375 1.518 1_545 S
C1375 C1374 1.518 1_565 S
C1375 C1376 1.502 . S
C1375 C1377 1.561 . S
C1375 C1378 1.524 . S
C1376 H1360 0.962 . S
C1376 H1361 0.978 . S
C1376 H1362 0.941 1_565 S
C1376 C1375 1.502 . S
C1377 H1363 0.959 1_565 S
C1377 H1364 0.962 . S
C1377 H1365 0.959 . S
C1377 C1375 1.561 . S
C1378 C1375 1.524 . S
C1378 C1379 1.396 . S
C1378 C1383 1.390 . S
C1379 C1373 1.465 1_565 S
C1379 C1378 1.396 . S
C1379 C1380 1.399 . S
C1380 H1366 0.929 . S
C1380 C1379 1.399 . S
C1380 C1381 1.385 . S
C1381 H1367 0.931 . S
C1381 C1380 1.385 . S
C1381 C1382 1.389 . S
C1382 C1381 1.389 . S
C1382 C1383 1.387 . S
C1383 H1368 0.930 . S
C1383 C1378 1.390 . S
C1383 C1382 1.387 . S
H1384 C1396 0.930 . S
H1385 C1398 0.930 . S
H1386 C1399 0.930 . S
H1387 C1403 0.959 . S
H1388 C1403 0.959 . S
H1389 C1403 0.961 . S
H1390 C1404 0.960 . S
H1391 C1404 0.961 . S
H1392 C1404 0.959 . S
H1393 C1407 0.929 . S
H1394 C1408 0.931 . S
H1395 C1410 0.930 . S
C1396 H1384 0.930 . S
C1396 C1397 1.399 . S
C1396 C1401 1.399 . S
C1397 C1396 1.399 . S
C1397 C1398 1.376 . S
C1398 H1385 0.930 . S
C1398 C1397 1.376 . S
C1398 C1399 1.388 . S
C1399 H1386 0.930 . S
C1399 C1398 1.388 . S
C1399 C1400 1.390 . S
C1400 C1399 1.390 . S
C1400 C1401 1.394 . S
C1400 C1406 1.465 . S
C1401 C1396 1.399 . S
C1401 C1400 1.394 . S
C1401 C1402 1.516 . S
C1402 C1401 1.516 . S
C1402 C1403 1.502 . S
C1402 C1404 1.561 . S
C1402 C1405 1.526 . S
C1403 H1387 0.959 . S
C1403 H1388 0.959 . S
C1403 H1389 0.961 . S
C1403 C1402 1.502 . S
C1404 H1390 0.960 . S
C1404 H1391 0.961 . S
C1404 H1392 0.959 . S
C1404 C1402 1.561 . S
C1405 C1402 1.526 . S
C1405 C1406 1.396 . S
C1405 C1410 1.390 . S
C1406 C1400 1.465 . S
C1406 C1405 1.396 . S
C1406 C1407 1.399 . S
C1407 H1393 0.929 . S
C1407 C1406 1.399 . S
C1407 C1408 1.385 . S
C1408 H1394 0.931 . S
C1408 C1407 1.385 . S
C1408 C1409 1.389 . S
C1409 C1408 1.389 . S
C1409 C1410 1.387 . S
C1410 H1395 0.930 . S
C1410 C1405 1.390 . S
C1410 C1409 1.387 . S
H1411 C1423 0.930 . S
H1412 C1425 0.930 . S
H1413 C1426 0.930 . S
H1414 C1430 0.959 . S
H1415 C1430 0.959 . S
H1416 C1430 0.961 . S
H1417 C1431 0.960 . S
H1418 C1431 0.961 . S
H1419 C1431 0.959 . S
H1420 C1434 0.929 . S
H1421 C1435 0.931 . S
H1422 C1437 0.930 . S
C1423 H1411 0.930 . S
C1423 C1424 1.399 . S
C1423 C1428 1.399 . S
C1424 C1423 1.399 . S
C1424 C1425 1.376 . S
C1425 H1412 0.930 . S
C1425 C1424 1.376 . S
C1425 C1426 1.388 . S
C1426 H1413 0.930 . S
C1426 C1425 1.388 . S
C1426 C1427 1.390 . S
C1427 C1426 1.390 . S
C1427 C1428 1.394 . S
C1427 C1433 1.465 . S
C1428 C1423 1.399 . S
C1428 C1427 1.394 . S
C1428 C1429 1.516 . S
C1429 C1428 1.516 . S
C1429 C1430 1.502 . S
C1429 C1431 1.561 . S
C1429 C1432 1.526 . S
C1430 H1414 0.959 . S
C1430 H1415 0.959 . S
C1430 H1416 0.961 . S
C1430 C1429 1.502 . S
C1431 H1417 0.960 . S
C1431 H1418 0.961 . S
C1431 H1419 0.959 . S
C1431 C1429 1.561 . S
C1432 C1429 1.526 . S
C1432 C1433 1.396 . S
C1432 C1437 1.390 . S
C1433 C1427 1.465 . S
C1433 C1432 1.396 . S
C1433 C1434 1.399 . S
C1434 H1420 0.929 . S
C1434 C1433 1.399 . S
C1434 C1435 1.385 . S
C1435 H1421 0.931 . S
C1435 C1434 1.385 . S
C1435 C1436 1.389 . S
C1436 C1435 1.389 . S
C1436 C1437 1.387 . S
C1437 H1422 0.930 . S
C1437 C1432 1.390 . S
C1437 C1436 1.387 . S
H1438 C1450 0.930 . S
H1439 C1452 0.930 . S
H1440 C1453 0.930 . S
H1441 C1457 0.959 . S
H1442 C1457 0.959 . S
H1443 C1457 0.961 . S
H1444 C1458 0.960 . S
H1445 C1458 0.961 . S
H1446 C1458 0.959 . S
H1447 C1461 0.929 . S
H1448 C1462 0.931 . S
H1449 C1464 0.930 . S
C1450 H1438 0.930 . S
C1450 C1451 1.399 . S
C1450 C1455 1.399 . S
C1451 C1450 1.399 . S
C1451 C1452 1.376 . S
C1452 H1439 0.930 . S
C1452 C1451 1.376 . S
C1452 C1453 1.388 . S
C1453 H1440 0.930 . S
C1453 C1452 1.388 . S
C1453 C1454 1.390 . S
C1454 C1453 1.390 . S
C1454 C1455 1.394 . S
C1454 C1460 1.465 . S
C1455 C1450 1.399 . S
C1455 C1454 1.394 . S
C1455 C1456 1.516 . S
C1456 C1455 1.516 . S
C1456 C1457 1.502 . S
C1456 C1458 1.561 . S
C1456 C1459 1.526 . S
C1457 H1441 0.959 . S
C1457 H1442 0.959 . S
C1457 H1443 0.961 . S
C1457 C1456 1.502 . S
C1458 H1444 0.960 . S
C1458 H1445 0.961 . S
C1458 H1446 0.959 . S
C1458 C1456 1.561 . S
C1459 C1456 1.526 . S
C1459 C1460 1.396 . S
C1459 C1464 1.390 . S
C1460 C1454 1.465 . S
C1460 C1459 1.396 . S
C1460 C1461 1.399 . S
C1461 H1447 0.929 . S
C1461 C1460 1.399 . S
C1461 C1462 1.385 . S
C1462 H1448 0.931 . S
C1462 C1461 1.385 . S
C1462 C1463 1.389 . S
C1463 C1462 1.389 . S
C1463 C1464 1.387 . S
C1464 H1449 0.930 . S
C1464 C1459 1.390 . S
C1464 C1463 1.387 . S
H1465 C1477 0.930 . S
H1466 C1479 0.930 . S
H1467 C1480 0.930 . S
H1468 C1484 0.959 . S
H1469 C1484 0.959 . S
H1470 C1484 0.961 . S
H1471 C1485 0.960 . S
H1472 C1485 0.961 . S
H1473 C1485 0.959 . S
H1474 C1488 0.929 . S
H1475 C1489 0.931 . S
H1476 C1491 0.930 . S
C1477 H1465 0.930 . S
C1477 C1478 1.399 . S
C1477 C1482 1.399 . S
C1478 C1477 1.399 . S
C1478 C1479 1.376 . S
C1479 H1466 0.930 . S
C1479 C1478 1.376 . S
C1479 C1480 1.388 . S
C1480 H1467 0.930 . S
C1480 C1479 1.388 . S
C1480 C1481 1.390 . S
C1481 C1480 1.390 . S
C1481 C1482 1.394 . S
C1481 C1487 1.465 . S
C1482 C1477 1.399 . S
C1482 C1481 1.394 . S
C1482 C1483 1.516 . S
C1483 C1482 1.516 . S
C1483 C1484 1.502 . S
C1483 C1485 1.561 . S
C1483 C1486 1.526 . S
C1484 H1468 0.959 . S
C1484 H1469 0.959 . S
C1484 H1470 0.961 . S
C1484 C1483 1.502 . S
C1485 H1471 0.960 . S
C1485 H1472 0.961 . S
C1485 H1473 0.959 . S
C1485 C1483 1.561 . S
C1486 C1483 1.526 . S
C1486 C1487 1.396 . S
C1486 C1491 1.390 . S
C1487 C1481 1.465 . S
C1487 C1486 1.396 . S
C1487 C1488 1.399 . S
C1488 H1474 0.929 . S
C1488 C1487 1.399 . S
C1488 C1489 1.385 . S
C1489 H1475 0.931 . S
C1489 C1488 1.385 . S
C1489 C1490 1.389 . S
C1490 C1489 1.389 . S
C1490 C1491 1.387 . S
C1491 H1476 0.930 . S
C1491 C1486 1.390 . S
C1491 C1490 1.387 . S
H1492 C1504 0.930 . S
H1493 C1506 0.930 . S
H1494 C1507 0.930 . S
H1495 C1511 0.959 . S
H1496 C1511 0.959 . S
H1497 C1511 0.961 . S
H1498 C1512 0.960 . S
H1499 C1512 0.961 . S
H1500 C1512 0.959 . S
H1501 C1515 0.929 . S
H1502 C1516 0.931 . S
H1503 C1518 0.930 . S
C1504 H1492 0.930 . S
C1504 C1505 1.399 . S
C1504 C1509 1.399 . S
C1505 C1504 1.399 . S
C1505 C1506 1.376 . S
C1506 H1493 0.930 . S
C1506 C1505 1.376 . S
C1506 C1507 1.388 . S
C1507 H1494 0.930 . S
C1507 C1506 1.388 . S
C1507 C1508 1.390 . S
C1508 C1507 1.390 . S
C1508 C1509 1.394 . S
C1508 C1514 1.465 . S
C1509 C1504 1.399 . S
C1509 C1508 1.394 . S
C1509 C1510 1.516 . S
C1510 C1509 1.516 . S
C1510 C1511 1.502 . S
C1510 C1512 1.561 . S
C1510 C1513 1.526 . S
C1511 H1495 0.959 . S
C1511 H1496 0.959 . S
C1511 H1497 0.961 . S
C1511 C1510 1.502 . S
C1512 H1498 0.960 . S
C1512 H1499 0.961 . S
C1512 H1500 0.959 . S
C1512 C1510 1.561 . S
C1513 C1510 1.526 . S
C1513 C1514 1.396 . S
C1513 C1518 1.390 . S
C1514 C1508 1.465 . S
C1514 C1513 1.396 . S
C1514 C1515 1.399 . S
C1515 H1501 0.929 . S
C1515 C1514 1.399 . S
C1515 C1516 1.385 . S
C1516 H1502 0.931 . S
C1516 C1515 1.385 . S
C1516 C1517 1.389 . S
C1517 C1516 1.389 . S
C1517 C1518 1.387 . S
C1518 H1503 0.930 . S
C1518 C1513 1.390 . S
C1518 C1517 1.387 . S
H1519 C1531 0.930 . S
H1520 C1533 0.930 . S
H1521 C1534 0.930 . S
H1522 C1538 0.959 . S
H1523 C1538 0.959 . S
H1524 C1538 0.961 . S
H1525 C1539 0.960 . S
H1526 C1539 0.961 . S
H1527 C1539 0.959 . S
H1528 C1542 0.929 . S
H1529 C1543 0.931 . S
H1530 C1545 0.930 . S
C1531 H1519 0.930 . S
C1531 C1532 1.399 . S
C1531 C1536 1.399 . S
C1532 C1531 1.399 . S
C1532 C1533 1.376 . S
C1533 H1520 0.930 . S
C1533 C1532 1.376 . S
C1533 C1534 1.388 . S
C1534 H1521 0.930 . S
C1534 C1533 1.388 . S
C1534 C1535 1.390 . S
C1535 C1534 1.390 . S
C1535 C1536 1.394 . S
C1535 C1541 1.465 . S
C1536 C1531 1.399 . S
C1536 C1535 1.394 . S
C1536 C1537 1.516 . S
C1537 C1536 1.516 . S
C1537 C1538 1.502 . S
C1537 C1539 1.561 . S
C1537 C1540 1.526 . S
C1538 H1522 0.959 . S
C1538 H1523 0.959 . S
C1538 H1524 0.961 . S
C1538 C1537 1.502 . S
C1539 H1525 0.960 . S
C1539 H1526 0.961 . S
C1539 H1527 0.959 . S
C1539 C1537 1.561 . S
C1540 C1537 1.526 . S
C1540 C1541 1.396 . S
C1540 C1545 1.390 . S
C1541 C1535 1.465 . S
C1541 C1540 1.396 . S
C1541 C1542 1.399 . S
C1542 H1528 0.929 . S
C1542 C1541 1.399 . S
C1542 C1543 1.385 . S
C1543 H1529 0.931 . S
C1543 C1542 1.385 . S
C1543 C1544 1.389 . S
C1544 C1543 1.389 . S
C1544 C1545 1.387 . S
C1545 H1530 0.930 . S
C1545 C1540 1.390 . S
C1545 C1544 1.387 . S
H1546 C1558 0.930 . S
H1547 C1560 0.930 . S
H1548 C1561 0.930 . S
H1549 C1565 0.959 . S
H1550 C1565 0.959 . S
H1551 C1565 0.961 . S
H1552 C1566 0.960 . S
H1553 C1566 0.961 . S
H1554 C1566 0.959 . S
H1555 C1569 0.929 . S
H1556 C1570 0.931 . S
H1557 C1572 0.930 . S
C1558 H1546 0.930 . S
C1558 C1559 1.399 . S
C1558 C1563 1.399 . S
C1559 C1558 1.399 . S
C1559 C1560 1.376 . S
C1560 H1547 0.930 . S
C1560 C1559 1.376 . S
C1560 C1561 1.388 . S
C1561 H1548 0.930 . S
C1561 C1560 1.388 . S
C1561 C1562 1.390 . S
C1562 C1561 1.390 . S
C1562 C1563 1.394 . S
C1562 C1568 1.465 . S
C1563 C1558 1.399 . S
C1563 C1562 1.394 . S
C1563 C1564 1.516 . S
C1564 C1563 1.516 . S
C1564 C1565 1.502 . S
C1564 C1566 1.561 . S
C1564 C1567 1.526 . S
C1565 H1549 0.959 . S
C1565 H1550 0.959 . S
C1565 H1551 0.961 . S
C1565 C1564 1.502 . S
C1566 H1552 0.960 . S
C1566 H1553 0.961 . S
C1566 H1554 0.959 . S
C1566 C1564 1.561 . S
C1567 C1564 1.526 . S
C1567 C1568 1.396 . S
C1567 C1572 1.390 . S
C1568 C1562 1.465 . S
C1568 C1567 1.396 . S
C1568 C1569 1.399 . S
C1569 H1555 0.929 . S
C1569 C1568 1.399 . S
C1569 C1570 1.385 . S
C1570 H1556 0.931 . S
C1570 C1569 1.385 . S
C1570 C1571 1.389 . S
C1571 C1570 1.389 . S
C1571 C1572 1.387 . S
C1572 H1557 0.930 . S
C1572 C1567 1.390 . S
C1572 C1571 1.387 . S
H1573 C1585 0.930 . S
H1574 C1587 0.930 . S
H1575 C1588 0.930 . S
H1576 C1592 0.959 . S
H1577 C1592 0.959 . S
H1578 C1592 0.961 . S
H1579 C1593 0.960 . S
H1580 C1593 0.961 . S
H1581 C1593 0.959 . S
H1582 C1596 0.929 . S
H1583 C1597 0.931 . S
H1584 C1599 0.930 . S
C1585 H1573 0.930 . S
C1585 C1586 1.399 . S
C1585 C1590 1.399 . S
C1586 C1585 1.399 . S
C1586 C1587 1.376 . S
C1587 H1574 0.930 . S
C1587 C1586 1.376 . S
C1587 C1588 1.388 . S
C1588 H1575 0.930 . S
C1588 C1587 1.388 . S
C1588 C1589 1.390 . S
C1589 C1588 1.390 . S
C1589 C1590 1.394 . S
C1589 C1595 1.465 . S
C1590 C1585 1.399 . S
C1590 C1589 1.394 . S
C1590 C1591 1.516 . S
C1591 C1590 1.516 . S
C1591 C1592 1.502 . S
C1591 C1593 1.561 . S
C1591 C1594 1.526 . S
C1592 H1576 0.959 . S
C1592 H1577 0.959 . S
C1592 H1578 0.961 . S
C1592 C1591 1.502 . S
C1593 H1579 0.960 . S
C1593 H1580 0.961 . S
C1593 H1581 0.959 . S
C1593 C1591 1.561 . S
C1594 C1591 1.526 . S
C1594 C1595 1.396 . S
C1594 C1599 1.390 . S
C1595 C1589 1.465 . S
C1595 C1594 1.396 . S
C1595 C1596 1.399 . S
C1596 H1582 0.929 . S
C1596 C1595 1.399 . S
C1596 C1597 1.385 . S
C1597 H1583 0.931 . S
C1597 C1596 1.385 . S
C1597 C1598 1.389 . S
C1598 C1597 1.389 . S
C1598 C1599 1.387 . S
C1599 H1584 0.930 . S
C1599 C1594 1.390 . S
C1599 C1598 1.387 . S
H1600 C1612 0.930 . S
H1601 C1614 0.930 . S
H1602 C1615 0.930 . S
H1603 C1619 0.959 . S
H1604 C1619 0.959 . S
H1605 C1619 0.961 . S
H1606 C1620 0.960 . S
H1607 C1620 0.961 . S
H1608 C1620 0.959 . S
H1609 C1623 0.929 . S
H1610 C1624 0.931 . S
H1611 C1626 0.930 . S
C1612 H1600 0.930 . S
C1612 C1613 1.399 . S
C1612 C1617 1.399 . S
C1613 C1612 1.399 . S
C1613 C1614 1.376 . S
C1614 H1601 0.930 . S
C1614 C1613 1.376 . S
C1614 C1615 1.388 . S
C1615 H1602 0.930 . S
C1615 C1614 1.388 . S
C1615 C1616 1.390 . S
C1616 C1615 1.390 . S
C1616 C1617 1.394 . S
C1616 C1622 1.465 . S
C1617 C1612 1.399 . S
C1617 C1616 1.394 . S
C1617 C1618 1.516 . S
C1618 C1617 1.516 . S
C1618 C1619 1.502 . S
C1618 C1620 1.561 . S
C1618 C1621 1.526 . S
C1619 H1603 0.959 . S
C1619 H1604 0.959 . S
C1619 H1605 0.961 . S
C1619 C1618 1.502 . S
C1620 H1606 0.960 . S
C1620 H1607 0.961 . S
C1620 H1608 0.959 . S
C1620 C1618 1.561 . S
C1621 C1618 1.526 . S
C1621 C1622 1.396 . S
C1621 C1626 1.390 . S
C1622 C1616 1.465 . S
C1622 C1621 1.396 . S
C1622 C1623 1.399 . S
C1623 H1609 0.929 . S
C1623 C1622 1.399 . S
C1623 C1624 1.385 . S
C1624 H1610 0.931 . S
C1624 C1623 1.385 . S
C1624 C1625 1.389 . S
C1625 C1624 1.389 . S
C1625 C1626 1.387 . S
C1626 H1611 0.930 . S
C1626 C1621 1.390 . S
C1626 C1625 1.387 . S
H1627 C1639 0.930 . S
H1628 C1641 0.930 . S
H1629 C1642 0.930 . S
H1630 C1646 0.959 . S
H1631 C1646 0.959 . S
H1632 C1646 0.961 . S
H1633 C1647 0.960 . S
H1634 C1647 0.961 . S
H1635 C1647 0.959 . S
H1636 C1650 0.929 . S
H1637 C1651 0.931 . S
H1638 C1653 0.930 . S
C1639 H1627 0.930 . S
C1639 C1640 1.399 . S
C1639 C1644 1.399 . S
C1640 C1639 1.399 . S
C1640 C1641 1.376 . S
C1641 H1628 0.930 . S
C1641 C1640 1.376 . S
C1641 C1642 1.388 . S
C1642 H1629 0.930 . S
C1642 C1641 1.388 . S
C1642 C1643 1.390 . S
C1643 C1642 1.390 . S
C1643 C1644 1.394 . S
C1643 C1649 1.465 . S
C1644 C1639 1.399 . S
C1644 C1643 1.394 . S
C1644 C1645 1.516 . S
C1645 C1644 1.516 . S
C1645 C1646 1.502 . S
C1645 C1647 1.561 . S
C1645 C1648 1.526 . S
C1646 H1630 0.959 . S
C1646 H1631 0.959 . S
C1646 H1632 0.961 . S
C1646 C1645 1.502 . S
C1647 H1633 0.960 . S
C1647 H1634 0.961 . S
C1647 H1635 0.959 . S
C1647 C1645 1.561 . S
C1648 C1645 1.526 . S
C1648 C1649 1.396 . S
C1648 C1653 1.390 . S
C1649 C1643 1.465 . S
C1649 C1648 1.396 . S
C1649 C1650 1.399 . S
C1650 H1636 0.929 . S
C1650 C1649 1.399 . S
C1650 C1651 1.385 . S
C1651 H1637 0.931 . S
C1651 C1650 1.385 . S
C1651 C1652 1.389 . S
C1652 C1651 1.389 . S
C1652 C1653 1.387 . S
C1653 H1638 0.930 . S
C1653 C1648 1.390 . S
C1653 C1652 1.387 . S
H1654 C1666 0.930 . S
H1655 C1668 0.930 . S
H1656 C1669 0.930 . S
H1657 C1673 0.959 . S
H1658 C1673 0.959 . S
H1659 C1673 0.961 . S
H1660 C1674 0.960 . S
H1661 C1674 0.961 . S
H1662 C1674 0.959 . S
H1663 C1677 0.929 . S
H1664 C1678 0.931 . S
H1665 C1680 0.930 . S
C1666 H1654 0.930 . S
C1666 C1667 1.399 . S
C1666 C1671 1.399 . S
C1667 C1666 1.399 . S
C1667 C1668 1.376 . S
C1668 H1655 0.930 . S
C1668 C1667 1.376 . S
C1668 C1669 1.388 . S
C1669 H1656 0.930 . S
C1669 C1668 1.388 . S
C1669 C1670 1.390 . S
C1670 C1669 1.390 . S
C1670 C1671 1.394 . S
C1670 C1676 1.465 . S
C1671 C1666 1.399 . S
C1671 C1670 1.394 . S
C1671 C1672 1.516 . S
C1672 C1671 1.516 . S
C1672 C1673 1.502 . S
C1672 C1674 1.561 . S
C1672 C1675 1.526 . S
C1673 H1657 0.959 . S
C1673 H1658 0.959 . S
C1673 H1659 0.961 . S
C1673 C1672 1.502 . S
C1674 H1660 0.960 . S
C1674 H1661 0.961 . S
C1674 H1662 0.959 . S
C1674 C1672 1.561 . S
C1675 C1672 1.526 . S
C1675 C1676 1.396 . S
C1675 C1680 1.390 . S
C1676 C1670 1.465 . S
C1676 C1675 1.396 . S
C1676 C1677 1.399 . S
C1677 H1663 0.929 . S
C1677 C1676 1.399 . S
C1677 C1678 1.385 . S
C1678 H1664 0.931 . S
C1678 C1677 1.385 . S
C1678 C1679 1.389 . S
C1679 C1678 1.389 . S
C1679 C1680 1.387 . S
C1680 H1665 0.930 . S
C1680 C1675 1.390 . S
C1680 C1679 1.387 . S
H1681 C1693 0.930 . S
H1682 C1695 0.930 . S
H1683 C1696 0.930 . S
H1684 C1700 0.959 . S
H1685 C1700 0.959 . S
H1686 C1700 0.961 . S
H1687 C1701 0.960 . S
H1688 C1701 0.961 . S
H1689 C1701 0.959 . S
H1690 C1704 0.929 . S
H1691 C1705 0.931 . S
H1692 C1707 0.930 . S
C1693 H1681 0.930 . S
C1693 C1694 1.399 . S
C1693 C1698 1.399 . S
C1694 C1693 1.399 . S
C1694 C1695 1.376 . S
C1695 H1682 0.930 . S
C1695 C1694 1.376 . S
C1695 C1696 1.388 . S
C1696 H1683 0.930 . S
C1696 C1695 1.388 . S
C1696 C1697 1.390 . S
C1697 C1696 1.390 . S
C1697 C1698 1.394 . S
C1697 C1703 1.465 . S
C1698 C1693 1.399 . S
C1698 C1697 1.394 . S
C1698 C1699 1.516 . S
C1699 C1698 1.516 . S
C1699 C1700 1.502 . S
C1699 C1701 1.561 . S
C1699 C1702 1.526 . S
C1700 H1684 0.959 . S
C1700 H1685 0.959 . S
C1700 H1686 0.961 . S
C1700 C1699 1.502 . S
C1701 H1687 0.960 . S
C1701 H1688 0.961 . S
C1701 H1689 0.959 . S
C1701 C1699 1.561 . S
C1702 C1699 1.526 . S
C1702 C1703 1.396 . S
C1702 C1707 1.390 . S
C1703 C1697 1.465 . S
C1703 C1702 1.396 . S
C1703 C1704 1.399 . S
C1704 H1690 0.929 . S
C1704 C1703 1.399 . S
C1704 C1705 1.385 . S
C1705 H1691 0.931 . S
C1705 C1704 1.385 . S
C1705 C1706 1.389 . S
C1706 C1705 1.389 . S
C1706 C1707 1.387 . S
C1707 H1692 0.930 . S
C1707 C1702 1.390 . S
C1707 C1706 1.387 . S
H1708 C1720 0.930 . S
H1709 C1722 0.930 . S
H1710 C1723 0.930 . S
H1711 C1727 0.959 . S
H1712 C1727 0.959 . S
H1713 C1727 0.961 . S
H1714 C1728 0.960 . S
H1715 C1728 0.961 . S
H1716 C1728 0.959 . S
H1717 C1731 0.929 . S
H1718 C1732 0.931 . S
H1719 C1734 0.930 . S
C1720 H1708 0.930 . S
C1720 C1721 1.399 . S
C1720 C1725 1.399 . S
C1721 C1720 1.399 . S
C1721 C1722 1.376 . S
C1722 H1709 0.930 . S
C1722 C1721 1.376 . S
C1722 C1723 1.388 . S
C1723 H1710 0.930 . S
C1723 C1722 1.388 . S
C1723 C1724 1.390 . S
C1724 C1723 1.390 . S
C1724 C1725 1.394 . S
C1724 C1730 1.465 . S
C1725 C1720 1.399 . S
C1725 C1724 1.394 . S
C1725 C1726 1.516 . S
C1726 C1725 1.516 . S
C1726 C1727 1.502 . S
C1726 C1728 1.561 . S
C1726 C1729 1.526 . S
C1727 H1711 0.959 . S
C1727 H1712 0.959 . S
C1727 H1713 0.961 . S
C1727 C1726 1.502 . S
C1728 H1714 0.960 . S
C1728 H1715 0.961 . S
C1728 H1716 0.959 . S
C1728 C1726 1.561 . S
C1729 C1726 1.526 . S
C1729 C1730 1.396 . S
C1729 C1734 1.390 . S
C1730 C1724 1.465 . S
C1730 C1729 1.396 . S
C1730 C1731 1.399 . S
C1731 H1717 0.929 . S
C1731 C1730 1.399 . S
C1731 C1732 1.385 . S
C1732 H1718 0.931 . S
C1732 C1731 1.385 . S
C1732 C1733 1.389 . S
C1733 C1732 1.389 . S
C1733 C1734 1.387 . S
C1734 H1719 0.930 . S
C1734 C1729 1.390 . S
C1734 C1733 1.387 . S
H1735 C1747 0.930 . S
H1736 C1749 0.930 . S
H1737 C1750 0.930 . S
H1738 C1754 0.959 . S
H1739 C1754 0.959 . S
H1740 C1754 0.961 . S
H1741 C1755 0.960 . S
H1742 C1755 0.961 . S
H1743 C1755 0.959 . S
H1744 C1758 0.929 . S
H1745 C1759 0.931 . S
H1746 C1761 0.930 . S
C1747 H1735 0.930 . S
C1747 C1748 1.399 . S
C1747 C1752 1.399 . S
C1748 C1747 1.399 . S
C1748 C1749 1.376 . S
C1749 H1736 0.930 . S
C1749 C1748 1.376 . S
C1749 C1750 1.388 . S
C1750 H1737 0.930 . S
C1750 C1749 1.388 . S
C1750 C1751 1.390 . S
C1751 C1750 1.390 . S
C1751 C1752 1.394 . S
C1751 C1757 1.465 . S
C1752 C1747 1.399 . S
C1752 C1751 1.394 . S
C1752 C1753 1.516 . S
C1753 C1752 1.516 . S
C1753 C1754 1.502 . S
C1753 C1755 1.561 . S
C1753 C1756 1.526 . S
C1754 H1738 0.959 . S
C1754 H1739 0.959 . S
C1754 H1740 0.961 . S
C1754 C1753 1.502 . S
C1755 H1741 0.960 . S
C1755 H1742 0.961 . S
C1755 H1743 0.959 . S
C1755 C1753 1.561 . S
C1756 C1753 1.526 . S
C1756 C1757 1.396 . S
C1756 C1761 1.390 . S
C1757 C1751 1.465 . S
C1757 C1756 1.396 . S
C1757 C1758 1.399 . S
C1758 H1744 0.929 . S
C1758 C1757 1.399 . S
C1758 C1759 1.385 . S
C1759 H1745 0.931 . S
C1759 C1758 1.385 . S
C1759 C1760 1.389 . S
C1760 C1759 1.389 . S
C1760 C1761 1.387 . S
C1761 H1746 0.930 . S
C1761 C1756 1.390 . S
C1761 C1760 1.387 . S
H1762 C1774 0.930 . S
H1763 C1776 0.930 . S
H1764 C1777 0.930 . S
H1765 C1781 0.959 . S
H1766 C1781 0.959 . S
H1767 C1781 0.961 . S
H1768 C1782 0.960 . S
H1769 C1782 0.961 . S
H1770 C1782 0.959 . S
H1771 C1785 0.929 . S
H1772 C1786 0.931 . S
H1773 C1788 0.930 . S
C1774 H1762 0.930 . S
C1774 C1775 1.399 . S
C1774 C1779 1.399 . S
C1775 C1774 1.399 . S
C1775 C1776 1.376 . S
C1776 H1763 0.930 . S
C1776 C1775 1.376 . S
C1776 C1777 1.388 . S
C1777 H1764 0.930 . S
C1777 C1776 1.388 . S
C1777 C1778 1.390 . S
C1778 C1777 1.390 . S
C1778 C1779 1.394 . S
C1778 C1784 1.465 . S
C1779 C1774 1.399 . S
C1779 C1778 1.394 . S
C1779 C1780 1.516 . S
C1780 C1779 1.516 . S
C1780 C1781 1.502 . S
C1780 C1782 1.561 . S
C1780 C1783 1.526 . S
C1781 H1765 0.959 . S
C1781 H1766 0.959 . S
C1781 H1767 0.961 . S
C1781 C1780 1.502 . S
C1782 H1768 0.960 . S
C1782 H1769 0.961 . S
C1782 H1770 0.959 . S
C1782 C1780 1.561 . S
C1783 C1780 1.526 . S
C1783 C1784 1.396 . S
C1783 C1788 1.390 . S
C1784 C1778 1.465 . S
C1784 C1783 1.396 . S
C1784 C1785 1.399 . S
C1785 H1771 0.929 . S
C1785 C1784 1.399 . S
C1785 C1786 1.385 . S
C1786 H1772 0.931 . S
C1786 C1785 1.385 . S
C1786 C1787 1.389 . S
C1787 C1786 1.389 . S
C1787 C1788 1.387 . S
C1788 H1773 0.930 . S
C1788 C1783 1.390 . S
C1788 C1787 1.387 . S
H1789 C1801 0.930 . S
H1790 C1803 0.930 . S
H1791 C1804 0.930 . S
H1792 C1808 0.959 . S
H1793 C1808 0.959 . S
H1794 C1808 0.961 . S
H1795 C1809 0.960 . S
H1796 C1809 0.961 . S
H1797 C1809 0.959 . S
H1798 C1812 0.929 . S
H1799 C1813 0.931 . S
H1800 C1815 0.930 . S
C1801 H1789 0.930 . S
C1801 C1802 1.399 . S
C1801 C1806 1.399 . S
C1802 C1801 1.399 . S
C1802 C1803 1.376 . S
C1803 H1790 0.930 . S
C1803 C1802 1.376 . S
C1803 C1804 1.388 . S
C1804 H1791 0.930 . S
C1804 C1803 1.388 . S
C1804 C1805 1.390 . S
C1805 C1804 1.390 . S
C1805 C1806 1.394 . S
C1805 C1811 1.465 . S
C1806 C1801 1.399 . S
C1806 C1805 1.394 . S
C1806 C1807 1.516 . S
C1807 C1806 1.516 . S
C1807 C1808 1.502 . S
C1807 C1809 1.561 . S
C1807 C1810 1.526 . S
C1808 H1792 0.959 . S
C1808 H1793 0.959 . S
C1808 H1794 0.961 . S
C1808 C1807 1.502 . S
C1809 H1795 0.960 . S
C1809 H1796 0.961 . S
C1809 H1797 0.959 . S
C1809 C1807 1.561 . S
C1810 C1807 1.526 . S
C1810 C1811 1.396 . S
C1810 C1815 1.390 . S
C1811 C1805 1.465 . S
C1811 C1810 1.396 . S
C1811 C1812 1.399 . S
C1812 H1798 0.929 . S
C1812 C1811 1.399 . S
C1812 C1813 1.385 . S
C1813 H1799 0.931 . S
C1813 C1812 1.385 . S
C1813 C1814 1.389 . S
C1814 C1813 1.389 . S
C1814 C1815 1.387 . S
C1815 H1800 0.930 . S
C1815 C1810 1.390 . S
C1815 C1814 1.387 . S
H1816 C1828 0.930 . S
H1817 C1830 0.930 . S
H1818 C1831 0.930 . S
H1819 C1835 0.962 . S
H1820 C1835 0.979 . S
H1821 C1835 0.940 1_554 S
H1822 C1836 0.958 1_554 S
H1823 C1836 0.963 . S
H1824 C1836 0.959 . S
H1825 C1839 0.929 . S
H1826 C1840 0.931 . S
H1827 C1842 0.930 . S
C1828 H1816 0.930 . S
C1828 C1829 1.399 . S
C1828 C1833 1.399 . S
C1829 C1828 1.399 . S
C1829 C1830 1.376 . S
C1830 H1817 0.930 . S
C1830 C1829 1.376 . S
C1830 C1831 1.388 . S
C1831 H1818 0.930 . S
C1831 C1830 1.388 . S
C1831 C1832 1.390 . S
C1832 C1831 1.390 . S
C1832 C1833 1.394 . S
C1832 C1838 1.465 1_554 S
C1833 C1828 1.399 . S
C1833 C1832 1.394 . S
C1833 C1834 1.517 1_554 S
C1834 C1833 1.517 1_556 S
C1834 C1835 1.502 . S
C1834 C1836 1.561 . S
C1834 C1837 1.525 . S
C1835 H1819 0.962 . S
C1835 H1820 0.979 . S
C1835 H1821 0.940 1_556 S
C1835 C1834 1.502 . S
C1836 H1822 0.958 1_556 S
C1836 H1823 0.963 . S
C1836 H1824 0.959 . S
C1836 C1834 1.561 . S
C1837 C1834 1.525 . S
C1837 C1838 1.396 . S
C1837 C1842 1.390 . S
C1838 C1832 1.465 1_556 S
C1838 C1837 1.396 . S
C1838 C1839 1.399 . S
C1839 H1825 0.929 . S
C1839 C1838 1.399 . S
C1839 C1840 1.385 . S
C1840 H1826 0.931 . S
C1840 C1839 1.385 . S
C1840 C1841 1.389 . S
C1841 C1840 1.389 . S
C1841 C1842 1.387 . S
C1842 H1827 0.930 . S
C1842 C1837 1.390 . S
C1842 C1841 1.387 . S
H1843 C1855 0.930 . S
H1844 C1857 0.930 . S
H1845 C1858 0.930 . S
H1846 C1862 0.962 . S
H1847 C1862 0.979 . S
H1848 C1862 0.940 1_556 S
H1849 C1863 0.958 1_556 S
H1850 C1863 0.963 . S
H1851 C1863 0.959 . S
H1852 C1866 0.929 . S
H1853 C1867 0.931 . S
H1854 C1869 0.930 . S
C1855 H1843 0.930 . S
C1855 C1856 1.399 . S
C1855 C1860 1.399 . S
C1856 C1855 1.399 . S
C1856 C1857 1.376 . S
C1857 H1844 0.930 . S
C1857 C1856 1.376 . S
C1857 C1858 1.388 . S
C1858 H1845 0.930 . S
C1858 C1857 1.388 . S
C1858 C1859 1.390 . S
C1859 C1858 1.390 . S
C1859 C1860 1.394 . S
C1859 C1865 1.465 1_556 S
C1860 C1855 1.399 . S
C1860 C1859 1.394 . S
C1860 C1861 1.517 1_556 S
C1861 C1860 1.517 1_554 S
C1861 C1862 1.502 . S
C1861 C1863 1.561 . S
C1861 C1864 1.525 . S
C1862 H1846 0.962 . S
C1862 H1847 0.979 . S
C1862 H1848 0.940 1_554 S
C1862 C1861 1.502 . S
C1863 H1849 0.958 1_554 S
C1863 H1850 0.963 . S
C1863 H1851 0.959 . S
C1863 C1861 1.561 . S
C1864 C1861 1.525 . S
C1864 C1865 1.396 . S
C1864 C1869 1.390 . S
C1865 C1859 1.465 1_554 S
C1865 C1864 1.396 . S
C1865 C1866 1.399 . S
C1866 H1852 0.929 . S
C1866 C1865 1.399 . S
C1866 C1867 1.385 . S
C1867 H1853 0.931 . S
C1867 C1866 1.385 . S
C1867 C1868 1.389 . S
C1868 C1867 1.389 . S
C1868 C1869 1.387 . S
C1869 H1854 0.930 . S
C1869 C1864 1.390 . S
C1869 C1868 1.387 . S
H1870 C1882 0.930 . S
H1871 C1884 0.930 . S
H1872 C1885 0.930 . S
H1873 C1889 0.962 . S
H1874 C1889 0.979 . S
H1875 C1889 0.940 1_554 S
H1876 C1890 0.958 1_554 S
H1877 C1890 0.963 . S
H1878 C1890 0.959 . S
H1879 C1893 0.929 . S
H1880 C1894 0.931 . S
H1881 C1896 0.930 . S
C1882 H1870 0.930 . S
C1882 C1883 1.399 . S
C1882 C1887 1.399 . S
C1883 C1882 1.399 . S
C1883 C1884 1.376 . S
C1884 H1871 0.930 . S
C1884 C1883 1.376 . S
C1884 C1885 1.388 . S
C1885 H1872 0.930 . S
C1885 C1884 1.388 . S
C1885 C1886 1.390 . S
C1886 C1885 1.390 . S
C1886 C1887 1.394 . S
C1886 C1892 1.465 1_554 S
C1887 C1882 1.399 . S
C1887 C1886 1.394 . S
C1887 C1888 1.517 1_554 S
C1888 C1887 1.517 1_556 S
C1888 C1889 1.502 . S
C1888 C1890 1.561 . S
C1888 C1891 1.525 . S
C1889 H1873 0.962 . S
C1889 H1874 0.979 . S
C1889 H1875 0.940 1_556 S
C1889 C1888 1.502 . S
C1890 H1876 0.958 1_556 S
C1890 H1877 0.963 . S
C1890 H1878 0.959 . S
C1890 C1888 1.561 . S
C1891 C1888 1.525 . S
C1891 C1892 1.396 . S
C1891 C1896 1.390 . S
C1892 C1886 1.465 1_556 S
C1892 C1891 1.396 . S
C1892 C1893 1.399 . S
C1893 H1879 0.929 . S
C1893 C1892 1.399 . S
C1893 C1894 1.385 . S
C1894 H1880 0.931 . S
C1894 C1893 1.385 . S
C1894 C1895 1.389 . S
C1895 C1894 1.389 . S
C1895 C1896 1.387 . S
C1896 H1881 0.930 . S
C1896 C1891 1.390 . S
C1896 C1895 1.387 . S
H1897 C1909 0.930 . S
H1898 C1911 0.930 . S
H1899 C1912 0.930 . S
H1900 C1916 0.962 . S
H1901 C1916 0.979 . S
H1902 C1916 0.940 1_554 S
H1903 C1917 0.958 1_554 S
H1904 C1917 0.963 . S
H1905 C1917 0.959 . S
H1906 C1920 0.929 . S
H1907 C1921 0.931 . S
H1908 C1923 0.930 . S
C1909 H1897 0.930 . S
C1909 C1910 1.399 . S
C1909 C1914 1.399 . S
C1910 C1909 1.399 . S
C1910 C1911 1.376 . S
C1911 H1898 0.930 . S
C1911 C1910 1.376 . S
C1911 C1912 1.388 . S
C1912 H1899 0.930 . S
C1912 C1911 1.388 . S
C1912 C1913 1.390 . S
C1913 C1912 1.390 . S
C1913 C1914 1.394 . S
C1913 C1919 1.465 1_554 S
C1914 C1909 1.399 . S
C1914 C1913 1.394 . S
C1914 C1915 1.517 1_554 S
C1915 C1914 1.517 1_556 S
C1915 C1916 1.502 . S
C1915 C1917 1.561 . S
C1915 C1918 1.525 . S
C1916 H1900 0.962 . S
C1916 H1901 0.979 . S
C1916 H1902 0.940 1_556 S
C1916 C1915 1.502 . S
C1917 H1903 0.958 1_556 S
C1917 H1904 0.963 . S
C1917 H1905 0.959 . S
C1917 C1915 1.561 . S
C1918 C1915 1.525 . S
C1918 C1919 1.396 . S
C1918 C1923 1.390 . S
C1919 C1913 1.465 1_556 S
C1919 C1918 1.396 . S
C1919 C1920 1.399 . S
C1920 H1906 0.929 . S
C1920 C1919 1.399 . S
C1920 C1921 1.385 . S
C1921 H1907 0.931 . S
C1921 C1920 1.385 . S
C1921 C1922 1.389 . S
C1922 C1921 1.389 . S
C1922 C1923 1.387 . S
C1923 H1908 0.930 . S
C1923 C1918 1.390 . S
C1923 C1922 1.387 . S
H1924 C1936 0.930 . S
H1925 C1938 0.930 . S
H1926 C1939 0.930 . S
H1927 C1943 0.962 . S
H1928 C1943 0.979 . S
H1929 C1943 0.940 1_554 S
H1930 C1944 0.958 1_554 S
H1931 C1944 0.963 . S
H1932 C1944 0.959 . S
H1933 C1947 0.929 . S
H1934 C1948 0.931 . S
H1935 C1950 0.930 . S
C1936 H1924 0.930 . S
C1936 C1937 1.399 . S
C1936 C1941 1.399 . S
C1937 C1936 1.399 . S
C1937 C1938 1.376 . S
C1938 H1925 0.930 . S
C1938 C1937 1.376 . S
C1938 C1939 1.388 . S
C1939 H1926 0.930 . S
C1939 C1938 1.388 . S
C1939 C1940 1.390 . S
C1940 C1939 1.390 . S
C1940 C1941 1.394 . S
C1940 C1946 1.465 1_554 S
C1941 C1936 1.399 . S
C1941 C1940 1.394 . S
C1941 C1942 1.517 1_554 S
C1942 C1941 1.517 1_556 S
C1942 C1943 1.502 . S
C1942 C1944 1.561 . S
C1942 C1945 1.525 . S
C1943 H1927 0.962 . S
C1943 H1928 0.979 . S
C1943 H1929 0.940 1_556 S
C1943 C1942 1.502 . S
C1944 H1930 0.958 1_556 S
C1944 H1931 0.963 . S
C1944 H1932 0.959 . S
C1944 C1942 1.561 . S
C1945 C1942 1.525 . S
C1945 C1946 1.396 . S
C1945 C1950 1.390 . S
C1946 C1940 1.465 1_556 S
C1946 C1945 1.396 . S
C1946 C1947 1.399 . S
C1947 H1933 0.929 . S
C1947 C1946 1.399 . S
C1947 C1948 1.385 . S
C1948 H1934 0.931 . S
C1948 C1947 1.385 . S
C1948 C1949 1.389 . S
C1949 C1948 1.389 . S
C1949 C1950 1.387 . S
C1950 H1935 0.930 . S
C1950 C1945 1.390 . S
C1950 C1949 1.387 . S
H1951 C1963 0.930 . S
H1952 C1965 0.930 . S
H1953 C1966 0.930 . S
H1954 C1970 0.962 . S
H1955 C1970 0.979 . S
H1956 C1970 0.940 1_554 S
H1957 C1971 0.958 1_554 S
H1958 C1971 0.963 . S
H1959 C1971 0.959 . S
H1960 C1974 0.929 . S
H1961 C1975 0.931 . S
H1962 C1977 0.930 . S
C1963 H1951 0.930 . S
C1963 C1964 1.399 . S
C1963 C1968 1.399 . S
C1964 C1963 1.399 . S
C1964 C1965 1.376 . S
C1965 H1952 0.930 . S
C1965 C1964 1.376 . S
C1965 C1966 1.388 . S
C1966 H1953 0.930 . S
C1966 C1965 1.388 . S
C1966 C1967 1.390 . S
C1967 C1966 1.390 . S
C1967 C1968 1.394 . S
C1967 C1973 1.465 1_554 S
C1968 C1963 1.399 . S
C1968 C1967 1.394 . S
C1968 C1969 1.517 1_554 S
C1969 C1968 1.517 1_556 S
C1969 C1970 1.502 . S
C1969 C1971 1.561 . S
C1969 C1972 1.525 . S
C1970 H1954 0.962 . S
C1970 H1955 0.979 . S
C1970 H1956 0.940 1_556 S
C1970 C1969 1.502 . S
C1971 H1957 0.958 1_556 S
C1971 H1958 0.963 . S
C1971 H1959 0.959 . S
C1971 C1969 1.561 . S
C1972 C1969 1.525 . S
C1972 C1973 1.396 . S
C1972 C1977 1.390 . S
C1973 C1967 1.465 1_556 S
C1973 C1972 1.396 . S
C1973 C1974 1.399 . S
C1974 H1960 0.929 . S
C1974 C1973 1.399 . S
C1974 C1975 1.385 . S
C1975 H1961 0.931 . S
C1975 C1974 1.385 . S
C1975 C1976 1.389 . S
C1976 C1975 1.389 . S
C1976 C1977 1.387 . S
C1977 H1962 0.930 . S
C1977 C1972 1.390 . S
C1977 C1976 1.387 . S
H1978 C1990 0.930 . S
H1979 C1992 0.930 . S
H1980 C1993 0.930 . S
H1981 C1997 0.962 . S
H1982 C1997 0.979 . S
H1983 C1997 0.940 1_556 S
H1984 C1998 0.958 1_556 S
H1985 C1998 0.963 . S
H1986 C1998 0.959 . S
H1987 C2001 0.929 . S
H1988 C2002 0.931 . S
H1989 C2004 0.930 . S
C1990 H1978 0.930 . S
C1990 C1991 1.399 . S
C1990 C1995 1.399 . S
C1991 C1990 1.399 . S
C1991 C1992 1.376 . S
C1992 H1979 0.930 . S
C1992 C1991 1.376 . S
C1992 C1993 1.388 . S
C1993 H1980 0.930 . S
C1993 C1992 1.388 . S
C1993 C1994 1.390 . S
C1994 C1993 1.390 . S
C1994 C1995 1.394 . S
C1994 C2000 1.465 1_556 S
C1995 C1990 1.399 . S
C1995 C1994 1.394 . S
C1995 C1996 1.517 1_556 S
C1996 C1995 1.517 1_554 S
C1996 C1997 1.502 . S
C1996 C1998 1.561 . S
C1996 C1999 1.525 . S
C1997 H1981 0.962 . S
C1997 H1982 0.979 . S
C1997 H1983 0.940 1_554 S
C1997 C1996 1.502 . S
C1998 H1984 0.958 1_554 S
C1998 H1985 0.963 . S
C1998 H1986 0.959 . S
C1998 C1996 1.561 . S
C1999 C1996 1.525 . S
C1999 C2000 1.396 . S
C1999 C2004 1.390 . S
C2000 C1994 1.465 1_554 S
C2000 C1999 1.396 . S
C2000 C2001 1.399 . S
C2001 H1987 0.929 . S
C2001 C2000 1.399 . S
C2001 C2002 1.385 . S
C2002 H1988 0.931 . S
C2002 C2001 1.385 . S
C2002 C2003 1.389 . S
C2003 C2002 1.389 . S
C2003 C2004 1.387 . S
C2004 H1989 0.930 . S
C2004 C1999 1.390 . S
C2004 C2003 1.387 . S
H2005 C2017 0.930 . S
H2006 C2019 0.930 . S
H2007 C2020 0.930 . S
H2008 C2024 0.962 . S
H2009 C2024 0.979 . S
H2010 C2024 0.940 1_556 S
H2011 C2025 0.958 1_556 S
H2012 C2025 0.963 . S
H2013 C2025 0.959 . S
H2014 C2028 0.929 . S
H2015 C2029 0.931 . S
H2016 C2031 0.930 . S
C2017 H2005 0.930 . S
C2017 C2018 1.399 . S
C2017 C2022 1.399 . S
C2018 C2017 1.399 . S
C2018 C2019 1.376 . S
C2019 H2006 0.930 . S
C2019 C2018 1.376 . S
C2019 C2020 1.388 . S
C2020 H2007 0.930 . S
C2020 C2019 1.388 . S
C2020 C2021 1.390 . S
C2021 C2020 1.390 . S
C2021 C2022 1.394 . S
C2021 C2027 1.465 1_556 S
C2022 C2017 1.399 . S
C2022 C2021 1.394 . S
C2022 C2023 1.517 1_556 S
C2023 C2022 1.517 1_554 S
C2023 C2024 1.502 . S
C2023 C2025 1.561 . S
C2023 C2026 1.525 . S
C2024 H2008 0.962 . S
C2024 H2009 0.979 . S
C2024 H2010 0.940 1_554 S
C2024 C2023 1.502 . S
C2025 H2011 0.958 1_554 S
C2025 H2012 0.963 . S
C2025 H2013 0.959 . S
C2025 C2023 1.561 . S
C2026 C2023 1.525 . S
C2026 C2027 1.396 . S
C2026 C2031 1.390 . S
C2027 C2021 1.465 1_554 S
C2027 C2026 1.396 . S
C2027 C2028 1.399 . S
C2028 H2014 0.929 . S
C2028 C2027 1.399 . S
C2028 C2029 1.385 . S
C2029 H2015 0.931 . S
C2029 C2028 1.385 . S
C2029 C2030 1.389 . S
C2030 C2029 1.389 . S
C2030 C2031 1.387 . S
C2031 H2016 0.930 . S
C2031 C2026 1.390 . S
C2031 C2030 1.387 . S
H2032 C2044 0.930 . S
H2033 C2046 0.930 . S
H2034 C2047 0.930 . S
H2035 C2051 0.959 . S
H2036 C2051 0.959 . S
H2037 C2051 0.961 . S
H2038 C2052 0.960 . S
H2039 C2052 0.961 . S
H2040 C2052 0.959 . S
H2041 C2055 0.929 . S
H2042 C2056 0.931 . S
H2043 C2058 0.930 . S
C2044 H2032 0.930 . S
C2044 C2045 1.399 . S
C2044 C2049 1.399 . S
C2045 C2044 1.399 . S
C2045 C2046 1.376 . S
C2046 H2033 0.930 . S
C2046 C2045 1.376 . S
C2046 C2047 1.388 . S
C2047 H2034 0.930 . S
C2047 C2046 1.388 . S
C2047 C2048 1.390 . S
C2048 C2047 1.390 . S
C2048 C2049 1.394 . S
C2048 C2054 1.465 . S
C2049 C2044 1.399 . S
C2049 C2048 1.394 . S
C2049 C2050 1.516 . S
C2050 C2049 1.516 . S
C2050 C2051 1.502 . S
C2050 C2052 1.561 . S
C2050 C2053 1.526 . S
C2051 H2035 0.959 . S
C2051 H2036 0.959 . S
C2051 H2037 0.961 . S
C2051 C2050 1.502 . S
C2052 H2038 0.960 . S
C2052 H2039 0.961 . S
C2052 H2040 0.959 . S
C2052 C2050 1.561 . S
C2053 C2050 1.526 . S
C2053 C2054 1.396 . S
C2053 C2058 1.390 . S
C2054 C2048 1.465 . S
C2054 C2053 1.396 . S
C2054 C2055 1.399 . S
C2055 H2041 0.929 . S
C2055 C2054 1.399 . S
C2055 C2056 1.385 . S
C2056 H2042 0.931 . S
C2056 C2055 1.385 . S
C2056 C2057 1.389 . S
C2057 C2056 1.389 . S
C2057 C2058 1.387 . S
C2058 H2043 0.930 . S
C2058 C2053 1.390 . S
C2058 C2057 1.387 . S
H2059 C2071 0.930 . S
H2060 C2073 0.930 . S
H2061 C2074 0.930 . S
H2062 C2078 0.959 . S
H2063 C2078 0.959 . S
H2064 C2078 0.961 . S
H2065 C2079 0.960 . S
H2066 C2079 0.961 . S
H2067 C2079 0.959 . S
H2068 C2082 0.929 . S
H2069 C2083 0.931 . S
H2070 C2085 0.930 . S
C2071 H2059 0.930 . S
C2071 C2072 1.399 . S
C2071 C2076 1.399 . S
C2072 C2071 1.399 . S
C2072 C2073 1.376 . S
C2073 H2060 0.930 . S
C2073 C2072 1.376 . S
C2073 C2074 1.388 . S
C2074 H2061 0.930 . S
C2074 C2073 1.388 . S
C2074 C2075 1.390 . S
C2075 C2074 1.390 . S
C2075 C2076 1.394 . S
C2075 C2081 1.465 . S
C2076 C2071 1.399 . S
C2076 C2075 1.394 . S
C2076 C2077 1.516 . S
C2077 C2076 1.516 . S
C2077 C2078 1.502 . S
C2077 C2079 1.561 . S
C2077 C2080 1.526 . S
C2078 H2062 0.959 . S
C2078 H2063 0.959 . S
C2078 H2064 0.961 . S
C2078 C2077 1.502 . S
C2079 H2065 0.960 . S
C2079 H2066 0.961 . S
C2079 H2067 0.959 . S
C2079 C2077 1.561 . S
C2080 C2077 1.526 . S
C2080 C2081 1.396 . S
C2080 C2085 1.390 . S
C2081 C2075 1.465 . S
C2081 C2080 1.396 . S
C2081 C2082 1.399 . S
C2082 H2068 0.929 . S
C2082 C2081 1.399 . S
C2082 C2083 1.385 . S
C2083 H2069 0.931 . S
C2083 C2082 1.385 . S
C2083 C2084 1.389 . S
C2084 C2083 1.389 . S
C2084 C2085 1.387 . S
C2085 H2070 0.930 . S
C2085 C2080 1.390 . S
C2085 C2084 1.387 . S
H2086 C2098 0.930 . S
H2087 C2100 0.930 . S
H2088 C2101 0.930 . S
H2089 C2105 0.959 . S
H2090 C2105 0.959 . S
H2091 C2105 0.961 . S
H2092 C2106 0.960 . S
H2093 C2106 0.961 . S
H2094 C2106 0.959 . S
H2095 C2109 0.929 . S
H2096 C2110 0.931 . S
H2097 C2112 0.930 . S
C2098 H2086 0.930 . S
C2098 C2099 1.399 . S
C2098 C2103 1.399 . S
C2099 C2098 1.399 . S
C2099 C2100 1.376 . S
C2100 H2087 0.930 . S
C2100 C2099 1.376 . S
C2100 C2101 1.388 . S
C2101 H2088 0.930 . S
C2101 C2100 1.388 . S
C2101 C2102 1.390 . S
C2102 C2101 1.390 . S
C2102 C2103 1.394 . S
C2102 C2108 1.465 . S
C2103 C2098 1.399 . S
C2103 C2102 1.394 . S
C2103 C2104 1.516 . S
C2104 C2103 1.516 . S
C2104 C2105 1.502 . S
C2104 C2106 1.561 . S
C2104 C2107 1.526 . S
C2105 H2089 0.959 . S
C2105 H2090 0.959 . S
C2105 H2091 0.961 . S
C2105 C2104 1.502 . S
C2106 H2092 0.960 . S
C2106 H2093 0.961 . S
C2106 H2094 0.959 . S
C2106 C2104 1.561 . S
C2107 C2104 1.526 . S
C2107 C2108 1.396 . S
C2107 C2112 1.390 . S
C2108 C2102 1.465 . S
C2108 C2107 1.396 . S
C2108 C2109 1.399 . S
C2109 H2095 0.929 . S
C2109 C2108 1.399 . S
C2109 C2110 1.385 . S
C2110 H2096 0.931 . S
C2110 C2109 1.385 . S
C2110 C2111 1.389 . S
C2111 C2110 1.389 . S
C2111 C2112 1.387 . S
C2112 H2097 0.930 . S
C2112 C2107 1.390 . S
C2112 C2111 1.387 . S
H2113 C2125 0.930 . S
H2114 C2127 0.930 . S
H2115 C2128 0.930 . S
H2116 C2132 0.959 . S
H2117 C2132 0.959 . S
H2118 C2132 0.961 . S
H2119 C2133 0.960 . S
H2120 C2133 0.961 . S
H2121 C2133 0.959 . S
H2122 C2136 0.929 . S
H2123 C2137 0.931 . S
H2124 C2139 0.930 . S
C2125 H2113 0.930 . S
C2125 C2126 1.399 . S
C2125 C2130 1.399 . S
C2126 C2125 1.399 . S
C2126 C2127 1.376 . S
C2127 H2114 0.930 . S
C2127 C2126 1.376 . S
C2127 C2128 1.388 . S
C2128 H2115 0.930 . S
C2128 C2127 1.388 . S
C2128 C2129 1.390 . S
C2129 C2128 1.390 . S
C2129 C2130 1.394 . S
C2129 C2135 1.465 . S
C2130 C2125 1.399 . S
C2130 C2129 1.394 . S
C2130 C2131 1.516 . S
C2131 C2130 1.516 . S
C2131 C2132 1.502 . S
C2131 C2133 1.561 . S
C2131 C2134 1.526 . S
C2132 H2116 0.959 . S
C2132 H2117 0.959 . S
C2132 H2118 0.961 . S
C2132 C2131 1.502 . S
C2133 H2119 0.960 . S
C2133 H2120 0.961 . S
C2133 H2121 0.959 . S
C2133 C2131 1.561 . S
C2134 C2131 1.526 . S
C2134 C2135 1.396 . S
C2134 C2139 1.390 . S
C2135 C2129 1.465 . S
C2135 C2134 1.396 . S
C2135 C2136 1.399 . S
C2136 H2122 0.929 . S
C2136 C2135 1.399 . S
C2136 C2137 1.385 . S
C2137 H2123 0.931 . S
C2137 C2136 1.385 . S
C2137 C2138 1.389 . S
C2138 C2137 1.389 . S
C2138 C2139 1.387 . S
C2139 H2124 0.930 . S
C2139 C2134 1.390 . S
C2139 C2138 1.387 . S
H2140 C2152 0.930 . S
H2141 C2154 0.930 . S
H2142 C2155 0.930 . S
H2143 C2159 0.959 . S
H2144 C2159 0.959 . S
H2145 C2159 0.961 . S
H2146 C2160 0.960 . S
H2147 C2160 0.961 . S
H2148 C2160 0.959 . S
H2149 C2163 0.929 . S
H2150 C2164 0.931 . S
H2151 C2166 0.930 . S
C2152 H2140 0.930 . S
C2152 C2153 1.399 . S
C2152 C2157 1.399 . S
C2153 C2152 1.399 . S
C2153 C2154 1.376 . S
C2154 H2141 0.930 . S
C2154 C2153 1.376 . S
C2154 C2155 1.388 . S
C2155 H2142 0.930 . S
C2155 C2154 1.388 . S
C2155 C2156 1.390 . S
C2156 C2155 1.390 . S
C2156 C2157 1.394 . S
C2156 C2162 1.465 . S
C2157 C2152 1.399 . S
C2157 C2156 1.394 . S
C2157 C2158 1.516 . S
C2158 C2157 1.516 . S
C2158 C2159 1.502 . S
C2158 C2160 1.561 . S
C2158 C2161 1.526 . S
C2159 H2143 0.959 . S
C2159 H2144 0.959 . S
C2159 H2145 0.961 . S
C2159 C2158 1.502 . S
C2160 H2146 0.960 . S
C2160 H2147 0.961 . S
C2160 H2148 0.959 . S
C2160 C2158 1.561 . S
C2161 C2158 1.526 . S
C2161 C2162 1.396 . S
C2161 C2166 1.390 . S
C2162 C2156 1.465 . S
C2162 C2161 1.396 . S
C2162 C2163 1.399 . S
C2163 H2149 0.929 . S
C2163 C2162 1.399 . S
C2163 C2164 1.385 . S
C2164 H2150 0.931 . S
C2164 C2163 1.385 . S
C2164 C2165 1.389 . S
C2165 C2164 1.389 . S
C2165 C2166 1.387 . S
C2166 H2151 0.930 . S
C2166 C2161 1.390 . S
C2166 C2165 1.387 . S
H2167 C2179 0.930 . S
H2168 C2181 0.930 . S
H2169 C2182 0.930 . S
H2170 C2186 0.959 . S
H2171 C2186 0.959 . S
H2172 C2186 0.961 . S
H2173 C2187 0.960 . S
H2174 C2187 0.961 . S
H2175 C2187 0.959 . S
H2176 C2190 0.929 . S
H2177 C2191 0.931 . S
H2178 C2193 0.930 . S
C2179 H2167 0.930 . S
C2179 C2180 1.399 . S
C2179 C2184 1.399 . S
C2180 C2179 1.399 . S
C2180 C2181 1.376 . S
C2181 H2168 0.930 . S
C2181 C2180 1.376 . S
C2181 C2182 1.388 . S
C2182 H2169 0.930 . S
C2182 C2181 1.388 . S
C2182 C2183 1.390 . S
C2183 C2182 1.390 . S
C2183 C2184 1.394 . S
C2183 C2189 1.465 . S
C2184 C2179 1.399 . S
C2184 C2183 1.394 . S
C2184 C2185 1.516 . S
C2185 C2184 1.516 . S
C2185 C2186 1.502 . S
C2185 C2187 1.561 . S
C2185 C2188 1.526 . S
C2186 H2170 0.959 . S
C2186 H2171 0.959 . S
C2186 H2172 0.961 . S
C2186 C2185 1.502 . S
C2187 H2173 0.960 . S
C2187 H2174 0.961 . S
C2187 H2175 0.959 . S
C2187 C2185 1.561 . S
C2188 C2185 1.526 . S
C2188 C2189 1.396 . S
C2188 C2193 1.390 . S
C2189 C2183 1.465 . S
C2189 C2188 1.396 . S
C2189 C2190 1.399 . S
C2190 H2176 0.929 . S
C2190 C2189 1.399 . S
C2190 C2191 1.385 . S
C2191 H2177 0.931 . S
C2191 C2190 1.385 . S
C2191 C2192 1.389 . S
C2192 C2191 1.389 . S
C2192 C2193 1.387 . S
C2193 H2178 0.930 . S
C2193 C2188 1.390 . S
C2193 C2192 1.387 . S
H2194 C2206 0.930 . S
H2195 C2208 0.930 . S
H2196 C2209 0.930 . S
H2197 C2213 0.959 . S
H2198 C2213 0.959 . S
H2199 C2213 0.961 . S
H2200 C2214 0.960 . S
H2201 C2214 0.961 . S
H2202 C2214 0.959 . S
H2203 C2217 0.929 . S
H2204 C2218 0.931 . S
H2205 C2220 0.930 . S
C2206 H2194 0.930 . S
C2206 C2207 1.399 . S
C2206 C2211 1.399 . S
C2207 C2206 1.399 . S
C2207 C2208 1.376 . S
C2208 H2195 0.930 . S
C2208 C2207 1.376 . S
C2208 C2209 1.388 . S
C2209 H2196 0.930 . S
C2209 C2208 1.388 . S
C2209 C2210 1.390 . S
C2210 C2209 1.390 . S
C2210 C2211 1.394 . S
C2210 C2216 1.465 . S
C2211 C2206 1.399 . S
C2211 C2210 1.394 . S
C2211 C2212 1.516 . S
C2212 C2211 1.516 . S
C2212 C2213 1.502 . S
C2212 C2214 1.561 . S
C2212 C2215 1.526 . S
C2213 H2197 0.959 . S
C2213 H2198 0.959 . S
C2213 H2199 0.961 . S
C2213 C2212 1.502 . S
C2214 H2200 0.960 . S
C2214 H2201 0.961 . S
C2214 H2202 0.959 . S
C2214 C2212 1.561 . S
C2215 C2212 1.526 . S
C2215 C2216 1.396 . S
C2215 C2220 1.390 . S
C2216 C2210 1.465 . S
C2216 C2215 1.396 . S
C2216 C2217 1.399 . S
C2217 H2203 0.929 . S
C2217 C2216 1.399 . S
C2217 C2218 1.385 . S
C2218 H2204 0.931 . S
C2218 C2217 1.385 . S
C2218 C2219 1.389 . S
C2219 C2218 1.389 . S
C2219 C2220 1.387 . S
C2220 H2205 0.930 . S
C2220 C2215 1.390 . S
C2220 C2219 1.387 . S
H2221 C2233 0.930 . S
H2222 C2235 0.930 . S
H2223 C2236 0.930 . S
H2224 C2240 0.959 . S
H2225 C2240 0.959 . S
H2226 C2240 0.961 . S
H2227 C2241 0.960 . S
H2228 C2241 0.961 . S
H2229 C2241 0.959 . S
H2230 C2244 0.929 . S
H2231 C2245 0.931 . S
H2232 C2247 0.930 . S
C2233 H2221 0.930 . S
C2233 C2234 1.399 . S
C2233 C2238 1.399 . S
C2234 C2233 1.399 . S
C2234 C2235 1.376 . S
C2235 H2222 0.930 . S
C2235 C2234 1.376 . S
C2235 C2236 1.388 . S
C2236 H2223 0.930 . S
C2236 C2235 1.388 . S
C2236 C2237 1.390 . S
C2237 C2236 1.390 . S
C2237 C2238 1.394 . S
C2237 C2243 1.465 . S
C2238 C2233 1.399 . S
C2238 C2237 1.394 . S
C2238 C2239 1.516 . S
C2239 C2238 1.516 . S
C2239 C2240 1.502 . S
C2239 C2241 1.561 . S
C2239 C2242 1.526 . S
C2240 H2224 0.959 . S
C2240 H2225 0.959 . S
C2240 H2226 0.961 . S
C2240 C2239 1.502 . S
C2241 H2227 0.960 . S
C2241 H2228 0.961 . S
C2241 H2229 0.959 . S
C2241 C2239 1.561 . S
C2242 C2239 1.526 . S
C2242 C2243 1.396 . S
C2242 C2247 1.390 . S
C2243 C2237 1.465 . S
C2243 C2242 1.396 . S
C2243 C2244 1.399 . S
C2244 H2230 0.929 . S
C2244 C2243 1.399 . S
C2244 C2245 1.385 . S
C2245 H2231 0.931 . S
C2245 C2244 1.385 . S
C2245 C2246 1.389 . S
C2246 C2245 1.389 . S
C2246 C2247 1.387 . S
C2247 H2232 0.930 . S
C2247 C2242 1.390 . S
C2247 C2246 1.387 . S
H2248 C2260 0.930 . S
H2249 C2262 0.930 . S
H2250 C2263 0.930 . S
H2251 C2267 0.959 . S
H2252 C2267 0.959 . S
H2253 C2267 0.961 . S
H2254 C2268 0.960 . S
H2255 C2268 0.961 . S
H2256 C2268 0.959 . S
H2257 C2271 0.929 . S
H2258 C2272 0.931 . S
H2259 C2274 0.930 . S
C2260 H2248 0.930 . S
C2260 C2261 1.399 . S
C2260 C2265 1.399 . S
C2261 C2260 1.399 . S
C2261 C2262 1.376 . S
C2262 H2249 0.930 . S
C2262 C2261 1.376 . S
C2262 C2263 1.388 . S
C2263 H2250 0.930 . S
C2263 C2262 1.388 . S
C2263 C2264 1.390 . S
C2264 C2263 1.390 . S
C2264 C2265 1.394 . S
C2264 C2270 1.465 . S
C2265 C2260 1.399 . S
C2265 C2264 1.394 . S
C2265 C2266 1.516 . S
C2266 C2265 1.516 . S
C2266 C2267 1.502 . S
C2266 C2268 1.561 . S
C2266 C2269 1.526 . S
C2267 H2251 0.959 . S
C2267 H2252 0.959 . S
C2267 H2253 0.961 . S
C2267 C2266 1.502 . S
C2268 H2254 0.960 . S
C2268 H2255 0.961 . S
C2268 H2256 0.959 . S
C2268 C2266 1.561 . S
C2269 C2266 1.526 . S
C2269 C2270 1.396 . S
C2269 C2274 1.390 . S
C2270 C2264 1.465 . S
C2270 C2269 1.396 . S
C2270 C2271 1.399 . S
C2271 H2257 0.929 . S
C2271 C2270 1.399 . S
C2271 C2272 1.385 . S
C2272 H2258 0.931 . S
C2272 C2271 1.385 . S
C2272 C2273 1.389 . S
C2273 C2272 1.389 . S
C2273 C2274 1.387 . S
C2274 H2259 0.930 . S
C2274 C2269 1.390 . S
C2274 C2273 1.387 . S
H2275 C2287 0.930 . S
H2276 C2289 0.930 . S
H2277 C2290 0.930 . S
H2278 C2294 0.959 . S
H2279 C2294 0.959 . S
H2280 C2294 0.961 . S
H2281 C2295 0.960 . S
H2282 C2295 0.961 . S
H2283 C2295 0.959 . S
H2284 C2298 0.929 . S
H2285 C2299 0.931 . S
H2286 C2301 0.930 . S
C2287 H2275 0.930 . S
C2287 C2288 1.399 . S
C2287 C2292 1.399 . S
C2288 C2287 1.399 . S
C2288 C2289 1.376 . S
C2289 H2276 0.930 . S
C2289 C2288 1.376 . S
C2289 C2290 1.388 . S
C2290 H2277 0.930 . S
C2290 C2289 1.388 . S
C2290 C2291 1.390 . S
C2291 C2290 1.390 . S
C2291 C2292 1.394 . S
C2291 C2297 1.465 . S
C2292 C2287 1.399 . S
C2292 C2291 1.394 . S
C2292 C2293 1.516 . S
C2293 C2292 1.516 . S
C2293 C2294 1.502 . S
C2293 C2295 1.561 . S
C2293 C2296 1.526 . S
C2294 H2278 0.959 . S
C2294 H2279 0.959 . S
C2294 H2280 0.961 . S
C2294 C2293 1.502 . S
C2295 H2281 0.960 . S
C2295 H2282 0.961 . S
C2295 H2283 0.959 . S
C2295 C2293 1.561 . S
C2296 C2293 1.526 . S
C2296 C2297 1.396 . S
C2296 C2301 1.390 . S
C2297 C2291 1.465 . S
C2297 C2296 1.396 . S
C2297 C2298 1.399 . S
C2298 H2284 0.929 . S
C2298 C2297 1.399 . S
C2298 C2299 1.385 . S
C2299 H2285 0.931 . S
C2299 C2298 1.385 . S
C2299 C2300 1.389 . S
C2300 C2299 1.389 . S
C2300 C2301 1.387 . S
C2301 H2286 0.930 . S
C2301 C2296 1.390 . S
C2301 C2300 1.387 . S
H2302 C2314 0.930 . S
H2303 C2316 0.930 . S
H2304 C2317 0.930 . S
H2305 C2321 0.959 . S
H2306 C2321 0.959 . S
H2307 C2321 0.961 . S
H2308 C2322 0.960 . S
H2309 C2322 0.961 . S
H2310 C2322 0.959 . S
H2311 C2325 0.929 . S
H2312 C2326 0.931 . S
H2313 C2328 0.930 . S
C2314 H2302 0.930 . S
C2314 C2315 1.399 . S
C2314 C2319 1.399 . S
C2315 C2314 1.399 . S
C2315 C2316 1.376 . S
C2316 H2303 0.930 . S
C2316 C2315 1.376 . S
C2316 C2317 1.388 . S
C2317 H2304 0.930 . S
C2317 C2316 1.388 . S
C2317 C2318 1.390 . S
C2318 C2317 1.390 . S
C2318 C2319 1.394 . S
C2318 C2324 1.465 . S
C2319 C2314 1.399 . S
C2319 C2318 1.394 . S
C2319 C2320 1.516 . S
C2320 C2319 1.516 . S
C2320 C2321 1.502 . S
C2320 C2322 1.561 . S
C2320 C2323 1.526 . S
C2321 H2305 0.959 . S
C2321 H2306 0.959 . S
C2321 H2307 0.961 . S
C2321 C2320 1.502 . S
C2322 H2308 0.960 . S
C2322 H2309 0.961 . S
C2322 H2310 0.959 . S
C2322 C2320 1.561 . S
C2323 C2320 1.526 . S
C2323 C2324 1.396 . S
C2323 C2328 1.390 . S
C2324 C2318 1.465 . S
C2324 C2323 1.396 . S
C2324 C2325 1.399 . S
C2325 H2311 0.929 . S
C2325 C2324 1.399 . S
C2325 C2326 1.385 . S
C2326 H2312 0.931 . S
C2326 C2325 1.385 . S
C2326 C2327 1.389 . S
C2327 C2326 1.389 . S
C2327 C2328 1.387 . S
C2328 H2313 0.930 . S
C2328 C2323 1.390 . S
C2328 C2327 1.387 . S
H2329 C2341 0.930 . S
H2330 C2343 0.930 . S
H2331 C2344 0.930 . S
H2332 C2348 0.959 . S
H2333 C2348 0.959 . S
H2334 C2348 0.961 . S
H2335 C2349 0.960 . S
H2336 C2349 0.961 . S
H2337 C2349 0.959 . S
H2338 C2352 0.929 . S
H2339 C2353 0.931 . S
H2340 C2355 0.930 . S
C2341 H2329 0.930 . S
C2341 C2342 1.399 . S
C2341 C2346 1.399 . S
C2342 C2341 1.399 . S
C2342 C2343 1.376 . S
C2343 H2330 0.930 . S
C2343 C2342 1.376 . S
C2343 C2344 1.388 . S
C2344 H2331 0.930 . S
C2344 C2343 1.388 . S
C2344 C2345 1.390 . S
C2345 C2344 1.390 . S
C2345 C2346 1.394 . S
C2345 C2351 1.465 . S
C2346 C2341 1.399 . S
C2346 C2345 1.394 . S
C2346 C2347 1.516 . S
C2347 C2346 1.516 . S
C2347 C2348 1.502 . S
C2347 C2349 1.561 . S
C2347 C2350 1.526 . S
C2348 H2332 0.959 . S
C2348 H2333 0.959 . S
C2348 H2334 0.961 . S
C2348 C2347 1.502 . S
C2349 H2335 0.960 . S
C2349 H2336 0.961 . S
C2349 H2337 0.959 . S
C2349 C2347 1.561 . S
C2350 C2347 1.526 . S
C2350 C2351 1.396 . S
C2350 C2355 1.390 . S
C2351 C2345 1.465 . S
C2351 C2350 1.396 . S
C2351 C2352 1.399 . S
C2352 H2338 0.929 . S
C2352 C2351 1.399 . S
C2352 C2353 1.385 . S
C2353 H2339 0.931 . S
C2353 C2352 1.385 . S
C2353 C2354 1.389 . S
C2354 C2353 1.389 . S
C2354 C2355 1.387 . S
C2355 H2340 0.930 . S
C2355 C2350 1.390 . S
C2355 C2354 1.387 . S
H2356 C2368 0.930 . S
H2357 C2370 0.930 . S
H2358 C2371 0.930 . S
H2359 C2375 0.959 . S
H2360 C2375 0.959 . S
H2361 C2375 0.961 . S
H2362 C2376 0.960 . S
H2363 C2376 0.961 . S
H2364 C2376 0.959 . S
H2365 C2379 0.929 . S
H2366 C2380 0.931 . S
H2367 C2382 0.930 . S
C2368 H2356 0.930 . S
C2368 C2369 1.399 . S
C2368 C2373 1.399 . S
C2369 C2368 1.399 . S
C2369 C2370 1.376 . S
C2370 H2357 0.930 . S
C2370 C2369 1.376 . S
C2370 C2371 1.388 . S
C2371 H2358 0.930 . S
C2371 C2370 1.388 . S
C2371 C2372 1.390 . S
C2372 C2371 1.390 . S
C2372 C2373 1.394 . S
C2372 C2378 1.465 . S
C2373 C2368 1.399 . S
C2373 C2372 1.394 . S
C2373 C2374 1.516 . S
C2374 C2373 1.516 . S
C2374 C2375 1.502 . S
C2374 C2376 1.561 . S
C2374 C2377 1.526 . S
C2375 H2359 0.959 . S
C2375 H2360 0.959 . S
C2375 H2361 0.961 . S
C2375 C2374 1.502 . S
C2376 H2362 0.960 . S
C2376 H2363 0.961 . S
C2376 H2364 0.959 . S
C2376 C2374 1.561 . S
C2377 C2374 1.526 . S
C2377 C2378 1.396 . S
C2377 C2382 1.390 . S
C2378 C2372 1.465 . S
C2378 C2377 1.396 . S
C2378 C2379 1.399 . S
C2379 H2365 0.929 . S
C2379 C2378 1.399 . S
C2379 C2380 1.385 . S
C2380 H2366 0.931 . S
C2380 C2379 1.385 . S
C2380 C2381 1.389 . S
C2381 C2380 1.389 . S
C2381 C2382 1.387 . S
C2382 H2367 0.930 . S
C2382 C2377 1.390 . S
C2382 C2381 1.387 . S
H2383 C2395 0.930 . S
H2384 C2397 0.930 . S
H2385 C2398 0.930 . S
H2386 C2402 0.959 . S
H2387 C2402 0.959 . S
H2388 C2402 0.961 . S
H2389 C2403 0.960 . S
H2390 C2403 0.961 . S
H2391 C2403 0.959 . S
H2392 C2406 0.929 . S
H2393 C2407 0.931 . S
H2394 C2409 0.930 . S
C2395 H2383 0.930 . S
C2395 C2396 1.399 . S
C2395 C2400 1.399 . S
C2396 C2395 1.399 . S
C2396 C2397 1.376 . S
C2397 H2384 0.930 . S
C2397 C2396 1.376 . S
C2397 C2398 1.388 . S
C2398 H2385 0.930 . S
C2398 C2397 1.388 . S
C2398 C2399 1.390 . S
C2399 C2398 1.390 . S
C2399 C2400 1.394 . S
C2399 C2405 1.465 . S
C2400 C2395 1.399 . S
C2400 C2399 1.394 . S
C2400 C2401 1.516 . S
C2401 C2400 1.516 . S
C2401 C2402 1.502 . S
C2401 C2403 1.561 . S
C2401 C2404 1.526 . S
C2402 H2386 0.959 . S
C2402 H2387 0.959 . S
C2402 H2388 0.961 . S
C2402 C2401 1.502 . S
C2403 H2389 0.960 . S
C2403 H2390 0.961 . S
C2403 H2391 0.959 . S
C2403 C2401 1.561 . S
C2404 C2401 1.526 . S
C2404 C2405 1.396 . S
C2404 C2409 1.390 . S
C2405 C2399 1.465 . S
C2405 C2404 1.396 . S
C2405 C2406 1.399 . S
C2406 H2392 0.929 . S
C2406 C2405 1.399 . S
C2406 C2407 1.385 . S
C2407 H2393 0.931 . S
C2407 C2406 1.385 . S
C2407 C2408 1.389 . S
C2408 C2407 1.389 . S
C2408 C2409 1.387 . S
C2409 H2394 0.930 . S
C2409 C2404 1.390 . S
C2409 C2408 1.387 . S
H2410 C2422 0.930 . S
H2411 C2424 0.930 . S
H2412 C2425 0.930 . S
H2413 C2429 0.959 . S
H2414 C2429 0.959 . S
H2415 C2429 0.961 . S
H2416 C2430 0.960 . S
H2417 C2430 0.961 . S
H2418 C2430 0.959 . S
H2419 C2433 0.929 . S
H2420 C2434 0.931 . S
H2421 C2436 0.930 . S
C2422 H2410 0.930 . S
C2422 C2423 1.399 . S
C2422 C2427 1.399 . S
C2423 C2422 1.399 . S
C2423 C2424 1.376 . S
C2424 H2411 0.930 . S
C2424 C2423 1.376 . S
C2424 C2425 1.388 . S
C2425 H2412 0.930 . S
C2425 C2424 1.388 . S
C2425 C2426 1.390 . S
C2426 C2425 1.390 . S
C2426 C2427 1.394 . S
C2426 C2432 1.465 . S
C2427 C2422 1.399 . S
C2427 C2426 1.394 . S
C2427 C2428 1.516 . S
C2428 C2427 1.516 . S
C2428 C2429 1.502 . S
C2428 C2430 1.561 . S
C2428 C2431 1.526 . S
C2429 H2413 0.959 . S
C2429 H2414 0.959 . S
C2429 H2415 0.961 . S
C2429 C2428 1.502 . S
C2430 H2416 0.960 . S
C2430 H2417 0.961 . S
C2430 H2418 0.959 . S
C2430 C2428 1.561 . S
C2431 C2428 1.526 . S
C2431 C2432 1.396 . S
C2431 C2436 1.390 . S
C2432 C2426 1.465 . S
C2432 C2431 1.396 . S
C2432 C2433 1.399 . S
C2433 H2419 0.929 . S
C2433 C2432 1.399 . S
C2433 C2434 1.385 . S
C2434 H2420 0.931 . S
C2434 C2433 1.385 . S
C2434 C2435 1.389 . S
C2435 C2434 1.389 . S
C2435 C2436 1.387 . S
C2436 H2421 0.930 . S
C2436 C2431 1.390 . S
C2436 C2435 1.387 . S
H2437 C2449 0.930 . S
H2438 C2451 0.930 . S
H2439 C2452 0.930 . S
H2440 C2456 0.959 . S
H2441 C2456 0.959 . S
H2442 C2456 0.961 . S
H2443 C2457 0.960 . S
H2444 C2457 0.961 . S
H2445 C2457 0.959 . S
H2446 C2460 0.929 . S
H2447 C2461 0.931 . S
H2448 C2463 0.930 . S
C2449 H2437 0.930 . S
C2449 C2450 1.399 . S
C2449 C2454 1.399 . S
C2450 C2449 1.399 . S
C2450 C2451 1.376 . S
C2451 H2438 0.930 . S
C2451 C2450 1.376 . S
C2451 C2452 1.388 . S
C2452 H2439 0.930 . S
C2452 C2451 1.388 . S
C2452 C2453 1.390 . S
C2453 C2452 1.390 . S
C2453 C2454 1.394 . S
C2453 C2459 1.465 . S
C2454 C2449 1.399 . S
C2454 C2453 1.394 . S
C2454 C2455 1.516 . S
C2455 C2454 1.516 . S
C2455 C2456 1.502 . S
C2455 C2457 1.561 . S
C2455 C2458 1.526 . S
C2456 H2440 0.959 . S
C2456 H2441 0.959 . S
C2456 H2442 0.961 . S
C2456 C2455 1.502 . S
C2457 H2443 0.960 . S
C2457 H2444 0.961 . S
C2457 H2445 0.959 . S
C2457 C2455 1.561 . S
C2458 C2455 1.526 . S
C2458 C2459 1.396 . S
C2458 C2463 1.390 . S
C2459 C2453 1.465 . S
C2459 C2458 1.396 . S
C2459 C2460 1.399 . S
C2460 H2446 0.929 . S
C2460 C2459 1.399 . S
C2460 C2461 1.385 . S
C2461 H2447 0.931 . S
C2461 C2460 1.385 . S
C2461 C2462 1.389 . S
C2462 C2461 1.389 . S
C2462 C2463 1.387 . S
C2463 H2448 0.930 . S
C2463 C2458 1.390 . S
C2463 C2462 1.387 . S
C749 N347 1.901 . S
C761 N2 1.904 . S
C776 N25 1.921 . S
C788 N278 1.934 . S
C803 N48 1.901 . S
C815 N301 1.903 . S
C830 N324 1.983 . S
C842 N71 1.976 . S
C857 N94 1.953 . S
C869 N209 1.941 . S
C884 N117 1.931 . S
C896 N232 1.945 . S
C911 N255 1.984 . S
C923 N140 1.979 . S
C938 N186 1.981 . S
C950 N163 1.973 . S
C965 N370 1.954 . S
C977 N715 1.965 . S
C992 N393 1.911 . S
C1004 N646 1.922 . S
C1019 N416 1.976 . S
C1031 N669 1.966 . S
C1046 N692 1.985 . S
C1058 N439 1.982 . S
C1073 N462 1.928 . S
C1085 N577 1.941 . S
C1100 N485 1.957 . S
C1112 N600 1.944 . S
C1127 N623 1.985 . S
C1139 N508 1.982 . S
C1154 N531 1.978 . S
C1166 N554 1.983 . S
C1181 N288 2.032 . S
C1193 N12 2.040 . S
C1208 N35 2.017 . S
C1220 N311 2.011 . S
C1235 N334 2.053 . S
C1247 N58 2.054 . S
C1262 N81 2.024 . S
C1274 N357 2.033 . S
C1289 N104 2.003 . S
C1301 N196 2.004 . S
C1316 N219 2.051 . S
C1328 N127 2.054 . S
C1343 N242 2.010 . S
C1355 N150 2.017 . S
C1370 N265 2.004 . S
C1382 N173 2.004 . S
C1397 N380 2.049 . S
C1409 N656 2.043 . S
C1424 N679 2.052 . S
C1436 N403 2.054 . S
C1451 N426 2.044 . S
C1463 N702 2.049 . S
C1478 N449 2.038 . S
C1490 N725 2.045 . S
C1505 N564 2.031 . S
C1517 N472 2.039 . S
C1532 N495 2.035 . S
C1544 N587 2.042 . S
C1559 N518 2.054 . S
C1571 N610 2.051 . S
C1586 N541 2.021 . S
C1598 N633 2.014 . S
C1613 C7 1.556 . S
C1625 C237 1.560 . S
C1640 C260 1.580 . S
C1652 C30 1.585 . S
C1667 C53 1.588 . S
C1679 C191 1.584 . S
C1694 C214 1.586 . S
C1706 C76 1.590 . S
C1721 C329 1.560 . S
C1733 C99 1.566 . S
C1748 C352 1.558 . S
C1760 C122 1.555 . S
C1775 C283 1.585 . S
C1787 C145 1.580 . S
C1802 C168 1.558 . S
C1814 C306 1.563 . S
C1829 C605 1.557 . S
C1841 C375 1.562 . S
C1856 C398 1.562 . S
C1868 C628 1.558 . S
C1883 C559 1.561 . S
C1895 C421 1.566 . S
C1910 C582 1.589 . S
C1922 C444 1.591 . S
C1937 C467 1.557 . S
C1949 C697 1.561 . S
C1964 C490 1.557 . S
C1976 C720 1.555 . S
C1991 C651 1.562 . S
C2003 C513 1.568 . S
C2018 C674 1.557 . S
C2030 C536 1.555 . S
C2045 C545 1.557 . S
C2057 C16 1.507 . S
C2072 C476 1.518 . S
C2084 C39 1.517 . S
C2099 C499 1.503 . S
C2111 C62 1.551 . S
C2126 C522 1.515 . S
C2138 C85 1.520 . S
C2153 C407 1.556 . S
C2165 C108 1.506 . S
C2180 C131 1.511 . S
C2192 C430 1.559 . S
C2207 C154 1.521 . S
C2219 C453 1.514 . S
C2234 C177 1.561 . S
C2246 C384 1.520 . S
C2261 C200 1.502 . S
C2273 C729 1.529 . S
C2288 C660 1.510 . S
C2300 C223 1.549 . S
C2315 C246 1.511 . S
C2327 C683 1.550 . S
C2342 C269 1.548 . S
C2354 C706 1.557 . S
C2369 C591 1.559 . S
C2381 C292 1.544 . S
C2396 C614 1.554 . S
C2408 C315 1.516 . S
C2423 C338 1.521 . S
C2435 C637 1.557 . S
C2450 C361 1.560 . S
C2462 C568 1.529 . S
