# Generated by pormake.
# Topology mdf, (4)-cn, num edge types: 1
# Building blocks:
#     Node 0, Type 0, BuildingBlock: NAHDIM_clean_sbu_0, # of connection points: 4
#     Node 1, Type 0, BuildingBlock: NAHDIM_clean_sbu_0, # of connection points: 4
#     Node 2, Type 0, BuildingBlock: NAHDIM_clean_sbu_0, # of connection points: 4
#     Node 3, Type 0, BuildingBlock: NAHDIM_clean_sbu_0, # of connection points: 4
#     Node 4, Type 0, BuildingBlock: NAHDIM_clean_sbu_0, # of connection points: 4
#     Node 5, Type 0, BuildingBlock: NAHDIM_clean_sbu_0, # of connection points: 4
#     Node 6, Type 0, BuildingBlock: NAHDIM_clean_sbu_0, # of connection points: 4
#     Node 7, Type 0, BuildingBlock: NAHDIM_clean_sbu_0, # of connection points: 4
#     Edge 8, Type (0, 0), BuildingBlock: ZUJKAS_clean_linker_0, # of connection points: 2
#     Edge 9, Type (0, 0), BuildingBlock: ZUJKAS_clean_linker_0, # of connection points: 2
#     Edge 10, Type (0, 0), BuildingBlock: ZUJKAS_clean_linker_0, # of connection points: 2
#     Edge 11, Type (0, 0), BuildingBlock: ZUJKAS_clean_linker_0, # of connection points: 2
#     Edge 12, Type (0, 0), BuildingBlock: ZUJKAS_clean_linker_0, # of connection points: 2
#     Edge 13, Type (0, 0), BuildingBlock: ZUJKAS_clean_linker_0, # of connection points: 2
#     Edge 14, Type (0, 0), BuildingBlock: ZUJKAS_clean_linker_0, # of connection points: 2
#     Edge 15, Type (0, 0), BuildingBlock: ZUJKAS_clean_linker_0, # of connection points: 2
#     Edge 16, Type (0, 0), BuildingBlock: ZUJKAS_clean_linker_0, # of connection points: 2
#     Edge 17, Type (0, 0), BuildingBlock: ZUJKAS_clean_linker_0, # of connection points: 2
#     Edge 18, Type (0, 0), BuildingBlock: ZUJKAS_clean_linker_0, # of connection points: 2
#     Edge 19, Type (0, 0), BuildingBlock: ZUJKAS_clean_linker_0, # of connection points: 2
#     Edge 20, Type (0, 0), BuildingBlock: ZUJKAS_clean_linker_0, # of connection points: 2
#     Edge 21, Type (0, 0), BuildingBlock: ZUJKAS_clean_linker_0, # of connection points: 2
#     Edge 22, Type (0, 0), BuildingBlock: ZUJKAS_clean_linker_0, # of connection points: 2
#     Edge 23, Type (0, 0), BuildingBlock: ZUJKAS_clean_linker_0, # of connection points: 2
# Relax obj value: 0.051
# Max RMSD: 0.056
# Mean RMSD: 0.056
data_MOF--net-mdf--node1-NAHDIM_clean_sbu_0--edge1-ZUJKAS_clean_linker_0
_symmetry_space_group_name_H-M    P1
_symmetry_Int_Tables_number       1
_symmetry_cell_setting            triclinic
loop_
_symmetry_equiv_pos_as_xyz
'x, y, z'
_cell_length_a     45.576094
_cell_length_b     45.595175
_cell_length_c     19.241716
_cell_angle_alpha  89.984188
_cell_angle_beta   89.957187
_cell_angle_gamma 95.070336
loop_
_atom_site_label
_atom_site_type_symbol
_atom_site_fract_x
_atom_site_fract_y
_atom_site_fract_z
_atom_type_partial_charge
C0 C 0.25188 0.60026 0.49013 0.0
O1 O 0.26277 0.6148 0.43566 0.0
O2 O 0.27729 0.57434 0.33015 0.0
Zn3 Zn 0.26214 0.54813 0.4088 0.0
O4 O 0.22723 0.52105 0.37827 0.0
C5 C 0.31366 0.51587 0.39773 0.0
O6 O 0.31322 0.52503 0.33304 0.0
O7 O 0.2499 0.57227 0.48973 0.0
C8 C 0.22775 0.50596 0.32283 0.0
O9 O 0.25138 0.50869 0.28341 0.0
C10 C 0.26096 0.58472 0.28442 0.0
O11 O 0.2323 0.57845 0.28754 0.0
O12 O 0.29412 0.52328 0.43985 0.0
C13 C 0.40458 0.7646 0.52688 0.0
O14 O 0.39682 0.76889 0.5916 0.0
O15 O 0.42234 0.72028 0.66978 0.0
Zn16 Zn 0.45008 0.73565 0.59401 0.0
O17 O 0.47869 0.7685 0.6289 0.0
C18 C 0.48398 0.68586 0.60396 0.0
O19 O 0.47874 0.68931 0.67048 0.0
O20 O 0.42694 0.75062 0.51473 0.0
C21 C 0.49864 0.779 0.58743 0.0
O22 O 0.49944 0.76825 0.52416 0.0
C23 C 0.41915 0.73411 0.72623 0.0
O24 O 0.43448 0.75952 0.73637 0.0
O25 O 0.47343 0.70305 0.56039 0.0
C26 C 0.27263 0.9141 0.96923 0.0
O27 O 0.28184 0.9112 0.90507 0.0
O28 O 0.22742 0.93303 0.82623 0.0
Zn29 Zn 0.24263 0.95914 0.90521 0.0
O30 O 0.27724 0.98632 0.87312 0.0
C31 C 0.18565 0.97211 0.95796 0.0
O32 O 0.18048 0.9433 0.95831 0.0
O33 O 0.25528 0.9337 0.98267 0.0
C34 C 0.27382 0.00441 0.82416 0.0
O35 O 0.24779 0.00465 0.79501 0.0
C36 C 0.20601 0.93951 0.78862 0.0
O37 O 0.19389 0.96412 0.80042 0.0
O38 O 0.21078 0.98357 0.93864 0.0
C39 C 0.08752 0.72147 0.03473 0.0
O40 O 0.08291 0.70584 0.09171 0.0
O41 O 0.07412 0.76882 0.18604 0.0
Zn42 Zn 0.04845 0.75735 0.10349 0.0
O43 O 0.01823 0.72376 0.1283 0.0
C44 C 0.02338 0.81354 0.11173 0.0
O45 O 0.03316 0.81307 0.17587 0.0
O46 O 0.07458 0.74481 0.0272 0.0
C47 C 0.99323 0.72893 0.15251 0.0
O48 O 0.98722 0.75635 0.16084 0.0
C49 C 0.06604 0.76387 0.24849 0.0
O50 O 0.04002 0.75012 0.26089 0.0
O51 O 0.02774 0.79233 0.07116 0.0
C52 C 0.71935 0.07349 0.96237 0.0
O53 O 0.70166 0.06294 0.91274 0.0
O54 O 0.77771 0.06305 0.81123 0.0
Zn55 Zn 0.76004 0.03934 0.89127 0.0
O56 O 0.72652 0.01068 0.85894 0.0
C57 C 0.80758 0.00309 0.88921 0.0
O58 O 0.80209 0.00435 0.82231 0.0
O59 O 0.74568 0.06637 0.96397 0.0
C60 C 0.72451 0.00142 0.79667 0.0
O61 O 0.74471 0.0109 0.75129 0.0
C62 C 0.76476 0.08155 0.7758 0.0
O63 O 0.73753 0.08642 0.79123 0.0
O64 O 0.79193 0.01657 0.93122 0.0
C65 C 0.91033 0.26457 0.02761 0.0
O66 O 0.90474 0.27039 0.09292 0.0
O67 O 0.9328 0.22579 0.17254 0.0
Zn68 Zn 0.95859 0.23991 0.0918 0.0
O69 O 0.98559 0.27555 0.11864 0.0
C70 C 0.97256 0.18164 0.04995 0.0
O71 O 0.9439 0.17545 0.05404 0.0
O72 O 0.93278 0.25104 0.01322 0.0
C73 C 0.99886 0.27725 0.17676 0.0
O74 O 0.99439 0.25551 0.22135 0.0
C75 C 0.94028 0.20645 0.21501 0.0
O76 O 0.96591 0.19572 0.20742 0.0
O77 O 0.98344 0.20776 0.0622 0.0
C78 C 0.75271 0.3989 0.48669 0.0
O79 O 0.74006 0.38413 0.43455 0.0
O80 O 0.72801 0.4222 0.32591 0.0
Zn81 Zn 0.7408 0.44976 0.40405 0.0
O82 O 0.77374 0.47888 0.37136 0.0
C83 C 0.69544 0.48869 0.39022 0.0
O84 O 0.70665 0.4911 0.32735 0.0
O85 O 0.7551 0.42689 0.485 0.0
C86 C 0.77865 0.50371 0.40108 0.0
O87 O 0.76232 0.50996 0.45446 0.0
C88 C 0.73269 0.42877 0.26245 0.0
O89 O 0.74646 0.45443 0.24652 0.0
O90 O 0.70641 0.4717 0.43359 0.0
C91 C 0.60106 0.2406 0.51113 0.0
O92 O 0.61664 0.24795 0.56685 0.0
O93 O 0.58116 0.27619 0.66518 0.0
Zn94 Zn 0.55267 0.26107 0.59102 0.0
O95 O 0.52369 0.22919 0.62921 0.0
C96 C 0.51444 0.30645 0.60425 0.0
O97 O 0.5141 0.29664 0.66851 0.0
O98 O 0.57383 0.24465 0.50996 0.0
C99 C 0.50043 0.22203 0.59457 0.0
O100 O 0.49634 0.2355 0.53543 0.0
C101 C 0.58682 0.26114 0.71832 0.0
O102 O 0.57398 0.23436 0.7254 0.0
O103 O 0.53011 0.29457 0.55943 0.0
H104 H 0.41227 0.75406 0.85881 0.0
H105 H 0.38146 0.73059 0.95094 0.0
H106 H 0.3492 0.66215 0.80862 0.0
H107 H 0.38033 0.68507 0.7166 0.0
H108 H 0.32047 0.71506 0.96234 0.0
H109 H 0.38464 0.61697 0.96709 0.0
H110 H 0.39727 0.65042 0.92197 0.0
H111 H 0.36962 0.62487 0.88361 0.0
C112 C 0.39853 0.73408 0.84699 0.0
C113 C 0.39906 0.72119 0.78068 0.0
C114 C 0.38087 0.72077 0.89963 0.0
C115 C 0.36346 0.69441 0.8868 0.0
C116 C 0.36295 0.68219 0.81988 0.0
H117 H 0.23386 0.60582 0.16985 0.0
H118 H 0.25722 0.63401 0.07309 0.0
C119 C 0.38072 0.69535 0.76737 0.0
C120 C 0.34696 0.67897 0.94428 0.0
H121 H 0.34242 0.61537 0.03855 0.0
C122 C 0.32518 0.69325 0.97909 0.0
C123 C 0.35349 0.65068 0.96639 0.0
C124 C 0.3777 0.63489 0.93335 0.0
C125 C 0.30965 0.67989 0.03555 0.0
C126 C 0.31586 0.65139 0.05678 0.0
C127 C 0.3376 0.63716 0.02182 0.0
C128 C 0.30108 0.63615 0.11691 0.0
C129 C 0.28734 0.69665 0.07307 0.0
C130 C 0.31804 0.62779 0.17314 0.0
C131 C 0.30488 0.61148 0.22793 0.0
C132 C 0.27443 0.60316 0.22758 0.0
C133 C 0.25735 0.61198 0.17175 0.0
C134 C 0.27061 0.62825 0.11665 0.0
H135 H 0.29022 0.72058 0.06114 0.0
H136 H 0.26486 0.68814 0.05657 0.0
H137 H 0.28894 0.69367 0.13018 0.0
H138 H 0.34161 0.63362 0.17421 0.0
H139 H 0.31868 0.60515 0.2702 0.0
H140 H 0.41653 0.76226 0.38769 0.0
H141 H 0.39079 0.78494 0.29293 0.0
H142 H 0.32961 0.81682 0.43992 0.0
H143 H 0.35535 0.79456 0.53514 0.0
H144 H 0.33049 0.7774 0.25062 0.0
H145 H 0.3643 0.89156 0.33822 0.0
H146 H 0.38143 0.86005 0.37043 0.0
H147 H 0.34608 0.86813 0.40301 0.0
C148 C 0.39755 0.77402 0.3999 0.0
C149 C 0.38816 0.77687 0.46904 0.0
C150 C 0.38284 0.78689 0.34567 0.0
C151 C 0.35862 0.80288 0.35968 0.0
C152 C 0.34861 0.80498 0.42829 0.0
H153 H 0.25543 0.91239 0.10541 0.0
H154 H 0.27414 0.883 0.19909 0.0
C155 C 0.36331 0.79218 0.48257 0.0
C156 C 0.34433 0.81807 0.30271 0.0
H157 H 0.33128 0.88625 0.24374 0.0
C158 C 0.33062 0.80119 0.24893 0.0
C159 C 0.34464 0.84909 0.30085 0.0
C160 C 0.3601 0.86836 0.35582 0.0
C161 C 0.3168 0.81457 0.19357 0.0
C162 C 0.31722 0.84563 0.19163 0.0
C163 C 0.33087 0.86243 0.24559 0.0
C164 C 0.30428 0.86143 0.13355 0.0
C165 C 0.3015 0.79533 0.13836 0.0
C166 C 0.31504 0.85902 0.06565 0.0
C167 C 0.30436 0.87573 0.01193 0.0
C168 C 0.28294 0.89539 0.02537 0.0
C169 C 0.27198 0.89751 0.09334 0.0
C170 C 0.2826 0.88071 0.14692 0.0
H171 H 0.29594 0.77249 0.15734 0.0
H172 H 0.28098 0.80444 0.12063 0.0
H173 H 0.31637 0.79423 0.09292 0.0
H174 H 0.33227 0.84479 0.0545 0.0
H175 H 0.31334 0.87367 0.9602 0.0
H176 H 0.04977 0.77012 0.38387 0.0
H177 H 0.07808 0.7965 0.47578 0.0
H178 H 0.15209 0.81192 0.33661 0.0
H179 H 0.1236 0.78634 0.24366 0.0
H180 H 0.1305 0.79003 0.54076 0.0
H181 H 0.13616 0.89476 0.39165 0.0
H182 H 0.11298 0.86254 0.36568 0.0
H183 H 0.15184 0.86519 0.34749 0.0
C184 C 0.07216 0.77888 0.37296 0.0
C185 C 0.08431 0.77656 0.30625 0.0
C186 C 0.08832 0.79391 0.42557 0.0
C187 C 0.11693 0.80671 0.41249 0.0
C188 C 0.12976 0.80287 0.34719 0.0
H189 H 0.22911 0.88984 0.74085 0.0
H190 H 0.20928 0.85648 0.64931 0.0
C191 C 0.1135 0.78814 0.29428 0.0
C192 C 0.13257 0.82535 0.46615 0.0
H193 H 0.16107 0.8957 0.49902 0.0
C194 C 0.13732 0.81311 0.5317 0.0
C195 C 0.14104 0.85555 0.45428 0.0
C196 C 0.13504 0.87042 0.38624 0.0
C197 C 0.1501 0.83035 0.58604 0.0
C198 C 0.15889 0.86046 0.57381 0.0
C199 C 0.15447 0.87256 0.50802 0.0
C200 C 0.17116 0.88035 0.62939 0.0
C201 C 0.1531 0.81645 0.65658 0.0
C202 C 0.15673 0.90523 0.64718 0.0
C203 C 0.16818 0.92451 0.69861 0.0
C204 C 0.19429 0.91925 0.7334 0.0
C205 C 0.20884 0.89438 0.71528 0.0
C206 C 0.19744 0.87518 0.66335 0.0
H207 H 0.13888 0.79546 0.66163 0.0
H208 H 0.17628 0.81153 0.66431 0.0
H209 H 0.14729 0.8316 0.69858 0.0
H210 H 0.13645 0.90966 0.6214 0.0
H211 H 0.15642 0.94343 0.71137 0.0
H212 H 0.10777 0.75233 0.9199 0.0
H213 H 0.14042 0.73639 0.8292 0.0
H214 H 0.14481 0.6534 0.93469 0.0
H215 H 0.1128 0.66945 0.02658 0.0
H216 H 0.19897 0.67664 0.88769 0.0
H217 H 0.11521 0.6777 0.67811 0.0
H218 H 0.12262 0.71224 0.72219 0.0
H219 H 0.10594 0.68086 0.76877 0.0
C220 C 0.11566 0.73067 0.92379 0.0
C221 C 0.10749 0.71203 0.98012 0.0
C222 C 0.13423 0.72156 0.87177 0.0
C223 C 0.14459 0.69351 0.8746 0.0
C224 C 0.13695 0.6751 0.93143 0.0
H225 H 0.23345 0.57748 0.61567 0.0
H226 H 0.21097 0.60301 0.71086 0.0
C227 C 0.11859 0.68428 0.98377 0.0
C228 C 0.1631 0.68307 0.81803 0.0
H229 H 0.16285 0.66667 0.64494 0.0
C230 C 0.19112 0.67452 0.83456 0.0
C231 C 0.1528 0.6804 0.74874 0.0
C232 C 0.12241 0.68802 0.72829 0.0
C233 C 0.20905 0.66314 0.78366 0.0
C234 C 0.19851 0.66004 0.7148 0.0
C235 C 0.17084 0.66924 0.69788 0.0
C236 C 0.21487 0.64554 0.66022 0.0
C237 C 0.23908 0.65447 0.80382 0.0
C238 C 0.2244 0.66104 0.60019 0.0
C239 C 0.23728 0.64652 0.54561 0.0
C240 C 0.24041 0.61616 0.54986 0.0
C241 C 0.23131 0.60086 0.61072 0.0
C242 C 0.21866 0.61544 0.66539 0.0
H243 H 0.24684 0.66493 0.85343 0.0
H244 H 0.23795 0.63023 0.81073 0.0
H245 H 0.25551 0.66065 0.76252 0.0
H246 H 0.22141 0.68426 0.59516 0.0
H247 H 0.24402 0.65893 0.49942 0.0
H248 H 0.82014 0.07449 0.72902 0.0
H249 H 0.84564 0.0986 0.63024 0.0
H250 H 0.77025 0.1467 0.58868 0.0
H251 H 0.74441 0.12276 0.68827 0.0
H252 H 0.82527 0.09657 0.48905 0.0
H253 H 0.84137 0.21076 0.59382 0.0
H254 H 0.83288 0.17913 0.64915 0.0
H255 H 0.80461 0.19279 0.59646 0.0
C256 C 0.80895 0.0903 0.69925 0.0
C257 C 0.78023 0.09675 0.71661 0.0
C258 C 0.82357 0.10403 0.64276 0.0
C259 C 0.8099 0.12457 0.6027 0.0
C260 C 0.78129 0.13119 0.61971 0.0
H261 H 0.88553 0.22354 0.24483 0.0
H262 H 0.8516 0.20407 0.3359 0.0
C263 C 0.76654 0.1174 0.67636 0.0
C264 C 0.82561 0.1382 0.54197 0.0
H265 H 0.86023 0.20273 0.48206 0.0
C266 C 0.83276 0.11982 0.48723 0.0
C267 C 0.8351 0.16855 0.53975 0.0
C268 C 0.82833 0.18906 0.59799 0.0
C269 C 0.84973 0.13087 0.43075 0.0
C270 C 0.86026 0.16098 0.42982 0.0
C271 C 0.85222 0.17962 0.4833 0.0
C272 C 0.88083 0.17313 0.37547 0.0
C273 C 0.85634 0.11021 0.37267 0.0
C274 C 0.90864 0.16251 0.36862 0.0
C275 C 0.92804 0.17353 0.31683 0.0
C276 C 0.92002 0.19551 0.27116 0.0
C277 C 0.89233 0.20653 0.27905 0.0
C278 C 0.87292 0.19548 0.331 0.0
H279 H 0.84011 0.09054 0.37121 0.0
H280 H 0.8563 0.12145 0.32146 0.0
H281 H 0.87849 0.10249 0.38094 0.0
H282 H 0.91536 0.14567 0.40342 0.0
H283 H 0.94926 0.16469 0.31246 0.0
H284 H 0.91713 0.25859 0.88707 0.0
H285 H 0.88762 0.27847 0.79497 0.0
H286 H 0.83181 0.31394 0.94903 0.0
H287 H 0.86098 0.29398 0.04152 0.0
H288 H 0.80111 0.28547 0.83308 0.0
H289 H 0.89197 0.3681 0.75337 0.0
H290 H 0.90118 0.33059 0.75574 0.0
H291 H 0.89214 0.34858 0.83497 0.0
C292 C 0.89849 0.27047 0.90141 0.0
C293 C 0.89157 0.27495 0.97164 0.0
C294 C 0.88172 0.28187 0.84873 0.0
C295 C 0.85784 0.29797 0.86539 0.0
C296 C 0.85025 0.30163 0.93526 0.0
H297 H 0.77686 0.42248 0.6064 0.0
H298 H 0.80016 0.39675 0.7 0.0
C299 C 0.86701 0.29029 0.98798 0.0
C300 C 0.84139 0.31198 0.81014 0.0
H301 H 0.84873 0.36527 0.68536 0.0
C302 C 0.81144 0.30289 0.8006 0.0
C303 C 0.85496 0.33494 0.76871 0.0
C304 C 0.88676 0.34639 0.77883 0.0
C305 C 0.79469 0.31603 0.74996 0.0
C306 C 0.80841 0.33867 0.70774 0.0
C307 C 0.83832 0.34784 0.71771 0.0
C308 C 0.79222 0.35359 0.65339 0.0
C309 C 0.76238 0.30605 0.74303 0.0
C310 C 0.77996 0.33782 0.59627 0.0
C311 C 0.76648 0.35245 0.5428 0.0
C312 C 0.76537 0.38316 0.54517 0.0
C313 C 0.77739 0.39883 0.6029 0.0
C314 C 0.79071 0.38417 0.65644 0.0
H315 H 0.75397 0.293 0.78876 0.0
H316 H 0.74919 0.32522 0.73663 0.0
H317 H 0.75896 0.2919 0.69633 0.0
H318 H 0.78149 0.31432 0.5921 0.0
H319 H 0.75757 0.33975 0.49888 0.0
H320 H 0.73091 0.43923 0.12275 0.0
H321 H 0.70973 0.40614 0.03237 0.0
H322 H 0.68905 0.33857 0.1861 0.0
H323 H 0.70953 0.37173 0.27709 0.0
H324 H 0.72302 0.3511 0.98849 0.0
H325 H 0.60953 0.34647 0.09628 0.0
H326 H 0.63869 0.37283 0.1258 0.0
H327 H 0.63669 0.33539 0.15602 0.0
C328 C 0.72192 0.41731 0.13735 0.0
C329 C 0.72157 0.40822 0.20717 0.0
C330 C 0.70988 0.39842 0.08562 0.0
C331 C 0.69735 0.37012 0.10278 0.0
C332 C 0.69798 0.36058 0.17203 0.0
H333 H 0.59823 0.23821 0.84596 0.0
H334 H 0.62808 0.26195 0.93937 0.0
C335 C 0.7098 0.37952 0.22388 0.0
C336 C 0.68303 0.35096 0.04825 0.0
H337 H 0.61676 0.31664 -0.00128 0.0
C338 C 0.69981 0.34348 0.99075 0.0
C339 C 0.65273 0.34107 0.05145 0.0
C340 C 0.63325 0.34953 0.11033 0.0
C341 C 0.68704 0.32644 0.93609 0.0
C342 C 0.6567 0.31692 0.93894 0.0
C343 C 0.64007 0.32387 0.99705 0.0
C344 C 0.64119 0.30135 0.88039 0.0
C345 C 0.7061 0.31873 0.87584 0.0
C346 C 0.63877 0.31567 0.81644 0.0
C347 C 0.62165 0.30229 0.7632 0.0
C348 C 0.60655 0.27433 0.77307 0.0
C349 C 0.60959 0.25973 0.8367 0.0
C350 C 0.62663 0.27323 0.89008 0.0
H351 H 0.72982 0.32069 0.89003 0.0
H352 H 0.69981 0.29599 0.85725 0.0
H353 H 0.70313 0.33411 0.83221 0.0
H354 H 0.64938 0.33762 0.80843 0.0
H355 H 0.61979 0.31413 0.71482 0.0
H356 H 0.66438 0.09246 0.97406 0.0
H357 H 0.64616 0.12362 0.06494 0.0
H358 H 0.73129 0.12942 0.16417 0.0
H359 H 0.74986 0.09851 0.07309 0.0
H360 H 0.6443 0.11094 0.20755 0.0
H361 H 0.71215 0.2158 0.1536 0.0
H362 H 0.70777 0.18608 0.0914 0.0
H363 H 0.73262 0.18413 0.16336 0.0
C364 C 0.67932 0.10052 0.01489 0.0
C365 C 0.70858 0.09301 0.01632 0.0
C366 C 0.66887 0.11833 0.06673 0.0
C367 C 0.68749 0.1291 0.12068 0.0
C368 C 0.71674 0.12179 0.12219 0.0
H369 H 0.65811 0.22696 0.49802 0.0
H370 H 0.67947 0.20041 0.40253 0.0
C371 C 0.72724 0.10397 0.07034 0.0
C372 C 0.67576 0.14667 0.17727 0.0
H373 H 0.68338 0.21389 0.25665 0.0
C374 C 0.65273 0.13349 0.21813 0.0
C375 C 0.68699 0.176 0.19105 0.0
C376 C 0.71108 0.1915 0.14726 0.0
C377 C 0.64076 0.14878 0.27297 0.0
C378 C 0.6518 0.17819 0.28642 0.0
C379 C 0.67498 0.19134 0.24596 0.0
C380 C 0.63932 0.19562 0.34218 0.0
C381 C 0.61674 0.13317 0.31685 0.0
C382 C 0.60989 0.20224 0.33889 0.0
C383 C 0.5976 0.21733 0.39324 0.0
C384 C 0.61461 0.2262 0.45176 0.0
C385 C 0.64438 0.22032 0.45385 0.0
C386 C 0.65665 0.20521 0.39936 0.0
H387 H 0.61588 0.10887 0.31081 0.0
H388 H 0.61997 0.13871 0.37267 0.0
H389 H 0.59513 0.14031 0.30055 0.0
H390 H 0.59633 0.19545 0.29452 0.0
H391 H 0.57467 0.22169 0.38973 0.0
H392 H 0.35635 0.49336 0.31908 0.0
H393 H 0.3918 0.45922 0.35596 0.0
H394 H 0.35738 0.46023 0.56467 0.0
H395 H 0.32156 0.49402 0.5282 0.0
H396 H 0.4356 0.46509 0.45897 0.0
H397 H 0.35168 0.37241 0.51657 0.0
H398 H 0.34331 0.40437 0.46753 0.0
H399 H 0.34579 0.40609 0.5607 0.0
C400 C 0.35631 0.48636 0.37287 0.0
C401 C 0.33596 0.49623 0.42059 0.0
C402 C 0.37661 0.46688 0.39383 0.0
C403 C 0.37687 0.45686 0.46272 0.0
C404 C 0.35712 0.46725 0.51091 0.0
H405 H 0.4769 0.33451 0.68658 0.0
H406 H 0.445 0.37239 0.65237 0.0
C407 C 0.33676 0.48667 0.49001 0.0
C408 C 0.39769 0.43539 0.48405 0.0
H409 H 0.40085 0.36607 0.54902 0.0
C410 C 0.42805 0.4434 0.47846 0.0
C411 C 0.38771 0.40711 0.50929 0.0
C412 C 0.35535 0.39679 0.51338 0.0
C413 C 0.44876 0.424 0.49868 0.0
C414 C 0.43875 0.39579 0.52418 0.0
C415 C 0.4084 0.38779 0.52968 0.0
C416 C 0.45931 0.37404 0.54513 0.0
C417 C 0.48115 0.43403 0.49385 0.0
C418 C 0.47784 0.36237 0.496 0.0
C419 C 0.49609 0.34067 0.51531 0.0
C420 C 0.496 0.33018 0.58408 0.0
C421 C 0.47754 0.34211 0.63323 0.0
C422 C 0.45929 0.36376 0.61382 0.0
H423 H 0.48503 0.45836 0.48932 0.0
H424 H 0.49317 0.42674 0.54004 0.0
H425 H 0.49055 0.42413 0.44707 0.0
H426 H 0.47777 0.36964 0.4424 0.0
H427 H 0.50996 0.33186 0.47615 0.0
H428 H 0.71549 0.97497 0.67009 0.0
H429 H 0.67575 0.9381 0.63678 0.0
H430 H 0.63884 0.94128 0.84275 0.0
H431 H 0.67835 0.97834 0.87653 0.0
H432 H 0.66211 0.88231 0.69963 0.0
H433 H 0.56812 0.95189 0.71423 0.0
H434 H 0.60598 0.96729 0.71038 0.0
H435 H 0.59091 0.95233 0.79047 0.0
C436 C 0.69882 0.968 0.70824 0.0
C437 C 0.70006 0.97964 0.77595 0.0
C438 C 0.67616 0.94691 0.6891 0.0
C439 C 0.6542 0.93725 0.73705 0.0
C440 C 0.6553 0.94884 0.80462 0.0
H441 H 0.50345 0.8062 0.71443 0.0
H442 H 0.54138 0.8443 0.75209 0.0
C443 C 0.678 0.96989 0.8239 0.0
C444 C 0.6308 0.91423 0.71697 0.0
H445 H 0.55649 0.90088 0.6948 0.0
C446 C 0.63902 0.88636 0.69835 0.0
C447 C 0.60071 0.91961 0.71579 0.0
C448 C 0.5908 0.94945 0.73321 0.0
C449 C 0.6179 0.86357 0.67906 0.0
C450 C 0.58784 0.86902 0.67712 0.0
C451 C 0.57957 0.89682 0.69634 0.0
C452 C 0.56472 0.84625 0.65404 0.0
C453 C 0.6279 0.83372 0.66201 0.0
C454 C 0.56506 0.83513 0.58612 0.0
C455 C 0.54349 0.8134 0.56445 0.0
C456 C 0.52106 0.80249 0.61024 0.0
C457 C 0.52049 0.81405 0.67797 0.0
C458 C 0.5421 0.83583 0.69957 0.0
H459 H 0.65013 0.831 0.68349 0.0
H460 H 0.61217 0.81582 0.68261 0.0
H461 H 0.62903 0.83123 0.60473 0.0
H462 H 0.58201 0.84331 0.54976 0.0
H463 H 0.54449 0.80512 0.51183 0.0
H464 H 0.95755 0.12226 0.03922 0.0
H465 H 0.99095 0.08321 0.0286 0.0
H466 H 0.06532 0.14857 0.02255 0.0
H467 H 0.03231 0.18761 0.03415 0.0
H468 H 0.03233 0.0725 0.92645 0.0
H469 H 0.08638 0.09469 0.18112 0.0
H470 H 0.05238 0.1096 0.15741 0.0
H471 H 0.08709 0.1268 0.12702 0.0
C472 C 0.98101 0.12832 0.03537 0.0
C473 C 0.9923 0.15803 0.03817 0.0
C474 C 4e-05 0.10599 0.0294 0.0
C475 C 0.03061 0.11301 0.02637 0.0
C476 C 0.04183 0.14266 0.02663 0.0
H477 H 0.18985 0.0321 0.96556 0.0
H478 H 0.15017 0.06379 0.98511 0.0
C479 C 0.0229 0.16496 0.0328 0.0
C480 C 0.05098 0.08949 0.02262 0.0
H481 H 0.11075 0.06428 0.10238 0.0
C482 C 0.04925 0.07039 0.96529 0.0
C483 C 0.07285 0.08668 0.07377 0.0
C484 C 0.07466 0.10533 0.13867 0.0
C485 C 0.06979 0.04951 0.95597 0.0
C486 C 0.09237 0.04757 0.00572 0.0
C487 C 0.09348 0.06598 0.06418 0.0
C488 C 0.11615 0.02789 0.99595 0.0
C489 C 0.06795 0.03048 0.8917 0.0
C490 C 0.11018 0.99718 0.99683 0.0
C491 C 0.13287 0.97893 0.98586 0.0
C492 C 0.16187 0.99116 0.97384 0.0
C493 C 0.16778 0.02196 0.97446 0.0
C494 C 0.14514 0.04012 0.98564 0.0
H495 H 0.05241 0.03823 0.85268 0.0
H496 H 0.08999 0.03011 0.86725 0.0
H497 H 0.06019 0.00756 0.90638 0.0
H498 H 0.08798 0.98735 0.00577 0.0
H499 H 0.1276 0.9553 0.98584 0.0
H500 H 0.94086 0.733 0.21899 0.0
H501 H 0.90585 0.69285 0.25856 0.0
H502 H 0.96111 0.62955 0.17395 0.0
H503 H 0.99669 0.66965 0.13545 0.0
H504 H 0.87445 0.6497 0.18465 0.0
H505 H 0.9487 0.60052 0.37224 0.0
H506 H 0.95744 0.63637 0.33398 0.0
H507 H 0.96286 0.60365 0.28521 0.0
C508 C 0.94564 0.71055 0.20883 0.0
C509 C 0.97167 0.70451 0.17444 0.0
C510 C 0.92558 0.68762 0.23147 0.0
C511 C 0.9311 0.65822 0.22022 0.0
C512 C 0.95675 0.65208 0.18463 0.0
H513 H 0.81875 0.49657 0.29779 0.0
H514 H 0.85625 0.53351 0.25236 0.0
C515 C 0.97696 0.67502 0.16228 0.0
C516 C 0.90969 0.63414 0.24516 0.0
H517 H 0.9019 0.57462 0.35377 0.0
C518 C 0.88047 0.6333 0.22159 0.0
C519 C 0.91759 0.61282 0.29362 0.0
C520 C 0.94827 0.61343 0.32333 0.0
C521 C 0.85896 0.61167 0.24513 0.0
C522 C 0.8669 0.59043 0.2933 0.0
C523 C 0.89608 0.59098 0.31648 0.0
C524 C 0.84482 0.568 0.32174 0.0
C525 C 0.82779 0.61157 0.21881 0.0
C526 C 0.82631 0.57529 0.37605 0.0
C527 C 0.805 0.55429 0.40237 0.0
C528 C 0.8018 0.52567 0.37452 0.0
C529 C 0.82062 0.51843 0.32031 0.0
C530 C 0.84205 0.53943 0.29432 0.0
H531 H 0.82572 0.62799 0.17682 0.0
H532 H 0.82005 0.58936 0.19891 0.0
H533 H 0.81307 0.61664 0.26236 0.0
H534 H 0.82828 0.5973 0.39778 0.0
H535 H 0.79086 0.5606 0.44404 0.0
H536 H 0.27423 0.04372 0.71705 0.0
H537 H 0.31449 0.07942 0.68106 0.0
H538 H 0.36916 0.04934 0.84457 0.0
H539 H 0.32915 0.01313 0.88026 0.0
H540 H 0.34178 0.12481 0.75833 0.0
H541 H 0.42267 0.04751 0.67517 0.0
H542 H 0.3843 0.0358 0.68993 0.0
H543 H 0.40909 0.04176 0.76218 0.0
C544 C 0.29487 0.04451 0.74512 0.0
C545 C 0.29851 0.02551 0.80141 0.0
C546 C 0.31785 0.06496 0.72449 0.0
C547 C 0.34493 0.06677 0.75955 0.0
C548 C 0.34865 0.04788 0.81585 0.0
H549 H 0.50357 0.18706 0.70972 0.0
H550 H 0.46605 0.14954 0.75255 0.0
C551 C 0.3257 0.02732 0.83641 0.0
C552 C 0.36877 0.08924 0.73856 0.0
H553 H 0.43936 0.09825 0.67722 0.0
C554 C 0.3631 0.119 0.74048 0.0
C555 C 0.3966 0.08159 0.71559 0.0
C556 C 0.40355 0.04993 0.7099 0.0
C557 C 0.38451 0.14133 0.7201 0.0
C558 C 0.41218 0.13366 0.69647 0.0
C559 C 0.41808 0.10398 0.6955 0.0
C560 C 0.43493 0.15614 0.67044 0.0
C561 C 0.37747 0.173 0.72446 0.0
C562 C 0.42991 0.17191 0.60967 0.0
C563 C 0.45126 0.19323 0.58495 0.0
C564 C 0.47805 0.19916 0.6206 0.0
C565 C 0.48312 0.18309 0.68122 0.0
C566 C 0.46176 0.16164 0.70571 0.0
H567 H 0.35824 0.17562 0.75872 0.0
H568 H 0.39668 0.18725 0.74425 0.0
H569 H 0.37215 0.18085 0.67175 0.0
H570 H 0.40948 0.16764 0.58121 0.0
H571 H 0.44668 0.20512 0.53803 0.0
H572 H 0.84179 0.96866 0.81357 0.0
H573 H 0.88086 0.9399 0.85579 0.0
H574 H 0.86758 0.97105 0.06411 0.0
H575 H 0.82798 -0.00053 0.02258 0.0
H576 H 0.93312 0.95746 0.92291 0.0
H577 H 0.86083 0.88206 0.08919 0.0
H578 H 0.84636 0.90604 0.02558 0.0
H579 H 0.85929 0.92046 0.10808 0.0
C580 C 0.8471 0.96938 0.86843 0.0
C581 C 0.8316 0.98615 0.91484 0.0
C582 C 0.8695 0.95298 0.8924 0.0
C583 C 0.87682 0.95301 0.96318 0.0
C584 C 0.86185 0.97024 0.00949 0.0
H585 H 0.00272 0.85688 0.19128 0.0
H586 H 0.96934 0.8933 0.15578 0.0
C587 C 0.83931 0.98655 0.98562 0.0
C588 C 0.90001 0.93481 0.98819 0.0
H589 H 0.91193 0.87701 0.0942 0.0
C590 C 0.92852 0.93988 0.96041 0.0
C591 C 0.8939 0.9119 0.03709 0.0
C592 C 0.8634 0.90453 0.06635 0.0
C593 C 0.95111 0.9226 0.98028 0.0
C594 C 0.94488 0.89958 0.02865 0.0
C595 C 0.91656 0.8948 0.05727 0.0
C596 C 0.96707 0.87934 0.04839 0.0
C597 C 0.98148 0.92912 0.94977 0.0
C598 C 0.97685 0.85956 -0.00046 0.0
C599 C 0.99576 0.83859 0.01966 0.0
C600 C 0.0052 0.83709 0.08904 0.0
C601 C 0.9959 0.85747 0.13743 0.0
C602 C 0.97683 0.87828 0.11733 0.0
H603 H 0.98435 0.95137 0.92584 0.0
H604 H 0.99864 0.92753 0.99022 0.0
H605 H 0.98504 0.91265 0.90887 0.0
H606 H 0.96918 0.85979 0.94628 0.0
H607 H 0.00251 0.82321 0.98116 0.0
H608 H 0.03051 0.28763 0.29614 0.0
H609 H 0.06731 0.3286 0.32061 0.0
H610 H 0.05293 0.3651 0.11797 0.0
H611 H 0.01576 0.32442 0.09328 0.0
H612 H 0.11889 0.34309 0.24757 0.0
H613 H 0.04793 0.43598 0.24668 0.0
H614 H 0.03314 0.39799 0.25273 0.0
H615 H 0.04474 0.41339 0.17014 0.0
C616 C 0.03495 0.3045 0.25695 0.0
C617 C 0.02017 0.30276 0.19277 0.0
C618 C 0.05601 0.32788 0.27104 0.0
C619 C 0.0626 0.35005 0.22143 0.0
C620 C 0.04776 0.34853 0.1575 0.0
H621 H 0.22233 0.46928 0.21019 0.0
H622 H 0.18186 0.43208 0.18398 0.0
C623 C 0.02664 0.32516 0.14336 0.0
C624 C 0.08607 0.37389 0.23541 0.0
H625 H 0.09967 0.44851 0.24978 0.0
C626 C 0.11469 0.36614 0.24822 0.0
C627 C 0.08044 0.4039 0.23683 0.0
C628 C 0.04986 0.4134 0.22651 0.0
C629 C 0.13795 0.38762 0.26172 0.0
C630 C 0.1325 0.41768 0.26125 0.0
C631 C 0.10381 0.42545 0.24932 0.0
C632 C 0.15623 0.44129 0.27485 0.0
C633 C 0.16804 0.37792 0.27763 0.0
C634 C 0.15475 0.4594 0.3334 0.0
C635 C 0.17776 0.48078 0.3484 0.0
C636 C 0.20262 0.48449 0.30484 0.0
C637 C 0.20361 0.46686 0.24507 0.0
C638 C 0.18057 0.4455 0.23015 0.0
H639 H 0.16695 0.35429 0.2924 0.0
H640 H 0.18218 0.38107 0.23076 0.0
H641 H 0.17874 0.39123 0.32044 0.0
H642 H 0.13605 0.45657 0.36834 0.0
H643 H 0.17623 0.49407 0.39468 0.0
H644 H 0.50822 0.64428 0.68271 0.0
H645 H 0.54215 0.60879 0.64447 0.0
H646 H 0.53702 0.64069 0.43428 0.0
H647 H 0.5032 0.67633 0.47185 0.0
H648 H 0.53457 0.56367 0.53677 0.0
H649 H 0.62643 0.64927 0.4833 0.0
H650 H 0.595 0.65632 0.53594 0.0
H651 H 0.59188 0.65517 0.44293 0.0
C652 C 0.51421 0.6437 0.62828 0.0
C653 C 0.50318 0.66329 0.5804 0.0
C654 C 0.53354 0.62337 0.60657 0.0
C655 C 0.54232 0.62244 0.53681 0.0
C656 C 0.53078 0.64139 0.48855 0.0
H657 H 0.6682 0.52773 0.31046 0.0
H658 H 0.62955 0.55854 0.34567 0.0
C659 C 0.51139 0.66166 0.51011 0.0
C660 C 0.56405 0.60206 0.51473 0.0
H661 H 0.6338 0.60044 0.45123 0.0
C662 C 0.5563 0.57162 0.5182 0.0
C663 C 0.59234 0.61263 0.49065 0.0
C664 C 0.60213 0.64511 0.48838 0.0
C665 C 0.57602 0.55139 0.49691 0.0
C666 C 0.60433 0.56197 0.47283 0.0
C667 C 0.61204 0.59242 0.46953 0.0
C668 C 0.62648 0.54194 0.45099 0.0
C669 C 0.56619 0.51892 0.49896 0.0
C670 C 0.6376 0.52244 0.49868 0.0
C671 C 0.65972 0.50477 0.47875 0.0
C672 C 0.67121 0.50644 0.41085 0.0
C673 C 0.65983 0.52586 0.36312 0.0
C674 C 0.63775 0.5435 0.38311 0.0
H675 H 0.54181 0.51484 0.50146 0.0
H676 H 0.57421 0.5075 0.45261 0.0
H677 H 0.57546 0.50904 0.5459 0.0
H678 H 0.62962 0.52134 0.55173 0.0
H679 H 0.66809 0.49014 0.51684 0.0
loop_
_geom_bond_atom_site_label_1
_geom_bond_atom_site_label_2
_geom_bond_distance
_geom_bond_site_symmetry_2
_ccdc_geom_bond_type
C0 O1 1.160 . S
C0 O7 1.185 . S
O1 C0 1.160 . S
O2 Zn3 1.899 . S
O2 C10 1.284 . S
Zn3 O2 1.899 . S
Zn3 O4 2.032 . S
Zn3 O7 2.086 . S
Zn3 O12 1.977 . S
O4 Zn3 2.032 . S
O4 C8 1.278 . S
C5 O6 1.203 . S
C5 O12 1.267 . S
O6 C5 1.203 . S
O7 C0 1.185 . S
O7 Zn3 2.086 . S
C8 O4 1.278 . S
C8 O9 1.211 . S
O9 C8 1.211 . S
C10 O2 1.284 . S
C10 O11 1.273 . S
O11 C10 1.273 . S
O12 Zn3 1.977 . S
O12 C5 1.267 . S
C13 O14 1.160 . S
C13 O20 1.185 . S
O14 C13 1.160 . S
O15 Zn16 1.899 . S
O15 C23 1.284 . S
Zn16 O15 1.899 . S
Zn16 O17 2.032 . S
Zn16 O20 2.086 . S
Zn16 O25 1.977 . S
O17 Zn16 2.032 . S
O17 C21 1.278 . S
C18 O19 1.203 . S
C18 O25 1.267 . S
O19 C18 1.203 . S
O20 C13 1.185 . S
O20 Zn16 2.086 . S
C21 O17 1.278 . S
C21 O22 1.211 . S
O22 C21 1.211 . S
C23 O15 1.284 . S
C23 O24 1.273 . S
O24 C23 1.273 . S
O25 Zn16 1.977 . S
O25 C18 1.267 . S
C26 O27 1.160 . S
C26 O33 1.185 . S
O27 C26 1.160 . S
O28 Zn29 1.899 . S
O28 C36 1.284 . S
Zn29 O28 1.899 . S
Zn29 O30 2.032 . S
Zn29 O33 2.086 . S
Zn29 O38 1.977 . S
O30 Zn29 2.032 . S
O30 C34 1.278 . S
C31 O32 1.203 . S
C31 O38 1.267 . S
O32 C31 1.203 . S
O33 C26 1.185 . S
O33 Zn29 2.086 . S
C34 O30 1.278 . S
C34 O35 1.211 1_565 S
O35 C34 1.211 1_545 S
C36 O28 1.284 . S
C36 O37 1.273 . S
O37 C36 1.273 . S
O38 Zn29 1.977 . S
O38 C31 1.267 . S
C39 O40 1.160 . S
C39 O46 1.185 . S
O40 C39 1.160 . S
O41 Zn42 1.899 . S
O41 C49 1.284 . S
Zn42 O41 1.899 . S
Zn42 O43 2.032 . S
Zn42 O46 2.086 . S
Zn42 O51 1.977 . S
O43 Zn42 2.032 . S
O43 C47 1.278 . S
C44 O45 1.203 . S
C44 O51 1.267 . S
O45 C44 1.203 . S
O46 C39 1.185 . S
O46 Zn42 2.086 . S
C47 O43 1.278 . S
C47 O48 1.211 1_455 S
O48 C47 1.211 1_655 S
C49 O41 1.284 . S
C49 O50 1.273 . S
O50 C49 1.273 . S
O51 Zn42 1.977 . S
O51 C44 1.267 . S
C52 O53 1.160 . S
C52 O59 1.185 . S
O53 C52 1.160 . S
O54 Zn55 1.899 . S
O54 C62 1.284 . S
Zn55 O54 1.899 . S
Zn55 O56 2.032 . S
Zn55 O59 2.086 . S
Zn55 O64 1.977 . S
O56 Zn55 2.032 . S
O56 C60 1.278 . S
C57 O58 1.203 . S
C57 O64 1.267 . S
O58 C57 1.203 . S
O59 C52 1.185 . S
O59 Zn55 2.086 . S
C60 O56 1.278 . S
C60 O61 1.211 1_545 S
O61 C60 1.211 1_565 S
C62 O54 1.284 . S
C62 O63 1.273 . S
O63 C62 1.273 . S
O64 Zn55 1.977 . S
O64 C57 1.267 . S
C65 O66 1.160 . S
C65 O72 1.185 . S
O66 C65 1.160 . S
O67 Zn68 1.899 . S
O67 C75 1.284 . S
Zn68 O67 1.899 . S
Zn68 O69 2.032 . S
Zn68 O72 2.086 . S
Zn68 O77 1.977 . S
O69 Zn68 2.032 . S
O69 C73 1.278 . S
C70 O71 1.203 . S
C70 O77 1.267 . S
O71 C70 1.203 . S
O72 C65 1.185 . S
O72 Zn68 2.086 . S
C73 O69 1.278 . S
C73 O74 1.211 1_655 S
O74 C73 1.211 1_455 S
C75 O67 1.284 . S
C75 O76 1.273 . S
O76 C75 1.273 . S
O77 Zn68 1.977 . S
O77 C70 1.267 . S
C78 O79 1.160 . S
C78 O85 1.185 . S
O79 C78 1.160 . S
O80 Zn81 1.899 . S
O80 C88 1.284 . S
Zn81 O80 1.899 . S
Zn81 O82 2.032 . S
Zn81 O85 2.086 . S
Zn81 O90 1.977 . S
O82 Zn81 2.032 . S
O82 C86 1.278 . S
C83 O84 1.203 . S
C83 O90 1.267 . S
O84 C83 1.203 . S
O85 C78 1.185 . S
O85 Zn81 2.086 . S
C86 O82 1.278 . S
C86 O87 1.211 . S
O87 C86 1.211 . S
C88 O80 1.284 . S
C88 O89 1.273 . S
O89 C88 1.273 . S
O90 Zn81 1.977 . S
O90 C83 1.267 . S
C91 O92 1.160 . S
C91 O98 1.185 . S
O92 C91 1.160 . S
O93 Zn94 1.899 . S
O93 C101 1.284 . S
Zn94 O93 1.899 . S
Zn94 O95 2.032 . S
Zn94 O98 2.086 . S
Zn94 O103 1.977 . S
O95 Zn94 2.032 . S
O95 C99 1.278 . S
C96 O97 1.203 . S
C96 O103 1.267 . S
O97 C96 1.203 . S
O98 C91 1.185 . S
O98 Zn94 2.086 . S
C99 O95 1.278 . S
C99 O100 1.211 . S
O100 C99 1.211 . S
C101 O93 1.284 . S
C101 O102 1.273 . S
O102 C101 1.273 . S
O103 Zn94 1.977 . S
O103 C96 1.267 . S
H104 C112 0.929 . S
H105 C114 0.930 . S
H106 C116 0.930 . S
H107 C119 0.929 . S
H108 C122 0.930 . S
H109 C124 0.960 . S
H110 C124 0.960 . S
H111 C124 0.960 . S
C112 H104 0.929 . S
C112 C113 1.377 . S
C112 C114 1.384 . S
C113 C112 1.377 . S
C113 C119 1.390 . S
C114 H105 0.930 . S
C114 C112 1.384 . S
C114 C115 1.372 . S
C115 C114 1.372 . S
C115 C116 1.400 . S
C115 C120 1.490 . S
C116 H106 0.930 . S
C116 C115 1.400 . S
C116 C119 1.386 . S
H117 C133 0.930 . S
H118 C134 0.931 . S
C119 H107 0.929 . S
C119 C113 1.390 . S
C119 C116 1.386 . S
C120 C115 1.490 . S
C120 C122 1.395 . S
C120 C123 1.403 . S
H121 C127 0.930 . S
C122 H108 0.930 . S
C122 C120 1.395 . S
C122 C125 1.403 1_556 S
C123 C120 1.403 . S
C123 C124 1.524 . S
C123 C127 1.400 1_556 S
C124 H109 0.960 . S
C124 H110 0.960 . S
C124 H111 0.960 . S
C124 C123 1.524 . S
C125 C122 1.403 1_554 S
C125 C126 1.392 . S
C125 C129 1.495 . S
C126 C125 1.392 . S
C126 C127 1.385 . S
C126 C128 1.478 . S
C127 H121 0.930 . S
C127 C123 1.400 1_554 S
C127 C126 1.385 . S
C128 C126 1.478 . S
C128 C130 1.381 . S
C128 C134 1.383 . S
C129 C125 1.495 . S
C129 H135 0.959 . S
C129 H136 0.961 . S
C129 H137 0.960 . S
C130 C128 1.381 . S
C130 C131 1.394 . S
C130 H138 0.930 . S
C131 C130 1.394 . S
C131 C132 1.383 . S
C131 H139 0.929 . S
C132 C131 1.383 . S
C132 C133 1.377 . S
C133 H117 0.930 . S
C133 C132 1.377 . S
C133 C134 1.379 . S
C134 H118 0.931 . S
C134 C128 1.383 . S
C134 C133 1.379 . S
H135 C129 0.959 . S
H136 C129 0.961 . S
H137 C129 0.960 . S
H138 C130 0.930 . S
H139 C131 0.929 . S
H140 C148 0.929 . S
H141 C150 0.930 . S
H142 C152 0.930 . S
H143 C155 0.929 . S
H144 C158 0.930 . S
H145 C160 0.960 . S
H146 C160 0.960 . S
H147 C160 0.960 . S
C148 H140 0.929 . S
C148 C149 1.377 . S
C148 C150 1.384 . S
C149 C148 1.377 . S
C149 C155 1.390 . S
C150 H141 0.930 . S
C150 C148 1.384 . S
C150 C151 1.372 . S
C151 C150 1.372 . S
C151 C152 1.400 . S
C151 C156 1.490 . S
C152 H142 0.930 . S
C152 C151 1.400 . S
C152 C155 1.386 . S
H153 C169 0.930 . S
H154 C170 0.931 . S
C155 H143 0.929 . S
C155 C149 1.390 . S
C155 C152 1.386 . S
C156 C151 1.490 . S
C156 C158 1.395 . S
C156 C159 1.403 . S
H157 C163 0.930 . S
C158 H144 0.930 . S
C158 C156 1.395 . S
C158 C161 1.403 . S
C159 C156 1.403 . S
C159 C160 1.524 . S
C159 C163 1.400 . S
C160 H145 0.960 . S
C160 H146 0.960 . S
C160 H147 0.960 . S
C160 C159 1.524 . S
C161 C158 1.403 . S
C161 C162 1.392 . S
C161 C165 1.495 . S
C162 C161 1.392 . S
C162 C163 1.385 . S
C162 C164 1.478 . S
C163 H157 0.930 . S
C163 C159 1.400 . S
C163 C162 1.385 . S
C164 C162 1.478 . S
C164 C166 1.381 . S
C164 C170 1.383 . S
C165 C161 1.495 . S
C165 H171 0.959 . S
C165 H172 0.961 . S
C165 H173 0.960 . S
C166 C164 1.381 . S
C166 C167 1.394 . S
C166 H174 0.930 . S
C167 C166 1.394 . S
C167 C168 1.383 . S
C167 H175 0.929 1_554 S
C168 C167 1.383 . S
C168 C169 1.377 . S
C169 H153 0.930 . S
C169 C168 1.377 . S
C169 C170 1.379 . S
C170 H154 0.931 . S
C170 C164 1.383 . S
C170 C169 1.379 . S
H171 C165 0.959 . S
H172 C165 0.961 . S
H173 C165 0.960 . S
H174 C166 0.930 . S
H175 C167 0.929 1_556 S
H176 C184 0.929 . S
H177 C186 0.930 . S
H178 C188 0.930 . S
H179 C191 0.929 . S
H180 C194 0.930 . S
H181 C196 0.960 . S
H182 C196 0.960 . S
H183 C196 0.960 . S
C184 H176 0.929 . S
C184 C185 1.377 . S
C184 C186 1.384 . S
C185 C184 1.377 . S
C185 C191 1.390 . S
C186 H177 0.930 . S
C186 C184 1.384 . S
C186 C187 1.372 . S
C187 C186 1.372 . S
C187 C188 1.400 . S
C187 C192 1.490 . S
C188 H178 0.930 . S
C188 C187 1.400 . S
C188 C191 1.386 . S
H189 C205 0.930 . S
H190 C206 0.931 . S
C191 H179 0.929 . S
C191 C185 1.390 . S
C191 C188 1.386 . S
C192 C187 1.490 . S
C192 C194 1.395 . S
C192 C195 1.403 . S
H193 C199 0.930 . S
C194 H180 0.930 . S
C194 C192 1.395 . S
C194 C197 1.403 . S
C195 C192 1.403 . S
C195 C196 1.524 . S
C195 C199 1.400 . S
C196 H181 0.960 . S
C196 H182 0.960 . S
C196 H183 0.960 . S
C196 C195 1.524 . S
C197 C194 1.403 . S
C197 C198 1.392 . S
C197 C201 1.495 . S
C198 C197 1.392 . S
C198 C199 1.385 . S
C198 C200 1.478 . S
C199 H193 0.930 . S
C199 C195 1.400 . S
C199 C198 1.385 . S
C200 C198 1.478 . S
C200 C202 1.381 . S
C200 C206 1.383 . S
C201 C197 1.495 . S
C201 H207 0.959 . S
C201 H208 0.961 . S
C201 H209 0.960 . S
C202 C200 1.381 . S
C202 C203 1.394 . S
C202 H210 0.930 . S
C203 C202 1.394 . S
C203 C204 1.383 . S
C203 H211 0.929 . S
C204 C203 1.383 . S
C204 C205 1.377 . S
C205 H189 0.930 . S
C205 C204 1.377 . S
C205 C206 1.379 . S
C206 H190 0.931 . S
C206 C200 1.383 . S
C206 C205 1.379 . S
H207 C201 0.959 . S
H208 C201 0.961 . S
H209 C201 0.960 . S
H210 C202 0.930 . S
H211 C203 0.929 . S
H212 C220 0.929 . S
H213 C222 0.930 . S
H214 C224 0.930 . S
H215 C227 0.929 . S
H216 C230 0.930 . S
H217 C232 0.960 . S
H218 C232 0.960 . S
H219 C232 0.960 . S
C220 H212 0.929 . S
C220 C221 1.377 . S
C220 C222 1.384 . S
C221 C220 1.377 . S
C221 C227 1.390 . S
C222 H213 0.930 . S
C222 C220 1.384 . S
C222 C223 1.372 . S
C223 C222 1.372 . S
C223 C224 1.400 . S
C223 C228 1.490 . S
C224 H214 0.930 . S
C224 C223 1.400 . S
C224 C227 1.386 . S
H225 C241 0.930 . S
H226 C242 0.931 . S
C227 H215 0.929 . S
C227 C221 1.390 . S
C227 C224 1.386 . S
C228 C223 1.490 . S
C228 C230 1.395 . S
C228 C231 1.403 . S
H229 C235 0.930 . S
C230 H216 0.930 . S
C230 C228 1.395 . S
C230 C233 1.403 . S
C231 C228 1.403 . S
C231 C232 1.524 . S
C231 C235 1.400 . S
C232 H217 0.960 . S
C232 H218 0.960 . S
C232 H219 0.960 . S
C232 C231 1.524 . S
C233 C230 1.403 . S
C233 C234 1.392 . S
C233 C237 1.495 . S
C234 C233 1.392 . S
C234 C235 1.385 . S
C234 C236 1.478 . S
C235 H229 0.930 . S
C235 C231 1.400 . S
C235 C234 1.385 . S
C236 C234 1.478 . S
C236 C238 1.381 . S
C236 C242 1.383 . S
C237 C233 1.495 . S
C237 H243 0.959 . S
C237 H244 0.961 . S
C237 H245 0.960 . S
C238 C236 1.381 . S
C238 C239 1.394 . S
C238 H246 0.930 . S
C239 C238 1.394 . S
C239 C240 1.383 . S
C239 H247 0.929 . S
C240 C239 1.383 . S
C240 C241 1.377 . S
C241 H225 0.930 . S
C241 C240 1.377 . S
C241 C242 1.379 . S
C242 H226 0.931 . S
C242 C236 1.383 . S
C242 C241 1.379 . S
H243 C237 0.959 . S
H244 C237 0.961 . S
H245 C237 0.960 . S
H246 C238 0.930 . S
H247 C239 0.929 . S
H248 C256 0.929 . S
H249 C258 0.930 . S
H250 C260 0.930 . S
H251 C263 0.929 . S
H252 C266 0.930 . S
H253 C268 0.960 . S
H254 C268 0.960 . S
H255 C268 0.960 . S
C256 H248 0.929 . S
C256 C257 1.377 . S
C256 C258 1.384 . S
C257 C256 1.377 . S
C257 C263 1.390 . S
C258 H249 0.930 . S
C258 C256 1.384 . S
C258 C259 1.372 . S
C259 C258 1.372 . S
C259 C260 1.400 . S
C259 C264 1.490 . S
C260 H250 0.930 . S
C260 C259 1.400 . S
C260 C263 1.386 . S
H261 C277 0.930 . S
H262 C278 0.931 . S
C263 H251 0.929 . S
C263 C257 1.390 . S
C263 C260 1.386 . S
C264 C259 1.490 . S
C264 C266 1.395 . S
C264 C267 1.403 . S
H265 C271 0.930 . S
C266 H252 0.930 . S
C266 C264 1.395 . S
C266 C269 1.403 . S
C267 C264 1.403 . S
C267 C268 1.524 . S
C267 C271 1.400 . S
C268 H253 0.960 . S
C268 H254 0.960 . S
C268 H255 0.960 . S
C268 C267 1.524 . S
C269 C266 1.403 . S
C269 C270 1.392 . S
C269 C273 1.495 . S
C270 C269 1.392 . S
C270 C271 1.385 . S
C270 C272 1.478 . S
C271 H265 0.930 . S
C271 C267 1.400 . S
C271 C270 1.385 . S
C272 C270 1.478 . S
C272 C274 1.381 . S
C272 C278 1.383 . S
C273 C269 1.495 . S
C273 H279 0.959 . S
C273 H280 0.961 . S
C273 H281 0.960 . S
C274 C272 1.381 . S
C274 C275 1.394 . S
C274 H282 0.930 . S
C275 C274 1.394 . S
C275 C276 1.383 . S
C275 H283 0.929 . S
C276 C275 1.383 . S
C276 C277 1.377 . S
C277 H261 0.930 . S
C277 C276 1.377 . S
C277 C278 1.379 . S
C278 H262 0.931 . S
C278 C272 1.383 . S
C278 C277 1.379 . S
H279 C273 0.959 . S
H280 C273 0.961 . S
H281 C273 0.960 . S
H282 C274 0.930 . S
H283 C275 0.929 . S
H284 C292 0.929 . S
H285 C294 0.930 . S
H286 C296 0.930 . S
H287 C299 0.929 . S
H288 C302 0.930 . S
H289 C304 0.960 . S
H290 C304 0.960 . S
H291 C304 0.960 . S
C292 H284 0.929 . S
C292 C293 1.377 . S
C292 C294 1.384 . S
C293 C292 1.377 . S
C293 C299 1.390 . S
C294 H285 0.930 . S
C294 C292 1.384 . S
C294 C295 1.372 . S
C295 C294 1.372 . S
C295 C296 1.400 . S
C295 C300 1.490 . S
C296 H286 0.930 . S
C296 C295 1.400 . S
C296 C299 1.386 . S
H297 C313 0.930 . S
H298 C314 0.931 . S
C299 H287 0.929 . S
C299 C293 1.390 . S
C299 C296 1.386 . S
C300 C295 1.490 . S
C300 C302 1.395 . S
C300 C303 1.403 . S
H301 C307 0.930 . S
C302 H288 0.930 . S
C302 C300 1.395 . S
C302 C305 1.403 . S
C303 C300 1.403 . S
C303 C304 1.524 . S
C303 C307 1.400 . S
C304 H289 0.960 . S
C304 H290 0.960 . S
C304 H291 0.960 . S
C304 C303 1.524 . S
C305 C302 1.403 . S
C305 C306 1.392 . S
C305 C309 1.495 . S
C306 C305 1.392 . S
C306 C307 1.385 . S
C306 C308 1.478 . S
C307 H301 0.930 . S
C307 C303 1.400 . S
C307 C306 1.385 . S
C308 C306 1.478 . S
C308 C310 1.381 . S
C308 C314 1.383 . S
C309 C305 1.495 . S
C309 H315 0.959 . S
C309 H316 0.961 . S
C309 H317 0.960 . S
C310 C308 1.381 . S
C310 C311 1.394 . S
C310 H318 0.930 . S
C311 C310 1.394 . S
C311 C312 1.383 . S
C311 H319 0.929 . S
C312 C311 1.383 . S
C312 C313 1.377 . S
C313 H297 0.930 . S
C313 C312 1.377 . S
C313 C314 1.379 . S
C314 H298 0.931 . S
C314 C308 1.383 . S
C314 C313 1.379 . S
H315 C309 0.959 . S
H316 C309 0.961 . S
H317 C309 0.960 . S
H318 C310 0.930 . S
H319 C311 0.929 . S
H320 C328 0.929 . S
H321 C330 0.930 . S
H322 C332 0.930 . S
H323 C335 0.929 . S
H324 C338 0.930 . S
H325 C340 0.960 . S
H326 C340 0.960 . S
H327 C340 0.960 . S
C328 H320 0.929 . S
C328 C329 1.377 . S
C328 C330 1.384 . S
C329 C328 1.377 . S
C329 C335 1.390 . S
C330 H321 0.930 . S
C330 C328 1.384 . S
C330 C331 1.372 . S
C331 C330 1.372 . S
C331 C332 1.400 . S
C331 C336 1.490 . S
C332 H322 0.930 . S
C332 C331 1.400 . S
C332 C335 1.386 . S
H333 C349 0.930 . S
H334 C350 0.931 . S
C335 H323 0.929 . S
C335 C329 1.390 . S
C335 C332 1.386 . S
C336 C331 1.490 . S
C336 C338 1.395 1_554 S
C336 C339 1.403 . S
H337 C343 0.930 . S
C338 H324 0.930 . S
C338 C336 1.395 1_556 S
C338 C341 1.403 . S
C339 C336 1.403 . S
C339 C340 1.524 . S
C339 C343 1.400 1_554 S
C340 H325 0.960 . S
C340 H326 0.960 . S
C340 H327 0.960 . S
C340 C339 1.524 . S
C341 C338 1.403 . S
C341 C342 1.392 . S
C341 C345 1.495 . S
C342 C341 1.392 . S
C342 C343 1.385 . S
C342 C344 1.478 . S
C343 H337 0.930 . S
C343 C339 1.400 1_556 S
C343 C342 1.385 . S
C344 C342 1.478 . S
C344 C346 1.381 . S
C344 C350 1.383 . S
C345 C341 1.495 . S
C345 H351 0.959 . S
C345 H352 0.961 . S
C345 H353 0.960 . S
C346 C344 1.381 . S
C346 C347 1.394 . S
C346 H354 0.930 . S
C347 C346 1.394 . S
C347 C348 1.383 . S
C347 H355 0.929 . S
C348 C347 1.383 . S
C348 C349 1.377 . S
C349 H333 0.930 . S
C349 C348 1.377 . S
C349 C350 1.379 . S
C350 H334 0.931 . S
C350 C344 1.383 . S
C350 C349 1.379 . S
H351 C345 0.959 . S
H352 C345 0.961 . S
H353 C345 0.960 . S
H354 C346 0.930 . S
H355 C347 0.929 . S
H356 C364 0.929 . S
H357 C366 0.930 . S
H358 C368 0.930 . S
H359 C371 0.929 . S
H360 C374 0.930 . S
H361 C376 0.960 . S
H362 C376 0.960 . S
H363 C376 0.960 . S
C364 H356 0.929 . S
C364 C365 1.377 . S
C364 C366 1.384 . S
C365 C364 1.377 . S
C365 C371 1.390 . S
C366 H357 0.930 . S
C366 C364 1.384 . S
C366 C367 1.372 . S
C367 C366 1.372 . S
C367 C368 1.400 . S
C367 C372 1.490 . S
C368 H358 0.930 . S
C368 C367 1.400 . S
C368 C371 1.386 . S
H369 C385 0.930 . S
H370 C386 0.931 . S
C371 H359 0.929 . S
C371 C365 1.390 . S
C371 C368 1.386 . S
C372 C367 1.490 . S
C372 C374 1.395 . S
C372 C375 1.403 . S
H373 C379 0.930 . S
C374 H360 0.930 . S
C374 C372 1.395 . S
C374 C377 1.403 . S
C375 C372 1.403 . S
C375 C376 1.524 . S
C375 C379 1.400 . S
C376 H361 0.960 . S
C376 H362 0.960 . S
C376 H363 0.960 . S
C376 C375 1.524 . S
C377 C374 1.403 . S
C377 C378 1.392 . S
C377 C381 1.495 . S
C378 C377 1.392 . S
C378 C379 1.385 . S
C378 C380 1.478 . S
C379 H373 0.930 . S
C379 C375 1.400 . S
C379 C378 1.385 . S
C380 C378 1.478 . S
C380 C382 1.381 . S
C380 C386 1.383 . S
C381 C377 1.495 . S
C381 H387 0.959 . S
C381 H388 0.961 . S
C381 H389 0.960 . S
C382 C380 1.381 . S
C382 C383 1.394 . S
C382 H390 0.930 . S
C383 C382 1.394 . S
C383 C384 1.383 . S
C383 H391 0.929 . S
C384 C383 1.383 . S
C384 C385 1.377 . S
C385 H369 0.930 . S
C385 C384 1.377 . S
C385 C386 1.379 . S
C386 H370 0.931 . S
C386 C380 1.383 . S
C386 C385 1.379 . S
H387 C381 0.959 . S
H388 C381 0.961 . S
H389 C381 0.960 . S
H390 C382 0.930 . S
H391 C383 0.929 . S
H392 C400 0.929 . S
H393 C402 0.930 . S
H394 C404 0.930 . S
H395 C407 0.929 . S
H396 C410 0.930 . S
H397 C412 0.960 . S
H398 C412 0.960 . S
H399 C412 0.960 . S
C400 H392 0.929 . S
C400 C401 1.377 . S
C400 C402 1.384 . S
C401 C400 1.377 . S
C401 C407 1.390 . S
C402 H393 0.930 . S
C402 C400 1.384 . S
C402 C403 1.372 . S
C403 C402 1.372 . S
C403 C404 1.400 . S
C403 C408 1.490 . S
C404 H394 0.930 . S
C404 C403 1.400 . S
C404 C407 1.386 . S
H405 C421 0.930 . S
H406 C422 0.931 . S
C407 H395 0.929 . S
C407 C401 1.390 . S
C407 C404 1.386 . S
C408 C403 1.490 . S
C408 C410 1.395 . S
C408 C411 1.403 . S
H409 C415 0.930 . S
C410 H396 0.930 . S
C410 C408 1.395 . S
C410 C413 1.403 . S
C411 C408 1.403 . S
C411 C412 1.524 . S
C411 C415 1.400 . S
C412 H397 0.960 . S
C412 H398 0.960 . S
C412 H399 0.960 . S
C412 C411 1.524 . S
C413 C410 1.403 . S
C413 C414 1.392 . S
C413 C417 1.495 . S
C414 C413 1.392 . S
C414 C415 1.385 . S
C414 C416 1.478 . S
C415 H409 0.930 . S
C415 C411 1.400 . S
C415 C414 1.385 . S
C416 C414 1.478 . S
C416 C418 1.381 . S
C416 C422 1.383 . S
C417 C413 1.495 . S
C417 H423 0.959 . S
C417 H424 0.961 . S
C417 H425 0.960 . S
C418 C416 1.381 . S
C418 C419 1.394 . S
C418 H426 0.930 . S
C419 C418 1.394 . S
C419 C420 1.383 . S
C419 H427 0.929 . S
C420 C419 1.383 . S
C420 C421 1.377 . S
C421 H405 0.930 . S
C421 C420 1.377 . S
C421 C422 1.379 . S
C422 H406 0.931 . S
C422 C416 1.383 . S
C422 C421 1.379 . S
H423 C417 0.959 . S
H424 C417 0.961 . S
H425 C417 0.960 . S
H426 C418 0.930 . S
H427 C419 0.929 . S
H428 C436 0.929 . S
H429 C438 0.930 . S
H430 C440 0.930 . S
H431 C443 0.929 . S
H432 C446 0.930 . S
H433 C448 0.960 . S
H434 C448 0.960 . S
H435 C448 0.960 . S
C436 H428 0.929 . S
C436 C437 1.377 . S
C436 C438 1.384 . S
C437 C436 1.377 . S
C437 C443 1.390 . S
C438 H429 0.930 . S
C438 C436 1.384 . S
C438 C439 1.372 . S
C439 C438 1.372 . S
C439 C440 1.400 . S
C439 C444 1.490 . S
C440 H430 0.930 . S
C440 C439 1.400 . S
C440 C443 1.386 . S
H441 C457 0.930 . S
H442 C458 0.931 . S
C443 H431 0.929 . S
C443 C437 1.390 . S
C443 C440 1.386 . S
C444 C439 1.490 . S
C444 C446 1.395 . S
C444 C447 1.403 . S
H445 C451 0.930 . S
C446 H432 0.930 . S
C446 C444 1.395 . S
C446 C449 1.403 . S
C447 C444 1.403 . S
C447 C448 1.524 . S
C447 C451 1.400 . S
C448 H433 0.960 . S
C448 H434 0.960 . S
C448 H435 0.960 . S
C448 C447 1.524 . S
C449 C446 1.403 . S
C449 C450 1.392 . S
C449 C453 1.495 . S
C450 C449 1.392 . S
C450 C451 1.385 . S
C450 C452 1.478 . S
C451 H445 0.930 . S
C451 C447 1.400 . S
C451 C450 1.385 . S
C452 C450 1.478 . S
C452 C454 1.381 . S
C452 C458 1.383 . S
C453 C449 1.495 . S
C453 H459 0.959 . S
C453 H460 0.961 . S
C453 H461 0.960 . S
C454 C452 1.381 . S
C454 C455 1.394 . S
C454 H462 0.930 . S
C455 C454 1.394 . S
C455 C456 1.383 . S
C455 H463 0.929 . S
C456 C455 1.383 . S
C456 C457 1.377 . S
C457 H441 0.930 . S
C457 C456 1.377 . S
C457 C458 1.379 . S
C458 H442 0.931 . S
C458 C452 1.383 . S
C458 C457 1.379 . S
H459 C453 0.959 . S
H460 C453 0.961 . S
H461 C453 0.960 . S
H462 C454 0.930 . S
H463 C455 0.929 . S
H464 C472 0.929 1_655 S
H465 C474 0.930 . S
H466 C476 0.930 . S
H467 C479 0.929 . S
H468 C482 0.930 . S
H469 C484 0.960 . S
H470 C484 0.960 . S
H471 C484 0.960 . S
C472 H464 0.929 1_455 S
C472 C473 1.377 . S
C472 C474 1.384 . S
C473 C472 1.377 . S
C473 C479 1.390 . S
C474 H465 0.930 . S
C474 C472 1.384 . S
C474 C475 1.372 . S
C475 C474 1.372 . S
C475 C476 1.400 . S
C475 C480 1.490 . S
C476 H466 0.930 . S
C476 C475 1.400 . S
C476 C479 1.386 . S
H477 C493 0.930 . S
H478 C494 0.931 . S
C479 H467 0.929 . S
C479 C473 1.390 . S
C479 C476 1.386 . S
C480 C475 1.490 . S
C480 C482 1.395 1_554 S
C480 C483 1.403 . S
H481 C487 0.930 . S
C482 H468 0.930 . S
C482 C480 1.395 1_556 S
C482 C485 1.403 . S
C483 C480 1.403 . S
C483 C484 1.524 . S
C483 C487 1.400 . S
C484 H469 0.960 . S
C484 H470 0.960 . S
C484 H471 0.960 . S
C484 C483 1.524 . S
C485 C482 1.403 . S
C485 C486 1.392 . S
C485 C489 1.495 . S
C486 C485 1.392 . S
C486 C487 1.385 1_556 S
C486 C488 1.478 . S
C487 H481 0.930 . S
C487 C483 1.400 . S
C487 C486 1.385 1_554 S
C488 C486 1.478 . S
C488 C490 1.381 . S
C488 C494 1.383 . S
C489 C485 1.495 . S
C489 H495 0.959 . S
C489 H496 0.961 . S
C489 H497 0.960 . S
C490 C488 1.381 . S
C490 C491 1.394 1_545 S
C490 H498 0.930 . S
C491 C490 1.394 1_565 S
C491 C492 1.383 1_565 S
C491 H499 0.929 . S
C492 C491 1.383 1_545 S
C492 C493 1.377 . S
C493 H477 0.930 . S
C493 C492 1.377 . S
C493 C494 1.379 . S
C494 H478 0.931 . S
C494 C488 1.383 . S
C494 C493 1.379 . S
H495 C489 0.959 . S
H496 C489 0.961 . S
H497 C489 0.960 . S
H498 C490 0.930 . S
H499 C491 0.929 . S
H500 C508 0.929 . S
H501 C510 0.930 . S
H502 C512 0.930 . S
H503 C515 0.929 1_455 S
H504 C518 0.930 . S
H505 C520 0.960 . S
H506 C520 0.960 . S
H507 C520 0.960 . S
C508 H500 0.929 . S
C508 C509 1.377 . S
C508 C510 1.384 . S
C509 C508 1.377 . S
C509 C515 1.390 . S
C510 H501 0.930 . S
C510 C508 1.384 . S
C510 C511 1.372 . S
C511 C510 1.372 . S
C511 C512 1.400 . S
C511 C516 1.490 . S
C512 H502 0.930 . S
C512 C511 1.400 . S
C512 C515 1.386 . S
H513 C529 0.930 . S
H514 C530 0.931 . S
C515 H503 0.929 1_655 S
C515 C509 1.390 . S
C515 C512 1.386 . S
C516 C511 1.490 . S
C516 C518 1.395 . S
C516 C519 1.403 . S
H517 C523 0.930 . S
C518 H504 0.930 . S
C518 C516 1.395 . S
C518 C521 1.403 . S
C519 C516 1.403 . S
C519 C520 1.524 . S
C519 C523 1.400 . S
C520 H505 0.960 . S
C520 H506 0.960 . S
C520 H507 0.960 . S
C520 C519 1.524 . S
C521 C518 1.403 . S
C521 C522 1.392 . S
C521 C525 1.495 . S
C522 C521 1.392 . S
C522 C523 1.385 . S
C522 C524 1.478 . S
C523 H517 0.930 . S
C523 C519 1.400 . S
C523 C522 1.385 . S
C524 C522 1.478 . S
C524 C526 1.381 . S
C524 C530 1.383 . S
C525 C521 1.495 . S
C525 H531 0.959 . S
C525 H532 0.961 . S
C525 H533 0.960 . S
C526 C524 1.381 . S
C526 C527 1.394 . S
C526 H534 0.930 . S
C527 C526 1.394 . S
C527 C528 1.383 . S
C527 H535 0.929 . S
C528 C527 1.383 . S
C528 C529 1.377 . S
C529 H513 0.930 . S
C529 C528 1.377 . S
C529 C530 1.379 . S
C530 H514 0.931 . S
C530 C524 1.383 . S
C530 C529 1.379 . S
H531 C525 0.959 . S
H532 C525 0.961 . S
H533 C525 0.960 . S
H534 C526 0.930 . S
H535 C527 0.929 . S
H536 C544 0.929 . S
H537 C546 0.930 . S
H538 C548 0.930 . S
H539 C551 0.929 . S
H540 C554 0.930 . S
H541 C556 0.960 . S
H542 C556 0.960 . S
H543 C556 0.960 . S
C544 H536 0.929 . S
C544 C545 1.377 . S
C544 C546 1.384 . S
C545 C544 1.377 . S
C545 C551 1.390 . S
C546 H537 0.930 . S
C546 C544 1.384 . S
C546 C547 1.372 . S
C547 C546 1.372 . S
C547 C548 1.400 . S
C547 C552 1.490 . S
C548 H538 0.930 . S
C548 C547 1.400 . S
C548 C551 1.386 . S
H549 C565 0.930 . S
H550 C566 0.931 . S
C551 H539 0.929 . S
C551 C545 1.390 . S
C551 C548 1.386 . S
C552 C547 1.490 . S
C552 C554 1.395 . S
C552 C555 1.403 . S
H553 C559 0.930 . S
C554 H540 0.930 . S
C554 C552 1.395 . S
C554 C557 1.403 . S
C555 C552 1.403 . S
C555 C556 1.524 . S
C555 C559 1.400 . S
C556 H541 0.960 . S
C556 H542 0.960 . S
C556 H543 0.960 . S
C556 C555 1.524 . S
C557 C554 1.403 . S
C557 C558 1.392 . S
C557 C561 1.495 . S
C558 C557 1.392 . S
C558 C559 1.385 . S
C558 C560 1.478 . S
C559 H553 0.930 . S
C559 C555 1.400 . S
C559 C558 1.385 . S
C560 C558 1.478 . S
C560 C562 1.381 . S
C560 C566 1.383 . S
C561 C557 1.495 . S
C561 H567 0.959 . S
C561 H568 0.961 . S
C561 H569 0.960 . S
C562 C560 1.381 . S
C562 C563 1.394 . S
C562 H570 0.930 . S
C563 C562 1.394 . S
C563 C564 1.383 . S
C563 H571 0.929 . S
C564 C563 1.383 . S
C564 C565 1.377 . S
C565 H549 0.930 . S
C565 C564 1.377 . S
C565 C566 1.379 . S
C566 H550 0.931 . S
C566 C560 1.383 . S
C566 C565 1.379 . S
H567 C561 0.959 . S
H568 C561 0.961 . S
H569 C561 0.960 . S
H570 C562 0.930 . S
H571 C563 0.929 . S
H572 C580 0.929 . S
H573 C582 0.930 . S
H574 C584 0.930 . S
H575 C587 0.929 . S
H576 C590 0.930 . S
H577 C592 0.960 . S
H578 C592 0.960 1_556 S
H579 C592 0.960 . S
C580 H572 0.929 . S
C580 C581 1.377 . S
C580 C582 1.384 . S
C581 C580 1.377 . S
C581 C587 1.390 1_556 S
C582 H573 0.930 . S
C582 C580 1.384 . S
C582 C583 1.372 . S
C583 C582 1.372 . S
C583 C584 1.400 1_556 S
C583 C588 1.490 . S
C584 H574 0.930 . S
C584 C583 1.400 1_554 S
C584 C587 1.386 . S
H585 C601 0.930 . S
H586 C602 0.931 . S
C587 H575 0.929 . S
C587 C581 1.390 1_554 S
C587 C584 1.386 . S
C588 C583 1.490 . S
C588 C590 1.395 . S
C588 C591 1.403 1_556 S
H589 C595 0.930 . S
C590 H576 0.930 . S
C590 C588 1.395 . S
C590 C593 1.403 . S
C591 C588 1.403 1_554 S
C591 C592 1.524 . S
C591 C595 1.400 . S
C592 H577 0.960 . S
C592 H578 0.960 1_554 S
C592 H579 0.960 . S
C592 C591 1.524 . S
C593 C590 1.403 . S
C593 C594 1.392 1_556 S
C593 C597 1.495 . S
C594 C593 1.392 1_554 S
C594 C595 1.385 . S
C594 C596 1.478 . S
C595 H589 0.930 . S
C595 C591 1.400 . S
C595 C594 1.385 . S
C596 C594 1.478 . S
C596 C598 1.381 1_554 S
C596 C602 1.383 . S
C597 C593 1.495 . S
C597 H603 0.959 . S
C597 H604 0.961 1_556 S
C597 H605 0.960 . S
C598 C596 1.381 1_556 S
C598 C599 1.394 . S
C598 H606 0.930 . S
C599 C598 1.394 . S
C599 C600 1.383 1_556 S
C599 H607 0.929 . S
C600 C599 1.383 1_554 S
C600 C601 1.377 . S
C601 H585 0.930 . S
C601 C600 1.377 . S
C601 C602 1.379 . S
C602 H586 0.931 . S
C602 C596 1.383 . S
C602 C601 1.379 . S
H603 C597 0.959 . S
H604 C597 0.961 1_554 S
H605 C597 0.960 . S
H606 C598 0.930 . S
H607 C599 0.929 . S
H608 C616 0.929 . S
H609 C618 0.930 . S
H610 C620 0.930 . S
H611 C623 0.929 . S
H612 C626 0.930 . S
H613 C628 0.960 . S
H614 C628 0.960 . S
H615 C628 0.960 . S
C616 H608 0.929 . S
C616 C617 1.377 . S
C616 C618 1.384 . S
C617 C616 1.377 . S
C617 C623 1.390 . S
C618 H609 0.930 . S
C618 C616 1.384 . S
C618 C619 1.372 . S
C619 C618 1.372 . S
C619 C620 1.400 . S
C619 C624 1.490 . S
C620 H610 0.930 . S
C620 C619 1.400 . S
C620 C623 1.386 . S
H621 C637 0.930 . S
H622 C638 0.931 . S
C623 H611 0.929 . S
C623 C617 1.390 . S
C623 C620 1.386 . S
C624 C619 1.490 . S
C624 C626 1.395 . S
C624 C627 1.403 . S
H625 C631 0.930 . S
C626 H612 0.930 . S
C626 C624 1.395 . S
C626 C629 1.403 . S
C627 C624 1.403 . S
C627 C628 1.524 . S
C627 C631 1.400 . S
C628 H613 0.960 . S
C628 H614 0.960 . S
C628 H615 0.960 . S
C628 C627 1.524 . S
C629 C626 1.403 . S
C629 C630 1.392 . S
C629 C633 1.495 . S
C630 C629 1.392 . S
C630 C631 1.385 . S
C630 C632 1.478 . S
C631 H625 0.930 . S
C631 C627 1.400 . S
C631 C630 1.385 . S
C632 C630 1.478 . S
C632 C634 1.381 . S
C632 C638 1.383 . S
C633 C629 1.495 . S
C633 H639 0.959 . S
C633 H640 0.961 . S
C633 H641 0.960 . S
C634 C632 1.381 . S
C634 C635 1.394 . S
C634 H642 0.930 . S
C635 C634 1.394 . S
C635 C636 1.383 . S
C635 H643 0.929 . S
C636 C635 1.383 . S
C636 C637 1.377 . S
C637 H621 0.930 . S
C637 C636 1.377 . S
C637 C638 1.379 . S
C638 H622 0.931 . S
C638 C632 1.383 . S
C638 C637 1.379 . S
H639 C633 0.959 . S
H640 C633 0.961 . S
H641 C633 0.960 . S
H642 C634 0.930 . S
H643 C635 0.929 . S
H644 C652 0.929 . S
H645 C654 0.930 . S
H646 C656 0.930 . S
H647 C659 0.929 . S
H648 C662 0.930 . S
H649 C664 0.960 . S
H650 C664 0.960 . S
H651 C664 0.960 . S
C652 H644 0.929 . S
C652 C653 1.377 . S
C652 C654 1.384 . S
C653 C652 1.377 . S
C653 C659 1.390 . S
C654 H645 0.930 . S
C654 C652 1.384 . S
C654 C655 1.372 . S
C655 C654 1.372 . S
C655 C656 1.400 . S
C655 C660 1.490 . S
C656 H646 0.930 . S
C656 C655 1.400 . S
C656 C659 1.386 . S
H657 C673 0.930 . S
H658 C674 0.931 . S
C659 H647 0.929 . S
C659 C653 1.390 . S
C659 C656 1.386 . S
C660 C655 1.490 . S
C660 C662 1.395 . S
C660 C663 1.403 . S
H661 C667 0.930 . S
C662 H648 0.930 . S
C662 C660 1.395 . S
C662 C665 1.403 . S
C663 C660 1.403 . S
C663 C664 1.524 . S
C663 C667 1.400 . S
C664 H649 0.960 . S
C664 H650 0.960 . S
C664 H651 0.960 . S
C664 C663 1.524 . S
C665 C662 1.403 . S
C665 C666 1.392 . S
C665 C669 1.495 . S
C666 C665 1.392 . S
C666 C667 1.385 . S
C666 C668 1.478 . S
C667 H661 0.930 . S
C667 C663 1.400 . S
C667 C666 1.385 . S
C668 C666 1.478 . S
C668 C670 1.381 . S
C668 C674 1.383 . S
C669 C665 1.495 . S
C669 H675 0.959 . S
C669 H676 0.961 . S
C669 H677 0.960 . S
C670 C668 1.381 . S
C670 C671 1.394 . S
C670 H678 0.930 . S
C671 C670 1.394 . S
C671 C672 1.383 . S
C671 H679 0.929 . S
C672 C671 1.383 . S
C672 C673 1.377 . S
C673 H657 0.930 . S
C673 C672 1.377 . S
C673 C674 1.379 . S
C674 H658 0.931 . S
C674 C668 1.383 . S
C674 C673 1.379 . S
H675 C669 0.959 . S
H676 C669 0.961 . S
H677 C669 0.960 . S
H678 C670 0.930 . S
H679 C671 0.929 . S
C113 C23 1.345 . S
C132 C10 1.349 . S
C149 C13 1.365 . S
C168 C26 1.345 1_554 S
C185 C49 1.350 . S
C204 C36 1.360 . S
C221 C39 1.364 1_556 S
C240 C0 1.365 . S
C257 C62 1.351 . S
C276 C75 1.358 . S
C293 C65 1.365 1_556 S
C312 C78 1.356 . S
C329 C88 1.346 . S
C348 C101 1.360 . S
C365 C52 1.361 1_554 S
C384 C91 1.361 . S
C401 C5 1.412 . S
C420 C96 1.420 . S
C437 C60 1.420 1_565 S
C456 C21 1.390 . S
C473 C70 1.411 1_455 S
C492 C31 1.393 1_545 S
C509 C47 1.419 1_655 S
C528 C86 1.395 . S
C545 C34 1.420 1_545 S
C564 C99 1.391 . S
C581 C57 1.411 1_565 S
C600 C44 1.419 1_655 S
C617 C73 1.421 1_455 S
C636 C8 1.388 . S
C653 C18 1.410 . S
C672 C83 1.402 . S
