# Generated by pormake.
# Topology wmt, (6)-cn, num edge types: 1
# Building blocks:
#     Node 0, Type 0, BuildingBlock: GEDQOX_clean_sbu_0, # of connection points: 6
#     Node 1, Type 0, BuildingBlock: GEDQOX_clean_sbu_0, # of connection points: 6
#     Node 2, Type 0, BuildingBlock: GEDQOX_clean_sbu_0, # of connection points: 6
#     Node 3, Type 0, BuildingBlock: GEDQOX_clean_sbu_0, # of connection points: 6
#     Node 4, Type 0, BuildingBlock: GEDQOX_clean_sbu_0, # of connection points: 6
#     Node 5, Type 0, BuildingBlock: GEDQOX_clean_sbu_0, # of connection points: 6
#     Node 6, Type 0, BuildingBlock: GEDQOX_clean_sbu_0, # of connection points: 6
#     Node 7, Type 0, BuildingBlock: GEDQOX_clean_sbu_0, # of connection points: 6
#     Node 8, Type 0, BuildingBlock: GEDQOX_clean_sbu_0, # of connection points: 6
#     Node 9, Type 0, BuildingBlock: GEDQOX_clean_sbu_0, # of connection points: 6
#     Node 10, Type 0, BuildingBlock: GEDQOX_clean_sbu_0, # of connection points: 6
#     Node 11, Type 0, BuildingBlock: GEDQOX_clean_sbu_0, # of connection points: 6
#     Node 12, Type 0, BuildingBlock: GEDQOX_clean_sbu_0, # of connection points: 6
#     Node 13, Type 0, BuildingBlock: GEDQOX_clean_sbu_0, # of connection points: 6
#     Node 14, Type 0, BuildingBlock: GEDQOX_clean_sbu_0, # of connection points: 6
#     Node 15, Type 0, BuildingBlock: GEDQOX_clean_sbu_0, # of connection points: 6
#     Node 16, Type 0, BuildingBlock: GEDQOX_clean_sbu_0, # of connection points: 6
#     Node 17, Type 0, BuildingBlock: GEDQOX_clean_sbu_0, # of connection points: 6
#     Node 18, Type 0, BuildingBlock: GEDQOX_clean_sbu_0, # of connection points: 6
#     Node 19, Type 0, BuildingBlock: GEDQOX_clean_sbu_0, # of connection points: 6
#     Node 20, Type 0, BuildingBlock: GEDQOX_clean_sbu_0, # of connection points: 6
#     Node 21, Type 0, BuildingBlock: GEDQOX_clean_sbu_0, # of connection points: 6
#     Node 22, Type 0, BuildingBlock: GEDQOX_clean_sbu_0, # of connection points: 6
#     Node 23, Type 0, BuildingBlock: GEDQOX_clean_sbu_0, # of connection points: 6
#     Node 24, Type 0, BuildingBlock: GEDQOX_clean_sbu_0, # of connection points: 6
#     Node 25, Type 0, BuildingBlock: GEDQOX_clean_sbu_0, # of connection points: 6
#     Node 26, Type 0, BuildingBlock: GEDQOX_clean_sbu_0, # of connection points: 6
#     Node 27, Type 0, BuildingBlock: GEDQOX_clean_sbu_0, # of connection points: 6
#     Node 28, Type 0, BuildingBlock: GEDQOX_clean_sbu_0, # of connection points: 6
#     Node 29, Type 0, BuildingBlock: GEDQOX_clean_sbu_0, # of connection points: 6
#     Node 30, Type 0, BuildingBlock: GEDQOX_clean_sbu_0, # of connection points: 6
#     Node 31, Type 0, BuildingBlock: GEDQOX_clean_sbu_0, # of connection points: 6
#     Node 32, Type 0, BuildingBlock: GEDQOX_clean_sbu_0, # of connection points: 6
#     Node 33, Type 0, BuildingBlock: GEDQOX_clean_sbu_0, # of connection points: 6
#     Node 34, Type 0, BuildingBlock: GEDQOX_clean_sbu_0, # of connection points: 6
#     Node 35, Type 0, BuildingBlock: GEDQOX_clean_sbu_0, # of connection points: 6
#     Edge 36, Type (0, 0), BuildingBlock: EZIPEK_clean_linker_0, # of connection points: 2
#     Edge 37, Type (0, 0), BuildingBlock: EZIPEK_clean_linker_0, # of connection points: 2
#     Edge 38, Type (0, 0), BuildingBlock: EZIPEK_clean_linker_0, # of connection points: 2
#     Edge 39, Type (0, 0), BuildingBlock: EZIPEK_clean_linker_0, # of connection points: 2
#     Edge 40, Type (0, 0), BuildingBlock: EZIPEK_clean_linker_0, # of connection points: 2
#     Edge 41, Type (0, 0), BuildingBlock: EZIPEK_clean_linker_0, # of connection points: 2
#     Edge 42, Type (0, 0), BuildingBlock: EZIPEK_clean_linker_0, # of connection points: 2
#     Edge 43, Type (0, 0), BuildingBlock: EZIPEK_clean_linker_0, # of connection points: 2
#     Edge 44, Type (0, 0), BuildingBlock: EZIPEK_clean_linker_0, # of connection points: 2
#     Edge 45, Type (0, 0), BuildingBlock: EZIPEK_clean_linker_0, # of connection points: 2
#     Edge 46, Type (0, 0), BuildingBlock: EZIPEK_clean_linker_0, # of connection points: 2
#     Edge 47, Type (0, 0), BuildingBlock: EZIPEK_clean_linker_0, # of connection points: 2
#     Edge 48, Type (0, 0), BuildingBlock: EZIPEK_clean_linker_0, # of connection points: 2
#     Edge 49, Type (0, 0), BuildingBlock: EZIPEK_clean_linker_0, # of connection points: 2
#     Edge 50, Type (0, 0), BuildingBlock: EZIPEK_clean_linker_0, # of connection points: 2
#     Edge 51, Type (0, 0), BuildingBlock: EZIPEK_clean_linker_0, # of connection points: 2
#     Edge 52, Type (0, 0), BuildingBlock: EZIPEK_clean_linker_0, # of connection points: 2
#     Edge 53, Type (0, 0), BuildingBlock: EZIPEK_clean_linker_0, # of connection points: 2
#     Edge 54, Type (0, 0), BuildingBlock: EZIPEK_clean_linker_0, # of connection points: 2
#     Edge 55, Type (0, 0), BuildingBlock: EZIPEK_clean_linker_0, # of connection points: 2
#     Edge 56, Type (0, 0), BuildingBlock: EZIPEK_clean_linker_0, # of connection points: 2
#     Edge 57, Type (0, 0), BuildingBlock: EZIPEK_clean_linker_0, # of connection points: 2
#     Edge 58, Type (0, 0), BuildingBlock: EZIPEK_clean_linker_0, # of connection points: 2
#     Edge 59, Type (0, 0), BuildingBlock: EZIPEK_clean_linker_0, # of connection points: 2
#     Edge 60, Type (0, 0), BuildingBlock: EZIPEK_clean_linker_0, # of connection points: 2
#     Edge 61, Type (0, 0), BuildingBlock: EZIPEK_clean_linker_0, # of connection points: 2
#     Edge 62, Type (0, 0), BuildingBlock: EZIPEK_clean_linker_0, # of connection points: 2
#     Edge 63, Type (0, 0), BuildingBlock: EZIPEK_clean_linker_0, # of connection points: 2
#     Edge 64, Type (0, 0), BuildingBlock: EZIPEK_clean_linker_0, # of connection points: 2
#     Edge 65, Type (0, 0), BuildingBlock: EZIPEK_clean_linker_0, # of connection points: 2
#     Edge 66, Type (0, 0), BuildingBlock: EZIPEK_clean_linker_0, # of connection points: 2
#     Edge 67, Type (0, 0), BuildingBlock: EZIPEK_clean_linker_0, # of connection points: 2
#     Edge 68, Type (0, 0), BuildingBlock: EZIPEK_clean_linker_0, # of connection points: 2
#     Edge 69, Type (0, 0), BuildingBlock: EZIPEK_clean_linker_0, # of connection points: 2
#     Edge 70, Type (0, 0), BuildingBlock: EZIPEK_clean_linker_0, # of connection points: 2
#     Edge 71, Type (0, 0), BuildingBlock: EZIPEK_clean_linker_0, # of connection points: 2
#     Edge 72, Type (0, 0), BuildingBlock: EZIPEK_clean_linker_0, # of connection points: 2
#     Edge 73, Type (0, 0), BuildingBlock: EZIPEK_clean_linker_0, # of connection points: 2
#     Edge 74, Type (0, 0), BuildingBlock: EZIPEK_clean_linker_0, # of connection points: 2
#     Edge 75, Type (0, 0), BuildingBlock: EZIPEK_clean_linker_0, # of connection points: 2
#     Edge 76, Type (0, 0), BuildingBlock: EZIPEK_clean_linker_0, # of connection points: 2
#     Edge 77, Type (0, 0), BuildingBlock: EZIPEK_clean_linker_0, # of connection points: 2
#     Edge 78, Type (0, 0), BuildingBlock: EZIPEK_clean_linker_0, # of connection points: 2
#     Edge 79, Type (0, 0), BuildingBlock: EZIPEK_clean_linker_0, # of connection points: 2
#     Edge 80, Type (0, 0), BuildingBlock: EZIPEK_clean_linker_0, # of connection points: 2
#     Edge 81, Type (0, 0), BuildingBlock: EZIPEK_clean_linker_0, # of connection points: 2
#     Edge 82, Type (0, 0), BuildingBlock: EZIPEK_clean_linker_0, # of connection points: 2
#     Edge 83, Type (0, 0), BuildingBlock: EZIPEK_clean_linker_0, # of connection points: 2
#     Edge 84, Type (0, 0), BuildingBlock: EZIPEK_clean_linker_0, # of connection points: 2
#     Edge 85, Type (0, 0), BuildingBlock: EZIPEK_clean_linker_0, # of connection points: 2
#     Edge 86, Type (0, 0), BuildingBlock: EZIPEK_clean_linker_0, # of connection points: 2
#     Edge 87, Type (0, 0), BuildingBlock: EZIPEK_clean_linker_0, # of connection points: 2
#     Edge 88, Type (0, 0), BuildingBlock: EZIPEK_clean_linker_0, # of connection points: 2
#     Edge 89, Type (0, 0), BuildingBlock: EZIPEK_clean_linker_0, # of connection points: 2
#     Edge 90, Type (0, 0), BuildingBlock: EZIPEK_clean_linker_0, # of connection points: 2
#     Edge 91, Type (0, 0), BuildingBlock: EZIPEK_clean_linker_0, # of connection points: 2
#     Edge 92, Type (0, 0), BuildingBlock: EZIPEK_clean_linker_0, # of connection points: 2
#     Edge 93, Type (0, 0), BuildingBlock: EZIPEK_clean_linker_0, # of connection points: 2
#     Edge 94, Type (0, 0), BuildingBlock: EZIPEK_clean_linker_0, # of connection points: 2
#     Edge 95, Type (0, 0), BuildingBlock: EZIPEK_clean_linker_0, # of connection points: 2
#     Edge 96, Type (0, 0), BuildingBlock: EZIPEK_clean_linker_0, # of connection points: 2
#     Edge 97, Type (0, 0), BuildingBlock: EZIPEK_clean_linker_0, # of connection points: 2
#     Edge 98, Type (0, 0), BuildingBlock: EZIPEK_clean_linker_0, # of connection points: 2
#     Edge 99, Type (0, 0), BuildingBlock: EZIPEK_clean_linker_0, # of connection points: 2
#     Edge 100, Type (0, 0), BuildingBlock: EZIPEK_clean_linker_0, # of connection points: 2
#     Edge 101, Type (0, 0), BuildingBlock: EZIPEK_clean_linker_0, # of connection points: 2
#     Edge 102, Type (0, 0), BuildingBlock: EZIPEK_clean_linker_0, # of connection points: 2
#     Edge 103, Type (0, 0), BuildingBlock: EZIPEK_clean_linker_0, # of connection points: 2
#     Edge 104, Type (0, 0), BuildingBlock: EZIPEK_clean_linker_0, # of connection points: 2
#     Edge 105, Type (0, 0), BuildingBlock: EZIPEK_clean_linker_0, # of connection points: 2
#     Edge 106, Type (0, 0), BuildingBlock: EZIPEK_clean_linker_0, # of connection points: 2
#     Edge 107, Type (0, 0), BuildingBlock: EZIPEK_clean_linker_0, # of connection points: 2
#     Edge 108, Type (0, 0), BuildingBlock: EZIPEK_clean_linker_0, # of connection points: 2
#     Edge 109, Type (0, 0), BuildingBlock: EZIPEK_clean_linker_0, # of connection points: 2
#     Edge 110, Type (0, 0), BuildingBlock: EZIPEK_clean_linker_0, # of connection points: 2
#     Edge 111, Type (0, 0), BuildingBlock: EZIPEK_clean_linker_0, # of connection points: 2
#     Edge 112, Type (0, 0), BuildingBlock: EZIPEK_clean_linker_0, # of connection points: 2
#     Edge 113, Type (0, 0), BuildingBlock: EZIPEK_clean_linker_0, # of connection points: 2
#     Edge 114, Type (0, 0), BuildingBlock: EZIPEK_clean_linker_0, # of connection points: 2
#     Edge 115, Type (0, 0), BuildingBlock: EZIPEK_clean_linker_0, # of connection points: 2
#     Edge 116, Type (0, 0), BuildingBlock: EZIPEK_clean_linker_0, # of connection points: 2
#     Edge 117, Type (0, 0), BuildingBlock: EZIPEK_clean_linker_0, # of connection points: 2
#     Edge 118, Type (0, 0), BuildingBlock: EZIPEK_clean_linker_0, # of connection points: 2
#     Edge 119, Type (0, 0), BuildingBlock: EZIPEK_clean_linker_0, # of connection points: 2
#     Edge 120, Type (0, 0), BuildingBlock: EZIPEK_clean_linker_0, # of connection points: 2
#     Edge 121, Type (0, 0), BuildingBlock: EZIPEK_clean_linker_0, # of connection points: 2
#     Edge 122, Type (0, 0), BuildingBlock: EZIPEK_clean_linker_0, # of connection points: 2
#     Edge 123, Type (0, 0), BuildingBlock: EZIPEK_clean_linker_0, # of connection points: 2
#     Edge 124, Type (0, 0), BuildingBlock: EZIPEK_clean_linker_0, # of connection points: 2
#     Edge 125, Type (0, 0), BuildingBlock: EZIPEK_clean_linker_0, # of connection points: 2
#     Edge 126, Type (0, 0), BuildingBlock: EZIPEK_clean_linker_0, # of connection points: 2
#     Edge 127, Type (0, 0), BuildingBlock: EZIPEK_clean_linker_0, # of connection points: 2
#     Edge 128, Type (0, 0), BuildingBlock: EZIPEK_clean_linker_0, # of connection points: 2
#     Edge 129, Type (0, 0), BuildingBlock: EZIPEK_clean_linker_0, # of connection points: 2
#     Edge 130, Type (0, 0), BuildingBlock: EZIPEK_clean_linker_0, # of connection points: 2
#     Edge 131, Type (0, 0), BuildingBlock: EZIPEK_clean_linker_0, # of connection points: 2
#     Edge 132, Type (0, 0), BuildingBlock: EZIPEK_clean_linker_0, # of connection points: 2
#     Edge 133, Type (0, 0), BuildingBlock: EZIPEK_clean_linker_0, # of connection points: 2
#     Edge 134, Type (0, 0), BuildingBlock: EZIPEK_clean_linker_0, # of connection points: 2
#     Edge 135, Type (0, 0), BuildingBlock: EZIPEK_clean_linker_0, # of connection points: 2
#     Edge 136, Type (0, 0), BuildingBlock: EZIPEK_clean_linker_0, # of connection points: 2
#     Edge 137, Type (0, 0), BuildingBlock: EZIPEK_clean_linker_0, # of connection points: 2
#     Edge 138, Type (0, 0), BuildingBlock: EZIPEK_clean_linker_0, # of connection points: 2
#     Edge 139, Type (0, 0), BuildingBlock: EZIPEK_clean_linker_0, # of connection points: 2
#     Edge 140, Type (0, 0), BuildingBlock: EZIPEK_clean_linker_0, # of connection points: 2
#     Edge 141, Type (0, 0), BuildingBlock: EZIPEK_clean_linker_0, # of connection points: 2
#     Edge 142, Type (0, 0), BuildingBlock: EZIPEK_clean_linker_0, # of connection points: 2
#     Edge 143, Type (0, 0), BuildingBlock: EZIPEK_clean_linker_0, # of connection points: 2
# Relax obj value: 0.186
# Max RMSD: 0.215
# Mean RMSD: 0.215
data_MOF--net-wmt--node1-GEDQOX_clean_sbu_0--edge1-EZIPEK_clean_linker_0
_symmetry_space_group_name_H-M    P1
_symmetry_Int_Tables_number       1
_symmetry_cell_setting            triclinic
loop_
_symmetry_equiv_pos_as_xyz
'x, y, z'
_cell_length_a     63.100608
_cell_length_b     62.96747
_cell_length_c     29.269824
_cell_angle_alpha  89.84292
_cell_angle_beta   90.046338
_cell_angle_gamma 120.11648
loop_
_atom_site_label
_atom_site_type_symbol
_atom_site_fract_x
_atom_site_fract_y
_atom_site_fract_z
_atom_type_partial_charge
Nd0 Nd 0.02427 0.45647 0.05234 0.0
Nd1 Nd 0.06344 0.50397 1.00329 0.0
C2 C -0.00844 0.42728 0.11347 0.0
C3 C -0.00966 0.4262 0.16431 0.0
C4 C 0.97837 0.43662 0.18803 0.0
C5 C 0.97787 0.43667 0.23581 0.0
C6 C -0.01109 0.42585 0.26106 0.0
C7 C 0.00053 0.41504 0.23765 0.0
C8 C 0.00129 0.41524 0.18975 0.0
C9 C 0.06544 0.45589 1.02639 0.0
C10 C 0.06493 0.50405 0.1144 0.0
C11 C 0.09669 0.53356 0.94328 0.0
C12 C 0.09629 0.5394 0.8939 0.0
C13 C 0.09689 0.52421 0.85921 0.0
C14 C 0.09457 0.52888 0.81307 0.0
C15 C 0.09169 0.54885 0.80066 0.0
C16 C 0.09202 0.56455 0.83495 0.0
C17 C 0.09443 0.55997 0.88098 0.0
C18 C 0.02334 0.50583 1.03216 0.0
C19 C 0.01722 0.45826 0.94371 0.0
O20 O -0.00853 0.44604 0.09458 0.0
O21 O 0.00667 0.4218 0.09304 0.0
O22 O 0.04345 0.43693 1.02382 0.0
O23 O 0.06525 0.47429 0.04289 0.0
O24 O 0.04591 0.48167 0.11159 0.0
O25 O 0.07708 0.51644 0.07734 0.0
O26 O 0.09318 0.51174 0.95368 0.0
O27 O 0.08545 0.54075 0.97151 0.0
O28 O 0.04518 0.52496 1.03014 0.0
O29 O 0.02353 0.48741 1.01576 0.0
O30 O 0.03877 0.47893 0.94399 0.0
O31 O 0.00652 0.44621 0.98164 0.0
H32 H 0.96959 0.44503 0.16966 0.0
H33 H 0.96883 0.44514 0.25314 0.0
H34 H 0.00911 0.40654 0.25651 0.0
H35 H 0.01055 0.40692 0.17274 0.0
H36 H 0.09846 0.50831 0.86772 0.0
H37 H 0.09407 0.51637 0.78718 0.0
H38 H 0.08953 0.57988 0.82617 0.0
H39 H 0.09413 0.57219 0.90661 0.0
Nd40 Nd 0.52626 0.56957 0.05636 0.0
Nd41 Nd 0.47987 0.56098 1.00505 0.0
C42 C 0.55695 0.571 0.11992 0.0
C43 C 0.55489 0.56813 0.17021 0.0
C44 C 0.56509 0.55571 0.19298 0.0
C45 C 0.56293 0.55262 0.24053 0.0
C46 C 0.55065 0.56203 0.26605 0.0
C47 C 0.54019 0.57418 0.24329 0.0
C48 C 0.54219 0.57712 0.19576 0.0
C49 C 0.52916 0.61129 1.02087 0.0
C50 C 0.47817 0.5644 0.11365 0.0
C51 C 0.4496 0.56314 0.9447 0.0
C52 C 0.44356 0.55753 0.89537 0.0
C53 C 0.4587 0.57373 0.86092 0.0
C54 C 0.45367 0.56744 0.81464 0.0
C55 C 0.43337 0.54491 0.80192 0.0
C56 C 0.41762 0.52923 0.83604 0.0
C57 C 0.42259 0.53552 0.88224 0.0
C58 C 0.4772 0.51984 0.04434 0.0
C59 C 0.52397 0.55658 0.94877 0.0
O60 O 0.54277 0.55148 0.09619 0.0
O61 O 0.55788 0.59064 0.10295 0.0
O62 O 0.54663 0.6061 1.01876 0.0
O63 O 0.51049 0.59412 0.04035 0.0
O64 O 0.49747 0.56139 0.1131 0.0
O65 O 0.46959 0.56888 0.07579 0.0
O66 O 0.47108 0.58193 0.95491 0.0
O67 O 0.44325 0.54445 0.97222 0.0
O68 O 0.45863 0.52336 0.04124 0.0
O69 O 0.49512 0.53708 1.0239 0.0
O70 O 0.50417 0.55886 0.94723 0.0
O71 O 0.53564 0.55847 0.98759 0.0
H72 H 0.57483 0.54851 0.17399 0.0
H73 H 0.57118 0.54325 0.25755 0.0
H74 H 0.5307 0.5816 0.26241 0.0
H75 H 0.53398 0.58659 0.17904 0.0
H76 H 0.47487 0.59096 0.86964 0.0
H77 H 0.46626 0.5796 0.78888 0.0
H78 H 0.40209 0.51159 0.82696 0.0
H79 H 0.41039 0.52277 0.90778 0.0
Nd80 Nd 0.4103 0.95415 0.05141 0.0
Nd81 Nd 0.42328 0.91945 0.99983 0.0
C82 C 0.40433 0.98085 0.11447 0.0
C83 C 0.40681 0.98319 0.16475 0.0
C84 C 0.42483 0.98057 0.1882 0.0
C85 C 0.42615 0.98189 0.23604 0.0
C86 C 0.40918 0.9854 0.26117 0.0
C87 C 0.39105 0.98777 0.23772 0.0
C88 C 0.38995 0.98678 0.18995 0.0
C89 C 0.37111 0.91159 1.01951 0.0
C90 C 0.42176 0.91612 0.10957 0.0
C91 C 0.42183 0.88757 0.93918 0.0
C92 C 0.42771 0.88744 0.88999 0.0
C93 C 0.41579 0.89321 0.85553 0.0
C94 C 0.42269 0.89449 0.80963 0.0
C95 C 0.44156 0.88995 0.79726 0.0
C96 C 0.45281 0.88326 0.8313 0.0
C97 C 0.44589 0.88193 0.87718 0.0
C98 C 0.46239 0.95967 0.03762 0.0
C99 C 0.42172 0.96604 0.94372 0.0
O100 O 0.42438 0.98886 0.09037 0.0
O101 O 0.3865 0.96 0.09941 0.0
O102 O 0.37302 0.93304 1.01639 0.0
O103 O 0.38984 0.91325 0.03816 0.0
O104 O 0.42397 0.93808 0.10741 0.0
O105 O 0.41711 0.90246 0.07234 0.0
O106 O 0.40292 0.89008 0.94906 0.0
O107 O 0.44036 0.89986 0.96696 0.0
O108 O 0.46135 0.93862 1.03273 0.0
O109 O 0.44418 0.9589 1.01806 0.0
O110 O 0.42417 0.94622 0.94301 0.0
O111 O 0.4163 0.97343 0.98202 0.0
H112 H 0.43769 0.97722 0.16964 0.0
H113 H 0.44019 0.97986 0.25349 0.0
H114 H 0.37777 0.99043 0.25648 0.0
H115 H 0.37573 0.98856 0.17263 0.0
H116 H 0.40161 0.89741 0.86407 0.0
H117 H 0.4141 0.90014 0.78401 0.0
H118 H 0.46771 0.88013 0.82257 0.0
H119 H 0.45527 0.87728 0.90289 0.0
Nd120 Nd 0.45355 0.02918 0.66031 0.0
Nd121 Nd 0.49627 0.06932 0.71627 0.0
C122 C 0.42257 0.99316 0.60682 0.0
C123 C 0.41896 0.99138 0.55624 0.0
C124 C 0.43486 0.98781 0.52764 0.0
C125 C 0.43227 0.98712 0.48012 0.0
C126 C 0.41364 0.98986 0.45988 0.0
C127 C 0.39747 0.99313 0.48806 0.0
C128 C 0.40012 -0.00609 0.5358 0.0
C129 C 0.45428 0.07339 0.6658 0.0
C130 C 0.50027 0.07128 0.60571 0.0
C131 C 0.52416 0.10263 0.77795 0.0
C132 C 0.52902 0.10322 0.82783 0.0
C133 C 0.51062 0.09761 0.86067 0.0
C134 C 0.51514 0.09597 0.90715 0.0
C135 C 0.53807 0.09979 0.92156 0.0
C136 C 0.55675 0.10655 0.88915 0.0
C137 C 0.55231 0.10836 0.84282 0.0
C138 C 0.50396 0.03329 0.6819 0.0
C139 C 0.45146 0.02084 0.77078 0.0
O140 O 0.44311 -0.00472 0.62165 0.0
O141 O 0.41639 0.00723 0.62928 0.0
O142 O 0.4489 0.05997 0.62969 0.0
O143 O 0.45876 0.06302 0.69826 0.0
O144 O 0.48459 0.04753 0.60832 0.0
O145 O 0.50503 0.08557 0.64222 0.0
O146 O 0.50286 0.09929 0.76468 0.0
O147 O 0.5316 0.0905 0.75289 0.0
O148 O 0.52096 0.05623 0.68365 0.0
O149 O 0.4846 0.03067 0.69949 0.0
O150 O 0.47382 0.04042 0.77231 0.0
O151 O 0.43879 0.01364 0.73219 0.0
H152 H 0.44948 0.98571 0.54185 0.0
H153 H 0.44485 0.98445 0.45906 0.0
H154 H 0.38289 -0.00484 0.47305 0.0
H155 H 0.38753 -0.00337 0.55668 0.0
H156 H 0.49253 0.09368 0.8504 0.0
H157 H 0.50038 0.09043 0.93156 0.0
H158 H 0.57446 0.10933 0.89946 0.0
H159 H 0.56687 0.11291 0.8184 0.0
Nd160 Nd 0.95076 0.41708 0.66913 0.0
Nd161 Nd 0.91132 0.42457 0.71886 0.0
C162 C 0.98333 0.42083 0.60768 0.0
C163 C 0.98488 0.42181 0.55684 0.0
C164 C -0.00605 0.44435 0.53357 0.0
C165 C -0.00529 0.44537 0.4858 0.0
C166 C 0.98691 0.42394 0.4601 0.0
C167 C 0.97833 0.40145 0.48307 0.0
C168 C 0.9773 0.40038 0.53095 0.0
C169 C 0.91023 0.37478 0.697 0.0
C170 C 0.9091 0.42289 0.60782 0.0
C171 C 0.87885 0.42101 0.78036 0.0
C172 C 0.87996 0.4268 0.82996 0.0
C173 C 0.89054 0.41811 0.86199 0.0
C174 C 0.8934 0.42563 0.90782 0.0
C175 C 0.88599 0.44216 0.9225 0.0
C176 C 0.87473 0.45021 0.89095 0.0
C177 C 0.87168 0.44255 0.84522 0.0
C178 C 0.95071 0.4668 0.68791 0.0
C179 C 0.95862 0.42688 0.77738 0.0
O180 O 0.984 0.43963 0.62787 0.0
O181 O 0.96759 0.39996 0.6269 0.0
O182 O 0.93249 0.37859 0.69936 0.0
O183 O 0.90995 0.39311 0.68004 0.0
O184 O 0.92864 0.42045 0.61033 0.0
O185 O 0.89687 0.42257 0.6451 0.0
O186 O 0.88163 0.40246 0.7686 0.0
O187 O 0.89038 0.43984 0.75286 0.0
O188 O 0.9287 0.46353 0.68997 0.0
O189 O 0.95098 0.44852 0.70496 0.0
O190 O 0.93668 0.425 0.77751 0.0
O191 O 0.96921 0.42568 0.7393 0.0
H192 H 0.00021 0.46125 0.55219 0.0
H193 H 0.00137 0.46291 0.46885 0.0
H194 H 0.97228 0.3847 0.46387 0.0
H195 H 0.97044 0.38276 0.54764 0.0
H196 H 0.89727 0.40609 0.85142 0.0
H197 H 0.90238 0.4194 0.93142 0.0
H198 H 0.86907 0.46311 0.90136 0.0
H199 H 0.86352 0.44957 0.82137 0.0
Nd200 Nd 0.55906 0.52446 0.6726 0.0
Nd201 Nd 0.55087 0.47789 0.72475 0.0
C202 C 0.55926 0.55534 0.61052 0.0
C203 C 0.55604 0.55481 0.56021 0.0
C204 C 0.53941 0.56099 0.541 0.0
C205 C 0.53676 0.56124 0.49342 0.0
C206 C 0.55059 0.55515 0.4643 0.0
C207 C 0.56677 0.5484 0.48348 0.0
C208 C 0.5695 0.54828 0.53092 0.0
C209 C 0.60047 0.52676 0.70695 0.0
C210 C 0.55436 0.4767 0.61555 0.0
C211 C 0.55289 0.44752 0.78512 0.0
C212 C 0.54573 0.44066 0.83378 0.0
C213 C 0.56316 0.45157 0.86896 0.0
C214 C 0.55612 0.44655 0.91494 0.0
C215 C 0.53157 0.43038 0.92663 0.0
C216 C 0.51436 0.41859 0.89169 0.0
C217 C 0.52135 0.42359 0.84576 0.0
C218 C 0.50969 0.47636 0.68963 0.0
C219 C 0.54937 0.52369 0.78139 0.0
O220 O 0.53996 0.54056 0.63447 0.0
O221 O 0.57918 0.55623 0.62584 0.0
O222 O 0.59597 0.54475 0.70826 0.0
O223 O 0.5833 0.50822 0.68758 0.0
O224 O 0.55054 0.49554 0.61598 0.0
O225 O 0.55905 0.46834 0.65356 0.0
O226 O 0.57126 0.46968 0.77712 0.0
O227 O 0.53519 0.44072 0.75521 0.0
O228 O 0.51233 0.4572 0.69189 0.0
O229 O 0.52763 0.49401 0.70874 0.0
O230 O 0.55126 0.50359 0.78267 0.0
O231 O 0.55006 0.53479 0.7424 0.0
H232 H 0.52872 0.56596 0.5628 0.0
H233 H 0.52422 0.56655 0.47929 0.0
H234 H 0.57766 0.54372 0.46163 0.0
H235 H 0.58244 0.54345 0.54464 0.0
H236 H 0.58213 0.46456 0.86098 0.0
H237 H 0.56961 0.45607 0.94141 0.0
H238 H 0.49527 0.40627 0.90004 0.0
H239 H 0.50747 0.41459 0.81972 0.0
Nd240 Nd 0.91598 0.4851 0.21783 0.0
Nd241 Nd 0.94858 0.53567 0.16834 0.0
C242 C 0.88416 0.45308 0.27716 0.0
C243 C 0.88366 0.44702 0.32661 0.0
C244 C 0.88266 0.46216 0.36094 0.0
C245 C 0.88334 0.45679 0.4073 0.0
C246 C 0.88502 0.43619 0.42034 0.0
C247 C 0.88518 0.42061 0.3863 0.0
C248 C 0.88438 0.42589 0.33997 0.0
C249 C 0.9566 0.48938 0.17843 0.0
C250 C 0.95989 0.53382 0.27592 0.0
C251 C 0.97783 0.57044 0.11029 0.0
C252 C 0.98073 0.57265 0.0602 0.0
C253 C 0.0042 0.58669 0.0412 0.0
C254 C 0.0074 0.58823 0.99375 0.0
C255 C 0.98717 0.57559 0.96464 0.0
C256 C 0.96367 0.56156 0.98361 0.0
C257 C 0.96046 0.56011 1.03105 0.0
C258 C 0.90454 0.52798 0.20014 0.0
C259 C 0.91283 0.48607 0.10573 0.0
O260 O 0.88525 0.47388 0.26666 0.0
O261 O 0.89774 0.44815 0.25028 0.0
O262 O 0.93818 0.46825 0.19038 0.0
O263 O 0.9548 0.50652 0.19719 0.0
O264 O 0.94144 0.51072 0.27566 0.0
O265 O 0.96649 0.54768 0.23878 0.0
O266 O 0.98345 0.55525 0.12976 0.0
O267 O 0.95795 0.56895 0.12732 0.0
O268 O 0.92501 0.54874 0.20337 0.0
O269 O 0.90805 0.51198 0.18134 0.0
O270 O 0.92914 0.50966 0.10853 0.0
O271 O 0.90288 0.47252 0.14318 0.0
H272 H 0.88195 0.4785 0.3521 0.0
H273 H 0.88361 0.46927 0.43299 0.0
H274 H 0.88683 0.40483 0.39559 0.0
H275 H 0.88495 0.41373 0.3145 0.0
H276 H 0.02007 0.59633 0.06311 0.0
H277 H 0.02566 0.59914 0.97968 0.0
H278 H 0.94786 0.55163 0.96167 0.0
H279 H 0.94219 0.54895 0.04493 0.0
Nd280 Nd 0.49222 0.42681 0.22156 0.0
Nd281 Nd 0.44637 0.41871 0.17178 0.0
C282 C 0.52265 0.42696 0.2845 0.0
C283 C 0.52771 0.43299 0.33417 0.0
C284 C 0.51392 0.41598 0.36846 0.0
C285 C 0.52005 0.42142 0.41484 0.0
C286 C 0.54117 0.44348 0.42879 0.0
C287 C 0.55264 0.46154 0.39417 0.0
C288 C 0.54663 0.45615 0.34789 0.0
C289 C 0.49472 0.46921 0.18997 0.0
C290 C 0.44692 0.42657 0.2788 0.0
C291 C 0.41596 0.42128 0.11256 0.0
C292 C 0.4118 0.41781 0.06306 0.0
C293 C 0.42545 0.41047 0.03631 0.0
C294 C 0.42401 0.41057 0.98866 0.0
C295 C 0.40864 0.41768 0.96716 0.0
C296 C 0.39437 0.42424 0.99399 0.0
C297 C 0.39611 0.42449 0.04167 0.0
C298 C 0.4442 0.37643 0.20093 0.0
C299 C 0.49317 0.42258 0.11159 0.0
O300 O 0.50227 0.40713 0.27293 0.0
O301 O 0.52825 0.44526 0.25658 0.0
O302 O 0.51308 0.46543 0.19087 0.0
O303 O 0.47637 0.45112 0.20796 0.0
O304 O 0.46389 0.42015 0.27826 0.0
O305 O 0.43849 0.43045 0.2404 0.0
O306 O 0.43718 0.43983 0.12388 0.0
O307 O 0.40994 0.40176 0.13749 0.0
O308 O 0.42613 0.38073 0.20419 0.0
O309 O 0.46289 0.39431 0.18309 0.0
O310 O 0.47137 0.42058 0.11327 0.0
O311 O 0.50491 0.42295 0.14954 0.0
H312 H 0.49827 0.39839 0.35958 0.0
H313 H 0.50764 0.40812 0.43917 0.0
H314 H 0.56632 0.48021 0.40207 0.0
H315 H 0.55691 0.47031 0.32276 0.0
H316 H 0.43767 0.40527 0.05214 0.0
H317 H 0.43514 0.40544 0.96853 0.0
H318 H 0.3824 0.42975 0.97793 0.0
H319 H 0.38568 0.4305 0.06178 0.0
Nd320 Nd 0.55099 0.06695 0.21537 0.0
Nd321 Nd 0.56097 0.03067 0.16358 0.0
C322 C 0.55476 0.09967 0.27662 0.0
C323 C 0.55142 0.1001 0.32681 0.0
C324 C 0.56223 0.09118 0.35781 0.0
C325 C 0.55691 0.08961 0.40468 0.0
C326 C 0.5408 0.09705 0.42144 0.0
C327 C 0.5309 0.10699 0.39076 0.0
C328 C 0.53615 0.10848 0.34397 0.0
C329 C 0.50954 0.02719 0.18363 0.0
C330 C 0.55324 0.02114 0.27139 0.0
C331 C 0.55931 -0.00149 0.10343 0.0
C332 C 0.56008 -0.00332 0.05297 0.0
C333 C 0.53906 0.98988 1.02636 0.0
C334 C 0.54 0.98894 0.97877 0.0
C335 C 0.56188 -0.00566 0.95682 0.0
C336 C 0.58277 0.00047 0.98317 0.0
C337 C 0.58189 0.00165 1.03084 0.0
C338 C 0.60211 0.07183 0.19238 0.0
C339 C 0.55288 0.0713 0.10435 0.0
O340 O 0.5735 0.09795 0.26216 0.0
O341 O 0.53491 0.08623 0.25274 0.0
O342 O 0.51227 0.04902 0.18669 0.0
O343 O 0.52794 0.02691 0.20038 0.0
O344 O 0.55118 0.04113 0.27253 0.0
O345 O 0.55705 0.01283 0.23291 0.0
O346 O 0.53987 -0.00224 0.12089 0.0
O347 O 0.57951 0.01457 0.12384 0.0
O348 O 0.59923 0.04991 0.19396 0.0
O349 O 0.58354 0.07154 0.17549 0.0
O350 O 0.55799 0.05341 0.10536 0.0
O351 O 0.55098 0.08155 0.14258 0.0
H352 H 0.57426 0.08482 0.34567 0.0
H353 H 0.56466 0.0818 0.42765 0.0
H354 H 0.51825 0.11263 0.40283 0.0
H355 H 0.52764 0.11549 0.32092 0.0
H356 H 0.52191 0.98565 0.04212 0.0
H357 H 0.52366 0.98411 0.95902 0.0
H358 H 0.5998 0.00456 0.96677 0.0
H359 H 0.59831 0.0066 0.05035 0.0
Nd360 Nd 0.48275 0.9233 0.50274 0.0
Nd361 Nd 0.53159 0.95885 0.55142 0.0
C362 C 0.45298 0.89248 0.43989 0.0
C363 C 0.44894 0.89458 0.3905 0.0
C364 C 0.43833 0.87357 0.36277 0.0
C365 C 0.43402 0.87529 0.31619 0.0
C366 C 0.44025 0.89808 0.29653 0.0
C367 C 0.45121 0.91918 0.32409 0.0
C368 C 0.4556 0.91746 0.37059 0.0
C369 C 0.48368 0.96289 0.54082 0.0
C370 C 0.52969 0.96921 0.44479 0.0
C371 C 0.56276 0.99039 0.61144 0.0
C372 C 0.56443 0.99184 0.66204 0.0
C373 C 0.55682 0.00623 0.68588 0.0
C374 C 0.55682 0.00656 0.73363 0.0
C375 C 0.56495 0.99292 0.75855 0.0
C376 C 0.57341 0.97924 0.73492 0.0
C377 C 0.57302 0.97856 0.68712 0.0
C378 C 0.52968 0.91758 0.51783 0.0
C379 C 0.48393 0.91809 0.6135 0.0
O380 O 0.4739 0.89421 0.45098 0.0
O381 O 0.44662 0.90444 0.46806 0.0
O382 O 0.46341 0.9424 0.53365 0.0
O383 O 0.50137 0.96272 0.521 0.0
O384 O 0.50723 0.9499 0.44553 0.0
O385 O 0.54349 0.97696 0.48166 0.0
O386 O 0.54497 0.99247 0.59302 0.0
O387 O 0.56603 0.97367 0.59139 0.0
O388 O 0.54897 0.9394 0.51595 0.0
O389 O 0.51198 0.91808 0.53726 0.0
O390 O 0.50706 0.93542 0.61024 0.0
O391 O 0.47026 0.90836 0.57633 0.0
H392 H 0.43316 0.85576 0.37726 0.0
H393 H 0.42545 0.85879 0.29562 0.0
H394 H 0.45611 0.93693 0.30966 0.0
H395 H 0.46397 0.93398 0.39111 0.0
H396 H 0.55046 0.01693 0.66764 0.0
H397 H 0.55033 0.01734 0.75118 0.0
H398 H 0.57996 0.96878 0.75357 0.0
H399 H 0.57923 0.96747 0.66993 0.0
Nd400 Nd 0.05839 0.55819 0.50507 0.0
Nd401 Nd 0.02486 0.57389 0.55723 0.0
C402 C 0.09015 0.55936 0.44444 0.0
C403 C 0.0903 0.55403 0.39495 0.0
C404 C 0.08707 0.56807 0.361 0.0
C405 C 0.08601 0.56192 0.31472 0.0
C406 C 0.08809 0.54161 0.30144 0.0
C407 C 0.09207 0.52805 0.33504 0.0
C408 C 0.09327 0.53427 0.3813 0.0
C409 C 0.01845 0.5205 0.54419 0.0
C410 C 0.01267 0.56112 0.44979 0.0
C411 C -0.00366 0.57703 0.61982 0.0
C412 C -0.00355 0.57795 0.67037 0.0
C413 C 0.97504 0.56201 0.69455 0.0
C414 C 0.97487 0.56188 0.74235 0.0
C415 C -0.00398 0.57802 0.76687 0.0
C416 C 0.01748 0.59405 0.74284 0.0
C417 C 0.01778 0.59385 0.69496 0.0
C418 C 0.06778 0.61179 0.52466 0.0
C419 C 0.06307 0.56225 0.61678 0.0
O420 O 0.08854 0.57868 0.45549 0.0
O421 O 0.07713 0.54053 0.47128 0.0
O422 O 0.0373 0.51871 0.53199 0.0
O423 O 0.01967 0.5394 0.52633 0.0
O424 O 0.03195 0.55785 0.44877 0.0
O425 O 0.00573 0.56729 0.48777 0.0
O426 O -0.00782 0.55629 0.60206 0.0
O427 O 0.01344 0.59616 0.59802 0.0
O428 O 0.0469 0.61124 0.52336 0.0
O429 O 0.06536 0.5924 0.54257 0.0
O430 O 0.04639 0.56896 0.61517 0.0
O431 O 0.0725 0.55871 0.57877 0.0
H432 H 0.08477 0.58344 0.37016 0.0
H433 H 0.08256 0.57239 0.28937 0.0
H434 H 0.09339 0.51213 0.32557 0.0
H435 H 0.09592 0.52321 0.40658 0.0
H436 H 0.9584 0.54964 0.67641 0.0
H437 H 0.95811 0.54946 0.76029 0.0
H438 H 0.03397 0.60662 0.76119 0.0
H439 H 0.03467 0.60612 0.67726 0.0
Nd440 Nd 0.42792 0.50309 0.50689 0.0
Nd441 Nd 0.41468 0.45546 0.55955 0.0
C442 C 0.42724 0.53328 0.44427 0.0
C443 C 0.43291 0.5375 0.39485 0.0
C444 C 0.42512 0.55126 0.36939 0.0
C445 C 0.43091 0.55593 0.32283 0.0
C446 C 0.44457 0.54688 0.30095 0.0
C447 C 0.45215 0.53288 0.32625 0.0
C448 C 0.44637 0.52821 0.37283 0.0
C449 C 0.46741 0.50261 0.54283 0.0
C450 C 0.42354 0.454 0.45233 0.0
C451 C 0.41586 0.42612 0.62287 0.0
C452 C 0.4132 0.42416 0.6732 0.0
C453 C 0.4331 0.42755 0.70014 0.0
C454 C 0.43146 0.4268 0.74779 0.0
C455 C 0.40979 0.42241 0.76933 0.0
C456 C 0.38981 0.41893 0.74269 0.0
C457 C 0.39152 0.41993 0.69495 0.0
C458 C 0.37514 0.45773 0.52807 0.0
C459 C 0.4223 0.50394 0.6181 0.0
O460 O 0.4078 0.51251 0.45574 0.0
O461 O 0.44583 0.5391 0.47146 0.0
O462 O 0.46704 0.52267 0.53461 0.0
O463 O 0.44879 0.48443 0.52537 0.0
O464 O 0.42561 0.476 0.45041 0.0
O465 O 0.42043 0.44211 0.49112 0.0
O466 O 0.43541 0.44564 0.60762 0.0
O467 O 0.39631 0.42036 0.59836 0.0
O468 O 0.37671 0.43787 0.52783 0.0
O469 O 0.3941 0.47558 0.54521 0.0
O470 O 0.41506 0.4804 0.61652 0.0
O471 O 0.42711 0.51718 0.57999 0.0
H472 H 0.41472 0.55857 0.38564 0.0
H473 H 0.42493 0.5668 0.30392 0.0
H474 H 0.4627 0.52576 0.30996 0.0
H475 H 0.45259 0.51754 0.39174 0.0
H476 H 0.45002 0.43096 0.6843 0.0
H477 H 0.44706 0.42953 0.7679 0.0
H478 H 0.37295 0.41553 0.75888 0.0
H479 H 0.37594 0.41749 0.67521 0.0
Nd480 Nd 0.69548 0.78346 0.38035 0.0
Nd481 Nd 0.72953 0.83449 0.33103 0.0
C482 C 0.66647 0.75093 0.44203 0.0
C483 C 0.66484 0.75081 0.49255 0.0
C484 C 0.64186 0.74168 0.51354 0.0
C485 C 0.64 0.74305 0.56102 0.0
C486 C 0.66112 0.75367 0.5884 0.0
C487 C 0.68412 0.7626 0.56753 0.0
C488 C 0.68598 0.7612 0.52002 0.0
C489 C 0.73747 0.78905 0.34275 0.0
C490 C 0.73427 0.83293 0.44168 0.0
C491 C 0.761 0.86592 0.27081 0.0
C492 C 0.76034 0.8702 0.22121 0.0
C493 C 0.74414 0.8512 0.19211 0.0
C494 C 0.74263 0.8558 0.14572 0.0
C495 C 0.75734 0.87945 0.12758 0.0
C496 C 0.7739 0.89835 0.1564 0.0
C497 C 0.77533 0.89376 0.20288 0.0
C498 C 0.68896 0.83055 0.37143 0.0
C499 C 0.68378 0.78763 0.27364 0.0
O500 O 0.66127 0.76607 0.4211 0.0
O501 O 0.6853 0.75065 0.42385 0.0
O502 O 0.71642 0.76864 0.34129 0.0
O503 O 0.73569 0.80555 0.3639 0.0
O504 O 0.71816 0.80927 0.43865 0.0
O505 O 0.74328 0.847 0.4047 0.0
O506 O 0.76044 0.84555 0.2828 0.0
O507 O 0.74708 0.87086 0.29658 0.0
O508 O 0.70773 0.85165 0.36037 0.0
O509 O 0.69095 0.81367 0.35254 0.0
O510 O 0.70399 0.80948 0.27342 0.0
O511 O 0.67551 0.77389 0.31101 0.0
H512 H 0.62534 0.73371 0.49308 0.0
H513 H 0.62209 0.73594 0.57644 0.0
H514 H 0.70064 0.77086 0.58803 0.0
H515 H 0.70397 0.7687 0.50475 0.0
H516 H 0.73242 0.83286 0.20527 0.0
H517 H 0.72968 0.84101 0.1241 0.0
H518 H 0.78533 0.91674 0.14307 0.0
H519 H 0.78789 0.90869 0.22468 0.0
Nd520 Nd 0.19604 0.90175 0.38759 0.0
Nd521 Nd 0.14974 0.8934 0.33669 0.0
C522 C 0.22415 0.89807 0.45059 0.0
C523 C 0.22582 0.90004 0.50093 0.0
C524 C 0.22898 0.88281 0.52603 0.0
C525 C 0.2287 0.88295 0.5738 0.0
C526 C 0.22553 0.90054 0.59745 0.0
C527 C 0.22249 0.91791 0.57242 0.0
C528 C 0.2224 0.91753 0.5245 0.0
C529 C 0.1983 0.94381 0.35826 0.0
C530 C 0.14851 0.89706 0.44677 0.0
C531 C 0.12109 0.89604 0.27348 0.0
C532 C 0.11751 0.89006 0.22409 0.0
C533 C 0.10907 0.90201 0.19501 0.0
C534 C 0.10522 0.89611 0.14839 0.0
C535 C 0.10982 0.8782 0.13006 0.0
C536 C 0.11858 0.86646 0.15902 0.0
C537 C 0.12245 0.87239 0.20557 0.0
C538 C 0.14758 0.85129 0.36783 0.0
C539 C 0.19535 0.89266 0.27966 0.0
O540 O 0.20403 0.87945 0.43512 0.0
O541 O 0.23099 0.91815 0.4268 0.0
O542 O 0.21661 0.9398 0.35643 0.0
O543 O 0.17934 0.92576 0.37516 0.0
O544 O 0.17093 0.9006 0.44526 0.0
O545 O 0.13627 0.89559 0.40889 0.0
O546 O 0.14217 0.91491 0.28532 0.0
O547 O 0.11389 0.87743 0.3015 0.0
O548 O 0.1287 0.8543 0.36571 0.0
O549 O 0.16595 0.86974 0.35083 0.0
O550 O 0.17566 0.89503 0.27891 0.0
O551 O 0.20622 0.89263 0.31823 0.0
H552 H 0.23146 0.86907 0.50863 0.0
H553 H 0.23105 0.86938 0.59241 0.0
H554 H 0.21999 0.93162 0.59001 0.0
H555 H 0.21945 0.93073 0.50594 0.0
H556 H 0.10522 0.91573 0.20846 0.0
H557 H 0.09831 0.90525 0.12671 0.0
H558 H 0.1221 0.85248 0.14568 0.0
H559 H 0.12905 0.86296 0.22723 0.0
Nd560 Nd 0.08343 0.29023 0.395 0.0
Nd561 Nd 0.0917 0.25429 0.3399 0.0
C562 C 0.08352 0.32449 0.44771 0.0
C563 C 0.08461 0.32723 0.49802 0.0
C564 C 0.09538 0.31663 0.52498 0.0
C565 C 0.09593 0.31864 0.57262 0.0
C566 C 0.08587 0.33144 0.59427 0.0
C567 C 0.07531 0.34226 0.56738 0.0
C568 C 0.07461 0.34009 0.51962 0.0
C569 C 0.04187 0.24486 0.3822 0.0
C570 C 0.09074 0.25012 0.45074 0.0
C571 C 0.09266 0.223 0.27999 0.0
C572 C 0.09567 0.22133 0.23015 0.0
C573 C 0.08842 0.23329 0.19859 0.0
C574 C 0.09441 0.23429 0.15219 0.0
C575 C 0.10782 0.2234 0.13655 0.0
C576 C 0.11417 0.21056 0.16781 0.0
C577 C 0.10812 0.20953 0.21419 0.0
C578 C 0.13296 0.29209 0.38016 0.0
C579 C 0.09042 0.29994 0.28495 0.0
O580 O 0.10302 0.32643 0.42851 0.0
O581 O 0.06346 0.30631 0.43084 0.0
O582 O 0.04942 0.25614 0.42069 0.0
O583 O 0.0575 0.25697 0.35167 0.0
O584 O 0.09669 0.27338 0.44952 0.0
O585 O 0.08328 0.23654 0.41294 0.0
O586 O 0.07237 0.22156 0.29467 0.0
O587 O 0.11195 0.23981 0.3013 0.0
O588 O 0.12829 0.26955 0.37888 0.0
O589 O 0.11605 0.29331 0.35986 0.0
O590 O 0.09549 0.2819 0.28343 0.0
O591 O 0.08327 0.30562 0.32331 0.0
H592 H 0.10335 0.30672 0.50927 0.0
H593 H 0.10415 0.31015 0.59264 0.0
H594 H 0.06744 0.3522 0.58345 0.0
H595 H 0.06621 0.34838 0.49957 0.0
H596 H 0.07898 0.24264 0.21011 0.0
H597 H 0.08964 0.2446 0.12882 0.0
H598 H 0.12486 0.20241 0.15671 0.0
H599 H 0.11407 0.20036 0.23797 0.0
Nd600 Nd 0.11606 0.36629 1.00436 0.0
Nd601 Nd 0.16342 0.40114 0.05653 0.0
C602 C 0.08578 0.33679 0.94062 0.0
C603 C 0.0857 0.33682 0.88998 0.0
C604 C 0.07781 0.31472 0.86637 0.0
C605 C 0.07844 0.31442 0.81853 0.0
C606 C 0.08675 0.33621 0.79331 0.0
C607 C 0.09473 0.35837 0.8169 0.0
C608 C 0.09437 0.35871 0.86482 0.0
C609 C 0.11797 0.4078 0.03634 0.0
C610 C 0.16532 0.40625 0.94524 0.0
C611 C 0.19403 0.43319 0.11726 0.0
C612 C 0.19944 0.43349 0.16672 0.0
C613 C 0.18071 0.42001 0.19849 0.0
C614 C 0.18627 0.4188 0.24446 0.0
C615 C 0.2107 0.43105 0.25964 0.0
C616 C 0.22942 0.44516 0.22823 0.0
C617 C 0.22382 0.44638 0.18218 0.0
C618 C 0.16384 0.36179 1.0194 0.0
C619 C 0.11533 0.3543 0.11217 0.0
O620 O 0.10268 0.33366 0.95982 0.0
O621 O 0.08276 0.35348 0.96134 0.0
O622 O 0.09845 0.38615 0.03769 0.0
O623 O 0.1358 0.40704 1.01854 0.0
O624 O 0.14214 0.38882 0.94639 0.0
O625 O 0.17777 0.41611 0.98351 0.0
O626 O 0.17305 0.43136 0.10598 0.0
O627 O 0.19961 0.41981 0.09135 0.0
O628 O 0.18332 0.38318 1.02458 0.0
O629 O 0.14556 0.36163 0.03771 0.0
O630 O 0.13767 0.37407 0.11324 0.0
O631 O 0.10265 0.34706 0.07372 0.0
H632 H 0.07121 0.29766 0.885 0.0
H633 H 0.07226 0.29714 0.8011 0.0
H634 H 0.10128 0.3754 0.79818 0.0
H635 H 0.10092 0.37608 0.88215 0.0
H636 H 0.16184 0.40986 0.18748 0.0
H637 H 0.17159 0.40754 0.26793 0.0
H638 H 0.24841 0.4544 0.23897 0.0
H639 H 0.23861 0.45683 0.15833 0.0
Nd640 Nd 0.61942 0.75614 0.99602 0.0
Nd641 Nd 0.58093 0.76353 0.04793 0.0
C642 C 0.6501 0.7568 0.93342 0.0
C643 C 0.65104 0.75721 0.88269 0.0
C644 C 0.67097 0.77665 0.85985 0.0
C645 C 0.67233 0.7771 0.81201 0.0
C646 C 0.65382 0.75807 0.78617 0.0
C647 C 0.6337 0.73885 0.80879 0.0
C648 C 0.6323 0.73841 0.85657 0.0
C649 C 0.57962 0.71394 1.02684 0.0
C650 C 0.57671 0.76115 0.93903 0.0
C651 C 0.54797 0.76072 0.10751 0.0
C652 C 0.54736 0.76671 0.15654 0.0
C653 C 0.53967 0.74833 0.19034 0.0
C654 C 0.54058 0.7542 0.23675 0.0
C655 C 0.54912 0.77854 0.25024 0.0
C656 C 0.55577 0.79673 0.21661 0.0
C657 C 0.5547 0.79086 0.17024 0.0
C658 C 0.62096 0.8055 1.01481 0.0
C659 C 0.62736 0.76382 0.10477 0.0
O660 O 0.65279 0.77651 0.9533 0.0
O661 O 0.63333 0.73668 0.9532 0.0
O662 O 0.60199 0.71821 1.02858 0.0
O663 O 0.57868 0.73166 1.00882 0.0
O664 O 0.59935 0.76514 0.93992 0.0
O665 O 0.56332 0.75575 0.97663 0.0
O666 O 0.55154 0.74234 0.09864 0.0
O667 O 0.55969 0.77912 0.07909 0.0
O668 O 0.59904 0.80247 1.01642 0.0
O669 O 0.62073 0.78742 1.03354 0.0
O670 O 0.60512 0.76121 0.10579 0.0
O671 O 0.6385 0.76474 0.06587 0.0
H672 H 0.68563 0.79137 0.87907 0.0
H673 H 0.68802 0.79208 0.79517 0.0
H674 H 0.61924 0.724 0.78944 0.0
H675 H 0.61664 0.72322 0.873 0.0
H676 H 0.53356 0.72949 0.18099 0.0
H677 H 0.53563 0.73995 0.26223 0.0
H678 H 0.56265 0.81567 0.22636 0.0
H679 H 0.56026 0.8054 0.14522 0.0
Nd680 Nd 0.23141 0.86571 1.00231 0.0
Nd681 Nd 0.21927 0.8174 0.05244 0.0
C682 C 0.23504 0.89883 0.94179 0.0
C683 C 0.23135 0.89894 0.89203 0.0
C684 C 0.21776 0.87688 0.86785 0.0
C685 C 0.21576 0.87709 0.82024 0.0
C686 C 0.22737 0.89939 0.79612 0.0
C687 C 0.24062 0.92147 0.82032 0.0
C688 C 0.2426 0.92124 0.86796 0.0
C689 C 0.27109 0.86284 1.0326 0.0
C690 C 0.22203 0.81717 0.94368 0.0
C691 C 0.21933 0.78624 0.1131 0.0
C692 C 0.21305 0.78173 0.16218 0.0
C693 C 0.22342 0.77099 0.18959 0.0
C694 C 0.21796 0.7671 0.23636 0.0
C695 C 0.20202 0.7739 0.25637 0.0
C696 C 0.19172 0.78477 0.22902 0.0
C697 C 0.19731 0.7888 0.18235 0.0
C698 C 0.17977 0.81902 1.01695 0.0
C699 C 0.2221 0.86455 0.11027 0.0
O700 O 0.21553 0.88561 0.96661 0.0
O701 O 0.2536 0.8965 0.95458 0.0
O702 O 0.26918 0.88239 0.03594 0.0
O703 O 0.25231 0.84568 1.0142 0.0
O704 O 0.21859 0.83615 0.94639 0.0
O705 O 0.22697 0.80813 0.98053 0.0
O706 O 0.23887 0.80724 0.10313 0.0
O707 O 0.20114 0.78055 0.08481 0.0
O708 O 0.18076 0.79896 1.02065 0.0
O709 O 0.19818 0.83613 0.03648 0.0
O710 O 0.22266 0.84381 0.11065 0.0
O711 O 0.22349 0.87643 0.0721 0.0
H712 H 0.20907 0.85949 0.88564 0.0
H713 H 0.20557 0.85986 0.80214 0.0
H714 H 0.24976 0.93884 0.80222 0.0
H715 H 0.25327 0.93844 0.88593 0.0
H716 H 0.23575 0.7656 0.17481 0.0
H717 H 0.22598 0.7586 0.25688 0.0
H718 H 0.17929 0.79004 0.2438 0.0
H719 H 0.18928 0.79735 0.16198 0.0
Nd720 Nd 0.58089 0.81623 0.54669 0.0
Nd721 Nd 0.61826 0.86243 0.49633 0.0
C722 C 0.54928 0.78807 0.61015 0.0
C723 C 0.55162 0.78392 0.65919 0.0
C724 C 0.53075 0.77263 0.68719 0.0
C725 C 0.53287 0.76842 0.73361 0.0
C726 C 0.55592 0.77551 0.75267 0.0
C727 C 0.57683 0.78708 0.72481 0.0
C728 C 0.57471 0.79126 0.67844 0.0
C729 C 0.61933 0.81312 0.51314 0.0
C730 C 0.62855 0.86247 0.60342 0.0
C731 C 0.65041 0.89065 0.43398 0.0
C732 C 0.65076 0.89023 0.38348 0.0
C733 C 0.67027 0.89002 0.36085 0.0
C734 C 0.67061 0.88891 0.31313 0.0
C735 C 0.65147 0.8881 0.28729 0.0
C736 C 0.63177 0.88796 0.30979 0.0
C737 C 0.63133 0.88888 0.35752 0.0
C738 C 0.57853 0.86452 0.52661 0.0
C739 C 0.57578 0.81515 0.43656 0.0
O740 O 0.55284 0.80979 0.59917 0.0
O741 O 0.55981 0.78024 0.5816 0.0
O742 O 0.59714 0.7945 0.5149 0.0
O743 O 0.62037 0.83183 0.53129 0.0
O744 O 0.60871 0.84027 0.60327 0.0
O745 O 0.63629 0.87573 0.56582 0.0
O746 O 0.65116 0.87256 0.45431 0.0
O747 O 0.6351 0.89613 0.45352 0.0
O748 O 0.60087 0.88291 0.5279 0.0
O749 O 0.57762 0.84576 0.50899 0.0
O750 O 0.59499 0.83746 0.43787 0.0
O751 O 0.56487 0.80297 0.4745 0.0
H752 H 0.51281 0.76692 0.67307 0.0
H753 H 0.51654 0.75943 0.75459 0.0
H754 H 0.59474 0.7927 0.73896 0.0
H755 H 0.59109 0.80004 0.65757 0.0
H756 H 0.68526 0.89068 0.38013 0.0
H757 H 0.68591 0.88893 0.2963 0.0
H758 H 0.61681 0.88725 0.29036 0.0
H759 H 0.6158 0.88852 0.37401 0.0
Nd760 Nd 0.16699 0.76313 0.55259 0.0
Nd761 Nd 0.11988 0.75097 0.49935 0.0
C762 C 0.19634 0.76188 0.61574 0.0
C763 C 0.20101 0.76905 0.66421 0.0
C764 C 0.18771 0.77841 0.68639 0.0
C765 C 0.19195 0.78499 0.73246 0.0
C766 C 0.20968 0.78249 0.75701 0.0
C767 C 0.22316 0.77333 0.73481 0.0
C768 C 0.21874 0.76652 0.68871 0.0
C769 C 0.16728 0.80266 0.51308 0.0
C770 C 0.11872 0.76225 0.60624 0.0
C771 C 0.08953 0.74821 0.43403 0.0
C772 C 0.0932 0.75598 0.38567 0.0
C773 C 0.11675 0.77234 0.36883 0.0
C774 C 0.1205 0.77832 0.32237 0.0
C775 C 0.10072 0.76772 0.29185 0.0
C776 C 0.07707 0.75174 0.30873 0.0
C777 C 0.07334 0.74589 0.35533 0.0
C778 C 0.12156 0.71132 0.53385 0.0
C779 C 0.16938 0.76026 0.44428 0.0
O780 O 0.17462 0.74317 0.60658 0.0
O781 O 0.20336 0.77986 0.58619 0.0
O782 O 0.18692 0.80114 0.51875 0.0
O783 O 0.14946 0.78466 0.53247 0.0
O784 O 0.14088 0.76462 0.60745 0.0
O785 O 0.10598 0.75669 0.5679 0.0
O786 O 0.09869 0.76569 0.46456 0.0
O787 O 0.09355 0.73028 0.44389 0.0
O788 O 0.1021 0.71341 0.53442 0.0
O789 O 0.13908 0.72968 0.51502 0.0
O790 O 0.15044 0.7637 0.44542 0.0
O791 O 0.1778 0.7554 0.482 0.0
H792 H 0.17421 0.78085 0.66807 0.0
H793 H 0.18178 0.79253 0.74878 0.0
H794 H 0.2371 0.77153 0.75316 0.0
H795 H 0.22923 0.75939 0.67214 0.0
H796 H 0.13232 0.78029 0.39145 0.0
H797 H 0.13886 0.79071 0.31002 0.0
H798 H 0.06159 0.7434 0.28564 0.0
H799 H 0.05505 0.73313 0.36752 0.0
Nd800 Nd 0.22278 0.40273 0.5558 0.0
Nd801 Nd 0.2337 0.36545 0.50787 0.0
C802 C 0.22398 0.4349 0.61576 0.0
C803 C 0.21757 0.43447 0.66512 0.0
C804 C 0.23515 0.44006 0.69975 0.0
C805 C 0.2287 0.43851 0.74611 0.0
C806 C 0.20459 0.43149 0.75888 0.0
C807 C 0.18721 0.42661 0.72447 0.0
C808 C 0.19363 0.42821 0.67821 0.0
C809 C 0.18206 0.36184 0.52373 0.0
C810 C 0.22358 0.35766 0.61611 0.0
C811 C 0.23272 0.33346 0.44794 0.0
C812 C 0.2338 0.33199 0.39725 0.0
C813 C 0.21233 0.32307 0.37088 0.0
C814 C 0.21317 0.32205 0.32326 0.0
C815 C 0.23544 0.32955 0.30079 0.0
C816 C 0.2569 0.33801 0.32683 0.0
C817 C 0.2561 0.33925 0.37461 0.0
C818 C 0.27435 0.40732 0.53647 0.0
C819 C 0.22646 0.40583 0.4448 0.0
O820 O 0.24315 0.43283 0.60591 0.0
O821 O 0.20583 0.42266 0.58733 0.0
O822 O 0.184 0.38331 0.52663 0.0
O823 O 0.20057 0.36251 0.54179 0.0
O824 O 0.22408 0.37896 0.61551 0.0
O825 O 0.22537 0.34718 0.57841 0.0
O826 O 0.21312 0.33255 0.46485 0.0
O827 O 0.25269 0.34925 0.46941 0.0
O828 O 0.27166 0.38548 0.53979 0.0
O829 O 0.25577 0.40654 0.51843 0.0
O830 O 0.23073 0.38742 0.44813 0.0
O831 O 0.22464 0.41696 0.4819 0.0
H832 H 0.25379 0.44514 0.69108 0.0
H833 H 0.24231 0.442 0.77204 0.0
H834 H 0.16842 0.4208 0.73349 0.0
H835 H 0.17964 0.42401 0.65271 0.0
H836 H 0.19482 0.3171 0.38691 0.0
H837 H 0.19639 0.31541 0.30387 0.0
H838 H 0.27427 0.34376 0.3101 0.0
H839 H 0.27294 0.34594 0.39379 0.0
Nd840 Nd 0.15124 0.25422 0.84199 0.0
Nd841 Nd 0.19865 0.29119 0.89278 0.0
C842 C 0.12228 0.22322 0.77851 0.0
C843 C 0.11901 0.22548 0.72883 0.0
C844 C 0.10758 0.20447 0.70116 0.0
C845 C 0.10348 0.20644 0.65452 0.0
C846 C 0.11083 0.22949 0.63476 0.0
C847 C 0.12281 0.25057 0.66222 0.0
C848 C 0.12689 0.24859 0.70876 0.0
C849 C 0.15017 0.29398 0.87623 0.0
C850 C 0.1973 0.30138 0.78536 0.0
C851 C 0.22969 0.32134 0.955 0.0
C852 C 0.23089 0.32225 1.00581 0.0
C853 C 0.2149 0.32705 1.03151 0.0
C854 C 0.21628 0.32825 0.07919 0.0
C855 C 0.2336 0.32454 0.10233 0.0
C856 C 0.24959 0.31966 0.07708 0.0
C857 C 0.24831 0.31862 1.02921 0.0
C858 C 0.19831 0.2502 0.86134 0.0
C859 C 0.14975 0.24983 0.95239 0.0
O860 O 0.143 0.22489 0.79101 0.0
O861 O 0.11558 0.23525 0.80578 0.0
O862 O 0.13091 0.27227 0.87271 0.0
O863 O 0.16842 0.29396 0.85859 0.0
O864 O 0.17677 0.27984 0.78449 0.0
O865 O 0.20922 0.31118 0.82378 0.0
O866 O 0.21266 0.32429 0.9358 0.0
O867 O 0.23256 0.30446 0.93469 0.0
O868 O 0.21707 0.27231 0.85839 0.0
O869 O 0.18033 0.25046 0.87965 0.0
O870 O 0.172 0.26921 0.9507 0.0
O871 O 0.1379 0.23841 0.91451 0.0
H872 H 0.1014 0.18648 0.7158 0.0
H873 H 0.09402 0.18994 0.63412 0.0
H874 H 0.12845 0.26851 0.64784 0.0
H875 H 0.13579 0.2651 0.72927 0.0
H876 H 0.20118 0.32981 1.01494 0.0
H877 H 0.20375 0.33199 0.09808 0.0
H878 H 0.2631 0.31676 0.09444 0.0
H879 H 0.26095 0.31499 1.01048 0.0
Nd880 Nd 0.72977 0.88694 0.83137 0.0
Nd881 Nd 0.69328 0.89705 0.88286 0.0
C882 C 0.76206 0.88981 0.77036 0.0
C883 C 0.76215 0.88452 0.72092 0.0
C884 C 0.75817 0.89819 0.68723 0.0
C885 C 0.75694 0.89205 0.64096 0.0
C886 C 0.75958 0.87212 0.6275 0.0
C887 C 0.76435 0.85897 0.66078 0.0
C888 C 0.76577 0.86521 0.70703 0.0
C889 C 0.69096 0.84647 0.86995 0.0
C890 C 0.68272 0.88675 0.77556 0.0
C891 C 0.66318 0.89871 0.94395 0.0
C892 C 0.65951 0.8946 0.99355 0.0
C893 C 0.66978 0.88259 1.01754 0.0
C894 C 0.66759 0.88017 0.06504 0.0
C895 C 0.65533 0.88999 0.08924 0.0
C896 C 0.64476 0.90171 0.06528 0.0
C897 C 0.64682 0.90397 1.01769 0.0
C898 C 0.7342 0.93802 0.84993 0.0
C899 C 0.73496 0.89092 0.94016 0.0
O900 O 0.75915 0.90839 0.78121 0.0
O901 O 0.7501 0.87091 0.79767 0.0
O902 O 0.71259 0.84892 0.86556 0.0
O903 O 0.69035 0.86387 0.84972 0.0
O904 O 0.70334 0.88587 0.77437 0.0
O905 O 0.67419 0.89048 0.814 0.0
O906 O 0.65753 0.87945 0.91882 0.0
O907 O 0.68377 0.91794 0.93149 0.0
O908 O 0.71214 0.93459 0.84746 0.0
O909 O 0.73393 0.91996 0.86894 0.0
O910 O 0.71229 0.8868 0.9388 0.0
O911 O 0.7481 0.89565 0.90233 0.0
H912 H 0.75536 0.91323 0.69658 0.0
H913 H 0.75284 0.90214 0.61584 0.0
H914 H 0.76611 0.84333 0.65108 0.0
H915 H 0.76903 0.85448 0.73211 0.0
H916 H 0.67984 0.87548 0.99968 0.0
H917 H 0.67591 0.87114 0.08304 0.0
H918 H 0.6353 0.90944 0.08354 0.0
H919 H 0.63892 0.91343 0.99982 0.0
Nd920 Nd 0.09469 0.83963 0.83489 0.0
Nd921 Nd 0.0884 0.79519 0.88715 0.0
C922 C 0.09115 0.8691 0.77422 0.0
C923 C 0.09738 0.87581 0.72527 0.0
C924 C 0.07977 0.8636 0.69087 0.0
C925 C 0.08604 0.86886 0.64463 0.0
C926 C 0.10999 0.88651 0.63196 0.0
C927 C 0.12732 0.89946 0.66614 0.0
C928 C 0.12105 0.89429 0.71232 0.0
C929 C 0.13743 0.84439 0.86915 0.0
C930 C 0.09623 0.79348 0.77904 0.0
C931 C 0.08988 0.7656 0.95005 0.0
C932 C 0.09524 0.76825 0.99944 0.0
C933 C 0.10884 0.7916 1.01934 0.0
C934 C 0.11267 0.79409 0.06658 0.0
C935 C 0.10227 0.77324 0.09484 0.0
C936 C 0.08874 0.74987 0.07492 0.0
C937 C 0.08531 0.74741 1.02757 0.0
C938 C 0.04543 0.79006 0.85388 0.0
C939 C 0.09302 0.84291 0.94346 0.0
O940 O 0.07332 0.84683 0.78312 0.0
O941 O 0.10937 0.8764 0.80303 0.0
O942 O 0.13279 0.86228 0.8676 0.0
O943 O 0.12019 0.82564 0.85054 0.0
O944 O 0.0963 0.81464 0.77761 0.0
O945 O 0.09392 0.78198 0.8181 0.0
O946 O 0.1081 0.77909 0.92259 0.0
O947 O 0.06975 0.76517 0.93812 0.0
O948 O 0.05138 0.77313 0.85227 0.0
O949 O 0.06222 0.80925 0.87268 0.0
O950 O 0.09742 0.82453 0.94268 0.0
O951 O 0.08708 0.85031 0.90573 0.0
H952 H 0.06131 0.84947 0.69961 0.0
H953 H 0.07254 0.8584 0.61872 0.0
H954 H 0.14599 0.91288 0.657 0.0
H955 H 0.13499 0.90431 0.73781 0.0
H956 H 0.11622 0.80791 0.99845 0.0
H957 H 0.12317 0.81226 0.08124 0.0
H958 H 0.08063 0.73355 0.09615 0.0
H959 H 0.07454 0.72925 1.01299 0.0
Nd960 Nd 0.36052 0.1216 0.72834 0.0
Nd961 Nd 0.39473 0.1696 0.67375 0.0
C962 C 0.32631 0.08816 0.78167 0.0
C963 C 0.32439 0.08686 0.83204 0.0
C964 C 0.3014 0.07698 0.85327 0.0
C965 C 0.29966 0.07791 0.90092 0.0
C966 C 0.32093 0.08884 0.92794 0.0
C967 C 0.3439 0.0987 0.90674 0.0
C968 C 0.34563 0.09778 0.85921 0.0
C969 C 0.40351 0.12532 0.70104 0.0
C970 C 0.40215 0.16877 0.78666 0.0
C971 C 0.42772 0.20433 0.61958 0.0
C972 C 0.42847 0.2084 0.56936 0.0
C973 C 0.44695 0.23029 0.5497 0.0
C974 C 0.44662 0.23485 0.50269 0.0
C975 C 0.42774 0.21761 0.47455 0.0
C976 C 0.40955 0.19555 0.49406 0.0
C977 C 0.40991 0.19102 0.54091 0.0
C978 C 0.35244 0.16508 0.70873 0.0
C979 C 0.34933 0.12471 0.61844 0.0
O980 O 0.32476 0.10626 0.76332 0.0
O981 O 0.34368 0.08532 0.76325 0.0
O982 O 0.39301 0.11665 0.74012 0.0
O983 O 0.39081 0.13151 0.6766 0.0
O984 O 0.38388 0.1459 0.78666 0.0
O985 O 0.41103 0.18139 0.74779 0.0
O986 O 0.42936 0.18539 0.63359 0.0
O987 O 0.41095 0.20653 0.64181 0.0
O988 O 0.36239 0.1776 0.67177 0.0
O989 O 0.36636 0.1589 0.72697 0.0
O990 O 0.37002 0.14577 0.61601 0.0
O991 O 0.34121 0.11219 0.65724 0.0
H992 H 0.28482 0.06884 0.83295 0.0
H993 H 0.28178 0.07019 0.91672 0.0
H994 H 0.3605 0.10723 0.92701 0.0
H995 H 0.3636 0.10592 0.84365 0.0
H996 H 0.46139 0.24405 0.57082 0.0
H997 H 0.46078 0.25204 0.48842 0.0
H998 H 0.39472 0.18207 0.47319 0.0
H999 H 0.39539 0.17409 0.55491 0.0
Nd1000 Nd 0.85558 0.23453 0.71902 0.0
Nd1001 Nd 0.80698 0.22253 0.6704 0.0
C1002 C 0.88658 0.23558 0.78149 0.0
C1003 C 0.88809 0.23699 0.83214 0.0
C1004 C 0.89367 0.22114 0.85637 0.0
C1005 C 0.89408 0.22121 0.90425 0.0
C1006 C 0.8893 0.23744 0.92894 0.0
C1007 C 0.88381 0.25344 0.90482 0.0
C1008 C 0.88298 0.25306 0.85685 0.0
C1009 C 0.85482 0.27391 0.68232 0.0
C1010 C 0.80801 0.22814 0.78074 0.0
C1011 C 0.77587 0.22332 0.61032 0.0
C1012 C 0.77177 0.21914 0.5604 0.0
C1013 C 0.79146 0.22603 0.5301 0.0
C1014 C 0.78716 0.21978 0.48372 0.0
C1015 C 0.7631 0.20646 0.4667 0.0
C1016 C 0.74344 0.20024 0.49667 0.0
C1017 C 0.74776 0.20656 0.54308 0.0
C1018 C 0.80687 0.18295 0.7091 0.0
C1019 C 0.85227 0.22114 0.61181 0.0
O1020 O 0.86854 0.21539 0.76482 0.0
O1021 O 0.89015 0.25509 0.75886 0.0
O1022 O 0.87364 0.27069 0.68044 0.0
O1023 O 0.83718 0.25655 0.70352 0.0
O1024 O 0.83105 0.2336 0.77784 0.0
O1025 O 0.79454 0.22475 0.74363 0.0
O1026 O 0.79593 0.24309 0.62353 0.0
O1027 O 0.77103 0.20401 0.63488 0.0
O1028 O 0.78747 0.18503 0.70559 0.0
O1029 O 0.82455 0.20067 0.68867 0.0
O1030 O 0.8314 0.22148 0.61171 0.0
O1031 O 0.86496 0.22417 0.64972 0.0
H1032 H 0.8977 0.20863 0.8382 0.0
H1033 H 0.8984 0.20876 0.9221 0.0
H1034 H 0.88003 0.26608 0.92317 0.0
H1035 H 0.87827 0.26526 0.83916 0.0
H1036 H 0.81016 0.23558 0.54246 0.0
H1037 H 0.80259 0.22447 0.46141 0.0
H1038 H 0.72476 0.18966 0.4845 0.0
H1039 H 0.73228 0.20092 0.56579 0.0
Nd1040 Nd 0.74155 0.6268 0.7206 0.0
Nd1041 Nd 0.75331 0.59145 0.66932 0.0
C1042 C 0.74167 0.65683 0.78365 0.0
C1043 C 0.74142 0.65672 0.83434 0.0
C1044 C 0.76311 0.67198 0.85837 0.0
C1045 C 0.76367 0.67148 0.90602 0.0
C1046 C 0.74237 0.65598 0.93077 0.0
C1047 C 0.72051 0.64089 0.90711 0.0
C1048 C 0.72004 0.64116 0.85927 0.0
C1049 C 0.70106 0.58529 0.68977 0.0
C1050 C 0.74979 0.58627 0.77997 0.0
C1051 C 0.75186 0.56055 0.60605 0.0
C1052 C 0.75818 0.56202 0.55691 0.0
C1053 C 0.76656 0.58396 0.53206 0.0
C1054 C 0.77326 0.58534 0.48597 0.0
C1055 C 0.77179 0.56484 0.46396 0.0
C1056 C 0.76331 0.54289 0.48868 0.0
C1057 C 0.75651 0.54148 0.53474 0.0
C1058 C 0.79341 0.6303 0.70661 0.0
C1059 C 0.75337 0.63897 0.61451 0.0
O1060 O 0.76159 0.65955 0.76444 0.0
O1061 O 0.72176 0.64069 0.76256 0.0
O1062 O 0.70383 0.60719 0.68777 0.0
O1063 O 0.71976 0.58596 0.70702 0.0
O1064 O 0.7448 0.6042 0.77852 0.0
O1065 O 0.7518 0.57589 0.74194 0.0
O1066 O 0.73304 0.56304 0.61647 0.0
O1067 O 0.77022 0.57238 0.63418 0.0
O1068 O 0.79112 0.60878 0.70139 0.0
O1069 O 0.77557 0.63087 0.68795 0.0
O1070 O 0.75573 0.61917 0.61384 0.0
O1071 O 0.74765 0.6463 0.65222 0.0
H1072 H 0.77976 0.68419 0.8403 0.0
H1073 H 0.7807 0.68329 0.92366 0.0
H1074 H 0.70386 0.62888 0.92572 0.0
H1075 H 0.70298 0.62913 0.84193 0.0
H1076 H 0.76826 0.60012 0.54837 0.0
H1077 H 0.78006 0.60253 0.46768 0.0
H1078 H 0.7622 0.52692 0.47244 0.0
H1079 H 0.75021 0.52442 0.55321 0.0
Nd1080 Nd 0.78766 0.69862 0.33281 0.0
Nd1081 Nd 0.83427 0.73427 0.38327 0.0
C1082 C 0.75561 0.66596 0.27494 0.0
C1083 C 0.75265 0.66259 0.22477 0.0
C1084 C 0.76875 0.65825 0.19852 0.0
C1085 C 0.76645 0.65621 0.15101 0.0
C1086 C 0.74772 0.65805 0.12887 0.0
C1087 C 0.73108 0.66156 0.15502 0.0
C1088 C 0.73356 0.66386 0.20256 0.0
C1089 C 0.78891 0.74088 0.35863 0.0
C1090 C 0.8365 0.7377 0.27209 0.0
C1091 C 0.86444 0.76677 0.4438 0.0
C1092 C 0.87022 0.7671 0.49337 0.0
C1093 C 0.85545 0.76896 0.52745 0.0
C1094 C 0.86047 0.76805 0.57394 0.0
C1095 C 0.88036 0.7653 0.58731 0.0
C1096 C 0.89558 0.76427 0.5535 0.0
C1097 C 0.89067 0.76532 0.5071 0.0
C1098 C 0.83443 0.69321 0.35432 0.0
C1099 C 0.78558 0.6904 0.44105 0.0
O1100 O 0.77341 0.66414 0.29385 0.0
O1101 O 0.75325 0.68376 0.29241 0.0
O1102 O 0.76974 0.71913 0.3619 0.0
O1103 O 0.80699 0.73985 0.34263 0.0
O1104 O 0.81366 0.71942 0.27356 0.0
O1105 O 0.84852 0.7486 0.31012 0.0
O1106 O 0.84316 0.76428 0.43289 0.0
O1107 O 0.87073 0.75435 0.4167 0.0
O1108 O 0.85389 0.71483 0.3562 0.0
O1109 O 0.81615 0.69386 0.37057 0.0
O1110 O 0.80827 0.70944 0.44144 0.0
O1111 O 0.77312 0.68232 0.40284 0.0
H1112 H 0.78338 0.65679 0.21453 0.0
H1113 H 0.77945 0.65346 0.13145 0.0
H1114 H 0.71645 0.66296 0.13851 0.0
H1115 H 0.7207 0.6669 0.22193 0.0
H1116 H 0.83964 0.77051 0.51828 0.0
H1117 H 0.84823 0.76842 0.59945 0.0
H1118 H 0.91076 0.76175 0.56302 0.0
H1119 H 0.90257 0.76409 0.4819 0.0
Nd1120 Nd 0.28802 0.0894 0.33788 0.0
Nd1121 Nd 0.25064 0.0969 0.39124 0.0
C1122 C 0.3187 0.09211 0.27332 0.0
C1123 C 0.31808 0.09187 0.22271 0.0
C1124 C 0.33827 0.10985 0.19805 0.0
C1125 C 0.33795 0.11007 0.15018 0.0
C1126 C 0.31746 0.09224 0.12619 0.0
C1127 C 0.2971 0.07452 0.15072 0.0
C1128 C 0.29733 0.0744 0.19857 0.0
C1129 C 0.24975 0.04673 0.37099 0.0
C1130 C 0.24192 0.09104 0.28428 0.0
C1131 C 0.22146 0.09844 0.45472 0.0
C1132 C 0.22277 0.1044 0.50435 0.0
C1133 C 0.21745 0.08651 0.53806 0.0
C1134 C 0.21713 0.09184 0.58451 0.0
C1135 C 0.22053 0.11482 0.59909 0.0
C1136 C 0.22897 0.13342 0.5651 0.0
C1137 C 0.22931 0.12816 0.51869 0.0
C1138 C 0.28983 0.13833 0.35378 0.0
C1139 C 0.2963 0.09617 0.44603 0.0
O1140 O 0.31989 0.1113 0.29265 0.0
O1141 O 0.3038 0.07171 0.29472 0.0
O1142 O 0.27251 0.0521 0.37183 0.0
O1143 O 0.24771 0.06403 0.35343 0.0
O1144 O 0.26447 0.09463 0.28283 0.0
O1145 O 0.22996 0.08709 0.32328 0.0
O1146 O 0.2213 0.07826 0.44331 0.0
O1147 O 0.23445 0.11658 0.42657 0.0
O1148 O 0.26767 0.1346 0.3546 0.0
O1149 O 0.29025 0.1211 0.37445 0.0
O1150 O 0.27354 0.09186 0.44739 0.0
O1151 O 0.30793 0.09897 0.40694 0.0
H1152 H 0.35433 0.12369 0.21587 0.0
H1153 H 0.35383 0.12389 0.13182 0.0
H1154 H 0.28118 0.06058 0.13276 0.0
H1155 H 0.28134 0.06056 0.21658 0.0
H1156 H 0.21359 0.06828 0.52867 0.0
H1157 H 0.21465 0.07769 0.60828 0.0
H1158 H 0.23567 0.15241 0.57366 0.0
H1159 H 0.23477 0.14286 0.494 0.0
Nd1160 Nd 0.89795 0.20039 0.33481 0.0
Nd1161 Nd 0.88786 0.15266 0.38329 0.0
C1162 C 0.90029 0.2331 0.27441 0.0
C1163 C 0.89901 0.23422 0.22398 0.0
C1164 C 0.8893 0.24775 0.20379 0.0
C1165 C 0.88748 0.2486 0.15613 0.0
C1166 C 0.89518 0.23576 0.12781 0.0
C1167 C 0.90482 0.22213 0.14801 0.0
C1168 C 0.90673 0.22138 0.19565 0.0
C1169 C 0.93785 0.20268 0.37667 0.0
C1170 C 0.89242 0.15331 0.27265 0.0
C1171 C 0.88846 0.12172 0.44453 0.0
C1172 C 0.8825 0.11614 0.49403 0.0
C1173 C 0.895 0.13387 0.52814 0.0
C1174 C 0.88809 0.12857 0.57423 0.0
C1175 C 0.8685 0.1055 0.5872 0.0
C1176 C 0.85644 0.0876 0.55343 0.0
C1177 C 0.86343 0.09282 0.50741 0.0
C1178 C 0.84743 0.15066 0.34444 0.0
C1179 C 0.88282 0.19623 0.44124 0.0
O1180 O 0.88019 0.21713 0.29491 0.0
O1181 O 0.91966 0.23363 0.29177 0.0
O1182 O 0.93219 0.21989 0.37709 0.0
O1183 O 0.92226 0.18456 0.35347 0.0
O1184 O 0.89535 0.17549 0.27553 0.0
O1185 O 0.8916 0.14086 0.31004 0.0
O1186 O 0.90791 0.14261 0.4335 0.0
O1187 O 0.86998 0.11609 0.4172 0.0
O1188 O 0.85089 0.13201 0.3465 0.0
O1189 O 0.86457 0.16865 0.36497 0.0
O1190 O 0.88428 0.17589 0.44172 0.0
O1191 O 0.88579 0.20883 0.40314 0.0
H1192 H 0.88307 0.25765 0.22493 0.0
H1193 H 0.88002 0.25923 0.14128 0.0
H1194 H 0.91091 0.21214 0.12685 0.0
H1195 H 0.9142 0.21072 0.21029 0.0
H1196 H 0.90972 0.15204 0.51919 0.0
H1197 H 0.89741 0.14278 0.59961 0.0
H1198 H 0.84108 0.06982 0.56252 0.0
H1199 H 0.85349 0.07878 0.48203 0.0
Nd1200 Nd 0.24866 0.14874 0.89429 0.0
Nd1201 Nd 0.28449 0.19595 0.84209 0.0
C1202 C 0.21734 0.11923 0.95664 0.0
C1203 C 0.21881 0.11384 1.00519 0.0
C1204 C 0.24151 0.1245 1.02778 0.0
C1205 C 0.24267 0.1197 0.07415 0.0
C1206 C 0.2212 0.10415 0.09851 0.0
C1207 C 0.19854 0.09334 0.07587 0.0
C1208 C 0.19736 0.09826 1.02953 0.0
C1209 C 0.28707 0.14762 0.85376 0.0
C1210 C 0.29664 0.19553 0.94905 0.0
C1211 C 0.31295 0.22748 0.77868 0.0
C1212 C 0.31706 0.22511 0.72984 0.0
C1213 C 0.3086 0.20187 0.71019 0.0
C1214 C 0.31081 0.19953 0.66319 0.0
C1215 C 0.32131 0.22042 0.6351 0.0
C1216 C 0.33015 0.24369 0.65474 0.0
C1217 C 0.32807 0.24601 0.70184 0.0
C1218 C 0.24421 0.19553 0.87826 0.0
C1219 C 0.24272 0.14738 0.78583 0.0
O1220 O 0.22092 0.14121 0.94777 0.0
O1221 O 0.22837 0.1122 0.92755 0.0
O1222 O 0.26544 0.12832 0.85858 0.0
O1223 O 0.28767 0.16555 0.87402 0.0
O1224 O 0.27671 0.1734 0.9497 0.0
O1225 O 0.304 0.20873 0.9111 0.0
O1226 O 0.32059 0.21697 0.80769 0.0
O1227 O 0.29123 0.22387 0.78899 0.0
O1228 O 0.26625 0.21438 0.87945 0.0
O1229 O 0.24416 0.17784 0.85838 0.0
O1230 O 0.26522 0.16637 0.78639 0.0
O1231 O 0.22994 0.13854 0.82398 0.0
H1232 H 0.2583 0.13646 1.00959 0.0
H1233 H 0.26031 0.1279 0.091 0.0
H1234 H 0.18182 0.08114 0.09411 0.0
H1235 H 0.1797 0.08989 1.01268 0.0
H1236 H 0.29994 0.1855 0.731 0.0
H1237 H 0.30376 0.18142 0.64858 0.0
H1238 H 0.33814 0.25997 0.63342 0.0
H1239 H 0.33452 0.26407 0.71624 0.0
Nd1240 Nd 0.82762 0.09145 0.88417 0.0
Nd1241 Nd 0.77938 0.0794 0.83512 0.0
C1242 C 0.85882 0.09125 0.94508 0.0
C1243 C 0.86397 0.09697 0.99458 0.0
C1244 C 0.84508 0.09182 1.02593 0.0
C1245 C 0.85049 0.09904 0.0718 0.0
C1246 C 0.87488 0.11164 0.08738 0.0
C1247 C 0.89371 0.11626 0.05633 0.0
C1248 C 0.8883 0.10896 1.01044 0.0
C1249 C 0.82703 0.13143 0.84936 0.0
C1250 C 0.78147 0.0915 0.9425 0.0
C1251 C 0.74876 0.07863 0.77225 0.0
C1252 C 0.74801 0.07801 0.72136 0.0
C1253 C 0.7536 0.09944 0.69683 0.0
C1254 C 0.75356 0.09964 0.64908 0.0
C1255 C 0.74761 0.07828 0.62454 0.0
C1256 C 0.74195 0.05673 0.64868 0.0
C1257 C 0.7422 0.05659 0.69667 0.0
C1258 C 0.7808 0.03924 0.86642 0.0
C1259 C 0.82798 0.08867 0.77325 0.0
O1260 O 0.83813 0.07161 0.93402 0.0
O1261 O 0.86407 0.10987 0.91816 0.0
O1262 O 0.8467 0.12979 0.85217 0.0
O1263 O 0.8094 0.11297 0.86815 0.0
O1264 O 0.80231 0.09109 0.94274 0.0
O1265 O 0.7691 0.0888 0.90435 0.0
O1266 O 0.76617 0.09875 0.79056 0.0
O1267 O 0.74514 0.05893 0.79421 0.0
O1268 O 0.76179 0.04206 0.86971 0.0
O1269 O 0.79857 0.05775 0.84768 0.0
O1270 O 0.80508 0.08358 0.7761 0.0
O1271 O 0.84081 0.09043 0.81059 0.0
H1272 H 0.82618 0.08275 1.01478 0.0
H1273 H 0.83566 0.09557 0.09486 0.0
H1274 H 0.91266 0.12624 0.06725 0.0
H1275 H 0.9032 0.11326 0.987 0.0
H1276 H 0.75815 0.11618 0.71456 0.0
H1277 H 0.75802 0.11648 0.6312 0.0
H1278 H 0.73726 0.04002 0.63035 0.0
H1279 H 0.73786 0.03974 0.7143 0.0
Nd1280 Nd 0.89217 0.73535 0.8837 0.0
Nd1281 Nd 0.89981 0.69734 0.83274 0.0
C1282 C 0.89755 0.7685 0.94541 0.0
C1283 C 0.89231 0.76867 0.99504 0.0
C1284 C 0.90546 0.76409 1.02882 0.0
C1285 C 0.89897 0.76251 0.07508 0.0
C1286 C 0.87915 0.76539 0.08849 0.0
C1287 C 0.86671 0.771 0.05514 0.0
C1288 C 0.8733 0.77275 1.00897 0.0
C1289 C 0.85009 0.69827 0.84819 0.0
C1290 C 0.88847 0.68637 0.94005 0.0
C1291 C 0.89653 0.66526 0.77084 0.0
C1292 C 0.89651 0.66453 0.72036 0.0
C1293 C 0.87964 0.64295 0.69779 0.0
C1294 C 0.87858 0.64209 0.65004 0.0
C1295 C 0.89469 0.66271 0.62394 0.0
C1296 C 0.91161 0.68435 0.64648 0.0
C1297 C 0.91237 0.68534 0.69431 0.0
C1298 C 0.94203 0.73688 0.86299 0.0
C1299 C 0.89469 0.73944 0.77261 0.0
O1300 O 0.9152 0.7643 0.93385 0.0
O1301 O 0.87855 0.75753 0.91833 0.0
O1302 O 0.85433 0.72058 0.85266 0.0
O1303 O 0.86718 0.69609 0.86635 0.0
O1304 O 0.88757 0.70705 0.94065 0.0
O1305 O 0.89317 0.67831 0.90203 0.0
O1306 O 0.87752 0.66478 0.78952 0.0
O1307 O 0.91709 0.68067 0.79105 0.0
O1308 O 0.93756 0.71437 0.86519 0.0
O1309 O 0.92435 0.738 0.84529 0.0
O1310 O 0.89852 0.72075 0.77414 0.0
O1311 O 0.89371 0.75048 0.81057 0.0
H1312 H 0.92029 0.76099 1.0195 0.0
H1313 H 0.9086 0.75785 0.10019 0.0
H1314 H 0.85124 0.77303 0.06464 0.0
H1315 H 0.86298 0.77654 0.9839 0.0
H1316 H 0.86726 0.62673 0.71716 0.0
H1317 H 0.86538 0.62524 0.63336 0.0
H1318 H 0.92416 0.70047 0.62701 0.0
H1319 H 0.92531 0.70235 0.71087 0.0
Nd1320 Nd 0.81042 0.58549 0.16802 0.0
Nd1321 Nd 0.85865 0.61857 0.21955 0.0
C1322 C 0.77933 0.55483 0.10666 0.0
C1323 C 0.77393 0.55547 0.05733 0.0
C1324 C 0.79124 0.55916 1.02325 0.0
C1325 C 0.7863 0.56098 0.97716 0.0
C1326 C 0.764 0.55914 0.96423 0.0
C1327 C 0.7464 0.55467 0.9979 0.0
C1328 C 0.75129 0.55275 0.04398 0.0
C1329 C 0.81296 0.62589 0.20787 0.0
C1330 C 0.8595 0.63125 0.11257 0.0
C1331 C 0.89229 0.64548 0.28112 0.0
C1332 C 0.89228 0.65055 0.33021 0.0
C1333 C 0.87032 0.64384 0.3535 0.0
C1334 C 0.87033 0.64669 0.40091 0.0
C1335 C 0.89233 0.65638 0.42561 0.0
C1336 C 0.91434 0.6637 0.40211 0.0
C1337 C 0.91429 0.66073 0.35476 0.0
C1338 C 0.85353 0.5756 0.18566 0.0
C1339 C 0.80857 0.58141 0.27742 0.0
O1340 O 0.8001 0.55596 0.11706 0.0
O1341 O 0.77388 0.56769 0.13446 0.0
O1342 O 0.79257 0.60524 0.20235 0.0
O1343 O 0.83008 0.62478 0.18778 0.0
O1344 O 0.83676 0.61214 0.11162 0.0
O1345 O 0.87248 0.63783 0.15063 0.0
O1346 O 0.88222 0.65429 0.25366 0.0
O1347 O 0.88644 0.623 0.27087 0.0
O1348 O 0.8736 0.5967 0.18313 0.0
O1349 O 0.83705 0.57786 0.20517 0.0
O1350 O 0.82901 0.60287 0.27555 0.0
O1351 O 0.79898 0.5681 0.24001 0.0
H1352 H 0.80885 0.56127 1.03218 0.0
H1353 H 0.80027 0.56485 0.95176 0.0
H1354 H 0.72925 0.55356 0.98868 0.0
H1355 H 0.73757 0.54977 0.06937 0.0
H1356 H 0.85313 0.63601 0.33525 0.0
H1357 H 0.85316 0.64093 0.41843 0.0
H1358 H 0.93147 0.67118 0.42063 0.0
H1359 H 0.93139 0.66592 0.33743 0.0
Nd1360 Nd 0.40008 0.22407 0.17742 0.0
Nd1361 Nd 0.36109 0.22943 0.22882 0.0
C1362 C 0.43204 0.22721 0.11495 0.0
C1363 C 0.4317 0.22186 0.06525 0.0
C1364 C 0.42697 0.23513 1.03188 0.0
C1365 C 0.4254 0.22892 0.9855 0.0
C1366 C 0.42844 0.20926 0.9715 0.0
C1367 C 0.43399 0.19655 1.00447 0.0
C1368 C 0.43572 0.20286 0.05081 0.0
C1369 C 0.36299 0.18174 0.21538 0.0
C1370 C 0.35129 0.21979 0.12127 0.0
C1371 C 0.32907 0.22586 0.29097 0.0
C1372 C 0.32793 0.2238 0.3414 0.0
C1373 C 0.30802 0.20354 0.36243 0.0
C1374 C 0.30688 0.20104 0.41003 0.0
C1375 C 0.3254 0.21911 0.43742 0.0
C1376 C 0.34535 0.23933 0.41653 0.0
C1377 C 0.34675 0.24156 0.36894 0.0
C1378 C 0.39762 0.27268 0.19324 0.0
C1379 C 0.40693 0.2295 0.28616 0.0
O1380 O 0.42918 0.24569 0.12655 0.0
O1381 O 0.42037 0.20834 0.14234 0.0
O1382 O 0.38569 0.18694 0.21469 0.0
O1383 O 0.36099 0.19805 0.19429 0.0
O1384 O 0.3731 0.2214 0.12005 0.0
O1385 O 0.34155 0.22128 0.16015 0.0
O1386 O 0.3271 0.20701 0.26874 0.0
O1387 O 0.34567 0.24678 0.2734 0.0
O1388 O 0.37448 0.26575 0.19199 0.0
O1389 O 0.40094 0.2566 0.2128 0.0
O1390 O 0.38414 0.22522 0.28612 0.0
O1391 O 0.41938 0.23362 0.24757 0.0
H1392 H 0.42386 0.24993 0.04159 0.0
H1393 H 0.42075 0.23873 0.96073 0.0
H1394 H 0.4361 0.18116 0.99451 0.0
H1395 H 0.43957 0.19243 0.07558 0.0
H1396 H 0.29329 0.18966 0.34198 0.0
H1397 H 0.29133 0.18531 0.42558 0.0
H1398 H 0.35968 0.25352 0.43716 0.0
H1399 H 0.36246 0.2573 0.35384 0.0
Nd1400 Nd 0.75403 0.16721 0.17009 0.0
Nd1401 Nd 0.74227 0.11847 0.21925 0.0
C1402 C 0.75214 0.19812 0.11082 0.0
C1403 C 0.75835 0.20467 0.06169 0.0
C1404 C 0.7407 0.19262 1.02723 0.0
C1405 C 0.74699 0.19787 0.98094 0.0
C1406 C 0.77099 0.21539 0.96818 0.0
C1407 C 0.78839 0.2281 1.00242 0.0
C1408 C 0.78213 0.22288 0.04864 0.0
C1409 C 0.7943 0.16673 0.2029 0.0
C1410 C 0.75358 0.12111 0.11075 0.0
C1411 C 0.74076 0.08588 0.27891 0.0
C1412 C 0.74237 0.08435 0.32942 0.0
C1413 C 0.76262 0.10237 0.3539 0.0
C1414 C 0.76382 0.10101 0.40149 0.0
C1415 C 0.74482 0.08149 0.42572 0.0
C1416 C 0.7247 0.06325 0.40142 0.0
C1417 C 0.72349 0.06469 0.35372 0.0
C1418 C 0.70272 0.12067 0.18768 0.0
C1419 C 0.75072 0.16698 0.281 0.0
O1420 O 0.7333 0.17644 0.12016 0.0
O1421 O 0.77045 0.20429 0.13903 0.0
O1422 O 0.79268 0.18646 0.19965 0.0
O1423 O 0.77559 0.14882 0.18543 0.0
O1424 O 0.75416 0.1425 0.11088 0.0
O1425 O 0.75036 0.10826 0.1486 0.0
O1426 O 0.7606 0.10189 0.25753 0.0
O1427 O 0.72106 0.085 0.26242 0.0
O1428 O 0.70485 0.10119 0.18476 0.0
O1429 O 0.72108 0.13798 0.20695 0.0
O1430 O 0.74791 0.14473 0.27858 0.0
O1431 O 0.75134 0.17923 0.24351 0.0
H1432 H 0.72216 0.17869 0.03597 0.0
H1433 H 0.73339 0.18763 0.95504 0.0
H1434 H 0.80708 0.24144 0.99328 0.0
H1435 H 0.79614 0.23274 0.07409 0.0
H1436 H 0.77751 0.11765 0.33636 0.0
H1437 H 0.77952 0.11526 0.41948 0.0
H1438 H 0.70983 0.04804 0.41947 0.0
H1439 H 0.70772 0.05048 0.33581 0.0
C1440 C 0.11288 0.43913 0.99309 0.0
C1441 C 0.1152 0.42972 0.0357 0.0
C1442 C 0.09397 0.44819 0.07386 0.0
C1443 C 0.08672 0.45228 1.03019 0.0
N1444 N 0.09026 0.45364 0.94825 0.0
N1445 N 0.112 0.4282 0.11729 0.0
C1446 C 0.09689 0.44881 0.98979 0.0
C1447 C 0.10747 0.43573 0.07644 0.0
N1448 N 0.12572 0.4386 0.956 0.0
N1449 N 0.08741 0.45554 0.11263 0.0
H1450 H 0.12331 0.42055 0.11963 0.0
H1451 H 0.10441 0.42897 0.14832 0.0
H1452 H 0.07681 0.4639 0.11241 0.0
H1453 H 0.09385 0.45499 0.14508 0.0
H1454 H 0.12611 0.4467 0.92474 0.0
H1455 H 0.13828 0.43253 0.95786 0.0
H1456 H 0.0945 0.44865 0.91719 0.0
H1457 H 0.07943 0.46178 0.94495 0.0
C1458 C 0.55912 0.67523 0.07088 0.0
C1459 C 0.55873 0.68861 1.03232 0.0
C1460 C 0.53378 0.65054 0.98999 0.0
C1461 C 0.53598 0.63724 1.02697 0.0
N1462 N 0.54603 0.63566 0.1061 0.0
N1463 N 0.5376 0.68884 0.96374 0.0
C1464 C 0.54691 0.6492 0.06882 0.0
C1465 C 0.54332 0.67622 0.99463 0.0
N1466 N 0.57208 0.68776 0.1087 0.0
N1467 N 0.5237 0.63885 0.94974 0.0
H1468 H 0.54273 0.70717 0.96815 0.0
H1469 H 0.52518 0.68049 0.93715 0.0
H1470 H 0.51626 0.61998 0.94554 0.0
H1471 H 0.52418 0.648 0.91973 0.0
H1472 H 0.57593 0.67984 0.13633 0.0
H1473 H 0.57943 0.70669 0.11201 0.0
H1474 H 0.55195 0.64283 0.13859 0.0
H1475 H 0.53775 0.61663 0.10548 0.0
C1476 C 0.33557 0.88128 0.06612 0.0
C1477 C 0.34657 0.88951 1.0226 0.0
C1478 C 0.30634 0.86611 0.98745 0.0
C1479 C 0.2955 0.865 1.03054 0.0
N1480 N 0.29939 0.86935 0.11223 0.0
N1481 N 0.34283 0.88798 0.9408 0.0
C1482 C 0.30998 0.87163 0.07047 0.0
C1483 C 0.33207 0.88107 0.98281 0.0
N1484 N 0.3494 0.88236 0.10276 0.0
N1485 N 0.2923 0.85272 0.95152 0.0
H1486 H 0.36183 0.89782 0.93667 0.0
H1487 H 0.33293 0.88485 0.91062 0.0
H1488 H 0.27388 0.83971 0.95529 0.0
H1489 H 0.29955 0.85193 0.92004 0.0
H1490 H 0.34203 0.8754 0.13487 0.0
H1491 H 0.36762 0.88697 0.09923 0.0
H1492 H 0.30946 0.87658 0.14209 0.0
H1493 H 0.28044 0.86104 0.11641 0.0
C1494 C 0.45545 0.11367 0.67433 0.0
C1495 C 0.44189 0.08764 0.67312 0.0
C1496 C 0.40348 0.08818 0.67475 0.0
C1497 C 0.4169 0.1139 0.68179 0.0
N1498 N 0.45528 0.1514 0.69112 0.0
N1499 N 0.40319 0.04981 0.68046 0.0
C1500 C 0.44285 0.12682 0.68195 0.0
C1501 C 0.41594 0.07479 0.67527 0.0
N1502 N 0.48024 0.12572 0.66792 0.0
N1503 N 0.37868 0.07648 0.66844 0.0
H1504 H 0.41159 0.0392 0.68274 0.0
H1505 H 0.38448 0.03976 0.68726 0.0
H1506 H 0.36867 0.08552 0.66978 0.0
H1507 H 0.36832 0.05829 0.65791 0.0
H1508 H 0.49089 0.14466 0.66382 0.0
H1509 H 0.49001 0.11654 0.66403 0.0
H1510 H 0.47408 0.16148 0.69695 0.0
H1511 H 0.44643 0.16153 0.69498 0.0
C1512 C 0.88723 0.33898 0.64499 0.0
C1513 C 0.88993 0.34969 0.6889 0.0
C1514 C 0.85696 0.31079 0.7184 0.0
C1515 C 0.85884 0.29908 0.67863 0.0
N1516 N 0.87172 0.30137 0.60092 0.0
N1517 N 0.87736 0.3464 0.76754 0.0
C1518 C 0.87231 0.31315 0.64048 0.0
C1519 C 0.87448 0.33588 0.72553 0.0
N1520 N 0.89937 0.35337 0.60814 0.0
N1521 N 0.83847 0.29804 0.74891 0.0
H1522 H 0.8899 0.36487 0.77368 0.0
H1523 H 0.86852 0.3365 0.79685 0.0
H1524 H 0.82426 0.28032 0.74233 0.0
H1525 H 0.83536 0.30603 0.77732 0.0
H1526 H 0.89648 0.34705 0.57464 0.0
H1527 H 0.91141 0.37219 0.61045 0.0
H1528 H 0.8833 0.30977 0.57321 0.0
H1529 H 0.85964 0.28259 0.59649 0.0
C1530 C 0.63992 0.54671 0.7479 0.0
C1531 C 0.62605 0.53205 0.71072 0.0
C1532 C 0.66279 0.54792 0.66351 0.0
C1533 C 0.67634 0.56444 0.69899 0.0
N1534 N 0.67978 0.57562 0.77883 0.0
N1535 N 0.62575 0.51045 0.64271 0.0
C1536 C 0.66559 0.56232 0.74275 0.0
C1537 C 0.63797 0.52983 0.67161 0.0
N1538 N 0.62806 0.5465 0.78714 0.0
N1539 N 0.67321 0.5503 0.62153 0.0
H1540 H 0.6083 0.49594 0.65011 0.0
H1541 H 0.63398 0.50711 0.61497 0.0
H1542 H 0.69144 0.56331 0.61467 0.0
H1543 H 0.66338 0.54057 0.59286 0.0
H1544 H 0.63618 0.55886 0.81385 0.0
H1545 H 0.6095 0.5339 0.7923 0.0
H1546 H 0.67355 0.57327 0.81237 0.0
H1547 H 0.69842 0.58816 0.77595 0.0
C1548 C 0.86326 0.54689 0.14604 0.0
C1549 C 0.85474 0.55275 0.1859 0.0
C1550 C 0.87041 0.5318 0.23342 0.0
C1551 C 0.88168 0.52872 0.19427 0.0
N1552 N 0.88096 0.5243 0.11213 0.0
N1553 N 0.83998 0.54088 0.26299 0.0
C1554 C 0.87527 0.53303 0.15001 0.0
C1555 C 0.85476 0.54176 0.2282 0.0
N1556 N 0.86078 0.55564 0.10484 0.0
N1557 N 0.87569 0.52636 0.27562 0.0
H1558 H 0.82703 0.54633 0.25869 0.0
H1559 H 0.83829 0.5319 0.29386 0.0
H1560 H 0.88626 0.518 0.27994 0.0
H1561 H 0.87049 0.53101 0.30604 0.0
H1562 H 0.86932 0.55495 0.07491 0.0
H1563 H 0.85043 0.56428 0.10128 0.0
H1564 H 0.87543 0.52558 0.07923 0.0
H1565 H 0.88886 0.51331 0.11395 0.0
C1566 C 0.41662 0.31138 0.23916 0.0
C1567 C 0.41525 0.29923 0.19748 0.0
C1568 C 0.43766 0.33881 0.15818 0.0
C1569 C 0.4392 0.35086 0.20023 0.0
N1570 N 0.43682 0.34928 0.28221 0.0
N1571 N 0.42881 0.30098 0.12014 0.0
C1572 C 0.43103 0.33729 0.24125 0.0
C1573 C 0.4275 0.31289 0.15803 0.0
N1574 N 0.40272 0.29842 0.27583 0.0
N1575 N 0.44401 0.35164 0.11798 0.0
H1576 H 0.42067 0.28193 0.11875 0.0
H1577 H 0.43958 0.30999 0.09177 0.0
H1578 H 0.45138 0.37054 0.11596 0.0
H1579 H 0.44041 0.34334 0.08601 0.0
H1580 H 0.40074 0.30664 0.30509 0.0
H1581 H 0.39167 0.27939 0.27579 0.0
H1582 H 0.43326 0.34025 0.31358 0.0
H1583 H 0.44748 0.36836 0.28457 0.0
C1584 C 0.64038 0.10345 0.2294 0.0
C1585 C 0.62706 0.0931 0.1888 0.0
C1586 C 0.66501 0.11035 0.1446 0.0
C1587 C 0.67831 0.11844 0.18592 0.0
N1588 N 0.67945 0.13119 0.26424 0.0
N1589 N 0.6257 0.09297 0.10637 0.0
C1590 C 0.66628 0.11804 0.2272 0.0
C1591 C 0.63908 0.09891 0.14577 0.0
N1592 N 0.62832 0.09809 0.27029 0.0
N1593 N 0.67725 0.11253 0.10475 0.0
H1594 H 0.60669 0.0845 0.10612 0.0
H1595 H 0.6334 0.09834 0.07399 0.0
H1596 H 0.69636 0.12219 0.10282 0.0
H1597 H 0.66871 0.10429 0.07416 0.0
H1598 H 0.63706 0.10225 0.30189 0.0
H1599 H 0.60925 0.08835 0.27249 0.0
H1600 H 0.67148 0.13305 0.29396 0.0
H1601 H 0.69834 0.14258 0.2637 0.0
C1602 C 0.55094 0.87463 0.4813 0.0
C1603 C 0.55815 0.86959 0.52417 0.0
C1604 C 0.53955 0.8901 0.56425 0.0
C1605 C 0.53354 0.89637 0.52131 0.0
N1606 N 0.52698 0.8891 0.44071 0.0
N1607 N 0.55332 0.86577 0.60562 0.0
C1608 C 0.53685 0.8865 0.48043 0.0
C1609 C 0.55015 0.87487 0.56537 0.0
N1610 N 0.55911 0.86985 0.44154 0.0
N1611 N 0.53709 0.90028 0.60363 0.0
H1612 H 0.56164 0.85505 0.60712 0.0
H1613 H 0.54582 0.86689 0.63656 0.0
H1614 H 0.52917 0.91127 0.60482 0.0
H1615 H 0.54421 0.89904 0.63497 0.0
H1616 H 0.55717 0.87603 0.40963 0.0
H1617 H 0.56902 0.86075 0.44035 0.0
H1618 H 0.52673 0.88046 0.41027 0.0
H1619 H 0.51701 0.89821 0.43943 0.0
C1620 C 0.09589 0.64711 0.57411 0.0
C1621 C 0.09021 0.6358 0.53031 0.0
C1622 C 0.1193 0.67496 0.49529 0.0
C1623 C 0.11926 0.68682 0.53626 0.0
N1624 N 0.11244 0.68523 0.61682 0.0
N1625 N 0.09756 0.63824 0.44925 0.0
C1626 C 0.1095 0.6731 0.57664 0.0
C1627 C 0.10265 0.64943 0.49095 0.0
N1628 N 0.08778 0.63315 0.61285 0.0
N1629 N 0.1352 0.688 0.461 0.0
H1630 H 0.08592 0.61938 0.44538 0.0
H1631 H 0.10384 0.64779 0.41854 0.0
H1632 H 0.14879 0.70626 0.46509 0.0
H1633 H 0.137 0.68003 0.43122 0.0
H1634 H 0.09271 0.64017 0.64573 0.0
H1635 H 0.07773 0.61412 0.61232 0.0
H1636 H 0.10335 0.67692 0.64704 0.0
H1637 H 0.12408 0.70417 0.61919 0.0
C1638 C 0.33887 0.45332 0.57104 0.0
C1639 C 0.35065 0.45548 0.52859 0.0
C1640 C 0.31099 0.43631 0.4898 0.0
C1641 C 0.29931 0.42885 0.53317 0.0
N1642 N 0.30129 0.43164 0.61512 0.0
N1643 N 0.34905 0.45273 0.4469 0.0
C1644 C 0.313 0.43822 0.57383 0.0
C1645 C 0.33699 0.44856 0.48763 0.0
N1646 N 0.35237 0.46551 0.60848 0.0
N1647 N 0.29733 0.43127 0.4509 0.0
H1648 H 0.36811 0.46324 0.44468 0.0
H1649 H 0.34048 0.44541 0.41584 0.0
H1650 H 0.27832 0.42226 0.45096 0.0
H1651 H 0.30473 0.43787 0.41872 0.0
H1652 H 0.34474 0.46602 0.63967 0.0
H1653 H 0.37115 0.47752 0.60691 0.0
H1654 H 0.31034 0.43513 0.64633 0.0
H1655 H 0.28223 0.42167 0.61796 0.0
C1656 C 0.77701 0.76414 0.30528 0.0
C1657 C 0.78504 0.76173 0.34941 0.0
C1658 C 0.7743 0.79122 0.37946 0.0
C1659 C 0.76035 0.78803 0.33944 0.0
N1660 N 0.7515 0.77553 0.26121 0.0
N1661 N 0.79256 0.77366 0.42845 0.0
C1662 C 0.76322 0.77623 0.30095 0.0
C1663 C 0.78452 0.77589 0.38634 0.0
N1664 N 0.78193 0.75427 0.26807 0.0
N1665 N 0.77775 0.80875 0.41059 0.0
H1666 H 0.80072 0.76301 0.43412 0.0
H1667 H 0.78992 0.78122 0.45801 0.0
H1668 H 0.77223 0.82151 0.40434 0.0
H1669 H 0.78891 0.81278 0.43924 0.0
H1670 H 0.77823 0.75698 0.23459 0.0
H1671 H 0.79162 0.74496 0.27023 0.0
H1672 H 0.75007 0.76474 0.2332 0.0
H1673 H 0.74254 0.78556 0.25698 0.0
C1674 C 0.21394 0.98333 0.31882 0.0
C1675 C 0.20329 0.96936 0.35869 0.0
C1676 C 0.21596 0.00724 0.40186 0.0
C1677 C 0.23076 0.02082 0.36448 0.0
N1678 N 0.24531 0.02189 0.28763 0.0
N1679 N 0.19401 0.96777 0.43945 0.0
C1680 C 0.22983 0.00897 0.32266 0.0
C1681 C 0.20364 0.98116 0.40042 0.0
N1682 N 0.20909 0.97186 0.27739 0.0
N1683 N 0.21421 0.01932 0.43908 0.0
H1684 H 0.1841 0.94873 0.44026 0.0
H1685 H 0.19683 0.97555 0.47181 0.0
H1686 H 0.22389 0.03841 0.44154 0.0
H1687 H 0.20177 0.01063 0.46558 0.0
H1688 H 0.2146 0.98128 0.24641 0.0
H1689 H 0.19735 0.95296 0.27397 0.0
H1690 H 0.24765 0.01367 0.25873 0.0
H1691 H 0.25689 0.04084 0.28848 0.0
C1692 C 0.97941 0.23315 0.40179 0.0
C1693 C 0.96387 0.20932 0.38458 0.0
C1694 C 0.00081 0.2072 0.36526 0.0
C1695 C 0.01521 0.23274 0.37391 0.0
N1696 N 0.016 0.27105 0.38499 0.0
N1697 N 0.96016 0.172 0.35323 0.0
C1698 C 0.00373 0.24604 0.38698 0.0
C1699 C 0.97461 0.19571 0.36705 0.0
N1700 N 0.9712 0.24324 0.43336 0.0
N1701 N 0.01213 0.19398 0.35678 0.0
H1702 H 0.94158 0.16173 0.36096 0.0
H1703 H 0.96675 0.16247 0.33456 0.0
H1704 H 0.03114 0.20228 0.354 0.0
H1705 H 0.00288 0.1749 0.35476 0.0
H1706 H 0.98263 0.26034 0.44811 0.0
H1707 H 0.95413 0.23295 0.449 0.0
H1708 H 0.00762 0.2813 0.39258 0.0
H1709 H 0.0333 0.28092 0.37003 0.0
C1710 C 0.22114 0.21165 0.91888 0.0
C1711 C 0.22294 0.19932 0.8803 0.0
C1712 C 0.20152 0.2146 0.83313 0.0
C1713 C 0.20288 0.2298 0.86986 0.0
N1714 N 0.21138 0.24151 0.94941 0.0
N1715 N 0.20494 0.1797 0.80876 0.0
C1716 C 0.21131 0.22746 0.91375 0.0
C1717 C 0.20986 0.19769 0.83989 0.0
N1718 N 0.22907 0.20804 0.96008 0.0
N1719 N 0.19361 0.21735 0.79121 0.0
H1720 H 0.20881 0.16574 0.81506 0.0
H1721 H 0.19419 0.17664 0.77982 0.0
H1722 H 0.18705 0.22938 0.78539 0.0
H1723 H 0.19499 0.20895 0.76167 0.0
H1724 H 0.2278 0.21551 0.99087 0.0
H1725 H 0.23544 0.19569 0.96366 0.0
H1726 H 0.21901 0.24228 0.98126 0.0
H1727 H 0.20417 0.25314 0.94719 0.0
C1728 C 0.77708 0.00035 0.89623 0.0
C1729 C 0.77649 0.01425 0.85864 0.0
C1730 C 0.75877 0.97761 0.81027 0.0
C1731 C 0.75554 0.96332 0.8495 0.0
N1732 N 0.77098 0.96128 0.92369 0.0
N1733 N 0.76784 0.01687 0.77883 0.0
C1734 C 0.76773 0.97473 0.89071 0.0
C1735 C 0.76829 0.00324 0.81491 0.0
N1736 N 0.78529 0.01144 0.9377 0.0
N1737 N 0.75289 0.96635 0.76866 0.0
H1738 H 0.77484 0.03573 0.78041 0.0
H1739 H 0.75942 0.00942 0.74774 0.0
H1740 H 0.74698 0.94769 0.76549 0.0
H1741 H 0.75621 0.97555 0.73759 0.0
H1742 H 0.78348 0.00196 0.96796 0.0
H1743 H 0.79295 0.03032 0.94227 0.0
H1744 H 0.78091 0.96868 0.95355 0.0
H1745 H 0.7664 0.94314 0.91861 0.0
C1746 C 0.00689 0.77303 0.90018 0.0
C1747 C 0.01921 0.78243 0.85793 0.0
C1748 C 0.97983 0.7664 0.81886 0.0
C1749 C 0.96767 0.75718 0.86143 0.0
N1750 N 0.96931 0.75817 0.94339 0.0
N1751 N 0.01805 0.79291 0.77929 0.0
C1752 C 0.9812 0.76292 0.90239 0.0
C1753 C 0.00583 0.78095 0.81809 0.0
N1754 N 0.01934 0.77186 0.93734 0.0
N1755 N 0.96686 0.75981 0.77893 0.0
H1756 H 0.03711 0.80281 0.77744 0.0
H1757 H 0.00941 0.79469 0.75039 0.0
H1758 H 0.94785 0.74952 0.77752 0.0
H1759 H 0.975 0.76331 0.74679 0.0
H1760 H 0.01082 0.76267 0.96743 0.0
H1761 H 0.03805 0.77823 0.93675 0.0
H1762 H 0.9784 0.76392 0.97458 0.0
H1763 H 0.95038 0.75072 0.94561 0.0
C1764 C -0.00592 0.4652 0.88091 0.0
C1765 C 0.00302 0.45045 0.90015 0.0
C1766 C 0.98106 0.4191 0.84105 0.0
C1767 C 0.97329 0.4345 0.82042 0.0
N1768 N 0.97512 0.47377 0.81715 0.0
N1769 N 0.00797 0.41504 0.89564 0.0
C1770 C 0.98044 0.45791 0.83952 0.0
C1771 C -0.00274 0.4278 0.87944 0.0
N1772 N -0.00222 0.48586 0.9031 0.0
N1773 N 0.97219 0.39579 0.8249 0.0
H1774 H 0.01987 0.42094 0.92353 0.0
H1775 H 0.00667 0.39972 0.87954 0.0
H1776 H 0.96031 0.3889 0.79706 0.0
H1777 H 0.97499 0.38264 0.84099 0.0
H1778 H 0.98813 0.49481 0.89539 0.0
H1779 H 0.00912 0.49318 0.93144 0.0
H1780 H 0.98296 0.49229 0.82538 0.0
H1781 H 0.96421 0.46911 0.78807 0.0
C1782 C 0.55318 0.56418 0.88293 0.0
C1783 C 0.53101 0.54829 0.90633 0.0
C1784 C 0.52059 0.5168 0.84696 0.0
C1785 C 0.54338 0.53215 0.82482 0.0
N1786 N 0.58293 0.56894 0.82495 0.0
N1787 N 0.49514 0.50812 0.91421 0.0
C1788 C 0.56009 0.55548 0.84367 0.0
C1789 C 0.51514 0.52426 0.88922 0.0
N1790 N 0.56721 0.5879 0.89735 0.0
N1791 N 0.50357 0.4954 0.82666 0.0
H1792 H 0.48959 0.51297 0.94395 0.0
H1793 H 0.48503 0.48938 0.90742 0.0
H1794 H 0.50695 0.48857 0.7969 0.0
H1795 H 0.48541 0.4852 0.83737 0.0
H1796 H 0.58215 0.60131 0.87922 0.0
H1797 H 0.56282 0.59472 0.92606 0.0
H1798 H 0.59699 0.58482 0.83963 0.0
H1799 H 0.5885 0.56318 0.79631 0.0
C1800 C 0.43911 0.00678 0.89842 0.0
C1801 C 0.42615 0.9805 0.89972 0.0
C1802 C 0.42929 0.98041 0.81561 0.0
C1803 C 0.44078 0.00649 0.81426 0.0
N1804 N 0.44879 0.04318 0.85435 0.0
N1805 N 0.40145 0.94337 0.85672 0.0
C1806 C 0.44328 0.01924 0.85567 0.0
C1807 C 0.41897 0.96766 0.85742 0.0
N1808 N 0.44865 0.02029 0.93717 0.0
N1809 N 0.42911 0.9676 0.7779 0.0
H1810 H 0.39202 0.93382 0.88597 0.0
H1811 H 0.39413 0.93367 0.82652 0.0
H1812 H 0.43677 0.97583 0.74675 0.0
H1813 H 0.42344 0.94894 0.77899 0.0
H1814 H 0.46106 0.03912 0.9365 0.0
H1815 H 0.44597 0.01288 0.96966 0.0
H1816 H 0.44855 0.05269 0.88326 0.0
H1817 H 0.45069 0.0526 0.82386 0.0
C1818 C 0.96018 0.53937 0.36144 0.0
C1819 C 0.97356 0.54409 0.32003 0.0
C1820 C 0.01178 0.56648 0.3645 0.0
C1821 C -0.00143 0.55738 0.40602 0.0
N1822 N 0.95902 0.53269 0.44274 0.0
N1823 N 0.0133 0.56035 0.28362 0.0
C1824 C 0.97243 0.54331 0.40425 0.0
C1825 C -0.00031 0.55733 0.32186 0.0
N1826 N 0.93579 0.53203 0.36009 0.0
N1827 N 0.03581 0.58467 0.36558 0.0
H1828 H 0.00581 0.55467 0.25137 0.0
H1829 H 0.03208 0.56681 0.28465 0.0
H1830 H 0.04492 0.59292 0.39587 0.0
H1831 H 0.04574 0.59359 0.33634 0.0
H1832 H 0.92559 0.53056 0.38913 0.0
H1833 H 0.92642 0.53026 0.32967 0.0
H1834 H 0.94048 0.51941 0.44188 0.0
H1835 H 0.96643 0.5357 0.47526 0.0
C1836 C 0.4583 0.44498 0.35714 0.0
C1837 C 0.4399 0.43253 0.32351 0.0
C1838 C 0.40985 0.43403 0.37488 0.0
C1839 C 0.42783 0.4439 0.40976 0.0
N1840 N 0.46663 0.45062 0.43777 0.0
N1841 N 0.39673 0.41029 0.30495 0.0
C1842 C 0.45121 0.44667 0.40212 0.0
C1843 C 0.4152 0.4257 0.3335 0.0
N1844 N 0.48262 0.45662 0.34588 0.0
N1845 N 0.38765 0.43238 0.3814 0.0
H1846 H 0.39968 0.40262 0.27585 0.0
H1847 H 0.37825 0.40306 0.31269 0.0
H1848 H 0.3827 0.43682 0.41238 0.0
H1849 H 0.37483 0.42793 0.35538 0.0
H1850 H 0.49651 0.46706 0.36911 0.0
H1851 H 0.48889 0.4587 0.31232 0.0
H1852 H 0.48321 0.4509 0.43417 0.0
H1853 H 0.46122 0.45025 0.47143 0.0
C1854 C 0.53599 0.9812 0.31713 0.0
C1855 C 0.55018 0.00735 0.31494 0.0
C1856 C 0.55158 0.00881 0.39866 0.0
C1857 C 0.53895 0.98272 0.4007 0.0
N1858 N 0.52718 0.94495 0.3605 0.0
N1859 N 0.579 0.04446 0.35402 0.0
C1860 C 0.53369 0.96918 0.35949 0.0
C1861 C 0.56035 0.02068 0.35585 0.0
N1862 N 0.52356 0.96759 0.27992 0.0
N1863 N 0.55413 0.02249 0.43657 0.0
H1864 H 0.58703 0.05323 0.32329 0.0
H1865 H 0.58836 0.0543 0.38301 0.0
H1866 H 0.54688 0.01495 0.46836 0.0
H1867 H 0.56123 0.04141 0.43517 0.0
H1868 H 0.51072 0.94891 0.28201 0.0
H1869 H 0.52413 0.97499 0.24797 0.0
H1870 H 0.52517 0.93483 0.33104 0.0
H1871 H 0.52681 0.93585 0.39058 0.0
C1872 C 0.65918 0.7957 0.2158 0.0
C1873 C 0.66832 0.78042 0.23151 0.0
C1874 C 0.6485 0.75275 0.16622 0.0
C1875 C 0.64126 0.7692 0.14859 0.0
N1876 N 0.64282 0.80826 0.15319 0.0
N1877 N 0.6744 0.74607 0.21908 0.0
C1878 C 0.64737 0.79114 0.17257 0.0
C1879 C 0.66361 0.75929 0.20612 0.0
N1880 N 0.66104 0.81422 0.24293 0.0
N1881 N 0.6403 0.73053 0.14559 0.0
H1882 H 0.68542 0.75029 0.24806 0.0
H1883 H 0.67398 0.7321 0.19945 0.0
H1884 H 0.62938 0.72526 0.11635 0.0
H1885 H 0.64264 0.71657 0.15931 0.0
H1886 H 0.65211 0.82398 0.23608 0.0
H1887 H 0.66981 0.81863 0.27449 0.0
H1888 H 0.65 0.82602 0.1657 0.0
H1889 H 0.63358 0.80558 0.12235 0.0
C1890 C 0.19193 0.85697 0.17249 0.0
C1891 C 0.21563 0.87215 0.15357 0.0
C1892 C 0.22567 0.90176 0.21599 0.0
C1893 C 0.2026 0.88578 0.23637 0.0
N1894 N 0.16491 0.84661 0.23753 0.0
N1895 N 0.25625 0.90719 0.15945 0.0
C1896 C 0.18602 0.863 0.2155 0.0
C1897 C 0.23284 0.89411 0.17585 0.0
N1898 N 0.17466 0.83714 0.14859 0.0
N1899 N 0.24031 0.92456 0.23411 0.0
H1900 H 0.26197 0.90216 0.13003 0.0
H1901 H 0.27046 0.92191 0.17661 0.0
H1902 H 0.23562 0.93064 0.26349 0.0
H1903 H 0.25615 0.93813 0.21837 0.0
H1904 H 0.15615 0.82749 0.15722 0.0
H1905 H 0.17829 0.83119 0.11801 0.0
H1906 H 0.15391 0.82842 0.22747 0.0
H1907 H 0.15906 0.85046 0.26801 0.0
C1908 C 0.0837 0.30114 0.20011 0.0
C1909 C 0.0932 0.31411 0.24159 0.0
C1910 C 0.10915 0.35268 0.19801 0.0
C1911 C 0.10488 0.33984 0.15599 0.0
N1912 N 0.08883 0.30018 0.11876 0.0
N1913 N 0.11762 0.35341 0.2787 0.0
C1914 C 0.09214 0.31359 0.15738 0.0
C1915 C 0.10649 0.34023 0.24031 0.0
N1916 N 0.06577 0.27701 0.20141 0.0
N1917 N 0.11464 0.37658 0.19779 0.0
H1918 H 0.11668 0.3454 0.31029 0.0
H1919 H 0.12959 0.37231 0.27815 0.0
H1920 H 0.11508 0.38577 0.1678 0.0
H1921 H 0.1158 0.38621 0.22749 0.0
H1922 H 0.05641 0.2672 0.17241 0.0
H1923 H 0.05832 0.26763 0.23198 0.0
H1924 H 0.08262 0.28141 0.1195 0.0
H1925 H 0.09382 0.30769 0.08634 0.0
C1926 C 0.66894 0.88516 0.64821 0.0
C1927 C 0.64276 0.87175 0.64723 0.0
C1928 C 0.6426 0.86749 0.73079 0.0
C1929 C 0.66857 0.8827 0.73206 0.0
N1930 N 0.70491 0.91242 0.69194 0.0
N1931 N 0.60551 0.85827 0.69058 0.0
C1932 C 0.68126 0.89348 0.69076 0.0
C1933 C 0.62985 0.86543 0.68945 0.0
N1934 N 0.68247 0.88915 0.60943 0.0
N1935 N 0.62995 0.8539 0.76797 0.0
H1936 H 0.5959 0.85844 0.66171 0.0
H1937 H 0.59579 0.85528 0.72097 0.0
H1938 H 0.63829 0.85374 0.79846 0.0
H1939 H 0.61138 0.84072 0.76675 0.0
H1940 H 0.70132 0.89597 0.61014 0.0
H1941 H 0.6751 0.88376 0.57705 0.0
H1942 H 0.71426 0.9224 0.66298 0.0
H1943 H 0.71409 0.9201 0.72237 0.0
C1944 C 0.11476 0.75977 0.69215 0.0
C1945 C 0.10892 0.76685 0.64995 0.0
C1946 C 0.08852 0.78487 0.69415 0.0
C1947 C 0.09945 0.78286 0.73522 0.0
N1948 N 0.12716 0.7713 0.77019 0.0
N1949 N 0.09186 0.78949 0.61236 0.0
C1950 C 0.11362 0.77098 0.73351 0.0
C1951 C 0.09611 0.78021 0.65124 0.0
N1952 N 0.12074 0.74173 0.69311 0.0
N1953 N 0.06998 0.79011 0.6959 0.0
H1954 H 0.09623 0.78649 0.57983 0.0
H1955 H 0.08557 0.80196 0.61291 0.0
H1956 H 0.06246 0.79167 0.72653 0.0
H1957 H 0.05997 0.78969 0.66721 0.0
H1958 H 0.12316 0.73444 0.72338 0.0
H1959 H 0.12005 0.7319 0.66406 0.0
H1960 H 0.13912 0.76443 0.76894 0.0
H1961 H 0.12874 0.78075 0.80016 0.0
C1962 C 0.18872 0.3239 0.72379 0.0
C1963 C 0.20469 0.31636 0.74266 0.0
C1964 C 0.23428 0.338 0.68075 0.0
C1965 C 0.2174 0.34373 0.65998 0.0
N1966 N 0.17705 0.33928 0.65832 0.0
N1967 N 0.24125 0.31354 0.73676 0.0
C1968 C 0.19425 0.33599 0.68068 0.0
C1969 C 0.22716 0.32277 0.72059 0.0
N1970 N 0.16858 0.32028 0.74783 0.0
N1971 N 0.25742 0.34785 0.66328 0.0
H1972 H 0.23665 0.30251 0.76589 0.0
H1973 H 0.25646 0.31523 0.7196 0.0
H1974 H 0.26319 0.35904 0.63429 0.0
H1975 H 0.27147 0.3466 0.67937 0.0
H1976 H 0.15806 0.32815 0.73891 0.0
H1977 H 0.16331 0.31102 0.77892 0.0
H1978 H 0.1588 0.33111 0.66849 0.0
H1979 H 0.18032 0.34859 0.62737 0.0
C1980 C 0.33092 0.09465 0.55258 0.0
C1981 C 0.33446 0.11608 0.57553 0.0
C1982 C 0.31491 0.12511 0.51132 0.0
C1983 C 0.31009 0.10297 0.4898 0.0
N1984 N 0.31034 0.06492 0.4918 0.0
N1985 N 0.32714 0.15022 0.57897 0.0
C1986 C 0.31724 0.08724 0.51093 0.0
C1987 C 0.32573 0.13088 0.55539 0.0
N1988 N 0.34163 0.08205 0.56945 0.0
N1989 N 0.30985 0.14117 0.4889 0.0
H1990 H 0.33612 0.15608 0.60992 0.0
H1991 H 0.31783 0.15934 0.56986 0.0
H1992 H 0.30121 0.13753 0.45726 0.0
H1993 H 0.31564 0.15894 0.49987 0.0
H1994 H 0.3421 0.0679 0.55204 0.0
H1995 H 0.35172 0.08699 0.59961 0.0
H1996 H 0.31253 0.05137 0.5078 0.0
H1997 H 0.30078 0.05926 0.46099 0.0
C1998 C 0.89041 0.22618 0.50573 0.0
C1999 C 0.87491 0.20328 0.48414 0.0
C2000 C 0.84543 0.19168 0.54761 0.0
C2001 C 0.86032 0.21506 0.56806 0.0
N2002 N 0.89491 0.25607 0.56306 0.0
N2003 N 0.83538 0.16633 0.47989 0.0
C2004 C 0.88229 0.23272 0.54618 0.0
C2005 C 0.8518 0.1866 0.50389 0.0
N2006 N 0.91326 0.2414 0.48837 0.0
N2007 N 0.82552 0.17392 0.57066 0.0
H2008 H 0.83914 0.16188 0.4478 0.0
H2009 H 0.81719 0.15509 0.48971 0.0
H2010 H 0.81974 0.17691 0.60209 0.0
H2011 H 0.81579 0.15563 0.56045 0.0
H2012 H 0.92663 0.25689 0.50525 0.0
H2013 H 0.91949 0.23765 0.45819 0.0
H2014 H 0.90948 0.27061 0.54611 0.0
H2015 H 0.88958 0.26146 0.59253 0.0
C2016 C 0.77282 0.67921 0.56878 0.0
C2017 C 0.75791 0.65312 0.57088 0.0
C2018 C 0.76022 0.65122 0.48748 0.0
C2019 C 0.77429 0.67737 0.48502 0.0
N2020 N 0.78597 0.71574 0.52283 0.0
N2021 N 0.73013 0.61612 0.53045 0.0
C2022 C 0.77816 0.69122 0.52553 0.0
C2023 C 0.74926 0.63975 0.5296 0.0
N2024 N 0.78288 0.69276 0.60731 0.0
N2025 N 0.7583 0.637 0.4508 0.0
H2026 H 0.7208 0.60752 0.56046 0.0
H2027 H 0.7217 0.60624 0.50093 0.0
H2028 H 0.76669 0.64399 0.41956 0.0
H2029 H 0.75034 0.61798 0.45289 0.0
H2030 H 0.7966 0.71117 0.60632 0.0
H2031 H 0.77892 0.68558 0.64013 0.0
H2032 H 0.787 0.72624 0.55112 0.0
H2033 H 0.78848 0.72493 0.49185 0.0
C2034 C 0.33728 0.21855 0.99367 0.0
C2035 C 0.3111 0.20484 0.99279 0.0
C2036 C 0.31133 0.19959 0.07607 0.0
C2037 C 0.33719 0.21543 0.07751 0.0
N2038 N 0.37299 0.24642 0.03755 0.0
N2039 N 0.27405 0.19068 0.0372 0.0
C2040 C 0.34964 0.22688 0.03629 0.0
C2041 C 0.29839 0.19799 0.03526 0.0
N2042 N 0.35075 0.22282 0.95476 0.0
N2043 N 0.29897 0.18497 0.11245 0.0
H2044 H 0.2643 0.1912 1.00889 0.0
H2045 H 0.2645 0.18729 0.06792 0.0
H2046 H 0.30759 0.1837 0.14175 0.0
H2047 H 0.28039 0.17187 0.11119 0.0
H2048 H 0.36969 0.23016 0.95527 0.0
H2049 H 0.34321 0.217 0.9226 0.0
H2050 H 0.38204 0.25658 1.00853 0.0
H2051 H 0.38208 0.25443 0.06795 0.0
C2052 C 0.7506 0.08316 1.00567 0.0
C2053 C 0.7739 0.09875 0.98552 0.0
C2054 C 0.78427 0.12774 0.04929 0.0
C2055 C 0.76029 0.11323 0.0675 0.0
N2056 N 0.71942 0.0788 0.05992 0.0
N2057 N 0.81111 0.13833 0.98394 0.0
C2058 C 0.74311 0.09134 0.04484 0.0
C2059 C 0.79025 0.12165 1.00627 0.0
N2060 N 0.73601 0.06013 0.98843 0.0
N2061 N 0.80185 0.14695 0.07387 0.0
H2062 H 0.8165 0.13495 0.95247 0.0
H2063 H 0.82198 0.15645 0.99461 0.0
H2064 H 0.79828 0.15311 0.10429 0.0
H2065 H 0.82044 0.15543 0.06598 0.0
H2066 H 0.72 0.04688 1.00422 0.0
H2067 H 0.74096 0.05354 0.96013 0.0
H2068 H 0.70532 0.06422 0.04227 0.0
H2069 H 0.71342 0.08424 0.08843 0.0
C2070 C 0.89317 0.68442 1.02562 0.0
C2071 C 0.88359 0.67183 0.98376 0.0
C2072 C 0.86514 0.63284 1.02689 0.0
C2073 C 0.87019 0.64566 0.06898 0.0
N2074 N 0.88757 0.68528 0.10676 0.0
N2075 N 0.85713 0.63279 0.9465 0.0
C2076 C 0.88393 0.6719 0.068 0.0
C2077 C 0.86878 0.64568 0.98482 0.0
N2078 N 0.91204 0.70819 1.0252 0.0
N2079 N 0.85786 0.60841 1.02672 0.0
H2080 H 0.85917 0.64068 0.91454 0.0
H2081 H 0.84365 0.61428 0.94735 0.0
H2082 H 0.85666 0.59872 0.05644 0.0
H2083 H 0.85608 0.59864 0.9969 0.0
H2084 H 0.92126 0.71754 0.05465 0.0
H2085 H 0.92052 0.71751 0.99517 0.0
H2086 H 0.89432 0.70417 0.10627 0.0
H2087 H 0.88231 0.67766 0.13902 0.0
C2088 C 0.05282 0.54661 0.69919 0.0
C2089 C 0.07082 0.55863 0.66379 0.0
C2090 C 0.10314 0.56502 0.71955 0.0
C2091 C 0.08489 0.55148 0.75284 0.0
N2092 N 0.04244 0.52612 0.77293 0.0
N2093 N 0.11355 0.58065 0.64188 0.0
C2094 C 0.05982 0.54145 0.74218 0.0
C2095 C 0.09611 0.568 0.67438 0.0
N2096 N 0.0289 0.54042 0.69293 0.0
N2097 N 0.12726 0.57591 0.73196 0.0
H2098 H 0.11004 0.58714 0.61174 0.0
H2099 H 0.13168 0.58483 0.64445 0.0
H2100 H 0.13285 0.57359 0.76423 0.0
H2101 H 0.1418 0.58816 0.7116 0.0
H2102 H 0.01654 0.53622 0.71965 0.0
H2103 H 0.02078 0.53974 0.66182 0.0
H2104 H 0.0238 0.51593 0.7658 0.0
H2105 H 0.04662 0.52197 0.80503 0.0
C2106 C 0.44025 0.5198 0.74464 0.0
C2107 C 0.43106 0.53564 0.75421 0.0
C2108 C 0.41662 0.5318 0.67454 0.0
C2109 C 0.42507 0.51502 0.66509 0.0
N2110 N 0.44082 0.4895 0.69623 0.0
N2111 N 0.40876 0.55548 0.73114 0.0
C2112 C 0.4355 0.50789 0.70163 0.0
C2113 C 0.41894 0.54148 0.7198 0.0
N2114 N 0.45458 0.51686 0.77638 0.0
N2115 N 0.4055 0.53777 0.64084 0.0
H2116 H 0.41059 0.56307 0.76355 0.0
H2117 H 0.39753 0.55872 0.70971 0.0
H2118 H 0.39961 0.52825 0.61015 0.0
H2119 H 0.40206 0.55225 0.64294 0.0
H2120 H 0.46405 0.50758 0.77022 0.0
H2121 H 0.45866 0.52517 0.80842 0.0
H2122 H 0.44339 0.48041 0.72354 0.0
H2123 H 0.44278 0.48281 0.66523 0.0
C2124 C 0.44424 0.87893 0.71501 0.0
C2125 C 0.45255 0.89656 0.75054 0.0
C2126 C 0.48194 0.92802 0.69793 0.0
C2127 C 0.47346 0.91042 0.66125 0.0
N2128 N 0.45221 0.86747 0.64074 0.0
N2129 N 0.47729 0.93827 0.77584 0.0
C2130 C 0.45596 0.88542 0.67128 0.0
C2131 C 0.4711 0.92106 0.74209 0.0
N2132 N 0.4247 0.85602 0.72283 0.0
N2133 N 0.50084 0.95148 0.6917 0.0
H2134 H 0.47077 0.93401 0.80926 0.0
H2135 H 0.4878 0.95713 0.77071 0.0
H2136 H 0.50614 0.96059 0.66066 0.0
H2137 H 0.51143 0.96262 0.71837 0.0
H2138 H 0.41567 0.84321 0.69709 0.0
H2139 H 0.41627 0.85046 0.75472 0.0
H2140 H 0.44153 0.84878 0.64771 0.0
H2141 H 0.46215 0.87093 0.61054 0.0
C2142 C 0.53203 0.06775 0.97924 0.0
C2143 C 0.54141 0.09287 0.96883 0.0
C2144 C 0.55897 0.10431 0.04625 0.0
C2145 C 0.54854 0.07902 0.05797 0.0
N2146 N 0.52702 0.03652 1.0329 0.0
N2147 N 0.56029 0.13486 0.99345 0.0
C2148 C 0.5355 0.06075 1.02371 0.0
C2149 C 0.55385 0.11108 1.00267 0.0
N2150 N 0.51876 0.05036 0.94686 0.0
N2151 N 0.57556 0.12193 0.07494 0.0
H2152 H 0.55727 0.14047 0.96173 0.0
H2153 H 0.56673 0.14858 1.01812 0.0
H2154 H 0.58133 0.11792 0.10544 0.0
H2155 H 0.58574 0.14046 0.06632 0.0
H2156 H 0.50804 0.03166 0.95342 0.0
H2157 H 0.5173 0.05456 0.91295 0.0
H2158 H 0.52245 0.02325 1.00788 0.0
H2159 H 0.52419 0.0292 0.0656 0.0
C2160 C 0.91701 0.47229 0.97775 0.0
C2161 C 0.89265 0.45338 0.96922 0.0
C2162 C 0.88102 0.45732 0.04789 0.0
C2163 C 0.90585 0.47503 0.05821 0.0
N2164 N 0.94703 0.50242 1.02841 0.0
N2165 N 0.85232 0.42508 0.99739 0.0
C2166 C 0.92371 0.48332 1.02191 0.0
C2167 C 0.87493 0.44513 1.00466 0.0
N2168 N 0.93421 0.47894 0.94387 0.0
N2169 N 0.86277 0.45377 0.07752 0.0
H2170 H 0.84705 0.41604 0.96605 0.0
H2171 H 0.83957 0.41617 1.02335 0.0
H2172 H 0.86585 0.46394 0.10727 0.0
H2173 H 0.84421 0.44304 0.06994 0.0
H2174 H 0.95302 0.48934 0.94909 0.0
H2175 H 0.92992 0.47293 0.9102 0.0
H2176 H 0.9588 0.51256 1.00195 0.0
H2177 H 0.95531 0.50882 0.05983 0.0
C2178 C 0.50204 0.44034 1.03122 0.0
C2179 C 0.50419 0.42491 0.06481 0.0
C2180 C 0.52412 0.41226 1.00654 0.0
C2181 C 0.52306 0.42877 0.97475 0.0
N2182 N 0.51472 0.46136 0.95839 0.0
N2183 N 0.51637 0.39512 0.08341 0.0
C2184 C 0.51295 0.44345 0.98754 0.0
C2185 C 0.51524 0.41075 0.05227 0.0
N2186 N 0.48904 0.45186 0.04013 0.0
N2187 N 0.53273 0.39732 0.99216 0.0
H2188 H 0.50691 0.39049 0.1143 0.0
H2189 H 0.52676 0.38665 0.07912 0.0
H2190 H 0.53961 0.39835 0.95931 0.0
H2191 H 0.53221 0.3832 1.01147 0.0
H2192 H 0.48194 0.458 1.01446 0.0
H2193 H 0.48469 0.45495 0.07264 0.0
H2194 H 0.51044 0.47471 0.96761 0.0
H2195 H 0.52236 0.4643 0.92578 0.0
C2196 C 0.91521 0.44596 0.48367 0.0
C2197 C 0.89055 0.43308 0.4688 0.0
C2198 C 0.87744 0.41369 0.54485 0.0
C2199 C 0.90212 0.42713 0.56063 0.0
N2200 N 0.94505 0.45446 0.54249 0.0
N2201 N 0.84771 0.40787 0.48597 0.0
C2202 C 0.92107 0.44289 0.52929 0.0
C2203 C 0.87153 0.41789 0.49967 0.0
N2204 N 0.93302 0.4622 0.4545 0.0
N2205 N 0.85996 0.39537 0.57138 0.0
H2206 H 0.84283 0.41002 0.45293 0.0
H2207 H 0.83282 0.39908 0.50805 0.0
H2208 H 0.86361 0.39063 0.60332 0.0
H2209 H 0.84232 0.38313 0.56005 0.0
H2210 H 0.95077 0.47497 0.46433 0.0
H2211 H 0.92989 0.46415 0.42017 0.0
H2212 H 0.95971 0.46147 0.51981 0.0
H2213 H 0.95069 0.45706 0.5763 0.0
C2214 C 0.53777 0.44089 0.55999 0.0
C2215 C 0.55462 0.4659 0.57022 0.0
C2216 C 0.57084 0.47104 0.49214 0.0
C2217 C 0.54964 0.44882 0.47894 0.0
N2218 N 0.52896 0.40754 0.50858 0.0
N2219 N 0.58972 0.50426 0.54654 0.0
C2220 C 0.53726 0.4319 0.51507 0.0
C2221 C 0.57194 0.48083 0.53644 0.0
N2222 N 0.52187 0.42571 0.59252 0.0
N2223 N 0.59143 0.48037 0.4658 0.0
H2224 H 0.59242 0.51163 0.57931 0.0
H2225 H 0.60098 0.51667 0.52164 0.0
H2226 H 0.59247 0.47084 0.43755 0.0
H2227 H 0.60822 0.49523 0.47557 0.0
H2228 H 0.50741 0.40821 0.58501 0.0
H2229 H 0.52216 0.43113 0.62621 0.0
H2230 H 0.52166 0.39454 0.53471 0.0
H2231 H 0.53319 0.40122 0.47896 0.0
C2232 C 0.54641 0.10418 0.50746 0.0
C2233 C 0.53143 0.09129 0.46946 0.0
C2234 C 0.49613 0.07066 0.52034 0.0
C2235 C 0.51136 0.08091 0.55944 0.0
N2236 N 0.55254 0.1043 0.58936 0.0
N2237 N 0.49352 0.0571 0.44252 0.0
C2238 C 0.53698 0.09699 0.55289 0.0
C2239 C 0.50677 0.07297 0.47678 0.0
N2240 N 0.56947 0.12347 0.50022 0.0
N2241 N 0.47128 0.05951 0.52413 0.0
H2242 H 0.50067 0.05777 0.41007 0.0
H2243 H 0.47641 0.04159 0.44808 0.0
H2244 H 0.46249 0.05886 0.55445 0.0
H2245 H 0.45968 0.05386 0.49597 0.0
H2246 H 0.58032 0.13516 0.52621 0.0
H2247 H 0.57694 0.12896 0.4676 0.0
H2248 H 0.57154 0.11381 0.58593 0.0
H2249 H 0.54666 0.09899 0.62282 0.0
C2250 C 0.41292 0.90138 0.23772 0.0
C2251 C 0.43404 0.89978 0.24775 0.0
C2252 C 0.44298 0.90181 0.16537 0.0
C2253 C 0.42406 0.90726 0.15598 0.0
N2254 N 0.392 0.91414 0.18487 0.0
N2255 N 0.4707 0.90075 0.22188 0.0
C2256 C 0.40928 0.90751 0.19265 0.0
C2257 C 0.44938 0.90039 0.21172 0.0
N2258 N 0.39592 0.89637 0.27115 0.0
N2259 N 0.45502 0.89812 0.13028 0.0
H2260 H 0.47578 0.8994 0.25521 0.0
H2261 H 0.48423 0.90431 0.19778 0.0
H2262 H 0.45183 0.90001 0.09604 0.0
H2263 H 0.46701 0.89147 0.135 0.0
H2264 H 0.3787 0.8942 0.26477 0.0
H2265 H 0.39807 0.8921 0.30468 0.0
H2266 H 0.383 0.91772 0.21089 0.0
H2267 H 0.38751 0.91755 0.15255 0.0
C2268 C 0.09624 0.52755 0.17715 0.0
C2269 C 0.0715 0.51503 0.16167 0.0
C2270 C 0.05783 0.51869 0.2393 0.0
C2271 C 0.0826 0.53244 0.25338 0.0
N2272 N 0.12553 0.55342 0.23485 0.0
N2273 N 0.02832 0.4974 0.17963 0.0
C2274 C 0.10183 0.53787 0.22202 0.0
C2275 C 0.05223 0.51038 0.19327 0.0
N2276 N 0.11421 0.5278 0.15067 0.0
N2277 N 0.03962 0.51449 0.26979 0.0
H2278 H 0.02292 0.495 0.14567 0.0
H2279 H 0.01344 0.48898 0.2017 0.0
H2280 H 0.04277 0.51873 0.30444 0.0
H2281 H 0.02133 0.50759 0.26134 0.0
H2282 H 0.13204 0.53425 0.16204 0.0
H2283 H 0.11087 0.51918 0.11904 0.0
H2284 H 0.14022 0.56056 0.21215 0.0
H2285 H 0.1303 0.5608 0.26764 0.0
C2286 C 0.48025 0.58006 0.19316 0.0
C2287 C 0.46649 0.56259 0.15906 0.0
C2288 C 0.43648 0.53628 0.21713 0.0
C2289 C 0.45156 0.55273 0.25177 0.0
N2290 N 0.48837 0.58969 0.27384 0.0
N2291 N 0.42817 0.52791 0.13599 0.0
C2292 C 0.47352 0.5746 0.24001 0.0
C2293 C 0.44354 0.54181 0.17026 0.0
N2294 N 0.49894 0.60252 0.18 0.0
N2295 N 0.41597 0.51483 0.22932 0.0
H2296 H 0.43267 0.53175 0.10158 0.0
H2297 H 0.41023 0.51385 0.1411 0.0
H2298 H 0.40991 0.51055 0.26303 0.0
H2299 H 0.40571 0.50056 0.20675 0.0
H2300 H 0.50894 0.61709 0.20216 0.0
H2301 H 0.50254 0.60737 0.14564 0.0
H2302 H 0.5059 0.60445 0.26817 0.0
H2303 H 0.48379 0.58661 0.30841 0.0
C2304 C 0.7401 0.9034 1.02236 0.0
C2305 C 0.74532 0.89148 0.98649 0.0
C2306 C 0.76353 0.87631 0.04311 0.0
C2307 C 0.75438 0.88465 0.07892 0.0
N2308 N 0.73122 0.90368 0.10269 0.0
N2309 N 0.76122 0.86527 0.96327 0.0
C2310 C 0.74202 0.89764 0.06856 0.0
C2311 C 0.75716 0.87785 0.99685 0.0
N2312 N 0.73396 0.92086 1.01225 0.0
N2313 N 0.77862 0.86723 0.05334 0.0
H2314 H 0.75722 0.86594 0.929 0.0
H2315 H 0.76683 0.85258 0.96978 0.0
H2316 H 0.78345 0.86568 0.08677 0.0
H2317 H 0.78806 0.8633 1.02874 0.0
H2318 H 0.73217 0.93176 0.03689 0.0
H2319 H 0.73332 0.92638 0.97892 0.0
H2320 H 0.71972 0.91079 0.09658 0.0
H2321 H 0.73198 0.89967 0.13704 0.0
C2322 C 0.07843 0.83941 1.02461 0.0
C2323 C 0.0943 0.8543 0.98901 0.0
C2324 C 0.11993 0.88555 0.04566 0.0
C2325 C 0.10403 0.87059 0.08114 0.0
N2326 N 0.06551 0.83578 0.10379 0.0
N2327 N 0.1264 0.89404 0.96426 0.0
C2328 C 0.08248 0.84822 0.07039 0.0
C2329 C 0.11381 0.87823 0.99911 0.0
N2330 N 0.0594 0.81664 1.01441 0.0
N2331 N 0.14149 0.90617 0.05659 0.0
H2332 H 0.12258 0.88921 0.92999 0.0
H2333 H 0.13922 0.9125 0.96916 0.0
H2334 H 0.14651 0.91215 0.09014 0.0
H2335 H 0.15526 0.91628 1.0329 0.0
H2336 H 0.04928 0.80321 0.03868 0.0
H2337 H 0.05419 0.81116 0.98086 0.0
H2338 H 0.04829 0.82065 0.09763 0.0
H2339 H 0.06786 0.84165 0.13766 0.0
C2340 C 0.12222 0.21698 1.01117 0.0
C2341 C 0.13821 0.2421 0.99925 0.0
C2342 C 0.13764 0.25315 0.07989 0.0
C2343 C 0.11864 0.22906 0.08957 0.0
N2344 N 0.09059 0.18822 0.06288 0.0
N2345 N 0.15585 0.28471 1.02315 0.0
C2346 C 0.1102 0.211 0.05469 0.0
C2347 C 0.1445 0.26034 1.0339 0.0
N2348 N 0.11967 0.19871 0.98268 0.0
N2349 N 0.1495 0.26927 0.11472 0.0
H2350 H 0.15919 0.29138 0.98994 0.0
H2351 H 0.15903 0.29824 0.04701 0.0
H2352 H 0.14519 0.26474 0.14909 0.0
H2353 H 0.16536 0.28618 0.10975 0.0
H2354 H 0.10995 0.18019 0.99167 0.0
H2355 H 0.12962 0.20202 0.95256 0.0
H2356 H 0.08202 0.17513 0.03735 0.0
H2357 H 0.08172 0.1832 0.09445 0.0
C2358 C 0.21396 0.39524 0.36119 0.0
C2359 C 0.22335 0.41321 0.39702 0.0
C2360 C 0.22412 0.44345 0.34206 0.0
C2361 C 0.21666 0.42591 0.30643 0.0
N2362 N 0.21177 0.38758 0.27976 0.0
N2363 N 0.24468 0.45659 0.41508 0.0
C2364 C 0.21409 0.40268 0.3153 0.0
C2365 C 0.23044 0.43797 0.38576 0.0
N2366 N 0.20344 0.37074 0.37053 0.0
N2367 N 0.22499 0.46527 0.33443 0.0
H2368 H 0.25193 0.45391 0.44506 0.0
H2369 H 0.25197 0.47506 0.40674 0.0
H2370 H 0.22101 0.47003 0.3027 0.0
H2371 H 0.22778 0.47768 0.36044 0.0
H2372 H 0.19514 0.35719 0.34573 0.0
H2373 H 0.19952 0.36328 0.40314 0.0
H2374 H 0.21247 0.37151 0.28383 0.0
H2375 H 0.21174 0.39233 0.24559 0.0
C2376 C 0.53672 0.78532 0.32893 0.0
C2377 C 0.55471 0.78576 0.2992 0.0
C2378 C 0.5859 0.80519 0.35872 0.0
C2379 C 0.56781 0.80373 0.39007 0.0
N2380 N 0.5256 0.79168 0.40518 0.0
N2381 N 0.59502 0.79143 0.28816 0.0
C2382 C 0.54301 0.7933 0.37535 0.0
C2383 C 0.57885 0.79436 0.31484 0.0
N2384 N 0.5139 0.77817 0.31205 0.0
N2385 N 0.61018 0.81749 0.37 0.0
H2386 H 0.59082 0.78378 0.25554 0.0
H2387 H 0.61209 0.79487 0.29944 0.0
H2388 H 0.61673 0.82247 0.40306 0.0
H2389 H 0.62412 0.82371 0.34572 0.0
H2390 H 0.50046 0.77971 0.32976 0.0
H2391 H 0.50872 0.77174 0.27876 0.0
H2392 H 0.50687 0.78172 0.3988 0.0
H2393 H 0.52971 0.79973 0.4374 0.0
C2394 C 0.20392 0.77977 0.38687 0.0
C2395 C 0.17984 0.7609 0.39826 0.0
C2396 C 0.17267 0.74779 0.31779 0.0
C2397 C 0.19522 0.76872 0.30563 0.0
N2398 N 0.23175 0.80593 0.32748 0.0
N2399 N 0.14048 0.72757 0.37396 0.0
C2400 C 0.21083 0.78495 0.33994 0.0
C2401 C 0.16404 0.74501 0.36352 0.0
N2402 N 0.22013 0.79287 0.42074 0.0
N2403 N 0.15972 0.73021 0.28572 0.0
H2404 H 0.13379 0.72349 0.40727 0.0
H2405 H 0.12709 0.718 0.34938 0.0
H2406 H 0.16536 0.73172 0.25179 0.0
H2407 H 0.14451 0.71324 0.29341 0.0
H2408 H 0.23864 0.80512 0.41493 0.0
H2409 H 0.21557 0.79021 0.45528 0.0
H2410 H 0.24241 0.82004 0.35012 0.0
H2411 H 0.23758 0.8101 0.29362 0.0
C2412 C 0.56627 0.74613 0.85819 0.0
C2413 C 0.56648 0.76178 0.89339 0.0
C2414 C 0.55849 0.78573 0.83654 0.0
C2415 C 0.55819 0.77005 0.8015 0.0
N2416 N 0.55698 0.73268 0.77924 0.0
N2417 N 0.55698 0.79267 0.91765 0.0
C2418 C 0.5606 0.7494 0.81249 0.0
C2419 C 0.56056 0.78026 0.8831 0.0
N2420 N 0.57181 0.72826 0.86848 0.0
N2421 N 0.55803 0.80657 0.82514 0.0
H2422 H 0.55908 0.78984 0.95202 0.0
H2423 H 0.55011 0.80446 0.91255 0.0
H2424 H 0.55624 0.81104 0.79156 0.0
H2425 H 0.56131 0.82037 0.84839 0.0
H2426 H 0.57516 0.71833 0.84404 0.0
H2427 H 0.57398 0.72386 0.90188 0.0
H2428 H 0.55596 0.71592 0.78553 0.0
H2429 H 0.55309 0.73466 0.74538 0.0
C2430 C 0.22917 0.81621 0.8149 0.0
C2431 C 0.21488 0.79078 0.80538 0.0
C2432 C 0.2063 0.78185 0.88733 0.0
C2433 C 0.22137 0.8073 0.89709 0.0
N2434 N 0.25168 0.84787 0.87074 0.0
N2435 N 0.19311 0.7489 0.83202 0.0
C2436 C 0.23411 0.82422 0.86099 0.0
C2437 C 0.20463 0.77345 0.84153 0.0
N2438 N 0.23768 0.83285 0.77978 0.0
N2439 N 0.19228 0.76589 0.92104 0.0
H2440 H 0.19041 0.74204 0.79882 0.0
H2441 H 0.18783 0.73536 0.85698 0.0
H2442 H 0.19256 0.77108 0.95485 0.0
H2443 H 0.17871 0.74782 0.91496 0.0
H2444 H 0.24509 0.85165 0.78441 0.0
H2445 H 0.23597 0.82781 0.74548 0.0
H2446 H 0.26344 0.86022 0.84635 0.0
H2447 H 0.25623 0.85473 0.9038 0.0
C2448 C 0.2001 0.44474 0.83875 0.0
C2449 C 0.19653 0.42588 0.80779 0.0
C2450 C 0.17264 0.39471 0.86584 0.0
C2451 C 0.17713 0.4135 0.89849 0.0
N2452 N 0.19588 0.45676 0.91565 0.0
N2453 N 0.18374 0.38352 0.79423 0.0
C2454 C 0.19135 0.43864 0.88494 0.0
C2455 C 0.184 0.40109 0.82209 0.0
N2456 N 0.21092 0.46841 0.82319 0.0
N2457 N 0.15713 0.37049 0.87581 0.0
H2458 H 0.19204 0.38732 0.76214 0.0
H2459 H 0.17689 0.36533 0.8039 0.0
H2460 H 0.15128 0.36361 0.90845 0.0
H2461 H 0.14936 0.35687 0.851 0.0
H2462 H 0.21193 0.48294 0.84174 0.0
H2463 H 0.21786 0.4734 0.79011 0.0
H2464 H 0.20864 0.4752 0.91038 0.0
H2465 H 0.18737 0.45343 0.9474 0.0
C2466 C 0.07996 0.24215 0.53482 0.0
C2467 C 0.09271 0.24009 0.49631 0.0
C2468 C 0.11726 0.23023 0.54885 0.0
C2469 C 0.10384 0.23152 0.58665 0.0
N2470 N 0.06861 0.23274 0.61454 0.0
N2471 N 0.1205 0.22766 0.46655 0.0
C2472 C 0.08403 0.23564 0.57921 0.0
C2473 C 0.11027 0.23249 0.50329 0.0
N2474 N 0.06429 0.25098 0.52949 0.0
N2475 N 0.13742 0.228 0.55661 0.0
H2476 H 0.11654 0.22979 0.43291 0.0
H2477 H 0.13148 0.21973 0.46925 0.0
H2478 H 0.14279 0.22597 0.58928 0.0
H2479 H 0.14982 0.22996 0.53122 0.0
H2480 H 0.05764 0.25663 0.55664 0.0
H2481 H 0.05895 0.25404 0.49785 0.0
H2482 H 0.05218 0.23266 0.6103 0.0
H2483 H 0.07099 0.22808 0.64762 0.0
C2484 C 0.77234 0.8697 0.54661 0.0
C2485 C 0.75361 0.86267 0.57978 0.0
C2486 C 0.72274 0.83562 0.52419 0.0
C2487 C 0.74124 0.84354 0.48927 0.0
N2488 N 0.78402 0.8682 0.46822 0.0
N2489 N 0.71097 0.84104 0.60038 0.0
C2490 C 0.76613 0.86075 0.50075 0.0
C2491 C 0.72889 0.84615 0.56859 0.0
N2492 N 0.79623 0.88428 0.55966 0.0
N2493 N 0.69909 0.81773 0.51577 0.0
H2494 H 0.71455 0.84721 0.63404 0.0
H2495 H 0.69234 0.83197 0.59321 0.0
H2496 H 0.69147 0.81186 0.48369 0.0
H2497 H 0.68641 0.80802 0.54131 0.0
H2498 H 0.81126 0.88818 0.53933 0.0
H2499 H 0.80122 0.89162 0.59243 0.0
H2500 H 0.8016 0.88317 0.4719 0.0
H2501 H 0.78145 0.8597 0.43669 0.0
C2502 C 0.12925 0.87483 0.57017 0.0
C2503 C 0.11816 0.8885 0.58357 0.0
C2504 C 0.12493 0.90673 0.5064 0.0
C2505 C 0.13724 0.89386 0.49345 0.0
N2506 N 0.15442 0.86849 0.51705 0.0
N2507 N 0.10638 0.91853 0.5672 0.0
C2508 C 0.14037 0.87881 0.52652 0.0
C2509 C 0.11604 0.9046 0.55227 0.0
N2510 N 0.1283 0.85709 0.59874 0.0
N2511 N 0.1225 0.92169 0.47548 0.0
H2512 H 0.09935 0.91692 0.60009 0.0
H2513 H 0.10619 0.93242 0.54827 0.0
H2514 H 0.13161 0.92663 0.44424 0.0
H2515 H 0.11123 0.92915 0.48022 0.0
H2516 H 0.13377 0.84464 0.58936 0.0
H2517 H 0.1204 0.85343 0.63117 0.0
H2518 H 0.162 0.86267 0.54237 0.0
H2519 H 0.15899 0.86589 0.48434 0.0
C2520 C 0.43244 0.21183 0.39013 0.0
C2521 C 0.42599 0.22313 0.42525 0.0
C2522 C 0.41601 0.24475 0.36684 0.0
C2523 C 0.41812 0.23027 0.33202 0.0
N2524 N 0.42928 0.20025 0.31016 0.0
N2525 N 0.40965 0.249 0.44709 0.0
C2526 C 0.427 0.21413 0.34343 0.0
C2527 C 0.41737 0.23934 0.41359 0.0
N2528 N 0.44407 0.19918 0.4015 0.0
N2529 N 0.41378 0.26447 0.35481 0.0
H2530 H 0.41029 0.24555 0.48179 0.0
H2531 H 0.40086 0.25891 0.44034 0.0
H2532 H 0.41494 0.26984 0.32082 0.0
H2533 H 0.41405 0.27708 0.3781 0.0
H2534 H 0.45153 0.19255 0.37767 0.0
H2535 H 0.44803 0.19701 0.43522 0.0
H2536 H 0.43261 0.18594 0.31682 0.0
H2537 H 0.42641 0.20199 0.27568 0.0
C2538 C 0.76437 0.17769 0.40936 0.0
C2539 C 0.75867 0.19618 0.41932 0.0
C2540 C 0.7442 0.19351 0.3401 0.0
C2541 C 0.75378 0.17797 0.32822 0.0
N2542 N 0.7791 0.16099 0.35259 0.0
N2543 N 0.746 0.22428 0.39248 0.0
C2544 C 0.76548 0.17158 0.36321 0.0
C2545 C 0.74945 0.20491 0.38415 0.0
N2546 N 0.76848 0.16559 0.44405 0.0
N2547 N 0.72886 0.1963 0.31095 0.0
H2548 H 0.74934 0.23278 0.42433 0.0
H2549 H 0.74182 0.23312 0.36687 0.0
H2550 H 0.72296 0.18705 0.28002 0.0
H2551 H 0.71967 0.20557 0.3199 0.0
H2552 H 0.77002 0.15006 0.4387 0.0
H2553 H 0.76767 0.16933 0.4785 0.0
H2554 H 0.78934 0.1578 0.37671 0.0
H2555 H 0.78289 0.15834 0.31932 0.0
C2556 C 0.77245 0.56541 0.33285 0.0
C2557 C 0.79741 0.57282 0.32388 0.0
C2558 C 0.80536 0.575 0.40672 0.0
C2559 C 0.78034 0.56679 0.41564 0.0
N2560 N 0.73907 0.54992 0.38792 0.0
N2561 N 0.83568 0.57807 0.35241 0.0
C2562 C 0.76356 0.56055 0.37885 0.0
C2563 C 0.81326 0.57564 0.36095 0.0
N2564 N 0.7575 0.56434 0.29805 0.0
N2565 N 0.8218 0.58276 0.44196 0.0
H2566 H 0.84187 0.57776 0.31955 0.0
H2567 H 0.84711 0.57783 0.37784 0.0
H2568 H 0.81668 0.58177 0.47613 0.0
H2569 H 0.84071 0.59188 0.43718 0.0
H2570 H 0.74018 0.56211 0.30314 0.0
H2571 H 0.76298 0.56762 0.26403 0.0
H2572 H 0.72557 0.54232 0.36287 0.0
H2573 H 0.73205 0.54697 0.42106 0.0
C2574 C 0.90238 0.77183 0.71182 0.0
C2575 C 0.89019 0.74675 0.72598 0.0
C2576 C 0.87082 0.7345 0.64954 0.0
C2577 C 0.88301 0.75939 0.63579 0.0
N2578 N 0.90703 0.80215 0.6547 0.0
N2579 N 0.86534 0.70372 0.7045 0.0
C2580 C 0.89779 0.77818 0.66726 0.0
C2581 C 0.87511 0.72801 0.69377 0.0
N2582 N 0.92 0.78937 0.73922 0.0
N2583 N 0.85396 0.71699 0.62087 0.0
H2584 H 0.86338 0.69696 0.7375 0.0
H2585 H 0.85932 0.68985 0.68018 0.0
H2586 H 0.85031 0.72074 0.588 0.0
H2587 H 0.84228 0.69881 0.63013 0.0
H2588 H 0.93138 0.80752 0.72925 0.0
H2589 H 0.92507 0.78545 0.77059 0.0
H2590 H 0.91555 0.81684 0.67721 0.0
H2591 H 0.90448 0.80729 0.62214 0.0
C2592 C 0.213 0.10328 0.68528 0.0
C2593 C 0.21803 0.12038 0.64928 0.0
C2594 C 0.23017 0.15279 0.7068 0.0
C2595 C 0.23159 0.13715 0.74037 0.0
N2596 N 0.22359 0.09655 0.76113 0.0
N2597 N 0.21083 0.15398 0.63641 0.0
C2598 C 0.22252 0.11204 0.72972 0.0
C2599 C 0.22084 0.14332 0.66265 0.0
N2600 N 0.19561 0.07926 0.67949 0.0
N2601 N 0.23764 0.17672 0.71672 0.0
H2602 H 0.20005 0.14507 0.60793 0.0
H2603 H 0.2102 0.16953 0.64633 0.0
H2604 H 0.24262 0.18409 0.74943 0.0
H2605 H 0.23989 0.1895 0.69166 0.0
H2606 H 0.18973 0.06636 0.70584 0.0
H2607 H 0.18435 0.07343 0.65067 0.0
H2608 H 0.21959 0.07882 0.75285 0.0
H2609 H 0.23015 0.10195 0.79421 0.0
C2610 C 0.85424 0.0836 0.71222 0.0
C2611 C 0.83911 0.09334 0.72576 0.0
C2612 C 0.8424 0.10978 0.64706 0.0
C2613 C 0.85848 0.10117 0.63491 0.0
N2614 N 0.88288 0.08333 0.6569 0.0
N2615 N 0.81655 0.11367 0.70282 0.0
C2616 C 0.8653 0.08908 0.66781 0.0
C2617 C 0.83266 0.10591 0.69225 0.0
N2618 N 0.85633 0.06726 0.74005 0.0
N2619 N 0.83744 0.12295 0.61576 0.0
H2620 H 0.81271 0.11665 0.73583 0.0
H2621 H 0.80672 0.11732 0.6786 0.0
H2622 H 0.84286 0.12498 0.58164 0.0
H2623 H 0.82897 0.13303 0.62348 0.0
H2624 H 0.86489 0.05753 0.73024 0.0
H2625 H 0.84715 0.06116 0.77108 0.0
H2626 H 0.89099 0.07733 0.68074 0.0
H2627 H 0.89083 0.08646 0.62453 0.0
C2628 C 0.22822 0.0799 0.15872 0.0
C2629 C 0.22267 0.09847 0.14743 0.0
C2630 C 0.22359 0.10857 0.2289 0.0
C2631 C 0.23021 0.09064 0.23972 0.0
N2632 N 0.22979 0.05378 0.21798 0.0
N2633 N 0.21045 0.12739 0.17103 0.0
C2634 C 0.22981 0.07466 0.20537 0.0
C2635 C 0.21872 0.11173 0.18242 0.0
N2636 N 0.23243 0.06755 0.12483 0.0
N2637 N 0.22299 0.12322 0.26261 0.0
H2638 H 0.20771 0.13086 0.13731 0.0
H2639 H 0.20483 0.13584 0.19471 0.0
H2640 H 0.22541 0.12076 0.29701 0.0
H2641 H 0.22126 0.13858 0.25669 0.0
H2642 H 0.23924 0.05579 0.13085 0.0
H2643 H 0.23045 0.07011 0.0902 0.0
H2644 H 0.22777 0.0402 0.19524 0.0
H2645 H 0.2287 0.04877 0.25221 0.0
C2646 C 0.8968 0.12587 0.2126 0.0
C2647 C 0.88842 0.14232 0.22508 0.0
C2648 C 0.87629 0.14203 0.14447 0.0
C2649 C 0.8807 0.12264 0.13442 0.0
N2650 N 0.89243 0.09376 0.16091 0.0
N2651 N 0.86452 0.1613 0.20163 0.0
C2652 C 0.89014 0.11384 0.16911 0.0
C2653 C 0.87669 0.14916 0.19062 0.0
N2654 N 0.91237 0.12282 0.24065 0.0
N2655 N 0.87196 0.15397 0.10977 0.0
H2656 H 0.86157 0.16495 0.23477 0.0
H2657 H 0.85439 0.165 0.1781 0.0
H2658 H 0.87173 0.1495 0.07541 0.0
H2659 H 0.87121 0.16997 0.11459 0.0
H2660 H 0.92068 0.11275 0.23129 0.0
H2661 H 0.91944 0.13271 0.2707 0.0
H2662 H 0.89675 0.08495 0.18635 0.0
H2663 H 0.888 0.08471 0.12953 0.0
C2664 C 0.87421 0.77717 0.169 0.0
C2665 C 0.86896 0.75875 0.13588 0.0
C2666 C 0.84371 0.72686 0.19194 0.0
C2667 C 0.84846 0.74528 0.22554 0.0
N2668 N 0.86308 0.78813 0.24082 0.0
N2669 N 0.8505 0.71608 0.11582 0.0
C2670 C 0.86257 0.77052 0.21284 0.0
C2671 C 0.854 0.73364 0.14732 0.0
N2672 N 0.89086 0.80106 0.15886 0.0
N2673 N 0.82852 0.70263 0.20189 0.0
H2674 H 0.85605 0.72001 0.08182 0.0
H2675 H 0.84326 0.69756 0.12332 0.0
H2676 H 0.82424 0.69568 0.23486 0.0
H2677 H 0.82001 0.68908 0.17724 0.0
H2678 H 0.89785 0.81508 0.18298 0.0
H2679 H 0.89924 0.80658 0.12692 0.0
H2680 H 0.8708 0.8065 0.23149 0.0
H2681 H 0.85345 0.78415 0.27148 0.0
C2682 C 0.74831 0.54721 0.88328 0.0
C2683 C 0.76057 0.56567 0.91678 0.0
C2684 C 0.76677 0.59742 0.86084 0.0
C2685 C 0.75402 0.57889 0.82673 0.0
N2686 N 0.72726 0.53584 0.81037 0.0
N2687 N 0.78381 0.60834 0.93733 0.0
C2688 C 0.74356 0.55368 0.83909 0.0
C2689 C 0.77018 0.59072 0.90557 0.0
N2690 N 0.74167 0.52347 0.89348 0.0
N2691 N 0.7751 0.62162 0.85131 0.0
H2692 H 0.78578 0.60438 0.97115 0.0
H2693 H 0.79439 0.62699 0.93021 0.0
H2694 H 0.77822 0.62894 0.8186 0.0
H2695 H 0.77902 0.63486 0.87617 0.0
H2696 H 0.73544 0.50955 0.86923 0.0
H2697 H 0.74425 0.51805 0.92575 0.0
H2698 H 0.71705 0.51737 0.81931 0.0
H2699 H 0.72176 0.53961 0.77932 0.0
C2700 C 0.43464 0.19532 0.84576 0.0
C2701 C 0.40957 0.18095 0.8329 0.0
C2702 C 0.39725 0.18478 0.91163 0.0
C2703 C 0.42222 0.19967 0.92368 0.0
N2704 N 0.46461 0.22252 0.9015 0.0
N2705 N 0.36672 0.16125 0.85496 0.0
C2706 C 0.44089 0.20591 0.89049 0.0
C2707 C 0.39086 0.17565 0.86625 0.0
N2708 N 0.45248 0.19734 0.81659 0.0
N2709 N 0.37946 0.1803 0.9433 0.0
H2710 H 0.36035 0.15858 0.82156 0.0
H2711 H 0.35274 0.15176 0.87857 0.0
H2712 H 0.38316 0.18512 0.97764 0.0
H2713 H 0.36095 0.17276 0.93583 0.0
H2714 H 0.47084 0.20517 0.82563 0.0
H2715 H 0.44875 0.18921 0.78443 0.0
H2716 H 0.4788 0.23019 0.87775 0.0
H2717 H 0.46983 0.23012 0.93404 0.0
C2718 C 0.7829 0.23498 0.84178 0.0
C2719 C 0.79726 0.22432 0.8282 0.0
C2720 C 0.79171 0.20594 0.90534 0.0
C2721 C 0.77896 0.2179 0.91942 0.0
N2722 N 0.76411 0.2456 0.9038 0.0
N2723 N 0.81795 0.20199 0.8509 0.0
C2724 C 0.77482 0.23275 0.88826 0.0
C2725 C 0.80248 0.2106 0.86114 0.0
N2726 N 0.77741 0.24775 0.81075 0.0
N2727 N 0.79268 0.18915 0.93385 0.0
H2728 H 0.82302 0.20022 0.81808 0.0
H2729 H 0.8264 0.19686 0.87566 0.0
H2730 H 0.78474 0.18481 0.96626 0.0
H2731 H 0.79984 0.17808 0.92462 0.0
H2732 H 0.76439 0.25299 0.81634 0.0
H2733 H 0.78524 0.25261 0.77842 0.0
H2734 H 0.76291 0.25898 0.88495 0.0
H2735 H 0.75766 0.24398 0.93717 0.0
C2736 C 0.01035 0.43997 0.33707 0.0
C2737 C 0.98832 0.42589 0.31211 0.0
C2738 C 0.96514 0.41378 0.3841 0.0
C2739 C 0.98745 0.42502 0.40905 0.0
N2740 N 0.03165 0.44576 0.4089 0.0
N2741 N 0.94504 0.3962 0.31217 0.0
C2742 C 0.01019 0.43733 0.38542 0.0
C2743 C 0.96576 0.41192 0.33572 0.0
N2744 N 0.03126 0.45651 0.31479 0.0
N2745 N 0.94338 0.40567 0.40641 0.0
H2746 H 0.94476 0.39399 0.27684 0.0
H2747 H 0.92869 0.38371 0.32811 0.0
H2748 H 0.9422 0.40716 0.44169 0.0
H2749 H 0.92681 0.39972 0.38952 0.0
H2750 H 0.04715 0.46916 0.33171 0.0
H2751 H 0.03201 0.45926 0.27953 0.0
H2752 H 0.0486 0.45262 0.39293 0.0
H2753 H 0.03235 0.44387 0.44419 0.0
C2754 C 0.52958 0.53894 0.38816 0.0
C2755 C 0.54954 0.55738 0.4136 0.0
C2756 C 0.57006 0.57852 0.34247 0.0
C2757 C 0.54996 0.56043 0.31696 0.0
N2758 N 0.50966 0.52467 0.31417 0.0
N2759 N 0.58621 0.59708 0.41629 0.0
C2760 C 0.52935 0.54103 0.33951 0.0
C2761 C 0.56907 0.57782 0.39106 0.0
N2762 N 0.51119 0.51927 0.4107 0.0
N2763 N 0.59039 0.59613 0.32012 0.0
H2764 H 0.58608 0.59732 0.45192 0.0
H2765 H 0.59936 0.61374 0.40223 0.0
H2766 H 0.59144 0.59805 0.28466 0.0
H2767 H 0.60686 0.60792 0.33633 0.0
H2768 H 0.49661 0.50432 0.39489 0.0
H2769 H 0.51082 0.51742 0.44611 0.0
H2770 H 0.49322 0.51101 0.32787 0.0
H2771 H 0.50928 0.52532 0.27857 0.0
C2772 C 0.40046 0.96458 0.33824 0.0
C2773 C 0.41022 0.9866 0.3122 0.0
C2774 C 0.42113 0.01084 0.38304 0.0
C2775 C 0.41101 0.98878 0.40902 0.0
N2776 N 0.38776 0.94466 0.4125 0.0
N2777 N 0.42829 0.03056 0.30857 0.0
C2778 C 0.3998 0.96564 0.38686 0.0
C2779 C 0.42011 0.00972 0.33433 0.0
N2780 N 0.39206 0.94265 0.31634 0.0
N2781 N 0.43219 0.0329 0.40517 0.0
H2782 H 0.42928 0.03065 0.273 0.0
H2783 H 0.43322 0.04773 0.32185 0.0
H2784 H 0.43152 0.0343 0.4405 0.0
H2785 H 0.44274 0.04981 0.3892 0.0
H2786 H 0.38734 0.92623 0.33291 0.0
H2787 H 0.391 0.94098 0.2809 0.0
H2788 H 0.377 0.9272 0.39888 0.0
H2789 H 0.38695 0.94479 0.44809 0.0
C2790 C 0.98328 0.59138 0.88792 0.0
C2791 C -0.00947 0.57709 0.91411 0.0
C2792 C 0.00485 0.56649 0.84435 0.0
C2793 C -0.00475 0.57866 0.81779 0.0
N2794 N 0.97405 0.60156 0.81331 0.0
N2795 N 0.00633 0.54934 0.91803 0.0
C2796 C 0.98411 0.5908 0.83936 0.0
C2797 C 0.00096 0.56429 0.89254 0.0
N2798 N 0.97652 0.60628 0.90965 0.0
N2799 N 0.01777 0.55716 0.82343 0.0
H2800 H 0.0033 0.5469 0.95317 0.0
H2801 H 0.01243 0.53815 0.90433 0.0
H2802 H 0.02027 0.55775 0.7882 0.0
H2803 H 0.02757 0.55045 0.84089 0.0
H2804 H 0.9736 0.61919 0.89292 0.0
H2805 H 0.97576 0.60725 0.94513 0.0
H2806 H 0.96291 0.60789 0.82645 0.0
H2807 H 0.9757 0.60302 0.77783 0.0
C2808 C 0.39963 0.39804 0.84221 0.0
C2809 C 0.40798 0.42094 0.81998 0.0
C2810 C 0.41788 0.44185 0.894 0.0
C2811 C 0.40795 0.41877 0.91642 0.0
N2812 N 0.38503 0.37455 0.91243 0.0
N2813 N 0.42002 0.46374 0.82437 0.0
C2814 C 0.39758 0.39673 0.89066 0.0
C2815 C 0.41556 0.44259 0.84581 0.0
N2816 N 0.39411 0.37764 0.81707 0.0
N2817 N 0.43042 0.4631 0.91847 0.0
H2818 H 0.41827 0.46482 0.78917 0.0
H2819 H 0.42306 0.47943 0.84179 0.0
H2820 H 0.43305 0.46338 0.9537 0.0
H2821 H 0.44008 0.4804 0.90342 0.0
H2822 H 0.39074 0.36109 0.83151 0.0
H2823 H 0.39454 0.37767 0.78144 0.0
H2824 H 0.37489 0.35794 0.89533 0.0
H2825 H 0.38288 0.37286 0.94782 0.0
C2826 C 0.54993 0.97118 0.88249 0.0
C2827 C 0.56293 -0.00616 0.90605 0.0
C2828 C 0.57963 0.01523 0.8334 0.0
C2829 C 0.56457 0.99305 0.80947 0.0
N2830 N 0.53202 0.95066 0.81108 0.0
N2831 N 0.58622 0.03811 0.90341 0.0
C2832 C 0.54877 0.97119 0.83397 0.0
C2833 C 0.5767 0.01609 0.88136 0.0
N2834 N 0.53932 0.94957 0.90638 0.0
N2835 N 0.59736 0.03526 0.8106 0.0
H2836 H 0.58418 0.03956 0.93843 0.0
H2837 H 0.59411 0.05491 0.88634 0.0
H2838 H 0.6005 0.03522 0.77564 0.0
H2839 H 0.61048 0.05109 0.82707 0.0
H2840 H 0.53182 0.93244 0.89084 0.0
H2841 H 0.53997 0.94879 0.94192 0.0
H2842 H 0.51819 0.93516 0.82738 0.0
H2843 H 0.5305 0.94982 0.77561 0.0
C2844 C 0.66413 0.74214 0.7159 0.0
C2845 C 0.65605 0.75747 0.73546 0.0
C2846 C 0.65298 0.77178 0.65875 0.0
C2847 C 0.65915 0.75494 0.63912 0.0
N2848 N 0.66638 0.72104 0.64854 0.0
N2849 N 0.63988 0.78468 0.72611 0.0
C2850 C 0.66361 0.7393 0.66761 0.0
C2851 C 0.64969 0.77173 0.70702 0.0
N2852 N 0.67293 0.73076 0.74352 0.0
N2853 N 0.65088 0.78826 0.63134 0.0
H2854 H 0.63754 0.78531 0.76127 0.0
H2855 H 0.63248 0.7934 0.70716 0.0
H2856 H 0.65263 0.78852 0.5959 0.0
H2857 H 0.64918 0.80281 0.64372 0.0
H2858 H 0.68168 0.72165 0.73119 0.0
H2859 H 0.67339 0.73216 0.77905 0.0
H2860 H 0.66693 0.70732 0.66753 0.0
H2861 H 0.66596 0.71822 0.61337 0.0
C2862 C 0.24763 0.90388 0.72003 0.0
C2863 C 0.22665 0.89961 0.74525 0.0
C2864 C 0.20423 0.8944 0.67362 0.0
C2865 C 0.22594 0.9009 0.64849 0.0
N2866 N 0.26954 0.9165 0.64812 0.0
N2867 N 0.18606 0.89426 0.74683 0.0
C2868 C 0.248 0.90694 0.67183 0.0
C2869 C 0.20523 0.89586 0.72224 0.0
N2870 N 0.26695 0.90426 0.74199 0.0
N2871 N 0.18248 0.88596 0.65116 0.0
H2872 H 0.18601 0.89489 0.78245 0.0
H2873 H 0.17106 0.89424 0.73199 0.0
H2874 H 0.18098 0.88457 0.6157 0.0
H2875 H 0.16563 0.87846 0.66771 0.0
H2876 H 0.28153 0.90449 0.72489 0.0
H2877 H 0.2674 0.9021 0.77727 0.0
H2878 H 0.28658 0.92364 0.66383 0.0
H2879 H 0.2707 0.91948 0.61292 0.0
C2880 C 0.06399 0.32348 0.7183 0.0
C2881 C 0.08664 0.33564 0.74215 0.0
C2882 C 0.10863 0.34755 0.66872 0.0
C2883 C 0.08613 0.33318 0.64523 0.0
N2884 N 0.04286 0.30374 0.64826 0.0
N2885 N 0.13077 0.35596 0.74026 0.0
C2886 C 0.06392 0.32012 0.6702 0.0
C2887 C 0.10906 0.34683 0.71738 0.0
N2888 N 0.04252 0.31587 0.74135 0.0
N2889 N 0.12948 0.36241 0.64455 0.0
H2890 H 0.13182 0.35549 0.77574 0.0
H2891 H 0.14752 0.36201 0.72402 0.0
H2892 H 0.12988 0.36352 0.60897 0.0
H2893 H 0.1459 0.37522 0.65974 0.0
H2894 H 0.02568 0.30925 0.72512 0.0
H2895 H 0.04179 0.31835 0.77641 0.0
H2896 H 0.02674 0.29171 0.66537 0.0
H2897 H 0.04204 0.30052 0.61319 0.0
C2898 C 0.67133 0.91017 0.16506 0.0
C2899 C 0.65458 0.88911 0.13997 0.0
C2900 C 0.63707 0.86658 0.21151 0.0
C2901 C 0.65249 0.8883 0.23645 0.0
N2902 N 0.68144 0.93181 0.23725 0.0
N2903 N 0.62004 0.84797 0.1379 0.0
C2904 C 0.6689 0.91038 0.2133 0.0
C2905 C 0.63703 0.86746 0.16283 0.0
N2906 N 0.68998 0.92977 0.14281 0.0
N2907 N 0.62292 0.84504 0.23444 0.0
H2908 H 0.6198 0.84783 0.10226 0.0
H2909 H 0.60531 0.83246 0.1522 0.0
H2910 H 0.62239 0.8438 0.26999 0.0
H2911 H 0.61314 0.82805 0.21855 0.0
H2912 H 0.70447 0.94444 0.15957 0.0
H2913 H 0.69216 0.93049 0.10741 0.0
H2914 H 0.69152 0.94897 0.22184 0.0
H2915 H 0.68013 0.9328 0.27262 0.0
C2916 C 0.09589 0.7867 0.2199 0.0
C2917 C 0.10468 0.77254 0.24186 0.0
C2918 C 0.11823 0.76549 0.16782 0.0
C2919 C 0.10529 0.77554 0.14544 0.0
N2920 N 0.07989 0.79416 0.15029 0.0
N2921 N 0.12273 0.74669 0.2366 0.0
C2922 C 0.09385 0.78606 0.17146 0.0
C2923 C 0.11572 0.76166 0.21586 0.0
N2924 N 0.0898 0.80101 0.24538 0.0
N2925 N 0.13321 0.75996 0.14315 0.0
H2926 H 0.12123 0.74333 0.27168 0.0
H2927 H 0.12824 0.73604 0.21856 0.0
H2928 H 0.13588 0.76314 0.10805 0.0
H2929 H 0.14477 0.75457 0.15803 0.0
H2930 H 0.08569 0.8137 0.2311 0.0
H2931 H 0.09126 0.80196 0.28093 0.0
H2932 H 0.06905 0.79953 0.16799 0.0
H2933 H 0.07747 0.79365 0.11501 0.0
C2934 C 0.24779 0.34899 0.1751 0.0
C2935 C 0.2349 0.32582 0.15318 0.0
C2936 C 0.22513 0.30516 0.22784 0.0
C2937 C 0.23606 0.32837 0.24987 0.0
N2938 N 0.2547 0.37241 0.24472 0.0
N2939 N 0.20812 0.282 0.1581 0.0
C2940 C 0.24665 0.35033 0.22356 0.0
C2941 C 0.22268 0.30392 0.17941 0.0
N2942 N 0.26151 0.36969 0.14959 0.0
N2943 N 0.2178 0.28434 0.25317 0.0
H2944 H 0.20623 0.28029 0.12267 0.0
H2945 H 0.19641 0.26585 0.17554 0.0
H2946 H 0.21953 0.28452 0.28863 0.0
H2947 H 0.21205 0.26717 0.23885 0.0
H2948 H 0.27348 0.38676 0.16371 0.0
H2949 H 0.26242 0.36947 0.11402 0.0
H2950 H 0.25989 0.38871 0.22719 0.0
H2951 H 0.25431 0.37421 0.28006 0.0
C2952 C 0.31282 0.10706 0.04858 0.0
C2953 C 0.31787 0.09124 0.07529 0.0
C2954 C 0.32214 0.07217 1.00542 0.0
C2955 C 0.31925 0.0894 0.9787 0.0
N2956 N 0.31488 0.12526 0.97416 0.0
N2957 N 0.3308 0.06118 0.07975 0.0
C2958 C 0.31539 0.10742 1.00011 0.0
C2959 C 0.32346 0.07444 0.05384 0.0
N2960 N 0.30497 0.12127 0.06953 0.0
N2961 N 0.32295 0.0532 0.98447 0.0
H2962 H 0.33169 0.06204 0.11533 0.0
H2963 H 0.33787 0.05079 0.06598 0.0
H2964 H 0.32224 0.05102 0.94909 0.0
H2965 H 0.32226 0.03849 1.0021 0.0
H2966 H 0.29871 0.13143 0.05192 0.0
H2967 H 0.30292 0.12143 0.10486 0.0
H2968 H 0.31484 0.14048 0.98784 0.0
H2969 H 0.3163 0.12583 0.93862 0.0
C2970 C 0.86878 0.22615 1.00654 0.0
C2971 C 0.89064 0.23797 0.98009 0.0
C2972 C 0.91517 0.25062 0.05069 0.0
C2973 C 0.89349 0.23683 0.0769 0.0
N2974 N 0.84979 0.20974 0.08037 0.0
N2975 N 0.93477 0.26007 0.97623 0.0
C2976 C 0.87029 0.22424 0.05496 0.0
C2977 C 0.91387 0.24979 1.00202 0.0
N2978 N 0.84659 0.21678 0.98525 0.0
N2979 N 0.93689 0.26538 0.07245 0.0
H2980 H 0.93471 0.26137 0.9407 0.0
H2981 H 0.95214 0.2661 0.98966 0.0
H2982 H 0.93856 0.26661 0.10794 0.0
H2983 H 0.95286 0.27798 0.05568 0.0
H2984 H 0.83007 0.21049 1.00243 0.0
H2985 H 0.84475 0.21677 0.94987 0.0
H2986 H 0.83244 0.19875 0.0666 0.0
H2987 H 0.85025 0.20742 0.11558 0.0
C2988 C 0.74705 0.67732 1.00563 0.0
C2989 C 0.74304 0.65607 0.98161 0.0
C2990 C 0.73962 0.63515 0.05442 0.0
C2991 C 0.7461 0.65725 0.07809 0.0
N2992 N 0.76114 0.70085 0.07547 0.0
N2993 N 0.73986 0.61624 0.98252 0.0
C2994 C 0.75127 0.67878 0.05348 0.0
C2995 C 0.74052 0.63534 1.00582 0.0
N2996 N 0.7461 0.69584 0.98298 0.0
N2997 N 0.7319 0.61381 0.07828 0.0
H2998 H 0.74061 0.61576 0.94696 0.0
H2999 H 0.74076 0.6019 0.99845 0.0
H3000 H 0.73078 0.61289 0.11385 0.0
H3001 H 0.72459 0.59668 0.06278 0.0
H3002 H 0.74636 0.71059 0.99956 0.0
H3003 H 0.74266 0.69532 0.94802 0.0
H3004 H 0.76773 0.71753 0.05838 0.0
H3005 H 0.765 0.70284 0.11036 0.0
C3006 C 0.33986 0.21331 0.51429 0.0
C3007 C 0.32341 0.21764 0.48816 0.0
C3008 C 0.30307 0.21911 0.55848 0.0
C3009 C 0.32137 0.21792 0.58461 0.0
N3010 N 0.35827 0.21552 0.58837 0.0
N3011 N 0.29168 0.2284 0.48536 0.0
C3012 C 0.34005 0.21536 0.5628 0.0
C3013 C 0.30552 0.2214 0.51023 0.0
N3014 N 0.35482 0.20658 0.49276 0.0
N3015 N 0.28307 0.2176 0.57977 0.0
H3016 H 0.29309 0.2307 0.44999 0.0
H3017 H 0.28035 0.23408 0.50015 0.0
H3018 H 0.28069 0.21606 0.61514 0.0
H3019 H 0.2678 0.21557 0.56222 0.0
H3020 H 0.36533 0.20063 0.50999 0.0
H3021 H 0.35507 0.20481 0.45737 0.0
H3022 H 0.37384 0.21634 0.5744 0.0
H3023 H 0.3586 0.2164 0.62397 0.0
C3024 C 0.76504 0.07728 0.54732 0.0
C3025 C 0.74675 0.07853 0.57352 0.0
C3026 C 0.72912 0.08454 0.50316 0.0
C3027 C 0.74567 0.08059 0.47671 0.0
N3028 N 0.77714 0.06956 0.47336 0.0
N3029 N 0.70878 0.07901 0.57602 0.0
C3030 C 0.76305 0.07596 0.49874 0.0
C3031 C 0.72804 0.08093 0.5513 0.0
N3032 N 0.78476 0.07822 0.56872 0.0
N3033 N 0.71508 0.09272 0.48254 0.0
H3034 H 0.70715 0.07609 0.61125 0.0
H3035 H 0.69331 0.078 0.56108 0.0
H3036 H 0.71561 0.096 0.44749 0.0
H3037 H 0.7047 0.09851 0.50065 0.0
H3038 H 0.80003 0.08016 0.55134 0.0
H3039 H 0.78685 0.07919 0.60415 0.0
H3040 H 0.78831 0.06351 0.48767 0.0
H3041 H 0.77611 0.06824 0.43782 0.0
C3042 C 0.88686 0.67565 0.54676 0.0
C3043 C 0.89414 0.66135 0.57296 0.0
C3044 C 0.89697 0.64165 0.5028 0.0
C3045 C 0.8923 0.6578 0.47639 0.0
N3046 N 0.88646 0.69279 0.47263 0.0
N3047 N 0.91097 0.63435 0.575 0.0
C3048 C 0.88825 0.67556 0.49821 0.0
C3049 C 0.90054 0.64533 0.55071 0.0
N3050 N 0.87775 0.68862 0.56817 0.0
N3051 N 0.89723 0.6223 0.48233 0.0
H3052 H 0.9145 0.63704 0.60996 0.0
H3053 H 0.91832 0.62455 0.55975 0.0
H3054 H 0.89437 0.61878 0.44739 0.0
H3055 H 0.89793 0.60844 0.50057 0.0
H3056 H 0.86974 0.69725 0.55076 0.0
H3057 H 0.87619 0.68892 0.60356 0.0
H3058 H 0.88623 0.70785 0.48672 0.0
H3059 H 0.88724 0.69322 0.43702 0.0
C3060 C 0.00842 0.52249 0.09407 0.0
C3061 C 0.00329 0.50422 0.06116 0.0
C3062 C 0.96496 0.47629 0.10065 0.0
C3063 C 0.97258 0.49323 0.13813 0.0
N3064 N 0.00554 0.52927 0.17385 0.0
N3065 N 0.97216 0.4689 1.02227 0.0
C3066 C -0.00476 0.51563 0.1355 0.0
C3067 C 0.9803 0.48242 0.06146 0.0
N3068 N 0.02526 0.54647 0.08541 0.0
N3069 N 0.94347 0.45432 0.1017 0.0
H3070 H 0.98205 0.4746 0.99191 0.0
H3071 H 0.95458 0.45405 1.01769 0.0
H3072 H 0.92886 0.44996 0.12327 0.0
H3073 H 0.94 0.43966 0.08055 0.0
H3074 H 0.02866 0.56062 0.10797 0.0
H3075 H 0.03278 0.55255 0.05302 0.0
H3076 H 0.02305 0.5447 0.17421 0.0
H3077 H -0.00169 0.52294 0.20629 0.0
C3078 C 0.50226 0.50362 0.08076 0.0
C3079 C 0.48024 0.50458 0.08013 0.0
C3080 C 0.47164 0.48882 0.15866 0.0
C3081 C 0.493 0.48688 0.15826 0.0
N3082 N 0.53359 0.50283 0.12719 0.0
N3083 N 0.43987 0.48869 0.11275 0.0
C3084 C 0.50989 0.49744 0.12183 0.0
C3085 C 0.4638 0.49486 0.11765 0.0
N3086 N 0.51508 0.50695 0.04123 0.0
N3087 N 0.45925 0.48556 0.19865 0.0
H3088 H 0.43219 0.48854 0.08118 0.0
H3089 H 0.42677 0.47989 0.13823 0.0
H3090 H 0.46566 0.48272 0.22965 0.0
H3091 H 0.44468 0.48883 0.20191 0.0
H3092 H 0.53019 0.50452 0.03874 0.0
H3093 H 0.50849 0.50852 1.00954 0.0
H3094 H 0.54705 0.51142 0.10229 0.0
H3095 H 0.54081 0.50246 0.159 0.0
C3096 C 0.48907 0.9843 0.15485 0.0
C3097 C 0.49155 0.00775 0.15288 0.0
C3098 C 0.47595 8e-05 0.07496 0.0
C3099 C 0.47584 0.97747 0.07498 0.0
N3100 N 0.49011 0.95235 0.1122 0.0
N3101 N 0.47543 0.03189 0.12023 0.0
C3102 C 0.48421 0.97043 0.1143 0.0
C3103 C 0.48135 0.01391 0.11575 0.0
N3104 N 0.49033 0.97492 0.1961 0.0
N3105 N 0.47319 0.00954 1.03486 0.0
H3106 H 0.47573 0.03972 0.1517 0.0
H3107 H 0.4665 0.0361 0.09492 0.0
H3108 H 0.4725 0.0015 1.00338 0.0
H3109 H 0.47553 0.02709 1.03204 0.0
H3110 H 0.48601 0.95675 0.20052 0.0
H3111 H 0.49257 0.98454 0.22642 0.0
H3112 H 0.49778 0.94797 0.13959 0.0
H3113 H 0.49149 0.9447 0.08174 0.0
C3114 C 0.50532 0.00587 0.56917 0.0
C3115 C 0.48724 0.98098 0.57671 0.0
C3116 C 0.48504 0.99008 0.65716 0.0
C3117 C 0.50327 0.01482 0.6497 0.0
N3118 N 0.53702 0.04354 0.6025 0.0
N3119 N 0.45655 0.95038 0.62826 0.0
C3120 C 0.51534 0.02202 0.60687 0.0
C3121 C 0.47601 0.97338 0.62048 0.0
N3122 N 0.51192 0.01442 0.52553 0.0
N3123 N 0.47628 0.9816 0.6999 0.0
H3124 H 0.44741 0.93718 0.60345 0.0
H3125 H 0.4483 0.94477 0.66032 0.0
H3126 H 0.48327 0.99196 0.72961 0.0
H3127 H 0.48327 0.99196 0.72961 0.0
H3128 H 0.52301 0.03297 0.51764 0.0
H3129 H 0.50392 0.00333 0.49697 0.0
H3130 H 0.54731 0.04877 0.57251 0.0
H3131 H 0.54662 0.05429 0.63039 0.0
C3132 C -0.00613 0.48729 0.65895 0.0
C3133 C 0.97067 0.48559 0.65897 0.0
C3134 C 0.97897 0.50582 0.58511 0.0
C3135 C 0.00202 0.50705 0.58324 0.0
N3136 N 0.03145 0.4979 0.61972 0.0
N3137 N 0.9478 0.50479 0.63399 0.0
C3138 C 0.00956 0.49747 0.6204 0.0
C3139 C 0.96532 0.4986 0.62599 0.0
N3140 N 0.00184 0.48146 0.6979 0.0
N3141 N 0.96895 0.5094 0.54656 0.0
H3142 H 0.93985 0.50284 0.66606 0.0
H3143 H 0.94422 0.51544 0.61142 0.0
H3144 H 0.97676 0.51122 0.51441 0.0
H3145 H 0.95121 0.50659 0.54546 0.0
H3146 H 0.01932 0.48404 0.70247 0.0
H3147 H -0.00808 0.47693 0.72823 0.0
H3148 H 0.03511 0.48658 0.64017 0.0
H3149 H 0.04625 0.50919 0.5992 0.0
C3150 C 0.49062 0.4692 0.61178 0.0
C3151 C 0.49512 0.48078 0.65488 0.0
C3152 C 0.48601 0.51149 0.62229 0.0
C3153 C 0.48252 0.49999 0.579 0.0
N3154 N 0.49313 0.4762 0.53062 0.0
N3155 N 0.4958 0.51214 0.70277 0.0
C3156 C 0.4884 0.48138 0.57321 0.0
C3157 C 0.49228 0.50166 0.66054 0.0
N3158 N 0.48686 0.44601 0.60753 0.0
N3159 N 0.48347 0.53169 0.62717 0.0
H3160 H 0.49622 0.50311 0.73232 0.0
H3161 H 0.49796 0.52934 0.70912 0.0
H3162 H 0.48373 0.54243 0.60001 0.0
H3163 H 0.48235 0.53891 0.65834 0.0
H3164 H 0.48207 0.4366 0.57655 0.0
H3165 H 0.48459 0.43487 0.63558 0.0
H3166 H 0.49978 0.46424 0.52479 0.0
H3167 H 0.49324 0.48631 0.50224 0.0
C3168 C 0.66265 0.8353 0.48651 0.0
C3169 C 0.63922 0.81429 0.48422 0.0
C3170 C 0.64858 0.80403 0.40969 0.0
C3171 C 0.6716 0.82628 0.40953 0.0
N3172 N 0.69992 0.86443 0.44912 0.0
N3173 N 0.6161 0.77291 0.45604 0.0
C3174 C 0.67849 0.84242 0.44806 0.0
C3175 C 0.63403 0.79676 0.44974 0.0
N3176 N 0.67076 0.84688 0.52754 0.0
N3177 N 0.63962 0.79054 0.37066 0.0
H3178 H 0.60748 0.76635 0.48745 0.0
H3179 H 0.61271 0.75898 0.43298 0.0
H3180 H 0.6483 0.79619 0.33914 0.0
H3181 H 0.622 0.77542 0.3682 0.0
H3182 H 0.68877 0.8606 0.53356 0.0
H3183 H 0.66038 0.84024 0.55736 0.0
H3184 H 0.70291 0.87834 0.47193 0.0
H3185 H 0.71474 0.86968 0.4276 0.0
C3186 C 0.17073 0.83137 0.3966 0.0
C3187 C 0.14948 0.83344 0.39842 0.0
C3188 C 0.1412 0.81708 0.47583 0.0
C3189 C 0.16354 0.81671 0.47592 0.0
N3190 N 0.20287 0.8304 0.43915 0.0
N3191 N 0.109 0.81654 0.4302 0.0
C3192 C 0.17917 0.82539 0.4369 0.0
C3193 C 0.13294 0.82271 0.43509 0.0
N3194 N 0.18233 0.83428 0.35577 0.0
N3195 N 0.12879 0.81404 0.51573 0.0
H3196 H 0.10157 0.81684 0.39856 0.0
H3197 H 0.09574 0.80739 0.45526 0.0
H3198 H 0.13582 0.81292 0.54732 0.0
H3199 H 0.11368 0.81648 0.51833 0.0
H3200 H 0.1964 0.83042 0.3509 0.0
H3201 H 0.17555 0.83735 0.32553 0.0
H3202 H 0.21535 0.83851 0.41251 0.0
H3203 H 0.21151 0.8304 0.46931 0.0
C3204 C 0.15644 0.34869 0.4523 0.0
C3205 C 0.16545 0.34236 0.49126 0.0
C3206 C 0.15661 0.30374 0.4549 0.0
C3207 C 0.14854 0.3106 0.41509 0.0
N3208 N 0.14907 0.34328 0.37106 0.0
N3209 N 0.16521 0.31018 0.53596 0.0
C3210 C 0.15094 0.33419 0.4124 0.0
C3211 C 0.1628 0.3187 0.49448 0.0
N3212 N 0.1514 0.36739 0.45415 0.0
N3213 N 0.16071 0.28441 0.4538 0.0
H3214 H 0.16834 0.3203 0.56583 0.0
H3215 H 0.16106 0.29215 0.54165 0.0
H3216 H 0.16051 0.27559 0.42366 0.0
H3217 H 0.1682 0.27968 0.48097 0.0
H3218 H 0.14388 0.37214 0.42704 0.0
H3219 H 0.15042 0.37519 0.48481 0.0
H3220 H 0.15277 0.36122 0.36635 0.0
H3221 H 0.14754 0.33418 0.34041 0.0
C3222 C 0.17464 0.33572 0.91131 0.0
C3223 C 0.15211 0.31337 0.90782 0.0
C3224 C 0.13955 0.32083 0.98207 0.0
C3225 C 0.16199 0.34317 0.98585 0.0
N3226 N 0.20436 0.36672 0.96145 0.0
N3227 N 0.1096 0.29087 0.93091 0.0
C3228 C 0.18061 0.34931 0.95255 0.0
C3229 C 0.13342 0.30771 0.94044 0.0
N3230 N 0.18967 0.34479 0.87413 0.0
N3231 N 0.12501 0.31105 1.01961 0.0
H3232 H 0.10377 0.28391 0.89818 0.0
H3233 H 0.09517 0.28695 0.95309 0.0
H3234 H 0.1308 0.31871 0.05197 0.0
H3235 H 0.10945 0.29363 1.01994 0.0
H3236 H 0.20518 0.3622 0.87301 0.0
H3237 H 0.1847 0.3364 0.84226 0.0
H3238 H 0.2188 0.37104 0.9391 0.0
H3239 H 0.21051 0.37371 0.99401 0.0
C3240 C 0.68022 0.83003 0.95124 0.0
C3241 C 0.67282 0.83201 0.90622 0.0
C3242 C 0.63308 0.82358 0.93589 0.0
C3243 C 0.64 0.82052 0.98037 0.0
N3244 N 0.67209 0.82577 1.03195 0.0
N3245 N 0.63928 0.82156 0.85496 0.0
C3246 C 0.66419 0.82544 0.98835 0.0
C3247 C 0.6483 0.82597 0.89842 0.0
N3248 N 0.7016 0.83051 0.96012 0.0
N3249 N 0.61308 0.82616 0.92947 0.0
H3250 H 0.64987 0.82221 0.82699 0.0
H3251 H 0.62077 0.81457 0.84766 0.0
H3252 H 0.60363 0.82831 0.95652 0.0
H3253 H 0.60845 0.83022 0.89773 0.0
H3254 H 0.7133 0.8304 0.93522 0.0
H3255 H 0.7133 0.8304 0.93522 0.0
H3256 H 0.68974 0.82926 0.0394 0.0
H3257 H 0.66147 0.82421 0.06041 0.0
C3258 C 0.1585 0.82275 0.89788 0.0
C3259 C 0.15399 0.84238 0.90279 0.0
C3260 C 0.16422 0.84526 0.98383 0.0
C3261 C 0.16676 0.82413 0.97983 0.0
N3262 N 0.15804 0.78838 0.93458 0.0
N3263 N 0.16433 0.87914 0.94457 0.0
C3264 C 0.16186 0.81169 0.93724 0.0
C3265 C 0.16012 0.85568 0.94413 0.0
N3266 N 0.16052 0.81537 0.85513 0.0
N3267 N 0.16432 0.85454 1.02601 0.0
H3268 H 0.16506 0.88851 0.91468 0.0
H3269 H 0.17085 0.89051 0.97308 0.0
H3270 H 0.16576 0.84643 0.05603 0.0
H3271 H 0.16003 0.86829 1.03147 0.0
H3272 H 0.16667 0.80304 0.84912 0.0
H3273 H 0.15905 0.82405 0.82584 0.0
H3274 H 0.15314 0.7783 0.90438 0.0
H3275 H 0.15529 0.77743 0.96311 0.0
C3276 C 0.32706 0.17365 0.81425 0.0
C3277 C 0.30436 0.15123 0.81597 0.0
C3278 C 0.31003 0.14285 0.73665 0.0
C3279 C 0.33275 0.1649 0.73563 0.0
N3280 N 0.36028 0.20421 0.76761 0.0
N3281 N 0.27934 0.1107 0.78386 0.0
C3282 C 0.34021 0.18136 0.77255 0.0
C3283 C 0.2969 0.13478 0.77838 0.0
N3284 N 0.33734 0.18612 0.85375 0.0
N3285 N 0.30138 0.12938 0.69768 0.0
H3286 H 0.27283 0.10276 0.81575 0.0
H3287 H 0.27414 0.09758 0.75824 0.0
H3288 H 0.31116 0.135 0.66721 0.0
H3289 H 0.28377 0.11434 0.69447 0.0
H3290 H 0.35477 0.20152 0.85554 0.0
H3291 H 0.32994 0.17892 0.88577 0.0
H3292 H 0.36583 0.21805 0.7919 0.0
H3293 H 0.36989 0.20999 0.73681 0.0
C3294 C 0.83203 0.166 0.74102 0.0
C3295 C 0.80992 0.16667 0.7423 0.0
C3296 C 0.80154 0.14852 0.81906 0.0
C3297 C 0.82377 0.1481 0.81759 0.0
N3298 N 0.8644 0.16608 0.78488 0.0
N3299 N 0.76975 0.1506 0.77696 0.0
C3300 C 0.84034 0.15968 0.78093 0.0
C3301 C 0.79347 0.15565 0.77965 0.0
N3302 N 0.84439 0.16989 0.70072 0.0
N3303 N 0.7889 0.14357 0.85925 0.0
H3304 H 0.76172 0.15208 0.74705 0.0
H3305 H 0.75663 0.14096 0.80194 0.0
H3306 H 0.79564 0.14071 0.88972 0.0
H3307 H 0.77377 0.14576 0.86411 0.0
H3308 H 0.85943 0.16743 0.69683 0.0
H3309 H 0.83741 0.17188 0.66977 0.0
H3310 H 0.87746 0.17585 0.75983 0.0
H3311 H 0.87226 0.16554 0.81578 0.0
C3312 C 0.82114 0.68702 0.78062 0.0
C3313 C 0.83168 0.6799 0.81618 0.0
C3314 C 0.82114 0.64206 0.77556 0.0
C3315 C 0.81047 0.64892 0.73989 0.0
N3316 N 0.80866 0.68171 0.7014 0.0
N3317 N 0.83093 0.64618 0.85585 0.0
C3318 C 0.81261 0.67241 0.74058 0.0
C3319 C 0.82853 0.6561 0.81607 0.0
N3320 N 0.81796 0.70681 0.78569 0.0
N3321 N 0.82581 0.62325 0.77023 0.0
H3322 H 0.83377 0.65523 0.88702 0.0
H3323 H 0.82632 0.62786 0.85885 0.0
H3324 H 0.82506 0.61528 0.73878 0.0
H3325 H 0.83465 0.61855 0.79496 0.0
H3326 H 0.80878 0.71162 0.76199 0.0
H3327 H 0.82054 0.71591 0.81657 0.0
H3328 H 0.81252 0.69978 0.69805 0.0
H3329 H 0.80513 0.67251 0.6703 0.0
C3330 C 0.84103 0.66524 0.24769 0.0
C3331 C 0.8178 0.64338 0.24614 0.0
C3332 C 0.81065 0.65025 0.32563 0.0
C3333 C 0.8324 0.67312 0.32474 0.0
N3334 N 0.87351 0.69534 0.29533 0.0
N3335 N 0.77761 0.61931 0.28121 0.0
C3336 C 0.84934 0.67849 0.28904 0.0
C3337 C 0.80183 0.63667 0.28464 0.0
N3338 N 0.85405 0.67483 0.2084 0.0
N3339 N 0.79901 0.64119 0.36626 0.0
H3340 H 0.76886 0.61228 0.25023 0.0
H3341 H 0.76522 0.61502 0.30796 0.0
H3342 H 0.80625 0.65061 0.39683 0.0
H3343 H 0.7844 0.62333 0.37022 0.0
H3344 H 0.87001 0.69191 0.20684 0.0
H3345 H 0.84675 0.66767 0.17639 0.0
H3346 H 0.88699 0.69905 0.27101 0.0
H3347 H 0.88058 0.70267 0.32738 0.0
C3348 C 0.31947 0.15681 0.2379 0.0
C3349 C 0.34428 0.16593 0.24959 0.0
C3350 C 0.3336 0.16158 0.33071 0.0
C3351 C 0.30882 0.15306 0.31902 0.0
N3352 N 0.28064 0.15162 0.26161 0.0
N3353 N 0.37253 0.16702 0.3061 0.0
C3354 C 0.30223 0.15289 0.27261 0.0
C3355 C 0.35086 0.16574 0.29578 0.0
N3356 N 0.31235 0.1512 0.19343 0.0
N3357 N 0.34073 0.16655 0.37531 0.0
H3358 H 0.37751 0.1651 0.33913 0.0
H3359 H 0.38366 0.16595 0.28107 0.0
H3360 H 0.32856 0.16481 0.40111 0.0
H3361 H 0.35897 0.1751 0.38573 0.0
H3362 H 0.29406 0.14191 0.18324 0.0
H3363 H 0.32474 0.15346 0.1676 0.0
H3364 H 0.27582 0.15326 0.22828 0.0
H3365 H 0.26953 0.15314 0.28602 0.0
C3366 C 0.83095 0.17557 0.30909 0.0
C3367 C 0.83061 0.15294 0.31177 0.0
C3368 C 0.81076 0.14133 0.23694 0.0
C3369 C 0.81139 0.1641 0.23431 0.0
N3370 N 0.83164 0.20639 0.25897 0.0
N3371 N 0.81161 0.11088 0.28604 0.0
C3372 C 0.82439 0.18236 0.26764 0.0
C3373 C 0.81813 0.13477 0.27788 0.0
N3374 N 0.83565 0.1897 0.34722 0.0
N3375 N 0.80493 0.12682 0.1991 0.0
H3376 H 0.8128 0.10457 0.31834 0.0
H3377 H 0.80135 0.09664 0.26335 0.0
H3378 H 0.80187 0.13236 0.16743 0.0
H3379 H 0.8065 0.11114 0.1975 0.0
H3380 H 0.83409 0.2054 0.3481 0.0
H3381 H 0.8373 0.18364 0.37948 0.0
H3382 H 0.84143 0.22052 0.28212 0.0
H3383 H 0.83142 0.21276 0.22618 0.0
loop_
_geom_bond_atom_site_label_1
_geom_bond_atom_site_label_2
_geom_bond_distance
_geom_bond_site_symmetry_2
_ccdc_geom_bond_type
Nd0 C2 2.836 . S
Nd0 O20 2.500 . S
Nd0 O21 2.492 . S
Nd0 O22 2.487 . S
Nd0 O23 2.682 1_554 S
Nd0 O24 2.410 . S
Nd0 O29 2.414 . S
Nd0 O31 2.424 1_554 S
Nd1 C11 2.836 . S
Nd1 O23 2.414 . S
Nd1 O25 2.424 1_556 S
Nd1 O26 2.500 . S
Nd1 O27 2.492 . S
Nd1 O28 2.487 . S
Nd1 O29 2.682 1_556 S
Nd1 O30 2.410 . S
C2 Nd0 2.836 . S
C2 C3 1.498 . S
C2 O20 1.258 . S
C2 O21 1.239 . S
C3 C2 1.498 . S
C3 C4 1.366 . S
C3 C8 1.407 . S
C4 C3 1.366 . S
C4 C5 1.392 . S
C4 H32 0.930 . S
C5 C4 1.392 . S
C5 C6 1.398 . S
C5 H33 0.929 . S
C6 C5 1.398 . S
C6 C7 1.352 . S
C7 C6 1.352 . S
C7 C8 1.384 . S
C7 H34 0.930 . S
C8 C3 1.407 . S
C8 C7 1.384 . S
C8 H35 0.929 . S
C9 O22 1.241 1_556 S
C9 O23 1.273 . S
C10 O24 1.251 . S
C10 O25 1.268 . S
C11 Nd1 2.836 . S
C11 C12 1.498 . S
C11 O26 1.258 . S
C11 O27 1.239 . S
C12 C11 1.498 . S
C12 C13 1.366 . S
C12 C17 1.407 . S
C13 C12 1.366 . S
C13 C14 1.392 . S
C13 H36 0.930 . S
C14 C13 1.392 . S
C14 C15 1.398 . S
C14 H37 0.929 . S
C15 C14 1.398 . S
C15 C16 1.352 . S
C16 C15 1.352 . S
C16 C17 1.384 . S
C16 H38 0.930 . S
C17 C12 1.407 . S
C17 C16 1.384 . S
C17 H39 0.929 . S
C18 O28 1.241 1_554 S
C18 O29 1.273 . S
C19 O30 1.251 . S
C19 O31 1.268 . S
O20 Nd0 2.500 . S
O20 C2 1.258 . S
O21 Nd0 2.492 . S
O21 C2 1.239 . S
O22 Nd0 2.487 . S
O22 C9 1.241 1_554 S
O23 Nd0 2.682 1_556 S
O23 Nd1 2.414 . S
O23 C9 1.273 . S
O24 Nd0 2.410 . S
O24 C10 1.251 . S
O25 Nd1 2.424 1_554 S
O25 C10 1.268 . S
O26 Nd1 2.500 . S
O26 C11 1.258 . S
O27 Nd1 2.492 . S
O27 C11 1.239 . S
O28 Nd1 2.487 . S
O28 C18 1.241 1_556 S
O29 Nd0 2.414 . S
O29 Nd1 2.682 1_554 S
O29 C18 1.273 . S
O30 Nd1 2.410 . S
O30 C19 1.251 . S
O31 Nd0 2.424 1_556 S
O31 C19 1.268 . S
H32 C4 0.930 . S
H33 C5 0.929 . S
H34 C7 0.930 . S
H35 C8 0.929 . S
H36 C13 0.930 . S
H37 C14 0.929 . S
H38 C16 0.930 . S
H39 C17 0.929 . S
Nd40 C42 2.836 . S
Nd40 O60 2.500 . S
Nd40 O61 2.492 . S
Nd40 O62 2.487 . S
Nd40 O63 2.682 1_554 S
Nd40 O64 2.410 . S
Nd40 O69 2.414 . S
Nd40 O71 2.424 1_554 S
Nd41 C51 2.836 . S
Nd41 O63 2.414 . S
Nd41 O65 2.424 1_556 S
Nd41 O66 2.500 . S
Nd41 O67 2.492 . S
Nd41 O68 2.487 . S
Nd41 O69 2.682 1_556 S
Nd41 O70 2.410 . S
C42 Nd40 2.836 . S
C42 C43 1.498 . S
C42 O60 1.258 . S
C42 O61 1.239 . S
C43 C42 1.498 . S
C43 C44 1.366 . S
C43 C48 1.407 . S
C44 C43 1.366 . S
C44 C45 1.392 . S
C44 H72 0.930 . S
C45 C44 1.392 . S
C45 C46 1.398 . S
C45 H73 0.929 . S
C46 C45 1.398 . S
C46 C47 1.352 . S
C47 C46 1.352 . S
C47 C48 1.384 . S
C47 H74 0.930 . S
C48 C43 1.407 . S
C48 C47 1.384 . S
C48 H75 0.929 . S
C49 O62 1.241 1_556 S
C49 O63 1.273 . S
C50 O64 1.251 . S
C50 O65 1.268 . S
C51 Nd41 2.836 . S
C51 C52 1.498 . S
C51 O66 1.258 . S
C51 O67 1.239 . S
C52 C51 1.498 . S
C52 C53 1.366 . S
C52 C57 1.407 . S
C53 C52 1.366 . S
C53 C54 1.392 . S
C53 H76 0.930 . S
C54 C53 1.392 . S
C54 C55 1.398 . S
C54 H77 0.929 . S
C55 C54 1.398 . S
C55 C56 1.352 . S
C56 C55 1.352 . S
C56 C57 1.384 . S
C56 H78 0.930 . S
C57 C52 1.407 . S
C57 C56 1.384 . S
C57 H79 0.929 . S
C58 O68 1.241 1_554 S
C58 O69 1.273 . S
C59 O70 1.251 . S
C59 O71 1.268 . S
O60 Nd40 2.500 . S
O60 C42 1.258 . S
O61 Nd40 2.492 . S
O61 C42 1.239 . S
O62 Nd40 2.487 . S
O62 C49 1.241 1_554 S
O63 Nd40 2.682 1_556 S
O63 Nd41 2.414 . S
O63 C49 1.273 . S
O64 Nd40 2.410 . S
O64 C50 1.251 . S
O65 Nd41 2.424 1_554 S
O65 C50 1.268 . S
O66 Nd41 2.500 . S
O66 C51 1.258 . S
O67 Nd41 2.492 . S
O67 C51 1.239 . S
O68 Nd41 2.487 . S
O68 C58 1.241 1_556 S
O69 Nd40 2.414 . S
O69 Nd41 2.682 1_554 S
O69 C58 1.273 . S
O70 Nd41 2.410 . S
O70 C59 1.251 . S
O71 Nd40 2.424 1_556 S
O71 C59 1.268 . S
H72 C44 0.930 . S
H73 C45 0.929 . S
H74 C47 0.930 . S
H75 C48 0.929 . S
H76 C53 0.930 . S
H77 C54 0.929 . S
H78 C56 0.930 . S
H79 C57 0.929 . S
Nd80 C82 2.836 . S
Nd80 O100 2.500 . S
Nd80 O101 2.492 . S
Nd80 O102 2.487 . S
Nd80 O103 2.682 1_554 S
Nd80 O104 2.410 . S
Nd80 O109 2.414 . S
Nd80 O111 2.424 1_554 S
Nd81 C91 2.836 . S
Nd81 O103 2.414 . S
Nd81 O105 2.424 1_556 S
Nd81 O106 2.500 . S
Nd81 O107 2.492 . S
Nd81 O108 2.487 . S
Nd81 O109 2.682 1_556 S
Nd81 O110 2.410 . S
C82 Nd80 2.836 . S
C82 C83 1.498 . S
C82 O100 1.258 . S
C82 O101 1.239 . S
C83 C82 1.498 . S
C83 C84 1.366 . S
C83 C88 1.407 . S
C84 C83 1.366 . S
C84 C85 1.392 . S
C84 H112 0.930 . S
C85 C84 1.392 . S
C85 C86 1.398 . S
C85 H113 0.929 . S
C86 C85 1.398 . S
C86 C87 1.352 . S
C87 C86 1.352 . S
C87 C88 1.384 . S
C87 H114 0.930 . S
C88 C83 1.407 . S
C88 C87 1.384 . S
C88 H115 0.929 . S
C89 O102 1.241 1_556 S
C89 O103 1.273 . S
C90 O104 1.251 . S
C90 O105 1.268 . S
C91 Nd81 2.836 . S
C91 C92 1.498 . S
C91 O106 1.258 . S
C91 O107 1.239 . S
C92 C91 1.498 . S
C92 C93 1.366 . S
C92 C97 1.407 . S
C93 C92 1.366 . S
C93 C94 1.392 . S
C93 H116 0.930 . S
C94 C93 1.392 . S
C94 C95 1.398 . S
C94 H117 0.929 . S
C95 C94 1.398 . S
C95 C96 1.352 . S
C96 C95 1.352 . S
C96 C97 1.384 . S
C96 H118 0.930 . S
C97 C92 1.407 . S
C97 C96 1.384 . S
C97 H119 0.929 . S
C98 O108 1.241 1_554 S
C98 O109 1.273 . S
C99 O110 1.251 . S
C99 O111 1.268 . S
O100 Nd80 2.500 . S
O100 C82 1.258 . S
O101 Nd80 2.492 . S
O101 C82 1.239 . S
O102 Nd80 2.487 . S
O102 C89 1.241 1_554 S
O103 Nd80 2.682 1_556 S
O103 Nd81 2.414 . S
O103 C89 1.273 . S
O104 Nd80 2.410 . S
O104 C90 1.251 . S
O105 Nd81 2.424 1_554 S
O105 C90 1.268 . S
O106 Nd81 2.500 . S
O106 C91 1.258 . S
O107 Nd81 2.492 . S
O107 C91 1.239 . S
O108 Nd81 2.487 . S
O108 C98 1.241 1_556 S
O109 Nd80 2.414 . S
O109 Nd81 2.682 1_554 S
O109 C98 1.273 . S
O110 Nd81 2.410 . S
O110 C99 1.251 . S
O111 Nd80 2.424 1_556 S
O111 C99 1.268 . S
H112 C84 0.930 . S
H113 C85 0.929 . S
H114 C87 0.930 . S
H115 C88 0.929 . S
H116 C93 0.930 . S
H117 C94 0.929 . S
H118 C96 0.930 . S
H119 C97 0.929 . S
Nd120 C122 2.836 . S
Nd120 O140 2.500 . S
Nd120 O141 2.492 . S
Nd120 O142 2.487 . S
Nd120 O143 2.682 . S
Nd120 O144 2.410 . S
Nd120 O149 2.414 . S
Nd120 O151 2.424 . S
Nd121 C131 2.836 . S
Nd121 O143 2.414 . S
Nd121 O145 2.424 . S
Nd121 O146 2.500 . S
Nd121 O147 2.492 . S
Nd121 O148 2.487 . S
Nd121 O149 2.682 . S
Nd121 O150 2.410 . S
C122 Nd120 2.836 . S
C122 C123 1.498 . S
C122 O140 1.258 . S
C122 O141 1.239 . S
C123 C122 1.498 . S
C123 C124 1.366 . S
C123 C128 1.407 . S
C124 C123 1.366 . S
C124 C125 1.392 . S
C124 H152 0.930 . S
C125 C124 1.392 . S
C125 C126 1.398 . S
C125 H153 0.929 . S
C126 C125 1.398 . S
C126 C127 1.352 . S
C127 C126 1.352 . S
C127 C128 1.384 . S
C127 H154 0.930 . S
C128 C123 1.407 . S
C128 C127 1.384 . S
C128 H155 0.929 . S
C129 O142 1.241 . S
C129 O143 1.273 . S
C130 O144 1.251 . S
C130 O145 1.268 . S
C131 Nd121 2.836 . S
C131 C132 1.498 . S
C131 O146 1.258 . S
C131 O147 1.239 . S
C132 C131 1.498 . S
C132 C133 1.366 . S
C132 C137 1.407 . S
C133 C132 1.366 . S
C133 C134 1.392 . S
C133 H156 0.930 . S
C134 C133 1.392 . S
C134 C135 1.398 . S
C134 H157 0.929 . S
C135 C134 1.398 . S
C135 C136 1.352 . S
C136 C135 1.352 . S
C136 C137 1.384 . S
C136 H158 0.930 . S
C137 C132 1.407 . S
C137 C136 1.384 . S
C137 H159 0.929 . S
C138 O148 1.241 . S
C138 O149 1.273 . S
C139 O150 1.251 . S
C139 O151 1.268 . S
O140 Nd120 2.500 . S
O140 C122 1.258 . S
O141 Nd120 2.492 . S
O141 C122 1.239 . S
O142 Nd120 2.487 . S
O142 C129 1.241 . S
O143 Nd120 2.682 . S
O143 Nd121 2.414 . S
O143 C129 1.273 . S
O144 Nd120 2.410 . S
O144 C130 1.251 . S
O145 Nd121 2.424 . S
O145 C130 1.268 . S
O146 Nd121 2.500 . S
O146 C131 1.258 . S
O147 Nd121 2.492 . S
O147 C131 1.239 . S
O148 Nd121 2.487 . S
O148 C138 1.241 . S
O149 Nd120 2.414 . S
O149 Nd121 2.682 . S
O149 C138 1.273 . S
O150 Nd121 2.410 . S
O150 C139 1.251 . S
O151 Nd120 2.424 . S
O151 C139 1.268 . S
H152 C124 0.930 . S
H153 C125 0.929 . S
H154 C127 0.930 . S
H155 C128 0.929 . S
H156 C133 0.930 . S
H157 C134 0.929 . S
H158 C136 0.930 . S
H159 C137 0.929 . S
Nd160 C162 2.836 . S
Nd160 O180 2.500 . S
Nd160 O181 2.492 . S
Nd160 O182 2.487 . S
Nd160 O183 2.682 . S
Nd160 O184 2.410 . S
Nd160 O189 2.414 . S
Nd160 O191 2.424 . S
Nd161 C171 2.836 . S
Nd161 O183 2.414 . S
Nd161 O185 2.424 . S
Nd161 O186 2.500 . S
Nd161 O187 2.492 . S
Nd161 O188 2.487 . S
Nd161 O189 2.682 . S
Nd161 O190 2.410 . S
C162 Nd160 2.836 . S
C162 C163 1.498 . S
C162 O180 1.258 . S
C162 O181 1.239 . S
C163 C162 1.498 . S
C163 C164 1.366 . S
C163 C168 1.407 . S
C164 C163 1.366 . S
C164 C165 1.392 . S
C164 H192 0.930 . S
C165 C164 1.392 . S
C165 C166 1.398 . S
C165 H193 0.929 . S
C166 C165 1.398 . S
C166 C167 1.352 . S
C167 C166 1.352 . S
C167 C168 1.384 . S
C167 H194 0.930 . S
C168 C163 1.407 . S
C168 C167 1.384 . S
C168 H195 0.929 . S
C169 O182 1.241 . S
C169 O183 1.273 . S
C170 O184 1.251 . S
C170 O185 1.268 . S
C171 Nd161 2.836 . S
C171 C172 1.498 . S
C171 O186 1.258 . S
C171 O187 1.239 . S
C172 C171 1.498 . S
C172 C173 1.366 . S
C172 C177 1.407 . S
C173 C172 1.366 . S
C173 C174 1.392 . S
C173 H196 0.930 . S
C174 C173 1.392 . S
C174 C175 1.398 . S
C174 H197 0.929 . S
C175 C174 1.398 . S
C175 C176 1.352 . S
C176 C175 1.352 . S
C176 C177 1.384 . S
C176 H198 0.930 . S
C177 C172 1.407 . S
C177 C176 1.384 . S
C177 H199 0.929 . S
C178 O188 1.241 . S
C178 O189 1.273 . S
C179 O190 1.251 . S
C179 O191 1.268 . S
O180 Nd160 2.500 . S
O180 C162 1.258 . S
O181 Nd160 2.492 . S
O181 C162 1.239 . S
O182 Nd160 2.487 . S
O182 C169 1.241 . S
O183 Nd160 2.682 . S
O183 Nd161 2.414 . S
O183 C169 1.273 . S
O184 Nd160 2.410 . S
O184 C170 1.251 . S
O185 Nd161 2.424 . S
O185 C170 1.268 . S
O186 Nd161 2.500 . S
O186 C171 1.258 . S
O187 Nd161 2.492 . S
O187 C171 1.239 . S
O188 Nd161 2.487 . S
O188 C178 1.241 . S
O189 Nd160 2.414 . S
O189 Nd161 2.682 . S
O189 C178 1.273 . S
O190 Nd161 2.410 . S
O190 C179 1.251 . S
O191 Nd160 2.424 . S
O191 C179 1.268 . S
H192 C164 0.930 . S
H193 C165 0.929 . S
H194 C167 0.930 . S
H195 C168 0.929 . S
H196 C173 0.930 . S
H197 C174 0.929 . S
H198 C176 0.930 . S
H199 C177 0.929 . S
Nd200 C202 2.836 . S
Nd200 O220 2.500 . S
Nd200 O221 2.492 . S
Nd200 O222 2.487 . S
Nd200 O223 2.682 . S
Nd200 O224 2.410 . S
Nd200 O229 2.414 . S
Nd200 O231 2.424 . S
Nd201 C211 2.836 . S
Nd201 O223 2.414 . S
Nd201 O225 2.424 . S
Nd201 O226 2.500 . S
Nd201 O227 2.492 . S
Nd201 O228 2.487 . S
Nd201 O229 2.682 . S
Nd201 O230 2.410 . S
C202 Nd200 2.836 . S
C202 C203 1.498 . S
C202 O220 1.258 . S
C202 O221 1.239 . S
C203 C202 1.498 . S
C203 C204 1.366 . S
C203 C208 1.407 . S
C204 C203 1.366 . S
C204 C205 1.392 . S
C204 H232 0.930 . S
C205 C204 1.392 . S
C205 C206 1.398 . S
C205 H233 0.929 . S
C206 C205 1.398 . S
C206 C207 1.352 . S
C207 C206 1.352 . S
C207 C208 1.384 . S
C207 H234 0.930 . S
C208 C203 1.407 . S
C208 C207 1.384 . S
C208 H235 0.929 . S
C209 O222 1.241 . S
C209 O223 1.273 . S
C210 O224 1.251 . S
C210 O225 1.268 . S
C211 Nd201 2.836 . S
C211 C212 1.498 . S
C211 O226 1.258 . S
C211 O227 1.239 . S
C212 C211 1.498 . S
C212 C213 1.366 . S
C212 C217 1.407 . S
C213 C212 1.366 . S
C213 C214 1.392 . S
C213 H236 0.930 . S
C214 C213 1.392 . S
C214 C215 1.398 . S
C214 H237 0.929 . S
C215 C214 1.398 . S
C215 C216 1.352 . S
C216 C215 1.352 . S
C216 C217 1.384 . S
C216 H238 0.930 . S
C217 C212 1.407 . S
C217 C216 1.384 . S
C217 H239 0.929 . S
C218 O228 1.241 . S
C218 O229 1.273 . S
C219 O230 1.251 . S
C219 O231 1.268 . S
O220 Nd200 2.500 . S
O220 C202 1.258 . S
O221 Nd200 2.492 . S
O221 C202 1.239 . S
O222 Nd200 2.487 . S
O222 C209 1.241 . S
O223 Nd200 2.682 . S
O223 Nd201 2.414 . S
O223 C209 1.273 . S
O224 Nd200 2.410 . S
O224 C210 1.251 . S
O225 Nd201 2.424 . S
O225 C210 1.268 . S
O226 Nd201 2.500 . S
O226 C211 1.258 . S
O227 Nd201 2.492 . S
O227 C211 1.239 . S
O228 Nd201 2.487 . S
O228 C218 1.241 . S
O229 Nd200 2.414 . S
O229 Nd201 2.682 . S
O229 C218 1.273 . S
O230 Nd201 2.410 . S
O230 C219 1.251 . S
O231 Nd200 2.424 . S
O231 C219 1.268 . S
H232 C204 0.930 . S
H233 C205 0.929 . S
H234 C207 0.930 . S
H235 C208 0.929 . S
H236 C213 0.930 . S
H237 C214 0.929 . S
H238 C216 0.930 . S
H239 C217 0.929 . S
Nd240 C242 2.836 . S
Nd240 O260 2.500 . S
Nd240 O261 2.492 . S
Nd240 O262 2.487 . S
Nd240 O263 2.682 . S
Nd240 O264 2.410 . S
Nd240 O269 2.414 . S
Nd240 O271 2.424 . S
Nd241 C251 2.836 . S
Nd241 O263 2.414 . S
Nd241 O265 2.424 . S
Nd241 O266 2.500 . S
Nd241 O267 2.492 . S
Nd241 O268 2.487 . S
Nd241 O269 2.682 . S
Nd241 O270 2.410 . S
C242 Nd240 2.836 . S
C242 C243 1.498 . S
C242 O260 1.258 . S
C242 O261 1.239 . S
C243 C242 1.498 . S
C243 C244 1.366 . S
C243 C248 1.407 . S
C244 C243 1.366 . S
C244 C245 1.392 . S
C244 H272 0.930 . S
C245 C244 1.392 . S
C245 C246 1.398 . S
C245 H273 0.929 . S
C246 C245 1.398 . S
C246 C247 1.352 . S
C247 C246 1.352 . S
C247 C248 1.384 . S
C247 H274 0.930 . S
C248 C243 1.407 . S
C248 C247 1.384 . S
C248 H275 0.929 . S
C249 O262 1.241 . S
C249 O263 1.273 . S
C250 O264 1.251 . S
C250 O265 1.268 . S
C251 Nd241 2.836 . S
C251 C252 1.498 1_554 S
C251 O266 1.258 . S
C251 O267 1.239 . S
C252 C251 1.498 1_556 S
C252 C253 1.366 . S
C252 C257 1.407 . S
C253 C252 1.366 . S
C253 C254 1.392 . S
C253 H276 0.930 . S
C254 C253 1.392 . S
C254 C255 1.398 . S
C254 H277 0.929 . S
C255 C254 1.398 . S
C255 C256 1.352 . S
C256 C255 1.352 . S
C256 C257 1.384 . S
C256 H278 0.930 . S
C257 C252 1.407 . S
C257 C256 1.384 . S
C257 H279 0.929 . S
C258 O268 1.241 . S
C258 O269 1.273 . S
C259 O270 1.251 . S
C259 O271 1.268 . S
O260 Nd240 2.500 . S
O260 C242 1.258 . S
O261 Nd240 2.492 . S
O261 C242 1.239 . S
O262 Nd240 2.487 . S
O262 C249 1.241 . S
O263 Nd240 2.682 . S
O263 Nd241 2.414 . S
O263 C249 1.273 . S
O264 Nd240 2.410 . S
O264 C250 1.251 . S
O265 Nd241 2.424 . S
O265 C250 1.268 . S
O266 Nd241 2.500 . S
O266 C251 1.258 . S
O267 Nd241 2.492 . S
O267 C251 1.239 . S
O268 Nd241 2.487 . S
O268 C258 1.241 . S
O269 Nd240 2.414 . S
O269 Nd241 2.682 . S
O269 C258 1.273 . S
O270 Nd241 2.410 . S
O270 C259 1.251 . S
O271 Nd240 2.424 . S
O271 C259 1.268 . S
H272 C244 0.930 . S
H273 C245 0.929 . S
H274 C247 0.930 . S
H275 C248 0.929 . S
H276 C253 0.930 . S
H277 C254 0.929 . S
H278 C256 0.930 . S
H279 C257 0.929 . S
Nd280 C282 2.836 . S
Nd280 O300 2.500 . S
Nd280 O301 2.492 . S
Nd280 O302 2.487 . S
Nd280 O303 2.682 . S
Nd280 O304 2.410 . S
Nd280 O309 2.414 . S
Nd280 O311 2.424 . S
Nd281 C291 2.836 . S
Nd281 O303 2.414 . S
Nd281 O305 2.424 . S
Nd281 O306 2.500 . S
Nd281 O307 2.492 . S
Nd281 O308 2.487 . S
Nd281 O309 2.682 . S
Nd281 O310 2.410 . S
C282 Nd280 2.836 . S
C282 C283 1.498 . S
C282 O300 1.258 . S
C282 O301 1.239 . S
C283 C282 1.498 . S
C283 C284 1.366 . S
C283 C288 1.407 . S
C284 C283 1.366 . S
C284 C285 1.392 . S
C284 H312 0.930 . S
C285 C284 1.392 . S
C285 C286 1.398 . S
C285 H313 0.929 . S
C286 C285 1.398 . S
C286 C287 1.352 . S
C287 C286 1.352 . S
C287 C288 1.384 . S
C287 H314 0.930 . S
C288 C283 1.407 . S
C288 C287 1.384 . S
C288 H315 0.929 . S
C289 O302 1.241 . S
C289 O303 1.273 . S
C290 O304 1.251 . S
C290 O305 1.268 . S
C291 Nd281 2.836 . S
C291 C292 1.498 1_554 S
C291 O306 1.258 . S
C291 O307 1.239 . S
C292 C291 1.498 1_556 S
C292 C293 1.366 . S
C292 C297 1.407 . S
C293 C292 1.366 . S
C293 C294 1.392 . S
C293 H316 0.930 . S
C294 C293 1.392 . S
C294 C295 1.398 . S
C294 H317 0.929 . S
C295 C294 1.398 . S
C295 C296 1.352 . S
C296 C295 1.352 . S
C296 C297 1.384 . S
C296 H318 0.930 . S
C297 C292 1.407 . S
C297 C296 1.384 . S
C297 H319 0.929 . S
C298 O308 1.241 . S
C298 O309 1.273 . S
C299 O310 1.251 . S
C299 O311 1.268 . S
O300 Nd280 2.500 . S
O300 C282 1.258 . S
O301 Nd280 2.492 . S
O301 C282 1.239 . S
O302 Nd280 2.487 . S
O302 C289 1.241 . S
O303 Nd280 2.682 . S
O303 Nd281 2.414 . S
O303 C289 1.273 . S
O304 Nd280 2.410 . S
O304 C290 1.251 . S
O305 Nd281 2.424 . S
O305 C290 1.268 . S
O306 Nd281 2.500 . S
O306 C291 1.258 . S
O307 Nd281 2.492 . S
O307 C291 1.239 . S
O308 Nd281 2.487 . S
O308 C298 1.241 . S
O309 Nd280 2.414 . S
O309 Nd281 2.682 . S
O309 C298 1.273 . S
O310 Nd281 2.410 . S
O310 C299 1.251 . S
O311 Nd280 2.424 . S
O311 C299 1.268 . S
H312 C284 0.930 . S
H313 C285 0.929 . S
H314 C287 0.930 . S
H315 C288 0.929 . S
H316 C293 0.930 . S
H317 C294 0.929 . S
H318 C296 0.930 . S
H319 C297 0.929 . S
Nd320 C322 2.836 . S
Nd320 O340 2.500 . S
Nd320 O341 2.492 . S
Nd320 O342 2.487 . S
Nd320 O343 2.682 . S
Nd320 O344 2.410 . S
Nd320 O349 2.414 . S
Nd320 O351 2.424 . S
Nd321 C331 2.836 . S
Nd321 O343 2.414 . S
Nd321 O345 2.424 . S
Nd321 O346 2.500 . S
Nd321 O347 2.492 . S
Nd321 O348 2.487 . S
Nd321 O349 2.682 . S
Nd321 O350 2.410 . S
C322 Nd320 2.836 . S
C322 C323 1.498 . S
C322 O340 1.258 . S
C322 O341 1.239 . S
C323 C322 1.498 . S
C323 C324 1.366 . S
C323 C328 1.407 . S
C324 C323 1.366 . S
C324 C325 1.392 . S
C324 H352 0.930 . S
C325 C324 1.392 . S
C325 C326 1.398 . S
C325 H353 0.929 . S
C326 C325 1.398 . S
C326 C327 1.352 . S
C327 C326 1.352 . S
C327 C328 1.384 . S
C327 H354 0.930 . S
C328 C323 1.407 . S
C328 C327 1.384 . S
C328 H355 0.929 . S
C329 O342 1.241 . S
C329 O343 1.273 . S
C330 O344 1.251 . S
C330 O345 1.268 . S
C331 Nd321 2.836 . S
C331 C332 1.498 1_554 S
C331 O346 1.258 . S
C331 O347 1.239 . S
C332 C331 1.498 1_556 S
C332 C333 1.366 . S
C332 C337 1.407 . S
C333 C332 1.366 . S
C333 C334 1.392 . S
C333 H356 0.930 . S
C334 C333 1.392 . S
C334 C335 1.398 . S
C334 H357 0.929 . S
C335 C334 1.398 . S
C335 C336 1.352 . S
C336 C335 1.352 . S
C336 C337 1.384 . S
C336 H358 0.930 . S
C337 C332 1.407 . S
C337 C336 1.384 . S
C337 H359 0.929 . S
C338 O348 1.241 . S
C338 O349 1.273 . S
C339 O350 1.251 . S
C339 O351 1.268 . S
O340 Nd320 2.500 . S
O340 C322 1.258 . S
O341 Nd320 2.492 . S
O341 C322 1.239 . S
O342 Nd320 2.487 . S
O342 C329 1.241 . S
O343 Nd320 2.682 . S
O343 Nd321 2.414 . S
O343 C329 1.273 . S
O344 Nd320 2.410 . S
O344 C330 1.251 . S
O345 Nd321 2.424 . S
O345 C330 1.268 . S
O346 Nd321 2.500 . S
O346 C331 1.258 . S
O347 Nd321 2.492 . S
O347 C331 1.239 . S
O348 Nd321 2.487 . S
O348 C338 1.241 . S
O349 Nd320 2.414 . S
O349 Nd321 2.682 . S
O349 C338 1.273 . S
O350 Nd321 2.410 . S
O350 C339 1.251 . S
O351 Nd320 2.424 . S
O351 C339 1.268 . S
H352 C324 0.930 . S
H353 C325 0.929 . S
H354 C327 0.930 . S
H355 C328 0.929 . S
H356 C333 0.930 . S
H357 C334 0.929 . S
H358 C336 0.930 . S
H359 C337 0.929 . S
Nd360 C362 2.836 . S
Nd360 O380 2.500 . S
Nd360 O381 2.492 . S
Nd360 O382 2.487 . S
Nd360 O383 2.682 . S
Nd360 O384 2.410 . S
Nd360 O389 2.414 . S
Nd360 O391 2.424 . S
Nd361 C371 2.836 . S
Nd361 O383 2.414 . S
Nd361 O385 2.424 . S
Nd361 O386 2.500 . S
Nd361 O387 2.492 . S
Nd361 O388 2.487 . S
Nd361 O389 2.682 . S
Nd361 O390 2.410 . S
C362 Nd360 2.836 . S
C362 C363 1.498 . S
C362 O380 1.258 . S
C362 O381 1.239 . S
C363 C362 1.498 . S
C363 C364 1.366 . S
C363 C368 1.407 . S
C364 C363 1.366 . S
C364 C365 1.392 . S
C364 H392 0.930 . S
C365 C364 1.392 . S
C365 C366 1.398 . S
C365 H393 0.929 . S
C366 C365 1.398 . S
C366 C367 1.352 . S
C367 C366 1.352 . S
C367 C368 1.384 . S
C367 H394 0.930 . S
C368 C363 1.407 . S
C368 C367 1.384 . S
C368 H395 0.929 . S
C369 O382 1.241 . S
C369 O383 1.273 . S
C370 O384 1.251 . S
C370 O385 1.268 . S
C371 Nd361 2.836 . S
C371 C372 1.498 . S
C371 O386 1.258 . S
C371 O387 1.239 . S
C372 C371 1.498 . S
C372 C373 1.366 . S
C372 C377 1.407 . S
C373 C372 1.366 . S
C373 C374 1.392 . S
C373 H396 0.930 . S
C374 C373 1.392 . S
C374 C375 1.398 . S
C374 H397 0.929 . S
C375 C374 1.398 . S
C375 C376 1.352 . S
C376 C375 1.352 . S
C376 C377 1.384 . S
C376 H398 0.930 . S
C377 C372 1.407 . S
C377 C376 1.384 . S
C377 H399 0.929 . S
C378 O388 1.241 . S
C378 O389 1.273 . S
C379 O390 1.251 . S
C379 O391 1.268 . S
O380 Nd360 2.500 . S
O380 C362 1.258 . S
O381 Nd360 2.492 . S
O381 C362 1.239 . S
O382 Nd360 2.487 . S
O382 C369 1.241 . S
O383 Nd360 2.682 . S
O383 Nd361 2.414 . S
O383 C369 1.273 . S
O384 Nd360 2.410 . S
O384 C370 1.251 . S
O385 Nd361 2.424 . S
O385 C370 1.268 . S
O386 Nd361 2.500 . S
O386 C371 1.258 . S
O387 Nd361 2.492 . S
O387 C371 1.239 . S
O388 Nd361 2.487 . S
O388 C378 1.241 . S
O389 Nd360 2.414 . S
O389 Nd361 2.682 . S
O389 C378 1.273 . S
O390 Nd361 2.410 . S
O390 C379 1.251 . S
O391 Nd360 2.424 . S
O391 C379 1.268 . S
H392 C364 0.930 . S
H393 C365 0.929 . S
H394 C367 0.930 . S
H395 C368 0.929 . S
H396 C373 0.930 . S
H397 C374 0.929 . S
H398 C376 0.930 . S
H399 C377 0.929 . S
Nd400 C402 2.836 . S
Nd400 O420 2.500 . S
Nd400 O421 2.492 . S
Nd400 O422 2.487 . S
Nd400 O423 2.682 . S
Nd400 O424 2.410 . S
Nd400 O429 2.414 . S
Nd400 O431 2.424 . S
Nd401 C411 2.836 . S
Nd401 O423 2.414 . S
Nd401 O425 2.424 . S
Nd401 O426 2.500 . S
Nd401 O427 2.492 . S
Nd401 O428 2.487 . S
Nd401 O429 2.682 . S
Nd401 O430 2.410 . S
C402 Nd400 2.836 . S
C402 C403 1.498 . S
C402 O420 1.258 . S
C402 O421 1.239 . S
C403 C402 1.498 . S
C403 C404 1.366 . S
C403 C408 1.407 . S
C404 C403 1.366 . S
C404 C405 1.392 . S
C404 H432 0.930 . S
C405 C404 1.392 . S
C405 C406 1.398 . S
C405 H433 0.929 . S
C406 C405 1.398 . S
C406 C407 1.352 . S
C407 C406 1.352 . S
C407 C408 1.384 . S
C407 H434 0.930 . S
C408 C403 1.407 . S
C408 C407 1.384 . S
C408 H435 0.929 . S
C409 O422 1.241 . S
C409 O423 1.273 . S
C410 O424 1.251 . S
C410 O425 1.268 . S
C411 Nd401 2.836 . S
C411 C412 1.498 . S
C411 O426 1.258 . S
C411 O427 1.239 . S
C412 C411 1.498 . S
C412 C413 1.366 . S
C412 C417 1.407 . S
C413 C412 1.366 . S
C413 C414 1.392 . S
C413 H436 0.930 . S
C414 C413 1.392 . S
C414 C415 1.398 . S
C414 H437 0.929 . S
C415 C414 1.398 . S
C415 C416 1.352 . S
C416 C415 1.352 . S
C416 C417 1.384 . S
C416 H438 0.930 . S
C417 C412 1.407 . S
C417 C416 1.384 . S
C417 H439 0.929 . S
C418 O428 1.241 . S
C418 O429 1.273 . S
C419 O430 1.251 . S
C419 O431 1.268 . S
O420 Nd400 2.500 . S
O420 C402 1.258 . S
O421 Nd400 2.492 . S
O421 C402 1.239 . S
O422 Nd400 2.487 . S
O422 C409 1.241 . S
O423 Nd400 2.682 . S
O423 Nd401 2.414 . S
O423 C409 1.273 . S
O424 Nd400 2.410 . S
O424 C410 1.251 . S
O425 Nd401 2.424 . S
O425 C410 1.268 . S
O426 Nd401 2.500 . S
O426 C411 1.258 . S
O427 Nd401 2.492 . S
O427 C411 1.239 . S
O428 Nd401 2.487 . S
O428 C418 1.241 . S
O429 Nd400 2.414 . S
O429 Nd401 2.682 . S
O429 C418 1.273 . S
O430 Nd401 2.410 . S
O430 C419 1.251 . S
O431 Nd400 2.424 . S
O431 C419 1.268 . S
H432 C404 0.930 . S
H433 C405 0.929 . S
H434 C407 0.930 . S
H435 C408 0.929 . S
H436 C413 0.930 . S
H437 C414 0.929 . S
H438 C416 0.930 . S
H439 C417 0.929 . S
Nd440 C442 2.836 . S
Nd440 O460 2.500 . S
Nd440 O461 2.492 . S
Nd440 O462 2.487 . S
Nd440 O463 2.682 . S
Nd440 O464 2.410 . S
Nd440 O469 2.414 . S
Nd440 O471 2.424 . S
Nd441 C451 2.836 . S
Nd441 O463 2.414 . S
Nd441 O465 2.424 . S
Nd441 O466 2.500 . S
Nd441 O467 2.492 . S
Nd441 O468 2.487 . S
Nd441 O469 2.682 . S
Nd441 O470 2.410 . S
C442 Nd440 2.836 . S
C442 C443 1.498 . S
C442 O460 1.258 . S
C442 O461 1.239 . S
C443 C442 1.498 . S
C443 C444 1.366 . S
C443 C448 1.407 . S
C444 C443 1.366 . S
C444 C445 1.392 . S
C444 H472 0.930 . S
C445 C444 1.392 . S
C445 C446 1.398 . S
C445 H473 0.929 . S
C446 C445 1.398 . S
C446 C447 1.352 . S
C447 C446 1.352 . S
C447 C448 1.384 . S
C447 H474 0.930 . S
C448 C443 1.407 . S
C448 C447 1.384 . S
C448 H475 0.929 . S
C449 O462 1.241 . S
C449 O463 1.273 . S
C450 O464 1.251 . S
C450 O465 1.268 . S
C451 Nd441 2.836 . S
C451 C452 1.498 . S
C451 O466 1.258 . S
C451 O467 1.239 . S
C452 C451 1.498 . S
C452 C453 1.366 . S
C452 C457 1.407 . S
C453 C452 1.366 . S
C453 C454 1.392 . S
C453 H476 0.930 . S
C454 C453 1.392 . S
C454 C455 1.398 . S
C454 H477 0.929 . S
C455 C454 1.398 . S
C455 C456 1.352 . S
C456 C455 1.352 . S
C456 C457 1.384 . S
C456 H478 0.930 . S
C457 C452 1.407 . S
C457 C456 1.384 . S
C457 H479 0.929 . S
C458 O468 1.241 . S
C458 O469 1.273 . S
C459 O470 1.251 . S
C459 O471 1.268 . S
O460 Nd440 2.500 . S
O460 C442 1.258 . S
O461 Nd440 2.492 . S
O461 C442 1.239 . S
O462 Nd440 2.487 . S
O462 C449 1.241 . S
O463 Nd440 2.682 . S
O463 Nd441 2.414 . S
O463 C449 1.273 . S
O464 Nd440 2.410 . S
O464 C450 1.251 . S
O465 Nd441 2.424 . S
O465 C450 1.268 . S
O466 Nd441 2.500 . S
O466 C451 1.258 . S
O467 Nd441 2.492 . S
O467 C451 1.239 . S
O468 Nd441 2.487 . S
O468 C458 1.241 . S
O469 Nd440 2.414 . S
O469 Nd441 2.682 . S
O469 C458 1.273 . S
O470 Nd441 2.410 . S
O470 C459 1.251 . S
O471 Nd440 2.424 . S
O471 C459 1.268 . S
H472 C444 0.930 . S
H473 C445 0.929 . S
H474 C447 0.930 . S
H475 C448 0.929 . S
H476 C453 0.930 . S
H477 C454 0.929 . S
H478 C456 0.930 . S
H479 C457 0.929 . S
Nd480 C482 2.836 . S
Nd480 O500 2.500 . S
Nd480 O501 2.492 . S
Nd480 O502 2.487 . S
Nd480 O503 2.682 . S
Nd480 O504 2.410 . S
Nd480 O509 2.414 . S
Nd480 O511 2.424 . S
Nd481 C491 2.836 . S
Nd481 O503 2.414 . S
Nd481 O505 2.424 . S
Nd481 O506 2.500 . S
Nd481 O507 2.492 . S
Nd481 O508 2.487 . S
Nd481 O509 2.682 . S
Nd481 O510 2.410 . S
C482 Nd480 2.836 . S
C482 C483 1.498 . S
C482 O500 1.258 . S
C482 O501 1.239 . S
C483 C482 1.498 . S
C483 C484 1.366 . S
C483 C488 1.407 . S
C484 C483 1.366 . S
C484 C485 1.392 . S
C484 H512 0.930 . S
C485 C484 1.392 . S
C485 C486 1.398 . S
C485 H513 0.929 . S
C486 C485 1.398 . S
C486 C487 1.352 . S
C487 C486 1.352 . S
C487 C488 1.384 . S
C487 H514 0.930 . S
C488 C483 1.407 . S
C488 C487 1.384 . S
C488 H515 0.929 . S
C489 O502 1.241 . S
C489 O503 1.273 . S
C490 O504 1.251 . S
C490 O505 1.268 . S
C491 Nd481 2.836 . S
C491 C492 1.498 . S
C491 O506 1.258 . S
C491 O507 1.239 . S
C492 C491 1.498 . S
C492 C493 1.366 . S
C492 C497 1.407 . S
C493 C492 1.366 . S
C493 C494 1.392 . S
C493 H516 0.930 . S
C494 C493 1.392 . S
C494 C495 1.398 . S
C494 H517 0.929 . S
C495 C494 1.398 . S
C495 C496 1.352 . S
C496 C495 1.352 . S
C496 C497 1.384 . S
C496 H518 0.930 . S
C497 C492 1.407 . S
C497 C496 1.384 . S
C497 H519 0.929 . S
C498 O508 1.241 . S
C498 O509 1.273 . S
C499 O510 1.251 . S
C499 O511 1.268 . S
O500 Nd480 2.500 . S
O500 C482 1.258 . S
O501 Nd480 2.492 . S
O501 C482 1.239 . S
O502 Nd480 2.487 . S
O502 C489 1.241 . S
O503 Nd480 2.682 . S
O503 Nd481 2.414 . S
O503 C489 1.273 . S
O504 Nd480 2.410 . S
O504 C490 1.251 . S
O505 Nd481 2.424 . S
O505 C490 1.268 . S
O506 Nd481 2.500 . S
O506 C491 1.258 . S
O507 Nd481 2.492 . S
O507 C491 1.239 . S
O508 Nd481 2.487 . S
O508 C498 1.241 . S
O509 Nd480 2.414 . S
O509 Nd481 2.682 . S
O509 C498 1.273 . S
O510 Nd481 2.410 . S
O510 C499 1.251 . S
O511 Nd480 2.424 . S
O511 C499 1.268 . S
H512 C484 0.930 . S
H513 C485 0.929 . S
H514 C487 0.930 . S
H515 C488 0.929 . S
H516 C493 0.930 . S
H517 C494 0.929 . S
H518 C496 0.930 . S
H519 C497 0.929 . S
Nd520 C522 2.836 . S
Nd520 O540 2.500 . S
Nd520 O541 2.492 . S
Nd520 O542 2.487 . S
Nd520 O543 2.682 . S
Nd520 O544 2.410 . S
Nd520 O549 2.414 . S
Nd520 O551 2.424 . S
Nd521 C531 2.836 . S
Nd521 O543 2.414 . S
Nd521 O545 2.424 . S
Nd521 O546 2.500 . S
Nd521 O547 2.492 . S
Nd521 O548 2.487 . S
Nd521 O549 2.682 . S
Nd521 O550 2.410 . S
C522 Nd520 2.836 . S
C522 C523 1.498 . S
C522 O540 1.258 . S
C522 O541 1.239 . S
C523 C522 1.498 . S
C523 C524 1.366 . S
C523 C528 1.407 . S
C524 C523 1.366 . S
C524 C525 1.392 . S
C524 H552 0.930 . S
C525 C524 1.392 . S
C525 C526 1.398 . S
C525 H553 0.929 . S
C526 C525 1.398 . S
C526 C527 1.352 . S
C527 C526 1.352 . S
C527 C528 1.384 . S
C527 H554 0.930 . S
C528 C523 1.407 . S
C528 C527 1.384 . S
C528 H555 0.929 . S
C529 O542 1.241 . S
C529 O543 1.273 . S
C530 O544 1.251 . S
C530 O545 1.268 . S
C531 Nd521 2.836 . S
C531 C532 1.498 . S
C531 O546 1.258 . S
C531 O547 1.239 . S
C532 C531 1.498 . S
C532 C533 1.366 . S
C532 C537 1.407 . S
C533 C532 1.366 . S
C533 C534 1.392 . S
C533 H556 0.930 . S
C534 C533 1.392 . S
C534 C535 1.398 . S
C534 H557 0.929 . S
C535 C534 1.398 . S
C535 C536 1.352 . S
C536 C535 1.352 . S
C536 C537 1.384 . S
C536 H558 0.930 . S
C537 C532 1.407 . S
C537 C536 1.384 . S
C537 H559 0.929 . S
C538 O548 1.241 . S
C538 O549 1.273 . S
C539 O550 1.251 . S
C539 O551 1.268 . S
O540 Nd520 2.500 . S
O540 C522 1.258 . S
O541 Nd520 2.492 . S
O541 C522 1.239 . S
O542 Nd520 2.487 . S
O542 C529 1.241 . S
O543 Nd520 2.682 . S
O543 Nd521 2.414 . S
O543 C529 1.273 . S
O544 Nd520 2.410 . S
O544 C530 1.251 . S
O545 Nd521 2.424 . S
O545 C530 1.268 . S
O546 Nd521 2.500 . S
O546 C531 1.258 . S
O547 Nd521 2.492 . S
O547 C531 1.239 . S
O548 Nd521 2.487 . S
O548 C538 1.241 . S
O549 Nd520 2.414 . S
O549 Nd521 2.682 . S
O549 C538 1.273 . S
O550 Nd521 2.410 . S
O550 C539 1.251 . S
O551 Nd520 2.424 . S
O551 C539 1.268 . S
H552 C524 0.930 . S
H553 C525 0.929 . S
H554 C527 0.930 . S
H555 C528 0.929 . S
H556 C533 0.930 . S
H557 C534 0.929 . S
H558 C536 0.930 . S
H559 C537 0.929 . S
Nd560 C562 2.836 . S
Nd560 O580 2.500 . S
Nd560 O581 2.492 . S
Nd560 O582 2.487 . S
Nd560 O583 2.682 . S
Nd560 O584 2.410 . S
Nd560 O589 2.414 . S
Nd560 O591 2.424 . S
Nd561 C571 2.836 . S
Nd561 O583 2.414 . S
Nd561 O585 2.424 . S
Nd561 O586 2.500 . S
Nd561 O587 2.492 . S
Nd561 O588 2.487 . S
Nd561 O589 2.682 . S
Nd561 O590 2.410 . S
C562 Nd560 2.836 . S
C562 C563 1.498 . S
C562 O580 1.258 . S
C562 O581 1.239 . S
C563 C562 1.498 . S
C563 C564 1.366 . S
C563 C568 1.407 . S
C564 C563 1.366 . S
C564 C565 1.392 . S
C564 H592 0.930 . S
C565 C564 1.392 . S
C565 C566 1.398 . S
C565 H593 0.929 . S
C566 C565 1.398 . S
C566 C567 1.352 . S
C567 C566 1.352 . S
C567 C568 1.384 . S
C567 H594 0.930 . S
C568 C563 1.407 . S
C568 C567 1.384 . S
C568 H595 0.929 . S
C569 O582 1.241 . S
C569 O583 1.273 . S
C570 O584 1.251 . S
C570 O585 1.268 . S
C571 Nd561 2.836 . S
C571 C572 1.498 . S
C571 O586 1.258 . S
C571 O587 1.239 . S
C572 C571 1.498 . S
C572 C573 1.366 . S
C572 C577 1.407 . S
C573 C572 1.366 . S
C573 C574 1.392 . S
C573 H596 0.930 . S
C574 C573 1.392 . S
C574 C575 1.398 . S
C574 H597 0.929 . S
C575 C574 1.398 . S
C575 C576 1.352 . S
C576 C575 1.352 . S
C576 C577 1.384 . S
C576 H598 0.930 . S
C577 C572 1.407 . S
C577 C576 1.384 . S
C577 H599 0.929 . S
C578 O588 1.241 . S
C578 O589 1.273 . S
C579 O590 1.251 . S
C579 O591 1.268 . S
O580 Nd560 2.500 . S
O580 C562 1.258 . S
O581 Nd560 2.492 . S
O581 C562 1.239 . S
O582 Nd560 2.487 . S
O582 C569 1.241 . S
O583 Nd560 2.682 . S
O583 Nd561 2.414 . S
O583 C569 1.273 . S
O584 Nd560 2.410 . S
O584 C570 1.251 . S
O585 Nd561 2.424 . S
O585 C570 1.268 . S
O586 Nd561 2.500 . S
O586 C571 1.258 . S
O587 Nd561 2.492 . S
O587 C571 1.239 . S
O588 Nd561 2.487 . S
O588 C578 1.241 . S
O589 Nd560 2.414 . S
O589 Nd561 2.682 . S
O589 C578 1.273 . S
O590 Nd561 2.410 . S
O590 C579 1.251 . S
O591 Nd560 2.424 . S
O591 C579 1.268 . S
H592 C564 0.930 . S
H593 C565 0.929 . S
H594 C567 0.930 . S
H595 C568 0.929 . S
H596 C573 0.930 . S
H597 C574 0.929 . S
H598 C576 0.930 . S
H599 C577 0.929 . S
Nd600 C602 2.836 . S
Nd600 O620 2.500 . S
Nd600 O621 2.492 . S
Nd600 O622 2.487 . S
Nd600 O623 2.682 1_556 S
Nd600 O624 2.410 . S
Nd600 O629 2.414 . S
Nd600 O631 2.424 1_556 S
Nd601 C611 2.836 . S
Nd601 O623 2.414 . S
Nd601 O625 2.424 1_554 S
Nd601 O626 2.500 . S
Nd601 O627 2.492 . S
Nd601 O628 2.487 . S
Nd601 O629 2.682 1_554 S
Nd601 O630 2.410 . S
C602 Nd600 2.836 . S
C602 C603 1.498 . S
C602 O620 1.258 . S
C602 O621 1.239 . S
C603 C602 1.498 . S
C603 C604 1.366 . S
C603 C608 1.407 . S
C604 C603 1.366 . S
C604 C605 1.392 . S
C604 H632 0.930 . S
C605 C604 1.392 . S
C605 C606 1.398 . S
C605 H633 0.929 . S
C606 C605 1.398 . S
C606 C607 1.352 . S
C607 C606 1.352 . S
C607 C608 1.384 . S
C607 H634 0.930 . S
C608 C603 1.407 . S
C608 C607 1.384 . S
C608 H635 0.929 . S
C609 O622 1.241 . S
C609 O623 1.273 1_556 S
C610 O624 1.251 . S
C610 O625 1.268 . S
C611 Nd601 2.836 . S
C611 C612 1.498 . S
C611 O626 1.258 . S
C611 O627 1.239 . S
C612 C611 1.498 . S
C612 C613 1.366 . S
C612 C617 1.407 . S
C613 C612 1.366 . S
C613 C614 1.392 . S
C613 H636 0.930 . S
C614 C613 1.392 . S
C614 C615 1.398 . S
C614 H637 0.929 . S
C615 C614 1.398 . S
C615 C616 1.352 . S
C616 C615 1.352 . S
C616 C617 1.384 . S
C616 H638 0.930 . S
C617 C612 1.407 . S
C617 C616 1.384 . S
C617 H639 0.929 . S
C618 O628 1.241 1_556 S
C618 O629 1.273 . S
C619 O630 1.251 . S
C619 O631 1.268 . S
O620 Nd600 2.500 . S
O620 C602 1.258 . S
O621 Nd600 2.492 . S
O621 C602 1.239 . S
O622 Nd600 2.487 . S
O622 C609 1.241 . S
O623 Nd600 2.682 1_554 S
O623 Nd601 2.414 . S
O623 C609 1.273 1_554 S
O624 Nd600 2.410 . S
O624 C610 1.251 . S
O625 Nd601 2.424 1_556 S
O625 C610 1.268 . S
O626 Nd601 2.500 . S
O626 C611 1.258 . S
O627 Nd601 2.492 . S
O627 C611 1.239 . S
O628 Nd601 2.487 . S
O628 C618 1.241 1_554 S
O629 Nd600 2.414 . S
O629 Nd601 2.682 1_556 S
O629 C618 1.273 . S
O630 Nd601 2.410 . S
O630 C619 1.251 . S
O631 Nd600 2.424 1_554 S
O631 C619 1.268 . S
H632 C604 0.930 . S
H633 C605 0.929 . S
H634 C607 0.930 . S
H635 C608 0.929 . S
H636 C613 0.930 . S
H637 C614 0.929 . S
H638 C616 0.930 . S
H639 C617 0.929 . S
Nd640 C642 2.836 . S
Nd640 O660 2.500 . S
Nd640 O661 2.492 . S
Nd640 O662 2.487 . S
Nd640 O663 2.682 1_556 S
Nd640 O664 2.410 . S
Nd640 O669 2.414 . S
Nd640 O671 2.424 1_556 S
Nd641 C651 2.836 . S
Nd641 O663 2.414 . S
Nd641 O665 2.424 1_554 S
Nd641 O666 2.500 . S
Nd641 O667 2.492 . S
Nd641 O668 2.487 . S
Nd641 O669 2.682 1_554 S
Nd641 O670 2.410 . S
C642 Nd640 2.836 . S
C642 C643 1.498 . S
C642 O660 1.258 . S
C642 O661 1.239 . S
C643 C642 1.498 . S
C643 C644 1.366 . S
C643 C648 1.407 . S
C644 C643 1.366 . S
C644 C645 1.392 . S
C644 H672 0.930 . S
C645 C644 1.392 . S
C645 C646 1.398 . S
C645 H673 0.929 . S
C646 C645 1.398 . S
C646 C647 1.352 . S
C647 C646 1.352 . S
C647 C648 1.384 . S
C647 H674 0.930 . S
C648 C643 1.407 . S
C648 C647 1.384 . S
C648 H675 0.929 . S
C649 O662 1.241 . S
C649 O663 1.273 1_556 S
C650 O664 1.251 . S
C650 O665 1.268 . S
C651 Nd641 2.836 . S
C651 C652 1.498 . S
C651 O666 1.258 . S
C651 O667 1.239 . S
C652 C651 1.498 . S
C652 C653 1.366 . S
C652 C657 1.407 . S
C653 C652 1.366 . S
C653 C654 1.392 . S
C653 H676 0.930 . S
C654 C653 1.392 . S
C654 C655 1.398 . S
C654 H677 0.929 . S
C655 C654 1.398 . S
C655 C656 1.352 . S
C656 C655 1.352 . S
C656 C657 1.384 . S
C656 H678 0.930 . S
C657 C652 1.407 . S
C657 C656 1.384 . S
C657 H679 0.929 . S
C658 O668 1.241 1_556 S
C658 O669 1.273 . S
C659 O670 1.251 . S
C659 O671 1.268 . S
O660 Nd640 2.500 . S
O660 C642 1.258 . S
O661 Nd640 2.492 . S
O661 C642 1.239 . S
O662 Nd640 2.487 . S
O662 C649 1.241 . S
O663 Nd640 2.682 1_554 S
O663 Nd641 2.414 . S
O663 C649 1.273 1_554 S
O664 Nd640 2.410 . S
O664 C650 1.251 . S
O665 Nd641 2.424 1_556 S
O665 C650 1.268 . S
O666 Nd641 2.500 . S
O666 C651 1.258 . S
O667 Nd641 2.492 . S
O667 C651 1.239 . S
O668 Nd641 2.487 . S
O668 C658 1.241 1_554 S
O669 Nd640 2.414 . S
O669 Nd641 2.682 1_556 S
O669 C658 1.273 . S
O670 Nd641 2.410 . S
O670 C659 1.251 . S
O671 Nd640 2.424 1_554 S
O671 C659 1.268 . S
H672 C644 0.930 . S
H673 C645 0.929 . S
H674 C647 0.930 . S
H675 C648 0.929 . S
H676 C653 0.930 . S
H677 C654 0.929 . S
H678 C656 0.930 . S
H679 C657 0.929 . S
Nd680 C682 2.836 . S
Nd680 O700 2.500 . S
Nd680 O701 2.492 . S
Nd680 O702 2.487 . S
Nd680 O703 2.682 1_556 S
Nd680 O704 2.410 . S
Nd680 O709 2.414 . S
Nd680 O711 2.424 1_556 S
Nd681 C691 2.836 . S
Nd681 O703 2.414 . S
Nd681 O705 2.424 1_554 S
Nd681 O706 2.500 . S
Nd681 O707 2.492 . S
Nd681 O708 2.487 . S
Nd681 O709 2.682 1_554 S
Nd681 O710 2.410 . S
C682 Nd680 2.836 . S
C682 C683 1.498 . S
C682 O700 1.258 . S
C682 O701 1.239 . S
C683 C682 1.498 . S
C683 C684 1.366 . S
C683 C688 1.407 . S
C684 C683 1.366 . S
C684 C685 1.392 . S
C684 H712 0.930 . S
C685 C684 1.392 . S
C685 C686 1.398 . S
C685 H713 0.929 . S
C686 C685 1.398 . S
C686 C687 1.352 . S
C687 C686 1.352 . S
C687 C688 1.384 . S
C687 H714 0.930 . S
C688 C683 1.407 . S
C688 C687 1.384 . S
C688 H715 0.929 . S
C689 O702 1.241 . S
C689 O703 1.273 1_556 S
C690 O704 1.251 . S
C690 O705 1.268 . S
C691 Nd681 2.836 . S
C691 C692 1.498 . S
C691 O706 1.258 . S
C691 O707 1.239 . S
C692 C691 1.498 . S
C692 C693 1.366 . S
C692 C697 1.407 . S
C693 C692 1.366 . S
C693 C694 1.392 . S
C693 H716 0.930 . S
C694 C693 1.392 . S
C694 C695 1.398 . S
C694 H717 0.929 . S
C695 C694 1.398 . S
C695 C696 1.352 . S
C696 C695 1.352 . S
C696 C697 1.384 . S
C696 H718 0.930 . S
C697 C692 1.407 . S
C697 C696 1.384 . S
C697 H719 0.929 . S
C698 O708 1.241 1_556 S
C698 O709 1.273 . S
C699 O710 1.251 . S
C699 O711 1.268 . S
O700 Nd680 2.500 . S
O700 C682 1.258 . S
O701 Nd680 2.492 . S
O701 C682 1.239 . S
O702 Nd680 2.487 . S
O702 C689 1.241 . S
O703 Nd680 2.682 1_554 S
O703 Nd681 2.414 . S
O703 C689 1.273 1_554 S
O704 Nd680 2.410 . S
O704 C690 1.251 . S
O705 Nd681 2.424 1_556 S
O705 C690 1.268 . S
O706 Nd681 2.500 . S
O706 C691 1.258 . S
O707 Nd681 2.492 . S
O707 C691 1.239 . S
O708 Nd681 2.487 . S
O708 C698 1.241 1_554 S
O709 Nd680 2.414 . S
O709 Nd681 2.682 1_556 S
O709 C698 1.273 . S
O710 Nd681 2.410 . S
O710 C699 1.251 . S
O711 Nd680 2.424 1_554 S
O711 C699 1.268 . S
H712 C684 0.930 . S
H713 C685 0.929 . S
H714 C687 0.930 . S
H715 C688 0.929 . S
H716 C693 0.930 . S
H717 C694 0.929 . S
H718 C696 0.930 . S
H719 C697 0.929 . S
Nd720 C722 2.836 . S
Nd720 O740 2.500 . S
Nd720 O741 2.492 . S
Nd720 O742 2.487 . S
Nd720 O743 2.682 . S
Nd720 O744 2.410 . S
Nd720 O749 2.414 . S
Nd720 O751 2.424 . S
Nd721 C731 2.836 . S
Nd721 O743 2.414 . S
Nd721 O745 2.424 . S
Nd721 O746 2.500 . S
Nd721 O747 2.492 . S
Nd721 O748 2.487 . S
Nd721 O749 2.682 . S
Nd721 O750 2.410 . S
C722 Nd720 2.836 . S
C722 C723 1.498 . S
C722 O740 1.258 . S
C722 O741 1.239 . S
C723 C722 1.498 . S
C723 C724 1.366 . S
C723 C728 1.407 . S
C724 C723 1.366 . S
C724 C725 1.392 . S
C724 H752 0.930 . S
C725 C724 1.392 . S
C725 C726 1.398 . S
C725 H753 0.929 . S
C726 C725 1.398 . S
C726 C727 1.352 . S
C727 C726 1.352 . S
C727 C728 1.384 . S
C727 H754 0.930 . S
C728 C723 1.407 . S
C728 C727 1.384 . S
C728 H755 0.929 . S
C729 O742 1.241 . S
C729 O743 1.273 . S
C730 O744 1.251 . S
C730 O745 1.268 . S
C731 Nd721 2.836 . S
C731 C732 1.498 . S
C731 O746 1.258 . S
C731 O747 1.239 . S
C732 C731 1.498 . S
C732 C733 1.366 . S
C732 C737 1.407 . S
C733 C732 1.366 . S
C733 C734 1.392 . S
C733 H756 0.930 . S
C734 C733 1.392 . S
C734 C735 1.398 . S
C734 H757 0.929 . S
C735 C734 1.398 . S
C735 C736 1.352 . S
C736 C735 1.352 . S
C736 C737 1.384 . S
C736 H758 0.930 . S
C737 C732 1.407 . S
C737 C736 1.384 . S
C737 H759 0.929 . S
C738 O748 1.241 . S
C738 O749 1.273 . S
C739 O750 1.251 . S
C739 O751 1.268 . S
O740 Nd720 2.500 . S
O740 C722 1.258 . S
O741 Nd720 2.492 . S
O741 C722 1.239 . S
O742 Nd720 2.487 . S
O742 C729 1.241 . S
O743 Nd720 2.682 . S
O743 Nd721 2.414 . S
O743 C729 1.273 . S
O744 Nd720 2.410 . S
O744 C730 1.251 . S
O745 Nd721 2.424 . S
O745 C730 1.268 . S
O746 Nd721 2.500 . S
O746 C731 1.258 . S
O747 Nd721 2.492 . S
O747 C731 1.239 . S
O748 Nd721 2.487 . S
O748 C738 1.241 . S
O749 Nd720 2.414 . S
O749 Nd721 2.682 . S
O749 C738 1.273 . S
O750 Nd721 2.410 . S
O750 C739 1.251 . S
O751 Nd720 2.424 . S
O751 C739 1.268 . S
H752 C724 0.930 . S
H753 C725 0.929 . S
H754 C727 0.930 . S
H755 C728 0.929 . S
H756 C733 0.930 . S
H757 C734 0.929 . S
H758 C736 0.930 . S
H759 C737 0.929 . S
Nd760 C762 2.836 . S
Nd760 O780 2.500 . S
Nd760 O781 2.492 . S
Nd760 O782 2.487 . S
Nd760 O783 2.682 . S
Nd760 O784 2.410 . S
Nd760 O789 2.414 . S
Nd760 O791 2.424 . S
Nd761 C771 2.836 . S
Nd761 O783 2.414 . S
Nd761 O785 2.424 . S
Nd761 O786 2.500 . S
Nd761 O787 2.492 . S
Nd761 O788 2.487 . S
Nd761 O789 2.682 . S
Nd761 O790 2.410 . S
C762 Nd760 2.836 . S
C762 C763 1.498 . S
C762 O780 1.258 . S
C762 O781 1.239 . S
C763 C762 1.498 . S
C763 C764 1.366 . S
C763 C768 1.407 . S
C764 C763 1.366 . S
C764 C765 1.392 . S
C764 H792 0.930 . S
C765 C764 1.392 . S
C765 C766 1.398 . S
C765 H793 0.929 . S
C766 C765 1.398 . S
C766 C767 1.352 . S
C767 C766 1.352 . S
C767 C768 1.384 . S
C767 H794 0.930 . S
C768 C763 1.407 . S
C768 C767 1.384 . S
C768 H795 0.929 . S
C769 O782 1.241 . S
C769 O783 1.273 . S
C770 O784 1.251 . S
C770 O785 1.268 . S
C771 Nd761 2.836 . S
C771 C772 1.498 . S
C771 O786 1.258 . S
C771 O787 1.239 . S
C772 C771 1.498 . S
C772 C773 1.366 . S
C772 C777 1.407 . S
C773 C772 1.366 . S
C773 C774 1.392 . S
C773 H796 0.930 . S
C774 C773 1.392 . S
C774 C775 1.398 . S
C774 H797 0.929 . S
C775 C774 1.398 . S
C775 C776 1.352 . S
C776 C775 1.352 . S
C776 C777 1.384 . S
C776 H798 0.930 . S
C777 C772 1.407 . S
C777 C776 1.384 . S
C777 H799 0.929 . S
C778 O788 1.241 . S
C778 O789 1.273 . S
C779 O790 1.251 . S
C779 O791 1.268 . S
O780 Nd760 2.500 . S
O780 C762 1.258 . S
O781 Nd760 2.492 . S
O781 C762 1.239 . S
O782 Nd760 2.487 . S
O782 C769 1.241 . S
O783 Nd760 2.682 . S
O783 Nd761 2.414 . S
O783 C769 1.273 . S
O784 Nd760 2.410 . S
O784 C770 1.251 . S
O785 Nd761 2.424 . S
O785 C770 1.268 . S
O786 Nd761 2.500 . S
O786 C771 1.258 . S
O787 Nd761 2.492 . S
O787 C771 1.239 . S
O788 Nd761 2.487 . S
O788 C778 1.241 . S
O789 Nd760 2.414 . S
O789 Nd761 2.682 . S
O789 C778 1.273 . S
O790 Nd761 2.410 . S
O790 C779 1.251 . S
O791 Nd760 2.424 . S
O791 C779 1.268 . S
H792 C764 0.930 . S
H793 C765 0.929 . S
H794 C767 0.930 . S
H795 C768 0.929 . S
H796 C773 0.930 . S
H797 C774 0.929 . S
H798 C776 0.930 . S
H799 C777 0.929 . S
Nd800 C802 2.836 . S
Nd800 O820 2.500 . S
Nd800 O821 2.492 . S
Nd800 O822 2.487 . S
Nd800 O823 2.682 . S
Nd800 O824 2.410 . S
Nd800 O829 2.414 . S
Nd800 O831 2.424 . S
Nd801 C811 2.836 . S
Nd801 O823 2.414 . S
Nd801 O825 2.424 . S
Nd801 O826 2.500 . S
Nd801 O827 2.492 . S
Nd801 O828 2.487 . S
Nd801 O829 2.682 . S
Nd801 O830 2.410 . S
C802 Nd800 2.836 . S
C802 C803 1.498 . S
C802 O820 1.258 . S
C802 O821 1.239 . S
C803 C802 1.498 . S
C803 C804 1.366 . S
C803 C808 1.407 . S
C804 C803 1.366 . S
C804 C805 1.392 . S
C804 H832 0.930 . S
C805 C804 1.392 . S
C805 C806 1.398 . S
C805 H833 0.929 . S
C806 C805 1.398 . S
C806 C807 1.352 . S
C807 C806 1.352 . S
C807 C808 1.384 . S
C807 H834 0.930 . S
C808 C803 1.407 . S
C808 C807 1.384 . S
C808 H835 0.929 . S
C809 O822 1.241 . S
C809 O823 1.273 . S
C810 O824 1.251 . S
C810 O825 1.268 . S
C811 Nd801 2.836 . S
C811 C812 1.498 . S
C811 O826 1.258 . S
C811 O827 1.239 . S
C812 C811 1.498 . S
C812 C813 1.366 . S
C812 C817 1.407 . S
C813 C812 1.366 . S
C813 C814 1.392 . S
C813 H836 0.930 . S
C814 C813 1.392 . S
C814 C815 1.398 . S
C814 H837 0.929 . S
C815 C814 1.398 . S
C815 C816 1.352 . S
C816 C815 1.352 . S
C816 C817 1.384 . S
C816 H838 0.930 . S
C817 C812 1.407 . S
C817 C816 1.384 . S
C817 H839 0.929 . S
C818 O828 1.241 . S
C818 O829 1.273 . S
C819 O830 1.251 . S
C819 O831 1.268 . S
O820 Nd800 2.500 . S
O820 C802 1.258 . S
O821 Nd800 2.492 . S
O821 C802 1.239 . S
O822 Nd800 2.487 . S
O822 C809 1.241 . S
O823 Nd800 2.682 . S
O823 Nd801 2.414 . S
O823 C809 1.273 . S
O824 Nd800 2.410 . S
O824 C810 1.251 . S
O825 Nd801 2.424 . S
O825 C810 1.268 . S
O826 Nd801 2.500 . S
O826 C811 1.258 . S
O827 Nd801 2.492 . S
O827 C811 1.239 . S
O828 Nd801 2.487 . S
O828 C818 1.241 . S
O829 Nd800 2.414 . S
O829 Nd801 2.682 . S
O829 C818 1.273 . S
O830 Nd801 2.410 . S
O830 C819 1.251 . S
O831 Nd800 2.424 . S
O831 C819 1.268 . S
H832 C804 0.930 . S
H833 C805 0.929 . S
H834 C807 0.930 . S
H835 C808 0.929 . S
H836 C813 0.930 . S
H837 C814 0.929 . S
H838 C816 0.930 . S
H839 C817 0.929 . S
Nd840 C842 2.836 . S
Nd840 O860 2.500 . S
Nd840 O861 2.492 . S
Nd840 O862 2.487 . S
Nd840 O863 2.682 . S
Nd840 O864 2.410 . S
Nd840 O869 2.414 . S
Nd840 O871 2.424 . S
Nd841 C851 2.836 . S
Nd841 O863 2.414 . S
Nd841 O865 2.424 . S
Nd841 O866 2.500 . S
Nd841 O867 2.492 . S
Nd841 O868 2.487 . S
Nd841 O869 2.682 . S
Nd841 O870 2.410 . S
C842 Nd840 2.836 . S
C842 C843 1.498 . S
C842 O860 1.258 . S
C842 O861 1.239 . S
C843 C842 1.498 . S
C843 C844 1.366 . S
C843 C848 1.407 . S
C844 C843 1.366 . S
C844 C845 1.392 . S
C844 H872 0.930 . S
C845 C844 1.392 . S
C845 C846 1.398 . S
C845 H873 0.929 . S
C846 C845 1.398 . S
C846 C847 1.352 . S
C847 C846 1.352 . S
C847 C848 1.384 . S
C847 H874 0.930 . S
C848 C843 1.407 . S
C848 C847 1.384 . S
C848 H875 0.929 . S
C849 O862 1.241 . S
C849 O863 1.273 . S
C850 O864 1.251 . S
C850 O865 1.268 . S
C851 Nd841 2.836 . S
C851 C852 1.514 . S
C851 O866 1.258 . S
C851 O867 1.239 . S
C852 C851 1.514 . S
C852 C853 1.356 1_556 S
C852 C857 1.401 1_556 S
C853 C852 1.356 1_554 S
C853 C854 1.392 . S
C853 H876 0.930 . S
C854 C853 1.392 . S
C854 C855 1.398 . S
C854 H877 0.929 . S
C855 C854 1.398 . S
C855 C856 1.352 . S
C856 C855 1.352 . S
C856 C857 1.384 . S
C856 H878 0.930 . S
C857 C852 1.401 1_554 S
C857 C856 1.384 . S
C857 H879 0.929 1_554 S
C858 O868 1.241 . S
C858 O869 1.273 . S
C859 O870 1.251 . S
C859 O871 1.268 . S
O860 Nd840 2.500 . S
O860 C842 1.258 . S
O861 Nd840 2.492 . S
O861 C842 1.239 . S
O862 Nd840 2.487 . S
O862 C849 1.241 . S
O863 Nd840 2.682 . S
O863 Nd841 2.414 . S
O863 C849 1.273 . S
O864 Nd840 2.410 . S
O864 C850 1.251 . S
O865 Nd841 2.424 . S
O865 C850 1.268 . S
O866 Nd841 2.500 . S
O866 C851 1.258 . S
O867 Nd841 2.492 . S
O867 C851 1.239 . S
O868 Nd841 2.487 . S
O868 C858 1.241 . S
O869 Nd840 2.414 . S
O869 Nd841 2.682 . S
O869 C858 1.273 . S
O870 Nd841 2.410 . S
O870 C859 1.251 . S
O871 Nd840 2.424 . S
O871 C859 1.268 . S
H872 C844 0.930 . S
H873 C845 0.929 . S
H874 C847 0.930 . S
H875 C848 0.929 . S
H876 C853 0.930 . S
H877 C854 0.929 . S
H878 C856 0.930 . S
H879 C857 0.929 1_556 S
Nd880 C882 2.836 . S
Nd880 O900 2.500 . S
Nd880 O901 2.492 . S
Nd880 O902 2.487 . S
Nd880 O903 2.682 . S
Nd880 O904 2.410 . S
Nd880 O909 2.414 . S
Nd880 O911 2.424 . S
Nd881 C891 2.836 . S
Nd881 O903 2.414 . S
Nd881 O905 2.424 . S
Nd881 O906 2.500 . S
Nd881 O907 2.492 . S
Nd881 O908 2.487 . S
Nd881 O909 2.682 . S
Nd881 O910 2.410 . S
C882 Nd880 2.836 . S
C882 C883 1.498 . S
C882 O900 1.258 . S
C882 O901 1.239 . S
C883 C882 1.498 . S
C883 C884 1.366 . S
C883 C888 1.407 . S
C884 C883 1.366 . S
C884 C885 1.392 . S
C884 H912 0.930 . S
C885 C884 1.392 . S
C885 C886 1.398 . S
C885 H913 0.929 . S
C886 C885 1.398 . S
C886 C887 1.352 . S
C887 C886 1.352 . S
C887 C888 1.384 . S
C887 H914 0.930 . S
C888 C883 1.407 . S
C888 C887 1.384 . S
C888 H915 0.929 . S
C889 O902 1.241 . S
C889 O903 1.273 . S
C890 O904 1.251 . S
C890 O905 1.268 . S
C891 Nd881 2.836 . S
C891 C892 1.514 . S
C891 O906 1.258 . S
C891 O907 1.239 . S
C892 C891 1.514 . S
C892 C893 1.356 1_556 S
C892 C897 1.401 1_556 S
C893 C892 1.356 1_554 S
C893 C894 1.392 . S
C893 H916 0.930 . S
C894 C893 1.392 . S
C894 C895 1.398 . S
C894 H917 0.929 . S
C895 C894 1.398 . S
C895 C896 1.352 . S
C896 C895 1.352 . S
C896 C897 1.384 . S
C896 H918 0.930 . S
C897 C892 1.401 1_554 S
C897 C896 1.384 . S
C897 H919 0.929 1_554 S
C898 O908 1.241 . S
C898 O909 1.273 . S
C899 O910 1.251 . S
C899 O911 1.268 . S
O900 Nd880 2.500 . S
O900 C882 1.258 . S
O901 Nd880 2.492 . S
O901 C882 1.239 . S
O902 Nd880 2.487 . S
O902 C889 1.241 . S
O903 Nd880 2.682 . S
O903 Nd881 2.414 . S
O903 C889 1.273 . S
O904 Nd880 2.410 . S
O904 C890 1.251 . S
O905 Nd881 2.424 . S
O905 C890 1.268 . S
O906 Nd881 2.500 . S
O906 C891 1.258 . S
O907 Nd881 2.492 . S
O907 C891 1.239 . S
O908 Nd881 2.487 . S
O908 C898 1.241 . S
O909 Nd880 2.414 . S
O909 Nd881 2.682 . S
O909 C898 1.273 . S
O910 Nd881 2.410 . S
O910 C899 1.251 . S
O911 Nd880 2.424 . S
O911 C899 1.268 . S
H912 C884 0.930 . S
H913 C885 0.929 . S
H914 C887 0.930 . S
H915 C888 0.929 . S
H916 C893 0.930 . S
H917 C894 0.929 . S
H918 C896 0.930 . S
H919 C897 0.929 1_556 S
Nd920 C922 2.836 . S
Nd920 O940 2.500 . S
Nd920 O941 2.492 . S
Nd920 O942 2.487 . S
Nd920 O943 2.682 . S
Nd920 O944 2.410 . S
Nd920 O949 2.414 . S
Nd920 O951 2.424 . S
Nd921 C931 2.836 . S
Nd921 O943 2.414 . S
Nd921 O945 2.424 . S
Nd921 O946 2.500 . S
Nd921 O947 2.492 . S
Nd921 O948 2.487 . S
Nd921 O949 2.682 . S
Nd921 O950 2.410 . S
C922 Nd920 2.836 . S
C922 C923 1.498 . S
C922 O940 1.258 . S
C922 O941 1.239 . S
C923 C922 1.498 . S
C923 C924 1.366 . S
C923 C928 1.407 . S
C924 C923 1.366 . S
C924 C925 1.392 . S
C924 H952 0.930 . S
C925 C924 1.392 . S
C925 C926 1.398 . S
C925 H953 0.929 . S
C926 C925 1.398 . S
C926 C927 1.352 . S
C927 C926 1.352 . S
C927 C928 1.384 . S
C927 H954 0.930 . S
C928 C923 1.407 . S
C928 C927 1.384 . S
C928 H955 0.929 . S
C929 O942 1.241 . S
C929 O943 1.273 . S
C930 O944 1.251 . S
C930 O945 1.268 . S
C931 Nd921 2.836 . S
C931 C932 1.514 . S
C931 O946 1.258 . S
C931 O947 1.239 . S
C932 C931 1.514 . S
C932 C933 1.356 1_556 S
C932 C937 1.401 1_556 S
C933 C932 1.356 1_554 S
C933 C934 1.392 . S
C933 H956 0.930 . S
C934 C933 1.392 . S
C934 C935 1.398 . S
C934 H957 0.929 . S
C935 C934 1.398 . S
C935 C936 1.352 . S
C936 C935 1.352 . S
C936 C937 1.384 . S
C936 H958 0.930 . S
C937 C932 1.401 1_554 S
C937 C936 1.384 . S
C937 H959 0.929 1_554 S
C938 O948 1.241 . S
C938 O949 1.273 . S
C939 O950 1.251 . S
C939 O951 1.268 . S
O940 Nd920 2.500 . S
O940 C922 1.258 . S
O941 Nd920 2.492 . S
O941 C922 1.239 . S
O942 Nd920 2.487 . S
O942 C929 1.241 . S
O943 Nd920 2.682 . S
O943 Nd921 2.414 . S
O943 C929 1.273 . S
O944 Nd920 2.410 . S
O944 C930 1.251 . S
O945 Nd921 2.424 . S
O945 C930 1.268 . S
O946 Nd921 2.500 . S
O946 C931 1.258 . S
O947 Nd921 2.492 . S
O947 C931 1.239 . S
O948 Nd921 2.487 . S
O948 C938 1.241 . S
O949 Nd920 2.414 . S
O949 Nd921 2.682 . S
O949 C938 1.273 . S
O950 Nd921 2.410 . S
O950 C939 1.251 . S
O951 Nd920 2.424 . S
O951 C939 1.268 . S
H952 C924 0.930 . S
H953 C925 0.929 . S
H954 C927 0.930 . S
H955 C928 0.929 . S
H956 C933 0.930 . S
H957 C934 0.929 . S
H958 C936 0.930 . S
H959 C937 0.929 1_556 S
Nd960 C962 2.836 . S
Nd960 O980 2.500 . S
Nd960 O981 2.492 . S
Nd960 O982 2.487 . S
Nd960 O983 2.682 . S
Nd960 O984 2.410 . S
Nd960 O989 2.414 . S
Nd960 O991 2.424 . S
Nd961 C971 2.836 . S
Nd961 O983 2.414 . S
Nd961 O985 2.424 . S
Nd961 O986 2.500 . S
Nd961 O987 2.492 . S
Nd961 O988 2.487 . S
Nd961 O989 2.682 . S
Nd961 O990 2.410 . S
C962 Nd960 2.836 . S
C962 C963 1.498 . S
C962 O980 1.258 . S
C962 O981 1.239 . S
C963 C962 1.498 . S
C963 C964 1.366 . S
C963 C968 1.407 . S
C964 C963 1.366 . S
C964 C965 1.392 . S
C964 H992 0.930 . S
C965 C964 1.392 . S
C965 C966 1.398 . S
C965 H993 0.929 . S
C966 C965 1.398 . S
C966 C967 1.352 . S
C967 C966 1.352 . S
C967 C968 1.384 . S
C967 H994 0.930 . S
C968 C963 1.407 . S
C968 C967 1.384 . S
C968 H995 0.929 . S
C969 O982 1.241 . S
C969 O983 1.273 . S
C970 O984 1.251 . S
C970 O985 1.268 . S
C971 Nd961 2.836 . S
C971 C972 1.498 . S
C971 O986 1.258 . S
C971 O987 1.239 . S
C972 C971 1.498 . S
C972 C973 1.366 . S
C972 C977 1.407 . S
C973 C972 1.366 . S
C973 C974 1.392 . S
C973 H996 0.930 . S
C974 C973 1.392 . S
C974 C975 1.398 . S
C974 H997 0.929 . S
C975 C974 1.398 . S
C975 C976 1.352 . S
C976 C975 1.352 . S
C976 C977 1.384 . S
C976 H998 0.930 . S
C977 C972 1.407 . S
C977 C976 1.384 . S
C977 H999 0.929 . S
C978 O988 1.241 . S
C978 O989 1.273 . S
C979 O990 1.251 . S
C979 O991 1.268 . S
O980 Nd960 2.500 . S
O980 C962 1.258 . S
O981 Nd960 2.492 . S
O981 C962 1.239 . S
O982 Nd960 2.487 . S
O982 C969 1.241 . S
O983 Nd960 2.682 . S
O983 Nd961 2.414 . S
O983 C969 1.273 . S
O984 Nd960 2.410 . S
O984 C970 1.251 . S
O985 Nd961 2.424 . S
O985 C970 1.268 . S
O986 Nd961 2.500 . S
O986 C971 1.258 . S
O987 Nd961 2.492 . S
O987 C971 1.239 . S
O988 Nd961 2.487 . S
O988 C978 1.241 . S
O989 Nd960 2.414 . S
O989 Nd961 2.682 . S
O989 C978 1.273 . S
O990 Nd961 2.410 . S
O990 C979 1.251 . S
O991 Nd960 2.424 . S
O991 C979 1.268 . S
H992 C964 0.930 . S
H993 C965 0.929 . S
H994 C967 0.930 . S
H995 C968 0.929 . S
H996 C973 0.930 . S
H997 C974 0.929 . S
H998 C976 0.930 . S
H999 C977 0.929 . S
Nd1000 C1002 2.836 . S
Nd1000 O1020 2.500 . S
Nd1000 O1021 2.492 . S
Nd1000 O1022 2.487 . S
Nd1000 O1023 2.682 . S
Nd1000 O1024 2.410 . S
Nd1000 O1029 2.414 . S
Nd1000 O1031 2.424 . S
Nd1001 C1011 2.836 . S
Nd1001 O1023 2.414 . S
Nd1001 O1025 2.424 . S
Nd1001 O1026 2.500 . S
Nd1001 O1027 2.492 . S
Nd1001 O1028 2.487 . S
Nd1001 O1029 2.682 . S
Nd1001 O1030 2.410 . S
C1002 Nd1000 2.836 . S
C1002 C1003 1.498 . S
C1002 O1020 1.258 . S
C1002 O1021 1.239 . S
C1003 C1002 1.498 . S
C1003 C1004 1.366 . S
C1003 C1008 1.407 . S
C1004 C1003 1.366 . S
C1004 C1005 1.392 . S
C1004 H1032 0.930 . S
C1005 C1004 1.392 . S
C1005 C1006 1.398 . S
C1005 H1033 0.929 . S
C1006 C1005 1.398 . S
C1006 C1007 1.352 . S
C1007 C1006 1.352 . S
C1007 C1008 1.384 . S
C1007 H1034 0.930 . S
C1008 C1003 1.407 . S
C1008 C1007 1.384 . S
C1008 H1035 0.929 . S
C1009 O1022 1.241 . S
C1009 O1023 1.273 . S
C1010 O1024 1.251 . S
C1010 O1025 1.268 . S
C1011 Nd1001 2.836 . S
C1011 C1012 1.498 . S
C1011 O1026 1.258 . S
C1011 O1027 1.239 . S
C1012 C1011 1.498 . S
C1012 C1013 1.366 . S
C1012 C1017 1.407 . S
C1013 C1012 1.366 . S
C1013 C1014 1.392 . S
C1013 H1036 0.930 . S
C1014 C1013 1.392 . S
C1014 C1015 1.398 . S
C1014 H1037 0.929 . S
C1015 C1014 1.398 . S
C1015 C1016 1.352 . S
C1016 C1015 1.352 . S
C1016 C1017 1.384 . S
C1016 H1038 0.930 . S
C1017 C1012 1.407 . S
C1017 C1016 1.384 . S
C1017 H1039 0.929 . S
C1018 O1028 1.241 . S
C1018 O1029 1.273 . S
C1019 O1030 1.251 . S
C1019 O1031 1.268 . S
O1020 Nd1000 2.500 . S
O1020 C1002 1.258 . S
O1021 Nd1000 2.492 . S
O1021 C1002 1.239 . S
O1022 Nd1000 2.487 . S
O1022 C1009 1.241 . S
O1023 Nd1000 2.682 . S
O1023 Nd1001 2.414 . S
O1023 C1009 1.273 . S
O1024 Nd1000 2.410 . S
O1024 C1010 1.251 . S
O1025 Nd1001 2.424 . S
O1025 C1010 1.268 . S
O1026 Nd1001 2.500 . S
O1026 C1011 1.258 . S
O1027 Nd1001 2.492 . S
O1027 C1011 1.239 . S
O1028 Nd1001 2.487 . S
O1028 C1018 1.241 . S
O1029 Nd1000 2.414 . S
O1029 Nd1001 2.682 . S
O1029 C1018 1.273 . S
O1030 Nd1001 2.410 . S
O1030 C1019 1.251 . S
O1031 Nd1000 2.424 . S
O1031 C1019 1.268 . S
H1032 C1004 0.930 . S
H1033 C1005 0.929 . S
H1034 C1007 0.930 . S
H1035 C1008 0.929 . S
H1036 C1013 0.930 . S
H1037 C1014 0.929 . S
H1038 C1016 0.930 . S
H1039 C1017 0.929 . S
Nd1040 C1042 2.836 . S
Nd1040 O1060 2.500 . S
Nd1040 O1061 2.492 . S
Nd1040 O1062 2.487 . S
Nd1040 O1063 2.682 . S
Nd1040 O1064 2.410 . S
Nd1040 O1069 2.414 . S
Nd1040 O1071 2.424 . S
Nd1041 C1051 2.836 . S
Nd1041 O1063 2.414 . S
Nd1041 O1065 2.424 . S
Nd1041 O1066 2.500 . S
Nd1041 O1067 2.492 . S
Nd1041 O1068 2.487 . S
Nd1041 O1069 2.682 . S
Nd1041 O1070 2.410 . S
C1042 Nd1040 2.836 . S
C1042 C1043 1.498 . S
C1042 O1060 1.258 . S
C1042 O1061 1.239 . S
C1043 C1042 1.498 . S
C1043 C1044 1.366 . S
C1043 C1048 1.407 . S
C1044 C1043 1.366 . S
C1044 C1045 1.392 . S
C1044 H1072 0.930 . S
C1045 C1044 1.392 . S
C1045 C1046 1.398 . S
C1045 H1073 0.929 . S
C1046 C1045 1.398 . S
C1046 C1047 1.352 . S
C1047 C1046 1.352 . S
C1047 C1048 1.384 . S
C1047 H1074 0.930 . S
C1048 C1043 1.407 . S
C1048 C1047 1.384 . S
C1048 H1075 0.929 . S
C1049 O1062 1.241 . S
C1049 O1063 1.273 . S
C1050 O1064 1.251 . S
C1050 O1065 1.268 . S
C1051 Nd1041 2.836 . S
C1051 C1052 1.498 . S
C1051 O1066 1.258 . S
C1051 O1067 1.239 . S
C1052 C1051 1.498 . S
C1052 C1053 1.366 . S
C1052 C1057 1.407 . S
C1053 C1052 1.366 . S
C1053 C1054 1.392 . S
C1053 H1076 0.930 . S
C1054 C1053 1.392 . S
C1054 C1055 1.398 . S
C1054 H1077 0.929 . S
C1055 C1054 1.398 . S
C1055 C1056 1.352 . S
C1056 C1055 1.352 . S
C1056 C1057 1.384 . S
C1056 H1078 0.930 . S
C1057 C1052 1.407 . S
C1057 C1056 1.384 . S
C1057 H1079 0.929 . S
C1058 O1068 1.241 . S
C1058 O1069 1.273 . S
C1059 O1070 1.251 . S
C1059 O1071 1.268 . S
O1060 Nd1040 2.500 . S
O1060 C1042 1.258 . S
O1061 Nd1040 2.492 . S
O1061 C1042 1.239 . S
O1062 Nd1040 2.487 . S
O1062 C1049 1.241 . S
O1063 Nd1040 2.682 . S
O1063 Nd1041 2.414 . S
O1063 C1049 1.273 . S
O1064 Nd1040 2.410 . S
O1064 C1050 1.251 . S
O1065 Nd1041 2.424 . S
O1065 C1050 1.268 . S
O1066 Nd1041 2.500 . S
O1066 C1051 1.258 . S
O1067 Nd1041 2.492 . S
O1067 C1051 1.239 . S
O1068 Nd1041 2.487 . S
O1068 C1058 1.241 . S
O1069 Nd1040 2.414 . S
O1069 Nd1041 2.682 . S
O1069 C1058 1.273 . S
O1070 Nd1041 2.410 . S
O1070 C1059 1.251 . S
O1071 Nd1040 2.424 . S
O1071 C1059 1.268 . S
H1072 C1044 0.930 . S
H1073 C1045 0.929 . S
H1074 C1047 0.930 . S
H1075 C1048 0.929 . S
H1076 C1053 0.930 . S
H1077 C1054 0.929 . S
H1078 C1056 0.930 . S
H1079 C1057 0.929 . S
Nd1080 C1082 2.836 . S
Nd1080 O1100 2.500 . S
Nd1080 O1101 2.492 . S
Nd1080 O1102 2.487 . S
Nd1080 O1103 2.682 . S
Nd1080 O1104 2.410 . S
Nd1080 O1109 2.414 . S
Nd1080 O1111 2.424 . S
Nd1081 C1091 2.836 . S
Nd1081 O1103 2.414 . S
Nd1081 O1105 2.424 . S
Nd1081 O1106 2.500 . S
Nd1081 O1107 2.492 . S
Nd1081 O1108 2.487 . S
Nd1081 O1109 2.682 . S
Nd1081 O1110 2.410 . S
C1082 Nd1080 2.836 . S
C1082 C1083 1.498 . S
C1082 O1100 1.258 . S
C1082 O1101 1.239 . S
C1083 C1082 1.498 . S
C1083 C1084 1.366 . S
C1083 C1088 1.407 . S
C1084 C1083 1.366 . S
C1084 C1085 1.392 . S
C1084 H1112 0.930 . S
C1085 C1084 1.392 . S
C1085 C1086 1.398 . S
C1085 H1113 0.929 . S
C1086 C1085 1.398 . S
C1086 C1087 1.352 . S
C1087 C1086 1.352 . S
C1087 C1088 1.384 . S
C1087 H1114 0.930 . S
C1088 C1083 1.407 . S
C1088 C1087 1.384 . S
C1088 H1115 0.929 . S
C1089 O1102 1.241 . S
C1089 O1103 1.273 . S
C1090 O1104 1.251 . S
C1090 O1105 1.268 . S
C1091 Nd1081 2.836 . S
C1091 C1092 1.498 . S
C1091 O1106 1.258 . S
C1091 O1107 1.239 . S
C1092 C1091 1.498 . S
C1092 C1093 1.366 . S
C1092 C1097 1.407 . S
C1093 C1092 1.366 . S
C1093 C1094 1.392 . S
C1093 H1116 0.930 . S
C1094 C1093 1.392 . S
C1094 C1095 1.398 . S
C1094 H1117 0.929 . S
C1095 C1094 1.398 . S
C1095 C1096 1.352 . S
C1096 C1095 1.352 . S
C1096 C1097 1.384 . S
C1096 H1118 0.930 . S
C1097 C1092 1.407 . S
C1097 C1096 1.384 . S
C1097 H1119 0.929 . S
C1098 O1108 1.241 . S
C1098 O1109 1.273 . S
C1099 O1110 1.251 . S
C1099 O1111 1.268 . S
O1100 Nd1080 2.500 . S
O1100 C1082 1.258 . S
O1101 Nd1080 2.492 . S
O1101 C1082 1.239 . S
O1102 Nd1080 2.487 . S
O1102 C1089 1.241 . S
O1103 Nd1080 2.682 . S
O1103 Nd1081 2.414 . S
O1103 C1089 1.273 . S
O1104 Nd1080 2.410 . S
O1104 C1090 1.251 . S
O1105 Nd1081 2.424 . S
O1105 C1090 1.268 . S
O1106 Nd1081 2.500 . S
O1106 C1091 1.258 . S
O1107 Nd1081 2.492 . S
O1107 C1091 1.239 . S
O1108 Nd1081 2.487 . S
O1108 C1098 1.241 . S
O1109 Nd1080 2.414 . S
O1109 Nd1081 2.682 . S
O1109 C1098 1.273 . S
O1110 Nd1081 2.410 . S
O1110 C1099 1.251 . S
O1111 Nd1080 2.424 . S
O1111 C1099 1.268 . S
H1112 C1084 0.930 . S
H1113 C1085 0.929 . S
H1114 C1087 0.930 . S
H1115 C1088 0.929 . S
H1116 C1093 0.930 . S
H1117 C1094 0.929 . S
H1118 C1096 0.930 . S
H1119 C1097 0.929 . S
Nd1120 C1122 2.836 . S
Nd1120 O1140 2.500 . S
Nd1120 O1141 2.492 . S
Nd1120 O1142 2.487 . S
Nd1120 O1143 2.682 . S
Nd1120 O1144 2.410 . S
Nd1120 O1149 2.414 . S
Nd1120 O1151 2.424 . S
Nd1121 C1131 2.836 . S
Nd1121 O1143 2.414 . S
Nd1121 O1145 2.424 . S
Nd1121 O1146 2.500 . S
Nd1121 O1147 2.492 . S
Nd1121 O1148 2.487 . S
Nd1121 O1149 2.682 . S
Nd1121 O1150 2.410 . S
C1122 Nd1120 2.836 . S
C1122 C1123 1.498 . S
C1122 O1140 1.258 . S
C1122 O1141 1.239 . S
C1123 C1122 1.498 . S
C1123 C1124 1.366 . S
C1123 C1128 1.407 . S
C1124 C1123 1.366 . S
C1124 C1125 1.392 . S
C1124 H1152 0.930 . S
C1125 C1124 1.392 . S
C1125 C1126 1.398 . S
C1125 H1153 0.929 . S
C1126 C1125 1.398 . S
C1126 C1127 1.352 . S
C1127 C1126 1.352 . S
C1127 C1128 1.384 . S
C1127 H1154 0.930 . S
C1128 C1123 1.407 . S
C1128 C1127 1.384 . S
C1128 H1155 0.929 . S
C1129 O1142 1.241 . S
C1129 O1143 1.273 . S
C1130 O1144 1.251 . S
C1130 O1145 1.268 . S
C1131 Nd1121 2.836 . S
C1131 C1132 1.498 . S
C1131 O1146 1.258 . S
C1131 O1147 1.239 . S
C1132 C1131 1.498 . S
C1132 C1133 1.366 . S
C1132 C1137 1.407 . S
C1133 C1132 1.366 . S
C1133 C1134 1.392 . S
C1133 H1156 0.930 . S
C1134 C1133 1.392 . S
C1134 C1135 1.398 . S
C1134 H1157 0.929 . S
C1135 C1134 1.398 . S
C1135 C1136 1.352 . S
C1136 C1135 1.352 . S
C1136 C1137 1.384 . S
C1136 H1158 0.930 . S
C1137 C1132 1.407 . S
C1137 C1136 1.384 . S
C1137 H1159 0.929 . S
C1138 O1148 1.241 . S
C1138 O1149 1.273 . S
C1139 O1150 1.251 . S
C1139 O1151 1.268 . S
O1140 Nd1120 2.500 . S
O1140 C1122 1.258 . S
O1141 Nd1120 2.492 . S
O1141 C1122 1.239 . S
O1142 Nd1120 2.487 . S
O1142 C1129 1.241 . S
O1143 Nd1120 2.682 . S
O1143 Nd1121 2.414 . S
O1143 C1129 1.273 . S
O1144 Nd1120 2.410 . S
O1144 C1130 1.251 . S
O1145 Nd1121 2.424 . S
O1145 C1130 1.268 . S
O1146 Nd1121 2.500 . S
O1146 C1131 1.258 . S
O1147 Nd1121 2.492 . S
O1147 C1131 1.239 . S
O1148 Nd1121 2.487 . S
O1148 C1138 1.241 . S
O1149 Nd1120 2.414 . S
O1149 Nd1121 2.682 . S
O1149 C1138 1.273 . S
O1150 Nd1121 2.410 . S
O1150 C1139 1.251 . S
O1151 Nd1120 2.424 . S
O1151 C1139 1.268 . S
H1152 C1124 0.930 . S
H1153 C1125 0.929 . S
H1154 C1127 0.930 . S
H1155 C1128 0.929 . S
H1156 C1133 0.930 . S
H1157 C1134 0.929 . S
H1158 C1136 0.930 . S
H1159 C1137 0.929 . S
Nd1160 C1162 2.836 . S
Nd1160 O1180 2.500 . S
Nd1160 O1181 2.492 . S
Nd1160 O1182 2.487 . S
Nd1160 O1183 2.682 . S
Nd1160 O1184 2.410 . S
Nd1160 O1189 2.414 . S
Nd1160 O1191 2.424 . S
Nd1161 C1171 2.836 . S
Nd1161 O1183 2.414 . S
Nd1161 O1185 2.424 . S
Nd1161 O1186 2.500 . S
Nd1161 O1187 2.492 . S
Nd1161 O1188 2.487 . S
Nd1161 O1189 2.682 . S
Nd1161 O1190 2.410 . S
C1162 Nd1160 2.836 . S
C1162 C1163 1.498 . S
C1162 O1180 1.258 . S
C1162 O1181 1.239 . S
C1163 C1162 1.498 . S
C1163 C1164 1.366 . S
C1163 C1168 1.407 . S
C1164 C1163 1.366 . S
C1164 C1165 1.392 . S
C1164 H1192 0.930 . S
C1165 C1164 1.392 . S
C1165 C1166 1.398 . S
C1165 H1193 0.929 . S
C1166 C1165 1.398 . S
C1166 C1167 1.352 . S
C1167 C1166 1.352 . S
C1167 C1168 1.384 . S
C1167 H1194 0.930 . S
C1168 C1163 1.407 . S
C1168 C1167 1.384 . S
C1168 H1195 0.929 . S
C1169 O1182 1.241 . S
C1169 O1183 1.273 . S
C1170 O1184 1.251 . S
C1170 O1185 1.268 . S
C1171 Nd1161 2.836 . S
C1171 C1172 1.498 . S
C1171 O1186 1.258 . S
C1171 O1187 1.239 . S
C1172 C1171 1.498 . S
C1172 C1173 1.366 . S
C1172 C1177 1.407 . S
C1173 C1172 1.366 . S
C1173 C1174 1.392 . S
C1173 H1196 0.930 . S
C1174 C1173 1.392 . S
C1174 C1175 1.398 . S
C1174 H1197 0.929 . S
C1175 C1174 1.398 . S
C1175 C1176 1.352 . S
C1176 C1175 1.352 . S
C1176 C1177 1.384 . S
C1176 H1198 0.930 . S
C1177 C1172 1.407 . S
C1177 C1176 1.384 . S
C1177 H1199 0.929 . S
C1178 O1188 1.241 . S
C1178 O1189 1.273 . S
C1179 O1190 1.251 . S
C1179 O1191 1.268 . S
O1180 Nd1160 2.500 . S
O1180 C1162 1.258 . S
O1181 Nd1160 2.492 . S
O1181 C1162 1.239 . S
O1182 Nd1160 2.487 . S
O1182 C1169 1.241 . S
O1183 Nd1160 2.682 . S
O1183 Nd1161 2.414 . S
O1183 C1169 1.273 . S
O1184 Nd1160 2.410 . S
O1184 C1170 1.251 . S
O1185 Nd1161 2.424 . S
O1185 C1170 1.268 . S
O1186 Nd1161 2.500 . S
O1186 C1171 1.258 . S
O1187 Nd1161 2.492 . S
O1187 C1171 1.239 . S
O1188 Nd1161 2.487 . S
O1188 C1178 1.241 . S
O1189 Nd1160 2.414 . S
O1189 Nd1161 2.682 . S
O1189 C1178 1.273 . S
O1190 Nd1161 2.410 . S
O1190 C1179 1.251 . S
O1191 Nd1160 2.424 . S
O1191 C1179 1.268 . S
H1192 C1164 0.930 . S
H1193 C1165 0.929 . S
H1194 C1167 0.930 . S
H1195 C1168 0.929 . S
H1196 C1173 0.930 . S
H1197 C1174 0.929 . S
H1198 C1176 0.930 . S
H1199 C1177 0.929 . S
Nd1200 C1202 2.836 . S
Nd1200 O1220 2.500 . S
Nd1200 O1221 2.492 . S
Nd1200 O1222 2.487 . S
Nd1200 O1223 2.682 . S
Nd1200 O1224 2.410 . S
Nd1200 O1229 2.414 . S
Nd1200 O1231 2.424 . S
Nd1201 C1211 2.836 . S
Nd1201 O1223 2.414 . S
Nd1201 O1225 2.424 . S
Nd1201 O1226 2.500 . S
Nd1201 O1227 2.492 . S
Nd1201 O1228 2.487 . S
Nd1201 O1229 2.682 . S
Nd1201 O1230 2.410 . S
C1202 Nd1200 2.836 . S
C1202 C1203 1.498 . S
C1202 O1220 1.258 . S
C1202 O1221 1.239 . S
C1203 C1202 1.498 . S
C1203 C1204 1.366 1_556 S
C1203 C1208 1.407 . S
C1204 C1203 1.366 1_554 S
C1204 C1205 1.392 . S
C1204 H1232 0.931 . S
C1205 C1204 1.392 . S
C1205 C1206 1.398 . S
C1205 H1233 0.929 . S
C1206 C1205 1.398 . S
C1206 C1207 1.352 . S
C1207 C1206 1.352 . S
C1207 C1208 1.384 1_554 S
C1207 H1234 0.930 . S
C1208 C1203 1.407 . S
C1208 C1207 1.384 1_556 S
C1208 H1235 0.929 . S
C1209 O1222 1.241 . S
C1209 O1223 1.273 . S
C1210 O1224 1.251 . S
C1210 O1225 1.268 . S
C1211 Nd1201 2.836 . S
C1211 C1212 1.498 . S
C1211 O1226 1.258 . S
C1211 O1227 1.239 . S
C1212 C1211 1.498 . S
C1212 C1213 1.366 . S
C1212 C1217 1.407 . S
C1213 C1212 1.366 . S
C1213 C1214 1.392 . S
C1213 H1236 0.930 . S
C1214 C1213 1.392 . S
C1214 C1215 1.398 . S
C1214 H1237 0.929 . S
C1215 C1214 1.398 . S
C1215 C1216 1.352 . S
C1216 C1215 1.352 . S
C1216 C1217 1.384 . S
C1216 H1238 0.930 . S
C1217 C1212 1.407 . S
C1217 C1216 1.384 . S
C1217 H1239 0.929 . S
C1218 O1228 1.241 . S
C1218 O1229 1.273 . S
C1219 O1230 1.251 . S
C1219 O1231 1.268 . S
O1220 Nd1200 2.500 . S
O1220 C1202 1.258 . S
O1221 Nd1200 2.492 . S
O1221 C1202 1.239 . S
O1222 Nd1200 2.487 . S
O1222 C1209 1.241 . S
O1223 Nd1200 2.682 . S
O1223 Nd1201 2.414 . S
O1223 C1209 1.273 . S
O1224 Nd1200 2.410 . S
O1224 C1210 1.251 . S
O1225 Nd1201 2.424 . S
O1225 C1210 1.268 . S
O1226 Nd1201 2.500 . S
O1226 C1211 1.258 . S
O1227 Nd1201 2.492 . S
O1227 C1211 1.239 . S
O1228 Nd1201 2.487 . S
O1228 C1218 1.241 . S
O1229 Nd1200 2.414 . S
O1229 Nd1201 2.682 . S
O1229 C1218 1.273 . S
O1230 Nd1201 2.410 . S
O1230 C1219 1.251 . S
O1231 Nd1200 2.424 . S
O1231 C1219 1.268 . S
H1232 C1204 0.931 . S
H1233 C1205 0.929 . S
H1234 C1207 0.930 . S
H1235 C1208 0.929 . S
H1236 C1213 0.930 . S
H1237 C1214 0.929 . S
H1238 C1216 0.930 . S
H1239 C1217 0.929 . S
Nd1240 C1242 2.836 . S
Nd1240 O1260 2.500 . S
Nd1240 O1261 2.492 . S
Nd1240 O1262 2.487 . S
Nd1240 O1263 2.682 . S
Nd1240 O1264 2.410 . S
Nd1240 O1269 2.414 . S
Nd1240 O1271 2.424 . S
Nd1241 C1251 2.836 . S
Nd1241 O1263 2.414 . S
Nd1241 O1265 2.424 . S
Nd1241 O1266 2.500 . S
Nd1241 O1267 2.492 . S
Nd1241 O1268 2.487 . S
Nd1241 O1269 2.682 . S
Nd1241 O1270 2.410 . S
C1242 Nd1240 2.836 . S
C1242 C1243 1.498 . S
C1242 O1260 1.258 . S
C1242 O1261 1.239 . S
C1243 C1242 1.498 . S
C1243 C1244 1.366 1_556 S
C1243 C1248 1.407 . S
C1244 C1243 1.366 1_554 S
C1244 C1245 1.392 . S
C1244 H1272 0.930 . S
C1245 C1244 1.392 . S
C1245 C1246 1.398 . S
C1245 H1273 0.929 . S
C1246 C1245 1.398 . S
C1246 C1247 1.352 . S
C1247 C1246 1.352 . S
C1247 C1248 1.384 1_554 S
C1247 H1274 0.930 . S
C1248 C1243 1.407 . S
C1248 C1247 1.384 1_556 S
C1248 H1275 0.929 . S
C1249 O1262 1.241 . S
C1249 O1263 1.273 . S
C1250 O1264 1.251 . S
C1250 O1265 1.268 . S
C1251 Nd1241 2.836 . S
C1251 C1252 1.498 . S
C1251 O1266 1.258 . S
C1251 O1267 1.239 . S
C1252 C1251 1.498 . S
C1252 C1253 1.366 . S
C1252 C1257 1.407 . S
C1253 C1252 1.366 . S
C1253 C1254 1.392 . S
C1253 H1276 0.930 . S
C1254 C1253 1.392 . S
C1254 C1255 1.398 . S
C1254 H1277 0.929 . S
C1255 C1254 1.398 . S
C1255 C1256 1.352 . S
C1256 C1255 1.352 . S
C1256 C1257 1.384 . S
C1256 H1278 0.930 . S
C1257 C1252 1.407 . S
C1257 C1256 1.384 . S
C1257 H1279 0.929 . S
C1258 O1268 1.241 . S
C1258 O1269 1.273 . S
C1259 O1270 1.251 . S
C1259 O1271 1.268 . S
O1260 Nd1240 2.500 . S
O1260 C1242 1.258 . S
O1261 Nd1240 2.492 . S
O1261 C1242 1.239 . S
O1262 Nd1240 2.487 . S
O1262 C1249 1.241 . S
O1263 Nd1240 2.682 . S
O1263 Nd1241 2.414 . S
O1263 C1249 1.273 . S
O1264 Nd1240 2.410 . S
O1264 C1250 1.251 . S
O1265 Nd1241 2.424 . S
O1265 C1250 1.268 . S
O1266 Nd1241 2.500 . S
O1266 C1251 1.258 . S
O1267 Nd1241 2.492 . S
O1267 C1251 1.239 . S
O1268 Nd1241 2.487 . S
O1268 C1258 1.241 . S
O1269 Nd1240 2.414 . S
O1269 Nd1241 2.682 . S
O1269 C1258 1.273 . S
O1270 Nd1241 2.410 . S
O1270 C1259 1.251 . S
O1271 Nd1240 2.424 . S
O1271 C1259 1.268 . S
H1272 C1244 0.930 . S
H1273 C1245 0.929 . S
H1274 C1247 0.930 . S
H1275 C1248 0.929 . S
H1276 C1253 0.930 . S
H1277 C1254 0.929 . S
H1278 C1256 0.930 . S
H1279 C1257 0.929 . S
Nd1280 C1282 2.836 . S
Nd1280 O1300 2.500 . S
Nd1280 O1301 2.492 . S
Nd1280 O1302 2.487 . S
Nd1280 O1303 2.682 . S
Nd1280 O1304 2.410 . S
Nd1280 O1309 2.414 . S
Nd1280 O1311 2.424 . S
Nd1281 C1291 2.836 . S
Nd1281 O1303 2.414 . S
Nd1281 O1305 2.424 . S
Nd1281 O1306 2.500 . S
Nd1281 O1307 2.492 . S
Nd1281 O1308 2.487 . S
Nd1281 O1309 2.682 . S
Nd1281 O1310 2.410 . S
C1282 Nd1280 2.836 . S
C1282 C1283 1.498 . S
C1282 O1300 1.258 . S
C1282 O1301 1.239 . S
C1283 C1282 1.498 . S
C1283 C1284 1.366 1_556 S
C1283 C1288 1.407 . S
C1284 C1283 1.366 1_554 S
C1284 C1285 1.392 . S
C1284 H1312 0.930 . S
C1285 C1284 1.392 . S
C1285 C1286 1.398 . S
C1285 H1313 0.929 . S
C1286 C1285 1.398 . S
C1286 C1287 1.352 . S
C1287 C1286 1.352 . S
C1287 C1288 1.384 1_554 S
C1287 H1314 0.930 . S
C1288 C1283 1.407 . S
C1288 C1287 1.384 1_556 S
C1288 H1315 0.929 . S
C1289 O1302 1.241 . S
C1289 O1303 1.273 . S
C1290 O1304 1.251 . S
C1290 O1305 1.268 . S
C1291 Nd1281 2.836 . S
C1291 C1292 1.498 . S
C1291 O1306 1.258 . S
C1291 O1307 1.239 . S
C1292 C1291 1.498 . S
C1292 C1293 1.366 . S
C1292 C1297 1.407 . S
C1293 C1292 1.366 . S
C1293 C1294 1.392 . S
C1293 H1316 0.930 . S
C1294 C1293 1.392 . S
C1294 C1295 1.398 . S
C1294 H1317 0.929 . S
C1295 C1294 1.398 . S
C1295 C1296 1.352 . S
C1296 C1295 1.352 . S
C1296 C1297 1.384 . S
C1296 H1318 0.930 . S
C1297 C1292 1.407 . S
C1297 C1296 1.384 . S
C1297 H1319 0.929 . S
C1298 O1308 1.241 . S
C1298 O1309 1.273 . S
C1299 O1310 1.251 . S
C1299 O1311 1.268 . S
O1300 Nd1280 2.500 . S
O1300 C1282 1.258 . S
O1301 Nd1280 2.492 . S
O1301 C1282 1.239 . S
O1302 Nd1280 2.487 . S
O1302 C1289 1.241 . S
O1303 Nd1280 2.682 . S
O1303 Nd1281 2.414 . S
O1303 C1289 1.273 . S
O1304 Nd1280 2.410 . S
O1304 C1290 1.251 . S
O1305 Nd1281 2.424 . S
O1305 C1290 1.268 . S
O1306 Nd1281 2.500 . S
O1306 C1291 1.258 . S
O1307 Nd1281 2.492 . S
O1307 C1291 1.239 . S
O1308 Nd1281 2.487 . S
O1308 C1298 1.241 . S
O1309 Nd1280 2.414 . S
O1309 Nd1281 2.682 . S
O1309 C1298 1.273 . S
O1310 Nd1281 2.410 . S
O1310 C1299 1.251 . S
O1311 Nd1280 2.424 . S
O1311 C1299 1.268 . S
H1312 C1284 0.930 . S
H1313 C1285 0.929 . S
H1314 C1287 0.930 . S
H1315 C1288 0.929 . S
H1316 C1293 0.930 . S
H1317 C1294 0.929 . S
H1318 C1296 0.930 . S
H1319 C1297 0.929 . S
Nd1320 C1322 2.836 . S
Nd1320 O1340 2.500 . S
Nd1320 O1341 2.492 . S
Nd1320 O1342 2.487 . S
Nd1320 O1343 2.682 . S
Nd1320 O1344 2.410 . S
Nd1320 O1349 2.414 . S
Nd1320 O1351 2.424 . S
Nd1321 C1331 2.836 . S
Nd1321 O1343 2.414 . S
Nd1321 O1345 2.424 . S
Nd1321 O1346 2.500 . S
Nd1321 O1347 2.492 . S
Nd1321 O1348 2.487 . S
Nd1321 O1349 2.682 . S
Nd1321 O1350 2.410 . S
C1322 Nd1320 2.836 . S
C1322 C1323 1.498 . S
C1322 O1340 1.258 . S
C1322 O1341 1.239 . S
C1323 C1322 1.498 . S
C1323 C1324 1.366 1_554 S
C1323 C1328 1.407 1_554 S
C1324 C1323 1.366 1_556 S
C1324 C1325 1.392 . S
C1324 H1352 0.930 . S
C1325 C1324 1.392 . S
C1325 C1326 1.398 . S
C1325 H1353 0.929 . S
C1326 C1325 1.398 . S
C1326 C1327 1.352 . S
C1327 C1326 1.352 . S
C1327 C1328 1.384 . S
C1327 H1354 0.930 . S
C1328 C1323 1.407 1_556 S
C1328 C1327 1.384 . S
C1328 H1355 0.929 1_556 S
C1329 O1342 1.241 . S
C1329 O1343 1.273 . S
C1330 O1344 1.251 . S
C1330 O1345 1.268 . S
C1331 Nd1321 2.836 . S
C1331 C1332 1.498 . S
C1331 O1346 1.258 . S
C1331 O1347 1.239 . S
C1332 C1331 1.498 . S
C1332 C1333 1.366 . S
C1332 C1337 1.407 . S
C1333 C1332 1.366 . S
C1333 C1334 1.392 . S
C1333 H1356 0.930 . S
C1334 C1333 1.392 . S
C1334 C1335 1.398 . S
C1334 H1357 0.929 . S
C1335 C1334 1.398 . S
C1335 C1336 1.352 . S
C1336 C1335 1.352 . S
C1336 C1337 1.384 . S
C1336 H1358 0.930 . S
C1337 C1332 1.407 . S
C1337 C1336 1.384 . S
C1337 H1359 0.929 . S
C1338 O1348 1.241 . S
C1338 O1349 1.273 . S
C1339 O1350 1.251 . S
C1339 O1351 1.268 . S
O1340 Nd1320 2.500 . S
O1340 C1322 1.258 . S
O1341 Nd1320 2.492 . S
O1341 C1322 1.239 . S
O1342 Nd1320 2.487 . S
O1342 C1329 1.241 . S
O1343 Nd1320 2.682 . S
O1343 Nd1321 2.414 . S
O1343 C1329 1.273 . S
O1344 Nd1320 2.410 . S
O1344 C1330 1.251 . S
O1345 Nd1321 2.424 . S
O1345 C1330 1.268 . S
O1346 Nd1321 2.500 . S
O1346 C1331 1.258 . S
O1347 Nd1321 2.492 . S
O1347 C1331 1.239 . S
O1348 Nd1321 2.487 . S
O1348 C1338 1.241 . S
O1349 Nd1320 2.414 . S
O1349 Nd1321 2.682 . S
O1349 C1338 1.273 . S
O1350 Nd1321 2.410 . S
O1350 C1339 1.251 . S
O1351 Nd1320 2.424 . S
O1351 C1339 1.268 . S
H1352 C1324 0.930 . S
H1353 C1325 0.929 . S
H1354 C1327 0.930 . S
H1355 C1328 0.929 1_554 S
H1356 C1333 0.930 . S
H1357 C1334 0.929 . S
H1358 C1336 0.930 . S
H1359 C1337 0.929 . S
Nd1360 C1362 2.836 . S
Nd1360 O1380 2.500 . S
Nd1360 O1381 2.492 . S
Nd1360 O1382 2.487 . S
Nd1360 O1383 2.682 . S
Nd1360 O1384 2.410 . S
Nd1360 O1389 2.414 . S
Nd1360 O1391 2.424 . S
Nd1361 C1371 2.836 . S
Nd1361 O1383 2.414 . S
Nd1361 O1385 2.424 . S
Nd1361 O1386 2.500 . S
Nd1361 O1387 2.492 . S
Nd1361 O1388 2.487 . S
Nd1361 O1389 2.682 . S
Nd1361 O1390 2.410 . S
C1362 Nd1360 2.836 . S
C1362 C1363 1.498 . S
C1362 O1380 1.258 . S
C1362 O1381 1.239 . S
C1363 C1362 1.498 . S
C1363 C1364 1.366 1_554 S
C1363 C1368 1.407 1_554 S
C1364 C1363 1.366 1_556 S
C1364 C1365 1.392 . S
C1364 H1392 0.930 . S
C1365 C1364 1.392 . S
C1365 C1366 1.398 . S
C1365 H1393 0.929 . S
C1366 C1365 1.398 . S
C1366 C1367 1.352 . S
C1367 C1366 1.352 . S
C1367 C1368 1.384 . S
C1367 H1394 0.930 . S
C1368 C1363 1.407 1_556 S
C1368 C1367 1.384 . S
C1368 H1395 0.929 1_556 S
C1369 O1382 1.241 . S
C1369 O1383 1.273 . S
C1370 O1384 1.251 . S
C1370 O1385 1.268 . S
C1371 Nd1361 2.836 . S
C1371 C1372 1.498 . S
C1371 O1386 1.258 . S
C1371 O1387 1.239 . S
C1372 C1371 1.498 . S
C1372 C1373 1.366 . S
C1372 C1377 1.407 . S
C1373 C1372 1.366 . S
C1373 C1374 1.392 . S
C1373 H1396 0.930 . S
C1374 C1373 1.392 . S
C1374 C1375 1.398 . S
C1374 H1397 0.929 . S
C1375 C1374 1.398 . S
C1375 C1376 1.352 . S
C1376 C1375 1.352 . S
C1376 C1377 1.384 . S
C1376 H1398 0.930 . S
C1377 C1372 1.407 . S
C1377 C1376 1.384 . S
C1377 H1399 0.929 . S
C1378 O1388 1.241 . S
C1378 O1389 1.273 . S
C1379 O1390 1.251 . S
C1379 O1391 1.268 . S
O1380 Nd1360 2.500 . S
O1380 C1362 1.258 . S
O1381 Nd1360 2.492 . S
O1381 C1362 1.239 . S
O1382 Nd1360 2.487 . S
O1382 C1369 1.241 . S
O1383 Nd1360 2.682 . S
O1383 Nd1361 2.414 . S
O1383 C1369 1.273 . S
O1384 Nd1360 2.410 . S
O1384 C1370 1.251 . S
O1385 Nd1361 2.424 . S
O1385 C1370 1.268 . S
O1386 Nd1361 2.500 . S
O1386 C1371 1.258 . S
O1387 Nd1361 2.492 . S
O1387 C1371 1.239 . S
O1388 Nd1361 2.487 . S
O1388 C1378 1.241 . S
O1389 Nd1360 2.414 . S
O1389 Nd1361 2.682 . S
O1389 C1378 1.273 . S
O1390 Nd1361 2.410 . S
O1390 C1379 1.251 . S
O1391 Nd1360 2.424 . S
O1391 C1379 1.268 . S
H1392 C1364 0.930 . S
H1393 C1365 0.929 . S
H1394 C1367 0.930 . S
H1395 C1368 0.929 1_554 S
H1396 C1373 0.930 . S
H1397 C1374 0.929 . S
H1398 C1376 0.930 . S
H1399 C1377 0.929 . S
Nd1400 C1402 2.836 . S
Nd1400 O1420 2.500 . S
Nd1400 O1421 2.492 . S
Nd1400 O1422 2.487 . S
Nd1400 O1423 2.682 . S
Nd1400 O1424 2.410 . S
Nd1400 O1429 2.414 . S
Nd1400 O1431 2.424 . S
Nd1401 C1411 2.836 . S
Nd1401 O1423 2.414 . S
Nd1401 O1425 2.424 . S
Nd1401 O1426 2.500 . S
Nd1401 O1427 2.492 . S
Nd1401 O1428 2.487 . S
Nd1401 O1429 2.682 . S
Nd1401 O1430 2.410 . S
C1402 Nd1400 2.836 . S
C1402 C1403 1.498 . S
C1402 O1420 1.258 . S
C1402 O1421 1.239 . S
C1403 C1402 1.498 . S
C1403 C1404 1.366 1_554 S
C1403 C1408 1.407 1_554 S
C1404 C1403 1.366 1_556 S
C1404 C1405 1.392 . S
C1404 H1432 0.930 . S
C1405 C1404 1.392 . S
C1405 C1406 1.398 . S
C1405 H1433 0.929 . S
C1406 C1405 1.398 . S
C1406 C1407 1.352 . S
C1407 C1406 1.352 . S
C1407 C1408 1.384 . S
C1407 H1434 0.930 . S
C1408 C1403 1.407 1_556 S
C1408 C1407 1.384 . S
C1408 H1435 0.929 1_556 S
C1409 O1422 1.241 . S
C1409 O1423 1.273 . S
C1410 O1424 1.251 . S
C1410 O1425 1.268 . S
C1411 Nd1401 2.836 . S
C1411 C1412 1.498 . S
C1411 O1426 1.258 . S
C1411 O1427 1.239 . S
C1412 C1411 1.498 . S
C1412 C1413 1.366 . S
C1412 C1417 1.407 . S
C1413 C1412 1.366 . S
C1413 C1414 1.392 . S
C1413 H1436 0.930 . S
C1414 C1413 1.392 . S
C1414 C1415 1.398 . S
C1414 H1437 0.929 . S
C1415 C1414 1.398 . S
C1415 C1416 1.352 . S
C1416 C1415 1.352 . S
C1416 C1417 1.384 . S
C1416 H1438 0.930 . S
C1417 C1412 1.407 . S
C1417 C1416 1.384 . S
C1417 H1439 0.929 . S
C1418 O1428 1.241 . S
C1418 O1429 1.273 . S
C1419 O1430 1.251 . S
C1419 O1431 1.268 . S
O1420 Nd1400 2.500 . S
O1420 C1402 1.258 . S
O1421 Nd1400 2.492 . S
O1421 C1402 1.239 . S
O1422 Nd1400 2.487 . S
O1422 C1409 1.241 . S
O1423 Nd1400 2.682 . S
O1423 Nd1401 2.414 . S
O1423 C1409 1.273 . S
O1424 Nd1400 2.410 . S
O1424 C1410 1.251 . S
O1425 Nd1401 2.424 . S
O1425 C1410 1.268 . S
O1426 Nd1401 2.500 . S
O1426 C1411 1.258 . S
O1427 Nd1401 2.492 . S
O1427 C1411 1.239 . S
O1428 Nd1401 2.487 . S
O1428 C1418 1.241 . S
O1429 Nd1400 2.414 . S
O1429 Nd1401 2.682 . S
O1429 C1418 1.273 . S
O1430 Nd1401 2.410 . S
O1430 C1419 1.251 . S
O1431 Nd1400 2.424 . S
O1431 C1419 1.268 . S
H1432 C1404 0.930 . S
H1433 C1405 0.929 . S
H1434 C1407 0.930 . S
H1435 C1408 0.929 1_554 S
H1436 C1413 0.930 . S
H1437 C1414 0.929 . S
H1438 C1416 0.930 . S
H1439 C1417 0.929 . S
C1440 C1441 1.363 1_556 S
C1440 C1446 1.379 . S
C1440 N1448 1.356 . S
C1441 C1440 1.363 1_554 S
C1441 C1447 1.363 . S
C1442 C1443 1.363 1_554 S
C1442 C1447 1.379 . S
C1442 N1449 1.356 . S
C1443 C1442 1.363 1_556 S
C1443 C1446 1.363 . S
N1444 C1446 1.356 . S
N1444 H1456 0.984 . S
N1444 H1457 0.985 . S
N1445 C1447 1.356 . S
N1445 H1450 0.984 . S
N1445 H1451 0.985 . S
C1446 C1440 1.379 . S
C1446 C1443 1.363 . S
C1446 N1444 1.356 . S
C1447 C1441 1.363 . S
C1447 C1442 1.379 . S
C1447 N1445 1.356 . S
N1448 C1440 1.356 . S
N1448 H1454 0.984 . S
N1448 H1455 0.984 . S
N1449 C1442 1.356 . S
N1449 H1452 0.984 . S
N1449 H1453 0.985 . S
H1450 N1445 0.984 . S
H1451 N1445 0.985 . S
H1452 N1449 0.984 . S
H1453 N1449 0.985 . S
H1454 N1448 0.984 . S
H1455 N1448 0.984 . S
H1456 N1444 0.984 . S
H1457 N1444 0.985 . S
C1458 C1459 1.363 . S
C1458 C1464 1.379 . S
C1458 N1466 1.356 . S
C1459 C1458 1.363 . S
C1459 C1465 1.363 1_554 S
C1460 C1461 1.363 . S
C1460 C1465 1.379 . S
C1460 N1467 1.356 . S
C1461 C1460 1.363 . S
C1461 C1464 1.363 1_556 S
N1462 C1464 1.356 . S
N1462 H1474 0.984 . S
N1462 H1475 0.985 . S
N1463 C1465 1.356 . S
N1463 H1468 0.984 . S
N1463 H1469 0.985 . S
C1464 C1458 1.379 . S
C1464 C1461 1.363 1_554 S
C1464 N1462 1.356 . S
C1465 C1459 1.363 1_556 S
C1465 C1460 1.379 . S
C1465 N1463 1.356 . S
N1466 C1458 1.356 . S
N1466 H1472 0.984 . S
N1466 H1473 0.984 . S
N1467 C1460 1.356 . S
N1467 H1470 0.984 . S
N1467 H1471 0.985 . S
H1468 N1463 0.984 . S
H1469 N1463 0.985 . S
H1470 N1467 0.984 . S
H1471 N1467 0.985 . S
H1472 N1466 0.984 . S
H1473 N1466 0.984 . S
H1474 N1462 0.984 . S
H1475 N1462 0.985 . S
C1476 C1477 1.363 1_554 S
C1476 C1482 1.379 . S
C1476 N1484 1.356 . S
C1477 C1476 1.363 1_556 S
C1477 C1483 1.363 . S
C1478 C1479 1.363 1_556 S
C1478 C1483 1.379 . S
C1478 N1485 1.356 . S
C1479 C1478 1.363 1_554 S
C1479 C1482 1.363 . S
N1480 C1482 1.356 . S
N1480 H1492 0.984 . S
N1480 H1493 0.985 . S
N1481 C1483 1.356 . S
N1481 H1486 0.984 . S
N1481 H1487 0.985 . S
C1482 C1476 1.379 . S
C1482 C1479 1.363 . S
C1482 N1480 1.356 . S
C1483 C1477 1.363 . S
C1483 C1478 1.379 . S
C1483 N1481 1.356 . S
N1484 C1476 1.356 . S
N1484 H1490 0.984 . S
N1484 H1491 0.984 . S
N1485 C1478 1.356 . S
N1485 H1488 0.984 . S
N1485 H1489 0.985 . S
H1486 N1481 0.984 . S
H1487 N1481 0.985 . S
H1488 N1485 0.984 . S
H1489 N1485 0.985 . S
H1490 N1484 0.984 . S
H1491 N1484 0.984 . S
H1492 N1480 0.984 . S
H1493 N1480 0.985 . S
C1494 C1495 1.363 . S
C1494 C1500 1.379 . S
C1494 N1502 1.356 . S
C1495 C1494 1.363 . S
C1495 C1501 1.363 . S
C1496 C1497 1.363 . S
C1496 C1501 1.379 . S
C1496 N1503 1.356 . S
C1497 C1496 1.363 . S
C1497 C1500 1.363 . S
N1498 C1500 1.356 . S
N1498 H1510 0.984 . S
N1498 H1511 0.985 . S
N1499 C1501 1.356 . S
N1499 H1504 0.984 . S
N1499 H1505 0.985 . S
C1500 C1494 1.379 . S
C1500 C1497 1.363 . S
C1500 N1498 1.356 . S
C1501 C1495 1.363 . S
C1501 C1496 1.379 . S
C1501 N1499 1.356 . S
N1502 C1494 1.356 . S
N1502 H1508 0.984 . S
N1502 H1509 0.984 . S
N1503 C1496 1.356 . S
N1503 H1506 0.984 . S
N1503 H1507 0.985 . S
H1504 N1499 0.984 . S
H1505 N1499 0.985 . S
H1506 N1503 0.984 . S
H1507 N1503 0.985 . S
H1508 N1502 0.984 . S
H1509 N1502 0.984 . S
H1510 N1498 0.984 . S
H1511 N1498 0.985 . S
C1512 C1513 1.363 . S
C1512 C1518 1.379 . S
C1512 N1520 1.356 . S
C1513 C1512 1.363 . S
C1513 C1519 1.363 . S
C1514 C1515 1.363 . S
C1514 C1519 1.379 . S
C1514 N1521 1.356 . S
C1515 C1514 1.363 . S
C1515 C1518 1.363 . S
N1516 C1518 1.356 . S
N1516 H1528 0.984 . S
N1516 H1529 0.985 . S
N1517 C1519 1.356 . S
N1517 H1522 0.984 . S
N1517 H1523 0.985 . S
C1518 C1512 1.379 . S
C1518 C1515 1.363 . S
C1518 N1516 1.356 . S
C1519 C1513 1.363 . S
C1519 C1514 1.379 . S
C1519 N1517 1.356 . S
N1520 C1512 1.356 . S
N1520 H1526 0.984 . S
N1520 H1527 0.984 . S
N1521 C1514 1.356 . S
N1521 H1524 0.984 . S
N1521 H1525 0.985 . S
H1522 N1517 0.984 . S
H1523 N1517 0.985 . S
H1524 N1521 0.984 . S
H1525 N1521 0.985 . S
H1526 N1520 0.984 . S
H1527 N1520 0.984 . S
H1528 N1516 0.984 . S
H1529 N1516 0.985 . S
C1530 C1531 1.363 . S
C1530 C1536 1.379 . S
C1530 N1538 1.356 . S
C1531 C1530 1.363 . S
C1531 C1537 1.363 . S
C1532 C1533 1.363 . S
C1532 C1537 1.379 . S
C1532 N1539 1.356 . S
C1533 C1532 1.363 . S
C1533 C1536 1.363 . S
N1534 C1536 1.356 . S
N1534 H1546 0.984 . S
N1534 H1547 0.985 . S
N1535 C1537 1.356 . S
N1535 H1540 0.984 . S
N1535 H1541 0.985 . S
C1536 C1530 1.379 . S
C1536 C1533 1.363 . S
C1536 N1534 1.356 . S
C1537 C1531 1.363 . S
C1537 C1532 1.379 . S
C1537 N1535 1.356 . S
N1538 C1530 1.356 . S
N1538 H1544 0.984 . S
N1538 H1545 0.984 . S
N1539 C1532 1.356 . S
N1539 H1542 0.984 . S
N1539 H1543 0.985 . S
H1540 N1535 0.984 . S
H1541 N1535 0.985 . S
H1542 N1539 0.984 . S
H1543 N1539 0.985 . S
H1544 N1538 0.984 . S
H1545 N1538 0.984 . S
H1546 N1534 0.984 . S
H1547 N1534 0.985 . S
C1548 C1549 1.363 . S
C1548 C1554 1.379 . S
C1548 N1556 1.356 . S
C1549 C1548 1.363 . S
C1549 C1555 1.363 . S
C1550 C1551 1.363 . S
C1550 C1555 1.379 . S
C1550 N1557 1.356 . S
C1551 C1550 1.363 . S
C1551 C1554 1.363 . S
N1552 C1554 1.356 . S
N1552 H1564 0.984 . S
N1552 H1565 0.985 . S
N1553 C1555 1.356 . S
N1553 H1558 0.984 . S
N1553 H1559 0.985 . S
C1554 C1548 1.379 . S
C1554 C1551 1.363 . S
C1554 N1552 1.356 . S
C1555 C1549 1.363 . S
C1555 C1550 1.379 . S
C1555 N1553 1.356 . S
N1556 C1548 1.356 . S
N1556 H1562 0.984 . S
N1556 H1563 0.984 . S
N1557 C1550 1.356 . S
N1557 H1560 0.984 . S
N1557 H1561 0.985 . S
H1558 N1553 0.984 . S
H1559 N1553 0.985 . S
H1560 N1557 0.984 . S
H1561 N1557 0.985 . S
H1562 N1556 0.984 . S
H1563 N1556 0.984 . S
H1564 N1552 0.984 . S
H1565 N1552 0.985 . S
C1566 C1567 1.363 . S
C1566 C1572 1.379 . S
C1566 N1574 1.356 . S
C1567 C1566 1.363 . S
C1567 C1573 1.363 . S
C1568 C1569 1.363 . S
C1568 C1573 1.379 . S
C1568 N1575 1.356 . S
C1569 C1568 1.363 . S
C1569 C1572 1.363 . S
N1570 C1572 1.356 . S
N1570 H1582 0.984 . S
N1570 H1583 0.985 . S
N1571 C1573 1.356 . S
N1571 H1576 0.984 . S
N1571 H1577 0.985 . S
C1572 C1566 1.379 . S
C1572 C1569 1.363 . S
C1572 N1570 1.356 . S
C1573 C1567 1.363 . S
C1573 C1568 1.379 . S
C1573 N1571 1.356 . S
N1574 C1566 1.356 . S
N1574 H1580 0.984 . S
N1574 H1581 0.984 . S
N1575 C1568 1.356 . S
N1575 H1578 0.984 . S
N1575 H1579 0.985 . S
H1576 N1571 0.984 . S
H1577 N1571 0.985 . S
H1578 N1575 0.984 . S
H1579 N1575 0.985 . S
H1580 N1574 0.984 . S
H1581 N1574 0.984 . S
H1582 N1570 0.984 . S
H1583 N1570 0.985 . S
C1584 C1585 1.363 . S
C1584 C1590 1.379 . S
C1584 N1592 1.356 . S
C1585 C1584 1.363 . S
C1585 C1591 1.363 . S
C1586 C1587 1.363 . S
C1586 C1591 1.379 . S
C1586 N1593 1.356 . S
C1587 C1586 1.363 . S
C1587 C1590 1.363 . S
N1588 C1590 1.356 . S
N1588 H1600 0.984 . S
N1588 H1601 0.985 . S
N1589 C1591 1.356 . S
N1589 H1594 0.984 . S
N1589 H1595 0.985 . S
C1590 C1584 1.379 . S
C1590 C1587 1.363 . S
C1590 N1588 1.356 . S
C1591 C1585 1.363 . S
C1591 C1586 1.379 . S
C1591 N1589 1.356 . S
N1592 C1584 1.356 . S
N1592 H1598 0.984 . S
N1592 H1599 0.984 . S
N1593 C1586 1.356 . S
N1593 H1596 0.984 . S
N1593 H1597 0.985 . S
H1594 N1589 0.984 . S
H1595 N1589 0.985 . S
H1596 N1593 0.984 . S
H1597 N1593 0.985 . S
H1598 N1592 0.984 . S
H1599 N1592 0.984 . S
H1600 N1588 0.984 . S
H1601 N1588 0.985 . S
C1602 C1603 1.363 . S
C1602 C1608 1.379 . S
C1602 N1610 1.356 . S
C1603 C1602 1.363 . S
C1603 C1609 1.363 . S
C1604 C1605 1.363 . S
C1604 C1609 1.379 . S
C1604 N1611 1.356 . S
C1605 C1604 1.363 . S
C1605 C1608 1.363 . S
N1606 C1608 1.356 . S
N1606 H1618 0.984 . S
N1606 H1619 0.985 . S
N1607 C1609 1.356 . S
N1607 H1612 0.984 . S
N1607 H1613 0.985 . S
C1608 C1602 1.379 . S
C1608 C1605 1.363 . S
C1608 N1606 1.356 . S
C1609 C1603 1.363 . S
C1609 C1604 1.379 . S
C1609 N1607 1.356 . S
N1610 C1602 1.356 . S
N1610 H1616 0.984 . S
N1610 H1617 0.984 . S
N1611 C1604 1.356 . S
N1611 H1614 0.984 . S
N1611 H1615 0.985 . S
H1612 N1607 0.984 . S
H1613 N1607 0.985 . S
H1614 N1611 0.984 . S
H1615 N1611 0.985 . S
H1616 N1610 0.984 . S
H1617 N1610 0.984 . S
H1618 N1606 0.984 . S
H1619 N1606 0.985 . S
C1620 C1621 1.363 . S
C1620 C1626 1.379 . S
C1620 N1628 1.356 . S
C1621 C1620 1.363 . S
C1621 C1627 1.363 . S
C1622 C1623 1.363 . S
C1622 C1627 1.379 . S
C1622 N1629 1.356 . S
C1623 C1622 1.363 . S
C1623 C1626 1.363 . S
N1624 C1626 1.356 . S
N1624 H1636 0.984 . S
N1624 H1637 0.985 . S
N1625 C1627 1.356 . S
N1625 H1630 0.984 . S
N1625 H1631 0.985 . S
C1626 C1620 1.379 . S
C1626 C1623 1.363 . S
C1626 N1624 1.356 . S
C1627 C1621 1.363 . S
C1627 C1622 1.379 . S
C1627 N1625 1.356 . S
N1628 C1620 1.356 . S
N1628 H1634 0.984 . S
N1628 H1635 0.984 . S
N1629 C1622 1.356 . S
N1629 H1632 0.984 . S
N1629 H1633 0.985 . S
H1630 N1625 0.984 . S
H1631 N1625 0.985 . S
H1632 N1629 0.984 . S
H1633 N1629 0.985 . S
H1634 N1628 0.984 . S
H1635 N1628 0.984 . S
H1636 N1624 0.984 . S
H1637 N1624 0.985 . S
C1638 C1639 1.363 . S
C1638 C1644 1.379 . S
C1638 N1646 1.356 . S
C1639 C1638 1.363 . S
C1639 C1645 1.363 . S
C1640 C1641 1.363 . S
C1640 C1645 1.379 . S
C1640 N1647 1.356 . S
C1641 C1640 1.363 . S
C1641 C1644 1.363 . S
N1642 C1644 1.356 . S
N1642 H1654 0.984 . S
N1642 H1655 0.985 . S
N1643 C1645 1.356 . S
N1643 H1648 0.984 . S
N1643 H1649 0.985 . S
C1644 C1638 1.379 . S
C1644 C1641 1.363 . S
C1644 N1642 1.356 . S
C1645 C1639 1.363 . S
C1645 C1640 1.379 . S
C1645 N1643 1.356 . S
N1646 C1638 1.356 . S
N1646 H1652 0.984 . S
N1646 H1653 0.984 . S
N1647 C1640 1.356 . S
N1647 H1650 0.984 . S
N1647 H1651 0.985 . S
H1648 N1643 0.984 . S
H1649 N1643 0.985 . S
H1650 N1647 0.984 . S
H1651 N1647 0.985 . S
H1652 N1646 0.984 . S
H1653 N1646 0.984 . S
H1654 N1642 0.984 . S
H1655 N1642 0.985 . S
C1656 C1657 1.363 . S
C1656 C1662 1.379 . S
C1656 N1664 1.356 . S
C1657 C1656 1.363 . S
C1657 C1663 1.363 . S
C1658 C1659 1.363 . S
C1658 C1663 1.379 . S
C1658 N1665 1.356 . S
C1659 C1658 1.363 . S
C1659 C1662 1.363 . S
N1660 C1662 1.356 . S
N1660 H1672 0.984 . S
N1660 H1673 0.985 . S
N1661 C1663 1.356 . S
N1661 H1666 0.984 . S
N1661 H1667 0.985 . S
C1662 C1656 1.379 . S
C1662 C1659 1.363 . S
C1662 N1660 1.356 . S
C1663 C1657 1.363 . S
C1663 C1658 1.379 . S
C1663 N1661 1.356 . S
N1664 C1656 1.356 . S
N1664 H1670 0.984 . S
N1664 H1671 0.984 . S
N1665 C1658 1.356 . S
N1665 H1668 0.984 . S
N1665 H1669 0.985 . S
H1666 N1661 0.984 . S
H1667 N1661 0.985 . S
H1668 N1665 0.984 . S
H1669 N1665 0.985 . S
H1670 N1664 0.984 . S
H1671 N1664 0.984 . S
H1672 N1660 0.984 . S
H1673 N1660 0.985 . S
C1674 C1675 1.363 . S
C1674 C1680 1.379 1_565 S
C1674 N1682 1.356 . S
C1675 C1674 1.363 . S
C1675 C1681 1.363 . S
C1676 C1677 1.363 . S
C1676 C1681 1.379 1_545 S
C1676 N1683 1.356 . S
C1677 C1676 1.363 . S
C1677 C1680 1.363 . S
N1678 C1680 1.356 . S
N1678 H1690 0.984 . S
N1678 H1691 0.985 . S
N1679 C1681 1.356 . S
N1679 H1684 0.984 . S
N1679 H1685 0.985 . S
C1680 C1674 1.379 1_545 S
C1680 C1677 1.363 . S
C1680 N1678 1.356 . S
C1681 C1675 1.363 . S
C1681 C1676 1.379 1_565 S
C1681 N1679 1.356 . S
N1682 C1674 1.356 . S
N1682 H1688 0.984 . S
N1682 H1689 0.984 . S
N1683 C1676 1.356 . S
N1683 H1686 0.984 . S
N1683 H1687 0.985 . S
H1684 N1679 0.984 . S
H1685 N1679 0.985 . S
H1686 N1683 0.984 . S
H1687 N1683 0.985 . S
H1688 N1682 0.984 . S
H1689 N1682 0.984 . S
H1690 N1678 0.984 . S
H1691 N1678 0.985 . S
C1692 C1693 1.363 . S
C1692 C1698 1.379 1_655 S
C1692 N1700 1.356 . S
C1693 C1692 1.363 . S
C1693 C1699 1.363 . S
C1694 C1695 1.363 . S
C1694 C1699 1.379 1_455 S
C1694 N1701 1.356 . S
C1695 C1694 1.363 . S
C1695 C1698 1.363 . S
N1696 C1698 1.356 . S
N1696 H1708 0.984 . S
N1696 H1709 0.985 . S
N1697 C1699 1.356 . S
N1697 H1702 0.984 . S
N1697 H1703 0.985 . S
C1698 C1692 1.379 1_455 S
C1698 C1695 1.363 . S
C1698 N1696 1.356 . S
C1699 C1693 1.363 . S
C1699 C1694 1.379 1_655 S
C1699 N1697 1.356 . S
N1700 C1692 1.356 . S
N1700 H1706 0.984 . S
N1700 H1707 0.984 . S
N1701 C1694 1.356 . S
N1701 H1704 0.984 . S
N1701 H1705 0.985 . S
H1702 N1697 0.984 . S
H1703 N1697 0.985 . S
H1704 N1701 0.984 . S
H1705 N1701 0.985 . S
H1706 N1700 0.984 . S
H1707 N1700 0.984 . S
H1708 N1696 0.984 . S
H1709 N1696 0.985 . S
C1710 C1711 1.363 . S
C1710 C1716 1.379 . S
C1710 N1718 1.356 . S
C1711 C1710 1.363 . S
C1711 C1717 1.363 . S
C1712 C1713 1.363 . S
C1712 C1717 1.379 . S
C1712 N1719 1.356 . S
C1713 C1712 1.363 . S
C1713 C1716 1.363 . S
N1714 C1716 1.356 . S
N1714 H1726 0.984 . S
N1714 H1727 0.985 . S
N1715 C1717 1.356 . S
N1715 H1720 0.984 . S
N1715 H1721 0.985 . S
C1716 C1710 1.379 . S
C1716 C1713 1.363 . S
C1716 N1714 1.356 . S
C1717 C1711 1.363 . S
C1717 C1712 1.379 . S
C1717 N1715 1.356 . S
N1718 C1710 1.356 . S
N1718 H1724 0.984 . S
N1718 H1725 0.984 . S
N1719 C1712 1.356 . S
N1719 H1722 0.984 . S
N1719 H1723 0.985 . S
H1720 N1715 0.984 . S
H1721 N1715 0.985 . S
H1722 N1719 0.984 . S
H1723 N1719 0.985 . S
H1724 N1718 0.984 . S
H1725 N1718 0.984 . S
H1726 N1714 0.984 . S
H1727 N1714 0.985 . S
C1728 C1729 1.363 . S
C1728 C1734 1.379 1_545 S
C1728 N1736 1.356 . S
C1729 C1728 1.363 . S
C1729 C1735 1.363 . S
C1730 C1731 1.363 . S
C1730 C1735 1.379 1_565 S
C1730 N1737 1.356 . S
C1731 C1730 1.363 . S
C1731 C1734 1.363 . S
N1732 C1734 1.356 . S
N1732 H1744 0.984 . S
N1732 H1745 0.985 . S
N1733 C1735 1.356 . S
N1733 H1738 0.984 . S
N1733 H1739 0.985 . S
C1734 C1728 1.379 1_565 S
C1734 C1731 1.363 . S
C1734 N1732 1.356 . S
C1735 C1729 1.363 . S
C1735 C1730 1.379 1_545 S
C1735 N1733 1.356 . S
N1736 C1728 1.356 . S
N1736 H1742 0.984 . S
N1736 H1743 0.984 . S
N1737 C1730 1.356 . S
N1737 H1740 0.984 . S
N1737 H1741 0.985 . S
H1738 N1733 0.984 . S
H1739 N1733 0.985 . S
H1740 N1737 0.984 . S
H1741 N1737 0.985 . S
H1742 N1736 0.984 . S
H1743 N1736 0.984 . S
H1744 N1732 0.984 . S
H1745 N1732 0.985 . S
C1746 C1747 1.363 . S
C1746 C1752 1.379 1_455 S
C1746 N1754 1.356 . S
C1747 C1746 1.363 . S
C1747 C1753 1.363 . S
C1748 C1749 1.363 . S
C1748 C1753 1.379 1_655 S
C1748 N1755 1.356 . S
C1749 C1748 1.363 . S
C1749 C1752 1.363 . S
N1750 C1752 1.356 . S
N1750 H1762 0.984 . S
N1750 H1763 0.985 . S
N1751 C1753 1.356 . S
N1751 H1756 0.984 . S
N1751 H1757 0.985 . S
C1752 C1746 1.379 1_655 S
C1752 C1749 1.363 . S
C1752 N1750 1.356 . S
C1753 C1747 1.363 . S
C1753 C1748 1.379 1_455 S
C1753 N1751 1.356 . S
N1754 C1746 1.356 . S
N1754 H1760 0.984 . S
N1754 H1761 0.984 . S
N1755 C1748 1.356 . S
N1755 H1758 0.984 . S
N1755 H1759 0.985 . S
H1756 N1751 0.984 . S
H1757 N1751 0.985 . S
H1758 N1755 0.984 . S
H1759 N1755 0.985 . S
H1760 N1754 0.984 . S
H1761 N1754 0.984 . S
H1762 N1750 0.984 . S
H1763 N1750 0.985 . S
C1764 C1765 1.381 . S
C1764 C1770 1.369 1_455 S
C1764 N1772 1.354 . S
C1765 C1764 1.381 . S
C1765 C1771 1.363 . S
C1766 C1767 1.379 . S
C1766 C1771 1.370 1_655 S
C1766 N1773 1.354 . S
C1767 C1766 1.379 . S
C1767 C1770 1.363 . S
N1768 C1770 1.356 . S
N1768 H1780 0.984 . S
N1768 H1781 0.985 . S
N1769 C1771 1.356 . S
N1769 H1774 0.984 . S
N1769 H1775 0.985 . S
C1770 C1764 1.369 1_655 S
C1770 C1767 1.363 . S
C1770 N1768 1.356 . S
C1771 C1765 1.363 . S
C1771 C1766 1.370 1_455 S
C1771 N1769 1.356 . S
N1772 C1764 1.354 . S
N1772 H1778 0.984 1_455 S
N1772 H1779 0.984 . S
N1773 C1766 1.354 . S
N1773 H1776 0.984 . S
N1773 H1777 0.985 1_655 S
H1774 N1769 0.984 . S
H1775 N1769 0.985 . S
H1776 N1773 0.984 . S
H1777 N1773 0.985 1_455 S
H1778 N1772 0.984 1_655 S
H1779 N1772 0.984 . S
H1780 N1768 0.984 . S
H1781 N1768 0.985 . S
C1782 C1783 1.363 . S
C1782 C1788 1.379 . S
C1782 N1790 1.356 . S
C1783 C1782 1.363 . S
C1783 C1789 1.363 . S
C1784 C1785 1.363 . S
C1784 C1789 1.379 . S
C1784 N1791 1.356 . S
C1785 C1784 1.363 . S
C1785 C1788 1.363 . S
N1786 C1788 1.356 . S
N1786 H1798 0.984 . S
N1786 H1799 0.985 . S
N1787 C1789 1.356 . S
N1787 H1792 0.984 . S
N1787 H1793 0.985 . S
C1788 C1782 1.379 . S
C1788 C1785 1.363 . S
C1788 N1786 1.356 . S
C1789 C1783 1.363 . S
C1789 C1784 1.379 . S
C1789 N1787 1.356 . S
N1790 C1782 1.356 . S
N1790 H1796 0.984 . S
N1790 H1797 0.984 . S
N1791 C1784 1.356 . S
N1791 H1794 0.984 . S
N1791 H1795 0.985 . S
H1792 N1787 0.984 . S
H1793 N1787 0.985 . S
H1794 N1791 0.984 . S
H1795 N1791 0.985 . S
H1796 N1790 0.984 . S
H1797 N1790 0.984 . S
H1798 N1786 0.984 . S
H1799 N1786 0.985 . S
C1800 C1801 1.363 1_545 S
C1800 C1806 1.379 . S
C1800 N1808 1.356 . S
C1801 C1800 1.363 1_565 S
C1801 C1807 1.363 . S
C1802 C1803 1.363 1_565 S
C1802 C1807 1.379 . S
C1802 N1809 1.356 . S
C1803 C1802 1.363 1_545 S
C1803 C1806 1.363 . S
N1804 C1806 1.356 . S
N1804 H1816 0.984 . S
N1804 H1817 0.985 . S
N1805 C1807 1.356 . S
N1805 H1810 0.984 . S
N1805 H1811 0.985 . S
C1806 C1800 1.379 . S
C1806 C1803 1.363 . S
C1806 N1804 1.356 . S
C1807 C1801 1.363 . S
C1807 C1802 1.379 . S
C1807 N1805 1.356 . S
N1808 C1800 1.356 . S
N1808 H1814 0.984 . S
N1808 H1815 0.984 1_545 S
N1809 C1802 1.356 . S
N1809 H1812 0.984 1_565 S
N1809 H1813 0.985 . S
H1810 N1805 0.984 . S
H1811 N1805 0.985 . S
H1812 N1809 0.984 1_545 S
H1813 N1809 0.985 . S
H1814 N1808 0.984 . S
H1815 N1808 0.984 1_565 S
H1816 N1804 0.984 . S
H1817 N1804 0.985 . S
C1818 C1819 1.363 . S
C1818 C1824 1.379 . S
C1818 N1826 1.356 . S
C1819 C1818 1.363 . S
C1819 C1825 1.363 1_655 S
C1820 C1821 1.363 . S
C1820 C1825 1.379 . S
C1820 N1827 1.356 . S
C1821 C1820 1.363 . S
C1821 C1824 1.363 1_455 S
N1822 C1824 1.356 . S
N1822 H1834 0.984 . S
N1822 H1835 0.985 1_655 S
N1823 C1825 1.356 . S
N1823 H1828 0.984 1_455 S
N1823 H1829 0.985 . S
C1824 C1818 1.379 . S
C1824 C1821 1.363 1_655 S
C1824 N1822 1.356 . S
C1825 C1819 1.363 1_455 S
C1825 C1820 1.379 . S
C1825 N1823 1.356 . S
N1826 C1818 1.356 . S
N1826 H1832 0.984 . S
N1826 H1833 0.984 . S
N1827 C1820 1.356 . S
N1827 H1830 0.984 . S
N1827 H1831 0.985 . S
H1828 N1823 0.984 1_655 S
H1829 N1823 0.985 . S
H1830 N1827 0.984 . S
H1831 N1827 0.985 . S
H1832 N1826 0.984 . S
H1833 N1826 0.984 . S
H1834 N1822 0.984 . S
H1835 N1822 0.985 1_455 S
C1836 C1837 1.363 . S
C1836 C1842 1.379 . S
C1836 N1844 1.356 . S
C1837 C1836 1.363 . S
C1837 C1843 1.363 . S
C1838 C1839 1.363 . S
C1838 C1843 1.379 . S
C1838 N1845 1.356 . S
C1839 C1838 1.363 . S
C1839 C1842 1.363 . S
N1840 C1842 1.356 . S
N1840 H1852 0.984 . S
N1840 H1853 0.985 . S
N1841 C1843 1.356 . S
N1841 H1846 0.984 . S
N1841 H1847 0.985 . S
C1842 C1836 1.379 . S
C1842 C1839 1.363 . S
C1842 N1840 1.356 . S
C1843 C1837 1.363 . S
C1843 C1838 1.379 . S
C1843 N1841 1.356 . S
N1844 C1836 1.356 . S
N1844 H1850 0.984 . S
N1844 H1851 0.984 . S
N1845 C1838 1.356 . S
N1845 H1848 0.984 . S
N1845 H1849 0.985 . S
H1846 N1841 0.984 . S
H1847 N1841 0.985 . S
H1848 N1845 0.984 . S
H1849 N1845 0.985 . S
H1850 N1844 0.984 . S
H1851 N1844 0.984 . S
H1852 N1840 0.984 . S
H1853 N1840 0.985 . S
C1854 C1855 1.363 1_565 S
C1854 C1860 1.379 . S
C1854 N1862 1.356 . S
C1855 C1854 1.363 1_545 S
C1855 C1861 1.363 . S
C1856 C1857 1.363 1_545 S
C1856 C1861 1.379 . S
C1856 N1863 1.356 . S
C1857 C1856 1.363 1_565 S
C1857 C1860 1.363 . S
N1858 C1860 1.356 . S
N1858 H1870 0.984 . S
N1858 H1871 0.985 . S
N1859 C1861 1.356 . S
N1859 H1864 0.984 . S
N1859 H1865 0.985 . S
C1860 C1854 1.379 . S
C1860 C1857 1.363 . S
C1860 N1858 1.356 . S
C1861 C1855 1.363 . S
C1861 C1856 1.379 . S
C1861 N1859 1.356 . S
N1862 C1854 1.356 . S
N1862 H1868 0.984 . S
N1862 H1869 0.984 1_565 S
N1863 C1856 1.356 . S
N1863 H1866 0.984 1_545 S
N1863 H1867 0.985 . S
H1864 N1859 0.984 . S
H1865 N1859 0.985 . S
H1866 N1863 0.984 1_565 S
H1867 N1863 0.985 . S
H1868 N1862 0.984 . S
H1869 N1862 0.984 1_545 S
H1870 N1858 0.984 . S
H1871 N1858 0.985 . S
C1872 C1873 1.363 . S
C1872 C1878 1.379 . S
C1872 N1880 1.356 . S
C1873 C1872 1.363 . S
C1873 C1879 1.363 . S
C1874 C1875 1.363 . S
C1874 C1879 1.379 . S
C1874 N1881 1.356 . S
C1875 C1874 1.363 . S
C1875 C1878 1.363 . S
N1876 C1878 1.356 . S
N1876 H1888 0.984 . S
N1876 H1889 0.985 . S
N1877 C1879 1.356 . S
N1877 H1882 0.984 . S
N1877 H1883 0.985 . S
C1878 C1872 1.379 . S
C1878 C1875 1.363 . S
C1878 N1876 1.356 . S
C1879 C1873 1.363 . S
C1879 C1874 1.379 . S
C1879 N1877 1.356 . S
N1880 C1872 1.356 . S
N1880 H1886 0.984 . S
N1880 H1887 0.984 . S
N1881 C1874 1.356 . S
N1881 H1884 0.984 . S
N1881 H1885 0.985 . S
H1882 N1877 0.984 . S
H1883 N1877 0.985 . S
H1884 N1881 0.984 . S
H1885 N1881 0.985 . S
H1886 N1880 0.984 . S
H1887 N1880 0.984 . S
H1888 N1876 0.984 . S
H1889 N1876 0.985 . S
C1890 C1891 1.363 . S
C1890 C1896 1.379 . S
C1890 N1898 1.356 . S
C1891 C1890 1.363 . S
C1891 C1897 1.363 . S
C1892 C1893 1.363 . S
C1892 C1897 1.379 . S
C1892 N1899 1.356 . S
C1893 C1892 1.363 . S
C1893 C1896 1.363 . S
N1894 C1896 1.356 . S
N1894 H1906 0.984 . S
N1894 H1907 0.985 . S
N1895 C1897 1.356 . S
N1895 H1900 0.984 . S
N1895 H1901 0.985 . S
C1896 C1890 1.379 . S
C1896 C1893 1.363 . S
C1896 N1894 1.356 . S
C1897 C1891 1.363 . S
C1897 C1892 1.379 . S
C1897 N1895 1.356 . S
N1898 C1890 1.356 . S
N1898 H1904 0.984 . S
N1898 H1905 0.984 . S
N1899 C1892 1.356 . S
N1899 H1902 0.984 . S
N1899 H1903 0.985 . S
H1900 N1895 0.984 . S
H1901 N1895 0.985 . S
H1902 N1899 0.984 . S
H1903 N1899 0.985 . S
H1904 N1898 0.984 . S
H1905 N1898 0.984 . S
H1906 N1894 0.984 . S
H1907 N1894 0.985 . S
C1908 C1909 1.363 . S
C1908 C1914 1.379 . S
C1908 N1916 1.356 . S
C1909 C1908 1.363 . S
C1909 C1915 1.363 . S
C1910 C1911 1.363 . S
C1910 C1915 1.379 . S
C1910 N1917 1.356 . S
C1911 C1910 1.363 . S
C1911 C1914 1.363 . S
N1912 C1914 1.356 . S
N1912 H1924 0.984 . S
N1912 H1925 0.985 . S
N1913 C1915 1.356 . S
N1913 H1918 0.984 . S
N1913 H1919 0.985 . S
C1914 C1908 1.379 . S
C1914 C1911 1.363 . S
C1914 N1912 1.356 . S
C1915 C1909 1.363 . S
C1915 C1910 1.379 . S
C1915 N1913 1.356 . S
N1916 C1908 1.356 . S
N1916 H1922 0.984 . S
N1916 H1923 0.984 . S
N1917 C1910 1.356 . S
N1917 H1920 0.984 . S
N1917 H1921 0.985 . S
H1918 N1913 0.984 . S
H1919 N1913 0.985 . S
H1920 N1917 0.984 . S
H1921 N1917 0.985 . S
H1922 N1916 0.984 . S
H1923 N1916 0.984 . S
H1924 N1912 0.984 . S
H1925 N1912 0.985 . S
C1926 C1927 1.363 . S
C1926 C1932 1.379 . S
C1926 N1934 1.356 . S
C1927 C1926 1.363 . S
C1927 C1933 1.363 . S
C1928 C1929 1.363 . S
C1928 C1933 1.379 . S
C1928 N1935 1.356 . S
C1929 C1928 1.363 . S
C1929 C1932 1.363 . S
N1930 C1932 1.356 . S
N1930 H1942 0.984 . S
N1930 H1943 0.985 . S
N1931 C1933 1.356 . S
N1931 H1936 0.984 . S
N1931 H1937 0.985 . S
C1932 C1926 1.379 . S
C1932 C1929 1.363 . S
C1932 N1930 1.356 . S
C1933 C1927 1.363 . S
C1933 C1928 1.379 . S
C1933 N1931 1.356 . S
N1934 C1926 1.356 . S
N1934 H1940 0.984 . S
N1934 H1941 0.984 . S
N1935 C1928 1.356 . S
N1935 H1938 0.984 . S
N1935 H1939 0.985 . S
H1936 N1931 0.984 . S
H1937 N1931 0.985 . S
H1938 N1935 0.984 . S
H1939 N1935 0.985 . S
H1940 N1934 0.984 . S
H1941 N1934 0.984 . S
H1942 N1930 0.984 . S
H1943 N1930 0.985 . S
C1944 C1945 1.363 . S
C1944 C1950 1.379 . S
C1944 N1952 1.356 . S
C1945 C1944 1.363 . S
C1945 C1951 1.363 . S
C1946 C1947 1.363 . S
C1946 C1951 1.379 . S
C1946 N1953 1.356 . S
C1947 C1946 1.363 . S
C1947 C1950 1.363 . S
N1948 C1950 1.356 . S
N1948 H1960 0.984 . S
N1948 H1961 0.985 . S
N1949 C1951 1.356 . S
N1949 H1954 0.984 . S
N1949 H1955 0.985 . S
C1950 C1944 1.379 . S
C1950 C1947 1.363 . S
C1950 N1948 1.356 . S
C1951 C1945 1.363 . S
C1951 C1946 1.379 . S
C1951 N1949 1.356 . S
N1952 C1944 1.356 . S
N1952 H1958 0.984 . S
N1952 H1959 0.984 . S
N1953 C1946 1.356 . S
N1953 H1956 0.984 . S
N1953 H1957 0.985 . S
H1954 N1949 0.984 . S
H1955 N1949 0.985 . S
H1956 N1953 0.984 . S
H1957 N1953 0.985 . S
H1958 N1952 0.984 . S
H1959 N1952 0.984 . S
H1960 N1948 0.984 . S
H1961 N1948 0.985 . S
C1962 C1963 1.363 . S
C1962 C1968 1.379 . S
C1962 N1970 1.356 . S
C1963 C1962 1.363 . S
C1963 C1969 1.363 . S
C1964 C1965 1.363 . S
C1964 C1969 1.379 . S
C1964 N1971 1.356 . S
C1965 C1964 1.363 . S
C1965 C1968 1.363 . S
N1966 C1968 1.356 . S
N1966 H1978 0.984 . S
N1966 H1979 0.985 . S
N1967 C1969 1.356 . S
N1967 H1972 0.984 . S
N1967 H1973 0.985 . S
C1968 C1962 1.379 . S
C1968 C1965 1.363 . S
C1968 N1966 1.356 . S
C1969 C1963 1.363 . S
C1969 C1964 1.379 . S
C1969 N1967 1.356 . S
N1970 C1962 1.356 . S
N1970 H1976 0.984 . S
N1970 H1977 0.984 . S
N1971 C1964 1.356 . S
N1971 H1974 0.984 . S
N1971 H1975 0.985 . S
H1972 N1967 0.984 . S
H1973 N1967 0.985 . S
H1974 N1971 0.984 . S
H1975 N1971 0.985 . S
H1976 N1970 0.984 . S
H1977 N1970 0.984 . S
H1978 N1966 0.984 . S
H1979 N1966 0.985 . S
C1980 C1981 1.363 . S
C1980 C1986 1.379 . S
C1980 N1988 1.356 . S
C1981 C1980 1.363 . S
C1981 C1987 1.363 . S
C1982 C1983 1.363 . S
C1982 C1987 1.379 . S
C1982 N1989 1.356 . S
C1983 C1982 1.363 . S
C1983 C1986 1.363 . S
N1984 C1986 1.356 . S
N1984 H1996 0.984 . S
N1984 H1997 0.985 . S
N1985 C1987 1.356 . S
N1985 H1990 0.984 . S
N1985 H1991 0.985 . S
C1986 C1980 1.379 . S
C1986 C1983 1.363 . S
C1986 N1984 1.356 . S
C1987 C1981 1.363 . S
C1987 C1982 1.379 . S
C1987 N1985 1.356 . S
N1988 C1980 1.356 . S
N1988 H1994 0.984 . S
N1988 H1995 0.984 . S
N1989 C1982 1.356 . S
N1989 H1992 0.984 . S
N1989 H1993 0.985 . S
H1990 N1985 0.984 . S
H1991 N1985 0.985 . S
H1992 N1989 0.984 . S
H1993 N1989 0.985 . S
H1994 N1988 0.984 . S
H1995 N1988 0.984 . S
H1996 N1984 0.984 . S
H1997 N1984 0.985 . S
C1998 C1999 1.363 . S
C1998 C2004 1.379 . S
C1998 N2006 1.356 . S
C1999 C1998 1.363 . S
C1999 C2005 1.363 . S
C2000 C2001 1.363 . S
C2000 C2005 1.379 . S
C2000 N2007 1.356 . S
C2001 C2000 1.363 . S
C2001 C2004 1.363 . S
N2002 C2004 1.356 . S
N2002 H2014 0.984 . S
N2002 H2015 0.985 . S
N2003 C2005 1.356 . S
N2003 H2008 0.984 . S
N2003 H2009 0.985 . S
C2004 C1998 1.379 . S
C2004 C2001 1.363 . S
C2004 N2002 1.356 . S
C2005 C1999 1.363 . S
C2005 C2000 1.379 . S
C2005 N2003 1.356 . S
N2006 C1998 1.356 . S
N2006 H2012 0.984 . S
N2006 H2013 0.984 . S
N2007 C2000 1.356 . S
N2007 H2010 0.984 . S
N2007 H2011 0.985 . S
H2008 N2003 0.984 . S
H2009 N2003 0.985 . S
H2010 N2007 0.984 . S
H2011 N2007 0.985 . S
H2012 N2006 0.984 . S
H2013 N2006 0.984 . S
H2014 N2002 0.984 . S
H2015 N2002 0.985 . S
C2016 C2017 1.363 . S
C2016 C2022 1.379 . S
C2016 N2024 1.356 . S
C2017 C2016 1.363 . S
C2017 C2023 1.363 . S
C2018 C2019 1.363 . S
C2018 C2023 1.379 . S
C2018 N2025 1.356 . S
C2019 C2018 1.363 . S
C2019 C2022 1.363 . S
N2020 C2022 1.356 . S
N2020 H2032 0.984 . S
N2020 H2033 0.985 . S
N2021 C2023 1.356 . S
N2021 H2026 0.984 . S
N2021 H2027 0.985 . S
C2022 C2016 1.379 . S
C2022 C2019 1.363 . S
C2022 N2020 1.356 . S
C2023 C2017 1.363 . S
C2023 C2018 1.379 . S
C2023 N2021 1.356 . S
N2024 C2016 1.356 . S
N2024 H2030 0.984 . S
N2024 H2031 0.984 . S
N2025 C2018 1.356 . S
N2025 H2028 0.984 . S
N2025 H2029 0.985 . S
H2026 N2021 0.984 . S
H2027 N2021 0.985 . S
H2028 N2025 0.984 . S
H2029 N2025 0.985 . S
H2030 N2024 0.984 . S
H2031 N2024 0.984 . S
H2032 N2020 0.984 . S
H2033 N2020 0.985 . S
C2034 C2035 1.363 . S
C2034 C2040 1.379 . S
C2034 N2042 1.356 . S
C2035 C2034 1.363 . S
C2035 C2041 1.363 . S
C2036 C2037 1.363 . S
C2036 C2041 1.379 1_554 S
C2036 N2043 1.356 . S
C2037 C2036 1.363 . S
C2037 C2040 1.363 1_554 S
N2038 C2040 1.356 1_554 S
N2038 H2050 0.984 1_554 S
N2038 H2051 0.985 . S
N2039 C2041 1.356 . S
N2039 H2044 0.984 . S
N2039 H2045 0.985 . S
C2040 C2034 1.379 . S
C2040 C2037 1.363 1_556 S
C2040 N2038 1.356 1_556 S
C2041 C2035 1.363 . S
C2041 C2036 1.379 1_556 S
C2041 N2039 1.356 . S
N2042 C2034 1.356 . S
N2042 H2048 0.984 . S
N2042 H2049 0.984 . S
N2043 C2036 1.356 . S
N2043 H2046 0.984 . S
N2043 H2047 0.985 . S
H2044 N2039 0.984 . S
H2045 N2039 0.985 . S
H2046 N2043 0.984 . S
H2047 N2043 0.985 . S
H2048 N2042 0.984 . S
H2049 N2042 0.984 . S
H2050 N2038 0.984 1_556 S
H2051 N2038 0.985 . S
C2052 C2053 1.363 . S
C2052 C2058 1.379 1_556 S
C2052 N2060 1.356 . S
C2053 C2052 1.363 . S
C2053 C2059 1.363 . S
C2054 C2055 1.363 . S
C2054 C2059 1.379 1_554 S
C2054 N2061 1.356 . S
C2055 C2054 1.363 . S
C2055 C2058 1.363 . S
N2056 C2058 1.356 . S
N2056 H2068 0.984 . S
N2056 H2069 0.985 . S
N2057 C2059 1.356 . S
N2057 H2062 0.984 . S
N2057 H2063 0.985 . S
C2058 C2052 1.379 1_554 S
C2058 C2055 1.363 . S
C2058 N2056 1.356 . S
C2059 C2053 1.363 . S
C2059 C2054 1.379 1_556 S
C2059 N2057 1.356 . S
N2060 C2052 1.356 . S
N2060 H2066 0.984 . S
N2060 H2067 0.984 . S
N2061 C2054 1.356 . S
N2061 H2064 0.984 . S
N2061 H2065 0.985 . S
H2062 N2057 0.984 . S
H2063 N2057 0.985 . S
H2064 N2061 0.984 . S
H2065 N2061 0.985 . S
H2066 N2060 0.984 . S
H2067 N2060 0.984 . S
H2068 N2056 0.984 . S
H2069 N2056 0.985 . S
C2070 C2071 1.363 . S
C2070 C2076 1.379 1_556 S
C2070 N2078 1.356 . S
C2071 C2070 1.363 . S
C2071 C2077 1.363 . S
C2072 C2073 1.363 1_556 S
C2072 C2077 1.379 . S
C2072 N2079 1.356 1_556 S
C2073 C2072 1.363 1_554 S
C2073 C2076 1.363 . S
N2074 C2076 1.356 . S
N2074 H2086 0.984 . S
N2074 H2087 0.985 . S
N2075 C2077 1.356 . S
N2075 H2080 0.984 . S
N2075 H2081 0.985 . S
C2076 C2070 1.379 1_554 S
C2076 C2073 1.363 . S
C2076 N2074 1.356 . S
C2077 C2071 1.363 . S
C2077 C2072 1.379 . S
C2077 N2075 1.356 . S
N2078 C2070 1.356 . S
N2078 H2084 0.984 1_556 S
N2078 H2085 0.984 . S
N2079 C2072 1.356 1_554 S
N2079 H2082 0.984 . S
N2079 H2083 0.985 1_554 S
H2080 N2075 0.984 . S
H2081 N2075 0.985 . S
H2082 N2079 0.984 . S
H2083 N2079 0.985 1_556 S
H2084 N2078 0.984 1_554 S
H2085 N2078 0.984 . S
H2086 N2074 0.984 . S
H2087 N2074 0.985 . S
C2088 C2089 1.363 . S
C2088 C2094 1.379 . S
C2088 N2096 1.356 . S
C2089 C2088 1.363 . S
C2089 C2095 1.363 . S
C2090 C2091 1.363 . S
C2090 C2095 1.379 . S
C2090 N2097 1.356 . S
C2091 C2090 1.363 . S
C2091 C2094 1.363 . S
N2092 C2094 1.356 . S
N2092 H2104 0.984 . S
N2092 H2105 0.985 . S
N2093 C2095 1.356 . S
N2093 H2098 0.984 . S
N2093 H2099 0.985 . S
C2094 C2088 1.379 . S
C2094 C2091 1.363 . S
C2094 N2092 1.356 . S
C2095 C2089 1.363 . S
C2095 C2090 1.379 . S
C2095 N2093 1.356 . S
N2096 C2088 1.356 . S
N2096 H2102 0.984 . S
N2096 H2103 0.984 . S
N2097 C2090 1.356 . S
N2097 H2100 0.984 . S
N2097 H2101 0.985 . S
H2098 N2093 0.984 . S
H2099 N2093 0.985 . S
H2100 N2097 0.984 . S
H2101 N2097 0.985 . S
H2102 N2096 0.984 . S
H2103 N2096 0.984 . S
H2104 N2092 0.984 . S
H2105 N2092 0.985 . S
C2106 C2107 1.363 . S
C2106 C2112 1.379 . S
C2106 N2114 1.356 . S
C2107 C2106 1.363 . S
C2107 C2113 1.363 . S
C2108 C2109 1.363 . S
C2108 C2113 1.379 . S
C2108 N2115 1.356 . S
C2109 C2108 1.363 . S
C2109 C2112 1.363 . S
N2110 C2112 1.356 . S
N2110 H2122 0.984 . S
N2110 H2123 0.985 . S
N2111 C2113 1.356 . S
N2111 H2116 0.984 . S
N2111 H2117 0.985 . S
C2112 C2106 1.379 . S
C2112 C2109 1.363 . S
C2112 N2110 1.356 . S
C2113 C2107 1.363 . S
C2113 C2108 1.379 . S
C2113 N2111 1.356 . S
N2114 C2106 1.356 . S
N2114 H2120 0.984 . S
N2114 H2121 0.984 . S
N2115 C2108 1.356 . S
N2115 H2118 0.984 . S
N2115 H2119 0.985 . S
H2116 N2111 0.984 . S
H2117 N2111 0.985 . S
H2118 N2115 0.984 . S
H2119 N2115 0.985 . S
H2120 N2114 0.984 . S
H2121 N2114 0.984 . S
H2122 N2110 0.984 . S
H2123 N2110 0.985 . S
C2124 C2125 1.363 . S
C2124 C2130 1.379 . S
C2124 N2132 1.356 . S
C2125 C2124 1.363 . S
C2125 C2131 1.363 . S
C2126 C2127 1.363 . S
C2126 C2131 1.379 . S
C2126 N2133 1.356 . S
C2127 C2126 1.363 . S
C2127 C2130 1.363 . S
N2128 C2130 1.356 . S
N2128 H2140 0.984 . S
N2128 H2141 0.985 . S
N2129 C2131 1.356 . S
N2129 H2134 0.984 . S
N2129 H2135 0.985 . S
C2130 C2124 1.379 . S
C2130 C2127 1.363 . S
C2130 N2128 1.356 . S
C2131 C2125 1.363 . S
C2131 C2126 1.379 . S
C2131 N2129 1.356 . S
N2132 C2124 1.356 . S
N2132 H2138 0.984 . S
N2132 H2139 0.984 . S
N2133 C2126 1.356 . S
N2133 H2136 0.984 . S
N2133 H2137 0.985 . S
H2134 N2129 0.984 . S
H2135 N2129 0.985 . S
H2136 N2133 0.984 . S
H2137 N2133 0.985 . S
H2138 N2132 0.984 . S
H2139 N2132 0.984 . S
H2140 N2128 0.984 . S
H2141 N2128 0.985 . S
C2142 C2143 1.363 . S
C2142 C2148 1.379 . S
C2142 N2150 1.356 . S
C2143 C2142 1.363 . S
C2143 C2149 1.363 . S
C2144 C2145 1.363 . S
C2144 C2149 1.379 1_554 S
C2144 N2151 1.356 . S
C2145 C2144 1.363 . S
C2145 C2148 1.363 1_554 S
N2146 C2148 1.356 1_554 S
N2146 H2158 0.984 1_554 S
N2146 H2159 0.985 . S
N2147 C2149 1.356 . S
N2147 H2152 0.984 . S
N2147 H2153 0.985 . S
C2148 C2142 1.379 . S
C2148 C2145 1.363 1_556 S
C2148 N2146 1.356 1_556 S
C2149 C2143 1.363 . S
C2149 C2144 1.379 1_556 S
C2149 N2147 1.356 . S
N2150 C2142 1.356 . S
N2150 H2156 0.984 . S
N2150 H2157 0.984 . S
N2151 C2144 1.356 . S
N2151 H2154 0.984 . S
N2151 H2155 0.985 . S
H2152 N2147 0.984 . S
H2153 N2147 0.985 . S
H2154 N2151 0.984 . S
H2155 N2151 0.985 . S
H2156 N2150 0.984 . S
H2157 N2150 0.984 . S
H2158 N2146 0.984 1_556 S
H2159 N2146 0.985 . S
C2160 C2161 1.363 . S
C2160 C2166 1.379 . S
C2160 N2168 1.356 . S
C2161 C2160 1.363 . S
C2161 C2167 1.363 . S
C2162 C2163 1.363 . S
C2162 C2167 1.379 1_554 S
C2162 N2169 1.356 . S
C2163 C2162 1.363 . S
C2163 C2166 1.363 1_554 S
N2164 C2166 1.356 1_554 S
N2164 H2176 0.984 1_554 S
N2164 H2177 0.985 . S
N2165 C2167 1.356 . S
N2165 H2170 0.984 . S
N2165 H2171 0.985 . S
C2166 C2160 1.379 . S
C2166 C2163 1.363 1_556 S
C2166 N2164 1.356 1_556 S
C2167 C2161 1.363 . S
C2167 C2162 1.379 1_556 S
C2167 N2165 1.356 . S
N2168 C2160 1.356 . S
N2168 H2174 0.984 . S
N2168 H2175 0.984 . S
N2169 C2162 1.356 . S
N2169 H2172 0.984 . S
N2169 H2173 0.985 . S
H2170 N2165 0.984 . S
H2171 N2165 0.985 . S
H2172 N2169 0.984 . S
H2173 N2169 0.985 . S
H2174 N2168 0.984 . S
H2175 N2168 0.984 . S
H2176 N2164 0.984 1_556 S
H2177 N2164 0.985 . S
C2178 C2179 1.363 . S
C2178 C2184 1.379 1_554 S
C2178 N2186 1.356 . S
C2179 C2178 1.363 . S
C2179 C2185 1.363 . S
C2180 C2181 1.363 . S
C2180 C2185 1.379 1_556 S
C2180 N2187 1.356 . S
C2181 C2180 1.363 . S
C2181 C2184 1.363 . S
N2182 C2184 1.356 . S
N2182 H2194 0.984 . S
N2182 H2195 0.985 . S
N2183 C2185 1.356 . S
N2183 H2188 0.984 . S
N2183 H2189 0.985 . S
C2184 C2178 1.379 1_556 S
C2184 C2181 1.363 . S
C2184 N2182 1.356 . S
C2185 C2179 1.363 . S
C2185 C2180 1.379 1_554 S
C2185 N2183 1.356 . S
N2186 C2178 1.356 . S
N2186 H2192 0.984 . S
N2186 H2193 0.984 . S
N2187 C2180 1.356 . S
N2187 H2190 0.984 . S
N2187 H2191 0.985 . S
H2188 N2183 0.984 . S
H2189 N2183 0.985 . S
H2190 N2187 0.984 . S
H2191 N2187 0.985 . S
H2192 N2186 0.984 . S
H2193 N2186 0.984 . S
H2194 N2182 0.984 . S
H2195 N2182 0.985 . S
C2196 C2197 1.363 . S
C2196 C2202 1.379 . S
C2196 N2204 1.356 . S
C2197 C2196 1.363 . S
C2197 C2203 1.363 . S
C2198 C2199 1.363 . S
C2198 C2203 1.379 . S
C2198 N2205 1.356 . S
C2199 C2198 1.363 . S
C2199 C2202 1.363 . S
N2200 C2202 1.356 . S
N2200 H2212 0.984 . S
N2200 H2213 0.985 . S
N2201 C2203 1.356 . S
N2201 H2206 0.984 . S
N2201 H2207 0.985 . S
C2202 C2196 1.379 . S
C2202 C2199 1.363 . S
C2202 N2200 1.356 . S
C2203 C2197 1.363 . S
C2203 C2198 1.379 . S
C2203 N2201 1.356 . S
N2204 C2196 1.356 . S
N2204 H2210 0.984 . S
N2204 H2211 0.984 . S
N2205 C2198 1.356 . S
N2205 H2208 0.984 . S
N2205 H2209 0.985 . S
H2206 N2201 0.984 . S
H2207 N2201 0.985 . S
H2208 N2205 0.984 . S
H2209 N2205 0.985 . S
H2210 N2204 0.984 . S
H2211 N2204 0.984 . S
H2212 N2200 0.984 . S
H2213 N2200 0.985 . S
C2214 C2215 1.363 . S
C2214 C2220 1.379 . S
C2214 N2222 1.356 . S
C2215 C2214 1.363 . S
C2215 C2221 1.363 . S
C2216 C2217 1.363 . S
C2216 C2221 1.379 . S
C2216 N2223 1.356 . S
C2217 C2216 1.363 . S
C2217 C2220 1.363 . S
N2218 C2220 1.356 . S
N2218 H2230 0.984 . S
N2218 H2231 0.985 . S
N2219 C2221 1.356 . S
N2219 H2224 0.984 . S
N2219 H2225 0.985 . S
C2220 C2214 1.379 . S
C2220 C2217 1.363 . S
C2220 N2218 1.356 . S
C2221 C2215 1.363 . S
C2221 C2216 1.379 . S
C2221 N2219 1.356 . S
N2222 C2214 1.356 . S
N2222 H2228 0.984 . S
N2222 H2229 0.984 . S
N2223 C2216 1.356 . S
N2223 H2226 0.984 . S
N2223 H2227 0.985 . S
H2224 N2219 0.984 . S
H2225 N2219 0.985 . S
H2226 N2223 0.984 . S
H2227 N2223 0.985 . S
H2228 N2222 0.984 . S
H2229 N2222 0.984 . S
H2230 N2218 0.984 . S
H2231 N2218 0.985 . S
C2232 C2233 1.363 . S
C2232 C2238 1.379 . S
C2232 N2240 1.356 . S
C2233 C2232 1.363 . S
C2233 C2239 1.363 . S
C2234 C2235 1.363 . S
C2234 C2239 1.379 . S
C2234 N2241 1.356 . S
C2235 C2234 1.363 . S
C2235 C2238 1.363 . S
N2236 C2238 1.356 . S
N2236 H2248 0.984 . S
N2236 H2249 0.985 . S
N2237 C2239 1.356 . S
N2237 H2242 0.984 . S
N2237 H2243 0.985 . S
C2238 C2232 1.379 . S
C2238 C2235 1.363 . S
C2238 N2236 1.356 . S
C2239 C2233 1.363 . S
C2239 C2234 1.379 . S
C2239 N2237 1.356 . S
N2240 C2232 1.356 . S
N2240 H2246 0.984 . S
N2240 H2247 0.984 . S
N2241 C2234 1.356 . S
N2241 H2244 0.984 . S
N2241 H2245 0.985 . S
H2242 N2237 0.984 . S
H2243 N2237 0.985 . S
H2244 N2241 0.984 . S
H2245 N2241 0.985 . S
H2246 N2240 0.984 . S
H2247 N2240 0.984 . S
H2248 N2236 0.984 . S
H2249 N2236 0.985 . S
C2250 C2251 1.363 . S
C2250 C2256 1.379 . S
C2250 N2258 1.356 . S
C2251 C2250 1.363 . S
C2251 C2257 1.363 . S
C2252 C2253 1.363 . S
C2252 C2257 1.379 . S
C2252 N2259 1.356 . S
C2253 C2252 1.363 . S
C2253 C2256 1.363 . S
N2254 C2256 1.356 . S
N2254 H2266 0.984 . S
N2254 H2267 0.985 . S
N2255 C2257 1.356 . S
N2255 H2260 0.984 . S
N2255 H2261 0.985 . S
C2256 C2250 1.379 . S
C2256 C2253 1.363 . S
C2256 N2254 1.356 . S
C2257 C2251 1.363 . S
C2257 C2252 1.379 . S
C2257 N2255 1.356 . S
N2258 C2250 1.356 . S
N2258 H2264 0.984 . S
N2258 H2265 0.984 . S
N2259 C2252 1.356 . S
N2259 H2262 0.984 . S
N2259 H2263 0.985 . S
H2260 N2255 0.984 . S
H2261 N2255 0.985 . S
H2262 N2259 0.984 . S
H2263 N2259 0.985 . S
H2264 N2258 0.984 . S
H2265 N2258 0.984 . S
H2266 N2254 0.984 . S
H2267 N2254 0.985 . S
C2268 C2269 1.363 . S
C2268 C2274 1.379 . S
C2268 N2276 1.356 . S
C2269 C2268 1.363 . S
C2269 C2275 1.363 . S
C2270 C2271 1.363 . S
C2270 C2275 1.379 . S
C2270 N2277 1.356 . S
C2271 C2270 1.363 . S
C2271 C2274 1.363 . S
N2272 C2274 1.356 . S
N2272 H2284 0.984 . S
N2272 H2285 0.985 . S
N2273 C2275 1.356 . S
N2273 H2278 0.984 . S
N2273 H2279 0.985 . S
C2274 C2268 1.379 . S
C2274 C2271 1.363 . S
C2274 N2272 1.356 . S
C2275 C2269 1.363 . S
C2275 C2270 1.379 . S
C2275 N2273 1.356 . S
N2276 C2268 1.356 . S
N2276 H2282 0.984 . S
N2276 H2283 0.984 . S
N2277 C2270 1.356 . S
N2277 H2280 0.984 . S
N2277 H2281 0.985 . S
H2278 N2273 0.984 . S
H2279 N2273 0.985 . S
H2280 N2277 0.984 . S
H2281 N2277 0.985 . S
H2282 N2276 0.984 . S
H2283 N2276 0.984 . S
H2284 N2272 0.984 . S
H2285 N2272 0.985 . S
C2286 C2287 1.363 . S
C2286 C2292 1.379 . S
C2286 N2294 1.356 . S
C2287 C2286 1.363 . S
C2287 C2293 1.363 . S
C2288 C2289 1.363 . S
C2288 C2293 1.379 . S
C2288 N2295 1.356 . S
C2289 C2288 1.363 . S
C2289 C2292 1.363 . S
N2290 C2292 1.356 . S
N2290 H2302 0.984 . S
N2290 H2303 0.985 . S
N2291 C2293 1.356 . S
N2291 H2296 0.984 . S
N2291 H2297 0.985 . S
C2292 C2286 1.379 . S
C2292 C2289 1.363 . S
C2292 N2290 1.356 . S
C2293 C2287 1.363 . S
C2293 C2288 1.379 . S
C2293 N2291 1.356 . S
N2294 C2286 1.356 . S
N2294 H2300 0.984 . S
N2294 H2301 0.984 . S
N2295 C2288 1.356 . S
N2295 H2298 0.984 . S
N2295 H2299 0.985 . S
H2296 N2291 0.984 . S
H2297 N2291 0.985 . S
H2298 N2295 0.984 . S
H2299 N2295 0.985 . S
H2300 N2294 0.984 . S
H2301 N2294 0.984 . S
H2302 N2290 0.984 . S
H2303 N2290 0.985 . S
C2304 C2305 1.363 . S
C2304 C2310 1.379 1_556 S
C2304 N2312 1.356 . S
C2305 C2304 1.363 . S
C2305 C2311 1.363 . S
C2306 C2307 1.363 . S
C2306 C2311 1.379 1_554 S
C2306 N2313 1.356 . S
C2307 C2306 1.363 . S
C2307 C2310 1.363 . S
N2308 C2310 1.356 . S
N2308 H2320 0.984 . S
N2308 H2321 0.985 . S
N2309 C2311 1.356 . S
N2309 H2314 0.984 . S
N2309 H2315 0.985 . S
C2310 C2304 1.379 1_554 S
C2310 C2307 1.363 . S
C2310 N2308 1.356 . S
C2311 C2305 1.363 . S
C2311 C2306 1.379 1_556 S
C2311 N2309 1.356 . S
N2312 C2304 1.356 . S
N2312 H2318 0.984 . S
N2312 H2319 0.984 . S
N2313 C2306 1.356 . S
N2313 H2316 0.984 . S
N2313 H2317 0.985 . S
H2314 N2309 0.984 . S
H2315 N2309 0.985 . S
H2316 N2313 0.984 . S
H2317 N2313 0.985 . S
H2318 N2312 0.984 . S
H2319 N2312 0.984 . S
H2320 N2308 0.984 . S
H2321 N2308 0.985 . S
C2322 C2323 1.363 . S
C2322 C2328 1.379 1_556 S
C2322 N2330 1.356 . S
C2323 C2322 1.363 . S
C2323 C2329 1.363 . S
C2324 C2325 1.363 . S
C2324 C2329 1.379 1_554 S
C2324 N2331 1.356 . S
C2325 C2324 1.363 . S
C2325 C2328 1.363 . S
N2326 C2328 1.356 . S
N2326 H2338 0.984 . S
N2326 H2339 0.985 . S
N2327 C2329 1.356 . S
N2327 H2332 0.984 . S
N2327 H2333 0.985 . S
C2328 C2322 1.379 1_554 S
C2328 C2325 1.363 . S
C2328 N2326 1.356 . S
C2329 C2323 1.363 . S
C2329 C2324 1.379 1_556 S
C2329 N2327 1.356 . S
N2330 C2322 1.356 . S
N2330 H2336 0.984 . S
N2330 H2337 0.984 . S
N2331 C2324 1.356 . S
N2331 H2334 0.984 . S
N2331 H2335 0.985 . S
H2332 N2327 0.984 . S
H2333 N2327 0.985 . S
H2334 N2331 0.984 . S
H2335 N2331 0.985 . S
H2336 N2330 0.984 . S
H2337 N2330 0.984 . S
H2338 N2326 0.984 . S
H2339 N2326 0.985 . S
C2340 C2341 1.363 . S
C2340 C2346 1.379 1_556 S
C2340 N2348 1.356 . S
C2341 C2340 1.363 . S
C2341 C2347 1.363 . S
C2342 C2343 1.363 . S
C2342 C2347 1.379 1_554 S
C2342 N2349 1.356 . S
C2343 C2342 1.363 . S
C2343 C2346 1.363 . S
N2344 C2346 1.356 . S
N2344 H2356 0.984 . S
N2344 H2357 0.985 . S
N2345 C2347 1.356 . S
N2345 H2350 0.984 . S
N2345 H2351 0.985 . S
C2346 C2340 1.379 1_554 S
C2346 C2343 1.363 . S
C2346 N2344 1.356 . S
C2347 C2341 1.363 . S
C2347 C2342 1.379 1_556 S
C2347 N2345 1.356 . S
N2348 C2340 1.356 . S
N2348 H2354 0.984 . S
N2348 H2355 0.984 . S
N2349 C2342 1.356 . S
N2349 H2352 0.984 . S
N2349 H2353 0.985 . S
H2350 N2345 0.984 . S
H2351 N2345 0.985 . S
H2352 N2349 0.984 . S
H2353 N2349 0.985 . S
H2354 N2348 0.984 . S
H2355 N2348 0.984 . S
H2356 N2344 0.984 . S
H2357 N2344 0.985 . S
C2358 C2359 1.363 . S
C2358 C2364 1.379 . S
C2358 N2366 1.356 . S
C2359 C2358 1.363 . S
C2359 C2365 1.363 . S
C2360 C2361 1.363 . S
C2360 C2365 1.379 . S
C2360 N2367 1.356 . S
C2361 C2360 1.363 . S
C2361 C2364 1.363 . S
N2362 C2364 1.356 . S
N2362 H2374 0.984 . S
N2362 H2375 0.985 . S
N2363 C2365 1.356 . S
N2363 H2368 0.984 . S
N2363 H2369 0.985 . S
C2364 C2358 1.379 . S
C2364 C2361 1.363 . S
C2364 N2362 1.356 . S
C2365 C2359 1.363 . S
C2365 C2360 1.379 . S
C2365 N2363 1.356 . S
N2366 C2358 1.356 . S
N2366 H2372 0.984 . S
N2366 H2373 0.984 . S
N2367 C2360 1.356 . S
N2367 H2370 0.984 . S
N2367 H2371 0.985 . S
H2368 N2363 0.984 . S
H2369 N2363 0.985 . S
H2370 N2367 0.984 . S
H2371 N2367 0.985 . S
H2372 N2366 0.984 . S
H2373 N2366 0.984 . S
H2374 N2362 0.984 . S
H2375 N2362 0.985 . S
C2376 C2377 1.363 . S
C2376 C2382 1.379 . S
C2376 N2384 1.356 . S
C2377 C2376 1.363 . S
C2377 C2383 1.363 . S
C2378 C2379 1.363 . S
C2378 C2383 1.379 . S
C2378 N2385 1.356 . S
C2379 C2378 1.363 . S
C2379 C2382 1.363 . S
N2380 C2382 1.356 . S
N2380 H2392 0.984 . S
N2380 H2393 0.985 . S
N2381 C2383 1.356 . S
N2381 H2386 0.984 . S
N2381 H2387 0.985 . S
C2382 C2376 1.379 . S
C2382 C2379 1.363 . S
C2382 N2380 1.356 . S
C2383 C2377 1.363 . S
C2383 C2378 1.379 . S
C2383 N2381 1.356 . S
N2384 C2376 1.356 . S
N2384 H2390 0.984 . S
N2384 H2391 0.984 . S
N2385 C2378 1.356 . S
N2385 H2388 0.984 . S
N2385 H2389 0.985 . S
H2386 N2381 0.984 . S
H2387 N2381 0.985 . S
H2388 N2385 0.984 . S
H2389 N2385 0.985 . S
H2390 N2384 0.984 . S
H2391 N2384 0.984 . S
H2392 N2380 0.984 . S
H2393 N2380 0.985 . S
C2394 C2395 1.363 . S
C2394 C2400 1.379 . S
C2394 N2402 1.356 . S
C2395 C2394 1.363 . S
C2395 C2401 1.363 . S
C2396 C2397 1.363 . S
C2396 C2401 1.379 . S
C2396 N2403 1.356 . S
C2397 C2396 1.363 . S
C2397 C2400 1.363 . S
N2398 C2400 1.356 . S
N2398 H2410 0.984 . S
N2398 H2411 0.985 . S
N2399 C2401 1.356 . S
N2399 H2404 0.984 . S
N2399 H2405 0.985 . S
C2400 C2394 1.379 . S
C2400 C2397 1.363 . S
C2400 N2398 1.356 . S
C2401 C2395 1.363 . S
C2401 C2396 1.379 . S
C2401 N2399 1.356 . S
N2402 C2394 1.356 . S
N2402 H2408 0.984 . S
N2402 H2409 0.984 . S
N2403 C2396 1.356 . S
N2403 H2406 0.984 . S
N2403 H2407 0.985 . S
H2404 N2399 0.984 . S
H2405 N2399 0.985 . S
H2406 N2403 0.984 . S
H2407 N2403 0.985 . S
H2408 N2402 0.984 . S
H2409 N2402 0.984 . S
H2410 N2398 0.984 . S
H2411 N2398 0.985 . S
C2412 C2413 1.363 . S
C2412 C2418 1.379 . S
C2412 N2420 1.356 . S
C2413 C2412 1.363 . S
C2413 C2419 1.363 . S
C2414 C2415 1.363 . S
C2414 C2419 1.379 . S
C2414 N2421 1.356 . S
C2415 C2414 1.363 . S
C2415 C2418 1.363 . S
N2416 C2418 1.356 . S
N2416 H2428 0.984 . S
N2416 H2429 0.985 . S
N2417 C2419 1.356 . S
N2417 H2422 0.984 . S
N2417 H2423 0.985 . S
C2418 C2412 1.379 . S
C2418 C2415 1.363 . S
C2418 N2416 1.356 . S
C2419 C2413 1.363 . S
C2419 C2414 1.379 . S
C2419 N2417 1.356 . S
N2420 C2412 1.356 . S
N2420 H2426 0.984 . S
N2420 H2427 0.984 . S
N2421 C2414 1.356 . S
N2421 H2424 0.984 . S
N2421 H2425 0.985 . S
H2422 N2417 0.984 . S
H2423 N2417 0.985 . S
H2424 N2421 0.984 . S
H2425 N2421 0.985 . S
H2426 N2420 0.984 . S
H2427 N2420 0.984 . S
H2428 N2416 0.984 . S
H2429 N2416 0.985 . S
C2430 C2431 1.363 . S
C2430 C2436 1.379 . S
C2430 N2438 1.356 . S
C2431 C2430 1.363 . S
C2431 C2437 1.363 . S
C2432 C2433 1.363 . S
C2432 C2437 1.379 . S
C2432 N2439 1.356 . S
C2433 C2432 1.363 . S
C2433 C2436 1.363 . S
N2434 C2436 1.356 . S
N2434 H2446 0.984 . S
N2434 H2447 0.985 . S
N2435 C2437 1.356 . S
N2435 H2440 0.984 . S
N2435 H2441 0.985 . S
C2436 C2430 1.379 . S
C2436 C2433 1.363 . S
C2436 N2434 1.356 . S
C2437 C2431 1.363 . S
C2437 C2432 1.379 . S
C2437 N2435 1.356 . S
N2438 C2430 1.356 . S
N2438 H2444 0.984 . S
N2438 H2445 0.984 . S
N2439 C2432 1.356 . S
N2439 H2442 0.984 . S
N2439 H2443 0.985 . S
H2440 N2435 0.984 . S
H2441 N2435 0.985 . S
H2442 N2439 0.984 . S
H2443 N2439 0.985 . S
H2444 N2438 0.984 . S
H2445 N2438 0.984 . S
H2446 N2434 0.984 . S
H2447 N2434 0.985 . S
C2448 C2449 1.363 . S
C2448 C2454 1.379 . S
C2448 N2456 1.356 . S
C2449 C2448 1.363 . S
C2449 C2455 1.363 . S
C2450 C2451 1.363 . S
C2450 C2455 1.379 . S
C2450 N2457 1.356 . S
C2451 C2450 1.363 . S
C2451 C2454 1.363 . S
N2452 C2454 1.356 . S
N2452 H2464 0.984 . S
N2452 H2465 0.985 . S
N2453 C2455 1.356 . S
N2453 H2458 0.984 . S
N2453 H2459 0.985 . S
C2454 C2448 1.379 . S
C2454 C2451 1.363 . S
C2454 N2452 1.356 . S
C2455 C2449 1.363 . S
C2455 C2450 1.379 . S
C2455 N2453 1.356 . S
N2456 C2448 1.356 . S
N2456 H2462 0.984 . S
N2456 H2463 0.984 . S
N2457 C2450 1.356 . S
N2457 H2460 0.984 . S
N2457 H2461 0.985 . S
H2458 N2453 0.984 . S
H2459 N2453 0.985 . S
H2460 N2457 0.984 . S
H2461 N2457 0.985 . S
H2462 N2456 0.984 . S
H2463 N2456 0.984 . S
H2464 N2452 0.984 . S
H2465 N2452 0.985 . S
C2466 C2467 1.363 . S
C2466 C2472 1.379 . S
C2466 N2474 1.356 . S
C2467 C2466 1.363 . S
C2467 C2473 1.363 . S
C2468 C2469 1.363 . S
C2468 C2473 1.379 . S
C2468 N2475 1.356 . S
C2469 C2468 1.363 . S
C2469 C2472 1.363 . S
N2470 C2472 1.356 . S
N2470 H2482 0.984 . S
N2470 H2483 0.985 . S
N2471 C2473 1.356 . S
N2471 H2476 0.984 . S
N2471 H2477 0.985 . S
C2472 C2466 1.379 . S
C2472 C2469 1.363 . S
C2472 N2470 1.356 . S
C2473 C2467 1.363 . S
C2473 C2468 1.379 . S
C2473 N2471 1.356 . S
N2474 C2466 1.356 . S
N2474 H2480 0.984 . S
N2474 H2481 0.984 . S
N2475 C2468 1.356 . S
N2475 H2478 0.984 . S
N2475 H2479 0.985 . S
H2476 N2471 0.984 . S
H2477 N2471 0.985 . S
H2478 N2475 0.984 . S
H2479 N2475 0.985 . S
H2480 N2474 0.984 . S
H2481 N2474 0.984 . S
H2482 N2470 0.984 . S
H2483 N2470 0.985 . S
C2484 C2485 1.363 . S
C2484 C2490 1.379 . S
C2484 N2492 1.356 . S
C2485 C2484 1.363 . S
C2485 C2491 1.363 . S
C2486 C2487 1.363 . S
C2486 C2491 1.379 . S
C2486 N2493 1.356 . S
C2487 C2486 1.363 . S
C2487 C2490 1.363 . S
N2488 C2490 1.356 . S
N2488 H2500 0.984 . S
N2488 H2501 0.985 . S
N2489 C2491 1.356 . S
N2489 H2494 0.984 . S
N2489 H2495 0.985 . S
C2490 C2484 1.379 . S
C2490 C2487 1.363 . S
C2490 N2488 1.356 . S
C2491 C2485 1.363 . S
C2491 C2486 1.379 . S
C2491 N2489 1.356 . S
N2492 C2484 1.356 . S
N2492 H2498 0.984 . S
N2492 H2499 0.984 . S
N2493 C2486 1.356 . S
N2493 H2496 0.984 . S
N2493 H2497 0.985 . S
H2494 N2489 0.984 . S
H2495 N2489 0.985 . S
H2496 N2493 0.984 . S
H2497 N2493 0.985 . S
H2498 N2492 0.984 . S
H2499 N2492 0.984 . S
H2500 N2488 0.984 . S
H2501 N2488 0.985 . S
C2502 C2503 1.363 . S
C2502 C2508 1.379 . S
C2502 N2510 1.356 . S
C2503 C2502 1.363 . S
C2503 C2509 1.363 . S
C2504 C2505 1.363 . S
C2504 C2509 1.379 . S
C2504 N2511 1.356 . S
C2505 C2504 1.363 . S
C2505 C2508 1.363 . S
N2506 C2508 1.356 . S
N2506 H2518 0.984 . S
N2506 H2519 0.985 . S
N2507 C2509 1.356 . S
N2507 H2512 0.984 . S
N2507 H2513 0.985 . S
C2508 C2502 1.379 . S
C2508 C2505 1.363 . S
C2508 N2506 1.356 . S
C2509 C2503 1.363 . S
C2509 C2504 1.379 . S
C2509 N2507 1.356 . S
N2510 C2502 1.356 . S
N2510 H2516 0.984 . S
N2510 H2517 0.984 . S
N2511 C2504 1.356 . S
N2511 H2514 0.984 . S
N2511 H2515 0.985 . S
H2512 N2507 0.984 . S
H2513 N2507 0.985 . S
H2514 N2511 0.984 . S
H2515 N2511 0.985 . S
H2516 N2510 0.984 . S
H2517 N2510 0.984 . S
H2518 N2506 0.984 . S
H2519 N2506 0.985 . S
C2520 C2521 1.363 . S
C2520 C2526 1.379 . S
C2520 N2528 1.356 . S
C2521 C2520 1.363 . S
C2521 C2527 1.363 . S
C2522 C2523 1.363 . S
C2522 C2527 1.379 . S
C2522 N2529 1.356 . S
C2523 C2522 1.363 . S
C2523 C2526 1.363 . S
N2524 C2526 1.356 . S
N2524 H2536 0.984 . S
N2524 H2537 0.985 . S
N2525 C2527 1.356 . S
N2525 H2530 0.984 . S
N2525 H2531 0.985 . S
C2526 C2520 1.379 . S
C2526 C2523 1.363 . S
C2526 N2524 1.356 . S
C2527 C2521 1.363 . S
C2527 C2522 1.379 . S
C2527 N2525 1.356 . S
N2528 C2520 1.356 . S
N2528 H2534 0.984 . S
N2528 H2535 0.984 . S
N2529 C2522 1.356 . S
N2529 H2532 0.984 . S
N2529 H2533 0.985 . S
H2530 N2525 0.984 . S
H2531 N2525 0.985 . S
H2532 N2529 0.984 . S
H2533 N2529 0.985 . S
H2534 N2528 0.984 . S
H2535 N2528 0.984 . S
H2536 N2524 0.984 . S
H2537 N2524 0.985 . S
C2538 C2539 1.363 . S
C2538 C2544 1.379 . S
C2538 N2546 1.356 . S
C2539 C2538 1.363 . S
C2539 C2545 1.363 . S
C2540 C2541 1.363 . S
C2540 C2545 1.379 . S
C2540 N2547 1.356 . S
C2541 C2540 1.363 . S
C2541 C2544 1.363 . S
N2542 C2544 1.356 . S
N2542 H2554 0.984 . S
N2542 H2555 0.985 . S
N2543 C2545 1.356 . S
N2543 H2548 0.984 . S
N2543 H2549 0.985 . S
C2544 C2538 1.379 . S
C2544 C2541 1.363 . S
C2544 N2542 1.356 . S
C2545 C2539 1.363 . S
C2545 C2540 1.379 . S
C2545 N2543 1.356 . S
N2546 C2538 1.356 . S
N2546 H2552 0.984 . S
N2546 H2553 0.984 . S
N2547 C2540 1.356 . S
N2547 H2550 0.984 . S
N2547 H2551 0.985 . S
H2548 N2543 0.984 . S
H2549 N2543 0.985 . S
H2550 N2547 0.984 . S
H2551 N2547 0.985 . S
H2552 N2546 0.984 . S
H2553 N2546 0.984 . S
H2554 N2542 0.984 . S
H2555 N2542 0.985 . S
C2556 C2557 1.363 . S
C2556 C2562 1.379 . S
C2556 N2564 1.356 . S
C2557 C2556 1.363 . S
C2557 C2563 1.363 . S
C2558 C2559 1.363 . S
C2558 C2563 1.379 . S
C2558 N2565 1.356 . S
C2559 C2558 1.363 . S
C2559 C2562 1.363 . S
N2560 C2562 1.356 . S
N2560 H2572 0.984 . S
N2560 H2573 0.985 . S
N2561 C2563 1.356 . S
N2561 H2566 0.984 . S
N2561 H2567 0.985 . S
C2562 C2556 1.379 . S
C2562 C2559 1.363 . S
C2562 N2560 1.356 . S
C2563 C2557 1.363 . S
C2563 C2558 1.379 . S
C2563 N2561 1.356 . S
N2564 C2556 1.356 . S
N2564 H2570 0.984 . S
N2564 H2571 0.984 . S
N2565 C2558 1.356 . S
N2565 H2568 0.984 . S
N2565 H2569 0.985 . S
H2566 N2561 0.984 . S
H2567 N2561 0.985 . S
H2568 N2565 0.984 . S
H2569 N2565 0.985 . S
H2570 N2564 0.984 . S
H2571 N2564 0.984 . S
H2572 N2560 0.984 . S
H2573 N2560 0.985 . S
C2574 C2575 1.363 . S
C2574 C2580 1.379 . S
C2574 N2582 1.356 . S
C2575 C2574 1.363 . S
C2575 C2581 1.363 . S
C2576 C2577 1.363 . S
C2576 C2581 1.379 . S
C2576 N2583 1.356 . S
C2577 C2576 1.363 . S
C2577 C2580 1.363 . S
N2578 C2580 1.356 . S
N2578 H2590 0.984 . S
N2578 H2591 0.985 . S
N2579 C2581 1.356 . S
N2579 H2584 0.984 . S
N2579 H2585 0.985 . S
C2580 C2574 1.379 . S
C2580 C2577 1.363 . S
C2580 N2578 1.356 . S
C2581 C2575 1.363 . S
C2581 C2576 1.379 . S
C2581 N2579 1.356 . S
N2582 C2574 1.356 . S
N2582 H2588 0.984 . S
N2582 H2589 0.984 . S
N2583 C2576 1.356 . S
N2583 H2586 0.984 . S
N2583 H2587 0.985 . S
H2584 N2579 0.984 . S
H2585 N2579 0.985 . S
H2586 N2583 0.984 . S
H2587 N2583 0.985 . S
H2588 N2582 0.984 . S
H2589 N2582 0.984 . S
H2590 N2578 0.984 . S
H2591 N2578 0.985 . S
C2592 C2593 1.363 . S
C2592 C2598 1.379 . S
C2592 N2600 1.356 . S
C2593 C2592 1.363 . S
C2593 C2599 1.363 . S
C2594 C2595 1.363 . S
C2594 C2599 1.379 . S
C2594 N2601 1.356 . S
C2595 C2594 1.363 . S
C2595 C2598 1.363 . S
N2596 C2598 1.356 . S
N2596 H2608 0.984 . S
N2596 H2609 0.985 . S
N2597 C2599 1.356 . S
N2597 H2602 0.984 . S
N2597 H2603 0.985 . S
C2598 C2592 1.379 . S
C2598 C2595 1.363 . S
C2598 N2596 1.356 . S
C2599 C2593 1.363 . S
C2599 C2594 1.379 . S
C2599 N2597 1.356 . S
N2600 C2592 1.356 . S
N2600 H2606 0.984 . S
N2600 H2607 0.984 . S
N2601 C2594 1.356 . S
N2601 H2604 0.984 . S
N2601 H2605 0.985 . S
H2602 N2597 0.984 . S
H2603 N2597 0.985 . S
H2604 N2601 0.984 . S
H2605 N2601 0.985 . S
H2606 N2600 0.984 . S
H2607 N2600 0.984 . S
H2608 N2596 0.984 . S
H2609 N2596 0.985 . S
C2610 C2611 1.363 . S
C2610 C2616 1.379 . S
C2610 N2618 1.356 . S
C2611 C2610 1.363 . S
C2611 C2617 1.363 . S
C2612 C2613 1.363 . S
C2612 C2617 1.379 . S
C2612 N2619 1.356 . S
C2613 C2612 1.363 . S
C2613 C2616 1.363 . S
N2614 C2616 1.356 . S
N2614 H2626 0.984 . S
N2614 H2627 0.985 . S
N2615 C2617 1.356 . S
N2615 H2620 0.984 . S
N2615 H2621 0.985 . S
C2616 C2610 1.379 . S
C2616 C2613 1.363 . S
C2616 N2614 1.356 . S
C2617 C2611 1.363 . S
C2617 C2612 1.379 . S
C2617 N2615 1.356 . S
N2618 C2610 1.356 . S
N2618 H2624 0.984 . S
N2618 H2625 0.984 . S
N2619 C2612 1.356 . S
N2619 H2622 0.984 . S
N2619 H2623 0.985 . S
H2620 N2615 0.984 . S
H2621 N2615 0.985 . S
H2622 N2619 0.984 . S
H2623 N2619 0.985 . S
H2624 N2618 0.984 . S
H2625 N2618 0.984 . S
H2626 N2614 0.984 . S
H2627 N2614 0.985 . S
C2628 C2629 1.363 . S
C2628 C2634 1.379 . S
C2628 N2636 1.356 . S
C2629 C2628 1.363 . S
C2629 C2635 1.363 . S
C2630 C2631 1.363 . S
C2630 C2635 1.379 . S
C2630 N2637 1.356 . S
C2631 C2630 1.363 . S
C2631 C2634 1.363 . S
N2632 C2634 1.356 . S
N2632 H2644 0.984 . S
N2632 H2645 0.985 . S
N2633 C2635 1.356 . S
N2633 H2638 0.984 . S
N2633 H2639 0.985 . S
C2634 C2628 1.379 . S
C2634 C2631 1.363 . S
C2634 N2632 1.356 . S
C2635 C2629 1.363 . S
C2635 C2630 1.379 . S
C2635 N2633 1.356 . S
N2636 C2628 1.356 . S
N2636 H2642 0.984 . S
N2636 H2643 0.984 . S
N2637 C2630 1.356 . S
N2637 H2640 0.984 . S
N2637 H2641 0.985 . S
H2638 N2633 0.984 . S
H2639 N2633 0.985 . S
H2640 N2637 0.984 . S
H2641 N2637 0.985 . S
H2642 N2636 0.984 . S
H2643 N2636 0.984 . S
H2644 N2632 0.984 . S
H2645 N2632 0.985 . S
C2646 C2647 1.363 . S
C2646 C2652 1.379 . S
C2646 N2654 1.356 . S
C2647 C2646 1.363 . S
C2647 C2653 1.363 . S
C2648 C2649 1.363 . S
C2648 C2653 1.379 . S
C2648 N2655 1.356 . S
C2649 C2648 1.363 . S
C2649 C2652 1.363 . S
N2650 C2652 1.356 . S
N2650 H2662 0.984 . S
N2650 H2663 0.985 . S
N2651 C2653 1.356 . S
N2651 H2656 0.984 . S
N2651 H2657 0.985 . S
C2652 C2646 1.379 . S
C2652 C2649 1.363 . S
C2652 N2650 1.356 . S
C2653 C2647 1.363 . S
C2653 C2648 1.379 . S
C2653 N2651 1.356 . S
N2654 C2646 1.356 . S
N2654 H2660 0.984 . S
N2654 H2661 0.984 . S
N2655 C2648 1.356 . S
N2655 H2658 0.984 . S
N2655 H2659 0.985 . S
H2656 N2651 0.984 . S
H2657 N2651 0.985 . S
H2658 N2655 0.984 . S
H2659 N2655 0.985 . S
H2660 N2654 0.984 . S
H2661 N2654 0.984 . S
H2662 N2650 0.984 . S
H2663 N2650 0.985 . S
C2664 C2665 1.363 . S
C2664 C2670 1.379 . S
C2664 N2672 1.356 . S
C2665 C2664 1.363 . S
C2665 C2671 1.363 . S
C2666 C2667 1.363 . S
C2666 C2671 1.379 . S
C2666 N2673 1.356 . S
C2667 C2666 1.363 . S
C2667 C2670 1.363 . S
N2668 C2670 1.356 . S
N2668 H2680 0.984 . S
N2668 H2681 0.985 . S
N2669 C2671 1.356 . S
N2669 H2674 0.984 . S
N2669 H2675 0.985 . S
C2670 C2664 1.379 . S
C2670 C2667 1.363 . S
C2670 N2668 1.356 . S
C2671 C2665 1.363 . S
C2671 C2666 1.379 . S
C2671 N2669 1.356 . S
N2672 C2664 1.356 . S
N2672 H2678 0.984 . S
N2672 H2679 0.984 . S
N2673 C2666 1.356 . S
N2673 H2676 0.984 . S
N2673 H2677 0.985 . S
H2674 N2669 0.984 . S
H2675 N2669 0.985 . S
H2676 N2673 0.984 . S
H2677 N2673 0.985 . S
H2678 N2672 0.984 . S
H2679 N2672 0.984 . S
H2680 N2668 0.984 . S
H2681 N2668 0.985 . S
C2682 C2683 1.363 . S
C2682 C2688 1.379 . S
C2682 N2690 1.356 . S
C2683 C2682 1.363 . S
C2683 C2689 1.363 . S
C2684 C2685 1.363 . S
C2684 C2689 1.379 . S
C2684 N2691 1.356 . S
C2685 C2684 1.363 . S
C2685 C2688 1.363 . S
N2686 C2688 1.356 . S
N2686 H2698 0.984 . S
N2686 H2699 0.985 . S
N2687 C2689 1.356 . S
N2687 H2692 0.984 . S
N2687 H2693 0.985 . S
C2688 C2682 1.379 . S
C2688 C2685 1.363 . S
C2688 N2686 1.356 . S
C2689 C2683 1.363 . S
C2689 C2684 1.379 . S
C2689 N2687 1.356 . S
N2690 C2682 1.356 . S
N2690 H2696 0.984 . S
N2690 H2697 0.984 . S
N2691 C2684 1.356 . S
N2691 H2694 0.984 . S
N2691 H2695 0.985 . S
H2692 N2687 0.984 . S
H2693 N2687 0.985 . S
H2694 N2691 0.984 . S
H2695 N2691 0.985 . S
H2696 N2690 0.984 . S
H2697 N2690 0.984 . S
H2698 N2686 0.984 . S
H2699 N2686 0.985 . S
C2700 C2701 1.363 . S
C2700 C2706 1.379 . S
C2700 N2708 1.356 . S
C2701 C2700 1.363 . S
C2701 C2707 1.363 . S
C2702 C2703 1.363 . S
C2702 C2707 1.379 . S
C2702 N2709 1.356 . S
C2703 C2702 1.363 . S
C2703 C2706 1.363 . S
N2704 C2706 1.356 . S
N2704 H2716 0.984 . S
N2704 H2717 0.985 . S
N2705 C2707 1.356 . S
N2705 H2710 0.984 . S
N2705 H2711 0.985 . S
C2706 C2700 1.379 . S
C2706 C2703 1.363 . S
C2706 N2704 1.356 . S
C2707 C2701 1.363 . S
C2707 C2702 1.379 . S
C2707 N2705 1.356 . S
N2708 C2700 1.356 . S
N2708 H2714 0.984 . S
N2708 H2715 0.984 . S
N2709 C2702 1.356 . S
N2709 H2712 0.984 . S
N2709 H2713 0.985 . S
H2710 N2705 0.984 . S
H2711 N2705 0.985 . S
H2712 N2709 0.984 . S
H2713 N2709 0.985 . S
H2714 N2708 0.984 . S
H2715 N2708 0.984 . S
H2716 N2704 0.984 . S
H2717 N2704 0.985 . S
C2718 C2719 1.363 . S
C2718 C2724 1.379 . S
C2718 N2726 1.356 . S
C2719 C2718 1.363 . S
C2719 C2725 1.363 . S
C2720 C2721 1.363 . S
C2720 C2725 1.379 . S
C2720 N2727 1.356 . S
C2721 C2720 1.363 . S
C2721 C2724 1.363 . S
N2722 C2724 1.356 . S
N2722 H2734 0.984 . S
N2722 H2735 0.985 . S
N2723 C2725 1.356 . S
N2723 H2728 0.984 . S
N2723 H2729 0.985 . S
C2724 C2718 1.379 . S
C2724 C2721 1.363 . S
C2724 N2722 1.356 . S
C2725 C2719 1.363 . S
C2725 C2720 1.379 . S
C2725 N2723 1.356 . S
N2726 C2718 1.356 . S
N2726 H2732 0.984 . S
N2726 H2733 0.984 . S
N2727 C2720 1.356 . S
N2727 H2730 0.984 . S
N2727 H2731 0.985 . S
H2728 N2723 0.984 . S
H2729 N2723 0.985 . S
H2730 N2727 0.984 . S
H2731 N2727 0.985 . S
H2732 N2726 0.984 . S
H2733 N2726 0.984 . S
H2734 N2722 0.984 . S
H2735 N2722 0.985 . S
C2736 C2737 1.363 . S
C2736 C2742 1.379 . S
C2736 N2744 1.356 . S
C2737 C2736 1.363 . S
C2737 C2743 1.363 1_455 S
C2738 C2739 1.363 . S
C2738 C2743 1.379 . S
C2738 N2745 1.356 . S
C2739 C2738 1.363 . S
C2739 C2742 1.363 1_655 S
N2740 C2742 1.356 . S
N2740 H2752 0.984 . S
N2740 H2753 0.985 . S
N2741 C2743 1.356 . S
N2741 H2746 0.984 . S
N2741 H2747 0.985 . S
C2742 C2736 1.379 . S
C2742 C2739 1.363 1_455 S
C2742 N2740 1.356 . S
C2743 C2737 1.363 1_655 S
C2743 C2738 1.379 . S
C2743 N2741 1.356 . S
N2744 C2736 1.356 . S
N2744 H2750 0.984 . S
N2744 H2751 0.984 . S
N2745 C2738 1.356 . S
N2745 H2748 0.984 . S
N2745 H2749 0.985 . S
H2746 N2741 0.984 . S
H2747 N2741 0.985 . S
H2748 N2745 0.984 . S
H2749 N2745 0.985 . S
H2750 N2744 0.984 . S
H2751 N2744 0.984 . S
H2752 N2740 0.984 . S
H2753 N2740 0.985 . S
C2754 C2755 1.363 . S
C2754 C2760 1.379 . S
C2754 N2762 1.356 . S
C2755 C2754 1.363 . S
C2755 C2761 1.363 . S
C2756 C2757 1.363 . S
C2756 C2761 1.379 . S
C2756 N2763 1.356 . S
C2757 C2756 1.363 . S
C2757 C2760 1.363 . S
N2758 C2760 1.356 . S
N2758 H2770 0.984 . S
N2758 H2771 0.985 . S
N2759 C2761 1.356 . S
N2759 H2764 0.984 . S
N2759 H2765 0.985 . S
C2760 C2754 1.379 . S
C2760 C2757 1.363 . S
C2760 N2758 1.356 . S
C2761 C2755 1.363 . S
C2761 C2756 1.379 . S
C2761 N2759 1.356 . S
N2762 C2754 1.356 . S
N2762 H2768 0.984 . S
N2762 H2769 0.984 . S
N2763 C2756 1.356 . S
N2763 H2766 0.984 . S
N2763 H2767 0.985 . S
H2764 N2759 0.984 . S
H2765 N2759 0.985 . S
H2766 N2763 0.984 . S
H2767 N2763 0.985 . S
H2768 N2762 0.984 . S
H2769 N2762 0.984 . S
H2770 N2758 0.984 . S
H2771 N2758 0.985 . S
C2772 C2773 1.363 . S
C2772 C2778 1.379 . S
C2772 N2780 1.356 . S
C2773 C2772 1.363 . S
C2773 C2779 1.363 1_565 S
C2774 C2775 1.363 . S
C2774 C2779 1.379 . S
C2774 N2781 1.356 . S
C2775 C2774 1.363 . S
C2775 C2778 1.363 1_545 S
N2776 C2778 1.356 . S
N2776 H2788 0.984 . S
N2776 H2789 0.985 . S
N2777 C2779 1.356 . S
N2777 H2782 0.984 . S
N2777 H2783 0.985 . S
C2778 C2772 1.379 . S
C2778 C2775 1.363 1_565 S
C2778 N2776 1.356 . S
C2779 C2773 1.363 1_545 S
C2779 C2774 1.379 . S
C2779 N2777 1.356 . S
N2780 C2772 1.356 . S
N2780 H2786 0.984 . S
N2780 H2787 0.984 . S
N2781 C2774 1.356 . S
N2781 H2784 0.984 . S
N2781 H2785 0.985 . S
H2782 N2777 0.984 . S
H2783 N2777 0.985 . S
H2784 N2781 0.984 . S
H2785 N2781 0.985 . S
H2786 N2780 0.984 . S
H2787 N2780 0.984 . S
H2788 N2776 0.984 . S
H2789 N2776 0.985 . S
C2790 C2791 1.363 . S
C2790 C2796 1.379 1_655 S
C2790 N2798 1.356 . S
C2791 C2790 1.363 . S
C2791 C2797 1.363 . S
C2792 C2793 1.363 . S
C2792 C2797 1.379 1_455 S
C2792 N2799 1.356 . S
C2793 C2792 1.363 . S
C2793 C2796 1.363 . S
N2794 C2796 1.356 . S
N2794 H2806 0.984 . S
N2794 H2807 0.985 . S
N2795 C2797 1.356 . S
N2795 H2800 0.984 . S
N2795 H2801 0.985 . S
C2796 C2790 1.379 1_455 S
C2796 C2793 1.363 . S
C2796 N2794 1.356 . S
C2797 C2791 1.363 . S
C2797 C2792 1.379 1_655 S
C2797 N2795 1.356 . S
N2798 C2790 1.356 . S
N2798 H2804 0.984 . S
N2798 H2805 0.984 . S
N2799 C2792 1.356 . S
N2799 H2802 0.984 . S
N2799 H2803 0.985 . S
H2800 N2795 0.984 . S
H2801 N2795 0.985 . S
H2802 N2799 0.984 . S
H2803 N2799 0.985 . S
H2804 N2798 0.984 . S
H2805 N2798 0.984 . S
H2806 N2794 0.984 . S
H2807 N2794 0.985 . S
C2808 C2809 1.363 . S
C2808 C2814 1.379 . S
C2808 N2816 1.356 . S
C2809 C2808 1.363 . S
C2809 C2815 1.363 . S
C2810 C2811 1.363 . S
C2810 C2815 1.379 . S
C2810 N2817 1.356 . S
C2811 C2810 1.363 . S
C2811 C2814 1.363 . S
N2812 C2814 1.356 . S
N2812 H2824 0.984 . S
N2812 H2825 0.985 . S
N2813 C2815 1.356 . S
N2813 H2818 0.984 . S
N2813 H2819 0.985 . S
C2814 C2808 1.379 . S
C2814 C2811 1.363 . S
C2814 N2812 1.356 . S
C2815 C2809 1.363 . S
C2815 C2810 1.379 . S
C2815 N2813 1.356 . S
N2816 C2808 1.356 . S
N2816 H2822 0.984 . S
N2816 H2823 0.984 . S
N2817 C2810 1.356 . S
N2817 H2820 0.984 . S
N2817 H2821 0.985 . S
H2818 N2813 0.984 . S
H2819 N2813 0.985 . S
H2820 N2817 0.984 . S
H2821 N2817 0.985 . S
H2822 N2816 0.984 . S
H2823 N2816 0.984 . S
H2824 N2812 0.984 . S
H2825 N2812 0.985 . S
C2826 C2827 1.363 1_565 S
C2826 C2832 1.379 . S
C2826 N2834 1.356 . S
C2827 C2826 1.363 1_545 S
C2827 C2833 1.363 . S
C2828 C2829 1.363 1_545 S
C2828 C2833 1.379 . S
C2828 N2835 1.356 . S
C2829 C2828 1.363 1_565 S
C2829 C2832 1.363 . S
N2830 C2832 1.356 . S
N2830 H2842 0.984 . S
N2830 H2843 0.985 . S
N2831 C2833 1.356 . S
N2831 H2836 0.984 . S
N2831 H2837 0.985 . S
C2832 C2826 1.379 . S
C2832 C2829 1.363 . S
C2832 N2830 1.356 . S
C2833 C2827 1.363 . S
C2833 C2828 1.379 . S
C2833 N2831 1.356 . S
N2834 C2826 1.356 . S
N2834 H2840 0.984 . S
N2834 H2841 0.984 . S
N2835 C2828 1.356 . S
N2835 H2838 0.984 . S
N2835 H2839 0.985 . S
H2836 N2831 0.984 . S
H2837 N2831 0.985 . S
H2838 N2835 0.984 . S
H2839 N2835 0.985 . S
H2840 N2834 0.984 . S
H2841 N2834 0.984 . S
H2842 N2830 0.984 . S
H2843 N2830 0.985 . S
C2844 C2845 1.363 . S
C2844 C2850 1.379 . S
C2844 N2852 1.356 . S
C2845 C2844 1.363 . S
C2845 C2851 1.363 . S
C2846 C2847 1.363 . S
C2846 C2851 1.379 . S
C2846 N2853 1.356 . S
C2847 C2846 1.363 . S
C2847 C2850 1.363 . S
N2848 C2850 1.356 . S
N2848 H2860 0.984 . S
N2848 H2861 0.985 . S
N2849 C2851 1.356 . S
N2849 H2854 0.984 . S
N2849 H2855 0.985 . S
C2850 C2844 1.379 . S
C2850 C2847 1.363 . S
C2850 N2848 1.356 . S
C2851 C2845 1.363 . S
C2851 C2846 1.379 . S
C2851 N2849 1.356 . S
N2852 C2844 1.356 . S
N2852 H2858 0.984 . S
N2852 H2859 0.984 . S
N2853 C2846 1.356 . S
N2853 H2856 0.984 . S
N2853 H2857 0.985 . S
H2854 N2849 0.984 . S
H2855 N2849 0.985 . S
H2856 N2853 0.984 . S
H2857 N2853 0.985 . S
H2858 N2852 0.984 . S
H2859 N2852 0.984 . S
H2860 N2848 0.984 . S
H2861 N2848 0.985 . S
C2862 C2863 1.363 . S
C2862 C2868 1.379 . S
C2862 N2870 1.356 . S
C2863 C2862 1.363 . S
C2863 C2869 1.363 . S
C2864 C2865 1.363 . S
C2864 C2869 1.379 . S
C2864 N2871 1.356 . S
C2865 C2864 1.363 . S
C2865 C2868 1.363 . S
N2866 C2868 1.356 . S
N2866 H2878 0.984 . S
N2866 H2879 0.985 . S
N2867 C2869 1.356 . S
N2867 H2872 0.984 . S
N2867 H2873 0.985 . S
C2868 C2862 1.379 . S
C2868 C2865 1.363 . S
C2868 N2866 1.356 . S
C2869 C2863 1.363 . S
C2869 C2864 1.379 . S
C2869 N2867 1.356 . S
N2870 C2862 1.356 . S
N2870 H2876 0.984 . S
N2870 H2877 0.984 . S
N2871 C2864 1.356 . S
N2871 H2874 0.984 . S
N2871 H2875 0.985 . S
H2872 N2867 0.984 . S
H2873 N2867 0.985 . S
H2874 N2871 0.984 . S
H2875 N2871 0.985 . S
H2876 N2870 0.984 . S
H2877 N2870 0.984 . S
H2878 N2866 0.984 . S
H2879 N2866 0.985 . S
C2880 C2881 1.363 . S
C2880 C2886 1.379 . S
C2880 N2888 1.356 . S
C2881 C2880 1.363 . S
C2881 C2887 1.363 . S
C2882 C2883 1.363 . S
C2882 C2887 1.379 . S
C2882 N2889 1.356 . S
C2883 C2882 1.363 . S
C2883 C2886 1.363 . S
N2884 C2886 1.356 . S
N2884 H2896 0.984 . S
N2884 H2897 0.985 . S
N2885 C2887 1.356 . S
N2885 H2890 0.984 . S
N2885 H2891 0.985 . S
C2886 C2880 1.379 . S
C2886 C2883 1.363 . S
C2886 N2884 1.356 . S
C2887 C2881 1.363 . S
C2887 C2882 1.379 . S
C2887 N2885 1.356 . S
N2888 C2880 1.356 . S
N2888 H2894 0.984 . S
N2888 H2895 0.984 . S
N2889 C2882 1.356 . S
N2889 H2892 0.984 . S
N2889 H2893 0.985 . S
H2890 N2885 0.984 . S
H2891 N2885 0.985 . S
H2892 N2889 0.984 . S
H2893 N2889 0.985 . S
H2894 N2888 0.984 . S
H2895 N2888 0.984 . S
H2896 N2884 0.984 . S
H2897 N2884 0.985 . S
C2898 C2899 1.363 . S
C2898 C2904 1.379 . S
C2898 N2906 1.356 . S
C2899 C2898 1.363 . S
C2899 C2905 1.363 . S
C2900 C2901 1.363 . S
C2900 C2905 1.379 . S
C2900 N2907 1.356 . S
C2901 C2900 1.363 . S
C2901 C2904 1.363 . S
N2902 C2904 1.356 . S
N2902 H2914 0.984 . S
N2902 H2915 0.985 . S
N2903 C2905 1.356 . S
N2903 H2908 0.984 . S
N2903 H2909 0.985 . S
C2904 C2898 1.379 . S
C2904 C2901 1.363 . S
C2904 N2902 1.356 . S
C2905 C2899 1.363 . S
C2905 C2900 1.379 . S
C2905 N2903 1.356 . S
N2906 C2898 1.356 . S
N2906 H2912 0.984 . S
N2906 H2913 0.984 . S
N2907 C2900 1.356 . S
N2907 H2910 0.984 . S
N2907 H2911 0.985 . S
H2908 N2903 0.984 . S
H2909 N2903 0.985 . S
H2910 N2907 0.984 . S
H2911 N2907 0.985 . S
H2912 N2906 0.984 . S
H2913 N2906 0.984 . S
H2914 N2902 0.984 . S
H2915 N2902 0.985 . S
C2916 C2917 1.363 . S
C2916 C2922 1.379 . S
C2916 N2924 1.356 . S
C2917 C2916 1.363 . S
C2917 C2923 1.363 . S
C2918 C2919 1.363 . S
C2918 C2923 1.379 . S
C2918 N2925 1.356 . S
C2919 C2918 1.363 . S
C2919 C2922 1.363 . S
N2920 C2922 1.356 . S
N2920 H2932 0.984 . S
N2920 H2933 0.985 . S
N2921 C2923 1.356 . S
N2921 H2926 0.984 . S
N2921 H2927 0.985 . S
C2922 C2916 1.379 . S
C2922 C2919 1.363 . S
C2922 N2920 1.356 . S
C2923 C2917 1.363 . S
C2923 C2918 1.379 . S
C2923 N2921 1.356 . S
N2924 C2916 1.356 . S
N2924 H2930 0.984 . S
N2924 H2931 0.984 . S
N2925 C2918 1.356 . S
N2925 H2928 0.984 . S
N2925 H2929 0.985 . S
H2926 N2921 0.984 . S
H2927 N2921 0.985 . S
H2928 N2925 0.984 . S
H2929 N2925 0.985 . S
H2930 N2924 0.984 . S
H2931 N2924 0.984 . S
H2932 N2920 0.984 . S
H2933 N2920 0.985 . S
C2934 C2935 1.363 . S
C2934 C2940 1.379 . S
C2934 N2942 1.356 . S
C2935 C2934 1.363 . S
C2935 C2941 1.363 . S
C2936 C2937 1.363 . S
C2936 C2941 1.379 . S
C2936 N2943 1.356 . S
C2937 C2936 1.363 . S
C2937 C2940 1.363 . S
N2938 C2940 1.356 . S
N2938 H2950 0.984 . S
N2938 H2951 0.985 . S
N2939 C2941 1.356 . S
N2939 H2944 0.984 . S
N2939 H2945 0.985 . S
C2940 C2934 1.379 . S
C2940 C2937 1.363 . S
C2940 N2938 1.356 . S
C2941 C2935 1.363 . S
C2941 C2936 1.379 . S
C2941 N2939 1.356 . S
N2942 C2934 1.356 . S
N2942 H2948 0.984 . S
N2942 H2949 0.984 . S
N2943 C2936 1.356 . S
N2943 H2946 0.984 . S
N2943 H2947 0.985 . S
H2944 N2939 0.984 . S
H2945 N2939 0.985 . S
H2946 N2943 0.984 . S
H2947 N2943 0.985 . S
H2948 N2942 0.984 . S
H2949 N2942 0.984 . S
H2950 N2938 0.984 . S
H2951 N2938 0.985 . S
C2952 C2953 1.363 . S
C2952 C2958 1.379 1_554 S
C2952 N2960 1.356 . S
C2953 C2952 1.363 . S
C2953 C2959 1.363 . S
C2954 C2955 1.363 . S
C2954 C2959 1.379 1_556 S
C2954 N2961 1.356 . S
C2955 C2954 1.363 . S
C2955 C2958 1.363 . S
N2956 C2958 1.356 . S
N2956 H2968 0.984 . S
N2956 H2969 0.985 . S
N2957 C2959 1.356 . S
N2957 H2962 0.984 . S
N2957 H2963 0.985 . S
C2958 C2952 1.379 1_556 S
C2958 C2955 1.363 . S
C2958 N2956 1.356 . S
C2959 C2953 1.363 . S
C2959 C2954 1.379 1_554 S
C2959 N2957 1.356 . S
N2960 C2952 1.356 . S
N2960 H2966 0.984 . S
N2960 H2967 0.984 . S
N2961 C2954 1.356 . S
N2961 H2964 0.984 . S
N2961 H2965 0.985 . S
H2962 N2957 0.984 . S
H2963 N2957 0.985 . S
H2964 N2961 0.984 . S
H2965 N2961 0.985 . S
H2966 N2960 0.984 . S
H2967 N2960 0.984 . S
H2968 N2956 0.984 . S
H2969 N2956 0.985 . S
C2970 C2971 1.363 . S
C2970 C2976 1.379 1_556 S
C2970 N2978 1.356 . S
C2971 C2970 1.363 . S
C2971 C2977 1.363 . S
C2972 C2973 1.363 . S
C2972 C2977 1.379 1_554 S
C2972 N2979 1.356 . S
C2973 C2972 1.363 . S
C2973 C2976 1.363 . S
N2974 C2976 1.356 . S
N2974 H2986 0.984 . S
N2974 H2987 0.985 . S
N2975 C2977 1.356 . S
N2975 H2980 0.984 . S
N2975 H2981 0.985 . S
C2976 C2970 1.379 1_554 S
C2976 C2973 1.363 . S
C2976 N2974 1.356 . S
C2977 C2971 1.363 . S
C2977 C2972 1.379 1_556 S
C2977 N2975 1.356 . S
N2978 C2970 1.356 . S
N2978 H2984 0.984 . S
N2978 H2985 0.984 . S
N2979 C2972 1.356 . S
N2979 H2982 0.984 . S
N2979 H2983 0.985 . S
H2980 N2975 0.984 . S
H2981 N2975 0.985 . S
H2982 N2979 0.984 . S
H2983 N2979 0.985 . S
H2984 N2978 0.984 . S
H2985 N2978 0.984 . S
H2986 N2974 0.984 . S
H2987 N2974 0.985 . S
C2988 C2989 1.363 . S
C2988 C2994 1.379 1_556 S
C2988 N2996 1.356 . S
C2989 C2988 1.363 . S
C2989 C2995 1.363 . S
C2990 C2991 1.363 . S
C2990 C2995 1.379 1_554 S
C2990 N2997 1.356 . S
C2991 C2990 1.363 . S
C2991 C2994 1.363 . S
N2992 C2994 1.356 . S
N2992 H3004 0.984 . S
N2992 H3005 0.985 . S
N2993 C2995 1.356 . S
N2993 H2998 0.984 . S
N2993 H2999 0.985 . S
C2994 C2988 1.379 1_554 S
C2994 C2991 1.363 . S
C2994 N2992 1.356 . S
C2995 C2989 1.363 . S
C2995 C2990 1.379 1_556 S
C2995 N2993 1.356 . S
N2996 C2988 1.356 . S
N2996 H3002 0.984 . S
N2996 H3003 0.984 . S
N2997 C2990 1.356 . S
N2997 H3000 0.984 . S
N2997 H3001 0.985 . S
H2998 N2993 0.984 . S
H2999 N2993 0.985 . S
H3000 N2997 0.984 . S
H3001 N2997 0.985 . S
H3002 N2996 0.984 . S
H3003 N2996 0.984 . S
H3004 N2992 0.984 . S
H3005 N2992 0.985 . S
C3006 C3007 1.363 . S
C3006 C3012 1.379 . S
C3006 N3014 1.356 . S
C3007 C3006 1.363 . S
C3007 C3013 1.363 . S
C3008 C3009 1.363 . S
C3008 C3013 1.379 . S
C3008 N3015 1.356 . S
C3009 C3008 1.363 . S
C3009 C3012 1.363 . S
N3010 C3012 1.356 . S
N3010 H3022 0.984 . S
N3010 H3023 0.985 . S
N3011 C3013 1.356 . S
N3011 H3016 0.984 . S
N3011 H3017 0.985 . S
C3012 C3006 1.379 . S
C3012 C3009 1.363 . S
C3012 N3010 1.356 . S
C3013 C3007 1.363 . S
C3013 C3008 1.379 . S
C3013 N3011 1.356 . S
N3014 C3006 1.356 . S
N3014 H3020 0.984 . S
N3014 H3021 0.984 . S
N3015 C3008 1.356 . S
N3015 H3018 0.984 . S
N3015 H3019 0.985 . S
H3016 N3011 0.984 . S
H3017 N3011 0.985 . S
H3018 N3015 0.984 . S
H3019 N3015 0.985 . S
H3020 N3014 0.984 . S
H3021 N3014 0.984 . S
H3022 N3010 0.984 . S
H3023 N3010 0.985 . S
C3024 C3025 1.363 . S
C3024 C3030 1.379 . S
C3024 N3032 1.356 . S
C3025 C3024 1.363 . S
C3025 C3031 1.363 . S
C3026 C3027 1.363 . S
C3026 C3031 1.379 . S
C3026 N3033 1.356 . S
C3027 C3026 1.363 . S
C3027 C3030 1.363 . S
N3028 C3030 1.356 . S
N3028 H3040 0.984 . S
N3028 H3041 0.985 . S
N3029 C3031 1.356 . S
N3029 H3034 0.984 . S
N3029 H3035 0.985 . S
C3030 C3024 1.379 . S
C3030 C3027 1.363 . S
C3030 N3028 1.356 . S
C3031 C3025 1.363 . S
C3031 C3026 1.379 . S
C3031 N3029 1.356 . S
N3032 C3024 1.356 . S
N3032 H3038 0.984 . S
N3032 H3039 0.984 . S
N3033 C3026 1.356 . S
N3033 H3036 0.984 . S
N3033 H3037 0.985 . S
H3034 N3029 0.984 . S
H3035 N3029 0.985 . S
H3036 N3033 0.984 . S
H3037 N3033 0.985 . S
H3038 N3032 0.984 . S
H3039 N3032 0.984 . S
H3040 N3028 0.984 . S
H3041 N3028 0.985 . S
C3042 C3043 1.363 . S
C3042 C3048 1.379 . S
C3042 N3050 1.356 . S
C3043 C3042 1.363 . S
C3043 C3049 1.363 . S
C3044 C3045 1.363 . S
C3044 C3049 1.379 . S
C3044 N3051 1.356 . S
C3045 C3044 1.363 . S
C3045 C3048 1.363 . S
N3046 C3048 1.356 . S
N3046 H3058 0.984 . S
N3046 H3059 0.985 . S
N3047 C3049 1.356 . S
N3047 H3052 0.984 . S
N3047 H3053 0.985 . S
C3048 C3042 1.379 . S
C3048 C3045 1.363 . S
C3048 N3046 1.356 . S
C3049 C3043 1.363 . S
C3049 C3044 1.379 . S
C3049 N3047 1.356 . S
N3050 C3042 1.356 . S
N3050 H3056 0.984 . S
N3050 H3057 0.984 . S
N3051 C3044 1.356 . S
N3051 H3054 0.984 . S
N3051 H3055 0.985 . S
H3052 N3047 0.984 . S
H3053 N3047 0.985 . S
H3054 N3051 0.984 . S
H3055 N3051 0.985 . S
H3056 N3050 0.984 . S
H3057 N3050 0.984 . S
H3058 N3046 0.984 . S
H3059 N3046 0.985 . S
C3060 C3061 1.363 . S
C3060 C3066 1.379 . S
C3060 N3068 1.356 . S
C3061 C3060 1.363 . S
C3061 C3067 1.363 1_455 S
C3062 C3063 1.363 . S
C3062 C3067 1.379 . S
C3062 N3069 1.356 . S
C3063 C3062 1.363 . S
C3063 C3066 1.363 1_655 S
N3064 C3066 1.356 . S
N3064 H3076 0.984 . S
N3064 H3077 0.985 . S
N3065 C3067 1.356 . S
N3065 H3070 0.984 1_554 S
N3065 H3071 0.985 1_554 S
C3066 C3060 1.379 . S
C3066 C3063 1.363 1_455 S
C3066 N3064 1.356 . S
C3067 C3061 1.363 1_655 S
C3067 C3062 1.379 . S
C3067 N3065 1.356 . S
N3068 C3060 1.356 . S
N3068 H3074 0.984 . S
N3068 H3075 0.984 . S
N3069 C3062 1.356 . S
N3069 H3072 0.984 . S
N3069 H3073 0.985 . S
H3070 N3065 0.984 1_556 S
H3071 N3065 0.985 1_556 S
H3072 N3069 0.984 . S
H3073 N3069 0.985 . S
H3074 N3068 0.984 . S
H3075 N3068 0.984 . S
H3076 N3064 0.984 . S
H3077 N3064 0.985 . S
C3078 C3079 1.363 . S
C3078 C3084 1.379 . S
C3078 N3086 1.356 . S
C3079 C3078 1.363 . S
C3079 C3085 1.363 . S
C3080 C3081 1.363 . S
C3080 C3085 1.379 . S
C3080 N3087 1.356 . S
C3081 C3080 1.363 . S
C3081 C3084 1.363 . S
N3082 C3084 1.356 . S
N3082 H3094 0.984 . S
N3082 H3095 0.985 . S
N3083 C3085 1.356 . S
N3083 H3088 0.984 . S
N3083 H3089 0.985 . S
C3084 C3078 1.379 . S
C3084 C3081 1.363 . S
C3084 N3082 1.356 . S
C3085 C3079 1.363 . S
C3085 C3080 1.379 . S
C3085 N3083 1.356 . S
N3086 C3078 1.356 . S
N3086 H3092 0.984 . S
N3086 H3093 1.003 . S
N3087 C3080 1.356 . S
N3087 H3090 0.984 . S
N3087 H3091 0.985 . S
H3088 N3083 0.984 . S
H3089 N3083 0.985 . S
H3090 N3087 0.984 . S
H3091 N3087 0.985 . S
H3092 N3086 0.984 . S
H3093 N3086 1.003 . S
H3094 N3082 0.984 . S
H3095 N3082 0.985 . S
C3096 C3097 1.363 1_565 S
C3096 C3102 1.379 . S
C3096 N3104 1.356 . S
C3097 C3096 1.363 1_545 S
C3097 C3103 1.363 . S
C3098 C3099 1.363 1_545 S
C3098 C3103 1.379 . S
C3098 N3105 1.356 . S
C3099 C3098 1.363 1_565 S
C3099 C3102 1.363 . S
N3100 C3102 1.356 . S
N3100 H3112 0.984 . S
N3100 H3113 0.985 . S
N3101 C3103 1.356 . S
N3101 H3106 0.984 . S
N3101 H3107 0.985 . S
C3102 C3096 1.379 . S
C3102 C3099 1.363 . S
C3102 N3100 1.356 . S
C3103 C3097 1.363 . S
C3103 C3098 1.379 . S
C3103 N3101 1.356 . S
N3104 C3096 1.356 . S
N3104 H3110 0.984 . S
N3104 H3111 1.008 . S
N3105 C3098 1.356 . S
N3105 H3108 1.011 1_554 S
N3105 H3109 0.985 . S
H3106 N3101 0.984 . S
H3107 N3101 0.985 . S
H3108 N3105 1.011 1_556 S
H3109 N3105 0.985 . S
H3110 N3104 0.984 . S
H3111 N3104 1.008 . S
H3112 N3100 0.984 . S
H3113 N3100 0.985 . S
C3114 C3115 1.363 1_545 S
C3114 C3120 1.379 . S
C3114 N3122 1.356 . S
C3115 C3114 1.363 1_565 S
C3115 C3121 1.363 . S
C3116 C3117 1.363 1_565 S
C3116 C3121 1.379 . S
C3116 N3123 1.356 . S
C3117 C3116 1.363 1_545 S
C3117 C3120 1.363 . S
N3118 C3120 1.356 . S
N3118 H3130 0.984 . S
N3118 H3131 0.985 . S
N3119 C3121 1.356 . S
N3119 H3124 0.984 . S
N3119 H3125 0.985 . S
C3120 C3114 1.379 . S
C3120 C3117 1.363 . S
C3120 N3118 1.356 . S
C3121 C3115 1.363 . S
C3121 C3116 1.379 . S
C3121 N3119 1.356 . S
N3122 C3114 1.356 . S
N3122 H3128 0.984 . S
N3122 H3129 0.984 . S
N3123 C3116 1.356 . S
N3123 H3126 0.984 . S
N3123 H3127 0.985 . S
H3124 N3119 0.984 . S
H3125 N3119 0.985 . S
H3126 N3123 0.984 . S
H3127 N3123 0.985 . S
H3128 N3122 0.984 . S
H3129 N3122 0.984 . S
H3130 N3118 0.984 . S
H3131 N3118 0.985 . S
C3132 C3133 1.363 1_455 S
C3132 C3138 1.379 . S
C3132 N3140 1.356 1_455 S
C3133 C3132 1.363 1_655 S
C3133 C3139 1.363 . S
C3134 C3135 1.360 1_655 S
C3134 C3139 1.380 . S
C3134 N3141 1.357 1_655 S
C3135 C3134 1.360 1_455 S
C3135 C3138 1.363 . S
N3136 C3138 1.356 . S
N3136 H3148 0.984 . S
N3136 H3149 0.985 . S
N3137 C3139 1.356 . S
N3137 H3142 0.984 . S
N3137 H3143 0.985 . S
C3138 C3132 1.379 . S
C3138 C3135 1.363 . S
C3138 N3136 1.356 . S
C3139 C3133 1.363 . S
C3139 C3134 1.380 . S
C3139 N3137 1.356 . S
N3140 C3132 1.356 1_655 S
N3140 H3146 0.984 1_655 S
N3140 H3147 0.984 . S
N3141 C3134 1.357 1_455 S
N3141 H3144 0.984 . S
N3141 H3145 0.985 1_455 S
H3142 N3137 0.984 . S
H3143 N3137 0.985 . S
H3144 N3141 0.984 . S
H3145 N3141 0.985 1_655 S
H3146 N3140 0.984 1_455 S
H3147 N3140 0.984 . S
H3148 N3136 0.984 . S
H3149 N3136 0.985 . S
C3150 C3151 1.363 . S
C3150 C3156 1.379 . S
C3150 N3158 1.356 . S
C3151 C3150 1.363 . S
C3151 C3157 1.363 . S
C3152 C3153 1.363 . S
C3152 C3157 1.379 . S
C3152 N3159 1.356 . S
C3153 C3152 1.363 . S
C3153 C3156 1.363 . S
N3154 C3156 1.356 . S
N3154 H3166 0.984 . S
N3154 H3167 0.985 . S
N3155 C3157 1.356 . S
N3155 H3160 0.984 . S
N3155 H3161 0.985 . S
C3156 C3150 1.379 . S
C3156 C3153 1.363 . S
C3156 N3154 1.356 . S
C3157 C3151 1.363 . S
C3157 C3152 1.379 . S
C3157 N3155 1.356 . S
N3158 C3150 1.356 . S
N3158 H3164 0.984 . S
N3158 H3165 0.984 . S
N3159 C3152 1.356 . S
N3159 H3162 0.984 . S
N3159 H3163 0.985 . S
H3160 N3155 0.984 . S
H3161 N3155 0.985 . S
H3162 N3159 0.984 . S
H3163 N3159 0.985 . S
H3164 N3158 0.984 . S
H3165 N3158 0.984 . S
H3166 N3154 0.984 . S
H3167 N3154 0.985 . S
C3168 C3169 1.363 . S
C3168 C3174 1.379 . S
C3168 N3176 1.356 . S
C3169 C3168 1.363 . S
C3169 C3175 1.363 . S
C3170 C3171 1.363 . S
C3170 C3175 1.379 . S
C3170 N3177 1.356 . S
C3171 C3170 1.363 . S
C3171 C3174 1.363 . S
N3172 C3174 1.356 . S
N3172 H3184 0.984 . S
N3172 H3185 0.985 . S
N3173 C3175 1.356 . S
N3173 H3178 0.984 . S
N3173 H3179 0.985 . S
C3174 C3168 1.379 . S
C3174 C3171 1.363 . S
C3174 N3172 1.356 . S
C3175 C3169 1.363 . S
C3175 C3170 1.379 . S
C3175 N3173 1.356 . S
N3176 C3168 1.356 . S
N3176 H3182 0.984 . S
N3176 H3183 0.984 . S
N3177 C3170 1.356 . S
N3177 H3180 0.984 . S
N3177 H3181 0.985 . S
H3178 N3173 0.984 . S
H3179 N3173 0.985 . S
H3180 N3177 0.984 . S
H3181 N3177 0.985 . S
H3182 N3176 0.984 . S
H3183 N3176 0.984 . S
H3184 N3172 0.984 . S
H3185 N3172 0.985 . S
C3186 C3187 1.363 . S
C3186 C3192 1.379 . S
C3186 N3194 1.356 . S
C3187 C3186 1.363 . S
C3187 C3193 1.363 . S
C3188 C3189 1.363 . S
C3188 C3193 1.379 . S
C3188 N3195 1.356 . S
C3189 C3188 1.363 . S
C3189 C3192 1.363 . S
N3190 C3192 1.356 . S
N3190 H3202 0.984 . S
N3190 H3203 0.985 . S
N3191 C3193 1.356 . S
N3191 H3196 0.984 . S
N3191 H3197 0.985 . S
C3192 C3186 1.379 . S
C3192 C3189 1.363 . S
C3192 N3190 1.356 . S
C3193 C3187 1.363 . S
C3193 C3188 1.379 . S
C3193 N3191 1.356 . S
N3194 C3186 1.356 . S
N3194 H3200 0.984 . S
N3194 H3201 0.984 . S
N3195 C3188 1.356 . S
N3195 H3198 0.984 . S
N3195 H3199 0.985 . S
H3196 N3191 0.984 . S
H3197 N3191 0.985 . S
H3198 N3195 0.984 . S
H3199 N3195 0.985 . S
H3200 N3194 0.984 . S
H3201 N3194 0.984 . S
H3202 N3190 0.984 . S
H3203 N3190 0.985 . S
C3204 C3205 1.363 . S
C3204 C3210 1.379 . S
C3204 N3212 1.356 . S
C3205 C3204 1.363 . S
C3205 C3211 1.363 . S
C3206 C3207 1.363 . S
C3206 C3211 1.379 . S
C3206 N3213 1.356 . S
C3207 C3206 1.363 . S
C3207 C3210 1.363 . S
N3208 C3210 1.356 . S
N3208 H3220 0.984 . S
N3208 H3221 0.985 . S
N3209 C3211 1.356 . S
N3209 H3214 0.984 . S
N3209 H3215 0.985 . S
C3210 C3204 1.379 . S
C3210 C3207 1.363 . S
C3210 N3208 1.356 . S
C3211 C3205 1.363 . S
C3211 C3206 1.379 . S
C3211 N3209 1.356 . S
N3212 C3204 1.356 . S
N3212 H3218 0.984 . S
N3212 H3219 0.984 . S
N3213 C3206 1.356 . S
N3213 H3216 0.984 . S
N3213 H3217 0.985 . S
H3214 N3209 0.984 . S
H3215 N3209 0.985 . S
H3216 N3213 0.984 . S
H3217 N3213 0.985 . S
H3218 N3212 0.984 . S
H3219 N3212 0.984 . S
H3220 N3208 0.984 . S
H3221 N3208 0.985 . S
C3222 C3223 1.363 . S
C3222 C3228 1.379 . S
C3222 N3230 1.356 . S
C3223 C3222 1.363 . S
C3223 C3229 1.363 . S
C3224 C3225 1.363 . S
C3224 C3229 1.379 . S
C3224 N3231 1.356 . S
C3225 C3224 1.363 . S
C3225 C3228 1.363 . S
N3226 C3228 1.356 . S
N3226 H3238 0.984 . S
N3226 H3239 0.985 . S
N3227 C3229 1.356 . S
N3227 H3232 0.984 . S
N3227 H3233 0.985 . S
C3228 C3222 1.379 . S
C3228 C3225 1.363 . S
C3228 N3226 1.356 . S
C3229 C3223 1.363 . S
C3229 C3224 1.379 . S
C3229 N3227 1.356 . S
N3230 C3222 1.356 . S
N3230 H3236 0.984 . S
N3230 H3237 0.984 . S
N3231 C3224 1.356 . S
N3231 H3234 0.984 1_556 S
N3231 H3235 0.985 . S
H3232 N3227 0.984 . S
H3233 N3227 0.985 . S
H3234 N3231 0.984 1_554 S
H3235 N3231 0.985 . S
H3236 N3230 0.984 . S
H3237 N3230 0.984 . S
H3238 N3226 0.984 . S
H3239 N3226 0.985 . S
C3240 C3241 1.363 . S
C3240 C3246 1.379 . S
C3240 N3248 1.356 . S
C3241 C3240 1.363 . S
C3241 C3247 1.363 . S
C3242 C3243 1.363 . S
C3242 C3247 1.379 . S
C3242 N3249 1.356 . S
C3243 C3242 1.363 . S
C3243 C3246 1.363 . S
N3244 C3246 1.356 . S
N3244 H3256 0.991 . S
N3244 H3257 0.985 1_556 S
N3245 C3247 1.356 . S
N3245 H3250 0.984 . S
N3245 H3251 0.985 . S
C3246 C3240 1.379 . S
C3246 C3243 1.363 . S
C3246 N3244 1.356 . S
C3247 C3241 1.363 . S
C3247 C3242 1.379 . S
C3247 N3245 1.356 . S
N3248 C3240 1.356 . S
N3248 H3254 0.984 . S
N3248 H3255 0.984 . S
N3249 C3242 1.356 . S
N3249 H3252 0.984 . S
N3249 H3253 0.985 . S
H3250 N3245 0.984 . S
H3251 N3245 0.985 . S
H3252 N3249 0.984 . S
H3253 N3249 0.985 . S
H3254 N3248 0.984 . S
H3255 N3248 0.984 . S
H3256 N3244 0.991 . S
H3257 N3244 0.985 1_554 S
C3258 C3259 1.363 . S
C3258 C3264 1.379 . S
C3258 N3266 1.356 . S
C3259 C3258 1.363 . S
C3259 C3265 1.363 . S
C3260 C3261 1.363 . S
C3260 C3265 1.379 . S
C3260 N3267 1.356 . S
C3261 C3260 1.363 . S
C3261 C3264 1.363 . S
N3262 C3264 1.356 . S
N3262 H3274 0.984 . S
N3262 H3275 0.985 . S
N3263 C3265 1.356 . S
N3263 H3268 0.984 . S
N3263 H3269 0.985 . S
C3264 C3258 1.379 . S
C3264 C3261 1.363 . S
C3264 N3262 1.356 . S
C3265 C3259 1.363 . S
C3265 C3260 1.379 . S
C3265 N3263 1.356 . S
N3266 C3258 1.356 . S
N3266 H3272 0.984 . S
N3266 H3273 0.984 . S
N3267 C3260 1.356 . S
N3267 H3270 0.984 . S
N3267 H3271 0.985 . S
H3268 N3263 0.984 . S
H3269 N3263 0.985 . S
H3270 N3267 0.984 . S
H3271 N3267 0.985 . S
H3272 N3266 0.984 . S
H3273 N3266 0.984 . S
H3274 N3262 0.984 . S
H3275 N3262 0.985 . S
C3276 C3277 1.363 . S
C3276 C3282 1.379 . S
C3276 N3284 1.356 . S
C3277 C3276 1.363 . S
C3277 C3283 1.363 . S
C3278 C3279 1.363 . S
C3278 C3283 1.379 . S
C3278 N3285 1.356 . S
C3279 C3278 1.363 . S
C3279 C3282 1.363 . S
N3280 C3282 1.356 . S
N3280 H3292 0.984 . S
N3280 H3293 0.985 . S
N3281 C3283 1.356 . S
N3281 H3286 0.984 . S
N3281 H3287 0.985 . S
C3282 C3276 1.379 . S
C3282 C3279 1.363 . S
C3282 N3280 1.356 . S
C3283 C3277 1.363 . S
C3283 C3278 1.379 . S
C3283 N3281 1.356 . S
N3284 C3276 1.356 . S
N3284 H3290 0.984 . S
N3284 H3291 0.984 . S
N3285 C3278 1.356 . S
N3285 H3288 0.984 . S
N3285 H3289 0.985 . S
H3286 N3281 0.984 . S
H3287 N3281 0.985 . S
H3288 N3285 0.984 . S
H3289 N3285 0.985 . S
H3290 N3284 0.984 . S
H3291 N3284 0.984 . S
H3292 N3280 0.984 . S
H3293 N3280 0.985 . S
C3294 C3295 1.363 . S
C3294 C3300 1.379 . S
C3294 N3302 1.356 . S
C3295 C3294 1.363 . S
C3295 C3301 1.363 . S
C3296 C3297 1.363 . S
C3296 C3301 1.379 . S
C3296 N3303 1.356 . S
C3297 C3296 1.363 . S
C3297 C3300 1.363 . S
N3298 C3300 1.356 . S
N3298 H3310 0.984 . S
N3298 H3311 0.985 . S
N3299 C3301 1.356 . S
N3299 H3304 0.984 . S
N3299 H3305 0.985 . S
C3300 C3294 1.379 . S
C3300 C3297 1.363 . S
C3300 N3298 1.356 . S
C3301 C3295 1.363 . S
C3301 C3296 1.379 . S
C3301 N3299 1.356 . S
N3302 C3294 1.356 . S
N3302 H3308 0.984 . S
N3302 H3309 0.984 . S
N3303 C3296 1.356 . S
N3303 H3306 0.984 . S
N3303 H3307 0.985 . S
H3304 N3299 0.984 . S
H3305 N3299 0.985 . S
H3306 N3303 0.984 . S
H3307 N3303 0.985 . S
H3308 N3302 0.984 . S
H3309 N3302 0.984 . S
H3310 N3298 0.984 . S
H3311 N3298 0.985 . S
C3312 C3313 1.363 . S
C3312 C3318 1.379 . S
C3312 N3320 1.356 . S
C3313 C3312 1.363 . S
C3313 C3319 1.363 . S
C3314 C3315 1.363 . S
C3314 C3319 1.379 . S
C3314 N3321 1.356 . S
C3315 C3314 1.363 . S
C3315 C3318 1.363 . S
N3316 C3318 1.356 . S
N3316 H3328 0.984 . S
N3316 H3329 0.985 . S
N3317 C3319 1.356 . S
N3317 H3322 0.984 . S
N3317 H3323 0.985 . S
C3318 C3312 1.379 . S
C3318 C3315 1.363 . S
C3318 N3316 1.356 . S
C3319 C3313 1.363 . S
C3319 C3314 1.379 . S
C3319 N3317 1.356 . S
N3320 C3312 1.356 . S
N3320 H3326 0.984 . S
N3320 H3327 0.984 . S
N3321 C3314 1.356 . S
N3321 H3324 0.984 . S
N3321 H3325 0.985 . S
H3322 N3317 0.984 . S
H3323 N3317 0.985 . S
H3324 N3321 0.984 . S
H3325 N3321 0.985 . S
H3326 N3320 0.984 . S
H3327 N3320 0.984 . S
H3328 N3316 0.984 . S
H3329 N3316 0.985 . S
C3330 C3331 1.363 . S
C3330 C3336 1.379 . S
C3330 N3338 1.356 . S
C3331 C3330 1.363 . S
C3331 C3337 1.363 . S
C3332 C3333 1.363 . S
C3332 C3337 1.379 . S
C3332 N3339 1.356 . S
C3333 C3332 1.363 . S
C3333 C3336 1.363 . S
N3334 C3336 1.356 . S
N3334 H3346 0.984 . S
N3334 H3347 0.985 . S
N3335 C3337 1.356 . S
N3335 H3340 0.984 . S
N3335 H3341 0.985 . S
C3336 C3330 1.379 . S
C3336 C3333 1.363 . S
C3336 N3334 1.356 . S
C3337 C3331 1.363 . S
C3337 C3332 1.379 . S
C3337 N3335 1.356 . S
N3338 C3330 1.356 . S
N3338 H3344 0.984 . S
N3338 H3345 0.984 . S
N3339 C3332 1.356 . S
N3339 H3342 0.984 . S
N3339 H3343 0.985 . S
H3340 N3335 0.984 . S
H3341 N3335 0.985 . S
H3342 N3339 0.984 . S
H3343 N3339 0.985 . S
H3344 N3338 0.984 . S
H3345 N3338 0.984 . S
H3346 N3334 0.984 . S
H3347 N3334 0.985 . S
C3348 C3349 1.363 . S
C3348 C3354 1.379 . S
C3348 N3356 1.356 . S
C3349 C3348 1.363 . S
C3349 C3355 1.363 . S
C3350 C3351 1.363 . S
C3350 C3355 1.379 . S
C3350 N3357 1.356 . S
C3351 C3350 1.363 . S
C3351 C3354 1.363 . S
N3352 C3354 1.356 . S
N3352 H3364 0.984 . S
N3352 H3365 0.985 . S
N3353 C3355 1.356 . S
N3353 H3358 0.984 . S
N3353 H3359 0.985 . S
C3354 C3348 1.379 . S
C3354 C3351 1.363 . S
C3354 N3352 1.356 . S
C3355 C3349 1.363 . S
C3355 C3350 1.379 . S
C3355 N3353 1.356 . S
N3356 C3348 1.356 . S
N3356 H3362 0.984 . S
N3356 H3363 0.984 . S
N3357 C3350 1.356 . S
N3357 H3360 0.984 . S
N3357 H3361 0.985 . S
H3358 N3353 0.984 . S
H3359 N3353 0.985 . S
H3360 N3357 0.984 . S
H3361 N3357 0.985 . S
H3362 N3356 0.984 . S
H3363 N3356 0.984 . S
H3364 N3352 0.984 . S
H3365 N3352 0.985 . S
C3366 C3367 1.363 . S
C3366 C3372 1.379 . S
C3366 N3374 1.356 . S
C3367 C3366 1.363 . S
C3367 C3373 1.363 . S
C3368 C3369 1.363 . S
C3368 C3373 1.379 . S
C3368 N3375 1.356 . S
C3369 C3368 1.363 . S
C3369 C3372 1.363 . S
N3370 C3372 1.356 . S
N3370 H3382 0.984 . S
N3370 H3383 0.985 . S
N3371 C3373 1.356 . S
N3371 H3376 0.984 . S
N3371 H3377 0.985 . S
C3372 C3366 1.379 . S
C3372 C3369 1.363 . S
C3372 N3370 1.356 . S
C3373 C3367 1.363 . S
C3373 C3368 1.379 . S
C3373 N3371 1.356 . S
N3374 C3366 1.356 . S
N3374 H3380 0.984 . S
N3374 H3381 0.984 . S
N3375 C3368 1.356 . S
N3375 H3378 0.984 . S
N3375 H3379 0.985 . S
H3376 N3371 0.984 . S
H3377 N3371 0.985 . S
H3378 N3375 0.984 . S
H3379 N3375 0.985 . S
H3380 N3374 0.984 . S
H3381 N3374 0.984 . S
H3382 N3370 0.984 . S
H3383 N3370 0.985 . S
C1441 C609 1.121 1_554 S
C1443 C9 1.121 . S
C1459 C649 1.121 1_554 S
C1461 C49 1.121 . S
C1477 C89 1.120 . S
C1479 C689 1.120 1_554 S
C1495 C129 1.120 . S
C1497 C969 1.121 . S
C1513 C169 1.121 . S
C1515 C1009 1.121 . S
C1531 C209 1.120 . S
C1533 C1049 1.120 . S
C1549 C1338 1.121 . S
C1551 C258 1.120 . S
C1567 C1378 1.120 . S
C1569 C298 1.121 . S
C1585 C338 1.120 . S
C1587 C1418 1.120 . S
C1603 C738 1.121 . S
C1605 C378 1.121 . S
C1621 C418 1.121 . S
C1623 C778 1.121 . S
C1639 C458 1.120 . S
C1641 C818 1.120 . S
C1657 C1089 1.121 . S
C1659 C489 1.120 . S
C1675 C529 1.121 . S
C1677 C1129 1.121 . S
C1693 C1169 1.120 . S
C1695 C569 1.120 . S
C1711 C1218 1.120 . S
C1713 C858 1.120 . S
C1729 C1258 1.120 . S
C1731 C898 1.120 . S
C1747 C938 1.120 . S
C1749 C1298 1.120 . S
C1765 C19 2.190 . S
C1767 C179 2.190 . S
C1783 C59 2.190 . S
C1785 C219 2.190 . S
C1801 C99 2.190 . S
C1803 C139 2.190 . S
C1819 C250 2.190 . S
C1821 C410 2.190 . S
C1837 C290 2.190 . S
C1839 C450 2.190 . S
C1855 C330 2.190 . S
C1857 C370 2.190 . S
C1873 C499 2.190 . S
C1875 C659 2.190 . S
C1891 C699 2.190 . S
C1893 C539 2.190 . S
C1909 C579 2.190 . S
C1911 C619 2.190 . S
C1927 C730 2.190 . S
C1929 C890 2.190 . S
C1945 C770 2.190 . S
C1947 C930 2.190 . S
C1963 C850 2.190 . S
C1965 C810 2.190 . S
C1981 C979 2.190 . S
C1983 C1139 2.190 . S
C1999 C1179 2.190 . S
C2001 C1019 2.190 . S
C2017 C1059 2.190 . S
C2019 C1099 2.190 . S
C2035 C1210 2.190 . S
C2037 C1370 2.190 . S
C2053 C1250 2.190 . S
C2055 C1410 2.190 . S
C2071 C1290 2.190 . S
C2073 C1330 2.190 . S
C2089 C419 1.624 . S
C2091 C15 1.574 . S
C2107 C55 1.574 . S
C2109 C459 1.623 . S
C2125 C95 1.574 . S
C2127 C379 1.623 . S
C2143 C135 1.574 . S
C2145 C339 1.624 . S
C2161 C175 1.574 . S
C2163 C259 1.623 . S
C2179 C299 1.623 . S
C2181 C215 1.574 . S
C2197 C246 1.574 . S
C2199 C170 1.624 . S
C2215 C210 1.623 . S
C2217 C286 1.574 . S
C2233 C326 1.574 . S
C2235 C130 1.623 . S
C2251 C366 1.574 . S
C2253 C90 1.624 . S
C2269 C10 1.623 . S
C2271 C406 1.574 . S
C2287 C50 1.623 . S
C2289 C446 1.574 . S
C2305 C899 1.623 . S
C2307 C495 1.574 . S
C2323 C939 1.623 . S
C2325 C535 1.574 . S
C2341 C859 1.623 . S
C2343 C575 1.574 . S
C2359 C819 1.623 . S
C2361 C615 1.574 . S
C2377 C655 1.574 . S
C2379 C739 1.623 . S
C2395 C779 1.623 . S
C2397 C695 1.574 . S
C2413 C650 1.623 . S
C2415 C726 1.574 . S
C2431 C766 1.574 . S
C2433 C690 1.624 . S
C2449 C806 1.574 . S
C2451 C610 1.623 . S
C2467 C570 1.623 . S
C2469 C846 1.574 . S
C2485 C886 1.574 . S
C2487 C490 1.623 . S
C2503 C926 1.574 . S
C2505 C530 1.623 . S
C2521 C975 1.574 . S
C2523 C1379 1.623 . S
C2539 C1015 1.574 . S
C2541 C1419 1.623 . S
C2557 C1339 1.623 . S
C2559 C1055 1.574 . S
C2575 C1299 1.623 . S
C2577 C1095 1.574 . S
C2593 C1135 1.574 . S
C2595 C1219 1.623 . S
C2611 C1259 1.623 . S
C2613 C1175 1.574 . S
C2629 C1206 1.574 . S
C2631 C1130 1.623 . S
C2647 C1170 1.623 . S
C2649 C1246 1.574 . S
C2665 C1286 1.574 . S
C2667 C1090 1.623 . S
C2683 C1326 1.574 . S
C2685 C1050 1.623 . S
C2701 C970 1.623 . S
C2703 C1366 1.574 . S
C2719 C1010 1.623 . S
C2721 C1406 1.574 . S
C2737 C6 1.056 . S
C2739 C166 1.056 . S
C2755 C206 1.056 . S
C2757 C46 1.056 . S
C2773 C86 1.056 . S
C2775 C126 1.056 . S
C2791 C255 1.056 . S
C2793 C415 1.056 . S
C2809 C455 1.056 . S
C2811 C295 1.056 . S
C2827 C335 1.056 . S
C2829 C375 1.056 . S
C2845 C646 1.056 . S
C2847 C486 1.056 . S
C2863 C686 1.056 . S
C2865 C526 1.056 . S
C2881 C606 1.056 . S
C2883 C566 1.056 . S
C2899 C895 1.056 . S
C2901 C735 1.056 . S
C2917 C775 1.056 . S
C2919 C935 1.056 . S
C2935 C855 1.056 . S
C2937 C815 1.056 . S
C2953 C1126 1.056 . S
C2955 C966 1.056 . S
C2971 C1006 1.056 . S
C2973 C1166 1.056 . S
C2989 C1046 1.056 . S
C2991 C1086 1.056 . S
C3007 C1375 1.056 . S
C3009 C1215 1.056 . S
C3025 C1255 1.056 . S
C3027 C1415 1.056 . S
C3043 C1295 1.056 . S
C3045 C1335 1.056 . S
C3061 C18 1.288 . S
C3063 C249 1.288 . S
C3079 C58 1.287 . S
C3081 C289 1.287 . S
C3097 C329 1.287 . S
C3099 C98 1.287 . S
C3115 C369 1.288 . S
C3117 C138 1.288 . S
C3133 C178 1.287 . S
C3135 C409 1.287 . S
C3151 C218 1.288 . S
C3153 C449 1.288 . S
C3169 C729 1.288 . S
C3171 C498 1.288 . S
C3187 C538 1.288 . S
C3189 C769 1.288 . S
C3205 C809 1.288 . S
C3207 C578 1.288 . S
C3223 C849 1.287 . S
C3225 C618 1.287 . S
C3241 C889 1.288 . S
C3243 C658 1.288 . S
C3259 C929 1.288 . S
C3261 C698 1.288 . S
C3277 C1209 1.287 . S
C3279 C978 1.287 . S
C3295 C1018 1.287 . S
C3297 C1249 1.287 . S
C3313 C1289 1.288 . S
C3315 C1058 1.288 . S
C3331 C1329 1.287 . S
C3333 C1098 1.287 . S
C3349 C1369 1.288 . S
C3351 C1138 1.288 . S
C3367 C1178 1.288 . S
C3369 C1409 1.288 . S
