# Generated by pormake.
# Topology uoo, (4)-cn, num edge types: 1
# Building blocks:
#     Node 0, Type 0, BuildingBlock: CEKHIL_clean_sbu_0, # of connection points: 4
#     Node 1, Type 0, BuildingBlock: CEKHIL_clean_sbu_0, # of connection points: 4
#     Node 2, Type 0, BuildingBlock: CEKHIL_clean_sbu_0, # of connection points: 4
#     Node 3, Type 0, BuildingBlock: CEKHIL_clean_sbu_0, # of connection points: 4
#     Node 4, Type 0, BuildingBlock: CEKHIL_clean_sbu_0, # of connection points: 4
#     Node 5, Type 0, BuildingBlock: CEKHIL_clean_sbu_0, # of connection points: 4
#     Edge 6, Type (0, 0), BuildingBlock: XIVTED_clean_linker_0, # of connection points: 2
#     Edge 7, Type (0, 0), BuildingBlock: XIVTED_clean_linker_0, # of connection points: 2
#     Edge 8, Type (0, 0), BuildingBlock: XIVTED_clean_linker_0, # of connection points: 2
#     Edge 9, Type (0, 0), BuildingBlock: XIVTED_clean_linker_0, # of connection points: 2
#     Edge 10, Type (0, 0), BuildingBlock: XIVTED_clean_linker_0, # of connection points: 2
#     Edge 11, Type (0, 0), BuildingBlock: XIVTED_clean_linker_0, # of connection points: 2
#     Edge 12, Type (0, 0), BuildingBlock: XIVTED_clean_linker_0, # of connection points: 2
#     Edge 13, Type (0, 0), BuildingBlock: XIVTED_clean_linker_0, # of connection points: 2
#     Edge 14, Type (0, 0), BuildingBlock: XIVTED_clean_linker_0, # of connection points: 2
#     Edge 15, Type (0, 0), BuildingBlock: XIVTED_clean_linker_0, # of connection points: 2
#     Edge 16, Type (0, 0), BuildingBlock: XIVTED_clean_linker_0, # of connection points: 2
#     Edge 17, Type (0, 0), BuildingBlock: XIVTED_clean_linker_0, # of connection points: 2
# Relax obj value: 0.250
# Max RMSD: 0.172
# Mean RMSD: 0.172
data_MOF--net-uoo--node1-CEKHIL_clean_sbu_0--edge1-XIVTED_clean_linker_0
_symmetry_space_group_name_H-M    P1
_symmetry_Int_Tables_number       1
_symmetry_cell_setting            triclinic
loop_
_symmetry_equiv_pos_as_xyz
'x, y, z'
_cell_length_a     24.4216
_cell_length_b     24.404868
_cell_length_c     38.7104
_cell_angle_alpha  89.957429
_cell_angle_beta   90.223042
_cell_angle_gamma 120.00498
loop_
_atom_site_label
_atom_site_type_symbol
_atom_site_fract_x
_atom_site_fract_y
_atom_site_fract_z
_atom_type_partial_charge
Co0 Co 0.14519 0.297 -0.00453 0.0
O1 O 0.06416 0.29152 0.98758 0.0
O2 O 0.15192 0.37615 0.00594 0.0
C3 C 0.14833 0.25006 0.94649 0.0
O4 O 0.23664 0.32698 0.0051 0.0
Co5 Co 0.17213 0.18787 0.00445 0.0
O6 O 0.26341 0.25239 -0.00045 0.0
C7 C 0.10798 0.2169 0.05997 0.0
C8 C 0.09315 0.35086 -0.00306 0.0
C9 C 0.27818 0.30987 0.00374 0.0
O10 O 0.12089 0.26825 0.04421 0.0
O11 O 0.1208 0.176 0.04748 0.0
O12 O 0.16294 0.30911 0.94652 0.0
O13 O 0.12831 0.21968 0.97536 0.0
Co14 Co 0.82921 0.13656 0.33221 0.0
O15 O 0.75337 0.0541 0.33312 0.0
O16 O 0.75996 0.14518 0.34762 0.0
C17 C 0.86456 0.12884 0.28012 0.0
O18 O 0.89179 0.22971 0.33275 0.0
Co19 Co 0.96663 0.16389 0.32975 0.0
O20 O 0.99151 0.25437 0.32215 0.0
C21 C 0.89031 0.10979 0.39231 0.0
C22 C 0.72513 0.08468 0.34319 0.0
C23 C 0.94957 0.27016 0.32646 0.0
O24 O 0.85022 0.12506 0.38098 0.0
O25 O 0.93655 0.11507 0.37429 0.0
O26 O 0.8196 0.14244 0.28281 0.0
O27 O 0.8829 0.11504 0.30858 0.0
Co28 Co 0.68519 0.84376 0.66365 0.0
O29 O 0.69518 0.77019 0.66977 0.0
O30 O 0.60574 0.77233 0.67438 0.0
C31 C 0.74159 0.88284 0.61529 0.0
O32 O 0.65082 0.90268 0.65789 0.0
Co33 Co 0.78972 0.98343 0.66752 0.0
O34 O 0.72436 0.00439 0.65192 0.0
C35 C 0.75342 0.90439 0.72985 0.0
C36 C 0.63452 0.74004 0.67592 0.0
C37 C 0.66683 0.96022 0.65171 0.0
O38 O 0.70289 0.86403 0.71401 0.0
O39 O 0.79748 0.95346 0.71494 0.0
O40 O 0.68432 0.83481 0.6138 0.0
O41 O 0.76513 0.90166 0.64591 0.0
Co42 Co 0.85257 0.68546 0.98881 0.0
O43 O 0.93398 0.69093 0.98293 0.0
O44 O 0.84414 0.60505 -0.00257 0.0
C45 C 0.85147 0.73651 0.94101 0.0
O46 O 0.76049 0.65541 -0.00486 0.0
Co47 Co 0.82708 0.79501 0.00039 0.0
O48 O 0.73557 0.7319 -0.00616 0.0
C49 C 0.88307 0.75748 0.0566 0.0
C50 C 0.90373 0.63076 0.99051 0.0
C51 C 0.71982 0.6737 -0.00594 0.0
O52 O 0.87213 0.70857 0.03885 0.0
O53 O 0.87254 0.80052 0.04499 0.0
O54 O 0.83829 0.67793 0.93955 0.0
O55 O 0.87128 0.76475 0.97058 0.0
Co56 Co 0.14972 0.84096 0.3369 0.0
O57 O 0.22798 0.91666 0.32511 0.0
O58 O 0.21938 0.83319 0.35299 0.0
C59 C 0.10258 0.82805 0.28527 0.0
O60 O 0.08329 0.75485 0.35318 0.0
Co61 Co 0.01568 0.81977 0.33844 0.0
O62 O 0.99165 0.72984 0.32865 0.0
C63 C 0.10603 0.89395 0.39422 0.0
C64 C 0.25549 0.88867 0.33989 0.0
C65 C 0.03045 0.71376 0.3401 0.0
O66 O 0.14628 0.88029 0.38153 0.0
O67 O 0.05181 0.8761 0.38045 0.0
O68 O 0.14296 0.8088 0.29032 0.0
O69 O 0.09335 0.85638 0.311 0.0
Co70 Co 0.30454 0.17298 0.66362 0.0
O71 O 0.29908 0.24838 0.67135 0.0
O72 O 0.38336 0.2385 0.68108 0.0
C73 C 0.25991 0.14785 0.61099 0.0
O74 O 0.33343 0.10982 0.65739 0.0
Co75 Co 0.19233 0.03723 0.65508 0.0
O76 O 0.25663 0.01394 0.64089 0.0
C77 C 0.21862 0.1014 0.72246 0.0
C78 C 0.35807 0.27416 0.68103 0.0
C79 C 0.31476 0.05389 0.64623 0.0
O80 O 0.27371 0.14286 0.71171 0.0
O81 O 0.1763 0.05908 0.70283 0.0
O82 O 0.3186 0.1921 0.61471 0.0
O83 O 0.22851 0.12461 0.63923 0.0
H84 H 0.29314 0.13158 0.78007 0.0
H85 H 0.12062 0.26845 0.88124 0.0
H86 H 0.10717 0.0869 0.74551 0.0
H87 H 0.18599 0.16219 0.94026 0.0
H88 H 0.12988 0.21859 0.82824 0.0
H89 H 0.26922 0.15709 0.83756 0.0
C90 C 0.24701 0.12621 0.78481 0.0
C91 C 0.20194 0.10715 0.75822 0.0
C92 C 0.14171 0.206 0.85288 0.0
C93 C 0.17552 0.13796 0.82291 0.0
C94 C 0.13694 0.23462 0.88294 0.0
C95 C 0.15269 0.21924 0.91491 0.0
C96 C 0.16445 0.16353 0.85482 0.0
C97 C 0.17328 0.17493 0.91596 0.0
C98 C 0.23346 0.14053 0.81746 0.0
C99 C 0.14294 0.10106 0.76548 0.0
N100 N 0.17979 0.1493 0.88612 0.0
N101 N 0.13189 0.11793 0.79699 0.0
H102 H 0.94988 0.09097 0.26478 0.0
H103 H 0.04873 0.27687 0.08655 0.0
H104 H 0.85657 0.18579 0.22124 0.0
H105 H 0.08846 0.12666 0.10884 0.0
H106 H 0.98833 0.25261 0.13969 0.0
H107 H 0.00974 0.11048 0.21101 0.0
C108 C 0.94185 0.11565 0.24386 0.0
C109 C 0.89837 0.13696 0.2474 0.0
C110 C 0.0102 0.22489 0.13297 0.0
C111 C 0.96696 0.16001 0.18636 0.0
C112 C 0.04517 0.23897 0.10272 0.0
C113 C 0.07386 0.20375 0.09316 0.0
C114 C 0.00426 0.17568 0.1542 0.0
C115 C 0.06704 0.15493 0.11517 0.0
C116 C 0.97587 0.12661 0.21325 0.0
C117 C 0.88957 0.16851 0.21956 0.0
N118 N 0.03307 0.14244 0.14482 0.0
N119 N 0.92398 0.17955 0.19032 0.0
H120 H 0.90615 0.01169 0.41243 0.0
H121 H 0.82437 0.00971 0.60962 0.0
H122 H 0.85037 0.14266 0.45041 0.0
H123 H 0.732 0.83715 0.55007 0.0
H124 H 0.8696 0.06937 0.55608 0.0
H125 H 0.87768 0.95727 0.46854 0.0
C126 C 0.88904 0.02962 0.4328 0.0
C127 C 0.8802 0.08141 0.42693 0.0
C128 C 0.83999 0.01836 0.555 0.0
C129 C 0.84916 0.02061 0.49074 0.0
C130 C 0.8144 0.98434 0.58538 0.0
C131 C 0.77406 0.91857 0.58406 0.0
C132 C 0.8267 0.98597 0.52347 0.0
C133 C 0.76251 0.88792 0.55201 0.0
C134 C 0.87262 -0.00154 0.46455 0.0
C135 C 0.85739 0.10258 0.45398 0.0
N136 N 0.78903 0.92189 0.52287 0.0
N137 N 0.84287 0.07221 0.4849 0.0
H138 H 0.77036 0.67515 0.88825 0.0
H139 H 0.85445 0.97352 0.77374 0.0
H140 H 0.89522 0.86252 0.92816 0.0
H141 H 0.6753 0.79919 0.76732 0.0
H142 H 0.87634 0.93673 0.82836 0.0
H143 H 0.74245 0.7214 0.84041 0.0
C144 C 0.79209 0.72616 0.88686 0.0
C145 C 0.83535 0.76516 0.91206 0.0
C146 C 0.8319 0.90725 0.81512 0.0
C147 C 0.80364 0.81848 0.85725 0.0
C148 C 0.81929 0.92813 0.784 0.0
C149 C 0.76326 0.8891 0.76558 0.0
C150 C 0.78863 0.84669 0.82746 0.0
C151 C 0.71942 0.8308 0.78026 0.0
C152 C 0.77573 0.75251 0.85969 0.0
C153 C 0.86163 0.83095 0.90915 0.0
N154 N 0.7335 0.81105 0.80998 0.0
N155 N 0.84587 0.85579 0.88192 0.0
H156 H 0.02864 0.87689 0.26459 0.0
H157 H 0.92684 0.68511 0.08661 0.0
H158 H 0.0953 0.75155 0.23178 0.0
H159 H 0.90343 0.84644 0.10633 0.0
H160 H 0.97717 0.70017 0.14295 0.0
H161 H 0.97162 0.85792 0.20975 0.0
C162 C 0.03109 0.84521 0.24588 0.0
C163 C 0.06692 0.8159 0.25263 0.0
C164 C 0.96096 0.73223 0.13497 0.0
C165 C 0.00161 0.79378 0.19006 0.0
C166 C 0.93191 0.72357 0.10281 0.0
C167 C 0.91094 0.76474 0.09154 0.0
C168 C 0.96886 0.78216 0.15628 0.0
C169 C 0.91904 0.81369 0.11382 0.0
C170 C -0.0013 0.83457 0.21459 0.0
C171 C 0.06851 0.77536 0.22753 0.0
N172 N 0.94737 0.82105 0.14514 0.0
N173 N 0.03621 0.7654 0.19736 0.0
H174 H 0.32391 0.16959 0.55034 0.0
H175 H 0.03024 0.90974 0.44103 0.0
H176 H 0.13827 0.05802 0.59477 0.0
H177 H 0.2255 0.97109 0.41813 0.0
H178 H 0.06516 0.97754 0.4927 0.0
H179 H 0.2838 0.11195 0.49608 0.0
C180 C 0.27452 0.13342 0.54856 0.0
C181 C 0.23447 0.11806 0.57716 0.0
C182 C 0.1001 0.97598 0.47622 0.0
C183 C 0.18837 0.05194 0.51522 0.0
C184 C 0.08031 0.93746 0.4468 0.0
C185 C 0.12499 0.93426 0.42544 0.0
C186 C 0.16495 0.01221 0.48383 0.0
C187 C 0.18929 0.97137 0.43405 0.0
C188 C 0.25175 0.10035 0.51765 0.0
C189 C 0.17082 0.07088 0.57337 0.0
N190 N 0.20727 0.00884 0.46249 0.0
N191 N 0.14966 0.03919 0.54294 0.0
H192 H 0.32329 0.42474 0.03401 0.0
H193 H 0.67399 0.55926 0.96403 0.0
H194 H 0.38388 0.31216 0.97743 0.0
H195 H 0.61465 0.67273 0.02065 0.0
H196 H 0.56735 0.46938 0.96753 0.0
H197 H 0.42963 0.51528 0.03019 0.0
C198 C 0.35927 0.41891 0.02101 0.0
C199 C 0.3447 0.36084 0.00583 0.0
C200 C 0.57732 0.5138 0.97915 0.0
C201 C 0.46659 0.4649 0.00104 0.0
C202 C 0.63818 0.56527 0.97711 0.0
C203 C 0.65317 0.62327 0.99247 0.0
C204 C 0.53086 0.52004 -0.00315 0.0
C205 C 0.60491 0.6288 0.00851 0.0
C206 C 0.41993 0.47081 0.01874 0.0
C207 C 0.3932 0.35591 0.98963 0.0
N208 N 0.54577 0.57744 0.01057 0.0
N209 N 0.45204 0.40757 0.98743 0.0
H210 H 0.87212 0.31279 0.30485 0.0
H211 H 0.1022 0.66664 0.36625 0.0
H212 H 0.06162 0.37854 0.34233 0.0
H213 H 0.92875 0.61006 0.31003 0.0
H214 H 0.08596 0.56067 0.35956 0.0
H215 H 0.89138 0.42067 0.30689 0.0
C216 C 0.91808 0.35019 0.31337 0.0
C217 C 0.96522 0.33671 0.32387 0.0
C218 C 0.05139 0.57128 0.34868 0.0
C219 C 0.98726 0.46044 0.32654 0.0
C220 C 0.06026 0.6318 0.35268 0.0
C221 C 0.0165 0.64742 0.33878 0.0
C222 C -0.00181 0.52549 0.33078 0.0
C223 C 0.96339 0.60008 0.3214 0.0
C224 C 0.92898 0.41179 0.31446 0.0
C225 C 0.02405 0.38698 0.3341 0.0
N226 N 0.95569 0.54113 0.31791 0.0
N227 N 0.0332 0.44673 0.33559 0.0
H228 H 0.43809 0.13584 0.63269 0.0
H229 H 0.54126 0.87449 0.64474 0.0
H230 H 0.30532 0.93629 0.64419 0.0
H231 H 0.67351 0.07562 0.64253 0.0
H232 H 0.45467 0.89526 0.63706 0.0
H233 H 0.52375 0.11296 0.62819 0.0
C234 C 0.42687 0.08697 0.63418 0.0
C235 C 0.36451 0.03785 0.63953 0.0
C236 C 0.50256 0.93488 0.63807 0.0
C237 C 0.46297 0.01149 0.6344 0.0
C238 C 0.55233 0.92323 0.64254 0.0
C239 C 0.61506 0.9736 0.64479 0.0
C240 C 0.51523 -0.00263 0.63583 0.0
C241 C 0.62603 0.03542 0.64125 0.0
C242 C 0.47597 0.07404 0.63153 0.0
C243 C 0.35274 0.97551 0.64037 0.0
N244 N 0.57646 0.04559 0.63719 0.0
N245 N 0.40179 0.96412 0.63826 0.0
H246 H 0.32128 0.36329 0.68489 0.0
H247 H 0.67398 0.652 0.67633 0.0
H248 H 0.48462 0.33974 0.69386 0.0
H249 H 0.51085 0.67316 0.69341 0.0
H250 H 0.60663 0.53733 0.68454 0.0
H251 H 0.39077 0.47775 0.69012 0.0
C252 C 0.37161 0.38216 0.68836 0.0
C253 C 0.39729 0.34218 0.68858 0.0
C254 C 0.58593 0.56738 0.68682 0.0
C255 C 0.4771 0.47267 0.69406 0.0
C256 C 0.62431 0.63265 0.68208 0.0
C257 C 0.59779 0.6719 0.68368 0.0
C258 C 0.52083 0.54172 0.69292 0.0
C259 C 0.53322 0.64459 0.69143 0.0
C260 C 0.41131 0.44743 0.69133 0.0
C261 C 0.46286 0.36899 0.69329 0.0
N262 N 0.4969 0.58122 0.69541 0.0
N263 N 0.50065 0.43267 0.69539 0.0
H264 H 0.03028 0.66853 0.98744 0.0
H265 H 0.9681 0.31375 0.98562 0.0
H266 H 0.84452 0.50294 -0.00571 0.0
H267 H 0.15052 0.47774 0.00639 0.0
H268 H 0.92198 0.38289 0.98344 0.0
H269 H 0.07644 0.59935 0.98882 0.0
C270 C -0.00064 0.61778 0.98914 0.0
C271 C 0.93369 0.59141 0.99083 0.0
C272 C 0.9721 0.40352 0.98853 0.0
C273 C 0.98556 0.5124 0.99224 0.0
C274 C -0.00172 0.36413 0.98974 0.0
C275 C 0.06302 0.39006 -0.00378 0.0
C276 C 0.01125 0.4691 0.99347 0.0
C277 C 0.10024 0.45567 0.00141 0.0
C278 C 0.02556 0.57837 0.99003 0.0
C279 C 0.89552 0.52534 0.99308 0.0
N280 N 0.07387 0.49296 -0.00021 0.0
N281 N 0.922 0.4881 0.99363 0.0
H282 H 0.65699 0.14277 0.35538 0.0
H283 H 0.32133 0.82895 0.35468 0.0
H284 H 0.63594 0.95823 0.3386 0.0
H285 H 0.34659 0.01242 0.3292 0.0
H286 H 0.43593 0.87546 0.35797 0.0
H287 H 0.54247 0.09499 0.35585 0.0
C288 C 0.62827 0.09201 0.35208 0.0
C289 C 0.65601 0.05433 0.34672 0.0
C290 C 0.41636 0.90545 0.35161 0.0
C291 C 0.52484 -0.00036 0.34721 0.0
C292 C 0.35105 0.87913 0.34983 0.0
C293 C 0.3246 0.91705 0.34158 0.0
C294 C 0.45543 0.97029 0.34561 0.0
C295 C 0.36519 0.98159 0.33546 0.0
C296 C 0.5629 0.06495 0.35215 0.0
C297 C 0.6164 0.98892 0.34266 0.0
N298 N 0.42881 0.00636 0.33778 0.0
N299 N 0.55254 0.9635 0.34298 0.0
loop_
_geom_bond_atom_site_label_1
_geom_bond_atom_site_label_2
_geom_bond_distance
_geom_bond_site_symmetry_2
_ccdc_geom_bond_type
Co0 O1 2.216 1_554 S
Co0 O2 2.091 . S
Co0 O4 2.004 . S
Co0 O10 2.021 . S
Co0 O12 2.137 1_554 S
Co0 O13 2.244 1_554 S
O1 Co0 2.216 1_556 S
O1 C8 1.247 . S
O2 Co0 2.091 . S
O2 C8 1.262 1_554 S
C3 O12 1.247 . S
C3 O13 1.272 . S
O4 Co0 2.004 . S
O4 C9 1.259 . S
Co5 O6 2.061 . S
Co5 O11 2.052 . S
Co5 O13 2.135 1_554 S
O6 Co5 2.061 . S
O6 C9 1.235 . S
C7 O10 1.238 . S
C7 O11 1.241 . S
C8 O1 1.247 . S
C8 O2 1.262 1_556 S
C9 O4 1.259 . S
C9 O6 1.235 . S
O10 Co0 2.021 . S
O10 C7 1.238 . S
O11 Co5 2.052 . S
O11 C7 1.241 . S
O12 Co0 2.137 1_556 S
O12 C3 1.247 . S
O13 Co0 2.244 1_556 S
O13 C3 1.272 . S
O13 Co5 2.135 1_556 S
Co14 O15 2.216 . S
Co14 O16 2.091 . S
Co14 O18 2.004 . S
Co14 O24 2.021 . S
Co14 O26 2.137 . S
Co14 O27 2.244 . S
O15 Co14 2.216 . S
O15 C22 1.247 . S
O16 Co14 2.091 . S
O16 C22 1.261 . S
C17 O26 1.247 . S
C17 O27 1.272 . S
O18 Co14 2.004 . S
O18 C23 1.259 . S
Co19 O20 2.061 . S
Co19 O25 2.052 . S
Co19 O27 2.135 . S
O20 Co19 2.061 . S
O20 C23 1.235 . S
C21 O24 1.238 . S
C21 O25 1.241 . S
C22 O15 1.247 . S
C22 O16 1.261 . S
C23 O18 1.259 . S
C23 O20 1.235 . S
O24 Co14 2.021 . S
O24 C21 1.238 . S
O25 Co19 2.052 . S
O25 C21 1.241 . S
O26 Co14 2.137 . S
O26 C17 1.247 . S
O27 Co14 2.244 . S
O27 C17 1.272 . S
O27 Co19 2.135 . S
Co28 O29 2.216 . S
Co28 O30 2.091 . S
Co28 O32 2.004 . S
Co28 O38 2.021 . S
Co28 O40 2.137 . S
Co28 O41 2.244 . S
O29 Co28 2.216 . S
O29 C36 1.247 . S
O30 Co28 2.091 . S
O30 C36 1.261 . S
C31 O40 1.247 . S
C31 O41 1.272 . S
O32 Co28 2.004 . S
O32 C37 1.259 . S
Co33 O34 2.061 . S
Co33 O39 2.052 . S
Co33 O41 2.135 . S
O34 Co33 2.061 . S
O34 C37 1.235 . S
C35 O38 1.238 . S
C35 O39 1.241 . S
C36 O29 1.247 . S
C36 O30 1.261 . S
C37 O32 1.259 . S
C37 O34 1.235 . S
O38 Co28 2.021 . S
O38 C35 1.238 . S
O39 Co33 2.052 . S
O39 C35 1.241 . S
O40 Co28 2.137 . S
O40 C31 1.247 . S
O41 Co28 2.244 . S
O41 C31 1.272 . S
O41 Co33 2.135 . S
Co42 O43 2.216 1_554 S
Co42 O44 2.091 . S
Co42 O46 2.004 . S
Co42 O52 2.021 . S
Co42 O54 2.137 1_554 S
Co42 O55 2.244 1_554 S
O43 Co42 2.216 1_556 S
O43 C50 1.247 . S
O44 Co42 2.091 . S
O44 C50 1.262 1_554 S
C45 O54 1.247 . S
C45 O55 1.272 . S
O46 Co42 2.004 . S
O46 C51 1.259 . S
Co47 O48 2.061 . S
Co47 O53 2.052 . S
Co47 O55 2.135 1_554 S
O48 Co47 2.061 . S
O48 C51 1.235 . S
C49 O52 1.238 . S
C49 O53 1.241 . S
C50 O43 1.247 . S
C50 O44 1.262 1_556 S
C51 O46 1.259 . S
C51 O48 1.235 . S
O52 Co42 2.021 . S
O52 C49 1.238 . S
O53 Co47 2.052 . S
O53 C49 1.241 . S
O54 Co42 2.137 1_556 S
O54 C45 1.247 . S
O55 Co42 2.244 1_556 S
O55 C45 1.272 . S
O55 Co47 2.135 1_556 S
Co56 O57 2.216 . S
Co56 O58 2.091 . S
Co56 O60 2.004 . S
Co56 O66 2.021 . S
Co56 O68 2.137 . S
Co56 O69 2.244 . S
O57 Co56 2.216 . S
O57 C64 1.247 . S
O58 Co56 2.091 . S
O58 C64 1.261 . S
C59 O68 1.247 . S
C59 O69 1.272 . S
O60 Co56 2.004 . S
O60 C65 1.259 . S
Co61 O62 2.061 . S
Co61 O67 2.052 . S
Co61 O69 2.135 . S
O62 Co61 2.061 . S
O62 C65 1.235 . S
C63 O66 1.238 . S
C63 O67 1.241 . S
C64 O57 1.247 . S
C64 O58 1.261 . S
C65 O60 1.259 . S
C65 O62 1.235 . S
O66 Co56 2.021 . S
O66 C63 1.238 . S
O67 Co61 2.052 . S
O67 C63 1.241 . S
O68 Co56 2.137 . S
O68 C59 1.247 . S
O69 Co56 2.244 . S
O69 C59 1.272 . S
O69 Co61 2.135 . S
Co70 O71 2.216 . S
Co70 O72 2.091 . S
Co70 O74 2.004 . S
Co70 O80 2.021 . S
Co70 O82 2.137 . S
Co70 O83 2.244 . S
O71 Co70 2.216 . S
O71 C78 1.247 . S
O72 Co70 2.091 . S
O72 C78 1.261 . S
C73 O82 1.247 . S
C73 O83 1.272 . S
O74 Co70 2.004 . S
O74 C79 1.259 . S
Co75 O76 2.061 . S
Co75 O81 2.052 . S
Co75 O83 2.135 . S
O76 Co75 2.061 . S
O76 C79 1.235 . S
C77 O80 1.238 . S
C77 O81 1.241 . S
C78 O71 1.247 . S
C78 O72 1.261 . S
C79 O74 1.259 . S
C79 O76 1.235 . S
O80 Co70 2.021 . S
O80 C77 1.238 . S
O81 Co75 2.052 . S
O81 C77 1.241 . S
O82 Co70 2.137 . S
O82 C73 1.247 . S
O83 Co70 2.244 . S
O83 C73 1.272 . S
O83 Co75 2.135 . S
H84 C90 0.930 . S
H85 C94 0.930 . S
H86 C99 0.929 . S
H87 C97 0.929 . S
H88 C92 0.929 . S
H89 C98 0.929 . S
C90 H84 0.930 . S
C90 C91 1.367 . S
C90 C98 1.378 . S
C91 C90 1.367 . S
C91 C99 1.433 . S
C92 H88 0.929 . S
C92 C94 1.378 . S
C92 C96 1.350 . S
C93 C96 1.463 . S
C93 C98 1.350 . S
C93 N101 1.427 . S
C94 H85 0.930 . S
C94 C92 1.378 . S
C94 C95 1.367 . S
C95 C94 1.367 . S
C95 C97 1.433 . S
C96 C92 1.350 . S
C96 C93 1.463 . S
C96 N100 1.427 . S
C97 H87 0.929 . S
C97 C95 1.433 . S
C97 N100 1.384 . S
C98 H89 0.929 . S
C98 C90 1.378 . S
C98 C93 1.350 . S
C99 H86 0.929 . S
C99 C91 1.433 . S
C99 N101 1.384 . S
N100 C96 1.427 . S
N100 C97 1.384 . S
N101 C93 1.427 . S
N101 C99 1.384 . S
H102 C108 0.930 . S
H103 C112 0.930 . S
H104 C117 0.929 . S
H105 C115 0.929 . S
H106 C110 0.929 . S
H107 C116 0.929 . S
C108 H102 0.930 . S
C108 C109 1.367 . S
C108 C116 1.378 1_655 S
C109 C108 1.367 . S
C109 C117 1.433 . S
C110 H106 0.929 . S
C110 C112 1.378 1_655 S
C110 C114 1.350 1_655 S
C111 C114 1.463 1_655 S
C111 C116 1.350 1_655 S
C111 N119 1.427 . S
C112 H103 0.930 . S
C112 C110 1.378 1_455 S
C112 C113 1.367 . S
C113 C112 1.367 . S
C113 C115 1.433 . S
C114 C110 1.350 1_455 S
C114 C111 1.463 1_455 S
C114 N118 1.427 . S
C115 H105 0.929 . S
C115 C113 1.433 . S
C115 N118 1.384 . S
C116 H107 0.929 . S
C116 C108 1.378 1_455 S
C116 C111 1.350 1_455 S
C117 H104 0.929 . S
C117 C109 1.433 . S
C117 N119 1.384 . S
N118 C114 1.427 . S
N118 C115 1.384 . S
N119 C111 1.427 . S
N119 C117 1.384 . S
H120 C126 0.937 . S
H121 C130 0.930 1_545 S
H122 C135 0.929 . S
H123 C133 0.929 . S
H124 C128 0.929 . S
H125 C134 0.929 . S
C126 H120 0.937 . S
C126 C127 1.367 . S
C126 C134 1.378 1_545 S
C127 C126 1.367 . S
C127 C135 1.433 . S
C128 H124 0.929 . S
C128 C130 1.378 1_545 S
C128 C132 1.350 1_545 S
C129 C132 1.463 1_545 S
C129 C134 1.350 1_545 S
C129 N137 1.427 . S
C130 H121 0.930 1_565 S
C130 C128 1.378 1_565 S
C130 C131 1.367 . S
C131 C130 1.367 . S
C131 C133 1.433 . S
C132 C128 1.350 1_565 S
C132 C129 1.463 1_565 S
C132 N136 1.427 . S
C133 H123 0.929 . S
C133 C131 1.433 . S
C133 N136 1.384 . S
C134 H125 0.929 . S
C134 C126 1.378 1_565 S
C134 C129 1.350 1_565 S
C135 H122 0.929 . S
C135 C127 1.433 . S
C135 N137 1.384 . S
N136 C132 1.427 . S
N136 C133 1.384 . S
N137 C129 1.427 . S
N137 C135 1.384 . S
H138 C144 0.930 . S
H139 C148 0.930 . S
H140 C153 0.929 . S
H141 C151 0.929 . S
H142 C146 0.929 . S
H143 C152 0.929 . S
C144 H138 0.930 . S
C144 C145 1.367 . S
C144 C152 1.378 . S
C145 C144 1.367 . S
C145 C153 1.433 . S
C146 H142 0.929 . S
C146 C148 1.378 . S
C146 C150 1.350 . S
C147 C150 1.463 . S
C147 C152 1.350 . S
C147 N155 1.427 . S
C148 H139 0.930 . S
C148 C146 1.378 . S
C148 C149 1.367 . S
C149 C148 1.367 . S
C149 C151 1.433 . S
C150 C146 1.350 . S
C150 C147 1.463 . S
C150 N154 1.427 . S
C151 H141 0.929 . S
C151 C149 1.433 . S
C151 N154 1.384 . S
C152 H143 0.929 . S
C152 C144 1.378 . S
C152 C147 1.350 . S
C153 H140 0.929 . S
C153 C145 1.433 . S
C153 N155 1.384 . S
N154 C150 1.427 . S
N154 C151 1.384 . S
N155 C147 1.427 . S
N155 C153 1.384 . S
H156 C162 0.930 . S
H157 C166 0.930 . S
H158 C171 0.929 . S
H159 C169 0.929 . S
H160 C164 0.929 . S
H161 C170 0.929 . S
C162 H156 0.930 . S
C162 C163 1.367 . S
C162 C170 1.378 . S
C163 C162 1.367 . S
C163 C171 1.433 . S
C164 H160 0.929 . S
C164 C166 1.378 . S
C164 C168 1.350 . S
C165 C168 1.463 1_455 S
C165 C170 1.350 . S
C165 N173 1.427 . S
C166 H157 0.930 . S
C166 C164 1.378 . S
C166 C167 1.367 . S
C167 C166 1.367 . S
C167 C169 1.433 . S
C168 C164 1.350 . S
C168 C165 1.463 1_655 S
C168 N172 1.427 . S
C169 H159 0.929 . S
C169 C167 1.433 . S
C169 N172 1.384 . S
C170 H161 0.929 . S
C170 C162 1.378 . S
C170 C165 1.350 . S
C171 H158 0.929 . S
C171 C163 1.433 . S
C171 N173 1.384 . S
N172 C168 1.427 . S
N172 C169 1.384 . S
N173 C165 1.427 . S
N173 C171 1.384 . S
H174 C180 0.930 . S
H175 C184 0.930 . S
H176 C189 0.929 1_565 S
H177 C187 0.929 1_545 S
H178 C182 0.929 . S
H179 C188 0.929 . S
C180 H174 0.930 . S
C180 C181 1.367 . S
C180 C188 1.378 . S
C181 C180 1.367 . S
C181 C189 1.433 . S
C182 H178 0.929 . S
C182 C184 1.378 . S
C182 C186 1.350 . S
C183 C186 1.463 1_545 S
C183 C188 1.350 . S
C183 N191 1.427 1_545 S
C184 H175 0.930 . S
C184 C182 1.378 . S
C184 C185 1.367 . S
C185 C184 1.367 . S
C185 C187 1.433 . S
C186 C182 1.350 . S
C186 C183 1.463 1_565 S
C186 N190 1.427 1_565 S
C187 H177 0.929 1_565 S
C187 C185 1.433 . S
C187 N190 1.384 1_565 S
C188 H179 0.929 . S
C188 C180 1.378 . S
C188 C183 1.350 . S
C189 H176 0.929 1_545 S
C189 C181 1.433 . S
C189 N191 1.384 1_545 S
N190 C186 1.427 1_545 S
N190 C187 1.384 1_545 S
N191 C183 1.427 1_565 S
N191 C189 1.384 1_565 S
H192 C198 0.930 . S
H193 C202 0.930 . S
H194 C207 0.929 . S
H195 C205 0.929 . S
H196 C200 0.929 . S
H197 C206 0.929 . S
C198 H192 0.930 . S
C198 C199 1.367 . S
C198 C206 1.378 . S
C199 C198 1.367 . S
C199 C207 1.433 1_554 S
C200 H196 0.929 . S
C200 C202 1.378 . S
C200 C204 1.350 1_556 S
C201 C204 1.463 . S
C201 C206 1.350 . S
C201 N209 1.427 1_554 S
C202 H193 0.930 . S
C202 C200 1.378 . S
C202 C203 1.367 1_556 S
C203 C202 1.367 1_554 S
C203 C205 1.433 . S
C204 C200 1.350 1_554 S
C204 C201 1.463 . S
C204 N208 1.427 . S
C205 H195 0.929 . S
C205 C203 1.433 . S
C205 N208 1.384 . S
C206 H197 0.929 . S
C206 C198 1.378 . S
C206 C201 1.350 . S
C207 H194 0.929 . S
C207 C199 1.433 1_556 S
C207 N209 1.384 . S
N208 C204 1.427 . S
N208 C205 1.384 . S
N209 C201 1.427 1_556 S
N209 C207 1.384 . S
H210 C216 0.930 . S
H211 C220 0.930 . S
H212 C225 0.929 . S
H213 C223 0.929 . S
H214 C218 0.929 . S
H215 C224 0.929 . S
C216 H210 0.930 . S
C216 C217 1.367 . S
C216 C224 1.378 . S
C217 C216 1.367 . S
C217 C225 1.433 1_655 S
C218 H214 0.929 . S
C218 C220 1.378 . S
C218 C222 1.350 . S
C219 C222 1.463 1_655 S
C219 C224 1.350 . S
C219 N227 1.427 1_655 S
C220 H211 0.930 . S
C220 C218 1.378 . S
C220 C221 1.367 . S
C221 C220 1.367 . S
C221 C223 1.433 1_455 S
C222 C218 1.350 . S
C222 C219 1.463 1_455 S
C222 N226 1.427 1_455 S
C223 H213 0.929 . S
C223 C221 1.433 1_655 S
C223 N226 1.384 . S
C224 H215 0.929 . S
C224 C216 1.378 . S
C224 C219 1.350 . S
C225 H212 0.929 . S
C225 C217 1.433 1_455 S
C225 N227 1.384 . S
N226 C222 1.427 1_655 S
N226 C223 1.384 . S
N227 C219 1.427 1_455 S
N227 C225 1.384 . S
H228 C234 0.930 . S
H229 C238 0.930 . S
H230 C243 0.929 . S
H231 C241 0.929 . S
H232 C236 0.929 . S
H233 C242 0.929 . S
C234 H228 0.930 . S
C234 C235 1.367 . S
C234 C242 1.378 . S
C235 C234 1.367 . S
C235 C243 1.433 1_545 S
C236 H232 0.929 . S
C236 C238 1.378 . S
C236 C240 1.350 . S
C237 C240 1.463 1_545 S
C237 C242 1.350 . S
C237 N245 1.427 1_545 S
C238 H229 0.930 . S
C238 C236 1.378 . S
C238 C239 1.367 . S
C239 C238 1.367 . S
C239 C241 1.433 1_565 S
C240 C236 1.350 . S
C240 C237 1.463 1_565 S
C240 N244 1.427 1_565 S
C241 H231 0.929 . S
C241 C239 1.433 1_545 S
C241 N244 1.384 . S
C242 H233 0.929 . S
C242 C234 1.378 . S
C242 C237 1.350 . S
C243 H230 0.929 . S
C243 C235 1.433 1_565 S
C243 N245 1.384 . S
N244 C240 1.427 1_545 S
N244 C241 1.384 . S
N245 C237 1.427 1_565 S
N245 C243 1.384 . S
H246 C252 0.930 . S
H247 C256 0.930 . S
H248 C261 0.929 . S
H249 C259 0.929 . S
H250 C254 0.929 . S
H251 C260 0.929 . S
C252 H246 0.930 . S
C252 C253 1.367 . S
C252 C260 1.378 . S
C253 C252 1.367 . S
C253 C261 1.433 . S
C254 H250 0.929 . S
C254 C256 1.378 . S
C254 C258 1.350 . S
C255 C258 1.463 . S
C255 C260 1.350 . S
C255 N263 1.427 . S
C256 H247 0.930 . S
C256 C254 1.378 . S
C256 C257 1.367 . S
C257 C256 1.367 . S
C257 C259 1.433 . S
C258 C254 1.350 . S
C258 C255 1.463 . S
C258 N262 1.427 . S
C259 H249 0.929 . S
C259 C257 1.433 . S
C259 N262 1.384 . S
C260 H251 0.929 . S
C260 C252 1.378 . S
C260 C255 1.350 . S
C261 H248 0.929 . S
C261 C253 1.433 . S
C261 N263 1.384 . S
N262 C258 1.427 . S
N262 C259 1.384 . S
N263 C255 1.427 . S
N263 C261 1.384 . S
H264 C270 0.932 . S
H265 C274 0.930 . S
H266 C279 0.929 . S
H267 C277 0.930 . S
H268 C272 0.929 . S
H269 C278 0.930 . S
C270 H264 0.932 . S
C270 C271 1.367 1_455 S
C270 C278 1.378 . S
C271 C270 1.367 1_655 S
C271 C279 1.433 . S
C272 H268 0.929 . S
C272 C274 1.378 . S
C272 C276 1.350 1_655 S
C273 C276 1.463 1_655 S
C273 C278 1.350 1_655 S
C273 N281 1.427 . S
C274 H265 0.930 . S
C274 C272 1.378 . S
C274 C275 1.367 1_655 S
C275 C274 1.367 1_455 S
C275 C277 1.433 . S
C276 C272 1.350 1_455 S
C276 C273 1.463 1_455 S
C276 N280 1.427 . S
C277 H267 0.930 . S
C277 C275 1.433 . S
C277 N280 1.384 . S
C278 H269 0.930 . S
C278 C270 1.378 . S
C278 C273 1.350 1_455 S
C279 H266 0.929 . S
C279 C271 1.433 . S
C279 N281 1.384 . S
N280 C276 1.427 . S
N280 C277 1.384 . S
N281 C273 1.427 . S
N281 C279 1.384 . S
H282 C288 0.930 . S
H283 C292 0.930 . S
H284 C297 0.929 . S
H285 C295 0.929 . S
H286 C290 0.929 . S
H287 C296 0.929 . S
C288 H282 0.930 . S
C288 C289 1.367 . S
C288 C296 1.378 . S
C289 C288 1.367 . S
C289 C297 1.433 1_545 S
C290 H286 0.929 . S
C290 C292 1.378 . S
C290 C294 1.350 . S
C291 C294 1.463 1_545 S
C291 C296 1.350 . S
C291 N299 1.427 1_545 S
C292 H283 0.930 . S
C292 C290 1.378 . S
C292 C293 1.367 . S
C293 C292 1.367 . S
C293 C295 1.433 1_565 S
C294 C290 1.350 . S
C294 C291 1.463 1_565 S
C294 N298 1.427 1_565 S
C295 H285 0.929 . S
C295 C293 1.433 1_545 S
C295 N298 1.384 . S
C296 H287 0.929 . S
C296 C288 1.378 . S
C296 C291 1.350 . S
C297 H284 0.929 . S
C297 C289 1.433 1_565 S
C297 N299 1.384 . S
N298 C294 1.427 1_545 S
N298 C295 1.384 . S
N299 C291 1.427 1_565 S
N299 C297 1.384 . S
C91 C77 1.265 . S
C95 C3 1.250 . S
C109 C17 1.253 . S
C113 C7 1.267 . S
C127 C21 1.266 . S
C131 C31 1.246 . S
C145 C45 1.243 . S
C149 C35 1.265 . S
C163 C59 1.254 . S
C167 C49 1.267 . S
C181 C73 1.246 . S
C185 C63 1.265 . S
C199 C9 1.479 . S
C203 C51 1.474 . S
C217 C23 1.474 . S
C221 C65 1.478 . S
C235 C79 1.474 . S
C239 C37 1.478 . S
C253 C78 1.399 . S
C257 C36 1.402 . S
C271 C50 1.402 . S
C275 C8 1.403 . S
C289 C22 1.390 . S
C293 C64 1.391 . S
