# Generated by pormake.
# Topology snp, (6)-cn, num edge types: 1
# Building blocks:
#     Node 0, Type 0, BuildingBlock: PAMTUU_clean_sbu_0, # of connection points: 6
#     Node 1, Type 0, BuildingBlock: PAMTUU_clean_sbu_0, # of connection points: 6
#     Node 2, Type 0, BuildingBlock: PAMTUU_clean_sbu_0, # of connection points: 6
#     Node 3, Type 0, BuildingBlock: PAMTUU_clean_sbu_0, # of connection points: 6
#     Edge 4, Type (0, 0), BuildingBlock: CIFDUS_clean_linker_0, # of connection points: 2
#     Edge 5, Type (0, 0), BuildingBlock: CIFDUS_clean_linker_0, # of connection points: 2
#     Edge 6, Type (0, 0), BuildingBlock: CIFDUS_clean_linker_0, # of connection points: 2
#     Edge 7, Type (0, 0), BuildingBlock: CIFDUS_clean_linker_0, # of connection points: 2
#     Edge 8, Type (0, 0), BuildingBlock: CIFDUS_clean_linker_0, # of connection points: 2
#     Edge 9, Type (0, 0), BuildingBlock: CIFDUS_clean_linker_0, # of connection points: 2
#     Edge 10, Type (0, 0), BuildingBlock: CIFDUS_clean_linker_0, # of connection points: 2
#     Edge 11, Type (0, 0), BuildingBlock: CIFDUS_clean_linker_0, # of connection points: 2
#     Edge 12, Type (0, 0), BuildingBlock: CIFDUS_clean_linker_0, # of connection points: 2
#     Edge 13, Type (0, 0), BuildingBlock: CIFDUS_clean_linker_0, # of connection points: 2
#     Edge 14, Type (0, 0), BuildingBlock: CIFDUS_clean_linker_0, # of connection points: 2
#     Edge 15, Type (0, 0), BuildingBlock: CIFDUS_clean_linker_0, # of connection points: 2
# Relax obj value: 0.454
# Max RMSD: 0.244
# Mean RMSD: 0.227
data_MOF--net-snp--node1-PAMTUU_clean_sbu_0--edge1-CIFDUS_clean_linker_0
_symmetry_space_group_name_H-M    P1
_symmetry_Int_Tables_number       1
_symmetry_cell_setting            triclinic
loop_
_symmetry_equiv_pos_as_xyz
'x, y, z'
_cell_length_a     22.616722
_cell_length_b     22.983798
_cell_length_c     29.17904
_cell_angle_alpha  95.643636
_cell_angle_beta   82.609325
_cell_angle_gamma 97.06845
loop_
_atom_site_label
_atom_site_type_symbol
_atom_site_fract_x
_atom_site_fract_y
_atom_site_fract_z
_atom_type_partial_charge
Tb0 Tb 0.19719 0.91161 0.28174 0.0
Tb1 Tb 0.24805 0.04277 0.32605 0.0
C2 C 0.11828 0.01238 0.29862 0.0
C3 C 0.19998 0.78208 0.20178 0.0
C4 C 0.24825 0.76082 0.10892 0.0
C5 C 0.18783 0.74147 0.12326 0.0
C6 C 0.16377 0.75228 0.16947 0.0
C7 C 0.26166 0.79595 0.18828 0.0
C8 C 0.28563 0.78532 0.14225 0.0
C9 C 0.17214 0.80917 0.24574 0.0
O10 O 0.20483 0.96513 0.22205 0.0
O11 O 0.26377 0.04627 0.25022 0.0
O12 O 0.31577 0.98484 0.32971 0.0
O13 O 0.29386 0.92544 0.26584 0.0
O14 O 0.23685 0.12283 0.36589 0.0
O15 O 0.32095 0.10839 0.32385 0.0
O16 O 0.19999 0.00047 0.38694 0.0
O17 O 0.18174 0.90388 0.35686 0.0
O18 O 0.12088 0.95831 0.30824 0.0
O19 O 0.16538 0.05145 0.29914 0.0
C20 C 0.23645 0.01667 0.21627 0.0
O21 O 0.2068 0.82159 0.27872 0.0
O22 O 0.14224 0.85293 0.24121 0.0
C23 C 0.33196 0.94792 0.29463 0.0
C24 C 0.32433 0.18204 0.38647 0.0
C25 C 0.38042 0.25514 0.45526 0.0
C26 C 0.40202 0.20128 0.43796 0.0
C27 C 0.37392 0.16475 0.40392 0.0
C28 C 0.30566 0.23723 0.40105 0.0
C29 C 0.33317 0.27335 0.43501 0.0
C30 C 0.2915 0.14508 0.3522 0.0
C31 C 0.17955 0.94461 0.39205 0.0
H32 H 0.15788 0.72303 0.0981 0.0
H33 H 0.11604 0.74169 0.17909 0.0
H34 H 0.29054 0.81925 0.21242 0.0
H35 H 0.33234 0.80043 0.13205 0.0
H36 H 0.4387 0.18609 0.45224 0.0
H37 H 0.38981 0.12258 0.39225 0.0
H38 H 0.26811 0.25165 0.38729 0.0
H39 H 0.31399 0.31365 0.44755 0.0
Tb40 Tb 0.15338 0.26842 0.78318 0.0
Tb41 Tb 0.09824 0.25734 0.67409 0.0
C42 C 0.11134 0.37655 0.73885 0.0
C43 C 0.18776 0.22583 0.90135 0.0
C44 C 0.18993 0.15935 0.97985 0.0
C45 C 0.19816 0.22151 0.98381 0.0
C46 C 0.19714 0.254 0.94532 0.0
C47 C 0.17834 0.16383 0.89732 0.0
C48 C 0.17926 0.13125 0.93583 0.0
C49 C 0.19498 0.2614 0.85979 0.0
O50 O 0.05778 0.27285 0.79678 0.0
O51 O 0.02062 0.24171 0.72608 0.0
O52 O 0.14898 0.19101 0.69045 0.0
O53 O 0.11372 0.18058 0.76412 0.0
O54 O 0.08734 0.28051 0.60653 0.0
O55 O 0.05233 0.19431 0.62999 0.0
O56 O 0.1903 0.29858 0.66431 0.0
O57 O 0.22917 0.27289 0.72898 0.0
O58 O 0.15007 0.35827 0.76362 0.0
O59 O 0.08089 0.34226 0.70867 0.0
C60 C 0.01359 0.25703 0.77113 0.0
O61 O 0.15419 0.29534 0.85512 0.0
O62 O 0.21468 0.2358 0.81982 0.0
C63 C 0.12187 0.15724 0.72151 0.0
C64 C 0.03327 0.20931 0.551 0.0
C65 C -0.01542 0.17093 0.46478 0.0
C66 C 0.9689 0.13903 0.50444 0.0
C67 C -0.00707 0.15767 0.5465 0.0
C68 C 0.04933 0.24121 0.51163 0.0
C69 C 0.02577 0.22229 0.46936 0.0
C70 C 0.05854 0.22874 0.5963 0.0
C71 C 0.23543 0.29285 0.68757 0.0
H72 H 0.20545 0.24543 1.01682 0.0
H73 H 0.20508 0.30156 0.94978 0.0
H74 H 0.17162 0.1403 0.86404 0.0
H75 H 0.17331 0.08372 0.93057 0.0
H76 H 0.93696 0.09994 0.50353 0.0
H77 H -0.02073 0.13165 0.57585 0.0
H78 H 0.08065 0.28077 0.51332 0.0
H79 H 0.04069 0.248 0.44006 0.0
Tb80 Tb 0.7898 0.91086 0.16681 0.0
Tb81 Tb 0.78342 0.04409 0.14169 0.0
C82 C 0.90516 -0.00742 0.12367 0.0
C83 C 0.75318 0.77238 0.22399 0.0
C84 C 0.70511 0.70902 0.30038 0.0
C85 C 0.72567 0.67931 0.2579 0.0
C86 C 0.74989 0.71091 0.22002 0.0
C87 C 0.72876 0.80189 0.26498 0.0
C88 C 0.70528 0.77059 0.30294 0.0
C89 C 0.78525 0.8059 0.18658 0.0
O90 O 0.80456 0.9649 0.23168 0.0
O91 O 0.82917 0.05731 0.20518 0.0
O92 O 0.71478 0.02395 0.19832 0.0
O93 O 0.69615 0.92785 0.17519 0.0
O94 O 0.8105 0.13335 0.133 0.0
O95 O 0.72047 0.09454 0.12315 0.0
O96 O 0.76851 0.98476 1.07814 0.0
O97 O 0.81201 0.90495 0.09254 0.0
O98 O 0.88121 0.9463 0.14563 0.0
O99 O 0.87432 0.0333 0.1137 0.0
C100 C 0.82861 0.0203 0.23739 0.0
O101 O 0.752 0.82284 0.15822 0.0
O102 O 0.82539 0.84807 0.19927 0.0
C103 C 0.67847 0.97546 0.19831 0.0
C104 C 0.76604 0.16413 1.07281 0.0
C105 C 0.78805 0.21226 0.98654 0.0
C106 C 0.76223 0.24468 1.02592 0.0
C107 C 0.75136 0.22071 1.06886 0.0
C108 C 0.78869 0.13052 1.03327 0.0
C109 C 0.79956 0.15428 0.99052 0.0
C110 C 0.76006 0.1405 0.11812 0.0
C111 C 0.79372 0.93629 1.06327 0.0
H112 H 0.72534 0.63193 0.2545 0.0
H113 H 0.76799 0.68756 0.18823 0.0
H114 H 0.73056 0.84946 0.26838 0.0
H115 H 0.69093 0.79534 0.3351 0.0
H116 H 0.75261 0.28931 1.02388 0.0
H117 H 0.73332 0.24693 0.09915 0.0
H118 H 0.80024 0.08667 1.0358 0.0
H119 H 0.82058 0.12839 0.96129 0.0
Tb120 Tb 0.02255 0.82031 0.73259 0.0
Tb121 Tb 0.89634 0.75883 0.70073 0.0
C122 C 0.9194 0.89214 0.70918 0.0
C123 C 0.15697 0.83209 0.78863 0.0
C124 C 0.21815 0.78182 0.8501 0.0
C125 C 0.2458 0.83074 0.8267 0.0
C126 C 0.21518 0.85591 0.79629 0.0
C127 C 0.1308 0.78129 0.80951 0.0
C128 C 0.16087 0.75656 0.84008 0.0
C129 C 0.12236 0.85942 0.75934 0.0
O130 O 0.96816 0.7937 0.79586 0.0
O131 O 0.87631 0.79833 0.77259 0.0
O132 O 0.9344 0.69662 0.73628 0.0
O133 O 0.03203 0.72736 0.71533 0.0
O134 O 0.80263 0.74965 0.70351 0.0
O135 O 0.85468 0.68284 0.66692 0.0
O136 O 0.95989 0.77039 0.63573 0.0
O137 O 0.027 0.84502 0.66257 0.0
O138 O 0.96274 0.88831 0.73472 0.0
O139 O 0.89521 0.84737 0.68432 0.0
C140 C 0.91125 0.80175 0.80588 0.0
O141 O 0.11646 0.83063 0.71917 0.0
O142 O 0.0713 0.8751 0.77979 0.0
C143 C -0.00976 0.68581 0.72825 0.0
C144 C 0.76422 0.69424 0.63891 0.0
C145 C 0.69938 0.6796 0.56188 0.0
C146 C 0.71287 0.63032 0.5817 0.0
C147 C 0.74482 0.63765 0.6201 0.0
C148 C 0.74906 0.74357 0.62016 0.0
C149 C 0.71659 0.73625 0.58206 0.0
C150 C 0.80148 0.70041 0.67709 0.0
C151 C 0.00412 0.81348 0.62792 0.0
H152 H 0.29022 0.85074 0.83303 0.0
H153 H 0.23629 0.89459 0.77969 0.0
H154 H 0.08604 0.76191 0.8034 0.0
H155 H 0.13745 0.71968 0.85781 0.0
H156 H 0.70022 0.58626 0.56665 0.0
H157 H 0.7559 0.59909 0.63435 0.0
H158 H 0.76369 0.78771 0.63402 0.0
H159 H 0.70776 0.77501 0.56687 0.0
H160 H 0.9572 0.09195 0.16312 0.0
H161 H -0.00563 0.92425 0.09312 0.0
H162 H 0.06313 0.91307 0.14868 0.0
H163 H 0.09084 0.93967 0.22612 0.0
H164 H 0.05808 0.10812 0.29706 0.0
H165 H 0.00325 0.12848 0.23392 0.0
C166 C -0.01686 0.05463 0.15852 0.0
C167 C 0.96905 0.00743 0.12594 0.0
C168 C 0.01833 0.04651 0.19287 0.0
C169 C 0.00395 0.96032 0.11889 0.0
C170 C 0.04131 0.95294 0.15164 0.0
C171 C 0.07168 0.98078 0.22796 0.0
C172 C 0.0765 0.02155 0.26658 0.0
C173 C 0.04462 -0.00647 0.19058 0.0
C174 C 0.05291 0.07542 0.26804 0.0
C175 C 0.02299 0.08749 0.23163 0.0
H176 H 0.96167 0.94669 0.6342 0.0
H177 H 0.86017 0.96993 0.76835 0.0
H178 H 0.91732 0.06543 0.78352 0.0
H179 H 0.0146 0.12294 0.7687 0.0
H180 H 0.12634 0.09104 0.63919 0.0
H181 H 0.04895 0.0161 0.61264 0.0
C182 C 0.94995 0.97466 0.66546 0.0
C183 C 0.90978 0.95118 0.70125 0.0
C184 C -0.01184 0.02523 0.67605 0.0
C185 C 0.89248 0.98738 0.74094 0.0
C186 C 0.92657 0.04088 0.75022 0.0
C187 C 0.02212 0.09969 0.73464 0.0
C188 C 0.07662 0.11084 0.70642 0.0
C189 C -0.022 0.05686 0.71992 0.0
C190 C 0.08515 0.0816 0.66192 0.0
C191 C 0.04074 0.03955 0.64651 0.0
H192 H 0.58502 0.88778 0.1986 0.0
H193 H 0.63544 0.06414 0.25706 0.0
H194 H 0.53443 0.06847 0.2968 0.0
H195 H 0.42938 0.02556 0.31015 0.0
H196 H 0.37745 0.85122 0.24922 0.0
H197 H 0.48105 0.84245 0.21594 0.0
C198 C 0.57401 0.92696 0.22029 0.0
C199 C 0.6177 0.9757 0.22435 0.0
C200 C 0.51534 0.9296 0.24272 0.0
C201 C 0.60263 0.02609 0.25282 0.0
C202 C 0.5448 0.02866 0.27574 0.0
C203 C 0.44105 0.9852 0.29043 0.0
C204 C 0.39585 0.9392 0.28194 0.0
C205 C 0.50049 0.9811 0.27035 0.0
C206 C 0.41143 0.88746 0.2558 0.0
C207 C 0.47067 0.88245 0.23671 0.0
H208 H 0.0054 0.41574 0.73611 0.0
H209 H 0.18945 0.4766 0.75447 0.0
H210 H 0.1686 0.57908 0.75338 0.0
H211 H 0.09818 0.65063 0.74207 0.0
H212 H 0.91397 0.58575 0.72545 0.0
H213 H 0.93494 0.48561 0.73059 0.0
C214 C 0.04101 0.45145 0.74009 0.0
C215 C 0.09901 0.43876 0.74478 0.0
C216 C 0.02871 0.50951 0.73924 0.0
C217 C 0.14438 0.48541 0.75087 0.0
C218 C 0.13253 0.54386 0.74986 0.0
C219 C 0.0628 0.61446 0.73959 0.0
C220 C 0.00469 0.62569 0.73293 0.0
C221 C 0.07499 0.55638 0.74314 0.0
C222 C 0.95903 0.57851 0.73054 0.0
C223 C 0.97094 0.52109 0.73343 0.0
H224 H 0.29066 0.37761 0.63358 0.0
H225 H 0.31148 0.21004 0.68038 0.0
H226 H 0.38266 0.18977 0.6123 0.0
H227 H 0.40704 0.20574 0.53036 0.0
H228 H 0.38909 0.3741 0.48312 0.0
H229 H 0.35126 0.40939 0.56162 0.0
C230 C 0.31324 0.33811 0.62986 0.0
C231 C 0.29477 0.29443 0.6606 0.0
C232 C 0.35355 0.32642 0.59032 0.0
C233 C 0.32472 0.24386 0.65651 0.0
C234 C 0.36504 0.23201 0.61737 0.0
C235 C 0.39817 0.25125 0.53725 0.0
C236 C 0.39576 0.2856 0.50033 0.0
C237 C 0.37541 0.2708 0.58228 0.0
C238 C 0.38723 0.34537 0.51069 0.0
C239 C 0.36526 0.36557 0.55555 0.0
H240 H 0.97306 0.33163 0.84109 0.0
H241 H 0.9187 0.17363 0.75769 0.0
H242 H 0.832 0.15124 0.81533 0.0
H243 H 0.78629 0.16655 0.89652 0.0
H244 H 0.84695 0.32238 0.9806 0.0
H245 H 0.91449 0.35718 0.91492 0.0
C246 C 0.94121 0.29312 0.83504 0.0
C247 C 0.95294 0.25307 0.79642 0.0
C248 C 0.89267 0.2802 0.86858 0.0
C249 C 0.91091 0.20429 0.78787 0.0
C250 C 0.8616 0.19145 0.8209 0.0
C251 C 0.81333 0.20876 0.90007 0.0
C252 C 0.81272 0.24099 0.94374 0.0
C253 C 0.85422 0.22739 0.86261 0.0
C254 C 0.84653 0.29646 0.94756 0.0
C255 C 0.88586 0.31616 0.91009 0.0
H256 H 0.73972 0.61397 0.48542 0.0
H257 H 0.60772 0.7322 0.53678 0.0
H258 H 0.58702 0.74046 0.45752 0.0
H259 H 0.62062 0.72877 0.37421 0.0
H260 H 0.76269 0.62063 0.32446 0.0
H261 H 0.76271 0.59098 0.40203 0.0
C262 C 0.70494 0.63991 0.47935 0.0
C263 C 0.67571 0.67298 0.51657 0.0
C264 C 0.69529 0.6464 0.43379 0.0
C265 C 0.63121 0.70695 0.50838 0.0
C266 C 0.61952 0.71174 0.46315 0.0
C267 C 0.65105 0.69811 0.38023 0.0
C268 C 0.6926 0.67832 0.34365 0.0
C269 C 0.65361 0.6841 0.42555 0.0
C270 C 0.73015 0.63682 0.35173 0.0
C271 C 0.73084 0.62036 0.39636 0.0
H272 H 0.27874 0.85077 0.91367 0.0
H273 H 0.21416 0.66963 0.87681 0.0
H274 H 0.22624 0.64423 0.95408 0.0
H275 H 0.23647 0.67816 1.036 0.0
H276 H 0.30214 0.85931 1.07093 0.0
H277 H 0.31042 0.87942 0.98994 0.0
C278 C 0.26955 0.8052 0.92158 0.0
C279 C 0.24358 0.76265 0.88991 0.0
C280 C 0.27625 0.79095 0.96603 0.0
C281 C 0.23217 0.70379 0.90116 0.0
C282 C 0.23912 0.68915 0.94533 0.0
C283 C 0.25417 0.72149 1.02548 0.0
C284 C 0.26796 0.76728 1.05926 0.0
C285 C 0.25796 0.7331 0.9788 0.0
C286 C 0.29145 0.82323 1.04546 0.0
C287 C 0.29568 0.83496 0.99918 0.0
H288 H 0.86085 0.84998 1.02385 0.0
H289 H 0.75423 0.97785 0.98735 0.0
H290 H 0.77698 0.94484 0.90485 0.0
H291 H 0.83069 0.88079 0.84226 0.0
H292 H 0.94201 0.75898 0.8816 0.0
H293 H 0.91341 0.788 0.96336 0.0
C294 C 0.84188 0.87065 0.99814 0.0
C295 C 0.80514 0.91628 1.01246 0.0
C296 C 0.85606 0.85217 0.95084 0.0
C297 C 0.78223 0.94255 0.97787 0.0
C298 C 0.79534 0.92359 0.93051 0.0
C299 C 0.84784 0.86001 0.86883 0.0
C300 C 0.88799 0.81693 0.85554 0.0
C301 C 0.83249 0.87846 0.91643 0.0
C302 C 0.91091 0.79174 0.89056 0.0
C303 C 0.89465 0.8085 0.93747 0.0
H304 H 0.10452 0.84383 0.41457 0.0
H305 H 0.18871 0.00604 0.4768 0.0
H306 H 0.14211 0.98 0.55335 0.0
H307 H 0.07825 0.9116 0.60338 0.0
H308 H -0.01042 0.75091 0.54275 0.0
H309 H 0.03669 0.77602 0.46541 0.0
C310 C 0.11305 0.87345 0.44485 0.0
C311 C 0.1511 0.92697 0.43926 0.0
C312 C 0.08493 0.85851 0.48936 0.0
C313 C 0.16026 0.96472 0.47936 0.0
C314 C 0.13341 0.94978 0.52342 0.0
C315 C 0.0688 0.88179 0.57341 0.0
C316 C 0.03009 0.82892 0.57959 0.0
C317 C 0.09572 0.89686 0.52893 0.0
C318 C 0.01878 0.79171 0.53965 0.0
C319 C 0.04603 0.80612 0.49524 0.0
H320 H 0.26148 0.18453 1.0513 0.0
H321 H 0.12495 0.05366 1.00244 0.0
H322 H 0.12978 -0.00346 1.06788 0.0
H323 H 0.17103 0.984 0.14126 0.0
H324 H 0.30486 0.11751 0.19056 0.0
H325 H 0.30251 0.17206 0.12356 0.0
C326 C 0.23215 0.14385 1.05492 0.0
C327 C 0.19285 0.1242 1.02104 0.0
C328 C 0.23469 0.11096 0.09328 0.0
C329 C 0.15639 0.07033 1.0269 0.0
C330 C 0.1588 0.03747 1.06481 0.0
C331 C 0.19983 0.02489 0.13736 0.0
C332 C 0.23793 0.04609 0.1718 0.0
C333 C 0.19771 0.05725 0.09846 0.0
C334 C 0.27494 0.09941 0.16531 0.0
C335 C 0.27354 0.13109 0.12676 0.0
H336 H 0.87149 0.13337 0.27104 0.0
H337 H 0.85128 0.95245 0.30385 0.0
H338 H 0.8982 0.98166 0.37443 0.0
H339 H 0.9452 0.05809 0.42806 0.0
H340 H 0.96111 0.23996 0.39781 0.0
H341 H 0.91749 0.21057 0.32588 0.0
C342 C 0.87699 0.10024 0.29366 0.0
C343 C 0.8568 0.04048 0.28153 0.0
C344 C 0.90405 0.11746 0.33515 0.0
C345 C 0.86531 -0.00127 0.31176 0.0
C346 C 0.89256 0.01543 0.35243 0.0
C347 C 0.9387 0.0918 0.40632 0.0
C348 C 0.95742 0.1517 0.41957 0.0
C349 C 0.91194 0.07471 0.36478 0.0
C350 C 0.94893 0.19352 0.38925 0.0
C351 C 0.92314 0.17674 0.34782 0.0
loop_
_geom_bond_atom_site_label_1
_geom_bond_atom_site_label_2
_geom_bond_distance
_geom_bond_site_symmetry_2
_ccdc_geom_bond_type
Tb0 C9 2.764 . S
Tb0 O10 2.325 1_565 S
Tb0 O13 2.303 1_565 S
Tb0 O17 2.322 . S
Tb0 O18 2.349 . S
Tb0 O21 2.415 . S
Tb0 O22 2.399 . S
Tb1 O11 2.322 . S
Tb1 O12 2.349 . S
Tb1 O14 2.415 . S
Tb1 O15 2.399 . S
Tb1 O16 2.325 . S
Tb1 O19 2.303 . S
Tb1 C30 2.764 . S
C2 O18 1.261 1_545 S
C2 O19 1.257 . S
C3 C6 1.358 . S
C3 C7 1.332 . S
C3 C9 1.504 . S
C4 C5 1.373 . S
C4 C8 1.308 . S
C5 C4 1.373 . S
C5 C6 1.429 1_556 S
C5 H32 0.932 . S
C6 C3 1.358 . S
C6 C5 1.429 1_554 S
C6 H33 0.930 . S
C7 C3 1.332 . S
C7 C8 1.394 1_554 S
C7 H34 0.932 . S
C8 C4 1.308 . S
C8 C7 1.394 1_556 S
C8 H35 0.929 . S
C9 Tb0 2.764 . S
C9 C3 1.504 . S
C9 O21 1.239 . S
C9 O22 1.263 . S
O10 Tb0 2.325 1_545 S
O10 C20 1.236 . S
O11 Tb1 2.322 . S
O11 C20 1.257 . S
O12 Tb1 2.349 . S
O12 C23 1.261 . S
O13 Tb0 2.303 1_545 S
O13 C23 1.257 . S
O14 Tb1 2.415 . S
O14 C30 1.239 . S
O15 Tb1 2.399 . S
O15 C30 1.263 . S
O16 Tb1 2.325 . S
O16 C31 1.236 1_545 S
O17 Tb0 2.322 . S
O17 C31 1.257 . S
O18 Tb0 2.349 . S
O18 C2 1.261 1_565 S
O19 Tb1 2.303 . S
O19 C2 1.257 . S
C20 O10 1.236 . S
C20 O11 1.257 . S
O21 Tb0 2.415 . S
O21 C9 1.239 . S
O22 Tb0 2.399 . S
O22 C9 1.263 . S
C23 O12 1.261 . S
C23 O13 1.257 . S
C24 C27 1.358 . S
C24 C28 1.332 . S
C24 C30 1.504 . S
C25 C26 1.373 . S
C25 C29 1.308 . S
C26 C25 1.373 . S
C26 C27 1.429 . S
C26 H36 0.932 . S
C27 C24 1.358 . S
C27 C26 1.429 . S
C27 H37 0.930 . S
C28 C24 1.332 . S
C28 C29 1.394 . S
C28 H38 0.932 . S
C29 C25 1.308 . S
C29 C28 1.394 . S
C29 H39 0.929 . S
C30 Tb1 2.764 . S
C30 O14 1.239 . S
C30 O15 1.263 . S
C30 C24 1.504 . S
C31 O16 1.236 1_565 S
C31 O17 1.257 . S
H32 C5 0.932 . S
H33 C6 0.930 . S
H34 C7 0.932 . S
H35 C8 0.929 . S
H36 C26 0.932 . S
H37 C27 0.930 . S
H38 C28 0.932 . S
H39 C29 0.929 . S
Tb40 C49 2.764 . S
Tb40 O50 2.325 . S
Tb40 O53 2.303 . S
Tb40 O57 2.322 . S
Tb40 O58 2.349 . S
Tb40 O61 2.415 . S
Tb40 O62 2.399 . S
Tb41 O51 2.322 . S
Tb41 O52 2.349 . S
Tb41 O54 2.415 . S
Tb41 O55 2.399 1_455 S
Tb41 O56 2.325 . S
Tb41 O59 2.303 . S
Tb41 C70 2.764 1_455 S
C42 O58 1.261 . S
C42 O59 1.257 . S
C43 C46 1.358 . S
C43 C47 1.332 . S
C43 C49 1.504 . S
C44 C45 1.373 . S
C44 C48 1.308 . S
C45 C44 1.373 . S
C45 C46 1.429 . S
C45 H72 0.932 . S
C46 C43 1.358 . S
C46 C45 1.429 . S
C46 H73 0.930 . S
C47 C43 1.332 . S
C47 C48 1.394 . S
C47 H74 0.932 . S
C48 C44 1.308 . S
C48 C47 1.394 . S
C48 H75 0.929 . S
C49 Tb40 2.764 . S
C49 C43 1.504 . S
C49 O61 1.239 . S
C49 O62 1.263 . S
O50 Tb40 2.325 . S
O50 C60 1.236 . S
O51 Tb41 2.322 . S
O51 C60 1.257 . S
O52 Tb41 2.349 . S
O52 C63 1.261 . S
O53 Tb40 2.303 . S
O53 C63 1.257 . S
O54 Tb41 2.415 . S
O54 C70 1.239 1_455 S
O55 Tb41 2.399 1_655 S
O55 C70 1.263 . S
O56 Tb41 2.325 . S
O56 C71 1.236 . S
O57 Tb40 2.322 . S
O57 C71 1.257 . S
O58 Tb40 2.349 . S
O58 C42 1.261 . S
O59 Tb41 2.303 . S
O59 C42 1.257 . S
C60 O50 1.236 . S
C60 O51 1.257 . S
O61 Tb40 2.415 . S
O61 C49 1.239 . S
O62 Tb40 2.399 . S
O62 C49 1.263 . S
C63 O52 1.261 . S
C63 O53 1.257 . S
C64 C67 1.358 . S
C64 C68 1.332 . S
C64 C70 1.504 . S
C65 C66 1.373 . S
C65 C69 1.308 . S
C66 C65 1.373 . S
C66 C67 1.429 . S
C66 H76 0.932 . S
C67 C64 1.358 . S
C67 C66 1.429 . S
C67 H77 0.930 . S
C68 C64 1.332 . S
C68 C69 1.394 . S
C68 H78 0.932 . S
C69 C65 1.308 . S
C69 C68 1.394 . S
C69 H79 0.929 . S
C70 Tb41 2.764 1_655 S
C70 O54 1.239 1_655 S
C70 O55 1.263 . S
C70 C64 1.504 . S
C71 O56 1.236 . S
C71 O57 1.257 . S
H72 C45 0.932 . S
H73 C46 0.930 . S
H74 C47 0.932 . S
H75 C48 0.929 . S
H76 C66 0.932 . S
H77 C67 0.930 . S
H78 C68 0.932 . S
H79 C69 0.929 . S
Tb80 C89 2.764 . S
Tb80 O90 2.325 1_565 S
Tb80 O93 2.303 . S
Tb80 O97 2.322 . S
Tb80 O98 2.349 . S
Tb80 O101 2.415 . S
Tb80 O102 2.399 . S
Tb81 O91 2.322 . S
Tb81 O92 2.349 . S
Tb81 O94 2.415 . S
Tb81 O95 2.399 . S
Tb81 O96 2.325 1_545 S
Tb81 O99 2.303 . S
Tb81 C110 2.764 1_554 S
C82 O98 1.261 . S
C82 O99 1.257 1_565 S
C83 C86 1.358 . S
C83 C87 1.332 . S
C83 C89 1.504 . S
C84 C85 1.373 . S
C84 C88 1.308 . S
C85 C84 1.373 . S
C85 C86 1.429 . S
C85 H112 0.932 . S
C86 C83 1.358 . S
C86 C85 1.429 . S
C86 H113 0.930 . S
C87 C83 1.332 . S
C87 C88 1.394 . S
C87 H114 0.932 . S
C88 C84 1.308 . S
C88 C87 1.394 . S
C88 H115 0.929 . S
C89 Tb80 2.764 . S
C89 C83 1.504 . S
C89 O101 1.239 . S
C89 O102 1.263 . S
O90 Tb80 2.325 1_545 S
O90 C100 1.236 . S
O91 Tb81 2.322 . S
O91 C100 1.257 . S
O92 Tb81 2.349 . S
O92 C103 1.261 . S
O93 Tb80 2.303 . S
O93 C103 1.257 1_565 S
O94 Tb81 2.415 . S
O94 C110 1.239 1_554 S
O95 Tb81 2.399 . S
O95 C110 1.263 1_554 S
O96 Tb81 2.325 1_565 S
O96 C111 1.236 . S
O97 Tb80 2.322 . S
O97 C111 1.257 . S
O98 Tb80 2.349 . S
O98 C82 1.261 . S
O99 Tb81 2.303 . S
O99 C82 1.257 1_545 S
C100 O90 1.236 . S
C100 O91 1.257 . S
O101 Tb80 2.415 . S
O101 C89 1.239 . S
O102 Tb80 2.399 . S
O102 C89 1.263 . S
C103 O92 1.261 . S
C103 O93 1.257 1_545 S
C104 C107 1.358 . S
C104 C108 1.332 . S
C104 C110 1.504 . S
C105 C106 1.373 . S
C105 C109 1.308 . S
C106 C105 1.373 . S
C106 C107 1.429 . S
C106 H116 0.932 . S
C107 C104 1.358 . S
C107 C106 1.429 . S
C107 H117 0.930 . S
C108 C104 1.332 . S
C108 C109 1.394 . S
C108 H118 0.932 . S
C109 C105 1.308 . S
C109 C108 1.394 . S
C109 H119 0.929 . S
C110 Tb81 2.764 1_556 S
C110 O94 1.239 1_556 S
C110 O95 1.263 1_556 S
C110 C104 1.504 . S
C111 O96 1.236 . S
C111 O97 1.257 . S
H112 C85 0.932 . S
H113 C86 0.930 . S
H114 C87 0.932 . S
H115 C88 0.929 . S
H116 C106 0.932 . S
H117 C107 0.930 . S
H118 C108 0.932 . S
H119 C109 0.929 . S
Tb120 C129 2.764 . S
Tb120 O130 2.325 1_455 S
Tb120 O133 2.303 . S
Tb120 O137 2.322 . S
Tb120 O138 2.349 . S
Tb120 O141 2.415 . S
Tb120 O142 2.399 . S
Tb121 O131 2.322 . S
Tb121 O132 2.349 . S
Tb121 O134 2.415 . S
Tb121 O135 2.399 . S
Tb121 O136 2.325 1_655 S
Tb121 O139 2.303 . S
Tb121 C150 2.764 . S
C122 O138 1.261 . S
C122 O139 1.257 1_455 S
C123 C126 1.358 . S
C123 C127 1.332 . S
C123 C129 1.504 . S
C124 C125 1.373 . S
C124 C128 1.308 . S
C125 C124 1.373 . S
C125 C126 1.429 . S
C125 H152 0.932 . S
C126 C123 1.358 . S
C126 C125 1.429 . S
C126 H153 0.930 . S
C127 C123 1.332 . S
C127 C128 1.394 . S
C127 H154 0.932 . S
C128 C124 1.308 . S
C128 C127 1.394 . S
C128 H155 0.929 . S
C129 Tb120 2.764 . S
C129 C123 1.504 . S
C129 O141 1.239 . S
C129 O142 1.263 . S
O130 Tb120 2.325 1_655 S
O130 C140 1.236 . S
O131 Tb121 2.322 . S
O131 C140 1.257 . S
O132 Tb121 2.349 . S
O132 C143 1.261 . S
O133 Tb120 2.303 . S
O133 C143 1.257 1_455 S
O134 Tb121 2.415 . S
O134 C150 1.239 . S
O135 Tb121 2.399 . S
O135 C150 1.263 . S
O136 Tb121 2.325 1_455 S
O136 C151 1.236 . S
O137 Tb120 2.322 . S
O137 C151 1.257 . S
O138 Tb120 2.349 . S
O138 C122 1.261 . S
O139 Tb121 2.303 . S
O139 C122 1.257 1_655 S
C140 O130 1.236 . S
C140 O131 1.257 . S
O141 Tb120 2.415 . S
O141 C129 1.239 . S
O142 Tb120 2.399 . S
O142 C129 1.263 . S
C143 O132 1.261 . S
C143 O133 1.257 1_655 S
C144 C147 1.358 . S
C144 C148 1.332 . S
C144 C150 1.504 . S
C145 C146 1.373 . S
C145 C149 1.308 . S
C146 C145 1.373 . S
C146 C147 1.429 . S
C146 H156 0.932 . S
C147 C144 1.358 . S
C147 C146 1.429 . S
C147 H157 0.930 . S
C148 C144 1.332 . S
C148 C149 1.394 . S
C148 H158 0.932 . S
C149 C145 1.308 . S
C149 C148 1.394 . S
C149 H159 0.929 . S
C150 Tb121 2.764 . S
C150 O134 1.239 . S
C150 O135 1.263 . S
C150 C144 1.504 . S
C151 O136 1.236 . S
C151 O137 1.257 . S
H152 C125 0.932 . S
H153 C126 0.930 . S
H154 C127 0.932 . S
H155 C128 0.929 . S
H156 C146 0.932 . S
H157 C147 0.930 . S
H158 C148 0.932 . S
H159 C149 0.929 . S
H160 C166 0.930 . S
H161 C169 0.930 . S
H162 C170 0.930 . S
H163 C171 0.930 . S
H164 C174 0.930 . S
H165 C175 0.930 . S
C166 H160 0.930 . S
C166 C167 1.363 1_455 S
C166 C168 1.415 . S
C167 C166 1.363 1_655 S
C167 C169 1.407 1_545 S
C168 C166 1.415 . S
C168 C173 1.425 1_545 S
C168 C175 1.409 . S
C169 H161 0.930 . S
C169 C167 1.407 1_565 S
C169 C170 1.362 1_655 S
C170 H162 0.930 . S
C170 C169 1.362 1_455 S
C170 C173 1.409 . S
C171 H163 0.930 . S
C171 C172 1.355 1_565 S
C171 C173 1.415 . S
C172 C171 1.355 1_545 S
C172 C174 1.419 . S
C173 C168 1.425 1_565 S
C173 C170 1.409 . S
C173 C171 1.415 . S
C174 H164 0.930 . S
C174 C172 1.419 . S
C174 C175 1.362 . S
C175 H165 0.930 . S
C175 C168 1.409 . S
C175 C174 1.362 . S
H176 C182 0.930 . S
H177 C185 0.930 . S
H178 C186 0.930 . S
H179 C187 0.930 . S
H180 C190 0.930 . S
H181 C191 0.930 . S
C182 H176 0.930 . S
C182 C183 1.355 . S
C182 C184 1.415 . S
C183 C182 1.355 . S
C183 C185 1.419 . S
C184 C182 1.415 . S
C184 C189 1.425 1_565 S
C184 C191 1.409 1_565 S
C185 H177 0.930 . S
C185 C183 1.419 . S
C185 C186 1.362 . S
C186 H178 0.930 . S
C186 C185 1.362 . S
C186 C189 1.409 1_565 S
C187 H179 0.930 . S
C187 C188 1.355 . S
C187 C189 1.415 . S
C188 C187 1.355 . S
C188 C190 1.419 . S
C189 C184 1.425 1_545 S
C189 C186 1.409 1_545 S
C189 C187 1.415 . S
C190 H180 0.930 . S
C190 C188 1.419 . S
C190 C191 1.362 . S
C191 H181 0.930 . S
C191 C184 1.409 1_545 S
C191 C190 1.362 . S
H192 C198 0.930 . S
H193 C201 0.930 . S
H194 C202 0.930 . S
H195 C203 0.930 . S
H196 C206 0.930 . S
H197 C207 0.930 . S
C198 H192 0.930 . S
C198 C199 1.355 1_565 S
C198 C200 1.415 1_565 S
C199 C198 1.355 1_545 S
C199 C201 1.419 . S
C200 C198 1.415 1_545 S
C200 C205 1.425 . S
C200 C207 1.409 1_545 S
C201 H193 0.930 . S
C201 C199 1.419 . S
C201 C202 1.362 . S
C202 H194 0.930 . S
C202 C201 1.362 . S
C202 C205 1.409 . S
C203 H195 0.930 . S
C203 C204 1.355 . S
C203 C205 1.415 . S
C204 C203 1.355 . S
C204 C206 1.419 1_545 S
C205 C200 1.425 . S
C205 C202 1.409 . S
C205 C203 1.415 . S
C206 H196 0.930 . S
C206 C204 1.419 1_565 S
C206 C207 1.363 . S
C207 H197 0.930 . S
C207 C200 1.409 1_565 S
C207 C206 1.363 . S
H208 C214 0.930 . S
H209 C217 0.930 . S
H210 C218 0.930 . S
H211 C219 0.930 . S
H212 C222 0.930 . S
H213 C223 0.930 . S
C214 H208 0.930 . S
C214 C215 1.355 . S
C214 C216 1.415 . S
C215 C214 1.355 . S
C215 C217 1.419 . S
C216 C214 1.415 . S
C216 C221 1.425 . S
C216 C223 1.409 1_455 S
C217 H209 0.930 . S
C217 C215 1.419 . S
C217 C218 1.362 . S
C218 H210 0.930 . S
C218 C217 1.362 . S
C218 C221 1.409 . S
C219 H211 0.930 . S
C219 C220 1.355 1_455 S
C219 C221 1.415 . S
C220 C219 1.355 1_655 S
C220 C222 1.419 . S
C221 C216 1.425 . S
C221 C218 1.409 . S
C221 C219 1.415 . S
C222 H212 0.930 . S
C222 C220 1.419 . S
C222 C223 1.362 . S
C223 H213 0.930 . S
C223 C216 1.409 1_655 S
C223 C222 1.362 . S
H224 C230 0.930 . S
H225 C233 0.930 . S
H226 C234 0.930 . S
H227 C235 0.930 . S
H228 C238 0.930 . S
H229 C239 0.930 . S
C230 H224 0.930 . S
C230 C231 1.355 . S
C230 C232 1.415 . S
C231 C230 1.355 . S
C231 C233 1.419 . S
C232 C230 1.415 . S
C232 C237 1.425 . S
C232 C239 1.409 . S
C233 H225 0.930 . S
C233 C231 1.419 . S
C233 C234 1.362 . S
C234 H226 0.930 . S
C234 C233 1.362 . S
C234 C237 1.409 . S
C235 H227 0.930 . S
C235 C236 1.355 . S
C235 C237 1.415 . S
C236 C235 1.355 . S
C236 C238 1.419 . S
C237 C232 1.425 . S
C237 C234 1.409 . S
C237 C235 1.415 . S
C238 H228 0.930 . S
C238 C236 1.419 . S
C238 C239 1.362 . S
C239 H229 0.930 . S
C239 C232 1.409 . S
C239 C238 1.362 . S
H240 C246 0.930 . S
H241 C249 0.930 . S
H242 C250 0.930 . S
H243 C251 0.930 . S
H244 C254 0.930 . S
H245 C255 0.930 . S
C246 H240 0.930 . S
C246 C247 1.355 1_655 S
C246 C248 1.415 . S
C247 C246 1.355 1_455 S
C247 C249 1.419 . S
C248 C246 1.415 . S
C248 C253 1.425 . S
C248 C255 1.409 . S
C249 H241 0.930 . S
C249 C247 1.419 . S
C249 C250 1.362 . S
C250 H242 0.930 . S
C250 C249 1.362 . S
C250 C253 1.409 1_455 S
C251 H243 0.930 . S
C251 C252 1.355 . S
C251 C253 1.415 . S
C252 C251 1.355 . S
C252 C254 1.419 . S
C253 C248 1.425 . S
C253 C250 1.409 1_655 S
C253 C251 1.415 . S
C254 H244 0.930 . S
C254 C252 1.419 . S
C254 C255 1.362 . S
C255 H245 0.930 . S
C255 C248 1.409 . S
C255 C254 1.362 . S
H256 C262 0.930 . S
H257 C265 0.930 . S
H258 C266 0.930 . S
H259 C267 0.930 . S
H260 C270 0.930 . S
H261 C271 0.930 . S
C262 H256 0.930 . S
C262 C263 1.355 . S
C262 C264 1.415 . S
C263 C262 1.355 . S
C263 C265 1.419 . S
C264 C262 1.415 . S
C264 C269 1.425 . S
C264 C271 1.409 . S
C265 H257 0.930 . S
C265 C263 1.419 . S
C265 C266 1.362 . S
C266 H258 0.930 . S
C266 C265 1.362 . S
C266 C269 1.409 . S
C267 H259 0.930 . S
C267 C268 1.355 . S
C267 C269 1.415 . S
C268 C267 1.355 . S
C268 C270 1.419 . S
C269 C264 1.425 . S
C269 C266 1.409 . S
C269 C267 1.415 . S
C270 H260 0.930 . S
C270 C268 1.419 . S
C270 C271 1.362 . S
C271 H261 0.930 . S
C271 C264 1.409 . S
C271 C270 1.362 . S
H272 C278 0.930 . S
H273 C281 0.930 . S
H274 C282 0.930 . S
H275 C283 0.930 . S
H276 C286 0.930 . S
H277 C287 0.930 . S
C278 H272 0.930 . S
C278 C279 1.355 . S
C278 C280 1.415 . S
C279 C278 1.355 . S
C279 C281 1.419 . S
C280 C278 1.415 . S
C280 C285 1.425 . S
C280 C287 1.409 . S
C281 H273 0.930 . S
C281 C279 1.419 . S
C281 C282 1.362 . S
C282 H274 0.930 . S
C282 C281 1.362 . S
C282 C285 1.409 . S
C283 H275 0.930 . S
C283 C284 1.355 . S
C283 C285 1.415 . S
C284 C283 1.355 . S
C284 C286 1.419 . S
C285 C280 1.425 . S
C285 C282 1.409 . S
C285 C283 1.415 . S
C286 H276 0.930 . S
C286 C284 1.419 . S
C286 C287 1.362 . S
C287 H277 0.930 . S
C287 C280 1.409 . S
C287 C286 1.362 . S
H288 C294 0.930 . S
H289 C297 0.930 . S
H290 C298 0.930 . S
H291 C299 0.930 . S
H292 C302 0.930 . S
H293 C303 0.930 . S
C294 H288 0.930 . S
C294 C295 1.355 . S
C294 C296 1.415 . S
C295 C294 1.355 . S
C295 C297 1.419 . S
C296 C294 1.415 . S
C296 C301 1.425 . S
C296 C303 1.409 . S
C297 H289 0.930 . S
C297 C295 1.419 . S
C297 C298 1.362 . S
C298 H290 0.930 . S
C298 C297 1.362 . S
C298 C301 1.409 . S
C299 H291 0.930 . S
C299 C300 1.355 . S
C299 C301 1.415 . S
C300 C299 1.355 . S
C300 C302 1.419 . S
C301 C296 1.425 . S
C301 C298 1.409 . S
C301 C299 1.415 . S
C302 H292 0.930 . S
C302 C300 1.419 . S
C302 C303 1.362 . S
C303 H293 0.930 . S
C303 C296 1.409 . S
C303 C302 1.362 . S
H304 C310 0.930 . S
H305 C313 0.930 . S
H306 C314 0.930 . S
H307 C315 0.930 . S
H308 C318 0.930 . S
H309 C319 0.930 . S
C310 H304 0.930 . S
C310 C311 1.355 . S
C310 C312 1.415 . S
C311 C310 1.355 . S
C311 C313 1.419 . S
C312 C310 1.415 . S
C312 C317 1.425 . S
C312 C319 1.409 . S
C313 H305 0.930 . S
C313 C311 1.419 . S
C313 C314 1.362 . S
C314 H306 0.930 . S
C314 C313 1.362 . S
C314 C317 1.409 . S
C315 H307 0.930 . S
C315 C316 1.355 . S
C315 C317 1.415 . S
C316 C315 1.355 . S
C316 C318 1.419 . S
C317 C312 1.425 . S
C317 C314 1.409 . S
C317 C315 1.415 . S
C318 H308 0.930 . S
C318 C316 1.419 . S
C318 C319 1.362 . S
C319 H309 0.930 . S
C319 C312 1.409 . S
C319 C318 1.362 . S
H320 C326 0.930 . S
H321 C329 0.930 . S
H322 C330 0.930 . S
H323 C331 0.930 . S
H324 C334 0.930 . S
H325 C335 0.930 . S
C326 H320 0.930 . S
C326 C327 1.355 . S
C326 C328 1.415 . S
C327 C326 1.355 . S
C327 C329 1.419 . S
C328 C326 1.415 . S
C328 C333 1.427 . S
C328 C335 1.409 . S
C329 H321 0.930 . S
C329 C327 1.419 . S
C329 C330 1.362 . S
C330 H322 0.930 . S
C330 C329 1.362 . S
C330 C333 1.411 . S
C331 H323 0.930 . S
C331 C332 1.355 . S
C331 C333 1.411 1_554 S
C332 C331 1.355 . S
C332 C334 1.419 . S
C333 C328 1.427 . S
C333 C330 1.411 . S
C333 C331 1.411 1_556 S
C334 H324 0.930 . S
C334 C332 1.419 . S
C334 C335 1.362 1_554 S
C335 H325 0.930 . S
C335 C328 1.409 . S
C335 C334 1.362 1_556 S
H336 C342 0.930 . S
H337 C345 0.930 . S
H338 C346 0.930 . S
H339 C347 0.930 . S
H340 C350 0.930 . S
H341 C351 0.930 . S
C342 H336 0.930 . S
C342 C343 1.355 . S
C342 C344 1.415 . S
C343 C342 1.355 . S
C343 C345 1.419 . S
C344 C342 1.415 . S
C344 C349 1.425 . S
C344 C351 1.409 . S
C345 H337 0.930 . S
C345 C343 1.419 . S
C345 C346 1.362 . S
C346 H338 0.930 . S
C346 C345 1.362 . S
C346 C349 1.409 . S
C347 H339 0.930 . S
C347 C348 1.355 . S
C347 C349 1.415 . S
C348 C347 1.355 . S
C348 C350 1.419 . S
C349 C344 1.425 . S
C349 C346 1.409 . S
C349 C347 1.415 . S
C350 H340 0.930 . S
C350 C348 1.419 . S
C350 C351 1.362 . S
C351 H341 0.930 . S
C351 C344 1.409 . S
C351 C350 1.362 . S
C167 C82 1.088 1_545 S
C172 C2 1.122 . S
C183 C122 0.636 . S
C188 C63 0.637 . S
C199 C103 0.969 . S
C204 C23 1.020 . S
C215 C42 0.980 . S
C220 C143 0.979 . S
C231 C71 0.528 . S
C236 C25 0.497 . S
C247 C60 0.721 . S
C252 C105 0.795 . S
C263 C145 0.359 . S
C268 C84 0.285 . S
C279 C124 0.342 . S
C284 C4 0.445 . S
C295 C111 3.414 1_556 S
C300 C140 3.292 . S
C311 C31 3.637 . S
C316 C151 3.625 . S
C327 C44 2.647 . S
C332 C20 2.755 . S
C343 C100 2.431 . S
C348 C65 2.420 . S
