# Generated by pormake.
# Topology uoc, (4)-cn, num edge types: 1
# Building blocks:
#     Node 0, Type 0, BuildingBlock: ICAMEG_clean_sbu_1, # of connection points: 4
#     Node 1, Type 0, BuildingBlock: ICAMEG_clean_sbu_1, # of connection points: 4
#     Node 2, Type 0, BuildingBlock: ICAMEG_clean_sbu_1, # of connection points: 4
#     Node 3, Type 0, BuildingBlock: ICAMEG_clean_sbu_1, # of connection points: 4
#     Node 4, Type 0, BuildingBlock: ICAMEG_clean_sbu_1, # of connection points: 4
#     Node 5, Type 0, BuildingBlock: ICAMEG_clean_sbu_1, # of connection points: 4
#     Node 6, Type 0, BuildingBlock: ICAMEG_clean_sbu_1, # of connection points: 4
#     Node 7, Type 0, BuildingBlock: ICAMEG_clean_sbu_1, # of connection points: 4
#     Edge 8, Type (0, 0), BuildingBlock: AJUNOK_clean_linker_0, # of connection points: 2
#     Edge 9, Type (0, 0), BuildingBlock: AJUNOK_clean_linker_0, # of connection points: 2
#     Edge 10, Type (0, 0), BuildingBlock: AJUNOK_clean_linker_0, # of connection points: 2
#     Edge 11, Type (0, 0), BuildingBlock: AJUNOK_clean_linker_0, # of connection points: 2
#     Edge 12, Type (0, 0), BuildingBlock: AJUNOK_clean_linker_0, # of connection points: 2
#     Edge 13, Type (0, 0), BuildingBlock: AJUNOK_clean_linker_0, # of connection points: 2
#     Edge 14, Type (0, 0), BuildingBlock: AJUNOK_clean_linker_0, # of connection points: 2
#     Edge 15, Type (0, 0), BuildingBlock: AJUNOK_clean_linker_0, # of connection points: 2
#     Edge 16, Type (0, 0), BuildingBlock: AJUNOK_clean_linker_0, # of connection points: 2
#     Edge 17, Type (0, 0), BuildingBlock: AJUNOK_clean_linker_0, # of connection points: 2
#     Edge 18, Type (0, 0), BuildingBlock: AJUNOK_clean_linker_0, # of connection points: 2
#     Edge 19, Type (0, 0), BuildingBlock: AJUNOK_clean_linker_0, # of connection points: 2
#     Edge 20, Type (0, 0), BuildingBlock: AJUNOK_clean_linker_0, # of connection points: 2
#     Edge 21, Type (0, 0), BuildingBlock: AJUNOK_clean_linker_0, # of connection points: 2
#     Edge 22, Type (0, 0), BuildingBlock: AJUNOK_clean_linker_0, # of connection points: 2
#     Edge 23, Type (0, 0), BuildingBlock: AJUNOK_clean_linker_0, # of connection points: 2
# Relax obj value: 0.095
# Max RMSD: 0.097
# Mean RMSD: 0.097
data_MOF--net-uoc--node1-ICAMEG_clean_sbu_1--edge1-AJUNOK_clean_linker_0
_symmetry_space_group_name_H-M    P1
_symmetry_Int_Tables_number       1
_symmetry_cell_setting            triclinic
loop_
_symmetry_equiv_pos_as_xyz
'x, y, z'
_cell_length_a     21.26683
_cell_length_b     21.392399
_cell_length_c     43.407544
_cell_angle_alpha  90.222602
_cell_angle_beta   89.980617
_cell_angle_gamma 100.90857
loop_
_atom_site_label
_atom_site_type_symbol
_atom_site_fract_x
_atom_site_fract_y
_atom_site_fract_z
_atom_type_partial_charge
Co0 Co 0.15635 0.24022 0.14379 0.0
Co1 Co 1.0038 0.21499 0.11213 0.0
O2 O 0.07271 0.26452 0.13704 0.0
C3 C 0.12085 0.29153 0.2061 0.0
O4 O 0.06471 0.29968 0.19625 0.0
C5 C 0.01905 0.34575 0.08696 0.0
O6 O 0.08063 0.34568 0.08475 0.0
O7 O 0.06401 0.21118 0.07687 0.0
O8 O 0.15792 0.208 0.10007 0.0
H9 H 0.90231 0.02649 0.04824 0.0
H10 H 0.13801 0.37272 0.15723 0.0
O11 O 0.15921 0.26991 0.18813 0.0
H12 H 0.31173 0.39505 0.08063 0.0
H13 H 0.38087 0.27522 0.18633 0.0
H14 H 0.21595 0.13016 0.12806 0.0
H15 H 0.26116 0.28906 0.0997 0.0
H16 H 0.27589 0.30357 0.17594 0.0
O17 O 0.98127 0.29559 0.09572 0.0
H18 H 0.99079 0.09591 0.07557 0.0
H19 H 0.86983 0.22733 0.09613 0.0
H20 H 0.32038 0.09933 0.13738 0.0
H21 H 0.18758 0.47943 0.13906 0.0
H22 H 0.4039 0.17249 0.16689 0.0
H23 H 0.2751 0.49124 0.1004 0.0
O24 O 0.11375 0.15269 0.15727 0.0
H25 H 0.8988 0.32347 0.1953 0.0
H26 H 0.9071 0.11846 0.14473 0.0
H27 H 0.8329 0.12146 0.1881 0.0
H28 H 0.8282 0.22461 0.21364 0.0
H29 H 0.97326 0.31806 0.15228 0.0
H30 H 0.7807 0.16042 0.06811 0.0
H31 H 0.79625 0.0584 0.04456 0.0
O32 O 0.02317 0.13439 0.12894 0.0
C33 C 0.1218 0.20221 0.07626 0.0
C34 C 0.89483 0.0706 0.05862 0.0
C35 C 0.82663 0.14585 0.06969 0.0
N36 N 0.93542 0.16548 0.08764 0.0
C37 C 0.94478 0.11019 0.07407 0.0
C38 C 0.87751 0.18395 0.08523 0.0
C39 C 0.8353 0.08852 0.05658 0.0
C40 C 0.17673 0.37725 0.1409 0.0
N41 N 0.1973 0.32453 0.13004 0.0
C42 C 0.20435 0.43793 0.13047 0.0
C43 C 0.25332 0.44452 0.10872 0.0
C44 C 0.27386 0.39058 0.09761 0.0
C45 C 0.24499 0.33065 0.1085 0.0
C46 C 0.34499 0.24293 0.17341 0.0
C47 C 0.25203 0.16172 0.14059 0.0
C48 C 0.28531 0.25863 0.16751 0.0
N49 N 0.23969 0.21817 0.15114 0.0
C50 C 0.31111 0.1443 0.14595 0.0
C51 C 0.35788 0.18532 0.1625 0.0
C52 C 0.06261 0.11656 0.1475 0.0
C53 C 0.90047 0.27821 0.18441 0.0
C54 C 0.90614 0.16335 0.15603 0.0
C55 C 0.86363 0.16484 0.18043 0.0
C56 C 0.86093 0.22273 0.1947 0.0
N57 N 0.94507 0.21791 0.14616 0.0
C58 C 0.94243 0.27487 0.15996 0.0
Co59 Co 0.75396 0.64508 0.39636 0.0
Co60 Co 0.73113 0.492 0.42636 0.0
O61 O 0.78008 0.56337 0.40323 0.0
C62 C 0.75106 0.65174 0.32823 0.0
O63 O 0.69136 0.65877 0.33141 0.0
C64 C 0.86047 0.51891 0.45523 0.0
O65 O 0.85681 0.5795 0.45524 0.0
O66 O 0.71328 0.55002 0.46085 0.0
O67 O 0.72482 0.64797 0.44004 0.0
H68 H 0.53762 0.37334 0.48199 0.0
H69 H 0.88492 0.62773 0.37995 0.0
O70 O 0.78346 0.64315 0.35212 0.0
H71 H 0.91517 0.80317 0.45572 0.0
H72 H 0.78135 0.86832 0.35473 0.0
H73 H 0.64141 0.70066 0.41378 0.0
H74 H 0.80669 0.75179 0.43912 0.0
H75 H 0.81316 0.76488 0.36389 0.0
O76 O 0.81215 0.47765 0.44683 0.0
H77 H 0.60166 0.46419 0.45456 0.0
H78 H 0.75505 0.36429 0.44527 0.0
H79 H 0.60781 0.80344 0.40525 0.0
H80 H 0.99429 0.67831 0.39553 0.0
H81 H 0.67801 0.88812 0.37551 0.0
H82 H 0.00994 0.76656 0.43378 0.0
O83 O 0.6654 0.6015 0.38454 0.0
H84 H 0.86701 0.40662 0.34768 0.0
H85 H 0.64979 0.3871 0.39095 0.0
H86 H 0.6686 0.31665 0.34822 0.0
H87 H 0.77796 0.32598 0.32637 0.0
H88 H 0.84589 0.47667 0.39013 0.0
H89 H 0.69304 0.27247 0.47292 0.0
H90 H 0.58319 0.27634 0.49123 0.0
O91 O 0.65127 0.50361 0.40541 0.0
C92 C 0.71017 0.60931 0.46238 0.0
C93 C 0.58545 0.37102 0.47414 0.0
C94 C 0.67274 0.31453 0.46913 0.0
N95 N 0.68269 0.42029 0.44888 0.0
C96 C 0.62218 0.4226 0.4588 0.0
C97 C 0.70803 0.36705 0.45385 0.0
C98 C 0.611 0.31662 0.47928 0.0
C99 C 0.89136 0.66663 0.3963 0.0
N100 N 0.83947 0.68705 0.40846 0.0
C101 C 0.9534 0.69488 0.40516 0.0
C102 C 0.96214 0.74429 0.42667 0.0
C103 C 0.90899 0.7648 0.43901 0.0
C104 C 0.84766 0.73538 0.42963 0.0
C105 C 0.75034 0.8318 0.36773 0.0
C106 C 0.67223 0.73729 0.40085 0.0
C107 C 0.76807 0.77313 0.37296 0.0
N108 N 0.72913 0.72675 0.38935 0.0
C109 C 0.65295 0.79539 0.39608 0.0
C110 C 0.69236 0.84287 0.37939 0.0
C111 C 0.63187 0.54651 0.38983 0.0
C112 C 0.81917 0.40202 0.35703 0.0
C113 C 0.6974 0.39177 0.38143 0.0
C114 C 0.70782 0.35157 0.3573 0.0
C115 C 0.76918 0.35682 0.34507 0.0
N116 N 0.74668 0.43592 0.39309 0.0
C117 C 0.80694 0.44146 0.38114 0.0
Co118 Co 0.35931 0.27548 0.64166 0.0
Co119 Co 0.50457 0.26341 0.60907 0.0
O120 O 0.42972 0.22875 0.63478 0.0
C121 C 0.38027 0.21846 0.70409 0.0
O122 O 0.43291 0.2009 0.69471 0.0
C123 C 0.46748 0.12912 0.58621 0.0
O124 O 0.40709 0.13486 0.58662 0.0
O125 O 0.44721 0.27477 0.57382 0.0
O126 O 0.36629 0.30765 0.59819 0.0
H127 H 0.63226 0.42399 0.5379 0.0
H128 H 0.34006 0.13716 0.65545 0.0
O129 O 0.34777 0.24632 0.68579 0.0
H130 H 0.1751 0.15845 0.57853 0.0
H131 H 0.14554 0.3062 0.68275 0.0
H132 H 0.33848 0.40427 0.62492 0.0
H133 H 0.25011 0.25313 0.59729 0.0
H134 H 0.23221 0.2466 0.67322 0.0
O135 O 0.51083 0.176 0.59399 0.0
H136 H 0.53759 0.37591 0.56834 0.0
H137 H 0.63017 0.22569 0.59564 0.0
H138 H 0.2527 0.46533 0.63367 0.0
H139 H 0.26563 0.04139 0.63759 0.0
H140 H 0.15536 0.41632 0.66282 0.0
H141 H 0.18243 0.05162 0.59878 0.0
O142 O 0.42116 0.352 0.65585 0.0
H143 H 0.58297 0.14043 0.69471 0.0
H144 H 0.61518 0.34627 0.64077 0.0
H145 H 0.68453 0.33273 0.68471 0.0
H146 H 0.66884 0.22906 0.71196 0.0
H147 H 0.5138 0.15656 0.65105 0.0
H148 H 0.72472 0.27074 0.56445 0.0
H149 H 0.7265 0.37123 0.53568 0.0
O150 O 0.5031 0.35159 0.62357 0.0
C151 C 0.39708 0.29966 0.57371 0.0
C152 C 0.63199 0.38023 0.55035 0.0
C153 C 0.68386 0.29415 0.56519 0.0
N154 N 0.57822 0.29788 0.58374 0.0
C155 C 0.57853 0.35272 0.56763 0.0
C156 C 0.6299 0.26846 0.58256 0.0
C157 C 0.68491 0.3506 0.54912 0.0
C158 C 0.30349 0.14224 0.63894 0.0
N159 N 0.29903 0.20088 0.62779 0.0
C160 C 0.26167 0.08772 0.62874 0.0
C161 C 0.2151 0.09348 0.60691 0.0
C162 C 0.21098 0.15339 0.59553 0.0
C163 C 0.25368 0.20684 0.60623 0.0
C164 C 0.18765 0.32803 0.66996 0.0
C165 C 0.29606 0.3824 0.6374 0.0
C166 C 0.23697 0.29457 0.66454 0.0
N167 N 0.29026 0.32179 0.64837 0.0
C168 C 0.24772 0.4173 0.64237 0.0
C169 C 0.19318 0.38981 0.65877 0.0
C170 C 0.47389 0.37885 0.64368 0.0
C171 C 0.59026 0.18586 0.68305 0.0
C172 C 0.60729 0.30142 0.65277 0.0
C173 C 0.64709 0.29383 0.67751 0.0
C174 C 0.63836 0.23562 0.69275 0.0
N175 N 0.56 0.2525 0.64345 0.0
C176 C 0.55139 0.19522 0.65822 0.0
Co177 Co 0.76192 0.84449 0.89314 0.0
Co178 Co 0.76566 0.98988 0.92944 0.0
O179 O 0.72466 0.91921 0.90307 0.0
C180 C 0.76042 0.84553 0.82485 0.0
O181 O 0.82226 0.84651 0.82661 0.0
C182 C 0.63445 0.95042 0.95464 0.0
O183 O 0.64143 0.89108 0.95158 0.0
O184 O 0.78241 0.92917 0.96218 0.0
O185 O 0.79602 0.84148 0.93623 0.0
H186 H 0.94528 0.11113 0.99344 0.0
H187 H 0.62504 0.84053 0.87829 0.0
O188 O 0.72809 0.84662 0.84961 0.0
H189 H 0.626 0.66499 0.95143 0.0
H190 H 0.75954 0.62892 0.8453 0.0
H191 H 0.88649 0.80574 0.9046 0.0
H192 H 0.72719 0.73317 0.9352 0.0
H193 H 0.7143 0.72345 0.85876 0.0
O194 O 0.68059 0.99557 0.94827 0.0
H195 H 0.88847 0.01924 0.96365 0.0
H196 H 0.72977 0.11111 0.95153 0.0
H197 H 0.93375 0.7122 0.89169 0.0
H198 H 0.52279 0.77224 0.89321 0.0
H199 H 0.87001 0.62281 0.86186 0.0
H200 H 0.52284 0.68407 0.93023 0.0
O201 O 0.84448 0.89998 0.88101 0.0
H202 H 0.63319 0.07422 0.84932 0.0
H203 H 0.84411 0.10484 0.9002 0.0
H204 H 0.82547 0.17872 0.85921 0.0
H205 H 0.71927 0.16375 0.83351 0.0
H206 H 0.6542 0.00115 0.89019 0.0
H207 H 0.78373 0.20271 0.9824 0.0
H208 H 0.89286 0.2037 1.00302 0.0
O209 O 0.85046 0.98771 0.91048 0.0
C210 C 0.79893 0.87462 0.96096 0.0
C211 C 0.89789 0.11142 0.98441 0.0
C212 C 0.80715 0.16273 0.97828 0.0
N213 N 0.80614 0.06003 0.95554 0.0
C214 C 0.86549 0.05954 0.96749 0.0
C215 C 0.77656 0.11041 0.96107 0.0
C216 C 0.86846 0.16336 0.98976 0.0
C217 C 0.62551 0.80163 0.89403 0.0
N218 N 0.68207 0.79065 0.90566 0.0
C219 C 0.56744 0.76341 0.90257 0.0
C220 C 0.56749 0.71399 0.92337 0.0
C221 C 0.62534 0.70331 0.9353 0.0
C222 C 0.68249 0.74234 0.92615 0.0
C223 C 0.78774 0.66747 0.85838 0.0
C224 C 0.85857 0.7671 0.89164 0.0
C225 C 0.76236 0.72108 0.86611 0.0
N226 N 0.79764 0.76993 0.88269 0.0
C227 C 0.88552 0.71422 0.88438 0.0
C228 C 0.84973 0.66409 0.86765 0.0
C229 C 0.87392 0.95363 0.89111 0.0
C230 C 0.67964 0.08131 0.86035 0.0
C231 C 0.7979 0.0978 0.88902 0.0
C232 C 0.78755 0.13992 0.86589 0.0
C233 C 0.72796 0.1315 0.85149 0.0
N234 N 0.75026 0.04873 0.89762 0.0
C235 C 0.69176 0.04014 0.88357 0.0
Co236 Co 0.67203 0.76248 0.63637 0.0
Co237 Co 0.51346 0.75307 0.61425 0.0
O238 O 0.59298 0.79655 0.63389 0.0
C239 C 0.64709 0.78632 0.70293 0.0
O240 O 0.58708 0.75861 0.69887 0.0
C241 C 0.54195 0.88074 0.5846 0.0
O242 O 0.60169 0.87393 0.58149 0.0
O243 O 0.56085 0.73083 0.57665 0.0
O244 O 0.66158 0.73185 0.59297 0.0
H245 H 0.3701 0.5703 0.56129 0.0
H246 H 0.67302 0.89656 0.65406 0.0
O247 O 0.68574 0.79256 0.68021 0.0
H248 H 0.82578 0.90731 0.56788 0.0
H249 H 0.901 0.7674 0.66766 0.0
H250 H 0.71242 0.64466 0.61438 0.0
H251 H 0.76984 0.80357 0.58754 0.0
H252 H 0.80129 0.8098 0.66355 0.0
O253 O 0.50075 0.83526 0.59546 0.0
H254 H 0.47007 0.62642 0.58528 0.0
H255 H 0.38573 0.78781 0.60252 0.0
H256 H 0.81124 0.60061 0.61775 0.0
H257 H 0.72824 0.00136 0.63525 0.0
H258 H 0.90646 0.66211 0.6446 0.0
H259 H 0.80505 0.00716 0.59178 0.0
O260 O 0.62425 0.67785 0.65072 0.0
H261 H 0.46263 0.89489 0.69969 0.0
H262 H 0.4098 0.68052 0.65347 0.0
H263 H 0.35378 0.70416 0.70062 0.0
H264 H 0.38013 0.81211 0.72405 0.0
H265 H 0.51791 0.86888 0.65277 0.0
H266 H 0.28504 0.73378 0.57839 0.0
H267 H 0.27654 0.624 0.5578 0.0
O268 O 0.52321 0.67145 0.6335 0.0
C269 C 0.61809 0.72168 0.57245 0.0
C270 C 0.37318 0.61812 0.57019 0.0
C271 C 0.3255 0.70991 0.57974 0.0
N272 N 0.43413 0.71052 0.59509 0.0
C273 C 0.4298 0.65021 0.58372 0.0
C274 C 0.38289 0.74048 0.59317 0.0
C275 C 0.32071 0.64826 0.56826 0.0
C276 C 0.70693 0.89873 0.63536 0.0
N277 N 0.71841 0.84404 0.62201 0.0
C278 C 0.73786 0.95819 0.62473 0.0
C279 C 0.78087 0.96141 0.6003 0.0
C280 C 0.79247 0.9054 0.58686 0.0
C281 C 0.76056 0.8468 0.59805 0.0
C282 C 0.85978 0.74007 0.65597 0.0
C283 C 0.75357 0.67165 0.62612 0.0
C284 C 0.80307 0.76371 0.6537 0.0
N285 N 0.75087 0.72952 0.63892 0.0
C286 C 0.80944 0.64649 0.62794 0.0
C287 C 0.86284 0.68102 0.64301 0.0
C288 C 0.56652 0.64834 0.64719 0.0
C289 C 0.45078 0.84766 0.68974 0.0
C290 C 0.42187 0.72735 0.66369 0.0
C291 C 0.38978 0.7406 0.6903 0.0
C292 C 0.40454 0.80118 0.7034 0.0
N293 N 0.46742 0.77303 0.6505 0.0
C294 C 0.48185 0.83266 0.66312 0.0
Co295 Co 0.24201 0.17532 0.89037 0.0
Co296 Co 0.26642 0.03288 0.91898 0.0
O297 O 0.29431 0.10983 0.89471 0.0
C298 C 0.27651 0.14734 0.82617 0.0
O299 O 0.26019 0.08677 0.83299 0.0
C300 C 0.3851 0.02499 0.95487 0.0
O301 O 0.35279 0.02524 0.98062 0.0
O302 O 0.25599 0.08653 0.95594 0.0
O303 O 0.21173 0.16313 0.93433 0.0
H304 H 0.11958 0.89321 0.99163 0.0
H305 H 0.37972 0.20493 0.87395 0.0
O306 O 0.27149 0.18953 0.84638 0.0
H307 H 0.35224 0.35993 0.95489 0.0
H308 H 0.19549 0.38419 0.85264 0.0
H309 H 0.11138 0.18774 0.9101 0.0
H310 H 0.26005 0.28049 0.93675 0.0
H311 H 0.26169 0.30236 0.85996 0.0
O312 O 0.35876 0.03265 0.92912 0.0
H313 H 0.16108 0.99164 0.96321 0.0
H314 H 0.31223 0.90946 0.92688 0.0
H315 H 0.04379 0.26854 0.90361 0.0
H316 H 0.47316 0.28397 0.89121 0.0
H317 H 0.08574 0.3676 0.87464 0.0
H318 H 0.4597 0.36217 0.93199 0.0
O319 O 0.16725 0.11057 0.87645 0.0
H320 H 0.37907 0.97407 0.82436 0.0
H321 H 0.18478 0.92051 0.88822 0.0
H322 H 0.19501 0.85735 0.84154 0.0
H323 H 0.29291 0.88375 0.80931 0.0
H324 H 0.36639 0.03666 0.87096 0.0
H325 H 0.27402 0.811 0.95602 0.0
H326 H 0.17625 0.80189 0.98825 0.0
O327 O 0.17472 0.03015 0.90818 0.0
C328 C 0.22492 0.13225 0.95791 0.0
C329 C 0.16254 0.89666 0.97789 0.0
C330 C 0.24906 0.8505 0.9578 0.0
N331 N 0.23922 0.95652 0.9434 0.0
C332 C 0.18618 0.95229 0.96162 0.0
C333 C 0.27082 0.90661 0.94153 0.0
C334 C 0.19427 0.84546 0.97593 0.0
C335 C 0.37345 0.23906 0.89157 0.0
N336 N 0.31448 0.23833 0.9042 0.0
C337 C 0.42654 0.28358 0.90131 0.0
C338 C 0.41897 0.3274 0.92421 0.0
C339 C 0.3587 0.32616 0.93708 0.0
C340 C 0.30671 0.28095 0.92677 0.0
C341 C 0.17668 0.34126 0.86533 0.0
C342 C 0.13017 0.23092 0.89767 0.0
C343 C 0.21387 0.29467 0.86946 0.0
N344 N 0.19046 0.24038 0.88549 0.0
C345 C 0.0916 0.27643 0.89399 0.0
C346 C 0.11513 0.33194 0.87769 0.0
C347 C 0.1436 0.05757 0.88903 0.0
C348 C 0.3363 0.9619 0.83827 0.0
C349 C 0.2273 0.93266 0.87425 0.0
C350 C 0.23295 0.89652 0.84788 0.0
C351 C 0.2879 0.91132 0.82982 0.0
N352 N 0.27513 0.982 0.88254 0.0
C353 C 0.32897 0.99697 0.8648 0.0
Co354 Co 0.84504 0.75561 0.1424 0.0
Co355 Co 0.98619 0.72577 0.11305 0.0
O356 O 0.90718 0.6995 0.13673 0.0
C357 C 0.86485 0.71622 0.20708 0.0
O358 O 0.92687 0.73179 0.20254 0.0
C359 C 0.93835 0.59116 0.09134 0.0
O360 O 0.87889 0.59985 0.09181 0.0
O361 O 0.93508 0.74425 0.07642 0.0
O362 O 0.8607 0.79003 0.09958 0.0
H363 H 0.13775 0.87288 0.04518 0.0
H364 H 0.80603 0.61789 0.15551 0.0
O365 O 0.82634 0.7224 0.18531 0.0
H366 H 0.65982 0.6622 0.07373 0.0
H367 H 0.63736 0.81053 0.17919 0.0
H368 H 0.84273 0.89007 0.12702 0.0
H369 H 0.74233 0.74833 0.09486 0.0
H370 H 0.71525 0.74005 0.17097 0.0
O371 O 0.98385 0.63653 0.0984 0.0
H372 H 0.03635 0.83526 0.07265 0.0
H373 H 0.10378 0.67091 0.10252 0.0
H374 H 0.76611 0.962 0.13455 0.0
H375 H 0.72378 0.53042 0.13523 0.0
H376 H 0.66252 0.92232 0.16082 0.0
H377 H 0.65006 0.55233 0.09398 0.0
O378 O 0.91303 0.82534 0.15853 0.0
H379 H 0.02981 0.59465 0.20355 0.0
H380 H 0.10323 0.79347 0.14639 0.0
H381 H 0.16137 0.77199 0.19302 0.0
H382 H 0.12474 0.67177 0.22198 0.0
H383 H 0.97262 0.61867 0.157 0.0
H384 H 0.20466 0.70529 0.07409 0.0
H385 H 0.22263 0.80753 0.04553 0.0
O386 O 0.99418 0.81594 0.12724 0.0
C387 C 0.89052 0.77701 0.07556 0.0
C388 C 0.13031 0.828 0.05727 0.0
C389 C 0.168 0.73414 0.07367 0.0
N390 N 0.06435 0.75132 0.08947 0.0
C391 C 0.07313 0.80663 0.07306 0.0
C392 C 0.11056 0.71472 0.08957 0.0
C393 C 0.17802 0.79145 0.05762 0.0
C394 C 0.77372 0.6279 0.13777 0.0
N395 N 0.77886 0.68817 0.12647 0.0
C396 C 0.72741 0.57814 0.12629 0.0
C397 C 0.68614 0.59044 0.10311 0.0
C398 C 0.69163 0.65206 0.09172 0.0
C399 C 0.73859 0.70061 0.10372 0.0
C400 C 0.68229 0.82835 0.16768 0.0
C401 C 0.79764 0.87231 0.13832 0.0
C402 C 0.72665 0.7887 0.16303 0.0
N403 N 0.78336 0.8108 0.14838 0.0
C404 C 0.75449 0.91334 0.14258 0.0
C405 C 0.69642 0.89106 0.15735 0.0
C406 C 0.96781 0.84713 0.14687 0.0
C407 C 0.04626 0.63849 0.19114 0.0
C408 C 0.08658 0.75029 0.15896 0.0
C409 C 0.11994 0.73807 0.18529 0.0
C410 C 0.09944 0.68181 0.2015 0.0
N411 N 0.03433 0.70774 0.14897 0.0
C412 C 0.01418 0.6523 0.16469 0.0
Co413 Co 0.25881 0.34692 0.39167 0.0
Co414 Co 0.24566 0.48805 0.42665 0.0
O415 O 0.21049 0.41468 0.40049 0.0
C416 C 0.21042 0.3761 0.32935 0.0
O417 O 0.21953 0.4367 0.33666 0.0
C418 C 0.11187 0.44724 0.45043 0.0
O419 O 0.12017 0.38797 0.45036 0.0
O420 O 0.26086 0.42992 0.46077 0.0
O421 O 0.29769 0.35447 0.43414 0.0
H422 H 0.40782 0.6132 0.49856 0.0
H423 H 0.11893 0.32306 0.38073 0.0
O424 O 0.22218 0.33541 0.34882 0.0
H425 H 0.15299 0.16305 0.4573 0.0
H426 H 0.28754 0.13535 0.34826 0.0
H427 H 0.39271 0.33087 0.40185 0.0
H428 H 0.24456 0.23905 0.43628 0.0
H429 H 0.22704 0.21962 0.36098 0.0
O430 O 0.15788 0.4916 0.44278 0.0
H431 H 0.36118 0.52151 0.46597 0.0
H432 H 0.20415 0.60968 0.44366 0.0
H433 H 0.45495 0.24768 0.38981 0.0
H434 H 0.02596 0.2476 0.40097 0.0
H435 H 0.40232 0.14897 0.3628 0.0
H436 H 0.04273 0.167 0.43961 0.0
O437 O 0.33248 0.41085 0.37603 0.0
H438 H 0.11618 0.56497 0.34294 0.0
H439 H 0.32476 0.60147 0.39614 0.0
H440 H 0.30739 0.67167 0.35335 0.0
H441 H 0.20234 0.65379 0.3265 0.0
H442 H 0.13604 0.49519 0.38548 0.0
H443 H 0.24876 0.70202 0.47634 0.0
H444 H 0.35172 0.70453 0.50374 0.0
O445 O 0.33398 0.48889 0.41071 0.0
C446 C 0.29037 0.38311 0.4594 0.0
C447 C 0.36308 0.61282 0.48661 0.0
C448 C 0.27376 0.66261 0.47416 0.0
N449 N 0.28019 0.56036 0.45274 0.0
C450 C 0.33644 0.56103 0.46808 0.0
C451 C 0.24858 0.61005 0.4558 0.0
C452 C 0.33154 0.664 0.48953 0.0
C453 C 0.12662 0.28767 0.39729 0.0
N454 N 0.18708 0.2853 0.4072 0.0
C455 C 0.0738 0.24524 0.40877 0.0
C456 C 0.08323 0.20012 0.4305 0.0
C457 C 0.14507 0.19792 0.44045 0.0
C458 C 0.19673 0.2412 0.42852 0.0
C459 C 0.31096 0.17799 0.36015 0.0
C460 C 0.36936 0.28788 0.39031 0.0
C461 C 0.27695 0.22591 0.36741 0.0
N462 N 0.30616 0.2799 0.38247 0.0
C463 C 0.40489 0.24099 0.38347 0.0
C464 C 0.37536 0.18568 0.3683 0.0
C465 C 0.36018 0.46222 0.38916 0.0
C466 C 0.16212 0.57333 0.35449 0.0
C467 C 0.27919 0.59293 0.38439 0.0
C468 C 0.26949 0.63308 0.36027 0.0
C469 C 0.21052 0.62308 0.34525 0.0
N470 N 0.23153 0.54418 0.39333 0.0
C471 C 0.17357 0.53414 0.37871 0.0
C472 C 0.13063 0.20773 0.01836 0.0
C473 C 0.14856 0.18359 0.04645 0.0
C474 C 0.15618 0.19155 0.99014 0.0
C475 C 0.20008 0.14951 0.98855 0.0
H476 H 0.09718 0.24014 0.01819 0.0
H477 H 0.14074 0.21202 0.96934 0.0
S478 S 0.25899 0.06939 0.05545 0.0
N479 N 0.21083 0.11317 0.07069 0.0
N480 N 0.2582 0.08245 0.01804 0.0
C481 C 0.21741 0.12415 1.0165 0.0
C482 C 0.19192 0.14125 0.04524 0.0
C483 C 0.744 0.66738 0.27134 0.0
C484 C 0.78206 0.66202 0.29736 0.0
C485 C 0.77128 0.68321 0.24236 0.0
C486 C 0.83812 0.69479 0.2379 0.0
H487 H 0.69237 0.66042 0.27335 0.0
H488 H 0.73931 0.68763 0.22341 0.0
S489 S 0.95958 0.68288 0.29803 0.0
N490 N 0.89048 0.66647 0.31641 0.0
N491 N 0.94181 0.69629 0.26192 0.0
C492 C 0.87691 0.68753 0.26348 0.0
C493 C 0.84894 0.67112 0.29313 0.0
C494 C 0.3298 0.36443 0.54447 0.0
C495 C 0.37238 0.32112 0.5441 0.0
C496 C 0.3041 0.38443 0.51718 0.0
C497 C 0.31898 0.36149 0.48816 0.0
H498 H 0.31611 0.38344 0.56608 0.0
H499 H 0.27178 0.41779 0.51899 0.0
S500 S 0.42834 0.24718 0.47433 0.0
N501 N 0.42876 0.25646 0.51208 0.0
N502 N 0.38018 0.29284 0.46103 0.0
C503 C 0.3618 0.31824 0.48749 0.0
C504 C 0.38856 0.29849 0.5153 0.0
C505 C 0.76608 0.8424 0.76732 0.0
C506 C 0.72832 0.83607 0.79416 0.0
C507 C 0.73896 0.82809 0.73813 0.0
C508 C 0.67262 0.80627 0.73424 0.0
H509 H 0.81756 0.85756 0.76879 0.0
H510 H 0.77095 0.83289 0.71852 0.0
S511 S 0.55131 0.78564 0.79683 0.0
N512 N 0.62013 0.80971 0.81478 0.0
N513 N 0.56909 0.78258 0.75988 0.0
C514 C 0.63374 0.80177 0.76076 0.0
C515 C 0.66152 0.81674 0.79064 0.0
C516 C 0.14338 0.38336 0.28217 0.0
C517 C 0.18777 0.35418 0.29803 0.0
C518 C 0.12055 0.36184 0.25279 0.0
C519 C 0.14254 0.31142 0.23787 0.0
H520 H 0.12551 0.42255 0.2927 0.0
H521 H 0.08643 0.38575 0.24144 0.0
S522 S 0.26018 0.22022 0.26925 0.0
N523 N 0.25323 0.27258 0.29647 0.0
N524 N 0.21167 0.23321 0.24131 0.0
C525 C 0.18738 0.28233 0.25344 0.0
C526 C 0.20961 0.30339 0.28348 0.0
C527 C 0.68882 0.72679 0.52615 0.0
C528 C 0.63613 0.69444 0.54297 0.0
C529 C 0.71264 0.69856 0.50043 0.0
C530 C 0.68625 0.6359 0.49103 0.0
H531 H 0.71208 0.77426 0.53308 0.0
H532 H 0.7528 0.72584 0.48807 0.0
S533 S 0.54883 0.52998 0.5282 0.0
N534 N 0.55885 0.59614 0.54885 0.0
N535 N 0.6042 0.54253 0.50105 0.0
C536 C 0.63397 0.60278 0.50799 0.0
C537 C 0.60879 0.63217 0.53377 0.0
C538 C 0.36639 0.14685 0.75031 0.0
C539 C 0.35528 0.20229 0.73562 0.0
C540 C 0.34001 0.12897 0.77941 0.0
C541 C 0.3029 0.1667 0.79525 0.0
H542 H 0.39453 0.11627 0.73898 0.0
H543 H 0.3494 0.08561 0.78973 0.0
S544 S 0.26075 0.31712 0.76717 0.0
N545 N 0.30466 0.29496 0.73926 0.0
N546 N 0.25674 0.26225 0.79412 0.0
C547 C 0.2923 0.22274 0.78103 0.0
C548 C 0.31799 0.24025 0.75118 0.0
C549 C 0.84294 0.85673 0.04548 0.0
C550 C 0.87104 0.80202 0.04568 0.0
C551 C 0.82035 0.8798 0.01817 0.0
C552 C 0.82379 0.84878 0.98969 0.0
H553 H 0.83828 0.88228 0.0667 0.0
H554 H 0.79944 0.92214 0.01958 0.0
S555 S 0.89331 0.70325 0.97762 0.0
N556 N 0.90177 0.71778 1.01491 0.0
N557 N 0.85851 0.75985 0.96372 0.0
C558 C 0.85217 0.794 0.98959 0.0
C559 C 0.87604 0.77109 1.01744 0.0
C560 C 0.98932 0.0222 0.16889 0.0
C561 C 0.0486 0.04838 0.15544 0.0
C562 C 0.96532 0.95635 0.16809 0.0
C563 C 0.9994 0.91431 0.15334 0.0
H564 H 0.9597 0.05318 0.17866 0.0
H565 H 0.91804 0.93901 0.17744 0.0
S566 S 0.16032 0.95951 0.11717 0.0
N567 N 0.14266 0.02735 0.12908 0.0
N568 N 0.09911 0.90436 0.12764 0.0
C569 C 0.06097 0.93997 0.14177 0.0
C570 C 0.08517 0.00681 0.14278 0.0
C571 C 0.04084 0.528 0.45609 0.0
C572 C 0.04752 0.46359 0.45601 0.0
C573 C 0.9805 0.54543 0.4576 0.0
C574 C 0.92383 0.49931 0.45898 0.0
H575 H 0.0825 0.56568 0.45402 0.0
H576 H 0.97841 0.59556 0.45634 0.0
S577 S 0.91459 0.3242 0.46287 0.0
N578 N 0.99192 0.3536 0.45996 0.0
N579 N 0.87876 0.38623 0.46296 0.0
C580 C 0.92987 0.43481 0.46058 0.0
C581 C 0.99149 0.41702 0.45906 0.0
C582 C 0.56262 0.47354 0.63937 0.0
C583 C 0.50154 0.44644 0.65101 0.0
C584 C 0.58656 0.53893 0.64129 0.0
C585 C 0.55012 0.5801 0.65453 0.0
H586 H 0.59119 0.4448 0.62708 0.0
H587 H 0.63156 0.55774 0.63006 0.0
S588 S 0.39237 0.53391 0.69274 0.0
N589 N 0.40892 0.46608 0.6799 0.0
N590 N 0.45391 0.58949 0.68282 0.0
C591 C 0.49136 0.55369 0.66832 0.0
C592 C 0.4671 0.48676 0.66676 0.0
C593 C 0.55152 0.00266 0.98008 0.0
C594 C 0.56961 0.96543 0.95606 0.0
C595 C 0.49138 0.0213 0.97986 0.0
C596 C 0.44866 0.00549 0.95499 0.0
H597 H 0.58402 0.01741 0.99908 0.0
H598 H 0.47882 0.04936 0.99893 0.0
S599 S 0.47567 0.91031 0.88602 0.0
N600 N 0.54099 0.91379 0.90694 0.0
N601 N 0.42983 0.95033 0.90569 0.0
C602 C 0.4671 0.96881 0.93073 0.0
C603 C 0.52715 0.94846 0.93147 0.0
C604 C 0.01842 0.52257 0.07937 0.0
C605 C 0.95447 0.52724 0.08586 0.0
C606 C 0.03805 0.46363 0.07834 0.0
C607 C 0.99471 0.40644 0.0838 0.0
H608 H 0.05438 0.56509 0.07586 0.0
H609 H 0.08826 0.46335 0.07428 0.0
S610 S 0.82045 0.39172 0.09942 0.0
N611 N 0.8469 0.46905 0.09597 0.0
N612 N 0.88336 0.35815 0.09394 0.0
C613 C 0.92981 0.41009 0.08883 0.0
C614 C 0.90981 0.47039 0.08983 0.0
C615 C 0.45673 0.54861 0.39536 0.0
C616 C 0.42837 0.48956 0.3821 0.0
C617 C 0.52308 0.57024 0.3949 0.0
C618 C 0.56368 0.53341 0.38146 0.0
H619 H 0.42808 0.57696 0.40787 0.0
H620 H 0.54292 0.61346 0.40736 0.0
S621 S 0.51476 0.38192 0.33865 0.0
N622 N 0.4467 0.39993 0.35074 0.0
N623 N 0.57179 0.43984 0.35114 0.0
C624 C 0.53627 0.4772 0.36592 0.0
C625 C 0.46847 0.45556 0.36582 0.0
C626 C 0.44049 0.0097 0.58527 0.0
C627 C 0.4857 0.06602 0.5809 0.0
C628 C 0.45874 0.94994 0.58495 0.0
C629 C 0.52298 0.94379 0.58013 0.0
H630 H 0.39106 0.01177 0.59038 0.0
H631 H 0.42226 0.90842 0.58963 0.0
S632 S 0.65846 0.07623 0.56331 0.0
N633 N 0.59644 0.11133 0.5683 0.0
N634 N 0.63073 0.99945 0.56802 0.0
C635 C 0.56795 0.9995 0.57389 0.0
C636 C 0.54934 0.06039 0.57423 0.0
C637 C 0.98636 0.94054 0.89561 0.0
C638 C 0.94191 0.97451 0.88355 0.0
C639 C 0.05178 0.96664 0.89573 0.0
C640 C 0.07543 0.02778 0.88365 0.0
H641 H 0.97028 0.8954 0.90698 0.0
H642 H 0.08349 0.93957 0.9068 0.0
S643 S 0.97771 0.13197 0.84559 0.0
N644 N 0.92509 0.06909 0.85666 0.0
N645 N 0.04846 0.11836 0.8562 0.0
C646 C 0.03141 0.06023 0.86948 0.0
C647 C 0.96452 0.03364 0.86972 0.0
loop_
_geom_bond_atom_site_label_1
_geom_bond_atom_site_label_2
_geom_bond_distance
_geom_bond_site_symmetry_2
_ccdc_geom_bond_type
Co0 O2 2.143 . S
Co0 O8 2.074 . S
Co0 O11 2.093 . S
Co0 O24 2.097 . S
Co0 N41 2.151 . S
Co0 N49 2.214 . S
Co1 O2 2.160 . S
Co1 O7 2.058 . S
Co1 O17 2.057 . S
Co1 O32 2.037 . S
Co1 N36 2.145 1_455 S
Co1 N57 2.257 1_455 S
O2 Co0 2.143 . S
O2 Co1 2.160 . S
C3 O4 1.278 . S
C3 O11 1.224 . S
O4 C3 1.278 . S
C5 O6 1.245 . S
C5 O17 1.232 . S
O6 C5 1.245 . S
O7 Co1 2.058 . S
O7 C33 1.269 . S
O8 Co0 2.074 . S
O8 C33 1.257 . S
H9 C34 0.930 . S
H10 C40 0.930 . S
O11 Co0 2.093 . S
O11 C3 1.224 . S
H12 C44 0.929 . S
H13 C46 0.930 . S
H14 C47 0.930 . S
H15 C45 0.929 . S
H16 C48 0.928 . S
O17 Co1 2.057 . S
O17 C5 1.232 . S
H18 C37 0.929 1_455 S
H19 C38 0.929 . S
H20 C50 0.931 . S
H21 C42 0.929 . S
H22 C51 0.930 . S
H23 C43 0.931 . S
O24 Co0 2.097 . S
O24 C52 1.214 . S
H25 C53 0.929 . S
H26 C54 0.929 . S
H27 C55 0.930 . S
H28 C56 0.929 . S
H29 C58 0.930 1_455 S
H30 C35 0.930 . S
H31 C39 0.930 . S
O32 Co1 2.037 . S
O32 C52 1.234 . S
C33 O7 1.269 . S
C33 O8 1.257 . S
C34 H9 0.930 . S
C34 C37 1.388 . S
C34 C39 1.418 . S
C35 H30 0.930 . S
C35 C38 1.404 . S
C35 C39 1.353 . S
N36 Co1 2.145 1_655 S
N36 C37 1.397 . S
N36 C38 1.334 . S
C37 H18 0.929 1_655 S
C37 C34 1.388 . S
C37 N36 1.397 . S
C38 H19 0.929 . S
C38 C35 1.404 . S
C38 N36 1.334 . S
C39 H31 0.930 . S
C39 C34 1.418 . S
C39 C35 1.353 . S
C40 H10 0.930 . S
C40 N41 1.330 . S
C40 C42 1.446 . S
N41 Co0 2.151 . S
N41 C40 1.330 . S
N41 C45 1.418 . S
C42 H21 0.929 . S
C42 C40 1.446 . S
C42 C43 1.332 . S
C43 H23 0.931 . S
C43 C42 1.332 . S
C43 C44 1.267 . S
C44 H12 0.929 . S
C44 C43 1.267 . S
C44 C45 1.251 . S
C45 H15 0.929 . S
C45 N41 1.418 . S
C45 C44 1.251 . S
C46 H13 0.930 . S
C46 C48 1.406 . S
C46 C51 1.261 . S
C47 H14 0.930 . S
C47 N49 1.325 . S
C47 C50 1.357 . S
C48 H16 0.928 . S
C48 C46 1.406 . S
C48 N49 1.261 . S
N49 Co0 2.214 . S
N49 C47 1.325 . S
N49 C48 1.261 . S
C50 H20 0.931 . S
C50 C47 1.357 . S
C50 C51 1.312 . S
C51 H22 0.930 . S
C51 C46 1.261 . S
C51 C50 1.312 . S
C52 O24 1.214 . S
C52 O32 1.234 . S
C53 H25 0.929 . S
C53 C56 1.391 . S
C53 C58 1.391 . S
C54 H26 0.929 . S
C54 C55 1.390 . S
C54 N57 1.391 . S
C55 H27 0.930 . S
C55 C54 1.390 . S
C55 C56 1.392 . S
C56 H28 0.929 . S
C56 C53 1.391 . S
C56 C55 1.392 . S
N57 Co1 2.257 1_655 S
N57 C54 1.391 . S
N57 C58 1.388 . S
C58 H29 0.930 1_655 S
C58 C53 1.391 . S
C58 N57 1.388 . S
Co59 O61 2.143 . S
Co59 O67 2.074 . S
Co59 O70 2.093 . S
Co59 O83 2.097 . S
Co59 N100 2.151 . S
Co59 N108 2.214 . S
Co60 O61 2.160 . S
Co60 O66 2.058 . S
Co60 O76 2.057 . S
Co60 O91 2.037 . S
Co60 N95 2.145 . S
Co60 N116 2.257 . S
O61 Co59 2.143 . S
O61 Co60 2.160 . S
C62 O63 1.278 . S
C62 O70 1.224 . S
O63 C62 1.278 . S
C64 O65 1.245 . S
C64 O76 1.232 . S
O65 C64 1.245 . S
O66 Co60 2.058 . S
O66 C92 1.269 . S
O67 Co59 2.074 . S
O67 C92 1.257 . S
H68 C93 0.930 . S
H69 C99 0.930 . S
O70 Co59 2.093 . S
O70 C62 1.224 . S
H71 C103 0.929 . S
H72 C105 0.930 . S
H73 C106 0.930 . S
H74 C104 0.929 . S
H75 C107 0.928 . S
O76 Co60 2.057 . S
O76 C64 1.232 . S
H77 C96 0.929 . S
H78 C97 0.929 . S
H79 C109 0.931 . S
H80 C101 0.929 . S
H81 C110 0.930 . S
H82 C102 0.931 . S
O83 Co59 2.097 . S
O83 C111 1.214 . S
H84 C112 0.929 . S
H85 C113 0.929 . S
H86 C114 0.930 . S
H87 C115 0.929 . S
H88 C117 0.930 . S
H89 C94 0.930 . S
H90 C98 0.930 . S
O91 Co60 2.037 . S
O91 C111 1.234 . S
C92 O66 1.269 . S
C92 O67 1.257 . S
C93 H68 0.930 . S
C93 C96 1.388 . S
C93 C98 1.418 . S
C94 H89 0.930 . S
C94 C97 1.404 . S
C94 C98 1.353 . S
N95 Co60 2.145 . S
N95 C96 1.397 . S
N95 C97 1.334 . S
C96 H77 0.929 . S
C96 C93 1.388 . S
C96 N95 1.397 . S
C97 H78 0.929 . S
C97 C94 1.404 . S
C97 N95 1.334 . S
C98 H90 0.930 . S
C98 C93 1.418 . S
C98 C94 1.353 . S
C99 H69 0.930 . S
C99 N100 1.330 . S
C99 C101 1.446 . S
N100 Co59 2.151 . S
N100 C99 1.330 . S
N100 C104 1.418 . S
C101 H80 0.929 . S
C101 C99 1.446 . S
C101 C102 1.332 . S
C102 H82 0.931 . S
C102 C101 1.332 . S
C102 C103 1.267 . S
C103 H71 0.929 . S
C103 C102 1.267 . S
C103 C104 1.251 . S
C104 H74 0.929 . S
C104 N100 1.418 . S
C104 C103 1.251 . S
C105 H72 0.930 . S
C105 C107 1.406 . S
C105 C110 1.261 . S
C106 H73 0.930 . S
C106 N108 1.325 . S
C106 C109 1.357 . S
C107 H75 0.928 . S
C107 C105 1.406 . S
C107 N108 1.261 . S
N108 Co59 2.214 . S
N108 C106 1.325 . S
N108 C107 1.261 . S
C109 H79 0.931 . S
C109 C106 1.357 . S
C109 C110 1.312 . S
C110 H81 0.930 . S
C110 C105 1.261 . S
C110 C109 1.312 . S
C111 O83 1.214 . S
C111 O91 1.234 . S
C112 H84 0.929 . S
C112 C115 1.391 . S
C112 C117 1.391 . S
C113 H85 0.929 . S
C113 C114 1.390 . S
C113 N116 1.391 . S
C114 H86 0.930 . S
C114 C113 1.390 . S
C114 C115 1.392 . S
C115 H87 0.929 . S
C115 C112 1.391 . S
C115 C114 1.392 . S
N116 Co60 2.257 . S
N116 C113 1.391 . S
N116 C117 1.388 . S
C117 H88 0.930 . S
C117 C112 1.391 . S
C117 N116 1.388 . S
Co118 O120 2.143 . S
Co118 O126 2.074 . S
Co118 O129 2.093 . S
Co118 O142 2.097 . S
Co118 N159 2.151 . S
Co118 N167 2.214 . S
Co119 O120 2.160 . S
Co119 O125 2.058 . S
Co119 O135 2.057 . S
Co119 O150 2.037 . S
Co119 N154 2.145 . S
Co119 N175 2.257 . S
O120 Co118 2.143 . S
O120 Co119 2.160 . S
C121 O122 1.278 . S
C121 O129 1.224 . S
O122 C121 1.278 . S
C123 O124 1.245 . S
C123 O135 1.232 . S
O124 C123 1.245 . S
O125 Co119 2.058 . S
O125 C151 1.269 . S
O126 Co118 2.074 . S
O126 C151 1.257 . S
H127 C152 0.930 . S
H128 C158 0.930 . S
O129 Co118 2.093 . S
O129 C121 1.224 . S
H130 C162 0.929 . S
H131 C164 0.930 . S
H132 C165 0.930 . S
H133 C163 0.929 . S
H134 C166 0.928 . S
O135 Co119 2.057 . S
O135 C123 1.232 . S
H136 C155 0.929 . S
H137 C156 0.929 . S
H138 C168 0.931 . S
H139 C160 0.929 . S
H140 C169 0.930 . S
H141 C161 0.931 . S
O142 Co118 2.097 . S
O142 C170 1.214 . S
H143 C171 0.929 . S
H144 C172 0.929 . S
H145 C173 0.930 . S
H146 C174 0.929 . S
H147 C176 0.930 . S
H148 C153 0.930 . S
H149 C157 0.930 . S
O150 Co119 2.037 . S
O150 C170 1.234 . S
C151 O125 1.269 . S
C151 O126 1.257 . S
C152 H127 0.930 . S
C152 C155 1.388 . S
C152 C157 1.418 . S
C153 H148 0.930 . S
C153 C156 1.404 . S
C153 C157 1.353 . S
N154 Co119 2.145 . S
N154 C155 1.397 . S
N154 C156 1.334 . S
C155 H136 0.929 . S
C155 C152 1.388 . S
C155 N154 1.397 . S
C156 H137 0.929 . S
C156 C153 1.404 . S
C156 N154 1.334 . S
C157 H149 0.930 . S
C157 C152 1.418 . S
C157 C153 1.353 . S
C158 H128 0.930 . S
C158 N159 1.330 . S
C158 C160 1.446 . S
N159 Co118 2.151 . S
N159 C158 1.330 . S
N159 C163 1.418 . S
C160 H139 0.929 . S
C160 C158 1.446 . S
C160 C161 1.332 . S
C161 H141 0.931 . S
C161 C160 1.332 . S
C161 C162 1.267 . S
C162 H130 0.929 . S
C162 C161 1.267 . S
C162 C163 1.251 . S
C163 H133 0.929 . S
C163 N159 1.418 . S
C163 C162 1.251 . S
C164 H131 0.930 . S
C164 C166 1.406 . S
C164 C169 1.261 . S
C165 H132 0.930 . S
C165 N167 1.325 . S
C165 C168 1.357 . S
C166 H134 0.928 . S
C166 C164 1.406 . S
C166 N167 1.261 . S
N167 Co118 2.214 . S
N167 C165 1.325 . S
N167 C166 1.261 . S
C168 H138 0.931 . S
C168 C165 1.357 . S
C168 C169 1.312 . S
C169 H140 0.930 . S
C169 C164 1.261 . S
C169 C168 1.312 . S
C170 O142 1.214 . S
C170 O150 1.234 . S
C171 H143 0.929 . S
C171 C174 1.391 . S
C171 C176 1.391 . S
C172 H144 0.929 . S
C172 C173 1.390 . S
C172 N175 1.391 . S
C173 H145 0.930 . S
C173 C172 1.390 . S
C173 C174 1.392 . S
C174 H146 0.929 . S
C174 C171 1.391 . S
C174 C173 1.392 . S
N175 Co119 2.257 . S
N175 C172 1.391 . S
N175 C176 1.388 . S
C176 H147 0.930 . S
C176 C171 1.391 . S
C176 N175 1.388 . S
Co177 O179 2.143 . S
Co177 O185 2.074 . S
Co177 O188 2.093 . S
Co177 O201 2.097 . S
Co177 N218 2.151 . S
Co177 N226 2.214 . S
Co178 O179 2.160 . S
Co178 O184 2.058 . S
Co178 O194 2.057 . S
Co178 O209 2.037 . S
Co178 N213 2.145 1_565 S
Co178 N234 2.257 1_565 S
O179 Co177 2.143 . S
O179 Co178 2.160 . S
C180 O181 1.278 . S
C180 O188 1.224 . S
O181 C180 1.278 . S
C182 O183 1.245 . S
C182 O194 1.232 . S
O183 C182 1.245 . S
O184 Co178 2.058 . S
O184 C210 1.269 . S
O185 Co177 2.074 . S
O185 C210 1.257 . S
H186 C211 0.930 . S
H187 C217 0.930 . S
O188 Co177 2.093 . S
O188 C180 1.224 . S
H189 C221 0.929 . S
H190 C223 0.930 . S
H191 C224 0.930 . S
H192 C222 0.929 . S
H193 C225 0.928 . S
O194 Co178 2.057 . S
O194 C182 1.232 . S
H195 C214 0.929 1_565 S
H196 C215 0.929 . S
H197 C227 0.931 . S
H198 C219 0.929 . S
H199 C228 0.930 . S
H200 C220 0.931 . S
O201 Co177 2.097 . S
O201 C229 1.214 . S
H202 C230 0.929 . S
H203 C231 0.929 . S
H204 C232 0.930 . S
H205 C233 0.929 . S
H206 C235 0.930 1_565 S
H207 C212 0.930 . S
H208 C216 0.930 . S
O209 Co178 2.037 . S
O209 C229 1.234 . S
C210 O184 1.269 . S
C210 O185 1.257 . S
C211 H186 0.930 . S
C211 C214 1.388 . S
C211 C216 1.418 . S
C212 H207 0.930 . S
C212 C215 1.404 . S
C212 C216 1.353 . S
N213 Co178 2.145 1_545 S
N213 C214 1.397 . S
N213 C215 1.334 . S
C214 H195 0.929 1_545 S
C214 C211 1.388 . S
C214 N213 1.397 . S
C215 H196 0.929 . S
C215 C212 1.404 . S
C215 N213 1.334 . S
C216 H208 0.930 . S
C216 C211 1.418 . S
C216 C212 1.353 . S
C217 H187 0.930 . S
C217 N218 1.330 . S
C217 C219 1.446 . S
N218 Co177 2.151 . S
N218 C217 1.330 . S
N218 C222 1.418 . S
C219 H198 0.929 . S
C219 C217 1.446 . S
C219 C220 1.332 . S
C220 H200 0.931 . S
C220 C219 1.332 . S
C220 C221 1.267 . S
C221 H189 0.929 . S
C221 C220 1.267 . S
C221 C222 1.251 . S
C222 H192 0.929 . S
C222 N218 1.418 . S
C222 C221 1.251 . S
C223 H190 0.930 . S
C223 C225 1.406 . S
C223 C228 1.261 . S
C224 H191 0.930 . S
C224 N226 1.325 . S
C224 C227 1.357 . S
C225 H193 0.928 . S
C225 C223 1.406 . S
C225 N226 1.261 . S
N226 Co177 2.214 . S
N226 C224 1.325 . S
N226 C225 1.261 . S
C227 H197 0.931 . S
C227 C224 1.357 . S
C227 C228 1.312 . S
C228 H199 0.930 . S
C228 C223 1.261 . S
C228 C227 1.312 . S
C229 O201 1.214 . S
C229 O209 1.234 . S
C230 H202 0.929 . S
C230 C233 1.391 . S
C230 C235 1.391 . S
C231 H203 0.929 . S
C231 C232 1.390 . S
C231 N234 1.391 . S
C232 H204 0.930 . S
C232 C231 1.390 . S
C232 C233 1.392 . S
C233 H205 0.929 . S
C233 C230 1.391 . S
C233 C232 1.392 . S
N234 Co178 2.257 1_545 S
N234 C231 1.391 . S
N234 C235 1.388 . S
C235 H206 0.930 1_545 S
C235 C230 1.391 . S
C235 N234 1.388 . S
Co236 O238 2.143 . S
Co236 O244 2.074 . S
Co236 O247 2.093 . S
Co236 O260 2.097 . S
Co236 N277 2.151 . S
Co236 N285 2.214 . S
Co237 O238 2.160 . S
Co237 O243 2.058 . S
Co237 O253 2.057 . S
Co237 O268 2.037 . S
Co237 N272 2.145 . S
Co237 N293 2.257 . S
O238 Co236 2.143 . S
O238 Co237 2.160 . S
C239 O240 1.278 . S
C239 O247 1.224 . S
O240 C239 1.278 . S
C241 O242 1.245 . S
C241 O253 1.232 . S
O242 C241 1.245 . S
O243 Co237 2.058 . S
O243 C269 1.269 . S
O244 Co236 2.074 . S
O244 C269 1.257 . S
H245 C270 0.930 . S
H246 C276 0.930 . S
O247 Co236 2.093 . S
O247 C239 1.224 . S
H248 C280 0.929 . S
H249 C282 0.930 . S
H250 C283 0.930 . S
H251 C281 0.929 . S
H252 C284 0.928 . S
O253 Co237 2.057 . S
O253 C241 1.232 . S
H254 C273 0.929 . S
H255 C274 0.929 . S
H256 C286 0.931 . S
H257 C278 0.929 . S
H258 C287 0.930 . S
H259 C279 0.931 . S
O260 Co236 2.097 . S
O260 C288 1.214 . S
H261 C289 0.929 . S
H262 C290 0.929 . S
H263 C291 0.930 . S
H264 C292 0.929 . S
H265 C294 0.930 . S
H266 C271 0.930 . S
H267 C275 0.930 . S
O268 Co237 2.037 . S
O268 C288 1.234 . S
C269 O243 1.269 . S
C269 O244 1.257 . S
C270 H245 0.930 . S
C270 C273 1.388 . S
C270 C275 1.418 . S
C271 H266 0.930 . S
C271 C274 1.404 . S
C271 C275 1.353 . S
N272 Co237 2.145 . S
N272 C273 1.397 . S
N272 C274 1.334 . S
C273 H254 0.929 . S
C273 C270 1.388 . S
C273 N272 1.397 . S
C274 H255 0.929 . S
C274 C271 1.404 . S
C274 N272 1.334 . S
C275 H267 0.930 . S
C275 C270 1.418 . S
C275 C271 1.353 . S
C276 H246 0.930 . S
C276 N277 1.330 . S
C276 C278 1.446 . S
N277 Co236 2.151 . S
N277 C276 1.330 . S
N277 C281 1.418 . S
C278 H257 0.929 . S
C278 C276 1.446 . S
C278 C279 1.332 . S
C279 H259 0.931 . S
C279 C278 1.332 . S
C279 C280 1.267 . S
C280 H248 0.929 . S
C280 C279 1.267 . S
C280 C281 1.251 . S
C281 H251 0.929 . S
C281 N277 1.418 . S
C281 C280 1.251 . S
C282 H249 0.930 . S
C282 C284 1.406 . S
C282 C287 1.261 . S
C283 H250 0.930 . S
C283 N285 1.325 . S
C283 C286 1.357 . S
C284 H252 0.928 . S
C284 C282 1.406 . S
C284 N285 1.261 . S
N285 Co236 2.214 . S
N285 C283 1.325 . S
N285 C284 1.261 . S
C286 H256 0.931 . S
C286 C283 1.357 . S
C286 C287 1.312 . S
C287 H258 0.930 . S
C287 C282 1.261 . S
C287 C286 1.312 . S
C288 O260 1.214 . S
C288 O268 1.234 . S
C289 H261 0.929 . S
C289 C292 1.391 . S
C289 C294 1.391 . S
C290 H262 0.929 . S
C290 C291 1.390 . S
C290 N293 1.391 . S
C291 H263 0.930 . S
C291 C290 1.390 . S
C291 C292 1.392 . S
C292 H264 0.929 . S
C292 C289 1.391 . S
C292 C291 1.392 . S
N293 Co237 2.257 . S
N293 C290 1.391 . S
N293 C294 1.388 . S
C294 H265 0.930 . S
C294 C289 1.391 . S
C294 N293 1.388 . S
Co295 O297 2.143 . S
Co295 O303 2.074 . S
Co295 O306 2.093 . S
Co295 O319 2.097 . S
Co295 N336 2.151 . S
Co295 N344 2.214 . S
Co296 O297 2.160 . S
Co296 O302 2.058 . S
Co296 O312 2.057 . S
Co296 O327 2.037 . S
Co296 N331 2.145 1_545 S
Co296 N352 2.257 1_545 S
O297 Co295 2.143 . S
O297 Co296 2.160 . S
C298 O299 1.278 . S
C298 O306 1.224 . S
O299 C298 1.278 . S
C300 O301 1.245 . S
C300 O312 1.232 . S
O301 C300 1.245 . S
O302 Co296 2.058 . S
O302 C328 1.269 . S
O303 Co295 2.074 . S
O303 C328 1.257 . S
H304 C329 0.930 . S
H305 C335 0.930 . S
O306 Co295 2.093 . S
O306 C298 1.224 . S
H307 C339 0.929 . S
H308 C341 0.930 . S
H309 C342 0.930 . S
H310 C340 0.929 . S
H311 C343 0.928 . S
O312 Co296 2.057 . S
O312 C300 1.232 . S
H313 C332 0.929 1_545 S
H314 C333 0.929 . S
H315 C345 0.931 . S
H316 C337 0.929 . S
H317 C346 0.930 . S
H318 C338 0.931 . S
O319 Co295 2.097 . S
O319 C347 1.214 . S
H320 C348 0.929 . S
H321 C349 0.929 . S
H322 C350 0.930 . S
H323 C351 0.929 . S
H324 C353 0.930 1_545 S
H325 C330 0.930 . S
H326 C334 0.930 . S
O327 Co296 2.037 . S
O327 C347 1.234 . S
C328 O302 1.269 . S
C328 O303 1.257 . S
C329 H304 0.930 . S
C329 C332 1.388 . S
C329 C334 1.418 . S
C330 H325 0.930 . S
C330 C333 1.404 . S
C330 C334 1.353 . S
N331 Co296 2.145 1_565 S
N331 C332 1.397 . S
N331 C333 1.334 . S
C332 H313 0.929 1_565 S
C332 C329 1.388 . S
C332 N331 1.397 . S
C333 H314 0.929 . S
C333 C330 1.404 . S
C333 N331 1.334 . S
C334 H326 0.930 . S
C334 C329 1.418 . S
C334 C330 1.353 . S
C335 H305 0.930 . S
C335 N336 1.330 . S
C335 C337 1.446 . S
N336 Co295 2.151 . S
N336 C335 1.330 . S
N336 C340 1.418 . S
C337 H316 0.929 . S
C337 C335 1.446 . S
C337 C338 1.332 . S
C338 H318 0.931 . S
C338 C337 1.332 . S
C338 C339 1.267 . S
C339 H307 0.929 . S
C339 C338 1.267 . S
C339 C340 1.251 . S
C340 H310 0.929 . S
C340 N336 1.418 . S
C340 C339 1.251 . S
C341 H308 0.930 . S
C341 C343 1.406 . S
C341 C346 1.261 . S
C342 H309 0.930 . S
C342 N344 1.325 . S
C342 C345 1.357 . S
C343 H311 0.928 . S
C343 C341 1.406 . S
C343 N344 1.261 . S
N344 Co295 2.214 . S
N344 C342 1.325 . S
N344 C343 1.261 . S
C345 H315 0.931 . S
C345 C342 1.357 . S
C345 C346 1.312 . S
C346 H317 0.930 . S
C346 C341 1.261 . S
C346 C345 1.312 . S
C347 O319 1.214 . S
C347 O327 1.234 . S
C348 H320 0.929 . S
C348 C351 1.391 . S
C348 C353 1.391 . S
C349 H321 0.929 . S
C349 C350 1.390 . S
C349 N352 1.391 . S
C350 H322 0.930 . S
C350 C349 1.390 . S
C350 C351 1.392 . S
C351 H323 0.929 . S
C351 C348 1.391 . S
C351 C350 1.392 . S
N352 Co296 2.257 1_565 S
N352 C349 1.391 . S
N352 C353 1.388 . S
C353 H324 0.930 1_565 S
C353 C348 1.391 . S
C353 N352 1.388 . S
Co354 O356 2.143 . S
Co354 O362 2.074 . S
Co354 O365 2.093 . S
Co354 O378 2.097 . S
Co354 N395 2.151 . S
Co354 N403 2.214 . S
Co355 O356 2.160 . S
Co355 O361 2.058 . S
Co355 O371 2.057 . S
Co355 O386 2.037 . S
Co355 N390 2.145 1_655 S
Co355 N411 2.257 1_655 S
O356 Co354 2.143 . S
O356 Co355 2.160 . S
C357 O358 1.278 . S
C357 O365 1.224 . S
O358 C357 1.278 . S
C359 O360 1.245 . S
C359 O371 1.232 . S
O360 C359 1.245 . S
O361 Co355 2.058 . S
O361 C387 1.269 . S
O362 Co354 2.074 . S
O362 C387 1.257 . S
H363 C388 0.930 . S
H364 C394 0.930 . S
O365 Co354 2.093 . S
O365 C357 1.224 . S
H366 C398 0.929 . S
H367 C400 0.930 . S
H368 C401 0.930 . S
H369 C399 0.929 . S
H370 C402 0.928 . S
O371 Co355 2.057 . S
O371 C359 1.232 . S
H372 C391 0.929 1_655 S
H373 C392 0.929 . S
H374 C404 0.931 . S
H375 C396 0.929 . S
H376 C405 0.930 . S
H377 C397 0.931 . S
O378 Co354 2.097 . S
O378 C406 1.214 . S
H379 C407 0.929 . S
H380 C408 0.929 . S
H381 C409 0.930 . S
H382 C410 0.929 . S
H383 C412 0.930 1_655 S
H384 C389 0.930 . S
H385 C393 0.930 . S
O386 Co355 2.037 . S
O386 C406 1.234 . S
C387 O361 1.269 . S
C387 O362 1.257 . S
C388 H363 0.930 . S
C388 C391 1.388 . S
C388 C393 1.418 . S
C389 H384 0.930 . S
C389 C392 1.404 . S
C389 C393 1.353 . S
N390 Co355 2.145 1_455 S
N390 C391 1.397 . S
N390 C392 1.334 . S
C391 H372 0.929 1_455 S
C391 C388 1.388 . S
C391 N390 1.397 . S
C392 H373 0.929 . S
C392 C389 1.404 . S
C392 N390 1.334 . S
C393 H385 0.930 . S
C393 C388 1.418 . S
C393 C389 1.353 . S
C394 H364 0.930 . S
C394 N395 1.330 . S
C394 C396 1.446 . S
N395 Co354 2.151 . S
N395 C394 1.330 . S
N395 C399 1.418 . S
C396 H375 0.929 . S
C396 C394 1.446 . S
C396 C397 1.332 . S
C397 H377 0.931 . S
C397 C396 1.332 . S
C397 C398 1.267 . S
C398 H366 0.929 . S
C398 C397 1.267 . S
C398 C399 1.251 . S
C399 H369 0.929 . S
C399 N395 1.418 . S
C399 C398 1.251 . S
C400 H367 0.930 . S
C400 C402 1.406 . S
C400 C405 1.261 . S
C401 H368 0.930 . S
C401 N403 1.325 . S
C401 C404 1.357 . S
C402 H370 0.928 . S
C402 C400 1.406 . S
C402 N403 1.261 . S
N403 Co354 2.214 . S
N403 C401 1.325 . S
N403 C402 1.261 . S
C404 H374 0.931 . S
C404 C401 1.357 . S
C404 C405 1.312 . S
C405 H376 0.930 . S
C405 C400 1.261 . S
C405 C404 1.312 . S
C406 O378 1.214 . S
C406 O386 1.234 . S
C407 H379 0.929 . S
C407 C410 1.391 . S
C407 C412 1.391 . S
C408 H380 0.929 . S
C408 C409 1.390 . S
C408 N411 1.391 . S
C409 H381 0.930 . S
C409 C408 1.390 . S
C409 C410 1.392 . S
C410 H382 0.929 . S
C410 C407 1.391 . S
C410 C409 1.392 . S
N411 Co355 2.257 1_455 S
N411 C408 1.391 . S
N411 C412 1.388 . S
C412 H383 0.930 1_455 S
C412 C407 1.391 . S
C412 N411 1.388 . S
Co413 O415 2.143 . S
Co413 O421 2.074 . S
Co413 O424 2.093 . S
Co413 O437 2.097 . S
Co413 N454 2.151 . S
Co413 N462 2.214 . S
Co414 O415 2.160 . S
Co414 O420 2.058 . S
Co414 O430 2.057 . S
Co414 O445 2.037 . S
Co414 N449 2.145 . S
Co414 N470 2.257 . S
O415 Co413 2.143 . S
O415 Co414 2.160 . S
C416 O417 1.278 . S
C416 O424 1.224 . S
O417 C416 1.278 . S
C418 O419 1.245 . S
C418 O430 1.232 . S
O419 C418 1.245 . S
O420 Co414 2.058 . S
O420 C446 1.269 . S
O421 Co413 2.074 . S
O421 C446 1.257 . S
H422 C447 0.930 . S
H423 C453 0.930 . S
O424 Co413 2.093 . S
O424 C416 1.224 . S
H425 C457 0.929 . S
H426 C459 0.930 . S
H427 C460 0.930 . S
H428 C458 0.929 . S
H429 C461 0.928 . S
O430 Co414 2.057 . S
O430 C418 1.232 . S
H431 C450 0.929 . S
H432 C451 0.929 . S
H433 C463 0.931 . S
H434 C455 0.929 . S
H435 C464 0.930 . S
H436 C456 0.931 . S
O437 Co413 2.097 . S
O437 C465 1.214 . S
H438 C466 0.929 . S
H439 C467 0.929 . S
H440 C468 0.930 . S
H441 C469 0.929 . S
H442 C471 0.930 . S
H443 C448 0.930 . S
H444 C452 0.930 . S
O445 Co414 2.037 . S
O445 C465 1.234 . S
C446 O420 1.269 . S
C446 O421 1.257 . S
C447 H422 0.930 . S
C447 C450 1.388 . S
C447 C452 1.418 . S
C448 H443 0.930 . S
C448 C451 1.404 . S
C448 C452 1.353 . S
N449 Co414 2.145 . S
N449 C450 1.397 . S
N449 C451 1.334 . S
C450 H431 0.929 . S
C450 C447 1.388 . S
C450 N449 1.397 . S
C451 H432 0.929 . S
C451 C448 1.404 . S
C451 N449 1.334 . S
C452 H444 0.930 . S
C452 C447 1.418 . S
C452 C448 1.353 . S
C453 H423 0.930 . S
C453 N454 1.330 . S
C453 C455 1.446 . S
N454 Co413 2.151 . S
N454 C453 1.330 . S
N454 C458 1.418 . S
C455 H434 0.929 . S
C455 C453 1.446 . S
C455 C456 1.332 . S
C456 H436 0.931 . S
C456 C455 1.332 . S
C456 C457 1.267 . S
C457 H425 0.929 . S
C457 C456 1.267 . S
C457 C458 1.251 . S
C458 H428 0.929 . S
C458 N454 1.418 . S
C458 C457 1.251 . S
C459 H426 0.930 . S
C459 C461 1.406 . S
C459 C464 1.261 . S
C460 H427 0.930 . S
C460 N462 1.325 . S
C460 C463 1.357 . S
C461 H429 0.928 . S
C461 C459 1.406 . S
C461 N462 1.261 . S
N462 Co413 2.214 . S
N462 C460 1.325 . S
N462 C461 1.261 . S
C463 H433 0.931 . S
C463 C460 1.357 . S
C463 C464 1.312 . S
C464 H435 0.930 . S
C464 C459 1.261 . S
C464 C463 1.312 . S
C465 O437 1.214 . S
C465 O445 1.234 . S
C466 H438 0.929 . S
C466 C469 1.391 . S
C466 C471 1.391 . S
C467 H439 0.929 . S
C467 C468 1.390 . S
C467 N470 1.391 . S
C468 H440 0.930 . S
C468 C467 1.390 . S
C468 C469 1.392 . S
C469 H441 0.929 . S
C469 C466 1.391 . S
C469 C468 1.392 . S
N470 Co414 2.257 . S
N470 C467 1.391 . S
N470 C471 1.388 . S
C471 H442 0.930 . S
C471 C466 1.391 . S
C471 N470 1.388 . S
C472 C473 1.369 . S
C472 C474 1.419 1_554 S
C472 H476 0.930 . S
C473 C472 1.369 . S
C473 C482 1.429 . S
C474 C472 1.419 1_556 S
C474 C475 1.363 . S
C474 H477 0.929 . S
C475 C474 1.363 . S
C475 C481 1.428 . S
H476 C472 0.930 . S
H477 C474 0.929 . S
S478 N479 1.613 . S
S478 N480 1.610 1_554 S
N479 S478 1.613 . S
N479 C482 1.350 . S
N480 S478 1.610 1_556 S
N480 C481 1.351 . S
C481 C475 1.428 . S
C481 N480 1.351 . S
C481 C482 1.434 1_556 S
C482 C473 1.429 . S
C482 N479 1.350 . S
C482 C481 1.434 1_554 S
C483 C484 1.369 . S
C483 C485 1.419 . S
C483 H487 0.930 . S
C484 C483 1.369 . S
C484 C493 1.429 . S
C485 C483 1.419 . S
C485 C486 1.363 . S
C485 H488 0.929 . S
C486 C485 1.363 . S
C486 C492 1.428 . S
H487 C483 0.930 . S
H488 C485 0.929 . S
S489 N490 1.613 . S
S489 N491 1.610 . S
N490 S489 1.613 . S
N490 C493 1.350 . S
N491 S489 1.610 . S
N491 C492 1.351 . S
C492 C486 1.428 . S
C492 N491 1.351 . S
C492 C493 1.434 . S
C493 C484 1.429 . S
C493 N490 1.350 . S
C493 C492 1.434 . S
C494 C495 1.369 . S
C494 C496 1.419 . S
C494 H498 0.930 . S
C495 C494 1.369 . S
C495 C504 1.429 . S
C496 C494 1.419 . S
C496 C497 1.363 . S
C496 H499 0.929 . S
C497 C496 1.363 . S
C497 C503 1.428 . S
H498 C494 0.930 . S
H499 C496 0.929 . S
S500 N501 1.613 . S
S500 N502 1.610 . S
N501 S500 1.613 . S
N501 C504 1.350 . S
N502 S500 1.610 . S
N502 C503 1.351 . S
C503 C497 1.428 . S
C503 N502 1.351 . S
C503 C504 1.434 . S
C504 C495 1.429 . S
C504 N501 1.350 . S
C504 C503 1.434 . S
C505 C506 1.369 . S
C505 C507 1.419 . S
C505 H509 0.930 . S
C506 C505 1.369 . S
C506 C515 1.429 . S
C507 C505 1.419 . S
C507 C508 1.363 . S
C507 H510 0.929 . S
C508 C507 1.363 . S
C508 C514 1.428 . S
H509 C505 0.930 . S
H510 C507 0.929 . S
S511 N512 1.613 . S
S511 N513 1.610 . S
N512 S511 1.613 . S
N512 C515 1.350 . S
N513 S511 1.610 . S
N513 C514 1.351 . S
C514 C508 1.428 . S
C514 N513 1.351 . S
C514 C515 1.434 . S
C515 C506 1.429 . S
C515 N512 1.350 . S
C515 C514 1.434 . S
C516 C517 1.369 . S
C516 C518 1.419 . S
C516 H520 0.930 . S
C517 C516 1.369 . S
C517 C526 1.429 . S
C518 C516 1.419 . S
C518 C519 1.363 . S
C518 H521 0.929 . S
C519 C518 1.363 . S
C519 C525 1.428 . S
H520 C516 0.930 . S
H521 C518 0.929 . S
S522 N523 1.613 . S
S522 N524 1.610 . S
N523 S522 1.613 . S
N523 C526 1.350 . S
N524 S522 1.610 . S
N524 C525 1.351 . S
C525 C519 1.428 . S
C525 N524 1.351 . S
C525 C526 1.434 . S
C526 C517 1.429 . S
C526 N523 1.350 . S
C526 C525 1.434 . S
C527 C528 1.369 . S
C527 C529 1.419 . S
C527 H531 0.930 . S
C528 C527 1.369 . S
C528 C537 1.429 . S
C529 C527 1.419 . S
C529 C530 1.363 . S
C529 H532 0.929 . S
C530 C529 1.363 . S
C530 C536 1.428 . S
H531 C527 0.930 . S
H532 C529 0.929 . S
S533 N534 1.613 . S
S533 N535 1.610 . S
N534 S533 1.613 . S
N534 C537 1.350 . S
N535 S533 1.610 . S
N535 C536 1.351 . S
C536 C530 1.428 . S
C536 N535 1.351 . S
C536 C537 1.434 . S
C537 C528 1.429 . S
C537 N534 1.350 . S
C537 C536 1.434 . S
C538 C539 1.369 . S
C538 C540 1.419 . S
C538 H542 0.930 . S
C539 C538 1.369 . S
C539 C548 1.429 . S
C540 C538 1.419 . S
C540 C541 1.363 . S
C540 H543 0.929 . S
C541 C540 1.363 . S
C541 C547 1.428 . S
H542 C538 0.930 . S
H543 C540 0.929 . S
S544 N545 1.613 . S
S544 N546 1.610 . S
N545 S544 1.613 . S
N545 C548 1.350 . S
N546 S544 1.610 . S
N546 C547 1.351 . S
C547 C541 1.428 . S
C547 N546 1.351 . S
C547 C548 1.434 . S
C548 C539 1.429 . S
C548 N545 1.350 . S
C548 C547 1.434 . S
C549 C550 1.369 . S
C549 C551 1.419 1_554 S
C549 H553 0.930 . S
C550 C549 1.369 . S
C550 C559 1.429 . S
C551 C549 1.419 1_556 S
C551 C552 1.363 . S
C551 H554 0.929 . S
C552 C551 1.363 . S
C552 C558 1.428 . S
H553 C549 0.930 . S
H554 C551 0.929 . S
S555 N556 1.613 1_556 S
S555 N557 1.610 . S
N556 S555 1.613 1_554 S
N556 C559 1.350 . S
N557 S555 1.610 . S
N557 C558 1.351 . S
C558 C552 1.428 . S
C558 N557 1.351 . S
C558 C559 1.434 1_556 S
C559 C550 1.429 . S
C559 N556 1.350 . S
C559 C558 1.434 1_554 S
C560 C561 1.369 1_655 S
C560 C562 1.419 1_545 S
C560 H564 0.930 . S
C561 C560 1.369 1_455 S
C561 C570 1.429 . S
C562 C560 1.419 1_565 S
C562 C563 1.363 . S
C562 H565 0.929 . S
C563 C562 1.363 . S
C563 C569 1.428 1_655 S
H564 C560 0.930 . S
H565 C562 0.929 . S
S566 N567 1.613 . S
S566 N568 1.610 . S
N567 S566 1.613 . S
N567 C570 1.350 1_565 S
N568 S566 1.610 . S
N568 C569 1.351 . S
C569 C563 1.428 1_455 S
C569 N568 1.351 . S
C569 C570 1.434 1_565 S
C570 C561 1.429 . S
C570 N567 1.350 1_545 S
C570 C569 1.434 1_545 S
C571 C572 1.369 . S
C571 C573 1.419 . S
C571 H575 0.930 . S
C572 C571 1.369 . S
C572 C581 1.429 1_455 S
C573 C571 1.419 . S
C573 C574 1.363 1_455 S
C573 H576 0.929 . S
C574 C573 1.363 1_655 S
C574 C580 1.428 . S
H575 C571 0.930 . S
H576 C573 0.929 . S
S577 N578 1.613 . S
S577 N579 1.610 . S
N578 S577 1.613 . S
N578 C581 1.350 . S
N579 S577 1.610 . S
N579 C580 1.351 . S
C580 C574 1.428 . S
C580 N579 1.351 . S
C580 C581 1.434 . S
C581 C572 1.429 1_655 S
C581 N578 1.350 . S
C581 C580 1.434 . S
C582 C583 1.369 . S
C582 C584 1.419 . S
C582 H586 0.930 . S
C583 C582 1.369 . S
C583 C592 1.429 . S
C584 C582 1.419 . S
C584 C585 1.363 . S
C584 H587 0.929 . S
C585 C584 1.363 . S
C585 C591 1.428 . S
H586 C582 0.930 . S
H587 C584 0.929 . S
S588 N589 1.613 . S
S588 N590 1.610 . S
N589 S588 1.613 . S
N589 C592 1.350 . S
N590 S588 1.610 . S
N590 C591 1.351 . S
C591 C585 1.428 . S
C591 N590 1.351 . S
C591 C592 1.434 . S
C592 C583 1.429 . S
C592 N589 1.350 . S
C592 C591 1.434 . S
C593 C594 1.369 1_545 S
C593 C595 1.419 . S
C593 H597 0.930 . S
C594 C593 1.369 1_565 S
C594 C603 1.429 . S
C595 C593 1.419 . S
C595 C596 1.363 . S
C595 H598 0.929 . S
C596 C595 1.363 . S
C596 C602 1.428 1_545 S
H597 C593 0.930 . S
H598 C595 0.929 . S
S599 N600 1.613 . S
S599 N601 1.610 . S
N600 S599 1.613 . S
N600 C603 1.350 . S
N601 S599 1.610 . S
N601 C602 1.351 . S
C602 C596 1.428 1_565 S
C602 N601 1.351 . S
C602 C603 1.434 . S
C603 C594 1.429 . S
C603 N600 1.350 . S
C603 C602 1.434 . S
C604 C605 1.369 1_455 S
C604 C606 1.419 . S
C604 H608 0.930 . S
C605 C604 1.369 1_655 S
C605 C614 1.429 . S
C606 C604 1.419 . S
C606 C607 1.363 . S
C606 H609 0.929 . S
C607 C606 1.363 . S
C607 C613 1.428 1_455 S
H608 C604 0.930 . S
H609 C606 0.929 . S
S610 N611 1.613 . S
S610 N612 1.610 . S
N611 S610 1.613 . S
N611 C614 1.350 . S
N612 S610 1.610 . S
N612 C613 1.351 . S
C613 C607 1.428 1_655 S
C613 N612 1.351 . S
C613 C614 1.434 . S
C614 C605 1.429 . S
C614 N611 1.350 . S
C614 C613 1.434 . S
C615 C616 1.369 . S
C615 C617 1.419 . S
C615 H619 0.930 . S
C616 C615 1.369 . S
C616 C625 1.429 . S
C617 C615 1.419 . S
C617 C618 1.363 . S
C617 H620 0.929 . S
C618 C617 1.363 . S
C618 C624 1.428 . S
H619 C615 0.930 . S
H620 C617 0.929 . S
S621 N622 1.613 . S
S621 N623 1.610 . S
N622 S621 1.613 . S
N622 C625 1.350 . S
N623 S621 1.610 . S
N623 C624 1.351 . S
C624 C618 1.428 . S
C624 N623 1.351 . S
C624 C625 1.434 . S
C625 C616 1.429 . S
C625 N622 1.350 . S
C625 C624 1.434 . S
C626 C627 1.369 1_565 S
C626 C628 1.419 . S
C626 H630 0.930 . S
C627 C626 1.369 1_545 S
C627 C636 1.429 . S
C628 C626 1.419 . S
C628 C629 1.363 . S
C628 H631 0.929 . S
C629 C628 1.363 . S
C629 C635 1.428 1_565 S
H630 C626 0.930 . S
H631 C628 0.929 . S
S632 N633 1.613 . S
S632 N634 1.610 . S
N633 S632 1.613 . S
N633 C636 1.350 . S
N634 S632 1.610 . S
N634 C635 1.351 . S
C635 C629 1.428 1_545 S
C635 N634 1.351 . S
C635 C636 1.434 . S
C636 C627 1.429 . S
C636 N633 1.350 . S
C636 C635 1.434 . S
C637 C638 1.369 . S
C637 C639 1.419 1_665 S
C637 H641 0.930 . S
C638 C637 1.369 . S
C638 C647 1.429 . S
C639 C637 1.419 1_445 S
C639 C640 1.363 . S
C639 H642 0.929 . S
C640 C639 1.363 . S
C640 C646 1.428 . S
H641 C637 0.930 . S
H642 C639 0.929 . S
S643 N644 1.613 1_545 S
S643 N645 1.610 1_655 S
N644 S643 1.613 1_565 S
N644 C647 1.350 . S
N645 S643 1.610 1_455 S
N645 C646 1.351 . S
C646 C640 1.428 . S
C646 N645 1.351 . S
C646 C647 1.434 1_445 S
C647 C638 1.429 . S
C647 N644 1.350 . S
C647 C646 1.434 1_665 S
C473 C33 1.345 . S
C475 C328 1.345 . S
C484 C62 1.452 . S
C486 C357 1.447 . S
C495 C151 1.345 . S
C497 C446 1.345 . S
C506 C180 1.452 . S
C508 C239 1.448 . S
C517 C416 1.450 . S
C519 C3 1.449 . S
C528 C269 1.342 . S
C530 C92 1.342 . S
C539 C121 1.449 . S
C541 C298 1.450 . S
C550 C387 1.345 . S
C552 C210 1.345 . S
C561 C52 1.653 . S
C563 C406 1.649 . S
C572 C418 1.651 . S
C574 C64 1.647 . S
C583 C170 1.650 . S
C585 C288 1.651 . S
C594 C182 1.651 . S
C596 C300 1.646 . S
C605 C359 1.649 . S
C607 C5 1.647 . S
C616 C465 1.653 . S
C618 C111 1.648 . S
C627 C123 1.646 . S
C629 C241 1.650 . S
C638 C229 1.651 . S
C640 C347 1.649 . S
