# Generated by pormake.
# Topology uow, (4)-cn, num edge types: 1
# Building blocks:
#     Node 0, Type 0, BuildingBlock: KUFVIS_clean_sbu_0, # of connection points: 4
#     Node 1, Type 0, BuildingBlock: KUFVIS_clean_sbu_0, # of connection points: 4
#     Node 2, Type 0, BuildingBlock: KUFVIS_clean_sbu_0, # of connection points: 4
#     Node 3, Type 0, BuildingBlock: KUFVIS_clean_sbu_0, # of connection points: 4
#     Node 4, Type 0, BuildingBlock: KUFVIS_clean_sbu_0, # of connection points: 4
#     Node 5, Type 0, BuildingBlock: KUFVIS_clean_sbu_0, # of connection points: 4
#     Node 6, Type 0, BuildingBlock: KUFVIS_clean_sbu_0, # of connection points: 4
#     Node 7, Type 0, BuildingBlock: KUFVIS_clean_sbu_0, # of connection points: 4
#     Node 8, Type 0, BuildingBlock: KUFVIS_clean_sbu_0, # of connection points: 4
#     Node 9, Type 0, BuildingBlock: KUFVIS_clean_sbu_0, # of connection points: 4
#     Node 10, Type 0, BuildingBlock: KUFVIS_clean_sbu_0, # of connection points: 4
#     Node 11, Type 0, BuildingBlock: KUFVIS_clean_sbu_0, # of connection points: 4
#     Node 12, Type 0, BuildingBlock: KUFVIS_clean_sbu_0, # of connection points: 4
#     Node 13, Type 0, BuildingBlock: KUFVIS_clean_sbu_0, # of connection points: 4
#     Node 14, Type 0, BuildingBlock: KUFVIS_clean_sbu_0, # of connection points: 4
#     Node 15, Type 0, BuildingBlock: KUFVIS_clean_sbu_0, # of connection points: 4
#     Node 16, Type 0, BuildingBlock: KUFVIS_clean_sbu_0, # of connection points: 4
#     Node 17, Type 0, BuildingBlock: KUFVIS_clean_sbu_0, # of connection points: 4
#     Node 18, Type 0, BuildingBlock: KUFVIS_clean_sbu_0, # of connection points: 4
#     Node 19, Type 0, BuildingBlock: KUFVIS_clean_sbu_0, # of connection points: 4
#     Node 20, Type 0, BuildingBlock: KUFVIS_clean_sbu_0, # of connection points: 4
#     Node 21, Type 0, BuildingBlock: KUFVIS_clean_sbu_0, # of connection points: 4
#     Node 22, Type 0, BuildingBlock: KUFVIS_clean_sbu_0, # of connection points: 4
#     Node 23, Type 0, BuildingBlock: KUFVIS_clean_sbu_0, # of connection points: 4
#     Node 24, Type 0, BuildingBlock: KUFVIS_clean_sbu_0, # of connection points: 4
#     Node 25, Type 0, BuildingBlock: KUFVIS_clean_sbu_0, # of connection points: 4
#     Node 26, Type 0, BuildingBlock: KUFVIS_clean_sbu_0, # of connection points: 4
#     Node 27, Type 0, BuildingBlock: KUFVIS_clean_sbu_0, # of connection points: 4
#     Node 28, Type 0, BuildingBlock: KUFVIS_clean_sbu_0, # of connection points: 4
#     Node 29, Type 0, BuildingBlock: KUFVIS_clean_sbu_0, # of connection points: 4
#     Node 30, Type 0, BuildingBlock: KUFVIS_clean_sbu_0, # of connection points: 4
#     Node 31, Type 0, BuildingBlock: KUFVIS_clean_sbu_0, # of connection points: 4
#     Edge 32, Type (0, 0), None
#     Edge 33, Type (0, 0), None
#     Edge 34, Type (0, 0), None
#     Edge 35, Type (0, 0), None
#     Edge 36, Type (0, 0), None
#     Edge 37, Type (0, 0), None
#     Edge 38, Type (0, 0), None
#     Edge 39, Type (0, 0), None
#     Edge 40, Type (0, 0), None
#     Edge 41, Type (0, 0), None
#     Edge 42, Type (0, 0), None
#     Edge 43, Type (0, 0), None
#     Edge 44, Type (0, 0), None
#     Edge 45, Type (0, 0), None
#     Edge 46, Type (0, 0), None
#     Edge 47, Type (0, 0), None
#     Edge 48, Type (0, 0), None
#     Edge 49, Type (0, 0), None
#     Edge 50, Type (0, 0), None
#     Edge 51, Type (0, 0), None
#     Edge 52, Type (0, 0), None
#     Edge 53, Type (0, 0), None
#     Edge 54, Type (0, 0), None
#     Edge 55, Type (0, 0), None
#     Edge 56, Type (0, 0), None
#     Edge 57, Type (0, 0), None
#     Edge 58, Type (0, 0), None
#     Edge 59, Type (0, 0), None
#     Edge 60, Type (0, 0), None
#     Edge 61, Type (0, 0), None
#     Edge 62, Type (0, 0), None
#     Edge 63, Type (0, 0), None
#     Edge 64, Type (0, 0), None
#     Edge 65, Type (0, 0), None
#     Edge 66, Type (0, 0), None
#     Edge 67, Type (0, 0), None
#     Edge 68, Type (0, 0), None
#     Edge 69, Type (0, 0), None
#     Edge 70, Type (0, 0), None
#     Edge 71, Type (0, 0), None
#     Edge 72, Type (0, 0), None
#     Edge 73, Type (0, 0), None
#     Edge 74, Type (0, 0), None
#     Edge 75, Type (0, 0), None
#     Edge 76, Type (0, 0), None
#     Edge 77, Type (0, 0), None
#     Edge 78, Type (0, 0), None
#     Edge 79, Type (0, 0), None
#     Edge 80, Type (0, 0), None
#     Edge 81, Type (0, 0), None
#     Edge 82, Type (0, 0), None
#     Edge 83, Type (0, 0), None
#     Edge 84, Type (0, 0), None
#     Edge 85, Type (0, 0), None
#     Edge 86, Type (0, 0), None
#     Edge 87, Type (0, 0), None
#     Edge 88, Type (0, 0), None
#     Edge 89, Type (0, 0), None
#     Edge 90, Type (0, 0), None
#     Edge 91, Type (0, 0), None
#     Edge 92, Type (0, 0), None
#     Edge 93, Type (0, 0), None
#     Edge 94, Type (0, 0), None
#     Edge 95, Type (0, 0), None
# Relax obj value: 0.135
# Max RMSD: 0.189
# Mean RMSD: 0.167
data_MOF--net-uow--node1-KUFVIS_clean_sbu_0--edge1-none
_symmetry_space_group_name_H-M    P1
_symmetry_Int_Tables_number       1
_symmetry_cell_setting            triclinic
loop_
_symmetry_equiv_pos_as_xyz
'x, y, z'
_cell_length_a     27.539001
_cell_length_b     30.120521
_cell_length_c     18.821729
_cell_angle_alpha  90.220719
_cell_angle_beta   89.907031
_cell_angle_gamma 90.097084
loop_
_atom_site_label
_atom_site_type_symbol
_atom_site_fract_x
_atom_site_fract_y
_atom_site_fract_z
_atom_type_partial_charge
Mn0 Mn 0.07371 0.34346 0.28096 0.0
Mn1 Mn 0.98311 0.38039 0.17424 0.0
C2 C -0.00657 0.35531 0.32833 0.0
C3 C 0.10275 0.26131 0.32605 0.0
C4 C 0.05612 0.44964 0.23057 0.0
O5 O 0.10345 0.33439 0.18177 0.0
O6 O 0.04009 0.35858 0.11691 0.0
C7 C 0.96048 0.29095 0.11803 0.0
N8 N 0.94561 0.32908 0.15028 0.0
C9 C 0.86319 0.30265 0.15657 0.0
C10 C 0.87763 0.26316 0.12308 0.0
C11 C 0.92656 0.25731 0.10408 0.0
C12 C 0.89873 0.335 0.1694 0.0
H13 H -0.00204 0.28624 0.10326 0.0
C14 C 0.08324 0.34271 0.12222 0.0
O15 O 0.12459 0.2986 0.33379 0.0
O16 O 0.06459 0.27092 0.29132 0.0
N17 N 0.92567 0.40034 0.22215 0.0
C18 C 0.92057 0.43389 0.27015 0.0
C19 C 0.87425 0.44367 0.29789 0.0
C20 C 0.83412 0.4176 0.27794 0.0
C21 C 0.84116 0.38068 0.23345 0.0
C22 C 0.88798 0.37316 0.20666 0.0
H23 H 0.95183 0.45245 0.28798 0.0
O24 O 0.03119 0.35147 0.36772 0.0
O25 O 0.00381 0.35031 0.26143 0.0
O26 O 0.08043 0.41948 0.26869 0.0
O27 O 0.01881 0.4369 0.1953 0.0
C28 C 0.80426 0.34963 0.21814 0.0
C29 C 0.81528 0.31059 0.17973 0.0
H30 H 0.85162 0.23697 0.11235 0.0
H31 H 0.93812 0.22716 0.07811 0.0
H32 H 0.8697 0.47082 0.33514 0.0
H33 H 0.79867 0.42479 0.30014 0.0
H34 H 0.7677 0.35463 0.23789 0.0
H35 H 0.78697 0.28628 0.1702 0.0
Mn36 Mn 0.87518 0.7614 0.53158 0.0
Mn37 Mn 0.82921 0.85917 0.55193 0.0
C38 C 0.92464 0.81195 0.60814 0.0
C39 C 0.87147 0.68819 0.57501 0.0
C40 C 0.87938 0.82921 0.41599 0.0
O41 O 0.80445 0.75861 0.48217 0.0
O42 O 0.7772 0.81135 0.55072 0.0
C43 C 0.73248 0.8948 0.56691 0.0
N44 N 0.77881 0.90208 0.54285 0.0
C45 C 0.77036 -0.02017 0.56913 0.0
C46 C 0.72196 0.97284 0.58828 0.0
C47 C 0.70281 0.93018 0.58711 0.0
C48 C 0.79808 0.94331 0.54581 0.0
H49 H 0.71889 0.86199 0.57625 0.0
C50 C 0.76843 0.78267 0.50225 0.0
O51 O 0.88555 0.69668 0.51079 0.0
O52 O 0.85583 0.72177 0.6114 0.0
N53 N 0.87282 0.90721 0.54364 0.0
C54 C 0.92121 0.90675 0.53 0.0
C55 C 0.9482 0.94532 0.54234 0.0
C56 C 0.92374 -0.01651 0.56503 0.0
C57 C 0.8726 -0.01549 0.56301 0.0
C58 C 0.84834 0.94577 0.54447 0.0
H59 H 0.93864 0.87694 0.51132 0.0
O60 O 0.9397 0.77364 0.58679 0.0
O61 O 0.8811 0.81881 0.58077 0.0
O62 O 0.89895 0.79471 0.44348 0.0
O63 O 0.84484 0.8512 0.44701 0.0
C64 C 0.84476 0.02051 0.58697 0.0
C65 C 0.79425 0.01917 0.58734 0.0
H66 H 0.70088 -0.00126 0.61254 0.0
H67 H 0.66648 0.92413 0.60691 0.0
H68 H 0.98735 0.94513 0.53739 0.0
H69 H 0.94456 0.01201 0.58162 0.0
H70 H 0.86165 0.04836 0.61014 0.0
H71 H 0.77536 0.04677 0.61084 0.0
Mn72 Mn 0.40487 0.61148 0.77878 0.0
Mn73 Mn 0.49434 0.5714 0.67236 0.0
C74 C 0.48527 0.59854 0.82617 0.0
C75 C 0.37517 0.69192 0.82567 0.0
C76 C 0.41517 0.50571 0.72295 0.0
O77 O 0.37611 0.62079 0.67966 0.0
O78 O 0.4402 0.59708 0.61488 0.0
C79 C 0.52511 0.6594 0.62039 0.0
N80 N 0.5364 0.61994 0.65096 0.0
C81 C 0.62079 0.64008 0.65894 0.0
C82 C 0.61011 0.68087 0.62689 0.0
C83 C 0.56194 0.69067 0.60824 0.0
C84 C 0.58245 0.61028 0.67007 0.0
H85 H 0.48821 0.66688 0.60584 0.0
C86 C 0.39713 0.61306 0.62035 0.0
O87 O 0.35256 0.65473 0.8306 0.0
O88 O 0.41439 0.68319 0.79223 0.0
N89 N 0.54896 0.54755 0.72229 0.0
C90 C 0.54983 0.51572 0.77346 0.0
C91 C 0.5945 0.50308 0.80342 0.0
C92 C 0.63741 0.52494 0.78291 0.0
C93 C 0.63475 0.56096 0.736 0.0
C94 C 0.5893 0.57142 0.70707 0.0
H95 H 0.5166 0.50034 0.79118 0.0
O96 O 0.44748 0.60319 0.86552 0.0
O97 O 0.47459 0.60248 0.75925 0.0
O98 O 0.39402 0.53608 0.76482 0.0
O99 O 0.45343 0.5173 0.68884 0.0
C100 C 0.67448 0.58912 0.72176 0.0
C101 C 0.6675 0.62868 0.6832 0.0
H102 H 0.63838 0.70525 0.61768 0.0
H103 H 0.55315 0.72217 0.58437 0.0
H104 H 0.5957 0.47722 0.84312 0.0
H105 H 0.6716 0.51568 0.80701 0.0
H106 H 0.71007 0.58177 0.7431 0.0
H107 H 0.69791 0.65095 0.67501 0.0
Mn108 Mn 0.61108 0.18736 0.03716 0.0
Mn109 Mn 0.65584 0.0898 0.05115 0.0
C110 C 0.56046 0.13665 0.10938 0.0
C111 C 0.61617 0.25869 0.08435 0.0
C112 C 0.60688 0.12343 0.91622 0.0
O113 O 0.68069 0.19131 -0.01334 0.0
O114 O 0.70824 0.13727 0.05082 0.0
C115 C 0.75222 0.05403 0.06669 0.0
N116 N 0.70609 0.04666 0.04193 0.0
C117 C 0.71346 0.96947 0.07201 0.0
C118 C 0.7615 0.97668 0.09275 0.0
C119 C 0.78127 0.01898 0.08917 0.0
C120 C 0.68641 0.00562 0.04624 0.0
H121 H 0.76592 0.08682 0.07572 0.0
C122 C 0.71658 0.16688 0.00403 0.0
O123 O 0.60314 0.25084 0.01961 0.0
O124 O 0.63069 0.22469 0.12028 0.0
N125 N 0.61209 0.04219 0.04193 0.0
C126 C 0.56383 0.04297 0.02777 0.0
C127 C 0.53626 0.00504 0.04181 0.0
C128 C 0.56012 0.96727 0.06676 0.0
C129 C 0.61126 0.96558 0.06463 0.0
C130 C 0.63613 0.00355 0.04454 0.0
H131 H 0.54689 0.07277 0.00841 0.0
O132 O 0.54609 0.17558 0.09083 0.0
O133 O 0.60391 0.12949 0.08163 0.0
O134 O 0.58747 0.15718 0.94659 0.0
O135 O 0.63988 0.09925 0.94647 0.0
C136 C 0.63848 0.92968 0.08948 0.0
C137 C 0.68894 0.93069 0.09118 0.0
H138 H 0.78152 0.95172 0.1207 0.0
H139 H 0.81729 0.02533 0.1099 0.0
H140 H 0.49713 0.00552 0.03675 0.0
H141 H 0.53887 0.93945 0.08483 0.0
H142 H 0.62102 0.90235 0.1126 0.0
H143 H 0.70706 0.90353 0.1167 0.0
Mn144 Mn 0.07433 0.60904 0.19082 0.0
Mn145 Mn 0.98365 0.57246 0.29771 0.0
C146 C -0.00614 0.59745 0.14356 0.0
C147 C 0.10308 0.69135 0.14478 0.0
C148 C 0.05596 0.50285 0.24098 0.0
O149 O 0.1044 0.61783 0.29005 0.0
O150 O 0.04121 0.59282 0.35472 0.0
C151 C 0.96444 0.66332 0.35042 0.0
N152 N 0.94778 0.62461 0.32189 0.0
C153 C 0.86642 0.65325 0.315 0.0
C154 C 0.88261 0.69324 0.34522 0.0
C155 C 0.93198 0.69842 0.36222 0.0
C156 C 0.90066 0.61964 0.30351 0.0
H157 H 0.00237 0.66764 0.36302 0.0
C158 C 0.08453 0.60835 0.34958 0.0
O159 O 0.12469 0.65411 0.13699 0.0
O160 O 0.06529 0.68172 0.18054 0.0
N161 N 0.92548 0.55358 0.25085 0.0
C162 C 0.9192 0.51996 0.20331 0.0
C163 C 0.87242 0.51088 0.17671 0.0
C164 C 0.83316 0.53787 0.19699 0.0
C165 C 0.84149 0.57489 0.2408 0.0
C166 C 0.88861 0.5815 0.26692 0.0
H167 H 0.9499 0.50084 0.18492 0.0
O168 O 0.03169 0.60114 0.1042 0.0
O169 O 0.00435 0.60241 0.21038 0.0
O170 O 0.08065 0.53305 0.20325 0.0
O171 O 0.01828 0.51551 0.27571 0.0
C172 C 0.80567 0.60696 0.25582 0.0
C173 C 0.81817 0.64621 0.29272 0.0
H174 H 0.85771 0.72051 0.35415 0.0
H175 H 0.94517 0.72937 0.38415 0.0
H176 H 0.86691 0.48365 0.13989 0.0
H177 H 0.7974 0.53132 0.17543 0.0
H178 H 0.7689 0.60268 0.23657 0.0
H179 H 0.7908 0.67147 0.30139 0.0
Mn180 Mn 0.61069 0.76067 0.43555 0.0
Mn181 Mn 0.65581 0.85915 0.4175 0.0
C182 C 0.56051 0.81148 0.36095 0.0
C183 C 0.61417 0.68778 0.39128 0.0
C184 C 0.60707 0.82719 0.55355 0.0
O185 O 0.68166 0.75802 0.48398 0.0
O186 O 0.70846 0.812 0.41789 0.0
C187 C 0.75208 0.89602 0.40211 0.0
N188 N 0.70572 0.90283 0.42643 0.0
C189 C 0.71284 -0.01956 0.39865 0.0
C190 C 0.76107 0.97384 0.37828 0.0
C191 C 0.78102 0.93158 0.38063 0.0
C192 C 0.68584 0.94377 0.423 0.0
H193 H 0.76627 0.86334 0.39358 0.0
C194 C 0.71743 0.78271 0.46497 0.0
O195 O 0.60071 0.69609 0.45591 0.0
O196 O 0.62941 0.7214 0.35483 0.0
N197 N 0.61168 0.90663 0.42653 0.0
C198 C 0.56349 0.90561 0.44144 0.0
C199 C 0.53582 0.94364 0.42908 0.0
C200 C 0.55949 -0.01808 0.40524 0.0
C201 C 0.61062 -0.01622 0.40657 0.0
C202 C 0.63559 0.94552 0.42488 0.0
H203 H 0.54668 0.87564 0.46061 0.0
O204 O 0.54568 0.77296 0.3815 0.0
O205 O 0.60424 0.81832 0.38798 0.0
O206 O 0.58761 0.79296 0.5247 0.0
O207 O 0.64045 0.85061 0.52251 0.0
C208 C 0.63774 0.02011 0.38231 0.0
C209 C 0.68824 0.01935 0.3807 0.0
H210 H 0.78125 -0.0005 0.35199 0.0
H211 H 0.81729 0.9258 0.36036 0.0
H212 H 0.49672 0.94293 0.43481 0.0
H213 H 0.5381 0.00992 0.38847 0.0
H214 H 0.6203 0.04769 0.35953 0.0
H215 H 0.70639 0.04692 0.35616 0.0
Mn216 Mn 0.40579 0.34414 0.68835 0.0
Mn217 Mn 0.49278 0.39251 0.7919 0.0
C218 C 0.48624 0.35581 0.64321 0.0
C219 C 0.37683 0.26253 0.64144 0.0
C220 C 0.41446 0.45265 0.73323 0.0
O221 O 0.37765 0.33606 0.78956 0.0
O222 O 0.4391 0.36673 0.85335 0.0
C223 C 0.53399 0.33131 0.89001 0.0
N224 N 0.53942 0.35199 0.82662 0.0
C225 C 0.62679 0.34999 0.83791 0.0
C226 C 0.62149 0.32845 0.90322 0.0
C227 C 0.57463 0.32218 0.9308 0.0
C228 C 0.58436 0.36407 0.80379 0.0
H229 H 0.49878 0.3271 0.91411 0.0
C230 C 0.39763 0.34671 0.84894 0.0
O231 O 0.35454 0.29979 0.63511 0.0
O232 O 0.41492 0.27176 0.67754 0.0
N233 N 0.54448 0.4156 0.7343 0.0
C234 C 0.54213 0.443 0.67677 0.0
C235 C 0.58537 0.45675 0.6433 0.0
C236 C 0.63031 0.44108 0.66821 0.0
C237 C 0.6313 0.41036 0.72416 0.0
C238 C 0.58684 0.39685 0.75339 0.0
H239 H 0.50759 0.45419 0.65696 0.0
O240 O 0.44897 0.35074 0.60303 0.0
O241 O 0.47555 0.35362 0.71062 0.0
O242 O 0.39375 0.42054 0.6942 0.0
O243 O 0.45115 0.44259 0.76937 0.0
C244 C 0.67443 0.39274 0.75242 0.0
C245 C 0.67222 0.36348 0.81072 0.0
H246 H 0.65288 0.32071 0.93548 0.0
H247 H 0.56849 0.31469 -0.01449 0.0
H248 H 0.58401 0.47941 0.59887 0.0
H249 H 0.66363 0.4523 0.64342 0.0
H250 H 0.70945 0.40284 0.73167 0.0
H251 H 0.70559 0.35267 0.8356 0.0
Mn252 Mn 0.87245 0.19114 0.93418 0.0
Mn253 Mn 0.82758 0.09274 0.91607 0.0
C254 C 0.92278 0.14017 0.85937 0.0
C255 C 0.86795 0.26375 0.89147 0.0
C256 C 0.87486 0.12654 0.05205 0.0
O257 O 0.8021 0.19334 0.98405 0.0
O258 O 0.77567 0.14005 0.91609 0.0
C259 C 0.73124 0.05632 0.9011 0.0
N260 N 0.77747 0.04945 0.92547 0.0
C261 C 0.76986 0.97165 0.89869 0.0
C262 C 0.72161 -0.0217 0.87874 0.0
C263 C 0.70201 0.02071 0.8804 0.0
C264 C 0.79708 0.00838 0.92257 0.0
H265 H 0.71755 0.089 0.89152 0.0
C266 C 0.76678 0.16813 0.96532 0.0
O267 O 0.88163 0.25546 0.95579 0.0
O268 O 0.85305 0.23011 0.85431 0.0
N269 N 0.87143 0.04521 0.92579 0.0
C270 C 0.91962 0.04618 0.94041 0.0
C271 C 0.94711 0.00796 0.92795 0.0
C272 C 0.92326 0.96968 0.9041 0.0
C273 C 0.87211 0.96803 0.90561 0.0
C274 C 0.84733 0.00642 0.92428 0.0
H275 H 0.93654 0.07623 0.95938 0.0
O276 O 0.93741 0.17897 0.87939 0.0
O277 O 0.87919 0.13329 0.88669 0.0
O278 O 0.89557 0.15968 0.02253 0.0
O279 O 0.84205 0.10256 0.02082 0.0
C280 C 0.84478 0.93174 0.88126 0.0
C281 C 0.79424 0.93256 0.88048 0.0
H282 H 0.70115 0.95252 0.85311 0.0
H283 H 0.66583 0.02649 0.86004 0.0
H284 H 0.98621 0.00855 0.93349 0.0
H285 H 0.94451 0.94153 0.88716 0.0
H286 H 0.86211 0.90418 0.85783 0.0
H287 H 0.7758 0.90489 0.85638 0.0
Mn288 Mn 0.93783 0.59761 0.67725 0.0
Mn289 Mn 0.02007 0.57421 0.79911 0.0
C290 C 0.02333 0.60441 0.64382 0.0
C291 C 0.89423 0.65169 0.61374 0.0
C292 C 0.95863 0.50092 0.73757 0.0
O293 O 0.89718 0.61272 0.76653 0.0
O294 O 0.94793 0.57928 0.83903 0.0
C295 C 0.05165 0.66179 0.95139 0.0
N296 N 0.05659 0.6266 0.84592 0.0
C297 C 0.15122 0.66016 0.80908 0.0
C298 C 0.15974 0.68731 0.88322 0.0
C299 C 0.10051 0.68973 0.97043 0.0
C300 C 0.10228 0.63001 0.79305 0.0
H301 H 0.0247 0.66087 -0.00536 0.0
C302 C 0.90834 0.60086 0.82906 0.0
O303 O 0.8803 0.61047 0.61237 0.0
O304 O 0.93193 0.66079 0.65096 0.0
N305 N 0.08019 0.56276 0.75083 0.0
C306 C 0.09182 0.52511 0.71584 0.0
C307 C 0.14018 0.51771 0.6982 0.0
C308 C 0.17334 0.55139 0.69908 0.0
C309 C 0.1575 0.59315 0.71506 0.0
C310 C 0.11121 0.59693 0.74785 0.0
H311 H 0.06485 0.50105 0.70276 0.0
O312 O 0.98934 0.59156 0.60101 0.0
O313 O 0.00594 0.60806 0.70964 0.0
O314 O 0.93334 0.52636 0.69634 0.0
O315 O -0.00469 0.51652 0.76883 0.0
C316 C 0.18987 0.62876 0.71007 0.0
C317 C 0.18428 0.66474 0.75437 0.0
H318 H 0.19232 0.70691 0.88409 0.0
H319 H 0.10178 0.68392 0.02394 0.0
H320 H 0.15321 0.48628 0.68385 0.0
H321 H 0.21119 0.54442 0.69044 0.0
H322 H 0.22342 0.62584 0.68043 0.0
H323 H 0.21232 0.69 0.75637 0.0
Mn324 Mn 0.10777 0.13755 0.4113 0.0
Mn325 Mn 0.1409 0.21548 0.53125 0.0
C326 C 0.11571 0.21295 0.36102 0.0
C327 C 0.03214 0.11056 0.35844 0.0
C328 C 0.2125 0.14536 0.47979 0.0
O329 O 0.09258 0.10804 0.51103 0.0
O330 O 0.11309 0.16333 0.58443 0.0
C331 C 0.02781 0.25659 0.62468 0.0
N332 N 0.08498 0.26303 0.60861 0.0
C333 C 0.06968 0.36537 0.52607 0.0
C334 C 0.00414 0.35146 0.54495 0.0
C335 C 0.98426 0.29967 0.59165 0.0
C336 C 0.11665 0.3267 0.55483 0.0
H337 H 0.02699 0.22979 0.66847 0.0
C338 C 0.09753 0.12368 0.57441 0.0
O339 O 0.07177 0.08783 0.35745 0.0
O340 O 0.03553 0.1462 0.39435 0.0
N341 N 0.17909 0.28022 0.47459 0.0
C342 C 0.20567 0.27623 0.41534 0.0
C343 C 0.21794 0.31407 0.37775 0.0
C344 C 0.20023 0.35535 0.39616 0.0
C345 C 0.16644 0.36026 0.45067 0.0
C346 C 0.15939 0.32434 0.49755 0.0
H347 H 0.21242 0.24352 0.39398 0.0
O348 O 0.11732 0.17805 0.32147 0.0
O349 O 0.11442 0.19938 0.42911 0.0
O350 O 0.18553 0.12631 0.43083 0.0
O351 O 0.19754 0.17977 0.51118 0.0
C352 C 0.13356 0.39545 0.44273 0.0
C353 C 0.08693 0.39603 0.46992 0.0
H354 H 0.03534 0.36252 0.53209 0.0
H355 H 0.00088 0.27394 0.61399 0.0
H356 H 0.23264 0.31112 0.3265 0.0
H357 H 0.20463 0.381 0.35689 0.0
H358 H 0.14058 0.42065 0.40332 0.0
H359 H 0.06129 0.41932 0.44749 0.0
Mn360 Mn 0.54722 0.35112 0.17847 0.0
Mn361 Mn 0.46351 0.37814 0.29726 0.0
C362 C 0.46199 0.3439 0.14251 0.0
C363 C 0.59318 0.29552 0.12231 0.0
C364 C 0.5271 0.44945 0.23265 0.0
O365 O 0.58671 0.3388 0.26928 0.0
O366 O 0.53488 0.37284 0.33979 0.0
C367 C 0.42932 0.29079 0.44826 0.0
N368 N 0.42531 0.32657 0.34373 0.0
C369 C 0.33068 0.29378 0.30515 0.0
C370 C 0.32159 0.26588 0.37854 0.0
C371 C 0.38027 0.26301 0.46619 0.0
C372 C 0.37994 0.32379 0.29033 0.0
H373 H 0.45612 0.29122 0.49165 0.0
C374 C 0.57475 0.3514 0.33118 0.0
O375 O 0.60628 0.33687 0.11774 0.0
O376 O 0.5541 0.28721 0.15717 0.0
N377 N 0.40395 0.39047 0.24824 0.0
C378 C 0.39272 0.42898 0.21608 0.0
C379 C 0.34396 0.43901 0.20392 0.0
C380 C 0.3098 0.4059 0.20358 0.0
C381 C 0.3248 0.36318 0.21583 0.0
C382 C 0.37161 0.35741 0.24593 0.0
H383 H 0.42067 0.45126 0.2004 0.0
O384 O 0.49701 0.35498 0.10014 0.0
O385 O 0.47822 0.34212 0.20916 0.0
O386 O 0.55165 0.42267 0.19235 0.0
O387 O 0.49053 0.43511 0.26603 0.0
C388 C 0.29156 0.3283 0.20994 0.0
C389 C 0.2975 0.29083 0.25052 0.0
H390 H 0.28869 0.24658 0.37888 0.0
H391 H 0.37875 0.26931 0.51995 0.0
H392 H 0.33197 0.47132 0.19103 0.0
H393 H 0.27207 0.41385 0.19526 0.0
H394 H 0.25753 0.33246 0.18224 0.0
H395 H 0.26964 0.26538 0.25043 0.0
Mn396 Mn 0.372 0.81373 0.91506 0.0
Mn397 Mn 0.34009 0.73402 0.03393 0.0
C398 C 0.36191 0.73935 0.86294 0.0
C399 C 0.44597 0.84124 0.85946 0.0
C400 C 0.26842 0.80534 -0.01335 0.0
O401 O 0.38935 0.84186 0.01467 0.0
O402 O 0.36782 0.78677 0.08768 0.0
C403 C 0.45552 0.69452 0.1219 0.0
N404 N 0.39835 0.68666 0.10737 0.0
C405 C 0.41589 0.58574 0.02011 0.0
C406 C 0.48131 0.60126 0.03729 0.0
C407 C 0.50012 0.65305 0.08559 0.0
C408 C 0.3681 0.62303 0.05137 0.0
H409 H 0.45604 0.72141 0.16575 0.0
C410 C 0.38431 0.82624 0.07777 0.0
O411 O 0.40657 0.86441 0.86214 0.0
O412 O 0.44341 0.80496 0.89355 0.0
N413 N 0.30315 0.66875 0.97572 0.0
C414 C 0.27448 0.67244 0.91885 0.0
C415 C 0.26235 0.63455 0.88075 0.0
C416 C 0.28423 0.59428 0.89399 0.0
C417 C 0.31873 0.58954 0.94726 0.0
C418 C 0.32472 0.62494 -0.0042 0.0
H419 H 0.26658 0.70514 0.89918 0.0
O420 O 0.35993 0.77458 0.82461 0.0
O421 O 0.36476 0.75192 0.93153 0.0
O422 O 0.29528 0.82553 0.93899 0.0
O423 O 0.28287 0.7696 0.01486 0.0
C424 C 0.35221 0.55477 0.93797 0.0
C425 C 0.3986 0.5539 0.96572 0.0
H426 H 0.4503 0.58947 0.02506 0.0
H427 H 0.48289 0.67805 0.10957 0.0
H428 H 0.24426 0.63703 0.83201 0.0
H429 H 0.28131 0.56987 0.85221 0.0
H430 H 0.34586 0.52998 0.89755 0.0
H431 H 0.4244 0.53066 0.94313 0.0
Mn432 Mn 0.93695 0.35345 0.79358 0.0
Mn433 Mn 0.02019 0.37691 0.67342 0.0
C434 C 0.02206 0.34516 0.82836 0.0
C435 C 0.89154 0.29994 0.85387 0.0
C436 C 0.95865 0.45016 0.7349 0.0
O437 O 0.89657 0.33929 0.70415 0.0
O438 O 0.9483 0.37226 0.63229 0.0
C439 C 0.05205 0.29033 0.51945 0.0
N440 N 0.05695 0.32511 0.62528 0.0
C441 C 0.15139 0.29131 0.66163 0.0
C442 C 0.15988 0.26441 0.58721 0.0
C443 C 0.10077 0.26244 0.5001 0.0
C444 C 0.10251 0.32136 0.67814 0.0
H445 H 0.02513 0.29137 0.4763 0.0
C446 C 0.90828 0.35108 0.64188 0.0
O447 O 0.87853 0.34136 0.85657 0.0
O448 O 0.92978 0.29045 0.81796 0.0
N449 N 0.07987 0.38768 0.72321 0.0
C450 C 0.09125 0.42489 0.75958 0.0
C451 C 0.13951 0.43225 0.77773 0.0
C452 C 0.17273 0.39873 0.77624 0.0
C453 C 0.15718 0.35719 0.75809 0.0
C454 C 0.111 0.35363 0.725 0.0
H455 H 0.06421 0.44876 0.77306 0.0
O456 O 0.9879 0.35827 0.87076 0.0
O457 O 0.00525 0.34222 0.76209 0.0
O458 O 0.93311 0.42471 0.77584 0.0
O459 O -0.00441 0.43456 0.70431 0.0
C460 C 0.1898 0.32184 0.76143 0.0
C461 C 0.18425 0.28631 0.71628 0.0
H462 H 0.19247 0.24488 0.58599 0.0
H463 H 0.10221 0.2685 0.44672 0.0
H464 H 0.15246 0.46362 0.79262 0.0
H465 H 0.2105 0.40572 0.7861 0.0
H466 H 0.2234 0.32462 0.79091 0.0
H467 H 0.21199 0.26087 0.7141 0.0
Mn468 Mn 0.37175 0.13862 0.55446 0.0
Mn469 Mn 0.33973 0.21649 0.43367 0.0
C470 C 0.36365 0.21415 0.60526 0.0
C471 C 0.44586 0.11095 0.60943 0.0
C472 C 0.26781 0.14569 0.48325 0.0
O473 O 0.38788 0.10928 0.45455 0.0
O474 O 0.36791 0.16416 0.38055 0.0
C475 C 0.4537 0.25782 0.34208 0.0
N476 N 0.3965 0.26453 0.35782 0.0
C477 C 0.41249 0.36592 0.44417 0.0
C478 C 0.47802 0.35184 0.42539 0.0
C479 C 0.49755 0.30033 0.37705 0.0
C480 C 0.36521 0.3278 0.41353 0.0
H481 H 0.45488 0.23054 0.2987 0.0
C482 C 0.38338 0.12458 0.39102 0.0
O483 O 0.40606 0.08822 0.60824 0.0
O484 O 0.44357 0.14681 0.57416 0.0
N485 N 0.30185 0.28089 0.49136 0.0
C486 C 0.27476 0.27638 0.54991 0.0
C487 C 0.2625 0.3138 0.58876 0.0
C488 C 0.28178 0.35487 0.57317 0.0
C489 C 0.31546 0.36034 0.51876 0.0
C490 C 0.32209 0.32509 0.47019 0.0
H491 H 0.26787 0.24346 0.56988 0.0
O492 O 0.36148 0.17924 0.64435 0.0
O493 O 0.36518 0.20048 0.53686 0.0
O494 O 0.2944 0.12704 0.53271 0.0
O495 O 0.28276 0.18036 0.4525 0.0
C496 C 0.34889 0.39491 0.52883 0.0
C497 C 0.39555 0.39536 0.5023 0.0
H498 H 0.44696 0.36297 0.43835 0.0
H499 H 0.48072 0.27489 0.35374 0.0
H500 H 0.24706 0.31046 0.6395 0.0
H501 H 0.27914 0.37923 0.61498 0.0
H502 H 0.34238 0.41951 0.56951 0.0
H503 H 0.42156 0.41764 0.52686 0.0
Mn504 Mn 0.54699 0.59698 0.29028 0.0
Mn505 Mn 0.46751 0.57379 0.16417 0.0
C506 C 0.46128 0.60474 0.3231 0.0
C507 C 0.59112 0.6512 0.35284 0.0
C508 C 0.52904 0.50021 0.22784 0.0
O509 O 0.58892 0.61126 0.20084 0.0
O510 O 0.53758 0.58171 0.12478 0.0
C511 C 0.43113 0.66143 0.01597 0.0
N512 N 0.42861 0.62524 0.12016 0.0
C513 C 0.33353 0.65539 0.16086 0.0
C514 C 0.32331 0.68376 0.08823 0.0
C515 C 0.38123 0.68847 -0.00057 0.0
C516 C 0.38354 0.6265 0.17407 0.0
H517 H 0.45756 0.66171 0.97208 0.0
C518 C 0.57759 0.6013 0.13721 0.0
O519 O 0.60424 0.60984 0.35555 0.0
O520 O 0.55365 0.66032 0.31525 0.0
N521 N 0.40923 0.55928 0.21128 0.0
C522 C 0.40531 0.52461 0.25578 0.0
C523 C 0.36124 0.51717 0.28952 0.0
C524 C 0.32183 0.54377 0.27671 0.0
C525 C 0.33114 0.58543 0.2513 0.0
C526 C 0.37623 0.59183 0.21626 0.0
H527 H 0.43685 0.50435 0.26833 0.0
O528 O 0.49478 0.59168 0.36627 0.0
O529 O 0.47931 0.60766 0.25692 0.0
O530 O 0.55033 0.52557 0.27406 0.0
O531 O 0.49612 0.51614 0.18915 0.0
C532 C 0.29598 0.61862 0.25611 0.0
C533 C 0.30039 0.65645 0.21579 0.0
H534 H 0.28997 0.70229 0.0887 0.0
H535 H 0.37934 0.683 0.9457 0.0
H536 H 0.38616 0.53162 0.326 0.0
H537 H 0.28546 0.53245 0.28742 0.0
H538 H 0.26327 0.61383 0.28696 0.0
H539 H 0.27265 0.68186 0.21845 0.0
Mn540 Mn 0.10918 0.81481 0.05837 0.0
Mn541 Mn 0.14092 0.73651 0.9387 0.0
C542 C 0.11608 0.73959 0.10926 0.0
C543 C 0.03463 0.84282 0.11037 0.0
C544 C 0.21329 0.80631 -0.0098 0.0
O545 O 0.09434 0.84448 0.95859 0.0
O546 O 0.11316 0.78862 0.88541 0.0
C547 C 0.02785 0.69519 0.8458 0.0
N548 N 0.0849 0.68869 0.86195 0.0
C549 C 0.06878 0.58668 0.94541 0.0
C550 C 0.00336 0.60071 0.92639 0.0
C551 C 0.98398 0.65235 0.87919 0.0
C552 C 0.11613 0.6252 0.91638 0.0
H553 H 0.02749 0.72181 0.80176 0.0
C554 C 0.09834 0.82852 0.89528 0.0
O555 O 0.07475 0.86499 0.1119 0.0
O556 O 0.03716 0.80694 0.07486 0.0
N557 N 0.17877 0.67198 -0.00414 0.0
C558 C 0.20576 0.67634 0.0545 0.0
C559 C 0.21704 0.6389 0.09347 0.0
C560 C 0.19823 0.59768 0.07676 0.0
C561 C 0.16498 0.59233 0.02176 0.0
C562 C 0.15873 0.62778 0.97371 0.0
H563 H 0.21326 0.70921 0.07481 0.0
O564 O 0.1181 0.77459 0.14858 0.0
O565 O 0.11497 0.75292 0.04101 0.0
O566 O 0.1868 0.82556 0.03937 0.0
O567 O 0.19768 0.77228 0.95838 0.0
C568 C 0.13167 0.55741 0.03034 0.0
C569 C 0.08549 0.55631 0.00203 0.0
H570 H 0.0344 0.58962 0.93932 0.0
H571 H 0.00079 0.67798 0.85659 0.0
H572 H 0.23072 0.64263 0.14514 0.0
H573 H 0.20124 0.57276 0.11761 0.0
H574 H 0.1378 0.53284 0.07092 0.0
H575 H 0.05954 0.53325 0.02464 0.0
Mn576 Mn 0.57399 0.84323 0.77937 0.0
Mn577 Mn 0.48343 0.88003 0.67266 0.0
C578 C 0.49345 0.85437 0.82677 0.0
C579 C 0.60382 0.76134 0.82445 0.0
C580 C 0.55592 0.94954 0.72955 0.0
O581 O 0.60404 0.83457 0.68011 0.0
O582 O 0.54074 0.85875 0.61518 0.0
C583 C 0.46152 0.79074 0.61544 0.0
N584 N 0.44635 0.82858 0.64822 0.0
C585 C 0.36421 0.80144 0.65465 0.0
C586 C 0.37897 0.76222 0.62068 0.0
C587 C 0.4279 0.75689 0.6013 0.0
C588 C 0.39946 0.83403 0.66764 0.0
H589 H 0.49899 0.78642 0.60035 0.0
C590 C 0.58403 0.84312 0.62047 0.0
O591 O 0.62525 0.79881 0.83219 0.0
O592 O 0.56559 0.77059 0.78958 0.0
N593 N 0.42581 0.89948 0.72064 0.0
C594 C 0.42038 0.93302 0.76858 0.0
C595 C 0.37396 0.94248 0.79621 0.0
C596 C 0.3341 0.91603 0.77639 0.0
C597 C 0.3415 0.87914 0.73199 0.0
C598 C 0.38838 0.872 0.70518 0.0
H599 H 0.45145 0.95188 0.78634 0.0
O600 O 0.53122 0.8507 0.86611 0.0
O601 O 0.50399 0.84972 0.75979 0.0
O602 O 0.58032 0.91937 0.76754 0.0
O603 O 0.51868 0.93671 0.69421 0.0
C604 C 0.30489 0.84781 0.7166 0.0
C605 C 0.31625 0.80893 0.67799 0.0
H606 H 0.3532 0.73585 0.60977 0.0
H607 H 0.43974 0.72702 0.57481 0.0
H608 H 0.36913 0.96966 0.83334 0.0
H609 H 0.29857 0.92296 0.79854 0.0
H610 H 0.26828 0.85251 0.73636 0.0
H611 H 0.28816 0.78443 0.66833 0.0
Mn612 Mn 0.374 0.26069 0.03134 0.0
Mn613 Mn 0.328 0.35787 0.0557 0.0
C614 C 0.42399 0.31072 0.1085 0.0
C615 C 0.37061 0.18723 0.07353 0.0
C616 C 0.37653 0.32932 0.91666 0.0
O617 O 0.30301 0.25822 0.9831 0.0
O618 O 0.27589 0.31018 0.05337 0.0
C619 C 0.23118 0.39378 0.07259 0.0
N620 N 0.27756 0.40085 0.04866 0.0
C621 C 0.26934 0.47872 0.07364 0.0
C622 C 0.22091 0.47208 0.09288 0.0
C623 C 0.20161 0.4294 0.09235 0.0
C624 C 0.29699 0.44191 0.05183 0.0
H625 H 0.21735 0.36096 0.08121 0.0
C626 C 0.26708 0.28204 0.0041 0.0
O627 O 0.38431 0.19611 0.00924 0.0
O628 O 0.35525 0.22057 0.11067 0.0
N629 N 0.37169 0.40579 0.04902 0.0
C630 C 0.41976 0.4055 0.03288 0.0
C631 C 0.44684 0.4442 0.04345 0.0
C632 C 0.4226 0.48256 0.06573 0.0
C633 C 0.37146 0.48335 0.06553 0.0
C634 C 0.34714 0.44423 0.05046 0.0
H635 H 0.43688 0.37583 0.01303 0.0
O636 O 0.43907 0.27274 0.08565 0.0
O637 O 0.3801 0.31744 0.08232 0.0
O638 O 0.3966 0.29469 0.94304 0.0
O639 O 0.34316 0.35154 0.95002 0.0
C640 C 0.34375 0.51997 0.08643 0.0
C641 C 0.29327 0.51849 0.08878 0.0
H642 H 0.19992 0.49845 0.11613 0.0
H643 H 0.16515 0.42357 0.11183 0.0
H644 H 0.48586 0.44415 0.0366 0.0
H645 H 0.44354 0.51143 0.08013 0.0
H646 H 0.36083 0.54863 0.10544 0.0
H647 H 0.27455 0.54674 0.11042 0.0
Mn648 Mn 0.90425 0.11149 0.27812 0.0
Mn649 Mn -0.00595 0.07086 0.17247 0.0
C650 C 0.98421 0.09822 0.32599 0.0
C651 C 0.87552 0.19257 0.32561 0.0
C652 C 0.91506 0.00539 0.22349 0.0
O653 O 0.87604 0.12076 0.17833 0.0
O654 O 0.93971 0.09534 0.11426 0.0
C655 C 0.02368 0.15887 0.11932 0.0
N656 N 0.03551 0.11969 0.15035 0.0
C657 C 0.11955 0.14095 0.15861 0.0
C658 C 0.10831 0.18149 0.12617 0.0
C659 C 0.06004 0.19059 0.10713 0.0
C660 C 0.08164 0.11073 0.16988 0.0
H661 H 0.98671 0.16582 0.10445 0.0
C662 C 0.89675 0.11156 0.11918 0.0
O663 O 0.85266 0.15554 0.33048 0.0
O664 O 0.91435 0.18339 0.29154 0.0
N665 N 0.049 0.04778 0.22259 0.0
C666 C 0.05048 0.01556 0.27309 0.0
C667 C 0.09538 0.00343 0.30284 0.0
C668 C 0.1379 0.02599 0.28257 0.0
C669 C 0.13463 0.06213 0.236 0.0
C670 C 0.089 0.0721 0.20725 0.0
H671 H 0.01753 -0.00037 0.29069 0.0
O672 O 0.94634 0.10293 0.36516 0.0
O673 O 0.97395 0.10232 0.25897 0.0
O674 O 0.8934 0.03599 0.2644 0.0
O675 O 0.95361 0.01681 0.19004 0.0
C676 C 0.17395 0.09075 0.22168 0.0
C677 C 0.16641 0.13018 0.18303 0.0
H678 H 0.13622 0.2062 0.11687 0.0
H679 H 0.05081 0.22186 0.08288 0.0
H680 H 0.09705 -0.02258 0.34227 0.0
H681 H 0.17226 0.01708 0.3065 0.0
H682 H 0.20966 0.08381 0.24294 0.0
H683 H 0.1965 0.1528 0.17473 0.0
Mn684 Mn 0.11147 0.68805 0.53693 0.0
Mn685 Mn 0.15663 0.59017 0.55234 0.0
C686 C 0.06132 0.63729 0.61005 0.0
C687 C 0.11549 0.76005 0.58271 0.0
C688 C 0.1075 0.62313 0.41701 0.0
O689 O 0.18126 0.69198 0.48625 0.0
O690 O 0.20957 0.63731 0.54893 0.0
C691 C 0.25227 0.55383 0.57076 0.0
N692 N 0.20654 0.54657 0.5443 0.0
C693 C 0.21346 0.46931 0.57464 0.0
C694 C 0.26141 0.47633 0.59599 0.0
C695 C 0.28113 0.5187 0.59354 0.0
C696 C 0.18665 0.50562 0.54868 0.0
H697 H 0.26552 0.58659 0.58129 0.0
C698 C 0.21726 0.66707 0.502 0.0
O699 O 0.10189 0.75147 0.51839 0.0
O700 O 0.13073 0.72646 0.61905 0.0
N701 N 0.11252 0.54265 0.54492 0.0
C702 C 0.06438 0.54348 0.52988 0.0
C703 C 0.03657 0.50561 0.54347 0.0
C704 C 0.06013 0.46773 0.56861 0.0
C705 C 0.11126 0.46597 0.56736 0.0
C706 C 0.13635 0.50387 0.5475 0.0
H707 H 0.04768 0.57322 0.50987 0.0
O708 O 0.04664 0.67598 0.59087 0.0
O709 O 0.10499 0.6304 0.58265 0.0
O710 O 0.08815 0.65704 0.44697 0.0
O711 O 0.14006 0.59868 0.4477 0.0
C712 C 0.13822 0.42993 0.59218 0.0
C713 C 0.18866 0.43068 0.59389 0.0
H714 H 0.28128 0.45113 0.6238 0.0
H715 H 0.31687 0.52502 0.61528 0.0
H716 H -0.0025 0.50616 0.53762 0.0
H717 H 0.03869 0.43985 0.58599 0.0
H718 H 0.12062 0.40252 0.6149 0.0
H719 H 0.20646 0.40353 0.61988 0.0
Mn720 Mn 0.57389 0.10904 0.68989 0.0
Mn721 Mn 0.48308 0.07241 0.79643 0.0
C722 C 0.49332 0.09786 0.6422 0.0
C723 C 0.60331 0.19112 0.64473 0.0
C724 C 0.55569 0.00281 0.73994 0.0
O725 O 0.60391 0.11762 0.78924 0.0
O726 O 0.5404 0.0932 0.85382 0.0
C727 C 0.4631 0.16321 0.84895 0.0
N728 N 0.44681 0.12441 0.82024 0.0
C729 C 0.36529 0.15262 0.81264 0.0
C730 C 0.3811 0.19269 0.84305 0.0
C731 C 0.43036 0.19813 0.86049 0.0
C732 C 0.39979 0.11919 0.80148 0.0
H733 H 0.50095 0.16771 0.86193 0.0
C734 C 0.5838 0.1086 0.84878 0.0
O735 O 0.62494 0.15384 0.63692 0.0
O736 O 0.56518 0.1816 0.67984 0.0
N737 N 0.4252 0.0532 0.74917 0.0
C738 C 0.41931 0.01952 0.70161 0.0
C739 C 0.37271 0.01019 0.67464 0.0
C740 C 0.3332 0.03699 0.69454 0.0
C741 C 0.34114 0.07409 0.73835 0.0
C742 C 0.38811 0.08095 0.76487 0.0
H743 H 0.45017 0.0005 0.6836 0.0
O744 O 0.53124 0.10152 0.60301 0.0
O745 O 0.50382 0.10241 0.70914 0.0
O746 O 0.58024 0.03302 0.70201 0.0
O747 O 0.51807 0.01549 0.77483 0.0
C748 C 0.30507 0.106 0.75297 0.0
C749 C 0.31718 0.14533 0.78992 0.0
H750 H 0.35598 0.21981 0.85181 0.0
H751 H 0.44322 0.22915 0.88261 0.0
H752 H 0.3675 -0.0171 0.63784 0.0
H753 H 0.29757 0.03025 0.67267 0.0
H754 H 0.26841 0.10152 0.73338 0.0
H755 H 0.28962 0.17045 0.79831 0.0
Mn756 Mn 0.10966 0.26094 0.93683 0.0
Mn757 Mn 0.15501 0.35922 0.92019 0.0
C758 C 0.05969 0.31197 0.86258 0.0
C759 C 0.11369 0.18843 0.8917 0.0
C760 C 0.10611 0.32676 0.05542 0.0
O761 O 0.18027 0.25797 -0.01412 0.0
O762 O 0.20732 0.31179 0.91983 0.0
C763 C 0.25149 0.39557 0.90693 0.0
N764 N 0.20504 0.40259 0.9306 0.0
C765 C 0.21269 0.48008 0.90244 0.0
C766 C 0.26097 0.4732 0.88275 0.0
C767 C 0.28073 0.43093 0.88571 0.0
C768 C 0.1854 0.44362 0.92686 0.0
H769 H 0.26532 0.36286 0.89787 0.0
C770 C 0.21614 0.28247 0.9669 0.0
O771 O 0.09987 0.19634 0.9563 0.0
O772 O 0.12892 0.22227 0.85579 0.0
N773 N 0.11106 0.40681 0.92967 0.0
C774 C 0.06276 0.40593 0.94379 0.0
C775 C 0.03534 0.44406 0.93087 0.0
C776 C 0.05932 0.48216 0.90691 0.0
C777 C 0.11045 0.48379 0.90866 0.0
C778 C 0.13514 0.44558 0.92803 0.0
H779 H 0.04568 0.376 0.96261 0.0
O780 O 0.04483 0.27334 0.88246 0.0
O781 O 0.10332 0.31876 0.88994 0.0
O782 O 0.08632 0.29285 0.0261 0.0
O783 O 0.13969 0.35008 0.02481 0.0
C784 C 0.13789 0.51981 0.88393 0.0
C785 C 0.18839 0.51893 0.88336 0.0
H786 H 0.28129 0.49849 0.85601 0.0
H787 H 0.317 0.42496 0.86559 0.0
H788 H -0.00379 0.4435 0.93606 0.0
H789 H 0.03816 0.51018 0.88959 0.0
H790 H 0.12075 0.54729 0.86031 0.0
H791 H 0.20686 0.5463 0.85877 0.0
Mn792 Mn 0.90723 0.8442 0.18838 0.0
Mn793 Mn -0.00524 0.89332 0.29003 0.0
C794 C 0.98692 0.85606 0.1417 0.0
C795 C 0.87806 0.76219 0.14402 0.0
C796 C 0.91418 0.95235 0.23396 0.0
O797 O 0.88013 0.83695 0.28981 0.0
O798 O 0.94347 0.86503 0.35323 0.0
C799 C 0.04279 0.83445 0.38598 0.0
N800 N 0.04465 0.85473 0.32174 0.0
C801 C 0.13252 0.85552 0.32539 0.0
C802 C 0.13089 0.8335 0.39053 0.0
C803 C 0.08571 0.82626 0.42267 0.0
C804 C 0.08818 0.86846 0.29542 0.0
H805 H 0.00877 0.83002 0.41357 0.0
C806 C 0.90129 0.8461 0.34886 0.0
O807 O 0.85554 0.79933 0.13766 0.0
O808 O 0.91671 0.7718 0.17855 0.0
N809 N 0.04365 0.91858 0.22948 0.0
C810 C 0.03807 0.94501 0.17126 0.0
C811 C 0.07937 0.96034 0.1346 0.0
C812 C 0.12583 0.94702 0.15678 0.0
C813 C 0.13021 0.91666 0.21284 0.0
C814 C 0.08746 0.90163 0.24562 0.0
H815 H 0.00241 0.95373 0.15273 0.0
O816 O 0.94938 0.85058 0.10207 0.0
O817 O 0.97694 0.85421 0.20935 0.0
O818 O 0.89473 0.92038 0.19341 0.0
O819 O 0.95034 0.94231 0.27132 0.0
C820 C 0.17504 0.90035 0.23707 0.0
C821 C 0.17626 0.87063 0.29472 0.0
H822 H 0.1639 0.82657 0.41969 0.0
H823 H 0.08324 0.81942 0.47807 0.0
H824 H 0.07536 -0.01774 0.08958 0.0
H825 H 0.15768 0.95933 0.12931 0.0
H826 H 0.20876 0.91162 0.21348 0.0
H827 H 0.21097 0.86071 0.31646 0.0
Mn828 Mn 0.37385 0.69014 0.43299 0.0
Mn829 Mn 0.32759 0.59295 0.42121 0.0
C830 C 0.42353 0.63824 0.35791 0.0
C831 C 0.36896 0.76245 0.3896 0.0
C832 C 0.3749 0.62875 0.55394 0.0
O833 O 0.30331 0.69293 0.48329 0.0
O834 O 0.27691 0.64104 0.41318 0.0
C835 C 0.23141 0.55768 0.40224 0.0
N836 N 0.27663 0.55059 0.43028 0.0
C837 C 0.27009 0.47332 0.39959 0.0
C838 C 0.22233 0.47996 0.37723 0.0
C839 C 0.20266 0.52231 0.37924 0.0
C840 C 0.29603 0.50933 0.42909 0.0
H841 H 0.21792 0.59042 0.3926 0.0
C842 C 0.26743 0.66897 0.46255 0.0
O843 O 0.38294 0.75444 0.45379 0.0
O844 O 0.35411 0.72865 0.35267 0.0
N845 N 0.37006 0.54579 0.44267 0.0
C846 C 0.41875 0.54757 0.45434 0.0
C847 C 0.44644 0.50956 0.44179 0.0
C848 C 0.423 0.47148 0.41642 0.0
C849 C 0.37171 0.46935 0.41646 0.0
C850 C 0.34604 0.50688 0.43789 0.0
H851 H 0.43636 0.57853 0.46729 0.0
O852 O 0.4382 0.67731 0.37657 0.0
O853 O 0.38061 0.6314 0.38797 0.0
O854 O 0.39767 0.65961 0.52165 0.0
O855 O 0.33937 0.60698 0.52529 0.0
C856 C 0.34582 0.43499 0.38332 0.0
C857 C 0.29552 0.43554 0.37849 0.0
H858 H 0.20257 0.45432 0.34962 0.0
H859 H 0.16708 0.52833 0.35691 0.0
H860 H 0.48564 0.5108 0.44522 0.0
H861 H 0.44476 0.44442 0.39617 0.0
H862 H 0.36442 0.4085 0.35846 0.0
H863 H 0.27798 0.40878 0.35031 0.0
Mn864 Mn 0.43712 0.09689 0.17578 0.0
Mn865 Mn 0.51911 0.07432 0.29852 0.0
C866 C 0.52244 0.10388 0.14296 0.0
C867 C 0.39368 0.15068 0.11163 0.0
C868 C 0.45805 0.00044 0.237 0.0
O869 O 0.39619 0.11227 0.26461 0.0
O870 O 0.44704 0.07965 0.338 0.0
C871 C 0.55075 0.16171 0.45134 0.0
N872 N 0.55546 0.12689 0.34547 0.0
C873 C 0.65019 0.1603 0.30882 0.0
C874 C 0.65889 0.18712 0.38317 0.0
C875 C 0.59979 0.18949 0.47052 0.0
C876 C 0.60116 0.13033 0.29261 0.0
H877 H 0.52387 0.1607 0.49464 0.0
C878 C 0.4074 0.10097 0.32738 0.0
O879 O 0.37974 0.10945 0.11047 0.0
O880 O 0.43124 0.15993 0.14902 0.0
N881 N 0.57924 0.06299 0.25025 0.0
C882 C 0.59049 0.02577 0.21381 0.0
C883 C 0.63865 0.01855 0.19492 0.0
C884 C 0.67195 0.05209 0.1963 0.0
C885 C 0.65643 0.09362 0.21422 0.0
C886 C 0.61023 0.09721 0.24746 0.0
H887 H 0.56336 0.00192 0.20038 0.0
O888 O 0.48876 0.09068 0.09992 0.0
O889 O 0.50495 0.10774 0.20868 0.0
O890 O 0.43285 0.02571 0.19537 0.0
O891 O 0.49447 0.01631 0.26866 0.0
C892 C 0.68889 0.12916 0.2098 0.0
C893 C 0.68316 0.16507 0.25412 0.0
H894 H 0.69167 0.20644 0.3843 0.0
H895 H 0.6011 0.18374 0.52403 0.0
H896 H 0.65154 -0.0128 0.17989 0.0
H897 H 0.70969 0.04518 0.18628 0.0
H898 H 0.72253 0.1263 0.18032 0.0
H899 H 0.71102 0.1905 0.25603 0.0
Mn900 Mn 0.60967 0.638 0.91048 0.0
Mn901 Mn 0.64265 0.71637 0.02999 0.0
C902 C 0.61725 0.71316 0.85961 0.0
C903 C 0.53347 0.61093 0.85825 0.0
C904 C 0.71404 0.64593 0.9798 0.0
O905 O 0.59548 0.60912 0.01057 0.0
O906 O 0.61608 0.66433 0.08404 0.0
C907 C 0.52899 0.75614 0.12346 0.0
N908 N 0.58604 0.76329 0.10715 0.0
C909 C 0.569 0.86529 0.02433 0.0
C910 C 0.50372 0.85056 0.04352 0.0
C911 C 0.48474 0.79863 0.09046 0.0
C912 C 0.61666 0.82727 0.05299 0.0
H913 H 0.52839 0.72897 0.1667 0.0
C914 C 0.60128 0.62457 0.07395 0.0
O915 O 0.57303 0.58811 0.85741 0.0
O916 O 0.53722 0.64667 0.8938 0.0
N917 N 0.67985 0.78135 0.97291 0.0
C918 C 0.70681 0.77741 0.91402 0.0
C919 C 0.71826 0.81511 0.87561 0.0
C920 C 0.69857 0.8559 0.89229 0.0
C921 C 0.66525 0.86084 0.94747 0.0
C922 C 0.65938 0.82528 -0.00456 0.0
H923 H 0.71395 0.74467 0.8931 0.0
O924 O 0.61879 0.67817 0.82024 0.0
O925 O 0.61651 0.69977 0.92781 0.0
O926 O 0.68732 0.62678 0.93061 0.0
O927 O 0.69936 0.68089 0.01 0.0
C928 C 0.63171 0.8955 0.93941 0.0
C929 C 0.58549 0.89598 0.96782 0.0
H930 H 0.53469 0.86197 0.03053 0.0
H931 H 0.50184 0.77315 0.11275 0.0
H932 H 0.73338 0.81214 0.82448 0.0
H933 H 0.70126 0.88066 0.85128 0.0
H934 H 0.63763 0.92027 0.89901 0.0
H935 H 0.55936 0.9189 0.94557 0.0
Mn936 Mn 0.04731 0.85275 0.67869 0.0
Mn937 Mn 0.96351 0.87759 0.79797 0.0
C938 C 0.96237 0.84503 0.64271 0.0
C939 C 0.0927 0.79714 0.62054 0.0
C940 C 0.02499 0.9505 0.73513 0.0
O941 O 0.08707 0.83957 0.76887 0.0
O942 O 0.03523 0.87318 0.83985 0.0
C943 C 0.93072 0.79099 0.95065 0.0
N944 N 0.92637 0.82577 0.84518 0.0
C945 C 0.83183 0.79218 0.80784 0.0
C946 C 0.82293 0.76532 0.88176 0.0
C947 C 0.88172 0.7632 0.96937 0.0
C948 C 0.88094 0.82214 0.79202 0.0
H949 H 0.95755 0.79191 -0.00608 0.0
C950 C 0.07513 0.85181 0.83094 0.0
O951 O 0.10606 0.83846 0.61668 0.0
O952 O 0.054 0.78891 0.65606 0.0
N953 N 0.90396 0.88852 0.74827 0.0
C954 C 0.89285 0.92577 0.71234 0.0
C955 C 0.84464 0.93327 0.69427 0.0
C956 C 0.81107 0.89999 0.69613 0.0
C957 C 0.82643 0.85835 0.71305 0.0
C958 C 0.87263 0.85458 0.7459 0.0
H959 H 0.92003 0.94957 0.69904 0.0
O960 O -0.00292 0.85712 0.60057 0.0
O961 O 0.97862 0.84251 0.70926 0.0
O962 O 0.05088 0.92455 0.69496 0.0
O963 O 0.98856 0.935 0.76708 0.0
C964 C 0.79368 0.82302 0.70875 0.0
C965 C 0.79908 0.7873 0.75306 0.0
H966 H 0.79003 0.74613 0.88279 0.0
H967 H 0.88015 0.76921 0.02304 0.0
H968 H 0.83195 0.96458 0.67901 0.0
H969 H 0.77331 0.9072 0.68694 0.0
H970 H 0.76011 0.82594 0.67936 0.0
H971 H 0.7713 0.7618 0.7546 0.0
Mn972 Mn 0.87171 0.31509 0.41504 0.0
Mn973 Mn 0.84044 0.23614 0.53309 0.0
C974 C 0.8626 0.2403 0.36266 0.0
C975 C 0.94598 0.34246 0.36088 0.0
C976 C 0.76795 0.30663 0.48563 0.0
O977 O 0.88859 0.34393 0.51471 0.0
O978 O 0.86836 0.2884 0.58717 0.0
C979 C 0.95406 0.19542 0.62471 0.0
N980 N 0.89696 0.18857 0.60864 0.0
C981 C 0.91338 0.08678 0.5237 0.0
C982 C 0.97873 0.1012 0.54257 0.0
C983 C -0.00193 0.15282 0.59054 0.0
C984 C 0.86599 0.12499 0.55341 0.0
H985 H 0.9547 0.22243 0.66847 0.0
C986 C 0.88425 0.32802 0.57774 0.0
O987 O 0.90648 0.36544 0.36222 0.0
O988 O 0.94328 0.30636 0.3953 0.0
N989 N 0.80289 0.17121 0.47506 0.0
C990 C 0.77453 0.17498 0.41784 0.0
C991 C 0.76215 0.13707 0.38001 0.0
C992 C 0.78288 0.09648 0.39463 0.0
C993 C 0.817 0.09166 0.44839 0.0
C994 C 0.82331 0.12722 0.49652 0.0
H995 H 0.76685 0.20769 0.39775 0.0
O996 O 0.86048 0.27553 0.32436 0.0
O997 O 0.8653 0.25317 0.43108 0.0
O998 O 0.79456 0.32654 0.43738 0.0
O999 O 0.78314 0.27165 0.51491 0.0
C1000 C 0.8503 0.05682 0.43934 0.0
C1001 C 0.89653 0.05589 0.46746 0.0
H1002 H 0.94768 0.08996 0.52965 0.0
H1003 H 0.98114 0.17832 0.6135 0.0
H1004 H 0.7451 0.13968 0.33047 0.0
H1005 H 0.77983 0.07176 0.35334 0.0
H1006 H 0.84401 0.03207 0.39879 0.0
H1007 H 0.92242 0.03275 0.4448 0.0
Mn1008 Mn 0.43743 0.85265 0.29279 0.0
Mn1009 Mn 0.51993 0.87658 0.17184 0.0
C1010 C 0.52265 0.84461 0.32698 0.0
C1011 C 0.3922 0.79878 0.35209 0.0
C1012 C 0.45827 0.94963 0.23427 0.0
O1013 O 0.3967 0.83832 0.20392 0.0
O1014 O 0.44813 0.87098 0.13133 0.0
C1015 C 0.55255 0.79003 0.018 0.0
N1016 N 0.55712 0.82503 0.12372 0.0
C1017 C 0.65203 0.79246 0.15996 0.0
C1018 C 0.66089 0.76565 0.08564 0.0
C1019 C 0.60173 0.76271 -0.00139 0.0
C1020 C 0.60278 0.82192 0.17644 0.0
H1021 H 0.52557 0.7907 0.97492 0.0
C1022 C 0.40833 0.84962 0.14147 0.0
O1023 O 0.3792 0.84018 0.35572 0.0
O1024 O 0.43062 0.78956 0.3164 0.0
N1025 N 0.57953 0.88814 0.22109 0.0
C1026 C 0.59069 0.92563 0.25686 0.0
C1027 C 0.63896 0.93346 0.27444 0.0
C1028 C 0.67248 0.90017 0.27301 0.0
C1029 C 0.65711 0.85839 0.25605 0.0
C1030 C 0.61092 0.85433 0.2232 0.0
H1031 H 0.56348 0.94934 0.27031 0.0
O1032 O 0.48855 0.85749 0.36968 0.0
O1033 O 0.50569 0.84177 0.26075 0.0
O1034 O 0.43329 0.92402 0.27573 0.0
O1035 O 0.49475 0.93414 0.20241 0.0
C1036 C 0.68991 0.8232 0.25989 0.0
C1037 C 0.68457 0.78751 0.21498 0.0
H1038 H 0.69361 0.74636 0.08452 0.0
H1039 H 0.60303 0.76869 0.94518 0.0
H1040 H 0.65166 0.96496 0.28917 0.0
H1041 H 0.71023 0.90749 0.28221 0.0
H1042 H 0.72349 0.82627 0.28928 0.0
H1043 H 0.71231 0.76206 0.21322 0.0
Mn1044 Mn 0.87264 0.63824 0.05637 0.0
Mn1045 Mn 0.84157 0.71628 0.93698 0.0
C1046 C 0.86493 0.7138 0.10784 0.0
C1047 C 0.94655 0.61053 0.11093 0.0
C1048 C 0.76923 0.64569 0.98445 0.0
O1049 O 0.88884 0.60872 0.95654 0.0
O1050 O 0.86959 0.66409 0.8834 0.0
C1051 C 0.95504 0.75717 0.84514 0.0
N1052 N 0.89789 0.76378 0.86096 0.0
C1053 C 0.91368 0.8661 0.94467 0.0
C1054 C 0.97915 0.85195 0.92614 0.0
C1055 C -0.00121 0.80013 0.8789 0.0
C1056 C 0.86648 0.82751 0.91528 0.0
H1057 H 0.95569 0.73025 0.80123 0.0
C1058 C 0.88462 0.62432 0.89321 0.0
O1059 O 0.90673 0.58786 0.1099 0.0
O1060 O 0.94436 0.64641 0.0758 0.0
N1061 N 0.80336 0.78111 -0.00576 0.0
C1062 C 0.77616 0.77705 0.05275 0.0
C1063 C 0.76424 0.81476 0.0912 0.0
C1064 C 0.78374 0.85568 0.07506 0.0
C1065 C 0.81714 0.86085 0.0202 0.0
C1066 C 0.82354 0.82521 0.97223 0.0
H1067 H 0.76937 0.74429 0.07351 0.0
O1068 O 0.86237 0.6788 0.14665 0.0
O1069 O 0.8668 0.70021 0.03955 0.0
O1070 O 0.79531 0.62687 0.03429 0.0
O1071 O 0.78455 0.6804 0.95452 0.0
C1072 C 0.85021 0.896 0.02858 0.0
C1073 C 0.89661 0.89692 0.00088 0.0
H1074 H 0.94804 0.86309 0.93884 0.0
H1075 H 0.98207 0.77442 0.85615 0.0
H1076 H 0.74942 0.81175 0.14238 0.0
H1077 H 0.78116 0.88027 0.11655 0.0
H1078 H 0.84364 0.92105 0.06851 0.0
H1079 H 0.92239 0.92019 0.02354 0.0
Mn1080 Mn 0.04572 0.0985 0.79088 0.0
Mn1081 Mn 0.96255 0.07452 0.67046 0.0
C1082 C 0.96057 0.10685 0.82543 0.0
C1083 C 0.09063 0.15226 0.85262 0.0
C1084 C 0.02463 0.00137 0.7318 0.0
O1085 O 0.08605 0.11236 0.70103 0.0
O1086 O 0.03412 0.07942 0.62913 0.0
C1087 C 0.93022 0.16203 0.51869 0.0
N1088 N 0.92559 0.12664 0.62376 0.0
C1089 C 0.83084 0.15954 0.66129 0.0
C1090 C 0.82206 0.18671 0.58772 0.0
C1091 C 0.88109 0.18973 0.50022 0.0
C1092 C 0.87995 0.12975 0.67681 0.0
H1093 H 0.95714 0.16143 0.47544 0.0
C1094 C 0.07411 0.10053 0.63865 0.0
O1095 O 0.10379 0.11089 0.85452 0.0
O1096 O 0.05281 0.16168 0.81598 0.0
N1097 N 0.90294 0.06321 0.71998 0.0
C1098 C 0.89197 0.02593 0.75601 0.0
C1099 C 0.84375 0.01803 0.7739 0.0
C1100 C 0.80995 0.051 0.77178 0.0
C1101 C 0.82513 0.09276 0.75498 0.0
C1102 C 0.87147 0.09697 0.72242 0.0
H1103 H 0.9193 0.0024 0.76945 0.0
O1104 O -0.00546 0.09393 0.86797 0.0
O1105 O 0.97752 0.10941 0.75922 0.0
O1106 O 0.04969 0.02715 0.77305 0.0
O1107 O 0.98787 0.01676 0.70053 0.0
C1108 C 0.79219 0.12782 0.75944 0.0
C1109 C 0.79788 0.16394 0.71605 0.0
H1110 H 0.78905 0.20565 0.58688 0.0
H1111 H 0.87978 0.18438 0.44629 0.0
H1112 H 0.83116 -0.01337 0.78888 0.0
H1113 H 0.77221 0.04347 0.78083 0.0
H1114 H 0.7584 0.1245 0.78834 0.0
H1115 H 0.77007 0.18933 0.71481 0.0
Mn1116 Mn 0.6086 0.31456 0.55881 0.0
Mn1117 Mn 0.64046 0.23622 0.43907 0.0
C1118 C 0.61638 0.2393 0.60933 0.0
C1119 C 0.5341 0.34226 0.61228 0.0
C1120 C 0.71272 0.30653 0.48951 0.0
O1121 O 0.59299 0.34408 0.45917 0.0
O1122 O 0.61302 0.28853 0.38601 0.0
C1123 C 0.52693 0.19559 0.34622 0.0
N1124 N 0.58402 0.18883 0.36209 0.0
C1125 C 0.5676 0.08656 0.44455 0.0
C1126 C 0.50222 0.10086 0.42584 0.0
C1127 C 0.48294 0.15271 0.37921 0.0
C1128 C 0.61503 0.12506 0.41586 0.0
H1129 H 0.52678 0.22239 0.30256 0.0
C1130 C 0.59764 0.32824 0.39584 0.0
O1131 O 0.57419 0.36452 0.6132 0.0
O1132 O 0.53661 0.30642 0.57664 0.0
N1133 N 0.67799 0.17129 0.49564 0.0
C1134 C 0.7056 0.17513 0.55377 0.0
C1135 C 0.71761 0.13726 0.59135 0.0
C1136 C 0.69782 0.09642 0.5749 0.0
C1137 C 0.66394 0.0916 0.52063 0.0
C1138 C 0.6577 0.12727 0.47308 0.0
H1139 H 0.71312 0.20782 0.57462 0.0
O1140 O 0.6185 0.27428 0.64872 0.0
O1141 O 0.61459 0.25266 0.5412 0.0
O1142 O 0.68604 0.32589 0.53839 0.0
O1143 O 0.69756 0.27185 0.4588 0.0
C1144 C 0.63049 0.05678 0.52914 0.0
C1145 C 0.58429 0.05587 0.50078 0.0
H1146 H 0.53325 0.08964 0.43858 0.0
H1147 H 0.49978 0.17843 0.35684 0.0
H1148 H 0.73365 0.14002 0.64172 0.0
H1149 H 0.70115 0.07134 0.61532 0.0
H1150 H 0.63669 0.032 0.56942 0.0
H1151 H 0.55827 0.0328 0.52322 0.0
loop_
_geom_bond_atom_site_label_1
_geom_bond_atom_site_label_2
_geom_bond_distance
_geom_bond_site_symmetry_2
_ccdc_geom_bond_type
Mn0 O5 2.095 . S
Mn0 O15 2.162 . S
Mn0 O16 2.297 . S
Mn0 O24 2.385 . S
Mn0 O25 2.209 . S
Mn0 O26 2.094 . S
Mn1 O6 2.121 1_655 S
Mn1 N8 2.257 . S
Mn1 N17 2.282 . S
Mn1 O25 2.215 1_655 S
Mn1 O27 2.117 1_655 S
C2 O24 1.234 1_655 S
C2 O25 1.283 1_655 S
C3 O15 1.281 . S
C3 O16 1.236 . S
C4 O26 1.240 . S
C4 O27 1.264 . S
O5 Mn0 2.095 . S
O5 C14 1.250 . S
O6 Mn1 2.121 1_455 S
O6 C14 1.258 . S
C7 N8 1.326 . S
C7 C11 1.460 . S
C7 H13 0.929 . S
N8 Mn1 2.257 . S
N8 C7 1.326 . S
N8 C12 1.362 . S
C9 C10 1.258 . S
C9 C12 1.431 . S
C9 C29 1.449 . S
C10 C9 1.258 . S
C10 C11 1.477 . S
C10 H30 0.931 . S
C11 C7 1.460 . S
C11 C10 1.477 . S
C11 H31 0.930 . S
C12 N8 1.362 . S
C12 C9 1.431 . S
C12 C22 1.476 . S
H13 C7 0.929 . S
C14 O5 1.250 . S
C14 O6 1.258 . S
O15 Mn0 2.162 . S
O15 C3 1.281 . S
O16 Mn0 2.297 . S
O16 C3 1.236 . S
N17 Mn1 2.282 . S
N17 C18 1.328 . S
N17 C22 1.318 . S
C18 N17 1.328 . S
C18 C19 1.457 . S
C18 H23 0.929 . S
C19 C18 1.457 . S
C19 C20 1.291 . S
C19 H32 0.931 . S
C20 C19 1.291 . S
C20 C21 1.373 . S
C20 H33 0.929 . S
C21 C20 1.373 . S
C21 C22 1.396 . S
C21 C28 1.403 . S
C22 C12 1.476 . S
C22 N17 1.318 . S
C22 C21 1.396 . S
H23 C18 0.929 . S
O24 Mn0 2.385 . S
O24 C2 1.234 1_455 S
O25 Mn0 2.209 . S
O25 Mn1 2.215 1_455 S
O25 C2 1.283 1_455 S
O26 Mn0 2.094 . S
O26 C4 1.240 . S
O27 Mn1 2.117 1_455 S
O27 C4 1.264 . S
C28 C21 1.403 . S
C28 C29 1.399 . S
C28 H34 0.929 . S
C29 C9 1.449 . S
C29 C28 1.399 . S
C29 H35 0.930 . S
H30 C10 0.931 . S
H31 C11 0.930 . S
H32 C19 0.931 . S
H33 C20 0.929 . S
H34 C28 0.929 . S
H35 C29 0.930 . S
Mn36 O41 2.095 . S
Mn36 O51 2.162 . S
Mn36 O52 2.297 . S
Mn36 O60 2.385 . S
Mn36 O61 2.209 . S
Mn36 O62 2.094 . S
Mn37 O42 2.121 . S
Mn37 N44 2.257 . S
Mn37 N53 2.282 . S
Mn37 O61 2.215 . S
Mn37 O63 2.117 . S
C38 O60 1.234 . S
C38 O61 1.283 . S
C39 O51 1.281 . S
C39 O52 1.236 . S
C40 O62 1.240 . S
C40 O63 1.264 . S
O41 Mn36 2.095 . S
O41 C50 1.250 . S
O42 Mn37 2.121 . S
O42 C50 1.258 . S
C43 N44 1.326 . S
C43 C47 1.460 1_565 S
C43 H49 0.929 . S
N44 Mn37 2.257 . S
N44 C43 1.326 . S
N44 C48 1.362 1_565 S
C45 C46 1.258 . S
C45 C48 1.431 . S
C45 C65 1.449 . S
C46 C45 1.258 . S
C46 C47 1.477 . S
C46 H66 0.931 . S
C47 C43 1.460 1_545 S
C47 C46 1.477 . S
C47 H67 0.930 . S
C48 N44 1.362 1_545 S
C48 C45 1.431 . S
C48 C58 1.477 . S
H49 C43 0.929 . S
C50 O41 1.250 . S
C50 O42 1.258 . S
O51 Mn36 2.162 . S
O51 C39 1.281 . S
O52 Mn36 2.297 . S
O52 C39 1.236 . S
N53 Mn37 2.282 . S
N53 C54 1.328 . S
N53 C58 1.304 1_565 S
C54 N53 1.328 . S
C54 C55 1.457 . S
C54 H59 0.929 . S
C55 C54 1.457 . S
C55 C56 1.291 1_565 S
C55 H68 0.931 1_655 S
C56 C55 1.291 1_545 S
C56 C57 1.373 . S
C56 H69 0.929 1_655 S
C57 C56 1.373 . S
C57 C58 1.409 . S
C57 C64 1.403 . S
C58 C48 1.477 . S
C58 N53 1.304 1_545 S
C58 C57 1.409 . S
H59 C54 0.929 . S
O60 Mn36 2.385 . S
O60 C38 1.234 . S
O61 Mn36 2.209 . S
O61 Mn37 2.215 . S
O61 C38 1.283 . S
O62 Mn36 2.094 . S
O62 C40 1.240 . S
O63 Mn37 2.117 . S
O63 C40 1.264 . S
C64 C57 1.403 . S
C64 C65 1.399 . S
C64 H70 0.929 . S
C65 C45 1.449 . S
C65 C64 1.399 . S
C65 H71 0.930 . S
H66 C46 0.931 . S
H67 C47 0.930 . S
H68 C55 0.931 1_455 S
H69 C56 0.929 1_455 S
H70 C64 0.929 . S
H71 C65 0.930 . S
Mn72 O77 2.095 . S
Mn72 O87 2.162 . S
Mn72 O88 2.297 . S
Mn72 O96 2.385 . S
Mn72 O97 2.209 . S
Mn72 O98 2.094 . S
Mn73 O78 2.121 . S
Mn73 N80 2.257 . S
Mn73 N89 2.282 . S
Mn73 O97 2.215 . S
Mn73 O99 2.117 . S
C74 O96 1.234 . S
C74 O97 1.283 . S
C75 O87 1.281 . S
C75 O88 1.236 . S
C76 O98 1.240 . S
C76 O99 1.264 . S
O77 Mn72 2.095 . S
O77 C86 1.250 . S
O78 Mn73 2.121 . S
O78 C86 1.258 . S
C79 N80 1.326 . S
C79 C83 1.460 . S
C79 H85 0.929 . S
N80 Mn73 2.257 . S
N80 C79 1.326 . S
N80 C84 1.362 . S
C81 C82 1.258 . S
C81 C84 1.431 . S
C81 C101 1.449 . S
C82 C81 1.258 . S
C82 C83 1.477 . S
C82 H102 0.931 . S
C83 C79 1.460 . S
C83 C82 1.477 . S
C83 H103 0.930 . S
C84 N80 1.362 . S
C84 C81 1.431 . S
C84 C94 1.476 . S
H85 C79 0.929 . S
C86 O77 1.250 . S
C86 O78 1.258 . S
O87 Mn72 2.162 . S
O87 C75 1.281 . S
O88 Mn72 2.297 . S
O88 C75 1.236 . S
N89 Mn73 2.282 . S
N89 C90 1.328 . S
N89 C94 1.318 . S
C90 N89 1.328 . S
C90 C91 1.457 . S
C90 H95 0.929 . S
C91 C90 1.457 . S
C91 C92 1.291 . S
C91 H104 0.931 . S
C92 C91 1.291 . S
C92 C93 1.373 . S
C92 H105 0.929 . S
C93 C92 1.373 . S
C93 C94 1.396 . S
C93 C100 1.403 . S
C94 C84 1.476 . S
C94 N89 1.318 . S
C94 C93 1.396 . S
H95 C90 0.929 . S
O96 Mn72 2.385 . S
O96 C74 1.234 . S
O97 Mn72 2.209 . S
O97 Mn73 2.215 . S
O97 C74 1.283 . S
O98 Mn72 2.094 . S
O98 C76 1.240 . S
O99 Mn73 2.117 . S
O99 C76 1.264 . S
C100 C93 1.403 . S
C100 C101 1.399 . S
C100 H106 0.929 . S
C101 C81 1.449 . S
C101 C100 1.399 . S
C101 H107 0.930 . S
H102 C82 0.931 . S
H103 C83 0.930 . S
H104 C91 0.931 . S
H105 C92 0.929 . S
H106 C100 0.929 . S
H107 C101 0.930 . S
Mn108 O113 2.095 . S
Mn108 O123 2.162 . S
Mn108 O124 2.297 . S
Mn108 O132 2.385 . S
Mn108 O133 2.209 . S
Mn108 O134 2.094 1_554 S
Mn109 O114 2.121 . S
Mn109 N116 2.257 . S
Mn109 N125 2.282 . S
Mn109 O133 2.215 . S
Mn109 O135 2.117 1_554 S
C110 O132 1.234 . S
C110 O133 1.283 . S
C111 O123 1.281 . S
C111 O124 1.236 . S
C112 O134 1.240 . S
C112 O135 1.264 . S
O113 Mn108 2.095 . S
O113 C122 1.250 . S
O114 Mn109 2.121 . S
O114 C122 1.258 . S
C115 N116 1.326 . S
C115 C119 1.460 1_545 S
C115 H121 0.929 . S
N116 Mn109 2.257 . S
N116 C115 1.326 . S
N116 C120 1.362 1_545 S
C117 C118 1.258 . S
C117 C120 1.431 . S
C117 C137 1.449 . S
C118 C117 1.258 . S
C118 C119 1.477 . S
C118 H138 0.931 . S
C119 C115 1.460 1_565 S
C119 C118 1.477 . S
C119 H139 0.930 . S
C120 N116 1.362 1_565 S
C120 C117 1.431 . S
C120 C130 1.477 . S
H121 C115 0.929 . S
C122 O113 1.250 . S
C122 O114 1.258 . S
O123 Mn108 2.162 . S
O123 C111 1.281 . S
O124 Mn108 2.297 . S
O124 C111 1.236 . S
N125 Mn109 2.282 . S
N125 C126 1.328 1_554 S
N125 C130 1.304 1_545 S
C126 N125 1.328 1_556 S
C126 C127 1.457 1_556 S
C126 H131 0.929 . S
C127 C126 1.457 1_554 S
C127 C128 1.291 1_545 S
C127 H140 0.931 1_554 S
C128 C127 1.291 1_565 S
C128 C129 1.373 . S
C128 H141 0.929 . S
C129 C128 1.373 . S
C129 C130 1.409 . S
C129 C136 1.403 . S
C130 C120 1.477 . S
C130 N125 1.304 1_565 S
C130 C129 1.409 . S
H131 C126 0.929 . S
O132 Mn108 2.385 . S
O132 C110 1.234 . S
O133 Mn108 2.209 . S
O133 Mn109 2.215 . S
O133 C110 1.283 . S
O134 Mn108 2.094 1_556 S
O134 C112 1.240 . S
O135 Mn109 2.117 1_556 S
O135 C112 1.264 . S
C136 C129 1.403 . S
C136 C137 1.399 . S
C136 H142 0.929 . S
C137 C117 1.449 . S
C137 C136 1.399 . S
C137 H143 0.930 . S
H138 C118 0.931 . S
H139 C119 0.930 . S
H140 C127 0.931 1_556 S
H141 C128 0.929 . S
H142 C136 0.929 . S
H143 C137 0.930 . S
Mn144 O149 2.095 . S
Mn144 O159 2.162 . S
Mn144 O160 2.297 . S
Mn144 O168 2.385 . S
Mn144 O169 2.209 . S
Mn144 O170 2.094 . S
Mn145 O150 2.121 1_655 S
Mn145 N152 2.257 . S
Mn145 N161 2.282 . S
Mn145 O169 2.215 1_655 S
Mn145 O171 2.117 1_655 S
C146 O168 1.234 1_655 S
C146 O169 1.283 1_655 S
C147 O159 1.281 . S
C147 O160 1.236 . S
C148 O170 1.240 . S
C148 O171 1.264 . S
O149 Mn144 2.095 . S
O149 C158 1.250 . S
O150 Mn145 2.121 1_455 S
O150 C158 1.258 . S
C151 N152 1.326 . S
C151 C155 1.460 . S
C151 H157 0.929 . S
N152 Mn145 2.257 . S
N152 C151 1.326 . S
N152 C156 1.362 . S
C153 C154 1.258 . S
C153 C156 1.431 . S
C153 C173 1.449 . S
C154 C153 1.258 . S
C154 C155 1.477 . S
C154 H174 0.931 . S
C155 C151 1.460 . S
C155 C154 1.477 . S
C155 H175 0.930 . S
C156 N152 1.362 . S
C156 C153 1.431 . S
C156 C166 1.476 . S
H157 C151 0.929 . S
C158 O149 1.250 . S
C158 O150 1.258 . S
O159 Mn144 2.162 . S
O159 C147 1.281 . S
O160 Mn144 2.297 . S
O160 C147 1.236 . S
N161 Mn145 2.282 . S
N161 C162 1.328 . S
N161 C166 1.318 . S
C162 N161 1.328 . S
C162 C163 1.457 . S
C162 H167 0.929 . S
C163 C162 1.457 . S
C163 C164 1.291 . S
C163 H176 0.931 . S
C164 C163 1.291 . S
C164 C165 1.373 . S
C164 H177 0.929 . S
C165 C164 1.373 . S
C165 C166 1.396 . S
C165 C172 1.403 . S
C166 C156 1.476 . S
C166 N161 1.318 . S
C166 C165 1.396 . S
H167 C162 0.929 . S
O168 Mn144 2.385 . S
O168 C146 1.234 1_455 S
O169 Mn144 2.209 . S
O169 Mn145 2.215 1_455 S
O169 C146 1.283 1_455 S
O170 Mn144 2.094 . S
O170 C148 1.240 . S
O171 Mn145 2.117 1_455 S
O171 C148 1.264 . S
C172 C165 1.403 . S
C172 C173 1.399 . S
C172 H178 0.929 . S
C173 C153 1.449 . S
C173 C172 1.399 . S
C173 H179 0.930 . S
H174 C154 0.931 . S
H175 C155 0.930 . S
H176 C163 0.931 . S
H177 C164 0.929 . S
H178 C172 0.929 . S
H179 C173 0.930 . S
Mn180 O185 2.095 . S
Mn180 O195 2.162 . S
Mn180 O196 2.297 . S
Mn180 O204 2.385 . S
Mn180 O205 2.209 . S
Mn180 O206 2.094 . S
Mn181 O186 2.121 . S
Mn181 N188 2.257 . S
Mn181 N197 2.282 . S
Mn181 O205 2.215 . S
Mn181 O207 2.117 . S
C182 O204 1.234 . S
C182 O205 1.283 . S
C183 O195 1.281 . S
C183 O196 1.236 . S
C184 O206 1.240 . S
C184 O207 1.264 . S
O185 Mn180 2.095 . S
O185 C194 1.250 . S
O186 Mn181 2.121 . S
O186 C194 1.258 . S
C187 N188 1.326 . S
C187 C191 1.460 1_565 S
C187 H193 0.929 . S
N188 Mn181 2.257 . S
N188 C187 1.326 . S
N188 C192 1.362 1_565 S
C189 C190 1.258 . S
C189 C192 1.431 . S
C189 C209 1.449 . S
C190 C189 1.258 . S
C190 C191 1.477 . S
C190 H210 0.931 . S
C191 C187 1.460 1_545 S
C191 C190 1.477 . S
C191 H211 0.930 . S
C192 N188 1.362 1_545 S
C192 C189 1.431 . S
C192 C202 1.477 . S
H193 C187 0.929 . S
C194 O185 1.250 . S
C194 O186 1.258 . S
O195 Mn180 2.162 . S
O195 C183 1.281 . S
O196 Mn180 2.297 . S
O196 C183 1.236 . S
N197 Mn181 2.282 . S
N197 C198 1.328 . S
N197 C202 1.304 1_565 S
C198 N197 1.328 . S
C198 C199 1.457 . S
C198 H203 0.929 . S
C199 C198 1.457 . S
C199 C200 1.291 1_565 S
C199 H212 0.931 . S
C200 C199 1.291 1_545 S
C200 C201 1.373 . S
C200 H213 0.929 . S
C201 C200 1.373 . S
C201 C202 1.409 . S
C201 C208 1.403 . S
C202 C192 1.477 . S
C202 N197 1.304 1_545 S
C202 C201 1.409 . S
H203 C198 0.929 . S
O204 Mn180 2.385 . S
O204 C182 1.234 . S
O205 Mn180 2.209 . S
O205 Mn181 2.215 . S
O205 C182 1.283 . S
O206 Mn180 2.094 . S
O206 C184 1.240 . S
O207 Mn181 2.117 . S
O207 C184 1.264 . S
C208 C201 1.403 . S
C208 C209 1.399 . S
C208 H214 0.929 . S
C209 C189 1.449 . S
C209 C208 1.399 . S
C209 H215 0.930 . S
H210 C190 0.931 . S
H211 C191 0.930 . S
H212 C199 0.931 . S
H213 C200 0.929 . S
H214 C208 0.929 . S
H215 C209 0.930 . S
Mn216 O221 2.095 . S
Mn216 O231 2.162 . S
Mn216 O232 2.297 . S
Mn216 O240 2.385 . S
Mn216 O241 2.209 . S
Mn216 O242 2.094 . S
Mn217 O222 2.121 . S
Mn217 N224 2.257 . S
Mn217 N233 2.282 . S
Mn217 O241 2.215 . S
Mn217 O243 2.117 . S
C218 O240 1.234 . S
C218 O241 1.283 . S
C219 O231 1.281 . S
C219 O232 1.236 . S
C220 O242 1.240 . S
C220 O243 1.264 . S
O221 Mn216 2.095 . S
O221 C230 1.250 . S
O222 Mn217 2.121 . S
O222 C230 1.258 . S
C223 N224 1.326 . S
C223 C227 1.460 . S
C223 H229 0.929 . S
N224 Mn217 2.257 . S
N224 C223 1.326 . S
N224 C228 1.362 . S
C225 C226 1.258 . S
C225 C228 1.431 . S
C225 C245 1.449 . S
C226 C225 1.258 . S
C226 C227 1.477 . S
C226 H246 0.931 . S
C227 C223 1.460 . S
C227 C226 1.477 . S
C227 H247 0.930 . S
C228 N224 1.362 . S
C228 C225 1.431 . S
C228 C238 1.476 . S
H229 C223 0.929 . S
C230 O221 1.250 . S
C230 O222 1.258 . S
O231 Mn216 2.162 . S
O231 C219 1.281 . S
O232 Mn216 2.297 . S
O232 C219 1.236 . S
N233 Mn217 2.282 . S
N233 C234 1.328 . S
N233 C238 1.318 . S
C234 N233 1.328 . S
C234 C235 1.457 . S
C234 H239 0.929 . S
C235 C234 1.457 . S
C235 C236 1.291 . S
C235 H248 0.931 . S
C236 C235 1.291 . S
C236 C237 1.373 . S
C236 H249 0.929 . S
C237 C236 1.373 . S
C237 C238 1.396 . S
C237 C244 1.403 . S
C238 C228 1.476 . S
C238 N233 1.318 . S
C238 C237 1.396 . S
H239 C234 0.929 . S
O240 Mn216 2.385 . S
O240 C218 1.234 . S
O241 Mn216 2.209 . S
O241 Mn217 2.215 . S
O241 C218 1.283 . S
O242 Mn216 2.094 . S
O242 C220 1.240 . S
O243 Mn217 2.117 . S
O243 C220 1.264 . S
C244 C237 1.403 . S
C244 C245 1.399 . S
C244 H250 0.929 . S
C245 C225 1.449 . S
C245 C244 1.399 . S
C245 H251 0.930 . S
H246 C226 0.931 . S
H247 C227 0.930 . S
H248 C235 0.931 . S
H249 C236 0.929 . S
H250 C244 0.929 . S
H251 C245 0.930 . S
Mn252 O257 2.095 . S
Mn252 O267 2.162 . S
Mn252 O268 2.297 . S
Mn252 O276 2.385 . S
Mn252 O277 2.209 . S
Mn252 O278 2.094 1_556 S
Mn253 O258 2.121 . S
Mn253 N260 2.257 . S
Mn253 N269 2.282 . S
Mn253 O277 2.215 . S
Mn253 O279 2.117 1_556 S
C254 O276 1.234 . S
C254 O277 1.283 . S
C255 O267 1.281 . S
C255 O268 1.236 . S
C256 O278 1.240 . S
C256 O279 1.264 . S
O257 Mn252 2.095 . S
O257 C266 1.250 . S
O258 Mn253 2.121 . S
O258 C266 1.258 . S
C259 N260 1.326 . S
C259 C263 1.460 1_545 S
C259 H265 0.929 . S
N260 Mn253 2.257 . S
N260 C259 1.326 . S
N260 C264 1.362 1_545 S
C261 C262 1.258 . S
C261 C264 1.431 . S
C261 C281 1.449 . S
C262 C261 1.258 . S
C262 C263 1.477 . S
C262 H282 0.931 . S
C263 C259 1.460 1_565 S
C263 C262 1.477 . S
C263 H283 0.930 . S
C264 N260 1.362 1_565 S
C264 C261 1.431 . S
C264 C274 1.477 . S
H265 C259 0.929 . S
C266 O257 1.250 . S
C266 O258 1.258 . S
O267 Mn252 2.162 . S
O267 C255 1.281 . S
O268 Mn252 2.297 . S
O268 C255 1.236 . S
N269 Mn253 2.282 . S
N269 C270 1.328 1_556 S
N269 C274 1.304 1_545 S
C270 N269 1.328 1_554 S
C270 C271 1.457 1_554 S
C270 H275 0.929 . S
C271 C270 1.457 1_556 S
C271 C272 1.291 1_545 S
C271 H284 0.931 1_656 S
C272 C271 1.291 1_565 S
C272 C273 1.373 . S
C272 H285 0.929 1_655 S
C273 C272 1.373 . S
C273 C274 1.409 . S
C273 C280 1.403 . S
C274 C264 1.477 . S
C274 N269 1.304 1_565 S
C274 C273 1.409 . S
H275 C270 0.929 . S
O276 Mn252 2.385 . S
O276 C254 1.234 . S
O277 Mn252 2.209 . S
O277 Mn253 2.215 . S
O277 C254 1.283 . S
O278 Mn252 2.094 1_554 S
O278 C256 1.240 . S
O279 Mn253 2.117 1_554 S
O279 C256 1.264 . S
C280 C273 1.403 . S
C280 C281 1.399 . S
C280 H286 0.929 . S
C281 C261 1.449 . S
C281 C280 1.399 . S
C281 H287 0.930 . S
H282 C262 0.931 . S
H283 C263 0.930 . S
H284 C271 0.931 1_454 S
H285 C272 0.929 1_455 S
H286 C280 0.929 . S
H287 C281 0.930 . S
Mn288 O293 2.095 . S
Mn288 O303 2.162 . S
Mn288 O304 2.297 . S
Mn288 O312 2.385 . S
Mn288 O313 2.209 1_655 S
Mn288 O314 2.094 . S
Mn289 O294 2.121 1_455 S
Mn289 N296 2.257 . S
Mn289 N305 2.282 . S
Mn289 O313 2.215 . S
Mn289 O315 2.117 1_455 S
C290 O312 1.233 1_455 S
C290 O313 1.283 . S
C291 O303 1.281 . S
C291 O304 1.236 . S
C292 O314 1.240 . S
C292 O315 1.264 . S
O293 Mn288 2.095 . S
O293 C302 1.250 . S
O294 Mn289 2.121 1_655 S
O294 C302 1.258 . S
C295 N296 1.326 . S
C295 C299 1.460 . S
C295 H301 0.929 . S
N296 Mn289 2.257 . S
N296 C295 1.326 . S
N296 C300 1.362 . S
C297 C298 1.258 . S
C297 C300 1.431 . S
C297 C317 1.449 . S
C298 C297 1.258 . S
C298 C299 1.477 . S
C298 H318 0.931 . S
C299 C295 1.460 . S
C299 C298 1.477 . S
C299 H319 0.930 . S
C300 N296 1.362 . S
C300 C297 1.431 . S
C300 C310 1.476 . S
H301 C295 0.929 . S
C302 O293 1.250 . S
C302 O294 1.258 . S
O303 Mn288 2.162 . S
O303 C291 1.281 . S
O304 Mn288 2.297 . S
O304 C291 1.236 . S
N305 Mn289 2.282 . S
N305 C306 1.328 . S
N305 C310 1.318 . S
C306 N305 1.328 . S
C306 C307 1.457 . S
C306 H311 0.929 . S
C307 C306 1.457 . S
C307 C308 1.291 . S
C307 H320 0.931 . S
C308 C307 1.291 . S
C308 C309 1.373 . S
C308 H321 0.929 . S
C309 C308 1.373 . S
C309 C310 1.396 . S
C309 C316 1.403 . S
C310 C300 1.476 . S
C310 N305 1.318 . S
C310 C309 1.396 . S
H311 C306 0.929 . S
O312 Mn288 2.385 . S
O312 C290 1.233 1_655 S
O313 Mn288 2.209 1_455 S
O313 Mn289 2.215 . S
O313 C290 1.283 . S
O314 Mn288 2.094 . S
O314 C292 1.240 . S
O315 Mn289 2.117 1_655 S
O315 C292 1.264 . S
C316 C309 1.403 . S
C316 C317 1.399 . S
C316 H322 0.929 . S
C317 C297 1.449 . S
C317 C316 1.399 . S
C317 H323 0.930 . S
H318 C298 0.931 . S
H319 C299 0.930 . S
H320 C307 0.931 . S
H321 C308 0.929 . S
H322 C316 0.929 . S
H323 C317 0.930 . S
Mn324 O329 2.095 . S
Mn324 O339 2.162 . S
Mn324 O340 2.297 . S
Mn324 O348 2.385 . S
Mn324 O349 2.209 . S
Mn324 O350 2.094 . S
Mn325 O330 2.121 . S
Mn325 N332 2.257 . S
Mn325 N341 2.282 . S
Mn325 O349 2.215 . S
Mn325 O351 2.117 . S
C326 O348 1.234 . S
C326 O349 1.283 . S
C327 O339 1.281 . S
C327 O340 1.236 . S
C328 O350 1.240 . S
C328 O351 1.264 . S
O329 Mn324 2.095 . S
O329 C338 1.250 . S
O330 Mn325 2.121 . S
O330 C338 1.258 . S
C331 N332 1.326 . S
C331 C335 1.460 . S
C331 H337 0.929 . S
N332 Mn325 2.257 . S
N332 C331 1.326 . S
N332 C336 1.362 . S
C333 C334 1.258 . S
C333 C336 1.431 . S
C333 C353 1.449 . S
C334 C333 1.258 . S
C334 C335 1.477 . S
C334 H354 0.931 . S
C335 C331 1.460 . S
C335 C334 1.477 . S
C335 H355 0.930 . S
C336 N332 1.362 . S
C336 C333 1.431 . S
C336 C346 1.476 . S
H337 C331 0.929 . S
C338 O329 1.250 . S
C338 O330 1.258 . S
O339 Mn324 2.162 . S
O339 C327 1.281 . S
O340 Mn324 2.297 . S
O340 C327 1.236 . S
N341 Mn325 2.282 . S
N341 C342 1.328 . S
N341 C346 1.318 . S
C342 N341 1.328 . S
C342 C343 1.457 . S
C342 H347 0.929 . S
C343 C342 1.457 . S
C343 C344 1.291 . S
C343 H356 0.931 . S
C344 C343 1.291 . S
C344 C345 1.373 . S
C344 H357 0.929 . S
C345 C344 1.373 . S
C345 C346 1.396 . S
C345 C352 1.403 . S
C346 C336 1.476 . S
C346 N341 1.318 . S
C346 C345 1.396 . S
H347 C342 0.929 . S
O348 Mn324 2.385 . S
O348 C326 1.234 . S
O349 Mn324 2.209 . S
O349 Mn325 2.215 . S
O349 C326 1.283 . S
O350 Mn324 2.094 . S
O350 C328 1.240 . S
O351 Mn325 2.117 . S
O351 C328 1.264 . S
C352 C345 1.403 . S
C352 C353 1.399 . S
C352 H358 0.929 . S
C353 C333 1.449 . S
C353 C352 1.399 . S
C353 H359 0.930 . S
H354 C334 0.931 . S
H355 C335 0.930 . S
H356 C343 0.931 . S
H357 C344 0.929 . S
H358 C352 0.929 . S
H359 C353 0.930 . S
Mn360 O365 2.095 . S
Mn360 O375 2.162 . S
Mn360 O376 2.297 . S
Mn360 O384 2.385 . S
Mn360 O385 2.209 . S
Mn360 O386 2.094 . S
Mn361 O366 2.121 . S
Mn361 N368 2.257 . S
Mn361 N377 2.282 . S
Mn361 O385 2.215 . S
Mn361 O387 2.117 . S
C362 O384 1.234 . S
C362 O385 1.283 . S
C363 O375 1.281 . S
C363 O376 1.236 . S
C364 O386 1.240 . S
C364 O387 1.264 . S
O365 Mn360 2.095 . S
O365 C374 1.250 . S
O366 Mn361 2.121 . S
O366 C374 1.258 . S
C367 N368 1.326 . S
C367 C371 1.460 . S
C367 H373 0.929 . S
N368 Mn361 2.257 . S
N368 C367 1.326 . S
N368 C372 1.362 . S
C369 C370 1.258 . S
C369 C372 1.431 . S
C369 C389 1.449 . S
C370 C369 1.258 . S
C370 C371 1.477 . S
C370 H390 0.931 . S
C371 C367 1.460 . S
C371 C370 1.477 . S
C371 H391 0.930 . S
C372 N368 1.362 . S
C372 C369 1.431 . S
C372 C382 1.476 . S
H373 C367 0.929 . S
C374 O365 1.250 . S
C374 O366 1.258 . S
O375 Mn360 2.162 . S
O375 C363 1.281 . S
O376 Mn360 2.297 . S
O376 C363 1.236 . S
N377 Mn361 2.282 . S
N377 C378 1.328 . S
N377 C382 1.318 . S
C378 N377 1.328 . S
C378 C379 1.457 . S
C378 H383 0.929 . S
C379 C378 1.457 . S
C379 C380 1.291 . S
C379 H392 0.931 . S
C380 C379 1.291 . S
C380 C381 1.373 . S
C380 H393 0.929 . S
C381 C380 1.373 . S
C381 C382 1.396 . S
C381 C388 1.403 . S
C382 C372 1.476 . S
C382 N377 1.318 . S
C382 C381 1.396 . S
H383 C378 0.929 . S
O384 Mn360 2.385 . S
O384 C362 1.234 . S
O385 Mn360 2.209 . S
O385 Mn361 2.215 . S
O385 C362 1.283 . S
O386 Mn360 2.094 . S
O386 C364 1.240 . S
O387 Mn361 2.117 . S
O387 C364 1.264 . S
C388 C381 1.403 . S
C388 C389 1.399 . S
C388 H394 0.929 . S
C389 C369 1.449 . S
C389 C388 1.399 . S
C389 H395 0.930 . S
H390 C370 0.931 . S
H391 C371 0.930 . S
H392 C379 0.931 . S
H393 C380 0.929 . S
H394 C388 0.929 . S
H395 C389 0.930 . S
Mn396 O401 2.095 1_556 S
Mn396 O411 2.162 . S
Mn396 O412 2.297 . S
Mn396 O420 2.385 . S
Mn396 O421 2.209 . S
Mn396 O422 2.094 . S
Mn397 O402 2.121 . S
Mn397 N404 2.257 . S
Mn397 N413 2.287 . S
Mn397 O421 2.215 1_554 S
Mn397 O423 2.117 . S
C398 O420 1.234 . S
C398 O421 1.283 . S
C399 O411 1.281 . S
C399 O412 1.236 . S
C400 O422 1.240 . S
C400 O423 1.264 1_556 S
O401 Mn396 2.095 1_554 S
O401 C410 1.250 . S
O402 Mn397 2.121 . S
O402 C410 1.258 . S
C403 N404 1.326 . S
C403 C407 1.460 . S
C403 H409 0.929 . S
N404 Mn397 2.257 . S
N404 C403 1.326 . S
N404 C408 1.362 . S
C405 C406 1.258 . S
C405 C408 1.431 . S
C405 C425 1.449 . S
C406 C405 1.258 . S
C406 C407 1.477 . S
C406 H426 0.931 . S
C407 C403 1.460 . S
C407 C406 1.477 . S
C407 H427 0.930 . S
C408 N404 1.362 . S
C408 C405 1.431 . S
C408 C418 1.476 . S
H409 C403 0.929 . S
C410 O401 1.250 . S
C410 O402 1.258 . S
O411 Mn396 2.162 . S
O411 C399 1.281 . S
O412 Mn396 2.297 . S
O412 C399 1.236 . S
N413 Mn397 2.287 . S
N413 C414 1.320 1_554 S
N413 C418 1.320 . S
C414 N413 1.320 1_556 S
C414 C415 1.457 . S
C414 H419 0.929 . S
C415 C414 1.457 . S
C415 C416 1.291 . S
C415 H428 0.931 . S
C416 C415 1.291 . S
C416 C417 1.373 . S
C416 H429 0.929 . S
C417 C416 1.373 . S
C417 C418 1.396 1_556 S
C417 C424 1.403 1_556 S
C418 C408 1.476 . S
C418 N413 1.320 . S
C418 C417 1.396 1_554 S
H419 C414 0.929 . S
O420 Mn396 2.385 . S
O420 C398 1.234 . S
O421 Mn396 2.209 . S
O421 Mn397 2.215 1_556 S
O421 C398 1.283 . S
O422 Mn396 2.094 . S
O422 C400 1.240 . S
O423 Mn397 2.117 . S
O423 C400 1.264 1_554 S
C424 C417 1.403 1_554 S
C424 C425 1.399 . S
C424 H430 0.929 1_554 S
C425 C405 1.449 . S
C425 C424 1.399 . S
C425 H431 0.930 . S
H426 C406 0.931 . S
H427 C407 0.930 . S
H428 C415 0.931 . S
H429 C416 0.929 . S
H430 C424 0.929 1_556 S
H431 C425 0.930 . S
Mn432 O437 2.095 . S
Mn432 O447 2.162 . S
Mn432 O448 2.297 . S
Mn432 O456 2.385 . S
Mn432 O457 2.209 1_655 S
Mn432 O458 2.094 . S
Mn433 O438 2.121 1_455 S
Mn433 N440 2.257 . S
Mn433 N449 2.282 . S
Mn433 O457 2.215 . S
Mn433 O459 2.117 1_455 S
C434 O456 1.233 1_455 S
C434 O457 1.283 . S
C435 O447 1.281 . S
C435 O448 1.236 . S
C436 O458 1.240 . S
C436 O459 1.264 . S
O437 Mn432 2.095 . S
O437 C446 1.250 . S
O438 Mn433 2.121 1_655 S
O438 C446 1.258 . S
C439 N440 1.326 . S
C439 C443 1.460 . S
C439 H445 0.929 . S
N440 Mn433 2.257 . S
N440 C439 1.326 . S
N440 C444 1.362 . S
C441 C442 1.258 . S
C441 C444 1.431 . S
C441 C461 1.449 . S
C442 C441 1.258 . S
C442 C443 1.477 . S
C442 H462 0.931 . S
C443 C439 1.460 . S
C443 C442 1.477 . S
C443 H463 0.930 . S
C444 N440 1.362 . S
C444 C441 1.431 . S
C444 C454 1.476 . S
H445 C439 0.929 . S
C446 O437 1.250 . S
C446 O438 1.258 . S
O447 Mn432 2.162 . S
O447 C435 1.281 . S
O448 Mn432 2.297 . S
O448 C435 1.236 . S
N449 Mn433 2.282 . S
N449 C450 1.328 . S
N449 C454 1.318 . S
C450 N449 1.328 . S
C450 C451 1.457 . S
C450 H455 0.929 . S
C451 C450 1.457 . S
C451 C452 1.291 . S
C451 H464 0.931 . S
C452 C451 1.291 . S
C452 C453 1.373 . S
C452 H465 0.929 . S
C453 C452 1.373 . S
C453 C454 1.396 . S
C453 C460 1.403 . S
C454 C444 1.476 . S
C454 N449 1.318 . S
C454 C453 1.396 . S
H455 C450 0.929 . S
O456 Mn432 2.385 . S
O456 C434 1.233 1_655 S
O457 Mn432 2.209 1_455 S
O457 Mn433 2.215 . S
O457 C434 1.283 . S
O458 Mn432 2.094 . S
O458 C436 1.240 . S
O459 Mn433 2.117 1_655 S
O459 C436 1.264 . S
C460 C453 1.403 . S
C460 C461 1.399 . S
C460 H466 0.929 . S
C461 C441 1.449 . S
C461 C460 1.399 . S
C461 H467 0.930 . S
H462 C442 0.931 . S
H463 C443 0.930 . S
H464 C451 0.931 . S
H465 C452 0.929 . S
H466 C460 0.929 . S
H467 C461 0.930 . S
Mn468 O473 2.095 . S
Mn468 O483 2.162 . S
Mn468 O484 2.297 . S
Mn468 O492 2.385 . S
Mn468 O493 2.209 . S
Mn468 O494 2.094 . S
Mn469 O474 2.121 . S
Mn469 N476 2.257 . S
Mn469 N485 2.282 . S
Mn469 O493 2.215 . S
Mn469 O495 2.117 . S
C470 O492 1.234 . S
C470 O493 1.283 . S
C471 O483 1.281 . S
C471 O484 1.236 . S
C472 O494 1.240 . S
C472 O495 1.264 . S
O473 Mn468 2.095 . S
O473 C482 1.250 . S
O474 Mn469 2.121 . S
O474 C482 1.258 . S
C475 N476 1.326 . S
C475 C479 1.460 . S
C475 H481 0.929 . S
N476 Mn469 2.257 . S
N476 C475 1.326 . S
N476 C480 1.362 . S
C477 C478 1.258 . S
C477 C480 1.431 . S
C477 C497 1.449 . S
C478 C477 1.258 . S
C478 C479 1.477 . S
C478 H498 0.931 . S
C479 C475 1.460 . S
C479 C478 1.477 . S
C479 H499 0.930 . S
C480 N476 1.362 . S
C480 C477 1.431 . S
C480 C490 1.476 . S
H481 C475 0.929 . S
C482 O473 1.250 . S
C482 O474 1.258 . S
O483 Mn468 2.162 . S
O483 C471 1.281 . S
O484 Mn468 2.297 . S
O484 C471 1.236 . S
N485 Mn469 2.282 . S
N485 C486 1.328 . S
N485 C490 1.318 . S
C486 N485 1.328 . S
C486 C487 1.457 . S
C486 H491 0.929 . S
C487 C486 1.457 . S
C487 C488 1.291 . S
C487 H500 0.931 . S
C488 C487 1.291 . S
C488 C489 1.373 . S
C488 H501 0.929 . S
C489 C488 1.373 . S
C489 C490 1.396 . S
C489 C496 1.403 . S
C490 C480 1.476 . S
C490 N485 1.318 . S
C490 C489 1.396 . S
H491 C486 0.929 . S
O492 Mn468 2.385 . S
O492 C470 1.234 . S
O493 Mn468 2.209 . S
O493 Mn469 2.215 . S
O493 C470 1.283 . S
O494 Mn468 2.094 . S
O494 C472 1.240 . S
O495 Mn469 2.117 . S
O495 C472 1.264 . S
C496 C489 1.403 . S
C496 C497 1.399 . S
C496 H502 0.929 . S
C497 C477 1.449 . S
C497 C496 1.399 . S
C497 H503 0.930 . S
H498 C478 0.931 . S
H499 C479 0.930 . S
H500 C487 0.931 . S
H501 C488 0.929 . S
H502 C496 0.929 . S
H503 C497 0.930 . S
Mn504 O509 2.095 . S
Mn504 O519 2.162 . S
Mn504 O520 2.297 . S
Mn504 O528 2.385 . S
Mn504 O529 2.209 . S
Mn504 O530 2.094 . S
Mn505 O510 2.121 . S
Mn505 N512 2.257 . S
Mn505 N521 2.282 . S
Mn505 O529 2.215 . S
Mn505 O531 2.117 . S
C506 O528 1.234 . S
C506 O529 1.283 . S
C507 O519 1.281 . S
C507 O520 1.236 . S
C508 O530 1.240 . S
C508 O531 1.264 . S
O509 Mn504 2.095 . S
O509 C518 1.250 . S
O510 Mn505 2.121 . S
O510 C518 1.258 . S
C511 N512 1.326 . S
C511 C515 1.460 . S
C511 H517 0.929 . S
N512 Mn505 2.257 . S
N512 C511 1.326 . S
N512 C516 1.362 . S
C513 C514 1.258 . S
C513 C516 1.431 . S
C513 C533 1.449 . S
C514 C513 1.258 . S
C514 C515 1.477 . S
C514 H534 0.931 . S
C515 C511 1.460 . S
C515 C514 1.477 . S
C515 H535 0.930 . S
C516 N512 1.362 . S
C516 C513 1.431 . S
C516 C526 1.476 . S
H517 C511 0.929 . S
C518 O509 1.250 . S
C518 O510 1.258 . S
O519 Mn504 2.162 . S
O519 C507 1.281 . S
O520 Mn504 2.297 . S
O520 C507 1.236 . S
N521 Mn505 2.282 . S
N521 C522 1.328 . S
N521 C526 1.318 . S
C522 N521 1.328 . S
C522 C523 1.457 . S
C522 H527 0.929 . S
C523 C522 1.457 . S
C523 C524 1.291 . S
C523 H536 0.931 . S
C524 C523 1.291 . S
C524 C525 1.373 . S
C524 H537 0.929 . S
C525 C524 1.373 . S
C525 C526 1.396 . S
C525 C532 1.403 . S
C526 C516 1.476 . S
C526 N521 1.318 . S
C526 C525 1.396 . S
H527 C522 0.929 . S
O528 Mn504 2.385 . S
O528 C506 1.234 . S
O529 Mn504 2.209 . S
O529 Mn505 2.215 . S
O529 C506 1.283 . S
O530 Mn504 2.094 . S
O530 C508 1.240 . S
O531 Mn505 2.117 . S
O531 C508 1.264 . S
C532 C525 1.403 . S
C532 C533 1.399 . S
C532 H538 0.929 . S
C533 C513 1.449 . S
C533 C532 1.399 . S
C533 H539 0.930 . S
H534 C514 0.931 . S
H535 C515 0.930 . S
H536 C523 0.931 . S
H537 C524 0.929 . S
H538 C532 0.929 . S
H539 C533 0.930 . S
Mn540 O545 2.095 1_554 S
Mn540 O555 2.162 . S
Mn540 O556 2.297 . S
Mn540 O564 2.385 . S
Mn540 O565 2.209 . S
Mn540 O566 2.094 . S
Mn541 O546 2.121 . S
Mn541 N548 2.257 . S
Mn541 N557 2.287 . S
Mn541 O565 2.215 1_556 S
Mn541 O567 2.117 . S
C542 O564 1.234 . S
C542 O565 1.283 . S
C543 O555 1.281 . S
C543 O556 1.236 . S
C544 O566 1.240 . S
C544 O567 1.264 1_554 S
O545 Mn540 2.095 1_556 S
O545 C554 1.250 . S
O546 Mn541 2.121 . S
O546 C554 1.258 . S
C547 N548 1.326 . S
C547 C551 1.460 . S
C547 H553 0.929 . S
N548 Mn541 2.257 . S
N548 C547 1.326 . S
N548 C552 1.362 . S
C549 C550 1.258 . S
C549 C552 1.431 . S
C549 C569 1.449 . S
C550 C549 1.258 . S
C550 C551 1.477 . S
C550 H570 0.931 . S
C551 C547 1.460 . S
C551 C550 1.477 . S
C551 H571 0.930 . S
C552 N548 1.362 . S
C552 C549 1.431 . S
C552 C562 1.476 . S
H553 C547 0.929 . S
C554 O545 1.250 . S
C554 O546 1.258 . S
O555 Mn540 2.162 . S
O555 C543 1.281 . S
O556 Mn540 2.297 . S
O556 C543 1.236 . S
N557 Mn541 2.287 . S
N557 C558 1.320 1_556 S
N557 C562 1.320 . S
C558 N557 1.320 1_554 S
C558 C559 1.457 . S
C558 H563 0.929 . S
C559 C558 1.457 . S
C559 C560 1.291 . S
C559 H572 0.931 . S
C560 C559 1.291 . S
C560 C561 1.373 . S
C560 H573 0.929 . S
C561 C560 1.373 . S
C561 C562 1.396 1_554 S
C561 C568 1.403 1_554 S
C562 C552 1.476 . S
C562 N557 1.320 . S
C562 C561 1.396 1_556 S
H563 C558 0.929 . S
O564 Mn540 2.385 . S
O564 C542 1.234 . S
O565 Mn540 2.209 . S
O565 Mn541 2.215 1_554 S
O565 C542 1.283 . S
O566 Mn540 2.094 . S
O566 C544 1.240 . S
O567 Mn541 2.117 . S
O567 C544 1.264 1_556 S
C568 C561 1.403 1_556 S
C568 C569 1.399 . S
C568 H574 0.929 1_556 S
C569 C549 1.449 . S
C569 C568 1.399 . S
C569 H575 0.930 . S
H570 C550 0.931 . S
H571 C551 0.930 . S
H572 C559 0.931 . S
H573 C560 0.929 . S
H574 C568 0.929 1_554 S
H575 C569 0.930 . S
Mn576 O581 2.095 . S
Mn576 O591 2.162 . S
Mn576 O592 2.297 . S
Mn576 O600 2.385 . S
Mn576 O601 2.209 . S
Mn576 O602 2.094 . S
Mn577 O582 2.121 . S
Mn577 N584 2.257 . S
Mn577 N593 2.282 . S
Mn577 O601 2.215 . S
Mn577 O603 2.117 . S
C578 O600 1.234 . S
C578 O601 1.283 . S
C579 O591 1.281 . S
C579 O592 1.236 . S
C580 O602 1.240 . S
C580 O603 1.264 . S
O581 Mn576 2.095 . S
O581 C590 1.250 . S
O582 Mn577 2.121 . S
O582 C590 1.258 . S
C583 N584 1.326 . S
C583 C587 1.460 . S
C583 H589 0.929 . S
N584 Mn577 2.257 . S
N584 C583 1.326 . S
N584 C588 1.362 . S
C585 C586 1.258 . S
C585 C588 1.431 . S
C585 C605 1.449 . S
C586 C585 1.258 . S
C586 C587 1.477 . S
C586 H606 0.931 . S
C587 C583 1.460 . S
C587 C586 1.477 . S
C587 H607 0.930 . S
C588 N584 1.362 . S
C588 C585 1.431 . S
C588 C598 1.476 . S
H589 C583 0.929 . S
C590 O581 1.250 . S
C590 O582 1.258 . S
O591 Mn576 2.162 . S
O591 C579 1.281 . S
O592 Mn576 2.297 . S
O592 C579 1.236 . S
N593 Mn577 2.282 . S
N593 C594 1.328 . S
N593 C598 1.318 . S
C594 N593 1.328 . S
C594 C595 1.457 1_565 S
C594 H599 0.925 1_565 S
C595 C594 1.457 1_545 S
C595 C596 1.291 1_545 S
C595 H608 0.931 . S
C596 C595 1.291 1_565 S
C596 C597 1.373 . S
C596 H609 0.929 1_565 S
C597 C596 1.373 . S
C597 C598 1.396 . S
C597 C604 1.403 . S
C598 C588 1.476 . S
C598 N593 1.318 . S
C598 C597 1.396 . S
H599 C594 0.925 1_545 S
O600 Mn576 2.385 . S
O600 C578 1.234 . S
O601 Mn576 2.209 . S
O601 Mn577 2.215 . S
O601 C578 1.283 . S
O602 Mn576 2.094 . S
O602 C580 1.240 . S
O603 Mn577 2.117 . S
O603 C580 1.264 . S
C604 C597 1.403 . S
C604 C605 1.399 . S
C604 H610 0.929 . S
C605 C585 1.449 . S
C605 C604 1.399 . S
C605 H611 0.930 . S
H606 C586 0.931 . S
H607 C587 0.930 . S
H608 C595 0.931 . S
H609 C596 0.929 1_545 S
H610 C604 0.929 . S
H611 C605 0.930 . S
Mn612 O617 2.095 . S
Mn612 O627 2.162 . S
Mn612 O628 2.297 . S
Mn612 O636 2.385 . S
Mn612 O637 2.209 . S
Mn612 O638 2.094 1_554 S
Mn613 O618 2.121 . S
Mn613 N620 2.257 . S
Mn613 N629 2.282 . S
Mn613 O637 2.215 . S
Mn613 O639 2.117 1_554 S
C614 O636 1.234 . S
C614 O637 1.283 . S
C615 O627 1.281 . S
C615 O628 1.236 . S
C616 O638 1.240 . S
C616 O639 1.264 . S
O617 Mn612 2.095 . S
O617 C626 1.250 . S
O618 Mn613 2.121 . S
O618 C626 1.258 . S
C619 N620 1.326 . S
C619 C623 1.460 . S
C619 H625 0.929 . S
N620 Mn613 2.257 . S
N620 C619 1.326 . S
N620 C624 1.362 . S
C621 C622 1.258 . S
C621 C624 1.431 . S
C621 C641 1.449 . S
C622 C621 1.258 . S
C622 C623 1.477 . S
C622 H642 0.931 . S
C623 C619 1.460 . S
C623 C622 1.477 . S
C623 H643 0.930 . S
C624 N620 1.362 . S
C624 C621 1.431 . S
C624 C634 1.476 . S
H625 C619 0.929 . S
C626 O617 1.250 . S
C626 O618 1.258 . S
O627 Mn612 2.162 . S
O627 C615 1.281 . S
O628 Mn612 2.297 . S
O628 C615 1.236 . S
N629 Mn613 2.282 . S
N629 C630 1.328 1_554 S
N629 C634 1.318 . S
C630 N629 1.328 1_556 S
C630 C631 1.457 1_556 S
C630 H635 0.929 . S
C631 C630 1.457 1_554 S
C631 C632 1.291 . S
C631 H644 0.931 1_554 S
C632 C631 1.291 . S
C632 C633 1.373 . S
C632 H645 0.929 . S
C633 C632 1.373 . S
C633 C634 1.396 . S
C633 C640 1.403 . S
C634 C624 1.476 . S
C634 N629 1.318 . S
C634 C633 1.396 . S
H635 C630 0.929 . S
O636 Mn612 2.385 . S
O636 C614 1.234 . S
O637 Mn612 2.209 . S
O637 Mn613 2.215 . S
O637 C614 1.283 . S
O638 Mn612 2.094 1_556 S
O638 C616 1.240 . S
O639 Mn613 2.117 1_556 S
O639 C616 1.264 . S
C640 C633 1.403 . S
C640 C641 1.399 . S
C640 H646 0.929 . S
C641 C621 1.449 . S
C641 C640 1.399 . S
C641 H647 0.930 . S
H642 C622 0.931 . S
H643 C623 0.930 . S
H644 C631 0.931 1_556 S
H645 C632 0.929 . S
H646 C640 0.929 . S
H647 C641 0.930 . S
Mn648 O653 2.095 . S
Mn648 O663 2.162 . S
Mn648 O664 2.297 . S
Mn648 O672 2.385 . S
Mn648 O673 2.209 . S
Mn648 O674 2.094 . S
Mn649 O654 2.121 1_455 S
Mn649 N656 2.257 . S
Mn649 N665 2.282 . S
Mn649 O673 2.215 1_455 S
Mn649 O675 2.117 1_455 S
C650 O672 1.234 1_455 S
C650 O673 1.283 1_455 S
C651 O663 1.281 . S
C651 O664 1.236 . S
C652 O674 1.240 . S
C652 O675 1.264 . S
O653 Mn648 2.095 . S
O653 C662 1.250 . S
O654 Mn649 2.121 1_655 S
O654 C662 1.258 . S
C655 N656 1.326 . S
C655 C659 1.460 . S
C655 H661 0.929 . S
N656 Mn649 2.257 . S
N656 C655 1.326 . S
N656 C660 1.362 . S
C657 C658 1.258 . S
C657 C660 1.431 . S
C657 C677 1.449 . S
C658 C657 1.258 . S
C658 C659 1.477 . S
C658 H678 0.931 . S
C659 C655 1.460 . S
C659 C658 1.477 . S
C659 H679 0.930 . S
C660 N656 1.362 . S
C660 C657 1.431 . S
C660 C670 1.476 . S
H661 C655 0.929 . S
C662 O653 1.250 . S
C662 O654 1.258 . S
O663 Mn648 2.162 . S
O663 C651 1.281 . S
O664 Mn648 2.297 . S
O664 C651 1.236 . S
N665 Mn649 2.282 . S
N665 C666 1.328 . S
N665 C670 1.318 . S
C666 N665 1.328 . S
C666 C667 1.457 1_545 S
C666 H671 0.925 1_545 S
C667 C666 1.457 1_565 S
C667 C668 1.291 1_565 S
C667 H680 0.931 . S
C668 C667 1.291 1_545 S
C668 C669 1.373 . S
C668 H681 0.929 1_545 S
C669 C668 1.373 . S
C669 C670 1.396 . S
C669 C676 1.403 . S
C670 C660 1.476 . S
C670 N665 1.318 . S
C670 C669 1.396 . S
H671 C666 0.925 1_565 S
O672 Mn648 2.385 . S
O672 C650 1.234 1_655 S
O673 Mn648 2.209 . S
O673 Mn649 2.215 1_655 S
O673 C650 1.283 1_655 S
O674 Mn648 2.094 . S
O674 C652 1.240 . S
O675 Mn649 2.117 1_655 S
O675 C652 1.264 . S
C676 C669 1.403 . S
C676 C677 1.399 . S
C676 H682 0.929 . S
C677 C657 1.449 . S
C677 C676 1.399 . S
C677 H683 0.930 . S
H678 C658 0.931 . S
H679 C659 0.930 . S
H680 C667 0.931 . S
H681 C668 0.929 1_565 S
H682 C676 0.929 . S
H683 C677 0.930 . S
Mn684 O689 2.095 . S
Mn684 O699 2.162 . S
Mn684 O700 2.297 . S
Mn684 O708 2.385 . S
Mn684 O709 2.209 . S
Mn684 O710 2.094 . S
Mn685 O690 2.121 . S
Mn685 N692 2.257 . S
Mn685 N701 2.282 . S
Mn685 O709 2.215 . S
Mn685 O711 2.117 . S
C686 O708 1.234 . S
C686 O709 1.283 . S
C687 O699 1.281 . S
C687 O700 1.236 . S
C688 O710 1.240 . S
C688 O711 1.264 . S
O689 Mn684 2.095 . S
O689 C698 1.250 . S
O690 Mn685 2.121 . S
O690 C698 1.258 . S
C691 N692 1.326 . S
C691 C695 1.460 . S
C691 H697 0.929 . S
N692 Mn685 2.257 . S
N692 C691 1.326 . S
N692 C696 1.362 . S
C693 C694 1.258 . S
C693 C696 1.431 . S
C693 C713 1.449 . S
C694 C693 1.258 . S
C694 C695 1.477 . S
C694 H714 0.931 . S
C695 C691 1.460 . S
C695 C694 1.477 . S
C695 H715 0.930 . S
C696 N692 1.362 . S
C696 C693 1.431 . S
C696 C706 1.476 . S
H697 C691 0.929 . S
C698 O689 1.250 . S
C698 O690 1.258 . S
O699 Mn684 2.162 . S
O699 C687 1.281 . S
O700 Mn684 2.297 . S
O700 C687 1.236 . S
N701 Mn685 2.282 . S
N701 C702 1.328 . S
N701 C706 1.318 . S
C702 N701 1.328 . S
C702 C703 1.457 . S
C702 H707 0.929 . S
C703 C702 1.457 . S
C703 C704 1.291 . S
C703 H716 0.931 1_455 S
C704 C703 1.291 . S
C704 C705 1.373 . S
C704 H717 0.929 1_455 S
C705 C704 1.373 . S
C705 C706 1.396 . S
C705 C712 1.403 . S
C706 C696 1.476 . S
C706 N701 1.318 . S
C706 C705 1.396 . S
H707 C702 0.929 . S
O708 Mn684 2.385 . S
O708 C686 1.234 . S
O709 Mn684 2.209 . S
O709 Mn685 2.215 . S
O709 C686 1.283 . S
O710 Mn684 2.094 . S
O710 C688 1.240 . S
O711 Mn685 2.117 . S
O711 C688 1.264 . S
C712 C705 1.403 . S
C712 C713 1.399 . S
C712 H718 0.929 . S
C713 C693 1.449 . S
C713 C712 1.399 . S
C713 H719 0.930 . S
H714 C694 0.931 . S
H715 C695 0.930 . S
H716 C703 0.931 1_655 S
H717 C704 0.929 1_655 S
H718 C712 0.929 . S
H719 C713 0.930 . S
Mn720 O725 2.095 . S
Mn720 O735 2.162 . S
Mn720 O736 2.297 . S
Mn720 O744 2.385 . S
Mn720 O745 2.209 . S
Mn720 O746 2.094 . S
Mn721 O726 2.121 . S
Mn721 N728 2.257 . S
Mn721 N737 2.282 . S
Mn721 O745 2.215 . S
Mn721 O747 2.117 . S
C722 O744 1.234 . S
C722 O745 1.283 . S
C723 O735 1.281 . S
C723 O736 1.236 . S
C724 O746 1.240 . S
C724 O747 1.264 . S
O725 Mn720 2.095 . S
O725 C734 1.250 . S
O726 Mn721 2.121 . S
O726 C734 1.258 . S
C727 N728 1.326 . S
C727 C731 1.460 . S
C727 H733 0.929 . S
N728 Mn721 2.257 . S
N728 C727 1.326 . S
N728 C732 1.362 . S
C729 C730 1.258 . S
C729 C732 1.431 . S
C729 C749 1.449 . S
C730 C729 1.258 . S
C730 C731 1.477 . S
C730 H750 0.931 . S
C731 C727 1.460 . S
C731 C730 1.477 . S
C731 H751 0.930 . S
C732 N728 1.362 . S
C732 C729 1.431 . S
C732 C742 1.476 . S
H733 C727 0.929 . S
C734 O725 1.250 . S
C734 O726 1.258 . S
O735 Mn720 2.162 . S
O735 C723 1.281 . S
O736 Mn720 2.297 . S
O736 C723 1.236 . S
N737 Mn721 2.282 . S
N737 C738 1.328 . S
N737 C742 1.318 . S
C738 N737 1.328 . S
C738 C739 1.457 1_545 S
C738 H743 0.925 1_545 S
C739 C738 1.457 1_565 S
C739 C740 1.291 1_565 S
C739 H752 0.931 . S
C740 C739 1.291 1_545 S
C740 C741 1.373 . S
C740 H753 0.929 1_545 S
C741 C740 1.373 . S
C741 C742 1.396 . S
C741 C748 1.403 . S
C742 C732 1.476 . S
C742 N737 1.318 . S
C742 C741 1.396 . S
H743 C738 0.925 1_565 S
O744 Mn720 2.385 . S
O744 C722 1.234 . S
O745 Mn720 2.209 . S
O745 Mn721 2.215 . S
O745 C722 1.283 . S
O746 Mn720 2.094 . S
O746 C724 1.240 . S
O747 Mn721 2.117 . S
O747 C724 1.264 . S
C748 C741 1.403 . S
C748 C749 1.399 . S
C748 H754 0.929 . S
C749 C729 1.449 . S
C749 C748 1.399 . S
C749 H755 0.930 . S
H750 C730 0.931 . S
H751 C731 0.930 . S
H752 C739 0.931 . S
H753 C740 0.929 1_565 S
H754 C748 0.929 . S
H755 C749 0.930 . S
Mn756 O761 2.095 . S
Mn756 O771 2.162 . S
Mn756 O772 2.297 . S
Mn756 O780 2.385 . S
Mn756 O781 2.209 . S
Mn756 O782 2.094 1_556 S
Mn757 O762 2.121 . S
Mn757 N764 2.257 . S
Mn757 N773 2.282 . S
Mn757 O781 2.215 . S
Mn757 O783 2.117 1_556 S
C758 O780 1.234 . S
C758 O781 1.283 . S
C759 O771 1.281 . S
C759 O772 1.236 . S
C760 O782 1.240 . S
C760 O783 1.264 . S
O761 Mn756 2.095 . S
O761 C770 1.250 . S
O762 Mn757 2.121 . S
O762 C770 1.258 . S
C763 N764 1.326 . S
C763 C767 1.460 . S
C763 H769 0.929 . S
N764 Mn757 2.257 . S
N764 C763 1.326 . S
N764 C768 1.362 . S
C765 C766 1.258 . S
C765 C768 1.431 . S
C765 C785 1.449 . S
C766 C765 1.258 . S
C766 C767 1.477 . S
C766 H786 0.931 . S
C767 C763 1.460 . S
C767 C766 1.477 . S
C767 H787 0.930 . S
C768 N764 1.362 . S
C768 C765 1.431 . S
C768 C778 1.476 . S
H769 C763 0.929 . S
C770 O761 1.250 . S
C770 O762 1.258 . S
O771 Mn756 2.162 . S
O771 C759 1.281 . S
O772 Mn756 2.297 . S
O772 C759 1.236 . S
N773 Mn757 2.282 . S
N773 C774 1.328 1_556 S
N773 C778 1.318 . S
C774 N773 1.328 1_554 S
C774 C775 1.457 1_554 S
C774 H779 0.929 . S
C775 C774 1.457 1_556 S
C775 C776 1.291 . S
C775 H788 0.931 1_456 S
C776 C775 1.291 . S
C776 C777 1.373 . S
C776 H789 0.929 1_455 S
C777 C776 1.373 . S
C777 C778 1.396 . S
C777 C784 1.403 . S
C778 C768 1.476 . S
C778 N773 1.318 . S
C778 C777 1.396 . S
H779 C774 0.929 . S
O780 Mn756 2.385 . S
O780 C758 1.234 . S
O781 Mn756 2.209 . S
O781 Mn757 2.215 . S
O781 C758 1.283 . S
O782 Mn756 2.094 1_554 S
O782 C760 1.240 . S
O783 Mn757 2.117 1_554 S
O783 C760 1.264 . S
C784 C777 1.403 . S
C784 C785 1.399 . S
C784 H790 0.929 . S
C785 C765 1.449 . S
C785 C784 1.399 . S
C785 H791 0.930 . S
H786 C766 0.931 . S
H787 C767 0.930 . S
H788 C775 0.931 1_654 S
H789 C776 0.929 1_655 S
H790 C784 0.929 . S
H791 C785 0.930 . S
Mn792 O797 2.095 . S
Mn792 O807 2.162 . S
Mn792 O808 2.297 . S
Mn792 O816 2.385 . S
Mn792 O817 2.209 . S
Mn792 O818 2.094 . S
Mn793 O798 2.121 1_455 S
Mn793 N800 2.257 . S
Mn793 N809 2.282 . S
Mn793 O817 2.215 1_455 S
Mn793 O819 2.117 1_455 S
C794 O816 1.234 1_455 S
C794 O817 1.283 1_455 S
C795 O807 1.281 . S
C795 O808 1.236 . S
C796 O818 1.240 . S
C796 O819 1.264 . S
O797 Mn792 2.095 . S
O797 C806 1.250 . S
O798 Mn793 2.121 1_655 S
O798 C806 1.258 . S
C799 N800 1.326 . S
C799 C803 1.460 . S
C799 H805 0.929 . S
N800 Mn793 2.257 . S
N800 C799 1.326 . S
N800 C804 1.362 . S
C801 C802 1.258 . S
C801 C804 1.431 . S
C801 C821 1.449 . S
C802 C801 1.258 . S
C802 C803 1.477 . S
C802 H822 0.931 . S
C803 C799 1.460 . S
C803 C802 1.477 . S
C803 H823 0.930 . S
C804 N800 1.362 . S
C804 C801 1.431 . S
C804 C814 1.476 . S
H805 C799 0.929 . S
C806 O797 1.250 . S
C806 O798 1.258 . S
O807 Mn792 2.162 . S
O807 C795 1.281 . S
O808 Mn792 2.297 . S
O808 C795 1.236 . S
N809 Mn793 2.282 . S
N809 C810 1.328 . S
N809 C814 1.318 . S
C810 N809 1.328 . S
C810 C811 1.457 1_565 S
C810 H815 0.925 1_565 S
C811 C810 1.457 1_545 S
C811 C812 1.291 1_545 S
C811 H824 0.931 . S
C812 C811 1.291 1_565 S
C812 C813 1.373 . S
C812 H825 0.929 1_565 S
C813 C812 1.373 . S
C813 C814 1.396 . S
C813 C820 1.403 . S
C814 C804 1.476 . S
C814 N809 1.318 . S
C814 C813 1.396 . S
H815 C810 0.925 1_545 S
O816 Mn792 2.385 . S
O816 C794 1.234 1_655 S
O817 Mn792 2.209 . S
O817 Mn793 2.215 1_655 S
O817 C794 1.283 1_655 S
O818 Mn792 2.094 . S
O818 C796 1.240 . S
O819 Mn793 2.117 1_655 S
O819 C796 1.264 . S
C820 C813 1.403 . S
C820 C821 1.399 . S
C820 H826 0.929 . S
C821 C801 1.449 . S
C821 C820 1.399 . S
C821 H827 0.930 . S
H822 C802 0.931 . S
H823 C803 0.930 . S
H824 C811 0.931 . S
H825 C812 0.929 1_545 S
H826 C820 0.929 . S
H827 C821 0.930 . S
Mn828 O833 2.095 . S
Mn828 O843 2.162 . S
Mn828 O844 2.297 . S
Mn828 O852 2.385 . S
Mn828 O853 2.209 . S
Mn828 O854 2.094 . S
Mn829 O834 2.121 . S
Mn829 N836 2.257 . S
Mn829 N845 2.282 . S
Mn829 O853 2.215 . S
Mn829 O855 2.117 . S
C830 O852 1.234 . S
C830 O853 1.283 . S
C831 O843 1.281 . S
C831 O844 1.236 . S
C832 O854 1.240 . S
C832 O855 1.264 . S
O833 Mn828 2.095 . S
O833 C842 1.250 . S
O834 Mn829 2.121 . S
O834 C842 1.258 . S
C835 N836 1.326 . S
C835 C839 1.460 . S
C835 H841 0.929 . S
N836 Mn829 2.257 . S
N836 C835 1.326 . S
N836 C840 1.362 . S
C837 C838 1.258 . S
C837 C840 1.431 . S
C837 C857 1.449 . S
C838 C837 1.258 . S
C838 C839 1.477 . S
C838 H858 0.931 . S
C839 C835 1.460 . S
C839 C838 1.477 . S
C839 H859 0.930 . S
C840 N836 1.362 . S
C840 C837 1.431 . S
C840 C850 1.476 . S
H841 C835 0.929 . S
C842 O833 1.250 . S
C842 O834 1.258 . S
O843 Mn828 2.162 . S
O843 C831 1.281 . S
O844 Mn828 2.297 . S
O844 C831 1.236 . S
N845 Mn829 2.282 . S
N845 C846 1.328 . S
N845 C850 1.318 . S
C846 N845 1.328 . S
C846 C847 1.457 . S
C846 H851 0.929 . S
C847 C846 1.457 . S
C847 C848 1.291 . S
C847 H860 0.931 . S
C848 C847 1.291 . S
C848 C849 1.373 . S
C848 H861 0.929 . S
C849 C848 1.373 . S
C849 C850 1.396 . S
C849 C856 1.403 . S
C850 C840 1.476 . S
C850 N845 1.318 . S
C850 C849 1.396 . S
H851 C846 0.929 . S
O852 Mn828 2.385 . S
O852 C830 1.234 . S
O853 Mn828 2.209 . S
O853 Mn829 2.215 . S
O853 C830 1.283 . S
O854 Mn828 2.094 . S
O854 C832 1.240 . S
O855 Mn829 2.117 . S
O855 C832 1.264 . S
C856 C849 1.403 . S
C856 C857 1.399 . S
C856 H862 0.929 . S
C857 C837 1.449 . S
C857 C856 1.399 . S
C857 H863 0.930 . S
H858 C838 0.931 . S
H859 C839 0.930 . S
H860 C847 0.931 . S
H861 C848 0.929 . S
H862 C856 0.929 . S
H863 C857 0.930 . S
Mn864 O869 2.095 . S
Mn864 O879 2.162 . S
Mn864 O880 2.297 . S
Mn864 O888 2.385 . S
Mn864 O889 2.209 . S
Mn864 O890 2.094 . S
Mn865 O870 2.121 . S
Mn865 N872 2.257 . S
Mn865 N881 2.282 . S
Mn865 O889 2.215 . S
Mn865 O891 2.117 . S
C866 O888 1.234 . S
C866 O889 1.283 . S
C867 O879 1.281 . S
C867 O880 1.236 . S
C868 O890 1.240 . S
C868 O891 1.264 . S
O869 Mn864 2.095 . S
O869 C878 1.250 . S
O870 Mn865 2.121 . S
O870 C878 1.258 . S
C871 N872 1.326 . S
C871 C875 1.460 . S
C871 H877 0.929 . S
N872 Mn865 2.257 . S
N872 C871 1.326 . S
N872 C876 1.362 . S
C873 C874 1.258 . S
C873 C876 1.431 . S
C873 C893 1.449 . S
C874 C873 1.258 . S
C874 C875 1.477 . S
C874 H894 0.931 . S
C875 C871 1.460 . S
C875 C874 1.477 . S
C875 H895 0.930 . S
C876 N872 1.362 . S
C876 C873 1.431 . S
C876 C886 1.476 . S
H877 C871 0.929 . S
C878 O869 1.250 . S
C878 O870 1.258 . S
O879 Mn864 2.162 . S
O879 C867 1.281 . S
O880 Mn864 2.297 . S
O880 C867 1.236 . S
N881 Mn865 2.282 . S
N881 C882 1.328 . S
N881 C886 1.318 . S
C882 N881 1.328 . S
C882 C883 1.457 . S
C882 H887 0.929 . S
C883 C882 1.457 . S
C883 C884 1.291 . S
C883 H896 0.931 1_545 S
C884 C883 1.291 . S
C884 C885 1.373 . S
C884 H897 0.929 . S
C885 C884 1.373 . S
C885 C886 1.396 . S
C885 C892 1.403 . S
C886 C876 1.476 . S
C886 N881 1.318 . S
C886 C885 1.396 . S
H887 C882 0.929 . S
O888 Mn864 2.385 . S
O888 C866 1.234 . S
O889 Mn864 2.209 . S
O889 Mn865 2.215 . S
O889 C866 1.283 . S
O890 Mn864 2.094 . S
O890 C868 1.240 . S
O891 Mn865 2.117 . S
O891 C868 1.264 . S
C892 C885 1.403 . S
C892 C893 1.399 . S
C892 H898 0.929 . S
C893 C873 1.449 . S
C893 C892 1.399 . S
C893 H899 0.930 . S
H894 C874 0.931 . S
H895 C875 0.930 . S
H896 C883 0.931 1_565 S
H897 C884 0.929 . S
H898 C892 0.929 . S
H899 C893 0.930 . S
Mn900 O905 2.095 1_556 S
Mn900 O915 2.162 . S
Mn900 O916 2.297 . S
Mn900 O924 2.385 . S
Mn900 O925 2.209 . S
Mn900 O926 2.094 . S
Mn901 O906 2.121 . S
Mn901 N908 2.257 . S
Mn901 N917 2.287 . S
Mn901 O925 2.215 1_554 S
Mn901 O927 2.117 . S
C902 O924 1.234 . S
C902 O925 1.283 . S
C903 O915 1.281 . S
C903 O916 1.236 . S
C904 O926 1.240 . S
C904 O927 1.264 1_556 S
O905 Mn900 2.095 1_554 S
O905 C914 1.250 . S
O906 Mn901 2.121 . S
O906 C914 1.258 . S
C907 N908 1.326 . S
C907 C911 1.460 . S
C907 H913 0.929 . S
N908 Mn901 2.257 . S
N908 C907 1.326 . S
N908 C912 1.362 . S
C909 C910 1.258 . S
C909 C912 1.431 . S
C909 C929 1.449 . S
C910 C909 1.258 . S
C910 C911 1.477 . S
C910 H930 0.931 . S
C911 C907 1.460 . S
C911 C910 1.477 . S
C911 H931 0.930 . S
C912 N908 1.362 . S
C912 C909 1.431 . S
C912 C922 1.476 . S
H913 C907 0.929 . S
C914 O905 1.250 . S
C914 O906 1.258 . S
O915 Mn900 2.162 . S
O915 C903 1.281 . S
O916 Mn900 2.297 . S
O916 C903 1.236 . S
N917 Mn901 2.287 . S
N917 C918 1.320 1_554 S
N917 C922 1.320 . S
C918 N917 1.320 1_556 S
C918 C919 1.457 . S
C918 H923 0.929 . S
C919 C918 1.457 . S
C919 C920 1.291 . S
C919 H932 0.931 . S
C920 C919 1.291 . S
C920 C921 1.373 . S
C920 H933 0.929 . S
C921 C920 1.373 . S
C921 C922 1.396 1_556 S
C921 C928 1.403 1_556 S
C922 C912 1.476 . S
C922 N917 1.320 . S
C922 C921 1.396 1_554 S
H923 C918 0.929 . S
O924 Mn900 2.385 . S
O924 C902 1.234 . S
O925 Mn900 2.209 . S
O925 Mn901 2.215 1_556 S
O925 C902 1.283 . S
O926 Mn900 2.094 . S
O926 C904 1.240 . S
O927 Mn901 2.117 . S
O927 C904 1.264 1_554 S
C928 C921 1.403 1_554 S
C928 C929 1.399 . S
C928 H934 0.929 1_554 S
C929 C909 1.449 . S
C929 C928 1.399 . S
C929 H935 0.930 . S
H930 C910 0.931 . S
H931 C911 0.930 . S
H932 C919 0.931 . S
H933 C920 0.929 . S
H934 C928 0.929 1_556 S
H935 C929 0.930 . S
Mn936 O941 2.095 . S
Mn936 O951 2.162 . S
Mn936 O952 2.297 . S
Mn936 O960 2.385 . S
Mn936 O961 2.209 1_455 S
Mn936 O962 2.094 . S
Mn937 O942 2.121 1_655 S
Mn937 N944 2.257 . S
Mn937 N953 2.282 . S
Mn937 O961 2.215 . S
Mn937 O963 2.117 1_655 S
C938 O960 1.233 1_655 S
C938 O961 1.283 . S
C939 O951 1.281 . S
C939 O952 1.236 . S
C940 O962 1.240 . S
C940 O963 1.264 . S
O941 Mn936 2.095 . S
O941 C950 1.250 . S
O942 Mn937 2.121 1_455 S
O942 C950 1.258 . S
C943 N944 1.326 . S
C943 C947 1.460 . S
C943 H949 0.929 . S
N944 Mn937 2.257 . S
N944 C943 1.326 . S
N944 C948 1.362 . S
C945 C946 1.258 . S
C945 C948 1.431 . S
C945 C965 1.449 . S
C946 C945 1.258 . S
C946 C947 1.477 . S
C946 H966 0.931 . S
C947 C943 1.460 . S
C947 C946 1.477 . S
C947 H967 0.930 . S
C948 N944 1.362 . S
C948 C945 1.431 . S
C948 C958 1.476 . S
H949 C943 0.929 . S
C950 O941 1.250 . S
C950 O942 1.258 . S
O951 Mn936 2.162 . S
O951 C939 1.281 . S
O952 Mn936 2.297 . S
O952 C939 1.236 . S
N953 Mn937 2.282 . S
N953 C954 1.328 . S
N953 C958 1.318 . S
C954 N953 1.328 . S
C954 C955 1.457 . S
C954 H959 0.929 . S
C955 C954 1.457 . S
C955 C956 1.291 . S
C955 H968 0.931 1_565 S
C956 C955 1.291 . S
C956 C957 1.373 . S
C956 H969 0.929 . S
C957 C956 1.373 . S
C957 C958 1.396 . S
C957 C964 1.403 . S
C958 C948 1.476 . S
C958 N953 1.318 . S
C958 C957 1.396 . S
H959 C954 0.929 . S
O960 Mn936 2.385 . S
O960 C938 1.233 1_455 S
O961 Mn936 2.209 1_655 S
O961 Mn937 2.215 . S
O961 C938 1.283 . S
O962 Mn936 2.094 . S
O962 C940 1.240 . S
O963 Mn937 2.117 1_455 S
O963 C940 1.264 . S
C964 C957 1.403 . S
C964 C965 1.399 . S
C964 H970 0.929 . S
C965 C945 1.449 . S
C965 C964 1.399 . S
C965 H971 0.930 . S
H966 C946 0.931 . S
H967 C947 0.930 . S
H968 C955 0.931 1_545 S
H969 C956 0.929 . S
H970 C964 0.929 . S
H971 C965 0.930 . S
Mn972 O977 2.095 . S
Mn972 O987 2.162 . S
Mn972 O988 2.297 . S
Mn972 O996 2.385 . S
Mn972 O997 2.209 . S
Mn972 O998 2.094 . S
Mn973 O978 2.121 . S
Mn973 N980 2.257 . S
Mn973 N989 2.282 . S
Mn973 O997 2.215 . S
Mn973 O999 2.117 . S
C974 O996 1.234 . S
C974 O997 1.283 . S
C975 O987 1.281 . S
C975 O988 1.236 . S
C976 O998 1.240 . S
C976 O999 1.264 . S
O977 Mn972 2.095 . S
O977 C986 1.250 . S
O978 Mn973 2.121 . S
O978 C986 1.258 . S
C979 N980 1.326 . S
C979 C983 1.460 . S
C979 H985 0.929 . S
N980 Mn973 2.257 . S
N980 C979 1.326 . S
N980 C984 1.362 . S
C981 C982 1.258 . S
C981 C984 1.431 . S
C981 C1001 1.449 . S
C982 C981 1.258 . S
C982 C983 1.477 . S
C982 H1002 0.931 . S
C983 C979 1.460 . S
C983 C982 1.477 . S
C983 H1003 0.930 . S
C984 N980 1.362 . S
C984 C981 1.431 . S
C984 C994 1.476 . S
H985 C979 0.929 . S
C986 O977 1.250 . S
C986 O978 1.258 . S
O987 Mn972 2.162 . S
O987 C975 1.281 . S
O988 Mn972 2.297 . S
O988 C975 1.236 . S
N989 Mn973 2.282 . S
N989 C990 1.328 . S
N989 C994 1.318 . S
C990 N989 1.328 . S
C990 C991 1.457 . S
C990 H995 0.929 . S
C991 C990 1.457 . S
C991 C992 1.291 . S
C991 H1004 0.931 . S
C992 C991 1.291 . S
C992 C993 1.373 . S
C992 H1005 0.929 . S
C993 C992 1.373 . S
C993 C994 1.396 . S
C993 C1000 1.403 . S
C994 C984 1.476 . S
C994 N989 1.318 . S
C994 C993 1.396 . S
H995 C990 0.929 . S
O996 Mn972 2.385 . S
O996 C974 1.234 . S
O997 Mn972 2.209 . S
O997 Mn973 2.215 . S
O997 C974 1.283 . S
O998 Mn972 2.094 . S
O998 C976 1.240 . S
O999 Mn973 2.117 . S
O999 C976 1.264 . S
C1000 C993 1.403 . S
C1000 C1001 1.399 . S
C1000 H1006 0.929 . S
C1001 C981 1.449 . S
C1001 C1000 1.399 . S
C1001 H1007 0.930 . S
H1002 C982 0.931 . S
H1003 C983 0.930 . S
H1004 C991 0.931 . S
H1005 C992 0.929 . S
H1006 C1000 0.929 . S
H1007 C1001 0.930 . S
Mn1008 O1013 2.095 . S
Mn1008 O1023 2.162 . S
Mn1008 O1024 2.297 . S
Mn1008 O1032 2.385 . S
Mn1008 O1033 2.209 . S
Mn1008 O1034 2.094 . S
Mn1009 O1014 2.121 . S
Mn1009 N1016 2.257 . S
Mn1009 N1025 2.282 . S
Mn1009 O1033 2.215 . S
Mn1009 O1035 2.117 . S
C1010 O1032 1.234 . S
C1010 O1033 1.283 . S
C1011 O1023 1.281 . S
C1011 O1024 1.236 . S
C1012 O1034 1.240 . S
C1012 O1035 1.264 . S
O1013 Mn1008 2.095 . S
O1013 C1022 1.250 . S
O1014 Mn1009 2.121 . S
O1014 C1022 1.258 . S
C1015 N1016 1.326 . S
C1015 C1019 1.460 . S
C1015 H1021 0.929 . S
N1016 Mn1009 2.257 . S
N1016 C1015 1.326 . S
N1016 C1020 1.362 . S
C1017 C1018 1.258 . S
C1017 C1020 1.431 . S
C1017 C1037 1.449 . S
C1018 C1017 1.258 . S
C1018 C1019 1.477 . S
C1018 H1038 0.931 . S
C1019 C1015 1.460 . S
C1019 C1018 1.477 . S
C1019 H1039 0.930 . S
C1020 N1016 1.362 . S
C1020 C1017 1.431 . S
C1020 C1030 1.476 . S
H1021 C1015 0.929 . S
C1022 O1013 1.250 . S
C1022 O1014 1.258 . S
O1023 Mn1008 2.162 . S
O1023 C1011 1.281 . S
O1024 Mn1008 2.297 . S
O1024 C1011 1.236 . S
N1025 Mn1009 2.282 . S
N1025 C1026 1.328 . S
N1025 C1030 1.318 . S
C1026 N1025 1.328 . S
C1026 C1027 1.457 . S
C1026 H1031 0.929 . S
C1027 C1026 1.457 . S
C1027 C1028 1.291 . S
C1027 H1040 0.931 1_565 S
C1028 C1027 1.291 . S
C1028 C1029 1.373 . S
C1028 H1041 0.929 . S
C1029 C1028 1.373 . S
C1029 C1030 1.396 . S
C1029 C1036 1.403 . S
C1030 C1020 1.476 . S
C1030 N1025 1.318 . S
C1030 C1029 1.396 . S
H1031 C1026 0.929 . S
O1032 Mn1008 2.385 . S
O1032 C1010 1.234 . S
O1033 Mn1008 2.209 . S
O1033 Mn1009 2.215 . S
O1033 C1010 1.283 . S
O1034 Mn1008 2.094 . S
O1034 C1012 1.240 . S
O1035 Mn1009 2.117 . S
O1035 C1012 1.264 . S
C1036 C1029 1.403 . S
C1036 C1037 1.399 . S
C1036 H1042 0.929 . S
C1037 C1017 1.449 . S
C1037 C1036 1.399 . S
C1037 H1043 0.930 . S
H1038 C1018 0.931 . S
H1039 C1019 0.930 . S
H1040 C1027 0.931 1_545 S
H1041 C1028 0.929 . S
H1042 C1036 0.929 . S
H1043 C1037 0.930 . S
Mn1044 O1049 2.095 1_554 S
Mn1044 O1059 2.162 . S
Mn1044 O1060 2.297 . S
Mn1044 O1068 2.385 . S
Mn1044 O1069 2.209 . S
Mn1044 O1070 2.094 . S
Mn1045 O1050 2.121 . S
Mn1045 N1052 2.257 . S
Mn1045 N1061 2.287 . S
Mn1045 O1069 2.215 1_556 S
Mn1045 O1071 2.117 . S
C1046 O1068 1.234 . S
C1046 O1069 1.283 . S
C1047 O1059 1.281 . S
C1047 O1060 1.236 . S
C1048 O1070 1.240 . S
C1048 O1071 1.264 1_554 S
O1049 Mn1044 2.095 1_556 S
O1049 C1058 1.250 . S
O1050 Mn1045 2.121 . S
O1050 C1058 1.258 . S
C1051 N1052 1.326 . S
C1051 C1055 1.460 . S
C1051 H1057 0.929 . S
N1052 Mn1045 2.257 . S
N1052 C1051 1.326 . S
N1052 C1056 1.362 . S
C1053 C1054 1.258 . S
C1053 C1056 1.431 . S
C1053 C1073 1.449 . S
C1054 C1053 1.258 . S
C1054 C1055 1.477 . S
C1054 H1074 0.931 . S
C1055 C1051 1.460 . S
C1055 C1054 1.477 . S
C1055 H1075 0.930 . S
C1056 N1052 1.362 . S
C1056 C1053 1.431 . S
C1056 C1066 1.476 . S
H1057 C1051 0.929 . S
C1058 O1049 1.250 . S
C1058 O1050 1.258 . S
O1059 Mn1044 2.162 . S
O1059 C1047 1.281 . S
O1060 Mn1044 2.297 . S
O1060 C1047 1.236 . S
N1061 Mn1045 2.287 . S
N1061 C1062 1.320 1_556 S
N1061 C1066 1.320 . S
C1062 N1061 1.320 1_554 S
C1062 C1063 1.457 . S
C1062 H1067 0.929 . S
C1063 C1062 1.457 . S
C1063 C1064 1.291 . S
C1063 H1076 0.931 . S
C1064 C1063 1.291 . S
C1064 C1065 1.373 . S
C1064 H1077 0.929 . S
C1065 C1064 1.373 . S
C1065 C1066 1.396 1_554 S
C1065 C1072 1.403 1_554 S
C1066 C1056 1.476 . S
C1066 N1061 1.320 . S
C1066 C1065 1.396 1_556 S
H1067 C1062 0.929 . S
O1068 Mn1044 2.385 . S
O1068 C1046 1.234 . S
O1069 Mn1044 2.209 . S
O1069 Mn1045 2.215 1_554 S
O1069 C1046 1.283 . S
O1070 Mn1044 2.094 . S
O1070 C1048 1.240 . S
O1071 Mn1045 2.117 . S
O1071 C1048 1.264 1_556 S
C1072 C1065 1.403 1_556 S
C1072 C1073 1.399 . S
C1072 H1078 0.929 1_556 S
C1073 C1053 1.449 . S
C1073 C1072 1.399 . S
C1073 H1079 0.930 . S
H1074 C1054 0.931 . S
H1075 C1055 0.930 . S
H1076 C1063 0.931 . S
H1077 C1064 0.929 . S
H1078 C1072 0.929 1_554 S
H1079 C1073 0.930 . S
Mn1080 O1085 2.095 . S
Mn1080 O1095 2.162 . S
Mn1080 O1096 2.297 . S
Mn1080 O1104 2.385 . S
Mn1080 O1105 2.209 1_455 S
Mn1080 O1106 2.094 . S
Mn1081 O1086 2.121 1_655 S
Mn1081 N1088 2.257 . S
Mn1081 N1097 2.282 . S
Mn1081 O1105 2.215 . S
Mn1081 O1107 2.117 1_655 S
C1082 O1104 1.233 1_655 S
C1082 O1105 1.283 . S
C1083 O1095 1.281 . S
C1083 O1096 1.236 . S
C1084 O1106 1.240 . S
C1084 O1107 1.264 . S
O1085 Mn1080 2.095 . S
O1085 C1094 1.250 . S
O1086 Mn1081 2.121 1_455 S
O1086 C1094 1.258 . S
C1087 N1088 1.326 . S
C1087 C1091 1.460 . S
C1087 H1093 0.929 . S
N1088 Mn1081 2.257 . S
N1088 C1087 1.326 . S
N1088 C1092 1.362 . S
C1089 C1090 1.258 . S
C1089 C1092 1.431 . S
C1089 C1109 1.449 . S
C1090 C1089 1.258 . S
C1090 C1091 1.477 . S
C1090 H1110 0.931 . S
C1091 C1087 1.460 . S
C1091 C1090 1.477 . S
C1091 H1111 0.930 . S
C1092 N1088 1.362 . S
C1092 C1089 1.431 . S
C1092 C1102 1.476 . S
H1093 C1087 0.929 . S
C1094 O1085 1.250 . S
C1094 O1086 1.258 . S
O1095 Mn1080 2.162 . S
O1095 C1083 1.281 . S
O1096 Mn1080 2.297 . S
O1096 C1083 1.236 . S
N1097 Mn1081 2.282 . S
N1097 C1098 1.328 . S
N1097 C1102 1.318 . S
C1098 N1097 1.328 . S
C1098 C1099 1.457 . S
C1098 H1103 0.929 . S
C1099 C1098 1.457 . S
C1099 C1100 1.291 . S
C1099 H1112 0.931 1_545 S
C1100 C1099 1.291 . S
C1100 C1101 1.373 . S
C1100 H1113 0.929 . S
C1101 C1100 1.373 . S
C1101 C1102 1.396 . S
C1101 C1108 1.403 . S
C1102 C1092 1.476 . S
C1102 N1097 1.318 . S
C1102 C1101 1.396 . S
H1103 C1098 0.929 . S
O1104 Mn1080 2.385 . S
O1104 C1082 1.233 1_455 S
O1105 Mn1080 2.209 1_655 S
O1105 Mn1081 2.215 . S
O1105 C1082 1.283 . S
O1106 Mn1080 2.094 . S
O1106 C1084 1.240 . S
O1107 Mn1081 2.117 1_455 S
O1107 C1084 1.264 . S
C1108 C1101 1.403 . S
C1108 C1109 1.399 . S
C1108 H1114 0.929 . S
C1109 C1089 1.449 . S
C1109 C1108 1.399 . S
C1109 H1115 0.930 . S
H1110 C1090 0.931 . S
H1111 C1091 0.930 . S
H1112 C1099 0.931 1_565 S
H1113 C1100 0.929 . S
H1114 C1108 0.929 . S
H1115 C1109 0.930 . S
Mn1116 O1121 2.095 . S
Mn1116 O1131 2.162 . S
Mn1116 O1132 2.297 . S
Mn1116 O1140 2.385 . S
Mn1116 O1141 2.209 . S
Mn1116 O1142 2.094 . S
Mn1117 O1122 2.121 . S
Mn1117 N1124 2.257 . S
Mn1117 N1133 2.282 . S
Mn1117 O1141 2.215 . S
Mn1117 O1143 2.117 . S
C1118 O1140 1.234 . S
C1118 O1141 1.283 . S
C1119 O1131 1.281 . S
C1119 O1132 1.236 . S
C1120 O1142 1.240 . S
C1120 O1143 1.264 . S
O1121 Mn1116 2.095 . S
O1121 C1130 1.250 . S
O1122 Mn1117 2.121 . S
O1122 C1130 1.258 . S
C1123 N1124 1.326 . S
C1123 C1127 1.460 . S
C1123 H1129 0.929 . S
N1124 Mn1117 2.257 . S
N1124 C1123 1.326 . S
N1124 C1128 1.362 . S
C1125 C1126 1.258 . S
C1125 C1128 1.431 . S
C1125 C1145 1.449 . S
C1126 C1125 1.258 . S
C1126 C1127 1.477 . S
C1126 H1146 0.931 . S
C1127 C1123 1.460 . S
C1127 C1126 1.477 . S
C1127 H1147 0.930 . S
C1128 N1124 1.362 . S
C1128 C1125 1.431 . S
C1128 C1138 1.476 . S
H1129 C1123 0.929 . S
C1130 O1121 1.250 . S
C1130 O1122 1.258 . S
O1131 Mn1116 2.162 . S
O1131 C1119 1.281 . S
O1132 Mn1116 2.297 . S
O1132 C1119 1.236 . S
N1133 Mn1117 2.282 . S
N1133 C1134 1.328 . S
N1133 C1138 1.318 . S
C1134 N1133 1.328 . S
C1134 C1135 1.457 . S
C1134 H1139 0.929 . S
C1135 C1134 1.457 . S
C1135 C1136 1.291 . S
C1135 H1148 0.931 . S
C1136 C1135 1.291 . S
C1136 C1137 1.373 . S
C1136 H1149 0.929 . S
C1137 C1136 1.373 . S
C1137 C1138 1.396 . S
C1137 C1144 1.403 . S
C1138 C1128 1.476 . S
C1138 N1133 1.318 . S
C1138 C1137 1.396 . S
H1139 C1134 0.929 . S
O1140 Mn1116 2.385 . S
O1140 C1118 1.234 . S
O1141 Mn1116 2.209 . S
O1141 Mn1117 2.215 . S
O1141 C1118 1.283 . S
O1142 Mn1116 2.094 . S
O1142 C1120 1.240 . S
O1143 Mn1117 2.117 . S
O1143 C1120 1.264 . S
C1144 C1137 1.403 . S
C1144 C1145 1.399 . S
C1144 H1150 0.929 . S
C1145 C1125 1.449 . S
C1145 C1144 1.399 . S
C1145 H1151 0.930 . S
H1146 C1126 0.931 . S
H1147 C1127 0.930 . S
H1148 C1135 0.931 . S
H1149 C1136 0.929 . S
H1150 C1144 0.929 . S
H1151 C1145 0.930 . S
C14 C760 1.204 . S
C806 C40 1.204 . S
C86 C832 1.204 . S
C734 C112 1.204 . S
C158 C688 1.204 . S
C184 C590 1.204 . S
C616 C230 1.204 . S
C256 C662 1.204 . S
C302 C1058 1.712 . S
C338 C1094 1.712 . S
C1130 C374 1.712 . S
C1022 C410 1.712 . S
C446 C986 1.712 . S
C878 C482 1.712 . S
C518 C914 1.712 . S
C950 C554 1.712 . S
C3 C326 1.691 . S
C38 C938 1.481 . S
C398 C75 1.691 . S
C110 C866 1.481 . S
C147 C542 1.691 . S
C1010 C182 1.481 . S
C470 C219 1.691 . S
C1082 C254 1.481 . S
C291 C39 1.339 . S
C650 C327 1.300 . S
C111 C363 1.339 . S
C399 C578 1.300 . S
C255 C435 1.339 . S
C722 C471 1.300 . S
C183 C507 1.339 . S
C543 C794 1.300 . S
C902 C579 1.691 . S
C362 C614 1.481 . S
C974 C651 1.691 . S
C686 C290 1.481 . S
C1118 C723 1.691 . S
C434 C758 1.481 . S
C1046 C795 1.691 . S
C830 C506 1.481 . S
C867 C615 1.339 . S
C74 C903 1.300 . S
C939 C687 1.339 . S
C975 C2 1.300 . S
C1011 C831 1.339 . S
C146 C1047 1.300 . S
C759 C1083 1.339 . S
C1119 C218 1.300 . S
C4 C148 1.723 . S
C50 C194 1.594 . S
C220 C76 1.723 . S
C266 C122 1.594 1_556 S
C436 C292 1.465 . S
C472 C328 1.498 . S
C508 C364 1.465 . S
C544 C400 1.498 1_554 S
C580 C724 1.723 1_565 S
C626 C770 1.594 1_554 S
C652 C796 1.723 1_545 S
C842 C698 1.594 . S
C868 C1012 1.465 1_545 S
C1048 C904 1.498 1_554 S
C1084 C940 1.465 1_545 S
C1120 C976 1.498 . S
