# Generated by pormake.
# Topology vby, (6)-cn, num edge types: 1
# Building blocks:
#     Node 0, Type 0, BuildingBlock: CUKXOW_clean_sbu_0, # of connection points: 6
#     Node 1, Type 0, BuildingBlock: CUKXOW_clean_sbu_0, # of connection points: 6
#     Node 2, Type 0, BuildingBlock: CUKXOW_clean_sbu_0, # of connection points: 6
#     Node 3, Type 0, BuildingBlock: CUKXOW_clean_sbu_0, # of connection points: 6
#     Node 4, Type 0, BuildingBlock: CUKXOW_clean_sbu_0, # of connection points: 6
#     Node 5, Type 0, BuildingBlock: CUKXOW_clean_sbu_0, # of connection points: 6
#     Node 6, Type 0, BuildingBlock: CUKXOW_clean_sbu_0, # of connection points: 6
#     Node 7, Type 0, BuildingBlock: CUKXOW_clean_sbu_0, # of connection points: 6
#     Edge 8, Type (0, 0), BuildingBlock: TEMPAE_clean_linker_10, # of connection points: 2
#     Edge 9, Type (0, 0), BuildingBlock: TEMPAE_clean_linker_10, # of connection points: 2
#     Edge 10, Type (0, 0), BuildingBlock: TEMPAE_clean_linker_10, # of connection points: 2
#     Edge 11, Type (0, 0), BuildingBlock: TEMPAE_clean_linker_10, # of connection points: 2
#     Edge 12, Type (0, 0), BuildingBlock: TEMPAE_clean_linker_10, # of connection points: 2
#     Edge 13, Type (0, 0), BuildingBlock: TEMPAE_clean_linker_10, # of connection points: 2
#     Edge 14, Type (0, 0), BuildingBlock: TEMPAE_clean_linker_10, # of connection points: 2
#     Edge 15, Type (0, 0), BuildingBlock: TEMPAE_clean_linker_10, # of connection points: 2
#     Edge 16, Type (0, 0), BuildingBlock: TEMPAE_clean_linker_10, # of connection points: 2
#     Edge 17, Type (0, 0), BuildingBlock: TEMPAE_clean_linker_10, # of connection points: 2
#     Edge 18, Type (0, 0), BuildingBlock: TEMPAE_clean_linker_10, # of connection points: 2
#     Edge 19, Type (0, 0), BuildingBlock: TEMPAE_clean_linker_10, # of connection points: 2
#     Edge 20, Type (0, 0), BuildingBlock: TEMPAE_clean_linker_10, # of connection points: 2
#     Edge 21, Type (0, 0), BuildingBlock: TEMPAE_clean_linker_10, # of connection points: 2
#     Edge 22, Type (0, 0), BuildingBlock: TEMPAE_clean_linker_10, # of connection points: 2
#     Edge 23, Type (0, 0), BuildingBlock: TEMPAE_clean_linker_10, # of connection points: 2
#     Edge 24, Type (0, 0), BuildingBlock: TEMPAE_clean_linker_10, # of connection points: 2
#     Edge 25, Type (0, 0), BuildingBlock: TEMPAE_clean_linker_10, # of connection points: 2
#     Edge 26, Type (0, 0), BuildingBlock: TEMPAE_clean_linker_10, # of connection points: 2
#     Edge 27, Type (0, 0), BuildingBlock: TEMPAE_clean_linker_10, # of connection points: 2
#     Edge 28, Type (0, 0), BuildingBlock: TEMPAE_clean_linker_10, # of connection points: 2
#     Edge 29, Type (0, 0), BuildingBlock: TEMPAE_clean_linker_10, # of connection points: 2
#     Edge 30, Type (0, 0), BuildingBlock: TEMPAE_clean_linker_10, # of connection points: 2
#     Edge 31, Type (0, 0), BuildingBlock: TEMPAE_clean_linker_10, # of connection points: 2
# Relax obj value: 0.105
# Max RMSD: 0.176
# Mean RMSD: 0.176
data_MOF--net-vby--node1-CUKXOW_clean_sbu_0--edge1-TEMPAE_clean_linker_10
_symmetry_space_group_name_H-M    P1
_symmetry_Int_Tables_number       1
_symmetry_cell_setting            triclinic
loop_
_symmetry_equiv_pos_as_xyz
'x, y, z'
_cell_length_a     18.321049
_cell_length_b     53.943692
_cell_length_c     30.439273
_cell_angle_alpha  105.40388
_cell_angle_beta   89.883572
_cell_angle_gamma 89.969924
loop_
_atom_site_label
_atom_site_type_symbol
_atom_site_fract_x
_atom_site_fract_y
_atom_site_fract_z
_atom_type_partial_charge
Tb0 Tb 0.98259 0.37337 0.00352 0.0
C1 C 0.04156 0.39166 0.10371 0.0
Tb2 Tb 0.1475 0.38671 0.01925 0.0
O3 O 0.01636 0.33335 0.9687 0.0
O4 O 0.07834 0.35599 0.02052 0.0
O5 O 0.98532 0.39088 0.07611 0.0
C6 C 0.28992 0.37766 0.0221 0.0
O7 O 0.11028 0.38807 0.08869 0.0
C8 C 0.07649 0.42863 0.0169 0.0
C9 C 0.07224 0.38051 0.92165 0.0
O10 O 0.25452 0.3958 0.05103 0.0
O11 O 0.24505 0.36467 0.99156 0.0
O12 O 0.14655 0.42759 0.02301 0.0
O13 O 0.0504 0.40646 0.01401 0.0
O14 O 0.13397 0.37898 0.94417 0.0
O15 O 0.0067 0.38108 0.93985 0.0
C16 C 0.83728 0.36986 0.00428 0.0
O17 O 0.88192 0.35752 0.02393 0.0
O18 O 0.87449 0.38414 0.9841 0.0
C19 C 0.07664 0.33463 0.9916 0.0
Tb20 Tb 0.86103 0.64528 0.0037 0.0
C21 C 0.94403 0.64934 0.09722 0.0
Tb22 Tb 0.02256 0.65377 0.00838 0.0
O23 O 0.87261 0.60601 0.96146 0.0
O24 O 0.95272 0.62178 0.0088 0.0
O25 O 0.87979 0.65065 0.0774 0.0
C26 C 0.16768 0.65422 0.01489 0.0
O27 O 0.00696 0.64843 0.07549 0.0
C28 C 0.94053 0.69432 0.00684 0.0
C29 C 0.95191 0.6429 0.91464 0.0
O30 O 0.12402 0.6707 0.04116 0.0
O31 O 0.12953 0.63742 0.98548 0.0
O32 O 1.0042 0.68985 0.98786 0.0
O33 O 0.92845 0.67734 0.02706 0.0
O34 O 0.0083 0.63722 0.93677 0.0
O35 O 0.8891 0.65069 0.93598 0.0
C36 C 0.71644 0.65071 0.01154 0.0
O37 O 0.75947 0.66463 0.99398 0.0
O38 O 0.75474 0.63363 0.02429 0.0
C39 C 0.93546 0.60188 0.97785 0.0
Tb40 Tb 0.98622 0.66847 0.51835 0.0
C41 C 0.0518 0.64945 0.42028 0.0
Tb42 Tb 0.15207 0.65612 0.50735 0.0
O43 O 0.01679 0.70895 0.55263 0.0
O44 O 0.08257 0.68619 0.50319 0.0
O45 O 0.99357 0.6497 0.44623 0.0
C46 C 0.29442 0.66494 0.50467 0.0
O47 O 0.11873 0.6547 0.43734 0.0
C48 C 0.0823 0.61383 0.50839 0.0
C49 C 0.0705 0.66197 0.60277 0.0
O50 O 0.2592 0.64675 0.47596 0.0
O51 O 0.24947 0.67812 0.53516 0.0
O52 O 0.15261 0.61535 0.50391 0.0
O53 O 0.05515 0.63576 0.51037 0.0
O54 O 0.13373 0.66421 0.58213 0.0
O55 O 0.00651 0.66096 0.58262 0.0
C56 C 0.84111 0.67161 0.51621 0.0
O57 O 0.88597 0.68298 0.49487 0.0
O58 O 0.87796 0.6584 0.53854 0.0
C59 C 0.07863 0.70774 0.53125 0.0
Tb60 Tb 0.85875 0.39826 0.52394 0.0
C61 C 0.93672 0.39014 0.42696 0.0
Tb62 Tb 0.01978 0.38812 0.5153 0.0
O63 O 0.87496 0.43738 0.56516 0.0
O64 O 0.95124 0.42056 0.51524 0.0
O65 O 0.87389 0.39263 0.44994 0.0
C66 C 0.16488 0.38873 0.50832 0.0
O67 O 1.00105 0.38901 0.44589 0.0
C68 C 0.93668 0.34873 0.52109 0.0
C69 C 0.95317 0.39995 0.61094 0.0
O70 O 0.12252 0.37093 0.48428 0.0
O71 O 0.12541 0.40621 0.53558 0.0
O72 O 1.00212 0.35257 0.53759 0.0
O73 O 0.92373 0.36549 0.50051 0.0
O74 O 0.00887 0.40478 0.58722 0.0
O75 O 0.88868 0.39313 0.59141 0.0
C76 C 0.71363 0.39413 0.51826 0.0
O77 O 0.75621 0.38005 0.53569 0.0
O78 O 0.75265 0.41073 0.50463 0.0
C79 C 0.93661 0.44076 0.54644 0.0
Tb80 Tb 0.48792 0.87372 0.99525 0.0
C81 C 0.56231 0.88363 0.09107 0.0
Tb82 Tb 0.65274 0.88942 0.00558 0.0
O83 O 0.50637 0.83131 0.98438 0.0
O84 O 0.58925 0.85688 0.99398 0.0
O85 O 0.50115 0.8836 0.06807 0.0
C86 C 0.79726 0.88692 0.99894 0.0
O87 O 0.62871 0.88377 0.07309 0.0
C88 C 0.56033 0.92834 0.02801 0.0
C89 C 0.569 0.8833 0.91041 0.0
O90 O 0.75837 0.90701 0.99866 0.0
O91 O 0.75486 0.86845 0.00291 0.0
O92 O 0.62385 0.92764 0.04686 0.0
O93 O 0.55267 0.90745 0.99711 0.0
O94 O 0.6335 0.88445 0.93148 0.0
O95 O 0.50603 0.88122 0.93041 0.0
C96 C 0.34359 0.87594 0.99478 0.0
O97 O 0.3834 0.86179 0.96226 0.0
O98 O 0.38503 0.88872 0.02761 0.0
C99 C 0.57686 0.83351 0.98823 0.0
Tb100 Tb 0.35824 0.14745 0.99886 0.0
C101 C 0.44628 0.14902 0.08885 0.0
Tb102 Tb 0.52472 0.15386 1.00113 0.0
O103 O 0.34698 0.10594 0.98311 0.0
O104 O 0.44973 0.12263 0.99039 0.0
O105 O 0.38386 0.15523 0.07205 0.0
C106 C 0.66947 0.15594 0.00838 0.0
O107 O 0.50721 0.14449 0.06482 0.0
C108 C 0.4434 0.19489 1.00138 0.0
C109 C 0.45057 0.14157 0.90756 0.0
O110 O 0.62433 0.17197 0.03424 0.0
O111 O 0.633 0.13843 0.97919 0.0
O112 O 0.50614 0.1901 0.98125 0.0
O113 O 0.43158 0.17783 0.02148 0.0
O114 O 0.50912 0.13746 0.92974 0.0
O115 O 0.38702 0.14895 0.92864 0.0
C116 C 0.21604 0.15805 0.00656 0.0
O117 O 0.25962 0.16435 0.97754 0.0
O118 O 0.25254 0.14586 0.03064 0.0
C119 C 0.41633 0.1014 0.98448 0.0
Tb120 Tb 0.48467 0.16744 0.51193 0.0
C121 C 0.54995 0.14968 0.41328 0.0
Tb122 Tb 0.65059 0.15508 0.5 0.0
O123 O 0.51574 0.20747 0.54854 0.0
O124 O 0.58106 0.18551 0.49777 0.0
O125 O 0.4917 0.15003 0.4393 0.0
C126 C 0.79283 0.1642 0.49777 0.0
O127 O 0.61717 0.1543 0.43025 0.0
C128 C 0.58032 0.11259 0.49898 0.0
C129 C 0.56919 0.15925 0.59507 0.0
O130 O 0.75789 0.14615 0.46861 0.0
O131 O 0.74766 0.17707 0.52845 0.0
O132 O 0.65074 0.11406 0.49487 0.0
O133 O 0.55366 0.13468 0.50197 0.0
O134 O 0.63239 0.16185 0.57464 0.0
O135 O 0.50513 0.15862 0.57511 0.0
C136 C 0.33956 0.17072 0.5102 0.0
O137 O 0.37642 0.15668 0.53096 0.0
O138 O 0.38442 0.18284 0.49018 0.0
C139 C 0.57735 0.20667 0.52704 0.0
Tb140 Tb 0.36221 0.89481 0.50751 0.0
C141 C 0.45112 0.88411 0.4142 0.0
Tb142 Tb 0.52343 0.88656 0.50813 0.0
O143 O 0.3712 0.93464 0.54627 0.0
O144 O 0.45483 0.91791 0.50151 0.0
O145 O 0.3854 0.88645 0.43381 0.0
C146 C 0.66888 0.886 0.5027 0.0
O147 O 0.51252 0.88505 0.43721 0.0
C148 C 0.44097 0.84719 0.51496 0.0
C149 C 0.44647 0.90113 0.59982 0.0
O150 O 0.62597 0.86805 0.4799 0.0
O151 O 0.62987 0.90432 0.52838 0.0
O152 O 0.50346 0.85271 0.53502 0.0
O153 O 0.43029 0.8625 0.49105 0.0
O154 O 0.50491 0.90586 0.57834 0.0
O155 O 0.38548 0.89234 0.57746 0.0
C156 C 0.21778 0.88902 0.4992 0.0
O157 O 0.26025 0.87669 0.52013 0.0
O158 O 0.25659 0.9047 0.48301 0.0
C159 C 0.43511 0.93833 0.53073 0.0
C160 C 0.41344 0.39057 0.05391 0.0
C161 C 0.36949 0.37367 0.02194 0.0
C162 C 0.48974 0.38837 0.0519 0.0
C163 C 0.52263 0.36879 0.01704 0.0
C164 C 0.47823 0.35108 0.98565 0.0
C165 C 0.40199 0.35372 0.98854 0.0
C166 C 0.53519 0.40752 0.08618 0.0
C167 C 0.51127 0.32983 0.94826 0.0
C168 C 0.71453 0.38259 0.98275 0.0
C169 C 0.75697 0.36862 0.00602 0.0
C170 C 0.63808 0.38235 0.98532 0.0
C171 C 0.60343 0.36787 0.01198 0.0
C172 C 0.64612 0.3534 0.03501 0.0
C173 C 0.72256 0.35394 0.03171 0.0
C174 C 0.59442 0.39794 0.9601 0.0
C175 C 0.61115 0.33782 0.06387 0.0
H176 H 0.38826 0.40594 0.0799 0.0
H177 H 0.36788 0.34049 0.96404 0.0
H178 H 0.57438 0.39734 0.10302 0.0
H179 H 0.56757 0.41936 0.0685 0.0
H180 H 0.5012 0.42056 0.11281 0.0
H181 H 0.46913 0.31747 0.92694 0.0
H182 H 0.54598 0.33819 0.92593 0.0
H183 H 0.54695 0.31758 0.96319 0.0
H184 H 0.74112 0.39391 0.96279 0.0
H185 H 0.75543 0.34313 0.04975 0.0
H186 H 0.56282 0.41299 0.98473 0.0
H187 H 0.55459 0.38541 0.93708 0.0
H188 H 0.62957 0.4074 0.93955 0.0
H189 H 0.58116 0.35078 0.09267 0.0
H190 H 0.65187 0.32671 0.07789 0.0
H191 H 0.57074 0.32424 0.0435 0.0
C192 C 0.28856 0.6387 0.98139 0.0
C193 C 0.24807 0.65502 0.01644 0.0
C194 C 0.36505 0.6394 0.98158 0.0
C195 C 0.40186 0.6566 0.01805 0.0
C196 C 0.36115 0.67312 0.05363 0.0
C197 C 0.2845 0.67224 0.05224 0.0
C198 C 0.40648 0.62165 0.94279 0.0
C199 C 0.39854 0.69149 0.09332 0.0
C200 C 0.59648 0.63777 0.0368 0.0
C201 C 0.63651 0.6534 0.01547 0.0
C202 C 0.52009 0.63924 0.0392 0.0
C203 C 0.483 0.65661 0.01938 0.0
C204 C 0.52342 0.6729 0.99872 0.0
C205 C 0.59992 0.67116 0.99718 0.0
C206 C 0.47902 0.62179 0.06202 0.0
C207 C 0.48585 0.69158 0.97704 0.0
H208 H 0.26038 0.62548 0.95353 0.0
H209 H 0.25311 0.68488 0.07935 0.0
H210 H 0.44342 0.63298 0.92665 0.0
H211 H 0.44104 0.60834 0.95597 0.0
H212 H 0.3696 0.61006 0.91625 0.0
H213 H 0.359 0.70331 0.11788 0.0
H214 H 0.43305 0.68057 0.1116 0.0
H215 H 0.43517 0.70453 0.08087 0.0
H216 H 0.62486 0.62415 0.05124 0.0
H217 H 0.631 0.68336 0.98089 0.0
H218 H 0.44519 0.60809 0.0365 0.0
H219 H 0.44142 0.63323 0.08832 0.0
H220 H 0.51616 0.61062 0.07836 0.0
H221 H 0.45272 0.68081 0.94768 0.0
H222 H 0.52526 0.70393 0.96481 0.0
H223 H 0.44795 0.70411 0.0017 0.0
C224 C 0.71862 0.66027 0.54031 0.0
C225 C 0.76092 0.67318 0.51506 0.0
C226 C 0.64221 0.66094 0.53877 0.0
C227 C 0.60747 0.67483 0.51121 0.0
C228 C 0.65002 0.68829 0.48624 0.0
C229 C 0.72648 0.6873 0.48847 0.0
C230 C 0.59868 0.64637 0.56595 0.0
C231 C 0.61483 0.70325 0.45644 0.0
C232 C 0.41731 0.65161 0.47234 0.0
C233 C 0.37378 0.66896 0.50402 0.0
C234 C 0.49351 0.65386 0.47335 0.0
C235 C 0.52672 0.674 0.50683 0.0
C236 C 0.48273 0.69222 0.53777 0.0
C237 C 0.40651 0.68946 0.53601 0.0
C238 C 0.53854 0.63413 0.43964 0.0
C239 C 0.51621 0.71409 0.57362 0.0
H240 H 0.74529 0.64941 0.561 0.0
H241 H 0.75929 0.69734 0.469 0.0
H242 H 0.55939 0.65946 0.5886 0.0
H243 H 0.56651 0.631 0.54254 0.0
H244 H 0.63398 0.63742 0.58714 0.0
H245 H 0.65548 0.71389 0.44136 0.0
H246 H 0.58456 0.68991 0.42837 0.0
H247 H 0.57464 0.71716 0.47641 0.0
H248 H 0.3919 0.63584 0.44741 0.0
H249 H 0.37264 0.70305 0.56021 0.0
H250 H 0.5713 0.62277 0.45801 0.0
H251 H 0.57735 0.64379 0.42157 0.0
H252 H 0.50421 0.62068 0.41396 0.0
H253 H 0.54874 0.70631 0.59765 0.0
H254 H 0.47434 0.72743 0.59334 0.0
H255 H 0.55403 0.72517 0.55756 0.0
C256 C 0.5946 0.40654 0.49102 0.0
C257 C 0.63371 0.39158 0.51409 0.0
C258 C 0.51835 0.40482 0.48752 0.0
C259 C 0.4804 0.38796 0.50811 0.0
C260 C 0.51991 0.37245 0.53077 0.0
C261 C 0.59632 0.37434 0.53326 0.0
C262 C 0.47831 0.42139 0.46248 0.0
C263 C 0.48141 0.35439 0.55347 0.0
C264 C 0.28402 0.40578 0.54204 0.0
C265 C 0.24533 0.38847 0.50752 0.0
C266 C 0.36051 0.40548 0.54299 0.0
C267 C 0.39921 0.38772 0.50809 0.0
C268 C 0.36033 0.37028 0.47291 0.0
C269 C 0.2836 0.37072 0.47326 0.0
C270 C 0.39989 0.42416 0.58141 0.0
C271 C 0.39978 0.35136 0.43476 0.0
H272 H 0.62362 0.41972 0.47584 0.0
H273 H 0.6267 0.36265 0.55088 0.0
H274 H 0.44216 0.40934 0.43611 0.0
H275 H 0.44308 0.4354 0.48664 0.0
H276 H 0.51618 0.43218 0.4458 0.0
H277 H 0.52029 0.34264 0.56746 0.0
H278 H 0.4467 0.36563 0.58171 0.0
H279 H 0.4449 0.34128 0.52886 0.0
H280 H 0.25441 0.4194 0.56875 0.0
H281 H 0.25359 0.35734 0.44655 0.0
H282 H 0.4349 0.43709 0.56758 0.0
H283 H 0.43618 0.41354 0.59924 0.0
H284 H 0.36164 0.43614 0.6067 0.0
H285 H 0.43529 0.36185 0.4162 0.0
H286 H 0.36154 0.33905 0.41007 0.0
H287 H 0.43569 0.33881 0.44886 0.0
C288 C 0.91227 0.86355 0.00332 0.0
C289 C 0.8771 0.88524 0.9964 0.0
C290 C 0.98848 0.86176 0.00234 0.0
C291 C 0.03006 0.88205 0.99363 0.0
C292 C 0.99464 0.90381 0.98579 0.0
C293 C 0.91825 0.90523 0.98759 0.0
C294 C 0.02443 0.83838 0.01132 0.0
C295 C 0.03742 0.92561 0.97575 0.0
C296 C 0.2259 0.88966 0.03426 0.0
C297 C 0.26368 0.87751 0.99436 0.0
C298 C 0.14959 0.89121 0.03453 0.0
C299 C 0.11074 0.8807 0.99369 0.0
C300 C 0.14885 0.86864 0.95315 0.0
C301 C 0.22513 0.867 0.95408 0.0
C302 C 0.11055 0.90386 0.07854 0.0
C303 C 0.10908 0.85756 0.90888 0.0
H304 H 0.88021 0.84809 0.01013 0.0
H305 H 0.89075 0.92194 0.98205 0.0
H306 H 0.05997 0.82882 0.98221 0.0
H307 H 0.05976 0.84432 0.04188 0.0
H308 H 0.98401 0.82416 0.01689 0.0
H309 H 1.00142 0.94069 0.96876 0.0
H310 H 0.07298 0.93459 0.00511 0.0
H311 H 0.07353 0.91814 0.94584 0.0
H312 H 0.25596 0.89772 0.06543 0.0
H313 H 0.25466 0.85771 0.92318 0.0
H314 H 0.07221 0.89001 0.08742 0.0
H315 H 0.07769 0.92036 0.07439 0.0
H316 H 0.14893 0.91088 0.10737 0.0
H317 H 0.07134 0.84216 0.91258 0.0
H318 H 0.14705 0.84941 0.88016 0.0
H319 H 0.07547 0.87268 0.90013 0.0
C320 C 0.10014 0.1748 0.98195 0.0
C321 C 0.13659 0.16201 0.00989 0.0
C322 C 0.02358 0.17648 0.98265 0.0
C323 C 0.98325 0.16492 0.01173 0.0
C324 C 0.02033 0.15292 0.04128 0.0
C325 C 0.09659 0.15169 0.04008 0.0
C326 C 0.98587 0.18975 0.95113 0.0
C327 C 0.97939 0.14041 0.07285 0.0
C328 C 0.78306 0.17976 0.03881 0.0
C329 C 0.74948 0.15843 0.00931 0.0
C330 C 0.85922 0.18261 0.03903 0.0
C331 C 0.90239 0.16358 0.00924 0.0
C332 C 0.86847 0.14214 0.97908 0.0
C333 C 0.79229 0.13985 0.97944 0.0
C334 C 0.89356 0.20575 0.07153 0.0
C335 C 0.91273 0.12135 0.94703 0.0
H336 H 0.13129 0.18298 0.9589 0.0
H337 H 0.12486 0.14193 0.06194 0.0
H338 H 0.95664 0.17529 0.92417 0.0
H339 H 0.94456 0.20358 0.97007 0.0
H340 H 0.02496 0.20021 0.93457 0.0
H341 H 0.01652 0.13327 0.09562 0.0
H342 H 0.94037 0.15423 0.09422 0.0
H343 H 0.94716 0.12393 0.05251 0.0
H344 H 0.7498 0.19424 0.06167 0.0
H345 H 0.76624 0.12342 0.95644 0.0
H346 H 0.93001 0.21578 0.0527 0.0
H347 H 0.92774 0.19948 0.09665 0.0
H348 H 0.85212 0.21963 0.09031 0.0
H349 H 0.94843 0.12989 0.92545 0.0
H350 H 0.87779 0.10648 0.92448 0.0
H351 H 0.94871 0.11183 0.96692 0.0
C352 C 0.22493 0.18729 0.48406 0.0
C353 C 0.25937 0.17234 0.50919 0.0
C354 C 0.14847 0.18832 0.48187 0.0
C355 C 0.10591 0.17407 0.50542 0.0
C356 C 0.14064 0.15935 0.53155 0.0
C357 C 0.21706 0.15864 0.53306 0.0
C358 C 0.1133 0.20416 0.45358 0.0
C359 C 0.0971 0.14393 0.55722 0.0
C360 C 0.90484 0.18825 0.5307 0.0
C361 C 0.87221 0.16831 0.49751 0.0
C362 C 0.98107 0.19097 0.53283 0.0
C363 C 0.02517 0.17331 0.50095 0.0
C364 C 0.99206 0.15377 0.46629 0.0
C365 C 0.91586 0.15152 0.465 0.0
C366 C 0.01445 0.21218 0.56999 0.0
C367 C 0.0372 0.13466 0.43154 0.0
H368 H 0.25774 0.19794 0.46565 0.0
H369 H 0.24372 0.14714 0.55264 0.0
H370 H 0.08313 0.19137 0.42479 0.0
H371 H 0.07304 0.21772 0.47435 0.0
H372 H 0.15396 0.21532 0.43956 0.0
H373 H 0.13238 0.13439 0.57752 0.0
H374 H 0.05768 0.15658 0.58053 0.0
H375 H 0.06506 0.12894 0.53288 0.0
H376 H 0.8709 0.2014 0.55558 0.0
H377 H 0.89054 0.13618 0.43915 0.0
H378 H 0.05112 0.22409 0.55493 0.0
H379 H 0.04819 0.20374 0.5926 0.0
H380 H 0.9725 0.22487 0.59105 0.0
H381 H 0.07609 0.14487 0.4145 0.0
H382 H 1.00296 0.12169 0.4051 0.0
H383 H 0.0699 0.12273 0.44885 0.0
C384 C 0.78991 0.90361 0.53258 0.0
C385 C 0.74924 0.88543 0.50062 0.0
C386 C 0.86646 0.90313 0.53154 0.0
C387 C 0.90301 0.88424 0.49726 0.0
C388 C 0.86205 0.86591 0.46473 0.0
C389 C 0.78548 0.86661 0.46702 0.0
C390 C 0.90823 0.9228 0.56717 0.0
C391 C 0.89909 0.84573 0.42733 0.0
C392 C 0.0975 0.9005 0.472 0.0
C393 C 0.13776 0.88652 0.49634 0.0
C394 C 0.02099 0.89933 0.47093 0.0
C395 C 0.98412 0.88403 0.4952 0.0
C396 C 0.02479 0.86942 0.51902 0.0
C397 C 0.1013 0.87075 0.5191 0.0
C398 C 0.97959 0.91487 0.44457 0.0
C399 C 0.98751 0.85298 0.54549 0.0
H400 H 0.76184 0.91809 0.55872 0.0
H401 H 0.75394 0.85258 0.44223 0.0
H402 H 0.94555 0.91298 0.58581 0.0
H403 H 0.94243 0.93468 0.55055 0.0
H404 H 0.87159 0.93575 0.59221 0.0
H405 H 0.85934 0.83287 0.40471 0.0
H406 H 0.93338 0.85512 0.40632 0.0
H407 H 0.93588 0.83382 0.44229 0.0
H408 H 0.12578 0.91258 0.45416 0.0
H409 H 0.13254 0.85984 0.53778 0.0
H410 H 0.94625 0.92977 0.46833 0.0
H411 H 0.94149 0.90229 0.42026 0.0
H412 H 0.01649 0.92453 0.42529 0.0
H413 H 0.95475 0.86537 0.57357 0.0
H414 H 0.02707 0.84184 0.56031 0.0
H415 H 0.94931 0.83935 0.52315 0.0
C416 C 0.92675 0.55406 0.94722 0.0
C417 C 0.95665 0.57544 0.97889 0.0
C418 C 0.93887 0.52888 0.9507 0.0
C419 C 0.98193 0.52487 0.98682 0.0
C420 C 0.01285 0.54642 0.01867 0.0
C421 C 1.00024 0.57138 0.01415 0.0
C422 C 0.90635 0.50658 0.91528 0.0
C423 C 0.05907 0.54312 0.05773 0.0
C424 C 0.97691 0.46166 0.02191 0.0
C425 C 0.04276 0.4504 0.00335 0.0
C426 C 0.95474 0.4856 0.01562 0.0
C427 C 0.99908 0.49818 0.98972 0.0
C428 C 0.06302 0.48584 0.96855 0.0
C429 C 0.08431 0.46236 0.97607 0.0
C430 C 0.88585 0.49804 0.03843 0.0
C431 C 0.11111 0.49801 0.93972 0.0
H432 H 0.89298 0.55706 0.91987 0.0
H433 H 0.02312 0.58778 0.03893 0.0
H434 H 0.9504 0.49624 0.89265 0.0
H435 H 0.8804 0.49267 0.93154 0.0
H436 H 0.86513 0.51297 0.89389 0.0
H437 H 0.07651 0.56183 0.08066 0.0
H438 H 0.02816 0.53235 0.07806 0.0
H439 H 0.10849 0.53169 0.04431 0.0
H440 H 0.94512 0.45256 0.04337 0.0
H441 H 0.13514 0.45356 0.9614 0.0
H442 H 0.85038 0.50382 0.01335 0.0
H443 H 0.89991 0.51576 0.0652 0.0
H444 H 0.85456 0.48505 0.05437 0.0
H445 H 0.07825 0.50357 0.91327 0.0
H446 H 0.15558 0.48495 0.92261 0.0
H447 H 0.13605 0.51581 0.96141 0.0
C448 C 0.99933 0.47066 0.50778 0.0
C449 C 0.95853 0.46696 0.54454 0.0
C450 C 0.01249 0.49554 0.50302 0.0
C451 C 0.98475 0.5173 0.53598 0.0
C452 C 0.94433 0.51365 0.57346 0.0
C453 C 0.9317 0.48857 0.57724 0.0
C454 C 0.05619 0.49853 0.46265 0.0
C455 C 0.91476 0.53624 0.60974 0.0
C456 C 0.09051 0.57901 0.5466 0.0
C457 C 0.04845 0.59176 0.52087 0.0
C458 C 0.06881 0.55538 0.5532 0.0
C459 C 1.00337 0.54386 0.53317 0.0
C460 C 0.95847 0.55725 0.50899 0.0
C461 C 0.98144 0.58124 0.50327 0.0
C462 C 0.11793 0.54221 0.57989 0.0
C463 C 0.88801 0.54568 0.48744 0.0
H464 H 0.01955 0.45407 0.48212 0.0
H465 H 0.89987 0.48584 0.60566 0.0
H466 H 0.02475 0.5099 0.44366 0.0
H467 H 0.10722 0.50924 0.47462 0.0
H468 H 0.07077 0.47971 0.43886 0.0
H469 H 0.88065 0.53014 0.63522 0.0
H470 H 0.9606 0.54807 0.62781 0.0
H471 H 0.88151 0.54876 0.59395 0.0
H472 H 0.14214 0.58726 0.56065 0.0
H473 H 0.94915 0.59099 0.48313 0.0
H474 H 0.1402 0.52426 0.55693 0.0
H475 H 0.0865 0.53674 0.60705 0.0
H476 H 0.16436 0.55456 0.59588 0.0
H477 H 0.90005 0.52822 0.45954 0.0
H478 H 0.85641 0.55932 0.47319 0.0
H479 H 0.85363 0.53964 0.5128 0.0
C480 C 0.52465 0.97457 0.0588 0.0
C481 C 0.53601 0.95331 0.02136 0.0
C482 C 0.51031 0.99913 0.05269 0.0
C483 C 0.50942 1.00265 0.00809 0.0
C484 C 0.52226 0.98122 0.97026 0.0
C485 C 0.53497 0.95688 0.97738 0.0
C486 C 0.49515 1.02126 0.09391 0.0
C487 C 0.52289 0.98399 0.92216 0.0
C488 C 0.39354 0.05642 0.98598 0.0
C489 C 0.44458 0.07605 0.98737 0.0
C490 C 0.41408 0.03276 0.99299 0.0
C491 C 0.48824 0.02806 1.00063 0.0
C492 C 0.54081 0.0475 1.0009 0.0
C493 C 0.51824 0.07146 0.99474 0.0
C494 C 0.35579 1.01294 0.99312 0.0
C495 C 0.62066 0.04304 0.00798 0.0
H496 H 0.52717 0.97197 0.09288 0.0
H497 H 0.54709 0.94077 0.94851 0.0
H498 H 0.534 0.03718 0.09508 0.0
H499 H 0.43943 0.02887 0.09152 0.0
H500 H 0.49942 1.01554 0.12628 0.0
H501 H 0.53975 0.96596 0.89686 0.0
H502 H 0.46763 0.98932 0.91295 0.0
H503 H 0.56059 0.99964 0.91963 0.0
H504 H 0.33634 0.05973 0.98046 0.0
H505 H 0.55783 0.08658 0.99613 0.0
H506 H 0.35641 1.0078 0.02608 0.0
H507 H 0.36692 0.9951 0.9659 0.0
H508 H 0.30023 1.01986 0.98779 0.0
H509 H 0.629 0.04012 0.04234 0.0
H510 H 0.65511 0.0594 0.00473 0.0
H511 H 0.63944 0.02529 0.98278 0.0
C512 C 0.48216 0.07889 0.48996 0.0
C513 C 0.54603 0.09045 0.51088 0.0
C514 C 0.46018 0.05461 0.49471 0.0
C515 C 0.50286 0.04198 0.52125 0.0
C516 C 0.56477 0.05454 0.54458 0.0
C517 C 0.58567 0.07846 0.53886 0.0
C518 C 0.39342 0.04194 0.46963 0.0
C519 C 0.61121 0.0422 0.57392 0.0
C520 C 0.42681 0.98597 0.56137 0.0
C521 C 0.45785 0.96463 0.53003 0.0
C522 C 0.43998 1.01117 0.55852 0.0
C523 C 0.48535 1.01524 0.52341 0.0
C524 C 0.51779 0.99376 0.49203 0.0
C525 C 0.50385 0.96872 0.4958 0.0
C526 C 0.40538 0.03345 0.59316 0.0
C527 C 0.56697 0.99725 0.45428 0.0
H528 H 0.45196 0.08804 0.46797 0.0
H529 H 0.63498 0.08751 0.55529 0.0
H530 H 0.40997 0.02455 0.44276 0.0
H531 H 0.35623 0.03555 0.49327 0.0
H532 H 0.36302 0.05498 0.45341 0.0
H533 H 0.65445 0.05533 0.59234 0.0
H534 H 0.57685 0.0362 0.59931 0.0
H535 H 0.63767 0.02465 0.55232 0.0
H536 H 0.39115 0.98293 0.58793 0.0
H537 H 0.52749 0.95232 0.47126 0.0
H538 H 0.37348 0.04549 0.57569 0.0
H539 H 0.44847 0.04587 0.61324 0.0
H540 H 0.36872 0.027 0.61707 0.0
H541 H 0.5377 1.00797 0.43323 0.0
H542 H 0.58603 0.97861 0.43179 0.0
H543 H 0.61536 1.00882 0.46904 0.0
C544 C 0.12505 0.28973 0.95719 0.0
C545 C 0.13077 0.31369 0.98935 0.0
C546 C 0.17577 0.26986 0.95645 0.0
C547 C 0.2339 0.2741 0.98839 0.0
C548 C 0.24019 0.29842 0.02045 0.0
C549 C 0.18832 0.31769 0.02083 0.0
C550 C 0.1667 0.24422 0.92185 0.0
C551 C 0.30128 0.30405 0.05491 0.0
C552 C 0.32433 0.21796 0.02179 0.0
C553 C 0.39005 0.21498 0.9972 0.0
C554 C 0.27226 0.23648 0.01807 0.0
C555 C 0.28664 0.25298 0.98977 0.0
C556 C 0.35316 0.25012 0.96491 0.0
C557 C 0.40388 0.23109 0.96876 0.0
C558 C 0.20218 0.23861 0.04502 0.0
C559 C 0.37107 0.26735 0.93459 0.0
H560 H 0.08058 0.28644 0.93291 0.0
H561 H 0.1927 0.336 0.04624 0.0
H562 H 0.21731 0.23918 0.90132 0.0
H563 H 0.15758 0.22896 0.93954 0.0
H564 H 0.12017 0.24416 0.89849 0.0
H565 H 0.30005 0.32421 0.07644 0.0
H566 H 0.2974 0.29093 0.0774 0.0
H567 H 0.35487 0.30053 0.0373 0.0
H568 H 0.31354 0.20575 0.04418 0.0
H569 H 0.45453 0.22891 0.94965 0.0
H570 H 0.15453 0.23695 0.02199 0.0
H571 H 0.19904 0.25776 0.07001 0.0
H572 H 0.19766 0.22354 0.06367 0.0
H573 H 0.32781 0.26581 0.90855 0.0
H574 H 0.42443 0.26248 0.917 0.0
H575 H 0.37259 0.28769 0.95508 0.0
C576 C 0.62025 0.78772 0.96315 0.0
C577 C 0.63028 0.813 0.98983 0.0
C578 C 0.6708 0.76816 0.96438 0.0
C579 C 0.73235 0.7739 0.99358 0.0
C580 C 0.7418 0.79938 0.02114 0.0
C581 C 0.6906 0.81851 0.01903 0.0
C582 C 0.65857 0.74136 0.93426 0.0
C583 C 0.80541 0.80638 0.05351 0.0
C584 C 0.82535 0.71936 0.03078 0.0
C585 C 0.88809 0.71479 0.00329 0.0
C586 C 0.77411 0.73828 0.02767 0.0
C587 C 0.78574 0.75321 0.99634 0.0
C588 C 0.84915 0.74866 0.96844 0.0
C589 C 0.89961 0.72957 0.97233 0.0
C590 C 0.70762 0.74236 0.05815 0.0
C591 C 0.86367 0.76397 0.93444 0.0
H592 H 0.57326 0.78332 0.94085 0.0
H593 H 0.69666 0.83767 0.04135 0.0
H594 H 0.70585 0.73543 0.91098 0.0
H595 H 0.65456 0.72748 0.95529 0.0
H596 H 0.60816 0.73996 0.91352 0.0
H597 H 0.80604 0.82716 0.07177 0.0
H598 H 0.80295 0.79505 0.07903 0.0
H599 H 0.85758 0.80149 0.03463 0.0
H600 H 0.81632 0.70812 0.055 0.0
H601 H 0.94784 0.72609 0.95088 0.0
H602 H 0.65731 0.73907 0.03719 0.0
H603 H 0.70597 0.76253 0.07949 0.0
H604 H 0.70678 0.7293 0.08088 0.0
H605 H 0.81664 0.76232 0.91092 0.0
H606 H 0.91377 0.75746 0.914 0.0
H607 H 0.8698 0.78463 0.95248 0.0
C608 C 0.19259 0.72433 0.50407 0.0
C609 C 0.13211 0.72884 0.53354 0.0
C610 C 0.24414 0.74363 0.50434 0.0
C611 C 0.23417 0.76857 0.53381 0.0
C612 C 0.17301 0.77336 0.56366 0.0
C613 C 0.12294 0.75338 0.56339 0.0
C614 C 0.30873 0.73738 0.47236 0.0
C615 C 0.15979 0.79972 0.59522 0.0
C616 C 0.40007 0.81335 0.55296 0.0
C617 C 0.38819 0.82734 0.52082 0.0
C618 C 0.34984 0.79451 0.55829 0.0
C619 C 0.28575 0.78976 0.53122 0.0
C620 C 0.27319 0.80421 0.49928 0.0
C621 C 0.3249 0.82249 0.49408 0.0
C622 C 0.36586 0.77941 0.5924 0.0
C623 C 0.20557 0.80009 0.46995 0.0
H624 H 0.1995 0.70559 0.48024 0.0
H625 H 0.07612 0.75708 0.58603 0.0
H626 H 0.30605 0.74898 0.44727 0.0
H627 H 0.36033 0.74243 0.49166 0.0
H628 H 0.31083 0.71669 0.45352 0.0
H629 H 0.11138 0.80017 0.61745 0.0
H630 H 0.20833 0.80608 0.61702 0.0
H631 H 0.15136 0.81383 0.57498 0.0
H632 H 0.44883 0.81702 0.57379 0.0
H633 H 0.3158 0.83297 0.46874 0.0
H634 H 0.37065 0.75866 0.57464 0.0
H635 H 0.32012 0.7815 0.61705 0.0
H636 H 0.4171 0.78574 0.61154 0.0
H637 H 0.20588 0.78034 0.44687 0.0
H638 H 0.20152 0.81404 0.44898 0.0
H639 H 0.15599 0.80195 0.49159 0.0
C640 C 0.89984 0.31224 0.55373 0.0
C641 C 0.88472 0.32832 0.52545 0.0
C642 C 0.85033 0.29287 0.55758 0.0
C643 C 0.78391 0.28959 0.53277 0.0
C644 C 0.76826 0.30606 0.50463 0.0
C645 C 0.81901 0.32497 0.50102 0.0
C646 C 0.86943 0.27572 0.5878 0.0
C647 C 0.69834 0.30342 0.47759 0.0
C648 C 0.68963 0.22433 0.49995 0.0
C649 C 0.63093 0.22786 0.53072 0.0
C650 C 0.74081 0.2439 0.5013 0.0
C651 C 0.73275 0.26802 0.53374 0.0
C652 C 0.67378 0.27172 0.5652 0.0
C653 C 0.62361 0.25158 0.56338 0.0
C654 C 0.80278 0.23886 0.46726 0.0
C655 C 0.66302 0.29712 0.60025 0.0
H656 H 0.95049 0.31475 0.57274 0.0
H657 H 0.80737 0.33708 0.4786 0.0
H658 H 0.82588 0.27676 0.61361 0.0
H659 H 0.87276 0.25542 0.56717 0.0
H660 H 0.92225 0.28106 0.60565 0.0
H661 H 0.69264 0.31855 0.45917 0.0
H662 H 0.69673 0.28432 0.45237 0.0
H663 H 0.65057 0.30456 0.5005 0.0
H664 H 0.69531 0.20619 0.47421 0.0
H665 H 0.5783 0.25448 0.58715 0.0
H666 H 0.85587 0.24284 0.4852 0.0
H667 H 0.79821 0.25197 0.4448 0.0
H668 H 0.80328 0.21871 0.44566 0.0
H669 H 0.71367 0.30266 0.62039 0.0
H670 H 0.61726 0.29652 0.62394 0.0
H671 H 0.65156 0.31239 0.58294 0.0
C672 C 0.0779 0.39974 0.18619 0.0
C673 C 0.0241 0.39417 0.15234 0.0
C674 C 0.06067 0.40055 0.23168 0.0
C675 C 0.98842 0.39512 0.2432 0.0
C676 C 0.93391 0.38981 0.20926 0.0
C677 C 0.9522 0.38963 0.16451 0.0
C678 C 0.11995 0.40678 0.26726 0.0
C679 C 0.85664 0.38339 0.2198 0.0
C680 C 0.96457 0.3688 0.34631 0.0
C681 C 0.93775 0.39029 0.37888 0.0
C682 C 0.97986 0.36999 0.30175 0.0
C683 C 0.97031 0.39353 0.29009 0.0
C684 C 0.94243 0.41526 0.32296 0.0
C685 C 0.92586 0.4133 0.36702 0.0
C686 C 0.0077 0.34622 0.26745 0.0
C687 C 0.93275 0.44078 0.31209 0.0
H688 H 0.1334 0.40334 0.17714 0.0
H689 H 0.91006 0.38506 0.13868 0.0
H690 H 0.10196 0.42258 0.29672 0.0
H691 H 0.13087 0.38975 0.28019 0.0
H692 H 0.17169 0.41254 0.25364 0.0
H693 H 0.82011 0.38046 0.18977 0.0
H694 H 0.85652 0.36558 0.23151 0.0
H695 H 0.8337 0.39899 0.24784 0.0
H696 H 0.97512 0.35121 0.35609 0.0
H697 H 0.90726 0.43009 0.39289 0.0
H698 H 0.06374 0.34964 0.25654 0.0
H699 H 0.97276 0.34178 0.23661 0.0
H700 H 0.00881 0.32917 0.2814 0.0
H701 H 0.98616 0.44754 0.30249 0.0
H702 H 0.91001 0.45575 0.34134 0.0
H703 H 0.89584 0.43862 0.28248 0.0
C704 C 0.91487 0.66404 0.1805 0.0
C705 C 0.94803 0.64639 0.14382 0.0
C706 C 0.93013 0.66353 0.22558 0.0
C707 C 0.97829 0.64458 0.23365 0.0
C708 C 0.00843 0.62588 0.19637 0.0
C709 C 0.99363 0.62723 0.15197 0.0
C710 C 0.8975 0.68393 0.26452 0.0
C711 C 0.05834 0.60495 0.20331 0.0
C712 C 0.08211 0.65828 0.34571 0.0
C713 C 0.03856 0.64579 0.37108 0.0
C714 C 0.06289 0.65814 0.30095 0.0
C715 C 0.99946 0.64477 0.28094 0.0
C716 C 0.95703 0.63129 0.30585 0.0
C717 C 0.97671 0.63216 0.35074 0.0
C718 C 0.10927 0.6729 0.27553 0.0
C719 C 0.89023 0.61624 0.28533 0.0
H720 H 0.88031 0.679 0.17403 0.0
H721 H 0.01908 0.61353 0.1234 0.0
H722 H 0.86834 0.67489 0.28825 0.0
H723 H 0.94175 0.69596 0.28415 0.0
H724 H 0.85884 0.69661 0.2526 0.0
H725 H 0.07189 0.5906 0.17074 0.0
H726 H 0.1099 0.61356 0.21943 0.0
H727 H 0.03262 0.5948 0.22664 0.0
H728 H 0.12936 0.66912 0.36151 0.0
H729 H 0.94298 0.6224 0.37022 0.0
H730 H 0.07562 0.68775 0.26593 0.0
H731 H 0.1302 0.65976 0.24351 0.0
H732 H 0.15643 0.68248 0.29603 0.0
H733 H 0.84908 0.62939 0.27706 0.0
H734 H 0.86482 0.60596 0.30862 0.0
H735 H 0.90486 0.60196 0.25297 0.0
C736 C 0.0273 0.63044 0.84416 0.0
C737 C 0.96527 0.64314 0.86668 0.0
C738 C 0.04947 0.63333 0.80176 0.0
C739 C 0.00817 0.64906 0.7807 0.0
C740 C 0.94405 0.66132 0.80239 0.0
C741 C 0.92335 0.65826 0.84528 0.0
C742 C 0.11791 0.61983 0.77985 0.0
C743 C 0.89797 0.67793 0.78054 0.0
C744 C 0.09617 0.67409 0.68685 0.0
C745 C 0.06789 0.65685 0.64792 0.0
C746 C 0.078 0.67164 0.73058 0.0
C747 C 0.03053 0.6516 0.73497 0.0
C748 C 0.00485 0.63355 0.69544 0.0
C749 C 0.02401 0.63639 0.65256 0.0
C750 C 0.10744 0.69097 0.77205 0.0
C751 C 0.95493 0.61173 0.6983 0.0
H752 H 0.05999 0.61857 0.86024 0.0
H753 H 0.87593 0.66835 0.86265 0.0
H754 H 0.10478 0.60654 0.74623 0.0
H755 H 0.1575 0.63412 0.77375 0.0
H756 H 0.14464 0.60863 0.80116 0.0
H757 H 0.84975 0.68608 0.80166 0.0
H758 H 0.93128 0.69399 0.77493 0.0
H759 H 0.87875 0.6665 0.74666 0.0
H760 H 0.12916 0.6901 0.6832 0.0
H761 H 1.00208 0.62306 0.62227 0.0
H762 H 0.13555 0.68093 0.79466 0.0
H763 H 0.06166 0.70208 0.79183 0.0
H764 H 0.14629 0.70462 0.76295 0.0
H765 H 0.98135 0.59966 0.71808 0.0
H766 H 0.94031 0.59926 0.66415 0.0
H767 H 0.90394 0.61956 0.7165 0.0
C768 C 0.92216 0.38755 0.68307 0.0
C769 C 0.96879 0.39962 0.65862 0.0
C770 C 0.94299 0.3845 0.7259 0.0
C771 C 0.01216 0.39355 0.74433 0.0
C772 C 0.05861 0.40615 0.72014 0.0
C773 C 0.03618 0.40921 0.67797 0.0
C774 C 0.89147 0.37135 0.75121 0.0
C775 C 0.13268 0.41609 0.73846 0.0
C776 C 0.03769 0.40767 0.87206 0.0
C777 C 0.07316 0.38545 0.87647 0.0
C778 C 0.01868 0.4107 0.82931 0.0
C779 C 0.03517 0.39087 0.78977 0.0
C780 C 0.07396 0.36877 0.79383 0.0
C781 C 0.09244 0.36627 0.83739 0.0
C782 C 0.9781 0.43467 0.82675 0.0
C783 C 0.0932 0.34737 0.75233 0.0
H784 H 0.87041 0.37991 0.66829 0.0
H785 H 0.07275 0.41872 0.65963 0.0
H786 H 0.91786 0.35394 0.75686 0.0
H787 H 0.87876 0.38434 0.78524 0.0
H788 H 0.83953 0.36561 0.73252 0.0
H789 H 0.16295 0.425 0.71491 0.0
H790 H 0.12649 0.43061 0.77175 0.0
H791 H 0.16607 0.40013 0.7444 0.0
H792 H 0.02137 0.42221 0.90249 0.0
H793 H 0.11809 0.3488 0.84099 0.0
H794 H 0.92347 0.4294 0.81145 0.0
H795 H 0.0079 0.44452 0.80448 0.0
H796 H 0.97083 0.44844 0.8608 0.0
H797 H 0.0425 0.33852 0.73527 0.0
H798 H 0.12657 0.33214 0.76102 0.0
H799 H 0.12382 0.35514 0.72745 0.0
C800 C 0.49826 0.86532 0.1465 0.0
C801 C 0.55279 0.88171 0.13806 0.0
C802 C 0.48013 0.86486 0.19091 0.0
C803 C 0.51665 0.88155 0.22798 0.0
C804 C 0.573 0.89783 0.21972 0.0
C805 C 0.59103 0.89753 0.17458 0.0
C806 C 0.42121 0.84673 0.1981 0.0
C807 C 0.61272 0.91599 0.25857 0.0
C808 C 0.4206 0.89681 0.34317 0.0
C809 C 0.45938 0.88118 0.36499 0.0
C810 C 0.43902 0.89732 0.29851 0.0
C811 C 0.49646 0.88146 0.27526 0.0
C812 C 0.5335 0.86488 0.29671 0.0
C813 C 0.51494 0.86514 0.34144 0.0
C814 C 0.39868 0.91536 0.27672 0.0
C815 C 0.5936 0.84717 0.27272 0.0
H816 H 0.46902 0.85294 0.11807 0.0
H817 H 0.6326 0.91038 0.16794 0.0
H818 H 0.44281 0.83411 0.2185 0.0
H819 H 0.3752 0.85785 0.21758 0.0
H820 H 0.39973 0.83444 0.16545 0.0
H821 H 0.65498 0.92741 0.24647 0.0
H822 H 0.57315 0.92941 0.28036 0.0
H823 H 0.63931 0.90506 0.28029 0.0
H824 H 0.37857 0.90953 0.36176 0.0
H825 H 0.545 0.85307 0.35849 0.0
H826 H 0.37304 0.90438 0.24443 0.0
H827 H 0.4377 0.92908 0.26806 0.0
H828 H 0.35558 0.92645 0.29935 0.0
H829 H 0.57306 0.83454 0.24016 0.0
H830 H 0.61536 0.83489 0.29376 0.0
H831 H 0.63918 0.85863 0.26423 0.0
C832 C 0.48736 0.12574 0.14419 0.0
C833 C 0.45045 0.14679 0.13591 0.0
C834 C 0.50203 0.12451 0.18872 0.0
C835 C 0.48108 0.14524 0.22586 0.0
C836 C 0.4421 0.16632 0.21767 0.0
C837 C 0.42639 0.16669 0.1726 0.0
C838 C 0.54163 0.10134 0.1959 0.0
C839 C 0.41959 0.18891 0.25638 0.0
C840 C 0.47034 0.13557 0.34476 0.0
C841 C 0.53673 0.14615 0.36398 0.0
C842 C 0.45208 0.13479 0.2997 0.0
C843 C 0.50109 0.14503 0.27316 0.0
C844 C 0.56912 0.1551 0.29187 0.0
C845 C 0.58635 0.15541 0.33703 0.0
C846 C 0.37971 0.12342 0.28079 0.0
C847 C 0.62278 0.16623 0.26458 0.0
H848 H 0.50581 0.11032 0.11558 0.0
H849 H 0.39875 0.18311 0.16599 0.0
H850 H 0.59616 0.10716 0.21087 0.0
H851 H 0.5111 0.09318 0.22032 0.0
H852 H 0.54905 0.08603 0.1636 0.0
H853 H 0.38832 0.2035 0.24439 0.0
H854 H 0.38565 0.18228 0.28126 0.0
H855 H 0.46882 0.19822 0.27473 0.0
H856 H 0.43181 0.12819 0.36523 0.0
H857 H 0.63744 0.16377 0.35172 0.0
H858 H 0.38837 0.10803 0.24883 0.0
H859 H 0.34547 0.13844 0.2722 0.0
H860 H 0.34912 0.11525 0.30522 0.0
H861 H 0.63749 0.15158 0.23269 0.0
H862 H 0.67359 0.17307 0.28385 0.0
H863 H 0.59729 0.18261 0.25467 0.0
C864 C 0.42073 0.15556 0.83702 0.0
C865 C 0.46221 0.14055 0.85886 0.0
C866 C 0.44138 0.15809 0.79377 0.0
C867 C 0.50502 0.1454 0.77214 0.0
C868 C 0.5454 0.12955 0.79344 0.0
C869 C 0.52328 0.1272 0.83621 0.0
C870 C 0.39619 0.17481 0.77166 0.0
C871 C 0.61324 0.11558 0.77161 0.0
C872 C 0.52197 0.13328 0.64407 0.0
C873 C 0.56656 0.15368 0.63989 0.0
C874 C 0.50245 0.13021 0.68676 0.0
C875 C 0.52838 0.14796 0.72657 0.0
C876 C 0.57666 0.16788 0.72262 0.0
C877 C 0.59523 0.17056 0.67908 0.0
C878 C 0.45166 0.10853 0.68914 0.0
C879 C 0.6064 0.1869 0.76437 0.0
H880 H 0.37408 0.16615 0.85446 0.0
H881 H 0.55555 0.1154 0.85267 0.0
H882 H 0.42995 0.1909 0.76659 0.0
H883 H 0.37772 0.1635 0.73752 0.0
H884 H 0.34754 0.18293 0.79237 0.0
H885 H 0.63841 0.1039 0.79265 0.0
H886 H 0.60005 0.10269 0.73765 0.0
H887 H 0.65418 0.12965 0.76627 0.0
H888 H 0.49966 0.12024 0.6136 0.0
H889 H 0.62874 0.18653 0.67582 0.0
H890 H 0.4005 0.11651 0.70694 0.0
H891 H 0.47708 0.09635 0.70908 0.0
H892 H 0.43748 0.09614 0.65484 0.0
H893 H 0.56086 0.1982 0.7841 0.0
H894 H 0.64608 0.20041 0.7556 0.0
H895 H 0.63363 0.1766 0.78689 0.0
C896 C 0.5085 0.91876 0.67364 0.0
C897 C 0.45652 0.90187 0.64812 0.0
C898 C 0.53182 0.91651 0.71617 0.0
C899 C 0.50261 0.8968 0.73358 0.0
C900 C 0.44831 0.88015 0.70863 0.0
C901 C 0.42559 0.88296 0.66612 0.0
C902 C 0.58868 0.93494 0.74207 0.0
C903 C 0.41554 0.85902 0.72638 0.0
C904 C 0.60355 0.8764 0.82791 0.0
C905 C 0.56197 0.88897 0.86586 0.0
C906 C 0.58557 0.87897 0.78429 0.0
C907 C 0.52558 0.89468 0.77922 0.0
C908 C 0.48629 0.9084 0.81799 0.0
C909 C 0.50459 0.90519 0.86058 0.0
C910 C 0.62879 0.86418 0.74349 0.0
C911 C 0.42311 0.92581 0.81444 0.0
H912 H 0.53269 0.93335 0.6596 0.0
H913 H 0.38659 0.86956 0.64599 0.0
H914 H 0.56717 0.94538 0.77605 0.0
H915 H 0.63763 0.92412 0.74784 0.0
H916 H 0.60569 0.94927 0.72375 0.0
H917 H 0.3752 0.84735 0.70239 0.0
H918 H 0.45931 0.84612 0.73249 0.0
H919 H 0.38806 0.86743 0.75952 0.0
H920 H 0.64732 0.86366 0.83196 0.0
H921 H 0.47214 0.91494 0.88992 0.0
H922 H 0.64954 0.87741 0.72399 0.0
H923 H 0.59279 0.85002 0.72035 0.0
H924 H 0.67573 0.85377 0.75332 0.0
H925 H 0.44019 0.94008 0.79609 0.0
H926 H 0.40135 0.93634 0.84837 0.0
H927 H 0.37831 0.91425 0.79455 0.0
loop_
_geom_bond_atom_site_label_1
_geom_bond_atom_site_label_2
_geom_bond_distance
_geom_bond_site_symmetry_2
_ccdc_geom_bond_type
Tb0 O3 2.453 1_655 S
Tb0 O4 2.596 1_656 S
Tb0 O5 2.374 1_656 S
Tb0 O13 2.343 1_656 S
Tb0 O15 2.353 1_655 S
Tb0 O17 2.427 . S
Tb0 O18 2.513 1_556 S
C1 O5 1.251 . S
C1 O7 1.263 . S
Tb2 O4 2.343 . S
Tb2 O7 2.353 . S
Tb2 O10 2.427 . S
Tb2 O11 2.513 1_554 S
Tb2 O12 2.453 . S
Tb2 O13 2.596 . S
Tb2 O14 2.374 1_554 S
O3 Tb0 2.453 1_455 S
O3 C19 1.245 . S
O4 Tb0 2.596 1_454 S
O4 Tb2 2.343 . S
O4 C19 1.259 1_554 S
O5 Tb0 2.374 1_454 S
O5 C1 1.251 . S
C6 O10 1.275 . S
C6 O11 1.246 1_554 S
O7 C1 1.263 . S
O7 Tb2 2.353 . S
C8 O12 1.245 . S
C8 O13 1.259 . S
C9 O14 1.250 . S
C9 O15 1.263 . S
O10 Tb2 2.427 . S
O10 C6 1.275 . S
O11 Tb2 2.513 1_556 S
O11 C6 1.246 1_556 S
O12 Tb2 2.453 . S
O12 C8 1.245 . S
O13 Tb0 2.343 1_454 S
O13 Tb2 2.596 . S
O13 C8 1.259 . S
O14 Tb2 2.374 1_556 S
O14 C9 1.250 . S
O15 Tb0 2.353 1_455 S
O15 C9 1.263 . S
C16 O17 1.261 1_554 S
C16 O18 1.262 . S
O17 Tb0 2.427 . S
O17 C16 1.261 1_556 S
O18 Tb0 2.513 1_554 S
O18 C16 1.262 . S
C19 O3 1.245 . S
C19 O4 1.259 1_556 S
Tb20 O23 2.453 1_554 S
Tb20 O24 2.596 . S
Tb20 O25 2.374 . S
Tb20 O33 2.343 . S
Tb20 O35 2.353 1_554 S
Tb20 O37 2.427 1_554 S
Tb20 O38 2.513 . S
C21 O25 1.251 . S
C21 O27 1.263 . S
Tb22 O24 2.343 1_455 S
Tb22 O27 2.353 1_455 S
Tb22 O30 2.427 . S
Tb22 O31 2.513 1_554 S
Tb22 O32 2.453 1_455 S
Tb22 O33 2.596 1_455 S
Tb22 O34 2.374 1_454 S
O23 Tb20 2.453 1_556 S
O23 C39 1.245 1_556 S
O24 Tb20 2.596 . S
O24 Tb22 2.343 1_655 S
O24 C39 1.259 . S
O25 Tb20 2.374 . S
O25 C21 1.251 . S
C26 O30 1.275 . S
C26 O31 1.246 1_554 S
O27 C21 1.263 . S
O27 Tb22 2.353 1_655 S
C28 O32 1.245 . S
C28 O33 1.259 . S
C29 O34 1.250 . S
C29 O35 1.263 . S
O30 Tb22 2.427 . S
O30 C26 1.275 . S
O31 Tb22 2.513 1_556 S
O31 C26 1.246 1_556 S
O32 Tb22 2.453 1_655 S
O32 C28 1.245 . S
O33 Tb20 2.343 . S
O33 Tb22 2.596 1_655 S
O33 C28 1.259 . S
O34 Tb22 2.374 1_656 S
O34 C29 1.250 . S
O35 Tb20 2.353 1_556 S
O35 C29 1.263 . S
C36 O37 1.275 1_554 S
C36 O38 1.246 . S
O37 Tb20 2.427 1_556 S
O37 C36 1.275 1_556 S
O38 Tb20 2.513 . S
O38 C36 1.246 . S
C39 O23 1.245 1_554 S
C39 O24 1.259 . S
Tb40 O43 2.453 1_655 S
Tb40 O44 2.596 1_655 S
Tb40 O45 2.374 1_655 S
Tb40 O53 2.343 1_655 S
Tb40 O55 2.353 1_655 S
Tb40 O57 2.427 . S
Tb40 O58 2.513 . S
C41 O45 1.251 . S
C41 O47 1.263 . S
Tb42 O44 2.343 . S
Tb42 O47 2.353 . S
Tb42 O50 2.427 . S
Tb42 O51 2.513 . S
Tb42 O52 2.453 . S
Tb42 O53 2.596 . S
Tb42 O54 2.374 . S
O43 Tb40 2.453 1_455 S
O43 C59 1.245 . S
O44 Tb40 2.596 1_455 S
O44 Tb42 2.343 . S
O44 C59 1.259 . S
O45 Tb40 2.374 1_455 S
O45 C41 1.251 . S
C46 O50 1.275 . S
C46 O51 1.246 . S
O47 C41 1.263 . S
O47 Tb42 2.353 . S
C48 O52 1.245 . S
C48 O53 1.259 . S
C49 O54 1.250 . S
C49 O55 1.263 . S
O50 Tb42 2.427 . S
O50 C46 1.275 . S
O51 Tb42 2.513 . S
O51 C46 1.246 . S
O52 Tb42 2.453 . S
O52 C48 1.245 . S
O53 Tb40 2.343 1_455 S
O53 Tb42 2.596 . S
O53 C48 1.259 . S
O54 Tb42 2.374 . S
O54 C49 1.250 . S
O55 Tb40 2.353 1_455 S
O55 C49 1.263 . S
C56 O57 1.275 . S
C56 O58 1.246 . S
O57 Tb40 2.427 . S
O57 C56 1.275 . S
O58 Tb40 2.513 . S
O58 C56 1.246 . S
C59 O43 1.245 . S
C59 O44 1.259 . S
Tb60 O63 2.453 . S
Tb60 O64 2.596 . S
Tb60 O65 2.374 . S
Tb60 O73 2.343 . S
Tb60 O75 2.353 . S
Tb60 O77 2.427 . S
Tb60 O78 2.513 . S
C61 O65 1.251 . S
C61 O67 1.263 . S
Tb62 O64 2.343 1_455 S
Tb62 O67 2.353 1_455 S
Tb62 O70 2.427 . S
Tb62 O71 2.513 . S
Tb62 O72 2.453 1_455 S
Tb62 O73 2.596 1_455 S
Tb62 O74 2.374 1_455 S
O63 Tb60 2.453 . S
O63 C79 1.245 . S
O64 Tb60 2.596 . S
O64 Tb62 2.343 1_655 S
O64 C79 1.259 . S
O65 Tb60 2.374 . S
O65 C61 1.251 . S
C66 O70 1.275 . S
C66 O71 1.246 . S
O67 C61 1.263 . S
O67 Tb62 2.353 1_655 S
C68 O72 1.245 . S
C68 O73 1.259 . S
C69 O74 1.250 . S
C69 O75 1.263 . S
O70 Tb62 2.427 . S
O70 C66 1.275 . S
O71 Tb62 2.513 . S
O71 C66 1.246 . S
O72 Tb62 2.453 1_655 S
O72 C68 1.245 . S
O73 Tb60 2.343 . S
O73 Tb62 2.596 1_655 S
O73 C68 1.259 . S
O74 Tb62 2.374 1_655 S
O74 C69 1.250 . S
O75 Tb60 2.353 . S
O75 C69 1.263 . S
C76 O77 1.275 . S
C76 O78 1.246 . S
O77 Tb60 2.427 . S
O77 C76 1.275 . S
O78 Tb60 2.513 . S
O78 C76 1.246 . S
C79 O63 1.245 . S
C79 O64 1.259 . S
Tb80 O83 2.453 . S
Tb80 O84 2.596 1_556 S
Tb80 O85 2.374 1_556 S
Tb80 O93 2.343 1_556 S
Tb80 O95 2.353 . S
Tb80 O97 2.427 . S
Tb80 O98 2.513 1_556 S
C81 O85 1.251 . S
C81 O87 1.263 . S
Tb82 O84 2.343 . S
Tb82 O87 2.353 . S
Tb82 O90 2.427 . S
Tb82 O91 2.513 1_554 S
Tb82 O92 2.453 . S
Tb82 O93 2.596 . S
Tb82 O94 2.374 1_554 S
O83 Tb80 2.453 . S
O83 C99 1.245 . S
O84 Tb80 2.596 1_554 S
O84 Tb82 2.343 . S
O84 C99 1.259 1_554 S
O85 Tb80 2.374 1_554 S
O85 C81 1.251 . S
C86 O90 1.275 . S
C86 O91 1.246 1_554 S
O87 C81 1.263 . S
O87 Tb82 2.353 . S
C88 O92 1.245 . S
C88 O93 1.259 . S
C89 O94 1.250 . S
C89 O95 1.263 . S
O90 Tb82 2.427 . S
O90 C86 1.275 . S
O91 Tb82 2.513 1_556 S
O91 C86 1.246 1_556 S
O92 Tb82 2.453 . S
O92 C88 1.245 . S
O93 Tb80 2.343 1_554 S
O93 Tb82 2.596 . S
O93 C88 1.259 . S
O94 Tb82 2.374 1_556 S
O94 C89 1.250 . S
O95 Tb80 2.353 . S
O95 C89 1.263 . S
C96 O97 1.261 1_554 S
C96 O98 1.262 . S
O97 Tb80 2.427 . S
O97 C96 1.261 1_556 S
O98 Tb80 2.513 1_554 S
O98 C96 1.262 . S
C99 O83 1.245 . S
C99 O84 1.259 1_556 S
Tb100 O103 2.453 1_554 S
Tb100 O104 2.596 . S
Tb100 O105 2.374 . S
Tb100 O113 2.343 . S
Tb100 O115 2.353 1_554 S
Tb100 O117 2.427 1_554 S
Tb100 O118 2.513 . S
C101 O105 1.251 . S
C101 O107 1.263 . S
Tb102 O104 2.343 . S
Tb102 O107 2.353 . S
Tb102 O110 2.427 . S
Tb102 O111 2.513 1_554 S
Tb102 O112 2.453 . S
Tb102 O113 2.596 . S
Tb102 O114 2.374 1_554 S
O103 Tb100 2.453 1_556 S
O103 C119 1.245 1_556 S
O104 Tb100 2.596 . S
O104 Tb102 2.343 . S
O104 C119 1.259 . S
O105 Tb100 2.374 . S
O105 C101 1.251 . S
C106 O110 1.275 . S
C106 O111 1.246 1_554 S
O107 C101 1.263 . S
O107 Tb102 2.353 . S
C108 O112 1.245 . S
C108 O113 1.259 . S
C109 O114 1.250 . S
C109 O115 1.263 . S
O110 Tb102 2.427 . S
O110 C106 1.275 . S
O111 Tb102 2.513 1_556 S
O111 C106 1.246 1_556 S
O112 Tb102 2.453 . S
O112 C108 1.245 . S
O113 Tb100 2.343 . S
O113 Tb102 2.596 . S
O113 C108 1.259 . S
O114 Tb102 2.374 1_556 S
O114 C109 1.250 . S
O115 Tb100 2.353 1_556 S
O115 C109 1.263 . S
C116 O117 1.275 1_554 S
C116 O118 1.246 . S
O117 Tb100 2.427 1_556 S
O117 C116 1.275 1_556 S
O118 Tb100 2.513 . S
O118 C116 1.246 . S
C119 O103 1.245 1_554 S
C119 O104 1.259 . S
Tb120 O123 2.453 . S
Tb120 O124 2.596 . S
Tb120 O125 2.374 . S
Tb120 O133 2.343 . S
Tb120 O135 2.353 . S
Tb120 O137 2.427 . S
Tb120 O138 2.513 . S
C121 O125 1.251 . S
C121 O127 1.263 . S
Tb122 O124 2.343 . S
Tb122 O127 2.353 . S
Tb122 O130 2.427 . S
Tb122 O131 2.513 . S
Tb122 O132 2.453 . S
Tb122 O133 2.596 . S
Tb122 O134 2.374 . S
O123 Tb120 2.453 . S
O123 C139 1.245 . S
O124 Tb120 2.596 . S
O124 Tb122 2.343 . S
O124 C139 1.259 . S
O125 Tb120 2.374 . S
O125 C121 1.251 . S
C126 O130 1.275 . S
C126 O131 1.246 . S
O127 C121 1.263 . S
O127 Tb122 2.353 . S
C128 O132 1.245 . S
C128 O133 1.259 . S
C129 O134 1.250 . S
C129 O135 1.263 . S
O130 Tb122 2.427 . S
O130 C126 1.275 . S
O131 Tb122 2.513 . S
O131 C126 1.246 . S
O132 Tb122 2.453 . S
O132 C128 1.245 . S
O133 Tb120 2.343 . S
O133 Tb122 2.596 . S
O133 C128 1.259 . S
O134 Tb122 2.374 . S
O134 C129 1.250 . S
O135 Tb120 2.353 . S
O135 C129 1.263 . S
C136 O137 1.275 . S
C136 O138 1.246 . S
O137 Tb120 2.427 . S
O137 C136 1.275 . S
O138 Tb120 2.513 . S
O138 C136 1.246 . S
C139 O123 1.245 . S
C139 O124 1.259 . S
Tb140 O143 2.453 . S
Tb140 O144 2.596 . S
Tb140 O145 2.374 . S
Tb140 O153 2.343 . S
Tb140 O155 2.353 . S
Tb140 O157 2.427 . S
Tb140 O158 2.513 . S
C141 O145 1.251 . S
C141 O147 1.263 . S
Tb142 O144 2.343 . S
Tb142 O147 2.353 . S
Tb142 O150 2.427 . S
Tb142 O151 2.513 . S
Tb142 O152 2.453 . S
Tb142 O153 2.596 . S
Tb142 O154 2.374 . S
O143 Tb140 2.453 . S
O143 C159 1.245 . S
O144 Tb140 2.596 . S
O144 Tb142 2.343 . S
O144 C159 1.259 . S
O145 Tb140 2.374 . S
O145 C141 1.251 . S
C146 O150 1.275 . S
C146 O151 1.246 . S
O147 C141 1.263 . S
O147 Tb142 2.353 . S
C148 O152 1.245 . S
C148 O153 1.259 . S
C149 O154 1.250 . S
C149 O155 1.263 . S
O150 Tb142 2.427 . S
O150 C146 1.275 . S
O151 Tb142 2.513 . S
O151 C146 1.246 . S
O152 Tb142 2.453 . S
O152 C148 1.245 . S
O153 Tb140 2.343 . S
O153 Tb142 2.596 . S
O153 C148 1.259 . S
O154 Tb142 2.374 . S
O154 C149 1.250 . S
O155 Tb140 2.353 . S
O155 C149 1.263 . S
C156 O157 1.275 . S
C156 O158 1.246 . S
O157 Tb140 2.427 . S
O157 C156 1.275 . S
O158 Tb140 2.513 . S
O158 C156 1.246 . S
C159 O143 1.245 . S
C159 O144 1.259 . S
C160 C161 1.391 . S
C160 C162 1.394 . S
C160 H176 0.931 . S
C161 C160 1.391 . S
C161 C165 1.376 1_554 S
C162 C160 1.394 . S
C162 C163 1.369 . S
C162 C166 1.531 . S
C163 C162 1.369 . S
C163 C164 1.410 1_554 S
C163 C171 1.503 . S
C164 C163 1.410 1_556 S
C164 C165 1.392 . S
C164 C167 1.511 . S
C165 C161 1.376 1_556 S
C165 C164 1.392 . S
C165 H177 0.929 . S
C166 C162 1.531 . S
C166 H178 0.960 . S
C166 H179 0.962 . S
C166 H180 0.960 . S
C167 C164 1.511 . S
C167 H181 0.961 . S
C167 H182 0.961 . S
C167 H183 0.961 . S
C168 C169 1.365 1_556 S
C168 C170 1.361 1_556 S
C168 H184 0.939 . S
C169 C168 1.365 1_554 S
C169 C173 1.408 . S
C170 C168 1.361 1_554 S
C170 C171 1.372 . S
C170 C174 1.523 1_554 S
C171 C163 1.503 . S
C171 C170 1.372 . S
C171 C172 1.403 . S
C172 C171 1.403 . S
C172 C173 1.404 . S
C172 C175 1.539 . S
C173 C169 1.408 . S
C173 C172 1.404 . S
C173 H185 0.930 . S
C174 C170 1.523 1_556 S
C174 H186 0.956 1_556 S
C174 H187 0.961 . S
C174 H188 0.961 . S
C175 C172 1.539 . S
C175 H189 0.958 . S
C175 H190 0.961 1_554 S
C175 H191 0.960 1_554 S
H176 C160 0.931 . S
H177 C165 0.929 . S
H178 C166 0.960 . S
H179 C166 0.962 . S
H180 C166 0.960 . S
H181 C167 0.961 . S
H182 C167 0.961 . S
H183 C167 0.961 . S
H184 C168 0.939 . S
H185 C173 0.930 . S
H186 C174 0.956 1_554 S
H187 C174 0.961 . S
H188 C174 0.961 . S
H189 C175 0.958 . S
H190 C175 0.961 1_556 S
H191 C175 0.960 1_556 S
C192 C193 1.391 . S
C192 C194 1.394 . S
C192 H208 0.931 . S
C193 C192 1.391 . S
C193 C197 1.376 . S
C194 C192 1.394 . S
C194 C195 1.369 . S
C194 C198 1.531 . S
C195 C194 1.369 . S
C195 C196 1.406 1_554 S
C195 C203 1.503 . S
C196 C195 1.406 1_556 S
C196 C197 1.390 1_556 S
C196 C199 1.516 . S
C197 C193 1.376 . S
C197 C196 1.390 1_554 S
C197 H209 0.929 . S
C198 C194 1.531 . S
C198 H210 0.960 1_554 S
C198 H211 0.962 . S
C198 H212 0.960 1_554 S
C199 C196 1.516 . S
C199 H213 0.961 1_556 S
C199 H214 0.961 1_556 S
C199 H215 0.961 . S
C200 C201 1.370 . S
C200 C202 1.363 . S
C200 H216 0.931 . S
C201 C200 1.370 . S
C201 C205 1.408 1_554 S
C202 C200 1.363 . S
C202 C203 1.370 . S
C202 C206 1.524 . S
C203 C195 1.503 . S
C203 C202 1.370 . S
C203 C204 1.403 1_554 S
C204 C203 1.403 1_556 S
C204 C205 1.404 . S
C204 C207 1.539 . S
C205 C201 1.408 1_556 S
C205 C204 1.404 . S
C205 H217 0.930 . S
C206 C202 1.524 . S
C206 H218 0.956 . S
C206 H219 0.961 . S
C206 H220 0.961 . S
C207 C204 1.539 . S
C207 H221 0.958 . S
C207 H222 0.961 . S
C207 H223 0.960 . S
H208 C192 0.931 . S
H209 C197 0.929 . S
H210 C198 0.960 1_556 S
H211 C198 0.962 . S
H212 C198 0.960 1_556 S
H213 C199 0.961 1_554 S
H214 C199 0.961 1_554 S
H215 C199 0.961 . S
H216 C200 0.931 . S
H217 C205 0.930 . S
H218 C206 0.956 . S
H219 C206 0.961 . S
H220 C206 0.961 . S
H221 C207 0.958 . S
H222 C207 0.961 . S
H223 C207 0.960 . S
C224 C225 1.391 . S
C224 C226 1.394 . S
C224 H240 0.931 . S
C225 C224 1.391 . S
C225 C229 1.376 . S
C226 C224 1.394 . S
C226 C227 1.369 . S
C226 C230 1.531 . S
C227 C226 1.369 . S
C227 C228 1.410 . S
C227 C235 1.503 . S
C228 C227 1.410 . S
C228 C229 1.392 . S
C228 C231 1.511 . S
C229 C225 1.376 . S
C229 C228 1.392 . S
C229 H241 0.929 . S
C230 C226 1.531 . S
C230 H242 0.960 . S
C230 H243 0.962 . S
C230 H244 0.960 . S
C231 C228 1.511 . S
C231 H245 0.961 . S
C231 H246 0.961 . S
C231 H247 0.961 . S
C232 C233 1.370 . S
C232 C234 1.363 . S
C232 H248 0.931 . S
C233 C232 1.370 . S
C233 C237 1.408 . S
C234 C232 1.363 . S
C234 C235 1.370 . S
C234 C238 1.524 . S
C235 C227 1.503 . S
C235 C234 1.370 . S
C235 C236 1.403 . S
C236 C235 1.403 . S
C236 C237 1.404 . S
C236 C239 1.539 . S
C237 C233 1.408 . S
C237 C236 1.404 . S
C237 H249 0.930 . S
C238 C234 1.524 . S
C238 H250 0.956 . S
C238 H251 0.961 . S
C238 H252 0.961 . S
C239 C236 1.539 . S
C239 H253 0.958 . S
C239 H254 0.961 . S
C239 H255 0.960 . S
H240 C224 0.931 . S
H241 C229 0.929 . S
H242 C230 0.960 . S
H243 C230 0.962 . S
H244 C230 0.960 . S
H245 C231 0.961 . S
H246 C231 0.961 . S
H247 C231 0.961 . S
H248 C232 0.931 . S
H249 C237 0.930 . S
H250 C238 0.956 . S
H251 C238 0.961 . S
H252 C238 0.961 . S
H253 C239 0.958 . S
H254 C239 0.961 . S
H255 C239 0.960 . S
C256 C257 1.391 . S
C256 C258 1.394 . S
C256 H272 0.931 . S
C257 C256 1.391 . S
C257 C261 1.376 . S
C258 C256 1.394 . S
C258 C259 1.369 . S
C258 C262 1.531 . S
C259 C258 1.369 . S
C259 C260 1.410 . S
C259 C267 1.503 . S
C260 C259 1.410 . S
C260 C261 1.392 . S
C260 C263 1.511 . S
C261 C257 1.376 . S
C261 C260 1.392 . S
C261 H273 0.929 . S
C262 C258 1.531 . S
C262 H274 0.960 . S
C262 H275 0.962 . S
C262 H276 0.960 . S
C263 C260 1.511 . S
C263 H277 0.961 . S
C263 H278 0.961 . S
C263 H279 0.961 . S
C264 C265 1.370 . S
C264 C266 1.363 . S
C264 H280 0.931 . S
C265 C264 1.370 . S
C265 C269 1.408 . S
C266 C264 1.363 . S
C266 C267 1.370 . S
C266 C270 1.524 . S
C267 C259 1.503 . S
C267 C266 1.370 . S
C267 C268 1.403 . S
C268 C267 1.403 . S
C268 C269 1.404 . S
C268 C271 1.539 . S
C269 C265 1.408 . S
C269 C268 1.404 . S
C269 H281 0.930 . S
C270 C266 1.524 . S
C270 H282 0.956 . S
C270 H283 0.961 . S
C270 H284 0.961 . S
C271 C268 1.539 . S
C271 H285 0.958 . S
C271 H286 0.961 . S
C271 H287 0.960 . S
H272 C256 0.931 . S
H273 C261 0.929 . S
H274 C262 0.960 . S
H275 C262 0.962 . S
H276 C262 0.960 . S
H277 C263 0.961 . S
H278 C263 0.961 . S
H279 C263 0.961 . S
H280 C264 0.931 . S
H281 C269 0.930 . S
H282 C270 0.956 . S
H283 C270 0.961 . S
H284 C270 0.961 . S
H285 C271 0.958 . S
H286 C271 0.961 . S
H287 C271 0.960 . S
C288 C289 1.391 1_556 S
C288 C290 1.394 . S
C288 H304 0.931 . S
C289 C288 1.391 1_554 S
C289 C293 1.376 . S
C290 C288 1.394 . S
C290 C291 1.369 1_655 S
C290 C294 1.531 1_655 S
C291 C290 1.369 1_455 S
C291 C292 1.410 1_456 S
C291 C299 1.503 . S
C292 C291 1.410 1_654 S
C292 C293 1.392 . S
C292 C295 1.511 1_655 S
C293 C289 1.376 . S
C293 C292 1.392 . S
C293 H305 0.929 . S
C294 C290 1.531 1_455 S
C294 H306 0.960 . S
C294 H307 0.962 . S
C294 H308 0.960 . S
C295 C292 1.511 1_455 S
C295 H309 0.961 1_455 S
C295 H310 0.961 . S
C295 H311 0.961 1_554 S
C296 C297 1.364 1_554 S
C296 C298 1.363 . S
C296 H312 0.931 . S
C297 C296 1.364 1_556 S
C297 C301 1.414 . S
C298 C296 1.363 . S
C298 C299 1.370 1_554 S
C298 C302 1.524 . S
C299 C291 1.503 . S
C299 C298 1.370 1_556 S
C299 C300 1.403 . S
C300 C299 1.403 . S
C300 C301 1.404 . S
C300 C303 1.539 . S
C301 C297 1.414 . S
C301 C300 1.404 . S
C301 H313 0.930 . S
C302 C298 1.524 . S
C302 H314 0.956 . S
C302 H315 0.961 . S
C302 H316 0.961 . S
C303 C300 1.539 . S
C303 H317 0.958 . S
C303 H318 0.961 . S
C303 H319 0.960 . S
H304 C288 0.931 . S
H305 C293 0.929 . S
H306 C294 0.960 . S
H307 C294 0.962 . S
H308 C294 0.960 . S
H309 C295 0.961 1_655 S
H310 C295 0.961 . S
H311 C295 0.961 1_556 S
H312 C296 0.931 . S
H313 C301 0.930 . S
H314 C302 0.956 . S
H315 C302 0.961 . S
H316 C302 0.961 . S
H317 C303 0.958 . S
H318 C303 0.961 . S
H319 C303 0.960 . S
C320 C321 1.391 1_556 S
C320 C322 1.394 . S
C320 H336 0.931 . S
C321 C320 1.391 1_554 S
C321 C325 1.376 . S
C322 C320 1.394 . S
C322 C323 1.369 1_456 S
C322 C326 1.531 1_455 S
C323 C322 1.369 1_654 S
C323 C324 1.410 1_655 S
C323 C331 1.503 . S
C324 C323 1.410 1_455 S
C324 C325 1.392 . S
C324 C327 1.511 1_455 S
C325 C321 1.376 . S
C325 C324 1.392 . S
C325 H337 0.929 . S
C326 C322 1.531 1_655 S
C326 H338 0.960 . S
C326 H339 0.962 . S
C326 H340 0.960 1_655 S
C327 C324 1.511 1_655 S
C327 H341 0.961 1_655 S
C327 H342 0.961 . S
C327 H343 0.961 . S
C328 C329 1.370 . S
C328 C330 1.363 . S
C328 H344 0.931 . S
C329 C328 1.370 . S
C329 C333 1.408 . S
C330 C328 1.363 . S
C330 C331 1.370 . S
C330 C334 1.524 . S
C331 C323 1.503 . S
C331 C330 1.370 . S
C331 C332 1.403 . S
C332 C331 1.403 . S
C332 C333 1.404 . S
C332 C335 1.539 . S
C333 C329 1.408 . S
C333 C332 1.404 . S
C333 H345 0.930 . S
C334 C330 1.524 . S
C334 H346 0.956 1_554 S
C334 H347 0.961 . S
C334 H348 0.961 . S
C335 C332 1.539 . S
C335 H349 0.958 1_554 S
C335 H350 0.961 . S
C335 H351 0.960 . S
H336 C320 0.931 . S
H337 C325 0.929 . S
H338 C326 0.960 . S
H339 C326 0.962 . S
H340 C326 0.960 1_455 S
H341 C327 0.961 1_455 S
H342 C327 0.961 . S
H343 C327 0.961 . S
H344 C328 0.931 . S
H345 C333 0.930 . S
H346 C334 0.956 1_556 S
H347 C334 0.961 . S
H348 C334 0.961 . S
H349 C335 0.958 1_556 S
H350 C335 0.961 . S
H351 C335 0.960 . S
C352 C353 1.391 . S
C352 C354 1.394 . S
C352 H368 0.931 . S
C353 C352 1.391 . S
C353 C357 1.376 . S
C354 C352 1.394 . S
C354 C355 1.369 . S
C354 C358 1.531 . S
C355 C354 1.369 . S
C355 C356 1.410 . S
C355 C363 1.503 . S
C356 C355 1.410 . S
C356 C357 1.392 . S
C356 C359 1.511 . S
C357 C353 1.376 . S
C357 C356 1.392 . S
C357 H369 0.929 . S
C358 C354 1.531 . S
C358 H370 0.960 . S
C358 H371 0.962 . S
C358 H372 0.960 . S
C359 C356 1.511 . S
C359 H373 0.961 . S
C359 H374 0.961 . S
C359 H375 0.961 . S
C360 C361 1.370 . S
C360 C362 1.363 . S
C360 H376 0.931 . S
C361 C360 1.370 . S
C361 C365 1.408 . S
C362 C360 1.363 . S
C362 C363 1.370 1_655 S
C362 C366 1.524 1_655 S
C363 C355 1.503 . S
C363 C362 1.370 1_455 S
C363 C364 1.403 1_455 S
C364 C363 1.403 1_655 S
C364 C365 1.404 . S
C364 C367 1.539 . S
C365 C361 1.408 . S
C365 C364 1.404 . S
C365 H377 0.930 . S
C366 C362 1.524 1_455 S
C366 H378 0.956 . S
C366 H379 0.961 . S
C366 H380 0.961 . S
C367 C364 1.539 . S
C367 H381 0.958 . S
C367 H382 0.961 . S
C367 H383 0.960 1_655 S
H368 C352 0.931 . S
H369 C357 0.929 . S
H370 C358 0.960 . S
H371 C358 0.962 . S
H372 C358 0.960 . S
H373 C359 0.961 . S
H374 C359 0.961 . S
H375 C359 0.961 . S
H376 C360 0.931 . S
H377 C365 0.930 . S
H378 C366 0.956 . S
H379 C366 0.961 . S
H380 C366 0.961 . S
H381 C367 0.958 . S
H382 C367 0.961 . S
H383 C367 0.960 1_455 S
C384 C385 1.391 . S
C384 C386 1.394 . S
C384 H400 0.931 . S
C385 C384 1.391 . S
C385 C389 1.376 . S
C386 C384 1.394 . S
C386 C387 1.369 . S
C386 C390 1.531 . S
C387 C386 1.369 . S
C387 C388 1.410 . S
C387 C395 1.503 . S
C388 C387 1.410 . S
C388 C389 1.392 . S
C388 C391 1.511 . S
C389 C385 1.376 . S
C389 C388 1.392 . S
C389 H401 0.929 . S
C390 C386 1.531 . S
C390 H402 0.960 . S
C390 H403 0.962 . S
C390 H404 0.960 . S
C391 C388 1.511 . S
C391 H405 0.961 . S
C391 H406 0.961 . S
C391 H407 0.961 . S
C392 C393 1.370 . S
C392 C394 1.363 . S
C392 H408 0.931 . S
C393 C392 1.370 . S
C393 C397 1.408 . S
C394 C392 1.363 . S
C394 C395 1.370 1_455 S
C394 C398 1.524 1_455 S
C395 C387 1.503 . S
C395 C394 1.370 1_655 S
C395 C396 1.403 1_655 S
C396 C395 1.403 1_455 S
C396 C397 1.404 . S
C396 C399 1.539 1_455 S
C397 C393 1.408 . S
C397 C396 1.404 . S
C397 H409 0.930 . S
C398 C394 1.524 1_655 S
C398 H410 0.956 . S
C398 H411 0.961 . S
C398 H412 0.961 1_655 S
C399 C396 1.539 1_655 S
C399 H413 0.958 . S
C399 H414 0.961 . S
C399 H415 0.960 . S
H400 C384 0.931 . S
H401 C389 0.929 . S
H402 C390 0.960 . S
H403 C390 0.962 . S
H404 C390 0.960 . S
H405 C391 0.961 . S
H406 C391 0.961 . S
H407 C391 0.961 . S
H408 C392 0.931 . S
H409 C397 0.930 . S
H410 C398 0.956 . S
H411 C398 0.961 . S
H412 C398 0.961 1_455 S
H413 C399 0.958 . S
H414 C399 0.961 . S
H415 C399 0.960 . S
C416 C417 1.391 1_656 S
C416 C418 1.394 . S
C416 H432 0.931 . S
C417 C416 1.391 1_454 S
C417 C421 1.376 . S
C418 C416 1.394 . S
C418 C419 1.369 1_655 S
C418 C422 1.531 . S
C419 C418 1.369 1_455 S
C419 C420 1.410 1_556 S
C419 C427 1.503 1_456 S
C420 C419 1.410 1_554 S
C420 C421 1.392 . S
C420 C423 1.511 . S
C421 C417 1.376 . S
C421 C420 1.392 . S
C421 H433 0.929 . S
C422 C418 1.531 . S
C422 H434 0.960 . S
C422 H435 0.962 1_556 S
C422 H436 0.960 . S
C423 C420 1.511 . S
C423 H437 0.961 . S
C423 H438 0.961 . S
C423 H439 0.961 1_554 S
C424 C425 1.370 . S
C424 C426 1.363 . S
C424 H440 0.931 . S
C425 C424 1.370 . S
C425 C429 1.409 1_554 S
C426 C424 1.363 . S
C426 C427 1.370 . S
C426 C430 1.524 . S
C427 C419 1.503 1_654 S
C427 C426 1.370 . S
C427 C428 1.403 1_654 S
C428 C427 1.403 1_456 S
C428 C429 1.403 1_455 S
C428 C431 1.539 . S
C429 C425 1.409 1_556 S
C429 C428 1.403 1_655 S
C429 H441 0.929 1_655 S
C430 C426 1.524 . S
C430 H442 0.956 . S
C430 H443 0.961 1_655 S
C430 H444 0.961 . S
C431 C428 1.539 . S
C431 H445 0.958 1_455 S
C431 H446 0.961 . S
C431 H447 0.960 . S
H432 C416 0.931 . S
H433 C421 0.929 . S
H434 C422 0.960 . S
H435 C422 0.962 1_554 S
H436 C422 0.960 . S
H437 C423 0.961 . S
H438 C423 0.961 . S
H439 C423 0.961 1_556 S
H440 C424 0.931 . S
H441 C429 0.929 1_455 S
H442 C430 0.956 . S
H443 C430 0.961 1_455 S
H444 C430 0.961 . S
H445 C431 0.958 1_655 S
H446 C431 0.961 . S
H447 C431 0.960 . S
C448 C449 1.391 . S
C448 C450 1.394 . S
C448 H464 0.931 . S
C449 C448 1.391 . S
C449 C453 1.376 1_455 S
C450 C448 1.394 . S
C450 C451 1.369 . S
C450 C454 1.531 . S
C451 C450 1.369 . S
C451 C452 1.410 1_455 S
C451 C459 1.505 . S
C452 C451 1.410 1_655 S
C452 C453 1.392 . S
C452 C455 1.511 . S
C453 C449 1.376 1_655 S
C453 C452 1.392 . S
C453 H465 0.929 . S
C454 C450 1.531 . S
C454 H466 0.960 . S
C454 H467 0.962 . S
C454 H468 0.960 . S
C455 C452 1.511 . S
C455 H469 0.961 . S
C455 H470 0.961 . S
C455 H471 0.961 . S
C456 C457 1.370 . S
C456 C458 1.363 . S
C456 H472 0.931 . S
C457 C456 1.370 . S
C457 C461 1.408 1_655 S
C458 C456 1.363 . S
C458 C459 1.366 1_655 S
C458 C462 1.524 . S
C459 C451 1.505 . S
C459 C458 1.366 1_455 S
C459 C460 1.406 . S
C460 C459 1.406 . S
C460 C461 1.404 . S
C460 C463 1.539 . S
C461 C457 1.408 1_455 S
C461 C460 1.404 . S
C461 H473 0.930 . S
C462 C458 1.524 . S
C462 H474 0.956 1_655 S
C462 H475 0.961 . S
C462 H476 0.961 . S
C463 C460 1.539 . S
C463 H477 0.958 . S
C463 H478 0.961 . S
C463 H479 0.960 . S
H464 C448 0.931 . S
H465 C453 0.929 . S
H466 C454 0.960 . S
H467 C454 0.962 . S
H468 C454 0.960 . S
H469 C455 0.961 . S
H470 C455 0.961 . S
H471 C455 0.961 . S
H472 C456 0.931 . S
H473 C461 0.930 . S
H474 C462 0.956 1_455 S
H475 C462 0.961 . S
H476 C462 0.961 . S
H477 C463 0.958 . S
H478 C463 0.961 . S
H479 C463 0.960 . S
C480 C481 1.391 . S
C480 C482 1.394 . S
C480 H496 0.931 . S
C481 C480 1.391 . S
C481 C485 1.376 1_554 S
C482 C480 1.394 . S
C482 C483 1.369 . S
C482 C486 1.531 . S
C483 C482 1.369 . S
C483 C484 1.410 1_554 S
C483 C491 1.503 1_565 S
C484 C483 1.410 1_556 S
C484 C485 1.392 . S
C484 C487 1.511 . S
C485 C481 1.376 1_556 S
C485 C484 1.392 . S
C485 H497 0.929 . S
C486 C482 1.531 . S
C486 H498 0.960 1_565 S
C486 H499 0.962 . S
C486 H500 0.960 . S
C487 C484 1.511 . S
C487 H501 0.961 . S
C487 H502 0.961 . S
C487 H503 0.961 . S
C488 C489 1.370 1_556 S
C488 C490 1.363 . S
C488 H504 0.931 . S
C489 C488 1.370 1_554 S
C489 C493 1.408 . S
C490 C488 1.363 . S
C490 C491 1.370 1_556 S
C490 C494 1.524 . S
C491 C483 1.503 1_545 S
C491 C490 1.370 1_554 S
C491 C492 1.403 . S
C492 C491 1.403 . S
C492 C493 1.404 . S
C492 C495 1.539 . S
C493 C489 1.408 . S
C493 C492 1.404 . S
C493 H505 0.930 . S
C494 C490 1.524 . S
C494 H506 0.956 1_545 S
C494 H507 0.961 1_545 S
C494 H508 0.961 . S
C495 C492 1.539 . S
C495 H509 0.958 . S
C495 H510 0.961 . S
C495 H511 0.960 . S
H496 C480 0.931 . S
H497 C485 0.929 . S
H498 C486 0.960 1_545 S
H499 C486 0.962 . S
H500 C486 0.960 . S
H501 C487 0.961 . S
H502 C487 0.961 . S
H503 C487 0.961 . S
H504 C488 0.931 . S
H505 C493 0.930 . S
H506 C494 0.956 1_565 S
H507 C494 0.961 1_565 S
H508 C494 0.961 . S
H509 C495 0.958 . S
H510 C495 0.961 . S
H511 C495 0.960 . S
C512 C513 1.391 . S
C512 C514 1.394 . S
C512 H528 0.931 . S
C513 C512 1.391 . S
C513 C517 1.376 . S
C514 C512 1.394 . S
C514 C515 1.369 . S
C514 C518 1.531 . S
C515 C514 1.369 . S
C515 C516 1.410 . S
C515 C523 1.503 1_545 S
C516 C515 1.410 . S
C516 C517 1.392 . S
C516 C519 1.511 . S
C517 C513 1.376 . S
C517 C516 1.392 . S
C517 H529 0.929 . S
C518 C514 1.531 . S
C518 H530 0.960 1_545 S
C518 H531 0.962 . S
C518 H532 0.960 . S
C519 C516 1.511 . S
C519 H533 0.961 . S
C519 H534 0.961 1_545 S
C519 H535 0.966 . S
C520 C521 1.370 . S
C520 C522 1.363 . S
C520 H536 0.931 . S
C521 C520 1.370 . S
C521 C525 1.408 . S
C522 C520 1.363 . S
C522 C523 1.370 . S
C522 C526 1.524 1_565 S
C523 C515 1.503 1_565 S
C523 C522 1.370 . S
C523 C524 1.403 . S
C524 C523 1.403 . S
C524 C525 1.404 . S
C524 C527 1.539 . S
C525 C521 1.408 . S
C525 C524 1.404 . S
C525 H537 0.930 . S
C526 C522 1.524 1_545 S
C526 H538 0.956 . S
C526 H539 0.961 . S
C526 H540 0.961 1_545 S
C527 C524 1.539 . S
C527 H541 0.958 . S
C527 H542 0.961 . S
C527 H543 0.960 . S
H528 C512 0.931 . S
H529 C517 0.929 . S
H530 C518 0.960 1_565 S
H531 C518 0.962 . S
H532 C518 0.960 . S
H533 C519 0.961 . S
H534 C519 0.961 1_565 S
H535 C519 0.966 . S
H536 C520 0.931 . S
H537 C525 0.930 . S
H538 C526 0.956 . S
H539 C526 0.961 . S
H540 C526 0.961 1_565 S
H541 C527 0.958 . S
H542 C527 0.961 . S
H543 C527 0.960 . S
C544 C545 1.391 1_556 S
C544 C546 1.394 . S
C544 H560 0.931 . S
C545 C544 1.391 1_554 S
C545 C549 1.376 . S
C546 C544 1.394 . S
C546 C547 1.369 . S
C546 C550 1.531 . S
C547 C546 1.369 . S
C547 C548 1.410 1_556 S
C547 C555 1.503 1_556 S
C548 C547 1.410 1_554 S
C548 C549 1.392 . S
C548 C551 1.511 . S
C549 C545 1.376 . S
C549 C548 1.392 . S
C549 H561 0.929 . S
C550 C546 1.531 . S
C550 H562 0.960 . S
C550 H563 0.962 . S
C550 H564 0.960 . S
C551 C548 1.511 . S
C551 H565 0.961 . S
C551 H566 0.961 . S
C551 H567 0.961 . S
C552 C553 1.370 . S
C552 C554 1.363 . S
C552 H568 0.931 . S
C553 C552 1.370 . S
C553 C557 1.408 1_554 S
C554 C552 1.363 . S
C554 C555 1.370 . S
C554 C558 1.524 . S
C555 C547 1.503 1_554 S
C555 C554 1.370 . S
C555 C556 1.403 1_554 S
C556 C555 1.403 1_556 S
C556 C557 1.404 . S
C556 C559 1.539 . S
C557 C553 1.408 1_556 S
C557 C556 1.404 . S
C557 H569 0.930 . S
C558 C554 1.524 . S
C558 H570 0.956 . S
C558 H571 0.961 . S
C558 H572 0.961 . S
C559 C556 1.539 . S
C559 H573 0.958 . S
C559 H574 0.961 . S
C559 H575 0.960 . S
H560 C544 0.931 . S
H561 C549 0.929 . S
H562 C550 0.960 . S
H563 C550 0.962 . S
H564 C550 0.960 . S
H565 C551 0.961 . S
H566 C551 0.961 . S
H567 C551 0.961 . S
H568 C552 0.931 . S
H569 C557 0.930 . S
H570 C558 0.956 . S
H571 C558 0.961 . S
H572 C558 0.961 . S
H573 C559 0.958 . S
H574 C559 0.961 . S
H575 C559 0.960 . S
C576 C577 1.391 1_556 S
C576 C578 1.394 . S
C576 H592 0.931 . S
C577 C576 1.391 1_554 S
C577 C581 1.376 . S
C578 C576 1.394 . S
C578 C579 1.369 . S
C578 C582 1.531 . S
C579 C578 1.369 . S
C579 C580 1.409 1_556 S
C579 C587 1.503 1_556 S
C580 C579 1.409 1_554 S
C580 C581 1.393 . S
C580 C583 1.511 . S
C581 C577 1.376 . S
C581 C580 1.393 . S
C581 H593 0.929 . S
C582 C578 1.531 . S
C582 H594 0.960 . S
C582 H595 0.962 1_556 S
C582 H596 0.960 . S
C583 C580 1.511 . S
C583 H597 0.961 . S
C583 H598 0.961 . S
C583 H599 0.961 1_554 S
C584 C585 1.370 . S
C584 C586 1.363 . S
C584 H600 0.931 . S
C585 C584 1.370 . S
C585 C589 1.408 1_554 S
C586 C584 1.363 . S
C586 C587 1.370 . S
C586 C590 1.524 . S
C587 C579 1.503 1_554 S
C587 C586 1.370 . S
C587 C588 1.403 1_554 S
C588 C587 1.403 1_556 S
C588 C589 1.404 . S
C588 C591 1.539 . S
C589 C585 1.408 1_556 S
C589 C588 1.404 . S
C589 H601 0.930 . S
C590 C586 1.524 . S
C590 H602 0.956 . S
C590 H603 0.961 . S
C590 H604 0.961 . S
C591 C588 1.539 . S
C591 H605 0.958 . S
C591 H606 0.961 . S
C591 H607 0.960 . S
H592 C576 0.931 . S
H593 C581 0.929 . S
H594 C582 0.960 . S
H595 C582 0.962 1_554 S
H596 C582 0.960 . S
H597 C583 0.961 . S
H598 C583 0.961 . S
H599 C583 0.961 1_556 S
H600 C584 0.931 . S
H601 C589 0.930 . S
H602 C590 0.956 . S
H603 C590 0.961 . S
H604 C590 0.961 . S
H605 C591 0.958 . S
H606 C591 0.961 . S
H607 C591 0.960 . S
C608 C609 1.391 . S
C608 C610 1.394 . S
C608 H624 0.931 . S
C609 C608 1.391 . S
C609 C613 1.376 . S
C610 C608 1.394 . S
C610 C611 1.369 . S
C610 C614 1.531 . S
C611 C610 1.369 . S
C611 C612 1.410 . S
C611 C619 1.503 . S
C612 C611 1.410 . S
C612 C613 1.392 . S
C612 C615 1.511 . S
C613 C609 1.376 . S
C613 C612 1.392 . S
C613 H625 0.929 . S
C614 C610 1.531 . S
C614 H626 0.960 . S
C614 H627 0.962 . S
C614 H628 0.960 . S
C615 C612 1.511 . S
C615 H629 0.961 . S
C615 H630 0.961 . S
C615 H631 0.961 . S
C616 C617 1.370 . S
C616 C618 1.363 . S
C616 H632 0.931 . S
C617 C616 1.370 . S
C617 C621 1.408 . S
C618 C616 1.363 . S
C618 C619 1.370 . S
C618 C622 1.524 . S
C619 C611 1.503 . S
C619 C618 1.370 . S
C619 C620 1.403 . S
C620 C619 1.403 . S
C620 C621 1.404 . S
C620 C623 1.539 . S
C621 C617 1.408 . S
C621 C620 1.404 . S
C621 H633 0.930 . S
C622 C618 1.524 . S
C622 H634 0.956 . S
C622 H635 0.961 . S
C622 H636 0.961 . S
C623 C620 1.539 . S
C623 H637 0.958 . S
C623 H638 0.961 . S
C623 H639 0.960 . S
H624 C608 0.931 . S
H625 C613 0.929 . S
H626 C614 0.960 . S
H627 C614 0.962 . S
H628 C614 0.960 . S
H629 C615 0.961 . S
H630 C615 0.961 . S
H631 C615 0.961 . S
H632 C616 0.931 . S
H633 C621 0.930 . S
H634 C622 0.956 . S
H635 C622 0.961 . S
H636 C622 0.961 . S
H637 C623 0.958 . S
H638 C623 0.961 . S
H639 C623 0.960 . S
C640 C641 1.391 . S
C640 C642 1.394 . S
C640 H656 0.931 . S
C641 C640 1.391 . S
C641 C645 1.376 . S
C642 C640 1.394 . S
C642 C643 1.369 . S
C642 C646 1.531 . S
C643 C642 1.369 . S
C643 C644 1.410 . S
C643 C651 1.503 . S
C644 C643 1.410 . S
C644 C645 1.392 . S
C644 C647 1.511 . S
C645 C641 1.376 . S
C645 C644 1.392 . S
C645 H657 0.929 . S
C646 C642 1.531 . S
C646 H658 0.960 . S
C646 H659 0.962 . S
C646 H660 0.960 . S
C647 C644 1.511 . S
C647 H661 0.961 . S
C647 H662 0.961 . S
C647 H663 0.961 . S
C648 C649 1.370 . S
C648 C650 1.363 . S
C648 H664 0.931 . S
C649 C648 1.370 . S
C649 C653 1.408 . S
C650 C648 1.363 . S
C650 C651 1.370 . S
C650 C654 1.524 . S
C651 C643 1.503 . S
C651 C650 1.370 . S
C651 C652 1.403 . S
C652 C651 1.403 . S
C652 C653 1.404 . S
C652 C655 1.539 . S
C653 C649 1.408 . S
C653 C652 1.404 . S
C653 H665 0.930 . S
C654 C650 1.524 . S
C654 H666 0.956 . S
C654 H667 0.961 . S
C654 H668 0.961 . S
C655 C652 1.539 . S
C655 H669 0.958 . S
C655 H670 0.961 . S
C655 H671 0.960 . S
H656 C640 0.931 . S
H657 C645 0.929 . S
H658 C646 0.960 . S
H659 C646 0.962 . S
H660 C646 0.960 . S
H661 C647 0.961 . S
H662 C647 0.961 . S
H663 C647 0.961 . S
H664 C648 0.931 . S
H665 C653 0.930 . S
H666 C654 0.956 . S
H667 C654 0.961 . S
H668 C654 0.961 . S
H669 C655 0.958 . S
H670 C655 0.961 . S
H671 C655 0.960 . S
C672 C673 1.391 . S
C672 C674 1.394 . S
C672 H688 0.931 . S
C673 C672 1.391 . S
C673 C677 1.376 1_455 S
C674 C672 1.394 . S
C674 C675 1.369 . S
C674 C678 1.531 . S
C675 C674 1.369 . S
C675 C676 1.410 1_455 S
C675 C683 1.503 1_455 S
C676 C675 1.410 1_655 S
C676 C677 1.392 . S
C676 C679 1.511 . S
C677 C673 1.376 1_655 S
C677 C676 1.392 . S
C677 H689 0.929 . S
C678 C674 1.531 . S
C678 H690 0.960 . S
C678 H691 0.962 . S
C678 H692 0.960 . S
C679 C676 1.511 . S
C679 H693 0.961 . S
C679 H694 0.961 . S
C679 H695 0.961 . S
C680 C681 1.370 . S
C680 C682 1.363 . S
C680 H696 0.931 . S
C681 C680 1.370 . S
C681 C685 1.408 . S
C682 C680 1.363 . S
C682 C683 1.370 . S
C682 C686 1.524 1_655 S
C683 C675 1.503 1_655 S
C683 C682 1.370 . S
C683 C684 1.403 . S
C684 C683 1.403 . S
C684 C685 1.404 . S
C684 C687 1.539 . S
C685 C681 1.408 . S
C685 C684 1.404 . S
C685 H697 0.930 . S
C686 C682 1.524 1_455 S
C686 H698 0.956 . S
C686 H699 0.961 1_455 S
C686 H700 0.961 . S
C687 C684 1.539 . S
C687 H701 0.958 1_655 S
C687 H702 0.961 . S
C687 H703 0.960 . S
H688 C672 0.931 . S
H689 C677 0.929 . S
H690 C678 0.960 . S
H691 C678 0.962 . S
H692 C678 0.960 . S
H693 C679 0.961 . S
H694 C679 0.961 . S
H695 C679 0.961 . S
H696 C680 0.931 . S
H697 C685 0.930 . S
H698 C686 0.956 . S
H699 C686 0.961 1_655 S
H700 C686 0.961 . S
H701 C687 0.958 1_455 S
H702 C687 0.961 . S
H703 C687 0.960 . S
C704 C705 1.391 . S
C704 C706 1.394 . S
C704 H720 0.931 . S
C705 C704 1.391 . S
C705 C709 1.376 1_655 S
C706 C704 1.394 . S
C706 C707 1.369 . S
C706 C710 1.531 . S
C707 C706 1.369 . S
C707 C708 1.410 1_655 S
C707 C715 1.503 1_655 S
C708 C707 1.410 1_455 S
C708 C709 1.392 . S
C708 C711 1.511 . S
C709 C705 1.376 1_455 S
C709 C708 1.392 . S
C709 H721 0.929 . S
C710 C706 1.531 . S
C710 H722 0.960 . S
C710 H723 0.962 . S
C710 H724 0.960 . S
C711 C708 1.511 . S
C711 H725 0.961 . S
C711 H726 0.961 . S
C711 H727 0.961 . S
C712 C713 1.370 . S
C712 C714 1.363 . S
C712 H728 0.931 . S
C713 C712 1.370 . S
C713 C717 1.408 . S
C714 C712 1.363 . S
C714 C715 1.370 . S
C714 C718 1.524 . S
C715 C707 1.503 1_455 S
C715 C714 1.370 . S
C715 C716 1.403 1_455 S
C716 C715 1.403 1_655 S
C716 C717 1.404 1_655 S
C716 C719 1.539 . S
C717 C713 1.408 . S
C717 C716 1.404 1_455 S
C717 H729 0.930 . S
C718 C714 1.524 . S
C718 H730 0.956 . S
C718 H731 0.961 . S
C718 H732 0.961 . S
C719 C716 1.539 . S
C719 H733 0.958 . S
C719 H734 0.961 . S
C719 H735 0.960 . S
H720 C704 0.931 . S
H721 C709 0.929 . S
H722 C710 0.960 . S
H723 C710 0.962 . S
H724 C710 0.960 . S
H725 C711 0.961 . S
H726 C711 0.961 . S
H727 C711 0.961 . S
H728 C712 0.931 . S
H729 C717 0.930 . S
H730 C718 0.956 . S
H731 C718 0.961 . S
H732 C718 0.961 . S
H733 C719 0.958 . S
H734 C719 0.961 . S
H735 C719 0.960 . S
C736 C737 1.391 . S
C736 C738 1.394 1_655 S
C736 H752 0.931 1_655 S
C737 C736 1.391 . S
C737 C741 1.376 . S
C738 C736 1.394 1_455 S
C738 C739 1.369 1_455 S
C738 C742 1.531 . S
C739 C738 1.369 1_655 S
C739 C740 1.410 . S
C739 C747 1.503 . S
C740 C739 1.410 . S
C740 C741 1.392 . S
C740 C743 1.511 . S
C741 C737 1.376 . S
C741 C740 1.392 . S
C741 H753 0.929 . S
C742 C738 1.531 . S
C742 H754 0.960 . S
C742 H755 0.962 . S
C742 H756 0.960 . S
C743 C740 1.511 . S
C743 H757 0.961 . S
C743 H758 0.961 . S
C743 H759 0.961 . S
C744 C745 1.370 . S
C744 C746 1.363 . S
C744 H760 0.931 . S
C745 C744 1.370 . S
C745 C749 1.408 1_455 S
C746 C744 1.363 . S
C746 C747 1.370 1_455 S
C746 C750 1.524 . S
C747 C739 1.503 . S
C747 C746 1.370 1_655 S
C747 C748 1.403 . S
C748 C747 1.403 . S
C748 C749 1.404 . S
C748 C751 1.539 . S
C749 C745 1.408 1_655 S
C749 C748 1.404 . S
C749 H761 0.930 . S
C750 C746 1.524 . S
C750 H762 0.956 . S
C750 H763 0.961 . S
C750 H764 0.961 . S
C751 C748 1.539 . S
C751 H765 0.958 . S
C751 H766 0.961 . S
C751 H767 0.960 . S
H752 C736 0.931 1_455 S
H753 C741 0.929 . S
H754 C742 0.960 . S
H755 C742 0.962 . S
H756 C742 0.960 . S
H757 C743 0.961 . S
H758 C743 0.961 . S
H759 C743 0.961 . S
H760 C744 0.931 . S
H761 C749 0.930 . S
H762 C750 0.956 . S
H763 C750 0.961 . S
H764 C750 0.961 . S
H765 C751 0.958 . S
H766 C751 0.961 . S
H767 C751 0.960 . S
C768 C769 1.391 . S
C768 C770 1.394 . S
C768 H784 0.931 . S
C769 C768 1.391 . S
C769 C773 1.376 . S
C770 C768 1.394 . S
C770 C771 1.369 . S
C770 C774 1.531 . S
C771 C770 1.369 . S
C771 C772 1.410 1_655 S
C771 C779 1.503 . S
C772 C771 1.410 1_455 S
C772 C773 1.392 1_455 S
C772 C775 1.511 . S
C773 C769 1.376 . S
C773 C772 1.392 1_655 S
C773 H785 0.929 1_655 S
C774 C770 1.531 . S
C774 H786 0.960 . S
C774 H787 0.962 . S
C774 H788 0.960 . S
C775 C772 1.511 . S
C775 H789 0.961 . S
C775 H790 0.961 . S
C775 H791 0.961 . S
C776 C777 1.370 . S
C776 C778 1.363 . S
C776 H792 0.931 . S
C777 C776 1.370 . S
C777 C781 1.408 1_455 S
C778 C776 1.363 . S
C778 C779 1.370 1_455 S
C778 C782 1.524 . S
C779 C771 1.503 . S
C779 C778 1.370 1_655 S
C779 C780 1.403 . S
C780 C779 1.403 . S
C780 C781 1.404 . S
C780 C783 1.539 . S
C781 C777 1.408 1_655 S
C781 C780 1.404 . S
C781 H793 0.930 . S
C782 C778 1.524 . S
C782 H794 0.956 . S
C782 H795 0.961 . S
C782 H796 0.961 . S
C783 C780 1.539 . S
C783 H797 0.958 . S
C783 H798 0.961 . S
C783 H799 0.960 . S
H784 C768 0.931 . S
H785 C773 0.929 1_455 S
H786 C774 0.960 . S
H787 C774 0.962 . S
H788 C774 0.960 . S
H789 C775 0.961 . S
H790 C775 0.961 . S
H791 C775 0.961 . S
H792 C776 0.931 . S
H793 C781 0.930 . S
H794 C782 0.956 . S
H795 C782 0.961 . S
H796 C782 0.961 . S
H797 C783 0.958 . S
H798 C783 0.961 . S
H799 C783 0.960 . S
C800 C801 1.391 . S
C800 C802 1.394 . S
C800 H816 0.931 . S
C801 C800 1.391 . S
C801 C805 1.376 . S
C802 C800 1.394 . S
C802 C803 1.369 . S
C802 C806 1.531 . S
C803 C802 1.369 . S
C803 C804 1.410 . S
C803 C811 1.503 . S
C804 C803 1.410 . S
C804 C805 1.392 . S
C804 C807 1.511 . S
C805 C801 1.376 . S
C805 C804 1.392 . S
C805 H817 0.929 . S
C806 C802 1.531 . S
C806 H818 0.960 . S
C806 H819 0.962 . S
C806 H820 0.960 . S
C807 C804 1.511 . S
C807 H821 0.961 . S
C807 H822 0.961 . S
C807 H823 0.961 . S
C808 C809 1.370 . S
C808 C810 1.363 . S
C808 H824 0.931 . S
C809 C808 1.370 . S
C809 C813 1.408 . S
C810 C808 1.363 . S
C810 C811 1.370 . S
C810 C814 1.524 . S
C811 C803 1.503 . S
C811 C810 1.370 . S
C811 C812 1.403 . S
C812 C811 1.403 . S
C812 C813 1.404 . S
C812 C815 1.539 . S
C813 C809 1.408 . S
C813 C812 1.404 . S
C813 H825 0.930 . S
C814 C810 1.524 . S
C814 H826 0.956 . S
C814 H827 0.961 . S
C814 H828 0.961 . S
C815 C812 1.539 . S
C815 H829 0.958 . S
C815 H830 0.961 . S
C815 H831 0.960 . S
H816 C800 0.931 . S
H817 C805 0.929 . S
H818 C806 0.960 . S
H819 C806 0.962 . S
H820 C806 0.960 . S
H821 C807 0.961 . S
H822 C807 0.961 . S
H823 C807 0.961 . S
H824 C808 0.931 . S
H825 C813 0.930 . S
H826 C814 0.956 . S
H827 C814 0.961 . S
H828 C814 0.961 . S
H829 C815 0.958 . S
H830 C815 0.961 . S
H831 C815 0.960 . S
C832 C833 1.391 . S
C832 C834 1.394 . S
C832 H848 0.931 . S
C833 C832 1.391 . S
C833 C837 1.376 . S
C834 C832 1.394 . S
C834 C835 1.369 . S
C834 C838 1.531 . S
C835 C834 1.369 . S
C835 C836 1.410 . S
C835 C843 1.503 . S
C836 C835 1.410 . S
C836 C837 1.392 . S
C836 C839 1.511 . S
C837 C833 1.376 . S
C837 C836 1.392 . S
C837 H849 0.929 . S
C838 C834 1.531 . S
C838 H850 0.960 . S
C838 H851 0.962 . S
C838 H852 0.960 . S
C839 C836 1.511 . S
C839 H853 0.961 . S
C839 H854 0.961 . S
C839 H855 0.961 . S
C840 C841 1.370 . S
C840 C842 1.363 . S
C840 H856 0.931 . S
C841 C840 1.370 . S
C841 C845 1.408 . S
C842 C840 1.363 . S
C842 C843 1.370 . S
C842 C846 1.524 . S
C843 C835 1.503 . S
C843 C842 1.370 . S
C843 C844 1.403 . S
C844 C843 1.403 . S
C844 C845 1.404 . S
C844 C847 1.539 . S
C845 C841 1.408 . S
C845 C844 1.404 . S
C845 H857 0.930 . S
C846 C842 1.524 . S
C846 H858 0.956 . S
C846 H859 0.961 . S
C846 H860 0.961 . S
C847 C844 1.539 . S
C847 H861 0.958 . S
C847 H862 0.961 . S
C847 H863 0.960 . S
H848 C832 0.931 . S
H849 C837 0.929 . S
H850 C838 0.960 . S
H851 C838 0.962 . S
H852 C838 0.960 . S
H853 C839 0.961 . S
H854 C839 0.961 . S
H855 C839 0.961 . S
H856 C840 0.931 . S
H857 C845 0.930 . S
H858 C846 0.956 . S
H859 C846 0.961 . S
H860 C846 0.961 . S
H861 C847 0.958 . S
H862 C847 0.961 . S
H863 C847 0.960 . S
C864 C865 1.391 . S
C864 C866 1.394 . S
C864 H880 0.931 . S
C865 C864 1.391 . S
C865 C869 1.376 . S
C866 C864 1.394 . S
C866 C867 1.369 . S
C866 C870 1.531 . S
C867 C866 1.369 . S
C867 C868 1.410 . S
C867 C875 1.503 . S
C868 C867 1.410 . S
C868 C869 1.392 . S
C868 C871 1.511 . S
C869 C865 1.376 . S
C869 C868 1.392 . S
C869 H881 0.929 . S
C870 C866 1.531 . S
C870 H882 0.960 . S
C870 H883 0.962 . S
C870 H884 0.960 . S
C871 C868 1.511 . S
C871 H885 0.961 . S
C871 H886 0.961 . S
C871 H887 0.961 . S
C872 C873 1.370 . S
C872 C874 1.363 . S
C872 H888 0.931 . S
C873 C872 1.370 . S
C873 C877 1.408 . S
C874 C872 1.363 . S
C874 C875 1.370 . S
C874 C878 1.524 . S
C875 C867 1.503 . S
C875 C874 1.370 . S
C875 C876 1.403 . S
C876 C875 1.403 . S
C876 C877 1.404 . S
C876 C879 1.539 . S
C877 C873 1.408 . S
C877 C876 1.404 . S
C877 H889 0.930 . S
C878 C874 1.524 . S
C878 H890 0.956 . S
C878 H891 0.961 . S
C878 H892 0.961 . S
C879 C876 1.539 . S
C879 H893 0.958 . S
C879 H894 0.961 . S
C879 H895 0.960 . S
H880 C864 0.931 . S
H881 C869 0.929 . S
H882 C870 0.960 . S
H883 C870 0.962 . S
H884 C870 0.960 . S
H885 C871 0.961 . S
H886 C871 0.961 . S
H887 C871 0.961 . S
H888 C872 0.931 . S
H889 C877 0.930 . S
H890 C878 0.956 . S
H891 C878 0.961 . S
H892 C878 0.961 . S
H893 C879 0.958 . S
H894 C879 0.961 . S
H895 C879 0.960 . S
C896 C897 1.391 . S
C896 C898 1.394 . S
C896 H912 0.931 . S
C897 C896 1.391 . S
C897 C901 1.376 . S
C898 C896 1.394 . S
C898 C899 1.369 . S
C898 C902 1.531 . S
C899 C898 1.369 . S
C899 C900 1.410 . S
C899 C907 1.503 . S
C900 C899 1.410 . S
C900 C901 1.392 . S
C900 C903 1.511 . S
C901 C897 1.376 . S
C901 C900 1.392 . S
C901 H913 0.929 . S
C902 C898 1.531 . S
C902 H914 0.960 . S
C902 H915 0.962 . S
C902 H916 0.960 . S
C903 C900 1.511 . S
C903 H917 0.961 . S
C903 H918 0.961 . S
C903 H919 0.961 . S
C904 C905 1.370 . S
C904 C906 1.363 . S
C904 H920 0.931 . S
C905 C904 1.370 . S
C905 C909 1.408 . S
C906 C904 1.363 . S
C906 C907 1.370 . S
C906 C910 1.524 . S
C907 C899 1.503 . S
C907 C906 1.370 . S
C907 C908 1.403 . S
C908 C907 1.403 . S
C908 C909 1.404 . S
C908 C911 1.539 . S
C909 C905 1.408 . S
C909 C908 1.404 . S
C909 H921 0.930 . S
C910 C906 1.524 . S
C910 H922 0.956 . S
C910 H923 0.961 . S
C910 H924 0.961 . S
C911 C908 1.539 . S
C911 H925 0.958 . S
C911 H926 0.961 . S
C911 H927 0.960 . S
H912 C896 0.931 . S
H913 C901 0.929 . S
H914 C902 0.960 . S
H915 C902 0.962 . S
H916 C902 0.960 . S
H917 C903 0.961 . S
H918 C903 0.961 . S
H919 C903 0.961 . S
H920 C904 0.931 . S
H921 C909 0.930 . S
H922 C910 0.956 . S
H923 C910 0.961 . S
H924 C910 0.961 . S
H925 C911 0.958 . S
H926 C911 0.961 . S
H927 C911 0.960 . S
C161 C6 1.670 . S
C169 C16 1.627 . S
C193 C26 1.638 . S
C201 C36 1.643 . S
C225 C56 1.630 . S
C233 C46 1.646 . S
C257 C76 1.668 . S
C265 C66 1.627 . S
C289 C86 1.623 . S
C297 C96 1.648 1_556 S
C321 C116 1.603 . S
C329 C106 1.655 . S
C353 C136 1.670 . S
C361 C126 1.628 . S
C385 C146 1.608 . S
C393 C156 1.654 . S
C417 C39 1.574 1_455 S
C425 C8 1.585 1_655 S
C449 C79 1.606 1_455 S
C457 C48 1.577 1_655 S
C481 C88 1.545 . S
C489 C119 1.602 . S
C513 C128 1.589 . S
C521 C159 1.585 . S
C545 C19 1.530 1_554 S
C553 C108 1.529 . S
C577 C99 1.517 1_554 S
C585 C28 1.535 . S
C609 C59 1.515 . S
C617 C148 1.539 . S
C641 C68 1.554 . S
C649 C139 1.522 . S
C673 C1 1.554 . S
C681 C61 1.616 . S
C705 C21 1.619 . S
C713 C41 1.566 . S
C737 C29 1.576 . S
C745 C49 1.613 . S
C769 C69 1.593 . S
C777 C9 1.606 . S
C801 C81 1.590 . S
C809 C141 1.606 . S
C833 C101 1.609 . S
C841 C121 1.580 . S
C865 C109 1.563 . S
C873 C129 1.609 . S
C897 C149 1.575 . S
C905 C89 1.612 . S
