# Generated by pormake.
# Topology snz, (6)-cn, num edge types: 1
# Building blocks:
#     Node 0, Type 0, BuildingBlock: BETDIP_clean_sbu_0, # of connection points: 6
#     Node 1, Type 0, BuildingBlock: BETDIP_clean_sbu_0, # of connection points: 6
#     Node 2, Type 0, BuildingBlock: BETDIP_clean_sbu_0, # of connection points: 6
#     Node 3, Type 0, BuildingBlock: BETDIP_clean_sbu_0, # of connection points: 6
#     Node 4, Type 0, BuildingBlock: BETDIP_clean_sbu_0, # of connection points: 6
#     Node 5, Type 0, BuildingBlock: BETDIP_clean_sbu_0, # of connection points: 6
#     Node 6, Type 0, BuildingBlock: BETDIP_clean_sbu_0, # of connection points: 6
#     Node 7, Type 0, BuildingBlock: BETDIP_clean_sbu_0, # of connection points: 6
#     Node 8, Type 0, BuildingBlock: BETDIP_clean_sbu_0, # of connection points: 6
#     Edge 9, Type (0, 0), BuildingBlock: AJUNOK_clean_linker_0, # of connection points: 2
#     Edge 10, Type (0, 0), BuildingBlock: AJUNOK_clean_linker_0, # of connection points: 2
#     Edge 11, Type (0, 0), BuildingBlock: AJUNOK_clean_linker_0, # of connection points: 2
#     Edge 12, Type (0, 0), BuildingBlock: AJUNOK_clean_linker_0, # of connection points: 2
#     Edge 13, Type (0, 0), BuildingBlock: AJUNOK_clean_linker_0, # of connection points: 2
#     Edge 14, Type (0, 0), BuildingBlock: AJUNOK_clean_linker_0, # of connection points: 2
#     Edge 15, Type (0, 0), BuildingBlock: AJUNOK_clean_linker_0, # of connection points: 2
#     Edge 16, Type (0, 0), BuildingBlock: AJUNOK_clean_linker_0, # of connection points: 2
#     Edge 17, Type (0, 0), BuildingBlock: AJUNOK_clean_linker_0, # of connection points: 2
#     Edge 18, Type (0, 0), BuildingBlock: AJUNOK_clean_linker_0, # of connection points: 2
#     Edge 19, Type (0, 0), BuildingBlock: AJUNOK_clean_linker_0, # of connection points: 2
#     Edge 20, Type (0, 0), BuildingBlock: AJUNOK_clean_linker_0, # of connection points: 2
#     Edge 21, Type (0, 0), BuildingBlock: AJUNOK_clean_linker_0, # of connection points: 2
#     Edge 22, Type (0, 0), BuildingBlock: AJUNOK_clean_linker_0, # of connection points: 2
#     Edge 23, Type (0, 0), BuildingBlock: AJUNOK_clean_linker_0, # of connection points: 2
#     Edge 24, Type (0, 0), BuildingBlock: AJUNOK_clean_linker_0, # of connection points: 2
#     Edge 25, Type (0, 0), BuildingBlock: AJUNOK_clean_linker_0, # of connection points: 2
#     Edge 26, Type (0, 0), BuildingBlock: AJUNOK_clean_linker_0, # of connection points: 2
#     Edge 27, Type (0, 0), BuildingBlock: AJUNOK_clean_linker_0, # of connection points: 2
#     Edge 28, Type (0, 0), BuildingBlock: AJUNOK_clean_linker_0, # of connection points: 2
#     Edge 29, Type (0, 0), BuildingBlock: AJUNOK_clean_linker_0, # of connection points: 2
#     Edge 30, Type (0, 0), BuildingBlock: AJUNOK_clean_linker_0, # of connection points: 2
#     Edge 31, Type (0, 0), BuildingBlock: AJUNOK_clean_linker_0, # of connection points: 2
#     Edge 32, Type (0, 0), BuildingBlock: AJUNOK_clean_linker_0, # of connection points: 2
#     Edge 33, Type (0, 0), BuildingBlock: AJUNOK_clean_linker_0, # of connection points: 2
#     Edge 34, Type (0, 0), BuildingBlock: AJUNOK_clean_linker_0, # of connection points: 2
#     Edge 35, Type (0, 0), BuildingBlock: AJUNOK_clean_linker_0, # of connection points: 2
# Relax obj value: 0.197
# Max RMSD: 0.246
# Mean RMSD: 0.233
data_MOF--net-snz--node1-BETDIP_clean_sbu_0--edge1-AJUNOK_clean_linker_0
_symmetry_space_group_name_H-M    P1
_symmetry_Int_Tables_number       1
_symmetry_cell_setting            triclinic
loop_
_symmetry_equiv_pos_as_xyz
'x, y, z'
_cell_length_a     52.350655
_cell_length_b     52.245592
_cell_length_c     10.669202
_cell_angle_alpha  90.027437
_cell_angle_beta   89.748705
_cell_angle_gamma 119.7224
loop_
_atom_site_label
_atom_site_type_symbol
_atom_site_fract_x
_atom_site_fract_y
_atom_site_fract_z
_atom_type_partial_charge
Tb0 Tb 0.24779 0.48253 0.03751 0.0
Tb1 Tb 0.19177 0.48063 0.04214 0.0
C2 C 0.2918 0.4764 0.08457 0.0
C3 C 0.31846 0.47342 0.10978 0.0
C4 C 0.31808 0.45382 0.20126 0.0
C5 C 0.34332 0.45143 0.22492 0.0
C6 C 0.36989 0.46865 0.15833 0.0
C7 C 0.37018 0.48843 0.06759 0.0
C8 C 0.3449 0.49063 0.04331 0.0
C9 C 0.232 0.49109 0.81097 0.0
C10 C 0.18589 0.42046 0.98436 0.0
C11 C 0.14881 0.48857 0.01193 0.0
C12 C 0.14395 0.51386 0.02247 0.0
C13 C 0.14802 0.53165 0.91738 0.0
C14 C 0.14224 0.55483 0.92533 0.0
C15 C 0.13217 0.56054 0.03821 0.0
C16 C 0.12869 0.54328 0.14422 0.0
C17 C 0.13445 0.52 0.13635 0.0
C18 C 0.20871 0.4725 0.26809 0.0
C19 C 0.2475 0.54278 0.07358 0.0
O20 O 0.26695 0.46237 0.14706 0.0
O21 O 0.29142 0.49345 0.99581 0.0
O22 O 0.21564 0.47341 0.89486 0.0
O23 O 0.25868 0.50412 0.85316 0.0
O24 O 0.21499 0.43372 1.00619 0.0
O25 O 0.17222 0.43567 0.98555 0.0
O26 O 0.16599 0.48953 0.9204 0.0
O27 O 0.1539 0.47887 0.11635 0.0
O28 O 0.2248 0.49068 0.18499 0.0
O29 O 0.1824 0.458 0.22318 0.0
O30 O 0.22047 0.5282 0.03151 0.0
O31 O 0.26179 0.52836 0.10143 0.0
H32 H 0.29823 0.44025 0.25474 0.0
H33 H 0.34186 0.43579 0.29506 0.0
H34 H 0.39015 0.50277 0.01647 0.0
H35 H 0.34623 0.50617 0.97285 0.0
H36 H 0.15513 0.52736 0.82819 0.0
H37 H 0.14464 0.56765 0.84181 0.0
H38 H 0.12104 0.54749 0.23222 0.0
H39 H 0.13105 0.50658 0.21884 0.0
Tb40 Tb 0.84114 0.72211 0.03871 0.0
Tb41 Tb 0.84368 0.66926 0.05604 0.0
C42 C 0.84739 0.77222 0.08672 0.0
C43 C 0.85108 0.80197 0.11495 0.0
C44 C 0.8623 0.81565 0.23089 0.0
C45 C 0.8647 0.84303 0.25972 0.0
C46 C 0.85638 0.858 0.173 0.0
C47 C 0.84548 0.84432 0.05609 0.0
C48 C 0.84259 0.81663 0.02816 0.0
C49 C 0.83221 0.69679 0.81612 0.0
C50 C 0.90345 0.72156 0.98704 0.0
C51 C 0.83817 0.61889 0.05126 0.0
C52 C 0.81438 0.58841 0.04514 0.0
C53 C 0.79358 0.57864 0.94846 0.0
C54 C 0.77295 0.54886 0.93884 0.0
C55 C 0.77279 0.52873 0.0263 0.0
C56 C 0.79247 0.53873 0.12675 0.0
C57 C 0.81324 0.56848 0.13591 0.0
C58 C 0.85113 0.69692 0.27423 0.0
C59 C 0.78134 0.66176 0.06902 0.0
O60 O 0.8602 0.76045 0.1516 0.0
O61 O 0.83162 0.7559 0.99323 0.0
O62 O 0.85033 0.69828 0.89856 0.0
O63 O 0.81862 0.71005 0.85897 0.0
O64 O 0.88974 0.73756 0.99591 0.0
O65 O 0.88881 0.69331 1.00879 0.0
O66 O 0.84312 0.6352 0.95112 0.0
O67 O 0.83928 0.63274 0.15456 0.0
O68 O 0.83238 0.69262 0.19163 0.0
O69 O 0.86751 0.68678 0.23207 0.0
O70 O 0.79673 0.65002 0.0268 0.0
O71 O 0.79509 0.69023 0.09925 0.0
H72 H 0.8689 0.80501 0.3005 0.0
H73 H 0.87298 0.85236 0.35121 0.0
H74 H 0.83973 0.85519 0.98442 0.0
H75 H 0.83394 0.80682 0.93767 0.0
H76 H 0.79379 0.59375 0.8784 0.0
H77 H 0.75775 0.54134 0.8609 0.0
H78 H 0.79275 0.52338 0.1942 0.0
H79 H 0.82905 0.57581 0.21157 0.0
Tb80 Tb 0.60188 0.0765 0.04272 0.0
Tb81 Tb 0.65545 0.13315 0.04565 0.0
C82 C 0.55218 1.03248 0.09409 0.0
C83 C 0.52264 1.0063 0.12401 0.0
C84 C 0.51253 0.99976 0.24849 0.0
C85 C 0.48516 0.97496 0.27758 0.0
C86 C 0.46628 0.95623 0.18295 0.0
C87 C 0.47675 0.96258 0.05825 0.0
C88 C 0.50452 0.98709 0.02942 0.0
C89 C 0.62631 0.09222 0.81656 0.0
C90 C 0.60098 0.13847 0.98977 0.0
C91 C 0.70598 0.17573 1.00878 0.0
C92 C 0.73599 0.1805 0.02098 0.0
C93 C 0.74843 0.17171 0.92504 0.0
C94 C 0.77753 0.17817 0.93288 0.0
C95 C 0.79464 0.19332 0.0371 0.0
C96 C 0.78201 0.2013 0.13483 0.0
C97 C 0.7529 0.19499 0.12673 0.0
C98 C 0.63077 0.11544 0.27261 0.0
C99 C 0.66286 0.07737 0.07837 0.0
O100 O 0.56529 0.05575 0.16634 0.0
O101 O 0.56702 1.03435 0.99235 0.0
O102 O 0.62463 0.10883 0.89889 0.0
O103 O 0.61339 0.06561 0.8611 0.0
O104 O 0.58552 0.1093 0.01263 0.0
O105 O 0.62972 0.15236 0.98963 0.0
O106 O 0.68978 0.15766 0.92031 0.0
O107 O 0.69131 0.17189 0.1131 0.0
O108 O 0.63301 0.0998 0.18759 0.0
O109 O 0.64258 0.14211 0.22978 0.0
O110 O 0.67509 0.10501 0.04241 0.0
O111 O 0.63387 0.06181 0.09805 0.0
H112 H 0.52605 1.01362 0.3242 0.0
H113 H 0.47898 0.97045 0.37536 0.0
H114 H 0.46322 0.94894 0.98219 0.0
H115 H 0.51164 0.99125 0.93245 0.0
H116 H 0.73605 0.16065 0.84193 0.0
H117 H 0.78702 0.17258 0.85437 0.0
H118 H 0.79494 0.21323 0.21549 0.0
H119 H 0.74387 0.2021 0.2018 0.0
Tb120 Tb 0.93536 1.04094 0.29545 0.0
Tb121 Tb 0.88057 1.03911 0.31583 0.0
C122 C 0.97855 1.03264 0.29572 0.0
C123 C 0.98359 1.00762 0.30744 0.0
C124 C 0.97388 0.98889 0.41228 0.0
C125 C 0.98031 0.96607 0.4218 0.0
C126 C 0.99625 0.96163 0.32615 0.0
C127 C 1.00486 0.97967 0.21945 0.0
C128 C 0.99865 1.00255 0.21042 0.0
C129 C 0.91525 0.04806 0.07802 0.0
C130 C 0.881 0.97896 0.29253 0.0
C131 C 0.83685 1.04573 0.26956 0.0
C132 C 0.81083 0.04966 0.24338 0.0
C133 C 0.8024 0.05127 0.11968 0.0
C134 C 0.77695 0.05326 0.09538 0.0
C135 C 0.75935 0.05409 0.19412 0.0
C136 C 0.76816 0.05296 0.31778 0.0
C137 C 0.79327 0.05043 0.34194 0.0
C138 C 0.8969 1.0298 0.53693 0.0
C139 C 0.9442 0.10125 0.36294 0.0
O140 O 0.96966 1.04072 0.39541 0.0
O141 O 0.96457 1.03249 0.19464 0.0
O142 O 0.9006 1.02956 0.16187 0.0
O143 O 0.94165 0.06433 0.11876 0.0
O144 O 0.90732 0.99495 0.33912 0.0
O145 O 0.86623 0.99252 0.25835 0.0
O146 O 0.86078 0.05748 0.20033 0.0
O147 O 0.83809 1.03108 0.36652 0.0
O148 O 0.91356 0.04807 0.4542 0.0
O149 O 0.87016 1.01611 0.49485 0.0
O150 O 0.91447 0.0875 0.36389 0.0
O151 O 0.95721 0.08677 0.32697 0.0
H152 H 0.96192 0.9922 0.48776 0.0
H153 H 0.97397 0.95277 0.50622 0.0
H154 H 1.01717 0.97659 0.14475 0.0
H155 H 1.00608 1.01667 0.12838 0.0
H156 H 0.81528 0.05056 0.0414 0.0
H157 H 0.77129 0.05461 0.99904 0.0
H158 H 0.75537 0.05369 0.39633 0.0
H159 H 0.79902 0.0492 0.43827 0.0
Tb160 Tb 0.28001 0.85113 0.31087 0.0
Tb161 Tb 0.28557 0.79896 0.31394 0.0
C162 C 0.28626 0.90149 0.34146 0.0
C163 C 0.31114 0.93181 0.3368 0.0
C164 C 0.32321 0.94679 0.44927 0.0
C165 C 0.34631 0.97569 0.44715 0.0
C166 C 0.35757 0.99014 0.33258 0.0
C167 C 0.34579 0.97528 0.21985 0.0
C168 C 0.32271 0.94623 0.2218 0.0
C169 C 0.27461 0.82704 0.08433 0.0
C170 C 0.3442 0.86062 0.28908 0.0
C171 C 0.2802 0.74921 0.26314 0.0
C172 C 0.27726 0.71961 0.23636 0.0
C173 C 0.26785 0.7059 0.11874 0.0
C174 C 0.26492 0.67797 0.09523 0.0
C175 C 0.271 0.6627 0.189 0.0
C176 C 0.28064 0.67664 0.30621 0.0
C177 C 0.28372 0.70457 0.32941 0.0
C178 C 0.29317 0.82284 0.54025 0.0
C179 C 0.22169 0.79583 0.37074 0.0
O180 O 0.2865 0.88507 0.43339 0.0
O181 O 0.27819 0.88717 0.23552 0.0
O182 O 0.29273 0.83001 0.16876 0.0
O183 O 0.25838 0.8373 0.12788 0.0
O184 O 0.32735 0.87112 0.32778 0.0
O185 O 0.33193 0.8321 0.25993 0.0
O186 O 0.26893 0.76171 0.19307 0.0
O187 O 0.29458 0.765 0.36019 0.0
O188 O 0.27464 0.82058 0.45855 0.0
O189 O 0.30756 0.81057 0.49541 0.0
O190 O 0.23645 0.78127 0.34889 0.0
O191 O 0.23533 0.82459 0.36757 0.0
H192 H 0.31464 0.93625 0.53905 0.0
H193 H 0.35503 0.98698 0.53517 0.0
H194 H 0.35435 0.98619 0.1307 0.0
H195 H 0.31383 0.93524 0.13346 0.0
H196 H 0.26275 0.71677 0.04458 0.0
H197 H 0.25738 0.66808 1.00392 0.0
H198 H 0.28614 0.66608 0.38029 0.0
H199 H 0.29104 0.71434 0.42109 0.0
Tb200 Tb 0.47141 0.39079 0.2913 0.0
Tb201 Tb 0.52635 0.44387 0.30042 0.0
C202 C 0.42068 0.34723 0.3018 0.0
C203 C 0.39063 0.34154 0.29858 0.0
C204 C 0.38224 0.35967 0.36256 0.0
C205 C 0.35275 0.35196 0.3668 0.0
C206 C 0.33172 0.32636 0.30603 0.0
C207 C 0.34043 0.30934 0.2358 0.0
C208 C 0.36986 0.31693 0.23227 0.0
C209 C 0.49818 0.40745 0.06852 0.0
C210 C 0.46744 0.44713 0.27392 0.0
C211 C 0.57673 0.48716 0.25379 0.0
C212 C 0.60669 0.51312 0.22958 0.0
C213 C 0.6198 0.51864 0.10976 0.0
C214 C 0.6473 0.54395 0.08648 0.0
C215 C 0.66269 0.56427 0.18278 0.0
C216 C 0.64948 0.55864 0.30248 0.0
C217 C 0.62191 0.53358 0.32531 0.0
C218 C 0.50117 0.42915 0.52584 0.0
C219 C 0.52178 0.37947 0.35794 0.0
O220 O 0.43608 0.3607 0.40104 0.0
O221 O 0.43537 0.35734 0.1976 0.0
O222 O 0.49607 0.42381 0.15001 0.0
O223 O 0.48663 0.38129 0.1154 0.0
O224 O 0.45488 0.42075 0.32285 0.0
O225 O 0.49549 0.45958 0.23709 0.0
O226 O 0.5649 0.46302 0.1863 0.0
O227 O 0.56043 0.48629 0.3486 0.0
O228 O 0.50171 0.41213 0.44295 0.0
O229 O 0.51568 0.4558 0.48243 0.0
O230 O 0.53978 0.40846 0.33515 0.0
O231 O 0.49349 0.36884 0.35217 0.0
H232 H 0.39818 0.37905 0.41273 0.0
H233 H 0.34616 0.36519 0.42176 0.0
H234 H 0.32432 0.28927 0.19011 0.0
H235 H 0.37628 0.303 0.18159 0.0
H236 H 0.6086 0.50357 0.03337 0.0
H237 H 0.65674 0.54742 0.99328 0.0
H238 H 0.66035 0.57388 0.37869 0.0
H239 H 0.61246 0.53025 0.41848 0.0
Tb240 Tb 0.5963 0.285 0.68874 0.0
Tb241 Tb 0.53272 0.23298 0.66966 0.0
C242 C 0.642 0.33393 0.67986 0.0
C243 C 0.66108 0.35591 0.77191 0.0
C244 C 0.65002 0.37003 0.84986 0.0
C245 C 0.66918 0.39509 0.91653 0.0
C246 C 0.69957 0.40607 0.90828 0.0
C247 C 0.71035 0.39041 0.83984 0.0
C248 C 0.69121 0.36561 0.77109 0.0
C249 C 0.58725 0.23443 0.78937 0.0
C250 C 0.55567 0.26859 0.91827 0.0
C251 C 0.48735 0.18342 0.67433 0.0
C252 C 0.4712 0.16021 0.58253 0.0
C253 C 0.48565 0.15003 0.50269 0.0
C254 C 0.4693 0.12538 0.42779 0.0
C255 C 0.43848 0.11112 0.43051 0.0
C256 C 0.42424 0.12276 0.50308 0.0
C257 C 0.44055 0.14717 0.57883 0.0
C258 C 0.53619 0.28371 0.58539 0.0
C259 C 0.57077 0.25132 0.433 0.0
O260 O 0.6154 0.32997 0.67573 0.0
O261 O 0.64264 0.30915 0.67119 0.0
O262 O 0.57566 0.23739 0.69006 0.0
O263 O 0.60605 0.26055 0.82918 0.0
O264 O 0.57687 0.29077 0.85637 0.0
O265 O 0.53733 0.24336 0.86536 0.0
O266 O 0.51331 0.18788 0.7067 0.0
O267 O 0.48686 0.20788 0.65669 0.0
O268 O 0.55559 0.2792 0.63341 0.0
O269 O 0.51287 0.25793 0.58757 0.0
O270 O 0.54945 0.22881 0.49282 0.0
O271 O 0.59121 0.27519 0.48999 0.0
H272 H 0.62678 0.36302 0.85326 0.0
H273 H 0.6603 0.40707 0.96616 0.0
H274 H 0.73378 0.39853 0.83267 0.0
H275 H 0.70011 0.35504 0.71184 0.0
H276 H 0.5094 0.16027 0.50206 0.0
H277 H 0.48059 0.11658 0.37255 0.0
H278 H 0.40045 0.11176 0.50814 0.0
H279 H 0.42916 0.15504 0.63884 0.0
Tb280 Tb 1.03793 0.27171 0.68823 0.0
Tb281 Tb 0.08844 0.25925 0.65601 0.0
C282 C 0.99078 0.27263 0.67809 0.0
C283 C 0.96704 0.26521 0.76747 0.0
C284 C 0.96172 0.24505 0.86482 0.0
C285 C 0.93638 0.23461 0.93789 0.0
C286 C 0.91618 0.2442 0.91367 0.0
C287 C 0.92258 0.26577 0.82132 0.0
C288 C 0.94791 0.2762 0.74853 0.0
C289 C 0.08897 0.31233 0.78484 0.0
C290 C 1.0545 0.24689 0.90988 0.0
C291 C 0.13905 0.26627 0.65871 0.0
C292 C 0.16007 0.26674 0.56756 0.0
C293 C 0.17034 0.28711 0.46808 0.0
C294 C 0.19527 0.29213 0.40136 0.0
C295 C 0.20974 0.27655 0.43277 0.0
C296 C 0.19746 0.25391 0.52233 0.0
C297 C 0.17279 0.24916 0.59009 0.0
C298 C 1.03825 0.21121 0.58708 0.0
C299 C 1.06819 0.27895 0.42338 0.0
O300 O 0.99357 0.25022 0.64188 0.0
O301 O 1.01598 0.29602 0.70355 0.0
O302 O 0.08525 0.29838 0.68267 0.0
O303 O 1.06326 0.30436 0.83239 0.0
O304 O 1.03159 0.24462 0.84964 0.0
O305 O 0.07945 0.25424 0.85264 0.0
O306 O 0.13345 0.28798 0.65165 0.0
O307 O 0.11563 0.24074 0.68026 0.0
O308 O 1.04192 0.23551 0.62814 0.0
O309 O 1.06427 0.21402 0.58325 0.0
O310 O 0.08788 0.27284 0.46889 0.0
O311 O 1.04842 0.28133 0.49168 0.0
H312 H 0.97641 0.23638 0.88025 0.0
H313 H 0.932 0.21826 0.00967 0.0
H314 H 0.90717 0.27334 0.80058 0.0
H315 H 0.95186 0.29178 0.67374 0.0
H316 H 0.16054 0.30068 0.44785 0.0
H317 H 0.20464 0.30992 0.3335 0.0
H318 H 0.2084 0.24163 0.54708 0.0
H319 H 0.16493 0.2332 0.66584 0.0
Tb320 Tb 1.05773 0.72933 0.69003 0.0
Tb321 Tb 0.07336 0.79413 0.67395 0.0
C322 C 1.05911 0.68231 0.67835 0.0
C323 C 1.07017 0.66756 0.75844 0.0
C324 C 0.09337 0.6834 0.84215 0.0
C325 C 0.10291 0.66838 0.91982 0.0
C326 C 0.08901 0.6375 0.91527 0.0
C327 C 1.06528 0.62186 0.83356 0.0
C328 C 1.05587 0.63683 0.75608 0.0
C329 C 1.01108 0.735 0.75664 0.0
C330 C 0.07804 0.76624 0.92996 0.0
C331 C 0.0759 0.84295 0.69377 0.0
C332 C 1.0681 0.85979 0.6088 0.0
C333 C 1.04766 0.84553 0.51234 0.0
C334 C 1.03651 0.86066 0.44525 0.0
C335 C 1.04582 0.89016 0.4739 0.0
C336 C 1.0675 0.90476 0.56545 0.0
C337 C 0.07853 0.88959 0.63279 0.0
C338 C 0.11274 0.78172 0.57496 0.0
C339 C 1.04583 0.75455 0.44525 0.0
O340 O 0.07867 0.70668 0.62325 0.0
O341 O 1.03728 0.68432 0.72714 0.0
O342 O 1.03626 0.75422 0.72012 0.0
O343 O 1.01128 0.71041 0.75034 0.0
O344 O 0.07663 0.74344 0.87132 0.0
O345 O 0.07872 0.78881 0.87133 0.0
O346 O 1.05348 0.81811 0.73091 0.0
O347 O 0.09873 0.84033 0.66283 0.0
O348 O 0.09816 0.77096 0.67572 0.0
O349 O 0.10621 0.80091 0.53148 0.0
O350 O 1.04673 0.77662 0.50885 0.0
O351 O 1.05209 0.73534 0.49566 0.0
H352 H 0.10419 0.70722 0.84653 0.0
H353 H 0.1214 0.68079 0.98154 0.0
H354 H 1.05473 0.5981 0.82579 0.0
H355 H 1.03762 0.62443 0.69313 0.0
H356 H 1.03934 0.82242 0.49269 0.0
H357 H 1.02009 0.84917 0.37379 0.0
H358 H 0.07489 0.92754 0.58911 0.0
H359 H 0.09421 0.90077 0.70717 0.0
C360 C 0.24722 0.50341 0.58322 0.0
C361 C 0.22522 0.48694 0.67317 0.0
C362 C 0.24196 0.49848 0.45313 0.0
C363 C 0.21449 0.47671 0.40678 0.0
H364 H 0.26884 0.5202 0.6135 0.0
H365 H 0.25959 0.5119 0.38839 0.0
S366 S 0.1491 0.42803 0.60211 0.0
N367 N 0.17454 0.44851 0.705 0.0
N368 N 0.16484 0.43883 0.46311 0.0
C369 C 0.19228 0.46024 0.49588 0.0
C370 C 0.19756 0.46547 0.62796 0.0
C371 C 0.81352 0.68517 0.59438 0.0
C372 C 0.83739 0.69663 0.67817 0.0
C373 C 0.81795 0.68622 0.46335 0.0
C374 C 0.84642 0.69846 0.41119 0.0
H375 H 0.79124 0.67532 0.63039 0.0
H376 H 0.79894 0.67701 0.40282 0.0
S377 S 0.91625 0.7372 0.58571 0.0
N378 N 0.89058 0.72518 0.69582 0.0
N379 N 0.89866 0.72534 0.45182 0.0
C380 C 0.87036 0.71094 0.49323 0.0
C381 C 0.86592 0.71047 0.62598 0.0
C382 C 0.63209 0.12502 0.63056 0.0
C383 C 0.62867 0.09828 0.67784 0.0
C384 C 0.63227 0.13012 0.50026 0.0
C385 C 0.62899 0.10874 0.41081 0.0
H386 H 0.63431 0.14207 0.6947 0.0
H387 H 0.63504 0.1511 0.46943 0.0
S388 S 0.62018 1.03531 0.48469 0.0
N389 N 0.62263 0.0504 0.62332 0.0
N390 N 0.62269 0.05985 0.38072 0.0
C391 C 0.62573 0.08201 0.457 0.0
C392 C 0.62569 0.07686 0.58946 0.0
C393 C 0.88668 1.01111 0.75984 0.0
C394 C 0.90229 1.03454 0.67481 0.0
C395 C 0.89007 1.01547 0.89081 0.0
C396 C 0.90912 1.04351 0.94141 0.0
H397 H 0.87182 0.98921 0.72483 0.0
H398 H 0.87815 0.9967 0.95245 0.0
S399 S 0.95132 0.1128 0.7628 0.0
N400 N 0.93487 0.08733 0.65414 0.0
N401 N 0.94171 0.09519 0.89786 0.0
C402 C 0.92408 0.06709 0.85803 0.0
C403 C 0.92058 0.06272 0.72553 0.0
C404 C 0.26577 0.82777 0.72705 0.0
C405 C 0.28951 0.82516 0.67894 0.0
C406 C 0.26092 0.82787 0.85747 0.0
C407 C 0.27956 0.8254 0.94614 0.0
H408 H 0.25056 0.8294 0.66348 0.0
H409 H 0.24233 0.82995 0.88899 0.0
S410 S 0.34544 0.81897 0.8699 0.0
N411 N 0.33231 0.82077 0.73175 0.0
N412 N 0.32311 0.82078 0.97475 0.0
C413 C 0.30348 0.823 0.89915 0.0
C414 C 0.30848 0.82298 0.76653 0.0
C415 C 0.50431 0.44494 0.75199 0.0
C416 C 0.49894 0.4227 0.66374 0.0
C417 C 0.50456 0.44012 0.88211 0.0
C418 C 0.49953 0.41285 0.92996 0.0
H419 H 0.50858 0.46641 0.72031 0.0
H420 H 0.50868 0.45792 0.94568 0.0
S421 S 0.48429 0.3472 0.73966 0.0
N422 N 0.48813 0.37216 0.63516 0.0
N423 N 0.48905 0.36328 0.87747 0.0
C424 C 0.4941 0.39043 0.84273 0.0
C425 C 0.49362 0.39527 0.71058 0.0
C426 C 0.59081 0.27354 0.2266 0.0
C427 C 0.56669 0.2539 0.29974 0.0
C428 C 0.58675 0.28037 0.10495 0.0
C429 C 0.55842 0.26775 0.05326 0.0
H430 H 0.61294 0.28376 0.26375 0.0
H431 H 0.60608 0.29453 0.04946 0.0
S432 S 0.4878 0.2169 0.2093 0.0
N433 N 0.51322 0.22324 0.31465 0.0
N434 N 0.50588 0.23605 0.08445 0.0
C435 C 0.53407 0.24867 0.12619 0.0
C436 C 0.53813 0.24158 0.24974 0.0
C437 C 0.08832 0.28303 0.21374 0.0
C438 C 1.06375 0.27535 0.28947 0.0
C439 C 0.08494 0.27208 0.09321 0.0
C440 C 1.05676 0.25329 0.04359 0.0
H441 H 0.11038 0.29665 0.24978 0.0
H442 H 0.10478 0.27907 0.03834 0.0
S443 S 0.98536 0.22656 0.20598 0.0
N444 N 1.01029 0.24799 0.30899 0.0
N445 N 1.00396 0.2274 0.07929 0.0
C446 C 1.03194 0.24581 0.11781 0.0
C447 C 1.0354 0.25706 0.24129 0.0
C448 C 1.06357 0.78448 0.25353 0.0
C449 C 1.04782 0.75651 0.30927 0.0
C450 C 0.07467 0.78762 0.13218 0.0
C451 C 1.07034 0.76289 0.06307 0.0
H452 H 1.06894 0.80425 0.30625 0.0
H453 H 0.08686 0.80958 0.0926 0.0
S454 S 1.02703 0.68447 0.16317 0.0
N455 N 1.02589 0.70354 0.28417 0.0
N456 N 1.04673 0.70916 0.05555 0.0
C457 C 1.05341 0.73463 0.11624 0.0
C458 C 1.04192 0.73151 0.23912 0.0
C459 C 0.42808 0.45862 0.33784 0.0
C460 C 0.44729 0.45898 0.24392 0.0
C461 C 0.40389 0.4625 0.30979 0.0
C462 C 0.3971 0.46627 0.18557 0.0
H463 H 0.43125 0.45432 0.43424 0.0
H464 H 0.39009 0.46205 0.38664 0.0
S465 S 0.43889 0.46597 0.90279 0.0
N466 N 0.4571 0.46218 0.02066 0.0
N467 N 0.41144 0.46856 0.96652 0.0
C468 C 0.41624 0.46666 0.09033 0.0
C469 C 0.44122 0.46318 0.11965 0.0
C470 C 0.88543 0.90817 0.27304 0.0
C471 C 0.86067 0.88826 0.20359 0.0
C472 C 0.89062 0.93645 0.30396 0.0
C473 C 0.87173 0.94711 0.26582 0.0
H474 H 0.90157 0.9022 0.30235 0.0
H475 H 0.91031 0.9503 0.35695 0.0
S476 S 0.80316 0.90406 0.08388 0.0
N477 N 0.81609 0.88114 0.10104 0.0
N478 N 0.8268 0.93496 0.15447 0.0
C479 C 0.84675 0.92759 0.19644 0.0
C480 C 0.84111 0.89825 0.16615 0.0
C481 C 0.4233 0.90335 0.15223 0.0
C482 C 0.43563 0.93097 0.21415 0.0
C483 C 0.39444 0.87995 0.17984 0.0
C484 C 0.37648 0.88306 0.27076 0.0
H485 H 0.43601 0.89973 0.08126 0.0
H486 H 0.38587 0.85969 0.12684 0.0
S487 S 0.39779 0.95054 0.4603 0.0
N488 N 0.42649 0.95968 0.36881 0.0
N489 N 0.37402 0.91608 0.42523 0.0
C490 C 0.38887 0.91036 0.33468 0.0
C491 C 0.41781 0.9341 0.30542 0.0
C492 C 0.59862 0.1845 0.01633 0.0
C493 C 0.58815 0.15745 0.95294 0.0
C494 C 0.59677 0.20829 0.96437 0.0
C495 C 0.58458 0.20664 0.84507 0.0
H496 H 0.61022 0.18802 0.10417 0.0
H497 H 0.60625 0.22874 0.0166 0.0
S498 S 0.55358 0.14082 0.63857 0.0
N499 N 0.5646 0.13036 0.76372 0.0
N500 N 0.56106 0.17501 0.66566 0.0
C501 C 0.57289 0.17937 0.78194 0.0
C502 C 0.57473 0.1549 0.8357 0.0
C503 C 0.11696 0.34621 0.96247 0.0
C504 C 0.11714 0.33711 0.83809 0.0
C505 C 0.14109 0.37145 0.01382 0.0
C506 C 0.16703 0.38898 0.94456 0.0
H507 H 0.09736 0.33444 0.01972 0.0
H508 H 0.13863 0.37845 0.10658 0.0
S509 S 0.17946 0.37537 0.61438 0.0
N510 N 0.1461 0.34801 0.64671 0.0
N511 N 0.19136 0.39521 0.74374 0.0
C512 C 0.16809 0.37964 0.8215 0.0
C513 C 0.1433 0.35383 0.76839 0.0
C514 C 0.95735 0.71312 0.77626 0.0
C515 C 0.98509 0.73723 0.80215 0.0
C516 C 0.93175 0.70987 0.83249 0.0
C517 C 0.93188 0.73076 0.91735 0.0
H518 H 0.95536 0.69574 0.71453 0.0
H519 H 0.91134 0.69007 0.80992 0.0
S520 S 0.99915 0.7976 0.0244 0.0
N521 N 1.01167 0.78224 0.92389 0.0
N522 N 0.96292 0.77652 0.02709 0.0
C523 C 0.95944 0.75559 0.94287 0.0
C524 C 0.98609 0.75876 0.88587 0.0
C525 C 0.13111 0.62992 0.95891 0.0
C526 C 0.1015 0.62153 0.98072 0.0
C527 C 0.14169 0.61085 0.98795 0.0
C528 C 0.12297 0.58291 0.03963 0.0
H529 H 0.14554 0.65022 0.90969 0.0
H530 H 0.16411 0.61716 0.96224 0.0
S531 S 1.04484 0.55264 0.13156 0.0
N532 N 1.05469 0.58542 0.07189 0.0
N533 N 0.07439 0.549 0.12352 0.0
C534 C 0.09405 0.57536 0.07207 0.0
C535 C 0.08333 0.59487 0.04314 0.0
C536 C 0.75769 0.48579 0.88885 0.0
C537 C 0.75459 0.49711 1.00343 0.0
C538 C 0.7406 0.45595 0.86195 0.0
C539 C 0.71986 0.43641 0.94895 0.0
H540 H 0.7733 0.50019 0.81897 0.0
H541 H 0.74291 0.44838 0.77027 0.0
S542 S 0.70433 0.45535 0.26467 0.0
N543 N 0.73016 0.48701 0.20613 0.0
N544 N 0.69781 0.43029 0.15609 0.0
C545 C 0.71702 0.44738 0.06542 0.0
C546 C 0.73456 0.47792 0.09279 0.0
C547 C 0.87562 0.2472 0.02075 0.0
C548 C 0.88696 0.22978 0.97326 0.0
C549 C 0.84584 0.2347 0.05073 0.0
C550 C 0.82653 0.20439 0.03424 0.0
H551 H 0.88952 0.27089 0.02781 0.0
H552 H 0.83758 0.24922 0.07848 0.0
S553 S 0.84607 0.14869 0.92864 0.0
N554 N 0.87725 0.18035 0.92141 0.0
N555 N 0.82122 0.15671 0.98192 0.0
C556 C 0.83802 0.18637 0.9965 0.0
C557 C 0.86833 0.19911 0.96522 0.0
C558 C 0.70601 0.08456 0.20563 0.0
C559 C 0.68383 0.06721 0.11875 0.0
C560 C 0.72963 0.07962 0.23142 0.0
C561 C 0.73274 0.05749 0.16939 0.0
H562 H 0.70552 0.10276 0.2521 0.0
H563 H 0.74622 0.09404 0.29741 0.0
S564 S 0.68042 1.00541 0.93505 0.0
N565 N 0.6662 1.02645 0.97289 0.0
N566 N 0.71064 1.0173 0.01926 0.0
C567 C 0.71043 1.03962 0.08359 0.0
C568 C 0.68602 1.0444 0.05897 0.0
C569 C 0.27711 0.62595 0.0524 0.0
C570 C 0.26707 0.63236 0.16506 0.0
C571 C 0.27264 0.59742 0.02647 0.0
C572 C 0.2582 0.57402 0.11241 0.0
H573 H 0.28823 0.64307 0.98269 0.0
H574 H 0.27969 0.59341 0.93658 0.0
S575 S 0.22568 0.57792 0.41653 0.0
N576 N 0.24064 0.61182 0.3605 0.0
N577 N 0.23269 0.55886 0.31202 0.0
C578 C 0.24812 0.58006 0.22508 0.0
C579 C 0.25253 0.60898 0.25151 0.0
C580 C 0.72633 0.63395 0.0305 0.0
C581 C 0.75043 0.64055 0.10873 0.0
C582 C 0.69804 0.60958 0.05531 0.0
C583 C 0.69264 0.59082 0.15956 0.0
H584 H 0.72958 0.64701 0.94697 0.0
H585 H 0.68031 0.60521 0.99151 0.0
S586 S 0.74897 0.59739 0.38764 0.0
N587 N 0.76724 0.62528 0.29039 0.0
N588 N 0.71459 0.58038 0.33848 0.0
C589 C 0.71666 0.5974 0.2384 0.0
C590 C 0.74534 0.62191 0.21239 0.0
C591 C 1.04961 0.93386 0.36613 0.0
C592 C 1.03181 0.90556 0.41592 0.0
C593 C 1.03752 0.95127 0.33113 0.0
C594 C 1.00724 0.94092 0.34488 0.0
H595 H 0.07322 0.94304 0.35913 0.0
H596 H 1.05225 0.97356 0.29929 0.0
S597 S 0.95078 0.86721 0.45839 0.0
N598 N 0.98217 0.86703 0.46947 0.0
N599 N 0.9593 0.89982 0.40053 0.0
C600 C 0.98892 0.91203 0.38767 0.0
C601 C 1.00124 0.89425 0.42359 0.0
C602 C 0.42655 0.05916 0.42318 0.0
C603 C 0.4211 0.08131 0.37891 0.0
C604 C 0.40658 1.02952 0.4012 0.0
C605 C 0.38076 1.02118 0.33316 0.0
H606 H 0.44531 0.06465 0.48261 0.0
H607 H 0.41066 1.01301 0.44284 0.0
S608 S 0.35791 0.07094 0.18705 0.0
N609 N 0.38941 0.09328 0.25641 0.0
N610 N 0.35169 1.03718 0.21401 0.0
C611 C 0.37599 1.04314 0.28135 0.0
C612 C 0.39622 0.07337 0.30476 0.0
C613 C 0.26158 0.29573 0.48852 0.0
C614 C 0.24036 0.28813 0.39436 0.0
C615 C 0.29125 0.30881 0.45837 0.0
C616 C 0.30059 0.31471 0.33321 0.0
H617 H 0.25526 0.29199 0.58657 0.0
H618 H 0.30697 0.31396 0.53335 0.0
S619 S 0.25392 0.29952 0.0527 0.0
N620 N 0.2305 0.28768 0.17166 0.0
N621 N 0.28695 0.31241 0.11444 0.0
C622 C 0.27976 0.30733 0.23794 0.0
C623 C 0.24941 0.29409 0.26877 0.0
C624 C 0.50909 0.30671 0.49642 0.0
C625 C 0.53674 0.31033 0.52562 0.0
C626 C 0.50565 0.32882 0.44001 0.0
C627 C 0.5296 0.35713 0.4102 0.0
H628 H 0.4892 0.28619 0.51748 0.0
H629 H 0.48309 0.32308 0.42216 0.0
S630 S 0.60779 0.37817 0.45298 0.0
N631 N 0.58947 0.34391 0.50574 0.0
N632 N 0.5828 0.38687 0.40907 0.0
C633 C 0.55779 0.36139 0.43635 0.0
C634 C 0.5614 0.33787 0.49158 0.0
C635 C 0.96343 0.15585 0.43217 0.0
C636 C 0.96488 0.12949 0.43271 0.0
C637 C 0.98612 0.18239 0.48771 0.0
C638 C 1.01101 0.18349 0.54549 0.0
H639 H 0.94544 0.15632 0.38473 0.0
H640 H 0.98468 0.20229 0.48118 0.0
S641 S 1.02305 0.11989 0.59308 0.0
N642 N 0.99232 0.10634 0.51258 0.0
N643 N 1.03341 0.15494 0.61269 0.0
C644 C 1.01158 0.15698 0.55259 0.0
C645 C 0.98911 0.13049 0.49714 0.0
C646 C 0.1456 0.78633 0.39433 0.0
C647 C 0.13727 0.77791 0.52015 0.0
C648 C 0.17132 0.78834 0.34218 0.0
C649 C 0.19018 0.78188 0.41233 0.0
H650 H 0.13284 0.79291 0.33664 0.0
H651 H 0.17765 0.79717 0.24815 0.0
S652 S 0.17855 0.75826 0.74578 0.0
N653 N 0.14972 0.76197 0.7128 0.0
N654 N 0.19832 0.76633 0.61553 0.0
C655 C 0.18152 0.77215 0.53683 0.0
C656 C 0.15504 0.76993 0.59027 0.0
loop_
_geom_bond_atom_site_label_1
_geom_bond_atom_site_label_2
_geom_bond_distance
_geom_bond_site_symmetry_2
_ccdc_geom_bond_type
Tb0 C2 2.809 . S
Tb0 O20 2.484 . S
Tb0 O21 2.440 . S
Tb0 O22 2.658 . S
Tb0 O23 2.409 1_554 S
Tb0 O24 2.378 . S
Tb0 O28 2.325 . S
Tb0 O31 2.341 . S
Tb1 C11 2.809 . S
Tb1 O22 2.325 . S
Tb1 O25 2.341 . S
Tb1 O26 2.484 . S
Tb1 O27 2.440 . S
Tb1 O28 2.658 . S
Tb1 O29 2.409 . S
Tb1 O30 2.378 . S
C2 Tb0 2.809 . S
C2 C3 1.514 . S
C2 O20 1.248 . S
C2 O21 1.266 . S
C3 C2 1.514 . S
C3 C4 1.359 . S
C3 C8 1.348 . S
C4 C3 1.359 . S
C4 C5 1.380 . S
C4 H32 0.929 . S
C5 C4 1.380 . S
C5 C6 1.347 . S
C5 H33 0.931 . S
C6 C5 1.347 . S
C6 C7 1.369 . S
C7 C6 1.369 . S
C7 C8 1.408 . S
C7 H34 0.930 . S
C8 C3 1.348 . S
C8 C7 1.408 . S
C8 H35 0.930 . S
C9 O22 1.281 1_556 S
C9 O23 1.254 . S
C10 O24 1.236 . S
C10 O25 1.266 . S
C11 Tb1 2.809 . S
C11 C12 1.514 . S
C11 O26 1.248 . S
C11 O27 1.266 . S
C12 C11 1.514 . S
C12 C13 1.359 1_554 S
C12 C17 1.348 . S
C13 C12 1.359 1_556 S
C13 C14 1.380 . S
C13 H36 0.929 . S
C14 C13 1.380 . S
C14 C15 1.347 1_556 S
C14 H37 0.931 . S
C15 C14 1.347 1_554 S
C15 C16 1.369 . S
C16 C15 1.369 . S
C16 C17 1.408 . S
C16 H38 0.930 . S
C17 C12 1.348 . S
C17 C16 1.408 . S
C17 H39 0.930 . S
C18 O28 1.281 . S
C18 O29 1.254 . S
C19 O30 1.236 . S
C19 O31 1.266 . S
O20 Tb0 2.484 . S
O20 C2 1.248 . S
O21 Tb0 2.440 . S
O21 C2 1.266 . S
O22 Tb0 2.658 . S
O22 Tb1 2.325 . S
O22 C9 1.281 1_554 S
O23 Tb0 2.409 1_556 S
O23 C9 1.254 . S
O24 Tb0 2.378 . S
O24 C10 1.236 . S
O25 Tb1 2.341 . S
O25 C10 1.266 . S
O26 Tb1 2.484 . S
O26 C11 1.248 . S
O27 Tb1 2.440 . S
O27 C11 1.266 . S
O28 Tb0 2.325 . S
O28 Tb1 2.658 . S
O28 C18 1.281 . S
O29 Tb1 2.409 . S
O29 C18 1.254 . S
O30 Tb1 2.378 . S
O30 C19 1.236 . S
O31 Tb0 2.341 . S
O31 C19 1.266 . S
H32 C4 0.929 . S
H33 C5 0.931 . S
H34 C7 0.930 . S
H35 C8 0.930 . S
H36 C13 0.929 . S
H37 C14 0.931 . S
H38 C16 0.930 . S
H39 C17 0.930 . S
Tb40 C42 2.809 . S
Tb40 O60 2.484 . S
Tb40 O61 2.440 . S
Tb40 O62 2.658 . S
Tb40 O63 2.409 1_554 S
Tb40 O64 2.378 . S
Tb40 O68 2.325 . S
Tb40 O71 2.341 . S
Tb41 C51 2.809 . S
Tb41 O62 2.325 . S
Tb41 O65 2.341 . S
Tb41 O66 2.484 . S
Tb41 O67 2.440 . S
Tb41 O68 2.658 . S
Tb41 O69 2.409 . S
Tb41 O70 2.378 . S
C42 Tb40 2.809 . S
C42 C43 1.514 . S
C42 O60 1.248 . S
C42 O61 1.266 . S
C43 C42 1.514 . S
C43 C44 1.359 . S
C43 C48 1.348 . S
C44 C43 1.359 . S
C44 C45 1.380 . S
C44 H72 0.929 . S
C45 C44 1.380 . S
C45 C46 1.347 . S
C45 H73 0.931 . S
C46 C45 1.347 . S
C46 C47 1.369 . S
C47 C46 1.369 . S
C47 C48 1.408 . S
C47 H74 0.930 . S
C48 C43 1.348 . S
C48 C47 1.408 . S
C48 H75 0.930 . S
C49 O62 1.281 1_556 S
C49 O63 1.254 . S
C50 O64 1.236 . S
C50 O65 1.266 . S
C51 Tb41 2.809 . S
C51 C52 1.514 . S
C51 O66 1.248 . S
C51 O67 1.266 . S
C52 C51 1.514 . S
C52 C53 1.359 1_554 S
C52 C57 1.348 . S
C53 C52 1.359 1_556 S
C53 C54 1.380 . S
C53 H76 0.929 . S
C54 C53 1.380 . S
C54 C55 1.347 1_556 S
C54 H77 0.931 . S
C55 C54 1.347 1_554 S
C55 C56 1.369 . S
C56 C55 1.369 . S
C56 C57 1.408 . S
C56 H78 0.930 . S
C57 C52 1.348 . S
C57 C56 1.408 . S
C57 H79 0.930 . S
C58 O68 1.281 . S
C58 O69 1.254 . S
C59 O70 1.236 . S
C59 O71 1.266 . S
O60 Tb40 2.484 . S
O60 C42 1.248 . S
O61 Tb40 2.440 . S
O61 C42 1.266 . S
O62 Tb40 2.658 . S
O62 Tb41 2.325 . S
O62 C49 1.281 1_554 S
O63 Tb40 2.409 1_556 S
O63 C49 1.254 . S
O64 Tb40 2.378 . S
O64 C50 1.236 . S
O65 Tb41 2.341 . S
O65 C50 1.266 . S
O66 Tb41 2.484 . S
O66 C51 1.248 . S
O67 Tb41 2.440 . S
O67 C51 1.266 . S
O68 Tb40 2.325 . S
O68 Tb41 2.658 . S
O68 C58 1.281 . S
O69 Tb41 2.409 . S
O69 C58 1.254 . S
O70 Tb41 2.378 . S
O70 C59 1.236 . S
O71 Tb40 2.341 . S
O71 C59 1.266 . S
H72 C44 0.929 . S
H73 C45 0.931 . S
H74 C47 0.930 . S
H75 C48 0.930 . S
H76 C53 0.929 . S
H77 C54 0.931 . S
H78 C56 0.930 . S
H79 C57 0.930 . S
Tb80 C82 2.809 . S
Tb80 O100 2.484 . S
Tb80 O101 2.440 . S
Tb80 O102 2.658 . S
Tb80 O103 2.409 1_554 S
Tb80 O104 2.378 . S
Tb80 O108 2.325 . S
Tb80 O111 2.341 . S
Tb81 C91 2.809 . S
Tb81 O102 2.325 . S
Tb81 O105 2.341 . S
Tb81 O106 2.484 . S
Tb81 O107 2.440 . S
Tb81 O108 2.658 . S
Tb81 O109 2.409 . S
Tb81 O110 2.378 . S
C82 Tb80 2.809 . S
C82 C83 1.514 . S
C82 O100 1.248 . S
C82 O101 1.266 . S
C83 C82 1.514 . S
C83 C84 1.359 . S
C83 C88 1.348 1_545 S
C84 C83 1.359 . S
C84 C85 1.380 1_545 S
C84 H112 0.929 . S
C85 C84 1.380 1_565 S
C85 C86 1.347 . S
C85 H113 0.919 1_565 S
C86 C85 1.347 . S
C86 C87 1.369 . S
C87 C86 1.369 . S
C87 C88 1.408 . S
C87 H114 0.930 . S
C88 C83 1.348 1_565 S
C88 C87 1.408 . S
C88 H115 0.930 . S
C89 O102 1.281 1_556 S
C89 O103 1.254 . S
C90 O104 1.236 . S
C90 O105 1.266 . S
C91 Tb81 2.809 . S
C91 C92 1.514 . S
C91 O106 1.248 . S
C91 O107 1.266 . S
C92 C91 1.514 . S
C92 C93 1.359 1_554 S
C92 C97 1.348 . S
C93 C92 1.359 1_556 S
C93 C94 1.380 . S
C93 H116 0.929 . S
C94 C93 1.380 . S
C94 C95 1.347 1_556 S
C94 H117 0.931 . S
C95 C94 1.347 1_554 S
C95 C96 1.369 . S
C96 C95 1.369 . S
C96 C97 1.408 . S
C96 H118 0.930 . S
C97 C92 1.348 . S
C97 C96 1.408 . S
C97 H119 0.930 . S
C98 O108 1.281 . S
C98 O109 1.254 . S
C99 O110 1.236 . S
C99 O111 1.266 . S
O100 Tb80 2.484 . S
O100 C82 1.248 . S
O101 Tb80 2.440 . S
O101 C82 1.266 . S
O102 Tb80 2.658 . S
O102 Tb81 2.325 . S
O102 C89 1.281 1_554 S
O103 Tb80 2.409 1_556 S
O103 C89 1.254 . S
O104 Tb80 2.378 . S
O104 C90 1.236 . S
O105 Tb81 2.341 . S
O105 C90 1.266 . S
O106 Tb81 2.484 . S
O106 C91 1.248 . S
O107 Tb81 2.440 . S
O107 C91 1.266 . S
O108 Tb80 2.325 . S
O108 Tb81 2.658 . S
O108 C98 1.281 . S
O109 Tb81 2.409 . S
O109 C98 1.254 . S
O110 Tb81 2.378 . S
O110 C99 1.236 . S
O111 Tb80 2.341 . S
O111 C99 1.266 . S
H112 C84 0.929 . S
H113 C85 0.919 1_545 S
H114 C87 0.930 . S
H115 C88 0.930 . S
H116 C93 0.929 . S
H117 C94 0.931 . S
H118 C96 0.930 . S
H119 C97 0.930 . S
Tb120 C122 2.809 . S
Tb120 O140 2.484 . S
Tb120 O141 2.440 . S
Tb120 O142 2.658 . S
Tb120 O143 2.409 1_554 S
Tb120 O144 2.378 . S
Tb120 O148 2.325 . S
Tb120 O151 2.341 1_565 S
Tb121 C131 2.809 1_565 S
Tb121 O142 2.325 . S
Tb121 O145 2.341 . S
Tb121 O146 2.484 1_565 S
Tb121 O147 2.440 1_565 S
Tb121 O148 2.658 . S
Tb121 O149 2.409 . S
Tb121 O150 2.378 1_565 S
C122 Tb120 2.809 . S
C122 C123 1.514 . S
C122 O140 1.248 . S
C122 O141 1.266 . S
C123 C122 1.514 . S
C123 C124 1.359 . S
C123 C128 1.348 . S
C124 C123 1.359 . S
C124 C125 1.380 . S
C124 H152 0.929 . S
C125 C124 1.380 . S
C125 C126 1.347 . S
C125 H153 0.931 . S
C126 C125 1.347 . S
C126 C127 1.369 . S
C127 C126 1.369 . S
C127 C128 1.408 . S
C127 H154 0.930 . S
C128 C123 1.348 . S
C128 C127 1.408 . S
C128 H155 0.930 . S
C129 O142 1.281 1_556 S
C129 O143 1.254 . S
C130 O144 1.236 . S
C130 O145 1.266 . S
C131 Tb121 2.809 1_545 S
C131 C132 1.514 . S
C131 O146 1.248 . S
C131 O147 1.266 . S
C132 C131 1.514 . S
C132 C133 1.359 . S
C132 C137 1.348 . S
C133 C132 1.359 . S
C133 C134 1.380 . S
C133 H156 0.929 1_554 S
C134 C133 1.380 . S
C134 C135 1.347 . S
C134 H157 0.931 1_554 S
C135 C134 1.347 . S
C135 C136 1.369 . S
C136 C135 1.369 . S
C136 C137 1.408 . S
C136 H158 0.930 . S
C137 C132 1.348 . S
C137 C136 1.408 . S
C137 H159 0.930 . S
C138 O148 1.281 . S
C138 O149 1.254 . S
C139 O150 1.236 . S
C139 O151 1.266 . S
O140 Tb120 2.484 . S
O140 C122 1.248 . S
O141 Tb120 2.440 . S
O141 C122 1.266 . S
O142 Tb120 2.658 . S
O142 Tb121 2.325 . S
O142 C129 1.281 1_554 S
O143 Tb120 2.409 1_556 S
O143 C129 1.254 . S
O144 Tb120 2.378 . S
O144 C130 1.236 . S
O145 Tb121 2.341 . S
O145 C130 1.266 . S
O146 Tb121 2.484 1_545 S
O146 C131 1.248 . S
O147 Tb121 2.440 1_545 S
O147 C131 1.266 . S
O148 Tb120 2.325 . S
O148 Tb121 2.658 . S
O148 C138 1.281 . S
O149 Tb121 2.409 . S
O149 C138 1.254 . S
O150 Tb121 2.378 1_545 S
O150 C139 1.236 . S
O151 Tb120 2.341 1_545 S
O151 C139 1.266 . S
H152 C124 0.929 . S
H153 C125 0.931 . S
H154 C127 0.930 . S
H155 C128 0.930 . S
H156 C133 0.929 1_556 S
H157 C134 0.931 1_556 S
H158 C136 0.930 . S
H159 C137 0.930 . S
Tb160 C162 2.809 . S
Tb160 O180 2.484 . S
Tb160 O181 2.440 . S
Tb160 O182 2.658 . S
Tb160 O183 2.409 1_554 S
Tb160 O184 2.378 . S
Tb160 O188 2.325 . S
Tb160 O191 2.341 . S
Tb161 C171 2.809 . S
Tb161 O182 2.325 . S
Tb161 O185 2.341 . S
Tb161 O186 2.484 . S
Tb161 O187 2.440 . S
Tb161 O188 2.658 . S
Tb161 O189 2.409 . S
Tb161 O190 2.378 . S
C162 Tb160 2.809 . S
C162 C163 1.514 . S
C162 O180 1.248 . S
C162 O181 1.266 . S
C163 C162 1.514 . S
C163 C164 1.359 . S
C163 C168 1.348 . S
C164 C163 1.359 . S
C164 C165 1.380 . S
C164 H192 0.929 . S
C165 C164 1.380 . S
C165 C166 1.347 . S
C165 H193 0.931 . S
C166 C165 1.347 . S
C166 C167 1.369 . S
C167 C166 1.369 . S
C167 C168 1.408 . S
C167 H194 0.930 . S
C168 C163 1.348 . S
C168 C167 1.408 . S
C168 H195 0.930 . S
C169 O182 1.281 1_556 S
C169 O183 1.254 . S
C170 O184 1.236 . S
C170 O185 1.266 . S
C171 Tb161 2.809 . S
C171 C172 1.514 . S
C171 O186 1.248 . S
C171 O187 1.266 . S
C172 C171 1.514 . S
C172 C173 1.359 . S
C172 C177 1.348 . S
C173 C172 1.359 . S
C173 C174 1.380 . S
C173 H196 0.929 1_554 S
C174 C173 1.380 . S
C174 C175 1.347 . S
C174 H197 0.931 1_554 S
C175 C174 1.347 . S
C175 C176 1.369 . S
C176 C175 1.369 . S
C176 C177 1.408 . S
C176 H198 0.930 . S
C177 C172 1.348 . S
C177 C176 1.408 . S
C177 H199 0.930 . S
C178 O188 1.281 . S
C178 O189 1.254 . S
C179 O190 1.236 . S
C179 O191 1.266 . S
O180 Tb160 2.484 . S
O180 C162 1.248 . S
O181 Tb160 2.440 . S
O181 C162 1.266 . S
O182 Tb160 2.658 . S
O182 Tb161 2.325 . S
O182 C169 1.281 1_554 S
O183 Tb160 2.409 1_556 S
O183 C169 1.254 . S
O184 Tb160 2.378 . S
O184 C170 1.236 . S
O185 Tb161 2.341 . S
O185 C170 1.266 . S
O186 Tb161 2.484 . S
O186 C171 1.248 . S
O187 Tb161 2.440 . S
O187 C171 1.266 . S
O188 Tb160 2.325 . S
O188 Tb161 2.658 . S
O188 C178 1.281 . S
O189 Tb161 2.409 . S
O189 C178 1.254 . S
O190 Tb161 2.378 . S
O190 C179 1.236 . S
O191 Tb160 2.341 . S
O191 C179 1.266 . S
H192 C164 0.929 . S
H193 C165 0.931 . S
H194 C167 0.930 . S
H195 C168 0.930 . S
H196 C173 0.929 1_556 S
H197 C174 0.931 1_556 S
H198 C176 0.930 . S
H199 C177 0.930 . S
Tb200 C202 2.809 . S
Tb200 O220 2.484 . S
Tb200 O221 2.440 . S
Tb200 O222 2.658 . S
Tb200 O223 2.409 1_554 S
Tb200 O224 2.378 . S
Tb200 O228 2.325 . S
Tb200 O231 2.341 . S
Tb201 C211 2.809 . S
Tb201 O222 2.325 . S
Tb201 O225 2.341 . S
Tb201 O226 2.484 . S
Tb201 O227 2.440 . S
Tb201 O228 2.658 . S
Tb201 O229 2.409 . S
Tb201 O230 2.378 . S
C202 Tb200 2.809 . S
C202 C203 1.514 . S
C202 O220 1.248 . S
C202 O221 1.266 . S
C203 C202 1.514 . S
C203 C204 1.359 . S
C203 C208 1.348 . S
C204 C203 1.359 . S
C204 C205 1.380 . S
C204 H232 0.929 . S
C205 C204 1.380 . S
C205 C206 1.347 . S
C205 H233 0.931 . S
C206 C205 1.347 . S
C206 C207 1.369 . S
C207 C206 1.369 . S
C207 C208 1.408 . S
C207 H234 0.930 . S
C208 C203 1.348 . S
C208 C207 1.408 . S
C208 H235 0.930 . S
C209 O222 1.281 1_556 S
C209 O223 1.254 . S
C210 O224 1.236 . S
C210 O225 1.266 . S
C211 Tb201 2.809 . S
C211 C212 1.514 . S
C211 O226 1.248 . S
C211 O227 1.266 . S
C212 C211 1.514 . S
C212 C213 1.359 . S
C212 C217 1.348 . S
C213 C212 1.359 . S
C213 C214 1.380 . S
C213 H236 0.929 1_554 S
C214 C213 1.380 . S
C214 C215 1.347 . S
C214 H237 0.931 1_554 S
C215 C214 1.347 . S
C215 C216 1.369 . S
C216 C215 1.369 . S
C216 C217 1.408 . S
C216 H238 0.930 . S
C217 C212 1.348 . S
C217 C216 1.408 . S
C217 H239 0.930 . S
C218 O228 1.281 . S
C218 O229 1.254 . S
C219 O230 1.236 . S
C219 O231 1.266 . S
O220 Tb200 2.484 . S
O220 C202 1.248 . S
O221 Tb200 2.440 . S
O221 C202 1.266 . S
O222 Tb200 2.658 . S
O222 Tb201 2.325 . S
O222 C209 1.281 1_554 S
O223 Tb200 2.409 1_556 S
O223 C209 1.254 . S
O224 Tb200 2.378 . S
O224 C210 1.236 . S
O225 Tb201 2.341 . S
O225 C210 1.266 . S
O226 Tb201 2.484 . S
O226 C211 1.248 . S
O227 Tb201 2.440 . S
O227 C211 1.266 . S
O228 Tb200 2.325 . S
O228 Tb201 2.658 . S
O228 C218 1.281 . S
O229 Tb201 2.409 . S
O229 C218 1.254 . S
O230 Tb201 2.378 . S
O230 C219 1.236 . S
O231 Tb200 2.341 . S
O231 C219 1.266 . S
H232 C204 0.929 . S
H233 C205 0.931 . S
H234 C207 0.930 . S
H235 C208 0.930 . S
H236 C213 0.929 1_556 S
H237 C214 0.931 1_556 S
H238 C216 0.930 . S
H239 C217 0.930 . S
Tb240 C242 2.809 . S
Tb240 O260 2.484 . S
Tb240 O261 2.440 . S
Tb240 O262 2.658 . S
Tb240 O263 2.409 . S
Tb240 O264 2.378 . S
Tb240 O268 2.325 . S
Tb240 O271 2.341 . S
Tb241 C251 2.809 . S
Tb241 O262 2.325 . S
Tb241 O265 2.341 . S
Tb241 O266 2.484 . S
Tb241 O267 2.440 . S
Tb241 O268 2.658 . S
Tb241 O269 2.409 . S
Tb241 O270 2.378 . S
C242 Tb240 2.809 . S
C242 C243 1.514 . S
C242 O260 1.248 . S
C242 O261 1.266 . S
C243 C242 1.514 . S
C243 C244 1.359 . S
C243 C248 1.348 . S
C244 C243 1.359 . S
C244 C245 1.380 . S
C244 H272 0.929 . S
C245 C244 1.380 . S
C245 C246 1.349 . S
C245 H273 0.931 . S
C246 C245 1.349 . S
C246 C247 1.370 . S
C247 C246 1.370 . S
C247 C248 1.408 . S
C247 H274 0.930 1_556 S
C248 C243 1.348 . S
C248 C247 1.408 . S
C248 H275 0.930 . S
C249 O262 1.281 . S
C249 O263 1.254 . S
C250 O264 1.236 . S
C250 O265 1.266 . S
C251 Tb241 2.809 . S
C251 C252 1.514 . S
C251 O266 1.248 . S
C251 O267 1.266 . S
C252 C251 1.514 . S
C252 C253 1.359 . S
C252 C257 1.348 . S
C253 C252 1.359 . S
C253 C254 1.380 . S
C253 H276 0.929 . S
C254 C253 1.380 . S
C254 C255 1.347 . S
C254 H277 0.931 . S
C255 C254 1.347 . S
C255 C256 1.369 . S
C256 C255 1.369 . S
C256 C257 1.408 . S
C256 H278 0.930 . S
C257 C252 1.348 . S
C257 C256 1.408 . S
C257 H279 0.930 . S
C258 O268 1.281 . S
C258 O269 1.254 . S
C259 O270 1.236 . S
C259 O271 1.266 . S
O260 Tb240 2.484 . S
O260 C242 1.248 . S
O261 Tb240 2.440 . S
O261 C242 1.266 . S
O262 Tb240 2.658 . S
O262 Tb241 2.325 . S
O262 C249 1.281 . S
O263 Tb240 2.409 . S
O263 C249 1.254 . S
O264 Tb240 2.378 . S
O264 C250 1.236 . S
O265 Tb241 2.341 . S
O265 C250 1.266 . S
O266 Tb241 2.484 . S
O266 C251 1.248 . S
O267 Tb241 2.440 . S
O267 C251 1.266 . S
O268 Tb240 2.325 . S
O268 Tb241 2.658 . S
O268 C258 1.281 . S
O269 Tb241 2.409 . S
O269 C258 1.254 . S
O270 Tb241 2.378 . S
O270 C259 1.236 . S
O271 Tb240 2.341 . S
O271 C259 1.266 . S
H272 C244 0.929 . S
H273 C245 0.931 . S
H274 C247 0.930 1_554 S
H275 C248 0.930 . S
H276 C253 0.929 . S
H277 C254 0.931 . S
H278 C256 0.930 . S
H279 C257 0.930 . S
Tb280 C282 2.809 . S
Tb280 O300 2.484 . S
Tb280 O301 2.440 . S
Tb280 O302 2.658 1_655 S
Tb280 O303 2.409 . S
Tb280 O304 2.378 . S
Tb280 O308 2.325 . S
Tb280 O311 2.341 . S
Tb281 C291 2.809 . S
Tb281 O302 2.325 . S
Tb281 O305 2.341 . S
Tb281 O306 2.484 . S
Tb281 O307 2.440 . S
Tb281 O308 2.658 1_455 S
Tb281 O309 2.409 1_455 S
Tb281 O310 2.378 . S
C282 Tb280 2.809 . S
C282 C283 1.514 . S
C282 O300 1.248 . S
C282 O301 1.266 . S
C283 C282 1.514 . S
C283 C284 1.359 . S
C283 C288 1.348 . S
C284 C283 1.359 . S
C284 C285 1.380 . S
C284 H312 0.929 . S
C285 C284 1.380 . S
C285 C286 1.350 . S
C285 H313 0.931 . S
C286 C285 1.350 . S
C286 C287 1.370 . S
C287 C286 1.370 . S
C287 C288 1.408 . S
C287 H314 0.930 1_556 S
C288 C283 1.348 . S
C288 C287 1.408 . S
C288 H315 0.930 . S
C289 O302 1.281 . S
C289 O303 1.254 1_455 S
C290 O304 1.236 . S
C290 O305 1.266 1_655 S
C291 Tb281 2.809 . S
C291 C292 1.514 . S
C291 O306 1.248 . S
C291 O307 1.266 . S
C292 C291 1.514 . S
C292 C293 1.359 . S
C292 C297 1.348 . S
C293 C292 1.359 . S
C293 C294 1.380 . S
C293 H316 0.929 . S
C294 C293 1.380 . S
C294 C295 1.347 . S
C294 H317 0.931 . S
C295 C294 1.347 . S
C295 C296 1.369 . S
C296 C295 1.369 . S
C296 C297 1.408 . S
C296 H318 0.930 . S
C297 C292 1.348 . S
C297 C296 1.408 . S
C297 H319 0.930 . S
C298 O308 1.281 . S
C298 O309 1.254 . S
C299 O310 1.236 . S
C299 O311 1.266 1_455 S
O300 Tb280 2.484 . S
O300 C282 1.248 . S
O301 Tb280 2.440 . S
O301 C282 1.266 . S
O302 Tb280 2.658 1_455 S
O302 Tb281 2.325 . S
O302 C289 1.281 . S
O303 Tb280 2.409 . S
O303 C289 1.254 1_655 S
O304 Tb280 2.378 . S
O304 C290 1.236 . S
O305 Tb281 2.341 . S
O305 C290 1.266 1_455 S
O306 Tb281 2.484 . S
O306 C291 1.248 . S
O307 Tb281 2.440 . S
O307 C291 1.266 . S
O308 Tb280 2.325 . S
O308 Tb281 2.658 1_655 S
O308 C298 1.281 . S
O309 Tb281 2.409 1_655 S
O309 C298 1.254 . S
O310 Tb281 2.378 . S
O310 C299 1.236 . S
O311 Tb280 2.341 . S
O311 C299 1.266 1_655 S
H312 C284 0.929 . S
H313 C285 0.931 . S
H314 C287 0.930 1_554 S
H315 C288 0.930 . S
H316 C293 0.929 . S
H317 C294 0.931 . S
H318 C296 0.930 . S
H319 C297 0.930 . S
Tb320 C322 2.809 1_655 S
Tb320 O340 2.484 1_655 S
Tb320 O341 2.440 . S
Tb320 O342 2.658 . S
Tb320 O343 2.409 . S
Tb320 O344 2.378 . S
Tb320 O348 2.325 1_655 S
Tb320 O351 2.341 . S
Tb321 C331 2.809 . S
Tb321 O342 2.325 . S
Tb321 O345 2.341 1_655 S
Tb321 O346 2.484 . S
Tb321 O347 2.440 1_655 S
Tb321 O348 2.658 1_655 S
Tb321 O349 2.409 1_655 S
Tb321 O350 2.378 . S
C322 Tb320 2.809 1_455 S
C322 C323 1.514 . S
C322 O340 1.248 . S
C322 O341 1.266 1_455 S
C323 C322 1.514 . S
C323 C324 1.359 . S
C323 C328 1.348 1_455 S
C324 C323 1.359 . S
C324 C325 1.380 . S
C324 H352 0.929 . S
C325 C324 1.380 . S
C325 C326 1.347 . S
C325 H353 0.931 . S
C326 C325 1.347 . S
C326 C327 1.394 . S
C327 C326 1.394 . S
C327 C328 1.392 1_455 S
C327 H354 0.923 1_456 S
C328 C323 1.348 1_655 S
C328 C327 1.392 1_655 S
C328 H355 0.930 . S
C329 O342 1.281 . S
C329 O343 1.254 . S
C330 O344 1.236 1_455 S
C330 O345 1.266 . S
C331 Tb321 2.809 . S
C331 C332 1.514 . S
C331 O346 1.248 . S
C331 O347 1.266 1_655 S
C332 C331 1.514 . S
C332 C333 1.359 . S
C332 C337 1.348 . S
C333 C332 1.359 . S
C333 C334 1.380 . S
C333 H356 0.929 . S
C334 C333 1.380 . S
C334 C335 1.347 . S
C334 H357 0.931 . S
C335 C334 1.347 . S
C335 C336 1.369 . S
C336 C335 1.369 . S
C336 C337 1.408 . S
C336 H358 0.930 . S
C337 C332 1.348 . S
C337 C336 1.408 . S
C337 H359 0.930 1_655 S
C338 O348 1.281 . S
C338 O349 1.254 . S
C339 O350 1.236 . S
C339 O351 1.266 . S
O340 Tb320 2.484 1_455 S
O340 C322 1.248 . S
O341 Tb320 2.440 . S
O341 C322 1.266 1_655 S
O342 Tb320 2.658 . S
O342 Tb321 2.325 . S
O342 C329 1.281 . S
O343 Tb320 2.409 . S
O343 C329 1.254 . S
O344 Tb320 2.378 . S
O344 C330 1.236 1_655 S
O345 Tb321 2.341 1_455 S
O345 C330 1.266 . S
O346 Tb321 2.484 . S
O346 C331 1.248 . S
O347 Tb321 2.440 1_455 S
O347 C331 1.266 1_455 S
O348 Tb320 2.325 1_455 S
O348 Tb321 2.658 1_455 S
O348 C338 1.281 . S
O349 Tb321 2.409 1_455 S
O349 C338 1.254 . S
O350 Tb321 2.378 . S
O350 C339 1.236 . S
O351 Tb320 2.341 . S
O351 C339 1.266 . S
H352 C324 0.929 . S
H353 C325 0.931 . S
H354 C327 0.923 1_654 S
H355 C328 0.930 . S
H356 C333 0.929 . S
H357 C334 0.931 . S
H358 C336 0.930 . S
H359 C337 0.930 1_455 S
C360 C361 1.369 . S
C360 C362 1.419 . S
C360 H364 0.930 . S
C361 C360 1.369 . S
C361 C370 1.429 . S
C362 C360 1.419 . S
C362 C363 1.363 . S
C362 H365 0.929 . S
C363 C362 1.363 . S
C363 C369 1.428 . S
H364 C360 0.930 . S
H365 C362 0.929 . S
S366 N367 1.613 . S
S366 N368 1.610 . S
N367 S366 1.613 . S
N367 C370 1.350 . S
N368 S366 1.610 . S
N368 C369 1.351 . S
C369 C363 1.428 . S
C369 N368 1.351 . S
C369 C370 1.434 . S
C370 C361 1.429 . S
C370 N367 1.350 . S
C370 C369 1.434 . S
C371 C372 1.369 . S
C371 C373 1.419 . S
C371 H375 0.930 . S
C372 C371 1.369 . S
C372 C381 1.429 . S
C373 C371 1.419 . S
C373 C374 1.363 . S
C373 H376 0.929 . S
C374 C373 1.363 . S
C374 C380 1.428 . S
H375 C371 0.930 . S
H376 C373 0.929 . S
S377 N378 1.613 . S
S377 N379 1.610 . S
N378 S377 1.613 . S
N378 C381 1.350 . S
N379 S377 1.610 . S
N379 C380 1.351 . S
C380 C374 1.428 . S
C380 N379 1.351 . S
C380 C381 1.434 . S
C381 C372 1.429 . S
C381 N378 1.350 . S
C381 C380 1.434 . S
C382 C383 1.369 . S
C382 C384 1.419 . S
C382 H386 0.930 . S
C383 C382 1.369 . S
C383 C392 1.429 . S
C384 C382 1.419 . S
C384 C385 1.363 . S
C384 H387 0.929 . S
C385 C384 1.363 . S
C385 C391 1.428 . S
H386 C382 0.930 . S
H387 C384 0.929 . S
S388 N389 1.613 . S
S388 N390 1.610 . S
N389 S388 1.613 . S
N389 C392 1.350 . S
N390 S388 1.610 . S
N390 C391 1.351 . S
C391 C385 1.428 . S
C391 N390 1.351 . S
C391 C392 1.434 . S
C392 C383 1.429 . S
C392 N389 1.350 . S
C392 C391 1.434 . S
C393 C394 1.369 . S
C393 C395 1.419 . S
C393 H397 0.930 . S
C394 C393 1.369 . S
C394 C403 1.429 1_565 S
C395 C393 1.419 . S
C395 C396 1.363 . S
C395 H398 0.929 . S
C396 C395 1.363 . S
C396 C402 1.428 1_565 S
H397 C393 0.930 . S
H398 C395 0.929 . S
S399 N400 1.613 . S
S399 N401 1.610 . S
N400 S399 1.613 . S
N400 C403 1.350 . S
N401 S399 1.610 . S
N401 C402 1.351 . S
C402 C396 1.428 1_545 S
C402 N401 1.351 . S
C402 C403 1.434 . S
C403 C394 1.429 1_545 S
C403 N400 1.350 . S
C403 C402 1.434 . S
C404 C405 1.369 . S
C404 C406 1.419 . S
C404 H408 0.930 . S
C405 C404 1.369 . S
C405 C414 1.429 . S
C406 C404 1.419 . S
C406 C407 1.363 . S
C406 H409 0.929 . S
C407 C406 1.363 . S
C407 C413 1.428 . S
H408 C404 0.930 . S
H409 C406 0.929 . S
S410 N411 1.613 . S
S410 N412 1.610 . S
N411 S410 1.613 . S
N411 C414 1.350 . S
N412 S410 1.610 . S
N412 C413 1.351 . S
C413 C407 1.428 . S
C413 N412 1.351 . S
C413 C414 1.434 . S
C414 C405 1.429 . S
C414 N411 1.350 . S
C414 C413 1.434 . S
C415 C416 1.369 . S
C415 C417 1.419 . S
C415 H419 0.930 . S
C416 C415 1.369 . S
C416 C425 1.429 . S
C417 C415 1.419 . S
C417 C418 1.363 . S
C417 H420 0.929 . S
C418 C417 1.363 . S
C418 C424 1.428 . S
H419 C415 0.930 . S
H420 C417 0.929 . S
S421 N422 1.613 . S
S421 N423 1.610 . S
N422 S421 1.613 . S
N422 C425 1.350 . S
N423 S421 1.610 . S
N423 C424 1.351 . S
C424 C418 1.428 . S
C424 N423 1.351 . S
C424 C425 1.434 . S
C425 C416 1.429 . S
C425 N422 1.350 . S
C425 C424 1.434 . S
C426 C427 1.369 . S
C426 C428 1.419 . S
C426 H430 0.930 . S
C427 C426 1.369 . S
C427 C436 1.429 . S
C428 C426 1.419 . S
C428 C429 1.363 . S
C428 H431 0.929 . S
C429 C428 1.363 . S
C429 C435 1.428 . S
H430 C426 0.930 . S
H431 C428 0.929 . S
S432 N433 1.613 . S
S432 N434 1.610 . S
N433 S432 1.613 . S
N433 C436 1.350 . S
N434 S432 1.610 . S
N434 C435 1.351 . S
C435 C429 1.428 . S
C435 N434 1.351 . S
C435 C436 1.434 . S
C436 C427 1.429 . S
C436 N433 1.350 . S
C436 C435 1.434 . S
C437 C438 1.369 . S
C437 C439 1.419 . S
C437 H441 0.930 . S
C438 C437 1.369 . S
C438 C447 1.429 1_455 S
C439 C437 1.419 . S
C439 C440 1.363 1_455 S
C439 H442 0.929 . S
C440 C439 1.363 1_655 S
C440 C446 1.428 . S
H441 C437 0.930 . S
H442 C439 0.929 . S
S443 N444 1.613 . S
S443 N445 1.610 . S
N444 S443 1.613 . S
N444 C447 1.350 . S
N445 S443 1.610 . S
N445 C446 1.351 . S
C446 C440 1.428 . S
C446 N445 1.351 . S
C446 C447 1.434 . S
C447 C438 1.429 1_655 S
C447 N444 1.350 . S
C447 C446 1.434 . S
C448 C449 1.369 1_455 S
C448 C450 1.419 . S
C448 H452 0.930 . S
C449 C448 1.369 1_655 S
C449 C458 1.429 . S
C450 C448 1.419 . S
C450 C451 1.363 . S
C450 H453 0.929 . S
C451 C450 1.363 . S
C451 C457 1.428 1_455 S
H452 C448 0.930 . S
H453 C450 0.929 . S
S454 N455 1.613 . S
S454 N456 1.610 . S
N455 S454 1.613 . S
N455 C458 1.350 . S
N456 S454 1.610 . S
N456 C457 1.351 . S
C457 C451 1.428 1_655 S
C457 N456 1.351 . S
C457 C458 1.434 . S
C458 C449 1.429 . S
C458 N455 1.350 . S
C458 C457 1.434 . S
C459 C460 1.369 . S
C459 C461 1.419 . S
C459 H463 0.930 . S
C460 C459 1.369 . S
C460 C469 1.429 . S
C461 C459 1.419 . S
C461 C462 1.363 . S
C461 H464 0.929 . S
C462 C461 1.363 . S
C462 C468 1.428 . S
H463 C459 0.930 . S
H464 C461 0.929 . S
S465 N466 1.613 . S
S465 N467 1.610 . S
N466 S465 1.613 . S
N466 C469 1.350 1_556 S
N467 S465 1.610 . S
N467 C468 1.351 1_556 S
C468 C462 1.428 . S
C468 N467 1.351 1_554 S
C468 C469 1.434 . S
C469 C460 1.429 . S
C469 N466 1.350 1_554 S
C469 C468 1.434 . S
C470 C471 1.369 . S
C470 C472 1.419 . S
C470 H474 0.930 . S
C471 C470 1.369 . S
C471 C480 1.429 . S
C472 C470 1.419 . S
C472 C473 1.363 . S
C472 H475 0.929 . S
C473 C472 1.363 . S
C473 C479 1.428 . S
H474 C470 0.930 . S
H475 C472 0.929 . S
S476 N477 1.613 . S
S476 N478 1.610 . S
N477 S476 1.613 . S
N477 C480 1.350 . S
N478 S476 1.610 . S
N478 C479 1.351 . S
C479 C473 1.428 . S
C479 N478 1.351 . S
C479 C480 1.434 . S
C480 C471 1.429 . S
C480 N477 1.350 . S
C480 C479 1.434 . S
C481 C482 1.369 . S
C481 C483 1.419 . S
C481 H485 0.930 . S
C482 C481 1.369 . S
C482 C491 1.429 . S
C483 C481 1.419 . S
C483 C484 1.363 . S
C483 H486 0.929 . S
C484 C483 1.363 . S
C484 C490 1.428 . S
H485 C481 0.930 . S
H486 C483 0.929 . S
S487 N488 1.613 . S
S487 N489 1.610 . S
N488 S487 1.613 . S
N488 C491 1.350 . S
N489 S487 1.610 . S
N489 C490 1.351 . S
C490 C484 1.428 . S
C490 N489 1.351 . S
C490 C491 1.434 . S
C491 C482 1.429 . S
C491 N488 1.350 . S
C491 C490 1.434 . S
C492 C493 1.369 . S
C492 C494 1.419 1_554 S
C492 H496 0.930 . S
C493 C492 1.369 . S
C493 C502 1.429 1_554 S
C494 C492 1.419 1_556 S
C494 C495 1.363 . S
C494 H497 0.929 . S
C495 C494 1.363 . S
C495 C501 1.428 . S
H496 C492 0.930 . S
H497 C494 0.929 . S
S498 N499 1.613 . S
S498 N500 1.610 . S
N499 S498 1.613 . S
N499 C502 1.350 . S
N500 S498 1.610 . S
N500 C501 1.351 . S
C501 C495 1.428 . S
C501 N500 1.351 . S
C501 C502 1.434 . S
C502 C493 1.429 1_556 S
C502 N499 1.350 . S
C502 C501 1.434 . S
C503 C504 1.369 . S
C503 C505 1.419 1_556 S
C503 H507 0.929 1_556 S
C504 C503 1.369 . S
C504 C513 1.429 . S
C505 C503 1.419 1_554 S
C505 C506 1.363 . S
C505 H508 0.929 . S
C506 C505 1.363 . S
C506 C512 1.428 1_554 S
H507 C503 0.929 1_554 S
H508 C505 0.929 . S
S509 N510 1.613 . S
S509 N511 1.610 . S
N510 S509 1.613 . S
N510 C513 1.350 . S
N511 S509 1.610 . S
N511 C512 1.351 . S
C512 C506 1.428 1_556 S
C512 N511 1.351 . S
C512 C513 1.434 . S
C513 C504 1.429 . S
C513 N510 1.350 . S
C513 C512 1.434 . S
C514 C515 1.369 . S
C514 C516 1.419 . S
C514 H518 0.930 . S
C515 C514 1.369 . S
C515 C524 1.429 . S
C516 C514 1.419 . S
C516 C517 1.363 1_556 S
C516 H519 0.929 . S
C517 C516 1.363 1_554 S
C517 C523 1.428 . S
H518 C514 0.930 . S
H519 C516 0.929 . S
S520 N521 1.613 . S
S520 N522 1.610 . S
N521 S520 1.613 . S
N521 C524 1.350 1_554 S
N522 S520 1.610 . S
N522 C523 1.351 . S
C523 C517 1.428 . S
C523 N522 1.351 . S
C523 C524 1.434 1_554 S
C524 C515 1.429 . S
C524 N521 1.350 1_556 S
C524 C523 1.434 1_556 S
C525 C526 1.369 . S
C525 C527 1.419 . S
C525 H529 0.930 1_554 S
C526 C525 1.369 . S
C526 C535 1.429 . S
C527 C525 1.419 . S
C527 C528 1.363 . S
C527 H530 0.929 1_554 S
C528 C527 1.363 . S
C528 C534 1.428 . S
H529 C525 0.930 1_556 S
H530 C527 0.929 1_556 S
S531 N532 1.613 . S
S531 N533 1.610 . S
N532 S531 1.613 . S
N532 C535 1.350 1_655 S
N533 S531 1.610 . S
N533 C534 1.351 1_655 S
C534 C528 1.428 . S
C534 N533 1.351 1_455 S
C534 C535 1.434 . S
C535 C526 1.429 . S
C535 N532 1.350 1_455 S
C535 C534 1.434 . S
C536 C537 1.369 1_556 S
C536 C538 1.419 . S
C536 H540 0.930 . S
C537 C536 1.369 1_554 S
C537 C546 1.429 . S
C538 C536 1.419 . S
C538 C539 1.363 1_556 S
C538 H541 0.929 . S
C539 C538 1.363 1_554 S
C539 C545 1.428 . S
H540 C536 0.930 . S
H541 C538 0.929 . S
S542 N543 1.613 . S
S542 N544 1.610 . S
N543 S542 1.613 . S
N543 C546 1.350 . S
N544 S542 1.610 . S
N544 C545 1.351 . S
C545 C539 1.428 . S
C545 N544 1.351 . S
C545 C546 1.434 . S
C546 C537 1.429 . S
C546 N543 1.350 . S
C546 C545 1.434 . S
C547 C548 1.369 . S
C547 C549 1.419 . S
C547 H551 0.930 . S
C548 C547 1.369 . S
C548 C557 1.429 . S
C549 C547 1.419 . S
C549 C550 1.363 . S
C549 H552 0.929 . S
C550 C549 1.363 . S
C550 C556 1.428 . S
H551 C547 0.930 . S
H552 C549 0.929 . S
S553 N554 1.613 1_556 S
S553 N555 1.610 1_556 S
N554 S553 1.613 1_554 S
N554 C557 1.350 . S
N555 S553 1.610 1_554 S
N555 C556 1.351 . S
C556 C550 1.428 . S
C556 N555 1.351 . S
C556 C557 1.434 . S
C557 C548 1.429 . S
C557 N554 1.350 . S
C557 C556 1.434 . S
C558 C559 1.369 . S
C558 C560 1.419 . S
C558 H562 0.930 . S
C559 C558 1.369 . S
C559 C568 1.429 . S
C560 C558 1.419 . S
C560 C561 1.363 . S
C560 H563 0.929 . S
C561 C560 1.363 . S
C561 C567 1.428 . S
H562 C558 0.930 . S
H563 C560 0.929 . S
S564 N565 1.613 1_565 S
S564 N566 1.610 1_565 S
N565 S564 1.613 1_545 S
N565 C568 1.350 . S
N566 S564 1.610 1_545 S
N566 C567 1.351 . S
C567 C561 1.428 . S
C567 N566 1.351 . S
C567 C568 1.434 . S
C568 C559 1.429 . S
C568 N565 1.350 . S
C568 C567 1.434 . S
C569 C570 1.369 . S
C569 C571 1.419 . S
C569 H573 0.930 1_554 S
C570 C569 1.369 . S
C570 C579 1.429 . S
C571 C569 1.419 . S
C571 C572 1.363 . S
C571 H574 0.929 1_554 S
C572 C571 1.363 . S
C572 C578 1.428 . S
H573 C569 0.930 1_556 S
H574 C571 0.929 1_556 S
S575 N576 1.613 . S
S575 N577 1.610 . S
N576 S575 1.613 . S
N576 C579 1.350 . S
N577 S575 1.610 . S
N577 C578 1.351 . S
C578 C572 1.428 . S
C578 N577 1.351 . S
C578 C579 1.434 . S
C579 C570 1.429 . S
C579 N576 1.350 . S
C579 C578 1.434 . S
C580 C581 1.369 . S
C580 C582 1.419 . S
C580 H584 0.930 1_554 S
C581 C580 1.369 . S
C581 C590 1.429 . S
C582 C580 1.419 . S
C582 C583 1.363 . S
C582 H585 0.929 1_554 S
C583 C582 1.363 . S
C583 C589 1.428 . S
H584 C580 0.930 1_556 S
H585 C582 0.929 1_556 S
S586 N587 1.613 . S
S586 N588 1.610 . S
N587 S586 1.613 . S
N587 C590 1.350 . S
N588 S586 1.610 . S
N588 C589 1.351 . S
C589 C583 1.428 . S
C589 N588 1.351 . S
C589 C590 1.434 . S
C590 C581 1.429 . S
C590 N587 1.350 . S
C590 C589 1.434 . S
C591 C592 1.369 . S
C591 C593 1.419 . S
C591 H595 0.930 . S
C592 C591 1.369 . S
C592 C601 1.429 . S
C593 C591 1.419 . S
C593 C594 1.363 . S
C593 H596 0.929 . S
C594 C593 1.363 . S
C594 C600 1.428 . S
H595 C591 0.930 . S
H596 C593 0.929 . S
S597 N598 1.613 . S
S597 N599 1.610 . S
N598 S597 1.613 . S
N598 C601 1.350 . S
N599 S597 1.610 . S
N599 C600 1.351 . S
C600 C594 1.428 . S
C600 N599 1.351 . S
C600 C601 1.434 . S
C601 C592 1.429 . S
C601 N598 1.350 . S
C601 C600 1.434 . S
C602 C603 1.369 . S
C602 C604 1.419 1_545 S
C602 H606 0.930 . S
C603 C602 1.369 . S
C603 C612 1.429 . S
C604 C602 1.419 1_565 S
C604 C605 1.363 . S
C604 H607 0.929 . S
C605 C604 1.363 . S
C605 C611 1.428 1_565 S
H606 C602 0.930 . S
H607 C604 0.929 . S
S608 N609 1.613 . S
S608 N610 1.610 . S
N609 S608 1.613 . S
N609 C612 1.350 . S
N610 S608 1.610 . S
N610 C611 1.351 . S
C611 C605 1.428 1_545 S
C611 N610 1.351 . S
C611 C612 1.434 . S
C612 C603 1.429 . S
C612 N609 1.350 . S
C612 C611 1.434 . S
C613 C614 1.369 . S
C613 C615 1.419 . S
C613 H617 0.930 . S
C614 C613 1.369 . S
C614 C623 1.429 . S
C615 C613 1.419 . S
C615 C616 1.363 . S
C615 H618 0.929 . S
C616 C615 1.363 . S
C616 C622 1.428 . S
H617 C613 0.930 . S
H618 C615 0.929 . S
S619 N620 1.613 1_556 S
S619 N621 1.610 1_556 S
N620 S619 1.613 1_554 S
N620 C623 1.350 . S
N621 S619 1.610 1_554 S
N621 C622 1.351 . S
C622 C616 1.428 . S
C622 N621 1.351 . S
C622 C623 1.434 . S
C623 C614 1.429 . S
C623 N620 1.350 . S
C623 C622 1.434 . S
C624 C625 1.369 . S
C624 C626 1.419 . S
C624 H628 0.930 . S
C625 C624 1.369 . S
C625 C634 1.429 . S
C626 C624 1.419 . S
C626 C627 1.363 . S
C626 H629 0.929 . S
C627 C626 1.363 . S
C627 C633 1.428 . S
H628 C624 0.930 . S
H629 C626 0.929 . S
S630 N631 1.613 . S
S630 N632 1.610 . S
N631 S630 1.613 . S
N631 C634 1.350 . S
N632 S630 1.610 . S
N632 C633 1.351 . S
C633 C627 1.428 . S
C633 N632 1.351 . S
C633 C634 1.434 . S
C634 C625 1.429 . S
C634 N631 1.350 . S
C634 C633 1.434 . S
C635 C636 1.369 . S
C635 C637 1.419 . S
C635 H639 0.930 . S
C636 C635 1.369 . S
C636 C645 1.429 . S
C637 C635 1.419 . S
C637 C638 1.363 . S
C637 H640 0.929 . S
C638 C637 1.363 . S
C638 C644 1.428 . S
H639 C635 0.930 . S
H640 C637 0.929 . S
S641 N642 1.613 . S
S641 N643 1.610 . S
N642 S641 1.613 . S
N642 C645 1.350 . S
N643 S641 1.610 . S
N643 C644 1.351 . S
C644 C638 1.428 . S
C644 N643 1.351 . S
C644 C645 1.434 . S
C645 C636 1.429 . S
C645 N642 1.350 . S
C645 C644 1.434 . S
C646 C647 1.369 . S
C646 C648 1.419 . S
C646 H650 0.930 . S
C647 C646 1.369 . S
C647 C656 1.429 . S
C648 C646 1.419 . S
C648 C649 1.363 . S
C648 H651 0.929 . S
C649 C648 1.363 . S
C649 C655 1.428 . S
H650 C646 0.930 . S
H651 C648 0.929 . S
S652 N653 1.613 . S
S652 N654 1.610 . S
N653 S652 1.613 . S
N653 C656 1.350 . S
N654 S652 1.610 . S
N654 C655 1.351 . S
C655 C649 1.428 . S
C655 N654 1.351 . S
C655 C656 1.434 . S
C656 C647 1.429 . S
C656 N653 1.350 . S
C656 C655 1.434 . S
C361 C9 1.532 . S
C363 C18 1.532 . S
C372 C49 1.529 . S
C374 C58 1.534 . S
C383 C89 1.530 . S
C385 C98 1.533 . S
C394 C138 1.533 . S
C396 C129 1.531 . S
C405 C178 1.529 . S
C407 C169 1.534 . S
C416 C218 1.533 . S
C418 C209 1.531 . S
C427 C259 1.486 . S
C429 C250 1.489 1_554 S
C438 C299 1.481 . S
C440 C290 1.493 1_554 S
C449 C339 1.488 . S
C451 C330 1.487 1_554 S
C460 C210 2.772 . S
C462 C6 2.670 . S
C471 C46 2.669 . S
C473 C130 2.772 . S
C482 C86 2.675 . S
C484 C170 2.770 . S
C493 C90 2.306 . S
C495 C249 2.540 . S
C504 C289 2.541 . S
C506 C10 2.308 . S
C515 C329 2.538 . S
C517 C50 2.313 . S
C526 C326 1.125 1_554 S
C528 C15 1.134 . S
C537 C55 1.132 . S
C539 C246 1.124 1_554 S
C548 C286 1.119 1_554 S
C550 C95 1.129 . S
C559 C99 2.773 . S
C561 C135 2.669 . S
C570 C175 2.671 . S
C572 C19 2.770 . S
C581 C59 2.769 . S
C583 C215 2.673 . S
C592 C335 1.124 . S
C594 C126 1.129 . S
C603 C255 1.123 . S
C605 C166 1.135 . S
C614 C295 1.126 . S
C616 C206 1.133 . S
C625 C258 2.540 . S
C627 C219 2.310 . S
C636 C139 2.304 . S
C638 C298 2.540 . S
C647 C338 2.540 . S
C649 C179 2.305 . S
