# Generated by pormake.
# Topology unj, (4)-cn, num edge types: 1
# Building blocks:
#     Node 0, Type 0, BuildingBlock: UXUYUI_clean_sbu_0, # of connection points: 4
#     Node 1, Type 0, BuildingBlock: UXUYUI_clean_sbu_0, # of connection points: 4
#     Node 2, Type 0, BuildingBlock: UXUYUI_clean_sbu_0, # of connection points: 4
#     Node 3, Type 0, BuildingBlock: UXUYUI_clean_sbu_0, # of connection points: 4
#     Node 4, Type 0, BuildingBlock: UXUYUI_clean_sbu_0, # of connection points: 4
#     Node 5, Type 0, BuildingBlock: UXUYUI_clean_sbu_0, # of connection points: 4
#     Edge 6, Type (0, 0), BuildingBlock: UVAHIK_clean_linker_0, # of connection points: 2
#     Edge 7, Type (0, 0), BuildingBlock: UVAHIK_clean_linker_0, # of connection points: 2
#     Edge 8, Type (0, 0), BuildingBlock: UVAHIK_clean_linker_0, # of connection points: 2
#     Edge 9, Type (0, 0), BuildingBlock: UVAHIK_clean_linker_0, # of connection points: 2
#     Edge 10, Type (0, 0), BuildingBlock: UVAHIK_clean_linker_0, # of connection points: 2
#     Edge 11, Type (0, 0), BuildingBlock: UVAHIK_clean_linker_0, # of connection points: 2
#     Edge 12, Type (0, 0), BuildingBlock: UVAHIK_clean_linker_0, # of connection points: 2
#     Edge 13, Type (0, 0), BuildingBlock: UVAHIK_clean_linker_0, # of connection points: 2
#     Edge 14, Type (0, 0), BuildingBlock: UVAHIK_clean_linker_0, # of connection points: 2
#     Edge 15, Type (0, 0), BuildingBlock: UVAHIK_clean_linker_0, # of connection points: 2
#     Edge 16, Type (0, 0), BuildingBlock: UVAHIK_clean_linker_0, # of connection points: 2
#     Edge 17, Type (0, 0), BuildingBlock: UVAHIK_clean_linker_0, # of connection points: 2
# Relax obj value: 0.030
# Max RMSD: 0.052
# Mean RMSD: 0.052
data_MOF--net-unj--node1-UXUYUI_clean_sbu_0--edge1-UVAHIK_clean_linker_0
_symmetry_space_group_name_H-M    P1
_symmetry_Int_Tables_number       1
_symmetry_cell_setting            triclinic
loop_
_symmetry_equiv_pos_as_xyz
'x, y, z'
_cell_length_a     61.350274
_cell_length_b     61.366779
_cell_length_c     59.230747
_cell_angle_alpha  90.00199
_cell_angle_beta   89.966601
_cell_angle_gamma 119.99965
loop_
_atom_site_label
_atom_site_type_symbol
_atom_site_fract_x
_atom_site_fract_y
_atom_site_fract_z
_atom_type_partial_charge
Li0 Li 0.45484 0.20924 0.57671 0.0
Li1 Li 0.48861 0.23619 0.60324 0.0
Li2 Li 0.45478 0.24651 0.59288 0.0
Li3 Li 0.48858 0.25349 0.56623 0.0
C4 C 0.43165 0.19851 0.62052 0.0
N5 N 0.39085 0.16192 0.64407 0.0
C6 C 0.43516 0.18445 0.63721 0.0
C7 C 0.40746 0.19422 0.61603 0.0
C8 C 0.41427 0.16595 0.64886 0.0
C9 C 0.38706 0.17557 0.62807 0.0
C10 C 0.50929 0.21618 0.57526 0.0
C11 C 0.55246 0.2263 0.57919 0.0
N12 N 0.54473 0.20132 0.58018 0.0
C13 C 0.50177 0.19062 0.5761 0.0
C14 C 0.53483 0.23419 0.57661 0.0
C15 C 0.51998 0.18348 0.57867 0.0
C16 C 0.42928 0.17236 0.54332 0.0
N17 N 0.43469 0.17573 0.56573 0.0
C18 C 0.41296 0.13125 0.57173 0.0
C19 C 0.42701 0.1558 0.57991 0.0
C20 C 0.40709 0.12708 0.54862 0.0
C21 C 0.41544 0.14812 0.53436 0.0
H22 H 0.43603 0.18855 0.53233 0.0
H23 H 0.43211 0.15887 0.59752 0.0
C24 C 0.52284 0.25702 0.63957 0.0
N25 N 0.50912 0.23578 0.62722 0.0
C26 C 0.53824 0.25737 0.65709 0.0
C27 C 0.52507 0.21394 0.64889 0.0
C28 C 0.50961 0.21434 0.63179 0.0
C29 C 0.53972 0.23568 0.66187 0.0
H30 H 0.52169 0.27367 0.63591 0.0
H31 H 0.49804 0.1975 0.62211 0.0
C32 C 0.43207 0.23459 0.54871 0.0
N33 N 0.39225 0.23153 0.52434 0.0
C34 C 0.43629 0.25273 0.53237 0.0
C35 C 0.40767 0.2147 0.55242 0.0
C36 C 0.41589 0.25091 0.5203 0.0
C37 C 0.38777 0.21353 0.53999 0.0
C38 C 0.50896 0.29423 0.59438 0.0
C39 C 0.50113 0.31206 0.59401 0.0
C40 C 0.53457 0.3021 0.59272 0.0
C41 C 0.5191 0.33751 0.59162 0.0
C42 C 0.55194 0.32771 0.59032 0.0
N43 N 0.54391 0.34473 0.5898 0.0
C44 C 0.42951 0.2579 0.62649 0.0
C45 C 0.42647 0.2717 0.5899 0.0
C46 C 0.4157 0.26827 0.63562 0.0
N47 N 0.43455 0.25974 0.604 0.0
C48 C 0.41244 0.28215 0.59824 0.0
C49 C 0.40699 0.28069 0.62144 0.0
H50 H 0.43656 0.24868 0.6374 0.0
H51 H 0.43125 0.27356 0.57221 0.0
C52 C 0.52203 0.26626 0.52937 0.0
N53 N 0.50906 0.27435 0.54218 0.0
C54 C 0.53747 0.2812 0.51179 0.0
C55 C 0.52594 0.31251 0.52092 0.0
C56 C 0.51035 0.29676 0.53802 0.0
C57 C 0.53973 0.30475 0.50759 0.0
H58 H 0.52037 0.24819 0.5328 0.0
H59 H 0.49924 0.30241 0.54794 0.0
O60 O 0.45193 0.21668 0.60897 0.0
O61 O 0.49171 0.22351 0.57289 0.0
O62 O 0.45187 0.23611 0.56064 0.0
O63 O 0.49163 0.26923 0.59659 0.0
H64 H 0.4538 0.18769 0.64101 0.0
H65 H 0.40448 0.20531 0.60356 0.0
H66 H 0.41667 0.15481 0.66172 0.0
H67 H 0.36822 0.17201 0.62474 0.0
H68 H 0.5723 0.24003 0.58037 0.0
H69 H 0.48208 0.17644 0.57494 0.0
H70 H 0.54097 0.25402 0.57569 0.0
H71 H 0.51443 0.16377 0.57949 0.0
H72 H 0.40677 0.11573 0.58346 0.0
H73 H 0.41184 0.14592 0.51638 0.0
H74 H 0.54861 0.2744 0.66691 0.0
H75 H 0.52567 0.19682 0.65167 0.0
H76 H 0.45511 0.26813 0.52916 0.0
H77 H 0.40414 0.20019 0.5646 0.0
H78 H 0.41886 0.2649 0.50771 0.0
H79 H 0.36877 0.19827 0.54272 0.0
H80 H 0.4814 0.3063 0.59542 0.0
H81 H 0.54095 0.28857 0.59325 0.0
H82 H 0.5133 0.35151 0.59118 0.0
H83 H 0.57181 0.33406 0.58889 0.0
H84 H 0.41241 0.26705 0.65365 0.0
H85 H 0.40595 0.29128 0.58659 0.0
H86 H 0.54784 0.27461 0.50183 0.0
H87 H 0.52692 0.3304 0.51791 0.0
Li88 Li 0.25418 0.4875 0.76951 0.0
Li89 Li 0.2471 0.45385 0.74275 0.0
Li90 Li 0.23639 0.48754 0.73277 0.0
Li91 Li 0.20995 0.45362 0.75958 0.0
C92 C 0.29446 0.50843 0.74119 0.0
N93 N 0.3447 0.54419 0.74583 0.0
C94 C 0.31271 0.50115 0.74161 0.0
C95 C 0.30177 0.53389 0.74284 0.0
C96 C 0.33801 0.51952 0.74404 0.0
C97 C 0.32726 0.55168 0.74527 0.0
C98 C 0.23478 0.43024 0.78634 0.0
C99 C 0.2124 0.38556 0.79339 0.0
N100 N 0.22984 0.38877 0.80921 0.0
C101 C 0.25233 0.43316 0.80283 0.0
C102 C 0.21453 0.4063 0.7817 0.0
C103 C 0.24956 0.41194 0.81414 0.0
C104 C 0.26759 0.52139 0.80603 0.0
N105 N 0.27526 0.50797 0.79341 0.0
C106 C 0.31327 0.52419 0.81479 0.0
C107 C 0.29738 0.50873 0.79772 0.0
C108 C 0.30604 0.53855 0.82806 0.0
C109 C 0.28266 0.53676 0.82355 0.0
H110 H 0.24965 0.52003 0.80259 0.0
H111 H 0.30276 0.49737 0.78784 0.0
C112 C 0.25806 0.4288 0.70873 0.0
N113 N 0.26029 0.43377 0.73124 0.0
C114 C 0.26818 0.41494 0.69925 0.0
C115 C 0.28272 0.41157 0.7363 0.0
C116 C 0.27249 0.42565 0.74502 0.0
C117 C 0.28072 0.40613 0.71311 0.0
H118 H 0.24857 0.43579 0.6981 0.0
H119 H 0.27477 0.43052 0.76269 0.0
C120 C 0.21583 0.50737 0.76139 0.0
N121 N 0.19917 0.5415 0.7574 0.0
C122 C 0.19005 0.499 0.76121 0.0
C123 C 0.23315 0.5331 0.75981 0.0
C124 C 0.182 0.51656 0.75912 0.0
C125 C 0.22435 0.55006 0.75771 0.0
C126 C 0.19885 0.43128 0.71495 0.0
C127 C 0.18492 0.43577 0.69884 0.0
C128 C 0.19444 0.40684 0.71816 0.0
C129 C 0.16647 0.41561 0.68644 0.0
C130 C 0.17584 0.38719 0.70542 0.0
N131 N 0.16234 0.39194 0.68997 0.0
C132 C 0.25672 0.52081 0.69586 0.0
C133 C 0.21476 0.5096 0.70495 0.0
C134 C 0.25719 0.53624 0.67831 0.0
N135 N 0.23579 0.50806 0.70887 0.0
C136 C 0.21456 0.52517 0.68786 0.0
C137 C 0.23599 0.53872 0.67431 0.0
H138 H 0.27306 0.51896 0.6991 0.0
H139 H 0.19809 0.49867 0.71502 0.0
C140 C 0.17453 0.43156 0.79429 0.0
N141 N 0.17682 0.43341 0.77144 0.0
C142 C 0.15078 0.4181 0.80431 0.0
C143 C 0.13219 0.40839 0.76708 0.0
C144 C 0.15625 0.42228 0.7578 0.0
C145 C 0.12923 0.40633 0.79063 0.0
H146 H 0.19119 0.44081 0.80473 0.0
H147 H 0.15837 0.42453 0.73975 0.0
O148 O 0.2696 0.4907 0.73896 0.0
O149 O 0.23724 0.45084 0.77515 0.0
O150 O 0.22405 0.49045 0.76335 0.0
O151 O 0.21697 0.45084 0.7272 0.0
H152 H 0.30736 0.48151 0.74023 0.0
H153 H 0.28789 0.53984 0.74229 0.0
H154 H 0.35234 0.51415 0.74452 0.0
H155 H 0.33318 0.57145 0.74668 0.0
H156 H 0.19685 0.36691 0.78994 0.0
H157 H 0.26801 0.45161 0.80673 0.0
H158 H 0.20049 0.40378 0.76936 0.0
H159 H 0.26309 0.41389 0.82684 0.0
H160 H 0.33114 0.52503 0.81733 0.0
H161 H 0.27586 0.54686 0.8336 0.0
H162 H 0.26614 0.41108 0.6813 0.0
H163 H 0.29266 0.40555 0.74749 0.0
H164 H 0.1764 0.47916 0.76253 0.0
H165 H 0.25315 0.53989 0.76017 0.0
H166 H 0.16211 0.51036 0.75884 0.0
H167 H 0.23753 0.57002 0.75636 0.0
H168 H 0.18823 0.45461 0.69604 0.0
H169 H 0.20538 0.4031 0.73022 0.0
H170 H 0.15545 0.41878 0.674 0.0
H171 H 0.17219 0.36817 0.70776 0.0
H172 H 0.27406 0.54642 0.66819 0.0
H173 H 0.19772 0.52631 0.68502 0.0
H174 H 0.14929 0.41687 0.82254 0.0
H175 H 0.11601 0.39996 0.75597 0.0
Li176 Li 0.79506 0.24571 0.9103 0.0
Li177 Li 0.76841 0.25277 0.9371 0.0
Li178 Li 0.75818 0.20858 0.92647 0.0
Li179 Li 0.75075 0.23507 0.89959 0.0
C180 C 0.80828 0.2366 0.9531 0.0
N181 N 0.84957 0.23903 0.97421 0.0
C182 C 0.82253 0.25608 0.96823 0.0
C183 C 0.81478 0.21815 0.94895 0.0
C184 C 0.84342 0.25704 0.97867 0.0
C185 C 0.83578 0.21976 0.95973 0.0
C186 C 0.78523 0.2923 0.90543 0.0
C187 C 0.77029 0.32184 0.90279 0.0
N188 N 0.79451 0.34114 0.90266 0.0
C189 C 0.80997 0.31239 0.90502 0.0
C190 C 0.76522 0.29701 0.9041 0.0
C191 C 0.81427 0.33697 0.90372 0.0
C192 C 0.83255 0.25343 0.87832 0.0
N193 N 0.82864 0.2595 0.89942 0.0
C194 C 0.87279 0.28721 0.90444 0.0
C195 C 0.84811 0.27621 0.9124 0.0
C196 C 0.87753 0.28144 0.88264 0.0
C197 C 0.85692 0.26422 0.86955 0.0
H198 H 0.81667 0.24055 0.86812 0.0
H199 H 0.84448 0.28136 0.92881 0.0
C200 C 0.74959 0.26411 0.97622 0.0
N201 N 0.76879 0.27367 0.96105 0.0
C202 C 0.74927 0.27903 0.99389 0.0
C203 C 0.78869 0.31326 0.98019 0.0
C204 C 0.78835 0.29759 0.96294 0.0
C205 C 0.76893 0.30408 0.99599 0.0
H206 H 0.73456 0.24481 0.97468 0.0
H207 H 0.80378 0.30452 0.95111 0.0
C208 C 0.76682 0.19568 0.88294 0.0
N209 N 0.76346 0.15474 0.86033 0.0
C210 C 0.74737 0.18239 0.8675 0.0
C211 C 0.78476 0.18839 0.88665 0.0
C212 C 0.74594 0.16167 0.8563 0.0
C213 C 0.78268 0.16758 0.87512 0.0
C214 C 0.71093 0.21683 0.93166 0.0
C215 C 0.69179 0.19167 0.93277 0.0
C216 C 0.70486 0.23592 0.93262 0.0
C217 C 0.66679 0.18602 0.93445 0.0
C218 C 0.67963 0.22951 0.93431 0.0
N219 N 0.66127 0.2049 0.93515 0.0
C220 C 0.74979 0.17165 0.95914 0.0
C221 C 0.72946 0.15522 0.92417 0.0
C222 C 0.73932 0.14741 0.96814 0.0
N223 N 0.74477 0.17508 0.9375 0.0
C224 C 0.71889 0.13067 0.93235 0.0
C225 C 0.72357 0.12643 0.95471 0.0
H226 H 0.76159 0.1878 0.96955 0.0
H227 H 0.72505 0.1584 0.9073 0.0
C228 C 0.74029 0.25288 0.85949 0.0
N229 N 0.72992 0.23464 0.87552 0.0
C230 C 0.72569 0.2533 0.84158 0.0
C231 C 0.69003 0.21606 0.85695 0.0
C232 C 0.70541 0.21617 0.87435 0.0
C233 C 0.70007 0.2348 0.84018 0.0
H234 H 0.75998 0.26707 0.86056 0.0
H235 H 0.69776 0.20142 0.88686 0.0
O236 O 0.78781 0.2354 0.94273 0.0
O237 O 0.7807 0.26814 0.90672 0.0
O238 O 0.76847 0.21598 0.89404 0.0
O239 O 0.7355 0.22265 0.92998 0.0
H240 H 0.81761 0.2704 0.97174 0.0
H241 H 0.80363 0.20268 0.93765 0.0
H242 H 0.85473 0.27211 0.9903 0.0
H243 H 0.84108 0.20566 0.95663 0.0
H244 H 0.75498 0.32577 0.90181 0.0
H245 H 0.82567 0.30904 0.90586 0.0
H246 H 0.74599 0.28166 0.9039 0.0
H247 H 0.83332 0.35271 0.90354 0.0
H248 H 0.88796 0.30013 0.9153 0.0
H249 H 0.85948 0.25955 0.8525 0.0
H250 H 0.73393 0.27088 0.00592 0.0
H251 H 0.80418 0.33244 0.98094 0.0
H252 H 0.73343 0.18791 0.86433 0.0
H253 H 0.8002 0.19879 0.8982 0.0
H254 H 0.7309 0.1511 0.84442 0.0
H255 H 0.79639 0.16168 0.87788 0.0
H256 H 0.6962 0.17667 0.9322 0.0
H257 H 0.71946 0.25547 0.93225 0.0
H258 H 0.65177 0.16664 0.93519 0.0
H259 H 0.67465 0.2441 0.93502 0.0
H260 H 0.74311 0.14524 0.98559 0.0
H261 H 0.70715 0.11522 0.9212 0.0
H262 H 0.73451 0.2678 0.82885 0.0
H263 H 0.6704 0.20153 0.85684 0.0
Li264 Li 0.55027 0.79386 0.07675 0.0
Li265 Li 0.51643 0.76742 0.10362 0.0
Li266 Li 0.55015 0.75678 0.09339 0.0
Li267 Li 0.51632 0.7495 0.06648 0.0
C268 C 0.57306 0.80579 0.12045 0.0
N269 N 0.61309 0.8441 0.14335 0.0
C270 C 0.56883 0.81987 0.1366 0.0
C271 C 0.59758 0.81095 0.11615 0.0
C272 C 0.58934 0.83924 0.14794 0.0
C273 C 0.61758 0.83045 0.12786 0.0
C274 C 0.49531 0.78634 0.07332 0.0
C275 C 0.45164 0.77514 0.07292 0.0
N276 N 0.45869 0.79997 0.07362 0.0
C277 C 0.50216 0.81174 0.0738 0.0
C278 C 0.46989 0.76788 0.07266 0.0
C279 C 0.48335 0.81825 0.07403 0.0
C280 C 0.57548 0.82957 0.04263 0.0
N281 N 0.57044 0.82707 0.06514 0.0
C282 C 0.59267 0.87175 0.06983 0.0
C283 C 0.5785 0.84754 0.07873 0.0
C284 C 0.59811 0.87492 0.04664 0.0
C285 C 0.5893 0.85346 0.03296 0.0
H286 H 0.56852 0.81298 0.03216 0.0
H287 H 0.57356 0.84516 0.09639 0.0
C288 C 0.48426 0.74785 0.14143 0.0
N289 N 0.49594 0.76809 0.12751 0.0
C290 C 0.46893 0.74762 0.15898 0.0
C291 C 0.47819 0.78923 0.14772 0.0
C292 C 0.49356 0.78875 0.13057 0.0
C293 C 0.46552 0.76844 0.16224 0.0
H294 H 0.48697 0.7319 0.13901 0.0
H295 H 0.50365 0.80492 0.11973 0.0
C296 C 0.57243 0.76708 0.04933 0.0
N297 N 0.61147 0.76776 0.02548 0.0
C298 C 0.5675 0.74822 0.03357 0.0
C299 C 0.59714 0.78649 0.05273 0.0
C300 C 0.58752 0.74883 0.02175 0.0
C301 C 0.61664 0.78645 0.04057 0.0
C302 C 0.49474 0.70962 0.09721 0.0
C303 C 0.50097 0.69063 0.09838 0.0
C304 C 0.46947 0.70325 0.09657 0.0
C305 C 0.48173 0.66549 0.09855 0.0
C306 C 0.45079 0.67789 0.09676 0.0
N307 N 0.45725 0.6597 0.09772 0.0
C308 C 0.57733 0.74709 0.12652 0.0
C309 C 0.57599 0.72929 0.09071 0.0
C310 C 0.59117 0.73666 0.13544 0.0
N311 N 0.57015 0.74333 0.1045 0.0
C312 C 0.59 0.71874 0.09884 0.0
C313 C 0.5977 0.7222 0.12155 0.0
H314 H 0.57198 0.7579 0.13725 0.0
H315 H 0.56945 0.72591 0.07348 0.0
C316 C 0.48642 0.73832 0.02737 0.0
N317 N 0.49596 0.72859 0.04245 0.0
C318 C 0.47146 0.72365 0.00947 0.0
C319 C 0.47641 0.68922 0.02295 0.0
C320 C 0.49163 0.7047 0.04034 0.0
C321 C 0.46605 0.6986 0.00713 0.0
H322 H 0.49061 0.75757 0.02916 0.0
H323 H 0.50003 0.69762 0.0521 0.0
O324 O 0.55318 0.78681 0.1092 0.0
O325 O 0.51348 0.77964 0.07307 0.0
O326 O 0.55304 0.76675 0.061 0.0
O327 O 0.51333 0.73431 0.09699 0.0
H328 H 0.54992 0.81598 0.14022 0.0
H329 H 0.60112 0.79989 0.10405 0.0
H330 H 0.58637 0.8504 0.16039 0.0
H331 H 0.63668 0.8347 0.12467 0.0
H332 H 0.43188 0.76105 0.0725 0.0
H333 H 0.52178 0.82626 0.07415 0.0
H334 H 0.4643 0.74817 0.07186 0.0
H335 H 0.48835 0.83783 0.07455 0.0
H336 H 0.59874 0.88785 0.08086 0.0
H337 H 0.59315 0.85513 0.015 0.0
H338 H 0.46011 0.73141 0.17003 0.0
H339 H 0.47608 0.80565 0.14939 0.0
H340 H 0.54843 0.73317 0.03063 0.0
H341 H 0.60121 0.80152 0.06449 0.0
H342 H 0.58401 0.73427 0.00961 0.0
H343 H 0.63587 0.80132 0.04307 0.0
H344 H 0.52045 0.69527 0.09902 0.0
H345 H 0.46434 0.71772 0.09601 0.0
H346 H 0.48627 0.65059 0.09933 0.0
H347 H 0.43114 0.67268 0.0962 0.0
H348 H 0.59618 0.73946 0.15315 0.0
H349 H 0.59474 0.70799 0.08737 0.0
H350 H 0.46452 0.73204 0.99746 0.0
H351 H 0.47266 0.67003 0.02214 0.0
Li352 Li 0.75799 0.54978 0.24304 0.0
Li353 Li 0.75006 0.51566 0.27017 0.0
Li354 Li 0.7946 0.54951 0.26014 0.0
Li355 Li 0.76836 0.51582 0.23291 0.0
C356 C 0.76771 0.57164 0.2875 0.0
N357 N 0.76824 0.61031 0.31179 0.0
C358 C 0.74883 0.56646 0.30333 0.0
C359 C 0.78702 0.59641 0.2842 0.0
C360 C 0.74938 0.58629 0.31539 0.0
C361 C 0.78691 0.61572 0.2966 0.0
C362 C 0.71101 0.49423 0.23694 0.0
C363 C 0.68009 0.45021 0.23355 0.0
N364 N 0.6617 0.45632 0.23158 0.0
C365 C 0.69186 0.50011 0.23473 0.0
C366 C 0.70515 0.46911 0.23621 0.0
C367 C 0.66702 0.48066 0.23209 0.0
C368 C 0.74746 0.57484 0.20882 0.0
N369 N 0.74494 0.56987 0.23134 0.0
C370 C 0.72247 0.5921 0.23597 0.0
C371 C 0.73254 0.57798 0.2449 0.0
C372 C 0.72473 0.59747 0.21276 0.0
C373 C 0.73738 0.58863 0.19911 0.0
H374 H 0.75711 0.56786 0.19837 0.0
H375 H 0.73004 0.57313 0.26258 0.0
C376 C 0.73992 0.489 0.31102 0.0
N377 N 0.72901 0.49513 0.29408 0.0
C378 C 0.72536 0.47384 0.32891 0.0
C379 C 0.68864 0.4716 0.31157 0.0
C380 C 0.70396 0.48716 0.29425 0.0
C381 C 0.69934 0.46477 0.32915 0.0
H382 H 0.75994 0.49586 0.3106 0.0
H383 H 0.69583 0.49292 0.28105 0.0
C384 C 0.80715 0.57251 0.21648 0.0
N385 N 0.84559 0.61266 0.19378 0.0
C386 C 0.82153 0.5684 0.20056 0.0
C387 C 0.81207 0.59696 0.22065 0.0
C388 C 0.84096 0.58897 0.18932 0.0
C389 C 0.83165 0.61703 0.20905 0.0
C390 C 0.78518 0.49346 0.26535 0.0
C391 C 0.81009 0.49864 0.26621 0.0
C392 C 0.76549 0.46859 0.26679 0.0
C393 C 0.81489 0.47873 0.2681 0.0
C394 C 0.77106 0.44921 0.26869 0.0
N395 N 0.79544 0.45464 0.26927 0.0
C396 C 0.83047 0.57545 0.2941 0.0
C397 C 0.84812 0.57594 0.25837 0.0
C398 C 0.85443 0.58905 0.30365 0.0
N399 N 0.82778 0.56929 0.27182 0.0
C400 C 0.87243 0.5898 0.26715 0.0
C401 C 0.87579 0.59641 0.29009 0.0
H402 H 0.81395 0.56955 0.3045 0.0
H403 H 0.84553 0.5701 0.24093 0.0
C404 C 0.7504 0.48661 0.19332 0.0
N405 N 0.76904 0.49542 0.20901 0.0
C406 C 0.75012 0.47141 0.17564 0.0
C407 C 0.78848 0.47495 0.19038 0.0
C408 C 0.78812 0.49027 0.20764 0.0
C409 C 0.76925 0.46519 0.17407 0.0
H410 H 0.73577 0.4915 0.19447 0.0
H411 H 0.80313 0.49809 0.2199 0.0
O412 O 0.76744 0.55242 0.27561 0.0
O413 O 0.73539 0.51305 0.23956 0.0
O414 O 0.78805 0.55257 0.22758 0.0
O415 O 0.78017 0.51273 0.26352 0.0
H416 H 0.73384 0.54733 0.30616 0.0
H417 H 0.80203 0.60067 0.27235 0.0
H418 H 0.73482 0.5826 0.32762 0.0
H419 H 0.80172 0.635 0.2942 0.0
H420 H 0.67527 0.43068 0.23299 0.0
H421 H 0.69613 0.51949 0.23516 0.0
H422 H 0.7198 0.46429 0.23755 0.0
H423 H 0.65198 0.48491 0.23046 0.0
H424 H 0.71245 0.5982 0.24698 0.0
H425 H 0.73955 0.59243 0.18114 0.0
H426 H 0.73426 0.46893 0.3422 0.0
H427 H 0.66869 0.46528 0.31141 0.0
H428 H 0.81781 0.54953 0.19705 0.0
H429 H 0.80078 0.6004 0.23257 0.0
H430 H 0.85236 0.5861 0.17705 0.0
H431 H 0.83571 0.63608 0.21214 0.0
H432 H 0.82553 0.51783 0.26527 0.0
H433 H 0.74612 0.46432 0.2666 0.0
H434 H 0.83407 0.48244 0.26864 0.0
H435 H 0.75601 0.42986 0.26976 0.0
H436 H 0.85624 0.59382 0.32142 0.0
H437 H 0.88841 0.5947 0.25624 0.0
H438 H 0.73523 0.46487 0.16321 0.0
H439 H 0.80354 0.4706 0.19003 0.0
Li440 Li 0.20947 0.75728 0.41041 0.0
Li441 Li 0.23627 0.74984 0.43733 0.0
Li442 Li 0.24624 0.7941 0.42739 0.0
Li443 Li 0.25394 0.76817 0.39988 0.0
C444 C 0.19812 0.76866 0.45452 0.0
N445 N 0.16133 0.77261 0.47796 0.0
C446 C 0.18452 0.75142 0.47158 0.0
C447 C 0.19323 0.78805 0.44953 0.0
C448 C 0.16592 0.75368 0.48319 0.0
C449 C 0.1745 0.78969 0.46154 0.0
C450 C 0.21941 0.71117 0.40302 0.0
C451 C 0.23406 0.68168 0.39764 0.0
N452 N 0.20983 0.66279 0.39528 0.0
C453 C 0.19466 0.69152 0.40038 0.0
C454 C 0.2393 0.70629 0.40151 0.0
C455 C 0.1902 0.66716 0.39654 0.0
C456 C 0.17282 0.74577 0.37681 0.0
N457 N 0.17608 0.7436 0.39922 0.0
C458 C 0.13158 0.72006 0.40496 0.0
C459 C 0.1561 0.73092 0.41327 0.0
C460 C 0.1275 0.72178 0.38182 0.0
C461 C 0.1486 0.73494 0.3677 0.0
H462 H 0.18908 0.75558 0.36594 0.0
H463 H 0.15914 0.72888 0.4309 0.0
C464 C 0.25231 0.73978 0.47855 0.0
N465 N 0.23606 0.7288 0.46108 0.0
C466 C 0.25291 0.72513 0.49635 0.0
C467 C 0.22005 0.68818 0.47782 0.0
C468 C 0.21981 0.70357 0.46059 0.0
C469 C 0.23677 0.69896 0.49597 0.0
H470 H 0.26484 0.75994 0.47863 0.0
H471 H 0.20653 0.69533 0.44693 0.0
C472 C 0.23622 0.80639 0.38292 0.0
N473 N 0.2359 0.84449 0.35838 0.0
C474 C 0.25553 0.82042 0.36755 0.0
C475 C 0.21655 0.81145 0.38558 0.0
C476 C 0.25509 0.8397 0.35537 0.0
C477 C 0.21678 0.83087 0.37307 0.0
C478 C 0.29311 0.7849 0.4332 0.0
C479 C 0.31289 0.80971 0.43491 0.0
C480 C 0.29804 0.76505 0.43476 0.0
C481 C 0.33742 0.81426 0.4378 0.0
C482 C 0.32282 0.77038 0.43766 0.0
N483 N 0.34183 0.79467 0.43908 0.0
C484 C 0.25663 0.82985 0.46161 0.0
C485 C 0.27231 0.84768 0.4256 0.0
C486 C 0.26681 0.85377 0.47122 0.0
N487 N 0.25944 0.82726 0.43917 0.0
C488 C 0.28255 0.87193 0.43444 0.0
C489 C 0.27994 0.8752 0.45755 0.0
H490 H 0.24667 0.81329 0.47209 0.0
H491 H 0.27506 0.84521 0.40801 0.0
C492 C 0.26441 0.7516 0.35908 0.0
N493 N 0.2749 0.76901 0.37577 0.0
C494 C 0.27916 0.75136 0.34121 0.0
C495 C 0.31517 0.78722 0.35787 0.0
C496 C 0.29967 0.78689 0.37529 0.0
C497 C 0.305 0.76924 0.34049 0.0
H498 H 0.24454 0.7379 0.35963 0.0
H499 H 0.30745 0.80095 0.3884 0.0
O500 O 0.21636 0.76666 0.44302 0.0
O501 O 0.22405 0.73509 0.40681 0.0
O502 O 0.23633 0.7874 0.39487 0.0
O503 O 0.26902 0.78015 0.43039 0.0
H504 H 0.18822 0.73637 0.47569 0.0
H505 H 0.20391 0.80179 0.43666 0.0
H506 H 0.15515 0.74041 0.49636 0.0
H507 H 0.17048 0.80459 0.45784 0.0
H508 H 0.24927 0.67761 0.39646 0.0
H509 H 0.17907 0.69505 0.40141 0.0
H510 H 0.25856 0.72135 0.40315 0.0
H511 H 0.17115 0.65174 0.39457 0.0
H512 H 0.11602 0.71042 0.4166 0.0
H513 H 0.14651 0.73639 0.34971 0.0
H514 H 0.26608 0.73411 0.51008 0.0
H515 H 0.20704 0.6681 0.47714 0.0
H516 H 0.27078 0.81656 0.36518 0.0
H517 H 0.20117 0.80039 0.39701 0.0
H518 H 0.27 0.85083 0.34352 0.0
H519 H 0.20172 0.83505 0.37499 0.0
H520 H 0.30931 0.82526 0.43388 0.0
H521 H 0.28289 0.74575 0.43389 0.0
H522 H 0.35294 0.83336 0.43902 0.0
H523 H 0.32693 0.75521 0.43884 0.0
H524 H 0.26435 0.85549 0.48911 0.0
H525 H 0.29295 0.88797 0.42342 0.0
H526 H 0.27032 0.73747 0.32799 0.0
H527 H 0.33497 0.80126 0.35822 0.0
C528 C 0.39676 0.08188 0.5481 0.0
C529 C 0.39285 0.10101 0.53941 0.0
C530 C 0.38347 0.05743 0.5395 0.0
C531 C 0.35038 0.02158 0.48911 0.0
H532 H 0.32039 0.96463 0.53001 0.0
C533 C 0.28907 0.91988 0.45649 0.0
C534 C 0.29144 0.90084 0.4674 0.0
C535 C 0.30037 0.94417 0.4655 0.0
C536 C 0.32892 0.98027 0.51832 0.0
H537 H 0.37155 0.1091 0.5149 0.0
H538 H 0.34882 0.06651 0.49957 0.0
H539 H 0.34238 0.00725 0.54519 0.0
H540 H 0.30773 0.89237 0.49616 0.0
H541 H 0.32795 0.93482 0.51166 0.0
H542 H 0.33755 0.99476 0.46222 0.0
C543 C 0.36227 0.07059 0.51303 0.0
C544 C 0.34144 0.00471 0.52705 0.0
C545 C 0.37537 0.09501 0.52179 0.0
C546 C 0.30529 0.90658 0.48755 0.0
C547 C 0.31681 0.93092 0.49645 0.0
C548 C 0.33807 0.99715 0.48036 0.0
C549 C 0.36614 0.05154 0.52184 0.0
C550 C 0.35236 0.02561 0.51254 0.0
C551 C 0.31455 0.95008 0.48554 0.0
C552 C 0.32722 0.97614 0.49485 0.0
H553 H 0.41042 0.08584 0.56132 0.0
H554 H 0.38713 0.04322 0.5464 0.0
H555 H 0.35887 0.03734 0.47752 0.0
H556 H 0.27824 0.91591 0.44106 0.0
H557 H 0.2978 0.95826 0.45684 0.0
C558 C 0.39654 0.31547 0.62204 0.0
C559 C 0.39283 0.29254 0.63082 0.0
C560 C 0.38333 0.32666 0.63078 0.0
C561 C 0.3507 0.32964 0.68152 0.0
H562 H 0.32054 0.35657 0.6408 0.0
C563 C 0.28966 0.37043 0.71426 0.0
C564 C 0.29223 0.39193 0.70337 0.0
C565 C 0.30088 0.35734 0.70527 0.0
C566 C 0.32911 0.34945 0.65243 0.0
H567 H 0.37198 0.26336 0.65565 0.0
H568 H 0.34934 0.28325 0.6712 0.0
H569 H 0.34231 0.33576 0.62548 0.0
H570 H 0.30886 0.41677 0.67467 0.0
H571 H 0.32884 0.3943 0.6592 0.0
H572 H 0.33808 0.34379 0.70848 0.0
C573 C 0.36259 0.29253 0.65757 0.0
C574 C 0.34151 0.33745 0.64363 0.0
C575 C 0.37563 0.28119 0.64868 0.0
C576 C 0.30623 0.40004 0.68328 0.0
C577 C 0.31763 0.3871 0.67438 0.0
C578 C 0.33848 0.34184 0.69034 0.0
C579 C 0.36626 0.31535 0.64866 0.0
C580 C 0.35252 0.3275 0.65807 0.0
C581 C 0.31513 0.36557 0.68526 0.0
C582 C 0.32761 0.35201 0.6759 0.0
H583 H 0.41 0.32508 0.60863 0.0
H584 H 0.38685 0.34445 0.62381 0.0
H585 H 0.35926 0.32241 0.69306 0.0
H586 H 0.27872 0.36355 0.72963 0.0
H587 H 0.29817 0.34061 0.71391 0.0
C588 C 0.91139 0.28066 0.85908 0.0
C589 C 0.90366 0.29379 0.87346 0.0
C590 C 0.9358 0.29245 0.85022 0.0
C591 C 0.99139 0.35593 0.8402 0.0
H592 H 0.02615 0.31829 0.8321 0.0
C593 C 0.09721 0.40345 0.81861 0.0
C594 C 0.10373 0.39265 0.80082 0.0
C595 C 0.07289 0.39106 0.82762 0.0
C596 C 0.01659 0.32897 0.83415 0.0
H597 H 0.91581 0.32986 0.88956 0.0
H598 H 0.95848 0.34989 0.87508 0.0
H599 H 0.98365 0.29735 0.84775 0.0
H600 H 0.09012 0.36017 0.77886 0.0
H601 H 0.0476 0.33836 0.7948 0.0
H602 H 0.02465 0.38767 0.82704 0.0
C603 C 0.94555 0.33063 0.8702 0.0
C604 C 0.99218 0.31698 0.84302 0.0
C605 C 0.92109 0.31896 0.87885 0.0
C606 C 0.08556 0.369 0.79247 0.0
C607 C 0.06132 0.35646 0.80169 0.0
C608 C 0.01588 0.36797 0.8316 0.0
C609 C 0.95323 0.31761 0.85566 0.0
C610 C 0.97923 0.3303 0.84616 0.0
C611 C 0.05468 0.36747 0.81921 0.0
C612 C 0.02872 0.35462 0.82846 0.0
H613 H 0.89866 0.26118 0.85474 0.0
H614 H 0.94088 0.28187 0.83887 0.0
H615 H 0.9819 0.36671 0.84189 0.0
H616 H 0.11077 0.42174 0.82525 0.0
H617 H 0.06834 0.3999 0.84123 0.0
C618 C 0.60353 0.90651 0.01713 0.0
C619 C 0.6123 0.9005 0.03672 0.0
C620 C 0.61642 0.93082 0.00816 0.0
C621 C 0.66391 0.99674 0.02334 0.0
H622 H 0.66541 0.00668 0.95858 0.0
C623 C 0.72439 0.09364 0.97986 0.0
C624 C 0.71164 0.10037 0.96404 0.0
C625 C 0.71301 0.06926 0.98874 0.0
C626 C 0.66504 0.00416 0.97671 0.0
H627 H 0.64173 0.91498 0.062 0.0
H628 H 0.66475 0.95722 0.046 0.0
H629 H 0.64476 0.96408 0.97384 0.0
H630 H 0.67655 0.08649 0.94559 0.0
H631 H 0.65722 0.04388 0.96052 0.0
H632 H 0.68474 0.03697 0.026 0.0
C633 C 0.64751 0.94343 0.03787 0.0
C634 C 0.65309 0.97975 0.9855 0.0
C635 C 0.63441 0.91919 0.047 0.0
C636 C 0.68726 0.08198 0.95729 0.0
C637 C 0.67607 0.05754 0.96593 0.0
C638 C 0.67617 0.02114 0.0145 0.0
C639 C 0.6386 0.94965 0.0184 0.0
C640 C 0.65214 0.97568 0.00897 0.0
C641 C 0.68878 0.05096 0.98178 0.0
C642 C 0.67664 0.02508 0.99112 0.0
H643 H 0.58633 0.89254 0.00904 0.0
H644 H 0.60864 0.93493 0.99345 0.0
H645 H 0.66323 0.99446 0.0415 0.0
H646 H 0.74332 0.10708 0.98521 0.0
H647 H 0.72332 0.0646 1.0008 0.0
C648 C 0.71659 0.63367 0.21319 0.0
C649 C 0.71334 0.61165 0.20282 0.0
C650 C 0.70538 0.6467 0.20409 0.0
C651 C 0.67492 0.65258 0.15174 0.0
H652 H 0.64817 0.68294 0.19249 0.0
C653 C 0.60677 0.68648 0.12321 0.0
C654 C 0.61196 0.71037 0.13075 0.0
C655 C 0.62012 0.67536 0.13176 0.0
C656 C 0.65576 0.67474 0.18091 0.0
H657 H 0.69559 0.58584 0.17499 0.0
H658 H 0.67543 0.60809 0.15942 0.0
H659 H 0.66943 0.66164 0.20782 0.0
H660 H 0.6356 0.74129 0.15316 0.0
H661 H 0.65837 0.72147 0.16849 0.0
H662 H 0.66048 0.66513 0.12488 0.0
C663 C 0.68722 0.6158 0.1742 0.0
C664 C 0.66805 0.6626 0.18967 0.0
C665 C 0.69869 0.60295 0.18316 0.0
C666 C 0.63077 0.72273 0.1472 0.0
C667 C 0.64391 0.71144 0.15594 0.0
C668 C 0.66236 0.66446 0.14302 0.0
C669 C 0.69037 0.63785 0.18456 0.0
C670 C 0.67775 0.65128 0.17521 0.0
C671 C 0.63877 0.68768 0.14825 0.0
C672 C 0.65261 0.6756 0.15751 0.0
H673 H 0.72803 0.64094 0.22824 0.0
H674 H 0.70866 0.66385 0.2123 0.0
H675 H 0.68256 0.64456 0.14004 0.0
H676 H 0.59208 0.6761 0.11095 0.0
H677 H 0.61551 0.65687 0.12576 0.0
C678 C 0.08258 0.68628 0.38116 0.0
C679 C 0.10146 0.70943 0.37245 0.0
C680 C 0.05819 0.6746 0.37239 0.0
C681 C 0.01497 0.68686 0.33752 0.0
H682 H 0.97733 0.61404 0.33338 0.0
C683 C 0.92083 0.6312 0.28875 0.0
C684 C 0.90144 0.61025 0.29993 0.0
C685 C 0.94514 0.64385 0.29778 0.0
C686 C 0.98755 0.63438 0.3346 0.0
H687 H 0.10916 0.73846 0.34764 0.0
H688 H 0.06698 0.71757 0.33171 0.0
H689 H 0.02004 0.63495 0.34827 0.0
H690 H 0.89231 0.58605 0.32923 0.0
H691 H 0.93485 0.60805 0.34491 0.0
H692 H 0.98247 0.68612 0.32327 0.0
C693 C 0.07089 0.70868 0.3457 0.0
C694 C 0.01202 0.64641 0.34322 0.0
C695 C 0.09525 0.72051 0.35463 0.0
C696 C 0.90683 0.60225 0.32034 0.0
C697 C 0.9312 0.6147 0.32921 0.0
C698 C 0.99057 0.67482 0.32865 0.0
C699 C 0.05201 0.68555 0.35446 0.0
C700 C 0.02604 0.67281 0.34492 0.0
C701 C 0.95062 0.63559 0.318 0.0
C702 C 0.97658 0.64845 0.32722 0.0
H703 H 0.08665 0.67692 0.39462 0.0
H704 H 0.04412 0.65702 0.37984 0.0
H705 H 0.02497 0.70717 0.33889 0.0
H706 H 0.91716 0.63786 0.27306 0.0
H707 H 0.95978 0.6598 0.28871 0.0
C708 C 0.55462 0.31166 0.46748 0.0
C709 C 0.55637 0.32116 0.48936 0.0
C710 C 0.57016 0.32723 0.45022 0.0
C711 C 0.61246 0.39495 0.43561 0.0
H712 H 0.63503 0.36681 0.38859 0.0
C713 C 0.68999 0.45513 0.3703 0.0
C714 C 0.68337 0.44825 0.34765 0.0
C715 C 0.67462 0.43972 0.38773 0.0
C716 C 0.62876 0.37486 0.40158 0.0
H717 H 0.57598 0.3541 0.51059 0.0
H718 H 0.60387 0.38108 0.48082 0.0
H719 H 0.60845 0.3398 0.41899 0.0
H720 H 0.65589 0.41977 0.32537 0.0
H721 H 0.62928 0.39249 0.35591 0.0
H722 H 0.63361 0.43021 0.41838 0.0
C723 C 0.58996 0.36189 0.47663 0.0
C724 C 0.61338 0.35938 0.41896 0.0
C725 C 0.5741 0.34642 0.49376 0.0
C726 C 0.66131 0.42554 0.34272 0.0
C727 C 0.6462 0.40991 0.36013 0.0
C728 C 0.6282 0.41049 0.41844 0.0
C729 C 0.58815 0.35257 0.45456 0.0
C730 C 0.60487 0.36916 0.43617 0.0
C731 C 0.65264 0.41693 0.38279 0.0
C732 C 0.63637 0.40055 0.40121 0.0
H733 H 0.5409 0.29229 0.46363 0.0
H734 H 0.56775 0.31943 0.43342 0.0
H735 H 0.60595 0.40315 0.44823 0.0
H736 H 0.70684 0.47261 0.37452 0.0
H737 H 0.68003 0.44547 0.40507 0.0
C738 C 0.23848 0.66118 0.50943 0.0
C739 C 0.23725 0.6829 0.51442 0.0
C740 C 0.23873 0.64587 0.52677 0.0
C741 C 0.24884 0.64522 0.58887 0.0
H742 H 0.21565 0.57308 0.57945 0.0
C743 C 0.2286 0.57304 0.66042 0.0
C744 C 0.23618 0.5553 0.65605 0.0
C745 C 0.229 0.58885 0.64323 0.0
C746 C 0.22511 0.59321 0.58224 0.0
H747 H 0.23498 0.70552 0.54135 0.0
H748 H 0.23447 0.67839 0.57168 0.0
H749 H 0.21539 0.60013 0.54945 0.0
H750 H 0.24975 0.53988 0.63035 0.0
H751 H 0.24995 0.56723 0.60012 0.0
H752 H 0.25777 0.63795 0.62202 0.0
C753 C 0.23604 0.67348 0.55444 0.0
C754 C 0.22511 0.60879 0.56502 0.0
C755 C 0.23621 0.68901 0.53708 0.0
C756 C 0.24395 0.5535 0.63416 0.0
C757 C 0.24392 0.56901 0.61688 0.0
C758 C 0.24846 0.62958 0.60621 0.0
C759 C 0.23733 0.65168 0.54954 0.0
C760 C 0.2371 0.63504 0.56803 0.0
C761 C 0.23655 0.5869 0.62129 0.0
C762 C 0.23671 0.60345 0.60301 0.0
H763 H 0.2396 0.65622 0.49208 0.0
H764 H 0.24031 0.62961 0.52227 0.0
H765 H 0.25868 0.66533 0.59175 0.0
H766 H 0.22266 0.57487 0.67719 0.0
H767 H 0.22311 0.60241 0.64702 0.0
C768 C 0.68773 0.25788 0.81239 0.0
C769 C 0.68394 0.23501 0.82143 0.0
C770 C 0.67248 0.25804 0.79493 0.0
C771 C 0.61005 0.22119 0.7703 0.0
H772 H 0.63984 0.26075 0.71628 0.0
C773 C 0.54934 0.21395 0.69321 0.0
C774 C 0.55635 0.23571 0.68027 0.0
C775 C 0.56505 0.21389 0.71026 0.0
C776 C 0.63113 0.24991 0.73138 0.0
H777 H 0.66121 0.19433 0.81861 0.0
H778 H 0.63409 0.19477 0.78879 0.0
H779 H 0.66695 0.261 0.74649 0.0
H780 H 0.58577 0.27451 0.6753 0.0
H781 H 0.61235 0.27483 0.70574 0.0
H782 H 0.57427 0.21065 0.75575 0.0
C783 C 0.64893 0.21253 0.79532 0.0
C784 C 0.64672 0.24999 0.74862 0.0
C785 C 0.66442 0.21233 0.81251 0.0
C786 C 0.57946 0.25748 0.68505 0.0
C787 C 0.59499 0.25753 0.70233 0.0
C788 C 0.59444 0.22142 0.75324 0.0
C789 C 0.65283 0.23537 0.78636 0.0
C790 C 0.63633 0.23553 0.76818 0.0
C791 C 0.58807 0.23571 0.71514 0.0
C792 C 0.60474 0.23569 0.73347 0.0
H793 H 0.70221 0.27574 0.81903 0.0
H794 H 0.67571 0.27592 0.78845 0.0
H795 H 0.60157 0.21011 0.78535 0.0
H796 H 0.53156 0.1969 0.69035 0.0
H797 H 0.55917 0.19658 0.71946 0.0
C798 C 0.3235 0.57797 0.85164 0.0
C799 C 0.32266 0.55518 0.84646 0.0
C800 C 0.33891 0.59345 0.86898 0.0
C801 C 0.37544 0.59309 0.91927 0.0
H802 H 0.4062 0.66555 0.91382 0.0
C803 C 0.45413 0.664 0.97849 0.0
C804 C 0.4498 0.68241 0.98834 0.0
C805 C 0.4386 0.6485 0.96122 0.0
C806 C 0.39761 0.64533 0.91557 0.0
H807 H 0.33754 0.53092 0.85585 0.0
H808 H 0.3654 0.5585 0.88499 0.0
H809 H 0.3797 0.63858 0.88338 0.0
H810 H 0.42539 0.69862 0.98749 0.0
H811 H 0.39907 0.67223 0.95671 0.0
H812 H 0.39424 0.60016 0.95121 0.0
C813 C 0.3536 0.56414 0.8761 0.0
C814 C 0.38228 0.62981 0.89821 0.0
C815 C 0.33788 0.54846 0.85902 0.0
C816 C 0.4297 0.68507 0.98013 0.0
C817 C 0.41448 0.66986 0.96257 0.0
C818 C 0.39114 0.60866 0.93643 0.0
C819 C 0.35427 0.58682 0.88142 0.0
C820 C 0.37086 0.60344 0.89984 0.0
C821 C 0.41869 0.65133 0.95308 0.0
C822 C 0.40227 0.6349 0.93478 0.0
H823 H 0.31242 0.58408 0.84219 0.0
H824 H 0.33854 0.61052 0.87273 0.0
H825 H 0.36663 0.57293 0.92145 0.0
H826 H 0.46969 0.66168 0.9839 0.0
H827 H 0.44239 0.63452 0.95398 0.0
C828 C 0.74624 0.31872 0.02186 0.0
C829 C 0.76888 0.32049 0.01452 0.0
C830 C 0.7462 0.33418 0.03918 0.0
C831 C 0.78552 0.37528 0.08617 0.0
H832 H 0.73923 0.40092 0.08316 0.0
C833 C 0.79186 0.45294 0.14571 0.0
C834 C 0.76917 0.44868 0.15557 0.0
C835 C 0.79177 0.43724 0.12857 0.0
C836 C 0.75213 0.39374 0.0843 0.0
H837 H 0.80927 0.33989 0.02002 0.0
H838 H 0.80931 0.3675 0.04943 0.0
H839 H 0.73936 0.37389 0.05305 0.0
H840 H 0.72858 0.42423 0.15508 0.0
H841 H 0.72849 0.39728 0.1248 0.0
H842 H 0.7986 0.39566 0.11723 0.0
C843 C 0.79147 0.3538 0.04212 0.0
C844 C 0.75216 0.37816 0.06709 0.0
C845 C 0.79148 0.33819 0.02496 0.0
C846 C 0.74639 0.42841 0.14766 0.0
C847 C 0.74631 0.41288 0.13036 0.0
C848 C 0.78566 0.39108 0.10324 0.0
C849 C 0.76882 0.352 0.0495 0.0
C850 C 0.76882 0.36866 0.06781 0.0
C851 C 0.769 0.41707 0.1207 0.0
C852 C 0.76893 0.40042 0.10251 0.0
H853 H 0.72848 0.30557 0.01407 0.0
H854 H 0.72834 0.33197 0.04459 0.0
H855 H 0.79829 0.36798 0.08755 0.0
H856 H 0.80973 0.46862 0.15101 0.0
H857 H 0.80953 0.44111 0.12123 0.0
C858 C 0.31729 0.74632 0.31254 0.0
C859 C 0.32125 0.76914 0.32181 0.0
C860 C 0.33266 0.74624 0.29515 0.0
C861 C 0.39532 0.78398 0.2702 0.0
H862 H 0.36566 0.74205 0.21742 0.0
C863 C 0.45511 0.79075 0.1924 0.0
C864 C 0.44896 0.76848 0.18065 0.0
C865 C 0.43945 0.79083 0.20951 0.0
C866 C 0.37432 0.7536 0.23217 0.0
H867 H 0.34435 0.80981 0.31957 0.0
H868 H 0.37148 0.80954 0.28964 0.0
H869 H 0.33851 0.74195 0.24755 0.0
H870 H 0.42119 0.7288 0.17776 0.0
H871 H 0.39457 0.7287 0.20818 0.0
H872 H 0.43113 0.79527 0.25522 0.0
C873 C 0.35653 0.79174 0.29598 0.0
C874 C 0.35872 0.75359 0.24939 0.0
C875 C 0.341 0.79186 0.3132 0.0
C876 C 0.42678 0.74625 0.18659 0.0
C877 C 0.41125 0.74628 0.20386 0.0
C878 C 0.41095 0.78379 0.25311 0.0
C879 C 0.35251 0.76894 0.28677 0.0
C880 C 0.36906 0.76884 0.26855 0.0
C881 C 0.41732 0.76858 0.21551 0.0
C882 C 0.40066 0.76865 0.23382 0.0
H883 H 0.30259 0.72845 0.31897 0.0
H884 H 0.32932 0.72836 0.28854 0.0
H885 H 0.40382 0.79568 0.28492 0.0
H886 H 0.47219 0.80818 0.18857 0.0
H887 H 0.44461 0.80845 0.21787 0.0
loop_
_geom_bond_atom_site_label_1
_geom_bond_atom_site_label_2
_geom_bond_distance
_geom_bond_site_symmetry_2
_ccdc_geom_bond_type
Li0 N17 1.990 . S
Li0 O60 1.956 . S
Li0 O61 1.970 . S
Li0 O62 1.961 . S
Li1 N25 1.990 . S
Li1 O60 1.970 . S
Li1 O61 1.956 . S
Li1 O63 1.961 . S
Li2 N47 1.990 . S
Li2 O60 1.961 . S
Li2 O62 1.956 . S
Li2 O63 1.970 . S
Li3 N53 1.990 . S
Li3 O61 1.961 . S
Li3 O62 1.970 . S
Li3 O63 1.956 . S
C4 C6 1.348 . S
C4 C7 1.356 . S
C4 O60 1.325 . S
N5 C8 1.314 . S
N5 C9 1.279 . S
C6 C4 1.348 . S
C6 C8 1.353 . S
C6 H64 0.929 . S
C7 C4 1.356 . S
C7 C9 1.358 . S
C7 H65 0.930 . S
C8 N5 1.314 . S
C8 C6 1.353 . S
C8 H66 0.930 . S
C9 N5 1.279 . S
C9 C7 1.358 . S
C9 H67 0.930 . S
C10 C13 1.348 . S
C10 C14 1.356 . S
C10 O61 1.325 . S
C11 N12 1.279 . S
C11 C14 1.358 . S
C11 H68 0.930 . S
N12 C11 1.279 . S
N12 C15 1.314 . S
C13 C10 1.348 . S
C13 C15 1.353 . S
C13 H69 0.929 . S
C14 C10 1.356 . S
C14 C11 1.358 . S
C14 H70 0.930 . S
C15 N12 1.314 . S
C15 C13 1.353 . S
C15 H71 0.930 . S
C16 N17 1.314 . S
C16 C21 1.353 . S
C16 H22 0.930 . S
N17 Li0 1.990 . S
N17 C16 1.314 . S
N17 C19 1.279 . S
C18 C19 1.358 . S
C18 C20 1.356 . S
C18 H72 0.930 . S
C19 N17 1.279 . S
C19 C18 1.358 . S
C19 H23 0.930 . S
C20 C18 1.356 . S
C20 C21 1.348 . S
C21 C16 1.353 . S
C21 C20 1.348 . S
C21 H73 0.929 . S
H22 C16 0.930 . S
H23 C19 0.930 . S
C24 N25 1.314 . S
C24 C26 1.353 . S
C24 H30 0.930 . S
N25 Li1 1.990 . S
N25 C24 1.314 . S
N25 C28 1.279 . S
C26 C24 1.353 . S
C26 C29 1.348 . S
C26 H74 0.929 . S
C27 C28 1.358 . S
C27 C29 1.356 . S
C27 H75 0.930 . S
C28 N25 1.279 . S
C28 C27 1.358 . S
C28 H31 0.930 . S
C29 C26 1.348 . S
C29 C27 1.356 . S
H30 C24 0.930 . S
H31 C28 0.930 . S
C32 C34 1.348 . S
C32 C35 1.356 . S
C32 O62 1.325 . S
N33 C36 1.314 . S
N33 C37 1.279 . S
C34 C32 1.348 . S
C34 C36 1.353 . S
C34 H76 0.929 . S
C35 C32 1.356 . S
C35 C37 1.358 . S
C35 H77 0.930 . S
C36 N33 1.314 . S
C36 C34 1.353 . S
C36 H78 0.930 . S
C37 N33 1.279 . S
C37 C35 1.358 . S
C37 H79 0.930 . S
C38 C39 1.348 . S
C38 C40 1.356 . S
C38 O63 1.325 . S
C39 C38 1.348 . S
C39 C41 1.353 . S
C39 H80 0.929 . S
C40 C38 1.356 . S
C40 C42 1.358 . S
C40 H81 0.930 . S
C41 C39 1.353 . S
C41 N43 1.314 . S
C41 H82 0.930 . S
C42 C40 1.358 . S
C42 N43 1.279 . S
C42 H83 0.930 . S
N43 C41 1.314 . S
N43 C42 1.279 . S
C44 C46 1.353 . S
C44 N47 1.314 . S
C44 H50 0.930 . S
C45 N47 1.279 . S
C45 C48 1.358 . S
C45 H51 0.930 . S
C46 C44 1.353 . S
C46 C49 1.348 . S
C46 H84 0.929 . S
N47 Li2 1.990 . S
N47 C44 1.314 . S
N47 C45 1.279 . S
C48 C45 1.358 . S
C48 C49 1.356 . S
C48 H85 0.930 . S
C49 C46 1.348 . S
C49 C48 1.356 . S
H50 C44 0.930 . S
H51 C45 0.930 . S
C52 N53 1.314 . S
C52 C54 1.353 . S
C52 H58 0.930 . S
N53 Li3 1.990 . S
N53 C52 1.314 . S
N53 C56 1.279 . S
C54 C52 1.353 . S
C54 C57 1.348 . S
C54 H86 0.929 . S
C55 C56 1.358 . S
C55 C57 1.356 . S
C55 H87 0.930 . S
C56 N53 1.279 . S
C56 C55 1.358 . S
C56 H59 0.930 . S
C57 C54 1.348 . S
C57 C55 1.356 . S
H58 C52 0.930 . S
H59 C56 0.930 . S
O60 Li0 1.956 . S
O60 Li1 1.970 . S
O60 Li2 1.961 . S
O60 C4 1.325 . S
O61 Li0 1.970 . S
O61 Li1 1.956 . S
O61 Li3 1.961 . S
O61 C10 1.325 . S
O62 Li0 1.961 . S
O62 Li2 1.956 . S
O62 Li3 1.970 . S
O62 C32 1.325 . S
O63 Li1 1.961 . S
O63 Li2 1.970 . S
O63 Li3 1.956 . S
O63 C38 1.325 . S
H64 C6 0.929 . S
H65 C7 0.930 . S
H66 C8 0.930 . S
H67 C9 0.930 . S
H68 C11 0.930 . S
H69 C13 0.929 . S
H70 C14 0.930 . S
H71 C15 0.930 . S
H72 C18 0.930 . S
H73 C21 0.929 . S
H74 C26 0.929 . S
H75 C27 0.930 . S
H76 C34 0.929 . S
H77 C35 0.930 . S
H78 C36 0.930 . S
H79 C37 0.930 . S
H80 C39 0.929 . S
H81 C40 0.930 . S
H82 C41 0.930 . S
H83 C42 0.930 . S
H84 C46 0.929 . S
H85 C48 0.930 . S
H86 C54 0.929 . S
H87 C55 0.930 . S
Li88 N105 1.990 . S
Li88 O148 1.956 . S
Li88 O149 1.970 . S
Li88 O150 1.961 . S
Li89 N113 1.990 . S
Li89 O148 1.970 . S
Li89 O149 1.956 . S
Li89 O151 1.961 . S
Li90 N135 1.990 . S
Li90 O148 1.961 . S
Li90 O150 1.956 . S
Li90 O151 1.970 . S
Li91 N141 1.990 . S
Li91 O149 1.961 . S
Li91 O150 1.970 . S
Li91 O151 1.956 . S
C92 C94 1.348 . S
C92 C95 1.356 . S
C92 O148 1.325 . S
N93 C96 1.314 . S
N93 C97 1.279 . S
C94 C92 1.348 . S
C94 C96 1.353 . S
C94 H152 0.929 . S
C95 C92 1.356 . S
C95 C97 1.358 . S
C95 H153 0.930 . S
C96 N93 1.314 . S
C96 C94 1.353 . S
C96 H154 0.930 . S
C97 N93 1.279 . S
C97 C95 1.358 . S
C97 H155 0.930 . S
C98 C101 1.348 . S
C98 C102 1.356 . S
C98 O149 1.325 . S
C99 N100 1.279 . S
C99 C102 1.358 . S
C99 H156 0.930 . S
N100 C99 1.279 . S
N100 C103 1.314 . S
C101 C98 1.348 . S
C101 C103 1.353 . S
C101 H157 0.929 . S
C102 C98 1.356 . S
C102 C99 1.358 . S
C102 H158 0.930 . S
C103 N100 1.314 . S
C103 C101 1.353 . S
C103 H159 0.930 . S
C104 N105 1.314 . S
C104 C109 1.353 . S
C104 H110 0.930 . S
N105 Li88 1.990 . S
N105 C104 1.314 . S
N105 C107 1.279 . S
C106 C107 1.358 . S
C106 C108 1.356 . S
C106 H160 0.930 . S
C107 N105 1.279 . S
C107 C106 1.358 . S
C107 H111 0.930 . S
C108 C106 1.356 . S
C108 C109 1.348 . S
C109 C104 1.353 . S
C109 C108 1.348 . S
C109 H161 0.929 . S
H110 C104 0.930 . S
H111 C107 0.930 . S
C112 N113 1.314 . S
C112 C114 1.353 . S
C112 H118 0.930 . S
N113 Li89 1.990 . S
N113 C112 1.314 . S
N113 C116 1.279 . S
C114 C112 1.353 . S
C114 C117 1.348 . S
C114 H162 0.929 . S
C115 C116 1.358 . S
C115 C117 1.356 . S
C115 H163 0.930 . S
C116 N113 1.279 . S
C116 C115 1.358 . S
C116 H119 0.930 . S
C117 C114 1.348 . S
C117 C115 1.356 . S
H118 C112 0.930 . S
H119 C116 0.930 . S
C120 C122 1.348 . S
C120 C123 1.356 . S
C120 O150 1.325 . S
N121 C124 1.314 . S
N121 C125 1.279 . S
C122 C120 1.348 . S
C122 C124 1.353 . S
C122 H164 0.929 . S
C123 C120 1.356 . S
C123 C125 1.358 . S
C123 H165 0.930 . S
C124 N121 1.314 . S
C124 C122 1.353 . S
C124 H166 0.930 . S
C125 N121 1.279 . S
C125 C123 1.358 . S
C125 H167 0.930 . S
C126 C127 1.348 . S
C126 C128 1.356 . S
C126 O151 1.325 . S
C127 C126 1.348 . S
C127 C129 1.353 . S
C127 H168 0.929 . S
C128 C126 1.356 . S
C128 C130 1.358 . S
C128 H169 0.930 . S
C129 C127 1.353 . S
C129 N131 1.314 . S
C129 H170 0.930 . S
C130 C128 1.358 . S
C130 N131 1.279 . S
C130 H171 0.930 . S
N131 C129 1.314 . S
N131 C130 1.279 . S
C132 C134 1.353 . S
C132 N135 1.314 . S
C132 H138 0.930 . S
C133 N135 1.279 . S
C133 C136 1.358 . S
C133 H139 0.930 . S
C134 C132 1.353 . S
C134 C137 1.348 . S
C134 H172 0.929 . S
N135 Li90 1.990 . S
N135 C132 1.314 . S
N135 C133 1.279 . S
C136 C133 1.358 . S
C136 C137 1.356 . S
C136 H173 0.930 . S
C137 C134 1.348 . S
C137 C136 1.356 . S
H138 C132 0.930 . S
H139 C133 0.930 . S
C140 N141 1.314 . S
C140 C142 1.353 . S
C140 H146 0.930 . S
N141 Li91 1.990 . S
N141 C140 1.314 . S
N141 C144 1.279 . S
C142 C140 1.353 . S
C142 C145 1.348 . S
C142 H174 0.929 . S
C143 C144 1.358 . S
C143 C145 1.356 . S
C143 H175 0.930 . S
C144 N141 1.279 . S
C144 C143 1.358 . S
C144 H147 0.930 . S
C145 C142 1.348 . S
C145 C143 1.356 . S
H146 C140 0.930 . S
H147 C144 0.930 . S
O148 Li88 1.956 . S
O148 Li89 1.970 . S
O148 Li90 1.961 . S
O148 C92 1.325 . S
O149 Li88 1.970 . S
O149 Li89 1.956 . S
O149 Li91 1.961 . S
O149 C98 1.325 . S
O150 Li88 1.961 . S
O150 Li90 1.956 . S
O150 Li91 1.970 . S
O150 C120 1.325 . S
O151 Li89 1.961 . S
O151 Li90 1.970 . S
O151 Li91 1.956 . S
O151 C126 1.325 . S
H152 C94 0.929 . S
H153 C95 0.930 . S
H154 C96 0.930 . S
H155 C97 0.930 . S
H156 C99 0.930 . S
H157 C101 0.929 . S
H158 C102 0.930 . S
H159 C103 0.930 . S
H160 C106 0.930 . S
H161 C109 0.929 . S
H162 C114 0.929 . S
H163 C115 0.930 . S
H164 C122 0.929 . S
H165 C123 0.930 . S
H166 C124 0.930 . S
H167 C125 0.930 . S
H168 C127 0.929 . S
H169 C128 0.930 . S
H170 C129 0.930 . S
H171 C130 0.930 . S
H172 C134 0.929 . S
H173 C136 0.930 . S
H174 C142 0.929 . S
H175 C143 0.930 . S
Li176 N193 1.990 . S
Li176 O236 1.956 . S
Li176 O237 1.970 . S
Li176 O238 1.961 . S
Li177 N201 1.990 . S
Li177 O236 1.970 . S
Li177 O237 1.956 . S
Li177 O239 1.961 . S
Li178 N223 1.990 . S
Li178 O236 1.961 . S
Li178 O238 1.956 . S
Li178 O239 1.970 . S
Li179 N229 1.990 . S
Li179 O237 1.961 . S
Li179 O238 1.970 . S
Li179 O239 1.956 . S
C180 C182 1.348 . S
C180 C183 1.356 . S
C180 O236 1.325 . S
N181 C184 1.314 . S
N181 C185 1.279 . S
C182 C180 1.348 . S
C182 C184 1.353 . S
C182 H240 0.929 . S
C183 C180 1.356 . S
C183 C185 1.358 . S
C183 H241 0.930 . S
C184 N181 1.314 . S
C184 C182 1.353 . S
C184 H242 0.930 . S
C185 N181 1.279 . S
C185 C183 1.358 . S
C185 H243 0.930 . S
C186 C189 1.348 . S
C186 C190 1.356 . S
C186 O237 1.325 . S
C187 N188 1.279 . S
C187 C190 1.358 . S
C187 H244 0.930 . S
N188 C187 1.279 . S
N188 C191 1.314 . S
C189 C186 1.348 . S
C189 C191 1.353 . S
C189 H245 0.929 . S
C190 C186 1.356 . S
C190 C187 1.358 . S
C190 H246 0.930 . S
C191 N188 1.314 . S
C191 C189 1.353 . S
C191 H247 0.930 . S
C192 N193 1.314 . S
C192 C197 1.353 . S
C192 H198 0.930 . S
N193 Li176 1.990 . S
N193 C192 1.314 . S
N193 C195 1.279 . S
C194 C195 1.358 . S
C194 C196 1.356 . S
C194 H248 0.930 . S
C195 N193 1.279 . S
C195 C194 1.358 . S
C195 H199 0.930 . S
C196 C194 1.356 . S
C196 C197 1.348 . S
C197 C192 1.353 . S
C197 C196 1.348 . S
C197 H249 0.929 . S
H198 C192 0.930 . S
H199 C195 0.930 . S
C200 N201 1.314 . S
C200 C202 1.353 . S
C200 H206 0.930 . S
N201 Li177 1.990 . S
N201 C200 1.314 . S
N201 C204 1.279 . S
C202 C200 1.353 . S
C202 C205 1.348 . S
C202 H250 0.929 1_556 S
C203 C204 1.358 . S
C203 C205 1.356 . S
C203 H251 0.930 . S
C204 N201 1.279 . S
C204 C203 1.358 . S
C204 H207 0.930 . S
C205 C202 1.348 . S
C205 C203 1.356 . S
H206 C200 0.930 . S
H207 C204 0.930 . S
C208 C210 1.348 . S
C208 C211 1.356 . S
C208 O238 1.325 . S
N209 C212 1.314 . S
N209 C213 1.279 . S
C210 C208 1.348 . S
C210 C212 1.353 . S
C210 H252 0.929 . S
C211 C208 1.356 . S
C211 C213 1.358 . S
C211 H253 0.930 . S
C212 N209 1.314 . S
C212 C210 1.353 . S
C212 H254 0.930 . S
C213 N209 1.279 . S
C213 C211 1.358 . S
C213 H255 0.930 . S
C214 C215 1.348 . S
C214 C216 1.356 . S
C214 O239 1.325 . S
C215 C214 1.348 . S
C215 C217 1.353 . S
C215 H256 0.929 . S
C216 C214 1.356 . S
C216 C218 1.358 . S
C216 H257 0.930 . S
C217 C215 1.353 . S
C217 N219 1.314 . S
C217 H258 0.930 . S
C218 C216 1.358 . S
C218 N219 1.279 . S
C218 H259 0.930 . S
N219 C217 1.314 . S
N219 C218 1.279 . S
C220 C222 1.353 . S
C220 N223 1.314 . S
C220 H226 0.930 . S
C221 N223 1.279 . S
C221 C224 1.358 . S
C221 H227 0.930 . S
C222 C220 1.353 . S
C222 C225 1.348 . S
C222 H260 0.929 . S
N223 Li178 1.990 . S
N223 C220 1.314 . S
N223 C221 1.279 . S
C224 C221 1.358 . S
C224 C225 1.356 . S
C224 H261 0.930 . S
C225 C222 1.348 . S
C225 C224 1.356 . S
H226 C220 0.930 . S
H227 C221 0.930 . S
C228 N229 1.314 . S
C228 C230 1.353 . S
C228 H234 0.930 . S
N229 Li179 1.990 . S
N229 C228 1.314 . S
N229 C232 1.279 . S
C230 C228 1.353 . S
C230 C233 1.348 . S
C230 H262 0.929 . S
C231 C232 1.358 . S
C231 C233 1.356 . S
C231 H263 0.930 . S
C232 N229 1.279 . S
C232 C231 1.358 . S
C232 H235 0.930 . S
C233 C230 1.348 . S
C233 C231 1.356 . S
H234 C228 0.930 . S
H235 C232 0.930 . S
O236 Li176 1.956 . S
O236 Li177 1.970 . S
O236 Li178 1.961 . S
O236 C180 1.325 . S
O237 Li176 1.970 . S
O237 Li177 1.956 . S
O237 Li179 1.961 . S
O237 C186 1.325 . S
O238 Li176 1.961 . S
O238 Li178 1.956 . S
O238 Li179 1.970 . S
O238 C208 1.325 . S
O239 Li177 1.961 . S
O239 Li178 1.970 . S
O239 Li179 1.956 . S
O239 C214 1.325 . S
H240 C182 0.929 . S
H241 C183 0.930 . S
H242 C184 0.930 . S
H243 C185 0.930 . S
H244 C187 0.930 . S
H245 C189 0.929 . S
H246 C190 0.930 . S
H247 C191 0.930 . S
H248 C194 0.930 . S
H249 C197 0.929 . S
H250 C202 0.929 1_554 S
H251 C203 0.930 . S
H252 C210 0.929 . S
H253 C211 0.930 . S
H254 C212 0.930 . S
H255 C213 0.930 . S
H256 C215 0.929 . S
H257 C216 0.930 . S
H258 C217 0.930 . S
H259 C218 0.930 . S
H260 C222 0.929 . S
H261 C224 0.930 . S
H262 C230 0.929 . S
H263 C231 0.930 . S
Li264 N281 1.990 . S
Li264 O324 1.956 . S
Li264 O325 1.970 . S
Li264 O326 1.961 . S
Li265 N289 1.990 . S
Li265 O324 1.970 . S
Li265 O325 1.956 . S
Li265 O327 1.961 . S
Li266 N311 1.990 . S
Li266 O324 1.961 . S
Li266 O326 1.956 . S
Li266 O327 1.970 . S
Li267 N317 1.990 . S
Li267 O325 1.961 . S
Li267 O326 1.970 . S
Li267 O327 1.956 . S
C268 C270 1.348 . S
C268 C271 1.356 . S
C268 O324 1.325 . S
N269 C272 1.314 . S
N269 C273 1.279 . S
C270 C268 1.348 . S
C270 C272 1.353 . S
C270 H328 0.929 . S
C271 C268 1.356 . S
C271 C273 1.358 . S
C271 H329 0.930 . S
C272 N269 1.314 . S
C272 C270 1.353 . S
C272 H330 0.930 . S
C273 N269 1.279 . S
C273 C271 1.358 . S
C273 H331 0.930 . S
C274 C277 1.348 . S
C274 C278 1.356 . S
C274 O325 1.325 . S
C275 N276 1.279 . S
C275 C278 1.358 . S
C275 H332 0.930 . S
N276 C275 1.279 . S
N276 C279 1.314 . S
C277 C274 1.348 . S
C277 C279 1.353 . S
C277 H333 0.929 . S
C278 C274 1.356 . S
C278 C275 1.358 . S
C278 H334 0.930 . S
C279 N276 1.314 . S
C279 C277 1.353 . S
C279 H335 0.930 . S
C280 N281 1.314 . S
C280 C285 1.353 . S
C280 H286 0.930 . S
N281 Li264 1.990 . S
N281 C280 1.314 . S
N281 C283 1.279 . S
C282 C283 1.358 . S
C282 C284 1.356 . S
C282 H336 0.930 . S
C283 N281 1.279 . S
C283 C282 1.358 . S
C283 H287 0.930 . S
C284 C282 1.356 . S
C284 C285 1.348 . S
C285 C280 1.353 . S
C285 C284 1.348 . S
C285 H337 0.929 . S
H286 C280 0.930 . S
H287 C283 0.930 . S
C288 N289 1.314 . S
C288 C290 1.353 . S
C288 H294 0.930 . S
N289 Li265 1.990 . S
N289 C288 1.314 . S
N289 C292 1.279 . S
C290 C288 1.353 . S
C290 C293 1.348 . S
C290 H338 0.929 . S
C291 C292 1.358 . S
C291 C293 1.356 . S
C291 H339 0.930 . S
C292 N289 1.279 . S
C292 C291 1.358 . S
C292 H295 0.930 . S
C293 C290 1.348 . S
C293 C291 1.356 . S
H294 C288 0.930 . S
H295 C292 0.930 . S
C296 C298 1.348 . S
C296 C299 1.356 . S
C296 O326 1.325 . S
N297 C300 1.314 . S
N297 C301 1.279 . S
C298 C296 1.348 . S
C298 C300 1.353 . S
C298 H340 0.929 . S
C299 C296 1.356 . S
C299 C301 1.358 . S
C299 H341 0.930 . S
C300 N297 1.314 . S
C300 C298 1.353 . S
C300 H342 0.930 . S
C301 N297 1.279 . S
C301 C299 1.358 . S
C301 H343 0.930 . S
C302 C303 1.348 . S
C302 C304 1.356 . S
C302 O327 1.325 . S
C303 C302 1.348 . S
C303 C305 1.353 . S
C303 H344 0.929 . S
C304 C302 1.356 . S
C304 C306 1.358 . S
C304 H345 0.930 . S
C305 C303 1.353 . S
C305 N307 1.314 . S
C305 H346 0.930 . S
C306 C304 1.358 . S
C306 N307 1.279 . S
C306 H347 0.930 . S
N307 C305 1.314 . S
N307 C306 1.279 . S
C308 C310 1.353 . S
C308 N311 1.314 . S
C308 H314 0.930 . S
C309 N311 1.279 . S
C309 C312 1.358 . S
C309 H315 0.930 . S
C310 C308 1.353 . S
C310 C313 1.348 . S
C310 H348 0.929 . S
N311 Li266 1.990 . S
N311 C308 1.314 . S
N311 C309 1.279 . S
C312 C309 1.358 . S
C312 C313 1.356 . S
C312 H349 0.930 . S
C313 C310 1.348 . S
C313 C312 1.356 . S
H314 C308 0.930 . S
H315 C309 0.930 . S
C316 N317 1.314 . S
C316 C318 1.353 . S
C316 H322 0.930 . S
N317 Li267 1.990 . S
N317 C316 1.314 . S
N317 C320 1.279 . S
C318 C316 1.353 . S
C318 C321 1.348 . S
C318 H350 0.929 1_554 S
C319 C320 1.358 . S
C319 C321 1.356 . S
C319 H351 0.930 . S
C320 N317 1.279 . S
C320 C319 1.358 . S
C320 H323 0.930 . S
C321 C318 1.348 . S
C321 C319 1.356 . S
H322 C316 0.930 . S
H323 C320 0.930 . S
O324 Li264 1.956 . S
O324 Li265 1.970 . S
O324 Li266 1.961 . S
O324 C268 1.325 . S
O325 Li264 1.970 . S
O325 Li265 1.956 . S
O325 Li267 1.961 . S
O325 C274 1.325 . S
O326 Li264 1.961 . S
O326 Li266 1.956 . S
O326 Li267 1.970 . S
O326 C296 1.325 . S
O327 Li265 1.961 . S
O327 Li266 1.970 . S
O327 Li267 1.956 . S
O327 C302 1.325 . S
H328 C270 0.929 . S
H329 C271 0.930 . S
H330 C272 0.930 . S
H331 C273 0.930 . S
H332 C275 0.930 . S
H333 C277 0.929 . S
H334 C278 0.930 . S
H335 C279 0.930 . S
H336 C282 0.930 . S
H337 C285 0.929 . S
H338 C290 0.929 . S
H339 C291 0.930 . S
H340 C298 0.929 . S
H341 C299 0.930 . S
H342 C300 0.930 . S
H343 C301 0.930 . S
H344 C303 0.929 . S
H345 C304 0.930 . S
H346 C305 0.930 . S
H347 C306 0.930 . S
H348 C310 0.929 . S
H349 C312 0.930 . S
H350 C318 0.929 1_556 S
H351 C319 0.930 . S
Li352 N369 1.990 . S
Li352 O412 1.956 . S
Li352 O413 1.970 . S
Li352 O414 1.961 . S
Li353 N377 1.990 . S
Li353 O412 1.970 . S
Li353 O413 1.956 . S
Li353 O415 1.961 . S
Li354 N399 1.990 . S
Li354 O412 1.961 . S
Li354 O414 1.956 . S
Li354 O415 1.970 . S
Li355 N405 1.990 . S
Li355 O413 1.961 . S
Li355 O414 1.970 . S
Li355 O415 1.956 . S
C356 C358 1.348 . S
C356 C359 1.356 . S
C356 O412 1.325 . S
N357 C360 1.314 . S
N357 C361 1.279 . S
C358 C356 1.348 . S
C358 C360 1.353 . S
C358 H416 0.929 . S
C359 C356 1.356 . S
C359 C361 1.358 . S
C359 H417 0.930 . S
C360 N357 1.314 . S
C360 C358 1.353 . S
C360 H418 0.930 . S
C361 N357 1.279 . S
C361 C359 1.358 . S
C361 H419 0.930 . S
C362 C365 1.348 . S
C362 C366 1.356 . S
C362 O413 1.325 . S
C363 N364 1.279 . S
C363 C366 1.358 . S
C363 H420 0.930 . S
N364 C363 1.279 . S
N364 C367 1.314 . S
C365 C362 1.348 . S
C365 C367 1.353 . S
C365 H421 0.929 . S
C366 C362 1.356 . S
C366 C363 1.358 . S
C366 H422 0.930 . S
C367 N364 1.314 . S
C367 C365 1.353 . S
C367 H423 0.930 . S
C368 N369 1.314 . S
C368 C373 1.353 . S
C368 H374 0.930 . S
N369 Li352 1.990 . S
N369 C368 1.314 . S
N369 C371 1.279 . S
C370 C371 1.358 . S
C370 C372 1.356 . S
C370 H424 0.930 . S
C371 N369 1.279 . S
C371 C370 1.358 . S
C371 H375 0.930 . S
C372 C370 1.356 . S
C372 C373 1.348 . S
C373 C368 1.353 . S
C373 C372 1.348 . S
C373 H425 0.929 . S
H374 C368 0.930 . S
H375 C371 0.930 . S
C376 N377 1.314 . S
C376 C378 1.353 . S
C376 H382 0.930 . S
N377 Li353 1.990 . S
N377 C376 1.314 . S
N377 C380 1.279 . S
C378 C376 1.353 . S
C378 C381 1.348 . S
C378 H426 0.929 . S
C379 C380 1.358 . S
C379 C381 1.356 . S
C379 H427 0.930 . S
C380 N377 1.279 . S
C380 C379 1.358 . S
C380 H383 0.930 . S
C381 C378 1.348 . S
C381 C379 1.356 . S
H382 C376 0.930 . S
H383 C380 0.930 . S
C384 C386 1.348 . S
C384 C387 1.356 . S
C384 O414 1.325 . S
N385 C388 1.314 . S
N385 C389 1.279 . S
C386 C384 1.348 . S
C386 C388 1.353 . S
C386 H428 0.929 . S
C387 C384 1.356 . S
C387 C389 1.358 . S
C387 H429 0.930 . S
C388 N385 1.314 . S
C388 C386 1.353 . S
C388 H430 0.930 . S
C389 N385 1.279 . S
C389 C387 1.358 . S
C389 H431 0.930 . S
C390 C391 1.348 . S
C390 C392 1.356 . S
C390 O415 1.325 . S
C391 C390 1.348 . S
C391 C393 1.353 . S
C391 H432 0.929 . S
C392 C390 1.356 . S
C392 C394 1.358 . S
C392 H433 0.930 . S
C393 C391 1.353 . S
C393 N395 1.314 . S
C393 H434 0.930 . S
C394 C392 1.358 . S
C394 N395 1.279 . S
C394 H435 0.930 . S
N395 C393 1.314 . S
N395 C394 1.279 . S
C396 C398 1.353 . S
C396 N399 1.314 . S
C396 H402 0.930 . S
C397 N399 1.279 . S
C397 C400 1.358 . S
C397 H403 0.930 . S
C398 C396 1.353 . S
C398 C401 1.348 . S
C398 H436 0.929 . S
N399 Li354 1.990 . S
N399 C396 1.314 . S
N399 C397 1.279 . S
C400 C397 1.358 . S
C400 C401 1.356 . S
C400 H437 0.930 . S
C401 C398 1.348 . S
C401 C400 1.356 . S
H402 C396 0.930 . S
H403 C397 0.930 . S
C404 N405 1.314 . S
C404 C406 1.353 . S
C404 H410 0.930 . S
N405 Li355 1.990 . S
N405 C404 1.314 . S
N405 C408 1.279 . S
C406 C404 1.353 . S
C406 C409 1.348 . S
C406 H438 0.929 . S
C407 C408 1.358 . S
C407 C409 1.356 . S
C407 H439 0.930 . S
C408 N405 1.279 . S
C408 C407 1.358 . S
C408 H411 0.930 . S
C409 C406 1.348 . S
C409 C407 1.356 . S
H410 C404 0.930 . S
H411 C408 0.930 . S
O412 Li352 1.956 . S
O412 Li353 1.970 . S
O412 Li354 1.961 . S
O412 C356 1.325 . S
O413 Li352 1.970 . S
O413 Li353 1.956 . S
O413 Li355 1.961 . S
O413 C362 1.325 . S
O414 Li352 1.961 . S
O414 Li354 1.956 . S
O414 Li355 1.970 . S
O414 C384 1.325 . S
O415 Li353 1.961 . S
O415 Li354 1.970 . S
O415 Li355 1.956 . S
O415 C390 1.325 . S
H416 C358 0.929 . S
H417 C359 0.930 . S
H418 C360 0.930 . S
H419 C361 0.930 . S
H420 C363 0.930 . S
H421 C365 0.929 . S
H422 C366 0.930 . S
H423 C367 0.930 . S
H424 C370 0.930 . S
H425 C373 0.929 . S
H426 C378 0.929 . S
H427 C379 0.930 . S
H428 C386 0.929 . S
H429 C387 0.930 . S
H430 C388 0.930 . S
H431 C389 0.930 . S
H432 C391 0.929 . S
H433 C392 0.930 . S
H434 C393 0.930 . S
H435 C394 0.930 . S
H436 C398 0.929 . S
H437 C400 0.930 . S
H438 C406 0.929 . S
H439 C407 0.930 . S
Li440 N457 1.990 . S
Li440 O500 1.956 . S
Li440 O501 1.970 . S
Li440 O502 1.961 . S
Li441 N465 1.990 . S
Li441 O500 1.970 . S
Li441 O501 1.956 . S
Li441 O503 1.961 . S
Li442 N487 1.990 . S
Li442 O500 1.961 . S
Li442 O502 1.956 . S
Li442 O503 1.970 . S
Li443 N493 1.990 . S
Li443 O501 1.961 . S
Li443 O502 1.970 . S
Li443 O503 1.956 . S
C444 C446 1.348 . S
C444 C447 1.356 . S
C444 O500 1.325 . S
N445 C448 1.314 . S
N445 C449 1.279 . S
C446 C444 1.348 . S
C446 C448 1.353 . S
C446 H504 0.929 . S
C447 C444 1.356 . S
C447 C449 1.358 . S
C447 H505 0.930 . S
C448 N445 1.314 . S
C448 C446 1.353 . S
C448 H506 0.930 . S
C449 N445 1.279 . S
C449 C447 1.358 . S
C449 H507 0.930 . S
C450 C453 1.348 . S
C450 C454 1.356 . S
C450 O501 1.325 . S
C451 N452 1.279 . S
C451 C454 1.358 . S
C451 H508 0.930 . S
N452 C451 1.279 . S
N452 C455 1.314 . S
C453 C450 1.348 . S
C453 C455 1.353 . S
C453 H509 0.929 . S
C454 C450 1.356 . S
C454 C451 1.358 . S
C454 H510 0.930 . S
C455 N452 1.314 . S
C455 C453 1.353 . S
C455 H511 0.930 . S
C456 N457 1.314 . S
C456 C461 1.353 . S
C456 H462 0.930 . S
N457 Li440 1.990 . S
N457 C456 1.314 . S
N457 C459 1.279 . S
C458 C459 1.358 . S
C458 C460 1.356 . S
C458 H512 0.930 . S
C459 N457 1.279 . S
C459 C458 1.358 . S
C459 H463 0.930 . S
C460 C458 1.356 . S
C460 C461 1.348 . S
C461 C456 1.353 . S
C461 C460 1.348 . S
C461 H513 0.929 . S
H462 C456 0.930 . S
H463 C459 0.930 . S
C464 N465 1.314 . S
C464 C466 1.353 . S
C464 H470 0.930 . S
N465 Li441 1.990 . S
N465 C464 1.314 . S
N465 C468 1.279 . S
C466 C464 1.353 . S
C466 C469 1.348 . S
C466 H514 0.929 . S
C467 C468 1.358 . S
C467 C469 1.356 . S
C467 H515 0.930 . S
C468 N465 1.279 . S
C468 C467 1.358 . S
C468 H471 0.930 . S
C469 C466 1.348 . S
C469 C467 1.356 . S
H470 C464 0.930 . S
H471 C468 0.930 . S
C472 C474 1.348 . S
C472 C475 1.356 . S
C472 O502 1.325 . S
N473 C476 1.314 . S
N473 C477 1.279 . S
C474 C472 1.348 . S
C474 C476 1.353 . S
C474 H516 0.929 . S
C475 C472 1.356 . S
C475 C477 1.358 . S
C475 H517 0.930 . S
C476 N473 1.314 . S
C476 C474 1.353 . S
C476 H518 0.930 . S
C477 N473 1.279 . S
C477 C475 1.358 . S
C477 H519 0.930 . S
C478 C479 1.348 . S
C478 C480 1.356 . S
C478 O503 1.325 . S
C479 C478 1.348 . S
C479 C481 1.353 . S
C479 H520 0.929 . S
C480 C478 1.356 . S
C480 C482 1.358 . S
C480 H521 0.930 . S
C481 C479 1.353 . S
C481 N483 1.314 . S
C481 H522 0.930 . S
C482 C480 1.358 . S
C482 N483 1.279 . S
C482 H523 0.930 . S
N483 C481 1.314 . S
N483 C482 1.279 . S
C484 C486 1.353 . S
C484 N487 1.314 . S
C484 H490 0.930 . S
C485 N487 1.279 . S
C485 C488 1.358 . S
C485 H491 0.930 . S
C486 C484 1.353 . S
C486 C489 1.348 . S
C486 H524 0.929 . S
N487 Li442 1.990 . S
N487 C484 1.314 . S
N487 C485 1.279 . S
C488 C485 1.358 . S
C488 C489 1.356 . S
C488 H525 0.930 . S
C489 C486 1.348 . S
C489 C488 1.356 . S
H490 C484 0.930 . S
H491 C485 0.930 . S
C492 N493 1.314 . S
C492 C494 1.353 . S
C492 H498 0.930 . S
N493 Li443 1.990 . S
N493 C492 1.314 . S
N493 C496 1.279 . S
C494 C492 1.353 . S
C494 C497 1.348 . S
C494 H526 0.929 . S
C495 C496 1.358 . S
C495 C497 1.356 . S
C495 H527 0.930 . S
C496 N493 1.279 . S
C496 C495 1.358 . S
C496 H499 0.930 . S
C497 C494 1.348 . S
C497 C495 1.356 . S
H498 C492 0.930 . S
H499 C496 0.930 . S
O500 Li440 1.956 . S
O500 Li441 1.970 . S
O500 Li442 1.961 . S
O500 C444 1.325 . S
O501 Li440 1.970 . S
O501 Li441 1.956 . S
O501 Li443 1.961 . S
O501 C450 1.325 . S
O502 Li440 1.961 . S
O502 Li442 1.956 . S
O502 Li443 1.970 . S
O502 C472 1.325 . S
O503 Li441 1.961 . S
O503 Li442 1.970 . S
O503 Li443 1.956 . S
O503 C478 1.325 . S
H504 C446 0.929 . S
H505 C447 0.930 . S
H506 C448 0.930 . S
H507 C449 0.930 . S
H508 C451 0.930 . S
H509 C453 0.929 . S
H510 C454 0.930 . S
H511 C455 0.930 . S
H512 C458 0.930 . S
H513 C461 0.929 . S
H514 C466 0.929 . S
H515 C467 0.930 . S
H516 C474 0.929 . S
H517 C475 0.930 . S
H518 C476 0.930 . S
H519 C477 0.930 . S
H520 C479 0.929 . S
H521 C480 0.930 . S
H522 C481 0.930 . S
H523 C482 0.930 . S
H524 C486 0.929 . S
H525 C488 0.930 . S
H526 C494 0.929 . S
H527 C495 0.930 . S
C528 C529 1.349 . S
C528 C530 1.327 . S
C528 H553 0.950 . S
C529 C528 1.349 . S
C529 C545 1.349 . S
C530 C528 1.327 . S
C530 C549 1.429 . S
C530 H554 0.950 . S
C531 C548 1.574 1_545 S
C531 C550 1.368 . S
C531 H555 0.949 . S
H532 C536 0.949 . S
C533 C534 1.349 . S
C533 C535 1.327 . S
C533 H556 0.950 . S
C534 C533 1.349 . S
C534 C546 1.349 . S
C535 C533 1.327 . S
C535 C551 1.429 . S
C535 H557 0.950 . S
C536 H532 0.949 . S
C536 C544 1.574 1_565 S
C536 C552 1.368 . S
H537 C545 0.950 . S
H538 C543 0.950 . S
H539 C544 0.949 . S
H540 C546 0.950 . S
H541 C547 0.950 . S
H542 C548 0.949 . S
C543 H538 0.950 . S
C543 C545 1.327 . S
C543 C549 1.429 . S
C544 C536 1.574 1_545 S
C544 H539 0.949 . S
C544 C550 1.368 . S
C545 C529 1.349 . S
C545 H537 0.950 . S
C545 C543 1.327 . S
C546 C534 1.349 . S
C546 H540 0.950 . S
C546 C547 1.327 . S
C547 H541 0.950 . S
C547 C546 1.327 . S
C547 C551 1.429 . S
C548 C531 1.574 1_565 S
C548 H542 0.949 . S
C548 C552 1.368 . S
C549 C530 1.429 . S
C549 C543 1.429 . S
C549 C550 1.523 . S
C550 C531 1.368 . S
C550 C544 1.368 . S
C550 C549 1.523 . S
C551 C535 1.429 . S
C551 C547 1.429 . S
C551 C552 1.523 . S
C552 C536 1.368 . S
C552 C548 1.368 . S
C552 C551 1.523 . S
H553 C528 0.950 . S
H554 C530 0.950 . S
H555 C531 0.949 . S
H556 C533 0.950 . S
H557 C535 0.950 . S
C558 C559 1.349 . S
C558 C560 1.327 . S
C558 H583 0.950 . S
C559 C558 1.349 . S
C559 C575 1.349 . S
C560 C558 1.327 . S
C560 C579 1.429 . S
C560 H584 0.950 . S
C561 C578 1.574 . S
C561 C580 1.368 . S
C561 H585 0.949 . S
H562 C566 0.949 . S
C563 C564 1.349 . S
C563 C565 1.327 . S
C563 H586 0.950 . S
C564 C563 1.349 . S
C564 C576 1.349 . S
C565 C563 1.327 . S
C565 C581 1.429 . S
C565 H587 0.950 . S
C566 H562 0.949 . S
C566 C574 1.574 . S
C566 C582 1.368 . S
H567 C575 0.950 . S
H568 C573 0.950 . S
H569 C574 0.949 . S
H570 C576 0.950 . S
H571 C577 0.950 . S
H572 C578 0.949 . S
C573 H568 0.950 . S
C573 C575 1.327 . S
C573 C579 1.429 . S
C574 C566 1.574 . S
C574 H569 0.949 . S
C574 C580 1.368 . S
C575 C559 1.349 . S
C575 H567 0.950 . S
C575 C573 1.327 . S
C576 C564 1.349 . S
C576 H570 0.950 . S
C576 C577 1.327 . S
C577 H571 0.950 . S
C577 C576 1.327 . S
C577 C581 1.429 . S
C578 C561 1.574 . S
C578 H572 0.949 . S
C578 C582 1.368 . S
C579 C560 1.429 . S
C579 C573 1.429 . S
C579 C580 1.523 . S
C580 C561 1.368 . S
C580 C574 1.368 . S
C580 C579 1.523 . S
C581 C565 1.429 . S
C581 C577 1.429 . S
C581 C582 1.523 . S
C582 C566 1.368 . S
C582 C578 1.368 . S
C582 C581 1.523 . S
H583 C558 0.950 . S
H584 C560 0.950 . S
H585 C561 0.949 . S
H586 C563 0.950 . S
H587 C565 0.950 . S
C588 C589 1.349 . S
C588 C590 1.327 . S
C588 H613 0.950 . S
C589 C588 1.349 . S
C589 C605 1.349 . S
C590 C588 1.327 . S
C590 C609 1.429 . S
C590 H614 0.950 . S
C591 C608 1.574 1_655 S
C591 C610 1.368 . S
C591 H615 0.949 . S
H592 C596 0.949 . S
C593 C594 1.349 . S
C593 C595 1.327 . S
C593 H616 0.950 . S
C594 C593 1.349 . S
C594 C606 1.349 . S
C595 C593 1.327 . S
C595 C611 1.429 . S
C595 H617 0.950 . S
C596 H592 0.949 . S
C596 C604 1.574 1_455 S
C596 C612 1.368 . S
H597 C605 0.950 . S
H598 C603 0.950 . S
H599 C604 0.949 . S
H600 C606 0.950 . S
H601 C607 0.950 . S
H602 C608 0.949 . S
C603 H598 0.950 . S
C603 C605 1.327 . S
C603 C609 1.429 . S
C604 C596 1.574 1_655 S
C604 H599 0.949 . S
C604 C610 1.368 . S
C605 C589 1.349 . S
C605 H597 0.950 . S
C605 C603 1.327 . S
C606 C594 1.349 . S
C606 H600 0.950 . S
C606 C607 1.327 . S
C607 H601 0.950 . S
C607 C606 1.327 . S
C607 C611 1.429 . S
C608 C591 1.574 1_455 S
C608 H602 0.949 . S
C608 C612 1.368 . S
C609 C590 1.429 . S
C609 C603 1.429 . S
C609 C610 1.523 . S
C610 C591 1.368 . S
C610 C604 1.368 . S
C610 C609 1.523 . S
C611 C595 1.429 . S
C611 C607 1.429 . S
C611 C612 1.523 . S
C612 C596 1.368 . S
C612 C608 1.368 . S
C612 C611 1.523 . S
H613 C588 0.950 . S
H614 C590 0.950 . S
H615 C591 0.949 . S
H616 C593 0.950 . S
H617 C595 0.950 . S
C618 C619 1.349 . S
C618 C620 1.327 . S
C618 H643 0.950 . S
C619 C618 1.349 . S
C619 C635 1.349 . S
C620 C618 1.327 . S
C620 C639 1.429 . S
C620 H644 0.950 1_554 S
C621 C638 1.574 1_565 S
C621 C640 1.368 . S
C621 H645 0.949 . S
H622 C626 0.949 . S
C623 C624 1.349 . S
C623 C625 1.327 . S
C623 H646 0.950 . S
C624 C623 1.349 . S
C624 C636 1.349 . S
C625 C623 1.327 . S
C625 C641 1.429 . S
C625 H647 0.950 1_556 S
C626 H622 0.949 . S
C626 C634 1.574 1_545 S
C626 C642 1.368 . S
H627 C635 0.950 . S
H628 C633 0.950 . S
H629 C634 0.949 . S
H630 C636 0.950 . S
H631 C637 0.950 . S
H632 C638 0.949 . S
C633 H628 0.950 . S
C633 C635 1.327 . S
C633 C639 1.429 . S
C634 C626 1.574 1_565 S
C634 H629 0.949 . S
C634 C640 1.368 1_556 S
C635 C619 1.349 . S
C635 H627 0.950 . S
C635 C633 1.327 . S
C636 C624 1.349 . S
C636 H630 0.950 . S
C636 C637 1.327 . S
C637 H631 0.950 . S
C637 C636 1.327 . S
C637 C641 1.429 . S
C638 C621 1.574 1_545 S
C638 H632 0.949 . S
C638 C642 1.368 1_554 S
C639 C620 1.429 . S
C639 C633 1.429 . S
C639 C640 1.523 . S
C640 C621 1.368 . S
C640 C634 1.368 1_554 S
C640 C639 1.523 . S
C641 C625 1.429 . S
C641 C637 1.429 . S
C641 C642 1.523 . S
C642 C626 1.368 . S
C642 C638 1.368 1_556 S
C642 C641 1.523 . S
H643 C618 0.950 . S
H644 C620 0.950 1_556 S
H645 C621 0.949 . S
H646 C623 0.950 . S
H647 C625 0.950 1_554 S
C648 C649 1.349 . S
C648 C650 1.327 . S
C648 H673 0.950 . S
C649 C648 1.349 . S
C649 C665 1.349 . S
C650 C648 1.327 . S
C650 C669 1.429 . S
C650 H674 0.950 . S
C651 C668 1.574 . S
C651 C670 1.368 . S
C651 H675 0.949 . S
H652 C656 0.949 . S
C653 C654 1.349 . S
C653 C655 1.327 . S
C653 H676 0.950 . S
C654 C653 1.349 . S
C654 C666 1.349 . S
C655 C653 1.327 . S
C655 C671 1.429 . S
C655 H677 0.950 . S
C656 H652 0.949 . S
C656 C664 1.574 . S
C656 C672 1.368 . S
H657 C665 0.950 . S
H658 C663 0.950 . S
H659 C664 0.949 . S
H660 C666 0.950 . S
H661 C667 0.950 . S
H662 C668 0.949 . S
C663 H658 0.950 . S
C663 C665 1.327 . S
C663 C669 1.429 . S
C664 C656 1.574 . S
C664 H659 0.949 . S
C664 C670 1.368 . S
C665 C649 1.349 . S
C665 H657 0.950 . S
C665 C663 1.327 . S
C666 C654 1.349 . S
C666 H660 0.950 . S
C666 C667 1.327 . S
C667 H661 0.950 . S
C667 C666 1.327 . S
C667 C671 1.429 . S
C668 C651 1.574 . S
C668 H662 0.949 . S
C668 C672 1.368 . S
C669 C650 1.429 . S
C669 C663 1.429 . S
C669 C670 1.523 . S
C670 C651 1.368 . S
C670 C664 1.368 . S
C670 C669 1.523 . S
C671 C655 1.429 . S
C671 C667 1.429 . S
C671 C672 1.523 . S
C672 C656 1.368 . S
C672 C668 1.368 . S
C672 C671 1.523 . S
H673 C648 0.950 . S
H674 C650 0.950 . S
H675 C651 0.949 . S
H676 C653 0.950 . S
H677 C655 0.950 . S
C678 C679 1.349 . S
C678 C680 1.327 . S
C678 H703 0.950 . S
C679 C678 1.349 . S
C679 C695 1.349 . S
C680 C678 1.327 . S
C680 C699 1.429 . S
C680 H704 0.950 . S
C681 C698 1.574 1_455 S
C681 C700 1.368 . S
C681 H705 0.949 . S
H682 C686 0.949 . S
C683 C684 1.349 . S
C683 C685 1.327 . S
C683 H706 0.950 . S
C684 C683 1.349 . S
C684 C696 1.349 . S
C685 C683 1.327 . S
C685 C701 1.429 . S
C685 H707 0.950 . S
C686 H682 0.949 . S
C686 C694 1.574 1_655 S
C686 C702 1.368 . S
H687 C695 0.950 . S
H688 C693 0.950 . S
H689 C694 0.949 . S
H690 C696 0.950 . S
H691 C697 0.950 . S
H692 C698 0.949 . S
C693 H688 0.950 . S
C693 C695 1.327 . S
C693 C699 1.429 . S
C694 C686 1.574 1_455 S
C694 H689 0.949 . S
C694 C700 1.368 . S
C695 C679 1.349 . S
C695 H687 0.950 . S
C695 C693 1.327 . S
C696 C684 1.349 . S
C696 H690 0.950 . S
C696 C697 1.327 . S
C697 H691 0.950 . S
C697 C696 1.327 . S
C697 C701 1.429 . S
C698 C681 1.574 1_655 S
C698 H692 0.949 . S
C698 C702 1.368 . S
C699 C680 1.429 . S
C699 C693 1.429 . S
C699 C700 1.523 . S
C700 C681 1.368 . S
C700 C694 1.368 . S
C700 C699 1.523 . S
C701 C685 1.429 . S
C701 C697 1.429 . S
C701 C702 1.523 . S
C702 C686 1.368 . S
C702 C698 1.368 . S
C702 C701 1.523 . S
H703 C678 0.950 . S
H704 C680 0.950 . S
H705 C681 0.949 . S
H706 C683 0.950 . S
H707 C685 0.950 . S
C708 C709 1.349 . S
C708 C710 1.327 . S
C708 H733 0.950 . S
C709 C708 1.349 . S
C709 C725 1.349 . S
C710 C708 1.327 . S
C710 C729 1.429 . S
C710 H734 0.950 . S
C711 C728 1.574 . S
C711 C730 1.368 . S
C711 H735 0.949 . S
H712 C716 0.949 . S
C713 C714 1.349 . S
C713 C715 1.327 . S
C713 H736 0.950 . S
C714 C713 1.349 . S
C714 C726 1.349 . S
C715 C713 1.327 . S
C715 C731 1.429 . S
C715 H737 0.950 . S
C716 H712 0.949 . S
C716 C724 1.574 . S
C716 C732 1.368 . S
H717 C725 0.950 . S
H718 C723 0.950 . S
H719 C724 0.949 . S
H720 C726 0.950 . S
H721 C727 0.950 . S
H722 C728 0.949 . S
C723 H718 0.950 . S
C723 C725 1.327 . S
C723 C729 1.429 . S
C724 C716 1.574 . S
C724 H719 0.949 . S
C724 C730 1.368 . S
C725 C709 1.349 . S
C725 H717 0.950 . S
C725 C723 1.327 . S
C726 C714 1.349 . S
C726 H720 0.950 . S
C726 C727 1.327 . S
C727 H721 0.950 . S
C727 C726 1.327 . S
C727 C731 1.429 . S
C728 C711 1.574 . S
C728 H722 0.949 . S
C728 C732 1.368 . S
C729 C710 1.429 . S
C729 C723 1.429 . S
C729 C730 1.523 . S
C730 C711 1.368 . S
C730 C724 1.368 . S
C730 C729 1.523 . S
C731 C715 1.429 . S
C731 C727 1.429 . S
C731 C732 1.523 . S
C732 C716 1.368 . S
C732 C728 1.368 . S
C732 C731 1.523 . S
H733 C708 0.950 . S
H734 C710 0.950 . S
H735 C711 0.949 . S
H736 C713 0.950 . S
H737 C715 0.950 . S
C738 C739 1.349 . S
C738 C740 1.327 . S
C738 H763 0.950 . S
C739 C738 1.349 . S
C739 C755 1.349 . S
C740 C738 1.327 . S
C740 C759 1.429 . S
C740 H764 0.950 . S
C741 C758 1.574 . S
C741 C760 1.368 . S
C741 H765 0.949 . S
H742 C746 0.949 . S
C743 C744 1.349 . S
C743 C745 1.327 . S
C743 H766 0.950 . S
C744 C743 1.349 . S
C744 C756 1.349 . S
C745 C743 1.327 . S
C745 C761 1.429 . S
C745 H767 0.950 . S
C746 H742 0.949 . S
C746 C754 1.574 . S
C746 C762 1.368 . S
H747 C755 0.950 . S
H748 C753 0.950 . S
H749 C754 0.949 . S
H750 C756 0.950 . S
H751 C757 0.950 . S
H752 C758 0.949 . S
C753 H748 0.950 . S
C753 C755 1.327 . S
C753 C759 1.429 . S
C754 C746 1.574 . S
C754 H749 0.949 . S
C754 C760 1.368 . S
C755 C739 1.349 . S
C755 H747 0.950 . S
C755 C753 1.327 . S
C756 C744 1.349 . S
C756 H750 0.950 . S
C756 C757 1.327 . S
C757 H751 0.950 . S
C757 C756 1.327 . S
C757 C761 1.429 . S
C758 C741 1.574 . S
C758 H752 0.949 . S
C758 C762 1.368 . S
C759 C740 1.429 . S
C759 C753 1.429 . S
C759 C760 1.523 . S
C760 C741 1.368 . S
C760 C754 1.368 . S
C760 C759 1.523 . S
C761 C745 1.429 . S
C761 C757 1.429 . S
C761 C762 1.523 . S
C762 C746 1.368 . S
C762 C758 1.368 . S
C762 C761 1.523 . S
H763 C738 0.950 . S
H764 C740 0.950 . S
H765 C741 0.949 . S
H766 C743 0.950 . S
H767 C745 0.950 . S
C768 C769 1.349 . S
C768 C770 1.327 . S
C768 H793 0.950 . S
C769 C768 1.349 . S
C769 C785 1.349 . S
C770 C768 1.327 . S
C770 C789 1.429 . S
C770 H794 0.950 . S
C771 C788 1.574 . S
C771 C790 1.368 . S
C771 H795 0.949 . S
H772 C776 0.949 . S
C773 C774 1.349 . S
C773 C775 1.327 . S
C773 H796 0.950 . S
C774 C773 1.349 . S
C774 C786 1.349 . S
C775 C773 1.327 . S
C775 C791 1.429 . S
C775 H797 0.950 . S
C776 H772 0.949 . S
C776 C784 1.574 . S
C776 C792 1.368 . S
H777 C785 0.950 . S
H778 C783 0.950 . S
H779 C784 0.949 . S
H780 C786 0.950 . S
H781 C787 0.950 . S
H782 C788 0.949 . S
C783 H778 0.950 . S
C783 C785 1.327 . S
C783 C789 1.429 . S
C784 C776 1.574 . S
C784 H779 0.949 . S
C784 C790 1.368 . S
C785 C769 1.349 . S
C785 H777 0.950 . S
C785 C783 1.327 . S
C786 C774 1.349 . S
C786 H780 0.950 . S
C786 C787 1.327 . S
C787 H781 0.950 . S
C787 C786 1.327 . S
C787 C791 1.429 . S
C788 C771 1.574 . S
C788 H782 0.949 . S
C788 C792 1.368 . S
C789 C770 1.429 . S
C789 C783 1.429 . S
C789 C790 1.523 . S
C790 C771 1.368 . S
C790 C784 1.368 . S
C790 C789 1.523 . S
C791 C775 1.429 . S
C791 C787 1.429 . S
C791 C792 1.523 . S
C792 C776 1.368 . S
C792 C788 1.368 . S
C792 C791 1.523 . S
H793 C768 0.950 . S
H794 C770 0.950 . S
H795 C771 0.949 . S
H796 C773 0.950 . S
H797 C775 0.950 . S
C798 C799 1.349 . S
C798 C800 1.327 . S
C798 H823 0.950 . S
C799 C798 1.349 . S
C799 C815 1.349 . S
C800 C798 1.327 . S
C800 C819 1.429 . S
C800 H824 0.950 . S
C801 C818 1.574 . S
C801 C820 1.368 . S
C801 H825 0.949 . S
H802 C806 0.949 . S
C803 C804 1.349 . S
C803 C805 1.327 . S
C803 H826 0.950 . S
C804 C803 1.349 . S
C804 C816 1.349 . S
C805 C803 1.327 . S
C805 C821 1.429 . S
C805 H827 0.950 . S
C806 H802 0.949 . S
C806 C814 1.574 . S
C806 C822 1.368 . S
H807 C815 0.950 . S
H808 C813 0.950 . S
H809 C814 0.949 . S
H810 C816 0.950 . S
H811 C817 0.950 . S
H812 C818 0.949 . S
C813 H808 0.950 . S
C813 C815 1.327 . S
C813 C819 1.429 . S
C814 C806 1.574 . S
C814 H809 0.949 . S
C814 C820 1.368 . S
C815 C799 1.349 . S
C815 H807 0.950 . S
C815 C813 1.327 . S
C816 C804 1.349 . S
C816 H810 0.950 . S
C816 C817 1.327 . S
C817 H811 0.950 . S
C817 C816 1.327 . S
C817 C821 1.429 . S
C818 C801 1.574 . S
C818 H812 0.949 . S
C818 C822 1.368 . S
C819 C800 1.429 . S
C819 C813 1.429 . S
C819 C820 1.523 . S
C820 C801 1.368 . S
C820 C814 1.368 . S
C820 C819 1.523 . S
C821 C805 1.429 . S
C821 C817 1.429 . S
C821 C822 1.523 . S
C822 C806 1.368 . S
C822 C818 1.368 . S
C822 C821 1.523 . S
H823 C798 0.950 . S
H824 C800 0.950 . S
H825 C801 0.949 . S
H826 C803 0.950 . S
H827 C805 0.950 . S
C828 C829 1.349 . S
C828 C830 1.327 . S
C828 H853 0.950 . S
C829 C828 1.349 . S
C829 C845 1.349 . S
C830 C828 1.327 . S
C830 C849 1.429 . S
C830 H854 0.950 . S
C831 C848 1.574 . S
C831 C850 1.368 . S
C831 H855 0.949 . S
H832 C836 0.949 . S
C833 C834 1.349 . S
C833 C835 1.327 . S
C833 H856 0.950 . S
C834 C833 1.349 . S
C834 C846 1.349 . S
C835 C833 1.327 . S
C835 C851 1.429 . S
C835 H857 0.950 . S
C836 H832 0.949 . S
C836 C844 1.574 . S
C836 C852 1.368 . S
H837 C845 0.950 . S
H838 C843 0.950 . S
H839 C844 0.949 . S
H840 C846 0.950 . S
H841 C847 0.950 . S
H842 C848 0.949 . S
C843 H838 0.950 . S
C843 C845 1.327 . S
C843 C849 1.429 . S
C844 C836 1.574 . S
C844 H839 0.949 . S
C844 C850 1.368 . S
C845 C829 1.349 . S
C845 H837 0.950 . S
C845 C843 1.327 . S
C846 C834 1.349 . S
C846 H840 0.950 . S
C846 C847 1.327 . S
C847 H841 0.950 . S
C847 C846 1.327 . S
C847 C851 1.429 . S
C848 C831 1.574 . S
C848 H842 0.949 . S
C848 C852 1.368 . S
C849 C830 1.429 . S
C849 C843 1.429 . S
C849 C850 1.523 . S
C850 C831 1.368 . S
C850 C844 1.368 . S
C850 C849 1.523 . S
C851 C835 1.429 . S
C851 C847 1.429 . S
C851 C852 1.523 . S
C852 C836 1.368 . S
C852 C848 1.368 . S
C852 C851 1.523 . S
H853 C828 0.950 . S
H854 C830 0.950 . S
H855 C831 0.949 . S
H856 C833 0.950 . S
H857 C835 0.950 . S
C858 C859 1.349 . S
C858 C860 1.327 . S
C858 H883 0.950 . S
C859 C858 1.349 . S
C859 C875 1.349 . S
C860 C858 1.327 . S
C860 C879 1.429 . S
C860 H884 0.950 . S
C861 C878 1.574 . S
C861 C880 1.368 . S
C861 H885 0.949 . S
H862 C866 0.949 . S
C863 C864 1.349 . S
C863 C865 1.327 . S
C863 H886 0.950 . S
C864 C863 1.349 . S
C864 C876 1.349 . S
C865 C863 1.327 . S
C865 C881 1.429 . S
C865 H887 0.950 . S
C866 H862 0.949 . S
C866 C874 1.574 . S
C866 C882 1.368 . S
H867 C875 0.950 . S
H868 C873 0.950 . S
H869 C874 0.949 . S
H870 C876 0.950 . S
H871 C877 0.950 . S
H872 C878 0.949 . S
C873 H868 0.950 . S
C873 C875 1.327 . S
C873 C879 1.429 . S
C874 C866 1.574 . S
C874 H869 0.949 . S
C874 C880 1.368 . S
C875 C859 1.349 . S
C875 H867 0.950 . S
C875 C873 1.327 . S
C876 C864 1.349 . S
C876 H870 0.950 . S
C876 C877 1.327 . S
C877 H871 0.950 . S
C877 C876 1.327 . S
C877 C881 1.429 . S
C878 C861 1.574 . S
C878 H872 0.949 . S
C878 C882 1.368 . S
C879 C860 1.429 . S
C879 C873 1.429 . S
C879 C880 1.523 . S
C880 C861 1.368 . S
C880 C874 1.368 . S
C880 C879 1.523 . S
C881 C865 1.429 . S
C881 C877 1.429 . S
C881 C882 1.523 . S
C882 C866 1.368 . S
C882 C878 1.368 . S
C882 C881 1.523 . S
H883 C858 0.950 . S
H884 C860 0.950 . S
H885 C861 0.949 . S
H886 C863 0.950 . S
H887 C865 0.950 . S
C529 C20 1.313 . S
C534 C489 1.313 . S
C559 C49 1.313 . S
C564 C117 1.313 . S
C589 C196 1.313 . S
C594 C145 1.313 . S
C619 C284 1.313 . S
C624 C225 1.313 . S
C649 C372 1.313 . S
C654 C313 1.313 . S
C679 C460 1.313 . S
C684 C401 1.313 . S
C709 C57 1.605 . S
C714 C381 1.605 . S
C739 C469 1.606 . S
C744 C137 1.606 . S
C769 C233 1.605 . S
C774 C29 1.605 . S
C799 C108 1.605 . S
C804 C321 1.605 1_556 S
C829 C205 1.605 1_554 S
C834 C409 1.605 . S
C859 C497 1.606 . S
C864 C293 1.606 . S
