# Generated by pormake.
# Topology vby, (6)-cn, num edge types: 1
# Building blocks:
#     Node 0, Type 0, BuildingBlock: FUNLAD_clean_sbu_0, # of connection points: 6
#     Node 1, Type 0, BuildingBlock: FUNLAD_clean_sbu_0, # of connection points: 6
#     Node 2, Type 0, BuildingBlock: FUNLAD_clean_sbu_0, # of connection points: 6
#     Node 3, Type 0, BuildingBlock: FUNLAD_clean_sbu_0, # of connection points: 6
#     Node 4, Type 0, BuildingBlock: FUNLAD_clean_sbu_0, # of connection points: 6
#     Node 5, Type 0, BuildingBlock: FUNLAD_clean_sbu_0, # of connection points: 6
#     Node 6, Type 0, BuildingBlock: FUNLAD_clean_sbu_0, # of connection points: 6
#     Node 7, Type 0, BuildingBlock: FUNLAD_clean_sbu_0, # of connection points: 6
#     Edge 8, Type (0, 0), BuildingBlock: XUDNAN_clean_linker_2, # of connection points: 2
#     Edge 9, Type (0, 0), BuildingBlock: XUDNAN_clean_linker_2, # of connection points: 2
#     Edge 10, Type (0, 0), BuildingBlock: XUDNAN_clean_linker_2, # of connection points: 2
#     Edge 11, Type (0, 0), BuildingBlock: XUDNAN_clean_linker_2, # of connection points: 2
#     Edge 12, Type (0, 0), BuildingBlock: XUDNAN_clean_linker_2, # of connection points: 2
#     Edge 13, Type (0, 0), BuildingBlock: XUDNAN_clean_linker_2, # of connection points: 2
#     Edge 14, Type (0, 0), BuildingBlock: XUDNAN_clean_linker_2, # of connection points: 2
#     Edge 15, Type (0, 0), BuildingBlock: XUDNAN_clean_linker_2, # of connection points: 2
#     Edge 16, Type (0, 0), BuildingBlock: XUDNAN_clean_linker_2, # of connection points: 2
#     Edge 17, Type (0, 0), BuildingBlock: XUDNAN_clean_linker_2, # of connection points: 2
#     Edge 18, Type (0, 0), BuildingBlock: XUDNAN_clean_linker_2, # of connection points: 2
#     Edge 19, Type (0, 0), BuildingBlock: XUDNAN_clean_linker_2, # of connection points: 2
#     Edge 20, Type (0, 0), BuildingBlock: XUDNAN_clean_linker_2, # of connection points: 2
#     Edge 21, Type (0, 0), BuildingBlock: XUDNAN_clean_linker_2, # of connection points: 2
#     Edge 22, Type (0, 0), BuildingBlock: XUDNAN_clean_linker_2, # of connection points: 2
#     Edge 23, Type (0, 0), BuildingBlock: XUDNAN_clean_linker_2, # of connection points: 2
#     Edge 24, Type (0, 0), BuildingBlock: XUDNAN_clean_linker_2, # of connection points: 2
#     Edge 25, Type (0, 0), BuildingBlock: XUDNAN_clean_linker_2, # of connection points: 2
#     Edge 26, Type (0, 0), BuildingBlock: XUDNAN_clean_linker_2, # of connection points: 2
#     Edge 27, Type (0, 0), BuildingBlock: XUDNAN_clean_linker_2, # of connection points: 2
#     Edge 28, Type (0, 0), BuildingBlock: XUDNAN_clean_linker_2, # of connection points: 2
#     Edge 29, Type (0, 0), BuildingBlock: XUDNAN_clean_linker_2, # of connection points: 2
#     Edge 30, Type (0, 0), BuildingBlock: XUDNAN_clean_linker_2, # of connection points: 2
#     Edge 31, Type (0, 0), BuildingBlock: XUDNAN_clean_linker_2, # of connection points: 2
# Relax obj value: 0.049
# Max RMSD: 0.111
# Mean RMSD: 0.106
data_MOF--net-vby--node1-FUNLAD_clean_sbu_0--edge1-XUDNAN_clean_linker_2
_symmetry_space_group_name_H-M    P1
_symmetry_Int_Tables_number       1
_symmetry_cell_setting            triclinic
loop_
_symmetry_equiv_pos_as_xyz
'x, y, z'
_cell_length_a     15.055726
_cell_length_b     58.007751
_cell_length_c     43.294439
_cell_angle_alpha  88.270001
_cell_angle_beta   90.19352
_cell_angle_gamma 90.115823
loop_
_atom_site_label
_atom_site_type_symbol
_atom_site_fract_x
_atom_site_fract_y
_atom_site_fract_z
_atom_type_partial_charge
C0 C 0.00614 0.41892 1.01526 0.0
N1 N 0.03439 0.3787 0.09733 0.0
C2 C 0.06135 0.39885 0.10968 0.0
C3 C 0.05694 0.40194 0.14152 0.0
C4 C 0.02714 0.38389 0.16142 0.0
C5 C 0.00063 0.36316 0.14795 0.0
C6 C 0.00375 0.36104 0.11583 0.0
Zn7 Zn 0.03924 0.37523 0.04986 0.0
C8 C 0.86213 0.36476 0.02266 0.0
N9 N 0.04621 0.36735 0.95122 0.0
C10 C 0.09654 0.38283 0.93471 0.0
C11 C -0.00285 0.35111 0.93671 0.0
C12 C -0.00261 0.35011 0.9044 0.0
C13 C 0.0497 0.36573 0.88694 0.0
C14 C 0.09979 0.38221 0.90252 0.0
Zn15 Zn 0.04234 0.3701 0.99866 0.0
O16 O 0.01334 0.41071 0.04267 0.0
C17 C 0.21861 0.38178 0.02383 0.0
O18 O 0.01397 0.40559 0.99268 0.0
H19 H 0.95739 0.33897 0.95016 0.0
H20 H 0.08611 0.41272 0.09484 0.0
H21 H 0.13392 0.39588 0.94648 0.0
O22 O 0.17926 0.38191 0.0498 0.0
O23 O 0.17517 0.37743 0.99958 0.0
H24 H -0.0181 0.34517 0.10574 0.0
O25 O 0.0733 0.33471 1.00536 0.0
O26 O 0.06808 0.33982 0.05541 0.0
O27 O 0.90932 0.36321 0.99865 0.0
O28 O 0.89896 0.36885 0.04846 0.0
C29 C 0.08282 0.32679 0.03289 0.0
H30 H 0.07611 0.41852 0.15022 0.0
H31 H -0.02143 0.34849 0.16193 0.0
H32 H 0.95827 0.33706 0.89322 0.0
H33 H 0.14022 0.39473 0.88989 0.0
C34 C 0.95427 0.58746 0.01678 0.0
N35 N 0.94477 0.62983 0.09468 0.0
C36 C 0.89979 0.61518 0.11427 0.0
C37 C 0.90785 0.61726 0.14645 0.0
C38 C 0.96284 0.63455 0.15841 0.0
C39 C 0.01078 0.64867 0.13749 0.0
C40 C -0.00022 0.64627 0.10588 0.0
Zn41 Zn 0.93078 0.63068 0.04712 0.0
C42 C 0.10668 0.64161 0.01865 0.0
N43 N 0.91422 0.6391 0.94871 0.0
C44 C 0.8575 0.62411 0.93517 0.0
C45 C 0.9654 0.65388 0.93137 0.0
C46 C 0.96138 0.65371 0.89908 0.0
C47 C 0.90316 0.63844 0.88462 0.0
C48 C 0.8504 0.62363 0.90306 0.0
Zn49 Zn 0.92547 0.63745 0.99594 0.0
O50 O 0.95196 0.59483 0.04416 0.0
C51 C 0.74925 0.62805 0.02642 0.0
O52 O 0.94578 0.6016 0.99396 0.0
H53 H 0.01008 0.66564 0.94256 0.0
H54 H 0.85592 0.6023 0.105 0.0
H55 H 0.81848 0.61223 0.94927 0.0
O56 O 0.79661 0.62542 0.05054 0.0
O57 O 0.7858 0.63235 1.00042 0.0
H58 H 0.03406 0.65808 0.09026 0.0
O59 O 0.90229 0.67333 0.99877 0.0
O60 O 0.9065 0.66639 0.04885 0.0
O61 O 0.06568 0.643 0.99297 0.0
O62 O 0.06467 0.63641 0.04312 0.0
C63 C 0.89461 0.68043 0.02612 0.0
H64 H 0.86929 0.60602 0.16167 0.0
H65 H 0.05572 0.66186 0.14541 0.0
H66 H 0.00266 0.6655 0.88557 0.0
H67 H 0.80537 0.61145 0.89275 0.0
C68 C -0.02061 0.5868 0.52483 0.0
N69 N 0.02763 0.63424 0.45001 0.0
C70 C 0.06523 0.61762 0.43278 0.0
C71 C 0.06286 0.61944 0.40037 0.0
C72 C 0.02117 0.63852 0.38566 0.0
C73 C -0.01797 0.65513 0.40424 0.0
C74 C -0.01328 0.65277 0.43628 0.0
Zn75 Zn 0.02531 0.63294 0.49757 0.0
C76 C 0.84375 0.64209 0.51956 0.0
N77 N 0.01011 0.63321 0.59625 0.0
C78 C 0.04738 0.61678 0.61532 0.0
C79 C 0.95866 0.6502 0.6077 0.0
C80 C 0.93969 0.65061 0.63911 0.0
C81 C 0.97452 0.63352 0.6592 0.0
C82 C 0.03081 0.61672 0.6472 0.0
Zn83 Zn 0.01933 0.63292 0.54895 0.0
O84 O -0.01244 0.59701 0.49849 0.0
C85 C 0.19955 0.62254 0.52488 0.0
O86 O -0.00849 0.59803 0.54921 0.0
H87 H 0.92997 0.66319 0.5923 0.0
H88 H 0.09723 0.60297 0.44414 0.0
H89 H 0.08786 0.60339 0.60574 0.0
O90 O 0.15603 0.62364 0.49974 0.0
O91 O 0.16023 0.62602 0.55039 0.0
H92 H 0.95691 0.66579 0.45025 0.0
O93 O 0.04934 0.66759 0.54852 0.0
O94 O 0.06854 0.66863 0.49836 0.0
O95 O 0.87933 0.63935 0.54603 0.0
O96 O 0.89224 0.64184 0.49576 0.0
C97 C 0.07508 0.67832 0.52427 0.0
H98 H 0.09444 0.60627 0.38705 0.0
H99 H 0.94718 0.66985 0.39417 0.0
H100 H 0.89692 0.66402 0.64757 0.0
H101 H 0.05867 0.60322 0.66208 0.0
C102 C 0.89395 0.32386 0.52271 0.0
N103 N 0.9111 0.37514 0.4507 0.0
C104 C 0.94687 0.35793 0.434 0.0
C105 C 0.95632 0.36054 0.40195 0.0
C106 C 0.93057 0.38124 0.38705 0.0
C107 C 0.89179 0.39849 0.40453 0.0
C108 C 0.88157 0.39496 0.43645 0.0
Zn109 Zn 0.91441 0.37217 0.49846 0.0
C110 C 0.73844 0.37664 0.52617 0.0
N111 N 0.92932 0.36643 0.59773 0.0
C112 C -0.01163 0.35057 0.60914 0.0
C113 C 0.88518 0.3806 0.61695 0.0
C114 C 0.90237 0.37964 0.64885 0.0
C115 C 0.96627 0.36415 0.66089 0.0
C116 C 0.00801 0.34919 0.64064 0.0
Zn117 Zn 0.91884 0.36959 0.55022 0.0
O118 O 0.89135 0.33542 0.49725 0.0
C119 C 0.09565 0.36726 0.52062 0.0
O120 O 0.90799 0.33416 0.54767 0.0
H121 H 0.83876 0.39316 0.60746 0.0
H122 H 0.97149 0.34247 0.44563 0.0
H123 H 0.0227 0.33939 0.59363 0.0
O124 O 0.04865 0.36762 0.49633 0.0
O125 O 0.05886 0.36766 0.54693 0.0
H126 H 0.85293 0.40844 0.44993 0.0
O127 O 0.92806 0.40508 0.55228 0.0
O128 O 0.93444 0.40893 0.50173 0.0
O129 O 0.77803 0.37236 0.55176 0.0
O130 O 0.78154 0.37732 0.50105 0.0
C131 C 0.93387 0.41797 0.52817 0.0
H132 H -0.01245 0.347 0.38916 0.0
H133 H 0.8715 0.41473 0.3937 0.0
H134 H 0.86905 0.39155 0.66371 0.0
H135 H 0.05686 0.3368 0.64901 0.0
C136 C 0.46931 0.91601 0.03269 0.0
N137 N 0.50186 0.8678 0.10539 0.0
C138 C 0.54769 0.88274 0.12316 0.0
C139 C 0.54303 0.88076 0.15546 0.0
C140 C 0.49065 0.86325 0.16938 0.0
C141 C 0.44289 0.84849 0.1503 0.0
C142 C 0.44999 0.85095 0.11839 0.0
Zn143 Zn 0.50595 0.86896 0.05821 0.0
C144 C 0.32927 0.86135 0.03054 0.0
N145 N 0.50896 0.86947 0.9596 0.0
C146 C 0.54915 0.88541 0.94057 0.0
C147 C 0.46609 0.85096 0.94797 0.0
C148 C 0.46318 0.8477 0.91634 0.0
C149 C 0.50582 0.86341 0.89607 0.0
C150 C 0.54825 0.88272 0.90845 0.0
Zn151 Zn 0.50988 0.87047 1.00694 0.0
O152 O 0.48143 0.90388 0.05723 0.0
C153 C 0.68542 0.87918 0.03218 0.0
O154 O 0.476 0.90672 1.00646 0.0
H155 H 0.43449 0.83842 0.9633 0.0
H156 H 0.58842 0.89604 0.11231 0.0
H157 H 0.58297 0.89999 0.95029 0.0
O158 O 0.64723 0.8752 0.05806 0.0
O159 O 0.64058 0.87885 1.00739 0.0
H160 H 0.41407 0.83922 0.10396 0.0
O161 O 0.5477 0.83447 1.00899 0.0
O162 O 0.53172 0.83396 0.05918 0.0
O163 O 0.37725 0.86243 1.00666 0.0
O164 O 0.36527 0.86325 0.05689 0.0
C165 C 0.55221 0.82361 0.03491 0.0
H166 H 0.58132 0.89244 0.16932 0.0
H167 H 0.40013 0.83508 0.1599 0.0
H168 H 0.42792 0.83286 0.90787 0.0
H169 H 0.58216 0.89522 0.8936 0.0
C170 C 0.43463 0.08456 0.0398 0.0
N171 N 0.43294 0.1327 0.10984 0.0
C172 C 0.38894 0.11771 0.12921 0.0
C173 C 0.40626 0.11744 0.16108 0.0
C174 C 0.47021 0.13253 0.17289 0.0
C175 C 0.51217 0.14828 0.15248 0.0
C176 C 0.49227 0.14813 0.12102 0.0
Zn177 Zn 0.42059 0.13175 0.06251 0.0
C178 C 0.59742 0.13561 0.0323 0.0
N179 N 0.40896 0.1308 0.96336 0.0
C180 C 0.35954 0.11399 0.9503 0.0
C181 C 0.45908 0.14555 0.9456 0.0
C182 C 0.46369 0.14308 0.91358 0.0
C183 C 0.41599 0.1253 0.8996 0.0
C184 C 0.3617 0.11102 0.91841 0.0
Zn185 Zn 0.41589 0.13187 1.01082 0.0
O186 O 0.43059 0.09609 0.06421 0.0
C187 C 0.2399 0.12596 0.03938 0.0
O188 O 0.43385 0.09505 1.01355 0.0
H189 H 0.49808 0.15878 0.95639 0.0
H190 H 0.34226 0.10553 0.11988 0.0
H191 H 0.32018 0.1024 0.96474 0.0
O192 O 0.27998 0.12857 0.06499 0.0
O193 O 0.28259 0.12696 1.01422 0.0
H194 H 0.52631 0.16001 0.10537 0.0
O195 O 0.39458 0.1686 1.00963 0.0
O196 O 0.40819 0.16729 0.06017 0.0
O197 O 0.5504 0.13615 1.00802 0.0
O198 O 0.56058 0.1342 0.05861 0.0
C199 C 0.39468 0.17884 0.03527 0.0
H200 H 0.37277 0.10498 0.17611 0.0
H201 H 0.56104 0.16039 0.16072 0.0
H202 H 0.50707 0.1544 0.90018 0.0
H203 H 0.32227 0.09738 0.9087 0.0
C204 C 0.49586 0.08385 0.53858 0.0
N205 N 0.54057 0.13005 0.46339 0.0
C206 C 0.58815 0.11345 0.4493 0.0
C207 C 0.59203 0.11295 0.4171 0.0
C208 C 0.54521 0.12943 0.39914 0.0
C209 C 0.49533 0.14612 0.41417 0.0
C210 C 0.49455 0.14625 0.44649 0.0
Zn211 Zn 0.53779 0.13 0.51097 0.0
C212 C 0.35856 0.13916 0.53384 0.0
N213 N 0.53118 0.12928 0.61009 0.0
C214 C 0.57631 0.11224 0.62563 0.0
C215 C 0.47938 0.14435 0.62543 0.0
C216 C 0.46912 0.14208 0.65753 0.0
C217 C 0.51259 0.12412 0.67402 0.0
C218 C 0.56825 0.10941 0.65763 0.0
Zn219 Zn 0.53535 0.1302 0.56256 0.0
O220 O 0.5035 0.09405 0.51229 0.0
C221 C 0.71419 0.12042 0.53736 0.0
O222 O 0.50744 0.09515 0.56288 0.0
H223 H 0.44386 0.15775 0.61267 0.0
H224 H 0.62338 0.10053 0.46304 0.0
H225 H 0.61699 0.10039 0.61307 0.0
O226 O 0.66896 0.12169 0.51268 0.0
O227 O 0.67627 0.1234 0.56318 0.0
H228 H 0.4573 0.15934 0.45807 0.0
O229 O 0.5652 0.16511 0.56165 0.0
O230 O 0.57546 0.16577 0.51095 0.0
O231 O 0.39498 0.13682 0.56033 0.0
O232 O 0.40588 0.13819 0.5098 0.0
C233 C 0.58452 0.17583 0.53653 0.0
H234 H 0.63068 0.09969 0.40633 0.0
H235 H 0.45892 0.15922 0.40106 0.0
H236 H 0.42501 0.15373 0.66907 0.0
H237 H 0.60448 0.0956 0.66936 0.0
C238 C 0.4182 0.821 0.53022 0.0
N239 N 0.44188 0.87109 0.45962 0.0
C240 C 0.49481 0.85481 0.44725 0.0
C241 C 0.4988 0.85237 0.41551 0.0
C242 C 0.44678 0.86653 0.39592 0.0
C243 C 0.39462 0.88378 0.409 0.0
C244 C 0.39298 0.88574 0.44123 0.0
Zn245 Zn 0.43699 0.8701 0.50694 0.0
C246 C 0.25875 0.87038 0.5308 0.0
N247 N 0.43919 0.86322 0.60553 0.0
C248 C 0.49588 0.84737 0.61833 0.0
C249 C 0.388 0.87667 0.62354 0.0
C250 C 0.39282 0.87434 0.65583 0.0
C251 C 0.45095 0.85804 0.66956 0.0
C252 C 0.50322 0.84461 0.65025 0.0
Zn253 Zn 0.43862 0.86612 0.55826 0.0
O254 O 0.41769 0.8335 0.50563 0.0
C255 C 0.61686 0.8638 0.53261 0.0
O256 O 0.43071 0.83033 0.55598 0.0
H257 H 0.34353 0.88921 0.61288 0.0
H258 H 0.53279 0.84317 0.46206 0.0
H259 H 0.53632 0.83688 0.60373 0.0
O260 O 0.57187 0.86606 0.50804 0.0
O261 O 0.57869 0.86438 0.5586 0.0
H262 H 0.35106 0.89851 0.45154 0.0
O263 O 0.44442 0.90183 0.55989 0.0
O264 O 0.45186 0.90676 0.50938 0.0
O265 O 0.29791 0.86737 0.55671 0.0
O266 O 0.30325 0.87353 0.50625 0.0
C267 C 0.44965 0.91523 0.5362 0.0
H268 H 0.54137 0.83917 0.40642 0.0
H269 H 0.3534 0.89502 0.39462 0.0
H270 H 0.3508 0.88495 0.66981 0.0
H271 H 0.55041 0.83219 0.65966 0.0
H272 H 0.34861 0.37566 0.06866 0.0
H273 H 0.30562 0.39437 0.97176 0.0
H274 H 0.46523 0.39163 0.96221 0.0
H275 H 0.56666 0.40731 0.07472 0.0
H276 H 0.61319 0.38551 0.1005 0.0
H277 H 0.4955 0.39115 0.10089 0.0
H278 H 0.46527 0.34794 0.09151 0.0
H279 H 0.58274 0.34226 0.09028 0.0
H280 H 0.51282 0.33478 0.0582 0.0
H281 H 0.6192 0.38082 0.96043 0.0
H282 H 0.77552 0.37135 0.96843 0.0
H283 H 0.73014 0.36263 0.06733 0.0
C284 C 0.37346 0.37988 0.04573 0.0
C285 C 0.31492 0.38496 0.02087 0.0
C286 C 0.3493 0.39017 0.99106 0.0
C287 C 0.43982 0.38865 0.98533 0.0
C288 C 0.49525 0.38232 1.00978 0.0
C289 C 0.46469 0.37873 0.03959 0.0
C290 C 0.54035 0.3718 0.06122 0.0
C291 C 0.55479 0.39003 0.08578 0.0
C292 C 0.52429 0.34777 0.07618 0.0
C293 C 0.61696 0.37147 0.03853 0.0
C294 C 0.58822 0.37731 1.00901 0.0
C295 C 0.64351 0.37678 0.98351 0.0
C296 C 0.73218 0.37109 0.98836 0.0
C297 C 0.76534 0.36643 0.0186 0.0
C298 C 0.70664 0.36628 0.04403 0.0
H299 H 0.23848 0.6343 0.97577 0.0
H300 H 0.18972 0.65768 0.06859 0.0
H301 H 0.34936 0.65742 0.07933 0.0
H302 H 0.40578 0.59584 0.99454 0.0
H303 H 0.47629 0.60188 0.9617 0.0
H304 H 0.35847 0.6067 0.95867 0.0
H305 H 0.38531 0.64933 0.94159 0.0
H306 H 0.50343 0.6445 0.94381 0.0
H307 H 0.4539 0.66736 0.96512 0.0
H308 H 0.50534 0.64856 0.08379 0.0
H309 H 0.66275 0.63886 0.07851 0.0
H310 H 0.61948 0.62343 0.98196 0.0
C311 C 0.26209 0.64008 0.99789 0.0
C312 C 0.20223 0.64578 0.02147 0.0
C313 C 0.23472 0.65297 0.05036 0.0
C314 C 0.32521 0.65293 0.05672 0.0
C315 C 0.38237 0.646 0.03377 0.0
C316 C 0.35318 0.64031 1.00465 0.0
C317 C 0.43012 0.63265 0.9849 0.0
C318 C 0.41682 0.60779 0.97434 0.0
C319 C 0.44402 0.64947 0.95721 0.0
C320 C 0.50566 0.63415 1.00802 0.0
C321 C 0.47579 0.64176 0.03603 0.0
C322 C 0.53046 0.64308 0.06181 0.0
C323 C 0.61948 0.63723 0.05865 0.0
C324 C 0.65301 0.63045 0.0298 0.0
C325 C 0.59529 0.62869 1.00419 0.0
H326 H 0.71052 0.64893 0.56255 0.0
H327 H 0.75804 0.63053 0.46736 0.0
H328 H 0.60155 0.62021 0.46155 0.0
H329 H 0.54981 0.60577 0.58161 0.0
H330 H 0.47739 0.62411 0.60301 0.0
H331 H 0.59457 0.63036 0.60091 0.0
H332 H 0.56144 0.67152 0.57896 0.0
H333 H 0.44419 0.66558 0.58172 0.0
H334 H 0.49137 0.67508 0.5453 0.0
H335 H 0.4478 0.60848 0.4664 0.0
H336 H 0.28866 0.60509 0.47701 0.0
H337 H 0.32923 0.63437 0.56726 0.0
C338 C 0.68737 0.64308 0.54041 0.0
C339 C 0.74678 0.64038 0.51551 0.0
C340 C 0.7141 0.63282 0.48679 0.0
C341 C 0.62535 0.62664 0.48328 0.0
C342 C 0.56939 0.62862 0.50845 0.0
C343 C 0.59757 0.63741 0.53611 0.0
C344 C 0.5205 0.63907 0.55852 0.0
C345 C 0.53657 0.62392 0.58774 0.0
C346 C 0.50336 0.66431 0.56659 0.0
C347 C 0.44555 0.62951 0.53907 0.0
C348 C 0.47661 0.62317 0.51058 0.0
C349 C 0.42199 0.61368 0.48842 0.0
C350 C 0.3317 0.61176 0.49477 0.0
C351 C 0.29647 0.61971 0.52282 0.0
C352 C 0.3545 0.62802 0.54574 0.0
H353 H 0.60832 0.3625 0.5672 0.0
H354 H 0.65443 0.40058 0.4807 0.0
H355 H 0.49419 0.40345 0.47192 0.0
H356 H 0.43412 0.32921 0.54169 0.0
H357 H 0.36733 0.32999 0.57611 0.0
H358 H 0.486 0.33325 0.57873 0.0
H359 H 0.46722 0.37222 0.60568 0.0
H360 H 0.34827 0.36887 0.60374 0.0
H361 H 0.40005 0.39454 0.58759 0.0
H362 H 0.33703 0.39715 0.4676 0.0
H363 H 0.17915 0.3874 0.47196 0.0
H364 H 0.22666 0.35522 0.5625 0.0
C365 C 0.58418 0.37197 0.54694 0.0
C366 C 0.64313 0.38109 0.52446 0.0
C367 C 0.60999 0.39319 0.49799 0.0
C368 C 0.51921 0.39502 0.49281 0.0
C369 C 0.46271 0.38493 0.51453 0.0
C370 C 0.49297 0.37408 0.54141 0.0
C371 C 0.41655 0.36379 0.55992 0.0
C372 C 0.42665 0.3375 0.56436 0.0
C373 C 0.40749 0.37556 0.59108 0.0
C374 C 0.33979 0.36988 0.53852 0.0
C375 C 0.36872 0.382 0.5125 0.0
C376 C 0.31269 0.38812 0.48812 0.0
C377 C 0.22347 0.38224 0.49068 0.0
C378 C 0.1913 0.37061 0.5176 0.0
C379 C 0.25002 0.36427 0.54183 0.0
H380 H 0.8152 0.87058 0.07668 0.0
H381 H 0.77443 0.89306 0.98089 0.0
H382 H 0.93328 0.88934 0.97113 0.0
H383 H 0.03397 0.90116 0.08427 0.0
H384 H 0.07975 0.87863 0.10905 0.0
H385 H 0.96223 0.88446 0.10963 0.0
H386 H 0.93098 0.84163 0.09812 0.0
H387 H 0.04833 0.83579 0.09668 0.0
H388 H -0.02162 0.82931 0.06419 0.0
H389 H 0.08604 0.8776 0.96864 0.0
H390 H 0.2426 0.86835 0.97634 0.0
H391 H 0.19687 0.85723 0.07492 0.0
C392 C 0.84032 0.87531 0.05395 0.0
C393 C 0.78224 0.88171 0.02944 0.0
C394 C 0.81733 0.88776 0.99995 0.0
C395 C 0.90753 0.88566 0.99406 0.0
C396 C 0.96218 0.87805 0.01807 0.0
C397 C 0.93139 0.87376 0.0477 0.0
C398 C 0.0068 0.86613 0.06903 0.0
C399 C 0.02157 0.88364 0.0945 0.0
C400 C -0.00993 0.84176 0.08281 0.0
C401 C 0.0835 0.86629 0.04635 0.0
C402 C 0.05488 0.87282 0.01706 0.0
C403 C 0.11031 0.87303 0.99156 0.0
C404 C 0.19917 0.86751 0.99625 0.0
C405 C 0.23238 0.86237 0.02636 0.0
C406 C 0.17338 0.86127 0.05171 0.0
H407 H 0.10929 0.1383 0.08016 0.0
H408 H 0.15653 0.10378 0.99404 0.0
H409 H -0.00356 0.10139 0.98478 0.0
H410 H 0.89944 0.10554 0.1001 0.0
H411 H 0.84801 0.13058 0.11596 0.0
H412 H 0.9668 0.12703 0.11828 0.0
H413 H -0.01261 0.16712 0.09121 0.0
H414 H 0.86888 0.17061 0.08817 0.0
H415 H 0.93668 0.17277 0.05396 0.0
H416 H 0.83953 0.10811 0.97987 0.0
H417 H 0.68167 0.11771 0.98378 0.0
H418 H 0.72785 0.14596 0.07434 0.0
C419 C 0.08537 0.12966 0.05991 0.0
C420 C 0.14462 0.12146 0.03764 0.0
C421 C 0.11183 0.11046 1.01116 0.0
C422 C 0.02114 0.10892 1.00571 0.0
C423 C 0.96436 0.11818 0.02718 0.0
C424 C -0.00578 0.12785 0.05411 0.0
C425 C 0.91759 0.13744 0.07232 0.0
C426 C 0.90735 0.12436 0.10351 0.0
C427 C 0.92833 0.16353 0.07665 0.0
C428 C 0.84123 0.13232 0.0507 0.0
C429 C 0.8705 0.12129 0.02482 0.0
C430 C 0.8149 0.11626 1.00029 0.0
C431 C 0.7257 0.12206 1.00259 0.0
C432 C 0.69313 0.13251 0.0294 0.0
C433 C 0.75148 0.13781 0.05374 0.0
H434 H 0.22719 0.1413 0.57868 0.0
H435 H 0.26989 0.13565 0.47979 0.0
H436 H 0.11286 0.12702 0.47245 0.0
H437 H 0.06521 0.09719 0.58802 0.0
H438 H -0.00581 0.11242 0.61389 0.0
H439 H 0.11151 0.11861 0.61279 0.0
H440 H 0.07936 0.16186 0.601 0.0
H441 H 0.96199 0.15589 0.60288 0.0
H442 H 0.00827 0.16994 0.56888 0.0
H443 H 0.96069 0.1145 0.4754 0.0
H444 H 0.80256 0.10939 0.48575 0.0
H445 H 0.84513 0.12727 0.58159 0.0
C446 C 0.20292 0.13865 0.55548 0.0
C447 C 0.26137 0.1388 0.52994 0.0
C448 C 0.22706 0.13545 0.49985 0.0
C449 C 0.13786 0.13033 0.49536 0.0
C450 C 0.08308 0.12918 0.52102 0.0
C451 C 0.11261 0.1341 0.55031 0.0
C452 C 0.03641 0.1329 0.57325 0.0
C453 C 0.05286 0.11416 0.59848 0.0
C454 C 0.02056 0.15656 0.58733 0.0
C455 C 0.96048 0.12625 0.55208 0.0
C456 C -0.00952 0.12367 0.52228 0.0
C457 C 0.93549 0.11693 0.49845 0.0
C458 C 0.84569 0.11398 0.5047 0.0
C459 C 0.81114 0.11837 0.53437 0.0
C460 C 0.86971 0.12385 0.55871 0.0
H461 H 0.74702 0.87191 0.57551 0.0
H462 H 0.69973 0.84617 0.48364 0.0
H463 H 0.85983 0.84187 0.47605 0.0
H464 H 0.92744 0.90594 0.55596 0.0
H465 H -0.00853 0.90036 0.59063 0.0
H466 H 0.87231 0.89815 0.59169 0.0
H467 H 0.8836 0.85615 0.61348 0.0
H468 H 0.00308 0.85831 0.61289 0.0
H469 H 0.94812 0.83537 0.59309 0.0
H470 H 0.01834 0.84535 0.47465 0.0
H471 H 0.17638 0.85407 0.4808 0.0
H472 H 0.12827 0.87694 0.57397 0.0
C473 C 0.77077 0.86487 0.55419 0.0
C474 C 0.71182 0.85949 0.5301 0.0
C475 C 0.74433 0.85061 0.50224 0.0
C476 C 0.83495 0.84792 0.49778 0.0
C477 C 0.89171 0.85407 0.52145 0.0
C478 C 0.86166 0.86215 0.54924 0.0
C479 C 0.9383 0.86931 0.56959 0.0
C480 C 0.93196 0.89496 0.57741 0.0
C481 C 0.94358 0.85386 0.59901 0.0
C482 C 0.01526 0.8649 0.54819 0.0
C483 C -0.0138 0.85591 0.52073 0.0
C484 C 0.0426 0.852 0.4962 0.0
C485 C 0.13191 0.8573 0.49981 0.0
C486 C 0.1637 0.86629 0.52781 0.0
C487 C 0.10508 0.86995 0.55246 0.0
H488 H 0.96888 0.55129 0.05931 0.0
H489 H 0.95909 0.56747 0.96067 0.0
H490 H 0.96788 0.52618 0.94993 0.0
H491 H 0.12493 0.50426 0.05491 0.0
H492 H 0.07215 0.48713 0.08506 0.0
H493 H 0.06524 0.51812 0.08523 0.0
H494 H 0.89344 0.51539 0.08675 0.0
H495 H 0.89986 0.48439 0.0864 0.0
H496 H 0.83567 0.49985 0.05732 0.0
H497 H -0.02381 0.48352 0.94943 0.0
H498 H -0.01041 0.44162 0.95935 0.0
H499 H -0.00553 0.45268 0.05818 0.0
C500 C 0.96897 0.54614 0.03547 0.0
C501 C 0.96331 0.56264 1.01086 0.0
C502 C 0.96344 0.55519 0.97996 0.0
C503 C 0.96822 0.53175 0.97356 0.0
C504 C 0.97292 0.51595 0.99828 0.0
C505 C 0.97379 0.52274 0.02861 0.0
C506 C -0.02011 0.5021 0.05079 0.0
C507 C 0.06567 0.50296 0.07013 0.0
C508 C 0.89728 0.50034 0.07153 0.0
C509 C -0.01759 0.48273 0.02812 0.0
C510 C -0.02201 0.49114 0.99798 0.0
C511 C -0.02028 0.47667 0.97293 0.0
C512 C -0.0128 0.4529 0.97882 0.0
C513 C -0.00701 0.44387 1.00953 0.0
C514 C -0.01013 0.45904 0.03445 0.0
H515 H 0.97381 0.45252 0.48454 0.0
H516 H 0.89072 0.44055 0.57979 0.0
H517 H 0.88363 0.4822 0.58693 0.0
H518 H 0.11506 0.50085 0.50009 0.0
H519 H 0.08792 0.51676 0.46492 0.0
H520 H 0.08215 0.48574 0.4661 0.0
H521 H 0.91841 0.48773 0.44768 0.0
H522 H 0.92355 0.51879 0.44663 0.0
H523 H 0.83921 0.50406 0.46917 0.0
H524 H 0.88722 0.52401 0.5852 0.0
H525 H 0.91206 0.56536 0.5758 0.0
H526 H -0.00348 0.55238 0.48201 0.0
C527 C 0.95387 0.45874 0.5068 0.0
C528 C 0.93281 0.44323 0.53158 0.0
C529 C 0.90763 0.45201 0.56047 0.0
C530 C 0.90275 0.47568 0.56476 0.0
C531 C 0.92364 0.49048 0.54003 0.0
C532 C 0.94947 0.48255 0.51168 0.0
C533 C 0.97251 0.50259 0.48969 0.0
C534 C 0.07022 0.50141 0.47961 0.0
C535 C 0.90966 0.50333 0.46163 0.0
C536 C 0.9564 0.52286 0.51039 0.0
C537 C 0.92725 0.51526 0.53916 0.0
C538 C 0.90986 0.53026 0.56278 0.0
C539 C 0.92443 0.55374 0.55717 0.0
C540 C 0.95651 0.5621 0.5282 0.0
C541 C 0.97122 0.54648 0.50426 0.0
H542 H 0.49283 0.95278 0.9907 0.0
H543 H 0.39594 0.93467 0.08276 0.0
H544 H 0.37286 0.97549 0.09288 0.0
H545 H 0.61243 0.0023 1.01157 0.0
H546 H 0.58492 0.0197 0.9777 0.0
H547 H 0.58729 0.98875 0.97563 0.0
H548 H 0.42525 0.98872 0.95538 0.0
H549 H 0.42269 0.01973 0.95706 0.0
H550 H 0.33982 0.00261 0.97715 0.0
H551 H 0.37382 0.01708 0.09601 0.0
H552 H 0.38546 0.05911 0.09027 0.0
H553 H 0.47668 0.05255 0.99577 0.0
C554 C 0.46501 0.95748 1.01266 0.0
C555 C 0.44663 0.94055 0.03599 0.0
C556 C 0.41132 0.94732 0.06462 0.0
C557 C 0.39765 0.97049 0.07064 0.0
C558 C 0.41898 0.98679 0.04774 0.0
C559 C 0.45073 0.98079 0.01916 0.0
C560 C 0.47093 0.00225 0.99936 0.0
C561 C 0.56977 0.0033 0.99055 0.0
C562 C 0.41108 0.00339 0.97053 0.0
C563 C 0.4473 0.02102 0.02166 0.0
C564 C 0.41763 0.0115 0.04937 0.0
C565 C 0.39576 0.02486 0.07431 0.0
C566 C 0.40329 0.04875 0.07085 0.0
C567 C 0.4319 0.05914 0.04256 0.0
C568 C 0.45408 0.04507 0.01758 0.0
H569 H 0.5089 0.05028 0.49466 0.0
H570 H 0.436 0.0614 0.59012 0.0
H571 H 0.41112 0.01989 0.5983 0.0
H572 H 0.34974 0.00275 0.48198 0.0
H573 H 0.42615 0.98693 0.4587 0.0
H574 H 0.43216 0.01796 0.4591 0.0
H575 H 0.59778 0.01538 0.47517 0.0
H576 H 0.59215 0.98437 0.47505 0.0
H577 H 0.62853 0.99864 0.50929 0.0
H578 H 0.40452 0.97802 0.59816 0.0
H579 H 0.40982 0.93659 0.58916 0.0
H580 H 0.48516 0.95073 0.49355 0.0
C581 C 0.48625 0.04395 0.51707 0.0
C582 C 0.47447 0.05907 0.54176 0.0
C583 C 0.44589 0.05016 0.5709 0.0
C584 C 0.43129 0.0266 0.5758 0.0
C585 C 0.44529 0.01211 0.55133 0.0
C586 C 0.47149 0.02027 0.52247 0.0
C587 C 0.485 1.0005 0.50075 0.0
C588 C 0.41933 0.00214 0.47352 0.0
C589 C 0.58162 0.99968 0.48941 0.0
C590 C 0.46377 0.98005 0.52223 0.0
C591 C 0.44084 0.98735 0.55121 0.0
C592 C 0.42152 0.97202 0.57551 0.0
C593 C 0.42526 0.94847 0.57013 0.0
C594 C 0.44797 0.94036 0.54062 0.0
C595 C 0.46716 0.95641 0.51628 0.0
H596 H 0.1139 0.29222 0.99173 0.0
H597 H 0.15139 0.31061 0.0875 0.0
H598 H 0.24512 0.27644 0.09631 0.0
H599 H 0.10072 0.2299 1.00824 0.0
H600 H 0.15749 0.22271 0.97324 0.0
H601 H 0.09229 0.24867 0.9744 0.0
H602 H 0.22972 0.27243 0.95651 0.0
H603 H 0.29589 0.24659 0.95602 0.0
H604 H 0.3311 0.27052 0.97872 0.0
H605 H 0.34208 0.24253 0.09442 0.0
H606 H 0.41465 0.20556 0.08513 0.0
H607 H 0.30981 0.20677 0.99144 0.0
C608 C 0.14075 0.28884 1.01465 0.0
C609 C 0.12548 0.30418 0.03888 0.0
C610 C 0.16172 0.29913 0.06857 0.0
C611 C 0.21586 0.27987 0.07378 0.0
C612 C 0.23218 0.2656 0.04921 0.0
C613 C 0.19403 0.26938 0.02046 0.0
C614 C 0.22007 0.2506 0.99856 0.0
C615 C 0.13775 0.23717 0.988 0.0
C616 C 0.2723 0.26064 0.97081 0.0
C617 C 0.27912 0.23581 0.01956 0.0
C618 C 0.28607 0.24513 0.04847 0.0
C619 C 0.33657 0.23489 0.072 0.0
C620 C 0.37787 0.21391 0.06639 0.0
C621 C 0.36752 0.20318 0.0376 0.0
C622 C 0.31958 0.21464 1.01356 0.0
H623 H 0.61783 0.79595 0.98903 0.0
H624 H 0.58508 0.79962 0.08853 0.0
H625 H 0.67826 0.76536 0.09613 0.0
H626 H 0.60974 0.73242 0.98818 0.0
H627 H 0.69046 0.73077 0.95768 0.0
H628 H 0.6194 0.75563 0.95973 0.0
H629 H 0.75855 0.78198 0.96003 0.0
H630 H 0.83005 0.75716 0.95873 0.0
H631 H 0.84247 0.77731 0.98935 0.0
H632 H 0.78331 0.73329 0.09411 0.0
H633 H 0.87157 0.69922 0.08224 0.0
H634 H 0.83139 0.7134 0.984 0.0
C635 C 0.62902 0.78928 1.01234 0.0
C636 C 0.59451 0.80066 0.03816 0.0
C637 C 0.61075 0.79135 0.06832 0.0
C638 C 0.66427 0.77194 0.07298 0.0
C639 C 0.70009 0.76172 0.04726 0.0
C640 C 0.68147 0.76953 0.01749 0.0
C641 C 0.72661 0.75452 0.99407 0.0
C642 C 0.65743 0.74263 0.97372 0.0
C643 C 0.79338 0.76859 0.97439 0.0
C644 C 0.77375 0.73727 1.0155 0.0
C645 C 0.75843 0.74213 0.04604 0.0
C646 C 0.79508 0.72907 0.07029 0.0
C647 C 0.84563 0.7098 0.06325 0.0
C648 C 0.85804 0.70349 0.03217 0.0
C649 C 0.82348 0.71781 1.00795 0.0
H650 H 0.10756 0.71569 0.48363 0.0
H651 H 0.17729 0.68604 0.57388 0.0
H652 H 0.28634 0.71668 0.58113 0.0
H653 H 0.32891 0.7369 0.46251 0.0
H654 H 0.28958 0.76368 0.4453 0.0
H655 H 0.21996 0.73835 0.44515 0.0
H656 H 0.09455 0.76048 0.4724 0.0
H657 H 0.16327 0.78592 0.47212 0.0
H658 H 0.11849 0.77459 0.50803 0.0
H659 H 0.38469 0.74993 0.58032 0.0
H660 H 0.45354 0.78828 0.57455 0.0
H661 H 0.31999 0.79892 0.4862 0.0
C662 C 0.14578 0.71579 0.50486 0.0
C663 C 0.13334 0.69853 0.52822 0.0
C664 C 0.18437 0.69924 0.55579 0.0
C665 C 0.24759 0.71641 0.56005 0.0
C666 C 0.25877 0.73307 0.53672 0.0
C667 C 0.20844 0.73333 0.50993 0.0
C668 C 0.22957 0.75464 0.49001 0.0
C669 C 0.26938 0.74798 0.45889 0.0
C670 C 0.14654 0.7698 0.48538 0.0
C671 C 0.29848 0.76623 0.51012 0.0
C672 C 0.31524 0.75311 0.53662 0.0
C673 C 0.37272 0.76039 0.55961 0.0
C674 C 0.41163 0.78217 0.5561 0.0
C675 C 0.39246 0.79648 0.52991 0.0
C676 C 0.33722 0.78813 0.50617 0.0
H677 H 0.79314 0.29812 0.48267 0.0
H678 H 0.94281 0.29398 0.56861 0.0
H679 H 0.88144 0.25546 0.57988 0.0
H680 H 0.60056 0.27248 0.51015 0.0
H681 H 0.57509 0.25576 0.47682 0.0
H682 H 0.63879 0.28195 0.47243 0.0
H683 H 0.76621 0.25982 0.44647 0.0
H684 H 0.70202 0.23361 0.45007 0.0
H685 H 0.81285 0.23468 0.46585 0.0
H686 H 0.78809 0.22152 0.5867 0.0
H687 H 0.68649 0.1886 0.58435 0.0
H688 H 0.60098 0.21149 0.49248 0.0
C689 C 0.81531 0.28869 0.50324 0.0
C690 C 0.87254 0.29904 0.52483 0.0
C691 C 0.89879 0.28642 0.55183 0.0
C692 C 0.86421 0.26453 0.55849 0.0
C693 C 0.80437 0.2553 0.53771 0.0
C694 C 0.78168 0.26653 0.51022 0.0
C695 C 0.7129 0.25271 0.49276 0.0
C696 C 0.62675 0.26656 0.48776 0.0
C697 C 0.75078 0.24472 0.46196 0.0
C698 C 0.69883 0.23247 0.51534 0.0
C699 C 0.75208 0.23461 0.54114 0.0
C700 C 0.74732 0.2193 0.56636 0.0
C701 C 0.68837 0.20081 0.56492 0.0
C702 C 0.63565 0.19748 0.53823 0.0
C703 C 0.64077 0.21359 0.51309 0.0
H704 H 0.91461 0.3627 0.20474 0.0
H705 H 0.13532 0.41108 0.19711 0.0
H706 H 0.12787 0.41698 0.25288 0.0
H707 H 0.7941 0.38992 0.26445 0.0
H708 H 0.76453 0.36332 0.28448 0.0
H709 H 0.78257 0.36375 0.24335 0.0
H710 H 0.90099 0.33164 0.25017 0.0
H711 H 0.88285 0.33099 0.29129 0.0
H712 H -0.00698 0.33575 0.2762 0.0
H713 H 0.09495 0.41859 0.30951 0.0
H714 H 0.04908 0.41237 0.36401 0.0
H715 H 0.86247 0.35985 0.33629 0.0
C716 C 0.96236 0.37437 0.21457 0.0
C717 C 0.02446 0.38673 0.19579 0.0
C718 C 0.08472 0.40194 0.21027 0.0
C719 C 0.08174 0.40529 0.24219 0.0
C720 C 0.01942 0.393 0.25974 0.0
C721 C 0.96185 0.37753 0.24658 0.0
C722 C 0.90439 0.3656 0.27101 0.0
C723 C 0.80554 0.37098 0.26548 0.0
C724 C 0.92136 0.33945 0.27224 0.0
C725 C 0.93857 0.37686 0.29992 0.0
C726 C 0.00405 0.39287 0.29278 0.0
C727 C 0.04423 0.40598 0.31541 0.0
C728 C 0.01763 0.40242 0.34621 0.0
C729 C 0.9526 0.38567 0.35413 0.0
C730 C 0.91255 0.37273 0.3307 0.0
H731 H 0.96436 0.60294 0.20815 0.0
H732 H 0.97119 0.67642 0.1854 0.0
H733 H -0.00709 0.68463 0.24013 0.0
H734 H 0.83968 0.60892 0.27994 0.0
H735 H 0.89779 0.5858 0.30002 0.0
H736 H 0.88402 0.58532 0.25869 0.0
H737 H 0.05434 0.58156 0.2524 0.0
H738 H 0.0687 0.5823 0.29369 0.0
H739 H 0.12643 0.60282 0.2689 0.0
H740 H 0.02172 0.68537 0.29607 0.0
H741 H 0.03836 0.67894 0.35206 0.0
H742 H 0.0003 0.60532 0.34114 0.0
C743 C 0.96953 0.62075 0.21472 0.0
C744 C 0.96827 0.63897 0.19215 0.0
C745 C 0.97495 0.66205 0.20191 0.0
C746 C -0.01325 0.66696 0.23306 0.0
C747 C -0.00974 0.64868 0.25449 0.0
C748 C -0.01965 0.62605 0.24601 0.0
C749 C -0.01567 0.60983 0.27423 0.0
C750 C 0.8962 0.59669 0.27847 0.0
C751 C 0.06315 0.59314 0.27217 0.0
C752 C -0.00143 0.62696 0.2997 0.0
C753 C 0.00253 0.64921 0.28756 0.0
C754 C 0.01721 0.66807 0.30599 0.0
C755 C 0.02603 0.6642 0.33788 0.0
C756 C 0.01878 0.64167 0.35132 0.0
C757 C 0.00623 0.62276 0.33174 0.0
H758 H 0.03947 0.63593 0.84279 0.0
H759 H 0.75243 0.63942 0.84961 0.0
H760 H 0.74007 0.63751 0.79282 0.0
H761 H 0.06168 0.67038 0.77263 0.0
H762 H 0.14974 0.65313 0.75734 0.0
H763 H 0.13611 0.65492 0.79851 0.0
H764 H 0.12588 0.61037 0.80338 0.0
H765 H 0.13897 0.60844 0.76219 0.0
H766 H 0.04402 0.59538 0.78102 0.0
H767 H 0.75844 0.63618 0.73576 0.0
H768 H 0.80626 0.63493 0.68136 0.0
H769 H 0.08148 0.63095 0.71096 0.0
C770 C 0.97417 0.63646 0.83223 0.0
C771 C 0.89678 0.63788 0.85048 0.0
C772 C 0.81236 0.6382 0.83598 0.0
C773 C 0.80475 0.63716 0.8038 0.0
C774 C 0.88217 0.63559 0.78647 0.0
C775 C 0.96529 0.63515 0.8001 0.0
C776 C 0.03771 0.63308 0.77605 0.0
C777 C 0.09996 0.65414 0.77614 0.0
C778 C 0.0897 0.61047 0.78096 0.0
C779 C -0.01772 0.63274 0.74676 0.0
C780 C 0.89273 0.63424 0.7534 0.0
C781 C 0.82829 0.6349 0.73027 0.0
C782 C 0.85606 0.63424 0.69948 0.0
C783 C 0.9474 0.63282 0.69207 0.0
C784 C 0.01121 0.63178 0.71607 0.0
H785 H 0.86116 0.36415 0.71318 0.0
H786 H 0.13562 0.36502 0.6829 0.0
H787 H 0.18585 0.36506 0.73716 0.0
H788 H 0.89067 0.40125 0.77814 0.0
H789 H 0.81439 0.3854 0.80279 0.0
H790 H 0.79938 0.3857 0.76148 0.0
H791 H 0.80223 0.34104 0.76252 0.0
H792 H 0.81759 0.3406 0.80383 0.0
H793 H 0.89569 0.32604 0.77974 0.0
H794 H 0.20717 0.36577 0.79423 0.0
H795 H 0.19818 0.36608 0.85115 0.0
H796 H 0.91059 0.36351 0.84551 0.0
C797 C 0.93173 0.36446 0.71806 0.0
C798 C -0.00544 0.36449 0.69382 0.0
C799 C 0.08639 0.36472 0.70109 0.0
C800 C 0.11558 0.36483 0.73184 0.0
C801 C 0.05222 0.36459 0.75519 0.0
C802 C 0.96221 0.36431 0.74878 0.0
C803 C 0.90842 0.36373 0.77841 0.0
C804 C 0.84976 0.38531 0.78031 0.0
C805 C 0.8527 0.34153 0.78128 0.0
C806 C -0.01769 0.36384 0.80236 0.0
C807 C 0.06466 0.36446 0.78837 0.0
C808 C 0.1431 0.36521 0.80547 0.0
C809 C 0.13735 0.36546 0.83777 0.0
C810 C 0.05382 0.36477 0.85271 0.0
C811 C 0.97536 0.36378 0.8347 0.0
H812 H 0.48288 0.89625 0.21418 0.0
H813 H 0.49022 0.82221 0.20184 0.0
H814 H 0.47208 0.8156 0.25777 0.0
H815 H 0.61019 0.8949 0.2858 0.0
H816 H 0.54754 0.91776 0.30265 0.0
H817 H 0.55951 0.9169 0.26132 0.0
H818 H 0.3883 0.91772 0.25521 0.0
H819 H 0.37579 0.91832 0.29655 0.0
H820 H 0.32202 0.89606 0.27508 0.0
H821 H 0.44891 0.81651 0.3139 0.0
H822 H 0.43673 0.82485 0.36904 0.0
H823 H 0.45277 0.89828 0.34693 0.0
C824 C 0.48157 0.87866 0.2233 0.0
C825 C 0.4864 0.85974 0.20347 0.0
C826 C 0.48426 0.83699 0.21637 0.0
C827 C 0.47439 0.83303 0.24816 0.0
C828 C 0.46772 0.85198 0.2669 0.0
C829 C 0.4724 0.87435 0.25517 0.0
C830 C 0.46575 0.89151 0.28085 0.0
C831 C 0.55083 0.90613 0.28277 0.0
C832 C 0.38303 0.90681 0.27666 0.0
C833 C 0.45661 0.8752 0.30874 0.0
C834 C 0.4572 0.85251 0.29994 0.0
C835 C 0.44931 0.83419 0.32118 0.0
C836 C 0.44279 0.83913 0.35246 0.0
C837 C 0.44521 0.8622 0.36234 0.0
C838 C 0.45054 0.8805 0.34006 0.0
H839 H 0.3635 0.13151 0.22463 0.0
H840 H 0.63888 0.13059 0.19551 0.0
H841 H 0.68728 0.12931 0.25004 0.0
H842 H 0.39673 0.16841 0.28876 0.0
H843 H 0.31726 0.15373 0.31344 0.0
H844 H 0.30345 0.15365 0.27211 0.0
H845 H 0.29929 0.10898 0.274 0.0
H846 H 0.3128 0.10892 0.31536 0.0
H847 H 0.38948 0.09319 0.29209 0.0
H848 H 0.70643 0.1278 0.30734 0.0
H849 H 0.6951 0.12775 0.36428 0.0
H850 H 0.408 0.13118 0.35696 0.0
C851 C 0.43387 0.13084 0.22983 0.0
C852 C 0.49754 0.13117 0.20588 0.0
C853 C 0.5891 0.13055 0.21352 0.0
C854 C 0.61722 0.12972 0.2444 0.0
C855 C 0.553 0.12965 0.26747 0.0
C856 C 0.46325 0.13029 0.26065 0.0
C857 C 0.40836 0.13071 0.28997 0.0
C858 C 0.35321 0.15295 0.29113 0.0
C859 C 0.34898 0.10917 0.29303 0.0
C860 C 0.48134 0.13029 0.31423 0.0
C861 C 0.56421 0.12945 0.30069 0.0
C862 C 0.64194 0.1285 0.31823 0.0
C863 C 0.63489 0.12841 0.35051 0.0
C864 C 0.55082 0.12951 0.36493 0.0
C865 C 0.47314 0.13055 0.34648 0.0
H866 H 0.43425 0.15691 0.85073 0.0
H867 H 0.42432 0.08333 0.87237 0.0
H868 H 0.44463 0.07535 0.81736 0.0
H869 H 0.31986 0.15532 0.77732 0.0
H870 H 0.38892 0.17714 0.75904 0.0
H871 H 0.37056 0.17729 0.80014 0.0
H872 H 0.5405 0.17642 0.8097 0.0
H873 H 0.55937 0.17628 0.76865 0.0
H874 H 0.60601 0.15385 0.79341 0.0
H875 H 0.46799 0.07506 0.76035 0.0
H876 H 0.49319 0.08249 0.70479 0.0
H877 H 0.49472 0.15621 0.71968 0.0
C878 C 0.43658 0.13911 0.84396 0.0
C879 C 0.42661 0.12077 0.86605 0.0
C880 C 0.42959 0.09773 0.85599 0.0
C881 C 0.44186 0.09299 0.82475 0.0
C882 C 0.45149 0.11142 0.80369 0.0
C883 C 0.44912 0.13403 0.81279 0.0
C884 C 0.46265 0.15061 0.7854 0.0
C885 C 0.3806 0.16599 0.78017 0.0
C886 C 0.54717 0.16514 0.78955 0.0
C887 C 0.47325 0.13375 0.75954 0.0
C888 C 0.46642 0.11125 0.77068 0.0
C889 C 0.47393 0.0926 0.75137 0.0
C890 C 0.48899 0.09703 0.71982 0.0
C891 C 0.49691 0.11994 0.70773 0.0
C892 C 0.4885 0.13851 0.72803 0.0
H893 H 0.4469 0.8911 0.71438 0.0
H894 H 0.46934 0.81725 0.70221 0.0
H895 H 0.49278 0.81135 0.75808 0.0
H896 H 0.6095 0.89578 0.77432 0.0
H897 H 0.54798 0.9164 0.79602 0.0
H898 H 0.53348 0.9153 0.75476 0.0
H899 H 0.36404 0.90948 0.76185 0.0
H900 H 0.37787 0.91085 0.8031 0.0
H901 H 0.32422 0.88622 0.7867 0.0
H902 H 0.51911 0.81316 0.81423 0.0
H903 H 0.53169 0.82208 0.86922 0.0
H904 H 0.48292 0.89446 0.84683 0.0
C905 C 0.45568 0.87367 0.7235 0.0
C906 C 0.45774 0.85468 0.7037 0.0
C907 C 0.46981 0.83215 0.71667 0.0
C908 C 0.48277 0.82858 0.74844 0.0
C909 C 0.48247 0.84766 0.76713 0.0
C910 C 0.468 0.86973 0.75535 0.0
C911 C 0.46889 0.88707 0.78094 0.0
C912 C 0.54447 0.90467 0.77622 0.0
C913 C 0.37836 0.89911 0.78328 0.0
C914 C 0.48633 0.87123 0.80883 0.0
C915 C 0.49462 0.84862 0.80014 0.0
C916 C 0.51167 0.83075 0.82144 0.0
C917 C 0.51831 0.83601 0.85265 0.0
C918 C 0.50687 0.85891 0.86246 0.0
C919 C 0.49223 0.87681 0.84009 0.0
loop_
_geom_bond_atom_site_label_1
_geom_bond_atom_site_label_2
_geom_bond_distance
_geom_bond_site_symmetry_2
_ccdc_geom_bond_type
C0 O16 1.251 . S
C0 O18 1.254 1_554 S
N1 C2 1.333 . S
N1 C6 1.307 . S
N1 Zn7 2.020 . S
C2 N1 1.333 . S
C2 C3 1.379 . S
C2 H20 0.952 . S
C3 C2 1.379 . S
C3 C4 1.390 . S
C3 H30 0.949 . S
C4 C3 1.390 . S
C4 C5 1.357 . S
C5 C4 1.357 . S
C5 C6 1.370 . S
C5 H31 0.950 . S
C6 N1 1.307 . S
C6 C5 1.370 . S
C6 H24 0.948 . S
Zn7 N1 2.020 . S
Zn7 O16 2.039 . S
Zn7 O22 2.034 . S
Zn7 O26 2.025 . S
Zn7 O28 2.024 1_455 S
C8 O27 1.246 1_554 S
C8 O28 1.249 . S
N9 C10 1.307 . S
N9 C11 1.333 . S
N9 Zn15 2.020 . S
C10 N9 1.307 . S
C10 C14 1.370 . S
C10 H21 0.948 . S
C11 N9 1.333 . S
C11 C12 1.379 . S
C11 H19 0.952 . S
C12 C11 1.379 . S
C12 C13 1.390 . S
C12 H32 0.949 . S
C13 C12 1.390 . S
C13 C14 1.357 . S
C14 C10 1.370 . S
C14 C13 1.357 . S
C14 H33 0.950 . S
Zn15 N9 2.020 . S
Zn15 O18 2.025 . S
Zn15 O23 2.024 . S
Zn15 O25 2.039 . S
Zn15 O27 2.034 1_455 S
O16 C0 1.251 . S
O16 Zn7 2.039 . S
C17 O22 1.246 . S
C17 O23 1.249 1_554 S
O18 C0 1.254 1_556 S
O18 Zn15 2.025 . S
H19 C11 0.952 . S
H20 C2 0.952 . S
H21 C10 0.948 . S
O22 Zn7 2.034 . S
O22 C17 1.246 . S
O23 Zn15 2.024 . S
O23 C17 1.249 1_556 S
H24 C6 0.948 . S
O25 Zn15 2.039 . S
O25 C29 1.251 1_556 S
O26 Zn7 2.025 . S
O26 C29 1.254 . S
O27 C8 1.246 1_556 S
O27 Zn15 2.034 1_655 S
O28 Zn7 2.024 1_655 S
O28 C8 1.249 . S
C29 O25 1.251 1_554 S
C29 O26 1.254 . S
H30 C3 0.949 . S
H31 C5 0.950 . S
H32 C12 0.949 . S
H33 C14 0.950 . S
C34 O50 1.251 . S
C34 O52 1.254 1_554 S
N35 C36 1.333 . S
N35 C40 1.307 . S
N35 Zn41 2.020 . S
C36 N35 1.333 . S
C36 C37 1.379 . S
C36 H54 0.952 . S
C37 C36 1.379 . S
C37 C38 1.390 . S
C37 H64 0.949 . S
C38 C37 1.390 . S
C38 C39 1.357 . S
C39 C38 1.357 . S
C39 C40 1.370 . S
C39 H65 0.950 . S
C40 N35 1.307 . S
C40 C39 1.370 . S
C40 H58 0.948 . S
Zn41 N35 2.020 . S
Zn41 O50 2.039 . S
Zn41 O56 2.034 . S
Zn41 O60 2.025 . S
Zn41 O62 2.024 1_655 S
C42 O61 1.246 1_554 S
C42 O62 1.249 . S
N43 C44 1.307 . S
N43 C45 1.333 . S
N43 Zn49 2.020 . S
C44 N43 1.307 . S
C44 C48 1.370 . S
C44 H55 0.948 . S
C45 N43 1.333 . S
C45 C46 1.379 . S
C45 H53 0.952 . S
C46 C45 1.379 . S
C46 C47 1.390 . S
C46 H66 0.949 . S
C47 C46 1.390 . S
C47 C48 1.357 . S
C48 C44 1.370 . S
C48 C47 1.357 . S
C48 H67 0.950 . S
Zn49 N43 2.020 . S
Zn49 O52 2.025 . S
Zn49 O57 2.024 . S
Zn49 O59 2.039 . S
Zn49 O61 2.034 1_655 S
O50 C34 1.251 . S
O50 Zn41 2.039 . S
C51 O56 1.246 . S
C51 O57 1.249 1_554 S
O52 C34 1.254 1_556 S
O52 Zn49 2.025 . S
H53 C45 0.952 . S
H54 C36 0.952 . S
H55 C44 0.948 . S
O56 Zn41 2.034 . S
O56 C51 1.246 . S
O57 Zn49 2.024 . S
O57 C51 1.249 1_556 S
H58 C40 0.948 . S
O59 Zn49 2.039 . S
O59 C63 1.251 1_556 S
O60 Zn41 2.025 . S
O60 C63 1.254 . S
O61 C42 1.246 1_556 S
O61 Zn49 2.034 1_455 S
O62 Zn41 2.024 1_455 S
O62 C42 1.249 . S
C63 O59 1.251 1_554 S
C63 O60 1.254 . S
H64 C37 0.949 . S
H65 C39 0.950 . S
H66 C46 0.949 . S
H67 C48 0.950 . S
C68 O84 1.251 . S
C68 O86 1.254 . S
N69 C70 1.333 . S
N69 C74 1.307 . S
N69 Zn75 2.020 . S
C70 N69 1.333 . S
C70 C71 1.379 . S
C70 H88 0.952 . S
C71 C70 1.379 . S
C71 C72 1.390 . S
C71 H98 0.949 . S
C72 C71 1.390 . S
C72 C73 1.357 . S
C73 C72 1.357 . S
C73 C74 1.370 . S
C73 H99 0.950 . S
C74 N69 1.307 . S
C74 C73 1.370 . S
C74 H92 0.948 . S
Zn75 N69 2.020 . S
Zn75 O84 2.039 . S
Zn75 O90 2.034 . S
Zn75 O94 2.025 . S
Zn75 O96 2.024 1_455 S
C76 O95 1.246 . S
C76 O96 1.249 . S
N77 C78 1.307 . S
N77 C79 1.333 . S
N77 Zn83 2.020 . S
C78 N77 1.307 . S
C78 C82 1.370 . S
C78 H89 0.948 . S
C79 N77 1.333 . S
C79 C80 1.379 . S
C79 H87 0.952 . S
C80 C79 1.379 . S
C80 C81 1.390 . S
C80 H100 0.949 . S
C81 C80 1.390 . S
C81 C82 1.357 . S
C82 C78 1.370 . S
C82 C81 1.357 . S
C82 H101 0.950 . S
Zn83 N77 2.020 . S
Zn83 O86 2.025 . S
Zn83 O91 2.024 . S
Zn83 O93 2.039 . S
Zn83 O95 2.034 1_455 S
O84 C68 1.251 . S
O84 Zn75 2.039 . S
C85 O90 1.246 . S
C85 O91 1.249 . S
O86 C68 1.254 . S
O86 Zn83 2.025 . S
H87 C79 0.952 . S
H88 C70 0.952 . S
H89 C78 0.948 . S
O90 Zn75 2.034 . S
O90 C85 1.246 . S
O91 Zn83 2.024 . S
O91 C85 1.249 . S
H92 C74 0.948 . S
O93 Zn83 2.039 . S
O93 C97 1.251 . S
O94 Zn75 2.025 . S
O94 C97 1.254 . S
O95 C76 1.246 . S
O95 Zn83 2.034 1_655 S
O96 Zn75 2.024 1_655 S
O96 C76 1.249 . S
C97 O93 1.251 . S
C97 O94 1.254 . S
H98 C71 0.949 . S
H99 C73 0.950 . S
H100 C80 0.949 . S
H101 C82 0.950 . S
C102 O118 1.251 . S
C102 O120 1.254 . S
N103 C104 1.333 . S
N103 C108 1.307 . S
N103 Zn109 2.020 . S
C104 N103 1.333 . S
C104 C105 1.379 . S
C104 H122 0.952 . S
C105 C104 1.379 . S
C105 C106 1.390 . S
C105 H132 0.949 . S
C106 C105 1.390 . S
C106 C107 1.357 . S
C107 C106 1.357 . S
C107 C108 1.370 . S
C107 H133 0.950 . S
C108 N103 1.307 . S
C108 C107 1.370 . S
C108 H126 0.948 . S
Zn109 N103 2.020 . S
Zn109 O118 2.039 . S
Zn109 O124 2.034 1_655 S
Zn109 O128 2.025 . S
Zn109 O130 2.024 . S
C110 O129 1.246 . S
C110 O130 1.249 . S
N111 C112 1.307 . S
N111 C113 1.333 . S
N111 Zn117 2.020 . S
C112 N111 1.307 . S
C112 C116 1.370 . S
C112 H123 0.948 . S
C113 N111 1.333 . S
C113 C114 1.379 . S
C113 H121 0.952 . S
C114 C113 1.379 . S
C114 C115 1.390 . S
C114 H134 0.949 . S
C115 C114 1.390 . S
C115 C116 1.357 . S
C116 C112 1.370 . S
C116 C115 1.357 . S
C116 H135 0.950 . S
Zn117 N111 2.020 . S
Zn117 O120 2.025 . S
Zn117 O125 2.024 1_655 S
Zn117 O127 2.039 . S
Zn117 O129 2.034 . S
O118 C102 1.251 . S
O118 Zn109 2.039 . S
C119 O124 1.246 . S
C119 O125 1.249 . S
O120 C102 1.254 . S
O120 Zn117 2.025 . S
H121 C113 0.952 . S
H122 C104 0.952 . S
H123 C112 0.948 . S
O124 Zn109 2.034 1_455 S
O124 C119 1.246 . S
O125 Zn117 2.024 1_455 S
O125 C119 1.249 . S
H126 C108 0.948 . S
O127 Zn117 2.039 . S
O127 C131 1.251 . S
O128 Zn109 2.025 . S
O128 C131 1.254 . S
O129 C110 1.246 . S
O129 Zn117 2.034 . S
O130 Zn109 2.024 . S
O130 C110 1.249 . S
C131 O127 1.251 . S
C131 O128 1.254 . S
H132 C105 0.949 . S
H133 C107 0.950 . S
H134 C114 0.949 . S
H135 C116 0.950 . S
C136 O152 1.251 . S
C136 O154 1.254 1_554 S
N137 C138 1.333 . S
N137 C142 1.307 . S
N137 Zn143 2.020 . S
C138 N137 1.333 . S
C138 C139 1.379 . S
C138 H156 0.952 . S
C139 C138 1.379 . S
C139 C140 1.390 . S
C139 H166 0.949 . S
C140 C139 1.390 . S
C140 C141 1.357 . S
C141 C140 1.357 . S
C141 C142 1.370 . S
C141 H167 0.950 . S
C142 N137 1.307 . S
C142 C141 1.370 . S
C142 H160 0.948 . S
Zn143 N137 2.020 . S
Zn143 O152 2.039 . S
Zn143 O158 2.034 . S
Zn143 O162 2.025 . S
Zn143 O164 2.024 . S
C144 O163 1.246 1_554 S
C144 O164 1.249 . S
N145 C146 1.307 . S
N145 C147 1.333 . S
N145 Zn151 2.020 . S
C146 N145 1.307 . S
C146 C150 1.370 . S
C146 H157 0.948 . S
C147 N145 1.333 . S
C147 C148 1.379 . S
C147 H155 0.952 . S
C148 C147 1.379 . S
C148 C149 1.390 . S
C148 H168 0.949 . S
C149 C148 1.390 . S
C149 C150 1.357 . S
C150 C146 1.370 . S
C150 C149 1.357 . S
C150 H169 0.950 . S
Zn151 N145 2.020 . S
Zn151 O154 2.025 . S
Zn151 O159 2.024 . S
Zn151 O161 2.039 . S
Zn151 O163 2.034 . S
O152 C136 1.251 . S
O152 Zn143 2.039 . S
C153 O158 1.246 . S
C153 O159 1.249 1_554 S
O154 C136 1.254 1_556 S
O154 Zn151 2.025 . S
H155 C147 0.952 . S
H156 C138 0.952 . S
H157 C146 0.948 . S
O158 Zn143 2.034 . S
O158 C153 1.246 . S
O159 Zn151 2.024 . S
O159 C153 1.249 1_556 S
H160 C142 0.948 . S
O161 Zn151 2.039 . S
O161 C165 1.251 1_556 S
O162 Zn143 2.025 . S
O162 C165 1.254 . S
O163 C144 1.246 1_556 S
O163 Zn151 2.034 . S
O164 Zn143 2.024 . S
O164 C144 1.249 . S
C165 O161 1.251 1_554 S
C165 O162 1.254 . S
H166 C139 0.949 . S
H167 C141 0.950 . S
H168 C148 0.949 . S
H169 C150 0.950 . S
C170 O186 1.251 . S
C170 O188 1.254 1_554 S
N171 C172 1.333 . S
N171 C176 1.307 . S
N171 Zn177 2.020 . S
C172 N171 1.333 . S
C172 C173 1.379 . S
C172 H190 0.952 . S
C173 C172 1.379 . S
C173 C174 1.390 . S
C173 H200 0.949 . S
C174 C173 1.390 . S
C174 C175 1.357 . S
C175 C174 1.357 . S
C175 C176 1.370 . S
C175 H201 0.950 . S
C176 N171 1.307 . S
C176 C175 1.370 . S
C176 H194 0.948 . S
Zn177 N171 2.020 . S
Zn177 O186 2.039 . S
Zn177 O192 2.034 . S
Zn177 O196 2.025 . S
Zn177 O198 2.024 . S
C178 O197 1.246 1_554 S
C178 O198 1.249 . S
N179 C180 1.307 . S
N179 C181 1.333 . S
N179 Zn185 2.020 . S
C180 N179 1.307 . S
C180 C184 1.370 . S
C180 H191 0.948 . S
C181 N179 1.333 . S
C181 C182 1.379 . S
C181 H189 0.952 . S
C182 C181 1.379 . S
C182 C183 1.390 . S
C182 H202 0.949 . S
C183 C182 1.390 . S
C183 C184 1.357 . S
C184 C180 1.370 . S
C184 C183 1.357 . S
C184 H203 0.950 . S
Zn185 N179 2.020 . S
Zn185 O188 2.025 . S
Zn185 O193 2.024 . S
Zn185 O195 2.039 . S
Zn185 O197 2.034 . S
O186 C170 1.251 . S
O186 Zn177 2.039 . S
C187 O192 1.246 . S
C187 O193 1.249 1_554 S
O188 C170 1.254 1_556 S
O188 Zn185 2.025 . S
H189 C181 0.952 . S
H190 C172 0.952 . S
H191 C180 0.948 . S
O192 Zn177 2.034 . S
O192 C187 1.246 . S
O193 Zn185 2.024 . S
O193 C187 1.249 1_556 S
H194 C176 0.948 . S
O195 Zn185 2.039 . S
O195 C199 1.251 1_556 S
O196 Zn177 2.025 . S
O196 C199 1.254 . S
O197 C178 1.246 1_556 S
O197 Zn185 2.034 . S
O198 Zn177 2.024 . S
O198 C178 1.249 . S
C199 O195 1.251 1_554 S
C199 O196 1.254 . S
H200 C173 0.949 . S
H201 C175 0.950 . S
H202 C182 0.949 . S
H203 C184 0.950 . S
C204 O220 1.251 . S
C204 O222 1.254 . S
N205 C206 1.333 . S
N205 C210 1.307 . S
N205 Zn211 2.020 . S
C206 N205 1.333 . S
C206 C207 1.379 . S
C206 H224 0.952 . S
C207 C206 1.379 . S
C207 C208 1.390 . S
C207 H234 0.949 . S
C208 C207 1.390 . S
C208 C209 1.357 . S
C209 C208 1.357 . S
C209 C210 1.370 . S
C209 H235 0.950 . S
C210 N205 1.307 . S
C210 C209 1.370 . S
C210 H228 0.948 . S
Zn211 N205 2.020 . S
Zn211 O220 2.039 . S
Zn211 O226 2.034 . S
Zn211 O230 2.025 . S
Zn211 O232 2.024 . S
C212 O231 1.246 . S
C212 O232 1.249 . S
N213 C214 1.307 . S
N213 C215 1.333 . S
N213 Zn219 2.020 . S
C214 N213 1.307 . S
C214 C218 1.370 . S
C214 H225 0.948 . S
C215 N213 1.333 . S
C215 C216 1.379 . S
C215 H223 0.952 . S
C216 C215 1.379 . S
C216 C217 1.390 . S
C216 H236 0.949 . S
C217 C216 1.390 . S
C217 C218 1.357 . S
C218 C214 1.370 . S
C218 C217 1.357 . S
C218 H237 0.950 . S
Zn219 N213 2.020 . S
Zn219 O222 2.025 . S
Zn219 O227 2.024 . S
Zn219 O229 2.039 . S
Zn219 O231 2.034 . S
O220 C204 1.251 . S
O220 Zn211 2.039 . S
C221 O226 1.246 . S
C221 O227 1.249 . S
O222 C204 1.254 . S
O222 Zn219 2.025 . S
H223 C215 0.952 . S
H224 C206 0.952 . S
H225 C214 0.948 . S
O226 Zn211 2.034 . S
O226 C221 1.246 . S
O227 Zn219 2.024 . S
O227 C221 1.249 . S
H228 C210 0.948 . S
O229 Zn219 2.039 . S
O229 C233 1.251 . S
O230 Zn211 2.025 . S
O230 C233 1.254 . S
O231 C212 1.246 . S
O231 Zn219 2.034 . S
O232 Zn211 2.024 . S
O232 C212 1.249 . S
C233 O229 1.251 . S
C233 O230 1.254 . S
H234 C207 0.949 . S
H235 C209 0.950 . S
H236 C216 0.949 . S
H237 C218 0.950 . S
C238 O254 1.251 . S
C238 O256 1.254 . S
N239 C240 1.333 . S
N239 C244 1.307 . S
N239 Zn245 2.020 . S
C240 N239 1.333 . S
C240 C241 1.379 . S
C240 H258 0.952 . S
C241 C240 1.379 . S
C241 C242 1.390 . S
C241 H268 0.949 . S
C242 C241 1.390 . S
C242 C243 1.357 . S
C243 C242 1.357 . S
C243 C244 1.370 . S
C243 H269 0.950 . S
C244 N239 1.307 . S
C244 C243 1.370 . S
C244 H262 0.948 . S
Zn245 N239 2.020 . S
Zn245 O254 2.039 . S
Zn245 O260 2.034 . S
Zn245 O264 2.025 . S
Zn245 O266 2.024 . S
C246 O265 1.246 . S
C246 O266 1.249 . S
N247 C248 1.307 . S
N247 C249 1.333 . S
N247 Zn253 2.020 . S
C248 N247 1.307 . S
C248 C252 1.370 . S
C248 H259 0.948 . S
C249 N247 1.333 . S
C249 C250 1.379 . S
C249 H257 0.952 . S
C250 C249 1.379 . S
C250 C251 1.390 . S
C250 H270 0.949 . S
C251 C250 1.390 . S
C251 C252 1.357 . S
C252 C248 1.370 . S
C252 C251 1.357 . S
C252 H271 0.950 . S
Zn253 N247 2.020 . S
Zn253 O256 2.025 . S
Zn253 O261 2.024 . S
Zn253 O263 2.039 . S
Zn253 O265 2.034 . S
O254 C238 1.251 . S
O254 Zn245 2.039 . S
C255 O260 1.246 . S
C255 O261 1.249 . S
O256 C238 1.254 . S
O256 Zn253 2.025 . S
H257 C249 0.952 . S
H258 C240 0.952 . S
H259 C248 0.948 . S
O260 Zn245 2.034 . S
O260 C255 1.246 . S
O261 Zn253 2.024 . S
O261 C255 1.249 . S
H262 C244 0.948 . S
O263 Zn253 2.039 . S
O263 C267 1.251 . S
O264 Zn245 2.025 . S
O264 C267 1.254 . S
O265 C246 1.246 . S
O265 Zn253 2.034 . S
O266 Zn245 2.024 . S
O266 C246 1.249 . S
C267 O263 1.251 . S
C267 O264 1.254 . S
H268 C241 0.949 . S
H269 C243 0.950 . S
H270 C250 0.949 . S
H271 C252 0.950 . S
H272 C284 0.930 . S
H273 C286 0.930 . S
H274 C287 0.930 . S
H275 C291 0.959 . S
H276 C291 0.959 . S
H277 C291 0.961 . S
H278 C292 0.960 . S
H279 C292 0.961 . S
H280 C292 0.959 . S
H281 C295 0.929 . S
H282 C296 0.931 . S
H283 C298 0.930 . S
C284 H272 0.930 . S
C284 C285 1.399 . S
C284 C289 1.399 . S
C285 C284 1.399 . S
C285 C286 1.376 1_554 S
C286 H273 0.930 . S
C286 C285 1.376 1_556 S
C286 C287 1.388 . S
C287 H274 0.930 . S
C287 C286 1.388 . S
C287 C288 1.380 1_556 S
C288 C287 1.380 1_554 S
C288 C289 1.406 . S
C288 C294 1.465 1_554 S
C289 C284 1.399 . S
C289 C288 1.406 . S
C289 C290 1.516 . S
C290 C289 1.516 . S
C290 C291 1.502 . S
C290 C292 1.561 . S
C290 C293 1.526 . S
C291 H275 0.959 . S
C291 H276 0.959 . S
C291 H277 0.961 . S
C291 C290 1.502 . S
C292 H278 0.960 . S
C292 H279 0.961 . S
C292 H280 0.959 . S
C292 C290 1.561 . S
C293 C290 1.526 . S
C293 C294 1.390 1_554 S
C293 C298 1.390 . S
C294 C288 1.465 1_556 S
C294 C293 1.390 1_556 S
C294 C295 1.404 . S
C295 H281 0.929 . S
C295 C294 1.404 . S
C295 C296 1.385 . S
C296 H282 0.931 . S
C296 C295 1.385 . S
C296 C297 1.389 1_556 S
C297 C296 1.389 1_554 S
C297 C298 1.387 . S
C298 H283 0.930 . S
C298 C293 1.390 . S
C298 C297 1.387 . S
H299 C311 0.930 . S
H300 C313 0.930 . S
H301 C314 0.930 . S
H302 C318 0.959 . S
H303 C318 0.959 . S
H304 C318 0.961 . S
H305 C319 0.960 . S
H306 C319 0.961 . S
H307 C319 0.959 . S
H308 C322 0.929 . S
H309 C323 0.931 . S
H310 C325 0.930 . S
C311 H299 0.930 . S
C311 C312 1.399 1_556 S
C311 C316 1.399 . S
C312 C311 1.399 1_554 S
C312 C313 1.376 . S
C313 H300 0.930 . S
C313 C312 1.376 . S
C313 C314 1.388 . S
C314 H301 0.930 . S
C314 C313 1.388 . S
C314 C315 1.390 . S
C315 C314 1.390 . S
C315 C316 1.394 1_554 S
C315 C321 1.465 . S
C316 C311 1.399 . S
C316 C315 1.394 1_556 S
C316 C317 1.516 . S
C317 C316 1.516 . S
C317 C318 1.502 . S
C317 C319 1.561 . S
C317 C320 1.526 . S
C318 H302 0.959 . S
C318 H303 0.959 . S
C318 H304 0.961 . S
C318 C317 1.502 . S
C319 H305 0.960 . S
C319 H306 0.961 . S
C319 H307 0.959 . S
C319 C317 1.561 . S
C320 C317 1.526 . S
C320 C321 1.396 1_556 S
C320 C325 1.390 . S
C321 C315 1.465 . S
C321 C320 1.396 1_554 S
C321 C322 1.399 . S
C322 H308 0.929 . S
C322 C321 1.399 . S
C322 C323 1.385 . S
C323 H309 0.931 . S
C323 C322 1.385 . S
C323 C324 1.389 . S
C324 C323 1.389 . S
C324 C325 1.387 1_554 S
C325 H310 0.930 . S
C325 C320 1.390 . S
C325 C324 1.387 1_556 S
H326 C338 0.930 . S
H327 C340 0.930 . S
H328 C341 0.930 . S
H329 C345 0.959 . S
H330 C345 0.959 . S
H331 C345 0.961 . S
H332 C346 0.960 . S
H333 C346 0.961 . S
H334 C346 0.959 . S
H335 C349 0.929 . S
H336 C350 0.931 . S
H337 C352 0.930 . S
C338 H326 0.930 . S
C338 C339 1.399 . S
C338 C343 1.399 . S
C339 C338 1.399 . S
C339 C340 1.376 . S
C340 H327 0.930 . S
C340 C339 1.376 . S
C340 C341 1.388 . S
C341 H328 0.930 . S
C341 C340 1.388 . S
C341 C342 1.390 . S
C342 C341 1.390 . S
C342 C343 1.394 . S
C342 C348 1.465 . S
C343 C338 1.399 . S
C343 C342 1.394 . S
C343 C344 1.516 . S
C344 C343 1.516 . S
C344 C345 1.502 . S
C344 C346 1.561 . S
C344 C347 1.526 . S
C345 H329 0.959 . S
C345 H330 0.959 . S
C345 H331 0.961 . S
C345 C344 1.502 . S
C346 H332 0.960 . S
C346 H333 0.961 . S
C346 H334 0.959 . S
C346 C344 1.561 . S
C347 C344 1.526 . S
C347 C348 1.396 . S
C347 C352 1.390 . S
C348 C342 1.465 . S
C348 C347 1.396 . S
C348 C349 1.399 . S
C349 H335 0.929 . S
C349 C348 1.399 . S
C349 C350 1.385 . S
C350 H336 0.931 . S
C350 C349 1.385 . S
C350 C351 1.389 . S
C351 C350 1.389 . S
C351 C352 1.387 . S
C352 H337 0.930 . S
C352 C347 1.390 . S
C352 C351 1.387 . S
H353 C365 0.930 . S
H354 C367 0.930 . S
H355 C368 0.930 . S
H356 C372 0.959 . S
H357 C372 0.959 . S
H358 C372 0.961 . S
H359 C373 0.960 . S
H360 C373 0.961 . S
H361 C373 0.959 . S
H362 C376 0.929 . S
H363 C377 0.931 . S
H364 C379 0.930 . S
C365 H353 0.930 . S
C365 C366 1.399 . S
C365 C370 1.399 . S
C366 C365 1.399 . S
C366 C367 1.376 . S
C367 H354 0.930 . S
C367 C366 1.376 . S
C367 C368 1.388 . S
C368 H355 0.930 . S
C368 C367 1.388 . S
C368 C369 1.390 . S
C369 C368 1.390 . S
C369 C370 1.394 . S
C369 C375 1.465 . S
C370 C365 1.399 . S
C370 C369 1.394 . S
C370 C371 1.516 . S
C371 C370 1.516 . S
C371 C372 1.502 . S
C371 C373 1.561 . S
C371 C374 1.526 . S
C372 H356 0.959 . S
C372 H357 0.959 . S
C372 H358 0.961 . S
C372 C371 1.502 . S
C373 H359 0.960 . S
C373 H360 0.961 . S
C373 H361 0.959 . S
C373 C371 1.561 . S
C374 C371 1.526 . S
C374 C375 1.396 . S
C374 C379 1.390 . S
C375 C369 1.465 . S
C375 C374 1.396 . S
C375 C376 1.399 . S
C376 H362 0.929 . S
C376 C375 1.399 . S
C376 C377 1.385 . S
C377 H363 0.931 . S
C377 C376 1.385 . S
C377 C378 1.389 . S
C378 C377 1.389 . S
C378 C379 1.387 . S
C379 H364 0.930 . S
C379 C374 1.390 . S
C379 C378 1.387 . S
H380 C392 0.930 . S
H381 C394 0.930 . S
H382 C395 0.930 . S
H383 C399 0.959 . S
H384 C399 0.959 . S
H385 C399 0.961 . S
H386 C400 0.968 . S
H387 C400 0.961 . S
H388 C400 0.959 . S
H389 C403 0.929 . S
H390 C404 0.931 . S
H391 C406 0.930 . S
C392 H380 0.930 . S
C392 C393 1.399 . S
C392 C397 1.399 . S
C393 C392 1.399 . S
C393 C394 1.376 1_554 S
C394 H381 0.930 . S
C394 C393 1.376 1_556 S
C394 C395 1.388 . S
C395 H382 0.930 . S
C395 C394 1.388 . S
C395 C396 1.390 1_655 S
C396 C395 1.390 1_455 S
C396 C397 1.394 1_456 S
C396 C402 1.465 . S
C397 C392 1.399 . S
C397 C396 1.394 1_654 S
C397 C398 1.516 1_655 S
C398 C397 1.516 1_455 S
C398 C399 1.502 . S
C398 C400 1.561 . S
C398 C401 1.526 . S
C399 H383 0.959 . S
C399 H384 0.959 . S
C399 H385 0.961 . S
C399 C398 1.502 . S
C400 H386 0.968 . S
C400 H387 0.961 . S
C400 H388 0.959 . S
C400 C398 1.561 . S
C401 C398 1.526 . S
C401 C402 1.396 1_554 S
C401 C406 1.390 . S
C402 C396 1.465 . S
C402 C401 1.396 1_556 S
C402 C403 1.399 . S
C403 H389 0.929 . S
C403 C402 1.399 . S
C403 C404 1.385 . S
C404 H390 0.931 . S
C404 C403 1.385 . S
C404 C405 1.389 1_556 S
C405 C404 1.389 1_554 S
C405 C406 1.387 . S
C406 H391 0.930 . S
C406 C401 1.390 . S
C406 C405 1.387 . S
H407 C419 0.930 . S
H408 C421 0.930 1_556 S
H409 C422 0.930 . S
H410 C426 0.959 . S
H411 C426 0.959 . S
H412 C426 0.961 1_455 S
H413 C427 0.960 1_455 S
H414 C427 0.961 . S
H415 C427 0.959 . S
H416 C430 0.929 . S
H417 C431 0.931 1_556 S
H418 C433 0.930 . S
C419 H407 0.930 . S
C419 C420 1.399 . S
C419 C424 1.399 . S
C420 C419 1.399 . S
C420 C421 1.376 . S
C421 H408 0.930 1_554 S
C421 C420 1.376 . S
C421 C422 1.388 1_554 S
C422 H409 0.930 . S
C422 C421 1.388 1_556 S
C422 C423 1.390 1_456 S
C423 C422 1.390 1_654 S
C423 C424 1.394 1_655 S
C423 C429 1.465 . S
C424 C419 1.399 . S
C424 C423 1.394 1_455 S
C424 C425 1.516 1_455 S
C425 C424 1.516 1_655 S
C425 C426 1.502 . S
C425 C427 1.561 1_554 S
C425 C428 1.526 . S
C426 H410 0.959 . S
C426 H411 0.959 . S
C426 H412 0.961 1_655 S
C426 C425 1.502 . S
C427 H413 0.960 1_655 S
C427 H414 0.961 . S
C427 H415 0.959 . S
C427 C425 1.561 1_556 S
C428 C425 1.526 . S
C428 C429 1.396 . S
C428 C433 1.390 . S
C429 C423 1.465 . S
C429 C428 1.396 . S
C429 C430 1.399 1_554 S
C430 H416 0.929 . S
C430 C429 1.399 1_556 S
C430 C431 1.385 1_556 S
C431 H417 0.931 1_554 S
C431 C430 1.385 1_554 S
C431 C432 1.389 . S
C432 C431 1.389 . S
C432 C433 1.387 . S
C433 H418 0.930 . S
C433 C428 1.390 . S
C433 C432 1.387 . S
H434 C446 0.930 . S
H435 C448 0.930 . S
H436 C449 0.930 . S
H437 C453 0.959 . S
H438 C453 0.959 . S
H439 C453 0.961 . S
H440 C454 0.960 . S
H441 C454 0.961 . S
H442 C454 0.959 . S
H443 C457 0.929 . S
H444 C458 0.931 . S
H445 C460 0.930 . S
C446 H434 0.930 . S
C446 C447 1.399 . S
C446 C451 1.399 . S
C447 C446 1.399 . S
C447 C448 1.376 . S
C448 H435 0.930 . S
C448 C447 1.376 . S
C448 C449 1.388 . S
C449 H436 0.930 . S
C449 C448 1.388 . S
C449 C450 1.390 . S
C450 C449 1.390 . S
C450 C451 1.394 . S
C450 C456 1.465 . S
C451 C446 1.399 . S
C451 C450 1.394 . S
C451 C452 1.516 . S
C452 C451 1.516 . S
C452 C453 1.502 . S
C452 C454 1.561 . S
C452 C455 1.526 1_455 S
C453 H437 0.959 . S
C453 H438 0.959 . S
C453 H439 0.961 . S
C453 C452 1.502 . S
C454 H440 0.960 . S
C454 H441 0.961 . S
C454 H442 0.959 . S
C454 C452 1.561 . S
C455 C452 1.526 1_655 S
C455 C456 1.396 1_655 S
C455 C460 1.390 . S
C456 C450 1.465 . S
C456 C455 1.396 1_455 S
C456 C457 1.399 1_455 S
C457 H443 0.929 . S
C457 C456 1.399 1_655 S
C457 C458 1.385 . S
C458 H444 0.931 . S
C458 C457 1.385 . S
C458 C459 1.389 . S
C459 C458 1.389 . S
C459 C460 1.387 . S
C460 H445 0.930 . S
C460 C455 1.390 . S
C460 C459 1.387 . S
H461 C473 0.930 . S
H462 C475 0.930 . S
H463 C476 0.930 . S
H464 C480 0.959 . S
H465 C480 0.959 . S
H466 C480 0.961 . S
H467 C481 0.960 . S
H468 C481 0.961 . S
H469 C481 0.959 . S
H470 C484 0.929 . S
H471 C485 0.931 . S
H472 C487 0.930 . S
C473 H461 0.930 . S
C473 C474 1.399 . S
C473 C478 1.399 . S
C474 C473 1.399 . S
C474 C475 1.376 . S
C475 H462 0.930 . S
C475 C474 1.376 . S
C475 C476 1.388 . S
C476 H463 0.930 . S
C476 C475 1.388 . S
C476 C477 1.390 . S
C477 C476 1.390 . S
C477 C478 1.394 . S
C477 C483 1.465 . S
C478 C473 1.399 . S
C478 C477 1.394 . S
C478 C479 1.516 . S
C479 C478 1.516 . S
C479 C480 1.502 . S
C479 C481 1.561 . S
C479 C482 1.526 1_655 S
C480 H464 0.959 . S
C480 H465 0.959 . S
C480 H466 0.961 . S
C480 C479 1.502 . S
C481 H467 0.960 . S
C481 H468 0.961 . S
C481 H469 0.959 . S
C481 C479 1.561 . S
C482 C479 1.526 1_455 S
C482 C483 1.396 1_455 S
C482 C487 1.390 . S
C483 C477 1.465 . S
C483 C482 1.396 1_655 S
C483 C484 1.399 1_655 S
C484 H470 0.929 . S
C484 C483 1.399 1_455 S
C484 C485 1.385 . S
C485 H471 0.931 . S
C485 C484 1.385 . S
C485 C486 1.389 . S
C486 C485 1.389 . S
C486 C487 1.387 . S
C487 H472 0.930 . S
C487 C482 1.390 . S
C487 C486 1.387 . S
H488 C500 0.930 . S
H489 C502 0.930 . S
H490 C503 0.930 . S
H491 C507 0.959 . S
H492 C507 0.959 . S
H493 C507 0.961 . S
H494 C508 0.960 . S
H495 C508 0.961 . S
H496 C508 0.959 . S
H497 C511 0.929 . S
H498 C512 0.931 . S
H499 C514 0.930 . S
C500 H488 0.930 . S
C500 C501 1.399 1_455 S
C500 C505 1.399 1_455 S
C501 C500 1.399 1_655 S
C501 C502 1.376 1_554 S
C502 H489 0.930 . S
C502 C501 1.376 1_556 S
C502 C503 1.388 . S
C503 H490 0.930 . S
C503 C502 1.388 . S
C503 C504 1.390 1_556 S
C504 C503 1.390 1_554 S
C504 C505 1.393 . S
C504 C510 1.465 . S
C505 C500 1.399 1_655 S
C505 C504 1.393 . S
C505 C506 1.516 1_655 S
C506 C505 1.516 1_455 S
C506 C507 1.502 . S
C506 C508 1.561 1_455 S
C506 C509 1.526 . S
C507 H491 0.959 . S
C507 H492 0.959 . S
C507 H493 0.961 . S
C507 C506 1.502 . S
C508 H494 0.960 . S
C508 H495 0.961 . S
C508 H496 0.959 . S
C508 C506 1.561 1_655 S
C509 C506 1.526 . S
C509 C510 1.396 1_455 S
C509 C514 1.390 . S
C510 C504 1.465 . S
C510 C509 1.396 1_655 S
C510 C511 1.399 1_554 S
C511 H497 0.929 . S
C511 C510 1.399 1_556 S
C511 C512 1.385 . S
C512 H498 0.931 . S
C512 C511 1.385 . S
C512 C513 1.389 1_656 S
C513 C512 1.389 1_454 S
C513 C514 1.387 . S
C514 H499 0.930 . S
C514 C509 1.390 . S
C514 C513 1.387 . S
H515 C527 0.930 . S
H516 C529 0.930 . S
H517 C530 0.930 . S
H518 C534 0.959 . S
H519 C534 0.959 . S
H520 C534 0.961 . S
H521 C535 0.962 . S
H522 C535 0.961 1_455 S
H523 C535 0.959 . S
H524 C538 0.929 . S
H525 C539 0.931 . S
H526 C541 0.930 . S
C527 H515 0.930 . S
C527 C528 1.399 1_455 S
C527 C532 1.399 . S
C528 C527 1.399 1_655 S
C528 C529 1.376 . S
C529 H516 0.930 . S
C529 C528 1.376 . S
C529 C530 1.388 . S
C530 H517 0.930 . S
C530 C529 1.388 . S
C530 C531 1.390 . S
C531 C530 1.390 . S
C531 C532 1.394 1_655 S
C531 C537 1.465 . S
C532 C527 1.399 . S
C532 C531 1.394 1_455 S
C532 C533 1.516 . S
C533 C532 1.516 . S
C533 C534 1.502 . S
C533 C535 1.561 1_455 S
C533 C536 1.526 . S
C534 H518 0.959 . S
C534 H519 0.959 . S
C534 H520 0.961 . S
C534 C533 1.502 . S
C535 H521 0.962 . S
C535 H522 0.961 1_655 S
C535 H523 0.959 . S
C535 C533 1.561 1_655 S
C536 C533 1.526 . S
C536 C537 1.396 1_455 S
C536 C541 1.390 . S
C537 C531 1.465 . S
C537 C536 1.396 1_655 S
C537 C538 1.399 . S
C538 H524 0.929 . S
C538 C537 1.399 . S
C538 C539 1.385 . S
C539 H525 0.931 . S
C539 C538 1.385 . S
C539 C540 1.389 1_655 S
C540 C539 1.389 1_455 S
C540 C541 1.387 . S
C541 H526 0.930 . S
C541 C536 1.390 . S
C541 C540 1.387 . S
H542 C554 0.930 . S
H543 C556 0.930 . S
H544 C557 0.930 . S
H545 C561 0.959 . S
H546 C561 0.959 . S
H547 C561 0.961 1_565 S
H548 C562 0.960 1_565 S
H549 C562 0.961 . S
H550 C562 0.959 . S
H551 C565 0.929 . S
H552 C566 0.931 . S
H553 C568 0.930 . S
C554 H542 0.930 . S
C554 C555 1.399 1_556 S
C554 C559 1.392 1_556 S
C555 C554 1.399 1_554 S
C555 C556 1.376 . S
C556 H543 0.930 . S
C556 C555 1.376 . S
C556 C557 1.388 . S
C557 H544 0.930 . S
C557 C556 1.388 . S
C557 C558 1.390 . S
C558 C557 1.390 . S
C558 C559 1.424 . S
C558 C564 1.465 1_565 S
C559 C554 1.392 1_554 S
C559 C558 1.424 . S
C559 C560 1.497 1_564 S
C560 C559 1.497 1_546 S
C560 C561 1.502 . S
C560 C562 1.561 . S
C560 C563 1.526 1_556 S
C561 H545 0.959 . S
C561 H546 0.959 . S
C561 H547 0.961 1_545 S
C561 C560 1.502 . S
C562 H548 0.960 1_545 S
C562 H549 0.961 . S
C562 H550 0.959 . S
C562 C560 1.561 . S
C563 C560 1.526 1_554 S
C563 C564 1.396 . S
C563 C568 1.390 1_554 S
C564 C558 1.465 1_545 S
C564 C563 1.396 . S
C564 C565 1.399 . S
C565 H551 0.929 . S
C565 C564 1.399 . S
C565 C566 1.385 . S
C566 H552 0.931 . S
C566 C565 1.385 . S
C566 C567 1.389 . S
C567 C566 1.389 . S
C567 C568 1.387 1_554 S
C568 H553 0.930 . S
C568 C563 1.390 1_556 S
C568 C567 1.387 1_556 S
H569 C581 0.930 . S
H570 C583 0.930 . S
H571 C584 0.930 . S
H572 C588 0.959 . S
H573 C588 0.959 1_565 S
H574 C588 0.961 . S
H575 C589 0.957 1_545 S
H576 C589 0.964 . S
H577 C589 0.959 . S
H578 C592 0.929 . S
H579 C593 0.931 . S
H580 C595 0.930 . S
C581 H569 0.930 . S
C581 C582 1.399 . S
C581 C586 1.399 . S
C582 C581 1.399 . S
C582 C583 1.376 . S
C583 H570 0.930 . S
C583 C582 1.376 . S
C583 C584 1.388 . S
C584 H571 0.930 . S
C584 C583 1.388 . S
C584 C585 1.390 . S
C585 C584 1.390 . S
C585 C586 1.394 . S
C585 C591 1.465 1_545 S
C586 C581 1.399 . S
C586 C585 1.394 . S
C586 C587 1.553 . S
C587 C586 1.553 . S
C587 C588 1.505 . S
C587 C589 1.559 1_545 S
C587 C590 1.490 1_545 S
C588 H572 0.959 . S
C588 H573 0.959 1_545 S
C588 H574 0.961 . S
C588 C587 1.505 . S
C589 H575 0.957 1_565 S
C589 H576 0.964 . S
C589 H577 0.959 . S
C589 C587 1.559 1_565 S
C590 C587 1.490 1_565 S
C590 C591 1.396 . S
C590 C595 1.390 . S
C591 C585 1.465 1_565 S
C591 C590 1.396 . S
C591 C592 1.399 . S
C592 H578 0.929 . S
C592 C591 1.399 . S
C592 C593 1.385 . S
C593 H579 0.931 . S
C593 C592 1.385 . S
C593 C594 1.389 . S
C594 C593 1.389 . S
C594 C595 1.387 . S
C595 H580 0.930 . S
C595 C590 1.390 . S
C595 C594 1.387 . S
H596 C608 0.930 . S
H597 C610 0.930 . S
H598 C611 0.930 . S
H599 C615 0.959 . S
H600 C615 0.959 . S
H601 C615 0.961 . S
H602 C616 0.960 . S
H603 C616 0.961 . S
H604 C616 0.959 1_554 S
H605 C619 0.929 . S
H606 C620 0.931 . S
H607 C622 0.930 . S
C608 H596 0.930 . S
C608 C609 1.399 1_556 S
C608 C613 1.399 1_556 S
C609 C608 1.399 1_554 S
C609 C610 1.376 . S
C610 H597 0.930 . S
C610 C609 1.376 . S
C610 C611 1.388 . S
C611 H598 0.930 . S
C611 C610 1.388 . S
C611 C612 1.390 . S
C612 C611 1.390 . S
C612 C613 1.394 . S
C612 C618 1.465 . S
C613 C608 1.399 1_554 S
C613 C612 1.394 . S
C613 C614 1.516 1_554 S
C614 C613 1.516 1_556 S
C614 C615 1.502 . S
C614 C616 1.561 . S
C614 C617 1.526 1_556 S
C615 H599 0.959 . S
C615 H600 0.959 . S
C615 H601 0.961 . S
C615 C614 1.502 . S
C616 H602 0.960 . S
C616 H603 0.961 . S
C616 H604 0.959 1_556 S
C616 C614 1.561 . S
C617 C614 1.526 1_554 S
C617 C618 1.396 . S
C617 C622 1.390 1_554 S
C618 C612 1.465 . S
C618 C617 1.396 . S
C618 C619 1.399 . S
C619 H605 0.929 . S
C619 C618 1.399 . S
C619 C620 1.385 . S
C620 H606 0.931 . S
C620 C619 1.385 . S
C620 C621 1.389 . S
C621 C620 1.389 . S
C621 C622 1.387 1_554 S
C622 H607 0.930 . S
C622 C617 1.390 1_556 S
C622 C621 1.387 1_556 S
H623 C635 0.918 1_556 S
H624 C637 0.930 . S
H625 C638 0.930 . S
H626 C642 0.959 . S
H627 C642 0.959 1_556 S
H628 C642 0.961 1_556 S
H629 C643 0.960 . S
H630 C643 0.961 . S
H631 C643 0.959 . S
H632 C646 0.929 . S
H633 C647 0.931 . S
H634 C649 0.945 . S
C635 H623 0.918 1_554 S
C635 C636 1.411 . S
C635 C640 1.400 . S
C636 C635 1.411 . S
C636 C637 1.376 . S
C637 H624 0.930 . S
C637 C636 1.376 . S
C637 C638 1.388 . S
C638 H625 0.930 . S
C638 C637 1.388 . S
C638 C639 1.390 . S
C639 C638 1.390 . S
C639 C640 1.394 . S
C639 C645 1.465 . S
C640 C635 1.400 . S
C640 C639 1.394 . S
C640 C641 1.516 1_554 S
C641 C640 1.516 1_556 S
C641 C642 1.502 1_556 S
C641 C643 1.561 . S
C641 C644 1.526 1_556 S
C642 H626 0.959 . S
C642 H627 0.959 1_554 S
C642 H628 0.961 1_554 S
C642 C641 1.502 1_554 S
C643 H629 0.960 . S
C643 H630 0.961 . S
C643 H631 0.959 . S
C643 C641 1.561 . S
C644 C641 1.526 1_554 S
C644 C645 1.396 . S
C644 C649 1.387 1_554 S
C645 C639 1.465 . S
C645 C644 1.396 . S
C645 C646 1.399 . S
C646 H632 0.929 . S
C646 C645 1.399 . S
C646 C647 1.385 . S
C647 H633 0.931 . S
C647 C646 1.385 . S
C647 C648 1.389 . S
C648 C647 1.389 . S
C648 C649 1.376 1_554 S
C649 H634 0.945 . S
C649 C644 1.387 1_556 S
C649 C648 1.376 1_556 S
H650 C662 0.930 . S
H651 C664 0.930 . S
H652 C665 0.930 . S
H653 C669 0.959 . S
H654 C669 0.959 . S
H655 C669 0.961 . S
H656 C670 0.960 . S
H657 C670 0.961 . S
H658 C670 0.959 . S
H659 C673 0.929 . S
H660 C674 0.931 . S
H661 C676 0.930 . S
C662 H650 0.930 . S
C662 C663 1.399 . S
C662 C667 1.399 . S
C663 C662 1.399 . S
C663 C664 1.376 . S
C664 H651 0.930 . S
C664 C663 1.376 . S
C664 C665 1.388 . S
C665 H652 0.930 . S
C665 C664 1.388 . S
C665 C666 1.390 . S
C666 C665 1.390 . S
C666 C667 1.394 . S
C666 C672 1.465 . S
C667 C662 1.399 . S
C667 C666 1.394 . S
C667 C668 1.516 . S
C668 C667 1.516 . S
C668 C669 1.502 . S
C668 C670 1.561 . S
C668 C671 1.526 . S
C669 H653 0.959 . S
C669 H654 0.959 . S
C669 H655 0.961 . S
C669 C668 1.502 . S
C670 H656 0.960 . S
C670 H657 0.961 . S
C670 H658 0.959 . S
C670 C668 1.561 . S
C671 C668 1.526 . S
C671 C672 1.396 . S
C671 C676 1.390 . S
C672 C666 1.465 . S
C672 C671 1.396 . S
C672 C673 1.399 . S
C673 H659 0.929 . S
C673 C672 1.399 . S
C673 C674 1.385 . S
C674 H660 0.931 . S
C674 C673 1.385 . S
C674 C675 1.389 . S
C675 C674 1.389 . S
C675 C676 1.387 . S
C676 H661 0.930 . S
C676 C671 1.390 . S
C676 C675 1.387 . S
H677 C689 0.930 . S
H678 C691 0.930 . S
H679 C692 0.930 . S
H680 C696 0.959 . S
H681 C696 0.959 . S
H682 C696 0.961 . S
H683 C697 0.960 . S
H684 C697 0.961 . S
H685 C697 0.959 . S
H686 C700 0.929 . S
H687 C701 0.931 . S
H688 C703 0.930 . S
C689 H677 0.930 . S
C689 C690 1.399 . S
C689 C694 1.399 . S
C690 C689 1.399 . S
C690 C691 1.376 . S
C691 H678 0.930 . S
C691 C690 1.376 . S
C691 C692 1.388 . S
C692 H679 0.930 . S
C692 C691 1.388 . S
C692 C693 1.390 . S
C693 C692 1.390 . S
C693 C694 1.394 . S
C693 C699 1.465 . S
C694 C689 1.399 . S
C694 C693 1.394 . S
C694 C695 1.516 . S
C695 C694 1.516 . S
C695 C696 1.502 . S
C695 C697 1.561 . S
C695 C698 1.526 . S
C696 H680 0.959 . S
C696 H681 0.959 . S
C696 H682 0.961 . S
C696 C695 1.502 . S
C697 H683 0.960 . S
C697 H684 0.961 . S
C697 H685 0.959 . S
C697 C695 1.561 . S
C698 C695 1.526 . S
C698 C699 1.396 . S
C698 C703 1.390 . S
C699 C693 1.465 . S
C699 C698 1.396 . S
C699 C700 1.399 . S
C700 H686 0.929 . S
C700 C699 1.399 . S
C700 C701 1.385 . S
C701 H687 0.931 . S
C701 C700 1.385 . S
C701 C702 1.389 . S
C702 C701 1.389 . S
C702 C703 1.387 . S
C703 H688 0.930 . S
C703 C698 1.390 . S
C703 C702 1.387 . S
H704 C716 0.930 1_655 S
H705 C718 0.930 . S
H706 C719 0.930 . S
H707 C723 0.959 . S
H708 C723 0.959 . S
H709 C723 0.961 . S
H710 C724 0.960 . S
H711 C724 0.961 . S
H712 C724 0.959 . S
H713 C727 0.929 . S
H714 C728 0.931 . S
H715 C730 0.930 . S
C716 H704 0.930 1_455 S
C716 C717 1.399 . S
C716 C721 1.399 . S
C717 C716 1.399 . S
C717 C718 1.376 . S
C718 H705 0.930 . S
C718 C717 1.376 . S
C718 C719 1.388 . S
C719 H706 0.930 . S
C719 C718 1.388 . S
C719 C720 1.390 . S
C720 C719 1.390 . S
C720 C721 1.394 . S
C720 C726 1.465 . S
C721 C716 1.399 . S
C721 C720 1.394 . S
C721 C722 1.516 1_455 S
C722 C721 1.516 1_655 S
C722 C723 1.502 . S
C722 C724 1.561 1_655 S
C722 C725 1.526 . S
C723 H707 0.959 . S
C723 H708 0.959 . S
C723 H709 0.961 . S
C723 C722 1.502 . S
C724 H710 0.960 . S
C724 H711 0.961 . S
C724 H712 0.959 . S
C724 C722 1.561 1_455 S
C725 C722 1.526 . S
C725 C726 1.396 1_655 S
C725 C730 1.390 . S
C726 C720 1.465 . S
C726 C725 1.396 1_455 S
C726 C727 1.399 . S
C727 H713 0.929 . S
C727 C726 1.399 . S
C727 C728 1.385 . S
C728 H714 0.931 . S
C728 C727 1.385 . S
C728 C729 1.389 1_455 S
C729 C728 1.389 1_655 S
C729 C730 1.387 . S
C730 H715 0.930 . S
C730 C725 1.390 . S
C730 C729 1.387 . S
H731 C743 0.930 . S
H732 C745 0.931 . S
H733 C746 0.930 . S
H734 C750 0.959 . S
H735 C750 0.959 . S
H736 C750 0.961 . S
H737 C751 0.960 . S
H738 C751 0.961 . S
H739 C751 0.959 . S
H740 C754 0.929 . S
H741 C755 0.931 . S
H742 C757 0.930 . S
C743 H731 0.930 . S
C743 C744 1.399 . S
C743 C748 1.399 . S
C744 C743 1.399 . S
C744 C745 1.376 . S
C745 H732 0.931 . S
C745 C744 1.376 . S
C745 C746 1.388 1_655 S
C746 H733 0.930 . S
C746 C745 1.388 1_455 S
C746 C747 1.390 . S
C747 C746 1.390 . S
C747 C748 1.394 1_455 S
C747 C753 1.465 . S
C748 C743 1.399 . S
C748 C747 1.394 1_655 S
C748 C749 1.516 . S
C749 C748 1.516 . S
C749 C750 1.502 . S
C749 C751 1.561 1_655 S
C749 C752 1.526 1_655 S
C750 H734 0.959 . S
C750 H735 0.959 . S
C750 H736 0.961 . S
C750 C749 1.502 . S
C751 H737 0.960 . S
C751 H738 0.961 . S
C751 H739 0.959 . S
C751 C749 1.561 1_455 S
C752 C749 1.526 1_455 S
C752 C753 1.396 . S
C752 C757 1.390 . S
C753 C747 1.465 . S
C753 C752 1.396 . S
C753 C754 1.399 . S
C754 H740 0.929 . S
C754 C753 1.399 . S
C754 C755 1.385 . S
C755 H741 0.931 . S
C755 C754 1.385 . S
C755 C756 1.389 . S
C756 C755 1.389 . S
C756 C757 1.387 . S
C757 H742 0.930 . S
C757 C752 1.390 . S
C757 C756 1.387 . S
H758 C770 0.930 1_455 S
H759 C772 0.930 . S
H760 C773 0.930 . S
H761 C777 0.959 . S
H762 C777 0.959 . S
H763 C777 0.961 . S
H764 C778 0.960 . S
H765 C778 0.961 . S
H766 C778 0.959 . S
H767 C781 0.929 . S
H768 C782 0.931 . S
H769 C784 0.930 . S
C770 H758 0.930 1_655 S
C770 C771 1.399 . S
C770 C775 1.399 . S
C771 C770 1.399 . S
C771 C772 1.376 . S
C772 H759 0.930 . S
C772 C771 1.376 . S
C772 C773 1.388 . S
C773 H760 0.930 . S
C773 C772 1.388 . S
C773 C774 1.390 . S
C774 C773 1.390 . S
C774 C775 1.394 . S
C774 C780 1.465 . S
C775 C770 1.399 . S
C775 C774 1.394 . S
C775 C776 1.516 1_655 S
C776 C775 1.516 1_455 S
C776 C777 1.502 . S
C776 C778 1.561 1_455 S
C776 C779 1.526 . S
C777 H761 0.959 . S
C777 H762 0.959 . S
C777 H763 0.961 . S
C777 C776 1.502 . S
C778 H764 0.960 . S
C778 H765 0.961 . S
C778 H766 0.959 . S
C778 C776 1.561 1_655 S
C779 C776 1.526 . S
C779 C780 1.396 1_455 S
C779 C784 1.390 . S
C780 C774 1.465 . S
C780 C779 1.396 1_655 S
C780 C781 1.399 . S
C781 H767 0.929 . S
C781 C780 1.399 . S
C781 C782 1.385 . S
C782 H768 0.931 . S
C782 C781 1.385 . S
C782 C783 1.389 1_655 S
C783 C782 1.389 1_455 S
C783 C784 1.387 . S
C784 H769 0.930 . S
C784 C779 1.390 . S
C784 C783 1.387 . S
H785 C797 0.930 . S
H786 C799 0.933 . S
H787 C800 0.930 . S
H788 C804 0.959 . S
H789 C804 0.959 . S
H790 C804 0.961 . S
H791 C805 0.960 . S
H792 C805 0.961 . S
H793 C805 0.959 . S
H794 C808 0.929 . S
H795 C809 0.931 . S
H796 C811 0.930 1_655 S
C797 H785 0.930 . S
C797 C798 1.399 . S
C797 C802 1.399 . S
C798 C797 1.399 . S
C798 C799 1.371 1_655 S
C799 H786 0.933 . S
C799 C798 1.371 1_455 S
C799 C800 1.392 . S
C800 H787 0.930 . S
C800 C799 1.392 . S
C800 C801 1.390 . S
C801 C800 1.390 . S
C801 C802 1.394 1_455 S
C801 C807 1.465 . S
C802 C797 1.399 . S
C802 C801 1.394 1_655 S
C802 C803 1.516 . S
C803 C802 1.516 . S
C803 C804 1.502 . S
C803 C805 1.561 1_655 S
C803 C806 1.526 1_655 S
C804 H788 0.959 . S
C804 H789 0.959 . S
C804 H790 0.961 . S
C804 C803 1.502 . S
C805 H791 0.960 . S
C805 H792 0.961 . S
C805 H793 0.959 . S
C805 C803 1.561 1_455 S
C806 C803 1.526 1_455 S
C806 C807 1.396 . S
C806 C811 1.390 . S
C807 C801 1.465 . S
C807 C806 1.396 . S
C807 C808 1.399 . S
C808 H794 0.929 . S
C808 C807 1.399 . S
C808 C809 1.385 . S
C809 H795 0.931 . S
C809 C808 1.385 . S
C809 C810 1.389 . S
C810 C809 1.389 . S
C810 C811 1.387 . S
C811 H796 0.930 1_455 S
C811 C806 1.390 . S
C811 C810 1.387 . S
H812 C824 0.930 . S
H813 C826 0.930 . S
H814 C827 0.930 . S
H815 C831 0.959 . S
H816 C831 0.959 . S
H817 C831 0.961 . S
H818 C832 0.960 . S
H819 C832 0.961 . S
H820 C832 0.959 . S
H821 C835 0.929 . S
H822 C836 0.931 . S
H823 C838 0.930 . S
C824 H812 0.930 . S
C824 C825 1.399 . S
C824 C829 1.399 . S
C825 C824 1.399 . S
C825 C826 1.376 . S
C826 H813 0.930 . S
C826 C825 1.376 . S
C826 C827 1.388 . S
C827 H814 0.930 . S
C827 C826 1.388 . S
C827 C828 1.390 . S
C828 C827 1.390 . S
C828 C829 1.394 . S
C828 C834 1.465 . S
C829 C824 1.399 . S
C829 C828 1.394 . S
C829 C830 1.516 . S
C830 C829 1.516 . S
C830 C831 1.502 . S
C830 C832 1.561 . S
C830 C833 1.526 . S
C831 H815 0.959 . S
C831 H816 0.959 . S
C831 H817 0.961 . S
C831 C830 1.502 . S
C832 H818 0.960 . S
C832 H819 0.961 . S
C832 H820 0.959 . S
C832 C830 1.561 . S
C833 C830 1.526 . S
C833 C834 1.396 . S
C833 C838 1.390 . S
C834 C828 1.465 . S
C834 C833 1.396 . S
C834 C835 1.399 . S
C835 H821 0.929 . S
C835 C834 1.399 . S
C835 C836 1.385 . S
C836 H822 0.931 . S
C836 C835 1.385 . S
C836 C837 1.389 . S
C837 C836 1.389 . S
C837 C838 1.387 . S
C838 H823 0.930 . S
C838 C833 1.390 . S
C838 C837 1.387 . S
H839 C851 0.930 . S
H840 C853 0.930 . S
H841 C854 0.930 . S
H842 C858 0.959 . S
H843 C858 0.959 . S
H844 C858 0.961 . S
H845 C859 0.960 . S
H846 C859 0.961 . S
H847 C859 0.959 . S
H848 C862 0.929 . S
H849 C863 0.931 . S
H850 C865 0.930 . S
C851 H839 0.930 . S
C851 C852 1.399 . S
C851 C856 1.399 . S
C852 C851 1.399 . S
C852 C853 1.376 . S
C853 H840 0.930 . S
C853 C852 1.376 . S
C853 C854 1.388 . S
C854 H841 0.930 . S
C854 C853 1.388 . S
C854 C855 1.390 . S
C855 C854 1.390 . S
C855 C856 1.394 . S
C855 C861 1.465 . S
C856 C851 1.399 . S
C856 C855 1.394 . S
C856 C857 1.516 . S
C857 C856 1.516 . S
C857 C858 1.502 . S
C857 C859 1.561 . S
C857 C860 1.526 . S
C858 H842 0.959 . S
C858 H843 0.959 . S
C858 H844 0.961 . S
C858 C857 1.502 . S
C859 H845 0.960 . S
C859 H846 0.961 . S
C859 H847 0.959 . S
C859 C857 1.561 . S
C860 C857 1.526 . S
C860 C861 1.396 . S
C860 C865 1.390 . S
C861 C855 1.465 . S
C861 C860 1.396 . S
C861 C862 1.399 . S
C862 H848 0.929 . S
C862 C861 1.399 . S
C862 C863 1.385 . S
C863 H849 0.931 . S
C863 C862 1.385 . S
C863 C864 1.389 . S
C864 C863 1.389 . S
C864 C865 1.387 . S
C865 H850 0.930 . S
C865 C860 1.390 . S
C865 C864 1.387 . S
H866 C878 0.930 . S
H867 C880 0.930 . S
H868 C881 0.930 . S
H869 C885 0.959 . S
H870 C885 0.959 . S
H871 C885 0.961 . S
H872 C886 0.960 . S
H873 C886 0.961 . S
H874 C886 0.959 . S
H875 C889 0.929 . S
H876 C890 0.931 . S
H877 C892 0.930 . S
C878 H866 0.930 . S
C878 C879 1.399 . S
C878 C883 1.399 . S
C879 C878 1.399 . S
C879 C880 1.376 . S
C880 H867 0.930 . S
C880 C879 1.376 . S
C880 C881 1.388 . S
C881 H868 0.930 . S
C881 C880 1.388 . S
C881 C882 1.390 . S
C882 C881 1.390 . S
C882 C883 1.394 . S
C882 C888 1.465 . S
C883 C878 1.399 . S
C883 C882 1.394 . S
C883 C884 1.516 . S
C884 C883 1.516 . S
C884 C885 1.502 . S
C884 C886 1.561 . S
C884 C887 1.526 . S
C885 H869 0.959 . S
C885 H870 0.959 . S
C885 H871 0.961 . S
C885 C884 1.502 . S
C886 H872 0.960 . S
C886 H873 0.961 . S
C886 H874 0.959 . S
C886 C884 1.561 . S
C887 C884 1.526 . S
C887 C888 1.396 . S
C887 C892 1.390 . S
C888 C882 1.465 . S
C888 C887 1.396 . S
C888 C889 1.399 . S
C889 H875 0.929 . S
C889 C888 1.399 . S
C889 C890 1.385 . S
C890 H876 0.931 . S
C890 C889 1.385 . S
C890 C891 1.389 . S
C891 C890 1.389 . S
C891 C892 1.387 . S
C892 H877 0.930 . S
C892 C887 1.390 . S
C892 C891 1.387 . S
H893 C905 0.930 . S
H894 C907 0.930 . S
H895 C908 0.930 . S
H896 C912 0.959 . S
H897 C912 0.959 . S
H898 C912 0.961 . S
H899 C913 0.960 . S
H900 C913 0.961 . S
H901 C913 0.959 . S
H902 C916 0.929 . S
H903 C917 0.931 . S
H904 C919 0.930 . S
C905 H893 0.930 . S
C905 C906 1.399 . S
C905 C910 1.399 . S
C906 C905 1.399 . S
C906 C907 1.376 . S
C907 H894 0.930 . S
C907 C906 1.376 . S
C907 C908 1.388 . S
C908 H895 0.930 . S
C908 C907 1.388 . S
C908 C909 1.390 . S
C909 C908 1.390 . S
C909 C910 1.394 . S
C909 C915 1.465 . S
C910 C905 1.399 . S
C910 C909 1.394 . S
C910 C911 1.516 . S
C911 C910 1.516 . S
C911 C912 1.502 . S
C911 C913 1.561 . S
C911 C914 1.526 . S
C912 H896 0.959 . S
C912 H897 0.959 . S
C912 H898 0.961 . S
C912 C911 1.502 . S
C913 H899 0.960 . S
C913 H900 0.961 . S
C913 H901 0.959 . S
C913 C911 1.561 . S
C914 C911 1.526 . S
C914 C915 1.396 . S
C914 C919 1.390 . S
C915 C909 1.465 . S
C915 C914 1.396 . S
C915 C916 1.399 . S
C916 H902 0.929 . S
C916 C915 1.399 . S
C916 C917 1.385 . S
C917 H903 0.931 . S
C917 C916 1.385 . S
C917 C918 1.389 . S
C918 C917 1.389 . S
C918 C919 1.387 . S
C919 H904 0.930 . S
C919 C914 1.390 . S
C919 C918 1.387 . S
C285 C17 1.178 . S
C297 C8 1.191 . S
C312 C42 1.181 . S
C324 C51 1.189 . S
C339 C76 1.184 . S
C351 C85 1.187 . S
C366 C110 1.181 . S
C378 C119 1.189 . S
C393 C153 1.178 . S
C405 C144 1.191 . S
C420 C187 1.181 . S
C432 C178 1.185 . S
C447 C212 1.182 . S
C459 C221 1.188 . S
C474 C255 1.189 . S
C486 C246 1.179 . S
C501 C34 1.527 . S
C513 C0 1.540 . S
C528 C131 1.530 . S
C540 C68 1.539 . S
C555 C136 1.544 . S
C567 C170 1.537 . S
C582 C204 1.527 . S
C594 C267 1.542 . S
C609 C29 1.638 . S
C621 C199 1.616 . S
C636 C165 1.611 . S
C648 C63 1.650 . S
C663 C97 1.641 . S
C675 C238 1.627 . S
C690 C102 1.646 . S
C702 C233 1.621 . S
C717 C4 1.582 . S
C729 C106 1.546 . S
C744 C38 1.551 . S
C756 C72 1.573 . S
C771 C47 1.577 . S
C783 C81 1.559 . S
C798 C115 1.557 . S
C810 C13 1.557 . S
C825 C140 1.550 . S
C837 C242 1.576 . S
C852 C174 1.551 . S
C864 C208 1.574 . S
C879 C183 1.538 . S
C891 C217 1.563 . S
C906 C251 1.562 . S
C918 C149 1.560 . S
