# Generated by pormake.
# Topology whe, (6)-cn, num edge types: 1
# Building blocks:
#     Node 0, Type 0, BuildingBlock: IZENUY_clean_sbu_0, # of connection points: 6
#     Node 1, Type 0, BuildingBlock: IZENUY_clean_sbu_0, # of connection points: 6
#     Node 2, Type 0, BuildingBlock: IZENUY_clean_sbu_0, # of connection points: 6
#     Node 3, Type 0, BuildingBlock: IZENUY_clean_sbu_0, # of connection points: 6
#     Node 4, Type 0, BuildingBlock: IZENUY_clean_sbu_0, # of connection points: 6
#     Node 5, Type 0, BuildingBlock: IZENUY_clean_sbu_0, # of connection points: 6
#     Node 6, Type 0, BuildingBlock: IZENUY_clean_sbu_0, # of connection points: 6
#     Node 7, Type 0, BuildingBlock: IZENUY_clean_sbu_0, # of connection points: 6
#     Node 8, Type 0, BuildingBlock: IZENUY_clean_sbu_0, # of connection points: 6
#     Node 9, Type 0, BuildingBlock: IZENUY_clean_sbu_0, # of connection points: 6
#     Node 10, Type 0, BuildingBlock: IZENUY_clean_sbu_0, # of connection points: 6
#     Node 11, Type 0, BuildingBlock: IZENUY_clean_sbu_0, # of connection points: 6
#     Node 12, Type 0, BuildingBlock: IZENUY_clean_sbu_0, # of connection points: 6
#     Node 13, Type 0, BuildingBlock: IZENUY_clean_sbu_0, # of connection points: 6
#     Node 14, Type 0, BuildingBlock: IZENUY_clean_sbu_0, # of connection points: 6
#     Node 15, Type 0, BuildingBlock: IZENUY_clean_sbu_0, # of connection points: 6
#     Edge 16, Type (0, 0), BuildingBlock: XUDNAN_clean_linker_2, # of connection points: 2
#     Edge 17, Type (0, 0), BuildingBlock: XUDNAN_clean_linker_2, # of connection points: 2
#     Edge 18, Type (0, 0), BuildingBlock: XUDNAN_clean_linker_2, # of connection points: 2
#     Edge 19, Type (0, 0), BuildingBlock: XUDNAN_clean_linker_2, # of connection points: 2
#     Edge 20, Type (0, 0), BuildingBlock: XUDNAN_clean_linker_2, # of connection points: 2
#     Edge 21, Type (0, 0), BuildingBlock: XUDNAN_clean_linker_2, # of connection points: 2
#     Edge 22, Type (0, 0), BuildingBlock: XUDNAN_clean_linker_2, # of connection points: 2
#     Edge 23, Type (0, 0), BuildingBlock: XUDNAN_clean_linker_2, # of connection points: 2
#     Edge 24, Type (0, 0), BuildingBlock: XUDNAN_clean_linker_2, # of connection points: 2
#     Edge 25, Type (0, 0), BuildingBlock: XUDNAN_clean_linker_2, # of connection points: 2
#     Edge 26, Type (0, 0), BuildingBlock: XUDNAN_clean_linker_2, # of connection points: 2
#     Edge 27, Type (0, 0), BuildingBlock: XUDNAN_clean_linker_2, # of connection points: 2
#     Edge 28, Type (0, 0), BuildingBlock: XUDNAN_clean_linker_2, # of connection points: 2
#     Edge 29, Type (0, 0), BuildingBlock: XUDNAN_clean_linker_2, # of connection points: 2
#     Edge 30, Type (0, 0), BuildingBlock: XUDNAN_clean_linker_2, # of connection points: 2
#     Edge 31, Type (0, 0), BuildingBlock: XUDNAN_clean_linker_2, # of connection points: 2
#     Edge 32, Type (0, 0), BuildingBlock: XUDNAN_clean_linker_2, # of connection points: 2
#     Edge 33, Type (0, 0), BuildingBlock: XUDNAN_clean_linker_2, # of connection points: 2
#     Edge 34, Type (0, 0), BuildingBlock: XUDNAN_clean_linker_2, # of connection points: 2
#     Edge 35, Type (0, 0), BuildingBlock: XUDNAN_clean_linker_2, # of connection points: 2
#     Edge 36, Type (0, 0), BuildingBlock: XUDNAN_clean_linker_2, # of connection points: 2
#     Edge 37, Type (0, 0), BuildingBlock: XUDNAN_clean_linker_2, # of connection points: 2
#     Edge 38, Type (0, 0), BuildingBlock: XUDNAN_clean_linker_2, # of connection points: 2
#     Edge 39, Type (0, 0), BuildingBlock: XUDNAN_clean_linker_2, # of connection points: 2
#     Edge 40, Type (0, 0), BuildingBlock: XUDNAN_clean_linker_2, # of connection points: 2
#     Edge 41, Type (0, 0), BuildingBlock: XUDNAN_clean_linker_2, # of connection points: 2
#     Edge 42, Type (0, 0), BuildingBlock: XUDNAN_clean_linker_2, # of connection points: 2
#     Edge 43, Type (0, 0), BuildingBlock: XUDNAN_clean_linker_2, # of connection points: 2
#     Edge 44, Type (0, 0), BuildingBlock: XUDNAN_clean_linker_2, # of connection points: 2
#     Edge 45, Type (0, 0), BuildingBlock: XUDNAN_clean_linker_2, # of connection points: 2
#     Edge 46, Type (0, 0), BuildingBlock: XUDNAN_clean_linker_2, # of connection points: 2
#     Edge 47, Type (0, 0), BuildingBlock: XUDNAN_clean_linker_2, # of connection points: 2
#     Edge 48, Type (0, 0), BuildingBlock: XUDNAN_clean_linker_2, # of connection points: 2
#     Edge 49, Type (0, 0), BuildingBlock: XUDNAN_clean_linker_2, # of connection points: 2
#     Edge 50, Type (0, 0), BuildingBlock: XUDNAN_clean_linker_2, # of connection points: 2
#     Edge 51, Type (0, 0), BuildingBlock: XUDNAN_clean_linker_2, # of connection points: 2
#     Edge 52, Type (0, 0), BuildingBlock: XUDNAN_clean_linker_2, # of connection points: 2
#     Edge 53, Type (0, 0), BuildingBlock: XUDNAN_clean_linker_2, # of connection points: 2
#     Edge 54, Type (0, 0), BuildingBlock: XUDNAN_clean_linker_2, # of connection points: 2
#     Edge 55, Type (0, 0), BuildingBlock: XUDNAN_clean_linker_2, # of connection points: 2
#     Edge 56, Type (0, 0), BuildingBlock: XUDNAN_clean_linker_2, # of connection points: 2
#     Edge 57, Type (0, 0), BuildingBlock: XUDNAN_clean_linker_2, # of connection points: 2
#     Edge 58, Type (0, 0), BuildingBlock: XUDNAN_clean_linker_2, # of connection points: 2
#     Edge 59, Type (0, 0), BuildingBlock: XUDNAN_clean_linker_2, # of connection points: 2
#     Edge 60, Type (0, 0), BuildingBlock: XUDNAN_clean_linker_2, # of connection points: 2
#     Edge 61, Type (0, 0), BuildingBlock: XUDNAN_clean_linker_2, # of connection points: 2
#     Edge 62, Type (0, 0), BuildingBlock: XUDNAN_clean_linker_2, # of connection points: 2
#     Edge 63, Type (0, 0), BuildingBlock: XUDNAN_clean_linker_2, # of connection points: 2
# Relax obj value: 0.463
# Max RMSD: 0.278
# Mean RMSD: 0.278
data_MOF--net-whe--node1-IZENUY_clean_sbu_0--edge1-XUDNAN_clean_linker_2
_symmetry_space_group_name_H-M    P1
_symmetry_Int_Tables_number       1
_symmetry_cell_setting            triclinic
loop_
_symmetry_equiv_pos_as_xyz
'x, y, z'
_cell_length_a     33.785447
_cell_length_b     33.888249
_cell_length_c     54.578935
_cell_angle_alpha  90.098227
_cell_angle_beta   89.955878
_cell_angle_gamma 90.184546
loop_
_atom_site_label
_atom_site_type_symbol
_atom_site_fract_x
_atom_site_fract_y
_atom_site_fract_z
_atom_type_partial_charge
Fe0 Fe 0.08833 0.25917 0.16855 0.0
Fe1 Fe 0.05327 0.33307 0.14595 0.0
O2 O 0.09472 0.3083 0.15848 0.0
Fe3 Fe 0.14216 0.33076 0.15999 0.0
O4 O 0.14777 0.321 0.19329 0.0
O5 O 0.12978 0.25905 0.19058 0.0
O6 O 0.05649 0.27588 0.19262 0.0
C7 C 0.02499 0.29481 0.18855 0.0
C8 C 0.15583 0.2514 0.14303 0.0
O9 O 0.01829 0.3114 0.16815 0.0
C10 C 0.11557 0.35399 0.11385 0.0
O11 O 0.04498 0.24764 0.14935 0.0
O12 O 0.04585 0.29496 0.12307 0.0
O13 O 0.16849 0.28383 0.15231 0.0
O14 O 0.11975 0.24196 0.14441 0.0
C15 C 0.08655 0.39387 0.17165 0.0
O16 O 0.08108 0.35952 0.12217 0.0
O17 O 0.14256 0.34027 0.12725 0.0
C18 C 0.03303 0.26186 0.12934 0.0
O19 O 0.05707 0.37258 0.16742 0.0
O20 O 0.12176 0.38173 0.16691 0.0
C21 C 0.14851 0.28595 0.2018 0.0
Fe22 Fe 0.70775 0.13715 0.15333 0.0
Fe23 Fe 0.79165 0.10448 0.15418 0.0
O24 O 0.74022 0.09677 0.14949 0.0
Fe25 Fe 0.7232 0.04997 0.13987 0.0
O26 O 0.68635 0.04629 0.16353 0.0
O27 O 0.66371 0.10681 0.16293 0.0
O28 O 0.72342 0.14278 0.18599 0.0
C29 C 0.75909 0.15173 0.19163 0.0
C30 C 0.6845 0.1045 0.10844 0.0
O31 O 0.78617 0.14622 0.17593 0.0
C32 C 0.79388 0.04442 0.118 0.0
O33 O 0.74524 0.17382 0.14267 0.0
O34 O 0.79272 0.13642 0.12789 0.0
O35 O 0.68846 0.06972 0.11685 0.0
O36 O 0.69225 0.13452 0.12146 0.0
C37 C 0.77694 0.03783 0.1797 0.0
O38 O 0.80967 0.06342 0.13522 0.0
O39 O 0.75772 0.04853 0.11465 0.0
C40 C 0.77396 0.16856 0.12776 0.0
O41 O 0.79065 0.07251 0.17988 0.0
O42 O 0.75591 0.0242 0.1621 0.0
C43 C 0.65933 0.07033 0.16807 0.0
Fe44 Fe 0.87794 0.69422 0.14747 0.0
Fe45 Fe 0.94343 0.74612 0.17086 0.0
O46 O 0.9284 0.70765 0.15078 0.0
Fe47 Fe 0.96384 0.67942 0.13378 0.0
O48 O 0.93264 0.63587 0.13162 0.0
O49 O 0.89016 0.64401 0.16046 0.0
O50 O 0.86007 0.70975 0.17807 0.0
C51 C 0.87562 0.72469 0.19703 0.0
C52 C 0.90907 0.69018 0.09861 0.0
O53 O 0.91216 0.73217 0.19702 0.0
C54 C 1.00356 0.75224 0.13621 0.0
O55 O 0.86578 0.74325 0.13558 0.0
O56 O 0.90584 0.77955 0.15925 0.0
O57 O 0.94424 0.69794 0.1051 0.0
O58 O 0.88365 0.67918 0.11465 0.0
C59 C 0.99098 0.67896 0.18121 0.0
O60 O 0.97695 0.7686 0.14862 0.0
O61 O 1.00271 0.71588 0.13246 0.0
C62 C 0.87877 0.77652 0.14313 0.0
O63 O 0.98223 0.71525 0.18429 0.0
O64 O 0.98415 0.66014 0.1617 0.0
C65 C 0.91507 0.62161 0.14972 0.0
Fe66 Fe 0.34673 0.87191 0.15153 0.0
Fe67 Fe 0.29447 0.93727 0.17491 0.0
O68 O 0.33513 0.92181 0.15723 0.0
Fe69 Fe 0.36774 0.9582 0.14478 0.0
O70 O 0.40734 0.92498 0.13658 0.0
O71 O 0.39905 0.88026 0.16298 0.0
O72 O 0.33512 0.85283 0.18248 0.0
C73 C 0.31412 0.86611 0.19993 0.0
C74 C 0.34522 0.9141 0.10606 0.0
O75 O 0.3 0.90053 0.19904 0.0
C76 C 0.30099 1.00417 0.14694 0.0
O77 O 0.29635 0.85964 0.14127 0.0
O78 O 0.25953 0.90567 0.15936 0.0
O79 O 0.34583 0.94881 0.11518 0.0
O80 O 0.35654 0.88376 0.11844 0.0
C81 C 0.36562 0.96963 0.19395 0.0
O82 O 0.27969 0.97554 0.15304 0.0
O83 O 0.33743 1.00124 0.14924 0.0
C84 C 0.26297 0.8752 0.14611 0.0
O85 O 0.32765 0.97006 0.19248 0.0
O86 O 0.38781 0.9656 0.17522 0.0
C87 C 0.42275 0.9033 0.15203 0.0
Fe88 Fe 0.09142 0.74793 0.35399 0.0
Fe89 Fe 0.05987 0.68402 0.38724 0.0
O90 O 0.10103 0.70654 0.37293 0.0
Fe91 Fe 0.1501 0.69012 0.37659 0.0
O92 O 0.16468 0.69583 0.3438 0.0
O93 O 0.13933 0.75327 0.33911 0.0
O94 O 0.07495 0.71371 0.33103 0.0
C95 C 0.04957 0.68684 0.33585 0.0
C96 C 0.14381 0.7741 0.38783 0.0
O97 O 0.0342 0.68246 0.35719 0.0
C98 C 0.11657 0.67949 0.42463 0.0
O99 O 0.03957 0.75644 0.36227 0.0
O100 O 0.0399 0.73075 0.39753 0.0
O101 O 0.16462 0.7423 0.38466 0.0
O102 O 0.10958 0.779 0.37822 0.0
C103 C 0.10523 0.61837 0.37243 0.0
O104 O 0.08127 0.68181 0.41751 0.0
O105 O 0.14522 0.6811 0.40967 0.0
C106 C 0.02368 0.75318 0.38277 0.0
O107 O 0.07474 0.63488 0.38049 0.0
O108 O 0.13769 0.63734 0.36908 0.0
C109 C 0.16401 0.72823 0.33243 0.0
Fe110 Fe 0.33562 0.14914 0.37999 0.0
Fe111 Fe 0.28893 0.0817 0.35504 0.0
O112 O 0.32463 0.09829 0.37643 0.0
Fe113 Fe 0.35073 0.06454 0.39544 0.0
O114 O 0.39356 0.09673 0.3984 0.0
O115 O 0.38769 0.13884 0.36901 0.0
O116 O 0.32154 0.16501 0.34886 0.0
C117 C 0.31121 0.14793 0.32925 0.0
C118 C 0.33438 0.1212 0.42866 0.0
O119 O 0.30764 0.11077 0.32908 0.0
C120 C 0.27782 0.02536 0.39092 0.0
O121 O 0.28489 0.15817 0.39067 0.0
O122 O 0.25419 0.12052 0.36313 0.0
O123 O 0.328 0.08575 0.42251 0.0
O124 O 0.34836 0.14538 0.413 0.0
C125 C 0.35598 0.03015 0.35046 0.0
O126 O 0.26322 0.05163 0.37761 0.0
O127 O 0.314 0.02532 0.39583 0.0
C128 C 0.25344 0.1432 0.38166 0.0
O129 O 0.32067 0.04042 0.34501 0.0
O130 O 0.37379 0.04215 0.36935 0.0
C131 C 0.40928 0.11407 0.38058 0.0
Fe132 Fe 0.95182 0.23961 0.37454 0.0
Fe133 Fe 0.98825 0.31464 0.39532 0.0
O134 O 0.94597 0.28935 0.38376 0.0
Fe135 Fe 0.90065 0.31489 0.38101 0.0
O136 O 0.88534 0.29081 0.35134 0.0
O137 O 0.93309 0.2482 0.34359 0.0
O138 O 1.00201 0.24891 0.36356 0.0
C139 C 1.01239 0.28022 0.35284 0.0
C140 C 0.87575 0.2401 0.39612 0.0
O141 O 1.00968 0.31267 0.36441 0.0
C142 C 0.93204 0.33254 0.4291 0.0
O143 O 0.97019 0.22538 0.4048 0.0
O144 O 0.01502 0.27127 0.40525 0.0
O145 O 0.87326 0.27721 0.39849 0.0
O146 O 0.9034 0.22402 0.38432 0.0
C147 C 0.95262 0.37668 0.37141 0.0
O148 O 0.96581 0.31724 0.42532 0.0
O149 O 0.90842 0.34022 0.41122 0.0
C150 C 1.0025 0.23862 0.41302 0.0
O151 O 0.97157 0.36395 0.38927 0.0
O152 O 0.92424 0.35599 0.36293 0.0
C153 C 0.90133 0.26511 0.33724 0.0
Fe154 Fe 0.77655 0.91675 0.37368 0.0
Fe155 Fe 0.70767 0.96934 0.389 0.0
O156 O 0.72529 0.92276 0.37926 0.0
Fe157 Fe 0.69344 0.88138 0.3764 0.0
O158 O 0.70767 0.87367 0.34359 0.0
O159 O 0.77124 0.87526 0.35186 0.0
O160 O 0.77366 0.94879 0.34799 0.0
C161 C 0.75957 0.98316 0.34865 0.0
C162 C 0.76351 0.85072 0.39894 0.0
O163 O 0.73952 0.99611 0.36677 0.0
C164 C 0.67037 0.91482 0.42116 0.0
O165 O 0.79408 0.95832 0.39265 0.0
O166 O 0.74261 0.97162 0.4141 0.0
O167 O 0.73196 0.84581 0.38639 0.0
O168 O 0.77985 0.88427 0.39972 0.0
C169 C 0.64436 0.94709 0.361 0.0
O170 O 0.67304 0.94928 0.41211 0.0
O171 O 0.67935 0.88473 0.40856 0.0
C172 C 0.77858 0.97682 0.41022 0.0
O173 O 0.67107 0.9717 0.36532 0.0
O174 O 0.64871 0.91086 0.36695 0.0
C175 C 0.74344 0.86594 0.33734 0.0
Fe176 Fe 0.91795 0.78231 0.86964 0.0
Fe177 Fe 0.96331 0.71091 0.88846 0.0
O178 O 0.91942 0.73136 0.87617 0.0
Fe179 Fe 0.87627 0.70213 0.87178 0.0
O180 O 0.8736 0.71448 0.83854 0.0
O181 O 0.88049 0.77829 0.84503 0.0
O182 O 0.95468 0.7761 0.84643 0.0
C183 C 0.98795 0.75998 0.84962 0.0
C184 C 0.84683 0.77496 0.89063 0.0
O185 O 0.99605 0.74123 0.86909 0.0
C186 C 0.90277 0.67945 0.9179 0.0
O187 O 0.95617 0.79743 0.89156 0.0
O188 O 0.96419 0.74548 0.91376 0.0
O189 O 0.84184 0.74303 0.87869 0.0
O190 O 0.88115 0.78906 0.89319 0.0
C191 C 0.94065 0.64932 0.85953 0.0
O192 O 0.93763 0.67719 0.90947 0.0
O193 O 0.87453 0.69053 0.90439 0.0
C194 C 0.97108 0.7813 0.91018 0.0
O195 O 0.96633 0.67482 0.86442 0.0
O196 O 0.90425 0.65541 0.86474 0.0
C197 C 0.86977 0.75015 0.8311 0.0
Fe198 Fe 0.31921 0.87857 0.88268 0.0
Fe199 Fe 0.26224 0.93263 0.8537 0.0
O200 O 0.2988 0.92574 0.87637 0.0
Fe201 Fe 0.31653 0.96664 0.89367 0.0
O202 O 0.36374 0.94455 0.9004 0.0
O203 O 0.3702 0.89745 0.87371 0.0
O204 O 0.31134 0.85609 0.85156 0.0
C205 C 0.29721 0.86927 0.83159 0.0
C206 C 0.3062 0.91312 0.92939 0.0
O207 O 0.28818 0.90504 0.83035 0.0
C208 C 0.23901 0.99219 0.8844 0.0
O209 O 0.27068 0.85984 0.89182 0.0
O210 O 0.2338 0.88957 0.86354 0.0
O211 O 0.29464 0.94584 0.92089 0.0
O212 O 0.32645 0.88953 0.91602 0.0
C213 C 0.32201 0.99071 0.8463 0.0
O214 O 0.22973 0.96102 0.87351 0.0
O215 O 0.27427 0.99841 0.89005 0.0
C216 C 0.23746 0.86637 0.8817 0.0
O217 O 0.28782 0.97641 0.84165 0.0
O218 O 0.33863 0.98766 0.86686 0.0
C219 C 0.38522 0.92702 0.88516 0.0
Fe220 Fe 0.14263 0.34138 0.88373 0.0
Fe221 Fe 0.07763 0.28474 0.86348 0.0
O222 O 0.09259 0.32506 0.88209 0.0
Fe223 Fe 0.05688 0.35194 0.89962 0.0
O224 O 0.08585 0.39704 0.90116 0.0
O225 O 0.12729 0.39101 0.87164 0.0
O226 O 0.15781 0.3273 0.85229 0.0
C227 C 0.14177 0.30904 0.83457 0.0
C228 C 0.11402 0.34373 0.93347 0.0
O229 O 0.10577 0.29897 0.836 0.0
C230 C 0.0201 0.27727 0.89904 0.0
O231 O 0.15988 0.29329 0.89435 0.0
O232 O 0.11828 0.25422 0.87356 0.0
O233 O 0.07893 0.33457 0.92765 0.0
O234 O 0.13851 0.35538 0.91697 0.0
C235 C 0.02351 0.34809 0.85435 0.0
O236 O 0.04796 0.26155 0.88743 0.0
O237 O 0.0194 0.31384 0.90197 0.0
C238 C 0.14837 0.25948 0.88706 0.0
O239 O 0.03516 0.3125 0.8515 0.0
O240 O 0.03397 0.36969 0.87208 0.0
C241 C 0.10215 0.4122 0.88291 0.0
Fe242 Fe 0.72808 0.09787 0.85102 0.0
Fe243 Fe 0.668 0.06637 0.8888 0.0
O244 O 0.69072 0.10666 0.87318 0.0
Fe245 Fe 0.67396 0.15489 0.87999 0.0
O246 O 0.68438 0.1773 0.84921 0.0
O247 O 0.7053 0.12769 0.82731 0.0
O248 O 0.70109 0.0557 0.83793 0.0
C249 C 0.66522 0.0449 0.84059 0.0
C250 C 0.7564 0.16281 0.87932 0.0
O251 O 0.64641 0.04956 0.86035 0.0
C252 C 0.67852 0.11616 0.92693 0.0
O253 O 0.75696 0.0671 0.87147 0.0
O254 O 0.70817 0.03193 0.88535 0.0
O255 O 0.7236 0.16986 0.88995 0.0
O256 O 0.75893 0.13893 0.86143 0.0
C257 C 0.60373 0.11206 0.88009 0.0
O258 O 0.68834 0.08299 0.91796 0.0
O259 O 0.66419 0.14299 0.91294 0.0
C260 C 0.74435 0.03618 0.88133 0.0
O261 O 0.62232 0.0914 0.89508 0.0
O262 O 0.62199 0.14099 0.87002 0.0
C263 C 0.69751 0.16383 0.82898 0.0
Fe264 Fe 0.91277 0.26551 0.66561 0.0
Fe265 Fe 0.9548 0.33944 0.64777 0.0
O266 O 0.91033 0.31417 0.65424 0.0
Fe267 Fe 0.86361 0.33642 0.64961 0.0
O268 O 0.84919 0.32926 0.68243 0.0
O269 O 0.86473 0.26657 0.68173 0.0
O270 O 0.9346 0.28313 0.69314 0.0
C271 C 0.96413 0.30587 0.69403 0.0
C272 C 0.85653 0.25799 0.6312 0.0
O273 O 0.98035 0.31866 0.67457 0.0
C274 C 0.90432 0.35753 0.60755 0.0
O275 O 0.96154 0.25372 0.65265 0.0
O276 O 0.9717 0.30146 0.62702 0.0
O277 O 0.83991 0.28874 0.64022 0.0
O278 O 0.89069 0.24799 0.63803 0.0
C279 C 0.91396 0.40197 0.66482 0.0
O280 O 0.93556 0.36396 0.61996 0.0
O281 O 0.87359 0.34337 0.61735 0.0
C282 C 0.97979 0.26748 0.63434 0.0
O283 O 0.94205 0.37893 0.6682 0.0
O284 O 0.88154 0.38855 0.65587 0.0
C285 C 0.84647 0.29481 0.6919 0.0
Fe286 Fe 0.76028 0.94802 0.65778 0.0
Fe287 Fe 0.6836 0.97909 0.63598 0.0
O288 O 0.71115 0.93878 0.64741 0.0
Fe289 Fe 0.69148 0.89039 0.64762 0.0
O290 O 0.70185 0.88328 0.68064 0.0
O291 O 0.7629 0.90535 0.67905 0.0
O292 O 0.7414 0.97606 0.68285 0.0
C293 C 0.71552 1.00247 0.6805 0.0
C294 C 0.77222 0.88322 0.63037 0.0
O295 O 0.70447 0.01287 0.65921 0.0
C296 C 0.66521 0.91855 0.60217 0.0
O297 O 0.76858 0.9932 0.63931 0.0
O298 O 0.72081 0.98862 0.61324 0.0
O299 O 0.74036 0.86766 0.63898 0.0
O300 O 0.77923 0.91959 0.63289 0.0
C301 C 0.62561 0.94162 0.66173 0.0
O302 O 0.65783 0.95189 0.61153 0.0
O303 O 0.68109 0.89172 0.61479 0.0
C304 C 0.75321 1.00338 0.61916 0.0
O305 O 0.64461 0.97236 0.65729 0.0
O306 O 0.63933 0.90742 0.65584 0.0
C307 C 0.73641 0.88524 0.68989 0.0
Fe308 Fe 0.09131 0.76878 0.65948 0.0
Fe309 Fe 0.05316 0.6939 0.63931 0.0
O310 O 0.09563 0.71927 0.6499 0.0
Fe311 Fe 0.14265 0.69612 0.65046 0.0
O312 O 0.14842 0.70442 0.68398 0.0
O313 O 0.13356 0.76739 0.68134 0.0
O314 O 0.06035 0.75414 0.68426 0.0
C315 C 0.02897 0.73422 0.68198 0.0
C316 C 0.15778 0.77375 0.63266 0.0
O317 O 0.02013 0.71617 0.66234 0.0
C318 C 0.11352 0.6739 0.60514 0.0
O319 O 0.04746 0.78064 0.64078 0.0
O320 O 0.0426 0.73046 0.61628 0.0
O321 O 0.1699 0.74289 0.64374 0.0
O322 O 0.12215 0.78419 0.63439 0.0
C323 C 0.08783 0.63242 0.6621 0.0
O324 O 0.07967 0.66744 0.61456 0.0
O325 O 0.14131 0.68846 0.61769 0.0
C326 C 0.03246 0.76474 0.62197 0.0
O327 O 0.05952 0.65584 0.66171 0.0
O328 O 0.1222 0.64456 0.65557 0.0
C329 C 0.14989 0.73929 0.69301 0.0
Fe330 Fe 0.33689 0.07248 0.64184 0.0
Fe331 Fe 0.3274 0.15788 0.65737 0.0
O332 O 0.31069 0.10843 0.6595 0.0
Fe333 Fe 0.27085 0.09396 0.67859 0.0
O334 O 0.30012 0.05273 0.69103 0.0
O335 O 0.35657 0.05203 0.66947 0.0
O336 O 0.38138 0.10185 0.63826 0.0
C337 C 0.39865 0.11716 0.65603 0.0
C338 C 0.26298 0.03682 0.64265 0.0
O339 O 0.3782 0.14167 0.66851 0.0
C340 C 0.24451 0.16298 0.65388 0.0
O341 O 0.31693 0.09331 0.61418 0.0
O342 O 0.33882 0.15298 0.62388 0.0
O343 O 0.24731 0.06368 0.65502 0.0
O344 O 0.29962 0.03452 0.64122 0.0
C345 C 0.29568 0.15866 0.70665 0.0
O346 O 0.27866 0.17491 0.6472 0.0
O347 O 0.23949 0.13356 0.66794 0.0
C348 C 0.32455 0.12863 0.6081 0.0
O349 O 0.31488 0.17384 0.689 0.0
O350 O 0.28504 0.12298 0.70552 0.0
C351 C 0.33685 0.04439 0.68857 0.0
H352 H 0.13934 0.17289 0.14255 0.0
H353 H 0.23516 0.25658 0.13109 0.0
H354 H 0.28168 0.20065 0.12585 0.0
H355 H 0.19263 0.11095 0.18005 0.0
H356 H 0.16933 0.06609 0.16957 0.0
H357 H 0.14291 0.11199 0.16811 0.0
H358 H 0.1316 0.10193 0.12152 0.0
H359 H 0.1579 0.0558 0.12284 0.0
H360 H 0.17346 0.0936 0.10169 0.0
H361 H 0.31781 0.13597 0.12531 0.0
H362 H 0.34249 0.06883 0.13217 0.0
H363 H 0.22277 0.02807 0.14682 0.0
C364 C 0.16987 0.17976 0.13819 0.0
C365 C 0.18356 0.21925 0.13677 0.0
C366 C 0.22402 0.22662 0.13194 0.0
C367 C 0.25051 0.19505 0.1289 0.0
C368 C 0.23597 0.15652 0.13099 0.0
C369 C 0.19658 0.14887 0.13565 0.0
C370 C 0.18898 0.10537 0.14003 0.0
C371 C 0.1725 0.09821 0.16598 0.0
C372 C 0.16135 0.08817 0.12034 0.0
C373 C 0.23048 0.08949 0.13744 0.0
C374 C 0.25699 0.1194 0.13183 0.0
C375 C 0.29729 0.11236 0.12955 0.0
C376 C 0.31096 0.07401 0.13358 0.0
C377 C 0.28453 0.04309 0.14018 0.0
C378 C 0.24364 0.05092 0.14166 0.0
H379 H 0.97014 0.25429 0.15912 0.0
H380 H 1.00377 0.24973 0.08262 0.0
H381 H 0.93302 0.23881 0.07143 0.0
H382 H 0.89666 0.18525 0.16086 0.0
H383 H 0.86542 0.2129 0.18141 0.0
H384 H 0.91783 0.22064 0.1818 0.0
H385 H 0.90582 0.29497 0.17481 0.0
H386 H 0.85303 0.28763 0.17259 0.0
H387 H 0.87947 0.31119 0.14794 0.0
H388 H 0.86081 0.21588 0.07093 0.0
H389 H 0.79657 0.18466 0.08094 0.0
H390 H 0.80876 0.22166 0.15631 0.0
C391 C 0.96285 0.25128 0.13999 0.0
C392 C 0.99238 0.25197 0.12176 0.0
C393 C 0.98145 0.24842 0.09686 0.0
C394 C 0.94142 0.24283 0.0904 0.0
C395 C 0.91291 0.24314 0.10903 0.0
C396 C 0.92335 0.24807 0.13328 0.0
C397 C 0.88794 0.24712 0.15011 0.0
C398 C 0.89222 0.21453 0.16965 0.0
C399 C 0.88119 0.28765 0.16207 0.0
C400 C 0.85579 0.23767 0.13182 0.0
C401 C 0.87058 0.23562 0.10812 0.0
C402 C 0.84839 0.21914 0.08911 0.0
C403 C 0.81168 0.2019 0.09483 0.0
C404 C 0.79743 0.20213 0.11921 0.0
C405 C 0.81825 0.22301 0.13736 0.0
H406 H 0.90022 0.85109 0.15633 0.0
H407 H 0.82337 0.7871 0.10626 0.0
H408 H 0.80092 0.85083 0.08885 0.0
H409 H 0.83481 0.92771 0.16975 0.0
H410 H 0.87339 0.96439 0.1719 0.0
H411 H 0.8843 0.91366 0.17839 0.0
H412 H 0.94031 0.91595 0.1457 0.0
H413 H 0.92843 0.9665 0.13871 0.0
H414 H 0.92864 0.92994 0.11468 0.0
H415 H 0.7833 0.92252 0.07961 0.0
H416 H 0.76742 0.99351 0.08233 0.0
H417 H 0.8587 1.00847 0.13747 0.0
C418 C 0.87884 0.85009 0.14156 0.0
C419 C 0.86354 0.8139 0.13269 0.0
C420 C 0.83544 0.81441 0.11343 0.0
C421 C 0.82283 0.85044 0.1033 0.0
C422 C 0.83895 0.88553 0.11245 0.0
C423 C 0.86625 0.88542 0.13125 0.0
C424 C 0.87728 0.92672 0.13923 0.0
C425 C 0.86679 0.93349 0.16641 0.0
C426 C 0.92128 0.93526 0.13427 0.0
C427 C 0.85104 0.95045 0.12247 0.0
C428 C 0.82947 0.92634 0.10689 0.0
C429 C 0.80047 0.94163 0.09146 0.0
C430 C 0.79182 0.98209 0.09303 0.0
C431 C 0.81189 1.00667 0.11008 0.0
C432 C 0.8433 0.99082 0.12391 0.0
H433 H 0.18858 0.88783 0.16368 0.0
H434 H 0.25314 0.81989 0.10935 0.0
H435 H 0.1904 0.78758 0.09677 0.0
H436 H 0.12779 0.81142 0.18309 0.0
H437 H 0.08499 0.84192 0.18831 0.0
H438 H 0.13377 0.86294 0.19055 0.0
H439 H 0.11489 0.91579 0.15835 0.0
H440 H 0.066 0.89471 0.15587 0.0
H441 H 0.09623 0.90047 0.12888 0.0
H442 H 0.12175 0.75904 0.09277 0.0
H443 H 0.05458 0.73261 0.09958 0.0
H444 H 0.03545 0.81907 0.15705 0.0
C445 C 0.18961 0.86677 0.14875 0.0
C446 C 0.22582 0.85663 0.13732 0.0
C447 C 0.22579 0.82818 0.11831 0.0
C448 C 0.19026 0.80993 0.11096 0.0
C449 C 0.15516 0.82051 0.12281 0.0
C450 C 0.15469 0.84819 0.14137 0.0
C451 C 0.11401 0.85176 0.15285 0.0
C452 C 0.11523 0.84138 0.18031 0.0
C453 C 0.09677 0.89315 0.14873 0.0
C454 C 0.09163 0.82097 0.13827 0.0
C455 C 0.11574 0.80375 0.12075 0.0
C456 C 0.10254 0.77265 0.1062 0.0
C457 C 0.0643 0.75786 0.11021 0.0
C458 C 0.03969 0.77396 0.12876 0.0
C459 C 0.05319 0.80675 0.1424 0.0
H460 H 0.29811 0.94899 0.3842 0.0
H461 H 0.2035 0.02381 0.41073 0.0
H462 H 0.16289 0.96442 0.41966 0.0
H463 H 0.2353 0.8852 0.35207 0.0
H464 H 0.26429 0.84151 0.35735 0.0
H465 H 0.28791 0.88912 0.35699 0.0
H466 H 0.31624 0.87617 0.40039 0.0
H467 H 0.29238 0.82852 0.40099 0.0
H468 H 0.28307 0.8637 0.4251 0.0
H469 H 0.1312 0.89805 0.42255 0.0
H470 H 0.10662 0.83079 0.41415 0.0
H471 H 0.22075 0.79905 0.3837 0.0
C472 C 0.26921 0.95266 0.39251 0.0
C473 C 0.254 0.99061 0.39738 0.0
C474 C 0.21558 0.99476 0.40722 0.0
C475 C 0.19257 0.96126 0.41247 0.0
C476 C 0.20836 0.92409 0.40739 0.0
C477 C 0.24558 0.91965 0.39726 0.0
C478 C 0.25353 0.87707 0.39035 0.0
C479 C 0.26066 0.873 0.36256 0.0
C480 C 0.28838 0.86039 0.4051 0.0
C481 C 0.21477 0.85816 0.39796 0.0
C482 C 0.18946 0.88574 0.40817 0.0
C483 C 0.15089 0.87612 0.41489 0.0
C484 C 0.13724 0.83784 0.41011 0.0
C485 C 0.16199 0.80971 0.39858 0.0
C486 C 0.20165 0.81962 0.39321 0.0
H487 H 0.22493 0.20632 0.40882 0.0
H488 H 0.19437 0.08942 0.38222 0.0
H489 H 0.12849 0.09503 0.40035 0.0
H490 H 0.15843 0.20354 0.46622 0.0
H491 H 0.14485 0.25449 0.46206 0.0
H492 H 0.19347 0.23783 0.45319 0.0
H493 H 0.18241 0.26438 0.40915 0.0
H494 H 0.13451 0.28175 0.41816 0.0
H495 H 0.13913 0.24877 0.39236 0.0
H496 H 0.06296 0.11712 0.41239 0.0
H497 H 1.00252 0.15743 0.41272 0.0
H498 H 0.07221 0.25966 0.4337 0.0
C499 C 0.20462 0.18163 0.40751 0.0
C500 C 0.21483 0.14757 0.39409 0.0
C501 C 0.18725 0.11604 0.39227 0.0
C502 C 0.14978 0.11863 0.40285 0.0
C503 C 0.13993 0.15295 0.41534 0.0
C504 C 0.16647 0.18402 0.41772 0.0
C505 C 0.14607 0.22005 0.42815 0.0
C506 C 0.16164 0.22952 0.45394 0.0
C507 C 0.15078 0.25579 0.41092 0.0
C508 C 0.10358 0.2053 0.42915 0.0
C509 C 0.10094 0.16599 0.42263 0.0
C510 C 0.06452 0.14762 0.41822 0.0
C511 C 0.03015 0.1707 0.41858 0.0
C512 C 0.03276 0.2117 0.42303 0.0
C513 C 0.06941 0.22825 0.43041 0.0
H514 H 0.80801 0.02856 0.37775 0.0
H515 H 0.78112 0.016 0.45491 0.0
H516 H 0.79618 0.0875 0.46107 0.0
H517 H 0.88117 0.10248 0.37875 0.0
H518 H 0.86113 0.12608 0.35196 0.0
H519 H 0.85409 0.07416 0.35631 0.0
H520 H 0.77818 0.08525 0.35183 0.0
H521 H 0.78556 0.13763 0.34881 0.0
H522 H 0.75338 0.11864 0.37242 0.0
H523 H 0.8224 0.16139 0.4572 0.0
H524 H 0.85076 0.22568 0.44361 0.0
H525 H 0.83625 0.1898 0.36819 0.0
C526 C 0.80555 0.04045 0.39605 0.0
C527 C 0.79438 0.01651 0.41594 0.0
C528 C 0.79079 0.03373 0.43952 0.0
C529 C 0.79874 0.07433 0.44307 0.0
C530 C 0.80789 0.09742 0.42257 0.0
C531 C 0.81017 0.08081 0.39948 0.0
C532 C 0.81677 0.11123 0.37985 0.0
C533 C 0.85559 0.10302 0.36594 0.0
C534 C 0.78135 0.11329 0.3622 0.0
C535 C 0.81957 0.14786 0.39543 0.0
C536 C 0.81536 0.13971 0.42013 0.0
C537 C 0.82415 0.16834 0.43788 0.0
C538 C 0.83959 0.20507 0.43007 0.0
C539 C 0.84478 0.21285 0.4048 0.0
C540 C 0.83175 0.18487 0.38754 0.0
H541 H 0.98264 0.79203 0.4187 0.0
H542 H 0.96823 0.72616 0.35113 0.0
H543 H 0.89575 0.73006 0.35528 0.0
H544 H 0.89158 0.75706 0.45091 0.0
H545 H 0.88069 0.80543 0.46288 0.0
H546 H 0.93133 0.79098 0.45765 0.0
H547 H 0.94243 0.85196 0.42971 0.0
H548 H 0.89239 0.86698 0.43557 0.0
H549 H 0.90913 0.86036 0.40447 0.0
H550 H 0.82607 0.7445 0.36469 0.0
H551 H 0.76587 0.78318 0.37189 0.0
H552 H 0.82421 0.84485 0.43154 0.0
C553 C 0.964 0.77805 0.40506 0.0
C554 C 0.9807 0.75842 0.3848 0.0
C555 C 0.95581 0.74118 0.36686 0.0
C556 C 0.91464 0.74273 0.36926 0.0
C557 C 0.89884 0.762 0.38956 0.0
C558 C 0.92268 0.78034 0.4068 0.0
C559 C 0.89831 0.80505 0.42431 0.0
C560 C 0.90063 0.78863 0.45049 0.0
C561 C 0.91132 0.84865 0.42344 0.0
C562 C 0.85735 0.79905 0.41354 0.0
C563 C 0.85817 0.77265 0.39422 0.0
C564 C 0.82482 0.76482 0.37999 0.0
C565 C 0.7905 0.78673 0.38441 0.0
C566 C 0.79043 0.81701 0.40231 0.0
C567 C 0.82337 0.82139 0.41804 0.0
H568 H 0.83219 0.83189 0.92471 0.0
H569 H 0.79403 0.78659 0.85416 0.0
H570 H 0.76707 0.85161 0.84368 0.0
H571 H 0.74309 0.90158 0.93244 0.0
H572 H 0.77395 0.93727 0.94788 0.0
H573 H 0.78384 0.88533 0.95116 0.0
H574 H 0.85572 0.89839 0.93673 0.0
H575 H 0.84555 0.94989 0.93195 0.0
H576 H 0.86423 0.92023 0.90707 0.0
H577 H 0.76083 0.92343 0.83686 0.0
H578 H 0.7497 0.99506 0.83963 0.0
H579 H 0.78324 0.99353 0.91629 0.0
C580 C 0.81589 0.83511 0.90775 0.0
C581 C 0.81527 0.80446 0.89022 0.0
C582 C 0.79448 0.80963 0.86795 0.0
C583 C 0.77962 0.84665 0.86165 0.0
C584 C 0.78426 0.87736 0.87835 0.0
C585 C 0.79967 0.8716 0.90151 0.0
C586 C 0.80161 0.90999 0.91576 0.0
C587 C 0.77396 0.90846 0.93813 0.0
C588 C 0.84432 0.92018 0.92331 0.0
C589 C 0.78657 0.93835 0.89655 0.0
C590 C 0.77774 0.91889 0.87494 0.0
C591 C 0.76644 0.9389 0.85388 0.0
C592 C 0.76102 0.97964 0.85549 0.0
C593 C 0.76603 0.9995 0.87811 0.0
C594 C 0.77995 0.97891 0.89874 0.0
H595 H 1.00594 0.85022 0.89637 0.0
H596 H 0.02363 0.74806 0.94285 0.0
H597 H 0.0952 0.76289 0.94447 0.0
H598 H 0.08084 0.83007 0.85933 0.0
H599 H 0.09615 0.88007 0.85311 0.0
H600 H 0.04578 0.8699 0.86154 0.0
H601 H 0.05016 0.91857 0.89813 0.0
H602 H 0.10024 0.93033 0.88931 0.0
H603 H 0.08979 0.9138 0.92002 0.0
H604 H 0.16674 0.78172 0.93409 0.0
H605 H 0.2293 0.80574 0.91534 0.0
H606 H 0.16234 0.89062 0.87286 0.0
C607 C 0.02439 0.83195 0.90791 0.0
C608 C 1.00903 0.79784 0.91935 0.0
C609 C 0.03457 0.77449 0.93397 0.0
C610 C 0.07541 0.78255 0.93486 0.0
C611 C 0.09008 0.81417 0.92122 0.0
C612 C 0.06508 0.83892 0.90838 0.0
C613 C 0.08789 0.86704 0.89218 0.0
C614 C 0.07701 0.8614 0.86496 0.0
C615 C 0.08166 0.90998 0.90041 0.0
C616 C 0.12958 0.85354 0.89725 0.0
C617 C 0.13062 0.82355 0.91433 0.0
C618 C 0.1662 0.80557 0.92094 0.0
C619 C 0.20154 0.81912 0.91005 0.0
C620 C 0.20075 0.8497 0.89239 0.0
C621 C 0.16414 0.86686 0.88606 0.0
H622 H 0.19893 0.03692 0.91838 0.0
H623 H 0.23094 0.02899 0.84157 0.0
H624 H 0.22023 0.10031 0.83689 0.0
H625 H 0.11729 0.1112 0.90606 0.0
H626 H 0.12533 0.13522 0.93513 0.0
H627 H 0.13436 0.0831 0.93198 0.0
H628 H 0.20549 0.09453 0.94833 0.0
H629 H 0.19731 0.14695 0.95031 0.0
H630 H 0.23801 0.12815 0.93244 0.0
H631 H 0.22033 0.17243 0.84276 0.0
H632 H 0.19919 0.24025 0.85198 0.0
H633 H 0.15387 0.20191 0.92239 0.0
C634 C 0.20167 0.05 0.90036 0.0
C635 C 0.2157 0.02774 0.8803 0.0
C636 C 0.21982 0.04564 0.85705 0.0
C637 C 0.21455 0.0862 0.85432 0.0
C638 C 0.20352 0.10791 0.87482 0.0
C639 C 0.19444 0.09033 0.89695 0.0
C640 C 0.17978 0.12068 0.9153 0.0
C641 C 0.13662 0.11205 0.92254 0.0
C642 C 0.20677 0.12266 0.93793 0.0
C643 C 0.1832 0.15801 0.9001 0.0
C644 C 0.19865 0.14983 0.87721 0.0
C645 C 0.20694 0.17921 0.86025 0.0
C646 C 0.19566 0.2177 0.86587 0.0
C647 C 0.17526 0.22601 0.88788 0.0
C648 C 0.17019 0.19624 0.90567 0.0
H649 H 0.98592 0.21834 0.87189 0.0
H650 H 0.96963 0.28949 0.93715 0.0
H651 H 0.90078 0.2653 0.94074 0.0
H652 H 0.89544 0.23882 0.84655 0.0
H653 H 0.8862 0.19073 0.83355 0.0
H654 H 0.93624 0.20728 0.83829 0.0
H655 H 0.95161 0.14597 0.86467 0.0
H656 H 0.90197 0.12825 0.85948 0.0
H657 H 0.92013 0.1341 0.89032 0.0
H658 H 0.83106 0.23953 0.93429 0.0
H659 H 0.76783 0.2106 0.91979 0.0
H660 H 0.82978 0.15821 0.85809 0.0
C661 C 0.96842 0.22738 0.88754 0.0
C662 C 0.98334 0.25512 0.90455 0.0
C663 C 0.95891 0.26772 0.92417 0.0
C664 C 0.91971 0.2543 0.92628 0.0
C665 C 0.90524 0.22836 0.90857 0.0
C666 C 0.92901 0.21463 0.88974 0.0
C667 C 0.9054 0.18963 0.87192 0.0
C668 C 0.90584 0.20772 0.84606 0.0
C669 C 0.92068 0.14695 0.87159 0.0
C670 C 0.86461 0.19208 0.88338 0.0
C671 C 0.86506 0.21431 0.90459 0.0
C672 C 0.83046 0.22168 0.91784 0.0
C673 C 0.79461 0.20535 0.90938 0.0
C674 C 0.7936 0.18207 0.8878 0.0
C675 C 0.82927 0.17568 0.87471 0.0
H676 H 0.826 0.03629 0.61095 0.0
H677 H 0.70015 0.05932 0.60631 0.0
H678 H 0.71356 0.1296 0.59899 0.0
H679 H 0.8525 0.11306 0.64324 0.0
H680 H 0.89823 0.12505 0.62788 0.0
H681 H 0.87929 0.07568 0.62656 0.0
H682 H 0.88033 0.07801 0.57908 0.0
H683 H 0.89951 0.12772 0.58027 0.0
H684 H 0.85498 0.11716 0.56328 0.0
H685 H 0.73933 0.19762 0.60536 0.0
H686 H 0.7767 0.25632 0.61957 0.0
H687 H 0.88589 0.19002 0.61277 0.0
C688 C 0.80154 0.05598 0.60726 0.0
C689 C 0.76228 0.04257 0.6091 0.0
C690 C 0.73063 0.069 0.60464 0.0
C691 C 0.73789 0.10903 0.60042 0.0
C692 C 0.77697 0.1219 0.59978 0.0
C693 C 0.80837 0.0959 0.60215 0.0
C694 C 0.84732 0.11771 0.6032 0.0
C695 C 0.87063 0.10727 0.62661 0.0
C696 C 0.87198 0.10967 0.58007 0.0
C697 C 0.83257 0.15981 0.60366 0.0
C698 C 0.79196 0.16187 0.60135 0.0
C699 C 0.77132 0.1968 0.60612 0.0
C700 C 0.79268 0.23001 0.61425 0.0
C701 C 0.83412 0.22779 0.61736 0.0
C702 C 0.85419 0.19291 0.61049 0.0
H703 H 1.00114 0.8382 0.62841 0.0
H704 H 0.97539 0.72363 0.59655 0.0
H705 H 0.90524 0.7423 0.59206 0.0
H706 H 0.91908 0.84432 0.66404 0.0
H707 H 0.91087 0.89645 0.66012 0.0
H708 H 0.95992 0.87675 0.65699 0.0
H709 H 0.96584 0.90632 0.61333 0.0
H710 H 0.917 0.92693 0.6165 0.0
H711 H 0.9283 0.89535 0.59084 0.0
H712 H 0.83477 0.76985 0.59857 0.0
H713 H 0.77422 0.8078 0.60974 0.0
H714 H 0.84901 0.90372 0.63529 0.0
C715 C 0.98111 0.81756 0.61964 0.0
C716 C 0.99389 0.77953 0.61288 0.0
C717 C 0.96649 0.75316 0.60173 0.0
C718 C 0.9264 0.76338 0.59923 0.0
C719 C 0.91431 0.80037 0.60746 0.0
C720 C 0.94123 0.82741 0.61679 0.0
C721 C 0.92084 0.86422 0.62577 0.0
C722 C 0.92811 0.87078 0.65335 0.0
C723 C 0.93376 0.90034 0.6107 0.0
C724 C 0.87824 0.8533 0.62072 0.0
C725 C 0.87461 0.81641 0.61025 0.0
C726 C 0.83737 0.79926 0.60617 0.0
C727 C 0.80315 0.82078 0.61268 0.0
C728 C 0.8067 0.85903 0.62288 0.0
C729 C 0.84491 0.87505 0.62684 0.0
H730 H 0.19284 0.81913 0.66604 0.0
H731 H 0.17727 0.80439 0.58794 0.0
H732 H 0.20207 0.87263 0.58116 0.0
H733 H 0.15153 0.91464 0.66631 0.0
H734 H 0.1817 0.92948 0.69195 0.0
H735 H 0.16876 0.87823 0.68756 0.0
H736 H 0.24706 0.86204 0.68753 0.0
H737 H 0.25557 0.91411 0.69234 0.0
H738 H 0.27806 0.88917 0.6667 0.0
H739 H 0.22499 0.94503 0.58411 0.0
H740 H 0.24592 0.01264 0.59629 0.0
H741 H 0.23532 0.9805 0.67272 0.0
C742 C 0.19676 0.8296 0.64744 0.0
C743 C 0.18507 0.80622 0.62741 0.0
C744 C 0.1879 0.82154 0.60338 0.0
C745 C 0.20131 0.86038 0.59945 0.0
C746 C 0.21042 0.88357 0.61987 0.0
C747 C 0.20828 0.86856 0.64336 0.0
C748 C 0.21451 0.90023 0.66242 0.0
C749 C 0.17698 0.90597 0.67802 0.0
C750 C 0.25095 0.89089 0.67821 0.0
C751 C 0.22157 0.93545 0.64618 0.0
C752 C 0.21921 0.92546 0.62164 0.0
C753 C 0.22636 0.95318 0.60327 0.0
C754 C 0.23762 0.99154 0.6103 0.0
C755 C 0.24047 1.00182 0.63537 0.0
C756 C 0.23157 0.97368 0.65345 0.0
H757 H 0.16917 0.14776 0.66844 0.0
H758 H 0.2372 0.22232 0.61919 0.0
H759 H 0.1746 0.25203 0.60423 0.0
H760 H 0.08617 0.12969 0.62812 0.0
H761 H 0.05101 0.13099 0.65297 0.0
H762 H 0.10089 0.11454 0.65841 0.0
H763 H 0.1094 0.16722 0.69263 0.0
H764 H 0.05946 0.18332 0.68757 0.0
H765 H 0.09968 0.21827 0.68575 0.0
H766 H 0.10359 0.27574 0.59681 0.0
H767 H 0.03331 0.29506 0.60026 0.0
H768 H 0.01438 0.2021 0.65366 0.0
C769 C 0.1713 0.17012 0.65434 0.0
C770 C 0.20823 0.18265 0.64496 0.0
C771 C 0.20925 0.21232 0.62671 0.0
C772 C 0.17386 0.22907 0.61798 0.0
C773 C 0.13794 0.21549 0.62757 0.0
C774 C 0.13668 0.18674 0.64543 0.0
C775 C 0.09503 0.17851 0.65403 0.0
C776 C 0.08256 0.1359 0.64801 0.0
C777 C 0.09065 0.18739 0.68161 0.0
C778 C 0.0727 0.20778 0.6386 0.0
C779 C 0.0977 0.22863 0.62322 0.0
C780 C 0.08377 0.25928 0.6086 0.0
C781 C 0.04374 0.26993 0.61062 0.0
C782 C 0.01829 0.25013 0.62731 0.0
C783 C 0.03282 0.21761 0.64058 0.0
H784 H 0.15907 0.21109 0.22133 0.0
H785 H 0.20228 0.33118 0.22879 0.0
H786 H 0.25039 0.30843 0.26005 0.0
H787 H 0.16719 0.184 0.28538 0.0
H788 H 0.18236 0.13412 0.27886 0.0
H789 H 0.15148 0.16018 0.25745 0.0
H790 H 0.20261 0.14719 0.22313 0.0
H791 H 0.23392 0.12145 0.24447 0.0
H792 H 0.25325 0.16265 0.22732 0.0
H793 H 0.29483 0.27133 0.29118 0.0
H794 H 0.32775 0.22585 0.31993 0.0
H795 H 0.25649 0.12905 0.29214 0.0
C796 C 0.17838 0.23292 0.22958 0.0
C797 C 0.17625 0.2734 0.22233 0.0
C798 C 0.20266 0.30029 0.23382 0.0
C799 C 0.23038 0.28745 0.25162 0.0
C800 C 0.23186 0.24736 0.25799 0.0
C801 C 0.20627 0.22056 0.24734 0.0
C802 C 0.21356 0.17912 0.25743 0.0
C803 C 0.17644 0.16344 0.27056 0.0
C804 C 0.22661 0.15094 0.23686 0.0
C805 C 0.24722 0.18654 0.27555 0.0
C806 C 0.25739 0.22615 0.27552 0.0
C807 C 0.28698 0.24035 0.29113 0.0
C808 C 0.30581 0.21401 0.30744 0.0
C809 C 0.29563 0.17328 0.30838 0.0
C810 C 0.26604 0.15956 0.29174 0.0
H811 H 0.87104 0.2936 0.29149 0.0
H812 H 0.88021 0.18891 0.33631 0.0
H813 H 0.83925 0.15178 0.30682 0.0
H814 H 0.77302 0.27807 0.26555 0.0
H815 H 0.7862 0.29224 0.23478 0.0
H816 H 0.81287 0.31264 0.26048 0.0
H817 H 0.87926 0.28761 0.24235 0.0
H818 H 0.8524 0.26845 0.21641 0.0
H819 H 0.88372 0.2363 0.23398 0.0
H820 H 0.7949 0.12541 0.27278 0.0
H821 H 0.76207 0.10861 0.23355 0.0
H822 H 0.78916 0.22538 0.20601 0.0
C823 C 0.86402 0.26303 0.29517 0.0
C824 C 0.87738 0.24484 0.31724 0.0
C825 C 0.86882 0.20417 0.32045 0.0
C826 C 0.84574 0.18263 0.30356 0.0
C827 C 0.83239 0.20126 0.28238 0.0
C828 C 0.84232 0.24018 0.2776 0.0
C829 C 0.82771 0.2513 0.25193 0.0
C830 C 0.79819 0.28561 0.25327 0.0
C831 C 0.86288 0.26154 0.23519 0.0
C832 C 0.80723 0.21309 0.24348 0.0
C833 C 0.80979 0.18487 0.26163 0.0
C834 C 0.7928 0.14742 0.25849 0.0
C835 C 0.7736 0.13818 0.23619 0.0
C836 C 0.77157 0.16581 0.2168 0.0
C837 C 0.78899 0.20384 0.22063 0.0
H838 H 0.89602 0.76399 0.2409 0.0
H839 H 0.79436 0.71947 0.20089 0.0
H840 H 0.74986 0.74949 0.23153 0.0
H841 H 0.85301 0.74952 0.30275 0.0
H842 H 0.87526 0.79377 0.31494 0.0
H843 H 0.89928 0.76727 0.29047 0.0
H844 H 0.90021 0.83073 0.26421 0.0
H845 H 0.87602 0.85743 0.28851 0.0
H846 H 0.8545 0.85633 0.2583 0.0
H847 H 0.71475 0.78928 0.26637 0.0
H848 H 0.69469 0.82964 0.30235 0.0
H849 H 0.81852 0.84712 0.32036 0.0
C850 C 0.86444 0.75983 0.23874 0.0
C851 C 0.84926 0.73865 0.21811 0.0
C852 C 0.80739 0.7349 0.2163 0.0
C853 C 0.78159 0.75219 0.23371 0.0
C854 C 0.79743 0.77339 0.25343 0.0
C855 C 0.83804 0.77676 0.2562 0.0
C856 C 0.84749 0.80134 0.27898 0.0
C857 C 0.8701 0.7765 0.2979 0.0
C858 C 0.87095 0.83867 0.27208 0.0
C859 C 0.8061 0.81182 0.28831 0.0
C860 C 0.77749 0.79546 0.27335 0.0
C861 C 0.73716 0.8019 0.2782 0.0
C862 C 0.72587 0.82512 0.29877 0.0
C863 C 0.75457 0.842 0.31463 0.0
C864 C 0.79532 0.83492 0.30894 0.0
H865 H 0.25871 0.88111 0.23613 0.0
H866 H 0.33858 0.78974 0.21097 0.0
H867 H 0.31126 0.74428 0.24238 0.0
H868 H 0.26119 0.85712 0.30102 0.0
H869 H 0.20933 0.86679 0.30582 0.0
H870 H 0.236 0.89314 0.28245 0.0
H871 H 0.18679 0.87056 0.24936 0.0
H872 H 0.15857 0.84482 0.27234 0.0
H873 H 0.17616 0.81873 0.24569 0.0
H874 H 0.2707 0.70678 0.277 0.0
H875 H 0.22392 0.68416 0.30944 0.0
H876 H 0.17089 0.8005 0.31016 0.0
C877 C 0.27124 0.85183 0.23742 0.0
C878 C 0.30151 0.83959 0.22094 0.0
C879 C 0.31591 0.80042 0.22332 0.0
C880 C 0.30035 0.7742 0.24117 0.0
C881 C 0.27003 0.78712 0.25675 0.0
C882 C 0.25589 0.82528 0.25499 0.0
C883 C 0.22209 0.8319 0.27293 0.0
C884 C 0.23285 0.86413 0.29167 0.0
C885 C 0.18364 0.8421 0.25926 0.0
C886 C 0.21913 0.79166 0.2851 0.0
C887 C 0.24697 0.76598 0.27574 0.0
C888 C 0.24898 0.72698 0.28436 0.0
C889 C 0.22216 0.71422 0.30286 0.0
C890 C 0.19324 0.74015 0.31263 0.0
C891 C 0.19226 0.77942 0.30333 0.0
H892 H 0.79199 0.90073 0.72631 0.0
H893 H 0.70958 0.81059 0.70223 0.0
H894 H 0.73524 0.76538 0.73419 0.0
H895 H 0.87356 0.83955 0.74111 0.0
H896 H 0.8874 0.86641 0.76837 0.0
H897 H 0.86213 0.89129 0.74386 0.0
H898 H 0.80753 0.91358 0.77421 0.0
H899 H 0.83283 0.88874 0.79879 0.0
H900 H 0.78184 0.87711 0.79226 0.0
H901 H 0.77499 0.72736 0.76837 0.0
H902 H 0.81672 0.70527 0.80322 0.0
H903 H 0.87006 0.82163 0.80658 0.0
C904 C 0.77901 0.87159 0.72787 0.0
C905 C 0.74855 0.8595 0.71141 0.0
C906 C 0.73253 0.82103 0.71448 0.0
C907 C 0.74726 0.7949 0.7326 0.0
C908 C 0.77774 0.80751 0.74821 0.0
C909 C 0.79269 0.84546 0.74634 0.0
C910 C 0.82422 0.85253 0.76589 0.0
C911 C 0.8642 0.86306 0.75409 0.0
C912 C 0.81081 0.88491 0.78385 0.0
C913 C 0.82586 0.8124 0.77853 0.0
C914 C 0.79894 0.78663 0.7681 0.0
C915 C 0.79586 0.74766 0.77665 0.0
C916 C 0.82004 0.73511 0.79646 0.0
C917 C 0.84714 0.76129 0.80798 0.0
C918 C 0.84987 0.80046 0.79847 0.0
H919 H 0.15841 0.81193 0.71632 0.0
H920 H 0.1999 0.69125 0.72075 0.0
H921 H 0.24311 0.71012 0.75571 0.0
H922 H 0.25068 0.86093 0.73122 0.0
H923 H 0.22731 0.89903 0.74906 0.0
H924 H 0.20049 0.87571 0.72463 0.0
H925 H 0.14434 0.85723 0.75481 0.0
H926 H 0.17152 0.8804 0.77934 0.0
H927 H 0.15624 0.82958 0.782 0.0
H928 H 0.28406 0.74488 0.79169 0.0
H929 H 0.31374 0.7893 0.82311 0.0
H930 H 0.24536 0.88648 0.79406 0.0
C931 C 0.17642 0.78919 0.72457 0.0
C932 C 0.1752 0.74971 0.71535 0.0
C933 C 0.19968 0.7215 0.72715 0.0
C934 C 0.2246 0.73212 0.74713 0.0
C935 C 0.22517 0.7713 0.75556 0.0
C936 C 0.20138 0.79929 0.74456 0.0
C937 C 0.20646 0.83922 0.7572 0.0
C938 C 0.22219 0.87056 0.73942 0.0
C939 C 0.16732 0.85238 0.76904 0.0
C940 C 0.23743 0.82992 0.77654 0.0
C941 C 0.24792 0.79059 0.7756 0.0
C942 C 0.27589 0.77571 0.79222 0.0
C943 C 0.29298 0.80136 0.81003 0.0
C944 C 0.28292 0.84202 0.81115 0.0
C945 C 0.25475 0.85596 0.79379 0.0
H946 H 0.13348 0.24148 0.80499 0.0
H947 H 0.21137 0.3414 0.81727 0.0
H948 H 0.25877 0.31407 0.78718 0.0
H949 H 0.21139 0.16812 0.79945 0.0
H950 H 0.18552 0.14012 0.77643 0.0
H951 H 0.15805 0.1691 0.79829 0.0
H952 H 0.12384 0.20446 0.76155 0.0
H953 H 0.15288 0.17603 0.74021 0.0
H954 H 0.15405 0.22914 0.73901 0.0
H955 H 0.29927 0.27478 0.75495 0.0
H956 H 0.3278 0.22812 0.72476 0.0
H957 H 0.22663 0.15082 0.7346 0.0
C958 C 0.16004 0.25819 0.80093 0.0
C959 C 0.16774 0.29457 0.81344 0.0
C960 C 0.20391 0.31415 0.80794 0.0
C961 C 0.23133 0.29858 0.79083 0.0
C962 C 0.22314 0.26262 0.77918 0.0
C963 C 0.18828 0.24259 0.78405 0.0
C964 C 0.18735 0.20374 0.76959 0.0
C965 C 0.18541 0.16818 0.787 0.0
C966 C 0.15245 0.20333 0.75152 0.0
C967 C 0.22701 0.20494 0.75596 0.0
C968 C 0.24708 0.23936 0.76161 0.0
C969 C 0.28374 0.24765 0.75069 0.0
C970 C 0.29999 0.2207 0.73352 0.0
C971 C 0.28043 0.18487 0.72739 0.0
C972 C 0.24332 0.17715 0.73914 0.0
H973 H 0.83031 0.22116 0.71119 0.0
H974 H 0.80112 0.34438 0.72224 0.0
H975 H 0.75802 0.32528 0.75733 0.0
H976 H 0.73428 0.18066 0.7249 0.0
H977 H 0.75384 0.1377 0.74001 0.0
H978 H 0.782 0.16153 0.71619 0.0
H979 H 0.84136 0.16961 0.74577 0.0
H980 H 0.81349 0.1456 0.76964 0.0
H981 H 0.8342 0.19398 0.77481 0.0
H982 H 0.71763 0.29005 0.79325 0.0
H983 H 0.68738 0.24518 0.82401 0.0
H984 H 0.74235 0.14545 0.78784 0.0
C985 C 0.81491 0.24447 0.72082 0.0
C986 C 0.81951 0.28466 0.71347 0.0
C987 C 0.79842 0.31353 0.72708 0.0
C988 C 0.77373 0.30278 0.74717 0.0
C989 C 0.76988 0.26283 0.75372 0.0
C990 C 0.79011 0.23424 0.74075 0.0
C991 C 0.78169 0.19334 0.7512 0.0
C992 C 0.76177 0.16675 0.73193 0.0
C993 C 0.81996 0.17453 0.76093 0.0
C994 C 0.7533 0.2029 0.77207 0.0
C995 C 0.74683 0.24313 0.77344 0.0
C996 C 0.72253 0.25857 0.79197 0.0
C997 C 0.70512 0.23267 0.80943 0.0
C998 C 0.71144 0.19122 0.8085 0.0
C999 C 0.73581 0.17664 0.78916 0.0
H1000 H 0.06189 0.35415 0.07622 0.0
H1001 H 0.18752 0.36486 0.09121 0.0
H1002 H 0.20123 0.36595 0.04666 0.0
H1003 H 0.07189 0.28745 0.02732 0.0
H1004 H 0.03151 0.30715 1.00964 0.0
H1005 H 0.03129 0.31176 0.0425 0.0
H1006 H 0.02408 0.38763 0.03878 0.0
H1007 H 0.02384 0.38322 1.00588 0.0
H1008 H 0.05931 0.4151 0.02071 0.0
H1009 H 0.20109 0.36286 0.99968 0.0
H1010 H 0.18693 0.35504 0.95533 0.0
H1011 H 0.06186 0.34274 0.97201 0.0
C1012 C 0.09222 0.35781 0.07018 0.0
C1013 C 0.12357 0.36011 0.08729 0.0
C1014 C 0.16295 0.36351 0.0785 0.0
C1015 C 0.17104 0.36408 0.05319 0.0
C1016 C 0.13949 0.36082 0.03682 0.0
C1017 C 0.10085 0.35776 0.04502 0.0
C1018 C 0.07243 0.35196 0.02385 0.0
C1019 C 0.0505 0.31222 0.02596 0.0
C1020 C 0.0432 0.38654 0.02221 0.0
C1021 C 0.10103 0.352 1.00244 0.0
C1022 C 0.13957 0.35751 1.01017 0.0
C1023 C 0.17096 0.35859 0.99348 0.0
C1024 C 0.16268 0.35408 0.96831 0.0
C1025 C 0.12336 0.34808 0.96005 0.0
C1026 C 0.09235 0.347 0.97755 0.0
H1027 H 0.69459 0.05316 0.06932 0.0
H1028 H 0.65402 0.17103 0.08739 0.0
H1029 H 0.64731 0.18603 0.04338 0.0
H1030 H 0.75327 0.08113 0.01857 0.0
H1031 H 0.74202 0.03839 1.00012 0.0
H1032 H 0.7402 0.0351 0.03303 0.0
H1033 H 0.66778 1.0102 0.03091 0.0
H1034 H 0.66953 0.01292 0.99795 0.0
H1035 H 0.63143 0.03875 1.01458 0.0
H1036 H 0.649 0.19012 0.9973 0.0
H1037 H 0.6558 0.18193 0.95261 0.0
H1038 H 0.69624 0.06173 0.96349 0.0
C1039 C 0.6832 0.08174 0.06404 0.0
C1040 C 0.67428 0.11072 0.08204 0.0
C1041 C 0.66069 0.14816 0.07415 0.0
C1042 C 0.6569 0.15703 0.0491 0.0
C1043 C 0.66695 0.12829 0.03189 0.0
C1044 C 0.67954 0.09126 0.03898 0.0
C1045 C 0.6901 0.0664 0.01664 0.0
C1046 C 0.734 0.05456 0.01713 0.0
C1047 C 0.66309 0.0299 1.01492 0.0
C1048 C 0.68175 0.09532 0.99596 0.0
C1049 C 0.66836 0.13081 1.00523 0.0
C1050 C 0.6592 0.16233 0.98986 0.0
C1051 C 0.66328 0.1574 0.96439 0.0
C1052 C 0.67649 0.12119 0.95424 0.0
C1053 C 0.68606 0.08985 0.97046 0.0
H1054 H 0.95777 0.68148 0.95489 0.0
H1055 H 0.83203 0.66635 0.94163 0.0
H1056 H 0.81996 0.66579 0.98636 0.0
H1057 H 0.96416 0.62144 1.01066 0.0
H1058 H 0.99913 0.65452 0.02492 0.0
H1059 H 0.99793 0.64979 0.99204 0.0
H1060 H 0.98831 0.72531 0.98817 0.0
H1061 H 0.98899 0.73026 0.02102 0.0
H1062 H 0.94747 0.74855 1.00376 0.0
H1063 H 0.82148 0.67014 0.033 0.0
H1064 H 0.83645 0.67829 0.07708 0.0
H1065 H 0.9609 0.69346 0.05953 0.0
C1066 C 0.92778 0.67697 0.96134 0.0
C1067 C 0.8959 0.67328 0.94462 0.0
C1068 C 0.857 0.66875 0.95398 0.0
C1069 C 0.84985 0.66852 0.9794 0.0
C1070 C 0.88184 0.67321 0.99533 0.0
C1071 C 0.92006 0.67724 0.98663 0.0
C1072 C 0.94902 0.68411 1.00747 0.0
C1073 C 0.97935 0.65045 1.00885 0.0
C1074 C 0.96965 0.72445 1.00495 0.0
C1075 C 0.92116 0.68344 0.02929 0.0
C1076 C 0.88256 0.67689 0.02195 0.0
C1077 C 0.85165 0.67516 0.0389 0.0
C1078 C 0.86044 0.67988 0.06395 0.0
C1079 C 0.89983 0.68656 0.07194 0.0
C1080 C 0.93042 0.68855 0.05418 0.0
H1081 H 0.3814 0.87803 0.06645 0.0
H1082 H 0.2761 0.94116 0.08906 0.0
H1083 H 0.25088 0.93902 0.04668 0.0
H1084 H 0.39404 0.93003 1.01149 0.0
H1085 H 0.41165 0.88888 0.99362 0.0
H1086 H 0.41897 0.88957 0.02627 0.0
H1087 H 0.38335 0.82203 0.0299 0.0
H1088 H 0.37586 0.82118 0.9972 0.0
H1089 H 0.33416 0.81624 0.0176 0.0
H1090 H 0.23979 0.93644 1.0023 0.0
H1091 H 0.24478 0.93684 0.95731 0.0
H1092 H 0.35783 0.87686 0.96159 0.0
C1093 C 0.35265 0.89045 0.06242 0.0
C1094 C 0.33032 0.90941 0.08089 0.0
C1095 C 0.2934 0.92644 0.07504 0.0
C1096 C 0.27877 0.92515 0.0511 0.0
C1097 C 0.30161 0.90697 0.03312 0.0
C1098 C 0.33785 0.89006 0.03833 0.0
C1099 C 0.35809 0.87629 1.01495 0.0
C1100 C 0.39804 0.89747 1.01138 0.0
C1101 C 0.36316 0.83125 1.01492 0.0
C1102 C 0.32804 0.88911 0.99586 0.0
C1103 C 0.29544 0.90612 1.00693 0.0
C1104 C 0.26486 0.92273 0.99339 0.0
C1105 C 0.26801 0.9229 0.96785 0.0
C1106 C 0.3015 0.90665 0.95601 0.0
C1107 C 0.3315 0.88869 0.97018 0.0
H1108 H 0.06198 0.6778 0.46222 0.0
H1109 H 0.18823 0.6703 0.44799 0.0
H1110 H 0.2004 0.66277 0.49238 0.0
H1111 H 0.0692 0.73488 0.5168 0.0
H1112 H 0.02849 0.71056 0.53195 0.0
H1113 H 0.02966 0.71338 0.49902 0.0
H1114 H 0.02333 0.63729 0.49635 0.0
H1115 H 0.02238 0.63422 0.52931 0.0
H1116 H 0.05866 0.60676 0.51214 0.0
H1117 H 0.19909 0.65915 0.53854 0.0
H1118 H 0.18487 0.66187 0.58284 0.0
H1119 H 0.05928 0.67087 0.56731 0.0
C1120 C 0.09224 0.6743 0.46833 0.0
C1121 C 0.12417 0.67454 0.4514 0.0
C1122 C 0.16324 0.67016 0.46042 0.0
C1123 C 0.17044 0.66575 0.48565 0.0
C1124 C 0.13829 0.66564 0.50174 0.0
C1125 C 0.09996 0.66987 0.49344 0.0
C1126 C 0.07075 0.67025 0.51463 0.0
C1127 C 0.04821 0.70961 0.51566 0.0
C1128 C 0.04209 0.63503 0.513 0.0
C1129 C 0.09867 0.66604 0.53624 0.0
C1130 C 0.13749 0.66323 0.52835 0.0
C1131 C 0.16879 0.66097 0.54488 0.0
C1132 C 0.16037 0.66249 0.57006 0.0
C1133 C 0.12091 0.66613 0.57866 0.0
C1134 C 0.08965 0.66718 0.5614 0.0
H1135 H 0.30678 0.07617 0.46667 0.0
H1136 H 0.35595 0.1916 0.4501 0.0
H1137 H 0.3547 0.20845 0.49421 0.0
H1138 H 0.24195 0.10801 0.51658 0.0
H1139 H 0.25055 0.06379 0.53407 0.0
H1140 H 0.25277 0.06226 0.5011 0.0
H1141 H 0.32364 0.03335 0.50332 0.0
H1142 H 0.32163 0.03483 0.53625 0.0
H1143 H 0.36131 0.05949 0.52027 0.0
H1144 H 0.3522 0.21059 0.54096 0.0
H1145 H 0.34844 0.19763 0.58557 0.0
H1146 H 0.30019 0.08121 0.57045 0.0
C1147 C 0.31696 0.10518 0.47221 0.0
C1148 C 0.33161 0.13249 0.45488 0.0
C1149 C 0.34462 0.17012 0.46302 0.0
C1150 C 0.34396 0.18 0.48804 0.0
C1151 C 0.3299 0.15208 0.50468 0.0
C1152 C 0.31642 0.11552 0.49702 0.0
C1153 C 0.30422 0.09008 0.51848 0.0
C1154 C 0.25973 0.08049 0.51749 0.0
C1155 C 0.3292 0.05222 0.51964 0.0
C1156 C 0.31375 0.11765 0.53949 0.0
C1157 C 0.32826 0.1534 0.53127 0.0
C1158 C 0.34053 0.1828 0.54757 0.0
C1159 C 0.33831 0.17519 0.57288 0.0
C1160 C 0.32413 0.1384 0.5816 0.0
C1161 C 0.31116 0.1097 0.56452 0.0
H1162 H 0.97924 0.32954 0.47019 0.0
H1163 H 0.86103 0.36127 0.44625 0.0
H1164 H 0.84305 0.37708 0.48909 0.0
H1165 H 0.95113 0.28247 0.52502 0.0
H1166 H 0.99295 0.29985 0.54251 0.0
H1167 H 0.9972 0.29378 0.50985 0.0
H1168 H 0.0194 0.36671 0.50573 0.0
H1169 H 0.01507 0.37304 0.53842 0.0
H1170 H 0.98853 0.40528 0.51802 0.0
H1171 H 0.83626 0.38373 0.53505 0.0
H1172 H 0.84129 0.3813 0.58019 0.0
H1173 H 0.96466 0.34785 0.57424 0.0
C1174 C 0.94965 0.34026 0.47382 0.0
C1175 C 0.92157 0.34425 0.45467 0.0
C1176 C 0.88316 0.35815 0.46045 0.0
C1177 C 0.87269 0.36723 0.48478 0.0
C1178 C 0.90101 0.36266 0.50317 0.0
C1179 C 0.9388 0.3497 0.49795 0.0
C1180 C 0.96328 0.3458 0.52115 0.0
C1181 C 0.97693 0.30293 0.52484 0.0
C1182 C 0.99866 0.37442 0.5208 0.0
C1183 C 0.93313 0.3578 0.54037 0.0
C1184 C 0.89743 0.36752 0.52958 0.0
C1185 C 0.86426 0.37681 0.54363 0.0
C1186 C 0.8674 0.37539 0.56927 0.0
C1187 C 0.90354 0.36512 0.58075 0.0
C1188 C 0.937 0.35697 0.56602 0.0
H1189 H 0.66356 0.9728 0.56433 0.0
H1190 H 0.65115 0.84775 0.57937 0.0
H1191 H 0.64469 0.83452 0.53501 0.0
H1192 H 0.59647 0.9772 0.51081 0.0
H1193 H 0.62774 1.01136 0.49443 0.0
H1194 H 0.627 1.01175 0.52746 0.0
H1195 H 0.70298 1.00222 0.52819 0.0
H1196 H 0.70396 1.00179 0.49521 0.0
H1197 H 0.72446 0.96102 0.51208 0.0
H1198 H 0.64373 0.83407 0.4888 0.0
H1199 H 0.65165 0.84571 0.44452 0.0
H1200 H 0.66694 0.971 0.45842 0.0
C1201 C 0.65844 0.94275 0.55832 0.0
C1202 C 0.65713 0.91135 0.57554 0.0
C1203 C 0.65182 0.87234 0.56672 0.0
C1204 C 0.64808 0.86454 0.54148 0.0
C1205 C 0.65006 0.89599 0.52502 0.0
C1206 C 0.65528 0.93435 0.53305 0.0
C1207 C 0.65957 0.96232 0.51135 0.0
C1208 C 0.62567 0.99244 0.51099 0.0
C1209 C 0.70015 0.98305 0.51174 0.0
C1210 C 0.65635 0.93368 0.4899 0.0
C1211 C 0.65045 0.89563 0.49826 0.0
C1212 C 0.64805 0.86381 0.48209 0.0
C1213 C 0.65254 0.87079 0.45684 0.0
C1214 C 0.65959 0.90934 0.44765 0.0
C1215 C 0.66086 0.94125 0.46459 0.0
H1216 H 0.99726 0.3518 0.21807 0.0
H1217 H 0.98755 0.22792 0.20027 0.0
H1218 H 0.96685 0.21337 0.24219 0.0
H1219 H 0.04375 0.35054 0.26366 0.0
H1220 H 0.02048 0.3839 0.28499 0.0
H1221 H 1.01233 0.38979 0.2528 0.0
H1222 H 0.93698 0.38416 0.258 0.0
H1223 H 0.9431 0.37993 0.29063 0.0
H1224 H 0.9158 0.34293 0.27415 0.0
H1225 H 0.98886 0.20852 0.28304 0.0
H1226 H 0.01552 0.21496 0.32436 0.0
H1227 H 1.00365 0.34219 0.32036 0.0
C1228 C 0.98727 0.32237 0.22276 0.0
C1229 C 0.99367 0.29089 0.20649 0.0
C1230 C 0.98209 0.25225 0.21272 0.0
C1231 C 0.9706 0.24376 0.23656 0.0
C1232 C 0.9704 0.27449 0.25349 0.0
C1233 C 0.97566 0.31359 0.24673 0.0
C1234 C 0.9802 0.33977 0.26915 0.0
C1235 C 0.01636 0.36756 0.26751 0.0
C1236 C 0.9418 0.36305 0.27327 0.0
C1237 C 0.98563 0.30854 0.28862 0.0
C1238 C 0.97896 0.27121 0.27914 0.0
C1239 C 0.99107 0.23743 0.29137 0.0
C1240 C 1.00738 0.24155 0.3146 0.0
C1241 C 1.00986 0.27909 0.32597 0.0
C1242 C 1.00036 0.31315 0.31243 0.0
H1243 H 0.70711 1.0044 0.3143 0.0
H1244 H 0.83094 1.00985 0.33434 0.0
H1245 H 0.84921 0.01951 0.29101 0.0
H1246 H 0.71807 0.94701 0.26463 0.0
H1247 H 0.6819 0.97002 0.24507 0.0
H1248 H 0.67664 0.97287 0.27783 0.0
H1249 H 0.67458 0.04873 0.27628 0.0
H1250 H 0.67872 0.04716 0.2434 0.0
H1251 H 0.71361 0.07558 0.26113 0.0
H1252 H 0.85469 0.01574 0.24594 0.0
H1253 H 0.84617 0.01952 0.20111 0.0
H1254 H 0.71887 0.01385 0.21003 0.0
C1255 C 0.73773 1.01034 0.30962 0.0
C1256 C 0.76768 1.00749 0.32739 0.0
C1257 C 0.80773 0.01327 0.32082 0.0
C1258 C 0.81836 0.01794 0.29627 0.0
C1259 C 0.78841 0.01673 0.27881 0.0
C1260 C 0.74881 0.01459 0.28514 0.0
C1261 C 0.72275 1.01154 0.26269 0.0
C1262 C 0.69843 0.97307 0.26257 0.0
C1263 C 0.69585 0.04792 0.26074 0.0
C1264 C 0.754 1.0111 0.24283 0.0
C1265 C 0.79165 0.01373 0.25261 0.0
C1266 C 0.8254 0.01403 0.238 0.0
C1267 C 0.82038 0.01515 0.21262 0.0
C1268 C 0.78198 0.01605 0.20236 0.0
C1269 C 0.7485 0.01178 0.2175 0.0
H1270 H 0.97767 0.67011 0.31693 0.0
H1271 H 0.10204 0.64325 0.31134 0.0
H1272 H 0.09088 0.60901 0.27238 0.0
H1273 H 0.94133 0.58206 0.26985 0.0
H1274 H 0.90521 0.61601 0.25797 0.0
H1275 H 0.91586 0.61511 0.29037 0.0
H1276 H 0.93067 0.69 0.28911 0.0
H1277 H 0.92037 0.69089 0.25713 0.0
H1278 H 0.96763 0.70845 0.26809 0.0
H1279 H 0.07538 0.60584 0.22999 0.0
H1280 H 0.05768 0.63577 0.19019 0.0
H1281 H 0.94426 0.67009 0.21972 0.0
C1282 C 1.00164 0.65473 0.30789 0.0
C1283 C 0.04036 0.65861 0.31666 0.0
C1284 C 0.07203 0.63994 0.3046 0.0
C1285 C 0.0658 0.62005 0.28261 0.0
C1286 C 0.02787 0.62021 0.27262 0.0
C1287 C 0.99582 0.63643 0.28518 0.0
C1288 C 0.96145 0.64371 0.26807 0.0
C1289 C 0.92907 0.61233 0.27179 0.0
C1290 C 0.94419 0.68575 0.27075 0.0
C1291 C 0.98215 0.6375 0.24384 0.0
C1292 C 0.01903 0.62042 0.24674 0.0
C1293 C 0.04618 0.61813 0.22739 0.0
C1294 C 0.03638 0.6357 0.20503 0.0
C1295 C 1.00039 0.65603 0.2028 0.0
C1296 C 0.97231 0.65512 0.22173 0.0
H1297 H 0.32795 0.96503 0.32856 0.0
H1298 H 0.43136 0.0387 0.33505 0.0
H1299 H 0.45949 1.00965 0.29773 0.0
H1300 H 0.38372 0.8792 0.28833 0.0
H1301 H 0.33808 0.87306 0.2717 0.0
H1302 H 0.33707 0.88197 0.30428 0.0
H1303 H 0.29057 0.94112 0.29719 0.0
H1304 H 0.2918 0.93314 0.26499 0.0
H1305 H 0.30611 0.98059 0.27713 0.0
H1306 H 0.4601 0.99867 0.25368 0.0
H1307 H 0.43683 0.99968 0.2106 0.0
H1308 H 0.33301 0.93356 0.23224 0.0
C1309 C 0.35746 0.97304 0.32258 0.0
C1310 C 0.37745 1.00432 0.33384 0.0
C1311 C 0.41593 0.01473 0.32629 0.0
C1312 C 0.43216 0.99802 0.30519 0.0
C1313 C 0.40965 0.97031 0.29241 0.0
C1314 C 0.37372 0.95632 0.30153 0.0
C1315 C 0.3508 0.93412 0.28224 0.0
C1316 C 0.35257 0.88945 0.28691 0.0
C1317 C 0.30737 0.94821 0.28027 0.0
C1318 C 0.37512 0.9451 0.26011 0.0
C1319 C 0.4103 0.96355 0.26625 0.0
C1320 C 0.43351 0.98278 0.2486 0.0
C1321 C 0.41987 0.98391 0.22432 0.0
C1322 C 0.38294 0.96699 0.2184 0.0
C1323 C 0.36143 0.94635 0.23628 0.0
H1324 H 0.99523 0.7895 0.70997 0.0
H1325 H 0.01869 0.66428 0.70451 0.0
H1326 H 0.02015 0.6594 0.74961 0.0
H1327 H 0.05972 0.80957 0.7545 0.0
H1328 H 0.03069 0.8449 0.77141 0.0
H1329 H 0.02237 0.83821 0.73911 0.0
H1330 H 0.94823 0.82136 0.74597 0.0
H1331 H 0.95538 0.8313 0.77807 0.0
H1332 H 0.93472 0.78472 0.76841 0.0
H1333 H 0.03283 0.67146 0.79418 0.0
H1334 H 0.02862 0.69371 0.8371 0.0
H1335 H 0.99843 0.81147 0.81261 0.0
C1336 C 0.99791 0.76068 0.71838 0.0
C1337 C 1.00677 0.72729 0.70419 0.0
C1338 C 1.01128 0.69 0.71537 0.0
C1339 C 1.01314 0.68718 0.7409 0.0
C1340 C 1.00943 0.72183 0.75443 0.0
C1341 C 0.99991 0.75748 0.74368 0.0
C1342 C 0.99873 0.79058 0.76212 0.0
C1343 C 0.02973 0.82268 0.75642 0.0
C1344 C 0.95677 0.80798 0.76376 0.0
C1345 C 1.00962 0.7681 0.78489 0.0
C1346 C 0.01653 0.72868 0.78002 0.0
C1347 C 0.02662 0.70206 0.79834 0.0
C1348 C 0.02498 0.71518 0.82261 0.0
C1349 C 1.01212 0.75399 0.82787 0.0
C1350 C 1.00817 0.78162 0.80887 0.0
H1351 H 0.3518 0.97532 0.7116 0.0
H1352 H 0.36927 0.10139 0.71501 0.0
H1353 H 0.39461 0.09608 0.7569 0.0
H1354 H 0.30673 0.96355 0.75902 0.0
H1355 H 0.32723 0.91889 0.77162 0.0
H1356 H 0.33139 0.92815 0.73958 0.0
H1357 H 0.40762 0.92141 0.74209 0.0
H1358 H 0.40353 0.9117 0.77449 0.0
H1359 H 0.43525 0.95084 0.7637 0.0
H1360 H 0.38769 0.08369 0.79939 0.0
H1361 H 0.35483 0.06318 0.83785 0.0
H1362 H 0.34366 0.94448 0.80967 0.0
C1363 C 0.36324 1.00105 0.72104 0.0
C1364 C 0.35941 0.03848 0.71065 0.0
C1365 C 0.37294 0.07239 0.72302 0.0
C1366 C 0.38773 0.06955 0.74668 0.0
C1367 C 0.38836 0.03254 0.75765 0.0
C1368 C 0.37767 0.99842 0.74496 0.0
C1369 C 0.37172 0.96418 0.76224 0.0
C1370 C 0.33191 0.94257 0.75786 0.0
C1371 C 0.40663 0.93535 0.76053 0.0
C1372 C 0.37259 0.98622 0.78629 0.0
C1373 C 0.38472 0.02502 0.78349 0.0
C1374 C 0.37969 0.05307 0.80209 0.0
C1375 C 0.36059 0.04155 0.82367 0.0
C1376 C 0.34632 1.00275 0.82586 0.0
C1377 C 0.35424 0.97446 0.80778 0.0
H1378 H 0.93574 0.28249 0.7377 0.0
H1379 H 1.01036 0.37131 0.70355 0.0
H1380 H 0.01493 0.40646 0.74321 0.0
H1381 H 0.88439 0.35153 0.78184 0.0
H1382 H 0.88347 0.31348 0.80489 0.0
H1383 H 0.87948 0.30052 0.77292 0.0
H1384 H 0.93957 0.25339 0.77694 0.0
H1385 H 0.94265 0.2654 0.80873 0.0
H1386 H 0.98538 0.27219 0.78936 0.0
H1387 H 0.02003 0.42493 0.78653 0.0
H1388 H 0.03909 0.415 0.82952 0.0
H1389 H 0.95797 0.31686 0.83515 0.0
C1390 C 0.95279 0.3096 0.73841 0.0
C1391 C 0.97283 0.32415 0.71769 0.0
C1392 C 0.99513 0.35943 0.71939 0.0
C1393 C 0.99693 0.38012 0.74161 0.0
C1394 C 0.97557 0.36546 0.76154 0.0
C1395 C 0.95425 0.33069 0.76008 0.0
C1396 C 0.93924 0.31723 0.78463 0.0
C1397 C 0.89396 0.32095 0.78615 0.0
C1398 C 0.95259 0.27461 0.79022 0.0
C1399 C 0.95939 0.3474 0.8007 0.0
C1400 C 0.97819 0.37647 0.78699 0.0
C1401 C 1.00461 0.40321 0.79752 0.0
C1402 C 0.01517 0.39759 0.82198 0.0
C1403 C 0.99976 0.36515 0.83503 0.0
C1404 C 0.96924 0.34212 0.82516 0.0
H1405 H 0.67245 0.97588 0.81703 0.0
H1406 H 0.61603 0.08977 0.81434 0.0
H1407 H 0.60538 0.08233 0.77002 0.0
H1408 H 0.72979 0.98614 0.77467 0.0
H1409 H 0.72886 0.93881 0.75952 0.0
H1410 H 0.71467 0.94226 0.79094 0.0
H1411 H 0.64637 0.91098 0.78151 0.0
H1412 H 0.66093 0.9061 0.74984 0.0
H1413 H 0.61576 0.93135 0.75765 0.0
H1414 H 0.62458 0.07536 0.72673 0.0
H1415 H 0.66429 0.06459 0.68902 0.0
H1416 H 0.7085 0.95544 0.71987 0.0
C1417 C 0.65509 0.99748 0.80719 0.0
C1418 C 0.64408 0.0327 0.8187 0.0
C1419 C 0.62323 0.06191 0.80567 0.0
C1420 C 0.61726 0.05796 0.78045 0.0
C1421 C 0.63197 0.02442 0.76885 0.0
C1422 C 0.64909 0.99374 0.78199 0.0
C1423 C 0.67 0.9651 0.76523 0.0
C1424 C 0.71335 0.95778 0.77305 0.0
C1425 C 0.64686 0.92608 0.76345 0.0
C1426 C 0.66741 0.9877 0.74153 0.0
C1427 C 0.64386 0.02076 0.74347 0.0
C1428 C 0.642 0.04882 0.72471 0.0
C1429 C 0.66503 0.04292 0.70356 0.0
C1430 C 0.69019 1.00985 0.7019 0.0
C1431 C 0.69016 0.98152 0.7208 0.0
H1432 H 0.07147 0.44823 0.13706 0.0
H1433 H 0.06792 0.43008 0.21531 0.0
H1434 H 0.02154 0.48639 0.21963 0.0
H1435 H 0.05741 0.5579 0.13618 0.0
H1436 H 0.02629 0.55415 0.10947 0.0
H1437 H 0.06534 0.51892 0.11421 0.0
H1438 H 0.01371 0.46253 0.11042 0.0
H1439 H 0.97428 0.49756 0.10676 0.0
H1440 H 0.97189 0.4615 0.13095 0.0
H1441 H 0.96827 0.54403 0.21372 0.0
H1442 H 0.92105 0.59486 0.1985 0.0
H1443 H 0.95519 0.56642 0.12403 0.0
C1444 C 0.06305 0.45777 0.15528 0.0
C1445 C 0.07556 0.43598 0.17599 0.0
C1446 C 0.06089 0.44757 0.19931 0.0
C1447 C 0.0337 0.47915 0.20183 0.0
C1448 C 0.02037 0.49861 0.18078 0.0
C1449 C 0.03511 0.48829 0.15796 0.0
C1450 C 0.01354 0.5101 0.13777 0.0
C1451 C 0.04236 0.53686 0.12358 0.0
C1452 C 0.9921 0.48119 0.12047 0.0
C1453 C 0.98419 0.53419 0.15255 0.0
C1454 C 0.9885 0.52794 0.17738 0.0
C1455 C 0.96478 0.54865 0.19423 0.0
C1456 C 0.93742 0.57721 0.18544 0.0
C1457 C 0.93363 0.5847 0.15999 0.0
C1458 C 0.95667 0.5615 0.14362 0.0
H1459 H 0.60626 0.04664 0.13397 0.0
H1460 H 0.62655 0.04659 0.21211 0.0
H1461 H 0.57059 0.99947 0.2176 0.0
H1462 H 0.49787 0.03612 0.13502 0.0
H1463 H 0.4982 1.00423 0.10856 0.0
H1464 H 0.53625 0.04105 0.11225 0.0
H1465 H 0.58925 0.98633 0.10813 0.0
H1466 H 0.55131 0.94918 0.10529 0.0
H1467 H 0.58832 0.94503 0.1289 0.0
H1468 H 0.51045 0.94861 0.21321 0.0
H1469 H 0.45391 0.90639 0.19974 0.0
H1470 H 0.48014 0.93615 0.12433 0.0
C1471 C 0.59783 0.03804 0.15236 0.0
C1472 C 0.6197 0.05197 0.17275 0.0
C1473 C 0.60922 0.03785 0.19634 0.0
C1474 C 0.57773 1.01053 0.19954 0.0
C1475 C 0.55739 0.99658 0.17887 0.0
C1476 C 0.56716 1.01028 0.15574 0.0
C1477 C 0.54287 0.98962 0.13619 0.0
C1478 C 0.51727 0.01953 0.12219 0.0
C1479 C 0.56954 0.96616 0.1186 0.0
C1480 C 0.51761 0.96221 0.1517 0.0
C1481 C 0.52592 0.96643 0.17634 0.0
C1482 C 0.50426 0.94501 0.19388 0.0
C1483 C 0.47246 0.92039 0.18608 0.0
C1484 C 0.46271 0.91702 0.16089 0.0
C1485 C 0.48698 0.93727 0.14371 0.0
H1486 H 0.07664 0.5653 0.40417 0.0
H1487 H 0.1127 0.57683 0.32852 0.0
H1488 H 0.07166 0.51816 0.31781 0.0
H1489 H 0.06721 0.45659 0.40699 0.0
H1490 H 0.02442 0.46051 0.42658 0.0
H1491 H 0.06227 0.49797 0.42757 0.0
H1492 H 1.00843 0.55055 0.41918 0.0
H1493 H 0.97076 0.51308 0.41686 0.0
H1494 H 0.97872 0.54684 0.39184 0.0
H1495 H 0.01994 0.45795 0.31606 0.0
H1496 H 0.97332 0.40274 0.32466 0.0
H1497 H 0.96694 0.43928 0.40037 0.0
C1498 C 0.07768 0.55428 0.38552 0.0
C1499 C 0.09875 0.57549 0.36731 0.0
C1500 C 0.09771 0.56087 0.34296 0.0
C1501 C 0.07378 0.52781 0.33668 0.0
C1502 C 0.0508 0.5097 0.35494 0.0
C1503 C 0.0533 0.5224 0.37898 0.0
C1504 C 0.02399 0.50088 0.39522 0.0
C1505 C 0.04577 0.47759 0.41526 0.0
C1506 C 0.99371 0.52956 0.40642 0.0
C1507 C 1.00447 0.47363 0.37681 0.0
C1508 C 0.02015 0.47858 0.35362 0.0
C1509 C 1.00751 0.45441 0.33421 0.0
C1510 C 0.98026 0.42336 0.33907 0.0
C1511 C 0.96547 0.41682 0.36302 0.0
C1512 C 0.97664 0.44386 0.38165 0.0
H1513 H 0.57623 0.94827 0.38804 0.0
H1514 H 0.62788 0.99238 0.32095 0.0
H1515 H 0.57392 0.04145 0.31738 0.0
H1516 H 0.46957 0.96595 0.37157 0.0
H1517 H 0.45824 0.98011 0.40262 0.0
H1518 H 0.49668 0.94462 0.39671 0.0
H1519 H 0.54568 0.98833 0.42142 0.0
H1520 H 0.50777 0.02453 0.42663 0.0
H1521 H 0.55366 0.03882 0.41225 0.0
H1522 H 0.51451 0.09176 0.32405 0.0
H1523 H 0.45628 0.13066 0.33864 0.0
H1524 H 0.45046 0.05557 0.40291 0.0
C1525 C 0.57491 0.96668 0.37186 0.0
C1526 C 0.60549 0.96502 0.35419 0.0
C1527 C 0.60398 0.99181 0.33419 0.0
C1528 C 0.57363 0.02031 0.33222 0.0
C1529 C 0.54489 0.0224 0.3506 0.0
C1530 C 0.54519 0.99573 0.36987 0.0
C1531 C 0.51326 1.00569 0.38834 0.0
C1532 C 0.48263 0.9721 0.3899 0.0
C1533 C 0.53118 0.01489 0.41364 0.0
C1534 C 0.49544 0.04233 0.37686 0.0
C1535 C 0.51338 0.0517 0.35495 0.0
C1536 C 0.5004 0.08439 0.34126 0.0
C1537 C 0.46745 0.10675 0.34977 0.0
C1538 C 0.44816 0.09675 0.37201 0.0
C1539 C 0.4638 0.06467 0.38578 0.0
H1540 H 0.04481 0.45549 0.90527 0.0
H1541 H 0.11621 0.45415 0.83917 0.0
H1542 H 0.07748 0.51134 0.82347 0.0
H1543 H 0.95279 0.47615 0.8765 0.0
H1544 H 0.93517 0.50655 0.90133 0.0
H1545 H 0.96954 0.46721 0.90733 0.0
H1546 H 0.01831 0.5164 0.92776 0.0
H1547 H 0.98369 0.55568 0.92243 0.0
H1548 H 0.03371 0.55981 0.9112 0.0
H1549 H 0.02939 0.57133 0.81609 0.0
H1550 H 0.98279 0.62754 0.81906 0.0
H1551 H 0.94125 0.58442 0.88901 0.0
C1552 C 0.05293 0.4671 0.88749 0.0
C1553 C 0.08406 0.44991 0.87354 0.0
C1554 C 0.09303 0.46671 0.85042 0.0
C1555 C 0.07077 0.49901 0.84128 0.0
C1556 C 0.03941 0.51411 0.85537 0.0
C1557 C 0.0309 0.49855 0.8781 0.0
C1558 C 0.99609 0.51931 0.89006 0.0
C1559 C 0.96135 0.49059 0.89403 0.0
C1560 C 1.00871 0.53897 0.91428 0.0
C1561 C 0.98615 0.54975 0.87074 0.0
C1562 C 1.01132 0.54642 0.85077 0.0
C1563 C 1.00928 0.57341 0.83148 0.0
C1564 C 0.98225 0.60506 0.83314 0.0
C1565 C 0.95692 0.60952 0.85371 0.0
C1566 C 0.95851 0.58076 0.87243 0.0
H1567 H 0.56 0.07688 0.84153 0.0
H1568 H 0.55186 0.11724 0.91676 0.0
H1569 H 0.50366 0.06479 0.92547 0.0
H1570 H 0.44681 0.05518 0.83893 0.0
H1571 H 0.45383 0.01436 0.8181 0.0
H1572 H 0.48681 0.05624 0.81705 0.0
H1573 H 0.54578 1.00889 0.82244 0.0
H1574 H 0.51283 0.96709 0.82451 0.0
H1575 H 0.54757 0.97704 0.84882 0.0
H1576 H 0.47552 0.99611 0.92884 0.0
H1577 H 0.43077 0.93969 0.92413 0.0
H1578 H 0.4334 0.95434 0.8451 0.0
C1579 C 0.54616 0.07652 0.85938 0.0
C1580 C 0.5606 0.10165 0.87854 0.0
C1581 C 0.54153 0.09911 0.90166 0.0
C1582 C 0.5148 0.06848 0.90701 0.0
C1583 C 0.50448 0.04199 0.88853 0.0
C1584 C 0.51652 0.04767 0.86467 0.0
C1585 C 0.49647 0.0167 0.84812 0.0
C1586 C 0.46934 0.03684 0.82943 0.0
C1587 C 0.52753 0.99091 0.83521 0.0
C1588 C 0.47242 0.99236 0.86671 0.0
C1589 C 0.48011 1.00646 0.88998 0.0
C1590 C 0.4673 0.98624 0.91066 0.0
C1591 C 0.44242 0.95341 0.90769 0.0
C1592 C 0.42714 0.94251 0.88435 0.0
C1593 C 0.44404 0.96136 0.8633 0.0
H1594 H 0.94389 0.4535 0.69981 0.0
H1595 H 0.92032 0.44223 0.62211 0.0
H1596 H 0.97037 0.49359 0.61355 0.0
H1597 H 0.95647 0.56547 0.69649 0.0
H1598 H 0.99289 0.56516 0.7206 0.0
H1599 H 0.9539 0.52877 0.72032 0.0
H1600 H 1.00689 0.47415 0.72215 0.0
H1601 H 0.04625 0.51008 0.72115 0.0
H1602 H 0.04407 0.47133 0.69851 0.0
H1603 H 0.0327 0.53688 0.61321 0.0
H1604 H 0.0825 0.58889 0.62072 0.0
H1605 H 0.05727 0.5837 0.69846 0.0
C1606 C 0.94758 0.46344 0.6811 0.0
C1607 C 0.9274 0.44379 0.66165 0.0
C1608 C 0.93446 0.45699 0.63739 0.0
C1609 C 0.96359 0.48575 0.63231 0.0
C1610 C 0.98461 0.50262 0.65174 0.0
C1611 C 0.97522 0.49377 0.67575 0.0
C1612 C 1.00058 0.51843 0.69322 0.0
C1613 C 0.97441 0.54611 0.70856 0.0
C1614 C 0.02595 0.4919 0.70973 0.0
C1615 C 0.0264 0.54162 0.67529 0.0
C1616 C 0.01758 0.53085 0.65148 0.0
C1617 C 0.03907 0.54616 0.63178 0.0
C1618 C 0.06808 0.57528 0.63629 0.0
C1619 C 0.07469 0.59032 0.66021 0.0
C1620 C 0.05402 0.57228 0.68003 0.0
H1621 H 0.56305 0.95324 0.63175 0.0
H1622 H 0.59852 0.95955 0.70763 0.0
H1623 H 0.54501 1.00766 0.71583 0.0
H1624 H 0.54973 0.0518 0.62464 0.0
H1625 H 0.50799 0.04904 0.60415 0.0
H1626 H 0.54274 1.009 0.60543 0.0
H1627 H 0.48668 0.95936 0.61565 0.0
H1628 H 0.45143 0.99894 0.61333 0.0
H1629 H 0.4536 0.96958 0.64079 0.0
H1630 H 0.48981 0.06427 0.71364 0.0
H1631 H 0.43813 0.11327 0.70198 0.0
H1632 H 0.44475 0.07119 0.62707 0.0
C1633 C 0.55773 0.96243 0.65049 0.0
C1634 C 0.58403 0.95051 0.66928 0.0
C1635 C 0.57769 0.96621 0.69314 0.0
C1636 C 0.54773 0.99447 0.69784 0.0
C1637 C 0.52399 1.00743 0.67844 0.0
C1638 C 0.52845 0.99112 0.6553 0.0
C1639 C 0.50231 0.01207 0.63688 0.0
C1640 C 0.52719 0.03162 0.61659 0.0
C1641 C 0.47168 0.98328 0.62603 0.0
C1642 C 0.48262 0.04288 0.65301 0.0
C1643 C 0.49494 0.04003 0.67702 0.0
C1644 C 0.47992 0.06614 0.69483 0.0
C1645 C 0.45061 0.09428 0.68805 0.0
C1646 C 0.43635 0.09625 0.66365 0.0
C1647 C 0.45424 0.07084 0.64602 0.0
loop_
_geom_bond_atom_site_label_1
_geom_bond_atom_site_label_2
_geom_bond_distance
_geom_bond_site_symmetry_2
_ccdc_geom_bond_type
Fe0 O2 1.918 . S
Fe0 O5 1.997 . S
Fe0 O6 2.002 . S
Fe0 O11 1.976 . S
Fe0 O14 1.996 . S
Fe1 O2 1.918 . S
Fe1 O9 1.997 . S
Fe1 O12 1.996 . S
Fe1 O16 1.976 . S
Fe1 O19 2.002 . S
O2 Fe0 1.918 . S
O2 Fe1 1.918 . S
O2 Fe3 1.918 . S
Fe3 O2 1.918 . S
Fe3 O4 2.002 . S
Fe3 O13 1.976 . S
Fe3 O17 1.996 . S
Fe3 O20 1.997 . S
O4 Fe3 2.002 . S
O4 C21 1.295 . S
O5 Fe0 1.997 . S
O5 C21 1.235 . S
O6 Fe0 2.002 . S
O6 C7 1.295 . S
C7 O6 1.295 . S
C7 O9 1.235 . S
C8 O13 1.287 . S
C8 O14 1.255 . S
O9 Fe1 1.997 . S
O9 C7 1.235 . S
C10 O16 1.287 . S
C10 O17 1.255 . S
O11 Fe0 1.976 . S
O11 C18 1.287 . S
O12 Fe1 1.996 . S
O12 C18 1.255 . S
O13 Fe3 1.976 . S
O13 C8 1.287 . S
O14 Fe0 1.996 . S
O14 C8 1.255 . S
C15 O19 1.295 . S
C15 O20 1.235 . S
O16 Fe1 1.976 . S
O16 C10 1.287 . S
O17 Fe3 1.996 . S
O17 C10 1.255 . S
C18 O11 1.287 . S
C18 O12 1.255 . S
O19 Fe1 2.002 . S
O19 C15 1.295 . S
O20 Fe3 1.997 . S
O20 C15 1.235 . S
C21 O4 1.295 . S
C21 O5 1.235 . S
Fe22 O24 1.918 . S
Fe22 O27 1.997 . S
Fe22 O28 2.002 . S
Fe22 O33 1.976 . S
Fe22 O36 1.996 . S
Fe23 O24 1.918 . S
Fe23 O31 1.997 . S
Fe23 O34 1.996 . S
Fe23 O38 1.976 . S
Fe23 O41 2.002 . S
O24 Fe22 1.918 . S
O24 Fe23 1.918 . S
O24 Fe25 1.918 . S
Fe25 O24 1.918 . S
Fe25 O26 2.002 . S
Fe25 O35 1.976 . S
Fe25 O39 1.996 . S
Fe25 O42 1.997 . S
O26 Fe25 2.002 . S
O26 C43 1.295 . S
O27 Fe22 1.997 . S
O27 C43 1.235 . S
O28 Fe22 2.002 . S
O28 C29 1.295 . S
C29 O28 1.295 . S
C29 O31 1.235 . S
C30 O35 1.287 . S
C30 O36 1.255 . S
O31 Fe23 1.997 . S
O31 C29 1.235 . S
C32 O38 1.287 . S
C32 O39 1.255 . S
O33 Fe22 1.976 . S
O33 C40 1.287 . S
O34 Fe23 1.996 . S
O34 C40 1.255 . S
O35 Fe25 1.976 . S
O35 C30 1.287 . S
O36 Fe22 1.996 . S
O36 C30 1.255 . S
C37 O41 1.295 . S
C37 O42 1.235 . S
O38 Fe23 1.976 . S
O38 C32 1.287 . S
O39 Fe25 1.996 . S
O39 C32 1.255 . S
C40 O33 1.287 . S
C40 O34 1.255 . S
O41 Fe23 2.002 . S
O41 C37 1.295 . S
O42 Fe25 1.997 . S
O42 C37 1.235 . S
C43 O26 1.295 . S
C43 O27 1.235 . S
Fe44 O46 1.918 . S
Fe44 O49 1.997 . S
Fe44 O50 2.002 . S
Fe44 O55 1.976 . S
Fe44 O58 1.996 . S
Fe45 O46 1.918 . S
Fe45 O53 1.997 . S
Fe45 O56 1.996 . S
Fe45 O60 1.976 . S
Fe45 O63 2.002 . S
O46 Fe44 1.918 . S
O46 Fe45 1.918 . S
O46 Fe47 1.918 . S
Fe47 O46 1.918 . S
Fe47 O48 2.002 . S
Fe47 O57 1.976 . S
Fe47 O61 1.996 . S
Fe47 O64 1.997 . S
O48 Fe47 2.002 . S
O48 C65 1.295 . S
O49 Fe44 1.997 . S
O49 C65 1.235 . S
O50 Fe44 2.002 . S
O50 C51 1.295 . S
C51 O50 1.295 . S
C51 O53 1.235 . S
C52 O57 1.287 . S
C52 O58 1.255 . S
O53 Fe45 1.997 . S
O53 C51 1.235 . S
C54 O60 1.287 . S
C54 O61 1.255 . S
O55 Fe44 1.976 . S
O55 C62 1.287 . S
O56 Fe45 1.996 . S
O56 C62 1.255 . S
O57 Fe47 1.976 . S
O57 C52 1.287 . S
O58 Fe44 1.996 . S
O58 C52 1.255 . S
C59 O63 1.295 . S
C59 O64 1.235 . S
O60 Fe45 1.976 . S
O60 C54 1.287 . S
O61 Fe47 1.996 . S
O61 C54 1.255 . S
C62 O55 1.287 . S
C62 O56 1.255 . S
O63 Fe45 2.002 . S
O63 C59 1.295 . S
O64 Fe47 1.997 . S
O64 C59 1.235 . S
C65 O48 1.295 . S
C65 O49 1.235 . S
Fe66 O68 1.918 . S
Fe66 O71 1.997 . S
Fe66 O72 2.002 . S
Fe66 O77 1.976 . S
Fe66 O80 1.996 . S
Fe67 O68 1.918 . S
Fe67 O75 1.997 . S
Fe67 O78 1.996 . S
Fe67 O82 1.976 . S
Fe67 O85 2.002 . S
O68 Fe66 1.918 . S
O68 Fe67 1.918 . S
O68 Fe69 1.918 . S
Fe69 O68 1.918 . S
Fe69 O70 2.002 . S
Fe69 O79 1.976 . S
Fe69 O83 1.996 . S
Fe69 O86 1.997 . S
O70 Fe69 2.002 . S
O70 C87 1.295 . S
O71 Fe66 1.997 . S
O71 C87 1.235 . S
O72 Fe66 2.002 . S
O72 C73 1.295 . S
C73 O72 1.295 . S
C73 O75 1.235 . S
C74 O79 1.287 . S
C74 O80 1.255 . S
O75 Fe67 1.997 . S
O75 C73 1.235 . S
C76 O82 1.287 . S
C76 O83 1.255 . S
O77 Fe66 1.976 . S
O77 C84 1.287 . S
O78 Fe67 1.996 . S
O78 C84 1.255 . S
O79 Fe69 1.976 . S
O79 C74 1.287 . S
O80 Fe66 1.996 . S
O80 C74 1.255 . S
C81 O85 1.295 . S
C81 O86 1.235 . S
O82 Fe67 1.976 . S
O82 C76 1.287 . S
O83 Fe69 1.996 . S
O83 C76 1.255 . S
C84 O77 1.287 . S
C84 O78 1.255 . S
O85 Fe67 2.002 . S
O85 C81 1.295 . S
O86 Fe69 1.997 . S
O86 C81 1.235 . S
C87 O70 1.295 . S
C87 O71 1.235 . S
Fe88 O90 1.918 . S
Fe88 O93 1.997 . S
Fe88 O94 2.002 . S
Fe88 O99 1.976 . S
Fe88 O102 1.996 . S
Fe89 O90 1.918 . S
Fe89 O97 1.997 . S
Fe89 O100 1.996 . S
Fe89 O104 1.976 . S
Fe89 O107 2.002 . S
O90 Fe88 1.918 . S
O90 Fe89 1.918 . S
O90 Fe91 1.918 . S
Fe91 O90 1.918 . S
Fe91 O92 2.002 . S
Fe91 O101 1.976 . S
Fe91 O105 1.996 . S
Fe91 O108 1.997 . S
O92 Fe91 2.002 . S
O92 C109 1.295 . S
O93 Fe88 1.997 . S
O93 C109 1.235 . S
O94 Fe88 2.002 . S
O94 C95 1.295 . S
C95 O94 1.295 . S
C95 O97 1.235 . S
C96 O101 1.287 . S
C96 O102 1.255 . S
O97 Fe89 1.997 . S
O97 C95 1.235 . S
C98 O104 1.287 . S
C98 O105 1.255 . S
O99 Fe88 1.976 . S
O99 C106 1.287 . S
O100 Fe89 1.996 . S
O100 C106 1.255 . S
O101 Fe91 1.976 . S
O101 C96 1.287 . S
O102 Fe88 1.996 . S
O102 C96 1.255 . S
C103 O107 1.295 . S
C103 O108 1.235 . S
O104 Fe89 1.976 . S
O104 C98 1.287 . S
O105 Fe91 1.996 . S
O105 C98 1.255 . S
C106 O99 1.287 . S
C106 O100 1.255 . S
O107 Fe89 2.002 . S
O107 C103 1.295 . S
O108 Fe91 1.997 . S
O108 C103 1.235 . S
C109 O92 1.295 . S
C109 O93 1.235 . S
Fe110 O112 1.918 . S
Fe110 O115 1.997 . S
Fe110 O116 2.002 . S
Fe110 O121 1.976 . S
Fe110 O124 1.996 . S
Fe111 O112 1.918 . S
Fe111 O119 1.997 . S
Fe111 O122 1.996 . S
Fe111 O126 1.976 . S
Fe111 O129 2.002 . S
O112 Fe110 1.918 . S
O112 Fe111 1.918 . S
O112 Fe113 1.918 . S
Fe113 O112 1.918 . S
Fe113 O114 2.002 . S
Fe113 O123 1.976 . S
Fe113 O127 1.996 . S
Fe113 O130 1.997 . S
O114 Fe113 2.002 . S
O114 C131 1.295 . S
O115 Fe110 1.997 . S
O115 C131 1.235 . S
O116 Fe110 2.002 . S
O116 C117 1.295 . S
C117 O116 1.295 . S
C117 O119 1.235 . S
C118 O123 1.287 . S
C118 O124 1.255 . S
O119 Fe111 1.997 . S
O119 C117 1.235 . S
C120 O126 1.287 . S
C120 O127 1.255 . S
O121 Fe110 1.976 . S
O121 C128 1.287 . S
O122 Fe111 1.996 . S
O122 C128 1.255 . S
O123 Fe113 1.976 . S
O123 C118 1.287 . S
O124 Fe110 1.996 . S
O124 C118 1.255 . S
C125 O129 1.295 . S
C125 O130 1.235 . S
O126 Fe111 1.976 . S
O126 C120 1.287 . S
O127 Fe113 1.996 . S
O127 C120 1.255 . S
C128 O121 1.287 . S
C128 O122 1.255 . S
O129 Fe111 2.002 . S
O129 C125 1.295 . S
O130 Fe113 1.997 . S
O130 C125 1.235 . S
C131 O114 1.295 . S
C131 O115 1.235 . S
Fe132 O134 1.918 . S
Fe132 O137 1.997 . S
Fe132 O138 2.002 . S
Fe132 O143 1.976 . S
Fe132 O146 1.996 . S
Fe133 O134 1.918 . S
Fe133 O141 1.997 . S
Fe133 O144 1.996 . S
Fe133 O148 1.976 . S
Fe133 O151 2.002 . S
O134 Fe132 1.918 . S
O134 Fe133 1.918 . S
O134 Fe135 1.918 . S
Fe135 O134 1.918 . S
Fe135 O136 2.002 . S
Fe135 O145 1.976 . S
Fe135 O149 1.996 . S
Fe135 O152 1.997 . S
O136 Fe135 2.002 . S
O136 C153 1.295 . S
O137 Fe132 1.997 . S
O137 C153 1.235 . S
O138 Fe132 2.002 . S
O138 C139 1.295 . S
C139 O138 1.295 . S
C139 O141 1.235 . S
C140 O145 1.287 . S
C140 O146 1.255 . S
O141 Fe133 1.997 . S
O141 C139 1.235 . S
C142 O148 1.287 . S
C142 O149 1.255 . S
O143 Fe132 1.976 . S
O143 C150 1.287 . S
O144 Fe133 1.996 . S
O144 C150 1.255 . S
O145 Fe135 1.976 . S
O145 C140 1.287 . S
O146 Fe132 1.996 . S
O146 C140 1.255 . S
C147 O151 1.295 . S
C147 O152 1.235 . S
O148 Fe133 1.976 . S
O148 C142 1.287 . S
O149 Fe135 1.996 . S
O149 C142 1.255 . S
C150 O143 1.287 . S
C150 O144 1.255 . S
O151 Fe133 2.002 . S
O151 C147 1.295 . S
O152 Fe135 1.997 . S
O152 C147 1.235 . S
C153 O136 1.295 . S
C153 O137 1.235 . S
Fe154 O156 1.918 . S
Fe154 O159 1.997 . S
Fe154 O160 2.002 . S
Fe154 O165 1.976 . S
Fe154 O168 1.996 . S
Fe155 O156 1.918 . S
Fe155 O163 1.997 . S
Fe155 O166 1.996 . S
Fe155 O170 1.976 . S
Fe155 O173 2.002 . S
O156 Fe154 1.918 . S
O156 Fe155 1.918 . S
O156 Fe157 1.918 . S
Fe157 O156 1.918 . S
Fe157 O158 2.002 . S
Fe157 O167 1.976 . S
Fe157 O171 1.996 . S
Fe157 O174 1.997 . S
O158 Fe157 2.002 . S
O158 C175 1.295 . S
O159 Fe154 1.997 . S
O159 C175 1.235 . S
O160 Fe154 2.002 . S
O160 C161 1.295 . S
C161 O160 1.295 . S
C161 O163 1.235 . S
C162 O167 1.287 . S
C162 O168 1.255 . S
O163 Fe155 1.997 . S
O163 C161 1.235 . S
C164 O170 1.287 . S
C164 O171 1.255 . S
O165 Fe154 1.976 . S
O165 C172 1.287 . S
O166 Fe155 1.996 . S
O166 C172 1.255 . S
O167 Fe157 1.976 . S
O167 C162 1.287 . S
O168 Fe154 1.996 . S
O168 C162 1.255 . S
C169 O173 1.295 . S
C169 O174 1.235 . S
O170 Fe155 1.976 . S
O170 C164 1.287 . S
O171 Fe157 1.996 . S
O171 C164 1.255 . S
C172 O165 1.287 . S
C172 O166 1.255 . S
O173 Fe155 2.002 . S
O173 C169 1.295 . S
O174 Fe157 1.997 . S
O174 C169 1.235 . S
C175 O158 1.295 . S
C175 O159 1.235 . S
Fe176 O178 1.918 . S
Fe176 O181 1.997 . S
Fe176 O182 2.002 . S
Fe176 O187 1.976 . S
Fe176 O190 1.996 . S
Fe177 O178 1.918 . S
Fe177 O185 1.997 . S
Fe177 O188 1.996 . S
Fe177 O192 1.976 . S
Fe177 O195 2.002 . S
O178 Fe176 1.918 . S
O178 Fe177 1.918 . S
O178 Fe179 1.918 . S
Fe179 O178 1.918 . S
Fe179 O180 2.002 . S
Fe179 O189 1.976 . S
Fe179 O193 1.996 . S
Fe179 O196 1.997 . S
O180 Fe179 2.002 . S
O180 C197 1.295 . S
O181 Fe176 1.997 . S
O181 C197 1.235 . S
O182 Fe176 2.002 . S
O182 C183 1.295 . S
C183 O182 1.295 . S
C183 O185 1.235 . S
C184 O189 1.287 . S
C184 O190 1.255 . S
O185 Fe177 1.997 . S
O185 C183 1.235 . S
C186 O192 1.287 . S
C186 O193 1.255 . S
O187 Fe176 1.976 . S
O187 C194 1.287 . S
O188 Fe177 1.996 . S
O188 C194 1.255 . S
O189 Fe179 1.976 . S
O189 C184 1.287 . S
O190 Fe176 1.996 . S
O190 C184 1.255 . S
C191 O195 1.295 . S
C191 O196 1.235 . S
O192 Fe177 1.976 . S
O192 C186 1.287 . S
O193 Fe179 1.996 . S
O193 C186 1.255 . S
C194 O187 1.287 . S
C194 O188 1.255 . S
O195 Fe177 2.002 . S
O195 C191 1.295 . S
O196 Fe179 1.997 . S
O196 C191 1.235 . S
C197 O180 1.295 . S
C197 O181 1.235 . S
Fe198 O200 1.918 . S
Fe198 O203 1.997 . S
Fe198 O204 2.002 . S
Fe198 O209 1.976 . S
Fe198 O212 1.996 . S
Fe199 O200 1.918 . S
Fe199 O207 1.997 . S
Fe199 O210 1.996 . S
Fe199 O214 1.976 . S
Fe199 O217 2.002 . S
O200 Fe198 1.918 . S
O200 Fe199 1.918 . S
O200 Fe201 1.918 . S
Fe201 O200 1.918 . S
Fe201 O202 2.002 . S
Fe201 O211 1.976 . S
Fe201 O215 1.996 . S
Fe201 O218 1.997 . S
O202 Fe201 2.002 . S
O202 C219 1.295 . S
O203 Fe198 1.997 . S
O203 C219 1.235 . S
O204 Fe198 2.002 . S
O204 C205 1.295 . S
C205 O204 1.295 . S
C205 O207 1.235 . S
C206 O211 1.287 . S
C206 O212 1.255 . S
O207 Fe199 1.997 . S
O207 C205 1.235 . S
C208 O214 1.287 . S
C208 O215 1.255 . S
O209 Fe198 1.976 . S
O209 C216 1.287 . S
O210 Fe199 1.996 . S
O210 C216 1.255 . S
O211 Fe201 1.976 . S
O211 C206 1.287 . S
O212 Fe198 1.996 . S
O212 C206 1.255 . S
C213 O217 1.295 . S
C213 O218 1.235 . S
O214 Fe199 1.976 . S
O214 C208 1.287 . S
O215 Fe201 1.996 . S
O215 C208 1.255 . S
C216 O209 1.287 . S
C216 O210 1.255 . S
O217 Fe199 2.002 . S
O217 C213 1.295 . S
O218 Fe201 1.997 . S
O218 C213 1.235 . S
C219 O202 1.295 . S
C219 O203 1.235 . S
Fe220 O222 1.918 . S
Fe220 O225 1.997 . S
Fe220 O226 2.002 . S
Fe220 O231 1.976 . S
Fe220 O234 1.996 . S
Fe221 O222 1.918 . S
Fe221 O229 1.997 . S
Fe221 O232 1.996 . S
Fe221 O236 1.976 . S
Fe221 O239 2.002 . S
O222 Fe220 1.918 . S
O222 Fe221 1.918 . S
O222 Fe223 1.918 . S
Fe223 O222 1.918 . S
Fe223 O224 2.002 . S
Fe223 O233 1.976 . S
Fe223 O237 1.996 . S
Fe223 O240 1.997 . S
O224 Fe223 2.002 . S
O224 C241 1.295 . S
O225 Fe220 1.997 . S
O225 C241 1.235 . S
O226 Fe220 2.002 . S
O226 C227 1.295 . S
C227 O226 1.295 . S
C227 O229 1.235 . S
C228 O233 1.287 . S
C228 O234 1.255 . S
O229 Fe221 1.997 . S
O229 C227 1.235 . S
C230 O236 1.287 . S
C230 O237 1.255 . S
O231 Fe220 1.976 . S
O231 C238 1.287 . S
O232 Fe221 1.996 . S
O232 C238 1.255 . S
O233 Fe223 1.976 . S
O233 C228 1.287 . S
O234 Fe220 1.996 . S
O234 C228 1.255 . S
C235 O239 1.295 . S
C235 O240 1.235 . S
O236 Fe221 1.976 . S
O236 C230 1.287 . S
O237 Fe223 1.996 . S
O237 C230 1.255 . S
C238 O231 1.287 . S
C238 O232 1.255 . S
O239 Fe221 2.002 . S
O239 C235 1.295 . S
O240 Fe223 1.997 . S
O240 C235 1.235 . S
C241 O224 1.295 . S
C241 O225 1.235 . S
Fe242 O244 1.918 . S
Fe242 O247 1.997 . S
Fe242 O248 2.002 . S
Fe242 O253 1.976 . S
Fe242 O256 1.996 . S
Fe243 O244 1.918 . S
Fe243 O251 1.997 . S
Fe243 O254 1.996 . S
Fe243 O258 1.976 . S
Fe243 O261 2.002 . S
O244 Fe242 1.918 . S
O244 Fe243 1.918 . S
O244 Fe245 1.918 . S
Fe245 O244 1.918 . S
Fe245 O246 2.002 . S
Fe245 O255 1.976 . S
Fe245 O259 1.996 . S
Fe245 O262 1.997 . S
O246 Fe245 2.002 . S
O246 C263 1.295 . S
O247 Fe242 1.997 . S
O247 C263 1.235 . S
O248 Fe242 2.002 . S
O248 C249 1.295 . S
C249 O248 1.295 . S
C249 O251 1.235 . S
C250 O255 1.287 . S
C250 O256 1.255 . S
O251 Fe243 1.997 . S
O251 C249 1.235 . S
C252 O258 1.287 . S
C252 O259 1.255 . S
O253 Fe242 1.976 . S
O253 C260 1.287 . S
O254 Fe243 1.996 . S
O254 C260 1.255 . S
O255 Fe245 1.976 . S
O255 C250 1.287 . S
O256 Fe242 1.996 . S
O256 C250 1.255 . S
C257 O261 1.295 . S
C257 O262 1.235 . S
O258 Fe243 1.976 . S
O258 C252 1.287 . S
O259 Fe245 1.996 . S
O259 C252 1.255 . S
C260 O253 1.287 . S
C260 O254 1.255 . S
O261 Fe243 2.002 . S
O261 C257 1.295 . S
O262 Fe245 1.997 . S
O262 C257 1.235 . S
C263 O246 1.295 . S
C263 O247 1.235 . S
Fe264 O266 1.918 . S
Fe264 O269 1.997 . S
Fe264 O270 2.002 . S
Fe264 O275 1.976 . S
Fe264 O278 1.996 . S
Fe265 O266 1.918 . S
Fe265 O273 1.997 . S
Fe265 O276 1.996 . S
Fe265 O280 1.976 . S
Fe265 O283 2.002 . S
O266 Fe264 1.918 . S
O266 Fe265 1.918 . S
O266 Fe267 1.918 . S
Fe267 O266 1.918 . S
Fe267 O268 2.002 . S
Fe267 O277 1.976 . S
Fe267 O281 1.996 . S
Fe267 O284 1.997 . S
O268 Fe267 2.002 . S
O268 C285 1.295 . S
O269 Fe264 1.997 . S
O269 C285 1.235 . S
O270 Fe264 2.002 . S
O270 C271 1.295 . S
C271 O270 1.295 . S
C271 O273 1.235 . S
C272 O277 1.287 . S
C272 O278 1.255 . S
O273 Fe265 1.997 . S
O273 C271 1.235 . S
C274 O280 1.287 . S
C274 O281 1.255 . S
O275 Fe264 1.976 . S
O275 C282 1.287 . S
O276 Fe265 1.996 . S
O276 C282 1.255 . S
O277 Fe267 1.976 . S
O277 C272 1.287 . S
O278 Fe264 1.996 . S
O278 C272 1.255 . S
C279 O283 1.295 . S
C279 O284 1.235 . S
O280 Fe265 1.976 . S
O280 C274 1.287 . S
O281 Fe267 1.996 . S
O281 C274 1.255 . S
C282 O275 1.287 . S
C282 O276 1.255 . S
O283 Fe265 2.002 . S
O283 C279 1.295 . S
O284 Fe267 1.997 . S
O284 C279 1.235 . S
C285 O268 1.295 . S
C285 O269 1.235 . S
Fe286 O288 1.918 . S
Fe286 O291 1.997 . S
Fe286 O292 2.002 . S
Fe286 O297 1.976 . S
Fe286 O300 1.996 . S
Fe287 O288 1.918 . S
Fe287 O295 1.997 . S
Fe287 O298 1.996 . S
Fe287 O302 1.976 . S
Fe287 O305 2.002 . S
O288 Fe286 1.918 . S
O288 Fe287 1.918 . S
O288 Fe289 1.918 . S
Fe289 O288 1.918 . S
Fe289 O290 2.002 . S
Fe289 O299 1.976 . S
Fe289 O303 1.996 . S
Fe289 O306 1.997 . S
O290 Fe289 2.002 . S
O290 C307 1.295 . S
O291 Fe286 1.997 . S
O291 C307 1.235 . S
O292 Fe286 2.002 . S
O292 C293 1.295 . S
C293 O292 1.295 . S
C293 O295 1.235 . S
C294 O299 1.287 . S
C294 O300 1.255 . S
O295 Fe287 1.997 . S
O295 C293 1.235 . S
C296 O302 1.287 . S
C296 O303 1.255 . S
O297 Fe286 1.976 . S
O297 C304 1.287 . S
O298 Fe287 1.996 . S
O298 C304 1.255 . S
O299 Fe289 1.976 . S
O299 C294 1.287 . S
O300 Fe286 1.996 . S
O300 C294 1.255 . S
C301 O305 1.295 . S
C301 O306 1.235 . S
O302 Fe287 1.976 . S
O302 C296 1.287 . S
O303 Fe289 1.996 . S
O303 C296 1.255 . S
C304 O297 1.287 . S
C304 O298 1.255 . S
O305 Fe287 2.002 . S
O305 C301 1.295 . S
O306 Fe289 1.997 . S
O306 C301 1.235 . S
C307 O290 1.295 . S
C307 O291 1.235 . S
Fe308 O310 1.918 . S
Fe308 O313 1.997 . S
Fe308 O314 2.002 . S
Fe308 O319 1.976 . S
Fe308 O322 1.996 . S
Fe309 O310 1.918 . S
Fe309 O317 1.997 . S
Fe309 O320 1.996 . S
Fe309 O324 1.976 . S
Fe309 O327 2.002 . S
O310 Fe308 1.918 . S
O310 Fe309 1.918 . S
O310 Fe311 1.918 . S
Fe311 O310 1.918 . S
Fe311 O312 2.002 . S
Fe311 O321 1.976 . S
Fe311 O325 1.996 . S
Fe311 O328 1.997 . S
O312 Fe311 2.002 . S
O312 C329 1.295 . S
O313 Fe308 1.997 . S
O313 C329 1.235 . S
O314 Fe308 2.002 . S
O314 C315 1.295 . S
C315 O314 1.295 . S
C315 O317 1.235 . S
C316 O321 1.287 . S
C316 O322 1.255 . S
O317 Fe309 1.997 . S
O317 C315 1.235 . S
C318 O324 1.287 . S
C318 O325 1.255 . S
O319 Fe308 1.976 . S
O319 C326 1.287 . S
O320 Fe309 1.996 . S
O320 C326 1.255 . S
O321 Fe311 1.976 . S
O321 C316 1.287 . S
O322 Fe308 1.996 . S
O322 C316 1.255 . S
C323 O327 1.295 . S
C323 O328 1.235 . S
O324 Fe309 1.976 . S
O324 C318 1.287 . S
O325 Fe311 1.996 . S
O325 C318 1.255 . S
C326 O319 1.287 . S
C326 O320 1.255 . S
O327 Fe309 2.002 . S
O327 C323 1.295 . S
O328 Fe311 1.997 . S
O328 C323 1.235 . S
C329 O312 1.295 . S
C329 O313 1.235 . S
Fe330 O332 1.918 . S
Fe330 O335 1.997 . S
Fe330 O336 2.002 . S
Fe330 O341 1.976 . S
Fe330 O344 1.996 . S
Fe331 O332 1.918 . S
Fe331 O339 1.997 . S
Fe331 O342 1.996 . S
Fe331 O346 1.976 . S
Fe331 O349 2.002 . S
O332 Fe330 1.918 . S
O332 Fe331 1.918 . S
O332 Fe333 1.918 . S
Fe333 O332 1.918 . S
Fe333 O334 2.002 . S
Fe333 O343 1.976 . S
Fe333 O347 1.996 . S
Fe333 O350 1.997 . S
O334 Fe333 2.002 . S
O334 C351 1.295 . S
O335 Fe330 1.997 . S
O335 C351 1.235 . S
O336 Fe330 2.002 . S
O336 C337 1.295 . S
C337 O336 1.295 . S
C337 O339 1.235 . S
C338 O343 1.287 . S
C338 O344 1.255 . S
O339 Fe331 1.997 . S
O339 C337 1.235 . S
C340 O346 1.287 . S
C340 O347 1.255 . S
O341 Fe330 1.976 . S
O341 C348 1.287 . S
O342 Fe331 1.996 . S
O342 C348 1.255 . S
O343 Fe333 1.976 . S
O343 C338 1.287 . S
O344 Fe330 1.996 . S
O344 C338 1.255 . S
C345 O349 1.295 . S
C345 O350 1.235 . S
O346 Fe331 1.976 . S
O346 C340 1.287 . S
O347 Fe333 1.996 . S
O347 C340 1.255 . S
C348 O341 1.287 . S
C348 O342 1.255 . S
O349 Fe331 2.002 . S
O349 C345 1.295 . S
O350 Fe333 1.997 . S
O350 C345 1.235 . S
C351 O334 1.295 . S
C351 O335 1.235 . S
H352 C364 0.930 . S
H353 C366 0.930 . S
H354 C367 0.930 . S
H355 C371 0.959 . S
H356 C371 0.959 . S
H357 C371 0.961 . S
H358 C372 0.960 . S
H359 C372 0.961 . S
H360 C372 0.959 . S
H361 C375 0.929 . S
H362 C376 0.931 . S
H363 C378 0.930 . S
C364 H352 0.930 . S
C364 C365 1.399 . S
C364 C369 1.399 . S
C365 C364 1.399 . S
C365 C366 1.376 . S
C366 H353 0.930 . S
C366 C365 1.376 . S
C366 C367 1.388 . S
C367 H354 0.930 . S
C367 C366 1.388 . S
C367 C368 1.390 . S
C368 C367 1.390 . S
C368 C369 1.394 . S
C368 C374 1.465 . S
C369 C364 1.399 . S
C369 C368 1.394 . S
C369 C370 1.516 . S
C370 C369 1.516 . S
C370 C371 1.502 . S
C370 C372 1.561 . S
C370 C373 1.526 . S
C371 H355 0.959 . S
C371 H356 0.959 . S
C371 H357 0.961 . S
C371 C370 1.502 . S
C372 H358 0.960 . S
C372 H359 0.961 . S
C372 H360 0.959 . S
C372 C370 1.561 . S
C373 C370 1.526 . S
C373 C374 1.396 . S
C373 C378 1.390 . S
C374 C368 1.465 . S
C374 C373 1.396 . S
C374 C375 1.399 . S
C375 H361 0.929 . S
C375 C374 1.399 . S
C375 C376 1.385 . S
C376 H362 0.931 . S
C376 C375 1.385 . S
C376 C377 1.389 . S
C377 C376 1.389 . S
C377 C378 1.387 . S
C378 H363 0.930 . S
C378 C373 1.390 . S
C378 C377 1.387 . S
H379 C391 0.930 . S
H380 C393 0.930 . S
H381 C394 0.930 . S
H382 C398 0.959 . S
H383 C398 0.959 . S
H384 C398 0.961 . S
H385 C399 0.960 . S
H386 C399 0.961 . S
H387 C399 0.959 . S
H388 C402 0.929 . S
H389 C403 0.931 . S
H390 C405 0.930 . S
C391 H379 0.930 . S
C391 C392 1.399 . S
C391 C396 1.399 . S
C392 C391 1.399 . S
C392 C393 1.376 . S
C393 H380 0.930 . S
C393 C392 1.376 . S
C393 C394 1.388 . S
C394 H381 0.930 . S
C394 C393 1.388 . S
C394 C395 1.390 . S
C395 C394 1.390 . S
C395 C396 1.394 . S
C395 C401 1.465 . S
C396 C391 1.399 . S
C396 C395 1.394 . S
C396 C397 1.516 . S
C397 C396 1.516 . S
C397 C398 1.502 . S
C397 C399 1.561 . S
C397 C400 1.526 . S
C398 H382 0.959 . S
C398 H383 0.959 . S
C398 H384 0.961 . S
C398 C397 1.502 . S
C399 H385 0.960 . S
C399 H386 0.961 . S
C399 H387 0.959 . S
C399 C397 1.561 . S
C400 C397 1.526 . S
C400 C401 1.396 . S
C400 C405 1.390 . S
C401 C395 1.465 . S
C401 C400 1.396 . S
C401 C402 1.399 . S
C402 H388 0.929 . S
C402 C401 1.399 . S
C402 C403 1.385 . S
C403 H389 0.931 . S
C403 C402 1.385 . S
C403 C404 1.389 . S
C404 C403 1.389 . S
C404 C405 1.387 . S
C405 H390 0.930 . S
C405 C400 1.390 . S
C405 C404 1.387 . S
H406 C418 0.930 . S
H407 C420 0.930 . S
H408 C421 0.930 . S
H409 C425 0.959 . S
H410 C425 0.959 . S
H411 C425 0.961 . S
H412 C426 0.960 . S
H413 C426 0.961 . S
H414 C426 0.959 . S
H415 C429 0.929 . S
H416 C430 0.931 . S
H417 C432 0.930 . S
C418 H406 0.930 . S
C418 C419 1.399 . S
C418 C423 1.399 . S
C419 C418 1.399 . S
C419 C420 1.376 . S
C420 H407 0.930 . S
C420 C419 1.376 . S
C420 C421 1.388 . S
C421 H408 0.930 . S
C421 C420 1.388 . S
C421 C422 1.390 . S
C422 C421 1.390 . S
C422 C423 1.394 . S
C422 C428 1.465 . S
C423 C418 1.399 . S
C423 C422 1.394 . S
C423 C424 1.516 . S
C424 C423 1.516 . S
C424 C425 1.502 . S
C424 C426 1.561 . S
C424 C427 1.526 . S
C425 H409 0.959 . S
C425 H410 0.959 . S
C425 H411 0.961 . S
C425 C424 1.502 . S
C426 H412 0.960 . S
C426 H413 0.961 . S
C426 H414 0.959 . S
C426 C424 1.561 . S
C427 C424 1.526 . S
C427 C428 1.396 . S
C427 C432 1.390 . S
C428 C422 1.465 . S
C428 C427 1.396 . S
C428 C429 1.399 . S
C429 H415 0.929 . S
C429 C428 1.399 . S
C429 C430 1.385 . S
C430 H416 0.931 . S
C430 C429 1.385 . S
C430 C431 1.389 . S
C431 C430 1.389 . S
C431 C432 1.387 . S
C432 H417 0.930 . S
C432 C427 1.390 . S
C432 C431 1.387 . S
H433 C445 0.930 . S
H434 C447 0.930 . S
H435 C448 0.930 . S
H436 C452 0.959 . S
H437 C452 0.959 . S
H438 C452 0.961 . S
H439 C453 0.960 . S
H440 C453 0.961 . S
H441 C453 0.959 . S
H442 C456 0.929 . S
H443 C457 0.931 . S
H444 C459 0.930 . S
C445 H433 0.930 . S
C445 C446 1.399 . S
C445 C450 1.399 . S
C446 C445 1.399 . S
C446 C447 1.376 . S
C447 H434 0.930 . S
C447 C446 1.376 . S
C447 C448 1.388 . S
C448 H435 0.930 . S
C448 C447 1.388 . S
C448 C449 1.390 . S
C449 C448 1.390 . S
C449 C450 1.394 . S
C449 C455 1.465 . S
C450 C445 1.399 . S
C450 C449 1.394 . S
C450 C451 1.516 . S
C451 C450 1.516 . S
C451 C452 1.502 . S
C451 C453 1.561 . S
C451 C454 1.526 . S
C452 H436 0.959 . S
C452 H437 0.959 . S
C452 H438 0.961 . S
C452 C451 1.502 . S
C453 H439 0.960 . S
C453 H440 0.961 . S
C453 H441 0.959 . S
C453 C451 1.561 . S
C454 C451 1.526 . S
C454 C455 1.396 . S
C454 C459 1.390 . S
C455 C449 1.465 . S
C455 C454 1.396 . S
C455 C456 1.399 . S
C456 H442 0.929 . S
C456 C455 1.399 . S
C456 C457 1.385 . S
C457 H443 0.931 . S
C457 C456 1.385 . S
C457 C458 1.389 . S
C458 C457 1.389 . S
C458 C459 1.387 . S
C459 H444 0.930 . S
C459 C454 1.390 . S
C459 C458 1.387 . S
H460 C472 0.930 . S
H461 C474 0.919 1_545 S
H462 C475 0.930 . S
H463 C479 0.959 . S
H464 C479 0.959 . S
H465 C479 0.961 . S
H466 C480 0.960 . S
H467 C480 0.961 . S
H468 C480 0.959 . S
H469 C483 0.929 . S
H470 C484 0.931 . S
H471 C486 0.930 . S
C472 H460 0.930 . S
C472 C473 1.399 . S
C472 C477 1.399 . S
C473 C472 1.399 . S
C473 C474 1.376 . S
C474 H461 0.919 1_565 S
C474 C473 1.376 . S
C474 C475 1.388 . S
C475 H462 0.930 . S
C475 C474 1.388 . S
C475 C476 1.390 . S
C476 C475 1.390 . S
C476 C477 1.394 . S
C476 C482 1.465 . S
C477 C472 1.399 . S
C477 C476 1.394 . S
C477 C478 1.516 . S
C478 C477 1.516 . S
C478 C479 1.502 . S
C478 C480 1.561 . S
C478 C481 1.526 . S
C479 H463 0.959 . S
C479 H464 0.959 . S
C479 H465 0.961 . S
C479 C478 1.502 . S
C480 H466 0.960 . S
C480 H467 0.961 . S
C480 H468 0.959 . S
C480 C478 1.561 . S
C481 C478 1.526 . S
C481 C482 1.396 . S
C481 C486 1.390 . S
C482 C476 1.465 . S
C482 C481 1.396 . S
C482 C483 1.399 . S
C483 H469 0.929 . S
C483 C482 1.399 . S
C483 C484 1.385 . S
C484 H470 0.931 . S
C484 C483 1.385 . S
C484 C485 1.389 . S
C485 C484 1.389 . S
C485 C486 1.387 . S
C486 H471 0.930 . S
C486 C481 1.390 . S
C486 C485 1.387 . S
H487 C499 0.930 . S
H488 C501 0.930 . S
H489 C502 0.930 . S
H490 C506 0.959 . S
H491 C506 0.959 . S
H492 C506 0.961 . S
H493 C507 0.960 . S
H494 C507 0.961 . S
H495 C507 0.959 . S
H496 C510 0.929 . S
H497 C511 0.931 . S
H498 C513 0.930 . S
C499 H487 0.930 . S
C499 C500 1.399 . S
C499 C504 1.399 . S
C500 C499 1.399 . S
C500 C501 1.376 . S
C501 H488 0.930 . S
C501 C500 1.376 . S
C501 C502 1.388 . S
C502 H489 0.930 . S
C502 C501 1.388 . S
C502 C503 1.390 . S
C503 C502 1.390 . S
C503 C504 1.394 . S
C503 C509 1.465 . S
C504 C499 1.399 . S
C504 C503 1.394 . S
C504 C505 1.516 . S
C505 C504 1.516 . S
C505 C506 1.502 . S
C505 C507 1.561 . S
C505 C508 1.526 . S
C506 H490 0.959 . S
C506 H491 0.959 . S
C506 H492 0.961 . S
C506 C505 1.502 . S
C507 H493 0.960 . S
C507 H494 0.961 . S
C507 H495 0.959 . S
C507 C505 1.561 . S
C508 C505 1.526 . S
C508 C509 1.396 . S
C508 C513 1.390 . S
C509 C503 1.465 . S
C509 C508 1.396 . S
C509 C510 1.399 . S
C510 H496 0.929 . S
C510 C509 1.399 . S
C510 C511 1.385 . S
C511 H497 0.931 . S
C511 C510 1.385 . S
C511 C512 1.389 . S
C512 C511 1.389 . S
C512 C513 1.387 . S
C513 H498 0.930 . S
C513 C508 1.390 . S
C513 C512 1.387 . S
H514 C526 0.930 . S
H515 C528 0.930 . S
H516 C529 0.930 . S
H517 C533 0.959 . S
H518 C533 0.959 . S
H519 C533 0.961 . S
H520 C534 0.960 . S
H521 C534 0.961 . S
H522 C534 0.959 . S
H523 C537 0.929 . S
H524 C538 0.931 . S
H525 C540 0.930 . S
C526 H514 0.930 . S
C526 C527 1.399 . S
C526 C531 1.399 . S
C527 C526 1.399 . S
C527 C528 1.376 . S
C528 H515 0.930 . S
C528 C527 1.376 . S
C528 C529 1.388 . S
C529 H516 0.930 . S
C529 C528 1.388 . S
C529 C530 1.390 . S
C530 C529 1.390 . S
C530 C531 1.394 . S
C530 C536 1.465 . S
C531 C526 1.399 . S
C531 C530 1.394 . S
C531 C532 1.516 . S
C532 C531 1.516 . S
C532 C533 1.502 . S
C532 C534 1.561 . S
C532 C535 1.526 . S
C533 H517 0.959 . S
C533 H518 0.959 . S
C533 H519 0.961 . S
C533 C532 1.502 . S
C534 H520 0.960 . S
C534 H521 0.961 . S
C534 H522 0.959 . S
C534 C532 1.561 . S
C535 C532 1.526 . S
C535 C536 1.396 . S
C535 C540 1.390 . S
C536 C530 1.465 . S
C536 C535 1.396 . S
C536 C537 1.399 . S
C537 H523 0.929 . S
C537 C536 1.399 . S
C537 C538 1.385 . S
C538 H524 0.931 . S
C538 C537 1.385 . S
C538 C539 1.389 . S
C539 C538 1.389 . S
C539 C540 1.387 . S
C540 H525 0.930 . S
C540 C535 1.390 . S
C540 C539 1.387 . S
H541 C553 0.930 . S
H542 C555 0.930 . S
H543 C556 0.930 . S
H544 C560 0.959 . S
H545 C560 0.959 . S
H546 C560 0.961 . S
H547 C561 0.960 . S
H548 C561 0.961 . S
H549 C561 0.959 . S
H550 C564 0.929 . S
H551 C565 0.931 . S
H552 C567 0.930 . S
C553 H541 0.930 . S
C553 C554 1.399 . S
C553 C558 1.399 . S
C554 C553 1.399 . S
C554 C555 1.376 . S
C555 H542 0.930 . S
C555 C554 1.376 . S
C555 C556 1.388 . S
C556 H543 0.930 . S
C556 C555 1.388 . S
C556 C557 1.390 . S
C557 C556 1.390 . S
C557 C558 1.394 . S
C557 C563 1.465 . S
C558 C553 1.399 . S
C558 C557 1.394 . S
C558 C559 1.516 . S
C559 C558 1.516 . S
C559 C560 1.502 . S
C559 C561 1.561 . S
C559 C562 1.526 . S
C560 H544 0.959 . S
C560 H545 0.959 . S
C560 H546 0.961 . S
C560 C559 1.502 . S
C561 H547 0.960 . S
C561 H548 0.961 . S
C561 H549 0.959 . S
C561 C559 1.561 . S
C562 C559 1.526 . S
C562 C563 1.396 . S
C562 C567 1.390 . S
C563 C557 1.465 . S
C563 C562 1.396 . S
C563 C564 1.399 . S
C564 H550 0.929 . S
C564 C563 1.399 . S
C564 C565 1.385 . S
C565 H551 0.931 . S
C565 C564 1.385 . S
C565 C566 1.389 . S
C566 C565 1.389 . S
C566 C567 1.387 . S
C567 H552 0.930 . S
C567 C562 1.390 . S
C567 C566 1.387 . S
H568 C580 0.930 . S
H569 C582 0.930 . S
H570 C583 0.930 . S
H571 C587 0.959 . S
H572 C587 0.959 . S
H573 C587 0.961 . S
H574 C588 0.960 . S
H575 C588 0.961 . S
H576 C588 0.959 . S
H577 C591 0.929 . S
H578 C592 0.931 . S
H579 C594 0.930 . S
C580 H568 0.930 . S
C580 C581 1.399 . S
C580 C585 1.399 . S
C581 C580 1.399 . S
C581 C582 1.376 . S
C582 H569 0.930 . S
C582 C581 1.376 . S
C582 C583 1.388 . S
C583 H570 0.930 . S
C583 C582 1.388 . S
C583 C584 1.390 . S
C584 C583 1.390 . S
C584 C585 1.394 . S
C584 C590 1.465 . S
C585 C580 1.399 . S
C585 C584 1.394 . S
C585 C586 1.516 . S
C586 C585 1.516 . S
C586 C587 1.502 . S
C586 C588 1.561 . S
C586 C589 1.526 . S
C587 H571 0.959 . S
C587 H572 0.959 . S
C587 H573 0.961 . S
C587 C586 1.502 . S
C588 H574 0.960 . S
C588 H575 0.961 . S
C588 H576 0.959 . S
C588 C586 1.561 . S
C589 C586 1.526 . S
C589 C590 1.396 . S
C589 C594 1.390 . S
C590 C584 1.465 . S
C590 C589 1.396 . S
C590 C591 1.399 . S
C591 H577 0.929 . S
C591 C590 1.399 . S
C591 C592 1.385 . S
C592 H578 0.931 . S
C592 C591 1.385 . S
C592 C593 1.389 . S
C593 C592 1.389 . S
C593 C594 1.387 . S
C594 H579 0.930 . S
C594 C589 1.390 . S
C594 C593 1.387 . S
H595 C607 0.930 . S
H596 C609 0.930 1_655 S
H597 C610 0.930 . S
H598 C614 0.959 . S
H599 C614 0.959 . S
H600 C614 0.961 . S
H601 C615 0.960 . S
H602 C615 0.961 . S
H603 C615 0.959 . S
H604 C618 0.929 . S
H605 C619 0.931 . S
H606 C621 0.930 . S
C607 H595 0.930 . S
C607 C608 1.399 . S
C607 C612 1.399 . S
C608 C607 1.399 . S
C608 C609 1.376 . S
C609 H596 0.930 1_455 S
C609 C608 1.376 . S
C609 C610 1.388 . S
C610 H597 0.930 . S
C610 C609 1.388 . S
C610 C611 1.390 . S
C611 C610 1.390 . S
C611 C612 1.394 . S
C611 C617 1.465 . S
C612 C607 1.399 . S
C612 C611 1.394 . S
C612 C613 1.516 . S
C613 C612 1.516 . S
C613 C614 1.502 . S
C613 C615 1.561 . S
C613 C616 1.526 . S
C614 H598 0.959 . S
C614 H599 0.959 . S
C614 H600 0.961 . S
C614 C613 1.502 . S
C615 H601 0.960 . S
C615 H602 0.961 . S
C615 H603 0.959 . S
C615 C613 1.561 . S
C616 C613 1.526 . S
C616 C617 1.396 . S
C616 C621 1.390 . S
C617 C611 1.465 . S
C617 C616 1.396 . S
C617 C618 1.399 . S
C618 H604 0.929 . S
C618 C617 1.399 . S
C618 C619 1.385 . S
C619 H605 0.931 . S
C619 C618 1.385 . S
C619 C620 1.389 . S
C620 C619 1.389 . S
C620 C621 1.387 . S
C621 H606 0.930 . S
C621 C616 1.390 . S
C621 C620 1.387 . S
H622 C634 0.930 . S
H623 C636 0.930 . S
H624 C637 0.930 . S
H625 C641 0.959 . S
H626 C641 0.959 . S
H627 C641 0.961 . S
H628 C642 0.960 . S
H629 C642 0.961 . S
H630 C642 0.959 . S
H631 C645 0.929 . S
H632 C646 0.931 . S
H633 C648 0.930 . S
C634 H622 0.930 . S
C634 C635 1.399 . S
C634 C639 1.399 . S
C635 C634 1.399 . S
C635 C636 1.376 . S
C636 H623 0.930 . S
C636 C635 1.376 . S
C636 C637 1.388 . S
C637 H624 0.930 . S
C637 C636 1.388 . S
C637 C638 1.390 . S
C638 C637 1.390 . S
C638 C639 1.394 . S
C638 C644 1.465 . S
C639 C634 1.399 . S
C639 C638 1.394 . S
C639 C640 1.516 . S
C640 C639 1.516 . S
C640 C641 1.502 . S
C640 C642 1.561 . S
C640 C643 1.526 . S
C641 H625 0.959 . S
C641 H626 0.959 . S
C641 H627 0.961 . S
C641 C640 1.502 . S
C642 H628 0.960 . S
C642 H629 0.961 . S
C642 H630 0.959 . S
C642 C640 1.561 . S
C643 C640 1.526 . S
C643 C644 1.396 . S
C643 C648 1.390 . S
C644 C638 1.465 . S
C644 C643 1.396 . S
C644 C645 1.399 . S
C645 H631 0.929 . S
C645 C644 1.399 . S
C645 C646 1.385 . S
C646 H632 0.931 . S
C646 C645 1.385 . S
C646 C647 1.389 . S
C647 C646 1.389 . S
C647 C648 1.387 . S
C648 H633 0.930 . S
C648 C643 1.390 . S
C648 C647 1.387 . S
H649 C661 0.930 . S
H650 C663 0.930 . S
H651 C664 0.930 . S
H652 C668 0.959 . S
H653 C668 0.959 . S
H654 C668 0.961 . S
H655 C669 0.960 . S
H656 C669 0.961 . S
H657 C669 0.959 . S
H658 C672 0.929 . S
H659 C673 0.931 . S
H660 C675 0.930 . S
C661 H649 0.930 . S
C661 C662 1.399 . S
C661 C666 1.399 . S
C662 C661 1.399 . S
C662 C663 1.376 . S
C663 H650 0.930 . S
C663 C662 1.376 . S
C663 C664 1.388 . S
C664 H651 0.930 . S
C664 C663 1.388 . S
C664 C665 1.390 . S
C665 C664 1.390 . S
C665 C666 1.394 . S
C665 C671 1.465 . S
C666 C661 1.399 . S
C666 C665 1.394 . S
C666 C667 1.516 . S
C667 C666 1.516 . S
C667 C668 1.502 . S
C667 C669 1.561 . S
C667 C670 1.526 . S
C668 H652 0.959 . S
C668 H653 0.959 . S
C668 H654 0.961 . S
C668 C667 1.502 . S
C669 H655 0.960 . S
C669 H656 0.961 . S
C669 H657 0.959 . S
C669 C667 1.561 . S
C670 C667 1.526 . S
C670 C671 1.396 . S
C670 C675 1.390 . S
C671 C665 1.465 . S
C671 C670 1.396 . S
C671 C672 1.399 . S
C672 H658 0.929 . S
C672 C671 1.399 . S
C672 C673 1.385 . S
C673 H659 0.931 . S
C673 C672 1.385 . S
C673 C674 1.389 . S
C674 C673 1.389 . S
C674 C675 1.387 . S
C675 H660 0.930 . S
C675 C670 1.390 . S
C675 C674 1.387 . S
H676 C688 0.930 . S
H677 C690 0.930 . S
H678 C691 0.930 . S
H679 C695 0.959 . S
H680 C695 0.959 . S
H681 C695 0.961 . S
H682 C696 0.960 . S
H683 C696 0.961 . S
H684 C696 0.959 . S
H685 C699 0.929 . S
H686 C700 0.931 . S
H687 C702 0.930 . S
C688 H676 0.930 . S
C688 C689 1.399 . S
C688 C693 1.399 . S
C689 C688 1.399 . S
C689 C690 1.376 . S
C690 H677 0.930 . S
C690 C689 1.376 . S
C690 C691 1.388 . S
C691 H678 0.930 . S
C691 C690 1.388 . S
C691 C692 1.390 . S
C692 C691 1.390 . S
C692 C693 1.394 . S
C692 C698 1.465 . S
C693 C688 1.399 . S
C693 C692 1.394 . S
C693 C694 1.516 . S
C694 C693 1.516 . S
C694 C695 1.502 . S
C694 C696 1.561 . S
C694 C697 1.526 . S
C695 H679 0.959 . S
C695 H680 0.959 . S
C695 H681 0.961 . S
C695 C694 1.502 . S
C696 H682 0.960 . S
C696 H683 0.961 . S
C696 H684 0.959 . S
C696 C694 1.561 . S
C697 C694 1.526 . S
C697 C698 1.396 . S
C697 C702 1.390 . S
C698 C692 1.465 . S
C698 C697 1.396 . S
C698 C699 1.399 . S
C699 H685 0.929 . S
C699 C698 1.399 . S
C699 C700 1.385 . S
C700 H686 0.931 . S
C700 C699 1.385 . S
C700 C701 1.389 . S
C701 C700 1.389 . S
C701 C702 1.387 . S
C702 H687 0.930 . S
C702 C697 1.390 . S
C702 C701 1.387 . S
H703 C715 0.930 . S
H704 C717 0.930 1_455 S
H705 C718 0.930 . S
H706 C722 0.959 . S
H707 C722 0.959 . S
H708 C722 0.961 . S
H709 C723 0.960 . S
H710 C723 0.961 . S
H711 C723 0.959 . S
H712 C726 0.929 . S
H713 C727 0.931 . S
H714 C729 0.930 . S
C715 H703 0.930 . S
C715 C716 1.399 . S
C715 C720 1.399 . S
C716 C715 1.399 . S
C716 C717 1.376 . S
C717 H704 0.930 1_655 S
C717 C716 1.376 . S
C717 C718 1.388 . S
C718 H705 0.930 . S
C718 C717 1.388 . S
C718 C719 1.390 . S
C719 C718 1.390 . S
C719 C720 1.394 . S
C719 C725 1.465 . S
C720 C715 1.399 . S
C720 C719 1.394 . S
C720 C721 1.516 . S
C721 C720 1.516 . S
C721 C722 1.502 . S
C721 C723 1.561 . S
C721 C724 1.526 . S
C722 H706 0.959 . S
C722 H707 0.959 . S
C722 H708 0.961 . S
C722 C721 1.502 . S
C723 H709 0.960 . S
C723 H710 0.961 . S
C723 H711 0.959 . S
C723 C721 1.561 . S
C724 C721 1.526 . S
C724 C725 1.396 . S
C724 C729 1.390 . S
C725 C719 1.465 . S
C725 C724 1.396 . S
C725 C726 1.399 . S
C726 H712 0.929 . S
C726 C725 1.399 . S
C726 C727 1.385 . S
C727 H713 0.931 . S
C727 C726 1.385 . S
C727 C728 1.389 . S
C728 C727 1.389 . S
C728 C729 1.387 . S
C729 H714 0.930 . S
C729 C724 1.390 . S
C729 C728 1.387 . S
H730 C742 0.930 . S
H731 C744 0.930 . S
H732 C745 0.930 . S
H733 C749 0.959 . S
H734 C749 0.959 . S
H735 C749 0.961 . S
H736 C750 0.960 . S
H737 C750 0.961 . S
H738 C750 0.959 . S
H739 C753 0.929 . S
H740 C754 0.931 . S
H741 C756 0.930 . S
C742 H730 0.930 . S
C742 C743 1.399 . S
C742 C747 1.399 . S
C743 C742 1.399 . S
C743 C744 1.376 . S
C744 H731 0.930 . S
C744 C743 1.376 . S
C744 C745 1.388 . S
C745 H732 0.930 . S
C745 C744 1.388 . S
C745 C746 1.390 . S
C746 C745 1.390 . S
C746 C747 1.394 . S
C746 C752 1.465 . S
C747 C742 1.399 . S
C747 C746 1.394 . S
C747 C748 1.516 . S
C748 C747 1.516 . S
C748 C749 1.502 . S
C748 C750 1.561 . S
C748 C751 1.526 . S
C749 H733 0.959 . S
C749 H734 0.959 . S
C749 H735 0.961 . S
C749 C748 1.502 . S
C750 H736 0.960 . S
C750 H737 0.961 . S
C750 H738 0.959 . S
C750 C748 1.561 . S
C751 C748 1.526 . S
C751 C752 1.396 . S
C751 C756 1.390 . S
C752 C746 1.465 . S
C752 C751 1.396 . S
C752 C753 1.399 . S
C753 H739 0.929 . S
C753 C752 1.399 . S
C753 C754 1.385 . S
C754 H740 0.931 . S
C754 C753 1.385 . S
C754 C755 1.389 . S
C755 C754 1.389 . S
C755 C756 1.387 . S
C756 H741 0.930 . S
C756 C751 1.390 . S
C756 C755 1.387 . S
H757 C769 0.930 . S
H758 C771 0.930 . S
H759 C772 0.930 . S
H760 C776 0.959 . S
H761 C776 0.959 . S
H762 C776 0.961 . S
H763 C777 0.960 . S
H764 C777 0.961 . S
H765 C777 0.959 . S
H766 C780 0.929 . S
H767 C781 0.931 . S
H768 C783 0.930 . S
C769 H757 0.930 . S
C769 C770 1.399 . S
C769 C774 1.399 . S
C770 C769 1.399 . S
C770 C771 1.376 . S
C771 H758 0.930 . S
C771 C770 1.376 . S
C771 C772 1.388 . S
C772 H759 0.930 . S
C772 C771 1.388 . S
C772 C773 1.390 . S
C773 C772 1.390 . S
C773 C774 1.394 . S
C773 C779 1.465 . S
C774 C769 1.399 . S
C774 C773 1.394 . S
C774 C775 1.516 . S
C775 C774 1.516 . S
C775 C776 1.502 . S
C775 C777 1.561 . S
C775 C778 1.526 . S
C776 H760 0.959 . S
C776 H761 0.959 . S
C776 H762 0.961 . S
C776 C775 1.502 . S
C777 H763 0.960 . S
C777 H764 0.961 . S
C777 H765 0.959 . S
C777 C775 1.561 . S
C778 C775 1.526 . S
C778 C779 1.396 . S
C778 C783 1.390 . S
C779 C773 1.465 . S
C779 C778 1.396 . S
C779 C780 1.399 . S
C780 H766 0.929 . S
C780 C779 1.399 . S
C780 C781 1.385 . S
C781 H767 0.931 . S
C781 C780 1.385 . S
C781 C782 1.389 . S
C782 C781 1.389 . S
C782 C783 1.387 . S
C783 H768 0.930 . S
C783 C778 1.390 . S
C783 C782 1.387 . S
H784 C796 0.930 . S
H785 C798 0.930 . S
H786 C799 0.930 . S
H787 C803 0.959 . S
H788 C803 0.959 . S
H789 C803 0.961 . S
H790 C804 0.960 . S
H791 C804 0.961 . S
H792 C804 0.959 . S
H793 C807 0.929 . S
H794 C808 0.931 . S
H795 C810 0.930 . S
C796 H784 0.930 . S
C796 C797 1.399 . S
C796 C801 1.399 . S
C797 C796 1.399 . S
C797 C798 1.376 . S
C798 H785 0.930 . S
C798 C797 1.376 . S
C798 C799 1.388 . S
C799 H786 0.930 . S
C799 C798 1.388 . S
C799 C800 1.390 . S
C800 C799 1.390 . S
C800 C801 1.394 . S
C800 C806 1.465 . S
C801 C796 1.399 . S
C801 C800 1.394 . S
C801 C802 1.516 . S
C802 C801 1.516 . S
C802 C803 1.502 . S
C802 C804 1.561 . S
C802 C805 1.526 . S
C803 H787 0.959 . S
C803 H788 0.959 . S
C803 H789 0.961 . S
C803 C802 1.502 . S
C804 H790 0.960 . S
C804 H791 0.961 . S
C804 H792 0.959 . S
C804 C802 1.561 . S
C805 C802 1.526 . S
C805 C806 1.396 . S
C805 C810 1.390 . S
C806 C800 1.465 . S
C806 C805 1.396 . S
C806 C807 1.399 . S
C807 H793 0.929 . S
C807 C806 1.399 . S
C807 C808 1.385 . S
C808 H794 0.931 . S
C808 C807 1.385 . S
C808 C809 1.389 . S
C809 C808 1.389 . S
C809 C810 1.387 . S
C810 H795 0.930 . S
C810 C805 1.390 . S
C810 C809 1.387 . S
H811 C823 0.930 . S
H812 C825 0.930 . S
H813 C826 0.930 . S
H814 C830 0.959 . S
H815 C830 0.959 . S
H816 C830 0.961 . S
H817 C831 0.960 . S
H818 C831 0.961 . S
H819 C831 0.959 . S
H820 C834 0.929 . S
H821 C835 0.931 . S
H822 C837 0.930 . S
C823 H811 0.930 . S
C823 C824 1.399 . S
C823 C828 1.399 . S
C824 C823 1.399 . S
C824 C825 1.376 . S
C825 H812 0.930 . S
C825 C824 1.376 . S
C825 C826 1.388 . S
C826 H813 0.930 . S
C826 C825 1.388 . S
C826 C827 1.390 . S
C827 C826 1.390 . S
C827 C828 1.394 . S
C827 C833 1.465 . S
C828 C823 1.399 . S
C828 C827 1.394 . S
C828 C829 1.516 . S
C829 C828 1.516 . S
C829 C830 1.502 . S
C829 C831 1.561 . S
C829 C832 1.526 . S
C830 H814 0.959 . S
C830 H815 0.959 . S
C830 H816 0.961 . S
C830 C829 1.502 . S
C831 H817 0.960 . S
C831 H818 0.961 . S
C831 H819 0.959 . S
C831 C829 1.561 . S
C832 C829 1.526 . S
C832 C833 1.396 . S
C832 C837 1.390 . S
C833 C827 1.465 . S
C833 C832 1.396 . S
C833 C834 1.399 . S
C834 H820 0.929 . S
C834 C833 1.399 . S
C834 C835 1.385 . S
C835 H821 0.931 . S
C835 C834 1.385 . S
C835 C836 1.389 . S
C836 C835 1.389 . S
C836 C837 1.387 . S
C837 H822 0.930 . S
C837 C832 1.390 . S
C837 C836 1.387 . S
H838 C850 0.930 . S
H839 C852 0.930 . S
H840 C853 0.930 . S
H841 C857 0.959 . S
H842 C857 0.959 . S
H843 C857 0.961 . S
H844 C858 0.960 . S
H845 C858 0.961 . S
H846 C858 0.959 . S
H847 C861 0.929 . S
H848 C862 0.931 . S
H849 C864 0.930 . S
C850 H838 0.930 . S
C850 C851 1.399 . S
C850 C855 1.399 . S
C851 C850 1.399 . S
C851 C852 1.376 . S
C852 H839 0.930 . S
C852 C851 1.376 . S
C852 C853 1.388 . S
C853 H840 0.930 . S
C853 C852 1.388 . S
C853 C854 1.390 . S
C854 C853 1.390 . S
C854 C855 1.394 . S
C854 C860 1.465 . S
C855 C850 1.399 . S
C855 C854 1.394 . S
C855 C856 1.516 . S
C856 C855 1.516 . S
C856 C857 1.502 . S
C856 C858 1.561 . S
C856 C859 1.526 . S
C857 H841 0.959 . S
C857 H842 0.959 . S
C857 H843 0.961 . S
C857 C856 1.502 . S
C858 H844 0.960 . S
C858 H845 0.961 . S
C858 H846 0.959 . S
C858 C856 1.561 . S
C859 C856 1.526 . S
C859 C860 1.396 . S
C859 C864 1.390 . S
C860 C854 1.465 . S
C860 C859 1.396 . S
C860 C861 1.399 . S
C861 H847 0.929 . S
C861 C860 1.399 . S
C861 C862 1.385 . S
C862 H848 0.931 . S
C862 C861 1.385 . S
C862 C863 1.389 . S
C863 C862 1.389 . S
C863 C864 1.387 . S
C864 H849 0.930 . S
C864 C859 1.390 . S
C864 C863 1.387 . S
H865 C877 0.930 . S
H866 C879 0.930 . S
H867 C880 0.930 . S
H868 C884 0.959 . S
H869 C884 0.959 . S
H870 C884 0.961 . S
H871 C885 0.960 . S
H872 C885 0.961 . S
H873 C885 0.959 . S
H874 C888 0.929 . S
H875 C889 0.931 . S
H876 C891 0.930 . S
C877 H865 0.930 . S
C877 C878 1.399 . S
C877 C882 1.399 . S
C878 C877 1.399 . S
C878 C879 1.376 . S
C879 H866 0.930 . S
C879 C878 1.376 . S
C879 C880 1.388 . S
C880 H867 0.930 . S
C880 C879 1.388 . S
C880 C881 1.390 . S
C881 C880 1.390 . S
C881 C882 1.394 . S
C881 C887 1.465 . S
C882 C877 1.399 . S
C882 C881 1.394 . S
C882 C883 1.516 . S
C883 C882 1.516 . S
C883 C884 1.502 . S
C883 C885 1.561 . S
C883 C886 1.526 . S
C884 H868 0.959 . S
C884 H869 0.959 . S
C884 H870 0.961 . S
C884 C883 1.502 . S
C885 H871 0.960 . S
C885 H872 0.961 . S
C885 H873 0.959 . S
C885 C883 1.561 . S
C886 C883 1.526 . S
C886 C887 1.396 . S
C886 C891 1.390 . S
C887 C881 1.465 . S
C887 C886 1.396 . S
C887 C888 1.399 . S
C888 H874 0.929 . S
C888 C887 1.399 . S
C888 C889 1.385 . S
C889 H875 0.931 . S
C889 C888 1.385 . S
C889 C890 1.389 . S
C890 C889 1.389 . S
C890 C891 1.387 . S
C891 H876 0.930 . S
C891 C886 1.390 . S
C891 C890 1.387 . S
H892 C904 0.930 . S
H893 C906 0.930 . S
H894 C907 0.930 . S
H895 C911 0.959 . S
H896 C911 0.959 . S
H897 C911 0.961 . S
H898 C912 0.960 . S
H899 C912 0.961 . S
H900 C912 0.959 . S
H901 C915 0.929 . S
H902 C916 0.931 . S
H903 C918 0.930 . S
C904 H892 0.930 . S
C904 C905 1.399 . S
C904 C909 1.399 . S
C905 C904 1.399 . S
C905 C906 1.376 . S
C906 H893 0.930 . S
C906 C905 1.376 . S
C906 C907 1.388 . S
C907 H894 0.930 . S
C907 C906 1.388 . S
C907 C908 1.390 . S
C908 C907 1.390 . S
C908 C909 1.394 . S
C908 C914 1.465 . S
C909 C904 1.399 . S
C909 C908 1.394 . S
C909 C910 1.516 . S
C910 C909 1.516 . S
C910 C911 1.502 . S
C910 C912 1.561 . S
C910 C913 1.526 . S
C911 H895 0.959 . S
C911 H896 0.959 . S
C911 H897 0.961 . S
C911 C910 1.502 . S
C912 H898 0.960 . S
C912 H899 0.961 . S
C912 H900 0.959 . S
C912 C910 1.561 . S
C913 C910 1.526 . S
C913 C914 1.396 . S
C913 C918 1.390 . S
C914 C908 1.465 . S
C914 C913 1.396 . S
C914 C915 1.399 . S
C915 H901 0.929 . S
C915 C914 1.399 . S
C915 C916 1.385 . S
C916 H902 0.931 . S
C916 C915 1.385 . S
C916 C917 1.389 . S
C917 C916 1.389 . S
C917 C918 1.387 . S
C918 H903 0.930 . S
C918 C913 1.390 . S
C918 C917 1.387 . S
H919 C931 0.930 . S
H920 C933 0.930 . S
H921 C934 0.930 . S
H922 C938 0.959 . S
H923 C938 0.959 . S
H924 C938 0.961 . S
H925 C939 0.960 . S
H926 C939 0.961 . S
H927 C939 0.959 . S
H928 C942 0.929 . S
H929 C943 0.931 . S
H930 C945 0.930 . S
C931 H919 0.930 . S
C931 C932 1.399 . S
C931 C936 1.399 . S
C932 C931 1.399 . S
C932 C933 1.376 . S
C933 H920 0.930 . S
C933 C932 1.376 . S
C933 C934 1.388 . S
C934 H921 0.930 . S
C934 C933 1.388 . S
C934 C935 1.390 . S
C935 C934 1.390 . S
C935 C936 1.394 . S
C935 C941 1.465 . S
C936 C931 1.399 . S
C936 C935 1.394 . S
C936 C937 1.516 . S
C937 C936 1.516 . S
C937 C938 1.502 . S
C937 C939 1.561 . S
C937 C940 1.526 . S
C938 H922 0.959 . S
C938 H923 0.959 . S
C938 H924 0.961 . S
C938 C937 1.502 . S
C939 H925 0.960 . S
C939 H926 0.961 . S
C939 H927 0.959 . S
C939 C937 1.561 . S
C940 C937 1.526 . S
C940 C941 1.396 . S
C940 C945 1.390 . S
C941 C935 1.465 . S
C941 C940 1.396 . S
C941 C942 1.399 . S
C942 H928 0.929 . S
C942 C941 1.399 . S
C942 C943 1.385 . S
C943 H929 0.931 . S
C943 C942 1.385 . S
C943 C944 1.389 . S
C944 C943 1.389 . S
C944 C945 1.387 . S
C945 H930 0.930 . S
C945 C940 1.390 . S
C945 C944 1.387 . S
H946 C958 0.930 . S
H947 C960 0.930 . S
H948 C961 0.930 . S
H949 C965 0.959 . S
H950 C965 0.959 . S
H951 C965 0.961 . S
H952 C966 0.960 . S
H953 C966 0.961 . S
H954 C966 0.959 . S
H955 C969 0.929 . S
H956 C970 0.931 . S
H957 C972 0.930 . S
C958 H946 0.930 . S
C958 C959 1.399 . S
C958 C963 1.399 . S
C959 C958 1.399 . S
C959 C960 1.376 . S
C960 H947 0.930 . S
C960 C959 1.376 . S
C960 C961 1.388 . S
C961 H948 0.930 . S
C961 C960 1.388 . S
C961 C962 1.390 . S
C962 C961 1.390 . S
C962 C963 1.394 . S
C962 C968 1.465 . S
C963 C958 1.399 . S
C963 C962 1.394 . S
C963 C964 1.516 . S
C964 C963 1.516 . S
C964 C965 1.502 . S
C964 C966 1.561 . S
C964 C967 1.526 . S
C965 H949 0.959 . S
C965 H950 0.959 . S
C965 H951 0.961 . S
C965 C964 1.502 . S
C966 H952 0.960 . S
C966 H953 0.961 . S
C966 H954 0.959 . S
C966 C964 1.561 . S
C967 C964 1.526 . S
C967 C968 1.396 . S
C967 C972 1.390 . S
C968 C962 1.465 . S
C968 C967 1.396 . S
C968 C969 1.399 . S
C969 H955 0.929 . S
C969 C968 1.399 . S
C969 C970 1.385 . S
C970 H956 0.931 . S
C970 C969 1.385 . S
C970 C971 1.389 . S
C971 C970 1.389 . S
C971 C972 1.387 . S
C972 H957 0.930 . S
C972 C967 1.390 . S
C972 C971 1.387 . S
H973 C985 0.930 . S
H974 C987 0.930 . S
H975 C988 0.930 . S
H976 C992 0.959 . S
H977 C992 0.959 . S
H978 C992 0.961 . S
H979 C993 0.960 . S
H980 C993 0.961 . S
H981 C993 0.959 . S
H982 C996 0.929 . S
H983 C997 0.931 . S
H984 C999 0.930 . S
C985 H973 0.930 . S
C985 C986 1.399 . S
C985 C990 1.399 . S
C986 C985 1.399 . S
C986 C987 1.376 . S
C987 H974 0.930 . S
C987 C986 1.376 . S
C987 C988 1.388 . S
C988 H975 0.930 . S
C988 C987 1.388 . S
C988 C989 1.390 . S
C989 C988 1.390 . S
C989 C990 1.394 . S
C989 C995 1.465 . S
C990 C985 1.399 . S
C990 C989 1.394 . S
C990 C991 1.516 . S
C991 C990 1.516 . S
C991 C992 1.502 . S
C991 C993 1.561 . S
C991 C994 1.526 . S
C992 H976 0.959 . S
C992 H977 0.959 . S
C992 H978 0.961 . S
C992 C991 1.502 . S
C993 H979 0.960 . S
C993 H980 0.961 . S
C993 H981 0.959 . S
C993 C991 1.561 . S
C994 C991 1.526 . S
C994 C995 1.396 . S
C994 C999 1.390 . S
C995 C989 1.465 . S
C995 C994 1.396 . S
C995 C996 1.399 . S
C996 H982 0.929 . S
C996 C995 1.399 . S
C996 C997 1.385 . S
C997 H983 0.931 . S
C997 C996 1.385 . S
C997 C998 1.389 . S
C998 C997 1.389 . S
C998 C999 1.387 . S
C999 H984 0.930 . S
C999 C994 1.390 . S
C999 C998 1.387 . S
H1000 C1012 0.930 . S
H1001 C1014 0.930 . S
H1002 C1015 0.930 . S
H1003 C1019 0.962 . S
H1004 C1019 0.979 . S
H1005 C1019 0.939 1_554 S
H1006 C1020 0.958 1_554 S
H1007 C1020 0.963 . S
H1008 C1020 0.959 . S
H1009 C1023 0.929 . S
H1010 C1024 0.931 . S
H1011 C1026 0.930 . S
C1012 H1000 0.930 . S
C1012 C1013 1.399 . S
C1012 C1017 1.399 . S
C1013 C1012 1.399 . S
C1013 C1014 1.376 . S
C1014 H1001 0.930 . S
C1014 C1013 1.376 . S
C1014 C1015 1.388 . S
C1015 H1002 0.930 . S
C1015 C1014 1.388 . S
C1015 C1016 1.390 . S
C1016 C1015 1.390 . S
C1016 C1017 1.394 . S
C1016 C1022 1.465 1_554 S
C1017 C1012 1.399 . S
C1017 C1016 1.394 . S
C1017 C1018 1.517 1_554 S
C1018 C1017 1.517 1_556 S
C1018 C1019 1.502 . S
C1018 C1020 1.561 . S
C1018 C1021 1.525 . S
C1019 H1003 0.962 . S
C1019 H1004 0.979 . S
C1019 H1005 0.939 1_556 S
C1019 C1018 1.502 . S
C1020 H1006 0.958 1_556 S
C1020 H1007 0.963 . S
C1020 H1008 0.959 . S
C1020 C1018 1.561 . S
C1021 C1018 1.525 . S
C1021 C1022 1.396 . S
C1021 C1026 1.390 . S
C1022 C1016 1.465 1_556 S
C1022 C1021 1.396 . S
C1022 C1023 1.399 . S
C1023 H1009 0.929 . S
C1023 C1022 1.399 . S
C1023 C1024 1.385 . S
C1024 H1010 0.931 . S
C1024 C1023 1.385 . S
C1024 C1025 1.389 . S
C1025 C1024 1.389 . S
C1025 C1026 1.387 . S
C1026 H1011 0.930 . S
C1026 C1021 1.390 . S
C1026 C1025 1.387 . S
H1027 C1039 0.930 . S
H1028 C1041 0.930 . S
H1029 C1042 0.930 . S
H1030 C1046 0.962 . S
H1031 C1046 0.979 . S
H1032 C1046 0.939 1_554 S
H1033 C1047 0.958 1_564 S
H1034 C1047 0.963 1_565 S
H1035 C1047 0.959 . S
H1036 C1050 0.929 . S
H1037 C1051 0.931 . S
H1038 C1053 0.930 . S
C1039 H1027 0.930 . S
C1039 C1040 1.399 . S
C1039 C1044 1.399 . S
C1040 C1039 1.399 . S
C1040 C1041 1.376 . S
C1041 H1028 0.930 . S
C1041 C1040 1.376 . S
C1041 C1042 1.388 . S
C1042 H1029 0.930 . S
C1042 C1041 1.388 . S
C1042 C1043 1.390 . S
C1043 C1042 1.390 . S
C1043 C1044 1.394 . S
C1043 C1049 1.465 1_554 S
C1044 C1039 1.399 . S
C1044 C1043 1.394 . S
C1044 C1045 1.517 1_554 S
C1045 C1044 1.517 1_556 S
C1045 C1046 1.502 . S
C1045 C1047 1.561 . S
C1045 C1048 1.525 . S
C1046 H1030 0.962 . S
C1046 H1031 0.979 . S
C1046 H1032 0.939 1_556 S
C1046 C1045 1.502 . S
C1047 H1033 0.958 1_546 S
C1047 H1034 0.963 1_545 S
C1047 H1035 0.959 . S
C1047 C1045 1.561 . S
C1048 C1045 1.525 . S
C1048 C1049 1.396 . S
C1048 C1053 1.390 . S
C1049 C1043 1.465 1_556 S
C1049 C1048 1.396 . S
C1049 C1050 1.399 . S
C1050 H1036 0.929 . S
C1050 C1049 1.399 . S
C1050 C1051 1.385 . S
C1051 H1037 0.931 . S
C1051 C1050 1.385 . S
C1051 C1052 1.389 . S
C1052 C1051 1.389 . S
C1052 C1053 1.387 . S
C1053 H1038 0.930 . S
C1053 C1048 1.390 . S
C1053 C1052 1.387 . S
H1054 C1066 0.930 . S
H1055 C1068 0.930 . S
H1056 C1069 0.930 . S
H1057 C1073 0.962 . S
H1058 C1073 0.979 . S
H1059 C1073 0.939 1_556 S
H1060 C1074 0.958 1_556 S
H1061 C1074 0.963 . S
H1062 C1074 0.959 . S
H1063 C1077 0.929 . S
H1064 C1078 0.931 . S
H1065 C1080 0.930 . S
C1066 H1054 0.930 . S
C1066 C1067 1.399 . S
C1066 C1071 1.399 . S
C1067 C1066 1.399 . S
C1067 C1068 1.376 . S
C1068 H1055 0.930 . S
C1068 C1067 1.376 . S
C1068 C1069 1.388 . S
C1069 H1056 0.930 . S
C1069 C1068 1.388 . S
C1069 C1070 1.390 . S
C1070 C1069 1.390 . S
C1070 C1071 1.394 . S
C1070 C1076 1.465 1_556 S
C1071 C1066 1.399 . S
C1071 C1070 1.394 . S
C1071 C1072 1.517 1_556 S
C1072 C1071 1.517 1_554 S
C1072 C1073 1.502 . S
C1072 C1074 1.561 . S
C1072 C1075 1.525 . S
C1073 H1057 0.962 . S
C1073 H1058 0.979 . S
C1073 H1059 0.939 1_554 S
C1073 C1072 1.502 . S
C1074 H1060 0.958 1_554 S
C1074 H1061 0.963 . S
C1074 H1062 0.959 . S
C1074 C1072 1.561 . S
C1075 C1072 1.525 . S
C1075 C1076 1.396 . S
C1075 C1080 1.390 . S
C1076 C1070 1.465 1_554 S
C1076 C1075 1.396 . S
C1076 C1077 1.399 . S
C1077 H1063 0.929 . S
C1077 C1076 1.399 . S
C1077 C1078 1.385 . S
C1078 H1064 0.931 . S
C1078 C1077 1.385 . S
C1078 C1079 1.389 . S
C1079 C1078 1.389 . S
C1079 C1080 1.387 . S
C1080 H1065 0.930 . S
C1080 C1075 1.390 . S
C1080 C1079 1.387 . S
H1081 C1093 0.930 . S
H1082 C1095 0.930 . S
H1083 C1096 0.930 . S
H1084 C1100 0.962 . S
H1085 C1100 0.979 . S
H1086 C1100 0.939 1_554 S
H1087 C1101 0.958 1_554 S
H1088 C1101 0.963 . S
H1089 C1101 0.959 . S
H1090 C1104 0.929 . S
H1091 C1105 0.931 . S
H1092 C1107 0.930 . S
C1093 H1081 0.930 . S
C1093 C1094 1.399 . S
C1093 C1098 1.399 . S
C1094 C1093 1.399 . S
C1094 C1095 1.376 . S
C1095 H1082 0.930 . S
C1095 C1094 1.376 . S
C1095 C1096 1.388 . S
C1096 H1083 0.930 . S
C1096 C1095 1.388 . S
C1096 C1097 1.390 . S
C1097 C1096 1.390 . S
C1097 C1098 1.394 . S
C1097 C1103 1.465 1_554 S
C1098 C1093 1.399 . S
C1098 C1097 1.394 . S
C1098 C1099 1.517 1_554 S
C1099 C1098 1.517 1_556 S
C1099 C1100 1.502 . S
C1099 C1101 1.561 . S
C1099 C1102 1.525 . S
C1100 H1084 0.962 . S
C1100 H1085 0.979 . S
C1100 H1086 0.939 1_556 S
C1100 C1099 1.502 . S
C1101 H1087 0.958 1_556 S
C1101 H1088 0.963 . S
C1101 H1089 0.959 . S
C1101 C1099 1.561 . S
C1102 C1099 1.525 . S
C1102 C1103 1.396 . S
C1102 C1107 1.390 . S
C1103 C1097 1.465 1_556 S
C1103 C1102 1.396 . S
C1103 C1104 1.399 . S
C1104 H1090 0.929 . S
C1104 C1103 1.399 . S
C1104 C1105 1.385 . S
C1105 H1091 0.931 . S
C1105 C1104 1.385 . S
C1105 C1106 1.389 . S
C1106 C1105 1.389 . S
C1106 C1107 1.387 . S
C1107 H1092 0.930 . S
C1107 C1102 1.390 . S
C1107 C1106 1.387 . S
H1108 C1120 0.930 . S
H1109 C1122 0.930 . S
H1110 C1123 0.930 . S
H1111 C1127 0.959 . S
H1112 C1127 0.959 . S
H1113 C1127 0.961 . S
H1114 C1128 0.960 . S
H1115 C1128 0.961 . S
H1116 C1128 0.959 . S
H1117 C1131 0.929 . S
H1118 C1132 0.931 . S
H1119 C1134 0.930 . S
C1120 H1108 0.930 . S
C1120 C1121 1.399 . S
C1120 C1125 1.399 . S
C1121 C1120 1.399 . S
C1121 C1122 1.376 . S
C1122 H1109 0.930 . S
C1122 C1121 1.376 . S
C1122 C1123 1.388 . S
C1123 H1110 0.930 . S
C1123 C1122 1.388 . S
C1123 C1124 1.390 . S
C1124 C1123 1.390 . S
C1124 C1125 1.394 . S
C1124 C1130 1.465 . S
C1125 C1120 1.399 . S
C1125 C1124 1.394 . S
C1125 C1126 1.516 . S
C1126 C1125 1.516 . S
C1126 C1127 1.502 . S
C1126 C1128 1.561 . S
C1126 C1129 1.526 . S
C1127 H1111 0.959 . S
C1127 H1112 0.959 . S
C1127 H1113 0.961 . S
C1127 C1126 1.502 . S
C1128 H1114 0.960 . S
C1128 H1115 0.961 . S
C1128 H1116 0.959 . S
C1128 C1126 1.561 . S
C1129 C1126 1.526 . S
C1129 C1130 1.396 . S
C1129 C1134 1.390 . S
C1130 C1124 1.465 . S
C1130 C1129 1.396 . S
C1130 C1131 1.399 . S
C1131 H1117 0.929 . S
C1131 C1130 1.399 . S
C1131 C1132 1.385 . S
C1132 H1118 0.931 . S
C1132 C1131 1.385 . S
C1132 C1133 1.389 . S
C1133 C1132 1.389 . S
C1133 C1134 1.387 . S
C1134 H1119 0.930 . S
C1134 C1129 1.390 . S
C1134 C1133 1.387 . S
H1135 C1147 0.930 . S
H1136 C1149 0.930 . S
H1137 C1150 0.930 . S
H1138 C1154 0.959 . S
H1139 C1154 0.959 . S
H1140 C1154 0.961 . S
H1141 C1155 0.960 . S
H1142 C1155 0.961 . S
H1143 C1155 0.959 . S
H1144 C1158 0.929 . S
H1145 C1159 0.931 . S
H1146 C1161 0.930 . S
C1147 H1135 0.930 . S
C1147 C1148 1.399 . S
C1147 C1152 1.399 . S
C1148 C1147 1.399 . S
C1148 C1149 1.376 . S
C1149 H1136 0.930 . S
C1149 C1148 1.376 . S
C1149 C1150 1.388 . S
C1150 H1137 0.930 . S
C1150 C1149 1.388 . S
C1150 C1151 1.390 . S
C1151 C1150 1.390 . S
C1151 C1152 1.394 . S
C1151 C1157 1.465 . S
C1152 C1147 1.399 . S
C1152 C1151 1.394 . S
C1152 C1153 1.516 . S
C1153 C1152 1.516 . S
C1153 C1154 1.502 . S
C1153 C1155 1.561 . S
C1153 C1156 1.526 . S
C1154 H1138 0.959 . S
C1154 H1139 0.959 . S
C1154 H1140 0.961 . S
C1154 C1153 1.502 . S
C1155 H1141 0.960 . S
C1155 H1142 0.961 . S
C1155 H1143 0.959 . S
C1155 C1153 1.561 . S
C1156 C1153 1.526 . S
C1156 C1157 1.396 . S
C1156 C1161 1.390 . S
C1157 C1151 1.465 . S
C1157 C1156 1.396 . S
C1157 C1158 1.399 . S
C1158 H1144 0.929 . S
C1158 C1157 1.399 . S
C1158 C1159 1.385 . S
C1159 H1145 0.931 . S
C1159 C1158 1.385 . S
C1159 C1160 1.389 . S
C1160 C1159 1.389 . S
C1160 C1161 1.387 . S
C1161 H1146 0.930 . S
C1161 C1156 1.390 . S
C1161 C1160 1.387 . S
H1162 C1174 0.930 . S
H1163 C1176 0.930 . S
H1164 C1177 0.930 . S
H1165 C1181 0.959 . S
H1166 C1181 0.959 . S
H1167 C1181 0.961 . S
H1168 C1182 0.960 . S
H1169 C1182 0.961 . S
H1170 C1182 0.959 . S
H1171 C1185 0.929 . S
H1172 C1186 0.931 . S
H1173 C1188 0.930 . S
C1174 H1162 0.930 . S
C1174 C1175 1.399 . S
C1174 C1179 1.399 . S
C1175 C1174 1.399 . S
C1175 C1176 1.376 . S
C1176 H1163 0.930 . S
C1176 C1175 1.376 . S
C1176 C1177 1.388 . S
C1177 H1164 0.930 . S
C1177 C1176 1.388 . S
C1177 C1178 1.390 . S
C1178 C1177 1.390 . S
C1178 C1179 1.394 . S
C1178 C1184 1.465 . S
C1179 C1174 1.399 . S
C1179 C1178 1.394 . S
C1179 C1180 1.516 . S
C1180 C1179 1.516 . S
C1180 C1181 1.502 . S
C1180 C1182 1.561 . S
C1180 C1183 1.526 . S
C1181 H1165 0.959 . S
C1181 H1166 0.959 . S
C1181 H1167 0.961 . S
C1181 C1180 1.502 . S
C1182 H1168 0.960 . S
C1182 H1169 0.961 . S
C1182 H1170 0.959 . S
C1182 C1180 1.561 . S
C1183 C1180 1.526 . S
C1183 C1184 1.396 . S
C1183 C1188 1.390 . S
C1184 C1178 1.465 . S
C1184 C1183 1.396 . S
C1184 C1185 1.399 . S
C1185 H1171 0.929 . S
C1185 C1184 1.399 . S
C1185 C1186 1.385 . S
C1186 H1172 0.931 . S
C1186 C1185 1.385 . S
C1186 C1187 1.389 . S
C1187 C1186 1.389 . S
C1187 C1188 1.387 . S
C1188 H1173 0.930 . S
C1188 C1183 1.390 . S
C1188 C1187 1.387 . S
H1189 C1201 0.930 . S
H1190 C1203 0.930 . S
H1191 C1204 0.930 . S
H1192 C1208 0.959 . S
H1193 C1208 0.967 . S
H1194 C1208 0.961 . S
H1195 C1209 0.960 1_545 S
H1196 C1209 0.961 1_545 S
H1197 C1209 0.959 . S
H1198 C1212 0.929 . S
H1199 C1213 0.931 . S
H1200 C1215 0.930 . S
C1201 H1189 0.930 . S
C1201 C1202 1.399 . S
C1201 C1206 1.399 . S
C1202 C1201 1.399 . S
C1202 C1203 1.376 . S
C1203 H1190 0.930 . S
C1203 C1202 1.376 . S
C1203 C1204 1.388 . S
C1204 H1191 0.930 . S
C1204 C1203 1.388 . S
C1204 C1205 1.390 . S
C1205 C1204 1.390 . S
C1205 C1206 1.394 . S
C1205 C1211 1.465 . S
C1206 C1201 1.399 . S
C1206 C1205 1.394 . S
C1206 C1207 1.516 . S
C1207 C1206 1.516 . S
C1207 C1208 1.502 . S
C1207 C1209 1.561 . S
C1207 C1210 1.526 . S
C1208 H1192 0.959 . S
C1208 H1193 0.967 . S
C1208 H1194 0.961 . S
C1208 C1207 1.502 . S
C1209 H1195 0.960 1_565 S
C1209 H1196 0.961 1_565 S
C1209 H1197 0.959 . S
C1209 C1207 1.561 . S
C1210 C1207 1.526 . S
C1210 C1211 1.396 . S
C1210 C1215 1.390 . S
C1211 C1205 1.465 . S
C1211 C1210 1.396 . S
C1211 C1212 1.399 . S
C1212 H1198 0.929 . S
C1212 C1211 1.399 . S
C1212 C1213 1.385 . S
C1213 H1199 0.931 . S
C1213 C1212 1.385 . S
C1213 C1214 1.389 . S
C1214 C1213 1.389 . S
C1214 C1215 1.387 . S
C1215 H1200 0.930 . S
C1215 C1210 1.390 . S
C1215 C1214 1.387 . S
H1216 C1228 0.930 . S
H1217 C1230 0.930 . S
H1218 C1231 0.930 . S
H1219 C1235 0.959 . S
H1220 C1235 0.959 . S
H1221 C1235 0.961 . S
H1222 C1236 0.965 . S
H1223 C1236 0.961 . S
H1224 C1236 0.959 . S
H1225 C1239 0.929 . S
H1226 C1240 0.931 . S
H1227 C1242 0.930 1_455 S
C1228 H1216 0.930 . S
C1228 C1229 1.399 . S
C1228 C1233 1.399 . S
C1229 C1228 1.399 . S
C1229 C1230 1.376 1_455 S
C1230 H1217 0.930 . S
C1230 C1229 1.376 1_655 S
C1230 C1231 1.388 . S
C1231 H1218 0.930 . S
C1231 C1230 1.388 . S
C1231 C1232 1.390 . S
C1232 C1231 1.390 . S
C1232 C1233 1.394 1_655 S
C1232 C1238 1.465 . S
C1233 C1228 1.399 . S
C1233 C1232 1.394 1_455 S
C1233 C1234 1.516 . S
C1234 C1233 1.516 . S
C1234 C1235 1.502 . S
C1234 C1236 1.561 1_455 S
C1234 C1237 1.526 1_455 S
C1235 H1219 0.959 . S
C1235 H1220 0.959 . S
C1235 H1221 0.961 . S
C1235 C1234 1.502 . S
C1236 H1222 0.965 . S
C1236 H1223 0.961 . S
C1236 H1224 0.959 . S
C1236 C1234 1.561 1_655 S
C1237 C1234 1.526 1_655 S
C1237 C1238 1.396 . S
C1237 C1242 1.390 . S
C1238 C1232 1.465 . S
C1238 C1237 1.396 . S
C1238 C1239 1.399 . S
C1239 H1225 0.929 . S
C1239 C1238 1.399 . S
C1239 C1240 1.385 . S
C1240 H1226 0.931 . S
C1240 C1239 1.385 . S
C1240 C1241 1.389 . S
C1241 C1240 1.389 . S
C1241 C1242 1.387 . S
C1242 H1227 0.930 1_655 S
C1242 C1237 1.390 . S
C1242 C1241 1.387 . S
H1243 C1255 0.930 . S
H1244 C1257 0.930 . S
H1245 C1258 0.930 . S
H1246 C1262 0.959 . S
H1247 C1262 0.959 . S
H1248 C1262 0.961 . S
H1249 C1263 0.960 . S
H1250 C1263 0.961 . S
H1251 C1263 0.959 . S
H1252 C1266 0.929 . S
H1253 C1267 0.931 . S
H1254 C1269 0.930 . S
C1255 H1243 0.930 . S
C1255 C1256 1.399 . S
C1255 C1260 1.399 . S
C1256 C1255 1.399 . S
C1256 C1257 1.376 . S
C1257 H1244 0.930 . S
C1257 C1256 1.376 . S
C1257 C1258 1.388 1_565 S
C1258 H1245 0.930 . S
C1258 C1257 1.388 1_545 S
C1258 C1259 1.390 . S
C1259 C1258 1.390 . S
C1259 C1260 1.394 1_545 S
C1259 C1265 1.465 . S
C1260 C1255 1.399 . S
C1260 C1259 1.394 1_565 S
C1260 C1261 1.516 . S
C1261 C1260 1.516 . S
C1261 C1262 1.502 . S
C1261 C1263 1.561 1_565 S
C1261 C1264 1.526 1_565 S
C1262 H1246 0.959 . S
C1262 H1247 0.959 . S
C1262 H1248 0.961 . S
C1262 C1261 1.502 . S
C1263 H1249 0.960 . S
C1263 H1250 0.961 . S
C1263 H1251 0.959 . S
C1263 C1261 1.561 1_545 S
C1264 C1261 1.526 1_545 S
C1264 C1265 1.396 . S
C1264 C1269 1.390 . S
C1265 C1259 1.465 . S
C1265 C1264 1.396 . S
C1265 C1266 1.399 . S
C1266 H1252 0.929 . S
C1266 C1265 1.399 . S
C1266 C1267 1.385 . S
C1267 H1253 0.931 . S
C1267 C1266 1.385 . S
C1267 C1268 1.389 . S
C1268 C1267 1.389 . S
C1268 C1269 1.387 . S
C1269 H1254 0.930 . S
C1269 C1264 1.390 . S
C1269 C1268 1.387 . S
H1270 C1282 0.930 . S
H1271 C1284 0.930 . S
H1272 C1285 0.930 . S
H1273 C1289 0.959 . S
H1274 C1289 0.959 . S
H1275 C1289 0.961 . S
H1276 C1290 0.960 . S
H1277 C1290 0.961 . S
H1278 C1290 0.959 1_455 S
H1279 C1293 0.929 . S
H1280 C1294 0.931 . S
H1281 C1296 0.930 . S
C1282 H1270 0.930 . S
C1282 C1283 1.399 1_655 S
C1282 C1287 1.399 . S
C1283 C1282 1.399 1_455 S
C1283 C1284 1.376 . S
C1284 H1271 0.930 . S
C1284 C1283 1.376 . S
C1284 C1285 1.388 . S
C1285 H1272 0.930 . S
C1285 C1284 1.388 . S
C1285 C1286 1.390 . S
C1286 C1285 1.390 . S
C1286 C1287 1.394 1_455 S
C1286 C1292 1.465 . S
C1287 C1282 1.399 . S
C1287 C1286 1.394 1_655 S
C1287 C1288 1.516 . S
C1288 C1287 1.516 . S
C1288 C1289 1.502 . S
C1288 C1290 1.561 . S
C1288 C1291 1.526 . S
C1289 H1273 0.959 . S
C1289 H1274 0.959 . S
C1289 H1275 0.961 . S
C1289 C1288 1.502 . S
C1290 H1276 0.960 . S
C1290 H1277 0.961 . S
C1290 H1278 0.959 1_655 S
C1290 C1288 1.561 . S
C1291 C1288 1.526 . S
C1291 C1292 1.396 1_655 S
C1291 C1296 1.390 . S
C1292 C1286 1.465 . S
C1292 C1291 1.396 1_455 S
C1292 C1293 1.399 . S
C1293 H1279 0.929 . S
C1293 C1292 1.399 . S
C1293 C1294 1.385 . S
C1294 H1280 0.931 . S
C1294 C1293 1.385 . S
C1294 C1295 1.389 1_455 S
C1295 C1294 1.389 1_655 S
C1295 C1296 1.387 . S
C1296 H1281 0.930 . S
C1296 C1291 1.390 . S
C1296 C1295 1.387 . S
H1297 C1309 0.930 . S
H1298 C1311 0.930 . S
H1299 C1312 0.930 . S
H1300 C1316 0.959 . S
H1301 C1316 0.959 . S
H1302 C1316 0.961 . S
H1303 C1317 0.960 . S
H1304 C1317 0.961 . S
H1305 C1317 0.959 . S
H1306 C1320 0.929 . S
H1307 C1321 0.931 . S
H1308 C1323 0.930 . S
C1309 H1297 0.930 . S
C1309 C1310 1.399 1_565 S
C1309 C1314 1.399 . S
C1310 C1309 1.399 1_545 S
C1310 C1311 1.376 . S
C1311 H1298 0.930 . S
C1311 C1310 1.376 . S
C1311 C1312 1.388 . S
C1312 H1299 0.930 . S
C1312 C1311 1.388 . S
C1312 C1313 1.390 . S
C1313 C1312 1.390 . S
C1313 C1314 1.394 1_545 S
C1313 C1319 1.465 . S
C1314 C1309 1.399 . S
C1314 C1313 1.394 1_565 S
C1314 C1315 1.516 . S
C1315 C1314 1.516 . S
C1315 C1316 1.502 . S
C1315 C1317 1.561 . S
C1315 C1318 1.526 . S
C1316 H1300 0.959 . S
C1316 H1301 0.959 . S
C1316 H1302 0.961 . S
C1316 C1315 1.502 . S
C1317 H1303 0.960 . S
C1317 H1304 0.961 . S
C1317 H1305 0.959 . S
C1317 C1315 1.561 . S
C1318 C1315 1.526 . S
C1318 C1319 1.396 1_565 S
C1318 C1323 1.390 . S
C1319 C1313 1.465 . S
C1319 C1318 1.396 1_545 S
C1319 C1320 1.399 . S
C1320 H1306 0.929 . S
C1320 C1319 1.399 . S
C1320 C1321 1.385 . S
C1321 H1307 0.931 . S
C1321 C1320 1.385 . S
C1321 C1322 1.389 1_545 S
C1322 C1321 1.389 1_565 S
C1322 C1323 1.387 . S
C1323 H1308 0.930 . S
C1323 C1318 1.390 . S
C1323 C1322 1.387 . S
H1324 C1336 0.930 . S
H1325 C1338 0.929 1_655 S
H1326 C1339 0.930 . S
H1327 C1343 0.959 . S
H1328 C1343 0.959 . S
H1329 C1343 0.961 . S
H1330 C1344 0.960 . S
H1331 C1344 0.961 . S
H1332 C1344 0.959 . S
H1333 C1347 0.929 . S
H1334 C1348 0.931 . S
H1335 C1350 0.930 . S
C1336 H1324 0.930 . S
C1336 C1337 1.399 . S
C1336 C1341 1.399 . S
C1337 C1336 1.399 . S
C1337 C1338 1.376 . S
C1338 H1325 0.929 1_455 S
C1338 C1337 1.376 . S
C1338 C1339 1.388 1_455 S
C1339 H1326 0.930 . S
C1339 C1338 1.388 1_655 S
C1339 C1340 1.390 . S
C1340 C1339 1.390 . S
C1340 C1341 1.394 1_655 S
C1340 C1346 1.465 . S
C1341 C1336 1.399 . S
C1341 C1340 1.394 1_455 S
C1341 C1342 1.516 . S
C1342 C1341 1.516 . S
C1342 C1343 1.502 . S
C1342 C1344 1.561 1_455 S
C1342 C1345 1.526 1_455 S
C1343 H1327 0.959 . S
C1343 H1328 0.959 . S
C1343 H1329 0.961 . S
C1343 C1342 1.502 . S
C1344 H1330 0.960 . S
C1344 H1331 0.961 . S
C1344 H1332 0.959 . S
C1344 C1342 1.561 1_655 S
C1345 C1342 1.526 1_655 S
C1345 C1346 1.396 . S
C1345 C1350 1.390 . S
C1346 C1340 1.465 . S
C1346 C1345 1.396 . S
C1346 C1347 1.399 . S
C1347 H1333 0.929 . S
C1347 C1346 1.399 . S
C1347 C1348 1.385 . S
C1348 H1334 0.931 . S
C1348 C1347 1.385 . S
C1348 C1349 1.389 . S
C1349 C1348 1.389 . S
C1349 C1350 1.387 . S
C1350 H1335 0.930 . S
C1350 C1345 1.390 . S
C1350 C1349 1.387 . S
H1351 C1363 0.930 . S
H1352 C1365 0.930 . S
H1353 C1366 0.930 . S
H1354 C1370 0.959 . S
H1355 C1370 0.959 . S
H1356 C1370 0.961 . S
H1357 C1371 0.960 . S
H1358 C1371 0.961 . S
H1359 C1371 0.959 . S
H1360 C1374 0.929 . S
H1361 C1375 0.931 . S
H1362 C1377 0.930 . S
C1363 H1351 0.930 . S
C1363 C1364 1.399 1_565 S
C1363 C1368 1.399 . S
C1364 C1363 1.399 1_545 S
C1364 C1365 1.376 . S
C1365 H1352 0.930 . S
C1365 C1364 1.376 . S
C1365 C1366 1.388 . S
C1366 H1353 0.930 . S
C1366 C1365 1.388 . S
C1366 C1367 1.390 . S
C1367 C1366 1.390 . S
C1367 C1368 1.394 1_545 S
C1367 C1373 1.465 . S
C1368 C1363 1.399 . S
C1368 C1367 1.394 1_565 S
C1368 C1369 1.516 . S
C1369 C1368 1.516 . S
C1369 C1370 1.502 . S
C1369 C1371 1.561 . S
C1369 C1372 1.526 . S
C1370 H1354 0.959 . S
C1370 H1355 0.959 . S
C1370 H1356 0.961 . S
C1370 C1369 1.502 . S
C1371 H1357 0.960 . S
C1371 H1358 0.961 . S
C1371 H1359 0.959 . S
C1371 C1369 1.561 . S
C1372 C1369 1.526 . S
C1372 C1373 1.396 1_565 S
C1372 C1377 1.390 . S
C1373 C1367 1.465 . S
C1373 C1372 1.396 1_545 S
C1373 C1374 1.399 . S
C1374 H1360 0.929 . S
C1374 C1373 1.399 . S
C1374 C1375 1.385 . S
C1375 H1361 0.931 . S
C1375 C1374 1.385 . S
C1375 C1376 1.389 1_545 S
C1376 C1375 1.389 1_565 S
C1376 C1377 1.387 . S
C1377 H1362 0.930 . S
C1377 C1372 1.390 . S
C1377 C1376 1.387 . S
H1378 C1390 0.930 . S
H1379 C1392 0.930 . S
H1380 C1393 0.930 . S
H1381 C1397 0.959 . S
H1382 C1397 0.959 . S
H1383 C1397 0.961 . S
H1384 C1398 0.960 . S
H1385 C1398 0.961 . S
H1386 C1398 0.959 . S
H1387 C1401 0.929 . S
H1388 C1402 0.931 . S
H1389 C1404 0.930 . S
C1390 H1378 0.930 . S
C1390 C1391 1.399 . S
C1390 C1395 1.399 . S
C1391 C1390 1.399 . S
C1391 C1392 1.376 1_655 S
C1392 H1379 0.930 . S
C1392 C1391 1.376 1_455 S
C1392 C1393 1.388 . S
C1393 H1380 0.930 . S
C1393 C1392 1.388 . S
C1393 C1394 1.390 . S
C1394 C1393 1.390 . S
C1394 C1395 1.394 1_455 S
C1394 C1400 1.465 . S
C1395 C1390 1.399 . S
C1395 C1394 1.394 1_655 S
C1395 C1396 1.516 . S
C1396 C1395 1.516 . S
C1396 C1397 1.502 . S
C1396 C1398 1.561 . S
C1396 C1399 1.526 . S
C1397 H1381 0.959 . S
C1397 H1382 0.959 . S
C1397 H1383 0.961 . S
C1397 C1396 1.502 . S
C1398 H1384 0.960 . S
C1398 H1385 0.961 . S
C1398 H1386 0.959 . S
C1398 C1396 1.561 . S
C1399 C1396 1.526 . S
C1399 C1400 1.396 1_655 S
C1399 C1404 1.390 . S
C1400 C1394 1.465 . S
C1400 C1399 1.396 1_455 S
C1400 C1401 1.399 . S
C1401 H1387 0.929 . S
C1401 C1400 1.399 . S
C1401 C1402 1.385 . S
C1402 H1388 0.931 . S
C1402 C1401 1.385 . S
C1402 C1403 1.389 . S
C1403 C1402 1.389 . S
C1403 C1404 1.387 1_455 S
C1404 H1389 0.930 . S
C1404 C1399 1.390 . S
C1404 C1403 1.387 1_655 S
H1405 C1417 0.930 . S
H1406 C1419 0.930 . S
H1407 C1420 0.930 . S
H1408 C1424 0.959 . S
H1409 C1424 0.959 . S
H1410 C1424 0.961 . S
H1411 C1425 0.960 . S
H1412 C1425 0.961 . S
H1413 C1425 0.959 . S
H1414 C1428 0.929 . S
H1415 C1429 0.931 . S
H1416 C1431 0.930 . S
C1417 H1405 0.930 . S
C1417 C1418 1.399 1_565 S
C1417 C1422 1.399 . S
C1418 C1417 1.399 1_545 S
C1418 C1419 1.376 . S
C1419 H1406 0.930 . S
C1419 C1418 1.376 . S
C1419 C1420 1.388 . S
C1420 H1407 0.930 . S
C1420 C1419 1.388 . S
C1420 C1421 1.390 . S
C1421 C1420 1.390 . S
C1421 C1422 1.394 1_545 S
C1421 C1427 1.465 . S
C1422 C1417 1.399 . S
C1422 C1421 1.394 1_565 S
C1422 C1423 1.516 . S
C1423 C1422 1.516 . S
C1423 C1424 1.502 . S
C1423 C1425 1.561 . S
C1423 C1426 1.526 . S
C1424 H1408 0.959 . S
C1424 H1409 0.959 . S
C1424 H1410 0.961 . S
C1424 C1423 1.502 . S
C1425 H1411 0.960 . S
C1425 H1412 0.961 . S
C1425 H1413 0.959 . S
C1425 C1423 1.561 . S
C1426 C1423 1.526 . S
C1426 C1427 1.396 1_565 S
C1426 C1431 1.390 . S
C1427 C1421 1.465 . S
C1427 C1426 1.396 1_545 S
C1427 C1428 1.399 . S
C1428 H1414 0.929 . S
C1428 C1427 1.399 . S
C1428 C1429 1.385 . S
C1429 H1415 0.931 . S
C1429 C1428 1.385 . S
C1429 C1430 1.389 1_545 S
C1430 C1429 1.389 1_565 S
C1430 C1431 1.387 . S
C1431 H1416 0.930 . S
C1431 C1426 1.390 . S
C1431 C1430 1.387 . S
H1432 C1444 0.930 . S
H1433 C1446 0.930 . S
H1434 C1447 0.930 1_655 S
H1435 C1451 0.959 . S
H1436 C1451 0.959 . S
H1437 C1451 0.961 . S
H1438 C1452 0.960 . S
H1439 C1452 0.961 . S
H1440 C1452 0.959 . S
H1441 C1455 0.929 . S
H1442 C1456 0.931 . S
H1443 C1458 0.930 . S
C1444 H1432 0.930 . S
C1444 C1445 1.399 . S
C1444 C1449 1.399 . S
C1445 C1444 1.399 . S
C1445 C1446 1.376 . S
C1446 H1433 0.930 . S
C1446 C1445 1.376 . S
C1446 C1447 1.388 . S
C1447 H1434 0.930 1_455 S
C1447 C1446 1.388 . S
C1447 C1448 1.390 . S
C1448 C1447 1.390 . S
C1448 C1449 1.394 . S
C1448 C1454 1.465 1_455 S
C1449 C1444 1.399 . S
C1449 C1448 1.394 . S
C1449 C1450 1.516 . S
C1450 C1449 1.516 . S
C1450 C1451 1.502 . S
C1450 C1452 1.561 . S
C1450 C1453 1.526 1_455 S
C1451 H1435 0.959 . S
C1451 H1436 0.959 . S
C1451 H1437 0.961 . S
C1451 C1450 1.502 . S
C1452 H1438 0.960 . S
C1452 H1439 0.961 . S
C1452 H1440 0.959 . S
C1452 C1450 1.561 . S
C1453 C1450 1.526 1_655 S
C1453 C1454 1.396 . S
C1453 C1458 1.390 . S
C1454 C1448 1.465 1_655 S
C1454 C1453 1.396 . S
C1454 C1455 1.399 . S
C1455 H1441 0.929 . S
C1455 C1454 1.399 . S
C1455 C1456 1.385 . S
C1456 H1442 0.931 . S
C1456 C1455 1.385 . S
C1456 C1457 1.389 . S
C1457 C1456 1.389 . S
C1457 C1458 1.387 . S
C1458 H1443 0.930 . S
C1458 C1453 1.390 . S
C1458 C1457 1.387 . S
H1459 C1471 0.930 . S
H1460 C1473 0.930 . S
H1461 C1474 0.930 . S
H1462 C1478 0.959 . S
H1463 C1478 0.959 . S
H1464 C1478 0.961 . S
H1465 C1479 0.962 . S
H1466 C1479 0.961 . S
H1467 C1479 0.959 . S
H1468 C1482 0.929 . S
H1469 C1483 0.931 . S
H1470 C1485 0.930 . S
C1471 H1459 0.930 . S
C1471 C1472 1.399 . S
C1471 C1476 1.399 . S
C1472 C1471 1.399 . S
C1472 C1473 1.376 . S
C1473 H1460 0.930 . S
C1473 C1472 1.376 . S
C1473 C1474 1.388 . S
C1474 H1461 0.930 . S
C1474 C1473 1.388 . S
C1474 C1475 1.390 . S
C1475 C1474 1.390 . S
C1475 C1476 1.394 . S
C1475 C1481 1.465 1_545 S
C1476 C1471 1.399 . S
C1476 C1475 1.394 . S
C1476 C1477 1.516 . S
C1477 C1476 1.516 . S
C1477 C1478 1.502 . S
C1477 C1479 1.561 1_545 S
C1477 C1480 1.526 1_545 S
C1478 H1462 0.959 . S
C1478 H1463 0.959 . S
C1478 H1464 0.961 . S
C1478 C1477 1.502 . S
C1479 H1465 0.962 . S
C1479 H1466 0.961 . S
C1479 H1467 0.959 . S
C1479 C1477 1.561 1_565 S
C1480 C1477 1.526 1_565 S
C1480 C1481 1.396 . S
C1480 C1485 1.390 . S
C1481 C1475 1.465 1_565 S
C1481 C1480 1.396 . S
C1481 C1482 1.399 . S
C1482 H1468 0.929 . S
C1482 C1481 1.399 . S
C1482 C1483 1.385 . S
C1483 H1469 0.931 . S
C1483 C1482 1.385 . S
C1483 C1484 1.389 . S
C1484 C1483 1.389 . S
C1484 C1485 1.387 . S
C1485 H1470 0.930 . S
C1485 C1480 1.390 . S
C1485 C1484 1.387 . S
H1486 C1498 0.930 . S
H1487 C1500 0.930 . S
H1488 C1501 0.930 . S
H1489 C1505 0.959 . S
H1490 C1505 0.959 . S
H1491 C1505 0.961 . S
H1492 C1506 0.960 . S
H1493 C1506 0.961 . S
H1494 C1506 0.959 . S
H1495 C1509 0.929 1_455 S
H1496 C1510 0.931 . S
H1497 C1512 0.930 . S
C1498 H1486 0.930 . S
C1498 C1499 1.399 . S
C1498 C1503 1.399 . S
C1499 C1498 1.399 . S
C1499 C1500 1.376 . S
C1500 H1487 0.930 . S
C1500 C1499 1.376 . S
C1500 C1501 1.388 . S
C1501 H1488 0.930 . S
C1501 C1500 1.388 . S
C1501 C1502 1.390 . S
C1502 C1501 1.390 . S
C1502 C1503 1.394 . S
C1502 C1508 1.465 1_455 S
C1503 C1498 1.399 . S
C1503 C1502 1.394 . S
C1503 C1504 1.516 1_455 S
C1504 C1503 1.516 1_655 S
C1504 C1505 1.502 . S
C1504 C1506 1.561 . S
C1504 C1507 1.526 . S
C1505 H1489 0.959 . S
C1505 H1490 0.959 . S
C1505 H1491 0.961 . S
C1505 C1504 1.502 . S
C1506 H1492 0.960 . S
C1506 H1493 0.961 . S
C1506 H1494 0.959 . S
C1506 C1504 1.561 . S
C1507 C1504 1.526 . S
C1507 C1508 1.396 . S
C1507 C1512 1.390 . S
C1508 C1502 1.465 1_655 S
C1508 C1507 1.396 . S
C1508 C1509 1.399 . S
C1509 H1495 0.929 1_655 S
C1509 C1508 1.399 . S
C1509 C1510 1.385 . S
C1510 H1496 0.931 . S
C1510 C1509 1.385 . S
C1510 C1511 1.389 . S
C1511 C1510 1.389 . S
C1511 C1512 1.387 . S
C1512 H1497 0.930 . S
C1512 C1507 1.390 . S
C1512 C1511 1.387 . S
H1513 C1525 0.930 . S
H1514 C1527 0.930 . S
H1515 C1528 0.930 . S
H1516 C1532 0.959 . S
H1517 C1532 0.959 . S
H1518 C1532 0.961 . S
H1519 C1533 0.960 . S
H1520 C1533 0.961 . S
H1521 C1533 0.959 . S
H1522 C1536 0.929 . S
H1523 C1537 0.931 . S
H1524 C1539 0.930 . S
C1525 H1513 0.930 . S
C1525 C1526 1.399 . S
C1525 C1530 1.399 . S
C1526 C1525 1.399 . S
C1526 C1527 1.376 . S
C1527 H1514 0.930 . S
C1527 C1526 1.376 . S
C1527 C1528 1.388 . S
C1528 H1515 0.930 . S
C1528 C1527 1.388 . S
C1528 C1529 1.390 . S
C1529 C1528 1.390 . S
C1529 C1530 1.394 . S
C1529 C1535 1.465 1_565 S
C1530 C1525 1.399 . S
C1530 C1529 1.394 . S
C1530 C1531 1.516 1_565 S
C1531 C1530 1.516 1_545 S
C1531 C1532 1.502 1_545 S
C1531 C1533 1.561 . S
C1531 C1534 1.526 . S
C1532 H1516 0.959 . S
C1532 H1517 0.959 . S
C1532 H1518 0.961 . S
C1532 C1531 1.502 1_565 S
C1533 H1519 0.960 . S
C1533 H1520 0.961 . S
C1533 H1521 0.959 . S
C1533 C1531 1.561 . S
C1534 C1531 1.526 . S
C1534 C1535 1.396 . S
C1534 C1539 1.390 . S
C1535 C1529 1.465 1_545 S
C1535 C1534 1.396 . S
C1535 C1536 1.399 . S
C1536 H1522 0.929 . S
C1536 C1535 1.399 . S
C1536 C1537 1.385 . S
C1537 H1523 0.931 . S
C1537 C1536 1.385 . S
C1537 C1538 1.389 . S
C1538 C1537 1.389 . S
C1538 C1539 1.387 . S
C1539 H1524 0.930 . S
C1539 C1534 1.390 . S
C1539 C1538 1.387 . S
H1540 C1552 0.930 . S
H1541 C1554 0.930 . S
H1542 C1555 0.930 . S
H1543 C1559 0.959 . S
H1544 C1559 0.959 . S
H1545 C1559 0.961 . S
H1546 C1560 0.960 . S
H1547 C1560 0.961 . S
H1548 C1560 0.959 . S
H1549 C1563 0.902 1_455 S
H1550 C1564 0.931 . S
H1551 C1566 0.930 . S
C1552 H1540 0.930 . S
C1552 C1553 1.399 . S
C1552 C1557 1.399 . S
C1553 C1552 1.399 . S
C1553 C1554 1.376 . S
C1554 H1541 0.930 . S
C1554 C1553 1.376 . S
C1554 C1555 1.388 . S
C1555 H1542 0.930 . S
C1555 C1554 1.388 . S
C1555 C1556 1.390 . S
C1556 C1555 1.390 . S
C1556 C1557 1.394 . S
C1556 C1562 1.465 1_455 S
C1557 C1552 1.399 . S
C1557 C1556 1.394 . S
C1557 C1558 1.516 1_455 S
C1558 C1557 1.516 1_655 S
C1558 C1559 1.502 . S
C1558 C1560 1.561 . S
C1558 C1561 1.526 . S
C1559 H1543 0.959 . S
C1559 H1544 0.959 . S
C1559 H1545 0.961 . S
C1559 C1558 1.502 . S
C1560 H1546 0.960 . S
C1560 H1547 0.961 . S
C1560 H1548 0.959 . S
C1560 C1558 1.561 . S
C1561 C1558 1.526 . S
C1561 C1562 1.396 . S
C1561 C1566 1.390 . S
C1562 C1556 1.465 1_655 S
C1562 C1561 1.396 . S
C1562 C1563 1.400 . S
C1563 H1549 0.902 1_655 S
C1563 C1562 1.400 . S
C1563 C1564 1.412 . S
C1564 H1550 0.931 . S
C1564 C1563 1.412 . S
C1564 C1565 1.389 . S
C1565 C1564 1.389 . S
C1565 C1566 1.387 . S
C1566 H1551 0.930 . S
C1566 C1561 1.390 . S
C1566 C1565 1.387 . S
H1567 C1579 0.930 . S
H1568 C1581 0.930 . S
H1569 C1582 0.930 . S
H1570 C1586 0.959 . S
H1571 C1586 0.959 . S
H1572 C1586 0.961 . S
H1573 C1587 0.960 . S
H1574 C1587 0.961 . S
H1575 C1587 0.959 . S
H1576 C1590 0.929 . S
H1577 C1591 0.931 . S
H1578 C1593 0.930 . S
C1579 H1567 0.930 . S
C1579 C1580 1.399 . S
C1579 C1584 1.399 . S
C1580 C1579 1.399 . S
C1580 C1581 1.376 . S
C1581 H1568 0.930 . S
C1581 C1580 1.376 . S
C1581 C1582 1.388 . S
C1582 H1569 0.930 . S
C1582 C1581 1.388 . S
C1582 C1583 1.390 . S
C1583 C1582 1.390 . S
C1583 C1584 1.394 . S
C1583 C1589 1.465 1_545 S
C1584 C1579 1.399 . S
C1584 C1583 1.394 . S
C1584 C1585 1.527 . S
C1585 C1584 1.527 . S
C1585 C1586 1.513 . S
C1585 C1587 1.550 1_545 S
C1585 C1588 1.514 1_545 S
C1586 H1570 0.959 . S
C1586 H1571 0.959 . S
C1586 H1572 0.961 . S
C1586 C1585 1.513 . S
C1587 H1573 0.960 . S
C1587 H1574 0.961 . S
C1587 H1575 0.959 . S
C1587 C1585 1.550 1_565 S
C1588 C1585 1.514 1_565 S
C1588 C1589 1.396 . S
C1588 C1593 1.390 . S
C1589 C1583 1.465 1_565 S
C1589 C1588 1.396 . S
C1589 C1590 1.399 . S
C1590 H1576 0.929 . S
C1590 C1589 1.399 . S
C1590 C1591 1.385 . S
C1591 H1577 0.931 . S
C1591 C1590 1.385 . S
C1591 C1592 1.389 . S
C1592 C1591 1.389 . S
C1592 C1593 1.387 . S
C1593 H1578 0.930 . S
C1593 C1588 1.390 . S
C1593 C1592 1.387 . S
H1594 C1606 0.930 . S
H1595 C1608 0.930 . S
H1596 C1609 0.930 . S
H1597 C1613 0.959 . S
H1598 C1613 0.959 . S
H1599 C1613 0.961 . S
H1600 C1614 0.960 . S
H1601 C1614 0.961 . S
H1602 C1614 0.959 . S
H1603 C1617 0.929 1_655 S
H1604 C1618 0.931 . S
H1605 C1620 0.930 . S
C1606 H1594 0.930 . S
C1606 C1607 1.399 . S
C1606 C1611 1.399 . S
C1607 C1606 1.399 . S
C1607 C1608 1.376 . S
C1608 H1595 0.930 . S
C1608 C1607 1.376 . S
C1608 C1609 1.388 . S
C1609 H1596 0.930 . S
C1609 C1608 1.388 . S
C1609 C1610 1.390 . S
C1610 C1609 1.390 . S
C1610 C1611 1.394 . S
C1610 C1616 1.465 1_655 S
C1611 C1606 1.399 . S
C1611 C1610 1.394 . S
C1611 C1612 1.516 1_655 S
C1612 C1611 1.516 1_455 S
C1612 C1613 1.502 . S
C1612 C1614 1.561 . S
C1612 C1615 1.526 . S
C1613 H1597 0.959 . S
C1613 H1598 0.959 . S
C1613 H1599 0.961 . S
C1613 C1612 1.502 . S
C1614 H1600 0.960 . S
C1614 H1601 0.961 . S
C1614 H1602 0.959 . S
C1614 C1612 1.561 . S
C1615 C1612 1.526 . S
C1615 C1616 1.396 . S
C1615 C1620 1.390 . S
C1616 C1610 1.465 1_455 S
C1616 C1615 1.396 . S
C1616 C1617 1.399 . S
C1617 H1603 0.929 1_455 S
C1617 C1616 1.399 . S
C1617 C1618 1.385 . S
C1618 H1604 0.931 . S
C1618 C1617 1.385 . S
C1618 C1619 1.389 . S
C1619 C1618 1.389 . S
C1619 C1620 1.387 . S
C1620 H1605 0.930 . S
C1620 C1615 1.390 . S
C1620 C1619 1.387 . S
H1621 C1633 0.930 . S
H1622 C1635 0.930 . S
H1623 C1636 0.930 . S
H1624 C1640 0.959 . S
H1625 C1640 0.959 . S
H1626 C1640 0.961 . S
H1627 C1641 0.960 . S
H1628 C1641 0.961 1_545 S
H1629 C1641 0.959 . S
H1630 C1644 0.929 . S
H1631 C1645 0.931 . S
H1632 C1647 0.930 . S
C1633 H1621 0.930 . S
C1633 C1634 1.399 . S
C1633 C1638 1.399 . S
C1634 C1633 1.399 . S
C1634 C1635 1.376 . S
C1635 H1622 0.930 . S
C1635 C1634 1.376 . S
C1635 C1636 1.388 . S
C1636 H1623 0.930 . S
C1636 C1635 1.388 . S
C1636 C1637 1.390 . S
C1637 C1636 1.390 . S
C1637 C1638 1.394 . S
C1637 C1643 1.465 1_565 S
C1638 C1633 1.399 . S
C1638 C1637 1.394 . S
C1638 C1639 1.516 1_565 S
C1639 C1638 1.516 1_545 S
C1639 C1640 1.502 . S
C1639 C1641 1.561 1_545 S
C1639 C1642 1.526 . S
C1640 H1624 0.959 . S
C1640 H1625 0.959 . S
C1640 H1626 0.961 . S
C1640 C1639 1.502 . S
C1641 H1627 0.960 . S
C1641 H1628 0.961 1_565 S
C1641 H1629 0.959 . S
C1641 C1639 1.561 1_565 S
C1642 C1639 1.526 . S
C1642 C1643 1.396 . S
C1642 C1647 1.390 . S
C1643 C1637 1.465 1_545 S
C1643 C1642 1.396 . S
C1643 C1644 1.399 . S
C1644 H1630 0.929 . S
C1644 C1643 1.399 . S
C1644 C1645 1.385 . S
C1645 H1631 0.931 . S
C1645 C1644 1.385 . S
C1645 C1646 1.389 . S
C1646 C1645 1.389 . S
C1646 C1647 1.387 . S
C1647 H1632 0.930 . S
C1647 C1642 1.390 . S
C1647 C1646 1.387 . S
C365 C8 0.980 . S
C377 C76 0.950 1_545 S
C392 C18 0.921 1_655 S
C404 C40 0.978 . S
C419 C62 0.970 . S
C431 C32 0.912 1_565 S
C446 C84 0.973 . S
C458 C54 0.961 1_455 S
C473 C120 0.954 1_565 S
C485 C96 0.887 . S
C500 C128 0.907 . S
C512 C150 0.911 1_455 S
C527 C172 0.953 1_545 S
C539 C140 0.978 . S
C554 C106 0.937 1_655 S
C566 C162 0.886 . S
C581 C184 0.889 . S
C593 C260 0.938 1_565 S
C608 C194 0.978 1_455 S
C620 C216 0.952 . S
C635 C208 0.901 1_545 S
C647 C238 0.908 . S
C662 C230 0.965 1_655 S
C674 C250 0.982 . S
C689 C304 0.903 1_545 S
C701 C272 0.900 . S
C716 C326 0.977 1_655 S
C728 C294 0.969 . S
C743 C316 0.977 . S
C755 C338 0.940 1_565 S
C770 C340 0.982 . S
C782 C282 0.953 1_455 S
C797 C21 1.790 . S
C809 C117 1.768 . S
C824 C153 1.722 . S
C836 C29 1.722 . S
C851 C51 1.717 . S
C863 C175 1.729 . S
C878 C73 1.741 . S
C890 C109 1.784 . S
C905 C307 1.779 . S
C917 C197 1.790 . S
C932 C329 1.746 . S
C944 C205 1.770 . S
C959 C227 1.756 . S
C971 C345 1.779 . S
C986 C285 1.768 . S
C998 C263 1.743 . S
C1013 C10 1.455 . S
C1025 C228 1.455 . S
C1040 C30 1.469 . S
C1052 C252 1.465 . S
C1067 C186 1.467 . S
C1079 C52 1.471 . S
C1094 C74 1.462 . S
C1106 C206 1.466 . S
C1121 C98 1.477 . S
C1133 C318 1.476 . S
C1148 C118 1.472 . S
C1160 C348 1.475 . S
C1175 C142 1.476 . S
C1187 C274 1.477 . S
C1202 C296 1.454 . S
C1214 C164 1.456 . S
C1229 C7 0.441 . S
C1241 C139 0.316 . S
C1256 C161 0.409 . S
C1268 C37 0.321 . S
C1283 C95 0.402 . S
C1295 C59 0.537 . S
C1310 C125 0.313 . S
C1322 C81 0.444 . S
C1337 C315 0.547 . S
C1349 C183 0.500 . S
C1364 C351 0.474 . S
C1376 C213 0.538 . S
C1391 C271 0.484 . S
C1403 C235 0.384 . S
C1418 C249 0.404 . S
C1430 C293 0.499 . S
C1445 C15 1.840 . S
C1457 C65 1.932 . S
C1472 C43 1.865 . S
C1484 C87 1.917 . S
C1499 C103 1.928 . S
C1511 C147 1.854 . S
C1526 C169 1.875 . S
C1538 C131 1.908 . S
C1553 C241 1.928 . S
C1565 C191 1.838 . S
C1580 C257 1.851 . S
C1592 C219 1.890 . S
C1607 C279 1.889 . S
C1619 C323 1.853 . S
C1634 C301 1.934 . S
C1646 C337 1.869 . S
