# Generated by pormake.
# Topology wjf, (4)-cn, num edge types: 1
# Building blocks:
#     Node 0, Type 0, BuildingBlock: UXUYUI_clean_sbu_0, # of connection points: 4
#     Node 1, Type 0, BuildingBlock: UXUYUI_clean_sbu_0, # of connection points: 4
#     Node 2, Type 0, BuildingBlock: UXUYUI_clean_sbu_0, # of connection points: 4
#     Node 3, Type 0, BuildingBlock: UXUYUI_clean_sbu_0, # of connection points: 4
#     Node 4, Type 0, BuildingBlock: UXUYUI_clean_sbu_0, # of connection points: 4
#     Node 5, Type 0, BuildingBlock: UXUYUI_clean_sbu_0, # of connection points: 4
#     Node 6, Type 0, BuildingBlock: UXUYUI_clean_sbu_0, # of connection points: 4
#     Node 7, Type 0, BuildingBlock: UXUYUI_clean_sbu_0, # of connection points: 4
#     Node 8, Type 0, BuildingBlock: UXUYUI_clean_sbu_0, # of connection points: 4
#     Node 9, Type 0, BuildingBlock: UXUYUI_clean_sbu_0, # of connection points: 4
#     Node 10, Type 0, BuildingBlock: UXUYUI_clean_sbu_0, # of connection points: 4
#     Node 11, Type 0, BuildingBlock: UXUYUI_clean_sbu_0, # of connection points: 4
#     Edge 12, Type (0, 0), BuildingBlock: XIVTED_clean_linker_0, # of connection points: 2
#     Edge 13, Type (0, 0), BuildingBlock: XIVTED_clean_linker_0, # of connection points: 2
#     Edge 14, Type (0, 0), BuildingBlock: XIVTED_clean_linker_0, # of connection points: 2
#     Edge 15, Type (0, 0), BuildingBlock: XIVTED_clean_linker_0, # of connection points: 2
#     Edge 16, Type (0, 0), BuildingBlock: XIVTED_clean_linker_0, # of connection points: 2
#     Edge 17, Type (0, 0), BuildingBlock: XIVTED_clean_linker_0, # of connection points: 2
#     Edge 18, Type (0, 0), BuildingBlock: XIVTED_clean_linker_0, # of connection points: 2
#     Edge 19, Type (0, 0), BuildingBlock: XIVTED_clean_linker_0, # of connection points: 2
#     Edge 20, Type (0, 0), BuildingBlock: XIVTED_clean_linker_0, # of connection points: 2
#     Edge 21, Type (0, 0), BuildingBlock: XIVTED_clean_linker_0, # of connection points: 2
#     Edge 22, Type (0, 0), BuildingBlock: XIVTED_clean_linker_0, # of connection points: 2
#     Edge 23, Type (0, 0), BuildingBlock: XIVTED_clean_linker_0, # of connection points: 2
#     Edge 24, Type (0, 0), BuildingBlock: XIVTED_clean_linker_0, # of connection points: 2
#     Edge 25, Type (0, 0), BuildingBlock: XIVTED_clean_linker_0, # of connection points: 2
#     Edge 26, Type (0, 0), BuildingBlock: XIVTED_clean_linker_0, # of connection points: 2
#     Edge 27, Type (0, 0), BuildingBlock: XIVTED_clean_linker_0, # of connection points: 2
#     Edge 28, Type (0, 0), BuildingBlock: XIVTED_clean_linker_0, # of connection points: 2
#     Edge 29, Type (0, 0), BuildingBlock: XIVTED_clean_linker_0, # of connection points: 2
#     Edge 30, Type (0, 0), BuildingBlock: XIVTED_clean_linker_0, # of connection points: 2
#     Edge 31, Type (0, 0), BuildingBlock: XIVTED_clean_linker_0, # of connection points: 2
#     Edge 32, Type (0, 0), BuildingBlock: XIVTED_clean_linker_0, # of connection points: 2
#     Edge 33, Type (0, 0), BuildingBlock: XIVTED_clean_linker_0, # of connection points: 2
#     Edge 34, Type (0, 0), BuildingBlock: XIVTED_clean_linker_0, # of connection points: 2
#     Edge 35, Type (0, 0), BuildingBlock: XIVTED_clean_linker_0, # of connection points: 2
# Relax obj value: 0.355
# Max RMSD: 0.304
# Mean RMSD: 0.304
data_MOF--net-wjf--node1-UXUYUI_clean_sbu_0--edge1-XIVTED_clean_linker_0
_symmetry_space_group_name_H-M    P1
_symmetry_Int_Tables_number       1
_symmetry_cell_setting            triclinic
loop_
_symmetry_equiv_pos_as_xyz
'x, y, z'
_cell_length_a     73.330454
_cell_length_b     73.371935
_cell_length_c     39.377056
_cell_angle_alpha  89.991797
_cell_angle_beta   89.97566
_cell_angle_gamma 119.95975
loop_
_atom_site_label
_atom_site_type_symbol
_atom_site_fract_x
_atom_site_fract_y
_atom_site_fract_z
_atom_type_partial_charge
Li0 Li 0.314 0.39103 0.06364 0.0
Li1 Li 0.3195 0.36847 0.10151 0.0
Li2 Li 0.34813 0.39488 0.06594 0.0
Li3 Li 0.31985 0.36351 0.04014 0.0
C4 C 0.32737 0.4128 0.11818 0.0
N5 N 0.31503 0.43956 0.14576 0.0
C6 C 0.30964 0.40485 0.13911 0.0
C7 C 0.33895 0.43437 0.11149 0.0
C8 C 0.30362 0.41864 0.15275 0.0
C9 C 0.33242 0.44764 0.12563 0.0
C10 C 0.28177 0.33894 0.07218 0.0
C11 C 0.27382 0.30334 0.08296 0.0
N12 N 0.25306 0.29646 0.07758 0.0
C13 C 0.26037 0.33151 0.06669 0.0
C14 C 0.28858 0.32475 0.08032 0.0
C15 C 0.2461 0.30998 0.06957 0.0
C16 C 0.30429 0.42169 0.03784 0.0
N17 N 0.29747 0.40411 0.05716 0.0
C18 C 0.26347 0.40067 0.06249 0.0
C19 C 0.27766 0.39385 0.0701 0.0
C20 C 0.26974 0.41823 0.04127 0.0
C21 C 0.29064 0.42911 0.02963 0.0
H22 H 0.32004 0.42956 0.02776 0.0
H23 H 0.27264 0.37986 0.08531 0.0
C24 C 0.32972 0.35487 0.16 0.0
N25 N 0.31335 0.35501 0.14423 0.0
C26 C 0.3269 0.3453 0.19159 0.0
C27 C 0.2904 0.33647 0.19048 0.0
C28 C 0.29391 0.34612 0.15866 0.0
C29 C 0.30704 0.33596 0.20725 0.0
H30 H 0.34505 0.36244 0.14811 0.0
H31 H 0.2812 0.34661 0.14557 0.0
C32 C 0.34545 0.40781 0.00257 0.0
N33 N 0.37378 0.4379 0.95828 0.0
C34 C 0.34928 0.4019 0.97078 0.0
C35 C 0.35601 0.42906 0.01174 0.0
C36 C 0.36366 0.41734 0.94877 0.0
C37 C 0.37027 0.44402 0.98903 0.0
C38 C 0.35558 0.3611 0.06108 0.0
C39 C 0.36118 0.36496 0.02683 0.0
C40 C 0.36534 0.35308 0.08194 0.0
C41 C 0.37656 0.3609 0.01402 0.0
C42 C 0.38067 0.34923 0.06821 0.0
N43 N 0.38592 0.35319 0.03481 0.0
C44 C 0.38591 0.42576 0.09491 0.0
C45 C 0.39013 0.41711 0.03858 0.0
C46 C 0.40724 0.44086 0.09673 0.0
N47 N 0.37774 0.41442 0.06602 0.0
C48 C 0.41148 0.43215 0.03918 0.0
C49 C 0.42025 0.44435 0.06845 0.0
H50 H 0.37578 0.42321 0.11649 0.0
H51 H 0.38345 0.4079 0.01591 0.0
C52 C 0.30315 0.34757 0.97701 0.0
N53 N 0.31144 0.34346 0.00478 0.0
C54 C 0.29831 0.33498 0.94822 0.0
C55 C 0.30934 0.31328 0.97798 0.0
C56 C 0.31406 0.32639 0.00623 0.0
C57 C 0.30185 0.31784 0.94814 0.0
H58 H 0.30108 0.36117 0.97684 0.0
H59 H 0.32037 0.3233 0.02892 0.0
O60 O 0.33314 0.39946 0.10382 0.0
O61 O 0.29589 0.36 0.06923 0.0
O62 O 0.33149 0.39286 0.02454 0.0
O63 O 0.34045 0.36484 0.07416 0.0
H64 H 0.30044 0.38819 0.14436 0.0
H65 H 0.3528 0.44081 0.09554 0.0
H66 H 0.28983 0.41268 0.16879 0.0
H67 H 0.34118 0.46437 0.12057 0.0
H68 H 0.27887 0.2922 0.08926 0.0
H69 H 0.25485 0.34227 0.06021 0.0
H70 H 0.30506 0.33014 0.08461 0.0
H71 H 0.22949 0.30402 0.06541 0.0
H72 H 0.24745 0.39159 0.07169 0.0
H73 H 0.29621 0.44285 0.01355 0.0
H74 H 0.34026 0.34569 0.204 0.0
H75 H 0.27487 0.32945 0.20176 0.0
H76 H 0.34134 0.38556 0.96318 0.0
H77 H 0.35355 0.4339 0.03642 0.0
H78 H 0.3668 0.41296 0.92415 0.0
H79 H 0.37865 0.46049 -0.00405 0.0
H80 H 0.35375 0.37104 0.01027 0.0
H81 H 0.3611 0.34981 0.10846 0.0
H82 H 0.38105 0.36387 0.98755 0.0
H83 H 0.38836 0.34305 0.08409 0.0
H84 H 0.41338 0.45003 0.11973 0.0
H85 H 0.42104 0.43415 0.01699 0.0
H86 H 0.29288 0.33935 0.92573 0.0
H87 H 0.31203 0.30006 0.9792 0.0
Li88 Li 0.95132 0.32511 0.43767 0.0
Li89 Li 0.92619 0.31655 0.39331 0.0
Li90 Li 0.96206 0.32684 0.38 0.0
Li91 Li 0.95341 0.35219 0.40118 0.0
C92 C 0.95011 0.28919 0.41153 0.0
N93 N 0.96744 0.26396 0.42402 0.0
C94 C 0.93826 0.26751 0.40603 0.0
C95 C 0.97081 0.29806 0.42327 0.0
C96 C 0.94729 0.25501 0.41254 0.0
C97 C 0.97927 0.28503 0.42946 0.0
C98 C 0.91449 0.3241 0.45626 0.0
C99 C 0.89059 0.32399 0.49847 0.0
N100 N 0.88267 0.30299 0.50314 0.0
C101 C 0.90611 0.30251 0.46148 0.0
C102 C 0.90669 0.33493 0.4749 0.0
C103 C 0.89004 0.29214 0.48529 0.0
C104 C 0.96505 0.33692 0.50327 0.0
N105 N 0.95513 0.31962 0.48321 0.0
C106 C 0.95045 0.29705 0.53013 0.0
C107 C 0.9477 0.2999 0.49585 0.0
C108 C 0.96048 0.31466 0.55146 0.0
C109 C 0.96783 0.33479 0.53772 0.0
H110 H 0.97056 0.35236 0.49245 0.0
H111 H 0.93937 0.28635 0.47955 0.0
C112 C 0.89913 0.28466 0.35362 0.0
N113 N 0.89882 0.2978 0.37753 0.0
C114 C 0.88044 0.26867 0.34026 0.0
C115 C 0.86126 0.2803 0.37573 0.0
C116 C 0.8805 0.29636 0.38821 0.0
C117 C 0.86113 0.26592 0.35199 0.0
H118 H 0.914 0.28643 0.34544 0.0
H119 H 0.88076 0.30727 0.40691 0.0
C120 C 0.99558 0.36415 0.40386 0.0
N121 N 0.03306 0.3968 0.37945 0.0
C122 C 0.99736 0.3702 0.36979 0.0
C123 C 0.01286 0.37471 0.42548 0.0
C124 C 0.01644 0.38674 0.35794 0.0
C125 C 0.03168 0.39118 0.41267 0.0
C126 C 0.93266 0.34291 0.33921 0.0
C127 C 0.93501 0.34468 0.30395 0.0
C128 C 0.91848 0.34763 0.35516 0.0
C129 C 0.92315 0.35123 0.28517 0.0
C130 C 0.90691 0.35412 0.33548 0.0
N131 N 0.90947 0.35577 0.30119 0.0
C132 C 0.96606 0.31044 0.32058 0.0
C133 C -0.00186 0.32616 0.35136 0.0
C134 C 0.97535 0.30582 0.2937 0.0
N135 N 0.97758 0.32078 0.34827 0.0
C136 C 0.00819 0.32198 0.32479 0.0
C137 C 0.9968 0.31199 0.29524 0.0
H138 H 0.94973 0.30635 0.31903 0.0
H139 H 0.00684 0.33413 0.37396 0.0
C140 C 0.96031 0.38986 0.43001 0.0
N141 N 0.9606 0.38085 0.40004 0.0
C142 C 0.96633 0.41115 0.43132 0.0
C143 C 0.97271 0.41341 0.37079 0.0
C144 C 0.96657 0.3921 0.37067 0.0
C145 C 0.97276 0.42325 0.40145 0.0
H146 H 0.95566 0.38052 0.45299 0.0
H147 H 0.96681 0.3846 0.34719 0.0
O148 O 0.94145 0.30156 0.40488 0.0
O149 O 0.93037 0.33478 0.43334 0.0
O150 O 0.9771 0.34805 0.4163 0.0
O151 O 0.94421 0.33647 0.35775 0.0
H152 H 0.92224 0.26044 0.39682 0.0
H153 H 0.98026 0.3148 0.42764 0.0
H154 H 0.93828 0.2382 0.40843 0.0
H155 H 0.99526 0.29168 0.43858 0.0
H156 H 0.88441 0.33218 0.51307 0.0
H157 H 0.91185 0.2938 0.44728 0.0
H158 H 0.91304 0.35165 0.47118 0.0
H159 H 0.88341 0.27544 0.48957 0.0
H160 H 0.9444 0.28129 0.54002 0.0
H161 H 0.97577 0.34873 0.55344 0.0
H162 H 0.88113 0.25833 0.32133 0.0
H163 H 0.84673 0.27873 0.38542 0.0
H164 H 0.98423 0.36222 0.35258 0.0
H165 H 0.01172 0.37021 0.45193 0.0
H166 H 0.01803 0.39157 0.33164 0.0
H167 H 0.04518 0.39949 0.42914 0.0
H168 H 0.94591 0.34105 0.29125 0.0
H169 H 0.91642 0.34636 0.38239 0.0
H170 H 0.92482 0.35269 0.25785 0.0
H171 H 0.8959 0.35785 0.34748 0.0
H172 H 0.96606 0.29849 0.2712 0.0
H173 H 0.02475 0.32694 0.32695 0.0
H174 H 0.96641 0.41814 0.45557 0.0
H175 H 0.97729 0.42207 0.3471 0.0
Li176 Li 0.63318 0.95489 0.76746 0.0
Li177 Li 0.60653 0.92485 0.73537 0.0
Li178 Li 0.6321 0.95815 0.70741 0.0
Li179 Li 0.60295 0.95648 0.73971 0.0
C180 C 0.65286 0.93433 0.74375 0.0
N181 N 0.68383 0.92667 0.76762 0.0
C182 C 0.6478 0.914 0.75343 0.0
C183 C 0.6737 0.95071 0.74588 0.0
C184 C 0.66368 0.91046 0.7655 0.0
C185 C 0.68913 0.94654 0.75813 0.0
C186 C 0.58844 0.92412 0.80026 0.0
C187 C 0.55321 0.90433 0.8229 0.0
N188 N 0.56046 0.89699 0.84819 0.0
C189 C 0.59555 0.91658 0.82675 0.0
C190 C 0.56712 0.91813 0.79856 0.0
C191 C 0.58116 0.90281 0.85061 0.0
C192 C 0.65797 0.98332 0.81749 0.0
N193 N 0.65067 0.96333 0.80645 0.0
C194 C 0.66611 0.95588 0.85397 0.0
C195 C 0.65472 0.9497 0.82375 0.0
C196 C 0.67309 0.97617 0.8668 0.0
C197 C 0.66927 0.99012 0.84774 0.0
H198 H 0.65432 0.99376 0.80343 0.0
H199 H 0.64853 0.9338 0.81477 0.0
C200 C 0.59134 0.88933 0.6959 0.0
N201 N 0.59246 0.8953 0.72885 0.0
C202 C 0.58401 0.86834 0.68771 0.0
C203 C 0.5787 0.85985 0.74753 0.0
C204 C 0.58599 0.88104 0.75456 0.0
C205 C 0.57812 0.85339 0.71376 0.0
H206 H 0.59705 0.90108 0.67603 0.0
H207 H 0.58744 0.88616 0.78055 0.0
C208 C 0.64653 0.99701 0.72624 0.0
N209 N 0.67326 0.03411 0.69301 0.0
C210 C 0.63836 0.00777 0.70833 0.0
C211 C 0.66829 0.00523 0.72761 0.0
C212 C 0.65214 0.02648 0.6916 0.0
C213 C 0.68155 0.02397 0.71055 0.0
C214 C 0.58219 0.93082 0.68327 0.0
C215 C 0.58013 0.9353 0.64944 0.0
C216 C 0.5644 0.9163 0.70126 0.0
C217 C 0.56023 0.92542 0.63438 0.0
C218 C 0.54476 0.90673 0.68533 0.0
N219 N 0.54309 0.91147 0.6525 0.0
C220 C 0.66329 0.96519 0.65817 0.0
C221 C 0.63902 0.97646 0.64405 0.0
C222 C 0.67115 0.96902 0.62504 0.0
N223 N 0.64721 0.96853 0.66664 0.0
C224 C 0.64621 0.98029 0.6107 0.0
C225 C 0.66198 0.9759 0.6007 0.0
H226 H 0.66917 0.95843 0.67646 0.0
H227 H 0.62606 0.97868 0.65151 0.0
C228 C 0.57648 0.96852 0.77342 0.0
N229 N 0.58357 0.96637 0.74262 0.0
C230 C 0.56153 0.97498 0.77554 0.0
C231 C 0.562 0.97747 0.71428 0.0
C232 C 0.57696 0.97105 0.71337 0.0
C233 C 0.55392 0.97929 0.74564 0.0
H234 H 0.58224 0.96494 0.7963 0.0
H235 H 0.58332 0.96982 0.68929 0.0
O236 O 0.63749 0.93807 0.73192 0.0
O237 O 0.6024 0.93789 0.77696 0.0
O238 O 0.63329 0.97853 0.74237 0.0
O239 O 0.60158 0.94047 0.69843 0.0
H240 H 0.63178 0.90111 0.75177 0.0
H241 H 0.67791 0.96651 0.73839 0.0
H242 H 0.65998 0.89483 0.77321 0.0
H243 H 0.7053 0.9591 0.7601 0.0
H244 H 0.53667 0.89952 0.82177 0.0
H245 H 0.61195 0.92109 0.82867 0.0
H246 H 0.56132 0.92417 0.77885 0.0
H247 H 0.58646 0.89674 0.87106 0.0
H248 H 0.66885 0.94467 0.86766 0.0
H249 H 0.67395 0.00577 0.85691 0.0
H250 H 0.58424 0.86413 0.66141 0.0
H251 H 0.57432 0.84878 0.76833 0.0
H252 H 0.62157 0.00167 0.70713 0.0
H253 H 0.67487 0.99722 0.74169 0.0
H254 H 0.64603 0.03491 0.67746 0.0
H255 H 0.69842 0.03047 0.71126 0.0
H256 H 0.59374 0.94633 0.63494 0.0
H257 H 0.56578 0.91226 0.72709 0.0
H258 H 0.5584 0.92883 0.60828 0.0
H259 H 0.53087 0.89546 0.69902 0.0
H260 H 0.68323 0.96534 0.618 0.0
H261 H 0.6389 0.98575 0.59253 0.0
H262 H 0.55567 0.97614 0.80022 0.0
H263 H 0.55691 0.98109 0.69068 0.0
Li264 Li 0.67671 0.63049 0.0984 0.0
Li265 Li 0.68175 0.60473 0.06629 0.0
Li266 Li 0.67453 0.63038 0.03777 0.0
Li267 Li 0.64617 0.60074 0.06759 0.0
C268 C 0.71743 0.6522 0.07724 0.0
N269 N 0.75423 0.6853 0.10265 0.0
C270 C 0.73423 0.64923 0.08604 0.0
C271 C 0.71942 0.67206 0.08109 0.0
C272 C 0.75269 0.66615 0.0989 0.0
C273 C 0.73812 0.68857 0.09407 0.0
C274 C 0.66238 0.58576 0.13017 0.0
C275 C 0.6456 0.55099 0.15485 0.0
N276 N 0.66046 0.5581 0.17968 0.0
C277 C 0.6773 0.59275 0.15621 0.0
C278 C 0.64623 0.56474 0.12972 0.0
C279 C 0.67615 0.57852 0.18087 0.0
C280 C 0.66984 0.65246 0.1498 0.0
N281 N 0.68383 0.64675 0.1388 0.0
C282 C 0.70491 0.66139 0.18841 0.0
C283 C 0.70128 0.65122 0.15715 0.0
C284 C 0.69031 0.66677 0.20108 0.0
C285 C 0.67279 0.66255 0.18099 0.0
H286 H 0.65597 0.64847 0.13488 0.0
H287 H 0.71207 0.64632 0.14809 0.0
C288 C 0.70137 0.58665 0.03007 0.0
N289 N 0.69828 0.59146 0.06213 0.0
C290 C 0.7162 0.58049 0.02382 0.0
C291 C 0.7245 0.58428 0.0837 0.0
C292 C 0.70918 0.59 0.08891 0.0
C293 C 0.72845 0.57994 0.05066 0.0
H294 H 0.69329 0.58885 0.00894 0.0
H295 H 0.70714 0.59474 0.11388 0.0
C296 C 0.64889 0.64387 0.05383 0.0
N297 N 0.63867 0.67002 0.01836 0.0
C298 C 0.632 0.63539 0.03113 0.0
C299 C 0.66043 0.66562 0.05881 0.0
C300 C 0.62712 0.64888 0.01334 0.0
C301 C 0.65506 0.67859 0.04056 0.0
C302 C 0.65283 0.58011 0.01362 0.0
C303 C 0.64755 0.57718 0.97915 0.0
C304 C 0.64874 0.5628 0.03372 0.0
C305 C 0.63795 0.55689 0.96555 0.0
C306 C 0.63915 0.54276 0.01919 0.0
N307 N 0.63397 0.54024 0.98569 0.0
C308 C 0.69897 0.66444 -0.00791 0.0
C309 C 0.66619 0.63692 0.97212 0.0
C310 C 0.70396 0.67354 0.95978 0.0
N311 N 0.68049 0.64628 -0.00263 0.0
C312 C 0.67064 0.64524 0.93946 0.0
C313 C 0.68993 0.66347 0.93293 0.0
H314 H 0.71022 0.67137 0.01244 0.0
H315 H 0.65164 0.62251 0.97716 0.0
C316 C 0.60694 0.57599 0.09952 0.0
N317 N 0.61682 0.5815 0.06893 0.0
C318 C 0.58538 0.56166 0.10133 0.0
C319 C 0.58454 0.55934 0.04005 0.0
C320 C 0.60606 0.57376 0.03945 0.0
C321 C 0.57389 0.55303 0.0713 0.0
H322 H 0.61587 0.5827 0.12253 0.0
H323 H 0.61416 0.5788 0.01541 0.0
O324 O 0.69918 0.63576 0.06486 0.0
O325 O 0.66305 0.59959 0.10613 0.0
O326 O 0.65414 0.63094 0.07098 0.0
O327 O 0.66206 0.59988 0.02743 0.0
H328 H 0.73306 0.63405 0.08295 0.0
H329 H 0.70659 0.67463 0.07443 0.0
H330 H 0.76579 0.66406 0.10589 0.0
H331 H 0.73982 0.70398 0.09736 0.0
H332 H 0.63324 0.53468 0.15468 0.0
H333 H 0.68983 0.60892 0.15714 0.0
H334 H 0.63422 0.55905 0.1103 0.0
H335 H 0.68773 0.58372 0.20097 0.0
H336 H 0.71873 0.66451 0.20288 0.0
H337 H 0.66091 0.66605 0.18995 0.0
H338 H 0.71918 0.57781 -0.00214 0.0
H339 H 0.73389 0.58429 0.10495 0.0
H340 H 0.6229 0.6186 0.027 0.0
H341 H 0.67337 0.67241 0.07664 0.0
H342 H 0.61418 0.64255 -0.0045 0.0
H343 H 0.66391 0.69546 0.04406 0.0
H344 H 0.65079 0.59039 0.96303 0.0
H345 H 0.65323 0.56486 0.0601 0.0
H346 H 0.6337 0.55439 0.93896 0.0
H347 H 0.63591 0.52924 0.03452 0.0
H348 H 0.71899 0.6876 0.95544 0.0
H349 H 0.65938 0.63723 0.91929 0.0
H350 H 0.57778 0.55757 0.12594 0.0
H351 H 0.57642 0.553 0.01626 0.0
Li352 Li 0.07201 0.68504 0.39828 0.0
Li353 Li 0.04488 0.67889 0.43696 0.0
Li354 Li 0.04373 0.64961 0.40367 0.0
Li355 Li 0.03901 0.67771 0.37689 0.0
C356 C 0.0812 0.67303 0.45867 0.0
N357 N 0.11689 0.68562 0.49744 0.0
C358 C 0.09198 0.69339 0.47197 0.0
C359 C 0.08848 0.65903 0.46512 0.0
C360 C 0.11002 0.69946 0.49149 0.0
C361 C 0.10658 0.66571 0.48479 0.0
C362 C 0.0501 0.71514 0.40816 0.0
C363 C 0.02026 0.71998 0.41743 0.0
N364 N 0.03325 0.74118 0.41621 0.0
C365 C 0.06313 0.73697 0.40697 0.0
C366 C 0.02847 0.70655 0.4134 0.0
C367 C 0.05432 0.74987 0.41111 0.0
C368 C 0.10473 0.71842 0.36674 0.0
N369 N 0.101 0.70194 0.38699 0.0
C370 C 0.13667 0.70983 0.38108 0.0
C371 C 0.11644 0.69742 0.39443 0.0
C372 C 0.14074 0.72666 0.35945 0.0
C373 C 0.12453 0.73101 0.35257 0.0
H374 H 0.09206 0.7214 0.36077 0.0
H375 H 0.11296 0.68381 0.40962 0.0
C376 C 0.01979 0.66974 0.49392 0.0
N377 N 0.03728 0.6854 0.47895 0.0
C378 C 0.01251 0.67338 0.52437 0.0
C379 C 0.04156 0.70922 0.52363 0.0
C380 C 0.0482 0.7049 0.49297 0.0
C381 C 0.02345 0.69332 0.53961 0.0
H382 H 0.01157 0.65438 0.4822 0.0
H383 H 0.06199 0.71711 0.48029 0.0
C384 C 0.07162 0.66509 0.34268 0.0
N385 N 0.10441 0.66619 0.30637 0.0
C386 C 0.07807 0.67609 0.312 0.0
C387 C 0.08177 0.65455 0.35481 0.0
C388 C 0.09472 0.6765 0.29406 0.0
C389 C 0.09831 0.65529 0.33607 0.0
C390 C 0.00229 0.64058 0.39755 0.0
C391 C 0.00248 0.63233 0.36561 0.0
C392 C 0.98334 0.63257 0.41541 0.0
C393 C 0.98373 0.61616 0.35216 0.0
C394 C 0.96491 0.6164 0.40107 0.0
N395 N 0.96549 0.60859 0.37001 0.0
C396 C 0.03057 0.61017 0.43388 0.0
C397 C 0.03367 0.61069 0.3739 0.0
C398 C 0.02402 0.58873 0.43466 0.0
N399 N 0.03524 0.62062 0.40379 0.0
C400 C 0.02724 0.58931 0.37349 0.0
C401 C 0.02233 0.57804 0.40416 0.0
H402 H 0.03195 0.61853 0.45723 0.0
H403 H 0.0373 0.61935 0.3503 0.0
C404 C 0.04063 0.69904 0.31891 0.0
N405 N 0.02654 0.68486 0.34116 0.0
C406 C 0.03377 0.7032 0.28846 0.0
C407 C 0.99786 0.67946 0.30584 0.0
C408 C 0.00545 0.67598 0.33619 0.0
C409 C 0.01219 0.69254 0.28103 0.0
H410 H 0.05729 0.70629 0.32413 0.0
H411 H 0.9945 0.66547 0.35493 0.0
O412 O 0.06362 0.66679 0.43931 0.0
O413 O 0.05868 0.70243 0.40419 0.0
O414 O 0.05576 0.66498 0.36117 0.0
O415 O 0.02046 0.65628 0.41155 0.0
H416 H 0.08664 0.70444 0.46686 0.0
H417 H 0.08028 0.64322 0.45491 0.0
H418 H 0.1186 0.71521 0.50182 0.0
H419 H 0.11245 0.65508 0.48995 0.0
H420 H 0.00357 0.71354 0.42153 0.0
H421 H 0.0799 0.74386 0.40293 0.0
H422 H 0.01808 0.68972 0.41443 0.0
H423 H 0.06423 0.7668 0.41027 0.0
H424 H 0.14878 0.70595 0.38675 0.0
H425 H 0.12715 0.74403 0.33637 0.0
H426 H -0.00126 0.66058 0.53626 0.0
H427 H 0.05038 0.72478 0.53463 0.0
H428 H 0.07038 0.68428 0.30216 0.0
H429 H 0.07721 0.64624 0.37878 0.0
H430 H 0.09994 0.68505 0.27036 0.0
H431 H 0.1064 0.64734 0.34528 0.0
H432 H 0.01687 0.63847 0.35113 0.0
H433 H 0.98285 0.6388 0.44008 0.0
H434 H 0.98367 0.60967 0.32746 0.0
H435 H 0.95015 0.61006 0.41463 0.0
H436 H 0.02057 0.58068 0.45888 0.0
H437 H 0.02585 0.58163 0.34937 0.0
H438 H 0.0453 0.71331 0.26988 0.0
H439 H 0.98108 0.67115 0.30101 0.0
Li440 Li 0.3877 0.07368 0.72861 0.0
Li441 Li 0.36688 0.04535 0.76976 0.0
Li442 Li 0.39431 0.04482 0.73647 0.0
Li443 Li 0.36291 0.03933 0.70998 0.0
C444 C 0.4026 0.0808 0.79586 0.0
N445 N 0.41184 0.10989 0.84705 0.0
C446 C 0.38895 0.08848 0.80269 0.0
C447 C 0.42093 0.0879 0.81507 0.0
C448 C 0.39389 0.10317 0.82869 0.0
C449 C 0.42534 0.10263 0.84082 0.0
C450 C 0.33718 0.05274 0.72615 0.0
C451 C 0.29986 0.02814 0.72675 0.0
N452 N 0.29708 0.03968 0.7024 0.0
C453 C 0.33395 0.06442 0.70127 0.0
C454 C 0.32002 0.03449 0.73911 0.0
C455 C 0.31355 0.05752 0.68954 0.0
C456 C 0.39243 0.10222 0.68171 0.0
N457 N 0.3984 0.10194 0.71421 0.0
C458 C 0.41458 0.13939 0.71765 0.0
C459 C 0.40982 0.12005 0.73211 0.0
C460 C 0.40766 0.13992 0.68452 0.0
C461 C 0.39705 0.12104 0.66622 0.0
H462 H 0.38361 0.08763 0.66797 0.0
H463 H 0.41484 0.11955 0.75769 0.0
C464 C 0.35641 0.0234 0.82985 0.0
N465 N 0.35348 0.03771 0.81246 0.0
C466 C 0.34691 0.01615 0.86136 0.0
C467 C 0.33178 0.03876 0.85681 0.0
C468 C 0.34145 0.04546 0.82509 0.0
C469 C 0.33438 0.0238 0.8752 0.0
H470 H 0.36615 0.01764 0.8191 0.0
H471 H 0.3393 0.05674 0.81051 0.0
C472 C 0.41134 0.06873 0.679 0.0
N473 N 0.4507 0.09227 0.64999 0.0
C474 C 0.41403 0.06752 0.6441 0.0
C475 C 0.42867 0.08195 0.69916 0.0
C476 C 0.43405 0.07953 0.62991 0.0
C477 C 0.44844 0.09371 0.684 0.0
C478 C 0.363 0.00308 0.73103 0.0
C479 C 0.36918 0.00273 0.69756 0.0
C480 C 0.35455 0.98476 0.75061 0.0
C481 C 0.36682 0.98403 0.68424 0.0
C482 C 0.35244 0.96636 0.73637 0.0
N483 N 0.35858 0.96638 0.70376 0.0
C484 C 0.42293 0.03569 0.76879 0.0
C485 C 0.42149 0.03146 0.70899 0.0
C486 C 0.43781 0.02916 0.77128 0.0
N487 N 0.41511 0.03666 0.738 0.0
C488 C 0.43632 0.02489 0.71027 0.0
C489 C 0.44462 0.02356 0.74174 0.0
H490 H 0.41742 0.03978 0.79145 0.0
H491 H 0.41497 0.03227 0.68481 0.0
C492 C 0.34855 0.03789 0.64523 0.0
N493 N 0.34366 0.02605 0.67383 0.0
C494 C 0.33597 0.03017 0.61652 0.0
C495 C 0.31332 0.99807 0.64716 0.0
C496 C 0.32635 0.00654 0.67557 0.0
C497 C 0.31818 0.00995 0.6171 0.0
H498 H 0.36242 0.05331 0.64467 0.0
H499 H 0.32278 0.99755 0.69882 0.0
O500 O 0.39803 0.06614 0.77096 0.0
O501 O 0.35708 0.05888 0.73727 0.0
O502 O 0.39176 0.05696 0.69304 0.0
O503 O 0.36514 0.02117 0.74484 0.0
H504 H 0.3748 0.08336 0.78794 0.0
H505 H 0.43162 0.08206 0.81013 0.0
H506 H 0.38349 0.10927 0.83421 0.0
H507 H 0.43948 0.10827 0.85588 0.0
H508 H 0.28645 0.01398 0.73639 0.0
H509 H 0.34705 0.07858 0.69096 0.0
H510 H 0.32229 0.02515 0.75811 0.0
H511 H 0.31082 0.06634 0.67016 0.0
H512 H 0.42286 0.1536 0.73264 0.0
H513 H 0.39192 0.12071 0.64033 0.0
H514 H 0.3496 0.00488 0.875 0.0
H515 H 0.32217 0.04496 0.86662 0.0
H516 H 0.40076 0.05735 0.62817 0.0
H517 H 0.42697 0.08317 0.72618 0.0
H518 H 0.43636 0.07872 0.60294 0.0
H519 H 0.46198 0.10399 0.69929 0.0
H520 H 0.37571 0.01669 0.68193 0.0
H521 H 0.34966 0.98476 0.77656 0.0
H522 H 0.37155 0.98354 0.65839 0.0
H523 H 0.34593 0.95207 0.75125 0.0
H524 H 0.44359 0.02813 0.79609 0.0
H525 H 0.44133 0.02103 0.68681 0.0
H526 H 0.34057 0.03969 0.5937 0.0
H527 H 0.29973 0.98241 0.6486 0.0
Li528 Li 0.63299 0.6764 0.60332 0.0
Li529 Li 0.60159 0.64966 0.57817 0.0
Li530 Li 0.62869 0.67728 0.5437 0.0
Li531 Li 0.60776 0.68516 0.5842 0.0
C532 C 0.63324 0.63985 0.58437 0.0
N533 N 0.63825 0.60833 0.61341 0.0
C534 C 0.62702 0.63369 0.61796 0.0
C535 C 0.64202 0.62998 0.56557 0.0
C536 C 0.62968 0.61773 0.63217 0.0
C537 C 0.64442 0.61407 0.5807 0.0
C538 C 0.58466 0.65727 0.63495 0.0
C539 C 0.54744 0.64463 0.63003 0.0
N540 N 0.54536 0.64148 0.66419 0.0
C541 C 0.58215 0.65395 0.66999 0.0
C542 C 0.56717 0.65261 0.61476 0.0
C543 C 0.56216 0.64594 0.6843 0.0
C544 C 0.64813 0.69027 0.66767 0.0
N545 N 0.65258 0.683 0.639 0.0
C546 C 0.6826 0.68438 0.6652 0.0
C547 C 0.66965 0.68038 0.6369 0.0
C548 C 0.67793 0.69127 0.69558 0.0
C549 C 0.66068 0.69462 0.69634 0.0
H550 H 0.63447 0.69223 0.66843 0.0
H551 H 0.6729 0.67476 0.61356 0.0
C552 C 0.57347 0.61112 0.54754 0.0
N553 N 0.581 0.6206 0.57802 0.0
C554 C 0.55841 0.58976 0.54606 0.0
C555 C 0.55912 0.5884 0.60738 0.0
C556 C 0.57429 0.6097 0.60765 0.0
C557 C 0.55099 0.57818 0.5763 0.0
H558 H 0.57919 0.6202 0.52439 0.0
H559 H 0.58075 0.61749 0.63154 0.0
C560 C 0.65776 0.71552 0.58673 0.0
N561 N 0.69709 0.74377 0.61187 0.0
C562 C 0.65994 0.73023 0.61127 0.0
C563 C 0.67557 0.71525 0.57479 0.0
C564 C 0.67996 0.74436 0.62372 0.0
C565 C 0.69532 0.72965 0.58786 0.0
C566 C 0.59232 0.67569 0.51711 0.0
C567 C 0.60592 0.69664 0.50804 0.0
C568 C 0.57351 0.6639 0.4993 0.0
C569 C 0.60045 0.70546 0.48125 0.0
C570 C 0.56858 0.6733 0.47271 0.0
N571 N 0.58204 0.69371 0.4643 0.0
C572 C 0.63877 0.66505 0.48401 0.0
C573 C 0.65433 0.70212 0.48822 0.0
C574 C 0.64826 0.66694 0.45259 0.0
N575 N 0.64198 0.68247 0.50105 0.0
C576 C 0.66401 0.70476 0.4566 0.0
C577 C 0.66109 0.68699 0.43854 0.0
H578 H 0.62883 0.64966 0.49497 0.0
H579 H 0.65671 0.71571 0.50256 0.0
C580 C 0.60086 0.70802 0.63069 0.0
N581 N 0.59651 0.70248 0.59754 0.0
C582 C 0.595 0.72146 0.6456 0.0
C583 C 0.58017 0.72353 0.59194 0.0
C584 C 0.58592 0.70951 0.57819 0.0
C585 C 0.58507 0.72999 0.62601 0.0
H586 H 0.60922 0.70216 0.64555 0.0
H587 H 0.58225 0.70467 0.55205 0.0
O588 O 0.63082 0.65542 0.56968 0.0
O589 O 0.60423 0.6651 0.62082 0.0
O590 O 0.63825 0.70119 0.57488 0.0
O591 O 0.59746 0.66645 0.54268 0.0
H592 H 0.62025 0.64115 0.63301 0.0
H593 H 0.64692 0.63457 0.53954 0.0
H594 H 0.62493 0.61283 0.65814 0.0
H595 H 0.65118 0.6063 0.56643 0.0
H596 H 0.53378 0.64094 0.61473 0.0
H597 H 0.59555 0.6575 0.68595 0.0
H598 H 0.56873 0.65509 0.58763 0.0
H599 H 0.55999 0.64327 0.71139 0.0
H600 H 0.6958 0.68166 0.66361 0.0
H601 H 0.65626 0.69952 0.71937 0.0
H602 H 0.55243 0.58245 0.5216 0.0
H603 H 0.55404 0.57995 0.63121 0.0
H604 H 0.64631 0.73064 0.62077 0.0
H605 H 0.67411 0.70382 0.55603 0.0
H606 H 0.68188 0.75577 0.64285 0.0
H607 H 0.70924 0.72954 0.57903 0.0
H608 H 0.62043 0.7061 0.52171 0.0
H609 H 0.56286 0.64762 0.50594 0.0
H610 H 0.61081 0.72167 0.47402 0.0
H611 H 0.55406 0.66435 0.45872 0.0
H612 H 0.64533 0.65284 0.4392 0.0
H613 H 0.67386 0.72046 0.4466 0.0
H614 H 0.59854 0.72534 0.6722 0.0
H615 H 0.5726 0.72971 0.57575 0.0
Li616 Li 0.95204 0.5994 0.90628 0.0
Li617 Li 0.96077 0.63312 0.93572 0.0
Li618 Li 0.92671 0.61055 0.91352 0.0
Li619 Li 0.9547 0.6303 0.87512 0.0
C620 C 0.92501 0.59159 0.9709 0.0
N621 N 0.89111 0.56746 0.01279 0.0
C622 C 0.92344 0.5993 0.00256 0.0
C623 C 0.90947 0.5715 0.96072 0.0
C624 C 0.90614 0.58688 0.02333 0.0
C625 C 0.89242 0.55958 0.98221 0.0
C626 C 0.99509 0.62904 0.91294 0.0
C627 C 0.03244 0.64183 0.91102 0.0
N628 N 0.03056 0.62978 0.93851 0.0
C629 C 0.99355 0.61683 0.94128 0.0
C630 C 0.0147 0.64165 0.89771 0.0
C631 C 0.01165 0.61739 0.95376 0.0
C632 C 0.9702 0.57691 0.87818 0.0
N633 N 0.95808 0.5771 0.90414 0.0
C634 C 0.95789 0.54759 0.93008 0.0
C635 C 0.95182 0.56282 0.92976 0.0
C636 C 0.97086 0.54726 0.90406 0.0
C637 C 0.97684 0.56208 0.87765 0.0
H638 H 0.97524 0.58873 0.85847 0.0
H639 H 0.94259 0.56359 0.95049 0.0
C640 C 0.96197 0.65667 0.99074 0.0
N641 N 0.97465 0.65176 0.97246 0.0
C642 C 0.96889 0.66747 0.02136 0.0
C643 C 0.00241 0.66931 0.01264 0.0
C644 C 0.99492 0.65874 0.98189 0.0
C645 C 0.98902 0.67306 0.03323 0.0
H646 H 0.94603 0.65118 0.98241 0.0
H647 H 0.00507 0.65545 0.96651 0.0
C648 C 0.91516 0.58689 0.85486 0.0
N649 N 0.8785 0.55995 0.82088 0.0
C650 C 0.90484 0.59497 0.83552 0.0
C651 C 0.907 0.56516 0.85669 0.0
C652 C 0.88626 0.58107 0.81861 0.0
C653 C 0.8884 0.55179 0.83937 0.0
C654 C 0.95337 0.66281 0.90657 0.0
C655 C 0.94197 0.67336 0.90879 0.0
C656 C 0.97516 0.67429 0.90163 0.0
C657 C 0.95256 0.69526 0.90596 0.0
C658 C 0.98516 0.69618 0.8989 0.0
N659 N 0.97375 0.70612 0.9011 0.0
C660 C 0.89796 0.61558 0.94887 0.0
C661 C 0.88023 0.585 0.91489 0.0
C662 C 0.87912 0.61167 0.96359 0.0
N663 N 0.89829 0.6023 0.92523 0.0
C664 C 0.86083 0.58072 0.92842 0.0
C665 C 0.86011 0.59411 0.95333 0.0
H666 H 0.91255 0.62895 0.95716 0.0
H667 H 0.88075 0.57423 0.89689 0.0
C668 C 0.98101 0.6481 0.8194 0.0
N669 N 0.96312 0.6454 0.83419 0.0
C670 C 0.9883 0.65964 0.78948 0.0
C671 C 0.95851 0.66533 0.79057 0.0
C672 C 0.95187 0.65376 0.82066 0.0
C673 C 0.97696 0.66835 0.77464 0.0
H674 H 0.98951 0.64113 0.83077 0.0
H675 H 0.93776 0.65145 0.83327 0.0
O676 O 0.94156 0.60372 0.94983 0.0
O677 O 0.97755 0.62846 0.8997 0.0
O678 O 0.93353 0.60019 0.87108 0.0
O679 O 0.94308 0.64134 0.90928 0.0
H680 H 0.9354 0.61471 0.01101 0.0
H681 H 0.91037 0.56536 0.93617 0.0
H682 H 0.90467 0.5927 0.04783 0.0
H683 H 0.88018 0.5441 0.97449 0.0
H684 H 0.04771 0.65153 0.89948 0.0
H685 H 0.97862 0.60717 0.95376 0.0
H686 H 0.01621 0.65126 0.87586 0.0
H687 H 0.01067 0.60803 0.97565 0.0
H688 H 0.95262 0.53634 0.95071 0.0
H689 H 0.98708 0.56268 0.85735 0.0
H690 H 0.95808 0.66996 0.03675 0.0
H691 H 0.01812 0.6736 0.02102 0.0
H692 H 0.91105 0.61177 0.83376 0.0
H693 H 0.91495 0.55871 0.87133 0.0
H694 H 0.87803 0.58707 0.80367 0.0
H695 H 0.88184 0.53492 0.84063 0.0
H696 H 0.9251 0.66468 0.91265 0.0
H697 H 0.9843 0.66647 0.89988 0.0
H698 H 0.94392 0.70363 0.90761 0.0
H699 H 0.00201 0.70525 0.89504 0.0
H700 H 0.87965 0.62214 0.9834 0.0
H701 H 0.84663 0.56706 0.91947 0.0
H702 H 0.00236 0.66123 0.77762 0.0
H703 H 0.94938 0.67184 0.7799 0.0
Li704 Li 0.31664 0.95367 0.27749 0.0
Li705 Li 0.34379 0.95028 0.24616 0.0
Li706 Li 0.31673 0.95239 0.21584 0.0
Li707 Li 0.30917 0.9213 0.24982 0.0
C708 C 0.35332 0.99137 0.26294 0.0
N709 N 0.38389 0.02563 0.29815 0.0
C710 C 0.36341 0.9884 0.29078 0.0
C711 C 0.3588 0.01178 0.25306 0.0
C712 C 0.37883 0.00592 0.3082 0.0
C713 C 0.37427 0.02889 0.2712 0.0
C714 C 0.32598 0.92003 0.30979 0.0
C715 C 0.32611 0.88782 0.32165 0.0
N716 N 0.31891 0.88765 0.35354 0.0
C717 C 0.31885 0.91967 0.34284 0.0
C718 C 0.32991 0.90411 0.29926 0.0
C719 C 0.31528 0.90313 0.36452 0.0
C720 C 0.29034 0.94712 0.33146 0.0
N721 N 0.30799 0.9627 0.31658 0.0
C722 C 0.31232 0.98631 0.36163 0.0
C723 C 0.31855 0.9823 0.33032 0.0
C724 C 0.29499 0.97004 0.37873 0.0
C725 C 0.28353 0.95043 0.3627 0.0
H726 H 0.28205 0.93178 0.31971 0.0
H727 H 0.33219 0.99467 0.31777 0.0
C728 C 0.38589 0.9758 0.22495 0.0
N729 N 0.37299 0.9588 0.24422 0.0
C730 C 0.40738 0.9827 0.22308 0.0
C731 C 0.40185 0.95434 0.26068 0.0
C732 C 0.38051 0.94808 0.26197 0.0
C733 C 0.41565 0.97195 0.24118 0.0
H734 H 0.37947 0.98407 0.21116 0.0
H735 H 0.36997 0.93469 0.27718 0.0
C736 C 0.27925 0.94387 0.24584 0.0
N737 N 0.25189 0.95943 0.24308 0.0
C738 C 0.25752 0.93009 0.24594 0.0
C739 C 0.28708 0.96557 0.2444 0.0
C740 C 0.24394 0.93827 0.24452 0.0
C741 C 0.27299 0.97312 0.243 0.0
C742 C 0.34182 0.93197 0.18885 0.0
C743 C 0.35148 0.94712 0.16341 0.0
C744 C 0.34857 0.9175 0.19486 0.0
C745 C 0.36795 0.94772 0.14468 0.0
C746 C 0.36511 0.91863 0.17561 0.0
N747 N 0.37439 0.9336 0.15115 0.0
C748 C 0.32467 0.98168 0.16447 0.0
C749 C 0.29274 0.94939 0.15788 0.0
C750 C 0.32182 0.98877 0.13317 0.0
N751 N 0.31043 0.96218 0.17576 0.0
C752 C 0.28919 0.95587 0.12644 0.0
C753 C 0.3041 0.97562 0.11335 0.0
H754 H 0.3387 0.99137 0.17917 0.0
H755 H 0.28171 0.93394 0.16763 0.0
C756 C 0.27861 0.88689 0.28307 0.0
N757 N 0.29141 0.89199 0.25557 0.0
C758 C 0.26571 0.86596 0.29213 0.0
C759 C 0.27852 0.85568 0.24329 0.0
C760 C 0.29155 0.87699 0.23545 0.0
C761 C 0.26565 0.85007 0.27228 0.0
H762 H 0.27877 0.8992 0.29835 0.0
H763 H 0.30185 0.88156 0.21361 0.0
O764 O 0.33838 0.97456 0.24494 0.0
O765 O 0.32919 0.93593 0.28802 0.0
O766 O 0.29267 0.93601 0.24736 0.0
O767 O 0.32606 0.93153 0.20808 0.0
H768 H 0.35943 0.9728 0.29901 0.0
H769 H 0.35115 0.01437 0.23161 0.0
H770 H 0.38675 0.00384 0.32976 0.0
H771 H 0.37865 0.04476 0.26384 0.0
H772 H 0.32883 0.87527 0.31363 0.0
H773 H 0.31622 0.93209 0.3518 0.0
H774 H 0.33542 0.90409 0.27381 0.0
H775 H 0.30967 0.90263 0.39011 0.0
H776 H 0.32168 0.00167 0.37309 0.0
H777 H 0.26986 0.93756 0.37467 0.0
H778 H 0.41743 0.99653 0.20812 0.0
H779 H 0.40743 0.94536 0.27465 0.0
H780 H 0.25124 0.91325 0.24715 0.0
H781 H 0.30384 0.9765 0.24441 0.0
H782 H 0.22708 0.92779 0.24458 0.0
H783 H 0.27882 0.98987 0.24187 0.0
H784 H 0.3465 0.95847 0.15845 0.0
H785 H 0.34124 0.90563 0.21434 0.0
H786 H 0.37567 0.95946 0.12508 0.0
H787 H 0.37059 0.90762 0.18016 0.0
H788 H 0.33391 0.00394 0.1239 0.0
H789 H 0.27521 0.94534 0.11219 0.0
H790 H 0.25566 0.86223 0.31424 0.0
H791 H 0.27871 0.84377 0.2273 0.0
Li792 Li 0.36362 0.3229 0.61014 0.0
Li793 Li 0.39433 0.35207 0.58223 0.0
Li794 Li 0.36523 0.32323 0.54784 0.0
Li795 Li 0.39039 0.31753 0.58022 0.0
C796 C 0.35027 0.35101 0.5851 0.0
N797 N 0.32213 0.36483 0.59826 0.0
C798 C 0.35663 0.36945 0.60371 0.0
C799 C 0.32966 0.33978 0.57277 0.0
C800 C 0.34216 0.37613 0.61021 0.0
C801 C 0.31566 0.34697 0.57982 0.0
C802 C 0.40737 0.34803 0.64471 0.0
C803 C 0.44274 0.37142 0.66419 0.0
N804 N 0.43485 0.37565 0.69248 0.0
C805 C 0.39961 0.3525 0.67408 0.0
C806 C 0.4291 0.35743 0.6398 0.0
C807 C 0.41377 0.36654 0.6979 0.0
C808 C 0.34474 0.29629 0.66416 0.0
N809 N 0.34592 0.31347 0.64892 0.0
C810 C 0.32536 0.31664 0.69306 0.0
C811 C 0.33624 0.32349 0.66239 0.0
C812 C 0.32458 0.29941 0.71006 0.0
C813 C 0.33406 0.28892 0.69486 0.0
H814 H 0.35269 0.28871 0.65287 0.0
H815 H 0.33757 0.33724 0.6502 0.0
C816 C 0.42546 0.38996 0.55394 0.0
N817 N 0.4141 0.38146 0.58271 0.0
C818 C 0.44016 0.41141 0.55237 0.0
C819 C 0.43124 0.41499 0.61011 0.0
C820 C 0.41657 0.39352 0.61044 0.0
C821 C 0.44328 0.42426 0.58076 0.0
H822 H 0.42297 0.3801 0.53206 0.0
H823 H 0.40716 0.38651 0.63286 0.0
C824 C 0.33993 0.28247 0.5749 0.0
N825 N 0.30066 0.24731 0.56673 0.0
C826 C 0.33812 0.26338 0.56476 0.0
C827 C 0.32179 0.28363 0.58121 0.0
C828 C 0.31812 0.24579 0.56067 0.0
C829 C 0.30208 0.26569 0.57686 0.0
C830 C 0.4101 0.33381 0.52285 0.0
C831 C 0.40335 0.32161 0.49336 0.0
C832 C 0.43101 0.34254 0.53334 0.0
C833 C 0.41763 0.3181 0.47505 0.0
C834 C 0.4448 0.33864 0.51435 0.0
N835 N 0.43788 0.32659 0.48586 0.0
C836 C 0.34761 0.33328 0.49368 0.0
C837 C 0.34148 0.29837 0.49157 0.0
C838 C 0.33729 0.33056 0.46279 0.0
N839 N 0.34952 0.31732 0.50731 0.0
C840 C 0.33105 0.29495 0.46054 0.0
C841 C 0.32904 0.31126 0.4456 0.0
H842 H 0.35452 0.34831 0.50652 0.0
H843 H 0.34364 0.2861 0.50259 0.0
C844 C 0.41417 0.30183 0.61132 0.0
N845 N 0.40363 0.30109 0.58251 0.0
C846 C 0.42011 0.28677 0.61719 0.0
C847 C 0.40538 0.27128 0.56265 0.0
C848 C 0.39957 0.28653 0.55798 0.0
C849 C 0.41501 0.27074 0.59323 0.0
H850 H 0.41672 0.31324 0.63077 0.0
H851 H 0.39068 0.28598 0.53572 0.0
O852 O 0.36431 0.34435 0.57829 0.0
O853 O 0.39376 0.33432 0.62113 0.0
O854 O 0.35941 0.29982 0.57893 0.0
O855 O 0.39631 0.33726 0.54129 0.0
H856 H 0.37251 0.37842 0.61327 0.0
H857 H 0.32454 0.32573 0.55772 0.0
H858 H 0.34684 0.39029 0.62477 0.0
H859 H 0.29965 0.33839 0.57051 0.0
H860 H 0.45959 0.37891 0.66063 0.0
H861 H 0.38285 0.34531 0.67835 0.0
H862 H 0.43535 0.35404 0.61732 0.0
H863 H 0.40799 0.37022 0.72066 0.0
H864 H 0.31859 0.32542 0.70416 0.0
H865 H 0.33371 0.2755 0.707 0.0
H866 H 0.44875 0.41786 0.52896 0.0
H867 H 0.43322 0.42416 0.63277 0.0
H868 H 0.35202 0.26219 0.55996 0.0
H869 H 0.32291 0.29815 0.58965 0.0
H870 H 0.31648 0.23094 0.55269 0.0
H871 H 0.2879 0.26638 0.58163 0.0
H872 H 0.38723 0.31482 0.48484 0.0
H873 H 0.43649 0.35215 0.55596 0.0
H874 H 0.41261 0.30859 0.45228 0.0
H875 H 0.46101 0.3452 0.52226 0.0
H876 H 0.33655 0.34372 0.45188 0.0
H877 H 0.32491 0.27983 0.44816 0.0
H878 H 0.42719 0.2868 0.64134 0.0
H879 H 0.40135 0.25937 0.54332 0.0
Li880 Li 0.04419 0.39372 0.91892 0.0
Li881 Li 0.041 0.36229 0.94954 0.0
Li882 Li 0.0717 0.38411 0.91662 0.0
Li883 Li 0.03942 0.36135 0.88965 0.0
C884 C 0.07841 0.40478 0.97522 0.0
N885 N 0.11496 0.42923 0.01141 0.0
C886 C 0.08531 0.39551 -0.00077 0.0
C887 C 0.09005 0.42648 0.9697 0.0
C888 C 0.10385 0.40814 0.01722 0.0
C889 C 0.10848 0.43857 0.98828 0.0
C890 C 0.00312 0.35492 0.94287 0.0
C891 C 0.97605 0.32395 0.97096 0.0
N892 N 0.97066 0.33624 0.98937 0.0
C893 C 0.99728 0.36723 0.96199 0.0
C894 C 0.99239 0.33309 0.94728 0.0
C895 C 0.98083 0.35749 0.98539 0.0
C896 C 0.02541 0.4151 0.89105 0.0
N897 N 0.03652 0.41476 0.91838 0.0
C898 C 0.03486 0.44347 0.94372 0.0
C899 C 0.04124 0.42843 0.9446 0.0
C900 C 0.0233 0.44423 0.91577 0.0
C901 C 0.01858 0.42973 0.88921 0.0
H902 H 0.02169 0.4038 0.87081 0.0
H903 H 0.04979 0.42755 0.9663 0.0
C904 C 0.0326 0.32968 -0.00313 0.0
N905 N 0.03308 0.34824 -0.00834 0.0
C906 C 0.03074 0.32184 0.02982 0.0
C907 C 0.02962 0.35225 0.05091 0.0
C908 C 0.0312 0.35931 0.01769 0.0
C909 C 0.02989 0.33357 0.05727 0.0
H910 H 0.03464 0.32149 0.97573 0.0
H911 H 0.03201 0.3742 0.0127 0.0
C912 C 0.07621 0.40689 0.86144 0.0
N913 N 0.11068 0.43791 0.8272 0.0
C914 C 0.08883 0.40169 0.84177 0.0
C915 C 0.08109 0.42787 0.86362 0.0
C916 C 0.10621 0.4176 0.8247 0.0
C917 C 0.09858 0.44332 0.84612 0.0
C918 C 0.05491 0.3374 0.89926 0.0
C919 C 0.0716 0.34125 0.87767 0.0
C920 C 0.03693 0.31745 0.89988 0.0
C921 C 0.06998 0.32506 0.85691 0.0
C922 C 0.0359 0.30169 0.87868 0.0
N923 N 0.0523 0.30579 0.85782 0.0
C924 C 0.10594 0.38142 0.93665 0.0
C925 C 0.1166 0.41538 0.91467 0.0
C926 C 0.12612 0.38812 0.9487 0.0
N927 N 0.10142 0.39506 0.92055 0.0
C928 C 0.13721 0.42272 0.92595 0.0
C929 C 0.14187 0.4091 0.94409 0.0
H930 H 0.09354 0.3656 0.94215 0.0
H931 H 0.11255 0.42628 0.90339 0.0
C932 C 0.00451 0.33341 0.85041 0.0
N933 N 0.02588 0.34472 0.85086 0.0
C934 C 0.9939 0.32343 0.82068 0.0
C935 C 0.02752 0.33616 0.79289 0.0
C936 C 0.03747 0.34598 0.82311 0.0
C937 C 0.00544 0.32522 0.79119 0.0
H938 H 0.99568 0.33289 0.8727 0.0
H939 H 0.05441 0.35529 0.82401 0.0
O940 O 0.0606 0.3926 0.95671 0.0
O941 O 0.01951 0.3642 0.92041 0.0
O942 O 0.05896 0.39151 0.87796 0.0
O943 O 0.05606 0.35314 0.91937 0.0
H944 H 0.07664 0.37871 0.00353 0.0
H945 H 0.08513 0.43385 0.95081 0.0
H946 H 0.10947 0.40117 0.03567 0.0
H947 H 0.11773 0.45536 0.98411 0.0
H948 H 0.9677 0.3071 0.97478 0.0
H949 H 0.00544 0.38414 0.95902 0.0
H950 H 0.99681 0.32334 0.93289 0.0
H951 H 0.97619 0.36683 0.00045 0.0
H952 H 0.03905 0.45442 0.96463 0.0
H953 H 0.00937 0.4294 0.8675 0.0
H954 H 0.03104 0.30739 0.03393 0.0
H955 H 0.02874 0.36155 0.07153 0.0
H956 H 0.08544 0.38559 0.84005 0.0
H957 H 0.07155 0.43223 0.87871 0.0
H958 H 0.11617 0.41381 0.80954 0.0
H959 H 0.10256 0.45962 0.84763 0.0
H960 H 0.08557 0.35663 0.87664 0.0
H961 H 0.0238 0.31424 0.9162 0.0
H962 H 0.08273 0.32785 0.83997 0.0
H963 H 0.02202 0.28622 0.87874 0.0
H964 H 0.12922 0.3772 0.96256 0.0
H965 H 0.14901 0.43909 0.92237 0.0
H966 H 0.97685 0.31505 0.82042 0.0
H967 H 0.03702 0.3382 0.7706 0.0
Li968 Li 0.64218 0.04339 0.2367 0.0
Li969 Li 0.66805 0.03604 0.26461 0.0
Li970 Li 0.6782 0.06965 0.24294 0.0
Li971 Li 0.67058 0.04214 0.2042 0.0
C972 C 0.65854 0.0718 0.29616 0.0
N973 N 0.66186 0.10684 0.32821 0.0
C974 C 0.66819 0.0779 0.32796 0.0
C975 C 0.65046 0.08345 0.28077 0.0
C976 C 0.66975 0.09569 0.34371 0.0
C977 C 0.6523 0.10112 0.29736 0.0
C978 C 0.63009 0.00111 0.24311 0.0
C979 C 0.60368 0.9644 0.23932 0.0
N980 N 0.59639 0.96554 0.27054 0.0
C981 C 0.62235 0.0019 0.27522 0.0
C982 C 0.6207 0.9822 0.22503 0.0
C983 C 0.60529 0.98376 0.28862 0.0
C984 C 0.60284 0.02971 0.20589 0.0
N985 N 0.61357 0.03623 0.23563 0.0
C986 C 0.58255 0.03016 0.265 0.0
C987 C 0.60394 0.03659 0.26489 0.0
C988 C 0.57089 0.02305 0.23477 0.0
C989 C 0.58136 0.02301 0.20485 0.0
H990 H 0.61093 0.02935 0.18312 0.0
H991 H 0.6128 0.04158 0.28829 0.0
C992 C 0.68547 0.03457 0.32554 0.0
N993 N 0.67325 0.02193 0.30008 0.0
C994 C 0.68903 0.02591 0.35448 0.0
C995 C 0.66879 0.99143 0.32917 0.0
C996 C 0.66554 0.0008 0.30072 0.0
C997 C 0.68011 0.00399 0.35701 0.0
H998 H 0.69201 0.05138 0.32364 0.0
H999 H 0.65653 0.99115 0.27953 0.0
C1000 C 0.6675 0.0808 0.18332 0.0
N1001 N 0.68134 0.11762 0.14707 0.0
C1002 C 0.68752 0.09074 0.16863 0.0
C1003 C 0.65443 0.08946 0.17941 0.0
C1004 C 0.69425 0.10939 0.15047 0.0
C1005 C 0.66174 0.10812 0.16101 0.0
C1006 C 0.70523 0.0444 0.23482 0.0
C1007 C 0.72709 0.05617 0.23838 0.0
C1008 C 0.69559 0.02283 0.22814 0.0
C1009 C 0.73896 0.04616 0.23519 0.0
C1010 C 0.70801 0.01341 0.22513 0.0
N1011 N 0.72926 0.02517 0.22869 0.0
C1012 C 0.71335 0.09909 0.27381 0.0
C1013 C 0.69761 0.11588 0.24432 0.0
C1014 C 0.72997 0.11836 0.28397 0.0
N1015 N 0.69788 0.09815 0.25372 0.0
C1016 C 0.71412 0.13567 0.25386 0.0
C1017 C 0.7308 0.137 0.27333 0.0
H1018 H 0.71279 0.08474 0.28189 0.0
H1019 H 0.68476 0.11476 0.22937 0.0
C1020 C 0.66182 0.01714 0.14671 0.0
N1021 N 0.67733 0.03425 0.16268 0.0
C1022 C 0.66609 0.00996 0.11669 0.0
C1023 C 0.7022 0.03832 0.11996 0.0
C1024 C 0.69724 0.0449 0.15007 0.0
C1025 C 0.68651 0.02058 0.10299 0.0
H1026 H 0.64614 0.0091 0.15737 0.0
H1027 H 0.70931 0.05837 0.16357 0.0
O1028 O 0.65728 0.05475 0.27981 0.0
O1029 O 0.64673 0.01866 0.22926 0.0
O1030 O 0.66055 0.06253 0.20109 0.0
O1031 O 0.69351 0.05413 0.23793 0.0
H1032 H 0.6744 0.06903 0.34041 0.0
H1033 H 0.64309 0.07905 0.25606 0.0
H1034 H 0.67724 0.10062 0.36828 0.0
H1035 H 0.64624 0.11034 0.28563 0.0
H1036 H 0.59628 0.94966 0.22558 0.0
H1037 H 0.62945 0.01629 0.28981 0.0
H1038 H 0.62653 0.98127 0.20022 0.0
H1039 H 0.59916 0.98417 0.31343 0.0
H1040 H 0.57526 0.03076 0.28857 0.0
H1041 H 0.57297 0.01737 0.18108 0.0
H1042 H 0.69774 0.03625 0.3753 0.0
H1043 H 0.66201 0.97451 0.32975 0.0
H1044 H 0.69783 0.08428 0.17164 0.0
H1045 H 0.63884 0.08185 0.1905 0.0
H1046 H 0.70977 0.11734 0.13914 0.0
H1047 H 0.65184 0.11505 0.15784 0.0
H1048 H 0.7348 0.07288 0.2435 0.0
H1049 H 0.67872 0.01342 0.22519 0.0
H1050 H 0.7559 0.05509 0.23787 0.0
H1051 H 0.70075 0.99675 0.21994 0.0
H1052 H 0.74215 0.11864 0.2999 0.0
H1053 H 0.71411 0.14971 0.24542 0.0
H1054 H 0.65344 0.99646 0.10401 0.0
H1055 H 0.71814 0.04687 0.11024 0.0
H1056 H 0.28642 0.34057 0.26168 0.0
H1057 H 0.33474 0.29202 0.39032 0.0
H1058 H 0.32155 0.31054 0.23106 0.0
H1059 H 0.30312 0.32546 0.42204 0.0
H1060 H 0.32405 0.29274 0.33198 0.0
H1061 H 0.28649 0.32938 0.32018 0.0
C1062 C 0.2938 0.33128 0.26717 0.0
C1063 C 0.30428 0.32674 0.24162 0.0
C1064 C 0.31922 0.29971 0.35174 0.0
C1065 C 0.30466 0.31413 0.30843 0.0
C1066 C 0.32519 0.29916 0.38515 0.0
C1067 C 0.32005 0.30894 0.41108 0.0
C1068 C 0.30812 0.31021 0.34411 0.0
C1069 C 0.30782 0.31814 0.40272 0.0
C1070 C 0.29395 0.32501 0.30058 0.0
C1071 C 0.31369 0.31476 0.25016 0.0
N1072 N 0.30248 0.31876 0.36989 0.0
N1073 N 0.31385 0.30906 0.28289 0.0
H1074 H 0.95075 0.33195 0.60459 0.0
H1075 H 0.01362 0.30489 0.73994 0.0
H1076 H 0.97652 0.29192 0.58103 0.0
H1077 H 0.97338 0.33001 0.76649 0.0
H1078 H -0.00067 0.2985 0.68217 0.0
H1079 H 0.95808 0.33028 0.66464 0.0
C1080 C 0.95787 0.32272 0.61221 0.0
C1081 C 0.96324 0.31222 0.58798 0.0
C1082 C 0.99339 0.30508 0.70083 0.0
C1083 C 0.97177 0.31028 0.65648 0.0
C1084 C 0.00158 0.30878 0.73371 0.0
C1085 C 0.99476 0.3181 0.75795 0.0
C1086 C 0.97853 0.31104 0.6921 0.0
C1087 C 0.97899 0.32266 0.74871 0.0
C1088 C 0.96194 0.32166 0.64645 0.0
C1089 C 0.97216 0.30023 0.59906 0.0
N1090 N 0.97162 0.31935 0.7164 0.0
N1091 N 0.97643 0.29981 0.63255 0.0
H1092 H 0.70473 0.01443 0.88979 0.0
H1093 H 0.67393 0.98038 0.08275 0.0
H1094 H 0.6613 0.95119 0.92337 0.0
H1095 H 0.70915 0.04488 0.049 0.0
H1096 H 0.67666 0.96882 0.0258 0.0
H1097 H 0.71382 0.02502 0.94908 0.0
C1098 C 0.69732 0.00271 0.90955 0.0
C1099 C 0.68193 0.98197 0.90156 0.0
C1100 C 0.68405 0.98552 0.03094 0.0
C1101 C 0.69235 0.99395 0.96929 0.0
C1102 C 0.68241 0.99211 0.06339 0.0
C1103 C 0.69094 0.01359 0.07035 0.0
C1104 C 0.69415 0.00051 0.00521 0.0
C1105 C 0.70225 0.02816 0.04463 0.0
C1106 C 0.70258 0.00875 0.94335 0.0
C1107 C 0.67326 0.96733 0.92816 0.0
N1108 N 0.70324 0.02134 0.01299 0.0
N1109 N 0.67837 0.97368 0.96083 0.0
H1110 H 0.70299 0.65462 0.25784 0.0
H1111 H 0.663 0.71179 0.38503 0.0
H1112 H 0.68129 0.69668 0.22484 0.0
H1113 H 0.68135 0.66674 0.41544 0.0
H1114 H 0.67535 0.71138 0.32738 0.0
H1115 H 0.70121 0.66405 0.31644 0.0
C1116 C 0.69825 0.66618 0.26281 0.0
C1117 C 0.69207 0.67471 0.23629 0.0
C1118 C 0.67689 0.70177 0.34677 0.0
C1119 C 0.68947 0.68518 0.30368 0.0
C1120 C 0.66995 0.70208 0.37969 0.0
C1121 C 0.67087 0.68903 0.40484 0.0
C1122 C 0.68484 0.68834 0.3391 0.0
C1123 C 0.67994 0.6767 0.39658 0.0
C1124 C 0.69706 0.67142 0.2964 0.0
C1125 C 0.68577 0.68938 0.24451 0.0
N1126 N 0.68639 0.67652 0.36436 0.0
N1127 N 0.6844 0.69398 0.27752 0.0
H1128 H 0.01683 0.69728 0.75438 0.0
H1129 H 0.98341 0.68137 0.56027 0.0
H1130 H 0.95248 0.66391 0.71945 0.0
H1131 H 0.0478 0.7131 0.59502 0.0
H1132 H 0.97178 0.68164 0.6183 0.0
H1133 H 0.02833 0.70995 0.69659 0.0
C1134 C 0.00511 0.69285 0.73458 0.0
C1135 C 0.98372 0.6792 0.7415 0.0
C1136 C 0.98848 0.68885 0.61318 0.0
C1137 C 0.99672 0.69353 0.67542 0.0
C1138 C 0.9951 0.68863 0.5801 0.0
C1139 C 0.01655 0.69684 0.57304 0.0
C1140 C 0.00341 0.69714 0.63942 0.0
C1141 C 0.0311 0.7065 0.59943 0.0
C1142 C 0.01166 0.70014 0.70164 0.0
C1143 C 0.96914 0.67434 0.71517 0.0
N1144 N 0.02423 0.70606 0.6316 0.0
N1145 N 0.97594 0.68121 0.68314 0.0
H1146 H 0.29082 0.95051 0.05693 0.0
H1147 H 0.33298 0.04724 0.92831 0.0
H1148 H 0.31396 0.01466 0.08895 0.0
H1149 H 0.31353 0.98346 0.8989 0.0
H1150 H 0.32044 0.03491 0.98607 0.0
H1151 H 0.29302 0.96156 -0.00191 0.0
C1152 C 0.29596 0.96687 0.05169 0.0
C1153 C 0.30243 0.98171 0.07801 0.0
C1154 C 0.3187 0.02359 0.96687 0.0
C1155 C 0.3055 0.99459 0.01038 0.0
C1156 C 0.32576 0.0306 0.9339 0.0
C1157 C 0.32456 0.01638 0.90898 0.0
C1158 C 0.31037 0.00221 0.97486 0.0
C1159 C 0.31515 0.99501 0.91757 0.0
C1160 C 0.2974 0.97321 0.01797 0.0
C1161 C 0.30923 0.00274 0.06945 0.0
N1162 N 0.30858 0.98861 0.94983 0.0
N1163 N 0.31082 0.0086 0.03635 0.0
H1164 H 0.14949 0.40639 0.01065 0.0
H1165 H 0.26592 0.43054 0.97717 0.0
H1166 H 0.18088 0.42877 0.91441 0.0
H1167 H 0.23738 0.41809 0.07665 0.0
H1168 H 0.23685 0.43414 0.95498 0.0
H1169 H 0.18293 0.41439 0.0365 0.0
C1170 C 0.16357 0.41321 -0.0049 0.0
C1171 C 0.16252 0.41668 0.96035 0.0
C1172 C 0.2371 0.43095 0.98177 0.0
C1173 C 0.20077 0.42569 0.98952 0.0
C1174 C 0.2538 0.42901 -0.00544 0.0
C1175 C 0.25399 0.42372 0.02881 0.0
C1176 C 0.22037 0.42738 0.00329 0.0
C1177 C 0.23765 0.42169 0.04994 0.0
C1178 C 0.18265 0.41784 0.00983 0.0
C1179 C 0.18114 0.42581 0.94129 0.0
N1180 N 0.22138 0.42325 0.03674 0.0
N1181 N 0.19951 0.4297 0.95603 0.0
H1182 H 0.85361 0.226 0.3429 0.0
H1183 H 0.73235 0.1735 0.29523 0.0
H1184 H 0.82317 0.26332 0.3361 0.0
H1185 H 0.7718 0.14713 0.2707 0.0
H1186 H 0.76386 0.20597 0.31396 0.0
H1187 H 0.82185 0.19582 0.3218 0.0
C1188 C 0.84028 0.22792 0.33664 0.0
C1189 C 0.84123 0.24737 0.34064 0.0
C1190 C 0.76551 0.19306 0.30428 0.0
C1191 C 0.80446 0.21253 0.31693 0.0
C1192 C 0.74761 0.17461 0.29349 0.0
C1193 C 0.74945 0.15748 0.28197 0.0
C1194 C 0.7852 0.19417 0.30361 0.0
C1195 C 0.76956 0.15972 0.28025 0.0
C1196 C 0.82208 0.21061 0.32468 0.0
C1197 C 0.82312 0.24862 0.33332 0.0
N1198 N 0.78657 0.1776 0.29121 0.0
N1199 N 0.8054 0.23138 0.32171 0.0
H1200 H 0.5936 0.83146 0.74696 0.0
H1201 H 0.55202 0.73716 0.6135 0.0
H1202 H 0.55446 0.82706 0.66193 0.0
H1203 H 0.60921 0.7605 0.67216 0.0
H1204 H 0.54681 0.76499 0.63801 0.0
H1205 H 0.59222 0.79912 0.72832 0.0
C1206 C 0.58429 0.82342 0.7248 0.0
C1207 C 0.57423 0.83202 0.70583 0.0
C1208 C 0.56035 0.76377 0.6456 0.0
C1209 C 0.57295 0.79523 0.68401 0.0
C1210 C 0.56345 0.74802 0.63148 0.0
C1211 C 0.58102 0.74629 0.64086 0.0
C1212 C 0.57479 0.77766 0.66951 0.0
C1213 C 0.59512 0.76071 0.66468 0.0
C1214 C 0.58371 0.80509 0.71397 0.0
C1215 C 0.56266 0.82106 0.677 0.0
N1216 N 0.59166 0.77568 0.67817 0.0
N1217 N 0.56245 0.80325 0.66676 0.0
H1218 H 0.76842 0.60633 0.07169 0.0
H1219 H 0.82448 0.55581 0.9667 0.0
H1220 H 0.73157 0.55083 0.011 0.0
H1221 H 0.84927 0.62287 0.97574 0.0
H1222 H 0.79191 0.5499 -0.00595 0.0
H1223 H 0.80052 0.60802 0.05028 0.0
C1224 C 0.76709 0.59417 0.05458 0.0
C1225 C 0.74738 0.57842 0.04302 0.0
C1226 C 0.80464 0.56584 0.99007 0.0
C1227 C 0.78393 0.58043 0.01826 0.0
C1228 C 0.82316 0.56929 0.9742 0.0
C1229 C 0.83988 0.58992 0.96899 0.0
C1230 C 0.80305 0.5831 0.00143 0.0
C1231 C 0.83722 0.60669 0.97993 0.0
C1232 C 0.78538 0.59529 0.04211 0.0
C1233 C 0.74654 0.56325 0.02033 0.0
N1234 N 0.81927 0.60289 -0.00415 0.0
N1235 N 0.76463 0.56466 0.00851 0.0
H1236 H 0.17909 0.74452 0.39092 0.0
H1237 H 0.23767 0.81813 0.23156 0.0
H1238 H 0.15006 0.73909 0.29339 0.0
H1239 H 0.26102 0.83178 0.3343 0.0
H1240 H 0.20955 0.78354 0.25034 0.0
H1241 H 0.21299 0.77084 0.36689 0.0
C1242 C 0.17996 0.74859 0.3643 0.0
C1243 C 0.16176 0.73998 0.34422 0.0
C1244 C 0.22105 0.79397 0.26864 0.0
C1245 C 0.20027 0.77001 0.31668 0.0
C1246 C 0.23715 0.81361 0.25789 0.0
C1247 C 0.25139 0.82785 0.28157 0.0
C1248 C 0.21932 0.78862 0.30325 0.0
C1249 C 0.25005 0.82132 0.31542 0.0
C1250 C 0.19925 0.76365 0.35063 0.0
C1251 C 0.16369 0.74576 0.30987 0.0
N1252 N 0.23412 0.80226 0.32535 0.0
N1253 N 0.18257 0.76059 0.29726 0.0
H1254 H 0.37896 0.14426 0.64676 0.0
H1255 H 0.44677 0.26912 0.62838 0.0
H1256 H 0.44156 0.1804 0.68848 0.0
H1257 H 0.38688 0.22959 0.57976 0.0
H1258 H 0.44639 0.23744 0.64937 0.0
H1259 H 0.38267 0.17593 0.62114 0.0
C1260 C 0.39365 0.15886 0.65024 0.0
C1261 C 0.41009 0.15957 0.66949 0.0
C1262 C 0.43349 0.23577 0.63374 0.0
C1263 C 0.41429 0.19629 0.64059 0.0
C1264 C 0.43368 0.25383 0.62181 0.0
C1265 C 0.41683 0.25206 0.60225 0.0
C1266 C 0.41628 0.21588 0.62623 0.0
C1267 C 0.40039 0.23183 0.59425 0.0
C1268 C 0.39571 0.17703 0.63569 0.0
C1269 C 0.42845 0.17914 0.67395 0.0
N1270 N 0.40047 0.21462 0.60646 0.0
N1271 N 0.43007 0.19678 0.6596 0.0
H1272 H 0.28873 0.29744 0.73548 0.0
H1273 H 0.32771 0.30368 0.92456 0.0
H1274 H 0.34112 0.28951 0.76442 0.0
H1275 H 0.27202 0.30643 0.89789 0.0
H1276 H 0.32867 0.29167 0.86739 0.0
H1277 H 0.27856 0.29462 0.79523 0.0
C1278 C 0.29792 0.29482 0.75436 0.0
C1279 C 0.31597 0.29403 0.745 0.0
C1280 C 0.31602 0.29456 0.87414 0.0
C1281 C 0.30449 0.29084 0.81336 0.0
C1282 C 0.31535 0.30128 0.90698 0.0
C1283 C 0.29999 0.30649 0.91594 0.0
C1284 C 0.30139 0.29331 0.84989 0.0
C1285 C 0.28452 0.3032 0.89182 0.0
C1286 C 0.29206 0.29311 0.78845 0.0
C1287 C 0.32707 0.2902 0.77042 0.0
N1288 N 0.28584 0.29718 0.85972 0.0
N1289 N 0.32134 0.28909 0.80346 0.0
H1290 H 0.98292 0.27911 0.25026 0.0
H1291 H 0.05629 0.35731 0.10772 0.0
H1292 H 0.03463 0.34167 0.26916 0.0
H1293 H 0.00441 0.29524 0.0869 0.0
H1294 H 0.0537 0.34845 0.1679 0.0
H1295 H 0.99575 0.28112 0.1923 0.0
C1296 C 0.99724 0.29309 0.24243 0.0
C1297 C 0.00743 0.31046 0.26426 0.0
C1298 C 0.04303 0.33661 0.15022 0.0
C1299 C 0.02209 0.31292 0.19807 0.0
C1300 C 0.04445 0.34171 0.11593 0.0
C1301 C 0.03021 0.32711 0.09264 0.0
C1302 C 0.02701 0.31687 0.1614 0.0
C1303 C 0.01551 0.30698 0.10426 0.0
C1304 C 0.00456 0.29422 0.20936 0.0
C1305 C 0.02618 0.32796 0.25315 0.0
N1306 N 0.014 0.30255 0.13803 0.0
N1307 N 0.03266 0.32891 0.22059 0.0
H1308 H 0.70077 0.99594 0.56985 0.0
H1309 H 0.64823 0.96853 0.38603 0.0
H1310 H 0.63452 0.95644 0.54943 0.0
H1311 H 0.71233 0.01769 0.4037 0.0
H1312 H 0.64599 0.9573 0.44461 0.0
H1313 H 0.70774 0.99824 0.50837 0.0
C1314 C 0.68778 0.98761 0.55238 0.0
C1315 C 0.66703 0.97638 0.56438 0.0
C1316 C 0.66067 0.97038 0.43559 0.0
C1317 C 0.67477 0.97863 0.49476 0.0
C1318 C 0.66205 0.97667 0.40193 0.0
C1319 C 0.68037 0.99437 0.39001 0.0
C1320 C 0.67762 0.98197 0.45768 0.0
C1321 C 0.69769 0.00434 0.4121 0.0
C1322 C 0.69172 0.9889 0.51746 0.0
C1323 C 0.65069 0.96568 0.541 0.0
N1324 N 0.69577 0.99823 0.4451 0.0
N1325 N 0.6549 0.96718 0.50732 0.0
H1326 H 0.69102 0.72127 0.74561 0.0
H1327 H 0.69121 0.64123 0.8791 0.0
H1328 H 0.68954 0.66352 0.71886 0.0
H1329 H 0.70162 0.70248 0.90711 0.0
H1330 H 0.69634 0.65184 0.81959 0.0
H1331 H 0.701 0.71787 0.80353 0.0
C1332 C 0.69322 0.70811 0.75178 0.0
C1333 C 0.68904 0.69242 0.72761 0.0
C1334 C 0.69781 0.66313 0.83865 0.0
C1335 C 0.70026 0.68835 0.79371 0.0
C1336 C 0.69478 0.65702 0.87256 0.0
C1337 C 0.69565 0.67092 0.8977 0.0
C1338 C 0.70131 0.68317 0.82975 0.0
C1339 C 0.70066 0.69131 0.88823 0.0
C1340 C 0.69895 0.70619 0.7848 0.0
C1341 C 0.69252 0.67593 0.73668 0.0
N1342 N 0.70293 0.69673 0.85482 0.0
N1343 N 0.69753 0.67412 0.76918 0.0
H1344 H 0.02243 0.72559 0.23737 0.0
H1345 H 0.00176 0.65454 0.07922 0.0
H1346 H 0.98738 0.65784 0.24401 0.0
H1347 H 0.98742 0.70459 0.0686 0.0
H1348 H 0.00557 0.66073 0.1404 0.0
H1349 H 0.01661 0.72284 0.17542 0.0
C1350 C 0.01314 0.71023 0.22587 0.0
C1351 C 0.0053 0.6919 0.24566 0.0
C1352 C 0.00178 0.67048 0.12457 0.0
C1353 C -0.00065 0.68875 0.17569 0.0
C1354 C -0.00011 0.66716 0.08975 0.0
C1355 C 0.9944 0.67917 0.06903 0.0
C1356 C -0.00149 0.68613 0.13869 0.0
C1357 C 0.99171 0.69506 0.08396 0.0
C1358 C 0.00989 0.7087 0.19076 0.0
C1359 C 0.99349 0.67234 0.22972 0.0
N1360 N 0.99389 0.69821 0.11813 0.0
N1361 N 0.99123 0.67126 0.19554 0.0
H1362 H 0.28423 0.94213 0.43124 0.0
H1363 H 0.30578 0.02922 0.57029 0.0
H1364 H 0.29565 0.00445 0.40778 0.0
H1365 H 0.30351 0.9704 0.59134 0.0
H1366 H 0.29314 0.01692 0.51277 0.0
H1367 H 0.28219 0.94887 0.49128 0.0
C1368 C 0.28584 0.95708 0.4386 0.0
C1369 C 0.29039 0.97287 0.41441 0.0
C1370 C 0.29506 0.00656 0.53016 0.0
C1371 C 0.28849 0.98081 0.48335 0.0
C1372 C 0.3023 0.01358 0.56296 0.0
C1373 C 0.30613 0.00098 0.58537 0.0
C1374 C 0.29171 0.98684 0.51967 0.0
C1375 C 0.30087 0.98067 0.57486 0.0
C1376 C 0.28482 0.96097 0.47298 0.0
C1377 C 0.29256 0.99201 0.42562 0.0
N1378 N 0.29426 0.97436 0.54255 0.0
N1379 N 0.29185 0.99554 0.45933 0.0
H1380 H 0.44276 0.47319 0.01925 0.0
H1381 H 0.55251 0.52115 0.11735 0.0
H1382 H 0.4489 0.45299 0.1194 0.0
H1383 H 0.54298 0.54936 0.02779 0.0
H1384 H 0.51497 0.49519 0.11768 0.0
H1385 H 0.48 0.50005 0.02058 0.0
C1386 C 0.45199 0.47437 0.04147 0.0
C1387 C 0.44277 0.46081 0.06922 0.0
C1388 C 0.52111 0.50712 0.09803 0.0
C1389 C 0.48536 0.49159 0.07102 0.0
C1390 C 0.54253 0.52203 0.09792 0.0
C1391 C 0.55099 0.53748 0.07243 0.0
C1392 C 0.50804 0.50754 0.07237 0.0
C1393 C 0.53729 0.53755 0.04759 0.0
C1394 C 0.47321 0.48979 0.04232 0.0
C1395 C 0.45537 0.46324 0.09758 0.0
N1396 N 0.51653 0.52278 0.04812 0.0
N1397 N 0.47607 0.47827 0.09769 0.0
H1398 H 0.03817 0.55769 0.36659 0.0
H1399 H 0.95603 0.4433 0.43801 0.0
H1400 H 0.99081 0.54654 0.44169 0.0
H1401 H 0.0057 0.45527 0.36705 0.0
H1402 H 0.9683 0.48098 0.43949 0.0
H1403 H 0.02609 0.52009 0.36588 0.0
C1404 C 0.02516 0.54731 0.38285 0.0
C1405 C 0.01545 0.55528 0.40417 0.0
C1406 C 0.97651 0.47536 0.4236 0.0
C1407 C 0.00162 0.51217 0.40369 0.0
C1408 C 0.96958 0.45385 0.42285 0.0
C1409 C 0.97984 0.44607 0.40235 0.0
C1410 C 0.99384 0.48923 0.40369 0.0
C1411 C 0.99711 0.46048 0.38285 0.0
C1412 C 0.01834 0.52585 0.38256 0.0
C1413 C -0.0011 0.54112 0.42511 0.0
N1414 N 0.00356 0.48133 0.38402 0.0
N1415 N 0.99247 0.52025 0.42427 0.0
H1416 H 0.55091 0.00678 0.78948 0.0
H1417 H 0.44479 0.99174 0.70563 0.0
H1418 H 0.51941 0.96562 0.70476 0.0
H1419 H 0.47974 0.03846 0.78219 0.0
H1420 H 0.47096 0.98053 0.70758 0.0
H1421 H 0.52379 0.01695 0.79014 0.0
C1422 C 0.53823 -0.0002 0.77116 0.0
C1423 C 0.53748 0.98541 0.74692 0.0
C1424 C 0.47293 0.99323 0.72398 0.0
C1425 C 0.50649 0.99703 0.74741 0.0
C1426 C 0.45803 -0.00027 0.72275 0.0
C1427 C 0.46014 0.01619 0.74359 0.0
C1428 C 0.49008 0.00321 0.74628 0.0
C1429 C 0.47738 0.0256 0.76585 0.0
C1430 C 0.52282 0.00569 0.77143 0.0
C1431 C 0.5208 0.97701 0.72356 0.0
N1432 N 0.49173 0.01901 0.76655 0.0
N1433 N 0.50598 0.98294 0.7244 0.0
H1434 H 0.54948 0.54745 0.53492 0.0
H1435 H 0.44018 0.45673 0.60955 0.0
H1436 H 0.51592 0.55747 0.6161 0.0
H1437 H 0.48197 0.44417 0.54939 0.0
H1438 H 0.46616 0.49416 0.60805 0.0
H1439 H 0.523 0.50997 0.53514 0.0
C1440 C 0.53646 0.54176 0.55264 0.0
C1441 C 0.53489 0.55554 0.57559 0.0
C1442 C 0.46963 0.48319 0.59521 0.0
C1443 C 0.50463 0.51278 0.57604 0.0
C1444 C 0.45485 0.46177 0.5962 0.0
C1445 C 0.45886 0.44716 0.57969 0.0
C1446 C 0.48853 0.49015 0.57734 0.0
C1447 C 0.478 0.45481 0.56212 0.0
C1448 C 0.52145 0.52038 0.5529 0.0
C1449 C 0.51783 0.54733 0.59824 0.0
N1450 N 0.49211 0.47577 0.56138 0.0
N1451 N 0.50334 0.52649 0.59784 0.0
H1452 H 0.97702 0.52664 0.85075 0.0
H1453 H 0.009 0.45842 0.96835 0.0
H1454 H 0.98261 0.53312 0.95987 0.0
H1455 H 0.02056 0.46549 0.86025 0.0
H1456 H 0.9966 0.48366 0.96549 0.0
H1457 H 0.99025 0.502 0.85343 0.0
C1458 C 0.9811 0.52299 0.87526 0.0
C1459 C 0.97861 0.53199 0.90514 0.0
C1460 C 0.00191 0.47971 0.94242 0.0
C1461 C 0.99347 0.50351 0.90836 0.0
C1462 C 0.00912 0.46538 0.94404 0.0
C1463 C 0.01591 0.45977 0.9145 0.0
C1464 C 0.00127 0.48843 0.91101 0.0
C1465 C 0.0152 0.46903 0.88363 0.0
C1466 C 0.98858 0.50884 0.87676 0.0
C1467 C 0.98385 0.52632 0.9362 0.0
N1468 N 0.00797 0.48284 0.88268 0.0
N1469 N 0.99097 0.51243 0.93699 0.0
H1470 H 0.54738 0.0285 0.18561 0.0
H1471 H 0.44081 0.9726 0.29325 0.0
H1472 H 0.54185 -0.00012 0.28375 0.0
H1473 H 0.44283 0.98804 0.18695 0.0
H1474 H 0.47833 0.98451 0.29119 0.0
H1475 H 0.50955 0.0157 0.18648 0.0
C1476 C 0.53823 0.01944 0.20725 0.0
C1477 C 0.5479 0.01535 0.23471 0.0
C1478 C 0.47056 0.98524 0.26829 0.0
C1479 C 0.50462 0.00092 0.23605 0.0
C1480 C 0.44908 0.97832 0.26937 0.0
C1481 C 0.43855 0.97922 0.24019 0.0
C1482 C 0.48173 0.99328 0.23787 0.0
C1483 C 0.45029 0.98729 0.21021 0.0
C1484 C 0.51664 0.01222 0.20779 0.0
C1485 C 0.53523 0.00379 0.26229 0.0
N1486 N 0.47125 0.99404 0.20983 0.0
N1487 N 0.51429 0.99704 0.26228 0.0
loop_
_geom_bond_atom_site_label_1
_geom_bond_atom_site_label_2
_geom_bond_distance
_geom_bond_site_symmetry_2
_ccdc_geom_bond_type
Li0 N17 1.990 . S
Li0 O60 1.956 . S
Li0 O61 1.970 . S
Li0 O62 1.961 . S
Li1 N25 1.990 . S
Li1 O60 1.970 . S
Li1 O61 1.956 . S
Li1 O63 1.961 . S
Li2 N47 1.990 . S
Li2 O60 1.961 . S
Li2 O62 1.956 . S
Li2 O63 1.970 . S
Li3 N53 1.990 1_554 S
Li3 O61 1.961 . S
Li3 O62 1.970 . S
Li3 O63 1.956 . S
C4 C6 1.348 . S
C4 C7 1.356 . S
C4 O60 1.325 . S
N5 C8 1.314 . S
N5 C9 1.279 . S
C6 C4 1.348 . S
C6 C8 1.353 . S
C6 H64 0.929 . S
C7 C4 1.356 . S
C7 C9 1.358 . S
C7 H65 0.930 . S
C8 N5 1.314 . S
C8 C6 1.353 . S
C8 H66 0.930 . S
C9 N5 1.279 . S
C9 C7 1.358 . S
C9 H67 0.930 . S
C10 C13 1.348 . S
C10 C14 1.356 . S
C10 O61 1.325 . S
C11 N12 1.279 . S
C11 C14 1.358 . S
C11 H68 0.930 . S
N12 C11 1.279 . S
N12 C15 1.314 . S
C13 C10 1.348 . S
C13 C15 1.353 . S
C13 H69 0.929 . S
C14 C10 1.356 . S
C14 C11 1.358 . S
C14 H70 0.930 . S
C15 N12 1.314 . S
C15 C13 1.353 . S
C15 H71 0.930 . S
C16 N17 1.314 . S
C16 C21 1.353 . S
C16 H22 0.930 . S
N17 Li0 1.990 . S
N17 C16 1.314 . S
N17 C19 1.279 . S
C18 C19 1.358 . S
C18 C20 1.356 . S
C18 H72 0.930 . S
C19 N17 1.279 . S
C19 C18 1.358 . S
C19 H23 0.930 . S
C20 C18 1.356 . S
C20 C21 1.348 . S
C21 C16 1.353 . S
C21 C20 1.348 . S
C21 H73 0.903 1_554 S
H22 C16 0.930 . S
H23 C19 0.930 . S
C24 N25 1.314 . S
C24 C26 1.353 . S
C24 H30 0.930 . S
N25 Li1 1.990 . S
N25 C24 1.314 . S
N25 C28 1.279 . S
C26 C24 1.353 . S
C26 C29 1.348 . S
C26 H74 0.929 . S
C27 C28 1.358 . S
C27 C29 1.356 . S
C27 H75 0.930 . S
C28 N25 1.279 . S
C28 C27 1.358 . S
C28 H31 0.930 . S
C29 C26 1.348 . S
C29 C27 1.356 . S
H30 C24 0.930 . S
H31 C28 0.930 . S
C32 C34 1.348 . S
C32 C35 1.356 . S
C32 O62 1.325 1_556 S
N33 C36 1.314 . S
N33 C37 1.279 . S
C34 C32 1.348 . S
C34 C36 1.353 . S
C34 H76 0.929 . S
C35 C32 1.356 . S
C35 C37 1.358 . S
C35 H77 0.930 1_556 S
C36 N33 1.314 . S
C36 C34 1.353 . S
C36 H78 0.930 . S
C37 N33 1.279 . S
C37 C35 1.358 . S
C37 H79 0.930 . S
C38 C39 1.348 . S
C38 C40 1.356 . S
C38 O63 1.325 . S
C39 C38 1.348 . S
C39 C41 1.353 . S
C39 H80 0.929 . S
C40 C38 1.356 . S
C40 C42 1.358 . S
C40 H81 0.930 . S
C41 C39 1.353 . S
C41 N43 1.314 . S
C41 H82 0.930 . S
C42 C40 1.358 . S
C42 N43 1.279 . S
C42 H83 0.930 . S
N43 C41 1.314 . S
N43 C42 1.279 . S
C44 C46 1.353 . S
C44 N47 1.314 . S
C44 H50 0.930 . S
C45 N47 1.279 . S
C45 C48 1.358 . S
C45 H51 0.930 . S
C46 C44 1.353 . S
C46 C49 1.348 . S
C46 H84 0.929 . S
N47 Li2 1.990 . S
N47 C44 1.314 . S
N47 C45 1.279 . S
C48 C45 1.358 . S
C48 C49 1.356 . S
C48 H85 0.930 . S
C49 C46 1.348 . S
C49 C48 1.356 . S
H50 C44 0.930 . S
H51 C45 0.930 . S
C52 N53 1.314 . S
C52 C54 1.353 . S
C52 H58 0.930 . S
N53 Li3 1.990 1_556 S
N53 C52 1.314 . S
N53 C56 1.279 . S
C54 C52 1.353 . S
C54 C57 1.348 . S
C54 H86 0.929 . S
C55 C56 1.358 . S
C55 C57 1.356 . S
C55 H87 0.930 . S
C56 N53 1.279 . S
C56 C55 1.358 . S
C56 H59 0.930 . S
C57 C54 1.348 . S
C57 C55 1.356 . S
H58 C52 0.930 . S
H59 C56 0.930 . S
O60 Li0 1.956 . S
O60 Li1 1.970 . S
O60 Li2 1.961 . S
O60 C4 1.325 . S
O61 Li0 1.970 . S
O61 Li1 1.956 . S
O61 Li3 1.961 . S
O61 C10 1.325 . S
O62 Li0 1.961 . S
O62 Li2 1.956 . S
O62 Li3 1.970 . S
O62 C32 1.325 1_554 S
O63 Li1 1.961 . S
O63 Li2 1.970 . S
O63 Li3 1.956 . S
O63 C38 1.325 . S
H64 C6 0.929 . S
H65 C7 0.930 . S
H66 C8 0.930 . S
H67 C9 0.930 . S
H68 C11 0.930 . S
H69 C13 0.929 . S
H70 C14 0.930 . S
H71 C15 0.930 . S
H72 C18 0.930 . S
H73 C21 0.903 1_556 S
H74 C26 0.929 . S
H75 C27 0.930 . S
H76 C34 0.929 . S
H77 C35 0.930 1_554 S
H78 C36 0.930 . S
H79 C37 0.930 . S
H80 C39 0.929 . S
H81 C40 0.930 . S
H82 C41 0.930 . S
H83 C42 0.930 . S
H84 C46 0.929 . S
H85 C48 0.930 . S
H86 C54 0.929 . S
H87 C55 0.930 . S
Li88 N105 1.990 . S
Li88 O148 1.956 . S
Li88 O149 1.970 . S
Li88 O150 1.961 . S
Li89 N113 1.990 . S
Li89 O148 1.970 . S
Li89 O149 1.956 . S
Li89 O151 1.961 . S
Li90 N135 1.990 . S
Li90 O148 1.961 . S
Li90 O150 1.956 . S
Li90 O151 1.970 . S
Li91 N141 1.990 . S
Li91 O149 1.961 . S
Li91 O150 1.970 . S
Li91 O151 1.956 . S
C92 C94 1.348 . S
C92 C95 1.356 . S
C92 O148 1.325 . S
N93 C96 1.314 . S
N93 C97 1.279 . S
C94 C92 1.348 . S
C94 C96 1.353 . S
C94 H152 0.929 . S
C95 C92 1.356 . S
C95 C97 1.358 . S
C95 H153 0.930 . S
C96 N93 1.314 . S
C96 C94 1.353 . S
C96 H154 0.930 . S
C97 N93 1.279 . S
C97 C95 1.358 . S
C97 H155 0.930 . S
C98 C101 1.348 . S
C98 C102 1.356 . S
C98 O149 1.325 . S
C99 N100 1.279 . S
C99 C102 1.358 . S
C99 H156 0.930 . S
N100 C99 1.279 . S
N100 C103 1.314 . S
C101 C98 1.348 . S
C101 C103 1.353 . S
C101 H157 0.929 . S
C102 C98 1.356 . S
C102 C99 1.358 . S
C102 H158 0.930 . S
C103 N100 1.314 . S
C103 C101 1.353 . S
C103 H159 0.930 . S
C104 N105 1.314 . S
C104 C109 1.353 1_655 S
C104 H110 0.930 . S
N105 Li88 1.990 . S
N105 C104 1.314 . S
N105 C107 1.279 . S
C106 C107 1.358 . S
C106 C108 1.362 . S
C106 H160 0.930 . S
C107 N105 1.279 . S
C107 C106 1.358 . S
C107 H111 0.930 . S
C108 C106 1.362 . S
C108 C109 1.368 1_655 S
C109 C104 1.353 1_455 S
C109 C108 1.368 1_455 S
C109 H161 0.929 . S
H110 C104 0.930 . S
H111 C107 0.930 . S
C112 N113 1.314 . S
C112 C114 1.353 . S
C112 H118 0.930 . S
N113 Li89 1.990 . S
N113 C112 1.314 . S
N113 C116 1.279 . S
C114 C112 1.353 . S
C114 C117 1.348 . S
C114 H162 0.929 . S
C115 C116 1.358 . S
C115 C117 1.356 . S
C115 H163 0.930 . S
C116 N113 1.279 . S
C116 C115 1.358 . S
C116 H119 0.930 . S
C117 C114 1.348 . S
C117 C115 1.356 . S
H118 C112 0.930 . S
H119 C116 0.930 . S
C120 C122 1.348 . S
C120 C123 1.356 . S
C120 O150 1.325 1_455 S
N121 C124 1.314 . S
N121 C125 1.279 . S
C122 C120 1.348 . S
C122 C124 1.353 . S
C122 H164 0.878 1_455 S
C123 C120 1.356 . S
C123 C125 1.358 . S
C123 H165 0.930 . S
C124 N121 1.314 . S
C124 C122 1.353 . S
C124 H166 0.930 . S
C125 N121 1.279 . S
C125 C123 1.358 . S
C125 H167 0.930 . S
C126 C127 1.348 . S
C126 C128 1.356 . S
C126 O151 1.325 . S
C127 C126 1.348 . S
C127 C129 1.353 . S
C127 H168 0.929 . S
C128 C126 1.356 . S
C128 C130 1.358 . S
C128 H169 0.930 . S
C129 C127 1.353 . S
C129 N131 1.314 . S
C129 H170 0.930 . S
C130 C128 1.358 . S
C130 N131 1.279 . S
C130 H171 0.930 . S
N131 C129 1.314 . S
N131 C130 1.279 . S
C132 C134 1.353 . S
C132 N135 1.314 . S
C132 H138 0.930 . S
C133 N135 1.279 1_455 S
C133 C136 1.358 . S
C133 H139 0.930 . S
C134 C132 1.353 . S
C134 C137 1.348 1_655 S
C134 H172 0.929 . S
N135 Li90 1.990 . S
N135 C132 1.314 . S
N135 C133 1.279 1_655 S
C136 C133 1.358 . S
C136 C137 1.356 . S
C136 H173 0.930 . S
C137 C134 1.348 1_455 S
C137 C136 1.356 . S
H138 C132 0.930 . S
H139 C133 0.930 . S
C140 N141 1.314 . S
C140 C142 1.353 . S
C140 H146 0.930 . S
N141 Li91 1.990 . S
N141 C140 1.314 . S
N141 C144 1.279 . S
C142 C140 1.353 . S
C142 C145 1.348 . S
C142 H174 0.929 . S
C143 C144 1.358 . S
C143 C145 1.356 . S
C143 H175 0.930 . S
C144 N141 1.279 . S
C144 C143 1.358 . S
C144 H147 0.930 . S
C145 C142 1.348 . S
C145 C143 1.356 . S
H146 C140 0.930 . S
H147 C144 0.930 . S
O148 Li88 1.956 . S
O148 Li89 1.970 . S
O148 Li90 1.961 . S
O148 C92 1.325 . S
O149 Li88 1.970 . S
O149 Li89 1.956 . S
O149 Li91 1.961 . S
O149 C98 1.325 . S
O150 Li88 1.961 . S
O150 Li90 1.956 . S
O150 Li91 1.970 . S
O150 C120 1.325 1_655 S
O151 Li89 1.961 . S
O151 Li90 1.970 . S
O151 Li91 1.956 . S
O151 C126 1.325 . S
H152 C94 0.929 . S
H153 C95 0.930 . S
H154 C96 0.930 . S
H155 C97 0.930 . S
H156 C99 0.930 . S
H157 C101 0.929 . S
H158 C102 0.930 . S
H159 C103 0.930 . S
H160 C106 0.930 . S
H161 C109 0.929 . S
H162 C114 0.929 . S
H163 C115 0.930 . S
H164 C122 0.878 1_655 S
H165 C123 0.930 . S
H166 C124 0.930 . S
H167 C125 0.930 . S
H168 C127 0.929 . S
H169 C128 0.930 . S
H170 C129 0.930 . S
H171 C130 0.930 . S
H172 C134 0.929 . S
H173 C136 0.930 . S
H174 C142 0.929 . S
H175 C143 0.930 . S
Li176 N193 1.990 . S
Li176 O236 1.956 . S
Li176 O237 1.970 . S
Li176 O238 1.961 . S
Li177 N201 1.990 . S
Li177 O236 1.970 . S
Li177 O237 1.956 . S
Li177 O239 1.961 . S
Li178 N223 1.990 . S
Li178 O236 1.961 . S
Li178 O238 1.956 . S
Li178 O239 1.970 . S
Li179 N229 1.990 . S
Li179 O237 1.961 . S
Li179 O238 1.970 . S
Li179 O239 1.956 . S
C180 C182 1.348 . S
C180 C183 1.356 . S
C180 O236 1.325 . S
N181 C184 1.314 . S
N181 C185 1.279 . S
C182 C180 1.348 . S
C182 C184 1.353 . S
C182 H240 0.929 . S
C183 C180 1.356 . S
C183 C185 1.358 . S
C183 H241 0.930 . S
C184 N181 1.314 . S
C184 C182 1.353 . S
C184 H242 0.930 . S
C185 N181 1.279 . S
C185 C183 1.358 . S
C185 H243 0.930 . S
C186 C189 1.348 . S
C186 C190 1.356 . S
C186 O237 1.325 . S
C187 N188 1.279 . S
C187 C190 1.358 . S
C187 H244 0.930 . S
N188 C187 1.279 . S
N188 C191 1.314 . S
C189 C186 1.348 . S
C189 C191 1.353 . S
C189 H245 0.929 . S
C190 C186 1.356 . S
C190 C187 1.358 . S
C190 H246 0.930 . S
C191 N188 1.314 . S
C191 C189 1.353 . S
C191 H247 0.930 . S
C192 N193 1.314 . S
C192 C197 1.353 1_565 S
C192 H198 0.930 . S
N193 Li176 1.990 . S
N193 C192 1.314 . S
N193 C195 1.279 . S
C194 C195 1.358 . S
C194 C196 1.396 . S
C194 H248 0.930 . S
C195 N193 1.279 . S
C195 C194 1.358 . S
C195 H199 0.930 . S
C196 C194 1.396 . S
C196 C197 1.317 1_565 S
C197 C192 1.353 1_545 S
C197 C196 1.317 1_545 S
C197 H249 0.929 . S
H198 C192 0.930 . S
H199 C195 0.930 . S
C200 N201 1.314 . S
C200 C202 1.353 . S
C200 H206 0.930 . S
N201 Li177 1.990 . S
N201 C200 1.314 . S
N201 C204 1.279 . S
C202 C200 1.353 . S
C202 C205 1.348 . S
C202 H250 0.929 . S
C203 C204 1.358 . S
C203 C205 1.356 . S
C203 H251 0.930 . S
C204 N201 1.279 . S
C204 C203 1.358 . S
C204 H207 0.930 . S
C205 C202 1.348 . S
C205 C203 1.356 . S
H206 C200 0.930 . S
H207 C204 0.930 . S
C208 C210 1.348 . S
C208 C211 1.356 . S
C208 O238 1.325 1_545 S
N209 C212 1.314 . S
N209 C213 1.279 . S
C210 C208 1.348 . S
C210 C212 1.353 . S
C210 H252 0.916 1_545 S
C211 C208 1.356 . S
C211 C213 1.358 . S
C211 H253 0.930 . S
C212 N209 1.314 . S
C212 C210 1.353 . S
C212 H254 0.930 . S
C213 N209 1.279 . S
C213 C211 1.358 . S
C213 H255 0.930 . S
C214 C215 1.348 . S
C214 C216 1.356 . S
C214 O239 1.325 . S
C215 C214 1.348 . S
C215 C217 1.353 . S
C215 H256 0.929 . S
C216 C214 1.356 . S
C216 C218 1.358 . S
C216 H257 0.930 . S
C217 C215 1.353 . S
C217 N219 1.314 . S
C217 H258 0.930 . S
C218 C216 1.358 . S
C218 N219 1.279 . S
C218 H259 0.930 . S
N219 C217 1.314 . S
N219 C218 1.279 . S
C220 C222 1.353 . S
C220 N223 1.314 . S
C220 H226 0.930 . S
C221 N223 1.279 1_545 S
C221 C224 1.358 . S
C221 H227 0.930 . S
C222 C220 1.353 . S
C222 C225 1.348 1_565 S
C222 H260 0.929 . S
N223 Li178 1.990 . S
N223 C220 1.314 . S
N223 C221 1.279 1_565 S
C224 C221 1.358 . S
C224 C225 1.356 . S
C224 H261 0.930 . S
C225 C222 1.348 1_545 S
C225 C224 1.356 . S
H226 C220 0.930 . S
H227 C221 0.930 . S
C228 N229 1.314 . S
C228 C230 1.353 . S
C228 H234 0.930 . S
N229 Li179 1.990 . S
N229 C228 1.314 . S
N229 C232 1.279 . S
C230 C228 1.353 . S
C230 C233 1.348 . S
C230 H262 0.929 . S
C231 C232 1.358 . S
C231 C233 1.356 . S
C231 H263 0.930 . S
C232 N229 1.279 . S
C232 C231 1.358 . S
C232 H235 0.930 . S
C233 C230 1.348 . S
C233 C231 1.356 . S
H234 C228 0.930 . S
H235 C232 0.930 . S
O236 Li176 1.956 . S
O236 Li177 1.970 . S
O236 Li178 1.961 . S
O236 C180 1.325 . S
O237 Li176 1.970 . S
O237 Li177 1.956 . S
O237 Li179 1.961 . S
O237 C186 1.325 . S
O238 Li176 1.961 . S
O238 Li178 1.956 . S
O238 Li179 1.970 . S
O238 C208 1.325 1_565 S
O239 Li177 1.961 . S
O239 Li178 1.970 . S
O239 Li179 1.956 . S
O239 C214 1.325 . S
H240 C182 0.929 . S
H241 C183 0.930 . S
H242 C184 0.930 . S
H243 C185 0.930 . S
H244 C187 0.930 . S
H245 C189 0.929 . S
H246 C190 0.930 . S
H247 C191 0.930 . S
H248 C194 0.930 . S
H249 C197 0.929 . S
H250 C202 0.929 . S
H251 C203 0.930 . S
H252 C210 0.916 1_565 S
H253 C211 0.930 . S
H254 C212 0.930 . S
H255 C213 0.930 . S
H256 C215 0.929 . S
H257 C216 0.930 . S
H258 C217 0.930 . S
H259 C218 0.930 . S
H260 C222 0.929 . S
H261 C224 0.930 . S
H262 C230 0.929 . S
H263 C231 0.930 . S
Li264 N281 1.990 . S
Li264 O324 1.956 . S
Li264 O325 1.970 . S
Li264 O326 1.961 . S
Li265 N289 1.990 . S
Li265 O324 1.970 . S
Li265 O325 1.956 . S
Li265 O327 1.961 . S
Li266 N311 1.990 1_554 S
Li266 O324 1.961 . S
Li266 O326 1.956 . S
Li266 O327 1.970 . S
Li267 N317 1.990 . S
Li267 O325 1.961 . S
Li267 O326 1.970 . S
Li267 O327 1.956 . S
C268 C270 1.348 . S
C268 C271 1.356 . S
C268 O324 1.325 . S
N269 C272 1.314 . S
N269 C273 1.279 . S
C270 C268 1.348 . S
C270 C272 1.353 . S
C270 H328 0.929 . S
C271 C268 1.356 . S
C271 C273 1.358 . S
C271 H329 0.930 . S
C272 N269 1.314 . S
C272 C270 1.353 . S
C272 H330 0.930 . S
C273 N269 1.279 . S
C273 C271 1.358 . S
C273 H331 0.930 . S
C274 C277 1.348 . S
C274 C278 1.356 . S
C274 O325 1.325 . S
C275 N276 1.279 . S
C275 C278 1.358 . S
C275 H332 0.930 . S
N276 C275 1.279 . S
N276 C279 1.314 . S
C277 C274 1.348 . S
C277 C279 1.353 . S
C277 H333 0.929 . S
C278 C274 1.356 . S
C278 C275 1.358 . S
C278 H334 0.930 . S
C279 N276 1.314 . S
C279 C277 1.353 . S
C279 H335 0.930 . S
C280 N281 1.314 . S
C280 C285 1.353 . S
C280 H286 0.930 . S
N281 Li264 1.990 . S
N281 C280 1.314 . S
N281 C283 1.279 . S
C282 C283 1.358 . S
C282 C284 1.356 . S
C282 H336 0.930 . S
C283 N281 1.279 . S
C283 C282 1.358 . S
C283 H287 0.930 . S
C284 C282 1.356 . S
C284 C285 1.348 . S
C285 C280 1.353 . S
C285 C284 1.348 . S
C285 H337 0.929 . S
H286 C280 0.930 . S
H287 C283 0.930 . S
C288 N289 1.314 . S
C288 C290 1.353 . S
C288 H294 0.930 . S
N289 Li265 1.990 . S
N289 C288 1.314 . S
N289 C292 1.279 . S
C290 C288 1.353 . S
C290 C293 1.348 . S
C290 H338 0.903 1_554 S
C291 C292 1.358 . S
C291 C293 1.356 . S
C291 H339 0.930 . S
C292 N289 1.279 . S
C292 C291 1.358 . S
C292 H295 0.930 . S
C293 C290 1.348 . S
C293 C291 1.356 . S
H294 C288 0.930 . S
H295 C292 0.930 . S
C296 C298 1.348 . S
C296 C299 1.356 . S
C296 O326 1.325 . S
N297 C300 1.314 . S
N297 C301 1.279 . S
C298 C296 1.348 . S
C298 C300 1.353 . S
C298 H340 0.929 . S
C299 C296 1.356 . S
C299 C301 1.358 . S
C299 H341 0.930 . S
C300 N297 1.314 . S
C300 C298 1.353 . S
C300 H342 0.930 . S
C301 N297 1.279 . S
C301 C299 1.358 . S
C301 H343 0.930 . S
C302 C303 1.348 . S
C302 C304 1.356 . S
C302 O327 1.325 1_556 S
C303 C302 1.348 . S
C303 C305 1.353 . S
C303 H344 0.929 . S
C304 C302 1.356 . S
C304 C306 1.358 . S
C304 H345 0.930 1_556 S
C305 C303 1.353 . S
C305 N307 1.314 . S
C305 H346 0.930 . S
C306 C304 1.358 . S
C306 N307 1.279 . S
C306 H347 0.930 . S
N307 C305 1.314 . S
N307 C306 1.279 . S
C308 C310 1.353 . S
C308 N311 1.314 . S
C308 H314 0.930 . S
C309 N311 1.279 . S
C309 C312 1.358 . S
C309 H315 0.930 . S
C310 C308 1.353 . S
C310 C313 1.348 . S
C310 H348 0.929 . S
N311 Li266 1.990 1_556 S
N311 C308 1.314 . S
N311 C309 1.279 . S
C312 C309 1.358 . S
C312 C313 1.356 . S
C312 H349 0.930 . S
C313 C310 1.348 . S
C313 C312 1.356 . S
H314 C308 0.930 . S
H315 C309 0.930 . S
C316 N317 1.314 . S
C316 C318 1.353 . S
C316 H322 0.930 . S
N317 Li267 1.990 . S
N317 C316 1.314 . S
N317 C320 1.279 . S
C318 C316 1.353 . S
C318 C321 1.348 . S
C318 H350 0.929 . S
C319 C320 1.358 . S
C319 C321 1.356 . S
C319 H351 0.930 . S
C320 N317 1.279 . S
C320 C319 1.358 . S
C320 H323 0.930 . S
C321 C318 1.348 . S
C321 C319 1.356 . S
H322 C316 0.930 . S
H323 C320 0.930 . S
O324 Li264 1.956 . S
O324 Li265 1.970 . S
O324 Li266 1.961 . S
O324 C268 1.325 . S
O325 Li264 1.970 . S
O325 Li265 1.956 . S
O325 Li267 1.961 . S
O325 C274 1.325 . S
O326 Li264 1.961 . S
O326 Li266 1.956 . S
O326 Li267 1.970 . S
O326 C296 1.325 . S
O327 Li265 1.961 . S
O327 Li266 1.970 . S
O327 Li267 1.956 . S
O327 C302 1.325 1_554 S
H328 C270 0.929 . S
H329 C271 0.930 . S
H330 C272 0.930 . S
H331 C273 0.930 . S
H332 C275 0.930 . S
H333 C277 0.929 . S
H334 C278 0.930 . S
H335 C279 0.930 . S
H336 C282 0.930 . S
H337 C285 0.929 . S
H338 C290 0.903 1_556 S
H339 C291 0.930 . S
H340 C298 0.929 . S
H341 C299 0.930 . S
H342 C300 0.930 . S
H343 C301 0.930 . S
H344 C303 0.929 . S
H345 C304 0.930 1_554 S
H346 C305 0.930 . S
H347 C306 0.930 . S
H348 C310 0.929 . S
H349 C312 0.930 . S
H350 C318 0.929 . S
H351 C319 0.930 . S
Li352 N369 1.990 . S
Li352 O412 1.956 . S
Li352 O413 1.970 . S
Li352 O414 1.961 . S
Li353 N377 1.990 . S
Li353 O412 1.970 . S
Li353 O413 1.956 . S
Li353 O415 1.961 . S
Li354 N399 1.990 . S
Li354 O412 1.961 . S
Li354 O414 1.956 . S
Li354 O415 1.970 . S
Li355 N405 1.990 . S
Li355 O413 1.961 . S
Li355 O414 1.970 . S
Li355 O415 1.956 . S
C356 C358 1.348 . S
C356 C359 1.356 . S
C356 O412 1.325 . S
N357 C360 1.314 . S
N357 C361 1.279 . S
C358 C356 1.348 . S
C358 C360 1.353 . S
C358 H416 0.929 . S
C359 C356 1.356 . S
C359 C361 1.358 . S
C359 H417 0.930 . S
C360 N357 1.314 . S
C360 C358 1.353 . S
C360 H418 0.930 . S
C361 N357 1.279 . S
C361 C359 1.358 . S
C361 H419 0.930 . S
C362 C365 1.348 . S
C362 C366 1.356 . S
C362 O413 1.325 . S
C363 N364 1.279 . S
C363 C366 1.358 . S
C363 H420 0.930 . S
N364 C363 1.279 . S
N364 C367 1.314 . S
C365 C362 1.348 . S
C365 C367 1.353 . S
C365 H421 0.929 . S
C366 C362 1.356 . S
C366 C363 1.358 . S
C366 H422 0.930 . S
C367 N364 1.314 . S
C367 C365 1.353 . S
C367 H423 0.930 . S
C368 N369 1.314 . S
C368 C373 1.353 . S
C368 H374 0.930 . S
N369 Li352 1.990 . S
N369 C368 1.314 . S
N369 C371 1.279 . S
C370 C371 1.358 . S
C370 C372 1.356 . S
C370 H424 0.930 . S
C371 N369 1.279 . S
C371 C370 1.358 . S
C371 H375 0.930 . S
C372 C370 1.356 . S
C372 C373 1.348 . S
C373 C368 1.353 . S
C373 C372 1.348 . S
C373 H425 0.929 . S
H374 C368 0.930 . S
H375 C371 0.930 . S
C376 N377 1.314 . S
C376 C378 1.353 1_455 S
C376 H382 0.930 . S
N377 Li353 1.990 . S
N377 C376 1.314 . S
N377 C380 1.279 . S
C378 C376 1.353 1_655 S
C378 C381 1.368 1_655 S
C378 H426 0.929 . S
C379 C380 1.358 . S
C379 C381 1.362 . S
C379 H427 0.930 . S
C380 N377 1.279 . S
C380 C379 1.358 . S
C380 H383 0.930 . S
C381 C378 1.368 1_455 S
C381 C379 1.362 . S
H382 C376 0.930 . S
H383 C380 0.930 . S
C384 C386 1.348 . S
C384 C387 1.356 . S
C384 O414 1.325 . S
N385 C388 1.314 . S
N385 C389 1.279 . S
C386 C384 1.348 . S
C386 C388 1.353 . S
C386 H428 0.929 . S
C387 C384 1.356 . S
C387 C389 1.358 . S
C387 H429 0.930 . S
C388 N385 1.314 . S
C388 C386 1.353 . S
C388 H430 0.930 . S
C389 N385 1.279 . S
C389 C387 1.358 . S
C389 H431 0.930 . S
C390 C391 1.348 . S
C390 C392 1.356 . S
C390 O415 1.325 1_655 S
C391 C390 1.348 . S
C391 C393 1.353 . S
C391 H432 0.878 1_655 S
C392 C390 1.356 . S
C392 C394 1.358 . S
C392 H433 0.930 . S
C393 C391 1.353 . S
C393 N395 1.314 . S
C393 H434 0.930 . S
C394 C392 1.358 . S
C394 N395 1.279 . S
C394 H435 0.930 . S
N395 C393 1.314 . S
N395 C394 1.279 . S
C396 C398 1.353 . S
C396 N399 1.314 . S
C396 H402 0.930 . S
C397 N399 1.279 . S
C397 C400 1.358 . S
C397 H403 0.930 . S
C398 C396 1.353 . S
C398 C401 1.348 . S
C398 H436 0.929 . S
N399 Li354 1.990 . S
N399 C396 1.314 . S
N399 C397 1.279 . S
C400 C397 1.358 . S
C400 C401 1.356 . S
C400 H437 0.930 . S
C401 C398 1.348 . S
C401 C400 1.356 . S
H402 C396 0.930 . S
H403 C397 0.930 . S
C404 N405 1.314 . S
C404 C406 1.353 . S
C404 H410 0.930 . S
N405 Li355 1.990 . S
N405 C404 1.314 . S
N405 C408 1.279 1_455 S
C406 C404 1.353 . S
C406 C409 1.348 1_455 S
C406 H438 0.929 . S
C407 C408 1.358 . S
C407 C409 1.356 . S
C407 H439 0.930 . S
C408 N405 1.279 1_655 S
C408 C407 1.358 . S
C408 H411 0.930 . S
C409 C406 1.348 1_655 S
C409 C407 1.356 . S
H410 C404 0.930 . S
H411 C408 0.930 . S
O412 Li352 1.956 . S
O412 Li353 1.970 . S
O412 Li354 1.961 . S
O412 C356 1.325 . S
O413 Li352 1.970 . S
O413 Li353 1.956 . S
O413 Li355 1.961 . S
O413 C362 1.325 . S
O414 Li352 1.961 . S
O414 Li354 1.956 . S
O414 Li355 1.970 . S
O414 C384 1.325 . S
O415 Li353 1.961 . S
O415 Li354 1.970 . S
O415 Li355 1.956 . S
O415 C390 1.325 1_455 S
H416 C358 0.929 . S
H417 C359 0.930 . S
H418 C360 0.930 . S
H419 C361 0.930 . S
H420 C363 0.930 . S
H421 C365 0.929 . S
H422 C366 0.930 . S
H423 C367 0.930 . S
H424 C370 0.930 . S
H425 C373 0.929 . S
H426 C378 0.929 . S
H427 C379 0.930 . S
H428 C386 0.929 . S
H429 C387 0.930 . S
H430 C388 0.930 . S
H431 C389 0.930 . S
H432 C391 0.878 1_455 S
H433 C392 0.930 . S
H434 C393 0.930 . S
H435 C394 0.930 . S
H436 C398 0.929 . S
H437 C400 0.930 . S
H438 C406 0.929 . S
H439 C407 0.930 . S
Li440 N457 1.990 . S
Li440 O500 1.956 . S
Li440 O501 1.970 . S
Li440 O502 1.961 . S
Li441 N465 1.990 . S
Li441 O500 1.970 . S
Li441 O501 1.956 . S
Li441 O503 1.961 . S
Li442 N487 1.990 . S
Li442 O500 1.961 . S
Li442 O502 1.956 . S
Li442 O503 1.970 . S
Li443 N493 1.990 . S
Li443 O501 1.961 . S
Li443 O502 1.970 . S
Li443 O503 1.956 . S
C444 C446 1.348 . S
C444 C447 1.356 . S
C444 O500 1.325 . S
N445 C448 1.314 . S
N445 C449 1.279 . S
C446 C444 1.348 . S
C446 C448 1.353 . S
C446 H504 0.929 . S
C447 C444 1.356 . S
C447 C449 1.358 . S
C447 H505 0.930 . S
C448 N445 1.314 . S
C448 C446 1.353 . S
C448 H506 0.930 . S
C449 N445 1.279 . S
C449 C447 1.358 . S
C449 H507 0.930 . S
C450 C453 1.348 . S
C450 C454 1.356 . S
C450 O501 1.325 . S
C451 N452 1.279 . S
C451 C454 1.358 . S
C451 H508 0.930 . S
N452 C451 1.279 . S
N452 C455 1.314 . S
C453 C450 1.348 . S
C453 C455 1.353 . S
C453 H509 0.929 . S
C454 C450 1.356 . S
C454 C451 1.358 . S
C454 H510 0.930 . S
C455 N452 1.314 . S
C455 C453 1.353 . S
C455 H511 0.930 . S
C456 N457 1.314 . S
C456 C461 1.353 . S
C456 H462 0.930 . S
N457 Li440 1.990 . S
N457 C456 1.314 . S
N457 C459 1.279 . S
C458 C459 1.358 . S
C458 C460 1.356 . S
C458 H512 0.930 . S
C459 N457 1.279 . S
C459 C458 1.358 . S
C459 H463 0.930 . S
C460 C458 1.356 . S
C460 C461 1.348 . S
C461 C456 1.353 . S
C461 C460 1.348 . S
C461 H513 0.929 . S
H462 C456 0.930 . S
H463 C459 0.930 . S
C464 N465 1.314 . S
C464 C466 1.353 1_545 S
C464 H470 0.930 . S
N465 Li441 1.990 . S
N465 C464 1.314 . S
N465 C468 1.279 . S
C466 C464 1.353 1_565 S
C466 C469 1.317 1_565 S
C466 H514 0.929 . S
C467 C468 1.358 . S
C467 C469 1.396 . S
C467 H515 0.930 . S
C468 N465 1.279 . S
C468 C467 1.358 . S
C468 H471 0.930 . S
C469 C466 1.317 1_545 S
C469 C467 1.396 . S
H470 C464 0.930 . S
H471 C468 0.930 . S
C472 C474 1.348 . S
C472 C475 1.356 . S
C472 O502 1.325 . S
N473 C476 1.314 . S
N473 C477 1.279 . S
C474 C472 1.348 . S
C474 C476 1.353 . S
C474 H516 0.929 . S
C475 C472 1.356 . S
C475 C477 1.358 . S
C475 H517 0.930 . S
C476 N473 1.314 . S
C476 C474 1.353 . S
C476 H518 0.930 . S
C477 N473 1.279 . S
C477 C475 1.358 . S
C477 H519 0.930 . S
C478 C479 1.348 . S
C478 C480 1.356 . S
C478 O503 1.325 1_565 S
C479 C478 1.348 . S
C479 C481 1.353 . S
C479 H520 0.916 1_565 S
C480 C478 1.356 . S
C480 C482 1.358 . S
C480 H521 0.930 . S
C481 C479 1.353 . S
C481 N483 1.314 . S
C481 H522 0.930 . S
C482 C480 1.358 . S
C482 N483 1.279 . S
C482 H523 0.930 . S
N483 C481 1.314 . S
N483 C482 1.279 . S
C484 C486 1.353 . S
C484 N487 1.314 . S
C484 H490 0.930 . S
C485 N487 1.279 . S
C485 C488 1.358 . S
C485 H491 0.930 . S
C486 C484 1.353 . S
C486 C489 1.348 . S
C486 H524 0.929 . S
N487 Li442 1.990 . S
N487 C484 1.314 . S
N487 C485 1.279 . S
C488 C485 1.358 . S
C488 C489 1.356 . S
C488 H525 0.930 . S
C489 C486 1.348 . S
C489 C488 1.356 . S
H490 C484 0.930 . S
H491 C485 0.930 . S
C492 N493 1.314 . S
C492 C494 1.353 . S
C492 H498 0.930 . S
N493 Li443 1.990 . S
N493 C492 1.314 . S
N493 C496 1.279 1_545 S
C494 C492 1.353 . S
C494 C497 1.348 1_545 S
C494 H526 0.929 . S
C495 C496 1.358 . S
C495 C497 1.356 . S
C495 H527 0.930 . S
C496 N493 1.279 1_565 S
C496 C495 1.358 . S
C496 H499 0.930 . S
C497 C494 1.348 1_565 S
C497 C495 1.356 . S
H498 C492 0.930 . S
H499 C496 0.930 . S
O500 Li440 1.956 . S
O500 Li441 1.970 . S
O500 Li442 1.961 . S
O500 C444 1.325 . S
O501 Li440 1.970 . S
O501 Li441 1.956 . S
O501 Li443 1.961 . S
O501 C450 1.325 . S
O502 Li440 1.961 . S
O502 Li442 1.956 . S
O502 Li443 1.970 . S
O502 C472 1.325 . S
O503 Li441 1.961 . S
O503 Li442 1.970 . S
O503 Li443 1.956 . S
O503 C478 1.325 1_545 S
H504 C446 0.929 . S
H505 C447 0.930 . S
H506 C448 0.930 . S
H507 C449 0.930 . S
H508 C451 0.930 . S
H509 C453 0.929 . S
H510 C454 0.930 . S
H511 C455 0.930 . S
H512 C458 0.930 . S
H513 C461 0.929 . S
H514 C466 0.929 . S
H515 C467 0.930 . S
H516 C474 0.929 . S
H517 C475 0.930 . S
H518 C476 0.930 . S
H519 C477 0.930 . S
H520 C479 0.916 1_545 S
H521 C480 0.930 . S
H522 C481 0.930 . S
H523 C482 0.930 . S
H524 C486 0.929 . S
H525 C488 0.930 . S
H526 C494 0.929 . S
H527 C495 0.930 . S
Li528 N545 1.990 . S
Li528 O588 1.956 . S
Li528 O589 1.970 . S
Li528 O590 1.961 . S
Li529 N553 1.990 . S
Li529 O588 1.970 . S
Li529 O589 1.956 . S
Li529 O591 1.961 . S
Li530 N575 1.990 . S
Li530 O588 1.961 . S
Li530 O590 1.956 . S
Li530 O591 1.970 . S
Li531 N581 1.990 . S
Li531 O589 1.961 . S
Li531 O590 1.970 . S
Li531 O591 1.956 . S
C532 C534 1.348 . S
C532 C535 1.356 . S
C532 O588 1.325 . S
N533 C536 1.314 . S
N533 C537 1.279 . S
C534 C532 1.348 . S
C534 C536 1.353 . S
C534 H592 0.929 . S
C535 C532 1.356 . S
C535 C537 1.358 . S
C535 H593 0.930 . S
C536 N533 1.314 . S
C536 C534 1.353 . S
C536 H594 0.930 . S
C537 N533 1.279 . S
C537 C535 1.358 . S
C537 H595 0.930 . S
C538 C541 1.348 . S
C538 C542 1.356 . S
C538 O589 1.325 . S
C539 N540 1.279 . S
C539 C542 1.358 . S
C539 H596 0.930 . S
N540 C539 1.279 . S
N540 C543 1.314 . S
C541 C538 1.348 . S
C541 C543 1.353 . S
C541 H597 0.929 . S
C542 C538 1.356 . S
C542 C539 1.358 . S
C542 H598 0.930 . S
C543 N540 1.314 . S
C543 C541 1.353 . S
C543 H599 0.930 . S
C544 N545 1.314 . S
C544 C549 1.353 . S
C544 H550 0.930 . S
N545 Li528 1.990 . S
N545 C544 1.314 . S
N545 C547 1.279 . S
C546 C547 1.358 . S
C546 C548 1.356 . S
C546 H600 0.930 . S
C547 N545 1.279 . S
C547 C546 1.358 . S
C547 H551 0.930 . S
C548 C546 1.356 . S
C548 C549 1.348 . S
C549 C544 1.353 . S
C549 C548 1.348 . S
C549 H601 0.929 . S
H550 C544 0.930 . S
H551 C547 0.930 . S
C552 N553 1.314 . S
C552 C554 1.353 . S
C552 H558 0.930 . S
N553 Li529 1.990 . S
N553 C552 1.314 . S
N553 C556 1.279 . S
C554 C552 1.353 . S
C554 C557 1.348 . S
C554 H602 0.929 . S
C555 C556 1.358 . S
C555 C557 1.356 . S
C555 H603 0.930 . S
C556 N553 1.279 . S
C556 C555 1.358 . S
C556 H559 0.930 . S
C557 C554 1.348 . S
C557 C555 1.356 . S
H558 C552 0.930 . S
H559 C556 0.930 . S
C560 C562 1.348 . S
C560 C563 1.356 . S
C560 O590 1.325 . S
N561 C564 1.314 . S
N561 C565 1.279 . S
C562 C560 1.348 . S
C562 C564 1.353 . S
C562 H604 0.929 . S
C563 C560 1.356 . S
C563 C565 1.358 . S
C563 H605 0.930 . S
C564 N561 1.314 . S
C564 C562 1.353 . S
C564 H606 0.930 . S
C565 N561 1.279 . S
C565 C563 1.358 . S
C565 H607 0.930 . S
C566 C567 1.348 . S
C566 C568 1.356 . S
C566 O591 1.325 . S
C567 C566 1.348 . S
C567 C569 1.353 . S
C567 H608 0.929 . S
C568 C566 1.356 . S
C568 C570 1.358 . S
C568 H609 0.930 . S
C569 C567 1.353 . S
C569 N571 1.314 . S
C569 H610 0.930 . S
C570 C568 1.358 . S
C570 N571 1.279 . S
C570 H611 0.930 . S
N571 C569 1.314 . S
N571 C570 1.279 . S
C572 C574 1.353 . S
C572 N575 1.314 . S
C572 H578 0.930 . S
C573 N575 1.279 . S
C573 C576 1.358 . S
C573 H579 0.930 . S
C574 C572 1.353 . S
C574 C577 1.348 . S
C574 H612 0.929 . S
N575 Li530 1.990 . S
N575 C572 1.314 . S
N575 C573 1.279 . S
C576 C573 1.358 . S
C576 C577 1.356 . S
C576 H613 0.930 . S
C577 C574 1.348 . S
C577 C576 1.356 . S
H578 C572 0.930 . S
H579 C573 0.930 . S
C580 N581 1.314 . S
C580 C582 1.353 . S
C580 H586 0.930 . S
N581 Li531 1.990 . S
N581 C580 1.314 . S
N581 C584 1.279 . S
C582 C580 1.353 . S
C582 C585 1.348 . S
C582 H614 0.929 . S
C583 C584 1.358 . S
C583 C585 1.356 . S
C583 H615 0.930 . S
C584 N581 1.279 . S
C584 C583 1.358 . S
C584 H587 0.930 . S
C585 C582 1.348 . S
C585 C583 1.356 . S
H586 C580 0.930 . S
H587 C584 0.930 . S
O588 Li528 1.956 . S
O588 Li529 1.970 . S
O588 Li530 1.961 . S
O588 C532 1.325 . S
O589 Li528 1.970 . S
O589 Li529 1.956 . S
O589 Li531 1.961 . S
O589 C538 1.325 . S
O590 Li528 1.961 . S
O590 Li530 1.956 . S
O590 Li531 1.970 . S
O590 C560 1.325 . S
O591 Li529 1.961 . S
O591 Li530 1.970 . S
O591 Li531 1.956 . S
O591 C566 1.325 . S
H592 C534 0.929 . S
H593 C535 0.930 . S
H594 C536 0.930 . S
H595 C537 0.930 . S
H596 C539 0.930 . S
H597 C541 0.929 . S
H598 C542 0.930 . S
H599 C543 0.930 . S
H600 C546 0.930 . S
H601 C549 0.929 . S
H602 C554 0.929 . S
H603 C555 0.930 . S
H604 C562 0.929 . S
H605 C563 0.930 . S
H606 C564 0.930 . S
H607 C565 0.930 . S
H608 C567 0.929 . S
H609 C568 0.930 . S
H610 C569 0.930 . S
H611 C570 0.930 . S
H612 C574 0.929 . S
H613 C576 0.930 . S
H614 C582 0.929 . S
H615 C583 0.930 . S
Li616 N633 1.990 . S
Li616 O676 1.956 . S
Li616 O677 1.970 . S
Li616 O678 1.961 . S
Li617 N641 1.990 1_556 S
Li617 O676 1.970 . S
Li617 O677 1.956 . S
Li617 O679 1.961 . S
Li618 N663 1.990 . S
Li618 O676 1.961 . S
Li618 O678 1.956 . S
Li618 O679 1.970 . S
Li619 N669 1.990 . S
Li619 O677 1.961 . S
Li619 O678 1.970 . S
Li619 O679 1.956 . S
C620 C622 1.348 . S
C620 C623 1.356 . S
C620 O676 1.325 1_554 S
N621 C624 1.314 . S
N621 C625 1.279 . S
C622 C620 1.348 . S
C622 C624 1.353 . S
C622 H680 0.929 . S
C623 C620 1.356 . S
C623 C625 1.358 . S
C623 H681 0.930 1_554 S
C624 N621 1.314 . S
C624 C622 1.353 . S
C624 H682 0.930 . S
C625 N621 1.279 . S
C625 C623 1.358 . S
C625 H683 0.930 . S
C626 C629 1.348 . S
C626 C630 1.356 . S
C626 O677 1.325 1_455 S
C627 N628 1.279 . S
C627 C630 1.358 . S
C627 H684 0.930 . S
N628 C627 1.279 . S
N628 C631 1.314 . S
C629 C626 1.348 . S
C629 C631 1.353 . S
C629 H685 0.916 1_455 S
C630 C626 1.356 . S
C630 C627 1.358 . S
C630 H686 0.930 . S
C631 N628 1.314 . S
C631 C629 1.353 . S
C631 H687 0.930 . S
C632 N633 1.314 . S
C632 C637 1.353 . S
C632 H638 0.930 . S
N633 Li616 1.990 . S
N633 C632 1.314 . S
N633 C635 1.279 . S
C634 C635 1.358 . S
C634 C636 1.356 . S
C634 H688 0.930 . S
C635 N633 1.279 . S
C635 C634 1.358 . S
C635 H639 0.930 . S
C636 C634 1.356 . S
C636 C637 1.348 . S
C637 C632 1.353 . S
C637 C636 1.348 . S
C637 H689 0.929 . S
H638 C632 0.930 . S
H639 C635 0.930 . S
C640 N641 1.314 . S
C640 C642 1.353 . S
C640 H646 0.930 . S
N641 Li617 1.990 1_554 S
N641 C640 1.314 . S
N641 C644 1.279 1_655 S
C642 C640 1.353 . S
C642 C645 1.348 1_655 S
C642 H690 0.929 . S
C643 C644 1.358 . S
C643 C645 1.356 . S
C643 H691 0.930 . S
C644 N641 1.279 1_455 S
C644 C643 1.358 . S
C644 H647 0.930 . S
C645 C642 1.348 1_455 S
C645 C643 1.356 . S
H646 C640 0.930 . S
H647 C644 0.930 . S
C648 C650 1.348 . S
C648 C651 1.356 . S
C648 O678 1.325 . S
N649 C652 1.314 . S
N649 C653 1.279 . S
C650 C648 1.348 . S
C650 C652 1.353 . S
C650 H692 0.929 . S
C651 C648 1.356 . S
C651 C653 1.358 . S
C651 H693 0.930 . S
C652 N649 1.314 . S
C652 C650 1.353 . S
C652 H694 0.930 . S
C653 N649 1.279 . S
C653 C651 1.358 . S
C653 H695 0.930 . S
C654 C655 1.348 . S
C654 C656 1.356 . S
C654 O679 1.325 . S
C655 C654 1.348 . S
C655 C657 1.353 . S
C655 H696 0.929 . S
C656 C654 1.356 . S
C656 C658 1.358 . S
C656 H697 0.930 . S
C657 C655 1.353 . S
C657 N659 1.314 . S
C657 H698 0.930 . S
C658 C656 1.358 . S
C658 N659 1.279 . S
C658 H699 0.930 . S
N659 C657 1.314 . S
N659 C658 1.279 . S
C660 C662 1.353 . S
C660 N663 1.314 . S
C660 H666 0.930 . S
C661 N663 1.279 . S
C661 C664 1.358 . S
C661 H667 0.930 . S
C662 C660 1.353 . S
C662 C665 1.348 . S
C662 H700 0.903 1_556 S
N663 Li618 1.990 . S
N663 C660 1.314 . S
N663 C661 1.279 . S
C664 C661 1.358 . S
C664 C665 1.356 . S
C664 H701 0.930 . S
C665 C662 1.348 . S
C665 C664 1.356 . S
H666 C660 0.930 . S
H667 C661 0.930 . S
C668 N669 1.314 . S
C668 C670 1.353 1_655 S
C668 H674 0.930 . S
N669 Li619 1.990 . S
N669 C668 1.314 . S
N669 C672 1.279 . S
C670 C668 1.353 1_455 S
C670 C673 1.317 1_455 S
C670 H702 0.929 . S
C671 C672 1.358 . S
C671 C673 1.396 . S
C671 H703 0.930 . S
C672 N669 1.279 . S
C672 C671 1.358 . S
C672 H675 0.930 . S
C673 C670 1.317 1_655 S
C673 C671 1.396 . S
H674 C668 0.930 . S
H675 C672 0.930 . S
O676 Li616 1.956 . S
O676 Li617 1.970 . S
O676 Li618 1.961 . S
O676 C620 1.325 1_556 S
O677 Li616 1.970 . S
O677 Li617 1.956 . S
O677 Li619 1.961 . S
O677 C626 1.325 1_655 S
O678 Li616 1.961 . S
O678 Li618 1.956 . S
O678 Li619 1.970 . S
O678 C648 1.325 . S
O679 Li617 1.961 . S
O679 Li618 1.970 . S
O679 Li619 1.956 . S
O679 C654 1.325 . S
H680 C622 0.929 . S
H681 C623 0.930 1_556 S
H682 C624 0.930 . S
H683 C625 0.930 . S
H684 C627 0.930 . S
H685 C629 0.916 1_655 S
H686 C630 0.930 . S
H687 C631 0.930 . S
H688 C634 0.930 . S
H689 C637 0.929 . S
H690 C642 0.929 . S
H691 C643 0.930 . S
H692 C650 0.929 . S
H693 C651 0.930 . S
H694 C652 0.930 . S
H695 C653 0.930 . S
H696 C655 0.929 . S
H697 C656 0.930 . S
H698 C657 0.930 . S
H699 C658 0.930 . S
H700 C662 0.903 1_554 S
H701 C664 0.930 . S
H702 C670 0.929 . S
H703 C671 0.930 . S
Li704 N721 1.990 . S
Li704 O764 1.956 . S
Li704 O765 1.970 . S
Li704 O766 1.961 . S
Li705 N729 1.990 . S
Li705 O764 1.970 . S
Li705 O765 1.956 . S
Li705 O767 1.961 . S
Li706 N751 1.990 . S
Li706 O764 1.961 . S
Li706 O766 1.956 . S
Li706 O767 1.970 . S
Li707 N757 1.990 . S
Li707 O765 1.961 . S
Li707 O766 1.970 . S
Li707 O767 1.956 . S
C708 C710 1.348 . S
C708 C711 1.356 . S
C708 O764 1.325 1_545 S
N709 C712 1.314 . S
N709 C713 1.279 . S
C710 C708 1.348 . S
C710 C712 1.353 . S
C710 H768 0.878 1_545 S
C711 C708 1.356 . S
C711 C713 1.358 . S
C711 H769 0.930 . S
C712 N709 1.314 . S
C712 C710 1.353 . S
C712 H770 0.930 . S
C713 N709 1.279 . S
C713 C711 1.358 . S
C713 H771 0.930 . S
C714 C717 1.348 . S
C714 C718 1.356 . S
C714 O765 1.325 . S
C715 N716 1.279 . S
C715 C718 1.358 . S
C715 H772 0.930 . S
N716 C715 1.279 . S
N716 C719 1.314 . S
C717 C714 1.348 . S
C717 C719 1.353 . S
C717 H773 0.929 . S
C718 C714 1.356 . S
C718 C715 1.358 . S
C718 H774 0.930 . S
C719 N716 1.314 . S
C719 C717 1.353 . S
C719 H775 0.930 . S
C720 N721 1.314 . S
C720 C725 1.353 . S
C720 H726 0.930 . S
N721 Li704 1.990 . S
N721 C720 1.314 . S
N721 C723 1.279 1_565 S
C722 C723 1.358 . S
C722 C724 1.356 . S
C722 H776 0.930 . S
C723 N721 1.279 1_545 S
C723 C722 1.358 . S
C723 H727 0.930 . S
C724 C722 1.356 . S
C724 C725 1.348 1_545 S
C725 C720 1.353 . S
C725 C724 1.348 1_565 S
C725 H777 0.929 . S
H726 C720 0.930 . S
H727 C723 0.930 . S
C728 N729 1.314 . S
C728 C730 1.353 . S
C728 H734 0.930 . S
N729 Li705 1.990 . S
N729 C728 1.314 . S
N729 C732 1.279 . S
C730 C728 1.353 . S
C730 C733 1.348 . S
C730 H778 0.929 . S
C731 C732 1.358 . S
C731 C733 1.356 . S
C731 H779 0.930 . S
C732 N729 1.279 . S
C732 C731 1.358 . S
C732 H735 0.930 . S
C733 C730 1.348 . S
C733 C731 1.356 . S
H734 C728 0.930 . S
H735 C732 0.930 . S
C736 C738 1.348 . S
C736 C739 1.356 . S
C736 O766 1.325 . S
N737 C740 1.314 . S
N737 C741 1.279 . S
C738 C736 1.348 . S
C738 C740 1.353 . S
C738 H780 0.929 . S
C739 C736 1.356 . S
C739 C741 1.358 . S
C739 H781 0.930 . S
C740 N737 1.314 . S
C740 C738 1.353 . S
C740 H782 0.930 . S
C741 N737 1.279 . S
C741 C739 1.358 . S
C741 H783 0.930 . S
C742 C743 1.348 . S
C742 C744 1.356 . S
C742 O767 1.325 . S
C743 C742 1.348 . S
C743 C745 1.353 . S
C743 H784 0.929 . S
C744 C742 1.356 . S
C744 C746 1.358 . S
C744 H785 0.930 . S
C745 C743 1.353 . S
C745 N747 1.314 . S
C745 H786 0.930 . S
C746 C744 1.358 . S
C746 N747 1.279 . S
C746 H787 0.930 . S
N747 C745 1.314 . S
N747 C746 1.279 . S
C748 C750 1.353 1_565 S
C748 N751 1.314 . S
C748 H754 0.930 . S
C749 N751 1.279 . S
C749 C752 1.358 . S
C749 H755 0.930 . S
C750 C748 1.353 1_545 S
C750 C753 1.368 1_545 S
C750 H788 0.929 . S
N751 Li706 1.990 . S
N751 C748 1.314 . S
N751 C749 1.279 . S
C752 C749 1.358 . S
C752 C753 1.362 . S
C752 H789 0.930 . S
C753 C750 1.368 1_565 S
C753 C752 1.362 . S
H754 C748 0.930 . S
H755 C749 0.930 . S
C756 N757 1.314 . S
C756 C758 1.353 . S
C756 H762 0.930 . S
N757 Li707 1.990 . S
N757 C756 1.314 . S
N757 C760 1.279 . S
C758 C756 1.353 . S
C758 C761 1.348 . S
C758 H790 0.929 . S
C759 C760 1.358 . S
C759 C761 1.356 . S
C759 H791 0.930 . S
C760 N757 1.279 . S
C760 C759 1.358 . S
C760 H763 0.930 . S
C761 C758 1.348 . S
C761 C759 1.356 . S
H762 C756 0.930 . S
H763 C760 0.930 . S
O764 Li704 1.956 . S
O764 Li705 1.970 . S
O764 Li706 1.961 . S
O764 C708 1.325 1_565 S
O765 Li704 1.970 . S
O765 Li705 1.956 . S
O765 Li707 1.961 . S
O765 C714 1.325 . S
O766 Li704 1.961 . S
O766 Li706 1.956 . S
O766 Li707 1.970 . S
O766 C736 1.325 . S
O767 Li705 1.961 . S
O767 Li706 1.970 . S
O767 Li707 1.956 . S
O767 C742 1.325 . S
H768 C710 0.878 1_565 S
H769 C711 0.930 . S
H770 C712 0.930 . S
H771 C713 0.930 . S
H772 C715 0.930 . S
H773 C717 0.929 . S
H774 C718 0.930 . S
H775 C719 0.930 . S
H776 C722 0.930 . S
H777 C725 0.929 . S
H778 C730 0.929 . S
H779 C731 0.930 . S
H780 C738 0.929 . S
H781 C739 0.930 . S
H782 C740 0.930 . S
H783 C741 0.930 . S
H784 C743 0.929 . S
H785 C744 0.930 . S
H786 C745 0.930 . S
H787 C746 0.930 . S
H788 C750 0.929 . S
H789 C752 0.930 . S
H790 C758 0.929 . S
H791 C759 0.930 . S
Li792 N809 1.990 . S
Li792 O852 1.956 . S
Li792 O853 1.970 . S
Li792 O854 1.961 . S
Li793 N817 1.990 . S
Li793 O852 1.970 . S
Li793 O853 1.956 . S
Li793 O855 1.961 . S
Li794 N839 1.990 . S
Li794 O852 1.961 . S
Li794 O854 1.956 . S
Li794 O855 1.970 . S
Li795 N845 1.990 . S
Li795 O853 1.961 . S
Li795 O854 1.970 . S
Li795 O855 1.956 . S
C796 C798 1.348 . S
C796 C799 1.356 . S
C796 O852 1.325 . S
N797 C800 1.314 . S
N797 C801 1.279 . S
C798 C796 1.348 . S
C798 C800 1.353 . S
C798 H856 0.929 . S
C799 C796 1.356 . S
C799 C801 1.358 . S
C799 H857 0.930 . S
C800 N797 1.314 . S
C800 C798 1.353 . S
C800 H858 0.930 . S
C801 N797 1.279 . S
C801 C799 1.358 . S
C801 H859 0.930 . S
C802 C805 1.348 . S
C802 C806 1.356 . S
C802 O853 1.325 . S
C803 N804 1.279 . S
C803 C806 1.358 . S
C803 H860 0.930 . S
N804 C803 1.279 . S
N804 C807 1.314 . S
C805 C802 1.348 . S
C805 C807 1.353 . S
C805 H861 0.929 . S
C806 C802 1.356 . S
C806 C803 1.358 . S
C806 H862 0.930 . S
C807 N804 1.314 . S
C807 C805 1.353 . S
C807 H863 0.930 . S
C808 N809 1.314 . S
C808 C813 1.353 . S
C808 H814 0.930 . S
N809 Li792 1.990 . S
N809 C808 1.314 . S
N809 C811 1.279 . S
C810 C811 1.358 . S
C810 C812 1.356 . S
C810 H864 0.930 . S
C811 N809 1.279 . S
C811 C810 1.358 . S
C811 H815 0.930 . S
C812 C810 1.356 . S
C812 C813 1.348 . S
C813 C808 1.353 . S
C813 C812 1.348 . S
C813 H865 0.929 . S
H814 C808 0.930 . S
H815 C811 0.930 . S
C816 N817 1.314 . S
C816 C818 1.353 . S
C816 H822 0.930 . S
N817 Li793 1.990 . S
N817 C816 1.314 . S
N817 C820 1.279 . S
C818 C816 1.353 . S
C818 C821 1.348 . S
C818 H866 0.929 . S
C819 C820 1.358 . S
C819 C821 1.356 . S
C819 H867 0.930 . S
C820 N817 1.279 . S
C820 C819 1.358 . S
C820 H823 0.930 . S
C821 C818 1.348 . S
C821 C819 1.356 . S
H822 C816 0.930 . S
H823 C820 0.930 . S
C824 C826 1.348 . S
C824 C827 1.356 . S
C824 O854 1.325 . S
N825 C828 1.314 . S
N825 C829 1.279 . S
C826 C824 1.348 . S
C826 C828 1.353 . S
C826 H868 0.929 . S
C827 C824 1.356 . S
C827 C829 1.358 . S
C827 H869 0.930 . S
C828 N825 1.314 . S
C828 C826 1.353 . S
C828 H870 0.930 . S
C829 N825 1.279 . S
C829 C827 1.358 . S
C829 H871 0.930 . S
C830 C831 1.348 . S
C830 C832 1.356 . S
C830 O855 1.325 . S
C831 C830 1.348 . S
C831 C833 1.353 . S
C831 H872 0.929 . S
C832 C830 1.356 . S
C832 C834 1.358 . S
C832 H873 0.930 . S
C833 C831 1.353 . S
C833 N835 1.314 . S
C833 H874 0.930 . S
C834 C832 1.358 . S
C834 N835 1.279 . S
C834 H875 0.930 . S
N835 C833 1.314 . S
N835 C834 1.279 . S
C836 C838 1.353 . S
C836 N839 1.314 . S
C836 H842 0.930 . S
C837 N839 1.279 . S
C837 C840 1.358 . S
C837 H843 0.930 . S
C838 C836 1.353 . S
C838 C841 1.348 . S
C838 H876 0.929 . S
N839 Li794 1.990 . S
N839 C836 1.314 . S
N839 C837 1.279 . S
C840 C837 1.358 . S
C840 C841 1.356 . S
C840 H877 0.930 . S
C841 C838 1.348 . S
C841 C840 1.356 . S
H842 C836 0.930 . S
H843 C837 0.930 . S
C844 N845 1.314 . S
C844 C846 1.353 . S
C844 H850 0.930 . S
N845 Li795 1.990 . S
N845 C844 1.314 . S
N845 C848 1.279 . S
C846 C844 1.353 . S
C846 C849 1.348 . S
C846 H878 0.929 . S
C847 C848 1.358 . S
C847 C849 1.356 . S
C847 H879 0.930 . S
C848 N845 1.279 . S
C848 C847 1.358 . S
C848 H851 0.930 . S
C849 C846 1.348 . S
C849 C847 1.356 . S
H850 C844 0.930 . S
H851 C848 0.930 . S
O852 Li792 1.956 . S
O852 Li793 1.970 . S
O852 Li794 1.961 . S
O852 C796 1.325 . S
O853 Li792 1.970 . S
O853 Li793 1.956 . S
O853 Li795 1.961 . S
O853 C802 1.325 . S
O854 Li792 1.961 . S
O854 Li794 1.956 . S
O854 Li795 1.970 . S
O854 C824 1.325 . S
O855 Li793 1.961 . S
O855 Li794 1.970 . S
O855 Li795 1.956 . S
O855 C830 1.325 . S
H856 C798 0.929 . S
H857 C799 0.930 . S
H858 C800 0.930 . S
H859 C801 0.930 . S
H860 C803 0.930 . S
H861 C805 0.929 . S
H862 C806 0.930 . S
H863 C807 0.930 . S
H864 C810 0.930 . S
H865 C813 0.929 . S
H866 C818 0.929 . S
H867 C819 0.930 . S
H868 C826 0.929 . S
H869 C827 0.930 . S
H870 C828 0.930 . S
H871 C829 0.930 . S
H872 C831 0.929 . S
H873 C832 0.930 . S
H874 C833 0.930 . S
H875 C834 0.930 . S
H876 C838 0.929 . S
H877 C840 0.930 . S
H878 C846 0.929 . S
H879 C847 0.930 . S
Li880 N897 1.990 . S
Li880 O940 1.956 . S
Li880 O941 1.970 . S
Li880 O942 1.961 . S
Li881 N905 1.990 1_556 S
Li881 O940 1.970 . S
Li881 O941 1.956 . S
Li881 O943 1.961 . S
Li882 N927 1.990 . S
Li882 O940 1.961 . S
Li882 O942 1.956 . S
Li882 O943 1.970 . S
Li883 N933 1.990 . S
Li883 O941 1.961 . S
Li883 O942 1.970 . S
Li883 O943 1.956 . S
C884 C886 1.348 . S
C884 C887 1.356 . S
C884 O940 1.325 1_554 S
N885 C888 1.314 . S
N885 C889 1.279 . S
C886 C884 1.348 . S
C886 C888 1.353 . S
C886 H944 0.929 . S
C887 C884 1.356 . S
C887 C889 1.358 . S
C887 H945 0.930 1_554 S
C888 N885 1.314 . S
C888 C886 1.353 . S
C888 H946 0.930 . S
C889 N885 1.279 . S
C889 C887 1.358 . S
C889 H947 0.930 . S
C890 C893 1.348 . S
C890 C894 1.356 . S
C890 O941 1.325 1_655 S
C891 N892 1.279 . S
C891 C894 1.358 . S
C891 H948 0.930 . S
N892 C891 1.279 . S
N892 C895 1.314 . S
C893 C890 1.348 . S
C893 C895 1.353 . S
C893 H949 0.916 1_655 S
C894 C890 1.356 . S
C894 C891 1.358 . S
C894 H950 0.930 . S
C895 N892 1.314 . S
C895 C893 1.353 . S
C895 H951 0.930 . S
C896 N897 1.314 . S
C896 C901 1.353 . S
C896 H902 0.930 . S
N897 Li880 1.990 . S
N897 C896 1.314 . S
N897 C899 1.279 . S
C898 C899 1.358 . S
C898 C900 1.356 . S
C898 H952 0.930 . S
C899 N897 1.279 . S
C899 C898 1.358 . S
C899 H903 0.930 . S
C900 C898 1.356 . S
C900 C901 1.348 . S
C901 C896 1.353 . S
C901 C900 1.348 . S
C901 H953 0.929 . S
H902 C896 0.930 . S
H903 C899 0.930 . S
C904 N905 1.314 . S
C904 C906 1.353 . S
C904 H910 0.930 . S
N905 Li881 1.990 1_554 S
N905 C904 1.314 . S
N905 C908 1.279 1_455 S
C906 C904 1.353 . S
C906 C909 1.348 1_455 S
C906 H954 0.929 . S
C907 C908 1.358 . S
C907 C909 1.356 . S
C907 H955 0.930 . S
C908 N905 1.279 1_655 S
C908 C907 1.358 . S
C908 H911 0.930 . S
C909 C906 1.348 1_655 S
C909 C907 1.356 . S
H910 C904 0.930 . S
H911 C908 0.930 . S
C912 C914 1.348 . S
C912 C915 1.356 . S
C912 O942 1.325 . S
N913 C916 1.314 . S
N913 C917 1.279 . S
C914 C912 1.348 . S
C914 C916 1.353 . S
C914 H956 0.929 . S
C915 C912 1.356 . S
C915 C917 1.358 . S
C915 H957 0.930 . S
C916 N913 1.314 . S
C916 C914 1.353 . S
C916 H958 0.930 . S
C917 N913 1.279 . S
C917 C915 1.358 . S
C917 H959 0.930 . S
C918 C919 1.348 . S
C918 C920 1.356 . S
C918 O943 1.325 . S
C919 C918 1.348 . S
C919 C921 1.353 . S
C919 H960 0.929 . S
C920 C918 1.356 . S
C920 C922 1.358 . S
C920 H961 0.930 . S
C921 C919 1.353 . S
C921 N923 1.314 . S
C921 H962 0.930 . S
C922 C920 1.358 . S
C922 N923 1.279 . S
C922 H963 0.930 . S
N923 C921 1.314 . S
N923 C922 1.279 . S
C924 C926 1.353 . S
C924 N927 1.314 . S
C924 H930 0.930 . S
C925 N927 1.279 . S
C925 C928 1.358 . S
C925 H931 0.930 . S
C926 C924 1.353 . S
C926 C929 1.348 . S
C926 H964 0.903 1_556 S
N927 Li882 1.990 . S
N927 C924 1.314 . S
N927 C925 1.279 . S
C928 C925 1.358 . S
C928 C929 1.356 . S
C928 H965 0.930 . S
C929 C926 1.348 . S
C929 C928 1.356 . S
H930 C924 0.930 . S
H931 C925 0.930 . S
C932 N933 1.314 . S
C932 C934 1.353 1_455 S
C932 H938 0.930 . S
N933 Li883 1.990 . S
N933 C932 1.314 . S
N933 C936 1.279 . S
C934 C932 1.353 1_655 S
C934 C937 1.317 1_655 S
C934 H966 0.929 . S
C935 C936 1.358 . S
C935 C937 1.396 . S
C935 H967 0.930 . S
C936 N933 1.279 . S
C936 C935 1.358 . S
C936 H939 0.930 . S
C937 C934 1.317 1_455 S
C937 C935 1.396 . S
H938 C932 0.930 . S
H939 C936 0.930 . S
O940 Li880 1.956 . S
O940 Li881 1.970 . S
O940 Li882 1.961 . S
O940 C884 1.325 1_556 S
O941 Li880 1.970 . S
O941 Li881 1.956 . S
O941 Li883 1.961 . S
O941 C890 1.325 1_455 S
O942 Li880 1.961 . S
O942 Li882 1.956 . S
O942 Li883 1.970 . S
O942 C912 1.325 . S
O943 Li881 1.961 . S
O943 Li882 1.970 . S
O943 Li883 1.956 . S
O943 C918 1.325 . S
H944 C886 0.929 . S
H945 C887 0.930 1_556 S
H946 C888 0.930 . S
H947 C889 0.930 . S
H948 C891 0.930 . S
H949 C893 0.916 1_455 S
H950 C894 0.930 . S
H951 C895 0.930 . S
H952 C898 0.930 . S
H953 C901 0.929 . S
H954 C906 0.929 . S
H955 C907 0.930 . S
H956 C914 0.929 . S
H957 C915 0.930 . S
H958 C916 0.930 . S
H959 C917 0.930 . S
H960 C919 0.929 . S
H961 C920 0.930 . S
H962 C921 0.930 . S
H963 C922 0.930 . S
H964 C926 0.903 1_554 S
H965 C928 0.930 . S
H966 C934 0.929 . S
H967 C935 0.930 . S
Li968 N985 1.990 . S
Li968 O1028 1.956 . S
Li968 O1029 1.970 . S
Li968 O1030 1.961 . S
Li969 N993 1.990 . S
Li969 O1028 1.970 . S
Li969 O1029 1.956 . S
Li969 O1031 1.961 . S
Li970 N1015 1.990 . S
Li970 O1028 1.961 . S
Li970 O1030 1.956 . S
Li970 O1031 1.970 . S
Li971 N1021 1.990 . S
Li971 O1029 1.961 . S
Li971 O1030 1.970 . S
Li971 O1031 1.956 . S
C972 C974 1.348 . S
C972 C975 1.356 . S
C972 O1028 1.325 . S
N973 C976 1.314 . S
N973 C977 1.279 . S
C974 C972 1.348 . S
C974 C976 1.353 . S
C974 H1032 0.929 . S
C975 C972 1.356 . S
C975 C977 1.358 . S
C975 H1033 0.930 . S
C976 N973 1.314 . S
C976 C974 1.353 . S
C976 H1034 0.930 . S
C977 N973 1.279 . S
C977 C975 1.358 . S
C977 H1035 0.930 . S
C978 C981 1.348 . S
C978 C982 1.356 . S
C978 O1029 1.325 1_565 S
C979 N980 1.279 . S
C979 C982 1.358 . S
C979 H1036 0.930 . S
N980 C979 1.279 . S
N980 C983 1.314 . S
C981 C978 1.348 . S
C981 C983 1.353 . S
C981 H1037 0.878 1_565 S
C982 C978 1.356 . S
C982 C979 1.358 . S
C982 H1038 0.930 . S
C983 N980 1.314 . S
C983 C981 1.353 . S
C983 H1039 0.930 . S
C984 N985 1.314 . S
C984 C989 1.353 . S
C984 H990 0.930 . S
N985 Li968 1.990 . S
N985 C984 1.314 . S
N985 C987 1.279 . S
C986 C987 1.358 . S
C986 C988 1.356 . S
C986 H1040 0.930 . S
C987 N985 1.279 . S
C987 C986 1.358 . S
C987 H991 0.930 . S
C988 C986 1.356 . S
C988 C989 1.348 . S
C989 C984 1.353 . S
C989 C988 1.348 . S
C989 H1041 0.929 . S
H990 C984 0.930 . S
H991 C987 0.930 . S
C992 N993 1.314 . S
C992 C994 1.353 . S
C992 H998 0.930 . S
N993 Li969 1.990 . S
N993 C992 1.314 . S
N993 C996 1.279 1_545 S
C994 C992 1.353 . S
C994 C997 1.348 1_545 S
C994 H1042 0.929 . S
C995 C996 1.358 . S
C995 C997 1.356 . S
C995 H1043 0.930 . S
C996 N993 1.279 1_565 S
C996 C995 1.358 . S
C996 H999 0.930 . S
C997 C994 1.348 1_565 S
C997 C995 1.356 . S
H998 C992 0.930 . S
H999 C996 0.930 . S
C1000 C1002 1.348 . S
C1000 C1003 1.356 . S
C1000 O1030 1.325 . S
N1001 C1004 1.314 . S
N1001 C1005 1.279 . S
C1002 C1000 1.348 . S
C1002 C1004 1.353 . S
C1002 H1044 0.929 . S
C1003 C1000 1.356 . S
C1003 C1005 1.358 . S
C1003 H1045 0.930 . S
C1004 N1001 1.314 . S
C1004 C1002 1.353 . S
C1004 H1046 0.930 . S
C1005 N1001 1.279 . S
C1005 C1003 1.358 . S
C1005 H1047 0.930 . S
C1006 C1007 1.348 . S
C1006 C1008 1.356 . S
C1006 O1031 1.325 . S
C1007 C1006 1.348 . S
C1007 C1009 1.353 . S
C1007 H1048 0.929 . S
C1008 C1006 1.356 . S
C1008 C1010 1.358 . S
C1008 H1049 0.930 . S
C1009 C1007 1.353 . S
C1009 N1011 1.314 . S
C1009 H1050 0.930 . S
C1010 C1008 1.358 . S
C1010 N1011 1.279 . S
C1010 H1051 0.930 . S
N1011 C1009 1.314 . S
N1011 C1010 1.279 . S
C1012 C1014 1.353 . S
C1012 N1015 1.314 . S
C1012 H1018 0.930 . S
C1013 N1015 1.279 . S
C1013 C1016 1.358 . S
C1013 H1019 0.930 . S
C1014 C1012 1.353 . S
C1014 C1017 1.348 . S
C1014 H1052 0.929 . S
N1015 Li970 1.990 . S
N1015 C1012 1.314 . S
N1015 C1013 1.279 . S
C1016 C1013 1.358 . S
C1016 C1017 1.356 . S
C1016 H1053 0.930 . S
C1017 C1014 1.348 . S
C1017 C1016 1.356 . S
H1018 C1012 0.930 . S
H1019 C1013 0.930 . S
C1020 N1021 1.314 . S
C1020 C1022 1.353 1_545 S
C1020 H1026 0.930 . S
N1021 Li971 1.990 . S
N1021 C1020 1.314 . S
N1021 C1024 1.279 . S
C1022 C1020 1.353 1_565 S
C1022 C1025 1.368 1_565 S
C1022 H1054 0.929 . S
C1023 C1024 1.358 . S
C1023 C1025 1.362 . S
C1023 H1055 0.930 . S
C1024 N1021 1.279 . S
C1024 C1023 1.358 . S
C1024 H1027 0.930 . S
C1025 C1022 1.368 1_545 S
C1025 C1023 1.362 . S
H1026 C1020 0.930 . S
H1027 C1024 0.930 . S
O1028 Li968 1.956 . S
O1028 Li969 1.970 . S
O1028 Li970 1.961 . S
O1028 C972 1.325 . S
O1029 Li968 1.970 . S
O1029 Li969 1.956 . S
O1029 Li971 1.961 . S
O1029 C978 1.325 1_545 S
O1030 Li968 1.961 . S
O1030 Li970 1.956 . S
O1030 Li971 1.970 . S
O1030 C1000 1.325 . S
O1031 Li969 1.961 . S
O1031 Li970 1.970 . S
O1031 Li971 1.956 . S
O1031 C1006 1.325 . S
H1032 C974 0.929 . S
H1033 C975 0.930 . S
H1034 C976 0.930 . S
H1035 C977 0.930 . S
H1036 C979 0.930 . S
H1037 C981 0.878 1_545 S
H1038 C982 0.930 . S
H1039 C983 0.930 . S
H1040 C986 0.930 . S
H1041 C989 0.929 . S
H1042 C994 0.929 . S
H1043 C995 0.930 . S
H1044 C1002 0.929 . S
H1045 C1003 0.930 . S
H1046 C1004 0.930 . S
H1047 C1005 0.930 . S
H1048 C1007 0.929 . S
H1049 C1008 0.930 . S
H1050 C1009 0.930 . S
H1051 C1010 0.930 . S
H1052 C1014 0.929 . S
H1053 C1016 0.930 . S
H1054 C1022 0.929 . S
H1055 C1023 0.930 . S
H1056 C1062 0.930 . S
H1057 C1066 0.930 . S
H1058 C1071 0.929 . S
H1059 C1069 0.929 . S
H1060 C1064 0.929 . S
H1061 C1070 0.929 . S
C1062 H1056 0.930 . S
C1062 C1063 1.367 . S
C1062 C1070 1.378 . S
C1063 C1062 1.367 . S
C1063 C1071 1.433 . S
C1064 H1060 0.929 . S
C1064 C1066 1.378 . S
C1064 C1068 1.350 . S
C1065 C1068 1.463 . S
C1065 C1070 1.350 . S
C1065 N1073 1.427 . S
C1066 H1057 0.930 . S
C1066 C1064 1.378 . S
C1066 C1067 1.367 . S
C1067 C1066 1.367 . S
C1067 C1069 1.433 . S
C1068 C1064 1.350 . S
C1068 C1065 1.463 . S
C1068 N1072 1.427 . S
C1069 H1059 0.929 . S
C1069 C1067 1.433 . S
C1069 N1072 1.384 . S
C1070 H1061 0.929 . S
C1070 C1062 1.378 . S
C1070 C1065 1.350 . S
C1071 H1058 0.929 . S
C1071 C1063 1.433 . S
C1071 N1073 1.384 . S
N1072 C1068 1.427 . S
N1072 C1069 1.384 . S
N1073 C1065 1.427 . S
N1073 C1071 1.384 . S
H1074 C1080 0.930 . S
H1075 C1084 0.930 . S
H1076 C1089 0.929 . S
H1077 C1087 0.929 . S
H1078 C1082 0.905 1_455 S
H1079 C1088 0.905 1_655 S
C1080 H1074 0.930 . S
C1080 C1081 1.367 . S
C1080 C1088 1.379 . S
C1081 C1080 1.367 . S
C1081 C1089 1.433 . S
C1082 H1078 0.905 1_655 S
C1082 C1084 1.379 . S
C1082 C1086 1.345 . S
C1083 C1086 1.463 1_455 S
C1083 C1088 1.345 . S
C1083 N1091 1.446 . S
C1084 H1075 0.930 . S
C1084 C1082 1.379 . S
C1084 C1085 1.367 . S
C1085 C1084 1.367 . S
C1085 C1087 1.433 . S
C1086 C1082 1.345 . S
C1086 C1083 1.463 1_655 S
C1086 N1090 1.445 . S
C1087 H1077 0.929 . S
C1087 C1085 1.433 . S
C1087 N1090 1.384 . S
C1088 H1079 0.905 1_455 S
C1088 C1080 1.379 . S
C1088 C1083 1.345 . S
C1089 H1076 0.929 . S
C1089 C1081 1.433 . S
C1089 N1091 1.384 . S
N1090 C1086 1.445 . S
N1090 C1087 1.384 . S
N1091 C1083 1.446 . S
N1091 C1089 1.384 . S
H1092 C1098 0.930 . S
H1093 C1102 0.930 . S
H1094 C1107 0.929 . S
H1095 C1105 0.929 . S
H1096 C1100 0.929 . S
H1097 C1106 0.929 . S
C1098 H1092 0.930 . S
C1098 C1099 1.367 . S
C1098 C1106 1.378 . S
C1099 C1098 1.367 . S
C1099 C1107 1.433 1_545 S
C1100 H1096 0.929 . S
C1100 C1102 1.378 . S
C1100 C1104 1.350 . S
C1101 C1104 1.463 1_546 S
C1101 C1106 1.350 . S
C1101 N1109 1.427 1_545 S
C1102 H1093 0.930 . S
C1102 C1100 1.378 . S
C1102 C1103 1.367 . S
C1103 C1102 1.367 . S
C1103 C1105 1.433 1_565 S
C1104 C1100 1.350 . S
C1104 C1101 1.463 1_564 S
C1104 N1108 1.427 1_565 S
C1105 H1095 0.929 . S
C1105 C1103 1.433 1_545 S
C1105 N1108 1.384 . S
C1106 H1097 0.929 . S
C1106 C1098 1.378 . S
C1106 C1101 1.350 . S
C1107 H1094 0.929 . S
C1107 C1099 1.433 1_565 S
C1107 N1109 1.384 . S
N1108 C1104 1.427 1_545 S
N1108 C1105 1.384 . S
N1109 C1101 1.427 1_565 S
N1109 C1107 1.384 . S
H1110 C1116 0.930 . S
H1111 C1120 0.930 . S
H1112 C1125 0.929 . S
H1113 C1123 0.929 . S
H1114 C1118 0.929 . S
H1115 C1124 0.929 . S
C1116 H1110 0.930 . S
C1116 C1117 1.367 . S
C1116 C1124 1.378 . S
C1117 C1116 1.367 . S
C1117 C1125 1.433 . S
C1118 H1114 0.929 . S
C1118 C1120 1.378 . S
C1118 C1122 1.350 . S
C1119 C1122 1.463 . S
C1119 C1124 1.350 . S
C1119 N1127 1.427 . S
C1120 H1111 0.930 . S
C1120 C1118 1.378 . S
C1120 C1121 1.367 . S
C1121 C1120 1.367 . S
C1121 C1123 1.433 . S
C1122 C1118 1.350 . S
C1122 C1119 1.463 . S
C1122 N1126 1.427 . S
C1123 H1113 0.929 . S
C1123 C1121 1.433 . S
C1123 N1126 1.384 . S
C1124 H1115 0.929 . S
C1124 C1116 1.378 . S
C1124 C1119 1.350 . S
C1125 H1112 0.929 . S
C1125 C1117 1.433 . S
C1125 N1127 1.384 . S
N1126 C1122 1.427 . S
N1126 C1123 1.384 . S
N1127 C1119 1.427 . S
N1127 C1125 1.384 . S
H1128 C1134 0.930 . S
H1129 C1138 0.930 . S
H1130 C1143 0.929 . S
H1131 C1141 0.929 . S
H1132 C1136 0.929 . S
H1133 C1142 0.929 . S
C1134 H1128 0.930 . S
C1134 C1135 1.367 . S
C1134 C1142 1.378 . S
C1135 C1134 1.367 . S
C1135 C1143 1.433 1_455 S
C1136 H1132 0.929 . S
C1136 C1138 1.378 . S
C1136 C1140 1.350 . S
C1137 C1140 1.463 1_455 S
C1137 C1142 1.350 . S
C1137 N1145 1.427 1_455 S
C1138 H1129 0.930 . S
C1138 C1136 1.378 . S
C1138 C1139 1.367 . S
C1139 C1138 1.367 . S
C1139 C1141 1.433 1_655 S
C1140 C1136 1.350 . S
C1140 C1137 1.463 1_655 S
C1140 N1144 1.427 1_655 S
C1141 H1131 0.929 . S
C1141 C1139 1.433 1_455 S
C1141 N1144 1.384 . S
C1142 H1133 0.929 . S
C1142 C1134 1.378 . S
C1142 C1137 1.350 . S
C1143 H1130 0.929 . S
C1143 C1135 1.433 1_655 S
C1143 N1145 1.384 . S
N1144 C1140 1.427 1_455 S
N1144 C1141 1.384 . S
N1145 C1137 1.427 1_655 S
N1145 C1143 1.384 . S
H1146 C1152 0.930 . S
H1147 C1156 0.930 . S
H1148 C1161 0.929 . S
H1149 C1159 0.929 . S
H1150 C1154 0.929 . S
H1151 C1160 0.929 . S
C1152 H1146 0.930 . S
C1152 C1153 1.367 1_565 S
C1152 C1160 1.378 . S
C1153 C1152 1.367 1_545 S
C1153 C1161 1.433 . S
C1154 H1150 0.929 . S
C1154 C1156 1.378 . S
C1154 C1158 1.349 1_545 S
C1155 C1158 1.462 1_544 S
C1155 C1160 1.349 1_545 S
C1155 N1163 1.429 . S
C1156 H1147 0.930 . S
C1156 C1154 1.378 . S
C1156 C1157 1.367 1_545 S
C1157 C1156 1.367 1_565 S
C1157 C1159 1.433 . S
C1158 C1154 1.349 1_565 S
C1158 C1155 1.462 1_566 S
C1158 N1162 1.429 . S
C1159 H1149 0.929 . S
C1159 C1157 1.433 . S
C1159 N1162 1.384 . S
C1160 H1151 0.929 . S
C1160 C1152 1.378 . S
C1160 C1155 1.349 1_565 S
C1161 H1148 0.929 . S
C1161 C1153 1.433 . S
C1161 N1163 1.384 . S
N1162 C1158 1.429 . S
N1162 C1159 1.384 . S
N1163 C1155 1.429 . S
N1163 C1161 1.384 . S
H1164 C1170 0.930 . S
H1165 C1174 0.930 . S
H1166 C1179 0.929 . S
H1167 C1177 0.929 . S
H1168 C1172 0.929 . S
H1169 C1178 0.929 . S
C1170 H1164 0.930 . S
C1170 C1171 1.367 . S
C1170 C1178 1.378 1_556 S
C1171 C1170 1.367 . S
C1171 C1179 1.433 . S
C1172 H1168 0.929 . S
C1172 C1174 1.378 1_556 S
C1172 C1176 1.350 1_556 S
C1173 C1176 1.463 1_556 S
C1173 C1178 1.350 1_556 S
C1173 N1181 1.427 . S
C1174 H1165 0.930 . S
C1174 C1172 1.378 1_554 S
C1174 C1175 1.367 . S
C1175 C1174 1.367 . S
C1175 C1177 1.433 . S
C1176 C1172 1.350 1_554 S
C1176 C1173 1.463 1_554 S
C1176 N1180 1.427 . S
C1177 H1167 0.929 . S
C1177 C1175 1.433 . S
C1177 N1180 1.384 . S
C1178 H1169 0.929 . S
C1178 C1170 1.378 1_554 S
C1178 C1173 1.350 1_554 S
C1179 H1166 0.929 . S
C1179 C1171 1.433 . S
C1179 N1181 1.384 . S
N1180 C1176 1.427 . S
N1180 C1177 1.384 . S
N1181 C1173 1.427 . S
N1181 C1179 1.384 . S
H1182 C1188 0.930 . S
H1183 C1192 0.930 . S
H1184 C1197 0.929 . S
H1185 C1195 0.929 . S
H1186 C1190 0.929 . S
H1187 C1196 0.929 . S
C1188 H1182 0.930 . S
C1188 C1189 1.367 . S
C1188 C1196 1.378 . S
C1189 C1188 1.367 . S
C1189 C1197 1.433 . S
C1190 H1186 0.929 . S
C1190 C1192 1.378 . S
C1190 C1194 1.350 . S
C1191 C1194 1.463 . S
C1191 C1196 1.350 . S
C1191 N1199 1.427 . S
C1192 H1183 0.930 . S
C1192 C1190 1.378 . S
C1192 C1193 1.367 . S
C1193 C1192 1.367 . S
C1193 C1195 1.433 . S
C1194 C1190 1.350 . S
C1194 C1191 1.463 . S
C1194 N1198 1.427 . S
C1195 H1185 0.929 . S
C1195 C1193 1.433 . S
C1195 N1198 1.384 . S
C1196 H1187 0.929 . S
C1196 C1188 1.378 . S
C1196 C1191 1.350 . S
C1197 H1184 0.929 . S
C1197 C1189 1.433 . S
C1197 N1199 1.384 . S
N1198 C1194 1.427 . S
N1198 C1195 1.384 . S
N1199 C1191 1.427 . S
N1199 C1197 1.384 . S
H1200 C1206 0.930 . S
H1201 C1210 0.930 . S
H1202 C1215 0.929 . S
H1203 C1213 0.929 . S
H1204 C1208 0.929 . S
H1205 C1214 0.929 . S
C1206 H1200 0.930 . S
C1206 C1207 1.367 . S
C1206 C1214 1.378 . S
C1207 C1206 1.367 . S
C1207 C1215 1.433 . S
C1208 H1204 0.929 . S
C1208 C1210 1.378 . S
C1208 C1212 1.350 . S
C1209 C1212 1.463 . S
C1209 C1214 1.350 . S
C1209 N1217 1.427 . S
C1210 H1201 0.930 . S
C1210 C1208 1.378 . S
C1210 C1211 1.367 . S
C1211 C1210 1.367 . S
C1211 C1213 1.433 . S
C1212 C1208 1.350 . S
C1212 C1209 1.463 . S
C1212 N1216 1.427 . S
C1213 H1203 0.929 . S
C1213 C1211 1.433 . S
C1213 N1216 1.384 . S
C1214 H1205 0.929 . S
C1214 C1206 1.378 . S
C1214 C1209 1.350 . S
C1215 H1202 0.929 . S
C1215 C1207 1.433 . S
C1215 N1217 1.384 . S
N1216 C1212 1.427 . S
N1216 C1213 1.384 . S
N1217 C1209 1.427 . S
N1217 C1215 1.384 . S
H1218 C1224 0.930 . S
H1219 C1228 0.930 . S
H1220 C1233 0.929 1_556 S
H1221 C1231 0.929 1_554 S
H1222 C1226 0.929 . S
H1223 C1232 0.929 . S
C1224 H1218 0.930 . S
C1224 C1225 1.367 . S
C1224 C1232 1.378 . S
C1225 C1224 1.367 . S
C1225 C1233 1.433 . S
C1226 H1222 0.929 . S
C1226 C1228 1.378 . S
C1226 C1230 1.350 . S
C1227 C1230 1.463 1_554 S
C1227 C1232 1.350 . S
C1227 N1235 1.427 1_554 S
C1228 H1219 0.930 . S
C1228 C1226 1.378 . S
C1228 C1229 1.367 . S
C1229 C1228 1.367 . S
C1229 C1231 1.433 . S
C1230 C1226 1.350 . S
C1230 C1227 1.463 1_556 S
C1230 N1234 1.427 1_556 S
C1231 H1221 0.929 1_556 S
C1231 C1229 1.433 . S
C1231 N1234 1.384 1_556 S
C1232 H1223 0.929 . S
C1232 C1224 1.378 . S
C1232 C1227 1.350 . S
C1233 H1220 0.929 1_554 S
C1233 C1225 1.433 . S
C1233 N1235 1.384 1_554 S
N1234 C1230 1.427 1_554 S
N1234 C1231 1.384 1_554 S
N1235 C1227 1.427 1_556 S
N1235 C1233 1.384 1_556 S
H1236 C1242 0.930 . S
H1237 C1246 0.930 . S
H1238 C1251 0.929 . S
H1239 C1249 0.929 . S
H1240 C1244 0.929 . S
H1241 C1250 0.929 . S
C1242 H1236 0.930 . S
C1242 C1243 1.367 . S
C1242 C1250 1.378 . S
C1243 C1242 1.367 . S
C1243 C1251 1.433 . S
C1244 H1240 0.929 . S
C1244 C1246 1.378 . S
C1244 C1248 1.350 . S
C1245 C1248 1.463 . S
C1245 C1250 1.350 . S
C1245 N1253 1.427 . S
C1246 H1237 0.930 . S
C1246 C1244 1.378 . S
C1246 C1247 1.367 . S
C1247 C1246 1.367 . S
C1247 C1249 1.433 . S
C1248 C1244 1.350 . S
C1248 C1245 1.463 . S
C1248 N1252 1.427 . S
C1249 H1239 0.929 . S
C1249 C1247 1.433 . S
C1249 N1252 1.384 . S
C1250 H1241 0.929 . S
C1250 C1242 1.378 . S
C1250 C1245 1.350 . S
C1251 H1238 0.929 . S
C1251 C1243 1.433 . S
C1251 N1253 1.384 . S
N1252 C1248 1.427 . S
N1252 C1249 1.384 . S
N1253 C1245 1.427 . S
N1253 C1251 1.384 . S
H1254 C1260 0.930 . S
H1255 C1264 0.930 . S
H1256 C1269 0.929 . S
H1257 C1267 0.929 . S
H1258 C1262 0.929 . S
H1259 C1268 0.929 . S
C1260 H1254 0.930 . S
C1260 C1261 1.367 . S
C1260 C1268 1.378 . S
C1261 C1260 1.367 . S
C1261 C1269 1.433 . S
C1262 H1258 0.929 . S
C1262 C1264 1.378 . S
C1262 C1266 1.350 . S
C1263 C1266 1.463 . S
C1263 C1268 1.350 . S
C1263 N1271 1.427 . S
C1264 H1255 0.930 . S
C1264 C1262 1.378 . S
C1264 C1265 1.367 . S
C1265 C1264 1.367 . S
C1265 C1267 1.433 . S
C1266 C1262 1.350 . S
C1266 C1263 1.463 . S
C1266 N1270 1.427 . S
C1267 H1257 0.929 . S
C1267 C1265 1.433 . S
C1267 N1270 1.384 . S
C1268 H1259 0.929 . S
C1268 C1260 1.378 . S
C1268 C1263 1.350 . S
C1269 H1256 0.929 . S
C1269 C1261 1.433 . S
C1269 N1271 1.384 . S
N1270 C1266 1.427 . S
N1270 C1267 1.384 . S
N1271 C1263 1.427 . S
N1271 C1269 1.384 . S
H1272 C1278 0.930 . S
H1273 C1282 0.930 . S
H1274 C1287 0.929 . S
H1275 C1285 0.929 . S
H1276 C1280 0.929 . S
H1277 C1286 0.929 . S
C1278 H1272 0.930 . S
C1278 C1279 1.367 . S
C1278 C1286 1.378 . S
C1279 C1278 1.367 . S
C1279 C1287 1.433 . S
C1280 H1276 0.929 . S
C1280 C1282 1.378 . S
C1280 C1284 1.350 . S
C1281 C1284 1.463 . S
C1281 C1286 1.350 . S
C1281 N1289 1.427 . S
C1282 H1273 0.930 . S
C1282 C1280 1.378 . S
C1282 C1283 1.367 . S
C1283 C1282 1.367 . S
C1283 C1285 1.433 . S
C1284 C1280 1.350 . S
C1284 C1281 1.463 . S
C1284 N1288 1.427 . S
C1285 H1275 0.929 . S
C1285 C1283 1.433 . S
C1285 N1288 1.384 . S
C1286 H1277 0.929 . S
C1286 C1278 1.378 . S
C1286 C1281 1.350 . S
C1287 H1274 0.929 . S
C1287 C1279 1.433 . S
C1287 N1289 1.384 . S
N1288 C1284 1.427 . S
N1288 C1285 1.384 . S
N1289 C1281 1.427 . S
N1289 C1287 1.384 . S
H1290 C1296 0.930 . S
H1291 C1300 0.930 . S
H1292 C1305 0.929 . S
H1293 C1303 0.929 . S
H1294 C1298 0.929 . S
H1295 C1304 0.929 . S
C1296 H1290 0.930 . S
C1296 C1297 1.367 . S
C1296 C1304 1.378 . S
C1297 C1296 1.367 . S
C1297 C1305 1.433 . S
C1298 H1294 0.929 . S
C1298 C1300 1.378 . S
C1298 C1302 1.350 . S
C1299 C1302 1.463 1_455 S
C1299 C1304 1.350 . S
C1299 N1307 1.427 . S
C1300 H1291 0.930 . S
C1300 C1298 1.378 . S
C1300 C1301 1.367 . S
C1301 C1300 1.367 . S
C1301 C1303 1.433 . S
C1302 C1298 1.350 . S
C1302 C1299 1.463 1_655 S
C1302 N1306 1.427 . S
C1303 H1293 0.929 . S
C1303 C1301 1.433 . S
C1303 N1306 1.384 . S
C1304 H1295 0.929 . S
C1304 C1296 1.378 . S
C1304 C1299 1.350 . S
C1305 H1292 0.929 . S
C1305 C1297 1.433 . S
C1305 N1307 1.384 . S
N1306 C1302 1.427 . S
N1306 C1303 1.384 . S
N1307 C1299 1.427 . S
N1307 C1305 1.384 . S
H1308 C1314 0.930 . S
H1309 C1318 0.930 . S
H1310 C1323 0.929 1_565 S
H1311 C1321 0.929 1_545 S
H1312 C1316 0.929 . S
H1313 C1322 0.929 . S
C1314 H1308 0.930 . S
C1314 C1315 1.367 . S
C1314 C1322 1.378 . S
C1315 C1314 1.367 . S
C1315 C1323 1.433 . S
C1316 H1312 0.929 . S
C1316 C1318 1.378 . S
C1316 C1320 1.350 . S
C1317 C1320 1.463 1_545 S
C1317 C1322 1.350 . S
C1317 N1325 1.427 1_545 S
C1318 H1309 0.930 . S
C1318 C1316 1.378 . S
C1318 C1319 1.367 . S
C1319 C1318 1.367 . S
C1319 C1321 1.433 . S
C1320 C1316 1.350 . S
C1320 C1317 1.463 1_565 S
C1320 N1324 1.427 1_565 S
C1321 H1311 0.929 1_565 S
C1321 C1319 1.433 . S
C1321 N1324 1.384 1_565 S
C1322 H1313 0.929 . S
C1322 C1314 1.378 . S
C1322 C1317 1.350 . S
C1323 H1310 0.929 1_545 S
C1323 C1315 1.433 . S
C1323 N1325 1.384 1_545 S
N1324 C1320 1.427 1_545 S
N1324 C1321 1.384 1_545 S
N1325 C1317 1.427 1_565 S
N1325 C1323 1.384 1_565 S
H1326 C1332 0.930 . S
H1327 C1336 0.930 . S
H1328 C1341 0.929 . S
H1329 C1339 0.929 . S
H1330 C1334 0.929 . S
H1331 C1340 0.929 . S
C1332 H1326 0.930 . S
C1332 C1333 1.367 . S
C1332 C1340 1.378 . S
C1333 C1332 1.367 . S
C1333 C1341 1.433 . S
C1334 H1330 0.929 . S
C1334 C1336 1.378 . S
C1334 C1338 1.350 . S
C1335 C1338 1.463 . S
C1335 C1340 1.350 . S
C1335 N1343 1.427 . S
C1336 H1327 0.930 . S
C1336 C1334 1.378 . S
C1336 C1337 1.367 . S
C1337 C1336 1.367 . S
C1337 C1339 1.433 . S
C1338 C1334 1.350 . S
C1338 C1335 1.463 . S
C1338 N1342 1.427 . S
C1339 H1329 0.929 . S
C1339 C1337 1.433 . S
C1339 N1342 1.384 . S
C1340 H1331 0.929 . S
C1340 C1332 1.378 . S
C1340 C1335 1.350 . S
C1341 H1328 0.929 . S
C1341 C1333 1.433 . S
C1341 N1343 1.384 . S
N1342 C1338 1.427 . S
N1342 C1339 1.384 . S
N1343 C1335 1.427 . S
N1343 C1341 1.384 . S
H1344 C1350 0.930 . S
H1345 C1354 0.930 . S
H1346 C1359 0.929 . S
H1347 C1357 0.929 . S
H1348 C1352 0.929 1_655 S
H1349 C1358 0.929 1_455 S
C1350 H1344 0.930 . S
C1350 C1351 1.367 . S
C1350 C1358 1.378 . S
C1351 C1350 1.367 . S
C1351 C1359 1.433 . S
C1352 H1348 0.929 1_455 S
C1352 C1354 1.378 . S
C1352 C1356 1.350 . S
C1353 C1356 1.463 1_655 S
C1353 C1358 1.350 . S
C1353 N1361 1.427 . S
C1354 H1345 0.930 . S
C1354 C1352 1.378 . S
C1354 C1355 1.367 . S
C1355 C1354 1.367 . S
C1355 C1357 1.433 . S
C1356 C1352 1.350 . S
C1356 C1353 1.463 1_455 S
C1356 N1360 1.427 . S
C1357 H1347 0.929 . S
C1357 C1355 1.433 . S
C1357 N1360 1.384 . S
C1358 H1349 0.929 1_655 S
C1358 C1350 1.378 . S
C1358 C1353 1.350 . S
C1359 H1346 0.929 . S
C1359 C1351 1.433 . S
C1359 N1361 1.384 . S
N1360 C1356 1.427 . S
N1360 C1357 1.384 . S
N1361 C1353 1.427 . S
N1361 C1359 1.384 . S
H1362 C1368 0.921 1_565 S
H1363 C1372 0.921 1_545 S
H1364 C1377 0.929 . S
H1365 C1375 0.929 . S
H1366 C1370 0.929 . S
H1367 C1376 0.929 . S
C1368 H1362 0.921 1_545 S
C1368 C1369 1.367 . S
C1368 C1376 1.378 1_545 S
C1369 C1368 1.367 . S
C1369 C1377 1.433 . S
C1370 H1366 0.929 . S
C1370 C1372 1.378 1_545 S
C1370 C1374 1.350 1_545 S
C1371 C1374 1.463 1_545 S
C1371 C1376 1.350 1_545 S
C1371 N1379 1.427 . S
C1372 H1363 0.921 1_565 S
C1372 C1370 1.378 1_565 S
C1372 C1373 1.367 . S
C1373 C1372 1.367 . S
C1373 C1375 1.433 . S
C1374 C1370 1.350 1_565 S
C1374 C1371 1.463 1_565 S
C1374 N1378 1.427 . S
C1375 H1365 0.929 . S
C1375 C1373 1.433 . S
C1375 N1378 1.384 . S
C1376 H1367 0.929 . S
C1376 C1368 1.378 1_565 S
C1376 C1371 1.350 1_565 S
C1377 H1364 0.929 . S
C1377 C1369 1.433 . S
C1377 N1379 1.384 . S
N1378 C1374 1.427 . S
N1378 C1375 1.384 . S
N1379 C1371 1.427 . S
N1379 C1377 1.384 . S
H1380 C1386 0.930 . S
H1381 C1390 0.930 . S
H1382 C1395 0.929 . S
H1383 C1393 0.929 . S
H1384 C1388 0.929 . S
H1385 C1394 0.929 . S
C1386 H1380 0.930 . S
C1386 C1387 1.367 . S
C1386 C1394 1.378 . S
C1387 C1386 1.367 . S
C1387 C1395 1.433 . S
C1388 H1384 0.929 . S
C1388 C1390 1.378 . S
C1388 C1392 1.350 . S
C1389 C1392 1.463 . S
C1389 C1394 1.350 . S
C1389 N1397 1.427 . S
C1390 H1381 0.930 . S
C1390 C1388 1.378 . S
C1390 C1391 1.367 . S
C1391 C1390 1.367 . S
C1391 C1393 1.433 . S
C1392 C1388 1.350 . S
C1392 C1389 1.463 . S
C1392 N1396 1.427 . S
C1393 H1383 0.929 . S
C1393 C1391 1.433 . S
C1393 N1396 1.384 . S
C1394 H1385 0.929 . S
C1394 C1386 1.378 . S
C1394 C1389 1.350 . S
C1395 H1382 0.929 . S
C1395 C1387 1.433 . S
C1395 N1397 1.384 . S
N1396 C1392 1.427 . S
N1396 C1393 1.384 . S
N1397 C1389 1.427 . S
N1397 C1395 1.384 . S
H1398 C1404 0.930 . S
H1399 C1408 0.930 . S
H1400 C1413 0.929 . S
H1401 C1411 0.929 . S
H1402 C1406 0.929 . S
H1403 C1412 0.929 . S
C1404 H1398 0.930 . S
C1404 C1405 1.367 . S
C1404 C1412 1.378 . S
C1405 C1404 1.367 . S
C1405 C1413 1.433 . S
C1406 H1402 0.929 . S
C1406 C1408 1.378 . S
C1406 C1410 1.350 . S
C1407 C1410 1.463 1_455 S
C1407 C1412 1.350 . S
C1407 N1415 1.448 . S
C1408 H1399 0.930 . S
C1408 C1406 1.378 . S
C1408 C1409 1.367 . S
C1409 C1408 1.367 . S
C1409 C1411 1.433 . S
C1410 C1406 1.350 . S
C1410 C1407 1.463 1_655 S
C1410 N1414 1.448 . S
C1411 H1401 0.929 . S
C1411 C1409 1.433 . S
C1411 N1414 1.388 . S
C1412 H1403 0.929 . S
C1412 C1404 1.378 . S
C1412 C1407 1.350 . S
C1413 H1400 0.929 . S
C1413 C1405 1.433 . S
C1413 N1415 1.388 . S
N1414 C1410 1.448 . S
N1414 C1411 1.388 . S
N1415 C1407 1.448 . S
N1415 C1413 1.388 . S
H1416 C1422 0.930 . S
H1417 C1426 0.930 . S
H1418 C1431 0.929 . S
H1419 C1429 0.929 . S
H1420 C1424 0.929 1_565 S
H1421 C1430 0.929 1_545 S
C1422 H1416 0.930 . S
C1422 C1423 1.367 . S
C1422 C1430 1.378 . S
C1423 C1422 1.367 . S
C1423 C1431 1.433 . S
C1424 H1420 0.929 1_545 S
C1424 C1426 1.378 . S
C1424 C1428 1.350 . S
C1425 C1428 1.463 1_565 S
C1425 C1430 1.350 . S
C1425 N1433 1.427 . S
C1426 H1417 0.930 . S
C1426 C1424 1.378 . S
C1426 C1427 1.367 . S
C1427 C1426 1.367 . S
C1427 C1429 1.433 . S
C1428 C1424 1.350 . S
C1428 C1425 1.463 1_545 S
C1428 N1432 1.427 . S
C1429 H1419 0.929 . S
C1429 C1427 1.433 . S
C1429 N1432 1.384 . S
C1430 H1421 0.929 1_565 S
C1430 C1422 1.378 . S
C1430 C1425 1.350 . S
C1431 H1418 0.929 . S
C1431 C1423 1.433 . S
C1431 N1433 1.384 . S
N1432 C1428 1.427 . S
N1432 C1429 1.384 . S
N1433 C1425 1.427 . S
N1433 C1431 1.384 . S
H1434 C1440 0.930 . S
H1435 C1444 0.930 . S
H1436 C1449 0.929 . S
H1437 C1447 0.929 . S
H1438 C1442 0.929 . S
H1439 C1448 0.929 . S
C1440 H1434 0.930 . S
C1440 C1441 1.367 . S
C1440 C1448 1.378 . S
C1441 C1440 1.367 . S
C1441 C1449 1.433 . S
C1442 H1438 0.929 . S
C1442 C1444 1.378 . S
C1442 C1446 1.350 . S
C1443 C1446 1.463 . S
C1443 C1448 1.350 . S
C1443 N1451 1.427 . S
C1444 H1435 0.930 . S
C1444 C1442 1.378 . S
C1444 C1445 1.367 . S
C1445 C1444 1.367 . S
C1445 C1447 1.433 . S
C1446 C1442 1.350 . S
C1446 C1443 1.463 . S
C1446 N1450 1.427 . S
C1447 H1437 0.929 . S
C1447 C1445 1.433 . S
C1447 N1450 1.384 . S
C1448 H1439 0.929 . S
C1448 C1440 1.378 . S
C1448 C1443 1.350 . S
C1449 H1436 0.929 . S
C1449 C1441 1.433 . S
C1449 N1451 1.384 . S
N1450 C1446 1.427 . S
N1450 C1447 1.384 . S
N1451 C1443 1.427 . S
N1451 C1449 1.384 . S
H1452 C1458 0.930 . S
H1453 C1462 0.930 . S
H1454 C1467 0.929 . S
H1455 C1465 0.929 . S
H1456 C1460 0.929 . S
H1457 C1466 0.929 . S
C1458 H1452 0.930 . S
C1458 C1459 1.367 . S
C1458 C1466 1.378 . S
C1459 C1458 1.367 . S
C1459 C1467 1.433 . S
C1460 H1456 0.929 . S
C1460 C1462 1.378 . S
C1460 C1464 1.350 . S
C1461 C1464 1.463 1_655 S
C1461 C1466 1.350 . S
C1461 N1469 1.427 . S
C1462 H1453 0.930 . S
C1462 C1460 1.378 . S
C1462 C1463 1.367 . S
C1463 C1462 1.367 . S
C1463 C1465 1.433 . S
C1464 C1460 1.350 . S
C1464 C1461 1.463 1_455 S
C1464 N1468 1.427 . S
C1465 H1455 0.929 . S
C1465 C1463 1.433 . S
C1465 N1468 1.384 . S
C1466 H1457 0.929 . S
C1466 C1458 1.378 . S
C1466 C1461 1.350 . S
C1467 H1454 0.929 . S
C1467 C1459 1.433 . S
C1467 N1469 1.384 . S
N1468 C1464 1.427 . S
N1468 C1465 1.384 . S
N1469 C1461 1.427 . S
N1469 C1467 1.384 . S
H1470 C1476 0.930 . S
H1471 C1480 0.930 . S
H1472 C1485 0.929 . S
H1473 C1483 0.929 . S
H1474 C1478 0.929 . S
H1475 C1484 0.929 . S
C1476 H1470 0.930 . S
C1476 C1477 1.367 . S
C1476 C1484 1.378 . S
C1477 C1476 1.367 . S
C1477 C1485 1.433 . S
C1478 H1474 0.929 . S
C1478 C1480 1.378 . S
C1478 C1482 1.350 . S
C1479 C1482 1.463 1_545 S
C1479 C1484 1.350 . S
C1479 N1487 1.427 . S
C1480 H1471 0.930 . S
C1480 C1478 1.378 . S
C1480 C1481 1.367 . S
C1481 C1480 1.367 . S
C1481 C1483 1.433 . S
C1482 C1478 1.350 . S
C1482 C1479 1.463 1_565 S
C1482 N1486 1.427 . S
C1483 H1473 0.929 . S
C1483 C1481 1.433 . S
C1483 N1486 1.384 . S
C1484 H1475 0.929 . S
C1484 C1476 1.378 . S
C1484 C1479 1.350 . S
C1485 H1472 0.929 . S
C1485 C1477 1.433 . S
C1485 N1487 1.384 . S
N1486 C1482 1.427 . S
N1486 C1483 1.384 . S
N1487 C1479 1.427 . S
N1487 C1485 1.384 . S
C1063 C29 1.584 . S
C1067 C841 1.587 . S
C1081 C108 1.577 1_455 S
C1085 C937 1.593 1_655 S
C1099 C196 1.592 1_545 S
C1103 C1025 1.586 1_565 S
C1117 C284 1.584 . S
C1121 C577 1.589 . S
C1135 C673 1.594 1_455 S
C1139 C381 1.585 1_655 S
C1153 C753 1.581 1_545 S
C1157 C469 1.582 1_565 S
C1171 C929 1.294 . S
C1175 C20 1.291 . S
C1189 C117 1.296 . S
C1193 C1017 1.300 . S
C1207 C205 1.301 . S
C1211 C585 1.302 . S
C1225 C293 1.301 . S
C1229 C665 1.303 . S
C1243 C372 1.303 . S
C1247 C761 1.302 . S
C1261 C460 1.291 . S
C1265 C849 1.294 . S
C1279 C812 0.814 . S
C1283 C57 0.799 . S
C1297 C137 0.806 . S
C1301 C909 0.790 . S
C1315 C225 0.820 . S
C1319 C997 0.810 . S
C1333 C548 0.788 . S
C1337 C313 0.778 . S
C1351 C409 0.802 . S
C1355 C645 0.786 . S
C1369 C724 0.780 . S
C1373 C497 0.793 . S
C1387 C49 1.663 . S
C1391 C321 1.663 . S
C1405 C401 1.663 . S
C1409 C145 1.663 . S
C1423 C233 1.653 . S
C1427 C489 1.652 . S
C1441 C557 1.649 . S
C1445 C821 1.648 . S
C1459 C636 1.656 . S
C1463 C900 1.656 . S
C1477 C988 1.656 . S
C1481 C733 1.656 . S
