# Generated by pormake.
# Topology uox, (4)-cn, num edge types: 1
# Building blocks:
#     Node 0, Type 0, BuildingBlock: GALJAG_clean_sbu_0, # of connection points: 4
#     Node 1, Type 0, BuildingBlock: GALJAG_clean_sbu_0, # of connection points: 4
#     Node 2, Type 0, BuildingBlock: GALJAG_clean_sbu_0, # of connection points: 4
#     Node 3, Type 0, BuildingBlock: GALJAG_clean_sbu_0, # of connection points: 4
#     Node 4, Type 0, BuildingBlock: GALJAG_clean_sbu_0, # of connection points: 4
#     Node 5, Type 0, BuildingBlock: GALJAG_clean_sbu_0, # of connection points: 4
#     Node 6, Type 0, BuildingBlock: GALJAG_clean_sbu_0, # of connection points: 4
#     Node 7, Type 0, BuildingBlock: GALJAG_clean_sbu_0, # of connection points: 4
#     Node 8, Type 0, BuildingBlock: GALJAG_clean_sbu_0, # of connection points: 4
#     Node 9, Type 0, BuildingBlock: GALJAG_clean_sbu_0, # of connection points: 4
#     Node 10, Type 0, BuildingBlock: GALJAG_clean_sbu_0, # of connection points: 4
#     Node 11, Type 0, BuildingBlock: GALJAG_clean_sbu_0, # of connection points: 4
#     Node 12, Type 0, BuildingBlock: GALJAG_clean_sbu_0, # of connection points: 4
#     Node 13, Type 0, BuildingBlock: GALJAG_clean_sbu_0, # of connection points: 4
#     Node 14, Type 0, BuildingBlock: GALJAG_clean_sbu_0, # of connection points: 4
#     Node 15, Type 0, BuildingBlock: GALJAG_clean_sbu_0, # of connection points: 4
#     Node 16, Type 0, BuildingBlock: GALJAG_clean_sbu_0, # of connection points: 4
#     Node 17, Type 0, BuildingBlock: GALJAG_clean_sbu_0, # of connection points: 4
#     Node 18, Type 0, BuildingBlock: GALJAG_clean_sbu_0, # of connection points: 4
#     Node 19, Type 0, BuildingBlock: GALJAG_clean_sbu_0, # of connection points: 4
#     Node 20, Type 0, BuildingBlock: GALJAG_clean_sbu_0, # of connection points: 4
#     Node 21, Type 0, BuildingBlock: GALJAG_clean_sbu_0, # of connection points: 4
#     Node 22, Type 0, BuildingBlock: GALJAG_clean_sbu_0, # of connection points: 4
#     Node 23, Type 0, BuildingBlock: GALJAG_clean_sbu_0, # of connection points: 4
#     Node 24, Type 0, BuildingBlock: GALJAG_clean_sbu_0, # of connection points: 4
#     Node 25, Type 0, BuildingBlock: GALJAG_clean_sbu_0, # of connection points: 4
#     Node 26, Type 0, BuildingBlock: GALJAG_clean_sbu_0, # of connection points: 4
#     Node 27, Type 0, BuildingBlock: GALJAG_clean_sbu_0, # of connection points: 4
#     Node 28, Type 0, BuildingBlock: GALJAG_clean_sbu_0, # of connection points: 4
#     Node 29, Type 0, BuildingBlock: GALJAG_clean_sbu_0, # of connection points: 4
#     Node 30, Type 0, BuildingBlock: GALJAG_clean_sbu_0, # of connection points: 4
#     Node 31, Type 0, BuildingBlock: GALJAG_clean_sbu_0, # of connection points: 4
#     Edge 32, Type (0, 0), BuildingBlock: KIFKEQ_clean_linker_1, # of connection points: 2
#     Edge 33, Type (0, 0), BuildingBlock: KIFKEQ_clean_linker_1, # of connection points: 2
#     Edge 34, Type (0, 0), BuildingBlock: KIFKEQ_clean_linker_1, # of connection points: 2
#     Edge 35, Type (0, 0), BuildingBlock: KIFKEQ_clean_linker_1, # of connection points: 2
#     Edge 36, Type (0, 0), BuildingBlock: KIFKEQ_clean_linker_1, # of connection points: 2
#     Edge 37, Type (0, 0), BuildingBlock: KIFKEQ_clean_linker_1, # of connection points: 2
#     Edge 38, Type (0, 0), BuildingBlock: KIFKEQ_clean_linker_1, # of connection points: 2
#     Edge 39, Type (0, 0), BuildingBlock: KIFKEQ_clean_linker_1, # of connection points: 2
#     Edge 40, Type (0, 0), BuildingBlock: KIFKEQ_clean_linker_1, # of connection points: 2
#     Edge 41, Type (0, 0), BuildingBlock: KIFKEQ_clean_linker_1, # of connection points: 2
#     Edge 42, Type (0, 0), BuildingBlock: KIFKEQ_clean_linker_1, # of connection points: 2
#     Edge 43, Type (0, 0), BuildingBlock: KIFKEQ_clean_linker_1, # of connection points: 2
#     Edge 44, Type (0, 0), BuildingBlock: KIFKEQ_clean_linker_1, # of connection points: 2
#     Edge 45, Type (0, 0), BuildingBlock: KIFKEQ_clean_linker_1, # of connection points: 2
#     Edge 46, Type (0, 0), BuildingBlock: KIFKEQ_clean_linker_1, # of connection points: 2
#     Edge 47, Type (0, 0), BuildingBlock: KIFKEQ_clean_linker_1, # of connection points: 2
#     Edge 48, Type (0, 0), BuildingBlock: KIFKEQ_clean_linker_1, # of connection points: 2
#     Edge 49, Type (0, 0), BuildingBlock: KIFKEQ_clean_linker_1, # of connection points: 2
#     Edge 50, Type (0, 0), BuildingBlock: KIFKEQ_clean_linker_1, # of connection points: 2
#     Edge 51, Type (0, 0), BuildingBlock: KIFKEQ_clean_linker_1, # of connection points: 2
#     Edge 52, Type (0, 0), BuildingBlock: KIFKEQ_clean_linker_1, # of connection points: 2
#     Edge 53, Type (0, 0), BuildingBlock: KIFKEQ_clean_linker_1, # of connection points: 2
#     Edge 54, Type (0, 0), BuildingBlock: KIFKEQ_clean_linker_1, # of connection points: 2
#     Edge 55, Type (0, 0), BuildingBlock: KIFKEQ_clean_linker_1, # of connection points: 2
#     Edge 56, Type (0, 0), BuildingBlock: KIFKEQ_clean_linker_1, # of connection points: 2
#     Edge 57, Type (0, 0), BuildingBlock: KIFKEQ_clean_linker_1, # of connection points: 2
#     Edge 58, Type (0, 0), BuildingBlock: KIFKEQ_clean_linker_1, # of connection points: 2
#     Edge 59, Type (0, 0), BuildingBlock: KIFKEQ_clean_linker_1, # of connection points: 2
#     Edge 60, Type (0, 0), BuildingBlock: KIFKEQ_clean_linker_1, # of connection points: 2
#     Edge 61, Type (0, 0), BuildingBlock: KIFKEQ_clean_linker_1, # of connection points: 2
#     Edge 62, Type (0, 0), BuildingBlock: KIFKEQ_clean_linker_1, # of connection points: 2
#     Edge 63, Type (0, 0), BuildingBlock: KIFKEQ_clean_linker_1, # of connection points: 2
#     Edge 64, Type (0, 0), BuildingBlock: KIFKEQ_clean_linker_1, # of connection points: 2
#     Edge 65, Type (0, 0), BuildingBlock: KIFKEQ_clean_linker_1, # of connection points: 2
#     Edge 66, Type (0, 0), BuildingBlock: KIFKEQ_clean_linker_1, # of connection points: 2
#     Edge 67, Type (0, 0), BuildingBlock: KIFKEQ_clean_linker_1, # of connection points: 2
#     Edge 68, Type (0, 0), BuildingBlock: KIFKEQ_clean_linker_1, # of connection points: 2
#     Edge 69, Type (0, 0), BuildingBlock: KIFKEQ_clean_linker_1, # of connection points: 2
#     Edge 70, Type (0, 0), BuildingBlock: KIFKEQ_clean_linker_1, # of connection points: 2
#     Edge 71, Type (0, 0), BuildingBlock: KIFKEQ_clean_linker_1, # of connection points: 2
#     Edge 72, Type (0, 0), BuildingBlock: KIFKEQ_clean_linker_1, # of connection points: 2
#     Edge 73, Type (0, 0), BuildingBlock: KIFKEQ_clean_linker_1, # of connection points: 2
#     Edge 74, Type (0, 0), BuildingBlock: KIFKEQ_clean_linker_1, # of connection points: 2
#     Edge 75, Type (0, 0), BuildingBlock: KIFKEQ_clean_linker_1, # of connection points: 2
#     Edge 76, Type (0, 0), BuildingBlock: KIFKEQ_clean_linker_1, # of connection points: 2
#     Edge 77, Type (0, 0), BuildingBlock: KIFKEQ_clean_linker_1, # of connection points: 2
#     Edge 78, Type (0, 0), BuildingBlock: KIFKEQ_clean_linker_1, # of connection points: 2
#     Edge 79, Type (0, 0), BuildingBlock: KIFKEQ_clean_linker_1, # of connection points: 2
#     Edge 80, Type (0, 0), BuildingBlock: KIFKEQ_clean_linker_1, # of connection points: 2
#     Edge 81, Type (0, 0), BuildingBlock: KIFKEQ_clean_linker_1, # of connection points: 2
#     Edge 82, Type (0, 0), BuildingBlock: KIFKEQ_clean_linker_1, # of connection points: 2
#     Edge 83, Type (0, 0), BuildingBlock: KIFKEQ_clean_linker_1, # of connection points: 2
#     Edge 84, Type (0, 0), BuildingBlock: KIFKEQ_clean_linker_1, # of connection points: 2
#     Edge 85, Type (0, 0), BuildingBlock: KIFKEQ_clean_linker_1, # of connection points: 2
#     Edge 86, Type (0, 0), BuildingBlock: KIFKEQ_clean_linker_1, # of connection points: 2
#     Edge 87, Type (0, 0), BuildingBlock: KIFKEQ_clean_linker_1, # of connection points: 2
#     Edge 88, Type (0, 0), BuildingBlock: KIFKEQ_clean_linker_1, # of connection points: 2
#     Edge 89, Type (0, 0), BuildingBlock: KIFKEQ_clean_linker_1, # of connection points: 2
#     Edge 90, Type (0, 0), BuildingBlock: KIFKEQ_clean_linker_1, # of connection points: 2
#     Edge 91, Type (0, 0), BuildingBlock: KIFKEQ_clean_linker_1, # of connection points: 2
#     Edge 92, Type (0, 0), BuildingBlock: KIFKEQ_clean_linker_1, # of connection points: 2
#     Edge 93, Type (0, 0), BuildingBlock: KIFKEQ_clean_linker_1, # of connection points: 2
#     Edge 94, Type (0, 0), BuildingBlock: KIFKEQ_clean_linker_1, # of connection points: 2
#     Edge 95, Type (0, 0), BuildingBlock: KIFKEQ_clean_linker_1, # of connection points: 2
# Relax obj value: 0.005
# Max RMSD: 0.035
# Mean RMSD: 0.035
data_MOF--net-uox--node1-GALJAG_clean_sbu_0--edge1-KIFKEQ_clean_linker_1
_symmetry_space_group_name_H-M    P1
_symmetry_Int_Tables_number       1
_symmetry_cell_setting            triclinic
loop_
_symmetry_equiv_pos_as_xyz
'x, y, z'
_cell_length_a     49.386137
_cell_length_b     49.379003
_cell_length_c     73.832513
_cell_angle_alpha  90.013565
_cell_angle_beta   89.999351
_cell_angle_gamma 89.972057
loop_
_atom_site_label
_atom_site_type_symbol
_atom_site_fract_x
_atom_site_fract_y
_atom_site_fract_z
_atom_type_partial_charge
In0 In 0.39535 0.06739 0.15473 0.0
O1 O 0.37973 0.0354 0.135 0.0
O2 O 0.35407 0.04748 0.15673 0.0
C3 C 0.44677 0.07409 0.1432 0.0
C4 C 0.40287 0.04514 0.18766 0.0
C5 C 0.37368 0.11576 0.1456 0.0
O6 O 0.43054 0.05808 0.13546 0.0
O7 O 0.43709 0.08636 0.1567 0.0
O8 O 0.37964 0.10984 0.16175 0.0
O9 O 0.37835 0.09725 0.13426 0.0
C10 C 0.35733 0.03252 0.14305 0.0
O11 O 0.39209 0.06816 0.18559 0.0
O12 O 0.41023 0.03372 0.17318 0.0
In13 In 0.18282 0.1438 0.40584 0.0
O14 O 0.18642 0.12897 0.43515 0.0
O15 O 0.20551 0.16597 0.42838 0.0
C16 C 0.13397 0.12381 0.39671 0.0
C17 C 0.21928 0.1084 0.39222 0.0
C18 C 0.17469 0.19371 0.39203 0.0
O19 O 0.13958 0.13102 0.41271 0.0
O20 O 0.15306 0.12652 0.38546 0.0
O21 O 0.19504 0.17953 0.38777 0.0
O22 O 0.15885 0.18285 0.4033 0.0
C23 C 0.20091 0.14845 0.44036 0.0
O24 O 0.22204 0.13369 0.39051 0.0
O25 O 0.19813 0.10122 0.40043 0.0
In26 In 0.10726 0.93217 0.65435 0.0
O27 O 0.11802 0.97112 0.63898 0.0
O28 O 0.14996 0.94798 0.65046 0.0
C29 C 0.05586 0.92604 0.64272 0.0
C30 C 0.10415 0.95249 0.68816 0.0
C31 C 0.12534 0.88219 0.64561 0.0
O32 O 0.07427 0.93544 0.63263 0.0
O33 O 0.06339 0.92001 0.65854 0.0
O34 O 0.11891 0.88846 0.66165 0.0
O35 O 0.1228 0.90108 0.63426 0.0
C36 C 0.14315 0.96885 0.64177 0.0
O37 O 0.11984 0.93315 0.68418 0.0
O38 O 0.08984 0.96107 0.67523 0.0
In39 In 0.31811 0.85537 0.90513 0.0
O40 O 0.31922 0.86086 0.93592 0.0
O41 O 0.28502 0.84133 0.92431 0.0
C42 C 0.36675 0.87605 0.89578 0.0
C43 C 0.28255 0.89245 0.89278 0.0
C44 C 0.3258 0.80396 0.89375 0.0
O45 O 0.36034 0.87149 0.91207 0.0
O46 O 0.34856 0.87045 0.88438 0.0
O47 O 0.31156 0.82067 0.88498 0.0
O48 O 0.33578 0.81314 0.90822 0.0
C49 C 0.29643 0.84988 0.93847 0.0
O50 O 0.28137 0.86782 0.88823 0.0
O51 O 0.30195 0.89835 0.90317 0.0
In52 In 0.39503 0.9334 0.34297 0.0
O53 O 0.39077 0.93147 0.31207 0.0
O54 O 0.41271 0.96428 0.3234 0.0
C55 C 0.37238 0.88578 0.35245 0.0
C56 C 0.35771 0.96926 0.3547 0.0
C57 C 0.44532 0.92467 0.35611 0.0
O58 O 0.37885 0.89125 0.33629 0.0
O59 O 0.37692 0.90452 0.3637 0.0
O60 O 0.43155 0.94522 0.36044 0.0
O61 O 0.43389 0.90889 0.34508 0.0
C62 C 0.40368 0.95313 0.3093 0.0
O63 O 0.38117 0.96793 0.36145 0.0
O64 O 0.35303 0.9522 0.34238 0.0
In65 In 0.3183 0.14523 0.59407 0.0
O66 O 0.28078 0.13342 0.61056 0.0
O67 O 0.30212 0.10242 0.5966 0.0
C68 C 0.32492 0.19657 0.60571 0.0
C69 C 0.29743 0.14968 0.56042 0.0
C70 C 0.36769 0.12625 0.60336 0.0
O71 O 0.31074 0.17957 0.6143 0.0
O72 O 0.33552 0.18763 0.59134 0.0
O73 O 0.36173 0.13245 0.58725 0.0
O74 O 0.34874 0.12944 0.61462 0.0
C75 C 0.28226 0.10861 0.60649 0.0
O76 O 0.31703 0.13413 0.56398 0.0
O77 O 0.28892 0.16332 0.57367 0.0
In78 In 0.10717 0.06722 0.84287 0.0
O79 O 0.11815 0.02896 0.8589 0.0
O80 O 0.14993 0.05157 0.84676 0.0
C81 C 0.05592 0.07449 0.85453 0.0
C82 C 0.1037 0.04683 0.809 0.0
C83 C 0.1262 0.11648 0.85224 0.0
O84 O 0.07258 0.0596 0.8629 0.0
O85 O 0.06513 0.08538 0.84034 0.0
O86 O 0.11985 0.11066 0.83612 0.0
O87 O 0.12305 0.09747 0.86346 0.0
C88 C 0.14325 0.03113 0.85594 0.0
O89 O 0.1202 0.06534 0.81313 0.0
O90 O 0.08864 0.03916 0.82178 0.0
In91 In 0.18185 0.85851 0.09313 0.0
O92 O 0.18095 0.8627 0.06232 0.0
O93 O 0.21492 0.84318 0.07435 0.0
C94 C 0.13412 0.88103 0.10277 0.0
C95 C 0.21759 0.89563 0.10492 0.0
C96 C 0.17403 0.80707 0.10435 0.0
O97 O 0.13959 0.87507 0.08654 0.0
O98 O 0.15275 0.87592 0.11392 0.0
O99 O 0.19054 0.8228 0.11209 0.0
O100 O 0.16184 0.81723 0.09097 0.0
C101 C 0.20365 0.85136 0.06002 0.0
O102 O 0.21454 0.87306 0.11273 0.0
O103 O 0.20238 0.89949 0.09144 0.0
In104 In 0.60694 0.93248 0.844 0.0
O105 O 0.62063 0.96557 0.86385 0.0
O106 O 0.647 0.95465 0.84228 0.0
C107 C 0.55562 0.92446 0.85534 0.0
C108 C 0.60056 0.9531 0.8105 0.0
C109 C 0.62883 0.88417 0.85307 0.0
O110 O 0.57106 0.9416 0.86277 0.0
O111 O 0.56605 0.91176 0.84225 0.0
O112 O 0.62097 0.88946 0.83719 0.0
O113 O 0.62597 0.90331 0.86421 0.0
C114 C 0.64293 0.96954 0.85587 0.0
O115 O 0.61675 0.93394 0.81386 0.0
O116 O 0.5871 0.96137 0.82393 0.0
In117 In 0.81722 0.85737 0.59437 0.0
O118 O 0.77596 0.86663 0.60756 0.0
O119 O 0.80344 0.89903 0.60368 0.0
C120 C 0.82507 0.80661 0.60668 0.0
C121 C 0.80024 0.8545 0.55951 0.0
C122 C 0.86665 0.87579 0.60363 0.0
O123 O 0.80565 0.82118 0.61217 0.0
O124 O 0.84002 0.8175 0.59488 0.0
O125 O 0.85878 0.87498 0.58734 0.0
O126 O 0.84952 0.86766 0.6151 0.0
C127 C 0.78042 0.89169 0.60906 0.0
O128 O 0.81321 0.87447 0.56562 0.0
O129 O 0.79658 0.83573 0.57076 0.0
In130 In 0.89384 0.07007 0.34381 0.0
O131 O 0.88741 0.07087 0.31311 0.0
O132 O 0.9088 0.03758 0.32447 0.0
C133 C 0.87383 0.11911 0.35298 0.0
C134 C 0.8567 0.03442 0.35596 0.0
C135 C 0.94518 0.07725 0.35541 0.0
O136 O 0.87922 0.11282 0.33679 0.0
O137 O 0.87822 0.10059 0.36438 0.0
O138 O 0.9281 0.06363 0.36431 0.0
O139 O 0.93636 0.08692 0.34075 0.0
C140 C 0.89937 0.0486 0.31042 0.0
O141 O 0.88135 0.03305 0.36043 0.0
O142 O 0.85081 0.05404 0.34576 0.0
In143 In 0.68287 0.14405 0.09266 0.0
O144 O 0.71521 0.12847 0.1122 0.0
O145 O 0.70337 0.10307 0.09028 0.0
C146 C 0.67537 0.19521 0.1046 0.0
C147 C 0.70481 0.15221 0.05973 0.0
C148 C 0.63482 0.12161 0.10159 0.0
O149 O 0.69127 0.17893 0.11241 0.0
O150 O 0.66366 0.18574 0.09082 0.0
O151 O 0.64066 0.12793 0.08549 0.0
O152 O 0.65325 0.12633 0.11297 0.0
C153 C 0.71833 0.10624 0.10396 0.0
O154 O 0.68199 0.14105 0.06183 0.0
O155 O 0.71619 0.15968 0.0742 0.0
In156 In 0.60723 0.07037 0.65719 0.0
O157 O 0.61812 0.06879 0.68723 0.0
O158 O 0.58697 0.04265 0.6778 0.0
C159 C 0.62838 0.11899 0.64815 0.0
C160 C 0.64274 0.0325 0.64565 0.0
C161 C 0.55645 0.07893 0.64499 0.0
O162 O 0.62046 0.11362 0.664 0.0
O163 O 0.62591 0.09979 0.637 0.0
O164 O 0.5729 0.06362 0.63676 0.0
O165 O 0.56564 0.08955 0.65927 0.0
C166 C 0.60123 0.05044 0.69097 0.0
O167 O 0.61844 0.03292 0.64027 0.0
O168 O 0.64898 0.05137 0.65635 0.0
In169 In 0.68266 0.85852 0.40563 0.0
O170 O 0.68535 0.87035 0.43555 0.0
O171 O 0.7131 0.84103 0.4256 0.0
C172 C 0.63266 0.87779 0.39845 0.0
C173 C 0.71815 0.89483 0.39232 0.0
C174 C 0.67504 0.80771 0.3931 0.0
O175 O 0.63861 0.86686 0.41339 0.0
O176 O 0.65191 0.87921 0.38727 0.0
O177 O 0.68793 0.82528 0.38412 0.0
O178 O 0.66643 0.8158 0.40824 0.0
C179 C 0.70513 0.85494 0.43888 0.0
O180 O 0.71976 0.86988 0.38861 0.0
O181 O 0.6985 0.90126 0.40235 0.0
In182 In 0.89452 0.93407 0.15558 0.0
O183 O 0.89296 0.93225 0.1865 0.0
O184 O 0.90596 0.96892 0.17411 0.0
C185 C 0.87567 0.88463 0.14625 0.0
C186 C 0.85594 0.96729 0.14237 0.0
C187 C 0.94672 0.92931 0.14543 0.0
O188 O 0.87371 0.89364 0.1622 0.0
O189 O 0.8867 0.90059 0.13518 0.0
O190 O 0.93016 0.9443 0.13707 0.0
O191 O 0.937 0.91719 0.159 0.0
C192 C 0.90083 0.95641 0.18861 0.0
O193 O 0.87915 0.96555 0.13529 0.0
O194 O 0.85213 0.95191 0.15575 0.0
In195 In 0.8192 0.14355 0.90532 0.0
O196 O 0.78657 0.12905 0.88559 0.0
O197 O 0.79763 0.10304 0.90735 0.0
C198 C 0.82728 0.19495 0.89407 0.0
C199 C 0.79782 0.15157 0.93845 0.0
C200 C 0.86717 0.12101 0.89606 0.0
O201 O 0.81041 0.17944 0.88649 0.0
O202 O 0.83973 0.18456 0.90726 0.0
O203 O 0.86127 0.12684 0.91224 0.0
O204 O 0.84875 0.12608 0.88474 0.0
C205 C 0.78273 0.10685 0.89371 0.0
O206 O 0.82003 0.13932 0.93612 0.0
O207 O 0.78679 0.16012 0.92413 0.0
In208 In 0.89271 0.56946 0.65625 0.0
O209 O 0.88498 0.56949 0.68682 0.0
O210 O 0.90744 0.53683 0.67558 0.0
C211 C 0.87279 0.61931 0.64898 0.0
C212 C 0.85606 0.53349 0.64406 0.0
C213 C 0.94353 0.57562 0.64329 0.0
O214 O 0.88492 0.61382 0.66356 0.0
O215 O 0.87044 0.59966 0.63818 0.0
O216 O 0.92502 0.5646 0.63407 0.0
O217 O 0.93635 0.58321 0.65885 0.0
C218 C 0.89722 0.54739 0.68954 0.0
O219 O 0.88054 0.53296 0.63906 0.0
O220 O 0.85012 0.55246 0.65482 0.0
In221 In 0.68372 0.64449 0.90602 0.0
O222 O 0.68236 0.63883 0.93677 0.0
O223 O 0.71686 0.65801 0.92529 0.0
C224 C 0.63494 0.62438 0.89659 0.0
C225 C 0.71875 0.60693 0.89371 0.0
C226 C 0.67686 0.69597 0.89458 0.0
O227 O 0.64107 0.6295 0.91285 0.0
O228 O 0.65344 0.62921 0.88526 0.0
O229 O 0.69054 0.6789 0.88571 0.0
O230 O 0.66698 0.68708 0.90916 0.0
C231 C 0.70525 0.64956 0.93941 0.0
O232 O 0.72048 0.6316 0.88933 0.0
O233 O 0.69913 0.60126 0.90397 0.0
In234 In 0.60715 0.43265 0.15498 0.0
O235 O 0.61769 0.43378 0.18502 0.0
O236 O 0.58916 0.46256 0.17504 0.0
C237 C 0.62761 0.38338 0.14652 0.0
C238 C 0.64266 0.47022 0.14325 0.0
C239 C 0.55568 0.42644 0.1434 0.0
O240 O 0.61861 0.38881 0.1621 0.0
O241 O 0.62651 0.40276 0.13546 0.0
O242 O 0.57388 0.43657 0.13347 0.0
O243 O 0.56343 0.41971 0.15904 0.0
C244 C 0.60243 0.45372 0.18842 0.0
O245 O 0.61941 0.46772 0.13631 0.0
O246 O 0.64793 0.45362 0.15571 0.0
In247 In 0.82016 0.3598 0.40551 0.0
O248 O 0.81785 0.37294 0.43521 0.0
O249 O 0.79247 0.3407 0.42659 0.0
C250 C 0.86964 0.37906 0.39673 0.0
C251 C 0.78331 0.39527 0.39252 0.0
C252 C 0.82795 0.30865 0.39374 0.0
O253 O 0.86351 0.37231 0.41272 0.0
O254 O 0.85078 0.37634 0.38534 0.0
O255 O 0.81345 0.32539 0.38514 0.0
O256 O 0.83818 0.31773 0.40818 0.0
C257 C 0.79974 0.35601 0.43935 0.0
O258 O 0.78165 0.37014 0.3895 0.0
O259 O 0.80371 0.40231 0.40162 0.0
In260 In 0.89496 0.4329 0.84453 0.0
O261 O 0.88238 0.46932 0.86166 0.0
O262 O 0.85173 0.44805 0.84726 0.0
C263 C 0.94673 0.42565 0.85526 0.0
C264 C 0.89921 0.45499 0.81124 0.0
C265 C 0.87494 0.38408 0.85394 0.0
O266 O 0.93015 0.43976 0.86423 0.0
O267 O 0.93726 0.41561 0.8409 0.0
O268 O 0.87869 0.39076 0.8376 0.0
O269 O 0.88106 0.40208 0.86536 0.0
C270 C 0.8576 0.46755 0.85757 0.0
O271 O 0.88931 0.4317 0.81376 0.0
O272 O 0.90732 0.46672 0.82541 0.0
In273 In 0.81849 0.64461 0.09459 0.0
O274 O 0.81949 0.63915 0.06392 0.0
O275 O 0.78507 0.65845 0.07565 0.0
C276 C 0.86765 0.62341 0.10261 0.0
C277 C 0.78173 0.60827 0.1062 0.0
C278 C 0.82443 0.69614 0.10635 0.0
O279 O 0.86186 0.63201 0.08699 0.0
O280 O 0.84866 0.62522 0.11393 0.0
O281 O 0.81536 0.6776 0.11641 0.0
O282 O 0.83024 0.68872 0.09049 0.0
C283 C 0.79655 0.64996 0.06145 0.0
O284 O 0.78405 0.63143 0.11331 0.0
O285 O 0.79826 0.60336 0.09359 0.0
In286 In 0.60759 0.57004 0.34237 0.0
O287 O 0.62001 0.568 0.31256 0.0
O288 O 0.58824 0.54223 0.32145 0.0
C289 C 0.62738 0.61919 0.35139 0.0
C290 C 0.64342 0.53329 0.35502 0.0
C291 C 0.55655 0.5783 0.35419 0.0
O292 O 0.62058 0.61331 0.33537 0.0
O293 O 0.62438 0.60027 0.36269 0.0
O294 O 0.57308 0.56339 0.36267 0.0
O295 O 0.56578 0.58866 0.33984 0.0
C296 C 0.60316 0.54975 0.30855 0.0
O297 O 0.61841 0.53172 0.35848 0.0
O298 O 0.65012 0.55349 0.34562 0.0
In299 In 0.68221 0.35807 0.59316 0.0
O300 O 0.68515 0.3716 0.56357 0.0
O301 O 0.71101 0.33985 0.57238 0.0
C302 C 0.63206 0.37694 0.6004 0.0
C303 C 0.71818 0.39388 0.60657 0.0
C304 C 0.67517 0.30728 0.60585 0.0
O305 O 0.6381 0.36618 0.58542 0.0
O306 O 0.65128 0.3783 0.61161 0.0
O307 O 0.68775 0.32511 0.61481 0.0
O308 O 0.66648 0.31513 0.59067 0.0
C309 C 0.70375 0.3551 0.55959 0.0
O310 O 0.72032 0.36872 0.60942 0.0
O311 O 0.69782 0.40072 0.59735 0.0
In312 In 0.10978 0.43155 0.34273 0.0
O313 O 0.12306 0.43496 0.31312 0.0
O314 O 0.09059 0.45983 0.32203 0.0
C315 C 0.12924 0.38149 0.34976 0.0
C316 C 0.14501 0.46837 0.35586 0.0
C317 C 0.05917 0.42376 0.35554 0.0
O318 O 0.1181 0.38751 0.33491 0.0
O319 O 0.13081 0.40073 0.36095 0.0
O320 O 0.0768 0.43671 0.36444 0.0
O321 O 0.06713 0.41511 0.34038 0.0
C322 C 0.106 0.45307 0.3092 0.0
O323 O 0.11994 0.4696 0.35924 0.0
O324 O 0.15209 0.44839 0.34633 0.0
In325 In 0.31797 0.35589 0.09406 0.0
O326 O 0.3204 0.35919 0.06314 0.0
O327 O 0.28389 0.34464 0.07487 0.0
C328 C 0.36714 0.3749 0.10368 0.0
C329 C 0.2836 0.3934 0.10744 0.0
C330 C 0.32432 0.30394 0.10446 0.0
O331 O 0.35832 0.37679 0.08767 0.0
O332 O 0.35109 0.36383 0.11471 0.0
O333 O 0.31057 0.3207 0.11355 0.0
O334 O 0.33445 0.31333 0.09008 0.0
C335 C 0.29652 0.35082 0.06062 0.0
O336 O 0.28159 0.36858 0.11128 0.0
O337 O 0.3033 0.39927 0.09732 0.0
In338 In 0.39577 0.56703 0.84337 0.0
O339 O 0.3828 0.53079 0.8605 0.0
O340 O 0.35269 0.55115 0.84501 0.0
C341 C 0.44702 0.57495 0.85493 0.0
C342 C 0.40193 0.54471 0.81027 0.0
C343 C 0.37485 0.61561 0.85253 0.0
O344 O 0.43037 0.56051 0.8636 0.0
O345 O 0.43784 0.585 0.84048 0.0
O346 O 0.37992 0.60932 0.83628 0.0
O347 O 0.38007 0.59735 0.86396 0.0
C348 C 0.35827 0.53202 0.85571 0.0
O349 O 0.39126 0.56774 0.8125 0.0
O350 O 0.40975 0.53335 0.82464 0.0
In351 In 0.18046 0.6422 0.59218 0.0
O352 O 0.21429 0.62953 0.61172 0.0
O353 O 0.20233 0.60188 0.59115 0.0
C354 C 0.17203 0.69316 0.60417 0.0
C355 C 0.20165 0.64847 0.5588 0.0
C356 C 0.13191 0.6203 0.60066 0.0
O357 O 0.18835 0.67719 0.61192 0.0
O358 O 0.16039 0.68346 0.59041 0.0
O359 O 0.1372 0.62927 0.58505 0.0
O360 O 0.15117 0.62203 0.6118 0.0
C361 C 0.21784 0.60672 0.6043 0.0
O362 O 0.18284 0.63189 0.56212 0.0
O363 O 0.20925 0.6624 0.57219 0.0
In364 In 0.10779 0.56917 0.15511 0.0
O365 O 0.12014 0.56803 0.18496 0.0
O366 O 0.08951 0.54086 0.17612 0.0
C367 C 0.12658 0.61846 0.14568 0.0
C368 C 0.14419 0.53301 0.14253 0.0
C369 C 0.0566 0.57631 0.14333 0.0
O370 O 0.12068 0.61254 0.16185 0.0
O371 O 0.12315 0.59952 0.13444 0.0
O372 O 0.07358 0.56216 0.13468 0.0
O373 O 0.06544 0.58646 0.15786 0.0
C374 C 0.10405 0.54912 0.18902 0.0
O375 O 0.11912 0.53059 0.13953 0.0
O376 O 0.15068 0.55377 0.15145 0.0
In377 In 0.18413 0.35597 0.90488 0.0
O378 O 0.22106 0.36826 0.88814 0.0
O379 O 0.19954 0.3991 0.90221 0.0
C380 C 0.1763 0.30451 0.89364 0.0
C381 C 0.20586 0.35132 0.93826 0.0
C382 C 0.13537 0.37634 0.89562 0.0
O383 O 0.19034 0.3212 0.88471 0.0
O384 O 0.16666 0.31371 0.9082 0.0
O385 O 0.14165 0.37129 0.91187 0.0
O386 O 0.15373 0.37133 0.88421 0.0
C387 C 0.21925 0.39308 0.89212 0.0
O388 O 0.18323 0.36256 0.93556 0.0
O389 O 0.21713 0.34212 0.92423 0.0
In390 In 0.39396 0.43313 0.65506 0.0
O391 O 0.38996 0.43107 0.68589 0.0
O392 O 0.41262 0.46349 0.67457 0.0
C393 C 0.36982 0.38581 0.64653 0.0
C394 C 0.35716 0.4695 0.64331 0.0
C395 C 0.4443 0.42446 0.64188 0.0
O396 O 0.37784 0.39114 0.66239 0.0
O397 O 0.37343 0.40458 0.63517 0.0
O398 O 0.43166 0.4463 0.63911 0.0
O399 O 0.43173 0.40739 0.65136 0.0
C400 C 0.40335 0.45246 0.68867 0.0
O401 O 0.37792 0.46342 0.63416 0.0
O402 O 0.35486 0.45691 0.65808 0.0
In403 In 0.31865 0.64562 0.40517 0.0
O404 O 0.28036 0.63424 0.38921 0.0
O405 O 0.30253 0.60286 0.40215 0.0
C406 C 0.32576 0.69692 0.39357 0.0
C407 C 0.29882 0.65003 0.43911 0.0
C408 C 0.36791 0.62653 0.39565 0.0
O409 O 0.31094 0.68024 0.38515 0.0
O410 O 0.33669 0.68767 0.40773 0.0
O411 O 0.36202 0.63255 0.41181 0.0
O412 O 0.34893 0.62996 0.38444 0.0
C413 C 0.2822 0.60928 0.39278 0.0
O414 O 0.31737 0.63351 0.43507 0.0
O415 O 0.29076 0.6646 0.42618 0.0
H416 H 0.38735 0.93251 0.27672 0.0
H417 H 0.4259 0.00206 0.30109 0.0
H418 H 0.38895 0.95483 0.24719 0.0
H419 H 0.42761 0.02427 0.27159 0.0
H420 H 0.39158 0.06659 0.22092 0.0
H421 H 0.39371 0.04374 0.25023 0.0
H422 H 0.42202 0.97087 0.22396 0.0
H423 H 0.41979 0.99365 0.19465 0.0
C424 C 0.3964 0.95243 0.27573 0.0
C425 C 0.40645 0.96556 0.2912 0.0
C426 C 0.39741 0.96517 0.25882 0.0
C427 C 0.4083 0.99135 0.25711 0.0
C428 C 0.41881 0.00424 0.27254 0.0
C429 C 0.41798 0.99144 0.2894 0.0
C430 C 0.39842 0.04575 0.22143 0.0
C431 C 0.4055 0.0319 0.20551 0.0
C432 C 0.39976 0.03271 0.23821 0.0
C433 C 0.40799 0.00549 0.23938 0.0
C434 C 0.41534 0.99175 0.22346 0.0
C435 C 0.41421 0.00486 0.2067 0.0
H436 H 0.26154 0.18734 0.54817 0.0
H437 H 0.30328 0.11416 0.53236 0.0
H438 H 0.23748 0.18761 0.51923 0.0
H439 H 0.27895 0.11432 0.50347 0.0
H440 H 0.20481 0.10773 0.46515 0.0
H441 H 0.22882 0.10863 0.49413 0.0
H442 H 0.24937 0.19258 0.4854 0.0
H443 H 0.22563 0.19165 0.45632 0.0
C444 C 0.26567 0.17141 0.53846 0.0
C445 C 0.28429 0.15073 0.54248 0.0
C446 C 0.25194 0.17161 0.52191 0.0
C447 C 0.25626 0.1509 0.5092 0.0
C448 C 0.27506 0.13036 0.51314 0.0
C449 C 0.28911 0.13039 0.52958 0.0
C450 C 0.21426 0.12643 0.4695 0.0
C451 C 0.21336 0.14963 0.45852 0.0
C452 C 0.22816 0.12686 0.48599 0.0
C453 C 0.24105 0.15062 0.49191 0.0
C454 C 0.23951 0.17404 0.48116 0.0
C455 C 0.22597 0.17348 0.46454 0.0
H456 H 0.0635 0.01569 0.79477 0.0
H457 H 0.14252 0.04854 0.78273 0.0
H458 H 0.06327 0.99233 0.76554 0.0
H459 H 0.14244 0.02472 0.75362 0.0
H460 H 0.1422 0.94938 0.71491 0.0
H461 H 0.1419 0.97293 0.74415 0.0
H462 H 0.06393 0.00752 0.73139 0.0
H463 H 0.0644 0.98447 0.70207 0.0
C464 C 0.08076 0.01797 0.78584 0.0
C465 C 0.103 0.03397 0.79096 0.0
C466 C 0.0806 0.00465 0.76915 0.0
C467 C 0.1029 0.00665 0.75743 0.0
C468 C 0.12512 0.0227 0.76251 0.0
C469 C 0.12506 0.03646 0.77907 0.0
C470 C 0.12495 0.96189 0.71842 0.0
C471 C 0.10332 0.96512 0.70626 0.0
C472 C 0.12488 0.97547 0.73505 0.0
C473 C 0.10293 0.99206 0.73993 0.0
C474 C 0.08103 0.99477 0.72795 0.0
C475 C 0.08134 0.98163 0.71119 0.0
H476 H 0.24586 0.83124 0.94622 0.0
H477 H 0.31741 0.86487 0.97125 0.0
H478 H 0.22332 0.83015 0.9756 0.0
H479 H 0.29474 0.86393 0.00069 0.0
H480 H 0.25438 0.83266 0.05261 0.0
H481 H 0.27708 0.83095 0.02327 0.0
H482 H 0.20553 0.86367 0.99769 0.0
H483 H 0.18274 0.86523 0.02704 0.0
C484 C 0.25681 0.8383 0.95802 0.0
C485 C 0.2834 0.84815 0.95645 0.0
C486 C 0.24383 0.83782 0.97482 0.0
C487 C 0.25722 0.84703 0.99044 0.0
C488 C 0.28399 0.85647 0.98891 0.0
C489 C 0.29693 0.85711 0.97207 0.0
C490 C 0.24344 0.83933 0.0407 0.0
C491 C 0.21678 0.84907 0.04211 0.0
C492 C 0.25651 0.83851 0.02393 0.0
C493 C 0.24312 0.84724 0.00819 0.0
C494 C 0.21628 0.85656 0.00956 0.0
C495 C 0.20327 0.85755 0.02636 0.0
H496 H 0.56062 0.98615 0.79771 0.0
H497 H 0.63724 0.95004 0.78306 0.0
H498 H 0.55968 0.01032 0.76872 0.0
H499 H 0.63651 0.97465 0.75431 0.0
H500 H 0.63893 0.0518 0.71786 0.0
H501 H 0.63781 0.02751 0.74674 0.0
H502 H 0.55869 0.99606 0.73363 0.0
H503 H 0.55998 0.01988 0.70453 0.0
C504 C 0.57715 0.9833 0.78826 0.0
C505 C 0.59898 0.96622 0.79259 0.0
C506 C 0.57658 0.99707 0.77172 0.0
C507 C 0.59811 0.99442 0.75943 0.0
C508 C 0.61979 0.97716 0.76367 0.0
C509 C 0.6201 0.96297 0.78004 0.0
C510 C 0.62122 0.03988 0.72121 0.0
C511 C 0.59955 0.03767 0.70898 0.0
C512 C 0.62067 0.02588 0.73765 0.0
C513 C 0.59822 0.00988 0.74229 0.0
C514 C 0.57618 0.00834 0.73033 0.0
C515 C 0.57696 0.0219 0.71372 0.0
H516 H 0.69864 0.88967 0.46733 0.0
H517 H 0.74278 0.81847 0.45042 0.0
H518 H 0.72299 0.88937 0.49619 0.0
H519 H 0.76697 0.81812 0.47929 0.0
H520 H 0.77828 0.81123 0.54195 0.0
H521 H 0.75542 0.81101 0.51258 0.0
H522 H 0.77196 0.89638 0.50651 0.0
H523 H 0.79501 0.8966 0.53584 0.0
C524 C 0.71342 0.87389 0.46983 0.0
C525 C 0.7188 0.85408 0.45666 0.0
C526 C 0.72748 0.87384 0.48626 0.0
C527 C 0.74693 0.85378 0.48991 0.0
C528 C 0.75198 0.83373 0.47686 0.0
C529 C 0.73818 0.83398 0.46034 0.0
C530 C 0.77725 0.82988 0.53425 0.0
C531 C 0.78842 0.85393 0.54115 0.0
C532 C 0.76423 0.82973 0.51745 0.0
C533 C 0.7618 0.85371 0.50735 0.0
C534 C 0.77331 0.87768 0.51413 0.0
C535 C 0.78666 0.87775 0.53082 0.0
H536 H 0.92192 0.99978 0.30219 0.0
H537 H 0.88107 0.06819 0.27802 0.0
H538 H 0.92374 0.97749 0.27274 0.0
H539 H 0.8826 0.04572 0.24855 0.0
H540 H 0.91424 0.00882 0.19582 0.0
H541 H 0.91523 0.03139 0.2252 0.0
H542 H 0.89192 0.95659 0.25122 0.0
H543 H 0.89123 0.93392 0.22181 0.0
C544 C 0.91339 0.01009 0.29056 0.0
C545 C 0.90134 0.03573 0.2924 0.0
C546 C 0.91428 0.99724 0.27372 0.0
C547 C 0.90324 0.0098 0.25833 0.0
C548 C 0.89153 0.03564 0.26012 0.0
C549 C 0.89055 0.04846 0.277 0.0
C550 C 0.90949 0.99715 0.20783 0.0
C551 C 0.90265 0.9696 0.20653 0.0
C552 C 0.90988 0.01013 0.22463 0.0
C553 C 0.90356 0.99581 0.24052 0.0
C554 C 0.89715 0.96812 0.23924 0.0
C555 C 0.89665 0.95515 0.22241 0.0
H556 H 0.81829 0.13688 0.97139 0.0
H557 H 0.74799 0.17247 0.94596 0.0
H558 H 0.79558 0.13908 0.00076 0.0
H559 H 0.72538 0.17481 0.97531 0.0
H560 H 0.68369 0.13978 0.02658 0.0
H561 H 0.70657 0.14161 0.99728 0.0
H562 H 0.77856 0.17253 0.02327 0.0
H563 H 0.75575 0.17054 0.05258 0.0
C564 C 0.7981 0.14538 0.97211 0.0
C565 C 0.78489 0.15444 0.95639 0.0
C566 C 0.78514 0.14675 0.98892 0.0
C567 C 0.75866 0.15704 0.99031 0.0
C568 C 0.74566 0.1665 0.97462 0.0
C569 C 0.75868 0.1653 0.95784 0.0
C570 C 0.70432 0.14716 0.026 0.0
C571 C 0.71795 0.15497 0.04186 0.0
C572 C 0.71738 0.14832 0.00923 0.0
C573 C 0.74439 0.15715 0.008 0.0
C574 C 0.75785 0.16536 0.02383 0.0
C575 C 0.74473 0.16437 0.04059 0.0
H576 H 0.91806 0.49773 0.69752 0.0
H577 H 0.87959 0.56727 0.72202 0.0
H578 H 0.91939 0.47523 0.72692 0.0
H579 H 0.88081 0.54466 0.75146 0.0
H580 H 0.91446 0.50673 0.80364 0.0
H581 H 0.91477 0.52923 0.77423 0.0
H582 H 0.88638 0.45567 0.74891 0.0
H583 H 0.88618 0.43306 0.77837 0.0
C584 C 0.90995 0.50824 0.7092 0.0
C585 C 0.89873 0.53427 0.70749 0.0
C586 C 0.91057 0.49527 0.72601 0.0
C587 C 0.90015 0.50815 0.74148 0.0
C588 C 0.88921 0.53433 0.7398 0.0
C589 C 0.88842 0.54723 0.72295 0.0
C590 C 0.90839 0.49532 0.79178 0.0
C591 C 0.90029 0.46813 0.79329 0.0
C592 C 0.90841 0.50826 0.77497 0.0
C593 C 0.90052 0.49424 0.75928 0.0
C594 C 0.89278 0.46692 0.76075 0.0
C595 C 0.89256 0.45401 0.77761 0.0
H596 H 0.74573 0.66803 0.05365 0.0
H597 H 0.81782 0.63528 0.02874 0.0
H598 H 0.72339 0.66907 0.02417 0.0
H599 H 0.79537 0.63614 0.99926 0.0
H600 H 0.75581 0.66798 0.94737 0.0
H601 H 0.77793 0.66928 0.97689 0.0
H602 H 0.70608 0.63588 0.00165 0.0
H603 H 0.68382 0.63477 0.97208 0.0
C604 C 0.75683 0.66114 0.04186 0.0
C605 C 0.78353 0.65158 0.04348 0.0
C606 C 0.74397 0.66158 0.02501 0.0
C607 C 0.7576 0.65263 0.00942 0.0
C608 C 0.78444 0.64341 0.01101 0.0
C609 C 0.79725 0.64282 0.02789 0.0
C610 C 0.74468 0.66103 0.95913 0.0
C611 C 0.71808 0.65125 0.95744 0.0
C612 C 0.75742 0.66163 0.97601 0.0
C613 C 0.74378 0.6526 0.99157 0.0
C614 C 0.71701 0.6432 0.98992 0.0
C615 C 0.70431 0.64245 0.973 0.0
H616 H 0.56197 0.51983 0.29437 0.0
H617 H 0.64186 0.55043 0.28224 0.0
H618 H 0.56107 0.49635 0.26515 0.0
H619 H 0.64113 0.52644 0.2532 0.0
H620 H 0.63925 0.44973 0.21577 0.0
H621 H 0.63896 0.47395 0.24472 0.0
H622 H 0.56288 0.51134 0.23048 0.0
H623 H 0.56339 0.4876 0.20135 0.0
C624 C 0.57926 0.52161 0.28542 0.0
C625 C 0.60197 0.53696 0.29051 0.0
C626 C 0.57871 0.50824 0.26874 0.0
C627 C 0.60109 0.50953 0.25705 0.0
C628 C 0.62372 0.52501 0.26208 0.0
C629 C 0.62406 0.53883 0.2786 0.0
C630 C 0.6224 0.46299 0.21888 0.0
C631 C 0.60134 0.46681 0.20636 0.0
C632 C 0.62234 0.47695 0.23535 0.0
C633 C 0.60095 0.49453 0.23972 0.0
C634 C 0.57955 0.49783 0.2274 0.0
C635 C 0.57988 0.4843 0.21077 0.0
H636 H 0.73572 0.31522 0.54574 0.0
H637 H 0.70198 0.39373 0.5332 0.0
H638 H 0.75948 0.31503 0.51667 0.0
H639 H 0.72613 0.39367 0.50423 0.0
H640 H 0.8012 0.39459 0.46578 0.0
H641 H 0.77734 0.39411 0.49486 0.0
H642 H 0.74546 0.31483 0.48259 0.0
H643 H 0.76892 0.31543 0.45341 0.0
C644 C 0.73333 0.33238 0.53674 0.0
C645 C 0.71699 0.35447 0.54168 0.0
C646 C 0.74687 0.33223 0.52012 0.0
C647 C 0.74469 0.35439 0.5083 0.0
C648 C 0.72829 0.37645 0.51321 0.0
C649 C 0.71436 0.37639 0.52969 0.0
C650 C 0.78923 0.37701 0.46936 0.0
C651 C 0.7869 0.35504 0.45738 0.0
C652 C 0.77546 0.37683 0.48591 0.0
C653 C 0.75953 0.35447 0.49088 0.0
C654 C 0.75771 0.33225 0.47908 0.0
C655 C 0.77108 0.33263 0.46241 0.0
H656 H 0.06496 0.48355 0.29535 0.0
H657 H 0.14474 0.4529 0.28287 0.0
H658 H 0.06397 0.50743 0.26632 0.0
H659 H 0.14388 0.47719 0.25396 0.0
H660 H 0.14206 0.55249 0.21572 0.0
H661 H 0.14224 0.52868 0.24482 0.0
H662 H 0.06464 0.49329 0.23211 0.0
H663 H 0.06462 0.51668 0.2029 0.0
C664 C 0.08223 0.48187 0.28638 0.0
C665 C 0.10491 0.46636 0.29131 0.0
C666 C 0.08163 0.49548 0.26979 0.0
C667 C 0.1039 0.49421 0.258 0.0
C668 C 0.12655 0.47864 0.26291 0.0
C669 C 0.12696 0.46463 0.27936 0.0
C670 C 0.12498 0.53977 0.21922 0.0
C671 C 0.10332 0.53641 0.20709 0.0
C672 C 0.12518 0.52604 0.23577 0.0
C673 C 0.1035 0.50911 0.24062 0.0
C674 C 0.08154 0.5063 0.2287 0.0
C675 C 0.08156 0.51963 0.21201 0.0
H676 H 0.24485 0.33573 0.05274 0.0
H677 H 0.31918 0.36275 0.02777 0.0
H678 H 0.22288 0.33484 0.02318 0.0
H679 H 0.29706 0.36216 0.99815 0.0
H680 H 0.25573 0.33116 0.94649 0.0
H681 H 0.27785 0.33 0.97602 0.0
H682 H 0.20759 0.36758 0.0002 0.0
H683 H 0.18532 0.36847 0.97067 0.0
C684 C 0.25652 0.34142 0.04092 0.0
C685 C 0.28374 0.34932 0.04256 0.0
C686 C 0.24387 0.34108 0.024 0.0
C687 C 0.25819 0.34853 0.00834 0.0
C688 C 0.28556 0.35606 0.00995 0.0
C689 C 0.2982 0.35651 0.0269 0.0
C690 C 0.24496 0.33906 0.95813 0.0
C691 C 0.21878 0.34988 0.95628 0.0
C692 C 0.25771 0.33855 0.97502 0.0
C693 C 0.24451 0.34874 0.99043 0.0
C694 C 0.21819 0.35931 0.98861 0.0
C695 C 0.20547 0.35993 0.97169 0.0
H696 H 0.41879 0.49327 0.80323 0.0
H697 H 0.39016 0.56607 0.77703 0.0
H698 H 0.42111 0.47052 0.77393 0.0
H699 H 0.39241 0.54322 0.74768 0.0
H700 H 0.42552 0.50145 0.6969 0.0
H701 H 0.42677 0.52383 0.72637 0.0
H702 H 0.38807 0.45436 0.7507 0.0
H703 H 0.38688 0.4319 0.72121 0.0
C704 C 0.4131 0.50445 0.7912 0.0
C705 C 0.40427 0.53145 0.79241 0.0
C706 C 0.4143 0.49136 0.77444 0.0
C707 C 0.4069 0.50507 0.75853 0.0
C708 C 0.39849 0.53223 0.75971 0.0
C709 C 0.39707 0.54527 0.7765 0.0
C710 C 0.41751 0.49085 0.70857 0.0
C711 C 0.40608 0.46493 0.70676 0.0
C712 C 0.41806 0.50375 0.72541 0.0
C713 C 0.4074 0.49091 0.74081 0.0
C714 C 0.39663 0.46468 0.73908 0.0
C715 C 0.39588 0.45185 0.72221 0.0
H716 H 0.23406 0.68893 0.54604 0.0
H717 H 0.19989 0.61138 0.53154 0.0
H718 H 0.25842 0.69019 0.51714 0.0
H719 H 0.22468 0.61246 0.50286 0.0
H720 H 0.301 0.61183 0.46572 0.0
H721 H 0.27704 0.61219 0.49476 0.0
H722 H 0.24436 0.69112 0.48236 0.0
H723 H 0.26786 0.69058 0.45316 0.0
C724 C 0.23169 0.67224 0.53665 0.0
C725 C 0.21506 0.65009 0.54098 0.0
C726 C 0.24558 0.67299 0.52015 0.0
C727 C 0.24351 0.65133 0.5079 0.0
C728 C 0.22677 0.62927 0.51218 0.0
C729 C 0.21246 0.62877 0.5285 0.0
C730 C 0.28887 0.62933 0.46927 0.0
C731 C 0.28623 0.65116 0.45722 0.0
C732 C 0.27506 0.62945 0.48579 0.0
C733 C 0.25882 0.65163 0.49069 0.0
C734 C 0.25684 0.67383 0.47889 0.0
C735 C 0.27022 0.67348 0.46221 0.0
H736 H 0.31364 0.01517 0.16224 0.0
H737 H 0.35468 0.00503 0.11101 0.0
H738 H 0.27985 0.98171 0.15311 0.0
H739 H 0.32061 0.97173 0.10181 0.0
H740 H 0.23501 0.93965 0.08612 0.0
H741 H 0.26912 0.97274 0.09529 0.0
H742 H 0.27994 0.93036 0.14591 0.0
H743 H 0.24596 0.89698 0.13667 0.0
C744 C 0.31536 0.00585 0.14901 0.0
C745 C 0.33674 0.01268 0.13731 0.0
C746 C 0.29614 0.98662 0.14385 0.0
C747 C 0.2977 0.97417 0.12679 0.0
C748 C 0.31891 0.98118 0.115 0.0
C749 C 0.3384 1.00013 0.12028 0.0
C750 C 0.24465 0.93741 0.09921 0.0
C751 C 0.23785 0.91578 0.11071 0.0
C752 C 0.26425 0.95625 0.10439 0.0
C753 C 0.27713 0.95403 0.12127 0.0
C754 C 0.27016 0.93256 0.13286 0.0
C755 C 0.25083 0.91346 0.12756 0.0
H756 H 0.2706 0.11814 0.37979 0.0
H757 H 0.21361 0.05374 0.39045 0.0
H758 H 0.30449 0.08457 0.37059 0.0
H759 H 0.24733 0.02038 0.3813 0.0
H760 H 0.30479 0.97208 0.34461 0.0
H761 H 0.27149 0.00635 0.35303 0.0
H762 H 0.33164 0.04707 0.38559 0.0
H763 H 0.36508 0.0127 0.37714 0.0
C764 C 0.26528 0.09686 0.38006 0.0
C765 C 0.23948 0.08854 0.38581 0.0
C766 C 0.2847 0.07768 0.37493 0.0
C767 C 0.27852 0.04988 0.37525 0.0
C768 C 0.25258 0.04167 0.38076 0.0
C769 C 0.23332 0.06077 0.38606 0.0
C770 C 0.3109 0.9883 0.3536 0.0
C771 C 0.3375 0.98968 0.36027 0.0
C772 C 0.29182 0.00787 0.35845 0.0
C773 C 0.29899 0.02938 0.36995 0.0
C774 C 0.32564 0.03085 0.37656 0.0
C775 C 0.34469 0.01109 0.37184 0.0
H776 H 0.13361 0.01849 0.62648 0.0
H777 H 0.19792 0.96559 0.64444 0.0
H778 H 0.16718 0.05278 0.61812 0.0
H779 H 0.23127 0.99978 0.63628 0.0
H780 H 0.28355 0.0543 0.60057 0.0
H781 H 0.24944 0.02083 0.60866 0.0
H782 H 0.20067 0.08359 0.63312 0.0
H783 H 0.23485 0.1173 0.62484 0.0
C784 C 0.15489 0.01418 0.62858 0.0
C785 C 0.16317 0.98935 0.63604 0.0
C786 C 0.17406 0.03386 0.62393 0.0
C787 C 0.20185 0.02896 0.62655 0.0
C788 C 0.21004 0.00404 0.63392 0.0
C789 C 0.19092 0.98449 0.63864 0.0
C790 C 0.26561 0.06097 0.60774 0.0
C791 C 0.2619 0.0884 0.61212 0.0
C792 C 0.24611 0.04178 0.61241 0.0
C793 C 0.22238 0.04958 0.62153 0.0
C794 C 0.21863 0.07704 0.62593 0.0
C795 C 0.23827 0.09627 0.62133 0.0
H796 H 0.19803 0.03459 0.85333 0.0
H797 H 0.13394 0.98211 0.8721 0.0
H798 H 0.23154 1.00084 0.86211 0.0
H799 H 0.16765 0.94826 0.88103 0.0
H800 H 0.23535 0.88373 0.87435 0.0
H801 H 0.20118 0.91732 0.86589 0.0
H802 H 0.24971 0.98032 0.89023 0.0
H803 H 0.28384 0.94687 0.89859 0.0
C804 C 0.19111 0.01589 0.85944 0.0
C805 C 0.16337 0.01098 0.86206 0.0
C806 C 0.21032 0.99661 0.86452 0.0
C807 C 0.20221 0.97192 0.87224 0.0
C808 C 0.17445 0.96702 0.87494 0.0
C809 C 0.1552 0.98644 0.86996 0.0
C810 C 0.23873 0.90477 0.87781 0.0
C811 C 0.26228 0.91271 0.88707 0.0
C812 C 0.21909 0.92395 0.8731 0.0
C813 C 0.22277 0.95142 0.87743 0.0
C814 C 0.24643 0.95933 0.88657 0.0
C815 C 0.26593 0.94016 0.8914 0.0
H816 H 0.76394 0.06375 0.91294 0.0
H817 H 0.75435 0.10557 0.86195 0.0
H818 H 0.72913 0.03126 0.90397 0.0
H819 H 0.71965 0.07283 0.85293 0.0
H820 H 0.68613 0.98803 0.83678 0.0
H821 H 0.71929 0.02197 0.84595 0.0
H822 H 0.67796 0.03162 0.89708 0.0
H823 H 0.64445 0.9977 0.88782 0.0
C824 C 0.75443 0.06595 0.8998 0.0
C825 C 0.7619 0.08712 0.8881 0.0
C826 C 0.73439 0.04748 0.89475 0.0
C827 C 0.72171 0.04958 0.87779 0.0
C828 C 0.72924 0.07069 0.86605 0.0
C829 C 0.74902 0.08942 0.87122 0.0
C830 C 0.68407 0.99741 0.84997 0.0
C831 C 0.66275 0.99021 0.86161 0.0
C832 C 0.70296 0.01694 0.85516 0.0
C833 C 0.70114 0.02942 0.8722 0.0
C834 C 0.67988 0.02217 0.8839 0.0
C835 C 0.66069 0.00288 0.87859 0.0
H836 H 0.63499 0.98941 0.62276 0.0
H837 H 0.69479 0.02746 0.65704 0.0
H838 H 0.66796 0.95443 0.61452 0.0
H839 H 0.72735 0.99244 0.64916 0.0
H840 H 0.7873 0.94569 0.61421 0.0
H841 H 0.75351 0.97901 0.62298 0.0
H842 H 0.69344 0.91575 0.6273 0.0
H843 H 0.7274 0.88225 0.61815 0.0
C844 C 0.65513 0.99026 0.62854 0.0
C845 C 0.66237 0.01127 0.64043 0.0
C846 C 0.67393 0.97014 0.62395 0.0
C847 C 0.70031 0.9707 0.63115 0.0
C848 C 0.70736 0.99163 0.64315 0.0
C849 C 0.68864 0.01167 0.64771 0.0
C850 C 0.76693 0.93882 0.61713 0.0
C851 C 0.76001 0.91134 0.61553 0.0
C852 C 0.74757 0.95793 0.62223 0.0
C853 C 0.72077 0.95005 0.62587 0.0
C854 C 0.71385 0.9225 0.6244 0.0
C855 C 0.73332 0.9033 0.61932 0.0
H856 H 0.76651 0.88574 0.37524 0.0
H857 H 0.71502 0.94955 0.39567 0.0
H858 H 0.80031 0.91952 0.36637 0.0
H859 H 0.74869 0.98313 0.3869 0.0
H860 H 0.80221 0.03618 0.35052 0.0
H861 H 0.76871 0.002 0.35866 0.0
H862 H 0.8318 0.95239 0.38192 0.0
H863 H 0.86544 0.98662 0.3737 0.0
C864 C 0.76237 0.90696 0.37774 0.0
C865 C 0.73814 0.91503 0.38612 0.0
C866 C 0.78177 0.92624 0.37279 0.0
C867 C 0.77713 0.95394 0.37597 0.0
C868 C 0.75272 0.96197 0.38413 0.0
C869 C 0.73349 0.94272 0.3892 0.0
C870 C 0.80893 0.01802 0.35743 0.0
C871 C 0.83642 0.01409 0.36153 0.0
C872 C 0.78973 0.9985 0.36212 0.0
C873 C 0.79765 0.97452 0.3709 0.0
C874 C 0.82517 0.97055 0.37499 0.0
C875 C 0.84437 0.99022 0.37043 0.0
H876 H 0.74491 0.10258 0.1363 0.0
H877 H 0.73685 0.0636 0.08419 0.0
H878 H 0.77812 0.06832 0.14538 0.0
H879 H 0.77028 0.02965 0.0932 0.0
H880 H 0.85528 0.99637 0.11088 0.0
H881 H 0.82162 0.02999 0.10143 0.0
H882 H 0.77683 0.01625 0.15078 0.0
H883 H 0.81015 0.98246 0.16014 0.0
C884 C 0.75027 0.08673 0.1268 0.0
C885 C 0.7383 0.08567 0.10957 0.0
C886 C 0.76915 0.06712 0.13201 0.0
C887 C 0.77671 0.04642 0.11996 0.0
C888 C 0.76491 0.04552 0.10268 0.0
C889 C 0.74571 0.06484 0.09758 0.0
C890 C 0.83816 1.00045 0.11964 0.0
C891 C 0.83528 0.98681 0.13621 0.0
C892 C 0.81892 0.01959 0.11422 0.0
C893 C 0.79676 0.02572 0.12544 0.0
C894 C 0.79387 0.01204 0.14198 0.0
C895 C 0.81284 0.99261 0.14726 0.0
H896 H 0.71408 0.4487 0.60509 0.0
H897 H 0.76772 0.38436 0.622 0.0
H898 H 0.7477 0.48216 0.61411 0.0
H899 H 0.80148 0.41804 0.63113 0.0
H900 H 0.86492 0.48712 0.62467 0.0
H901 H 0.83159 0.45274 0.61613 0.0
H902 H 0.76877 0.49918 0.64246 0.0
H903 H 0.80193 0.53349 0.6509 0.0
C904 C 0.73302 0.44171 0.61083 0.0
C905 C 0.73827 0.41392 0.61287 0.0
C906 C 0.75223 0.46089 0.61606 0.0
C907 C 0.77721 0.45272 0.62332 0.0
C908 C 0.78248 0.4249 0.62542 0.0
C909 C 0.76311 0.40566 0.62032 0.0
C910 C 0.84397 0.48999 0.62856 0.0
C911 C 0.83599 0.51302 0.63838 0.0
C912 C 0.82496 0.47023 0.6238 0.0
C913 C 0.79759 0.47328 0.62864 0.0
C914 C 0.78966 0.4964 0.63839 0.0
C915 C 0.80867 0.516 0.64326 0.0
H916 H 0.80292 0.46465 0.85333 0.0
H917 H 0.8662 0.51542 0.8752 0.0
H918 H 0.76917 0.49843 0.86188 0.0
H919 H 0.83235 0.54925 0.88379 0.0
H920 H 0.76667 0.61516 0.8761 0.0
H921 H 0.80041 0.58111 0.86772 0.0
H922 H 0.7496 0.51839 0.89019 0.0
H923 H 0.7159 0.55234 0.89853 0.0
C924 C 0.80959 0.48297 0.86006 0.0
C925 C 0.83717 0.48742 0.86361 0.0
C926 C 0.79026 0.50225 0.865 0.0
C927 C 0.79816 0.52648 0.87345 0.0
C928 C 0.82574 0.53086 0.87711 0.0
C929 C 0.84506 0.51144 0.87232 0.0
C930 C 0.76269 0.59409 0.87916 0.0
C931 C 0.73867 0.58638 0.88794 0.0
C932 C 0.78206 0.57465 0.87449 0.0
C933 C 0.77765 0.54713 0.87836 0.0
C934 C 0.75345 0.53943 0.88693 0.0
C935 C 0.73421 0.55887 0.89174 0.0
H936 H 0.75211 0.60787 0.13743 0.0
H937 H 0.76395 0.56459 0.0872 0.0
H938 H 0.71741 0.575 0.14635 0.0
H939 H 0.72895 0.53214 0.09599 0.0
H940 H 0.64297 0.49983 0.11193 0.0
H941 H 0.67623 0.53414 0.10282 0.0
H942 H 0.71909 0.52252 0.15317 0.0
H943 H 0.68633 0.48799 0.16213 0.0
C944 C 0.74722 0.59141 0.1283 0.0
C945 C 0.76077 0.58866 0.11168 0.0
C946 C 0.72745 0.57264 0.1334 0.0
C947 C 0.72053 0.55117 0.1218 0.0
C948 C 0.7338 0.54866 0.10508 0.0
C949 C 0.75391 0.5671 0.10014 0.0
C950 C 0.6595 0.50466 0.12102 0.0
C951 C 0.66217 0.49123 0.13768 0.0
C952 C 0.6785 0.52417 0.1158 0.0
C953 C 0.7001 0.53093 0.12734 0.0
C954 C 0.70249 0.51779 0.14411 0.0
C955 C 0.68385 0.49795 0.14916 0.0
H956 H 0.73468 0.38516 0.37595 0.0
H957 H 0.78518 0.45003 0.39592 0.0
H958 H 0.7002 0.41829 0.36706 0.0
H959 H 0.75081 0.48291 0.38725 0.0
H960 H 0.69798 0.53515 0.35058 0.0
H961 H 0.73132 0.50125 0.35923 0.0
H962 H 0.66775 0.45109 0.3813 0.0
H963 H 0.63413 0.48513 0.37244 0.0
C964 C 0.73843 0.40646 0.37839 0.0
C965 C 0.76266 0.41502 0.38655 0.0
C966 C 0.71862 0.42538 0.37344 0.0
C967 C 0.72281 0.4532 0.37644 0.0
C968 C 0.74711 0.46166 0.38455 0.0
C969 C 0.76677 0.4428 0.38958 0.0
C970 C 0.69108 0.51694 0.35733 0.0
C971 C 0.66344 0.51284 0.3609 0.0
C972 C 0.71021 0.49755 0.36234 0.0
C973 C 0.70218 0.47352 0.37098 0.0
C974 C 0.67451 0.46932 0.37451 0.0
C975 C 0.65531 0.48886 0.36957 0.0
H976 H 0.13469 0.51669 0.37281 0.0
H977 H 0.19973 0.46694 0.3522 0.0
H978 H 0.16762 0.55138 0.38164 0.0
H979 H 0.23241 0.50149 0.36084 0.0
H980 H 0.28466 0.55473 0.39728 0.0
H981 H 0.25094 0.52106 0.38888 0.0
H982 H 0.19989 0.58416 0.36706 0.0
H983 H 0.23373 0.61809 0.37565 0.0
C984 C 0.15599 0.51314 0.37023 0.0
C985 C 0.16465 0.48908 0.36188 0.0
C986 C 0.17479 0.53306 0.37515 0.0
C987 C 0.20259 0.52914 0.37194 0.0
C988 C 0.21117 0.50498 0.36368 0.0
C989 C 0.19242 0.48522 0.35868 0.0
C990 C 0.26629 0.56146 0.39064 0.0
C991 C 0.26187 0.58905 0.38706 0.0
C992 C 0.24701 0.54214 0.38578 0.0
C993 C 0.22278 0.54995 0.37728 0.0
C994 C 0.21827 0.57757 0.37374 0.0
C995 C 0.2377 0.59695 0.37853 0.0
H996 H 0.28574 0.4479 0.10213 0.0
H997 H 0.23618 0.38504 0.12569 0.0
H998 H 0.25171 0.48157 0.11019 0.0
H999 H 0.20214 0.41887 0.13393 0.0
H1000 H 0.13528 0.48365 0.12672 0.0
H1001 H 0.16919 0.44962 0.1185 0.0
H1002 H 0.23261 0.5026 0.13765 0.0
H1003 H 0.1989 0.53656 0.14569 0.0
C1004 C 0.26765 0.44131 0.10916 0.0
C1005 C 0.26363 0.41385 0.11332 0.0
C1006 C 0.2482 0.46061 0.11381 0.0
C1007 C 0.22423 0.45285 0.12266 0.0
C1008 C 0.22027 0.42539 0.12693 0.0
C1009 C 0.23985 0.40608 0.12236 0.0
C1010 C 0.15648 0.48803 0.12907 0.0
C1011 C 0.16446 0.51276 0.1368 0.0
C1012 C 0.17586 0.4685 0.1245 0.0
C1013 C 0.20355 0.47344 0.12747 0.0
C1014 C 0.21147 0.49831 0.13503 0.0
C1015 C 0.19214 0.51771 0.13969 0.0
H1016 H 0.30379 0.53415 0.85021 0.0
H1017 H 0.36656 0.48475 0.8741 0.0
H1018 H 0.26999 0.50039 0.85867 0.0
H1019 H 0.33266 0.45094 0.88257 0.0
H1020 H 0.26765 0.38431 0.87518 0.0
H1021 H 0.30142 0.41817 0.86653 0.0
H1022 H 0.24964 0.48158 0.88716 0.0
H1023 H 0.21594 0.44784 0.89578 0.0
C1024 C 0.31033 0.51612 0.85734 0.0
C1025 C 0.33779 0.51207 0.86152 0.0
C1026 C 0.29098 0.49686 0.86222 0.0
C1027 C 0.29872 0.47302 0.87123 0.0
C1028 C 0.32618 0.469 0.87546 0.0
C1029 C 0.34552 0.48842 0.87074 0.0
C1030 C 0.26346 0.4055 0.87777 0.0
C1031 C 0.23918 0.41346 0.88613 0.0
C1032 C 0.28285 0.42483 0.87295 0.0
C1033 C 0.27816 0.45248 0.87623 0.0
C1034 C 0.2537 0.46043 0.88434 0.0
C1035 C 0.23446 0.44111 0.88932 0.0
H1036 H 0.3165 0.49152 0.66336 0.0
H1037 H 0.35307 0.49407 0.61024 0.0
H1038 H 0.28355 0.52563 0.654 0.0
H1039 H 0.31992 0.52817 0.60085 0.0
H1040 H 0.23454 0.56153 0.5865 0.0
H1041 H 0.26904 0.52906 0.59587 0.0
H1042 H 0.28301 0.57528 0.64463 0.0
H1043 H 0.24846 0.60801 0.6352 0.0
C1044 C 0.31748 0.49937 0.64968 0.0
C1045 C 0.33729 0.49009 0.6375 0.0
C1046 C 0.29874 0.51902 0.64438 0.0
C1047 C 0.29922 0.52954 0.62672 0.0
C1048 C 0.31901 0.52024 0.61451 0.0
C1049 C 0.33799 0.50081 0.61989 0.0
C1050 C 0.24498 0.56479 0.59922 0.0
C1051 C 0.23878 0.58726 0.61016 0.0
C1052 C 0.26484 0.5463 0.60451 0.0
C1053 C 0.27871 0.54969 0.62095 0.0
C1054 C 0.27248 0.57212 0.63194 0.0
C1055 C 0.25281 0.59086 0.62652 0.0
H1056 H 0.35761 0.13139 0.11195 0.0
H1057 H 0.3665 0.16075 0.16673 0.0
H1058 H 0.34327 0.17624 0.10217 0.0
H1059 H 0.35272 0.20596 0.15686 0.0
H1060 H 0.30548 0.27901 0.13508 0.0
H1061 H 0.315 0.23287 0.14529 0.0
H1062 H 0.36444 0.21973 0.0978 0.0
H1063 H 0.35447 0.26543 0.08747 0.0
C1064 C 0.35642 0.14744 0.12192 0.0
C1065 C 0.36331 0.1426 0.14009 0.0
C1066 C 0.34836 0.1732 0.1163 0.0
C1067 C 0.34709 0.19477 0.12869 0.0
C1068 C 0.35326 0.18974 0.147 0.0
C1069 C 0.36128 0.16389 0.15264 0.0
C1070 C 0.31823 0.26615 0.12679 0.0
C1071 C 0.32919 0.2758 0.11046 0.0
C1072 C 0.32381 0.2398 0.13269 0.0
C1073 C 0.34044 0.22258 0.12235 0.0
C1074 C 0.35119 0.23227 0.10595 0.0
C1075 C 0.34561 0.25854 0.10007 0.0
H1076 H 0.11827 0.10607 0.36342 0.0
H1077 H 0.08845 0.11976 0.41765 0.0
H1078 H 0.07308 0.09259 0.35378 0.0
H1079 H 0.04297 0.10679 0.40791 0.0
H1080 H 0.96897 0.05985 0.38685 0.0
H1081 H 0.01517 0.06885 0.39721 0.0
H1082 H 0.03029 0.11519 0.34862 0.0
H1083 H 0.98454 0.10581 0.33818 0.0
C1084 C 0.10205 0.10613 0.3733 0.0
C1085 C 0.10686 0.11412 0.39127 0.0
C1086 C 0.07612 0.09855 0.36775 0.0
C1087 C 0.05436 0.09884 0.38003 0.0
C1088 C 0.05933 0.10613 0.39815 0.0
C1089 C 0.08534 0.11369 0.40371 0.0
C1090 C 0.98226 0.07184 0.37838 0.0
C1091 C 0.97317 0.08209 0.3617 0.0
C1092 C 0.00865 0.07712 0.38435 0.0
C1093 C 0.02645 0.09267 0.37372 0.0
C1094 C 0.01728 0.10277 0.357 0.0
C1095 C 0.99098 0.09754 0.35107 0.0
H1096 H 0.13185 0.83736 0.66712 0.0
H1097 H 0.13913 0.86511 0.61186 0.0
H1098 H 0.14441 0.79157 0.6575 0.0
H1099 H 0.15196 0.81971 0.60234 0.0
H1100 H 0.13899 0.73064 0.58873 0.0
H1101 H 0.12899 0.7762 0.59935 0.0
H1102 H 0.18256 0.76439 0.64492 0.0
H1103 H 0.19236 0.71838 0.63435 0.0
C1104 C 0.13633 0.83373 0.65297 0.0
C1105 C 0.13433 0.85477 0.64023 0.0
C1106 C 0.14365 0.80756 0.64747 0.0
C1107 C 0.14898 0.80197 0.62913 0.0
C1108 C 0.14755 0.82324 0.61651 0.0
C1109 C 0.14033 0.8493 0.622 0.0
C1110 C 0.1487 0.73774 0.601 0.0
C1111 C 0.16652 0.72095 0.61068 0.0
C1112 C 0.14307 0.76392 0.60704 0.0
C1113 C 0.15509 0.77398 0.62293 0.0
C1114 C 0.17284 0.75714 0.6327 0.0
C1115 C 0.17856 0.73089 0.6266 0.0
H1116 H 0.52879 0.94708 0.88414 0.0
H1117 H 0.51923 0.88974 0.84042 0.0
H1118 H 0.4825 0.93752 0.8942 0.0
H1119 H 0.47343 0.87994 0.85056 0.0
H1120 H 0.38406 0.88759 0.86166 0.0
H1121 H 0.4292 0.90139 0.85213 0.0
H1122 H 0.45591 0.90036 0.90784 0.0
H1123 H 0.41044 0.88695 0.91744 0.0
C1124 C 0.5168 0.93248 0.87669 0.0
C1125 C 0.5276 0.91921 0.86147 0.0
C1126 C 0.49038 0.9269 0.8825 0.0
C1127 C 0.47423 0.90806 0.87313 0.0
C1128 C 0.48513 0.89489 0.8579 0.0
C1129 C 0.51147 0.90039 0.85215 0.0
C1130 C 0.3995 0.89048 0.8719 0.0
C1131 C 0.39375 0.88603 0.89029 0.0
C1132 C 0.42542 0.89826 0.86643 0.0
C1133 C 0.44623 0.90174 0.87921 0.0
C1134 C 0.44028 0.89804 0.89768 0.0
C1135 C 0.41428 0.89023 0.90316 0.0
H1136 H 0.35673 0.73538 0.40984 0.0
H1137 H 0.30538 0.72191 0.36335 0.0
H1138 H 0.3656 0.78133 0.3996 0.0
H1139 H 0.31388 0.76833 0.3532 0.0
H1140 H 0.36424 0.84113 0.33122 0.0
H1141 H 0.35096 0.7958 0.34103 0.0
H1142 H 0.34346 0.82473 0.39604 0.0
H1143 H 0.35724 0.86982 0.38629 0.0
C1144 C 0.34716 0.74232 0.39748 0.0
C1145 C 0.33036 0.72502 0.38739 0.0
C1146 C 0.3521 0.76875 0.39167 0.0
C1147 C 0.34034 0.77859 0.37562 0.0
C1148 C 0.32343 0.7613 0.36554 0.0
C1149 C 0.31845 0.73478 0.37139 0.0
C1150 C 0.35951 0.83783 0.34538 0.0
C1151 C 0.36196 0.85897 0.35801 0.0
C1152 C 0.35178 0.81189 0.35098 0.0
C1153 C 0.34636 0.80657 0.36935 0.0
C1154 C 0.34796 0.82801 0.38185 0.0
C1155 C 0.35569 0.8539 0.37625 0.0
H1156 H 0.38425 0.11172 0.63715 0.0
H1157 H 0.41267 0.11972 0.58208 0.0
H1158 H 0.4295 0.09849 0.64679 0.0
H1159 H 0.45826 0.1069 0.59182 0.0
H1160 H 0.53167 0.05957 0.61437 0.0
H1161 H 0.4856 0.06919 0.60389 0.0
H1162 H 0.4729 0.12077 0.6504 0.0
H1163 H 0.51848 0.11085 0.66095 0.0
C1164 C 0.40017 0.1106 0.62709 0.0
C1165 C 0.39494 0.11691 0.60887 0.0
C1166 C 0.42616 0.10316 0.63264 0.0
C1167 C 0.44757 0.10187 0.62011 0.0
C1168 C 0.44218 0.10751 0.60178 0.0
C1169 C 0.41611 0.11498 0.59622 0.0
C1170 C 0.51895 0.07288 0.62235 0.0
C1171 C 0.52865 0.08439 0.6385 0.0
C1172 C 0.49264 0.07851 0.61631 0.0
C1173 C 0.47553 0.09565 0.62635 0.0
C1174 C 0.48536 0.10712 0.64249 0.0
C1175 C 0.51157 0.10155 0.64849 0.0
H1176 H 0.13162 0.16185 0.83125 0.0
H1177 H 0.14259 0.13225 0.88581 0.0
H1178 H 0.14524 0.20714 0.84106 0.0
H1179 H 0.15672 0.17719 0.89551 0.0
H1180 H 0.14617 0.26616 0.9107 0.0
H1181 H 0.13553 0.22067 0.90027 0.0
H1182 H 0.18354 0.23394 0.85215 0.0
H1183 H 0.19377 0.2799 0.86249 0.0
C1184 C 0.13719 0.16497 0.84529 0.0
C1185 C 0.13587 0.14356 0.85779 0.0
C1186 C 0.14513 0.19087 0.85089 0.0
C1187 C 0.15191 0.19583 0.8691 0.0
C1188 C 0.15118 0.17419 0.88146 0.0
C1189 C 0.14322 0.14838 0.87588 0.0
C1190 C 0.15455 0.25936 0.89792 0.0
C1191 C 0.17082 0.27659 0.88742 0.0
C1192 C 0.14858 0.23321 0.89198 0.0
C1193 C 0.15877 0.2236 0.8754 0.0
C1194 C 0.17516 0.24082 0.8649 0.0
C1195 C 0.18116 0.26706 0.87087 0.0
H1196 H 0.08896 0.88948 0.08203 0.0
H1197 H 0.11933 0.89669 0.13668 0.0
H1198 H 0.04409 0.90359 0.0924 0.0
H1199 H 0.07479 0.91127 0.14696 0.0
H1200 H 0.98548 0.89871 0.16175 0.0
H1201 H 0.03122 0.88955 0.15113 0.0
H1202 H 0.01774 0.94148 0.1049 0.0
H1203 H 0.9716 0.9503 0.11543 0.0
C1204 C 0.08612 0.89442 0.0962 0.0
C1205 C 0.10757 0.89178 0.10856 0.0
C1206 C 0.06048 0.90263 0.10213 0.0
C1207 C 0.05583 0.90835 0.12054 0.0
C1208 C 0.07758 0.90655 0.13275 0.0
C1209 C 0.10314 0.89834 0.12684 0.0
C1210 C 0.99232 0.90832 0.14938 0.0
C1211 C 0.97496 0.9252 0.13941 0.0
C1212 C 0.0186 0.9032 0.14334 0.0
C1213 C 0.02816 0.91483 0.12718 0.0
C1214 C 0.01089 0.932 0.11731 0.0
C1215 C 0.98455 0.93719 0.12339 0.0
H1216 H 0.69431 0.71969 0.86315 0.0
H1217 H 0.64851 0.73547 0.91187 0.0
H1218 H 0.68529 0.76587 0.85274 0.0
H1219 H 0.63913 0.78121 0.90139 0.0
H1220 H 0.64752 0.86907 0.88625 0.0
H1221 H 0.66162 0.82409 0.89599 0.0
H1222 H 0.647 0.79334 0.84208 0.0
H1223 H 0.63337 0.83859 0.83224 0.0
C1224 C 0.68237 0.73303 0.87163 0.0
C1225 C 0.67214 0.724 0.88833 0.0
C1226 C 0.67709 0.7594 0.86564 0.0
C1227 C 0.66155 0.77725 0.87626 0.0
C1228 C 0.65153 0.76816 0.89301 0.0
C1229 C 0.65676 0.74186 0.89897 0.0
C1230 C 0.64753 0.85276 0.87644 0.0
C1231 C 0.6392 0.85731 0.85851 0.0
C1232 C 0.65547 0.82695 0.88204 0.0
C1233 C 0.6552 0.80507 0.86986 0.0
C1234 C 0.64765 0.8098 0.85176 0.0
C1235 C 0.63972 0.83568 0.84615 0.0
H1236 H 0.03777 0.91985 0.60799 0.0
H1237 H 0.01081 0.92201 0.66355 0.0
H1238 H 0.99197 0.90843 0.5982 0.0
H1239 H 0.96479 0.91238 0.65387 0.0
H1240 H 0.89303 0.86401 0.63485 0.0
H1241 H 0.93848 0.8771 0.6437 0.0
H1242 H 0.94726 0.92191 0.59367 0.0
H1243 H 0.90211 0.90717 0.58441 0.0
C1244 C 0.02189 0.91835 0.61806 0.0
C1245 C 0.02782 0.92156 0.63652 0.0
C1246 C 0.99556 0.91195 0.61247 0.0
C1247 C 0.97451 0.90915 0.62522 0.0
C1248 C 0.98047 0.91352 0.64365 0.0
C1249 C 0.00684 0.91931 0.64923 0.0
C1250 C 0.90468 0.87669 0.62576 0.0
C1251 C 0.89406 0.88463 0.60897 0.0
C1252 C 0.93075 0.88444 0.63089 0.0
C1253 C 0.94669 0.90088 0.61952 0.0
C1254 C 0.93586 0.90895 0.60271 0.0
C1255 C 0.90991 0.90069 0.59742 0.0
H1256 H 0.85905 0.27033 0.41007 0.0
H1257 H 0.80844 0.28376 0.36321 0.0
H1258 H 0.8684 0.2245 0.39978 0.0
H1259 H 0.81738 0.23743 0.35302 0.0
H1260 H 0.86681 0.16377 0.33152 0.0
H1261 H 0.85424 0.20948 0.3411 0.0
H1262 H 0.84632 0.1813 0.39625 0.0
H1263 H 0.85944 0.13593 0.38674 0.0
C1264 C 0.84975 0.26341 0.39761 0.0
C1265 C 0.83298 0.28065 0.38746 0.0
C1266 C 0.85498 0.23704 0.39176 0.0
C1267 C 0.84351 0.22719 0.37562 0.0
C1268 C 0.82671 0.24446 0.36544 0.0
C1269 C 0.82147 0.27093 0.37131 0.0
C1270 C 0.86221 0.16736 0.34566 0.0
C1271 C 0.8643 0.14633 0.3584 0.0
C1272 C 0.85487 0.1935 0.35114 0.0
C1273 C 0.84948 0.19911 0.36948 0.0
C1274 C 0.85083 0.17781 0.38209 0.0
C1275 C 0.8582 0.15176 0.37662 0.0
H1276 H 0.61908 0.10588 0.13526 0.0
H1277 H 0.59017 0.11348 0.08028 0.0
H1278 H 0.57416 0.09177 0.14502 0.0
H1279 H 0.54491 0.09975 0.09013 0.0
H1280 H 0.47169 0.05297 0.11318 0.0
H1281 H 0.51791 0.06174 0.10269 0.0
H1282 H 0.53079 0.11481 0.14842 0.0
H1283 H 0.48502 0.1058 0.15896 0.0
C1284 C 0.60314 0.1044 0.12524 0.0
C1285 C 0.60808 0.11098 0.10703 0.0
C1286 C 0.57737 0.09645 0.13085 0.0
C1287 C 0.55591 0.09492 0.11839 0.0
C1288 C 0.56106 0.10056 0.10003 0.0
C1289 C 0.58693 0.10854 0.09441 0.0
C1290 C 0.4845 0.06638 0.12101 0.0
C1291 C 0.47478 0.07867 0.1369 0.0
C1292 C 0.51088 0.07151 0.11496 0.0
C1293 C 0.52804 0.08888 0.12477 0.0
C1294 C 0.51826 0.10099 0.14071 0.0
C1295 C 0.49195 0.09596 0.14669 0.0
H1296 H 0.69088 0.28491 0.63822 0.0
H1297 H 0.64859 0.26676 0.58847 0.0
H1298 H 0.68219 0.2388 0.64896 0.0
H1299 H 0.63948 0.22119 0.59926 0.0
H1300 H 0.6484 0.134 0.61529 0.0
H1301 H 0.66224 0.17905 0.60558 0.0
H1302 H 0.64442 0.21031 0.65894 0.0
H1303 H 0.63115 0.16496 0.66877 0.0
C1304 C 0.67976 0.27109 0.6296 0.0
C1305 C 0.67046 0.27943 0.61249 0.0
C1306 C 0.67466 0.24474 0.63577 0.0
C1307 C 0.66024 0.22625 0.62494 0.0
C1308 C 0.65107 0.23471 0.60783 0.0
C1309 C 0.65613 0.26093 0.60168 0.0
C1310 C 0.64764 0.15044 0.62499 0.0
C1311 C 0.63851 0.14599 0.64275 0.0
C1312 C 0.65544 0.1763 0.61941 0.0
C1313 C 0.65417 0.19837 0.63143 0.0
C1314 C 0.64584 0.19374 0.64938 0.0
C1315 C 0.6381 0.16779 0.65499 0.0
H1316 H 0.47033 0.87585 0.35852 0.0
H1317 H 0.48145 0.96078 0.37037 0.0
H1318 H 0.51548 0.86615 0.37054 0.0
H1319 H 0.52712 0.95105 0.38189 0.0
H1320 H 0.61796 0.91454 0.37277 0.0
H1321 H 0.57193 0.92765 0.36393 0.0
H1322 H 0.53919 0.87418 0.40459 0.0
H1323 H 0.5852 0.86162 0.41386 0.0
C1324 C 0.48247 0.89243 0.36366 0.0
C1325 C 0.47248 0.91907 0.36351 0.0
C1326 C 0.50817 0.88685 0.3706 0.0
C1327 C 0.52457 0.90788 0.37713 0.0
C1328 C 0.51472 0.93456 0.37691 0.0
C1329 C 0.48869 0.94007 0.37037 0.0
C1330 C 0.60092 0.90586 0.37996 0.0
C1331 C 0.60506 0.88706 0.39398 0.0
C1332 C 0.57469 0.91344 0.37496 0.0
C1333 C 0.55221 0.90186 0.3836 0.0
C1334 C 0.55631 0.88333 0.39776 0.0
C1335 C 0.58255 0.87624 0.40306 0.0
H1336 H 0.82852 0.71435 0.14121 0.0
H1337 H 0.83051 0.74106 0.08558 0.0
H1338 H 0.83992 0.76007 0.15125 0.0
H1339 H 0.84035 0.78695 0.09548 0.0
H1340 H 0.88989 0.85705 0.11597 0.0
H1341 H 0.87627 0.81184 0.10694 0.0
H1342 H 0.82636 0.80548 0.1549 0.0
H1343 H 0.84136 0.8505 0.16439 0.0
C1344 C 0.83095 0.73015 0.13117 0.0
C1345 C 0.8289 0.72416 0.11263 0.0
C1346 C 0.83735 0.75641 0.1369 0.0
C1347 C 0.8414 0.7773 0.12419 0.0
C1348 C 0.83818 0.77134 0.10567 0.0
C1349 C 0.8323 0.74505 0.09996 0.0
C1350 C 0.87597 0.84601 0.12458 0.0
C1351 C 0.86662 0.8573 0.14086 0.0
C1352 C 0.86794 0.8201 0.11933 0.0
C1353 C 0.84991 0.80494 0.13006 0.0
C1354 C 0.84049 0.81635 0.14638 0.0
C1355 C 0.84893 0.8422 0.15179 0.0
H1356 H 0.03105 0.05398 0.88474 0.0
H1357 H 0.01756 0.10598 0.83858 0.0
H1358 H 0.98476 0.06265 0.89509 0.0
H1359 H 0.97174 0.11502 0.84902 0.0
H1360 H 0.88332 0.10637 0.8622 0.0
H1361 H 0.92843 0.0928 0.85243 0.0
H1362 H 0.95719 0.09956 0.90752 0.0
H1363 H 0.91176 0.11263 0.91736 0.0
C1364 C 0.0182 0.06724 0.87682 0.0
C1365 C 0.0279 0.07926 0.86083 0.0
C1366 C 0.99176 0.07231 0.88278 0.0
C1367 C 0.97449 0.08944 0.87284 0.0
C1368 C 0.9843 0.10135 0.85684 0.0
C1369 C 0.01065 0.09631 0.85091 0.0
C1370 C 0.8992 0.10472 0.87226 0.0
C1371 C 0.89404 0.11071 0.89054 0.0
C1372 C 0.92511 0.0971 0.86665 0.0
C1373 C 0.94651 0.09537 0.87916 0.0
C1374 C 0.94112 0.10051 0.89755 0.0
C1375 C 0.91514 0.10811 0.90319 0.0
H1376 H 0.7896 0.77155 0.62286 0.0
H1377 H 0.87318 0.7801 0.60661 0.0
H1378 H 0.79942 0.72576 0.63423 0.0
H1379 H 0.88302 0.73491 0.61848 0.0
H1380 H 0.89003 0.66709 0.66337 0.0
H1381 H 0.87714 0.71292 0.65393 0.0
H1382 H 0.82105 0.67948 0.61515 0.0
H1383 H 0.8345 0.63357 0.62414 0.0
C1384 C 0.81003 0.76371 0.62183 0.0
C1385 C 0.83062 0.77926 0.61381 0.0
C1386 C 0.8156 0.73762 0.62829 0.0
C1387 C 0.84196 0.72707 0.62725 0.0
C1388 C 0.86258 0.74276 0.6195 0.0
C1389 C 0.8569 0.76849 0.61265 0.0
C1390 C 0.87477 0.66954 0.65295 0.0
C1391 C 0.86331 0.64684 0.64443 0.0
C1392 C 0.86748 0.69568 0.64756 0.0
C1393 C 0.84812 0.69953 0.63388 0.0
C1394 C 0.83591 0.6769 0.62581 0.0
C1395 C 0.84367 0.65074 0.6309 0.0
H1396 H 0.61897 0.60941 0.86279 0.0
H1397 H 0.59007 0.61694 0.91777 0.0
H1398 H 0.57406 0.5953 0.85302 0.0
H1399 H 0.54478 0.60342 0.90791 0.0
H1400 H 0.47185 0.55605 0.88561 0.0
H1401 H 0.51786 0.56586 0.89602 0.0
H1402 H 0.53055 0.6165 0.84905 0.0
H1403 H 0.48505 0.60625 0.83853 0.0
C1404 C 0.603 0.60801 0.8728 0.0
C1405 C 0.60799 0.61443 0.89103 0.0
C1406 C 0.57721 0.60007 0.86719 0.0
C1407 C 0.55575 0.59848 0.87965 0.0
C1408 C 0.56091 0.60422 0.89799 0.0
C1409 C 0.5868 0.61211 0.90363 0.0
C1410 C 0.48457 0.56916 0.8775 0.0
C1411 C 0.47489 0.58032 0.86124 0.0
C1412 C 0.51085 0.57491 0.8835 0.0
C1413 C 0.52793 0.59189 0.87333 0.0
C1414 C 0.51814 0.60296 0.85706 0.0
C1415 C 0.49197 0.59722 0.85108 0.0
H1416 H 0.63117 0.33769 0.16747 0.0
H1417 H 0.64629 0.36783 0.11348 0.0
H1418 H 0.64457 0.29221 0.15771 0.0
H1419 H 0.65987 0.32267 0.10384 0.0
H1420 H 0.64529 0.23416 0.08815 0.0
H1421 H 0.63566 0.27974 0.09892 0.0
H1422 H 0.6842 0.26502 0.14658 0.0
H1423 H 0.69373 0.21904 0.1358 0.0
C1424 C 0.6376 0.33465 0.15359 0.0
C1425 C 0.6375 0.35626 0.14121 0.0
C1426 C 0.64539 0.30867 0.14803 0.0
C1427 C 0.65307 0.30384 0.12997 0.0
C1428 C 0.65366 0.32566 0.11777 0.0
C1429 C 0.64599 0.35156 0.12332 0.0
C1430 C 0.654 0.24064 0.1009 0.0
C1431 C 0.67031 0.22305 0.11112 0.0
C1432 C 0.6486 0.26682 0.10702 0.0
C1433 C 0.65927 0.27602 0.12356 0.0
C1434 C 0.67556 0.25842 0.13384 0.0
C1435 C 0.68113 0.23219 0.12763 0.0
H1436 H 0.8861 0.3966 0.36358 0.0
H1437 H 0.91497 0.38244 0.41798 0.0
H1438 H 0.93158 0.40943 0.35422 0.0
H1439 H 0.96081 0.39471 0.40849 0.0
H1440 H 0.03604 0.44053 0.38746 0.0
H1441 H 0.98979 0.43183 0.39797 0.0
H1442 H 0.97382 0.3863 0.34914 0.0
H1443 H 0.01949 0.39542 0.33857 0.0
C1444 C 0.90218 0.39628 0.37356 0.0
C1445 C 0.897 0.38835 0.39149 0.0
C1446 C 0.9283 0.40348 0.36817 0.0
C1447 C 0.94993 0.40282 0.38055 0.0
C1448 C 0.94459 0.39563 0.39864 0.0
C1449 C 0.91837 0.38847 0.40406 0.0
C1450 C 0.02255 0.42875 0.37899 0.0
C1451 C 0.03135 0.41875 0.36217 0.0
C1452 C 0.99613 0.42365 0.38504 0.0
C1453 C 0.97803 0.40851 0.37434 0.0
C1454 C 0.98701 0.39847 0.35757 0.0
C1455 C 0.01329 0.40356 0.35155 0.0
H1456 H 0.86462 0.36638 0.88813 0.0
H1457 H 0.86328 0.34068 0.83222 0.0
H1458 H 0.85102 0.32118 0.89762 0.0
H1459 H 0.85014 0.29511 0.84176 0.0
H1460 H 0.80409 0.22209 0.86564 0.0
H1461 H 0.8135 0.26845 0.85571 0.0
H1462 H 0.8722 0.27692 0.89873 0.0
H1463 H 0.86249 0.23106 0.90878 0.0
C1464 C 0.86135 0.35107 0.87786 0.0
C1465 C 0.86518 0.35702 0.85944 0.0
C1466 C 0.8537 0.32511 0.8833 0.0
C1467 C 0.84974 0.30446 0.87046 0.0
C1468 C 0.85283 0.31062 0.85198 0.0
C1469 C 0.86049 0.33666 0.84652 0.0
C1470 C 0.81891 0.23396 0.87298 0.0
C1471 C 0.8325 0.22299 0.88801 0.0
C1472 C 0.8244 0.26042 0.86724 0.0
C1473 C 0.84351 0.27642 0.87647 0.0
C1474 C 0.85703 0.26534 0.8915 0.0
C1475 C 0.85158 0.23897 0.8972 0.0
H1476 H 0.03318 0.5595 0.11159 0.0
H1477 H 0.01694 0.60436 0.16064 0.0
H1478 H 0.98699 0.56859 0.10111 0.0
H1479 H 0.97121 0.61369 0.15014 0.0
H1480 H 0.88348 0.60364 0.1353 0.0
H1481 H 0.92876 0.59002 0.14463 0.0
H1482 H 0.95878 0.60726 0.0909 0.0
H1483 H 0.91316 0.62053 0.08145 0.0
C1484 C 0.01974 0.57124 0.12013 0.0
C1485 C 0.02864 0.58116 0.13695 0.0
C1486 C 0.99338 0.57656 0.11409 0.0
C1487 C 0.97539 0.59176 0.12483 0.0
C1488 C 0.98438 0.60155 0.14167 0.0
C1489 C 0.01066 0.59633 0.14764 0.0
C1490 C 0.89968 0.60433 0.12542 0.0
C1491 C 0.89481 0.61333 0.10768 0.0
C1492 C 0.92566 0.59666 0.1308 0.0
C1493 C 0.94743 0.59783 0.11856 0.0
C1494 C 0.94241 0.60598 0.10061 0.0
C1495 C 0.91633 0.61369 0.09523 0.0
H1496 H 0.64537 0.63498 0.38458 0.0
H1497 H 0.63135 0.6647 0.33037 0.0
H1498 H 0.65907 0.68012 0.39413 0.0
H1499 H 0.64447 0.71021 0.34005 0.0
H1500 H 0.69146 0.78448 0.36115 0.0
H1501 H 0.68211 0.7384 0.35056 0.0
H1502 H 0.63684 0.7227 0.39952 0.0
H1503 H 0.64662 0.76819 0.41018 0.0
C1504 C 0.64526 0.65118 0.37469 0.0
C1505 C 0.63712 0.64634 0.35675 0.0
C1506 C 0.65297 0.6771 0.38018 0.0
C1507 C 0.65261 0.69887 0.36791 0.0
C1508 C 0.64518 0.69387 0.34981 0.0
C1509 C 0.63752 0.66784 0.34429 0.0
C1510 C 0.67962 0.77108 0.36964 0.0
C1511 C 0.66985 0.77991 0.38652 0.0
C1512 C 0.67414 0.74476 0.36354 0.0
C1513 C 0.65884 0.7268 0.37423 0.0
C1514 C 0.64911 0.73578 0.39109 0.0
C1515 C 0.65458 0.76196 0.39716 0.0
H1516 H 0.61717 0.41264 0.62671 0.0
H1517 H 0.58474 0.36203 0.58422 0.0
H1518 H 0.57115 0.42598 0.63532 0.0
H1519 H 0.5387 0.37488 0.59318 0.0
H1520 H 0.46756 0.37527 0.63667 0.0
H1521 H 0.51282 0.36552 0.62495 0.0
H1522 H 0.52805 0.45113 0.61919 0.0
H1523 H 0.4823 0.46099 0.6305 0.0
C1524 C 0.60021 0.40451 0.61916 0.0
C1525 C 0.60445 0.38627 0.60483 0.0
C1526 C 0.57396 0.41224 0.62403 0.0
C1527 C 0.55152 0.40141 0.6149 0.0
C1528 C 0.55575 0.38344 0.60042 0.0
C1529 C 0.58202 0.37618 0.59528 0.0
C1530 C 0.48051 0.39201 0.63281 0.0
C1531 C 0.4715 0.41888 0.6345 0.0
C1532 C 0.50629 0.38642 0.62603 0.0
C1533 C 0.52377 0.40759 0.62116 0.0
C1534 C 0.51486 0.43449 0.62288 0.0
C1535 C 0.48876 0.4401 0.62929 0.0
H1536 H 0.16599 0.3664 0.37538 0.0
H1537 H 0.11293 0.33421 0.33417 0.0
H1538 H 0.17889 0.32022 0.38405 0.0
H1539 H 0.12527 0.28807 0.34326 0.0
H1540 H 0.12614 0.21909 0.38926 0.0
H1541 H 0.11693 0.2643 0.37718 0.0
H1542 H 0.202 0.27515 0.36609 0.0
H1543 H 0.21123 0.22938 0.37767 0.0
C1544 C 0.15725 0.34946 0.36812 0.0
C1545 C 0.13845 0.35381 0.35413 0.0
C1546 C 0.16471 0.32313 0.37302 0.0
C1547 C 0.15302 0.30077 0.36429 0.0
C1548 C 0.13452 0.30508 0.35015 0.0
C1549 C 0.12754 0.33141 0.34495 0.0
C1550 C 0.14286 0.23105 0.38414 0.0
C1551 C 0.16939 0.22081 0.3844 0.0
C1552 C 0.13756 0.2568 0.37718 0.0
C1553 C 0.15877 0.27302 0.37073 0.0
C1554 C 0.18535 0.26291 0.37101 0.0
C1555 C 0.19059 0.23681 0.37757 0.0
H1556 H 0.39439 0.36143 0.13428 0.0
H1557 H 0.4014 0.40895 0.08545 0.0
H1558 H 0.43955 0.37514 0.14332 0.0
H1559 H 0.44632 0.4241 0.09494 0.0
H1560 H 0.53729 0.42225 0.1086 0.0
H1561 H 0.49154 0.41081 0.09869 0.0
H1562 H 0.46492 0.41069 0.15453 0.0
H1563 H 0.5109 0.42046 0.16429 0.0
C1564 C 0.40551 0.37516 0.12559 0.0
C1565 C 0.39437 0.38415 0.10917 0.0
C1566 C 0.43141 0.38325 0.13084 0.0
C1567 C 0.4467 0.40101 0.11999 0.0
C1568 C 0.43539 0.41015 0.10356 0.0
C1569 C 0.40957 0.40163 0.09815 0.0
C1570 C 0.52154 0.41987 0.11868 0.0
C1571 C 0.52763 0.42196 0.1372 0.0
C1572 C 0.49525 0.41345 0.11303 0.0
C1573 C 0.4744 0.40949 0.12578 0.0
C1574 C 0.48048 0.41277 0.14429 0.0
C1575 C 0.50682 0.41861 0.14992 0.0
H1576 H 0.35668 0.7657 0.91032 0.0
H1577 H 0.30695 0.77915 0.86304 0.0
H1578 H 0.36669 0.72008 0.8999 0.0
H1579 H 0.31652 0.73302 0.85273 0.0
H1580 H 0.36736 0.66037 0.83122 0.0
H1581 H 0.35385 0.70574 0.84097 0.0
H1582 H 0.34539 0.67669 0.89588 0.0
H1583 H 0.3595 0.63171 0.88623 0.0
C1584 C 0.3477 0.75881 0.89775 0.0
C1585 C 0.33101 0.77599 0.88751 0.0
C1586 C 0.3533 0.73257 0.89182 0.0
C1587 C 0.34229 0.72281 0.87551 0.0
C1588 C 0.32551 0.74 0.86527 0.0
C1589 C 0.31991 0.76634 0.87122 0.0
C1590 C 0.36243 0.6637 0.84534 0.0
C1591 C 0.36469 0.64257 0.85799 0.0
C1592 C 0.35456 0.68964 0.85091 0.0
C1593 C 0.34876 0.69491 0.86924 0.0
C1594 C 0.35023 0.67348 0.88174 0.0
C1595 C 0.35816 0.64765 0.87618 0.0
H1596 H 0.98521 0.59976 0.66101 0.0
H1597 H 0.96469 0.56129 0.61029 0.0
H1598 H 0.03079 0.60816 0.65001 0.0
H1599 H 0.01082 0.56922 0.59932 0.0
H1600 H 0.08562 0.61966 0.5803 0.0
H1601 H 0.04018 0.60674 0.59014 0.0
H1602 H 0.07204 0.58458 0.6426 0.0
H1603 H 0.11719 0.59808 0.63291 0.0
C1604 C 0.99052 0.59289 0.64753 0.0
C1605 C 0.97137 0.57986 0.63651 0.0
C1606 C 0.01675 0.59754 0.64127 0.0
C1607 C 0.02454 0.5892 0.62382 0.0
C1608 C 0.00539 0.57607 0.61277 0.0
C1609 C 0.97904 0.57141 0.61907 0.0
C1610 C 0.0829 0.61179 0.59387 0.0
C1611 C 0.1049 0.6101 0.60589 0.0
C1612 C 0.0569 0.60426 0.59948 0.0
C1613 C 0.05242 0.59487 0.61722 0.0
C1614 C 0.07468 0.59223 0.62897 0.0
C1615 C 0.10059 0.59982 0.62338 0.0
H1616 H 0.13428 0.66321 0.16697 0.0
H1617 H 0.13992 0.63505 0.1117 0.0
H1618 H 0.14729 0.7087 0.15715 0.0
H1619 H 0.15327 0.68022 0.10197 0.0
H1620 H 0.1409 0.76984 0.08874 0.0
H1621 H 0.13099 0.72414 0.09913 0.0
H1622 H 0.1854 0.73516 0.14435 0.0
H1623 H 0.19509 0.78127 0.13402 0.0
C1624 C 0.13853 0.66669 0.15277 0.0
C1625 C 0.13592 0.64563 0.14009 0.0
C1626 C 0.14611 0.69268 0.14716 0.0
C1627 C 0.15114 0.69809 0.12876 0.0
C1628 C 0.14911 0.67682 0.11619 0.0
C1629 C 0.14159 0.6509 0.12178 0.0
C1630 C 0.15083 0.76251 0.10087 0.0
C1631 C 0.16879 0.77911 0.11056 0.0
C1632 C 0.14527 0.73625 0.10677 0.0
C1633 C 0.1575 0.72598 0.12252 0.0
C1634 C 0.1755 0.74259 0.13224 0.0
C1635 C 0.18116 0.7689 0.12628 0.0
H1636 H 0.119 0.39106 0.86184 0.0
H1637 H 0.09081 0.38418 0.91702 0.0
H1638 H 0.07401 0.40527 0.85229 0.0
H1639 H 0.04545 0.39778 0.90739 0.0
H1640 H 0.9722 0.44486 0.88561 0.0
H1641 H 0.01844 0.43519 0.8956 0.0
H1642 H 0.03036 0.38441 0.84859 0.0
H1643 H 0.98461 0.39455 0.83846 0.0
C1644 C 0.10317 0.39262 0.87194 0.0
C1645 C 0.10838 0.38637 0.89016 0.0
C1646 C 0.07733 0.40062 0.86645 0.0
C1647 C 0.05604 0.40243 0.87904 0.0
C1648 C 0.06144 0.39683 0.89737 0.0
C1649 C 0.08738 0.3889 0.90288 0.0
C1650 C 0.98481 0.43176 0.87739 0.0
C1651 C 0.97483 0.42051 0.86124 0.0
C1652 C 0.01122 0.4261 0.88316 0.0
C1653 C 0.02814 0.40908 0.87288 0.0
C1654 C 0.01807 0.39797 0.85668 0.0
C1655 C 0.99177 0.40365 0.85093 0.0
H1656 H 0.30557 0.22064 0.63654 0.0
H1657 H 0.35399 0.23602 0.58893 0.0
H1658 H 0.3134 0.26715 0.64678 0.0
H1659 H 0.36215 0.28209 0.59923 0.0
H1660 H 0.3521 0.37008 0.61322 0.0
H1661 H 0.33864 0.32482 0.60364 0.0
H1662 H 0.35076 0.29538 0.65814 0.0
H1663 H 0.36378 0.34088 0.66781 0.0
C1664 C 0.31785 0.23395 0.62827 0.0
C1665 C 0.32915 0.22471 0.61193 0.0
C1666 C 0.32244 0.26052 0.63417 0.0
C1667 C 0.33831 0.27836 0.62378 0.0
C1668 C 0.34945 0.26905 0.6074 0.0
C1669 C 0.34493 0.24256 0.60155 0.0
C1670 C 0.35159 0.35402 0.62321 0.0
C1671 C 0.35914 0.35899 0.64124 0.0
C1672 C 0.34405 0.32804 0.61769 0.0
C1673 C 0.34391 0.30642 0.63008 0.0
C1674 C 0.35048 0.31162 0.64829 0.0
C1675 C 0.35804 0.33765 0.65381 0.0
H1676 H 0.53162 0.55931 0.38485 0.0
H1677 H 0.51853 0.60976 0.33788 0.0
H1678 H 0.48553 0.56906 0.3952 0.0
H1679 H 0.47293 0.61987 0.34831 0.0
H1680 H 0.38426 0.61184 0.36183 0.0
H1681 H 0.4294 0.59825 0.35214 0.0
H1682 H 0.45838 0.60676 0.40706 0.0
H1683 H 0.41292 0.61987 0.41684 0.0
C1684 C 0.51891 0.57247 0.37675 0.0
C1685 C 0.52866 0.58372 0.36054 0.0
C1686 C 0.49258 0.57817 0.38272 0.0
C1687 C 0.4755 0.59517 0.37255 0.0
C1688 C 0.48535 0.60634 0.35632 0.0
C1689 C 0.51158 0.60067 0.35039 0.0
C1690 C 0.40022 0.61066 0.37187 0.0
C1691 C 0.39508 0.61706 0.39008 0.0
C1692 C 0.42614 0.60302 0.36629 0.0
C1693 C 0.44758 0.60163 0.37879 0.0
C1694 C 0.44228 0.60741 0.39712 0.0
C1695 C 0.41628 0.61506 0.4027 0.0
loop_
_geom_bond_atom_site_label_1
_geom_bond_atom_site_label_2
_geom_bond_distance
_geom_bond_site_symmetry_2
_ccdc_geom_bond_type
In0 O1 2.294 . S
In0 O2 2.326 . S
In0 O6 2.266 . S
In0 O7 2.326 . S
In0 O8 2.266 . S
In0 O9 2.326 . S
In0 O11 2.294 . S
In0 O12 2.326 . S
O1 In0 2.294 . S
O1 C10 1.240 . S
O2 In0 2.326 . S
O2 C10 1.252 . S
C3 O6 1.252 . S
C3 O7 1.260 . S
C4 O11 1.240 . S
C4 O12 1.252 . S
C5 O8 1.252 . S
C5 O9 1.260 . S
O6 In0 2.266 . S
O6 C3 1.252 . S
O7 In0 2.326 . S
O7 C3 1.260 . S
O8 In0 2.266 . S
O8 C5 1.252 . S
O9 In0 2.326 . S
O9 C5 1.260 . S
C10 O1 1.240 . S
C10 O2 1.252 . S
O11 In0 2.294 . S
O11 C4 1.240 . S
O12 In0 2.326 . S
O12 C4 1.252 . S
In13 O14 2.294 . S
In13 O15 2.326 . S
In13 O19 2.266 . S
In13 O20 2.326 . S
In13 O21 2.266 . S
In13 O22 2.326 . S
In13 O24 2.294 . S
In13 O25 2.326 . S
O14 In13 2.294 . S
O14 C23 1.240 . S
O15 In13 2.326 . S
O15 C23 1.252 . S
C16 O19 1.252 . S
C16 O20 1.260 . S
C17 O24 1.240 . S
C17 O25 1.252 . S
C18 O21 1.252 . S
C18 O22 1.260 . S
O19 In13 2.266 . S
O19 C16 1.252 . S
O20 In13 2.326 . S
O20 C16 1.260 . S
O21 In13 2.266 . S
O21 C18 1.252 . S
O22 In13 2.326 . S
O22 C18 1.260 . S
C23 O14 1.240 . S
C23 O15 1.252 . S
O24 In13 2.294 . S
O24 C17 1.240 . S
O25 In13 2.326 . S
O25 C17 1.252 . S
In26 O27 2.294 . S
In26 O28 2.326 . S
In26 O32 2.266 . S
In26 O33 2.326 . S
In26 O34 2.266 . S
In26 O35 2.326 . S
In26 O37 2.294 . S
In26 O38 2.326 . S
O27 In26 2.294 . S
O27 C36 1.240 . S
O28 In26 2.326 . S
O28 C36 1.252 . S
C29 O32 1.252 . S
C29 O33 1.260 . S
C30 O37 1.240 . S
C30 O38 1.252 . S
C31 O34 1.252 . S
C31 O35 1.260 . S
O32 In26 2.266 . S
O32 C29 1.252 . S
O33 In26 2.326 . S
O33 C29 1.260 . S
O34 In26 2.266 . S
O34 C31 1.252 . S
O35 In26 2.326 . S
O35 C31 1.260 . S
C36 O27 1.240 . S
C36 O28 1.252 . S
O37 In26 2.294 . S
O37 C30 1.240 . S
O38 In26 2.326 . S
O38 C30 1.252 . S
In39 O40 2.294 . S
In39 O41 2.326 . S
In39 O45 2.266 . S
In39 O46 2.326 . S
In39 O47 2.266 . S
In39 O48 2.326 . S
In39 O50 2.294 . S
In39 O51 2.326 . S
O40 In39 2.294 . S
O40 C49 1.240 . S
O41 In39 2.326 . S
O41 C49 1.252 . S
C42 O45 1.252 . S
C42 O46 1.260 . S
C43 O50 1.240 . S
C43 O51 1.252 . S
C44 O47 1.252 . S
C44 O48 1.260 . S
O45 In39 2.266 . S
O45 C42 1.252 . S
O46 In39 2.326 . S
O46 C42 1.260 . S
O47 In39 2.266 . S
O47 C44 1.252 . S
O48 In39 2.326 . S
O48 C44 1.260 . S
C49 O40 1.240 . S
C49 O41 1.252 . S
O50 In39 2.294 . S
O50 C43 1.240 . S
O51 In39 2.326 . S
O51 C43 1.252 . S
In52 O53 2.294 . S
In52 O54 2.326 . S
In52 O58 2.266 . S
In52 O59 2.326 . S
In52 O60 2.266 . S
In52 O61 2.326 . S
In52 O63 2.294 . S
In52 O64 2.326 . S
O53 In52 2.294 . S
O53 C62 1.240 . S
O54 In52 2.326 . S
O54 C62 1.252 . S
C55 O58 1.252 . S
C55 O59 1.260 . S
C56 O63 1.240 . S
C56 O64 1.252 . S
C57 O60 1.252 . S
C57 O61 1.260 . S
O58 In52 2.266 . S
O58 C55 1.252 . S
O59 In52 2.326 . S
O59 C55 1.260 . S
O60 In52 2.266 . S
O60 C57 1.252 . S
O61 In52 2.326 . S
O61 C57 1.260 . S
C62 O53 1.240 . S
C62 O54 1.252 . S
O63 In52 2.294 . S
O63 C56 1.240 . S
O64 In52 2.326 . S
O64 C56 1.252 . S
In65 O66 2.294 . S
In65 O67 2.326 . S
In65 O71 2.266 . S
In65 O72 2.326 . S
In65 O73 2.266 . S
In65 O74 2.326 . S
In65 O76 2.294 . S
In65 O77 2.326 . S
O66 In65 2.294 . S
O66 C75 1.240 . S
O67 In65 2.326 . S
O67 C75 1.252 . S
C68 O71 1.252 . S
C68 O72 1.260 . S
C69 O76 1.240 . S
C69 O77 1.252 . S
C70 O73 1.252 . S
C70 O74 1.260 . S
O71 In65 2.266 . S
O71 C68 1.252 . S
O72 In65 2.326 . S
O72 C68 1.260 . S
O73 In65 2.266 . S
O73 C70 1.252 . S
O74 In65 2.326 . S
O74 C70 1.260 . S
C75 O66 1.240 . S
C75 O67 1.252 . S
O76 In65 2.294 . S
O76 C69 1.240 . S
O77 In65 2.326 . S
O77 C69 1.252 . S
In78 O79 2.294 . S
In78 O80 2.326 . S
In78 O84 2.266 . S
In78 O85 2.326 . S
In78 O86 2.266 . S
In78 O87 2.326 . S
In78 O89 2.294 . S
In78 O90 2.326 . S
O79 In78 2.294 . S
O79 C88 1.240 . S
O80 In78 2.326 . S
O80 C88 1.252 . S
C81 O84 1.252 . S
C81 O85 1.260 . S
C82 O89 1.240 . S
C82 O90 1.252 . S
C83 O86 1.252 . S
C83 O87 1.260 . S
O84 In78 2.266 . S
O84 C81 1.252 . S
O85 In78 2.326 . S
O85 C81 1.260 . S
O86 In78 2.266 . S
O86 C83 1.252 . S
O87 In78 2.326 . S
O87 C83 1.260 . S
C88 O79 1.240 . S
C88 O80 1.252 . S
O89 In78 2.294 . S
O89 C82 1.240 . S
O90 In78 2.326 . S
O90 C82 1.252 . S
In91 O92 2.294 . S
In91 O93 2.326 . S
In91 O97 2.266 . S
In91 O98 2.326 . S
In91 O99 2.266 . S
In91 O100 2.326 . S
In91 O102 2.294 . S
In91 O103 2.326 . S
O92 In91 2.294 . S
O92 C101 1.240 . S
O93 In91 2.326 . S
O93 C101 1.252 . S
C94 O97 1.252 . S
C94 O98 1.260 . S
C95 O102 1.240 . S
C95 O103 1.252 . S
C96 O99 1.252 . S
C96 O100 1.260 . S
O97 In91 2.266 . S
O97 C94 1.252 . S
O98 In91 2.326 . S
O98 C94 1.260 . S
O99 In91 2.266 . S
O99 C96 1.252 . S
O100 In91 2.326 . S
O100 C96 1.260 . S
C101 O92 1.240 . S
C101 O93 1.252 . S
O102 In91 2.294 . S
O102 C95 1.240 . S
O103 In91 2.326 . S
O103 C95 1.252 . S
In104 O105 2.294 . S
In104 O106 2.326 . S
In104 O110 2.266 . S
In104 O111 2.326 . S
In104 O112 2.266 . S
In104 O113 2.326 . S
In104 O115 2.294 . S
In104 O116 2.326 . S
O105 In104 2.294 . S
O105 C114 1.240 . S
O106 In104 2.326 . S
O106 C114 1.252 . S
C107 O110 1.252 . S
C107 O111 1.260 . S
C108 O115 1.240 . S
C108 O116 1.252 . S
C109 O112 1.252 . S
C109 O113 1.260 . S
O110 In104 2.266 . S
O110 C107 1.252 . S
O111 In104 2.326 . S
O111 C107 1.260 . S
O112 In104 2.266 . S
O112 C109 1.252 . S
O113 In104 2.326 . S
O113 C109 1.260 . S
C114 O105 1.240 . S
C114 O106 1.252 . S
O115 In104 2.294 . S
O115 C108 1.240 . S
O116 In104 2.326 . S
O116 C108 1.252 . S
In117 O118 2.294 . S
In117 O119 2.326 . S
In117 O123 2.266 . S
In117 O124 2.326 . S
In117 O125 2.266 . S
In117 O126 2.326 . S
In117 O128 2.294 . S
In117 O129 2.326 . S
O118 In117 2.294 . S
O118 C127 1.240 . S
O119 In117 2.326 . S
O119 C127 1.252 . S
C120 O123 1.252 . S
C120 O124 1.260 . S
C121 O128 1.240 . S
C121 O129 1.252 . S
C122 O125 1.252 . S
C122 O126 1.260 . S
O123 In117 2.266 . S
O123 C120 1.252 . S
O124 In117 2.326 . S
O124 C120 1.260 . S
O125 In117 2.266 . S
O125 C122 1.252 . S
O126 In117 2.326 . S
O126 C122 1.260 . S
C127 O118 1.240 . S
C127 O119 1.252 . S
O128 In117 2.294 . S
O128 C121 1.240 . S
O129 In117 2.326 . S
O129 C121 1.252 . S
In130 O131 2.294 . S
In130 O132 2.326 . S
In130 O136 2.266 . S
In130 O137 2.326 . S
In130 O138 2.266 . S
In130 O139 2.326 . S
In130 O141 2.294 . S
In130 O142 2.326 . S
O131 In130 2.294 . S
O131 C140 1.240 . S
O132 In130 2.326 . S
O132 C140 1.252 . S
C133 O136 1.252 . S
C133 O137 1.260 . S
C134 O141 1.240 . S
C134 O142 1.252 . S
C135 O138 1.252 . S
C135 O139 1.260 . S
O136 In130 2.266 . S
O136 C133 1.252 . S
O137 In130 2.326 . S
O137 C133 1.260 . S
O138 In130 2.266 . S
O138 C135 1.252 . S
O139 In130 2.326 . S
O139 C135 1.260 . S
C140 O131 1.240 . S
C140 O132 1.252 . S
O141 In130 2.294 . S
O141 C134 1.240 . S
O142 In130 2.326 . S
O142 C134 1.252 . S
In143 O144 2.294 . S
In143 O145 2.326 . S
In143 O149 2.266 . S
In143 O150 2.326 . S
In143 O151 2.266 . S
In143 O152 2.326 . S
In143 O154 2.294 . S
In143 O155 2.326 . S
O144 In143 2.294 . S
O144 C153 1.240 . S
O145 In143 2.326 . S
O145 C153 1.252 . S
C146 O149 1.252 . S
C146 O150 1.260 . S
C147 O154 1.240 . S
C147 O155 1.252 . S
C148 O151 1.252 . S
C148 O152 1.260 . S
O149 In143 2.266 . S
O149 C146 1.252 . S
O150 In143 2.326 . S
O150 C146 1.260 . S
O151 In143 2.266 . S
O151 C148 1.252 . S
O152 In143 2.326 . S
O152 C148 1.260 . S
C153 O144 1.240 . S
C153 O145 1.252 . S
O154 In143 2.294 . S
O154 C147 1.240 . S
O155 In143 2.326 . S
O155 C147 1.252 . S
In156 O157 2.294 . S
In156 O158 2.326 . S
In156 O162 2.266 . S
In156 O163 2.326 . S
In156 O164 2.266 . S
In156 O165 2.326 . S
In156 O167 2.294 . S
In156 O168 2.326 . S
O157 In156 2.294 . S
O157 C166 1.240 . S
O158 In156 2.326 . S
O158 C166 1.252 . S
C159 O162 1.252 . S
C159 O163 1.260 . S
C160 O167 1.240 . S
C160 O168 1.252 . S
C161 O164 1.252 . S
C161 O165 1.260 . S
O162 In156 2.266 . S
O162 C159 1.252 . S
O163 In156 2.326 . S
O163 C159 1.260 . S
O164 In156 2.266 . S
O164 C161 1.252 . S
O165 In156 2.326 . S
O165 C161 1.260 . S
C166 O157 1.240 . S
C166 O158 1.252 . S
O167 In156 2.294 . S
O167 C160 1.240 . S
O168 In156 2.326 . S
O168 C160 1.252 . S
In169 O170 2.294 . S
In169 O171 2.326 . S
In169 O175 2.266 . S
In169 O176 2.326 . S
In169 O177 2.266 . S
In169 O178 2.326 . S
In169 O180 2.294 . S
In169 O181 2.326 . S
O170 In169 2.294 . S
O170 C179 1.240 . S
O171 In169 2.326 . S
O171 C179 1.252 . S
C172 O175 1.252 . S
C172 O176 1.260 . S
C173 O180 1.240 . S
C173 O181 1.252 . S
C174 O177 1.252 . S
C174 O178 1.260 . S
O175 In169 2.266 . S
O175 C172 1.252 . S
O176 In169 2.326 . S
O176 C172 1.260 . S
O177 In169 2.266 . S
O177 C174 1.252 . S
O178 In169 2.326 . S
O178 C174 1.260 . S
C179 O170 1.240 . S
C179 O171 1.252 . S
O180 In169 2.294 . S
O180 C173 1.240 . S
O181 In169 2.326 . S
O181 C173 1.252 . S
In182 O183 2.294 . S
In182 O184 2.326 . S
In182 O188 2.266 . S
In182 O189 2.326 . S
In182 O190 2.266 . S
In182 O191 2.326 . S
In182 O193 2.294 . S
In182 O194 2.326 . S
O183 In182 2.294 . S
O183 C192 1.240 . S
O184 In182 2.326 . S
O184 C192 1.252 . S
C185 O188 1.252 . S
C185 O189 1.260 . S
C186 O193 1.240 . S
C186 O194 1.252 . S
C187 O190 1.252 . S
C187 O191 1.260 . S
O188 In182 2.266 . S
O188 C185 1.252 . S
O189 In182 2.326 . S
O189 C185 1.260 . S
O190 In182 2.266 . S
O190 C187 1.252 . S
O191 In182 2.326 . S
O191 C187 1.260 . S
C192 O183 1.240 . S
C192 O184 1.252 . S
O193 In182 2.294 . S
O193 C186 1.240 . S
O194 In182 2.326 . S
O194 C186 1.252 . S
In195 O196 2.294 . S
In195 O197 2.326 . S
In195 O201 2.266 . S
In195 O202 2.326 . S
In195 O203 2.266 . S
In195 O204 2.326 . S
In195 O206 2.294 . S
In195 O207 2.326 . S
O196 In195 2.294 . S
O196 C205 1.240 . S
O197 In195 2.326 . S
O197 C205 1.252 . S
C198 O201 1.252 . S
C198 O202 1.260 . S
C199 O206 1.240 . S
C199 O207 1.252 . S
C200 O203 1.252 . S
C200 O204 1.260 . S
O201 In195 2.266 . S
O201 C198 1.252 . S
O202 In195 2.326 . S
O202 C198 1.260 . S
O203 In195 2.266 . S
O203 C200 1.252 . S
O204 In195 2.326 . S
O204 C200 1.260 . S
C205 O196 1.240 . S
C205 O197 1.252 . S
O206 In195 2.294 . S
O206 C199 1.240 . S
O207 In195 2.326 . S
O207 C199 1.252 . S
In208 O209 2.294 . S
In208 O210 2.326 . S
In208 O214 2.266 . S
In208 O215 2.326 . S
In208 O216 2.266 . S
In208 O217 2.326 . S
In208 O219 2.294 . S
In208 O220 2.326 . S
O209 In208 2.294 . S
O209 C218 1.240 . S
O210 In208 2.326 . S
O210 C218 1.252 . S
C211 O214 1.252 . S
C211 O215 1.260 . S
C212 O219 1.240 . S
C212 O220 1.252 . S
C213 O216 1.252 . S
C213 O217 1.260 . S
O214 In208 2.266 . S
O214 C211 1.252 . S
O215 In208 2.326 . S
O215 C211 1.260 . S
O216 In208 2.266 . S
O216 C213 1.252 . S
O217 In208 2.326 . S
O217 C213 1.260 . S
C218 O209 1.240 . S
C218 O210 1.252 . S
O219 In208 2.294 . S
O219 C212 1.240 . S
O220 In208 2.326 . S
O220 C212 1.252 . S
In221 O222 2.294 . S
In221 O223 2.326 . S
In221 O227 2.266 . S
In221 O228 2.326 . S
In221 O229 2.266 . S
In221 O230 2.326 . S
In221 O232 2.294 . S
In221 O233 2.326 . S
O222 In221 2.294 . S
O222 C231 1.240 . S
O223 In221 2.326 . S
O223 C231 1.252 . S
C224 O227 1.252 . S
C224 O228 1.260 . S
C225 O232 1.240 . S
C225 O233 1.252 . S
C226 O229 1.252 . S
C226 O230 1.260 . S
O227 In221 2.266 . S
O227 C224 1.252 . S
O228 In221 2.326 . S
O228 C224 1.260 . S
O229 In221 2.266 . S
O229 C226 1.252 . S
O230 In221 2.326 . S
O230 C226 1.260 . S
C231 O222 1.240 . S
C231 O223 1.252 . S
O232 In221 2.294 . S
O232 C225 1.240 . S
O233 In221 2.326 . S
O233 C225 1.252 . S
In234 O235 2.294 . S
In234 O236 2.326 . S
In234 O240 2.266 . S
In234 O241 2.326 . S
In234 O242 2.266 . S
In234 O243 2.326 . S
In234 O245 2.294 . S
In234 O246 2.326 . S
O235 In234 2.294 . S
O235 C244 1.240 . S
O236 In234 2.326 . S
O236 C244 1.252 . S
C237 O240 1.252 . S
C237 O241 1.260 . S
C238 O245 1.240 . S
C238 O246 1.252 . S
C239 O242 1.252 . S
C239 O243 1.260 . S
O240 In234 2.266 . S
O240 C237 1.252 . S
O241 In234 2.326 . S
O241 C237 1.260 . S
O242 In234 2.266 . S
O242 C239 1.252 . S
O243 In234 2.326 . S
O243 C239 1.260 . S
C244 O235 1.240 . S
C244 O236 1.252 . S
O245 In234 2.294 . S
O245 C238 1.240 . S
O246 In234 2.326 . S
O246 C238 1.252 . S
In247 O248 2.294 . S
In247 O249 2.326 . S
In247 O253 2.266 . S
In247 O254 2.326 . S
In247 O255 2.266 . S
In247 O256 2.326 . S
In247 O258 2.294 . S
In247 O259 2.326 . S
O248 In247 2.294 . S
O248 C257 1.240 . S
O249 In247 2.326 . S
O249 C257 1.252 . S
C250 O253 1.252 . S
C250 O254 1.260 . S
C251 O258 1.240 . S
C251 O259 1.252 . S
C252 O255 1.252 . S
C252 O256 1.260 . S
O253 In247 2.266 . S
O253 C250 1.252 . S
O254 In247 2.326 . S
O254 C250 1.260 . S
O255 In247 2.266 . S
O255 C252 1.252 . S
O256 In247 2.326 . S
O256 C252 1.260 . S
C257 O248 1.240 . S
C257 O249 1.252 . S
O258 In247 2.294 . S
O258 C251 1.240 . S
O259 In247 2.326 . S
O259 C251 1.252 . S
In260 O261 2.294 . S
In260 O262 2.326 . S
In260 O266 2.266 . S
In260 O267 2.326 . S
In260 O268 2.266 . S
In260 O269 2.326 . S
In260 O271 2.294 . S
In260 O272 2.326 . S
O261 In260 2.294 . S
O261 C270 1.240 . S
O262 In260 2.326 . S
O262 C270 1.252 . S
C263 O266 1.252 . S
C263 O267 1.260 . S
C264 O271 1.240 . S
C264 O272 1.252 . S
C265 O268 1.252 . S
C265 O269 1.260 . S
O266 In260 2.266 . S
O266 C263 1.252 . S
O267 In260 2.326 . S
O267 C263 1.260 . S
O268 In260 2.266 . S
O268 C265 1.252 . S
O269 In260 2.326 . S
O269 C265 1.260 . S
C270 O261 1.240 . S
C270 O262 1.252 . S
O271 In260 2.294 . S
O271 C264 1.240 . S
O272 In260 2.326 . S
O272 C264 1.252 . S
In273 O274 2.294 . S
In273 O275 2.326 . S
In273 O279 2.266 . S
In273 O280 2.326 . S
In273 O281 2.266 . S
In273 O282 2.326 . S
In273 O284 2.294 . S
In273 O285 2.326 . S
O274 In273 2.294 . S
O274 C283 1.240 . S
O275 In273 2.326 . S
O275 C283 1.252 . S
C276 O279 1.252 . S
C276 O280 1.260 . S
C277 O284 1.240 . S
C277 O285 1.252 . S
C278 O281 1.252 . S
C278 O282 1.260 . S
O279 In273 2.266 . S
O279 C276 1.252 . S
O280 In273 2.326 . S
O280 C276 1.260 . S
O281 In273 2.266 . S
O281 C278 1.252 . S
O282 In273 2.326 . S
O282 C278 1.260 . S
C283 O274 1.240 . S
C283 O275 1.252 . S
O284 In273 2.294 . S
O284 C277 1.240 . S
O285 In273 2.326 . S
O285 C277 1.252 . S
In286 O287 2.294 . S
In286 O288 2.326 . S
In286 O292 2.266 . S
In286 O293 2.326 . S
In286 O294 2.266 . S
In286 O295 2.326 . S
In286 O297 2.294 . S
In286 O298 2.326 . S
O287 In286 2.294 . S
O287 C296 1.240 . S
O288 In286 2.326 . S
O288 C296 1.252 . S
C289 O292 1.252 . S
C289 O293 1.260 . S
C290 O297 1.240 . S
C290 O298 1.252 . S
C291 O294 1.252 . S
C291 O295 1.260 . S
O292 In286 2.266 . S
O292 C289 1.252 . S
O293 In286 2.326 . S
O293 C289 1.260 . S
O294 In286 2.266 . S
O294 C291 1.252 . S
O295 In286 2.326 . S
O295 C291 1.260 . S
C296 O287 1.240 . S
C296 O288 1.252 . S
O297 In286 2.294 . S
O297 C290 1.240 . S
O298 In286 2.326 . S
O298 C290 1.252 . S
In299 O300 2.294 . S
In299 O301 2.326 . S
In299 O305 2.266 . S
In299 O306 2.326 . S
In299 O307 2.266 . S
In299 O308 2.326 . S
In299 O310 2.294 . S
In299 O311 2.326 . S
O300 In299 2.294 . S
O300 C309 1.240 . S
O301 In299 2.326 . S
O301 C309 1.252 . S
C302 O305 1.252 . S
C302 O306 1.260 . S
C303 O310 1.240 . S
C303 O311 1.252 . S
C304 O307 1.252 . S
C304 O308 1.260 . S
O305 In299 2.266 . S
O305 C302 1.252 . S
O306 In299 2.326 . S
O306 C302 1.260 . S
O307 In299 2.266 . S
O307 C304 1.252 . S
O308 In299 2.326 . S
O308 C304 1.260 . S
C309 O300 1.240 . S
C309 O301 1.252 . S
O310 In299 2.294 . S
O310 C303 1.240 . S
O311 In299 2.326 . S
O311 C303 1.252 . S
In312 O313 2.294 . S
In312 O314 2.326 . S
In312 O318 2.266 . S
In312 O319 2.326 . S
In312 O320 2.266 . S
In312 O321 2.326 . S
In312 O323 2.294 . S
In312 O324 2.326 . S
O313 In312 2.294 . S
O313 C322 1.240 . S
O314 In312 2.326 . S
O314 C322 1.252 . S
C315 O318 1.252 . S
C315 O319 1.260 . S
C316 O323 1.240 . S
C316 O324 1.252 . S
C317 O320 1.252 . S
C317 O321 1.260 . S
O318 In312 2.266 . S
O318 C315 1.252 . S
O319 In312 2.326 . S
O319 C315 1.260 . S
O320 In312 2.266 . S
O320 C317 1.252 . S
O321 In312 2.326 . S
O321 C317 1.260 . S
C322 O313 1.240 . S
C322 O314 1.252 . S
O323 In312 2.294 . S
O323 C316 1.240 . S
O324 In312 2.326 . S
O324 C316 1.252 . S
In325 O326 2.294 . S
In325 O327 2.326 . S
In325 O331 2.266 . S
In325 O332 2.326 . S
In325 O333 2.266 . S
In325 O334 2.326 . S
In325 O336 2.294 . S
In325 O337 2.326 . S
O326 In325 2.294 . S
O326 C335 1.240 . S
O327 In325 2.326 . S
O327 C335 1.252 . S
C328 O331 1.252 . S
C328 O332 1.260 . S
C329 O336 1.240 . S
C329 O337 1.252 . S
C330 O333 1.252 . S
C330 O334 1.260 . S
O331 In325 2.266 . S
O331 C328 1.252 . S
O332 In325 2.326 . S
O332 C328 1.260 . S
O333 In325 2.266 . S
O333 C330 1.252 . S
O334 In325 2.326 . S
O334 C330 1.260 . S
C335 O326 1.240 . S
C335 O327 1.252 . S
O336 In325 2.294 . S
O336 C329 1.240 . S
O337 In325 2.326 . S
O337 C329 1.252 . S
In338 O339 2.294 . S
In338 O340 2.326 . S
In338 O344 2.266 . S
In338 O345 2.326 . S
In338 O346 2.266 . S
In338 O347 2.326 . S
In338 O349 2.294 . S
In338 O350 2.326 . S
O339 In338 2.294 . S
O339 C348 1.240 . S
O340 In338 2.326 . S
O340 C348 1.252 . S
C341 O344 1.252 . S
C341 O345 1.260 . S
C342 O349 1.240 . S
C342 O350 1.252 . S
C343 O346 1.252 . S
C343 O347 1.260 . S
O344 In338 2.266 . S
O344 C341 1.252 . S
O345 In338 2.326 . S
O345 C341 1.260 . S
O346 In338 2.266 . S
O346 C343 1.252 . S
O347 In338 2.326 . S
O347 C343 1.260 . S
C348 O339 1.240 . S
C348 O340 1.252 . S
O349 In338 2.294 . S
O349 C342 1.240 . S
O350 In338 2.326 . S
O350 C342 1.252 . S
In351 O352 2.294 . S
In351 O353 2.326 . S
In351 O357 2.266 . S
In351 O358 2.326 . S
In351 O359 2.266 . S
In351 O360 2.326 . S
In351 O362 2.294 . S
In351 O363 2.326 . S
O352 In351 2.294 . S
O352 C361 1.240 . S
O353 In351 2.326 . S
O353 C361 1.252 . S
C354 O357 1.252 . S
C354 O358 1.260 . S
C355 O362 1.240 . S
C355 O363 1.252 . S
C356 O359 1.252 . S
C356 O360 1.260 . S
O357 In351 2.266 . S
O357 C354 1.252 . S
O358 In351 2.326 . S
O358 C354 1.260 . S
O359 In351 2.266 . S
O359 C356 1.252 . S
O360 In351 2.326 . S
O360 C356 1.260 . S
C361 O352 1.240 . S
C361 O353 1.252 . S
O362 In351 2.294 . S
O362 C355 1.240 . S
O363 In351 2.326 . S
O363 C355 1.252 . S
In364 O365 2.294 . S
In364 O366 2.326 . S
In364 O370 2.266 . S
In364 O371 2.326 . S
In364 O372 2.266 . S
In364 O373 2.326 . S
In364 O375 2.294 . S
In364 O376 2.326 . S
O365 In364 2.294 . S
O365 C374 1.240 . S
O366 In364 2.326 . S
O366 C374 1.252 . S
C367 O370 1.252 . S
C367 O371 1.260 . S
C368 O375 1.240 . S
C368 O376 1.252 . S
C369 O372 1.252 . S
C369 O373 1.260 . S
O370 In364 2.266 . S
O370 C367 1.252 . S
O371 In364 2.326 . S
O371 C367 1.260 . S
O372 In364 2.266 . S
O372 C369 1.252 . S
O373 In364 2.326 . S
O373 C369 1.260 . S
C374 O365 1.240 . S
C374 O366 1.252 . S
O375 In364 2.294 . S
O375 C368 1.240 . S
O376 In364 2.326 . S
O376 C368 1.252 . S
In377 O378 2.294 . S
In377 O379 2.326 . S
In377 O383 2.266 . S
In377 O384 2.326 . S
In377 O385 2.266 . S
In377 O386 2.326 . S
In377 O388 2.294 . S
In377 O389 2.326 . S
O378 In377 2.294 . S
O378 C387 1.240 . S
O379 In377 2.326 . S
O379 C387 1.252 . S
C380 O383 1.252 . S
C380 O384 1.260 . S
C381 O388 1.240 . S
C381 O389 1.252 . S
C382 O385 1.252 . S
C382 O386 1.260 . S
O383 In377 2.266 . S
O383 C380 1.252 . S
O384 In377 2.326 . S
O384 C380 1.260 . S
O385 In377 2.266 . S
O385 C382 1.252 . S
O386 In377 2.326 . S
O386 C382 1.260 . S
C387 O378 1.240 . S
C387 O379 1.252 . S
O388 In377 2.294 . S
O388 C381 1.240 . S
O389 In377 2.326 . S
O389 C381 1.252 . S
In390 O391 2.294 . S
In390 O392 2.326 . S
In390 O396 2.266 . S
In390 O397 2.326 . S
In390 O398 2.266 . S
In390 O399 2.326 . S
In390 O401 2.294 . S
In390 O402 2.326 . S
O391 In390 2.294 . S
O391 C400 1.240 . S
O392 In390 2.326 . S
O392 C400 1.252 . S
C393 O396 1.252 . S
C393 O397 1.260 . S
C394 O401 1.240 . S
C394 O402 1.252 . S
C395 O398 1.252 . S
C395 O399 1.260 . S
O396 In390 2.266 . S
O396 C393 1.252 . S
O397 In390 2.326 . S
O397 C393 1.260 . S
O398 In390 2.266 . S
O398 C395 1.252 . S
O399 In390 2.326 . S
O399 C395 1.260 . S
C400 O391 1.240 . S
C400 O392 1.252 . S
O401 In390 2.294 . S
O401 C394 1.240 . S
O402 In390 2.326 . S
O402 C394 1.252 . S
In403 O404 2.294 . S
In403 O405 2.326 . S
In403 O409 2.266 . S
In403 O410 2.326 . S
In403 O411 2.266 . S
In403 O412 2.326 . S
In403 O414 2.294 . S
In403 O415 2.326 . S
O404 In403 2.294 . S
O404 C413 1.240 . S
O405 In403 2.326 . S
O405 C413 1.252 . S
C406 O409 1.252 . S
C406 O410 1.260 . S
C407 O414 1.240 . S
C407 O415 1.252 . S
C408 O411 1.252 . S
C408 O412 1.260 . S
O409 In403 2.266 . S
O409 C406 1.252 . S
O410 In403 2.326 . S
O410 C406 1.260 . S
O411 In403 2.266 . S
O411 C408 1.252 . S
O412 In403 2.326 . S
O412 C408 1.260 . S
C413 O404 1.240 . S
C413 O405 1.252 . S
O414 In403 2.294 . S
O414 C407 1.240 . S
O415 In403 2.326 . S
O415 C407 1.252 . S
H416 C424 0.950 . S
H417 C429 0.950 1_545 S
H418 C426 0.950 . S
H419 C428 0.950 . S
H420 C430 0.950 . S
H421 C432 0.950 . S
H422 C434 0.950 . S
H423 C435 0.950 1_565 S
C424 H416 0.950 . S
C424 C425 1.386 . S
C424 C426 1.391 . S
C425 C424 1.386 . S
C425 C429 1.393 . S
C426 H418 0.950 . S
C426 C424 1.391 . S
C426 C427 1.400 . S
C427 C426 1.400 . S
C427 C428 1.398 1_565 S
C427 C433 1.491 1_565 S
C428 H419 0.950 . S
C428 C427 1.398 1_545 S
C428 C429 1.391 1_545 S
C429 H417 0.950 1_565 S
C429 C425 1.393 . S
C429 C428 1.391 1_565 S
C430 H420 0.950 . S
C430 C431 1.386 . S
C430 C432 1.391 . S
C431 C430 1.386 . S
C431 C435 1.393 . S
C432 H421 0.950 . S
C432 C430 1.391 . S
C432 C433 1.400 . S
C433 C427 1.491 1_545 S
C433 C432 1.400 . S
C433 C434 1.398 1_545 S
C434 H422 0.950 . S
C434 C433 1.398 1_565 S
C434 C435 1.391 1_565 S
C435 H423 0.950 1_545 S
C435 C431 1.393 . S
C435 C434 1.391 1_545 S
H436 C444 0.950 . S
H437 C449 0.950 . S
H438 C446 0.950 . S
H439 C448 0.950 . S
H440 C450 0.950 . S
H441 C452 0.950 . S
H442 C454 0.950 . S
H443 C455 0.950 . S
C444 H436 0.950 . S
C444 C445 1.386 . S
C444 C446 1.391 . S
C445 C444 1.386 . S
C445 C449 1.393 . S
C446 H438 0.950 . S
C446 C444 1.391 . S
C446 C447 1.400 . S
C447 C446 1.400 . S
C447 C448 1.398 . S
C447 C453 1.491 . S
C448 H439 0.950 . S
C448 C447 1.398 . S
C448 C449 1.391 . S
C449 H437 0.950 . S
C449 C445 1.393 . S
C449 C448 1.391 . S
C450 H440 0.950 . S
C450 C451 1.386 . S
C450 C452 1.391 . S
C451 C450 1.386 . S
C451 C455 1.393 . S
C452 H441 0.950 . S
C452 C450 1.391 . S
C452 C453 1.400 . S
C453 C447 1.491 . S
C453 C452 1.400 . S
C453 C454 1.398 . S
C454 H442 0.950 . S
C454 C453 1.398 . S
C454 C455 1.391 . S
C455 H443 0.950 . S
C455 C451 1.393 . S
C455 C454 1.391 . S
H456 C464 0.950 . S
H457 C469 0.950 . S
H458 C466 0.950 . S
H459 C468 0.950 . S
H460 C470 0.950 . S
H461 C472 0.950 . S
H462 C474 0.950 . S
H463 C475 0.950 . S
C464 H456 0.950 . S
C464 C465 1.386 . S
C464 C466 1.391 . S
C465 C464 1.386 . S
C465 C469 1.393 . S
C466 H458 0.950 . S
C466 C464 1.391 . S
C466 C467 1.400 . S
C467 C466 1.400 . S
C467 C468 1.398 . S
C467 C473 1.491 1_545 S
C468 H459 0.950 . S
C468 C467 1.398 . S
C468 C469 1.391 . S
C469 H457 0.950 . S
C469 C465 1.393 . S
C469 C468 1.391 . S
C470 H460 0.950 . S
C470 C471 1.386 . S
C470 C472 1.391 . S
C471 C470 1.386 . S
C471 C475 1.393 . S
C472 H461 0.950 . S
C472 C470 1.391 . S
C472 C473 1.400 . S
C473 C467 1.491 1_565 S
C473 C472 1.400 . S
C473 C474 1.398 . S
C474 H462 0.950 . S
C474 C473 1.398 . S
C474 C475 1.391 . S
C475 H463 0.950 . S
C475 C471 1.393 . S
C475 C474 1.391 . S
H476 C484 0.950 . S
H477 C489 0.950 . S
H478 C486 0.950 . S
H479 C488 1.000 . S
H480 C490 0.950 . S
H481 C492 0.950 . S
H482 C494 1.000 . S
H483 C495 0.950 . S
C484 H476 0.950 . S
C484 C485 1.386 . S
C484 C486 1.391 . S
C485 C484 1.386 . S
C485 C489 1.393 . S
C486 H478 0.950 . S
C486 C484 1.391 . S
C486 C487 1.400 . S
C487 C486 1.400 . S
C487 C488 1.398 . S
C487 C493 1.491 1_556 S
C488 H479 1.000 . S
C488 C487 1.398 . S
C488 C489 1.391 . S
C489 H477 0.950 . S
C489 C485 1.393 . S
C489 C488 1.391 . S
C490 H480 0.950 . S
C490 C491 1.386 . S
C490 C492 1.391 . S
C491 C490 1.386 . S
C491 C495 1.393 . S
C492 H481 0.950 . S
C492 C490 1.391 . S
C492 C493 1.400 . S
C493 C487 1.491 1_554 S
C493 C492 1.400 . S
C493 C494 1.398 . S
C494 H482 1.000 . S
C494 C493 1.398 . S
C494 C495 1.391 . S
C495 H483 0.950 . S
C495 C491 1.393 . S
C495 C494 1.391 . S
H496 C504 0.950 . S
H497 C509 0.950 . S
H498 C506 0.950 1_545 S
H499 C508 0.950 . S
H500 C510 0.950 . S
H501 C512 0.950 1_565 S
H502 C514 0.950 . S
H503 C515 0.950 . S
C504 H496 0.950 . S
C504 C505 1.386 . S
C504 C506 1.391 . S
C505 C504 1.386 . S
C505 C509 1.393 . S
C506 H498 0.950 1_565 S
C506 C504 1.391 . S
C506 C507 1.400 . S
C507 C506 1.400 . S
C507 C508 1.398 . S
C507 C513 1.491 1_565 S
C508 H499 0.950 . S
C508 C507 1.398 . S
C508 C509 1.391 . S
C509 H497 0.950 . S
C509 C505 1.393 . S
C509 C508 1.391 . S
C510 H500 0.950 . S
C510 C511 1.386 . S
C510 C512 1.391 . S
C511 C510 1.386 . S
C511 C515 1.393 . S
C512 H501 0.950 1_545 S
C512 C510 1.391 . S
C512 C513 1.400 . S
C513 C507 1.491 1_545 S
C513 C512 1.400 . S
C513 C514 1.398 . S
C514 H502 0.950 . S
C514 C513 1.398 . S
C514 C515 1.391 . S
C515 H503 0.950 . S
C515 C511 1.393 . S
C515 C514 1.391 . S
H516 C524 0.950 . S
H517 C529 0.950 . S
H518 C526 0.950 . S
H519 C528 0.950 . S
H520 C530 0.950 . S
H521 C532 0.950 . S
H522 C534 0.950 . S
H523 C535 0.950 . S
C524 H516 0.950 . S
C524 C525 1.386 . S
C524 C526 1.391 . S
C525 C524 1.386 . S
C525 C529 1.393 . S
C526 H518 0.950 . S
C526 C524 1.391 . S
C526 C527 1.400 . S
C527 C526 1.400 . S
C527 C528 1.398 . S
C527 C533 1.491 . S
C528 H519 0.950 . S
C528 C527 1.398 . S
C528 C529 1.391 . S
C529 H517 0.950 . S
C529 C525 1.393 . S
C529 C528 1.391 . S
C530 H520 0.950 . S
C530 C531 1.386 . S
C530 C532 1.391 . S
C531 C530 1.386 . S
C531 C535 1.393 . S
C532 H521 0.950 . S
C532 C530 1.391 . S
C532 C533 1.400 . S
C533 C527 1.491 . S
C533 C532 1.400 . S
C533 C534 1.398 . S
C534 H522 0.950 . S
C534 C533 1.398 . S
C534 C535 1.391 . S
C535 H523 0.950 . S
C535 C531 1.393 . S
C535 C534 1.391 . S
H536 C544 0.950 1_565 S
H537 C549 0.950 . S
H538 C546 0.950 . S
H539 C548 0.950 . S
H540 C550 0.950 1_545 S
H541 C552 0.950 . S
H542 C554 0.950 . S
H543 C555 0.950 . S
C544 H536 0.950 1_545 S
C544 C545 1.386 . S
C544 C546 1.391 1_545 S
C545 C544 1.386 . S
C545 C549 1.393 . S
C546 H538 0.950 . S
C546 C544 1.391 1_565 S
C546 C547 1.400 1_565 S
C547 C546 1.400 1_545 S
C547 C548 1.398 . S
C547 C553 1.491 1_545 S
C548 H539 0.950 . S
C548 C547 1.398 . S
C548 C549 1.391 . S
C549 H537 0.950 . S
C549 C545 1.393 . S
C549 C548 1.391 . S
C550 H540 0.950 1_565 S
C550 C551 1.386 . S
C550 C552 1.391 1_565 S
C551 C550 1.386 . S
C551 C555 1.393 . S
C552 H541 0.950 . S
C552 C550 1.391 1_545 S
C552 C553 1.400 1_545 S
C553 C547 1.491 1_565 S
C553 C552 1.400 1_565 S
C553 C554 1.398 . S
C554 H542 0.950 . S
C554 C553 1.398 . S
C554 C555 1.391 . S
C555 H543 0.950 . S
C555 C551 1.393 . S
C555 C554 1.391 . S
H556 C564 0.950 . S
H557 C569 0.950 . S
H558 C566 0.950 . S
H559 C568 0.950 . S
H560 C570 0.950 . S
H561 C572 0.950 . S
H562 C574 0.950 . S
H563 C575 0.950 . S
C564 H556 0.950 . S
C564 C565 1.386 . S
C564 C566 1.391 . S
C565 C564 1.386 . S
C565 C569 1.393 . S
C566 H558 0.950 . S
C566 C564 1.391 . S
C566 C567 1.400 . S
C567 C566 1.400 . S
C567 C568 1.398 . S
C567 C573 1.491 1_556 S
C568 H559 0.950 . S
C568 C567 1.398 . S
C568 C569 1.391 . S
C569 H557 0.950 . S
C569 C565 1.393 . S
C569 C568 1.391 . S
C570 H560 0.950 . S
C570 C571 1.386 . S
C570 C572 1.391 . S
C571 C570 1.386 . S
C571 C575 1.393 . S
C572 H561 0.950 . S
C572 C570 1.391 . S
C572 C573 1.400 . S
C573 C567 1.491 1_554 S
C573 C572 1.400 . S
C573 C574 1.398 . S
C574 H562 0.950 . S
C574 C573 1.398 . S
C574 C575 1.391 . S
C575 H563 0.950 . S
C575 C571 1.393 . S
C575 C574 1.391 . S
H576 C584 0.950 . S
H577 C589 0.950 . S
H578 C586 0.950 . S
H579 C588 0.950 . S
H580 C590 0.950 . S
H581 C592 0.950 . S
H582 C594 0.950 . S
H583 C595 0.950 . S
C584 H576 0.950 . S
C584 C585 1.386 . S
C584 C586 1.391 . S
C585 C584 1.386 . S
C585 C589 1.393 . S
C586 H578 0.950 . S
C586 C584 1.391 . S
C586 C587 1.400 . S
C587 C586 1.400 . S
C587 C588 1.398 . S
C587 C593 1.491 . S
C588 H579 0.950 . S
C588 C587 1.398 . S
C588 C589 1.391 . S
C589 H577 0.950 . S
C589 C585 1.393 . S
C589 C588 1.391 . S
C590 H580 0.950 . S
C590 C591 1.386 . S
C590 C592 1.391 . S
C591 C590 1.386 . S
C591 C595 1.393 . S
C592 H581 0.950 . S
C592 C590 1.391 . S
C592 C593 1.400 . S
C593 C587 1.491 . S
C593 C592 1.400 . S
C593 C594 1.398 . S
C594 H582 0.950 . S
C594 C593 1.398 . S
C594 C595 1.391 . S
C595 H583 0.950 . S
C595 C591 1.393 . S
C595 C594 1.391 . S
H596 C604 0.950 . S
H597 C609 0.950 . S
H598 C606 0.950 . S
H599 C608 1.003 . S
H600 C610 0.950 . S
H601 C612 0.950 . S
H602 C614 1.003 . S
H603 C615 0.950 . S
C604 H596 0.950 . S
C604 C605 1.386 . S
C604 C606 1.391 . S
C605 C604 1.386 . S
C605 C609 1.393 . S
C606 H598 0.950 . S
C606 C604 1.391 . S
C606 C607 1.400 . S
C607 C606 1.400 . S
C607 C608 1.398 . S
C607 C613 1.491 1_554 S
C608 H599 1.003 . S
C608 C607 1.398 . S
C608 C609 1.391 . S
C609 H597 0.950 . S
C609 C605 1.393 . S
C609 C608 1.391 . S
C610 H600 0.950 . S
C610 C611 1.386 . S
C610 C612 1.391 . S
C611 C610 1.386 . S
C611 C615 1.393 . S
C612 H601 0.950 . S
C612 C610 1.391 . S
C612 C613 1.400 . S
C613 C607 1.491 1_556 S
C613 C612 1.400 . S
C613 C614 1.398 . S
C614 H602 1.003 . S
C614 C613 1.398 . S
C614 C615 1.391 . S
C615 H603 0.950 . S
C615 C611 1.393 . S
C615 C614 1.391 . S
H616 C624 0.950 . S
H617 C629 0.950 . S
H618 C626 0.950 . S
H619 C628 0.950 . S
H620 C630 0.950 . S
H621 C632 0.950 . S
H622 C634 0.950 . S
H623 C635 0.950 . S
C624 H616 0.950 . S
C624 C625 1.386 . S
C624 C626 1.391 . S
C625 C624 1.386 . S
C625 C629 1.393 . S
C626 H618 0.950 . S
C626 C624 1.391 . S
C626 C627 1.400 . S
C627 C626 1.400 . S
C627 C628 1.398 . S
C627 C633 1.491 . S
C628 H619 0.950 . S
C628 C627 1.398 . S
C628 C629 1.391 . S
C629 H617 0.950 . S
C629 C625 1.393 . S
C629 C628 1.391 . S
C630 H620 0.950 . S
C630 C631 1.386 . S
C630 C632 1.391 . S
C631 C630 1.386 . S
C631 C635 1.393 . S
C632 H621 0.950 . S
C632 C630 1.391 . S
C632 C633 1.400 . S
C633 C627 1.491 . S
C633 C632 1.400 . S
C633 C634 1.398 . S
C634 H622 0.950 . S
C634 C633 1.398 . S
C634 C635 1.391 . S
C635 H623 0.950 . S
C635 C631 1.393 . S
C635 C634 1.391 . S
H636 C644 0.950 . S
H637 C649 0.950 . S
H638 C646 0.950 . S
H639 C648 0.950 . S
H640 C650 0.950 . S
H641 C652 0.950 . S
H642 C654 0.950 . S
H643 C655 0.950 . S
C644 H636 0.950 . S
C644 C645 1.386 . S
C644 C646 1.391 . S
C645 C644 1.386 . S
C645 C649 1.393 . S
C646 H638 0.950 . S
C646 C644 1.391 . S
C646 C647 1.400 . S
C647 C646 1.400 . S
C647 C648 1.398 . S
C647 C653 1.491 . S
C648 H639 0.950 . S
C648 C647 1.398 . S
C648 C649 1.391 . S
C649 H637 0.950 . S
C649 C645 1.393 . S
C649 C648 1.391 . S
C650 H640 0.950 . S
C650 C651 1.386 . S
C650 C652 1.391 . S
C651 C650 1.386 . S
C651 C655 1.393 . S
C652 H641 0.950 . S
C652 C650 1.391 . S
C652 C653 1.400 . S
C653 C647 1.491 . S
C653 C652 1.400 . S
C653 C654 1.398 . S
C654 H642 0.950 . S
C654 C653 1.398 . S
C654 C655 1.391 . S
C655 H643 0.950 . S
C655 C651 1.393 . S
C655 C654 1.391 . S
H656 C664 0.950 . S
H657 C669 0.950 . S
H658 C666 0.950 . S
H659 C668 0.950 . S
H660 C670 0.950 . S
H661 C672 0.950 . S
H662 C674 0.950 . S
H663 C675 0.950 . S
C664 H656 0.950 . S
C664 C665 1.386 . S
C664 C666 1.391 . S
C665 C664 1.386 . S
C665 C669 1.393 . S
C666 H658 0.950 . S
C666 C664 1.391 . S
C666 C667 1.400 . S
C667 C666 1.400 . S
C667 C668 1.398 . S
C667 C673 1.491 . S
C668 H659 0.950 . S
C668 C667 1.398 . S
C668 C669 1.391 . S
C669 H657 0.950 . S
C669 C665 1.393 . S
C669 C668 1.391 . S
C670 H660 0.950 . S
C670 C671 1.386 . S
C670 C672 1.391 . S
C671 C670 1.386 . S
C671 C675 1.393 . S
C672 H661 0.950 . S
C672 C670 1.391 . S
C672 C673 1.400 . S
C673 C667 1.491 . S
C673 C672 1.400 . S
C673 C674 1.398 . S
C674 H662 0.950 . S
C674 C673 1.398 . S
C674 C675 1.391 . S
C675 H663 0.950 . S
C675 C671 1.393 . S
C675 C674 1.391 . S
H676 C684 0.950 . S
H677 C689 0.950 . S
H678 C686 0.950 . S
H679 C688 1.003 . S
H680 C690 0.950 . S
H681 C692 0.950 . S
H682 C694 1.003 . S
H683 C695 0.950 . S
C684 H676 0.950 . S
C684 C685 1.386 . S
C684 C686 1.391 . S
C685 C684 1.386 . S
C685 C689 1.393 . S
C686 H678 0.950 . S
C686 C684 1.391 . S
C686 C687 1.400 . S
C687 C686 1.400 . S
C687 C688 1.398 . S
C687 C693 1.491 1_554 S
C688 H679 1.003 . S
C688 C687 1.398 . S
C688 C689 1.391 . S
C689 H677 0.950 . S
C689 C685 1.393 . S
C689 C688 1.391 . S
C690 H680 0.950 . S
C690 C691 1.386 . S
C690 C692 1.391 . S
C691 C690 1.386 . S
C691 C695 1.393 . S
C692 H681 0.950 . S
C692 C690 1.391 . S
C692 C693 1.400 . S
C693 C687 1.491 1_556 S
C693 C692 1.400 . S
C693 C694 1.398 . S
C694 H682 1.003 . S
C694 C693 1.398 . S
C694 C695 1.391 . S
C695 H683 0.950 . S
C695 C691 1.393 . S
C695 C694 1.391 . S
H696 C704 0.950 . S
H697 C709 0.950 . S
H698 C706 0.950 . S
H699 C708 0.950 . S
H700 C710 0.950 . S
H701 C712 0.950 . S
H702 C714 0.950 . S
H703 C715 0.950 . S
C704 H696 0.950 . S
C704 C705 1.386 . S
C704 C706 1.391 . S
C705 C704 1.386 . S
C705 C709 1.393 . S
C706 H698 0.950 . S
C706 C704 1.391 . S
C706 C707 1.400 . S
C707 C706 1.400 . S
C707 C708 1.398 . S
C707 C713 1.491 . S
C708 H699 0.950 . S
C708 C707 1.398 . S
C708 C709 1.391 . S
C709 H697 0.950 . S
C709 C705 1.393 . S
C709 C708 1.391 . S
C710 H700 0.950 . S
C710 C711 1.386 . S
C710 C712 1.391 . S
C711 C710 1.386 . S
C711 C715 1.393 . S
C712 H701 0.950 . S
C712 C710 1.391 . S
C712 C713 1.400 . S
C713 C707 1.491 . S
C713 C712 1.400 . S
C713 C714 1.398 . S
C714 H702 0.950 . S
C714 C713 1.398 . S
C714 C715 1.391 . S
C715 H703 0.950 . S
C715 C711 1.393 . S
C715 C714 1.391 . S
H716 C724 0.950 . S
H717 C729 0.950 . S
H718 C726 0.950 . S
H719 C728 0.950 . S
H720 C730 0.950 . S
H721 C732 0.950 . S
H722 C734 0.950 . S
H723 C735 0.950 . S
C724 H716 0.950 . S
C724 C725 1.386 . S
C724 C726 1.391 . S
C725 C724 1.386 . S
C725 C729 1.393 . S
C726 H718 0.950 . S
C726 C724 1.391 . S
C726 C727 1.400 . S
C727 C726 1.400 . S
C727 C728 1.398 . S
C727 C733 1.491 . S
C728 H719 0.950 . S
C728 C727 1.398 . S
C728 C729 1.391 . S
C729 H717 0.950 . S
C729 C725 1.393 . S
C729 C728 1.391 . S
C730 H720 0.950 . S
C730 C731 1.386 . S
C730 C732 1.391 . S
C731 C730 1.386 . S
C731 C735 1.393 . S
C732 H721 0.950 . S
C732 C730 1.391 . S
C732 C733 1.400 . S
C733 C727 1.491 . S
C733 C732 1.400 . S
C733 C734 1.398 . S
C734 H722 0.950 . S
C734 C733 1.398 . S
C734 C735 1.391 . S
C735 H723 0.950 . S
C735 C731 1.393 . S
C735 C734 1.391 . S
H736 C744 0.950 . S
H737 C749 0.950 . S
H738 C746 0.950 . S
H739 C748 0.945 1_545 S
H740 C750 0.950 . S
H741 C752 0.950 . S
H742 C754 0.950 . S
H743 C755 0.950 . S
C744 H736 0.950 . S
C744 C745 1.386 1_565 S
C744 C746 1.391 . S
C745 C744 1.386 1_545 S
C745 C749 1.393 . S
C746 H738 0.950 . S
C746 C744 1.391 . S
C746 C747 1.400 . S
C747 C746 1.400 . S
C747 C748 1.398 . S
C747 C753 1.491 . S
C748 H739 0.945 1_565 S
C748 C747 1.398 . S
C748 C749 1.391 1_565 S
C749 H737 0.950 . S
C749 C745 1.393 . S
C749 C748 1.391 1_545 S
C750 H740 0.950 . S
C750 C751 1.386 . S
C750 C752 1.391 . S
C751 C750 1.386 . S
C751 C755 1.393 . S
C752 H741 0.950 . S
C752 C750 1.391 . S
C752 C753 1.400 . S
C753 C747 1.491 . S
C753 C752 1.400 . S
C753 C754 1.398 . S
C754 H742 0.950 . S
C754 C753 1.398 . S
C754 C755 1.391 . S
C755 H743 0.950 . S
C755 C751 1.393 . S
C755 C754 1.391 . S
H756 C764 0.950 . S
H757 C769 0.950 . S
H758 C766 0.950 . S
H759 C768 0.950 . S
H760 C770 0.950 . S
H761 C772 0.950 . S
H762 C774 0.950 . S
H763 C775 0.950 . S
C764 H756 0.950 . S
C764 C765 1.386 . S
C764 C766 1.391 . S
C765 C764 1.386 . S
C765 C769 1.393 . S
C766 H758 0.950 . S
C766 C764 1.391 . S
C766 C767 1.400 . S
C767 C766 1.400 . S
C767 C768 1.398 . S
C767 C773 1.491 . S
C768 H759 0.950 . S
C768 C767 1.398 . S
C768 C769 1.391 . S
C769 H757 0.950 . S
C769 C765 1.393 . S
C769 C768 1.391 . S
C770 H760 0.950 . S
C770 C771 1.386 . S
C770 C772 1.391 1_565 S
C771 C770 1.386 . S
C771 C775 1.393 1_565 S
C772 H761 0.950 . S
C772 C770 1.391 1_545 S
C772 C773 1.400 . S
C773 C767 1.491 . S
C773 C772 1.400 . S
C773 C774 1.398 . S
C774 H762 0.950 . S
C774 C773 1.398 . S
C774 C775 1.391 . S
C775 H763 0.950 . S
C775 C771 1.393 1_545 S
C775 C774 1.391 . S
H776 C784 0.950 . S
H777 C789 0.950 . S
H778 C786 0.950 . S
H779 C788 0.950 . S
H780 C790 0.950 . S
H781 C792 0.950 . S
H782 C794 0.950 . S
H783 C795 0.950 . S
C784 H776 0.950 . S
C784 C785 1.386 1_545 S
C784 C786 1.391 . S
C785 C784 1.386 1_565 S
C785 C789 1.393 . S
C786 H778 0.950 . S
C786 C784 1.391 . S
C786 C787 1.400 . S
C787 C786 1.400 . S
C787 C788 1.398 1_545 S
C787 C793 1.491 . S
C788 H779 0.950 . S
C788 C787 1.398 1_565 S
C788 C789 1.391 . S
C789 H777 0.950 . S
C789 C785 1.393 . S
C789 C788 1.391 . S
C790 H780 0.950 . S
C790 C791 1.386 . S
C790 C792 1.391 . S
C791 C790 1.386 . S
C791 C795 1.393 . S
C792 H781 0.950 . S
C792 C790 1.391 . S
C792 C793 1.400 . S
C793 C787 1.491 . S
C793 C792 1.400 . S
C793 C794 1.398 . S
C794 H782 0.950 . S
C794 C793 1.398 . S
C794 C795 1.391 . S
C795 H783 0.950 . S
C795 C791 1.393 . S
C795 C794 1.391 . S
H796 C804 0.950 . S
H797 C809 0.950 . S
H798 C806 0.950 . S
H799 C808 0.950 . S
H800 C810 0.950 . S
H801 C812 0.950 . S
H802 C814 0.950 . S
H803 C815 0.950 . S
C804 H796 0.950 . S
C804 C805 1.386 . S
C804 C806 1.391 1_545 S
C805 C804 1.386 . S
C805 C809 1.393 1_545 S
C806 H798 0.950 . S
C806 C804 1.391 1_565 S
C806 C807 1.400 . S
C807 C806 1.400 . S
C807 C808 1.398 . S
C807 C813 1.491 . S
C808 H799 0.950 . S
C808 C807 1.398 . S
C808 C809 1.391 . S
C809 H797 0.950 . S
C809 C805 1.393 1_565 S
C809 C808 1.391 . S
C810 H800 0.950 . S
C810 C811 1.386 . S
C810 C812 1.391 . S
C811 C810 1.386 . S
C811 C815 1.393 . S
C812 H801 0.950 . S
C812 C810 1.391 . S
C812 C813 1.400 . S
C813 C807 1.491 . S
C813 C812 1.400 . S
C813 C814 1.398 . S
C814 H802 0.950 . S
C814 C813 1.398 . S
C814 C815 1.391 . S
C815 H803 0.950 . S
C815 C811 1.393 . S
C815 C814 1.391 . S
H816 C824 0.950 . S
H817 C829 0.950 . S
H818 C826 0.950 . S
H819 C828 0.950 . S
H820 C830 0.950 . S
H821 C832 0.950 . S
H822 C834 0.950 . S
H823 C835 0.950 . S
C824 H816 0.950 . S
C824 C825 1.386 . S
C824 C826 1.391 . S
C825 C824 1.386 . S
C825 C829 1.393 . S
C826 H818 0.950 . S
C826 C824 1.391 . S
C826 C827 1.400 . S
C827 C826 1.400 . S
C827 C828 1.398 . S
C827 C833 1.491 . S
C828 H819 0.950 . S
C828 C827 1.398 . S
C828 C829 1.391 . S
C829 H817 0.950 . S
C829 C825 1.393 . S
C829 C828 1.391 . S
C830 H820 0.950 . S
C830 C831 1.386 . S
C830 C832 1.391 1_565 S
C831 C830 1.386 . S
C831 C835 1.393 . S
C832 H821 0.950 . S
C832 C830 1.391 1_545 S
C832 C833 1.400 . S
C833 C827 1.491 . S
C833 C832 1.400 . S
C833 C834 1.398 . S
C834 H822 0.950 . S
C834 C833 1.398 . S
C834 C835 1.391 1_545 S
C835 H823 0.950 . S
C835 C831 1.393 . S
C835 C834 1.391 1_565 S
H836 C844 0.950 . S
H837 C849 0.950 . S
H838 C846 0.950 . S
H839 C848 0.950 . S
H840 C850 0.950 . S
H841 C852 0.950 . S
H842 C854 0.950 . S
H843 C855 0.950 . S
C844 H836 0.950 . S
C844 C845 1.386 1_565 S
C844 C846 1.391 . S
C845 C844 1.386 1_545 S
C845 C849 1.393 . S
C846 H838 0.950 . S
C846 C844 1.391 . S
C846 C847 1.400 . S
C847 C846 1.400 . S
C847 C848 1.398 . S
C847 C853 1.491 . S
C848 H839 0.950 . S
C848 C847 1.398 . S
C848 C849 1.391 1_565 S
C849 H837 0.950 . S
C849 C845 1.393 . S
C849 C848 1.391 1_545 S
C850 H840 0.950 . S
C850 C851 1.386 . S
C850 C852 1.391 . S
C851 C850 1.386 . S
C851 C855 1.393 . S
C852 H841 0.950 . S
C852 C850 1.391 . S
C852 C853 1.400 . S
C853 C847 1.491 . S
C853 C852 1.400 . S
C853 C854 1.398 . S
C854 H842 0.950 . S
C854 C853 1.398 . S
C854 C855 1.391 . S
C855 H843 0.950 . S
C855 C851 1.393 . S
C855 C854 1.391 . S
H856 C864 0.950 . S
H857 C869 0.950 . S
H858 C866 0.950 . S
H859 C868 0.950 . S
H860 C870 0.950 . S
H861 C872 0.950 1_545 S
H862 C874 0.950 . S
H863 C875 0.950 . S
C864 H856 0.950 . S
C864 C865 1.386 . S
C864 C866 1.391 . S
C865 C864 1.386 . S
C865 C869 1.393 . S
C866 H858 0.950 . S
C866 C864 1.391 . S
C866 C867 1.400 . S
C867 C866 1.400 . S
C867 C868 1.398 . S
C867 C873 1.491 . S
C868 H859 0.950 . S
C868 C867 1.398 . S
C868 C869 1.391 . S
C869 H857 0.950 . S
C869 C865 1.393 . S
C869 C868 1.391 . S
C870 H860 0.950 . S
C870 C871 1.386 . S
C870 C872 1.391 1_545 S
C871 C870 1.386 . S
C871 C875 1.393 1_545 S
C872 H861 0.950 1_565 S
C872 C870 1.391 1_565 S
C872 C873 1.400 . S
C873 C867 1.491 . S
C873 C872 1.400 . S
C873 C874 1.398 . S
C874 H862 0.950 . S
C874 C873 1.398 . S
C874 C875 1.391 . S
C875 H863 0.950 . S
C875 C871 1.393 1_565 S
C875 C874 1.391 . S
H876 C884 0.950 . S
H877 C889 0.950 . S
H878 C886 0.950 . S
H879 C888 0.950 . S
H880 C890 0.950 1_565 S
H881 C892 0.950 . S
H882 C894 0.950 . S
H883 C895 0.950 . S
C884 H876 0.950 . S
C884 C885 1.386 . S
C884 C886 1.391 . S
C885 C884 1.386 . S
C885 C889 1.393 . S
C886 H878 0.950 . S
C886 C884 1.391 . S
C886 C887 1.400 . S
C887 C886 1.400 . S
C887 C888 1.398 . S
C887 C893 1.491 . S
C888 H879 0.950 . S
C888 C887 1.398 . S
C888 C889 1.391 . S
C889 H877 0.950 . S
C889 C885 1.393 . S
C889 C888 1.391 . S
C890 H880 0.950 1_545 S
C890 C891 1.386 1_545 S
C890 C892 1.391 . S
C891 C890 1.386 1_565 S
C891 C895 1.393 . S
C892 H881 0.950 . S
C892 C890 1.391 . S
C892 C893 1.400 . S
C893 C887 1.491 . S
C893 C892 1.400 . S
C893 C894 1.398 . S
C894 H882 0.950 . S
C894 C893 1.398 . S
C894 C895 1.391 1_545 S
C895 H883 0.950 . S
C895 C891 1.393 . S
C895 C894 1.391 1_565 S
H896 C904 0.950 . S
H897 C909 0.950 . S
H898 C906 0.950 . S
H899 C908 0.950 . S
H900 C910 0.950 . S
H901 C912 0.950 . S
H902 C914 0.950 . S
H903 C915 0.950 . S
C904 H896 0.950 . S
C904 C905 1.386 . S
C904 C906 1.391 . S
C905 C904 1.386 . S
C905 C909 1.393 . S
C906 H898 0.950 . S
C906 C904 1.391 . S
C906 C907 1.400 . S
C907 C906 1.400 . S
C907 C908 1.398 . S
C907 C913 1.491 . S
C908 H899 0.950 . S
C908 C907 1.398 . S
C908 C909 1.391 . S
C909 H897 0.950 . S
C909 C905 1.393 . S
C909 C908 1.391 . S
C910 H900 0.950 . S
C910 C911 1.386 . S
C910 C912 1.391 . S
C911 C910 1.386 . S
C911 C915 1.393 . S
C912 H901 0.950 . S
C912 C910 1.391 . S
C912 C913 1.400 . S
C913 C907 1.491 . S
C913 C912 1.400 . S
C913 C914 1.398 . S
C914 H902 0.950 . S
C914 C913 1.398 . S
C914 C915 1.391 . S
C915 H903 0.950 . S
C915 C911 1.393 . S
C915 C914 1.391 . S
H916 C924 0.950 . S
H917 C929 0.950 . S
H918 C926 0.950 . S
H919 C928 0.950 . S
H920 C930 0.950 . S
H921 C932 0.950 . S
H922 C934 0.950 . S
H923 C935 0.950 . S
C924 H916 0.950 . S
C924 C925 1.386 . S
C924 C926 1.391 . S
C925 C924 1.386 . S
C925 C929 1.393 . S
C926 H918 0.950 . S
C926 C924 1.391 . S
C926 C927 1.400 . S
C927 C926 1.400 . S
C927 C928 1.398 . S
C927 C933 1.491 . S
C928 H919 0.950 . S
C928 C927 1.398 . S
C928 C929 1.391 . S
C929 H917 0.950 . S
C929 C925 1.393 . S
C929 C928 1.391 . S
C930 H920 0.950 . S
C930 C931 1.386 . S
C930 C932 1.391 . S
C931 C930 1.386 . S
C931 C935 1.393 . S
C932 H921 0.950 . S
C932 C930 1.391 . S
C932 C933 1.400 . S
C933 C927 1.491 . S
C933 C932 1.400 . S
C933 C934 1.398 . S
C934 H922 0.950 . S
C934 C933 1.398 . S
C934 C935 1.391 . S
C935 H923 0.950 . S
C935 C931 1.393 . S
C935 C934 1.391 . S
H936 C944 0.950 . S
H937 C949 0.950 . S
H938 C946 0.950 . S
H939 C948 0.950 . S
H940 C950 0.950 . S
H941 C952 0.950 . S
H942 C954 0.950 . S
H943 C955 0.950 . S
C944 H936 0.950 . S
C944 C945 1.386 . S
C944 C946 1.391 . S
C945 C944 1.386 . S
C945 C949 1.393 . S
C946 H938 0.950 . S
C946 C944 1.391 . S
C946 C947 1.400 . S
C947 C946 1.400 . S
C947 C948 1.398 . S
C947 C953 1.491 . S
C948 H939 0.950 . S
C948 C947 1.398 . S
C948 C949 1.391 . S
C949 H937 0.950 . S
C949 C945 1.393 . S
C949 C948 1.391 . S
C950 H940 0.950 . S
C950 C951 1.386 . S
C950 C952 1.391 . S
C951 C950 1.386 . S
C951 C955 1.393 . S
C952 H941 0.950 . S
C952 C950 1.391 . S
C952 C953 1.400 . S
C953 C947 1.491 . S
C953 C952 1.400 . S
C953 C954 1.398 . S
C954 H942 0.950 . S
C954 C953 1.398 . S
C954 C955 1.391 . S
C955 H943 0.950 . S
C955 C951 1.393 . S
C955 C954 1.391 . S
H956 C964 0.950 . S
H957 C969 0.950 . S
H958 C966 0.950 . S
H959 C968 0.950 . S
H960 C970 0.950 . S
H961 C972 0.950 . S
H962 C974 0.950 . S
H963 C975 0.950 . S
C964 H956 0.950 . S
C964 C965 1.386 . S
C964 C966 1.391 . S
C965 C964 1.386 . S
C965 C969 1.393 . S
C966 H958 0.950 . S
C966 C964 1.391 . S
C966 C967 1.400 . S
C967 C966 1.400 . S
C967 C968 1.398 . S
C967 C973 1.491 . S
C968 H959 0.950 . S
C968 C967 1.398 . S
C968 C969 1.391 . S
C969 H957 0.950 . S
C969 C965 1.393 . S
C969 C968 1.391 . S
C970 H960 0.950 . S
C970 C971 1.386 . S
C970 C972 1.391 . S
C971 C970 1.386 . S
C971 C975 1.393 . S
C972 H961 0.950 . S
C972 C970 1.391 . S
C972 C973 1.400 . S
C973 C967 1.491 . S
C973 C972 1.400 . S
C973 C974 1.398 . S
C974 H962 0.950 . S
C974 C973 1.398 . S
C974 C975 1.391 . S
C975 H963 0.950 . S
C975 C971 1.393 . S
C975 C974 1.391 . S
H976 C984 0.950 . S
H977 C989 0.950 . S
H978 C986 0.950 . S
H979 C988 0.950 . S
H980 C990 0.950 . S
H981 C992 0.950 . S
H982 C994 0.950 . S
H983 C995 0.950 . S
C984 H976 0.950 . S
C984 C985 1.386 . S
C984 C986 1.391 . S
C985 C984 1.386 . S
C985 C989 1.393 . S
C986 H978 0.950 . S
C986 C984 1.391 . S
C986 C987 1.400 . S
C987 C986 1.400 . S
C987 C988 1.398 . S
C987 C993 1.491 . S
C988 H979 0.950 . S
C988 C987 1.398 . S
C988 C989 1.391 . S
C989 H977 0.950 . S
C989 C985 1.393 . S
C989 C988 1.391 . S
C990 H980 0.950 . S
C990 C991 1.386 . S
C990 C992 1.391 . S
C991 C990 1.386 . S
C991 C995 1.393 . S
C992 H981 0.950 . S
C992 C990 1.391 . S
C992 C993 1.400 . S
C993 C987 1.491 . S
C993 C992 1.400 . S
C993 C994 1.398 . S
C994 H982 0.950 . S
C994 C993 1.398 . S
C994 C995 1.391 . S
C995 H983 0.950 . S
C995 C991 1.393 . S
C995 C994 1.391 . S
H996 C1004 0.950 . S
H997 C1009 0.950 . S
H998 C1006 0.950 . S
H999 C1008 0.950 . S
H1000 C1010 0.950 . S
H1001 C1012 0.950 . S
H1002 C1014 0.950 . S
H1003 C1015 0.950 . S
C1004 H996 0.950 . S
C1004 C1005 1.386 . S
C1004 C1006 1.391 . S
C1005 C1004 1.386 . S
C1005 C1009 1.393 . S
C1006 H998 0.950 . S
C1006 C1004 1.391 . S
C1006 C1007 1.400 . S
C1007 C1006 1.400 . S
C1007 C1008 1.398 . S
C1007 C1013 1.491 . S
C1008 H999 0.950 . S
C1008 C1007 1.398 . S
C1008 C1009 1.391 . S
C1009 H997 0.950 . S
C1009 C1005 1.393 . S
C1009 C1008 1.391 . S
C1010 H1000 0.950 . S
C1010 C1011 1.386 . S
C1010 C1012 1.391 . S
C1011 C1010 1.386 . S
C1011 C1015 1.393 . S
C1012 H1001 0.950 . S
C1012 C1010 1.391 . S
C1012 C1013 1.400 . S
C1013 C1007 1.491 . S
C1013 C1012 1.400 . S
C1013 C1014 1.398 . S
C1014 H1002 0.950 . S
C1014 C1013 1.398 . S
C1014 C1015 1.391 . S
C1015 H1003 0.950 . S
C1015 C1011 1.393 . S
C1015 C1014 1.391 . S
H1016 C1024 0.950 . S
H1017 C1029 0.950 . S
H1018 C1026 0.950 . S
H1019 C1028 0.950 . S
H1020 C1030 0.950 . S
H1021 C1032 0.950 . S
H1022 C1034 0.950 . S
H1023 C1035 0.950 . S
C1024 H1016 0.950 . S
C1024 C1025 1.386 . S
C1024 C1026 1.391 . S
C1025 C1024 1.386 . S
C1025 C1029 1.393 . S
C1026 H1018 0.950 . S
C1026 C1024 1.391 . S
C1026 C1027 1.400 . S
C1027 C1026 1.400 . S
C1027 C1028 1.398 . S
C1027 C1033 1.491 . S
C1028 H1019 0.950 . S
C1028 C1027 1.398 . S
C1028 C1029 1.391 . S
C1029 H1017 0.950 . S
C1029 C1025 1.393 . S
C1029 C1028 1.391 . S
C1030 H1020 0.950 . S
C1030 C1031 1.386 . S
C1030 C1032 1.391 . S
C1031 C1030 1.386 . S
C1031 C1035 1.393 . S
C1032 H1021 0.950 . S
C1032 C1030 1.391 . S
C1032 C1033 1.400 . S
C1033 C1027 1.491 . S
C1033 C1032 1.400 . S
C1033 C1034 1.398 . S
C1034 H1022 0.950 . S
C1034 C1033 1.398 . S
C1034 C1035 1.391 . S
C1035 H1023 0.950 . S
C1035 C1031 1.393 . S
C1035 C1034 1.391 . S
H1036 C1044 0.950 . S
H1037 C1049 0.950 . S
H1038 C1046 0.950 . S
H1039 C1048 0.950 . S
H1040 C1050 0.950 . S
H1041 C1052 0.950 . S
H1042 C1054 0.950 . S
H1043 C1055 0.950 . S
C1044 H1036 0.950 . S
C1044 C1045 1.386 . S
C1044 C1046 1.391 . S
C1045 C1044 1.386 . S
C1045 C1049 1.393 . S
C1046 H1038 0.950 . S
C1046 C1044 1.391 . S
C1046 C1047 1.400 . S
C1047 C1046 1.400 . S
C1047 C1048 1.398 . S
C1047 C1053 1.491 . S
C1048 H1039 0.950 . S
C1048 C1047 1.398 . S
C1048 C1049 1.391 . S
C1049 H1037 0.950 . S
C1049 C1045 1.393 . S
C1049 C1048 1.391 . S
C1050 H1040 0.950 . S
C1050 C1051 1.386 . S
C1050 C1052 1.391 . S
C1051 C1050 1.386 . S
C1051 C1055 1.393 . S
C1052 H1041 0.950 . S
C1052 C1050 1.391 . S
C1052 C1053 1.400 . S
C1053 C1047 1.491 . S
C1053 C1052 1.400 . S
C1053 C1054 1.398 . S
C1054 H1042 0.950 . S
C1054 C1053 1.398 . S
C1054 C1055 1.391 . S
C1055 H1043 0.950 . S
C1055 C1051 1.393 . S
C1055 C1054 1.391 . S
H1056 C1064 0.950 . S
H1057 C1069 0.950 . S
H1058 C1066 0.950 . S
H1059 C1068 0.950 . S
H1060 C1070 0.950 . S
H1061 C1072 0.950 . S
H1062 C1074 0.950 . S
H1063 C1075 0.950 . S
C1064 H1056 0.950 . S
C1064 C1065 1.386 . S
C1064 C1066 1.391 . S
C1065 C1064 1.386 . S
C1065 C1069 1.393 . S
C1066 H1058 0.950 . S
C1066 C1064 1.391 . S
C1066 C1067 1.400 . S
C1067 C1066 1.400 . S
C1067 C1068 1.398 . S
C1067 C1073 1.491 . S
C1068 H1059 0.950 . S
C1068 C1067 1.398 . S
C1068 C1069 1.391 . S
C1069 H1057 0.950 . S
C1069 C1065 1.393 . S
C1069 C1068 1.391 . S
C1070 H1060 0.950 . S
C1070 C1071 1.386 . S
C1070 C1072 1.391 . S
C1071 C1070 1.386 . S
C1071 C1075 1.393 . S
C1072 H1061 0.950 . S
C1072 C1070 1.391 . S
C1072 C1073 1.400 . S
C1073 C1067 1.491 . S
C1073 C1072 1.400 . S
C1073 C1074 1.398 . S
C1074 H1062 0.950 . S
C1074 C1073 1.398 . S
C1074 C1075 1.391 . S
C1075 H1063 0.950 . S
C1075 C1071 1.393 . S
C1075 C1074 1.391 . S
H1076 C1084 0.950 . S
H1077 C1089 0.950 . S
H1078 C1086 0.950 . S
H1079 C1088 0.950 . S
H1080 C1090 0.950 . S
H1081 C1092 0.950 . S
H1082 C1094 0.950 . S
H1083 C1095 0.950 . S
C1084 H1076 0.950 . S
C1084 C1085 1.386 . S
C1084 C1086 1.391 . S
C1085 C1084 1.386 . S
C1085 C1089 1.393 . S
C1086 H1078 0.950 . S
C1086 C1084 1.391 . S
C1086 C1087 1.400 . S
C1087 C1086 1.400 . S
C1087 C1088 1.398 . S
C1087 C1093 1.491 . S
C1088 H1079 0.950 . S
C1088 C1087 1.398 . S
C1088 C1089 1.391 . S
C1089 H1077 0.950 . S
C1089 C1085 1.393 . S
C1089 C1088 1.391 . S
C1090 H1080 0.950 . S
C1090 C1091 1.386 . S
C1090 C1092 1.391 1_655 S
C1091 C1090 1.386 . S
C1091 C1095 1.393 . S
C1092 H1081 0.950 . S
C1092 C1090 1.391 1_455 S
C1092 C1093 1.400 . S
C1093 C1087 1.491 . S
C1093 C1092 1.400 . S
C1093 C1094 1.398 . S
C1094 H1082 0.950 . S
C1094 C1093 1.398 . S
C1094 C1095 1.391 1_455 S
C1095 H1083 0.950 . S
C1095 C1091 1.393 . S
C1095 C1094 1.391 1_655 S
H1096 C1104 0.950 . S
H1097 C1109 0.950 . S
H1098 C1106 0.950 . S
H1099 C1108 0.950 . S
H1100 C1110 0.950 . S
H1101 C1112 0.950 . S
H1102 C1114 0.950 . S
H1103 C1115 0.950 . S
C1104 H1096 0.950 . S
C1104 C1105 1.386 . S
C1104 C1106 1.391 . S
C1105 C1104 1.386 . S
C1105 C1109 1.393 . S
C1106 H1098 0.950 . S
C1106 C1104 1.391 . S
C1106 C1107 1.400 . S
C1107 C1106 1.400 . S
C1107 C1108 1.398 . S
C1107 C1113 1.491 . S
C1108 H1099 0.950 . S
C1108 C1107 1.398 . S
C1108 C1109 1.391 . S
C1109 H1097 0.950 . S
C1109 C1105 1.393 . S
C1109 C1108 1.391 . S
C1110 H1100 0.950 . S
C1110 C1111 1.386 . S
C1110 C1112 1.391 . S
C1111 C1110 1.386 . S
C1111 C1115 1.393 . S
C1112 H1101 0.950 . S
C1112 C1110 1.391 . S
C1112 C1113 1.400 . S
C1113 C1107 1.491 . S
C1113 C1112 1.400 . S
C1113 C1114 1.398 . S
C1114 H1102 0.950 . S
C1114 C1113 1.398 . S
C1114 C1115 1.391 . S
C1115 H1103 0.950 . S
C1115 C1111 1.393 . S
C1115 C1114 1.391 . S
H1116 C1124 0.950 . S
H1117 C1129 0.950 . S
H1118 C1126 0.950 . S
H1119 C1128 0.950 . S
H1120 C1130 0.950 . S
H1121 C1132 0.950 . S
H1122 C1134 0.950 . S
H1123 C1135 0.950 . S
C1124 H1116 0.950 . S
C1124 C1125 1.386 . S
C1124 C1126 1.391 . S
C1125 C1124 1.386 . S
C1125 C1129 1.393 . S
C1126 H1118 0.950 . S
C1126 C1124 1.391 . S
C1126 C1127 1.400 . S
C1127 C1126 1.400 . S
C1127 C1128 1.398 . S
C1127 C1133 1.491 . S
C1128 H1119 0.950 . S
C1128 C1127 1.398 . S
C1128 C1129 1.391 . S
C1129 H1117 0.950 . S
C1129 C1125 1.393 . S
C1129 C1128 1.391 . S
C1130 H1120 0.950 . S
C1130 C1131 1.386 . S
C1130 C1132 1.391 . S
C1131 C1130 1.386 . S
C1131 C1135 1.393 . S
C1132 H1121 0.950 . S
C1132 C1130 1.391 . S
C1132 C1133 1.400 . S
C1133 C1127 1.491 . S
C1133 C1132 1.400 . S
C1133 C1134 1.398 . S
C1134 H1122 0.950 . S
C1134 C1133 1.398 . S
C1134 C1135 1.391 . S
C1135 H1123 0.950 . S
C1135 C1131 1.393 . S
C1135 C1134 1.391 . S
H1136 C1144 0.950 . S
H1137 C1149 0.950 . S
H1138 C1146 0.950 . S
H1139 C1148 0.950 . S
H1140 C1150 0.950 . S
H1141 C1152 0.950 . S
H1142 C1154 0.950 . S
H1143 C1155 0.950 . S
C1144 H1136 0.950 . S
C1144 C1145 1.386 . S
C1144 C1146 1.391 . S
C1145 C1144 1.386 . S
C1145 C1149 1.393 . S
C1146 H1138 0.950 . S
C1146 C1144 1.391 . S
C1146 C1147 1.400 . S
C1147 C1146 1.400 . S
C1147 C1148 1.398 . S
C1147 C1153 1.491 . S
C1148 H1139 0.950 . S
C1148 C1147 1.398 . S
C1148 C1149 1.391 . S
C1149 H1137 0.950 . S
C1149 C1145 1.393 . S
C1149 C1148 1.391 . S
C1150 H1140 0.950 . S
C1150 C1151 1.386 . S
C1150 C1152 1.391 . S
C1151 C1150 1.386 . S
C1151 C1155 1.393 . S
C1152 H1141 0.950 . S
C1152 C1150 1.391 . S
C1152 C1153 1.400 . S
C1153 C1147 1.491 . S
C1153 C1152 1.400 . S
C1153 C1154 1.398 . S
C1154 H1142 0.950 . S
C1154 C1153 1.398 . S
C1154 C1155 1.391 . S
C1155 H1143 0.950 . S
C1155 C1151 1.393 . S
C1155 C1154 1.391 . S
H1156 C1164 0.950 . S
H1157 C1169 0.950 . S
H1158 C1166 0.950 . S
H1159 C1168 0.950 . S
H1160 C1170 0.950 . S
H1161 C1172 0.950 . S
H1162 C1174 0.950 . S
H1163 C1175 0.950 . S
C1164 H1156 0.950 . S
C1164 C1165 1.386 . S
C1164 C1166 1.391 . S
C1165 C1164 1.386 . S
C1165 C1169 1.393 . S
C1166 H1158 0.950 . S
C1166 C1164 1.391 . S
C1166 C1167 1.400 . S
C1167 C1166 1.400 . S
C1167 C1168 1.398 . S
C1167 C1173 1.491 . S
C1168 H1159 0.950 . S
C1168 C1167 1.398 . S
C1168 C1169 1.391 . S
C1169 H1157 0.950 . S
C1169 C1165 1.393 . S
C1169 C1168 1.391 . S
C1170 H1160 0.950 . S
C1170 C1171 1.386 . S
C1170 C1172 1.391 . S
C1171 C1170 1.386 . S
C1171 C1175 1.393 . S
C1172 H1161 0.950 . S
C1172 C1170 1.391 . S
C1172 C1173 1.400 . S
C1173 C1167 1.491 . S
C1173 C1172 1.400 . S
C1173 C1174 1.398 . S
C1174 H1162 0.950 . S
C1174 C1173 1.398 . S
C1174 C1175 1.391 . S
C1175 H1163 0.950 . S
C1175 C1171 1.393 . S
C1175 C1174 1.391 . S
H1176 C1184 0.950 . S
H1177 C1189 0.950 . S
H1178 C1186 0.950 . S
H1179 C1188 0.950 . S
H1180 C1190 0.950 . S
H1181 C1192 0.950 . S
H1182 C1194 0.950 . S
H1183 C1195 0.950 . S
C1184 H1176 0.950 . S
C1184 C1185 1.386 . S
C1184 C1186 1.391 . S
C1185 C1184 1.386 . S
C1185 C1189 1.393 . S
C1186 H1178 0.950 . S
C1186 C1184 1.391 . S
C1186 C1187 1.400 . S
C1187 C1186 1.400 . S
C1187 C1188 1.398 . S
C1187 C1193 1.491 . S
C1188 H1179 0.950 . S
C1188 C1187 1.398 . S
C1188 C1189 1.391 . S
C1189 H1177 0.950 . S
C1189 C1185 1.393 . S
C1189 C1188 1.391 . S
C1190 H1180 0.950 . S
C1190 C1191 1.386 . S
C1190 C1192 1.391 . S
C1191 C1190 1.386 . S
C1191 C1195 1.393 . S
C1192 H1181 0.950 . S
C1192 C1190 1.391 . S
C1192 C1193 1.400 . S
C1193 C1187 1.491 . S
C1193 C1192 1.400 . S
C1193 C1194 1.398 . S
C1194 H1182 0.950 . S
C1194 C1193 1.398 . S
C1194 C1195 1.391 . S
C1195 H1183 0.950 . S
C1195 C1191 1.393 . S
C1195 C1194 1.391 . S
H1196 C1204 0.950 . S
H1197 C1209 0.950 . S
H1198 C1206 0.950 . S
H1199 C1208 0.950 . S
H1200 C1210 0.950 . S
H1201 C1212 0.950 . S
H1202 C1214 0.950 . S
H1203 C1215 0.950 . S
C1204 H1196 0.950 . S
C1204 C1205 1.386 . S
C1204 C1206 1.391 . S
C1205 C1204 1.386 . S
C1205 C1209 1.393 . S
C1206 H1198 0.950 . S
C1206 C1204 1.391 . S
C1206 C1207 1.400 . S
C1207 C1206 1.400 . S
C1207 C1208 1.398 . S
C1207 C1213 1.491 . S
C1208 H1199 0.950 . S
C1208 C1207 1.398 . S
C1208 C1209 1.391 . S
C1209 H1197 0.950 . S
C1209 C1205 1.393 . S
C1209 C1208 1.391 . S
C1210 H1200 0.950 . S
C1210 C1211 1.386 . S
C1210 C1212 1.391 1_655 S
C1211 C1210 1.386 . S
C1211 C1215 1.393 . S
C1212 H1201 0.950 . S
C1212 C1210 1.391 1_455 S
C1212 C1213 1.400 . S
C1213 C1207 1.491 . S
C1213 C1212 1.400 . S
C1213 C1214 1.398 . S
C1214 H1202 0.950 . S
C1214 C1213 1.398 . S
C1214 C1215 1.391 1_455 S
C1215 H1203 0.950 . S
C1215 C1211 1.393 . S
C1215 C1214 1.391 1_655 S
H1216 C1224 0.950 . S
H1217 C1229 0.950 . S
H1218 C1226 0.950 . S
H1219 C1228 0.950 . S
H1220 C1230 0.950 . S
H1221 C1232 0.950 . S
H1222 C1234 0.950 . S
H1223 C1235 0.950 . S
C1224 H1216 0.950 . S
C1224 C1225 1.386 . S
C1224 C1226 1.391 . S
C1225 C1224 1.386 . S
C1225 C1229 1.393 . S
C1226 H1218 0.950 . S
C1226 C1224 1.391 . S
C1226 C1227 1.400 . S
C1227 C1226 1.400 . S
C1227 C1228 1.398 . S
C1227 C1233 1.491 . S
C1228 H1219 0.950 . S
C1228 C1227 1.398 . S
C1228 C1229 1.391 . S
C1229 H1217 0.950 . S
C1229 C1225 1.393 . S
C1229 C1228 1.391 . S
C1230 H1220 0.950 . S
C1230 C1231 1.386 . S
C1230 C1232 1.391 . S
C1231 C1230 1.386 . S
C1231 C1235 1.393 . S
C1232 H1221 0.950 . S
C1232 C1230 1.391 . S
C1232 C1233 1.400 . S
C1233 C1227 1.491 . S
C1233 C1232 1.400 . S
C1233 C1234 1.398 . S
C1234 H1222 0.950 . S
C1234 C1233 1.398 . S
C1234 C1235 1.391 . S
C1235 H1223 0.950 . S
C1235 C1231 1.393 . S
C1235 C1234 1.391 . S
H1236 C1244 0.950 . S
H1237 C1249 0.950 . S
H1238 C1246 0.950 . S
H1239 C1248 0.950 . S
H1240 C1250 0.950 . S
H1241 C1252 0.950 . S
H1242 C1254 0.950 . S
H1243 C1255 0.950 . S
C1244 H1236 0.950 . S
C1244 C1245 1.386 . S
C1244 C1246 1.391 1_455 S
C1245 C1244 1.386 . S
C1245 C1249 1.393 . S
C1246 H1238 0.950 . S
C1246 C1244 1.391 1_655 S
C1246 C1247 1.400 . S
C1247 C1246 1.400 . S
C1247 C1248 1.398 . S
C1247 C1253 1.491 . S
C1248 H1239 0.950 . S
C1248 C1247 1.398 . S
C1248 C1249 1.391 1_655 S
C1249 H1237 0.950 . S
C1249 C1245 1.393 . S
C1249 C1248 1.391 1_455 S
C1250 H1240 0.950 . S
C1250 C1251 1.386 . S
C1250 C1252 1.391 . S
C1251 C1250 1.386 . S
C1251 C1255 1.393 . S
C1252 H1241 0.950 . S
C1252 C1250 1.391 . S
C1252 C1253 1.400 . S
C1253 C1247 1.491 . S
C1253 C1252 1.400 . S
C1253 C1254 1.398 . S
C1254 H1242 0.950 . S
C1254 C1253 1.398 . S
C1254 C1255 1.391 . S
C1255 H1243 0.950 . S
C1255 C1251 1.393 . S
C1255 C1254 1.391 . S
H1256 C1264 0.950 . S
H1257 C1269 0.950 . S
H1258 C1266 0.950 . S
H1259 C1268 0.950 . S
H1260 C1270 0.950 . S
H1261 C1272 0.950 . S
H1262 C1274 0.950 . S
H1263 C1275 0.950 . S
C1264 H1256 0.950 . S
C1264 C1265 1.386 . S
C1264 C1266 1.391 . S
C1265 C1264 1.386 . S
C1265 C1269 1.393 . S
C1266 H1258 0.950 . S
C1266 C1264 1.391 . S
C1266 C1267 1.400 . S
C1267 C1266 1.400 . S
C1267 C1268 1.398 . S
C1267 C1273 1.491 . S
C1268 H1259 0.950 . S
C1268 C1267 1.398 . S
C1268 C1269 1.391 . S
C1269 H1257 0.950 . S
C1269 C1265 1.393 . S
C1269 C1268 1.391 . S
C1270 H1260 0.950 . S
C1270 C1271 1.386 . S
C1270 C1272 1.391 . S
C1271 C1270 1.386 . S
C1271 C1275 1.393 . S
C1272 H1261 0.950 . S
C1272 C1270 1.391 . S
C1272 C1273 1.400 . S
C1273 C1267 1.491 . S
C1273 C1272 1.400 . S
C1273 C1274 1.398 . S
C1274 H1262 0.950 . S
C1274 C1273 1.398 . S
C1274 C1275 1.391 . S
C1275 H1263 0.950 . S
C1275 C1271 1.393 . S
C1275 C1274 1.391 . S
H1276 C1284 0.950 . S
H1277 C1289 0.950 . S
H1278 C1286 0.950 . S
H1279 C1288 0.950 . S
H1280 C1290 0.950 . S
H1281 C1292 0.950 . S
H1282 C1294 0.950 . S
H1283 C1295 0.950 . S
C1284 H1276 0.950 . S
C1284 C1285 1.386 . S
C1284 C1286 1.391 . S
C1285 C1284 1.386 . S
C1285 C1289 1.393 . S
C1286 H1278 0.950 . S
C1286 C1284 1.391 . S
C1286 C1287 1.400 . S
C1287 C1286 1.400 . S
C1287 C1288 1.398 . S
C1287 C1293 1.491 . S
C1288 H1279 0.950 . S
C1288 C1287 1.398 . S
C1288 C1289 1.391 . S
C1289 H1277 0.950 . S
C1289 C1285 1.393 . S
C1289 C1288 1.391 . S
C1290 H1280 0.950 . S
C1290 C1291 1.386 . S
C1290 C1292 1.391 . S
C1291 C1290 1.386 . S
C1291 C1295 1.393 . S
C1292 H1281 0.950 . S
C1292 C1290 1.391 . S
C1292 C1293 1.400 . S
C1293 C1287 1.491 . S
C1293 C1292 1.400 . S
C1293 C1294 1.398 . S
C1294 H1282 0.950 . S
C1294 C1293 1.398 . S
C1294 C1295 1.391 . S
C1295 H1283 0.950 . S
C1295 C1291 1.393 . S
C1295 C1294 1.391 . S
H1296 C1304 0.950 . S
H1297 C1309 0.950 . S
H1298 C1306 0.950 . S
H1299 C1308 0.950 . S
H1300 C1310 0.950 . S
H1301 C1312 0.950 . S
H1302 C1314 0.950 . S
H1303 C1315 0.950 . S
C1304 H1296 0.950 . S
C1304 C1305 1.386 . S
C1304 C1306 1.391 . S
C1305 C1304 1.386 . S
C1305 C1309 1.393 . S
C1306 H1298 0.950 . S
C1306 C1304 1.391 . S
C1306 C1307 1.400 . S
C1307 C1306 1.400 . S
C1307 C1308 1.398 . S
C1307 C1313 1.491 . S
C1308 H1299 0.950 . S
C1308 C1307 1.398 . S
C1308 C1309 1.391 . S
C1309 H1297 0.950 . S
C1309 C1305 1.393 . S
C1309 C1308 1.391 . S
C1310 H1300 0.950 . S
C1310 C1311 1.386 . S
C1310 C1312 1.391 . S
C1311 C1310 1.386 . S
C1311 C1315 1.393 . S
C1312 H1301 0.950 . S
C1312 C1310 1.391 . S
C1312 C1313 1.400 . S
C1313 C1307 1.491 . S
C1313 C1312 1.400 . S
C1313 C1314 1.398 . S
C1314 H1302 0.950 . S
C1314 C1313 1.398 . S
C1314 C1315 1.391 . S
C1315 H1303 0.950 . S
C1315 C1311 1.393 . S
C1315 C1314 1.391 . S
H1316 C1324 0.950 . S
H1317 C1329 0.950 . S
H1318 C1326 0.950 . S
H1319 C1328 0.950 . S
H1320 C1330 0.950 . S
H1321 C1332 0.950 . S
H1322 C1334 0.950 . S
H1323 C1335 0.950 . S
C1324 H1316 0.950 . S
C1324 C1325 1.386 . S
C1324 C1326 1.391 . S
C1325 C1324 1.386 . S
C1325 C1329 1.393 . S
C1326 H1318 0.950 . S
C1326 C1324 1.391 . S
C1326 C1327 1.400 . S
C1327 C1326 1.400 . S
C1327 C1328 1.398 . S
C1327 C1333 1.491 . S
C1328 H1319 0.950 . S
C1328 C1327 1.398 . S
C1328 C1329 1.391 . S
C1329 H1317 0.950 . S
C1329 C1325 1.393 . S
C1329 C1328 1.391 . S
C1330 H1320 0.950 . S
C1330 C1331 1.386 . S
C1330 C1332 1.391 . S
C1331 C1330 1.386 . S
C1331 C1335 1.393 . S
C1332 H1321 0.950 . S
C1332 C1330 1.391 . S
C1332 C1333 1.400 . S
C1333 C1327 1.491 . S
C1333 C1332 1.400 . S
C1333 C1334 1.398 . S
C1334 H1322 0.950 . S
C1334 C1333 1.398 . S
C1334 C1335 1.391 . S
C1335 H1323 0.950 . S
C1335 C1331 1.393 . S
C1335 C1334 1.391 . S
H1336 C1344 0.950 . S
H1337 C1349 0.950 . S
H1338 C1346 0.950 . S
H1339 C1348 0.950 . S
H1340 C1350 0.950 . S
H1341 C1352 0.950 . S
H1342 C1354 0.950 . S
H1343 C1355 0.950 . S
C1344 H1336 0.950 . S
C1344 C1345 1.386 . S
C1344 C1346 1.391 . S
C1345 C1344 1.386 . S
C1345 C1349 1.393 . S
C1346 H1338 0.950 . S
C1346 C1344 1.391 . S
C1346 C1347 1.400 . S
C1347 C1346 1.400 . S
C1347 C1348 1.398 . S
C1347 C1353 1.491 . S
C1348 H1339 0.950 . S
C1348 C1347 1.398 . S
C1348 C1349 1.391 . S
C1349 H1337 0.950 . S
C1349 C1345 1.393 . S
C1349 C1348 1.391 . S
C1350 H1340 0.950 . S
C1350 C1351 1.386 . S
C1350 C1352 1.391 . S
C1351 C1350 1.386 . S
C1351 C1355 1.393 . S
C1352 H1341 0.950 . S
C1352 C1350 1.391 . S
C1352 C1353 1.400 . S
C1353 C1347 1.491 . S
C1353 C1352 1.400 . S
C1353 C1354 1.398 . S
C1354 H1342 0.950 . S
C1354 C1353 1.398 . S
C1354 C1355 1.391 . S
C1355 H1343 0.950 . S
C1355 C1351 1.393 . S
C1355 C1354 1.391 . S
H1356 C1364 0.950 . S
H1357 C1369 0.950 . S
H1358 C1366 0.950 . S
H1359 C1368 0.950 . S
H1360 C1370 0.950 . S
H1361 C1372 0.950 . S
H1362 C1374 0.950 . S
H1363 C1375 0.950 . S
C1364 H1356 0.950 . S
C1364 C1365 1.386 . S
C1364 C1366 1.391 1_455 S
C1365 C1364 1.386 . S
C1365 C1369 1.393 . S
C1366 H1358 0.950 . S
C1366 C1364 1.391 1_655 S
C1366 C1367 1.400 . S
C1367 C1366 1.400 . S
C1367 C1368 1.398 . S
C1367 C1373 1.491 . S
C1368 H1359 0.950 . S
C1368 C1367 1.398 . S
C1368 C1369 1.391 1_655 S
C1369 H1357 0.950 . S
C1369 C1365 1.393 . S
C1369 C1368 1.391 1_455 S
C1370 H1360 0.950 . S
C1370 C1371 1.386 . S
C1370 C1372 1.391 . S
C1371 C1370 1.386 . S
C1371 C1375 1.393 . S
C1372 H1361 0.950 . S
C1372 C1370 1.391 . S
C1372 C1373 1.400 . S
C1373 C1367 1.491 . S
C1373 C1372 1.400 . S
C1373 C1374 1.398 . S
C1374 H1362 0.950 . S
C1374 C1373 1.398 . S
C1374 C1375 1.391 . S
C1375 H1363 0.950 . S
C1375 C1371 1.393 . S
C1375 C1374 1.391 . S
H1376 C1384 0.950 . S
H1377 C1389 0.950 . S
H1378 C1386 0.950 . S
H1379 C1388 0.950 . S
H1380 C1390 0.950 . S
H1381 C1392 0.950 . S
H1382 C1394 0.950 . S
H1383 C1395 0.950 . S
C1384 H1376 0.950 . S
C1384 C1385 1.386 . S
C1384 C1386 1.391 . S
C1385 C1384 1.386 . S
C1385 C1389 1.393 . S
C1386 H1378 0.950 . S
C1386 C1384 1.391 . S
C1386 C1387 1.400 . S
C1387 C1386 1.400 . S
C1387 C1388 1.398 . S
C1387 C1393 1.491 . S
C1388 H1379 0.950 . S
C1388 C1387 1.398 . S
C1388 C1389 1.391 . S
C1389 H1377 0.950 . S
C1389 C1385 1.393 . S
C1389 C1388 1.391 . S
C1390 H1380 0.950 . S
C1390 C1391 1.386 . S
C1390 C1392 1.391 . S
C1391 C1390 1.386 . S
C1391 C1395 1.393 . S
C1392 H1381 0.950 . S
C1392 C1390 1.391 . S
C1392 C1393 1.400 . S
C1393 C1387 1.491 . S
C1393 C1392 1.400 . S
C1393 C1394 1.398 . S
C1394 H1382 0.950 . S
C1394 C1393 1.398 . S
C1394 C1395 1.391 . S
C1395 H1383 0.950 . S
C1395 C1391 1.393 . S
C1395 C1394 1.391 . S
H1396 C1404 0.950 . S
H1397 C1409 0.950 . S
H1398 C1406 0.950 . S
H1399 C1408 0.950 . S
H1400 C1410 0.950 . S
H1401 C1412 0.950 . S
H1402 C1414 0.950 . S
H1403 C1415 0.950 . S
C1404 H1396 0.950 . S
C1404 C1405 1.386 . S
C1404 C1406 1.391 . S
C1405 C1404 1.386 . S
C1405 C1409 1.393 . S
C1406 H1398 0.950 . S
C1406 C1404 1.391 . S
C1406 C1407 1.400 . S
C1407 C1406 1.400 . S
C1407 C1408 1.398 . S
C1407 C1413 1.491 . S
C1408 H1399 0.950 . S
C1408 C1407 1.398 . S
C1408 C1409 1.391 . S
C1409 H1397 0.950 . S
C1409 C1405 1.393 . S
C1409 C1408 1.391 . S
C1410 H1400 0.950 . S
C1410 C1411 1.386 . S
C1410 C1412 1.391 . S
C1411 C1410 1.386 . S
C1411 C1415 1.393 . S
C1412 H1401 0.950 . S
C1412 C1410 1.391 . S
C1412 C1413 1.400 . S
C1413 C1407 1.491 . S
C1413 C1412 1.400 . S
C1413 C1414 1.398 . S
C1414 H1402 0.950 . S
C1414 C1413 1.398 . S
C1414 C1415 1.391 . S
C1415 H1403 0.950 . S
C1415 C1411 1.393 . S
C1415 C1414 1.391 . S
H1416 C1424 0.950 . S
H1417 C1429 0.950 . S
H1418 C1426 0.950 . S
H1419 C1428 0.950 . S
H1420 C1430 0.950 . S
H1421 C1432 0.950 . S
H1422 C1434 0.950 . S
H1423 C1435 0.950 . S
C1424 H1416 0.950 . S
C1424 C1425 1.386 . S
C1424 C1426 1.391 . S
C1425 C1424 1.386 . S
C1425 C1429 1.393 . S
C1426 H1418 0.950 . S
C1426 C1424 1.391 . S
C1426 C1427 1.400 . S
C1427 C1426 1.400 . S
C1427 C1428 1.398 . S
C1427 C1433 1.491 . S
C1428 H1419 0.950 . S
C1428 C1427 1.398 . S
C1428 C1429 1.391 . S
C1429 H1417 0.950 . S
C1429 C1425 1.393 . S
C1429 C1428 1.391 . S
C1430 H1420 0.950 . S
C1430 C1431 1.386 . S
C1430 C1432 1.391 . S
C1431 C1430 1.386 . S
C1431 C1435 1.393 . S
C1432 H1421 0.950 . S
C1432 C1430 1.391 . S
C1432 C1433 1.400 . S
C1433 C1427 1.491 . S
C1433 C1432 1.400 . S
C1433 C1434 1.398 . S
C1434 H1422 0.950 . S
C1434 C1433 1.398 . S
C1434 C1435 1.391 . S
C1435 H1423 0.950 . S
C1435 C1431 1.393 . S
C1435 C1434 1.391 . S
H1436 C1444 0.950 . S
H1437 C1449 0.950 . S
H1438 C1446 0.950 . S
H1439 C1448 0.950 . S
H1440 C1450 0.950 . S
H1441 C1452 0.950 . S
H1442 C1454 0.950 . S
H1443 C1455 0.950 . S
C1444 H1436 0.950 . S
C1444 C1445 1.386 . S
C1444 C1446 1.391 . S
C1445 C1444 1.386 . S
C1445 C1449 1.393 . S
C1446 H1438 0.950 . S
C1446 C1444 1.391 . S
C1446 C1447 1.400 . S
C1447 C1446 1.400 . S
C1447 C1448 1.398 . S
C1447 C1453 1.491 . S
C1448 H1439 0.950 . S
C1448 C1447 1.398 . S
C1448 C1449 1.391 . S
C1449 H1437 0.950 . S
C1449 C1445 1.393 . S
C1449 C1448 1.391 . S
C1450 H1440 0.950 . S
C1450 C1451 1.386 . S
C1450 C1452 1.391 1_455 S
C1451 C1450 1.386 . S
C1451 C1455 1.393 . S
C1452 H1441 0.950 . S
C1452 C1450 1.391 1_655 S
C1452 C1453 1.400 . S
C1453 C1447 1.491 . S
C1453 C1452 1.400 . S
C1453 C1454 1.398 . S
C1454 H1442 0.950 . S
C1454 C1453 1.398 . S
C1454 C1455 1.391 1_655 S
C1455 H1443 0.950 . S
C1455 C1451 1.393 . S
C1455 C1454 1.391 1_455 S
H1456 C1464 0.950 . S
H1457 C1469 0.950 . S
H1458 C1466 0.950 . S
H1459 C1468 0.950 . S
H1460 C1470 0.950 . S
H1461 C1472 0.950 . S
H1462 C1474 0.950 . S
H1463 C1475 0.950 . S
C1464 H1456 0.950 . S
C1464 C1465 1.386 . S
C1464 C1466 1.391 . S
C1465 C1464 1.386 . S
C1465 C1469 1.393 . S
C1466 H1458 0.950 . S
C1466 C1464 1.391 . S
C1466 C1467 1.400 . S
C1467 C1466 1.400 . S
C1467 C1468 1.398 . S
C1467 C1473 1.491 . S
C1468 H1459 0.950 . S
C1468 C1467 1.398 . S
C1468 C1469 1.391 . S
C1469 H1457 0.950 . S
C1469 C1465 1.393 . S
C1469 C1468 1.391 . S
C1470 H1460 0.950 . S
C1470 C1471 1.386 . S
C1470 C1472 1.391 . S
C1471 C1470 1.386 . S
C1471 C1475 1.393 . S
C1472 H1461 0.950 . S
C1472 C1470 1.391 . S
C1472 C1473 1.400 . S
C1473 C1467 1.491 . S
C1473 C1472 1.400 . S
C1473 C1474 1.398 . S
C1474 H1462 0.950 . S
C1474 C1473 1.398 . S
C1474 C1475 1.391 . S
C1475 H1463 0.950 . S
C1475 C1471 1.393 . S
C1475 C1474 1.391 . S
H1476 C1484 0.950 . S
H1477 C1489 0.950 . S
H1478 C1486 0.950 . S
H1479 C1488 0.950 . S
H1480 C1490 0.950 . S
H1481 C1492 0.950 . S
H1482 C1494 0.950 . S
H1483 C1495 0.950 . S
C1484 H1476 0.950 . S
C1484 C1485 1.386 . S
C1484 C1486 1.391 1_455 S
C1485 C1484 1.386 . S
C1485 C1489 1.393 . S
C1486 H1478 0.950 . S
C1486 C1484 1.391 1_655 S
C1486 C1487 1.400 . S
C1487 C1486 1.400 . S
C1487 C1488 1.398 . S
C1487 C1493 1.491 . S
C1488 H1479 0.950 . S
C1488 C1487 1.398 . S
C1488 C1489 1.391 1_655 S
C1489 H1477 0.950 . S
C1489 C1485 1.393 . S
C1489 C1488 1.391 1_455 S
C1490 H1480 0.950 . S
C1490 C1491 1.386 . S
C1490 C1492 1.391 . S
C1491 C1490 1.386 . S
C1491 C1495 1.393 . S
C1492 H1481 0.950 . S
C1492 C1490 1.391 . S
C1492 C1493 1.400 . S
C1493 C1487 1.491 . S
C1493 C1492 1.400 . S
C1493 C1494 1.398 . S
C1494 H1482 0.950 . S
C1494 C1493 1.398 . S
C1494 C1495 1.391 . S
C1495 H1483 0.950 . S
C1495 C1491 1.393 . S
C1495 C1494 1.391 . S
H1496 C1504 0.950 . S
H1497 C1509 0.950 . S
H1498 C1506 0.950 . S
H1499 C1508 0.950 . S
H1500 C1510 0.950 . S
H1501 C1512 0.950 . S
H1502 C1514 0.950 . S
H1503 C1515 0.950 . S
C1504 H1496 0.950 . S
C1504 C1505 1.386 . S
C1504 C1506 1.391 . S
C1505 C1504 1.386 . S
C1505 C1509 1.393 . S
C1506 H1498 0.950 . S
C1506 C1504 1.391 . S
C1506 C1507 1.400 . S
C1507 C1506 1.400 . S
C1507 C1508 1.398 . S
C1507 C1513 1.491 . S
C1508 H1499 0.950 . S
C1508 C1507 1.398 . S
C1508 C1509 1.391 . S
C1509 H1497 0.950 . S
C1509 C1505 1.393 . S
C1509 C1508 1.391 . S
C1510 H1500 0.950 . S
C1510 C1511 1.386 . S
C1510 C1512 1.391 . S
C1511 C1510 1.386 . S
C1511 C1515 1.393 . S
C1512 H1501 0.950 . S
C1512 C1510 1.391 . S
C1512 C1513 1.400 . S
C1513 C1507 1.491 . S
C1513 C1512 1.400 . S
C1513 C1514 1.398 . S
C1514 H1502 0.950 . S
C1514 C1513 1.398 . S
C1514 C1515 1.391 . S
C1515 H1503 0.950 . S
C1515 C1511 1.393 . S
C1515 C1514 1.391 . S
H1516 C1524 0.950 . S
H1517 C1529 0.950 . S
H1518 C1526 0.950 . S
H1519 C1528 0.950 . S
H1520 C1530 0.950 . S
H1521 C1532 0.950 . S
H1522 C1534 0.950 . S
H1523 C1535 0.950 . S
C1524 H1516 0.950 . S
C1524 C1525 1.386 . S
C1524 C1526 1.391 . S
C1525 C1524 1.386 . S
C1525 C1529 1.393 . S
C1526 H1518 0.950 . S
C1526 C1524 1.391 . S
C1526 C1527 1.400 . S
C1527 C1526 1.400 . S
C1527 C1528 1.398 . S
C1527 C1533 1.491 . S
C1528 H1519 0.950 . S
C1528 C1527 1.398 . S
C1528 C1529 1.391 . S
C1529 H1517 0.950 . S
C1529 C1525 1.393 . S
C1529 C1528 1.391 . S
C1530 H1520 0.950 . S
C1530 C1531 1.386 . S
C1530 C1532 1.391 . S
C1531 C1530 1.386 . S
C1531 C1535 1.393 . S
C1532 H1521 0.950 . S
C1532 C1530 1.391 . S
C1532 C1533 1.400 . S
C1533 C1527 1.491 . S
C1533 C1532 1.400 . S
C1533 C1534 1.398 . S
C1534 H1522 0.950 . S
C1534 C1533 1.398 . S
C1534 C1535 1.391 . S
C1535 H1523 0.950 . S
C1535 C1531 1.393 . S
C1535 C1534 1.391 . S
H1536 C1544 0.950 . S
H1537 C1549 0.950 . S
H1538 C1546 0.950 . S
H1539 C1548 0.950 . S
H1540 C1550 0.950 . S
H1541 C1552 0.950 . S
H1542 C1554 0.950 . S
H1543 C1555 0.950 . S
C1544 H1536 0.950 . S
C1544 C1545 1.386 . S
C1544 C1546 1.391 . S
C1545 C1544 1.386 . S
C1545 C1549 1.393 . S
C1546 H1538 0.950 . S
C1546 C1544 1.391 . S
C1546 C1547 1.400 . S
C1547 C1546 1.400 . S
C1547 C1548 1.398 . S
C1547 C1553 1.491 . S
C1548 H1539 0.950 . S
C1548 C1547 1.398 . S
C1548 C1549 1.391 . S
C1549 H1537 0.950 . S
C1549 C1545 1.393 . S
C1549 C1548 1.391 . S
C1550 H1540 0.950 . S
C1550 C1551 1.386 . S
C1550 C1552 1.391 . S
C1551 C1550 1.386 . S
C1551 C1555 1.393 . S
C1552 H1541 0.950 . S
C1552 C1550 1.391 . S
C1552 C1553 1.400 . S
C1553 C1547 1.491 . S
C1553 C1552 1.400 . S
C1553 C1554 1.398 . S
C1554 H1542 0.950 . S
C1554 C1553 1.398 . S
C1554 C1555 1.391 . S
C1555 H1543 0.950 . S
C1555 C1551 1.393 . S
C1555 C1554 1.391 . S
H1556 C1564 0.950 . S
H1557 C1569 0.950 . S
H1558 C1566 0.950 . S
H1559 C1568 0.950 . S
H1560 C1570 0.950 . S
H1561 C1572 0.950 . S
H1562 C1574 0.950 . S
H1563 C1575 0.950 . S
C1564 H1556 0.950 . S
C1564 C1565 1.386 . S
C1564 C1566 1.391 . S
C1565 C1564 1.386 . S
C1565 C1569 1.393 . S
C1566 H1558 0.950 . S
C1566 C1564 1.391 . S
C1566 C1567 1.400 . S
C1567 C1566 1.400 . S
C1567 C1568 1.398 . S
C1567 C1573 1.491 . S
C1568 H1559 0.950 . S
C1568 C1567 1.398 . S
C1568 C1569 1.391 . S
C1569 H1557 0.950 . S
C1569 C1565 1.393 . S
C1569 C1568 1.391 . S
C1570 H1560 0.950 . S
C1570 C1571 1.386 . S
C1570 C1572 1.391 . S
C1571 C1570 1.386 . S
C1571 C1575 1.393 . S
C1572 H1561 0.950 . S
C1572 C1570 1.391 . S
C1572 C1573 1.400 . S
C1573 C1567 1.491 . S
C1573 C1572 1.400 . S
C1573 C1574 1.398 . S
C1574 H1562 0.950 . S
C1574 C1573 1.398 . S
C1574 C1575 1.391 . S
C1575 H1563 0.950 . S
C1575 C1571 1.393 . S
C1575 C1574 1.391 . S
H1576 C1584 0.950 . S
H1577 C1589 0.950 . S
H1578 C1586 0.950 . S
H1579 C1588 0.950 . S
H1580 C1590 0.950 . S
H1581 C1592 0.950 . S
H1582 C1594 0.950 . S
H1583 C1595 0.950 . S
C1584 H1576 0.950 . S
C1584 C1585 1.386 . S
C1584 C1586 1.391 . S
C1585 C1584 1.386 . S
C1585 C1589 1.393 . S
C1586 H1578 0.950 . S
C1586 C1584 1.391 . S
C1586 C1587 1.400 . S
C1587 C1586 1.400 . S
C1587 C1588 1.398 . S
C1587 C1593 1.491 . S
C1588 H1579 0.950 . S
C1588 C1587 1.398 . S
C1588 C1589 1.391 . S
C1589 H1577 0.950 . S
C1589 C1585 1.393 . S
C1589 C1588 1.391 . S
C1590 H1580 0.950 . S
C1590 C1591 1.386 . S
C1590 C1592 1.391 . S
C1591 C1590 1.386 . S
C1591 C1595 1.393 . S
C1592 H1581 0.950 . S
C1592 C1590 1.391 . S
C1592 C1593 1.400 . S
C1593 C1587 1.491 . S
C1593 C1592 1.400 . S
C1593 C1594 1.398 . S
C1594 H1582 0.950 . S
C1594 C1593 1.398 . S
C1594 C1595 1.391 . S
C1595 H1583 0.950 . S
C1595 C1591 1.393 . S
C1595 C1594 1.391 . S
H1596 C1604 0.950 . S
H1597 C1609 0.950 . S
H1598 C1606 0.950 . S
H1599 C1608 0.950 . S
H1600 C1610 0.950 . S
H1601 C1612 0.950 . S
H1602 C1614 0.950 . S
H1603 C1615 0.950 . S
C1604 H1596 0.950 . S
C1604 C1605 1.386 . S
C1604 C1606 1.391 1_655 S
C1605 C1604 1.386 . S
C1605 C1609 1.393 . S
C1606 H1598 0.950 . S
C1606 C1604 1.391 1_455 S
C1606 C1607 1.400 . S
C1607 C1606 1.400 . S
C1607 C1608 1.398 . S
C1607 C1613 1.491 . S
C1608 H1599 0.950 . S
C1608 C1607 1.398 . S
C1608 C1609 1.391 1_455 S
C1609 H1597 0.950 . S
C1609 C1605 1.393 . S
C1609 C1608 1.391 1_655 S
C1610 H1600 0.950 . S
C1610 C1611 1.386 . S
C1610 C1612 1.391 . S
C1611 C1610 1.386 . S
C1611 C1615 1.393 . S
C1612 H1601 0.950 . S
C1612 C1610 1.391 . S
C1612 C1613 1.400 . S
C1613 C1607 1.491 . S
C1613 C1612 1.400 . S
C1613 C1614 1.398 . S
C1614 H1602 0.950 . S
C1614 C1613 1.398 . S
C1614 C1615 1.391 . S
C1615 H1603 0.950 . S
C1615 C1611 1.393 . S
C1615 C1614 1.391 . S
H1616 C1624 0.950 . S
H1617 C1629 0.950 . S
H1618 C1626 0.950 . S
H1619 C1628 0.950 . S
H1620 C1630 0.950 . S
H1621 C1632 0.950 . S
H1622 C1634 0.950 . S
H1623 C1635 0.950 . S
C1624 H1616 0.950 . S
C1624 C1625 1.386 . S
C1624 C1626 1.391 . S
C1625 C1624 1.386 . S
C1625 C1629 1.393 . S
C1626 H1618 0.950 . S
C1626 C1624 1.391 . S
C1626 C1627 1.400 . S
C1627 C1626 1.400 . S
C1627 C1628 1.398 . S
C1627 C1633 1.491 . S
C1628 H1619 0.950 . S
C1628 C1627 1.398 . S
C1628 C1629 1.391 . S
C1629 H1617 0.950 . S
C1629 C1625 1.393 . S
C1629 C1628 1.391 . S
C1630 H1620 0.950 . S
C1630 C1631 1.386 . S
C1630 C1632 1.391 . S
C1631 C1630 1.386 . S
C1631 C1635 1.393 . S
C1632 H1621 0.950 . S
C1632 C1630 1.391 . S
C1632 C1633 1.400 . S
C1633 C1627 1.491 . S
C1633 C1632 1.400 . S
C1633 C1634 1.398 . S
C1634 H1622 0.950 . S
C1634 C1633 1.398 . S
C1634 C1635 1.391 . S
C1635 H1623 0.950 . S
C1635 C1631 1.393 . S
C1635 C1634 1.391 . S
H1636 C1644 0.950 . S
H1637 C1649 0.950 . S
H1638 C1646 0.950 . S
H1639 C1648 0.950 . S
H1640 C1650 0.950 . S
H1641 C1652 0.950 . S
H1642 C1654 0.950 . S
H1643 C1655 0.950 . S
C1644 H1636 0.950 . S
C1644 C1645 1.386 . S
C1644 C1646 1.391 . S
C1645 C1644 1.386 . S
C1645 C1649 1.393 . S
C1646 H1638 0.950 . S
C1646 C1644 1.391 . S
C1646 C1647 1.400 . S
C1647 C1646 1.400 . S
C1647 C1648 1.398 . S
C1647 C1653 1.491 . S
C1648 H1639 0.950 . S
C1648 C1647 1.398 . S
C1648 C1649 1.391 . S
C1649 H1637 0.950 . S
C1649 C1645 1.393 . S
C1649 C1648 1.391 . S
C1650 H1640 0.950 . S
C1650 C1651 1.386 . S
C1650 C1652 1.391 1_655 S
C1651 C1650 1.386 . S
C1651 C1655 1.393 . S
C1652 H1641 0.950 . S
C1652 C1650 1.391 1_455 S
C1652 C1653 1.400 . S
C1653 C1647 1.491 . S
C1653 C1652 1.400 . S
C1653 C1654 1.398 . S
C1654 H1642 0.950 . S
C1654 C1653 1.398 . S
C1654 C1655 1.391 1_455 S
C1655 H1643 0.950 . S
C1655 C1651 1.393 . S
C1655 C1654 1.391 1_655 S
H1656 C1664 0.950 . S
H1657 C1669 0.950 . S
H1658 C1666 0.950 . S
H1659 C1668 0.950 . S
H1660 C1670 0.950 . S
H1661 C1672 0.950 . S
H1662 C1674 0.950 . S
H1663 C1675 0.950 . S
C1664 H1656 0.950 . S
C1664 C1665 1.386 . S
C1664 C1666 1.391 . S
C1665 C1664 1.386 . S
C1665 C1669 1.393 . S
C1666 H1658 0.950 . S
C1666 C1664 1.391 . S
C1666 C1667 1.400 . S
C1667 C1666 1.400 . S
C1667 C1668 1.398 . S
C1667 C1673 1.491 . S
C1668 H1659 0.950 . S
C1668 C1667 1.398 . S
C1668 C1669 1.391 . S
C1669 H1657 0.950 . S
C1669 C1665 1.393 . S
C1669 C1668 1.391 . S
C1670 H1660 0.950 . S
C1670 C1671 1.386 . S
C1670 C1672 1.391 . S
C1671 C1670 1.386 . S
C1671 C1675 1.393 . S
C1672 H1661 0.950 . S
C1672 C1670 1.391 . S
C1672 C1673 1.400 . S
C1673 C1667 1.491 . S
C1673 C1672 1.400 . S
C1673 C1674 1.398 . S
C1674 H1662 0.950 . S
C1674 C1673 1.398 . S
C1674 C1675 1.391 . S
C1675 H1663 0.950 . S
C1675 C1671 1.393 . S
C1675 C1674 1.391 . S
H1676 C1684 0.950 . S
H1677 C1689 0.950 . S
H1678 C1686 0.950 . S
H1679 C1688 0.950 . S
H1680 C1690 0.950 . S
H1681 C1692 0.950 . S
H1682 C1694 0.950 . S
H1683 C1695 0.950 . S
C1684 H1676 0.950 . S
C1684 C1685 1.386 . S
C1684 C1686 1.391 . S
C1685 C1684 1.386 . S
C1685 C1689 1.393 . S
C1686 H1678 0.950 . S
C1686 C1684 1.391 . S
C1686 C1687 1.400 . S
C1687 C1686 1.400 . S
C1687 C1688 1.398 . S
C1687 C1693 1.491 . S
C1688 H1679 0.950 . S
C1688 C1687 1.398 . S
C1688 C1689 1.391 . S
C1689 H1677 0.950 . S
C1689 C1685 1.393 . S
C1689 C1688 1.391 . S
C1690 H1680 0.950 . S
C1690 C1691 1.386 . S
C1690 C1692 1.391 . S
C1691 C1690 1.386 . S
C1691 C1695 1.393 . S
C1692 H1681 0.950 . S
C1692 C1690 1.391 . S
C1692 C1693 1.400 . S
C1693 C1687 1.491 . S
C1693 C1692 1.400 . S
C1693 C1694 1.398 . S
C1694 H1682 0.950 . S
C1694 C1693 1.398 . S
C1694 C1695 1.391 . S
C1695 H1683 0.950 . S
C1695 C1691 1.393 . S
C1695 C1694 1.391 . S
C425 C62 1.501 . S
C431 C4 1.504 . S
C445 C69 1.503 . S
C451 C23 1.502 . S
C465 C82 1.502 . S
C471 C30 1.502 . S
C485 C49 1.504 . S
C491 C101 1.501 . S
C505 C108 1.502 . S
C511 C166 1.504 . S
C525 C179 1.503 . S
C531 C121 1.502 . S
C545 C140 1.501 . S
C551 C192 1.505 . S
C565 C199 1.504 . S
C571 C147 1.501 . S
C585 C218 1.503 . S
C591 C264 1.502 . S
C605 C283 1.504 . S
C611 C231 1.501 . S
C625 C296 1.503 . S
C631 C244 1.502 . S
C645 C309 1.502 . S
C651 C257 1.502 . S
C665 C322 1.503 . S
C671 C374 1.503 . S
C685 C335 1.501 . S
C691 C381 1.504 . S
C705 C342 1.502 . S
C711 C400 1.503 . S
C725 C355 1.503 . S
C731 C407 1.503 . S
C745 C10 1.515 . S
C751 C95 1.512 . S
C765 C17 1.514 . S
C771 C56 1.512 . S
C785 C36 1.514 . S
C791 C75 1.512 . S
C805 C88 1.516 . S
C811 C43 1.515 . S
C825 C205 1.514 . S
C831 C114 1.516 . S
C845 C160 1.516 . S
C851 C127 1.514 . S
C865 C173 1.515 . S
C871 C134 1.516 . S
C885 C153 1.514 . S
C891 C186 1.512 . S
C905 C303 1.514 . S
C911 C212 1.516 . S
C925 C270 1.515 . S
C931 C225 1.515 . S
C945 C277 1.512 . S
C951 C238 1.515 . S
C965 C251 1.513 . S
C971 C290 1.513 . S
C985 C316 1.515 . S
C991 C413 1.515 . S
C1005 C329 1.513 . S
C1011 C368 1.513 . S
C1025 C348 1.513 . S
C1031 C387 1.513 . S
C1045 C394 1.514 . S
C1051 C361 1.516 . S
C1065 C5 1.495 . S
C1071 C330 1.494 . S
C1085 C16 1.495 . S
C1091 C135 1.494 . S
C1105 C31 1.493 . S
C1111 C354 1.495 . S
C1125 C107 1.496 . S
C1131 C42 1.493 . S
C1145 C406 1.494 . S
C1151 C55 1.495 . S
C1165 C70 1.495 . S
C1171 C161 1.494 . S
C1185 C83 1.493 . S
C1191 C380 1.496 . S
C1205 C94 1.493 . S
C1211 C187 1.495 . S
C1225 C226 1.493 . S
C1231 C109 1.496 . S
C1245 C29 1.494 . S
C1251 C122 1.495 . S
C1265 C252 1.496 . S
C1271 C133 1.493 . S
C1285 C148 1.493 . S
C1291 C3 1.496 . S
C1305 C304 1.494 . S
C1311 C159 1.495 . S
C1325 C57 1.495 . S
C1331 C172 1.494 . S
C1345 C278 1.494 . S
C1351 C185 1.495 . S
C1365 C81 1.494 . S
C1371 C200 1.495 . S
C1385 C120 1.494 . S
C1391 C211 1.495 . S
C1405 C224 1.496 . S
C1411 C341 1.493 . S
C1425 C237 1.493 . S
C1431 C146 1.496 . S
C1445 C250 1.496 . S
C1451 C317 1.493 . S
C1465 C265 1.496 . S
C1471 C198 1.493 . S
C1485 C369 1.495 . S
C1491 C276 1.493 . S
C1505 C289 1.495 . S
C1511 C174 1.493 . S
C1525 C302 1.495 . S
C1531 C395 1.494 . S
C1545 C315 1.494 . S
C1551 C18 1.495 . S
C1565 C328 1.493 . S
C1571 C239 1.495 . S
C1585 C44 1.495 . S
C1591 C343 1.493 . S
C1605 C213 1.496 . S
C1611 C356 1.493 . S
C1625 C367 1.496 . S
C1631 C96 1.493 . S
C1645 C382 1.493 . S
C1651 C263 1.496 . S
C1665 C68 1.494 . S
C1671 C393 1.495 . S
C1685 C291 1.494 . S
C1691 C408 1.495 . S
