# Generated by pormake.
# Topology umc, (4)-cn, num edge types: 1
# Building blocks:
#     Node 0, Type 0, BuildingBlock: ICAMEG_clean_sbu_1, # of connection points: 4
#     Node 1, Type 0, BuildingBlock: ICAMEG_clean_sbu_1, # of connection points: 4
#     Node 2, Type 0, BuildingBlock: ICAMEG_clean_sbu_1, # of connection points: 4
#     Node 3, Type 0, BuildingBlock: ICAMEG_clean_sbu_1, # of connection points: 4
#     Node 4, Type 0, BuildingBlock: ICAMEG_clean_sbu_1, # of connection points: 4
#     Node 5, Type 0, BuildingBlock: ICAMEG_clean_sbu_1, # of connection points: 4
#     Node 6, Type 0, BuildingBlock: ICAMEG_clean_sbu_1, # of connection points: 4
#     Node 7, Type 0, BuildingBlock: ICAMEG_clean_sbu_1, # of connection points: 4
#     Node 8, Type 0, BuildingBlock: ICAMEG_clean_sbu_1, # of connection points: 4
#     Node 9, Type 0, BuildingBlock: ICAMEG_clean_sbu_1, # of connection points: 4
#     Node 10, Type 0, BuildingBlock: ICAMEG_clean_sbu_1, # of connection points: 4
#     Node 11, Type 0, BuildingBlock: ICAMEG_clean_sbu_1, # of connection points: 4
#     Node 12, Type 0, BuildingBlock: ICAMEG_clean_sbu_1, # of connection points: 4
#     Node 13, Type 0, BuildingBlock: ICAMEG_clean_sbu_1, # of connection points: 4
#     Node 14, Type 0, BuildingBlock: ICAMEG_clean_sbu_1, # of connection points: 4
#     Node 15, Type 0, BuildingBlock: ICAMEG_clean_sbu_1, # of connection points: 4
#     Edge 16, Type (0, 0), BuildingBlock: OJICUG_clean_linker_0, # of connection points: 2
#     Edge 17, Type (0, 0), BuildingBlock: OJICUG_clean_linker_0, # of connection points: 2
#     Edge 18, Type (0, 0), BuildingBlock: OJICUG_clean_linker_0, # of connection points: 2
#     Edge 19, Type (0, 0), BuildingBlock: OJICUG_clean_linker_0, # of connection points: 2
#     Edge 20, Type (0, 0), BuildingBlock: OJICUG_clean_linker_0, # of connection points: 2
#     Edge 21, Type (0, 0), BuildingBlock: OJICUG_clean_linker_0, # of connection points: 2
#     Edge 22, Type (0, 0), BuildingBlock: OJICUG_clean_linker_0, # of connection points: 2
#     Edge 23, Type (0, 0), BuildingBlock: OJICUG_clean_linker_0, # of connection points: 2
#     Edge 24, Type (0, 0), BuildingBlock: OJICUG_clean_linker_0, # of connection points: 2
#     Edge 25, Type (0, 0), BuildingBlock: OJICUG_clean_linker_0, # of connection points: 2
#     Edge 26, Type (0, 0), BuildingBlock: OJICUG_clean_linker_0, # of connection points: 2
#     Edge 27, Type (0, 0), BuildingBlock: OJICUG_clean_linker_0, # of connection points: 2
#     Edge 28, Type (0, 0), BuildingBlock: OJICUG_clean_linker_0, # of connection points: 2
#     Edge 29, Type (0, 0), BuildingBlock: OJICUG_clean_linker_0, # of connection points: 2
#     Edge 30, Type (0, 0), BuildingBlock: OJICUG_clean_linker_0, # of connection points: 2
#     Edge 31, Type (0, 0), BuildingBlock: OJICUG_clean_linker_0, # of connection points: 2
#     Edge 32, Type (0, 0), BuildingBlock: OJICUG_clean_linker_0, # of connection points: 2
#     Edge 33, Type (0, 0), BuildingBlock: OJICUG_clean_linker_0, # of connection points: 2
#     Edge 34, Type (0, 0), BuildingBlock: OJICUG_clean_linker_0, # of connection points: 2
#     Edge 35, Type (0, 0), BuildingBlock: OJICUG_clean_linker_0, # of connection points: 2
#     Edge 36, Type (0, 0), BuildingBlock: OJICUG_clean_linker_0, # of connection points: 2
#     Edge 37, Type (0, 0), BuildingBlock: OJICUG_clean_linker_0, # of connection points: 2
#     Edge 38, Type (0, 0), BuildingBlock: OJICUG_clean_linker_0, # of connection points: 2
#     Edge 39, Type (0, 0), BuildingBlock: OJICUG_clean_linker_0, # of connection points: 2
#     Edge 40, Type (0, 0), BuildingBlock: OJICUG_clean_linker_0, # of connection points: 2
#     Edge 41, Type (0, 0), BuildingBlock: OJICUG_clean_linker_0, # of connection points: 2
#     Edge 42, Type (0, 0), BuildingBlock: OJICUG_clean_linker_0, # of connection points: 2
#     Edge 43, Type (0, 0), BuildingBlock: OJICUG_clean_linker_0, # of connection points: 2
#     Edge 44, Type (0, 0), BuildingBlock: OJICUG_clean_linker_0, # of connection points: 2
#     Edge 45, Type (0, 0), BuildingBlock: OJICUG_clean_linker_0, # of connection points: 2
#     Edge 46, Type (0, 0), BuildingBlock: OJICUG_clean_linker_0, # of connection points: 2
#     Edge 47, Type (0, 0), BuildingBlock: OJICUG_clean_linker_0, # of connection points: 2
# Relax obj value: 0.055
# Max RMSD: 0.126
# Mean RMSD: 0.126
data_MOF--net-umc--node1-ICAMEG_clean_sbu_1--edge1-OJICUG_clean_linker_0
_symmetry_space_group_name_H-M    P1
_symmetry_Int_Tables_number       1
_symmetry_cell_setting            triclinic
loop_
_symmetry_equiv_pos_as_xyz
'x, y, z'
_cell_length_a     37.192434
_cell_length_b     25.457733
_cell_length_c     44.920596
_cell_angle_alpha  90.000449
_cell_angle_beta   90.000185
_cell_angle_gamma 90.008683
loop_
_atom_site_label
_atom_site_type_symbol
_atom_site_fract_x
_atom_site_fract_y
_atom_site_fract_z
_atom_type_partial_charge
Co0 Co 0.35016 0.01908 0.38192 0.0
Co1 Co 0.38151 0.13551 0.35182 0.0
O2 O 0.35249 0.09555 0.37996 0.0
C3 C 0.37483 0.05211 0.44126 0.0
O4 O 0.39788 0.082 0.42704 0.0
C5 C 0.30714 0.17189 0.34203 0.0
O6 O 0.2981 0.12208 0.34108 0.0
O7 O 0.36464 0.09144 0.31792 0.0
O8 O 0.34773 0.01387 0.3375 0.0
H9 H 0.46852 0.15836 0.26724 0.0
H10 H 0.29929 0.08331 0.41743 0.0
O11 O 0.35308 0.02324 0.4266 0.0
H12 H 0.22349 0.97682 0.35055 0.0
H13 H 0.30838 0.84751 0.42553 0.0
H14 H 0.38338 0.93117 0.3484 0.0
H15 H 0.28952 0.96763 0.34978 0.0
H16 H 0.31167 0.94408 0.4216 0.0
O17 O 0.33999 0.1848 0.34555 0.0
H18 H 0.43202 0.10813 0.30321 0.0
H19 H 0.39143 0.2499 0.33998 0.0
H20 H 0.38067 0.8345 0.35137 0.0
H21 H 0.23336 0.09355 0.41905 0.0
H22 H 0.34295 0.79206 0.39015 0.0
H23 H 0.19501 0.04019 0.38537 0.0
O24 O 0.40343 0.01285 0.37971 0.0
H25 H 0.36606 0.24133 0.44539 0.0
H26 H 0.45326 0.17354 0.37219 0.0
H27 H 0.47497 0.22506 0.41508 0.0
H28 H 0.4312 0.25934 0.45206 0.0
H29 H 0.34559 0.1892 0.40232 0.0
H30 H 0.42731 0.3017 0.30427 0.0
H31 H 0.46635 0.25586 0.26767 0.0
O32 O 0.42334 0.08702 0.35789 0.0
C33 C 0.3535 0.04421 0.31535 0.0
C34 C 0.45174 0.17878 0.28316 0.0
C35 C 0.42855 0.25923 0.30391 0.0
N36 N 0.40989 0.17608 0.32383 0.0
C37 C 0.43109 0.15056 0.30363 0.0
C38 C 0.40824 0.22971 0.32403 0.0
C39 C 0.45047 0.23349 0.28339 0.0
C40 C 0.28275 0.05955 0.40294 0.0
N41 N 0.2982 0.02468 0.38367 0.0
C42 C 0.24545 0.06568 0.40386 0.0
C43 C 0.22395 0.03579 0.38492 0.0
C44 C 0.23992 1.00025 0.36537 0.0
C45 C 0.27731 0.99525 0.36501 0.0
C46 C 0.32485 0.86553 0.40849 0.0
C47 C 0.36672 0.91298 0.36521 0.0
C48 C 0.32686 0.92017 0.4062 0.0
N49 N 0.34745 0.94318 0.38463 0.0
C50 C 0.36538 0.85823 0.36684 0.0
C51 C 0.34424 0.83444 0.38863 0.0
C52 C 0.42849 0.04141 0.369 0.0
C53 C 0.38539 0.22667 0.42941 0.0
C54 C 0.43409 0.18815 0.38824 0.0
C55 C 0.44652 0.21744 0.41244 0.0
C56 C 0.42195 0.2367 0.43316 0.0
N57 N 0.39821 0.17837 0.38475 0.0
C58 C 0.37394 0.19731 0.40491 0.0
Co59 Co 0.65173 0.98102 0.38186 0.0
Co60 Co 0.62037 0.86443 0.35196 0.0
O61 O 0.64941 0.90455 0.38001 0.0
C62 C 0.627 0.94824 0.44122 0.0
O63 O 0.60399 0.91826 0.42702 0.0
C64 C 0.69477 0.82822 0.34211 0.0
O65 O 0.70374 0.87806 0.34112 0.0
O66 O 0.63708 0.90842 0.31797 0.0
O67 O 0.6542 0.98598 0.33744 0.0
H68 H 0.53313 0.84099 0.2676 0.0
H69 H 0.70256 0.91698 0.41752 0.0
O70 O 0.64875 0.97708 0.42654 0.0
H71 H 0.77843 0.02311 0.35052 0.0
H72 H 0.69346 0.15283 0.4252 0.0
H73 H 0.61858 0.06875 0.34815 0.0
H74 H 0.7124 0.0323 0.34968 0.0
H75 H 0.69015 0.05624 0.42146 0.0
O76 O 0.66194 0.81523 0.34568 0.0
H77 H 0.56969 0.89148 0.30341 0.0
H78 H 0.61056 0.74997 0.3403 0.0
H79 H 0.62131 0.16543 0.35092 0.0
H80 H 0.76849 0.90676 0.41922 0.0
H81 H 0.65898 0.20809 0.38967 0.0
H82 H 0.80687 0.95994 0.38547 0.0
O83 O 0.59846 0.98723 0.37959 0.0
H84 H 0.63619 0.75905 0.44565 0.0
H85 H 0.54872 0.82634 0.37253 0.0
H86 H 0.52718 0.77499 0.41555 0.0
H87 H 0.57109 0.74096 0.45249 0.0
H88 H 0.65649 0.811 0.40246 0.0
H89 H 0.57463 0.69792 0.30474 0.0
H90 H 0.53541 0.7435 0.26816 0.0
O91 O 0.5785 0.91284 0.35805 0.0
C92 C 0.6483 0.95561 0.31532 0.0
C93 C 0.54999 0.82068 0.28351 0.0
C94 C 0.57334 0.74038 0.30432 0.0
N95 N 0.59197 0.82367 0.32407 0.0
C96 C 0.57067 0.84905 0.30389 0.0
C97 C 0.59368 0.77005 0.32435 0.0
C98 C 0.55133 0.76597 0.28381 0.0
C99 C 0.71912 0.94067 0.403 0.0
N100 N 0.70368 0.97543 0.38366 0.0
C101 C 0.75641 0.93455 0.40396 0.0
C102 C 0.77793 0.96434 0.38499 0.0
C103 C 0.76199 0.99977 0.36536 0.0
C104 C 0.7246 0.00476 0.36496 0.0
C105 C 0.67702 0.13471 0.40818 0.0
C106 C 0.63521 0.08703 0.36494 0.0
C107 C 0.67499 0.08006 0.40599 0.0
N108 N 0.65444 0.05693 0.38444 0.0
C109 C 0.63656 0.14179 0.36646 0.0
C110 C 0.65767 0.16569 0.38823 0.0
C111 C 0.57338 0.95856 0.36902 0.0
C112 C 0.61681 0.77359 0.42969 0.0
C113 C 0.56794 0.81183 0.38856 0.0
C114 C 0.55562 0.78264 0.41283 0.0
C115 C 0.58027 0.76352 0.43353 0.0
N116 N 0.60381 0.82165 0.38498 0.0
C117 C 0.62815 0.80285 0.40512 0.0
Co118 Co 0.34983 0.98353 0.12954 0.0
Co119 Co 0.38036 0.86681 0.15986 0.0
O120 O 0.35165 0.907 0.13162 0.0
C121 C 0.37431 0.9499 0.07024 0.0
O122 O 0.39718 0.91975 0.08449 0.0
C123 C 0.30576 0.83109 0.16955 0.0
O124 O 0.2968 0.88094 0.17036 0.0
O125 O 0.36366 0.91125 0.19365 0.0
O126 O 0.34741 0.98903 0.17396 0.0
H127 H 0.46684 0.84356 0.24477 0.0
H128 H 0.29854 0.91984 0.09411 0.0
O129 O 0.35275 0.9791 0.08487 0.0
H130 H 0.22343 0.02788 0.16069 0.0
H131 H 0.3093 0.15542 0.08553 0.0
H132 H 0.38356 0.07119 0.16294 0.0
H133 H 0.28952 0.03602 0.16155 0.0
H134 H 0.3119 0.05883 0.08968 0.0
O135 O 0.3386 0.81802 0.16614 0.0
H136 H 0.43086 0.89393 0.20853 0.0
H137 H 0.38961 0.75236 0.17198 0.0
H138 H 0.38155 0.16787 0.15976 0.0
H139 H 0.23255 0.91065 0.0924 0.0
H140 H 0.3442 0.2106 0.12083 0.0
H141 H 0.19454 0.96481 0.12593 0.0
O142 O 0.40313 0.98904 0.13177 0.0
H143 H 0.36457 0.76073 0.06643 0.0
H144 H 0.45191 0.82755 0.1398 0.0
H145 H 0.47344 0.77542 0.09709 0.0
H146 H 0.4296 0.74162 0.06003 0.0
H147 H 0.34428 0.81345 0.10933 0.0
H148 H 0.42496 0.70042 0.20798 0.0
H149 H 0.46407 0.74609 0.24461 0.0
O150 O 0.4225 0.91472 0.15376 0.0
C151 C 0.3529 0.95867 0.19615 0.0
C152 C 0.45003 0.82321 0.22884 0.0
C153 C 0.42647 0.74288 0.20822 0.0
N154 N 0.40843 0.82609 0.188 0.0
C155 C 0.42967 0.85151 0.20821 0.0
C156 C 0.40646 0.77248 0.18794 0.0
C157 C 0.44842 0.76851 0.22876 0.0
C158 C 0.28216 0.94393 0.10854 0.0
N159 N 0.29784 0.97865 0.12777 0.0
C160 C 0.24481 0.9384 0.10757 0.0
C161 C 0.22351 0.96874 0.12643 0.0
C162 C 0.2397 0.00411 0.14595 0.0
C163 C 0.27713 0.00851 0.14636 0.0
C164 C 0.32561 0.13727 0.10263 0.0
C165 C 0.36707 0.08951 0.14607 0.0
C166 C 0.32723 0.08262 0.10505 0.0
N167 N 0.34762 0.05946 0.12669 0.0
C168 C 0.36612 0.14426 0.14432 0.0
C169 C 0.34519 0.16821 0.12245 0.0
C170 C 0.42797 0.96017 0.14256 0.0
C171 C 0.38393 0.77518 0.08245 0.0
C172 C 0.43272 0.81318 0.1237 0.0
C173 C 0.44504 0.78353 0.09961 0.0
C174 C 0.42042 0.76453 0.07885 0.0
N175 N 0.3969 0.82356 0.12705 0.0
C176 C 0.37259 0.80489 0.10684 0.0
Co177 Co 0.65153 0.01715 0.12949 0.0
Co178 Co 0.62122 0.13364 0.16021 0.0
O179 O 0.64985 0.09367 0.1318 0.0
C180 C 0.62736 0.05134 0.0702 0.0
O181 O 0.60446 0.08143 0.08446 0.0
C182 C 0.69583 0.16946 0.16974 0.0
O183 O 0.70481 0.11962 0.17052 0.0
O184 O 0.63815 0.08906 0.19383 0.0
O185 O 0.65373 0.01118 0.17392 0.0
H186 H 0.53525 0.15619 0.24553 0.0
H187 H 0.70315 0.08094 0.09445 0.0
O188 O 0.64884 0.02201 0.08483 0.0
H189 H 0.77765 0.97183 0.16095 0.0
H190 H 0.6918 0.84548 0.08505 0.0
H191 H 0.61734 0.92935 0.16245 0.0
H192 H 0.71154 0.96401 0.16153 0.0
H193 H 0.68952 0.94203 0.08955 0.0
O194 O 0.66297 0.18249 0.16642 0.0
H195 H 0.57104 0.10612 0.20902 0.0
H196 H 0.61191 0.248 0.17258 0.0
H197 H 0.61903 0.8327 0.15891 0.0
H198 H 0.76918 0.08983 0.09303 0.0
H199 H 0.65648 0.79015 0.11998 0.0
H200 H 0.80688 0.03513 0.12652 0.0
O201 O 0.59822 0.01191 0.13151 0.0
H202 H 0.63639 0.24043 0.06696 0.0
H203 H 0.54951 0.17281 0.14047 0.0
H204 H 0.52769 0.2252 0.09797 0.0
H205 H 0.57131 0.25941 0.06084 0.0
H206 H 0.65696 0.18743 0.10966 0.0
H207 H 0.57675 0.29965 0.20884 0.0
H208 H 0.53793 0.25367 0.24555 0.0
O209 O 0.57908 0.08568 0.15418 0.0
C210 C 0.64859 0.04147 0.1962 0.0
C211 C 0.55193 0.17668 0.22956 0.0
C212 C 0.57528 0.25719 0.209 0.0
N213 N 0.59327 0.17414 0.18853 0.0
C214 C 0.57218 0.14855 0.20878 0.0
C215 C 0.59518 0.22775 0.18857 0.0
C216 C 0.55349 0.23137 0.22959 0.0
C217 C 0.7194 0.05662 0.10887 0.0
N218 N 0.70354 0.02178 0.12792 0.0
C219 C 0.75677 0.06198 0.10805 0.0
C220 C 0.7779 0.03134 0.12689 0.0
C221 C 0.76152 0.99583 0.14623 0.0
C222 C 0.72407 0.99162 0.14648 0.0
C223 C 0.67546 0.86355 0.10215 0.0
C224 C 0.63389 0.91111 0.14559 0.0
C225 C 0.67401 0.91818 0.10477 0.0
N226 N 0.65356 0.94124 0.12641 0.0
C227 C 0.63466 0.85637 0.14363 0.0
C228 C 0.65564 0.83253 0.12176 0.0
C229 C 0.57347 0.04054 0.14263 0.0
C230 C 0.61713 0.2258 0.08301 0.0
C231 C 0.5686 0.18735 0.12434 0.0
C232 C 0.55612 0.21715 0.10037 0.0
C233 C 0.58061 0.23637 0.07957 0.0
N234 N 0.60445 0.17705 0.12754 0.0
C235 C 0.62864 0.19594 0.1073 0.0
Co236 Co 0.65166 0.98145 0.62952 0.0
Co237 Co 0.62045 0.86486 0.65951 0.0
O238 O 0.64944 0.90498 0.63143 0.0
C239 C 0.62698 0.94848 0.57019 0.0
O240 O 0.60398 0.91851 0.58442 0.0
C241 C 0.69487 0.82869 0.66932 0.0
O242 O 0.70385 0.87852 0.67029 0.0
O243 O 0.63718 0.90892 0.69346 0.0
O244 O 0.65412 0.98653 0.67395 0.0
H245 H 0.53333 0.84147 0.74396 0.0
H246 H 0.70259 0.91747 0.59393 0.0
O247 O 0.6487 0.97739 0.58484 0.0
H248 H 0.7783 0.024 0.66084 0.0
H249 H 0.69318 0.15325 0.58603 0.0
H250 H 0.6184 0.06919 0.66316 0.0
H251 H 0.71226 0.03298 0.66168 0.0
H252 H 0.69001 0.05667 0.58987 0.0
O253 O 0.66203 0.8157 0.66578 0.0
H254 H 0.56981 0.89193 0.70809 0.0
H255 H 0.61069 0.7504 0.67124 0.0
H256 H 0.62099 0.16587 0.66028 0.0
H257 H 0.76853 0.90745 0.59223 0.0
H258 H 0.6586 0.20852 0.62149 0.0
H259 H 0.80684 0.96084 0.62594 0.0
O260 O 0.59839 0.98755 0.63177 0.0
H261 H 0.63622 0.75938 0.56585 0.0
H262 H 0.54879 0.82663 0.63902 0.0
H263 H 0.52724 0.77518 0.59604 0.0
H264 H 0.57113 0.74118 0.55908 0.0
H265 H 0.65654 0.81142 0.609 0.0
H266 H 0.57485 0.69837 0.70686 0.0
H267 H 0.53566 0.74398 0.74345 0.0
O268 O 0.57854 0.9132 0.65343 0.0
C269 C 0.6483 0.95616 0.69608 0.0
C270 C 0.55017 0.82115 0.72805 0.0
C271 C 0.57353 0.74084 0.70725 0.0
N272 N 0.59209 0.82411 0.68744 0.0
C273 C 0.57082 0.8495 0.70763 0.0
C274 C 0.59383 0.77049 0.68719 0.0
C275 C 0.55154 0.76644 0.72777 0.0
C276 C 0.71911 0.94124 0.60843 0.0
N277 N 0.70363 0.976 0.62774 0.0
C278 C 0.75642 0.93523 0.60747 0.0
C279 C 0.77789 0.96515 0.62642 0.0
C280 C 0.7619 0.00057 0.64602 0.0
C281 C 0.7245 0.00544 0.64642 0.0
C282 C 0.67676 0.13514 0.60306 0.0
C283 C 0.63501 0.08747 0.64635 0.0
C284 C 0.67481 0.08049 0.60531 0.0
N285 N 0.65428 0.05737 0.62688 0.0
C286 C 0.63628 0.14223 0.64477 0.0
C287 C 0.65736 0.16612 0.62298 0.0
C288 C 0.57335 0.95886 0.64241 0.0
C289 C 0.61685 0.77391 0.58183 0.0
C290 C 0.56801 0.81213 0.62297 0.0
C291 C 0.55567 0.78288 0.59873 0.0
C292 C 0.58031 0.76378 0.57802 0.0
N293 N 0.60387 0.82201 0.62652 0.0
C294 C 0.6282 0.80323 0.60637 0.0
Co295 Co 0.35009 0.01893 0.62955 0.0
Co296 Co 0.38132 0.1354 0.65968 0.0
O297 O 0.35234 0.09541 0.63153 0.0
C298 C 0.37476 0.05206 0.57023 0.0
O299 O 0.39778 0.08197 0.58447 0.0
C300 C 0.30692 0.17171 0.66945 0.0
O301 O 0.29788 0.1219 0.67038 0.0
O302 O 0.36448 0.09129 0.69357 0.0
O303 O 0.34765 0.01369 0.67398 0.0
H304 H 0.46825 0.15833 0.74431 0.0
H305 H 0.29915 0.08308 0.59405 0.0
O306 O 0.35302 0.02314 0.58487 0.0
H307 H 0.22345 0.97635 0.66087 0.0
H308 H 0.3085 0.84731 0.58587 0.0
H309 H 0.38337 0.93106 0.66305 0.0
H310 H 0.28949 0.96732 0.66166 0.0
H311 H 0.31168 0.94388 0.58983 0.0
O312 O 0.33977 0.18463 0.66594 0.0
H313 H 0.43182 0.10807 0.70831 0.0
H314 H 0.39116 0.24981 0.67154 0.0
H315 H 0.38077 0.83439 0.66005 0.0
H316 H 0.23322 0.09314 0.5924 0.0
H317 H 0.34311 0.7919 0.62123 0.0
H318 H 0.19491 0.03966 0.62605 0.0
O319 O 0.40336 0.01281 0.63177 0.0
H320 H 0.36583 0.24122 0.56612 0.0
H321 H 0.45305 0.17359 0.63934 0.0
H322 H 0.47473 0.22517 0.59646 0.0
H323 H 0.43095 0.25937 0.55947 0.0
H324 H 0.34538 0.18904 0.60917 0.0
H325 H 0.42697 0.30164 0.70729 0.0
H326 H 0.46601 0.25582 0.7439 0.0
O327 O 0.4232 0.08699 0.6536 0.0
C328 C 0.35339 0.04403 0.69613 0.0
C329 C 0.45147 0.17874 0.72838 0.0
C330 C 0.42825 0.25917 0.70764 0.0
N331 N 0.40966 0.176 0.68769 0.0
C332 C 0.43086 0.1505 0.70789 0.0
C333 C 0.40797 0.22963 0.6875 0.0
C334 C 0.45016 0.23345 0.72817 0.0
C335 C 0.28264 0.05926 0.60853 0.0
N336 N 0.29812 0.02443 0.62779 0.0
C337 C 0.24533 0.0653 0.60759 0.0
C338 C 0.22386 0.03533 0.62651 0.0
C339 C 0.23985 0.99983 0.64607 0.0
C340 C 0.27726 0.99493 0.64644 0.0
C341 C 0.32494 0.86536 0.60292 0.0
C342 C 0.36674 0.91285 0.64624 0.0
C343 C 0.3269 0.92 0.60523 0.0
N344 N 0.34744 0.94303 0.62682 0.0
C345 C 0.36546 0.8581 0.64458 0.0
C346 C 0.34436 0.83429 0.62278 0.0
C347 C 0.42839 0.04141 0.64249 0.0
C348 C 0.38516 0.2266 0.5821 0.0
C349 C 0.43388 0.18816 0.62328 0.0
C350 C 0.44629 0.21749 0.5991 0.0
C351 C 0.42171 0.23671 0.57837 0.0
N352 N 0.398 0.17831 0.62676 0.0
C353 C 0.37373 0.1972 0.60659 0.0
Co354 Co 0.65158 0.01734 0.88191 0.0
Co355 Co 0.62111 0.13391 0.85138 0.0
O356 O 0.64982 0.09386 0.87969 0.0
C357 C 0.62734 0.05134 0.94121 0.0
O358 O 0.60445 0.08144 0.92697 0.0
C359 C 0.6957 0.16969 0.84171 0.0
O360 O 0.70467 0.11984 0.8409 0.0
O361 O 0.63791 0.0894 0.81767 0.0
O362 O 0.65383 0.01157 0.83748 0.0
H363 H 0.53478 0.15677 0.76634 0.0
H364 H 0.70309 0.08112 0.91706 0.0
O365 O 0.64884 0.02204 0.92658 0.0
H366 H 0.77779 0.97249 0.85046 0.0
H367 H 0.69204 0.8456 0.92613 0.0
H368 H 0.61756 0.92959 0.84879 0.0
H369 H 0.71169 0.96449 0.84983 0.0
H370 H 0.6896 0.94216 0.92179 0.0
O371 O 0.66286 0.18274 0.8451 0.0
H372 H 0.57073 0.10656 0.80267 0.0
H373 H 0.6118 0.24831 0.83914 0.0
H374 H 0.61941 0.83293 0.85218 0.0
H375 H 0.76911 0.09018 0.91854 0.0
H376 H 0.65687 0.79031 0.89108 0.0
H377 H 0.80691 0.03573 0.88499 0.0
O378 O 0.59827 0.01196 0.87984 0.0
H379 H 0.63668 0.24042 0.94468 0.0
H380 H 0.54949 0.17304 0.87135 0.0
H381 H 0.52785 0.22529 0.91397 0.0
H382 H 0.57162 0.25938 0.95101 0.0
H383 H 0.65707 0.18756 0.90187 0.0
H384 H 0.57647 0.30008 0.80306 0.0
H385 H 0.53747 0.25425 0.76642 0.0
O386 O 0.57899 0.08595 0.85747 0.0
C387 C 0.64851 0.04188 0.81524 0.0
C388 C 0.55154 0.1772 0.78227 0.0
C389 C 0.57499 0.25762 0.80285 0.0
N390 N 0.59307 0.1745 0.82317 0.0
C391 C 0.57188 0.14899 0.80295 0.0
C392 C 0.59499 0.22811 0.82318 0.0
C393 C 0.55311 0.23189 0.78231 0.0
C394 C 0.71939 0.0569 0.90263 0.0
N395 N 0.70358 0.0221 0.88352 0.0
C396 C 0.75674 0.06237 0.90347 0.0
C397 C 0.77793 0.03186 0.88461 0.0
C398 C 0.76161 0.99639 0.86521 0.0
C399 C 0.72417 0.99208 0.86493 0.0
C400 C 0.67569 0.8637 0.90905 0.0
C401 C 0.63411 0.91132 0.86564 0.0
C402 C 0.67415 0.91834 0.90652 0.0
N403 N 0.6537 0.94143 0.88489 0.0
C404 C 0.63497 0.85658 0.86751 0.0
C405 C 0.65596 0.8327 0.88936 0.0
C406 C 0.57346 0.04068 0.86888 0.0
C407 C 0.61735 0.22585 0.92867 0.0
C408 C 0.56864 0.18753 0.88744 0.0
C409 C 0.55626 0.21725 0.91148 0.0
C410 C 0.58084 0.23641 0.93223 0.0
N411 N 0.60448 0.17724 0.88413 0.0
C412 C 0.62875 0.19606 0.90432 0.0
Co413 Co 0.34986 0.98342 0.88195 0.0
Co414 Co 0.3804 0.86669 0.85165 0.0
O415 O 0.35167 0.9069 0.87988 0.0
C416 C 0.37431 0.94983 0.94126 0.0
O417 O 0.39717 0.91967 0.92702 0.0
C418 C 0.30581 0.83097 0.84195 0.0
O419 O 0.29687 0.88083 0.84112 0.0
O420 O 0.36371 0.91108 0.81785 0.0
O421 O 0.34747 0.98888 0.83752 0.0
H422 H 0.46697 0.84331 0.76682 0.0
H423 H 0.29854 0.91977 0.91736 0.0
O424 O 0.35275 0.97902 0.92661 0.0
H425 H 0.22349 0.02775 0.8507 0.0
H426 H 0.30931 0.15536 0.92587 0.0
H427 H 0.38364 0.07104 0.84855 0.0
H428 H 0.28958 0.0359 0.84989 0.0
H429 H 0.3119 0.05877 0.92176 0.0
O430 O 0.33864 0.81789 0.84538 0.0
H431 H 0.43093 0.89374 0.803 0.0
H432 H 0.38967 0.75223 0.8396 0.0
H433 H 0.38165 0.16772 0.8517 0.0
H434 H 0.23254 0.91057 0.91902 0.0
H435 H 0.34426 0.2105 0.89059 0.0
H436 H 0.19456 0.9647 0.88545 0.0
O437 O 0.40316 0.98892 0.87974 0.0
H438 H 0.36455 0.76067 0.9451 0.0
H439 H 0.45196 0.82754 0.87179 0.0
H440 H 0.47346 0.77547 0.91454 0.0
H441 H 0.42959 0.74165 0.95157 0.0
H442 H 0.3443 0.81333 0.90217 0.0
H443 H 0.42506 0.70023 0.80366 0.0
H444 H 0.46421 0.74584 0.76704 0.0
O445 O 0.42254 0.91462 0.85775 0.0
C446 C 0.35296 0.95851 0.81533 0.0
C447 C 0.45014 0.82298 0.78275 0.0
C448 C 0.42657 0.74268 0.8034 0.0
N449 N 0.40849 0.82593 0.82355 0.0
C450 C 0.42975 0.85132 0.80334 0.0
C451 C 0.40653 0.77232 0.82364 0.0
C452 C 0.44854 0.76829 0.78286 0.0
C453 C 0.28216 0.94385 0.90291 0.0
N454 N 0.29786 0.97855 0.88368 0.0
C455 C 0.24482 0.93831 0.90386 0.0
C456 C 0.22353 0.96863 0.88498 0.0
C457 C 0.23975 0.004 0.86546 0.0
C458 C 0.27718 0.00839 0.86508 0.0
C459 C 0.32563 0.13718 0.90879 0.0
C460 C 0.36713 0.08938 0.8654 0.0
C461 C 0.32725 0.08253 0.90639 0.0
N462 N 0.34766 0.05935 0.88477 0.0
C463 C 0.36619 0.14413 0.86714 0.0
C464 C 0.34524 0.1681 0.88898 0.0
C465 C 0.428 0.96007 0.86895 0.0
C466 C 0.38393 0.77513 0.9291 0.0
C467 C 0.43275 0.81315 0.88788 0.0
C468 C 0.44506 0.78354 0.91199 0.0
C469 C 0.42042 0.76453 0.93274 0.0
N470 N 0.39693 0.82348 0.88449 0.0
C471 C 0.3726 0.8048 0.90468 0.0
Co472 Co 0.85008 0.51536 0.38193 0.0
Co473 Co 0.88008 0.6329 0.35227 0.0
O474 O 0.85146 0.59193 0.38022 0.0
C475 C 0.87449 0.54851 0.44126 0.0
O476 O 0.89715 0.57904 0.42704 0.0
C477 C 0.80532 0.66798 0.34253 0.0
O478 O 0.79653 0.61806 0.3416 0.0
O479 O 0.86373 0.5888 0.31823 0.0
O480 O 0.84763 0.51061 0.33751 0.0
H481 H 0.96695 0.65868 0.26785 0.0
H482 H 0.79847 0.57784 0.41773 0.0
O483 O 0.85304 0.51917 0.4266 0.0
H484 H 0.7239 0.46989 0.35065 0.0
H485 H 0.81056 0.34226 0.42506 0.0
H486 H 0.88426 0.42868 0.34805 0.0
H487 H 0.79004 0.46265 0.34969 0.0
H488 H 0.81262 0.43894 0.42144 0.0
O489 O 0.83809 0.68129 0.34609 0.0
H490 H 0.93093 0.60722 0.3036 0.0
H491 H 0.8888 0.74764 0.34084 0.0
H492 H 0.88278 0.33193 0.35071 0.0
H493 H 0.73242 0.58611 0.41956 0.0
H494 H 0.84571 0.2881 0.38944 0.0
H495 H 0.69469 0.53199 0.38578 0.0
O496 O 0.90341 0.51047 0.37965 0.0
H497 H 0.86327 0.73715 0.44623 0.0
H498 H 0.95136 0.67251 0.37286 0.0
H499 H 0.9724 0.724 0.41599 0.0
H500 H 0.92818 0.75668 0.45306 0.0
H501 H 0.84348 0.68509 0.40292 0.0
H502 H 0.92413 0.80065 0.30534 0.0
H503 H 0.96372 0.75611 0.26862 0.0
O504 O 0.92247 0.58541 0.35821 0.0
C505 C 0.85307 0.54136 0.31548 0.0
C506 C 0.94992 0.67854 0.28382 0.0
C507 C 0.92584 0.75822 0.30483 0.0
N508 N 0.90805 0.67443 0.32444 0.0
C509 C 0.92954 0.64962 0.30417 0.0
C510 C 0.90583 0.72801 0.32483 0.0
C511 C 0.94805 0.73321 0.28424 0.0
C512 C 0.78221 0.55377 0.40318 0.0
N513 N 0.79806 0.51958 0.38376 0.0
C514 C 0.74483 0.55878 0.40423 0.0
C515 C 0.72368 0.52846 0.38523 0.0
C516 C 0.74006 0.49363 0.36551 0.0
C517 C 0.77751 0.48975 0.36504 0.0
C518 C 0.82674 0.3609 0.40804 0.0
C519 C 0.86788 0.40988 0.36483 0.0
C520 C 0.82807 0.4156 0.40592 0.0
N521 N 0.84829 0.43937 0.38439 0.0
C522 C 0.86724 0.35509 0.36629 0.0
C523 C 0.84647 0.33053 0.38804 0.0
C524 C 0.92814 0.5398 0.3691 0.0
C525 C 0.88279 0.72319 0.43021 0.0
C526 C 0.932 0.68643 0.38894 0.0
C527 C 0.94405 0.71571 0.41328 0.0
C528 C 0.91922 0.73408 0.43405 0.0
N529 N 0.89625 0.6758 0.38537 0.0
C530 C 0.87173 0.69387 0.40558 0.0
Co531 Co 0.15211 0.48519 0.38191 0.0
Co532 Co 0.12206 0.36767 0.35226 0.0
O533 O 0.15072 0.40862 0.38019 0.0
C534 C 0.12777 0.45203 0.44125 0.0
O535 O 0.1051 0.42151 0.42704 0.0
C536 C 0.19679 0.33246 0.34247 0.0
O537 O 0.20563 0.38235 0.34153 0.0
O538 O 0.13839 0.41175 0.31821 0.0
O539 O 0.15448 0.48995 0.33748 0.0
H540 H 0.03509 0.34195 0.2679 0.0
H541 H 0.20378 0.4227 0.41764 0.0
O542 O 0.14921 0.48137 0.42658 0.0
H543 H 0.27823 0.53067 0.3505 0.0
H544 H 0.19172 0.65827 0.42501 0.0
H545 H 0.11787 0.57189 0.34808 0.0
H546 H 0.2121 0.5379 0.3496 0.0
H547 H 0.18964 0.56159 0.42138 0.0
O548 O 0.16401 0.31922 0.34606 0.0
H549 H 0.07117 0.39338 0.30361 0.0
H550 H 0.11328 0.25293 0.34084 0.0
H551 H 0.11937 0.66864 0.35075 0.0
H552 H 0.26983 0.41444 0.4194 0.0
H553 H 0.15651 0.71245 0.38944 0.0
H554 H 0.30751 0.46856 0.38559 0.0
O555 O 0.09878 0.4901 0.37968 0.0
H556 H 0.13892 0.26343 0.44622 0.0
H557 H 0.05078 0.32812 0.37289 0.0
H558 H 0.02976 0.27666 0.41604 0.0
H559 H 0.07401 0.24395 0.45309 0.0
H560 H 0.15869 0.31546 0.40289 0.0
H561 H 0.07789 0.19995 0.30536 0.0
H562 H 0.03828 0.24452 0.26867 0.0
O563 O 0.0797 0.41519 0.35822 0.0
C564 C 0.14903 0.45921 0.31546 0.0
C565 C 0.05213 0.32208 0.28386 0.0
C566 C 0.0762 0.24238 0.30486 0.0
N567 N 0.09404 0.32616 0.32445 0.0
C568 C 0.07254 0.35098 0.30419 0.0
C569 C 0.09624 0.27257 0.32484 0.0
C570 C 0.05397 0.26741 0.28428 0.0
C571 C 0.22001 0.44677 0.40308 0.0
N572 N 0.20413 0.48097 0.38368 0.0
C573 C 0.25739 0.44176 0.40409 0.0
C574 C 0.27851 0.47209 0.38507 0.0
C575 C 0.2621 0.50692 0.36537 0.0
C576 C 0.22465 0.51079 0.36493 0.0
C577 C 0.1755 0.63964 0.40801 0.0
C578 C 0.13429 0.59068 0.36484 0.0
C579 C 0.17417 0.58493 0.40588 0.0
N580 N 0.1539 0.56118 0.38437 0.0
C581 C 0.13494 0.64547 0.36631 0.0
C582 C 0.15575 0.67002 0.38804 0.0
C583 C 0.07403 0.46079 0.36912 0.0
C584 C 0.11939 0.2774 0.43021 0.0
C585 C 0.07015 0.31419 0.38897 0.0
C586 C 0.05812 0.28493 0.41331 0.0
C587 C 0.08296 0.26654 0.43407 0.0
N588 N 0.10591 0.32478 0.38537 0.0
C589 C 0.13044 0.3067 0.40556 0.0
Co590 Co 0.84983 0.48342 0.12952 0.0
Co591 Co 0.88053 0.36623 0.15913 0.0
O592 O 0.85162 0.40688 0.13122 0.0
C593 C 0.87431 0.45059 0.07017 0.0
O594 O 0.89714 0.42032 0.08436 0.0
C595 C 0.806 0.33033 0.16904 0.0
O596 O 0.79702 0.38017 0.17003 0.0
O597 O 0.86403 0.41013 0.1932 0.0
O598 O 0.84745 0.48812 0.17395 0.0
H599 H 0.96775 0.34142 0.24338 0.0
H600 H 0.79847 0.42035 0.09379 0.0
O601 O 0.85273 0.47967 0.08485 0.0
H602 H 0.72349 0.52742 0.16098 0.0
H603 H 0.80931 0.65608 0.08648 0.0
H604 H 0.88362 0.57049 0.16337 0.0
H605 H 0.78959 0.53542 0.16186 0.0
H606 H 0.81189 0.55942 0.09008 0.0
O607 O 0.8388 0.31733 0.16536 0.0
H608 H 0.93136 0.39248 0.20772 0.0
H609 H 0.88988 0.25158 0.17051 0.0
H610 H 0.88162 0.66722 0.16073 0.0
H611 H 0.73247 0.41133 0.09205 0.0
H612 H 0.84425 0.71064 0.12206 0.0
H613 H 0.69452 0.465 0.12589 0.0
O614 O 0.90313 0.48895 0.13174 0.0
H615 H 0.86405 0.26186 0.06516 0.0
H616 H 0.95197 0.32751 0.1384 0.0
H617 H 0.97318 0.27634 0.09521 0.0
H618 H 0.92905 0.24315 0.05821 0.0
H619 H 0.84408 0.31362 0.10853 0.0
H620 H 0.92559 0.19898 0.20594 0.0
H621 H 0.96503 0.24395 0.2426 0.0
O622 O 0.92264 0.41422 0.15313 0.0
C623 C 0.85312 0.45744 0.19597 0.0
C624 C 0.95078 0.32137 0.22744 0.0
C625 C 0.92707 0.24142 0.20646 0.0
N626 N 0.90879 0.32501 0.1869 0.0
C627 C 0.9302 0.35006 0.20714 0.0
C628 C 0.90685 0.27141 0.1865 0.0
C629 C 0.9492 0.26668 0.22701 0.0
C630 C 0.78212 0.44423 0.10837 0.0
N631 N 0.79784 0.4786 0.12777 0.0
C632 C 0.74477 0.43879 0.10737 0.0
C633 C 0.7235 0.46886 0.1264 0.0
C634 C 0.73973 0.50387 0.1461 0.0
C635 C 0.77717 0.50818 0.14653 0.0
C636 C 0.82563 0.63762 0.10347 0.0
C637 C 0.8671 0.58911 0.14662 0.0
C638 C 0.82724 0.58293 0.10558 0.0
N639 N 0.84764 0.5594 0.12708 0.0
C640 C 0.86617 0.64389 0.14517 0.0
C641 C 0.84523 0.66822 0.12344 0.0
C642 C 0.92804 0.45992 0.14225 0.0
C643 C 0.88353 0.27604 0.08115 0.0
C644 C 0.93265 0.31337 0.12235 0.0
C645 C 0.94479 0.28427 0.09798 0.0
C646 C 0.92001 0.26562 0.07724 0.0
N647 N 0.89684 0.32354 0.12599 0.0
C648 C 0.87237 0.30519 0.10582 0.0
Co649 Co 0.15168 0.51734 0.12951 0.0
Co650 Co 0.12099 0.63447 0.15919 0.0
O651 O 0.14986 0.59388 0.13124 0.0
C652 C 0.12713 0.55021 0.07018 0.0
O653 O 0.1043 0.58047 0.08439 0.0
C654 C 0.19553 0.67033 0.16905 0.0
O655 O 0.20449 0.62049 0.17002 0.0
O656 O 0.13753 0.59053 0.19323 0.0
O657 O 0.15413 0.51258 0.17393 0.0
H658 H 0.03389 0.65914 0.24354 0.0
H659 H 0.20296 0.5805 0.09376 0.0
O660 O 0.14872 0.52113 0.08484 0.0
H661 H 0.27809 0.47341 0.16083 0.0
H662 H 0.1922 0.34476 0.08636 0.0
H663 H 0.11797 0.43021 0.16335 0.0
H664 H 0.212 0.46534 0.16176 0.0
H665 H 0.18959 0.44141 0.09 0.0
O666 O 0.16272 0.68336 0.16541 0.0
H667 H 0.07022 0.60814 0.20781 0.0
H668 H 0.11165 0.7491 0.17064 0.0
H669 H 0.11999 0.33348 0.16068 0.0
H670 H 0.26896 0.58959 0.09196 0.0
H671 H 0.15733 0.29014 0.12195 0.0
H672 H 0.30698 0.53591 0.12574 0.0
O673 O 0.09838 0.51178 0.13177 0.0
H674 H 0.13735 0.73901 0.06527 0.0
H675 H 0.04952 0.67322 0.13854 0.0
H676 H 0.02825 0.72448 0.09541 0.0
H677 H 0.07234 0.75774 0.05838 0.0
H678 H 0.15737 0.68717 0.10859 0.0
H679 H 0.07598 0.80165 0.20613 0.0
H680 H 0.03659 0.75661 0.2428 0.0
O681 O 0.07888 0.58648 0.15319 0.0
C682 C 0.14848 0.54323 0.19596 0.0
C683 C 0.05083 0.67922 0.22759 0.0
C684 C 0.0745 0.7592 0.20662 0.0
N685 N 0.09276 0.67564 0.187 0.0
C686 C 0.07138 0.65056 0.20725 0.0
C687 C 0.0947 0.72925 0.18663 0.0
C688 C 0.0524 0.73391 0.22719 0.0
C689 C 0.21935 0.55661 0.1083 0.0
N690 N 0.20367 0.5222 0.1277 0.0
C691 C 0.25669 0.5621 0.10728 0.0
C692 C 0.27801 0.53202 0.12627 0.0
C693 C 0.26181 0.49697 0.14597 0.0
C694 C 0.22438 0.49262 0.14643 0.0
C695 C 0.1759 0.36318 0.10337 0.0
C696 C 0.13446 0.41162 0.14658 0.0
C697 C 0.17427 0.41787 0.10551 0.0
N698 N 0.1539 0.44137 0.12704 0.0
C699 C 0.13542 0.35684 0.14511 0.0
C700 C 0.15634 0.33256 0.12336 0.0
C701 C 0.07347 0.54079 0.1423 0.0
C702 C 0.11789 0.7248 0.08127 0.0
C703 C 0.06882 0.6874 0.12248 0.0
C704 C 0.05665 0.71654 0.09814 0.0
C705 C 0.0814 0.73524 0.0774 0.0
N706 N 0.10463 0.67721 0.12609 0.0
C707 C 0.12908 0.6956 0.10591 0.0
Co708 Co 0.15202 0.48512 0.62952 0.0
Co709 Co 0.12191 0.36764 0.65918 0.0
O710 O 0.1506 0.40856 0.63125 0.0
C711 C 0.12772 0.45199 0.57017 0.0
O712 O 0.10502 0.42149 0.58436 0.0
C713 C 0.19662 0.33234 0.66899 0.0
O714 O 0.20548 0.38223 0.66994 0.0
O715 O 0.13827 0.41171 0.69323 0.0
O716 O 0.15436 0.4899 0.67395 0.0
H717 H 0.03493 0.34206 0.74354 0.0
H718 H 0.20369 0.42257 0.59382 0.0
O719 O 0.14916 0.4813 0.58485 0.0
H720 H 0.27814 0.53049 0.661 0.0
H721 H 0.19174 0.65815 0.58643 0.0
H722 H 0.1178 0.57187 0.66332 0.0
H723 H 0.21201 0.53779 0.66186 0.0
H724 H 0.18962 0.56147 0.59007 0.0
O725 O 0.16383 0.31914 0.66539 0.0
H726 H 0.07104 0.39344 0.70782 0.0
H727 H 0.11306 0.25291 0.67061 0.0
H728 H 0.11934 0.66861 0.66065 0.0
H729 H 0.26974 0.41424 0.5921 0.0
H730 H 0.15652 0.71238 0.62197 0.0
H731 H 0.30742 0.46834 0.62593 0.0
O732 O 0.09869 0.49008 0.63172 0.0
H733 H 0.13872 0.26336 0.56523 0.0
H734 H 0.05061 0.32817 0.63855 0.0
H735 H 0.02957 0.27672 0.5954 0.0
H736 H 0.0738 0.24395 0.55836 0.0
H737 H 0.15851 0.31538 0.60856 0.0
H738 H 0.07763 0.19999 0.70609 0.0
H739 H 0.03806 0.24462 0.74278 0.0
O740 O 0.07958 0.41521 0.65322 0.0
C741 C 0.1489 0.45917 0.69598 0.0
C742 C 0.05196 0.32216 0.72758 0.0
C743 C 0.07597 0.24243 0.70659 0.0
N744 N 0.09386 0.32617 0.68699 0.0
C745 C 0.07238 0.35103 0.70725 0.0
C746 C 0.09603 0.27259 0.68661 0.0
C747 C 0.05376 0.26749 0.72717 0.0
C748 C 0.21993 0.44663 0.60839 0.0
N749 N 0.20404 0.48085 0.62778 0.0
C750 C 0.2573 0.44159 0.60741 0.0
C751 C 0.27842 0.4719 0.62643 0.0
C752 C 0.26202 0.50675 0.64612 0.0
C753 C 0.22456 0.51066 0.64654 0.0
C754 C 0.1755 0.63954 0.60342 0.0
C755 C 0.13423 0.59064 0.64657 0.0
C756 C 0.17415 0.58484 0.60555 0.0
N757 N 0.15385 0.56111 0.62706 0.0
C758 C 0.13491 0.64543 0.6451 0.0
C759 C 0.15575 0.66995 0.62338 0.0
C760 C 0.07393 0.46081 0.64229 0.0
C761 C 0.11919 0.27735 0.58124 0.0
C762 C 0.06997 0.31421 0.62247 0.0
C763 C 0.05793 0.28496 0.59814 0.0
C764 C 0.08276 0.26654 0.57738 0.0
N765 N 0.10573 0.32477 0.62607 0.0
C766 C 0.13026 0.30665 0.60588 0.0
Co767 Co 0.85 0.51561 0.6295 0.0
Co768 Co 0.88007 0.6331 0.65918 0.0
O769 O 0.85143 0.59218 0.63122 0.0
C770 C 0.87442 0.54871 0.57017 0.0
O771 O 0.89709 0.57924 0.58438 0.0
C772 C 0.80533 0.6683 0.66892 0.0
O773 O 0.79651 0.6184 0.66985 0.0
O774 O 0.86369 0.58902 0.69322 0.0
O775 O 0.84757 0.51085 0.67393 0.0
H776 H 0.96693 0.65873 0.74362 0.0
H777 H 0.79841 0.57816 0.59372 0.0
O778 O 0.85296 0.51941 0.58484 0.0
H779 H 0.72381 0.47027 0.6608 0.0
H780 H 0.81038 0.34256 0.58638 0.0
H781 H 0.88416 0.42889 0.66336 0.0
H782 H 0.78995 0.46296 0.66175 0.0
H783 H 0.81249 0.43924 0.59001 0.0
O784 O 0.83811 0.68156 0.66536 0.0
H785 H 0.9309 0.60734 0.70786 0.0
H786 H 0.88886 0.74784 0.67063 0.0
H787 H 0.88263 0.33214 0.6607 0.0
H788 H 0.73237 0.5865 0.59191 0.0
H789 H 0.84553 0.28835 0.62198 0.0
H790 H 0.69462 0.53241 0.62569 0.0
O791 O 0.90333 0.51066 0.63177 0.0
H792 H 0.86334 0.73742 0.56523 0.0
H793 H 0.95138 0.67264 0.63861 0.0
H794 H 0.97246 0.72412 0.59549 0.0
H795 H 0.92826 0.75688 0.55842 0.0
H796 H 0.84351 0.68536 0.60853 0.0
H797 H 0.92422 0.80077 0.70615 0.0
H798 H 0.96376 0.75616 0.74287 0.0
O799 O 0.92243 0.58557 0.65324 0.0
C800 C 0.85301 0.54158 0.69595 0.0
C801 C 0.94992 0.67862 0.72765 0.0
C802 C 0.9259 0.75834 0.70665 0.0
N803 N 0.90807 0.67459 0.68702 0.0
C804 C 0.92953 0.64974 0.70729 0.0
C805 C 0.90588 0.72817 0.68664 0.0
C806 C 0.94809 0.73329 0.72724 0.0
C807 C 0.78214 0.5541 0.60827 0.0
N808 N 0.79799 0.51989 0.62769 0.0
C809 C 0.74477 0.55916 0.60723 0.0
C810 C 0.72361 0.52886 0.62623 0.0
C811 C 0.73998 0.494 0.64595 0.0
C812 C 0.77743 0.49008 0.64641 0.0
C813 C 0.82658 0.36118 0.60339 0.0
C814 C 0.86776 0.41011 0.64659 0.0
C815 C 0.82793 0.41588 0.60552 0.0
N816 N 0.84818 0.43962 0.62705 0.0
C817 C 0.86709 0.35532 0.64513 0.0
C818 C 0.8463 0.33078 0.62338 0.0
C819 C 0.92808 0.53995 0.64233 0.0
C820 C 0.88285 0.72343 0.58125 0.0
C821 C 0.93203 0.68659 0.62252 0.0
C822 C 0.9441 0.71586 0.5982 0.0
C823 C 0.91928 0.73427 0.57742 0.0
N824 N 0.89627 0.676 0.62609 0.0
C825 C 0.87176 0.69411 0.60588 0.0
Co826 Co 0.15164 0.51739 0.88192 0.0
Co827 Co 0.12094 0.63452 0.85224 0.0
O828 O 0.14982 0.59392 0.88018 0.0
C829 C 0.12711 0.55026 0.94126 0.0
O830 O 0.10428 0.58053 0.92705 0.0
C831 C 0.19549 0.67034 0.84237 0.0
O832 O 0.20443 0.62049 0.84139 0.0
O833 O 0.13747 0.59056 0.81819 0.0
O834 O 0.15407 0.51262 0.83749 0.0
H835 H 0.0338 0.65918 0.76791 0.0
H836 H 0.20293 0.58056 0.91765 0.0
O837 O 0.1487 0.52119 0.92658 0.0
H838 H 0.27803 0.47352 0.85054 0.0
H839 H 0.1922 0.34483 0.92505 0.0
H840 H 0.11791 0.43025 0.84809 0.0
H841 H 0.21194 0.4654 0.84965 0.0
H842 H 0.18958 0.44147 0.92141 0.0
O843 O 0.16268 0.68339 0.846 0.0
H844 H 0.07015 0.60818 0.80363 0.0
H845 H 0.11162 0.74914 0.84077 0.0
H846 H 0.11995 0.33352 0.85077 0.0
H847 H 0.26893 0.58971 0.9194 0.0
H848 H 0.15732 0.29019 0.88947 0.0
H849 H 0.30693 0.53605 0.88561 0.0
O850 O 0.09834 0.51183 0.87967 0.0
H851 H 0.13733 0.73911 0.94613 0.0
H852 H 0.04948 0.67327 0.87288 0.0
H853 H 0.02823 0.72457 0.91602 0.0
H854 H 0.07233 0.75785 0.95302 0.0
H855 H 0.15734 0.68723 0.90282 0.0
H856 H 0.07594 0.80168 0.80528 0.0
H857 H 0.03652 0.75664 0.76863 0.0
O858 O 0.07883 0.58653 0.85824 0.0
C859 C 0.14841 0.54326 0.81546 0.0
C860 C 0.05076 0.67925 0.78385 0.0
C861 C 0.07445 0.75923 0.8048 0.0
N862 N 0.09271 0.67568 0.82442 0.0
C863 C 0.07132 0.6506 0.80418 0.0
C864 C 0.09466 0.72929 0.82478 0.0
C865 C 0.05234 0.73394 0.78424 0.0
C866 C 0.21931 0.55669 0.9031 0.0
N867 N 0.20363 0.52226 0.8837 0.0
C868 C 0.25666 0.5622 0.9041 0.0
C869 C 0.27796 0.53214 0.88509 0.0
C870 C 0.26176 0.49706 0.8654 0.0
C871 C 0.22433 0.49268 0.86497 0.0
C872 C 0.17589 0.36324 0.90805 0.0
C873 C 0.13442 0.41167 0.86486 0.0
C874 C 0.17425 0.41793 0.90591 0.0
N875 N 0.15386 0.44142 0.88439 0.0
C876 C 0.13538 0.35689 0.86633 0.0
C877 C 0.15632 0.33261 0.88807 0.0
C878 C 0.07343 0.54084 0.86914 0.0
C879 C 0.11786 0.72489 0.93014 0.0
C880 C 0.06879 0.68746 0.88894 0.0
C881 C 0.05662 0.71662 0.91327 0.0
C882 C 0.08138 0.73533 0.93401 0.0
N883 N 0.1046 0.67727 0.88533 0.0
C884 C 0.12905 0.69567 0.9055 0.0
Co885 Co 0.84978 0.48342 0.88189 0.0
Co886 Co 0.8805 0.36627 0.85224 0.0
O887 O 0.85159 0.40687 0.88016 0.0
C888 C 0.87426 0.45054 0.94124 0.0
O889 O 0.89709 0.42027 0.92704 0.0
C890 C 0.80596 0.33042 0.84231 0.0
O891 O 0.797 0.38027 0.84133 0.0
O892 O 0.86401 0.41022 0.81819 0.0
O893 O 0.8474 0.48817 0.83747 0.0
H894 H 0.96774 0.34157 0.76799 0.0
H895 H 0.79845 0.42027 0.9176 0.0
O896 O 0.85268 0.47962 0.92657 0.0
H897 H 0.72342 0.52733 0.85043 0.0
H898 H 0.80919 0.65599 0.92499 0.0
H899 H 0.88355 0.57054 0.84809 0.0
H900 H 0.78952 0.53541 0.84958 0.0
H901 H 0.81181 0.55934 0.92136 0.0
O902 O 0.83876 0.31739 0.84598 0.0
H903 H 0.93135 0.39258 0.80368 0.0
H904 H 0.88983 0.25164 0.84079 0.0
H905 H 0.88152 0.66727 0.85076 0.0
H906 H 0.73244 0.41116 0.91932 0.0
H907 H 0.84412 0.71061 0.88944 0.0
H908 H 0.69448 0.46482 0.88549 0.0
O909 O 0.90308 0.48897 0.87968 0.0
H910 H 0.86399 0.26171 0.94614 0.0
H911 H 0.95193 0.32752 0.87296 0.0
H912 H 0.97313 0.27625 0.91611 0.0
H913 H 0.92899 0.24297 0.95309 0.0
H914 H 0.84403 0.31357 0.9028 0.0
H915 H 0.92555 0.19908 0.80535 0.0
H916 H 0.96501 0.24411 0.76872 0.0
O917 O 0.9226 0.41425 0.85827 0.0
C918 C 0.85308 0.45753 0.81544 0.0
C919 C 0.95076 0.3215 0.78392 0.0
C920 C 0.92703 0.24153 0.80486 0.0
N921 N 0.90875 0.32509 0.82445 0.0
C922 C 0.93017 0.35016 0.80423 0.0
C923 C 0.90681 0.27148 0.82482 0.0
C924 C 0.94918 0.26681 0.78432 0.0
C925 C 0.78208 0.44415 0.90303 0.0
N926 N 0.79779 0.47856 0.88365 0.0
C927 C 0.74473 0.43865 0.90401 0.0
C928 C 0.72345 0.46872 0.88499 0.0
C929 C 0.73968 0.50378 0.86531 0.0
C930 C 0.77711 0.50814 0.8649 0.0
C931 C 0.82552 0.63757 0.908 0.0
C932 C 0.86703 0.58913 0.86484 0.0
C933 C 0.82716 0.58288 0.90587 0.0
N934 N 0.84757 0.55938 0.88436 0.0
C935 C 0.86607 0.64391 0.86631 0.0
C936 C 0.84512 0.6682 0.88804 0.0
C937 C 0.928 0.45994 0.86916 0.0
C938 C 0.88348 0.27592 0.93016 0.0
C939 C 0.9326 0.31334 0.889 0.0
C940 C 0.94474 0.28419 0.91335 0.0
C941 C 0.91996 0.26549 0.93407 0.0
N942 N 0.8968 0.32352 0.88536 0.0
C943 C 0.87232 0.30513 0.90551 0.0
C944 C 0.35097 0.01887 0.49014 0.0
C945 C 0.37425 0.05219 0.47425 0.0
H946 H 0.33283 0.99257 0.53292 0.0
C947 C 0.39725 0.08576 0.49021 0.0
H948 H 0.33287 0.99259 0.47852 0.0
C949 C 0.39723 0.08575 0.52131 0.0
C950 C 0.37421 0.05217 0.53724 0.0
H951 H 0.41539 0.11216 0.47871 0.0
H952 H 0.41536 0.11214 0.53282 0.0
C953 C 0.35096 0.01885 0.52132 0.0
C954 C 0.65078 0.98169 0.52128 0.0
C955 C 0.62753 0.94837 0.5372 0.0
H956 H 0.66889 0.0079 0.47847 0.0
C957 C 0.60453 0.91475 0.52127 0.0
H958 H 0.66888 0.008 0.53288 0.0
C959 C 0.60454 0.91469 0.49018 0.0
C960 C 0.62754 0.94825 0.47421 0.0
H961 H 0.58641 0.88835 0.53279 0.0
H962 H 0.58642 0.88825 0.47868 0.0
C963 C 0.65078 0.98163 0.4901 0.0
C964 C 0.35066 0.98333 0.02133 0.0
C965 C 0.37375 0.94976 0.03725 0.0
H966 H 0.33269 0.00979 0.97854 0.0
C967 C 0.39657 0.91592 0.0213 0.0
H968 H 0.33269 0.00982 0.03294 0.0
C969 C 0.39657 0.9159 0.9902 0.0
C970 C 0.37374 0.94972 0.97425 0.0
H971 H 0.41457 0.88933 0.03281 0.0
H972 H 0.41456 0.8893 0.9787 0.0
C973 C 0.35066 0.98331 0.99015 0.0
C974 C 0.65101 0.01792 0.99012 0.0
C975 C 0.62797 0.05156 0.97421 0.0
H976 H 0.66894 0.99136 0.0329 0.0
C977 C 0.60523 0.08551 0.99016 0.0
H978 H 0.66893 0.99135 0.97851 0.0
C979 C 0.60523 0.08552 0.02126 0.0
C980 C 0.62799 0.05158 0.03721 0.0
H981 H 0.58727 0.11216 0.97865 0.0
H982 H 0.58728 0.11217 0.03277 0.0
C983 C 0.65102 0.01793 0.0213 0.0
C984 C 0.85107 0.51469 0.52131 0.0
C985 C 0.87391 0.54866 0.5372 0.0
H986 H 0.8333 0.48788 0.47853 0.0
C987 C 0.89653 0.58279 0.52125 0.0
H988 H 0.83327 0.48797 0.53293 0.0
C989 C 0.89655 0.58274 0.49016 0.0
C990 C 0.87395 0.54855 0.47423 0.0
H991 H 0.91433 0.60968 0.53275 0.0
H992 H 0.91436 0.60959 0.47865 0.0
C993 C 0.85109 0.51464 0.49013 0.0
C994 C 0.15113 0.48595 0.52131 0.0
C995 C 0.12828 0.45199 0.53719 0.0
H996 H 0.16893 0.51272 0.47853 0.0
C997 C 0.10569 0.41782 0.52124 0.0
H998 H 0.16891 0.5127 0.53293 0.0
C999 C 0.10571 0.41783 0.49016 0.0
C1000 C 0.1283 0.45202 0.47422 0.0
H1001 H 0.08789 0.39093 0.53274 0.0
H1002 H 0.08791 0.39095 0.47864 0.0
C1003 C 0.15114 0.48596 0.49013 0.0
C1004 C 0.89649 0.41662 0.99016 0.0
C1005 C 0.87373 0.45054 0.97422 0.0
H1006 H 0.91444 0.38994 0.03275 0.0
C1007 C 0.85073 0.48425 0.99012 0.0
H1008 H 0.91442 0.38992 0.97866 0.0
C1009 C 0.85074 0.48427 0.02129 0.0
C1010 C 0.87375 0.45057 0.03719 0.0
H1011 H 0.83281 0.51081 0.9785 0.0
H1012 H 0.83283 0.51083 0.03291 0.0
C1013 C 0.8965 0.41663 0.02125 0.0
C1014 C 0.15067 0.51656 0.0213 0.0
C1015 C 0.12765 0.55023 0.0372 0.0
H1016 H 0.16859 0.49003 0.9785 0.0
C1017 C 0.10488 0.58415 0.02126 0.0
H1018 H 0.1686 0.49001 0.03291 0.0
C1019 C 0.10487 0.58416 0.99018 0.0
C1020 C 0.12765 0.55026 0.97423 0.0
H1021 H 0.08694 0.61082 0.03278 0.0
H1022 H 0.08693 0.61085 0.97868 0.0
C1023 C 0.15067 0.51657 0.99012 0.0
C1024 C 0.53032 0.0342 0.36949 0.0
C1025 C 0.5363 0.97966 0.36943 0.0
H1026 H 0.49167 0.09645 0.36889 0.0
C1027 C 0.50653 0.94567 0.36944 0.0
H1028 H 0.55268 0.06145 0.36933 0.0
C1029 C 0.47155 0.96577 0.3698 0.0
C1030 C 0.46557 0.02031 0.36942 0.0
H1031 H 0.5102 0.90351 0.36945 0.0
H1032 H 0.44919 0.93851 0.36987 0.0
C1033 C 0.49534 0.05429 0.36913 0.0
C1034 C 0.47159 0.03508 0.14276 0.0
C1035 C 0.46518 0.98067 0.14213 0.0
H1036 H 0.51074 0.09663 0.14397 0.0
C1037 C 0.49465 0.94619 0.14144 0.0
H1038 H 0.44944 0.06266 0.14347 0.0
C1039 C 0.52978 0.9657 0.14109 0.0
C1040 C 0.53622 0.02009 0.14218 0.0
H1041 H 0.49062 0.90411 0.14086 0.0
H1042 H 0.55191 0.93807 0.14046 0.0
C1043 C 0.50673 0.05456 0.14316 0.0
C1044 C 0.53022 0.03441 0.6419 0.0
C1045 C 0.53625 0.97989 0.64201 0.0
H1046 H 0.49151 0.09658 0.64249 0.0
C1047 C 0.50652 0.94583 0.64206 0.0
H1048 H 0.55255 0.06171 0.64201 0.0
C1049 C 0.47152 0.96585 0.64173 0.0
C1050 C 0.46549 0.02038 0.64205 0.0
H1051 H 0.51023 0.90368 0.64209 0.0
H1052 H 0.44919 0.93855 0.64169 0.0
C1053 C 0.49522 0.05443 0.64228 0.0
C1054 C 0.50672 0.05459 0.86884 0.0
C1055 C 0.53623 0.02015 0.86934 0.0
H1056 H 0.44943 0.06263 0.86891 0.0
C1057 C 0.52985 0.96572 0.86994 0.0
H1058 H 0.5107 0.09669 0.86842 0.0
C1059 C 0.49473 0.94617 0.86959 0.0
C1060 C 0.46522 0.98061 0.86938 0.0
H1061 H 0.552 0.93813 0.87019 0.0
H1062 H 0.49074 0.90406 0.86978 0.0
C1063 C 0.47159 0.03505 0.86923 0.0
C1064 C 0.97213 0.46531 0.3697 0.0
C1065 C 0.96548 0.51967 0.36951 0.0
H1066 H 0.01154 0.40409 0.36922 0.0
C1067 C 0.99482 0.55445 0.36939 0.0
H1068 H 0.95012 0.43746 0.36964 0.0
C1069 C 0.03004 0.53529 0.36976 0.0
C1070 C 0.0367 0.48093 0.36953 0.0
H1071 H 0.99063 0.59651 0.36929 0.0
H1072 H 0.05206 0.56314 0.36974 0.0
C1073 C 0.00736 0.44615 0.36935 0.0
C1074 C 0.00671 0.55458 0.14201 0.0
C1075 C 0.03626 0.52019 0.14188 0.0
H1076 H 0.94943 0.56254 0.14168 0.0
C1077 C 0.02991 0.46574 0.14166 0.0
H1078 H 0.01066 0.5967 0.14213 0.0
C1079 C 0.99481 0.44613 0.142 0.0
C1080 C 0.96526 0.48052 0.14185 0.0
H1081 H 0.05209 0.43817 0.14171 0.0
H1082 H 0.99086 0.40401 0.14211 0.0
C1083 C 0.9716 0.53497 0.14164 0.0
C1084 C 0.97204 0.46542 0.64172 0.0
C1085 C 0.9654 0.5198 0.64192 0.0
H1086 H 0.01142 0.40417 0.6422 0.0
C1087 C 0.99476 0.55454 0.64202 0.0
H1088 H 0.95001 0.4376 0.64179 0.0
C1089 C 0.02998 0.53535 0.64165 0.0
C1090 C 0.03661 0.48098 0.64188 0.0
H1091 H 0.99059 0.59661 0.64212 0.0
H1092 H 0.05201 0.56317 0.64166 0.0
C1093 C 0.00725 0.44624 0.64206 0.0
C1094 C 0.02987 0.46578 0.86978 0.0
C1095 C 0.03621 0.52023 0.86956 0.0
H1096 H 0.99082 0.40405 0.86932 0.0
C1097 C 0.00666 0.55462 0.86943 0.0
H1098 H 0.05205 0.43822 0.86974 0.0
C1099 C 0.97156 0.53501 0.86979 0.0
C1100 C 0.96522 0.48056 0.86958 0.0
H1101 H 0.0106 0.59674 0.86931 0.0
H1102 H 0.94938 0.56257 0.86975 0.0
C1103 C 0.99477 0.44617 0.86944 0.0
C1104 C 0.26164 0.30535 0.34075 0.0
C1105 C 0.22505 0.29146 0.34098 0.0
H1106 H 0.31623 0.27863 0.34089 0.0
C1107 C 0.21573 0.23792 0.34068 0.0
H1108 H 0.26977 0.34621 0.34108 0.0
C1109 C 0.24238 0.19917 0.34051 0.0
C1110 C 0.27897 0.21303 0.34074 0.0
H1111 H 0.18781 0.22582 0.34085 0.0
H1112 H 0.23422 0.15831 0.34065 0.0
C1113 C 0.2883 0.26657 0.34069 0.0
C1114 C 0.71373 0.7336 0.34081 0.0
C1115 C 0.72299 0.78717 0.34082 0.0
H1116 H 0.73236 0.65402 0.34122 0.0
C1117 C 0.75956 0.80114 0.34056 0.0
H1118 H 0.68581 0.72146 0.34103 0.0
C1119 C 0.78626 0.76246 0.34072 0.0
C1120 C 0.77702 0.70889 0.34105 0.0
H1121 H 0.76766 0.84201 0.34068 0.0
H1122 H 0.81417 0.77464 0.34087 0.0
C1123 C 0.74044 0.6949 0.34086 0.0
C1124 C 0.2603 0.69764 0.17102 0.0
C1125 C 0.2237 0.71145 0.17057 0.0
H1126 H 0.31486 0.72443 0.17109 0.0
C1127 C 0.21434 0.76498 0.17067 0.0
H1128 H 0.26847 0.6568 0.17086 0.0
C1129 C 0.24096 0.8038 0.17086 0.0
C1130 C 0.27756 0.78999 0.17085 0.0
H1131 H 0.1864 0.77701 0.17032 0.0
H1132 H 0.23279 0.84464 0.17055 0.0
C1133 C 0.28692 0.73646 0.17111 0.0
C1134 C 0.76062 0.19682 0.17094 0.0
C1135 C 0.72401 0.21059 0.17099 0.0
H1136 H 0.81516 0.22366 0.1703 0.0
C1137 C 0.71463 0.26411 0.17125 0.0
H1138 H 0.7688 0.15599 0.17063 0.0
C1139 C 0.74124 0.30296 0.17111 0.0
C1140 C 0.77784 0.28919 0.1706 0.0
H1141 H 0.68669 0.27611 0.17127 0.0
H1142 H 0.73305 0.34379 0.17095 0.0
C1143 C 0.78722 0.23567 0.1707 0.0
C1144 C 0.75966 0.80153 0.67086 0.0
C1145 C 0.72308 0.78761 0.67062 0.0
H1146 H 0.81425 0.77496 0.67053 0.0
C1147 C 0.71379 0.73405 0.67067 0.0
H1148 H 0.76778 0.8424 0.67072 0.0
C1149 C 0.74047 0.69532 0.67061 0.0
C1150 C 0.77706 0.70926 0.6704 0.0
H1151 H 0.68586 0.72194 0.67046 0.0
H1152 H 0.73237 0.65445 0.67028 0.0
C1153 C 0.78633 0.76282 0.6707 0.0
C1154 C 0.26145 0.30519 0.67074 0.0
C1155 C 0.22485 0.29133 0.67049 0.0
H1156 H 0.31603 0.27844 0.67064 0.0
C1157 C 0.21552 0.23779 0.67076 0.0
H1158 H 0.2696 0.34604 0.67044 0.0
C1159 C 0.24216 0.19901 0.67094 0.0
C1160 C 0.27875 0.21285 0.67074 0.0
H1161 H 0.18759 0.22571 0.67056 0.0
H1162 H 0.23399 0.15816 0.67077 0.0
C1163 C 0.2881 0.26639 0.67081 0.0
C1164 C 0.76051 0.19697 0.84043 0.0
C1165 C 0.72391 0.21079 0.84043 0.0
H1166 H 0.81507 0.22375 0.84101 0.0
C1167 C 0.71456 0.26432 0.84019 0.0
H1168 H 0.76867 0.15613 0.84073 0.0
C1169 C 0.74119 0.30313 0.8403 0.0
C1170 C 0.77778 0.28932 0.84076 0.0
H1171 H 0.68662 0.27635 0.8402 0.0
H1172 H 0.73302 0.34397 0.84047 0.0
C1173 C 0.78713 0.23578 0.84065 0.0
C1174 C 0.26027 0.69758 0.84045 0.0
C1175 C 0.22368 0.71142 0.84086 0.0
H1176 H 0.31485 0.7243 0.84043 0.0
C1177 C 0.21435 0.76496 0.84076 0.0
H1178 H 0.26842 0.65673 0.84062 0.0
C1179 C 0.241 0.80375 0.84059 0.0
C1180 C 0.27759 0.7899 0.84063 0.0
H1181 H 0.18642 0.77702 0.84109 0.0
H1182 H 0.23285 0.8446 0.84089 0.0
C1183 C 0.28692 0.73636 0.84038 0.0
C1184 C 0.34763 0.96788 0.28031 0.0
C1185 C 0.34903 0.02251 0.28492 0.0
H1186 H 0.34791 0.90487 0.24877 0.0
C1187 C 0.34861 0.05593 0.25999 0.0
H1188 H 0.34781 0.94093 0.29895 0.0
C1189 C 0.34814 0.03521 0.23116 0.0
C1190 C 0.34868 0.98055 0.22656 0.0
H1191 H 0.34942 0.0982 0.26271 0.0
H1192 H 0.34875 0.06214 0.21252 0.0
C1193 C 0.34776 0.94715 0.25149 0.0
C1194 C 0.65444 0.05267 0.25149 0.0
C1195 C 0.65286 0.01937 0.22655 0.0
H1196 H 0.65499 0.05878 0.29895 0.0
C1197 C 0.65282 0.96469 0.23109 0.0
H1198 H 0.65476 0.09496 0.24881 0.0
C1199 C 0.65244 0.9439 0.25991 0.0
C1200 C 0.65268 0.97726 0.28487 0.0
H1201 H 0.65169 0.93784 0.21242 0.0
H1202 H 0.65117 0.90165 0.26259 0.0
C1203 C 0.65465 0.03186 0.28029 0.0
C1204 C 0.65308 0.96522 0.78029 0.0
C1205 C 0.65278 0.01989 0.78486 0.0
H1206 H 0.65172 0.90219 0.74877 0.0
C1207 C 0.65405 0.05324 0.75993 0.0
H1208 H 0.65219 0.93833 0.79895 0.0
C1209 C 0.65429 0.03246 0.73112 0.0
C1210 C 0.65266 0.97785 0.72653 0.0
H1211 H 0.65411 0.09553 0.76262 0.0
H1212 H 0.65439 0.0594 0.71246 0.0
C1213 C 0.65272 0.94446 0.75147 0.0
C1214 C 0.34808 0.03502 0.78031 0.0
C1215 C 0.34872 0.98036 0.78492 0.0
H1216 H 0.34923 0.09801 0.74877 0.0
C1217 C 0.34783 0.94696 0.75999 0.0
H1218 H 0.34865 0.06196 0.79896 0.0
C1219 C 0.34766 0.96768 0.73117 0.0
C1220 C 0.34896 0.02231 0.72656 0.0
H1221 H 0.34805 0.90467 0.76271 0.0
H1222 H 0.34787 0.94072 0.71253 0.0
C1223 C 0.3485 0.05574 0.75149 0.0
C1224 C 0.84829 0.44503 0.25125 0.0
C1225 C 0.84882 0.47879 0.22648 0.0
H1226 H 0.84847 0.43817 0.29868 0.0
C1227 C 0.84772 0.53336 0.23131 0.0
H1228 H 0.84886 0.40279 0.24835 0.0
C1229 C 0.848 0.55371 0.26021 0.0
C1230 C 0.8488 0.51996 0.28498 0.0
H1231 H 0.84801 0.56057 0.21278 0.0
H1232 H 0.84836 0.59595 0.26311 0.0
C1233 C 0.84798 0.46537 0.28016 0.0
C1234 C 0.15393 0.53523 0.28014 0.0
C1235 C 0.15319 0.48064 0.28495 0.0
H1236 H 0.15287 0.59784 0.24836 0.0
C1237 C 0.15392 0.44691 0.26017 0.0
H1238 H 0.15349 0.56241 0.29868 0.0
C1239 C 0.15406 0.46728 0.23127 0.0
C1240 C 0.15289 0.52186 0.22646 0.0
H1241 H 0.15361 0.40467 0.26305 0.0
H1242 H 0.15373 0.4401 0.21273 0.0
C1243 C 0.15349 0.5556 0.25124 0.0
C1244 C 0.15396 0.46729 0.78017 0.0
C1245 C 0.1528 0.52187 0.78497 0.0
H1246 H 0.15349 0.40465 0.74839 0.0
C1247 C 0.15339 0.55559 0.76018 0.0
H1248 H 0.15364 0.44012 0.79871 0.0
C1249 C 0.15382 0.53521 0.73128 0.0
C1250 C 0.15307 0.48061 0.72648 0.0
H1251 H 0.15277 0.59784 0.76306 0.0
H1252 H 0.15337 0.56238 0.71274 0.0
C1253 C 0.1538 0.4469 0.75127 0.0
C1254 C 0.84797 0.55387 0.75123 0.0
C1255 C 0.84875 0.52015 0.72645 0.0
H1256 H 0.84799 0.56068 0.79867 0.0
C1257 C 0.84792 0.46556 0.73126 0.0
H1258 H 0.84834 0.59612 0.74835 0.0
C1259 C 0.84823 0.44519 0.76015 0.0
C1260 C 0.84879 0.47891 0.78494 0.0
H1261 H 0.84839 0.43838 0.71272 0.0
H1262 H 0.8488 0.40294 0.76304 0.0
C1263 C 0.84769 0.5335 0.78013 0.0
loop_
_geom_bond_atom_site_label_1
_geom_bond_atom_site_label_2
_geom_bond_distance
_geom_bond_site_symmetry_2
_ccdc_geom_bond_type
Co0 O2 2.143 1_565 S
Co0 O8 2.074 . S
Co0 O11 2.093 . S
Co0 O24 2.101 . S
Co0 N41 2.151 . S
Co0 N49 2.214 . S
Co1 O2 2.160 . S
Co1 O7 2.058 . S
Co1 O17 2.057 . S
Co1 O32 2.037 . S
Co1 N36 2.145 . S
Co1 N57 2.257 . S
O2 Co0 2.143 1_545 S
O2 Co1 2.160 . S
C3 O4 1.278 . S
C3 O11 1.224 1_545 S
O4 C3 1.278 . S
C5 O6 1.245 . S
C5 O17 1.232 . S
O6 C5 1.245 . S
O7 Co1 2.058 . S
O7 C33 1.269 . S
O8 Co0 2.074 . S
O8 C33 1.257 1_565 S
H9 C34 0.930 . S
H10 C40 0.930 . S
O11 Co0 2.093 . S
O11 C3 1.224 1_565 S
H12 C44 0.929 . S
H13 C46 0.930 . S
H14 C47 0.930 . S
H15 C45 0.929 . S
H16 C48 0.928 . S
O17 Co1 2.057 . S
O17 C5 1.232 . S
H18 C37 0.929 . S
H19 C38 0.929 . S
H20 C50 0.931 . S
H21 C42 0.929 . S
H22 C51 0.930 . S
H23 C43 0.931 . S
O24 Co0 2.101 . S
O24 C52 1.205 1_565 S
H25 C53 0.929 . S
H26 C54 0.929 . S
H27 C55 0.930 . S
H28 C56 0.929 . S
H29 C58 0.930 . S
H30 C35 0.930 . S
H31 C39 0.930 . S
O32 Co1 2.037 . S
O32 C52 1.234 . S
C33 O7 1.269 . S
C33 O8 1.257 1_545 S
C34 H9 0.930 . S
C34 C37 1.388 . S
C34 C39 1.418 . S
C35 H30 0.930 . S
C35 C38 1.404 . S
C35 C39 1.353 . S
N36 Co1 2.145 . S
N36 C37 1.397 . S
N36 C38 1.334 . S
C37 H18 0.929 . S
C37 C34 1.388 . S
C37 N36 1.397 . S
C38 H19 0.929 . S
C38 C35 1.404 . S
C38 N36 1.334 . S
C39 H31 0.930 . S
C39 C34 1.418 . S
C39 C35 1.353 . S
C40 H10 0.930 . S
C40 N41 1.330 . S
C40 C42 1.446 . S
N41 Co0 2.151 . S
N41 C40 1.330 . S
N41 C45 1.418 . S
C42 H21 0.929 . S
C42 C40 1.446 . S
C42 C43 1.332 . S
C43 H23 0.931 . S
C43 C42 1.332 . S
C43 C44 1.267 . S
C44 H12 0.929 . S
C44 C43 1.267 . S
C44 C45 1.251 . S
C45 H15 0.929 . S
C45 N41 1.418 . S
C45 C44 1.251 . S
C46 H13 0.930 . S
C46 C48 1.406 . S
C46 C51 1.261 . S
C47 H14 0.930 . S
C47 N49 1.325 . S
C47 C50 1.357 . S
C48 H16 0.928 . S
C48 C46 1.406 . S
C48 N49 1.261 . S
N49 Co0 2.214 . S
N49 C47 1.325 . S
N49 C48 1.261 . S
C50 H20 0.931 . S
C50 C47 1.357 . S
C50 C51 1.312 . S
C51 H22 0.930 . S
C51 C46 1.261 . S
C51 C50 1.312 . S
C52 O24 1.205 1_545 S
C52 O32 1.234 . S
C53 H25 0.929 . S
C53 C56 1.391 . S
C53 C58 1.391 . S
C54 H26 0.929 . S
C54 C55 1.390 . S
C54 N57 1.391 . S
C55 H27 0.930 . S
C55 C54 1.390 . S
C55 C56 1.392 . S
C56 H28 0.929 . S
C56 C53 1.391 . S
C56 C55 1.392 . S
N57 Co1 2.257 . S
N57 C54 1.391 . S
N57 C58 1.388 . S
C58 H29 0.930 . S
C58 C53 1.391 . S
C58 N57 1.388 . S
Co59 O61 2.143 1_545 S
Co59 O67 2.074 . S
Co59 O70 2.093 . S
Co59 O83 2.101 . S
Co59 N100 2.151 . S
Co59 N108 2.214 . S
Co60 O61 2.160 . S
Co60 O66 2.058 . S
Co60 O76 2.057 . S
Co60 O91 2.037 . S
Co60 N95 2.145 . S
Co60 N116 2.257 . S
O61 Co59 2.143 1_565 S
O61 Co60 2.160 . S
C62 O63 1.278 . S
C62 O70 1.224 1_565 S
O63 C62 1.278 . S
C64 O65 1.245 . S
C64 O76 1.232 . S
O65 C64 1.245 . S
O66 Co60 2.058 . S
O66 C92 1.269 . S
O67 Co59 2.074 . S
O67 C92 1.257 1_545 S
H68 C93 0.930 . S
H69 C99 0.930 . S
O70 Co59 2.093 . S
O70 C62 1.224 1_545 S
H71 C103 0.929 . S
H72 C105 0.930 . S
H73 C106 0.930 . S
H74 C104 0.929 . S
H75 C107 0.928 . S
O76 Co60 2.057 . S
O76 C64 1.232 . S
H77 C96 0.929 . S
H78 C97 0.929 . S
H79 C109 0.931 . S
H80 C101 0.929 . S
H81 C110 0.930 . S
H82 C102 0.931 . S
O83 Co59 2.101 . S
O83 C111 1.205 1_545 S
H84 C112 0.929 . S
H85 C113 0.929 . S
H86 C114 0.930 . S
H87 C115 0.929 . S
H88 C117 0.930 . S
H89 C94 0.930 . S
H90 C98 0.930 . S
O91 Co60 2.037 . S
O91 C111 1.234 . S
C92 O66 1.269 . S
C92 O67 1.257 1_565 S
C93 H68 0.930 . S
C93 C96 1.388 . S
C93 C98 1.418 . S
C94 H89 0.930 . S
C94 C97 1.404 . S
C94 C98 1.353 . S
N95 Co60 2.145 . S
N95 C96 1.397 . S
N95 C97 1.334 . S
C96 H77 0.929 . S
C96 C93 1.388 . S
C96 N95 1.397 . S
C97 H78 0.929 . S
C97 C94 1.404 . S
C97 N95 1.334 . S
C98 H90 0.930 . S
C98 C93 1.418 . S
C98 C94 1.353 . S
C99 H69 0.930 . S
C99 N100 1.330 . S
C99 C101 1.446 . S
N100 Co59 2.151 . S
N100 C99 1.330 . S
N100 C104 1.418 . S
C101 H80 0.929 . S
C101 C99 1.446 . S
C101 C102 1.332 . S
C102 H82 0.931 . S
C102 C101 1.332 . S
C102 C103 1.267 . S
C103 H71 0.929 . S
C103 C102 1.267 . S
C103 C104 1.251 . S
C104 H74 0.929 . S
C104 N100 1.418 . S
C104 C103 1.251 . S
C105 H72 0.930 . S
C105 C107 1.406 . S
C105 C110 1.261 . S
C106 H73 0.930 . S
C106 N108 1.325 . S
C106 C109 1.357 . S
C107 H75 0.928 . S
C107 C105 1.406 . S
C107 N108 1.261 . S
N108 Co59 2.214 . S
N108 C106 1.325 . S
N108 C107 1.261 . S
C109 H79 0.931 . S
C109 C106 1.357 . S
C109 C110 1.312 . S
C110 H81 0.930 . S
C110 C105 1.261 . S
C110 C109 1.312 . S
C111 O83 1.205 1_565 S
C111 O91 1.234 . S
C112 H84 0.929 . S
C112 C115 1.391 . S
C112 C117 1.391 . S
C113 H85 0.929 . S
C113 C114 1.390 . S
C113 N116 1.391 . S
C114 H86 0.930 . S
C114 C113 1.390 . S
C114 C115 1.392 . S
C115 H87 0.929 . S
C115 C112 1.391 . S
C115 C114 1.392 . S
N116 Co60 2.257 . S
N116 C113 1.391 . S
N116 C117 1.388 . S
C117 H88 0.930 . S
C117 C112 1.391 . S
C117 N116 1.388 . S
Co118 O120 2.143 1_545 S
Co118 O126 2.074 . S
Co118 O129 2.093 . S
Co118 O142 2.101 . S
Co118 N159 2.151 . S
Co118 N167 2.214 . S
Co119 O120 2.160 . S
Co119 O125 2.058 . S
Co119 O135 2.057 . S
Co119 O150 2.037 . S
Co119 N154 2.145 . S
Co119 N175 2.257 . S
O120 Co118 2.143 1_565 S
O120 Co119 2.160 . S
C121 O122 1.278 . S
C121 O129 1.224 1_565 S
O122 C121 1.278 . S
C123 O124 1.245 . S
C123 O135 1.232 . S
O124 C123 1.245 . S
O125 Co119 2.058 . S
O125 C151 1.269 . S
O126 Co118 2.074 . S
O126 C151 1.257 1_545 S
H127 C152 0.930 . S
H128 C158 0.930 . S
O129 Co118 2.093 . S
O129 C121 1.224 1_545 S
H130 C162 0.929 . S
H131 C164 0.930 . S
H132 C165 0.930 . S
H133 C163 0.929 . S
H134 C166 0.928 . S
O135 Co119 2.057 . S
O135 C123 1.232 . S
H136 C155 0.929 . S
H137 C156 0.929 . S
H138 C168 0.931 . S
H139 C160 0.929 . S
H140 C169 0.930 . S
H141 C161 0.931 . S
O142 Co118 2.101 . S
O142 C170 1.205 1_545 S
H143 C171 0.929 . S
H144 C172 0.929 . S
H145 C173 0.930 . S
H146 C174 0.929 . S
H147 C176 0.930 . S
H148 C153 0.930 . S
H149 C157 0.930 . S
O150 Co119 2.037 . S
O150 C170 1.234 . S
C151 O125 1.269 . S
C151 O126 1.257 1_565 S
C152 H127 0.930 . S
C152 C155 1.388 . S
C152 C157 1.418 . S
C153 H148 0.930 . S
C153 C156 1.404 . S
C153 C157 1.353 . S
N154 Co119 2.145 . S
N154 C155 1.397 . S
N154 C156 1.334 . S
C155 H136 0.929 . S
C155 C152 1.388 . S
C155 N154 1.397 . S
C156 H137 0.929 . S
C156 C153 1.404 . S
C156 N154 1.334 . S
C157 H149 0.930 . S
C157 C152 1.418 . S
C157 C153 1.353 . S
C158 H128 0.930 . S
C158 N159 1.330 . S
C158 C160 1.446 . S
N159 Co118 2.151 . S
N159 C158 1.330 . S
N159 C163 1.418 . S
C160 H139 0.929 . S
C160 C158 1.446 . S
C160 C161 1.332 . S
C161 H141 0.931 . S
C161 C160 1.332 . S
C161 C162 1.267 . S
C162 H130 0.929 . S
C162 C161 1.267 . S
C162 C163 1.251 . S
C163 H133 0.929 . S
C163 N159 1.418 . S
C163 C162 1.251 . S
C164 H131 0.930 . S
C164 C166 1.406 . S
C164 C169 1.261 . S
C165 H132 0.930 . S
C165 N167 1.325 . S
C165 C168 1.357 . S
C166 H134 0.928 . S
C166 C164 1.406 . S
C166 N167 1.261 . S
N167 Co118 2.214 . S
N167 C165 1.325 . S
N167 C166 1.261 . S
C168 H138 0.931 . S
C168 C165 1.357 . S
C168 C169 1.312 . S
C169 H140 0.930 . S
C169 C164 1.261 . S
C169 C168 1.312 . S
C170 O142 1.205 1_565 S
C170 O150 1.234 . S
C171 H143 0.929 . S
C171 C174 1.391 . S
C171 C176 1.391 . S
C172 H144 0.929 . S
C172 C173 1.390 . S
C172 N175 1.391 . S
C173 H145 0.930 . S
C173 C172 1.390 . S
C173 C174 1.392 . S
C174 H146 0.929 . S
C174 C171 1.391 . S
C174 C173 1.392 . S
N175 Co119 2.257 . S
N175 C172 1.391 . S
N175 C176 1.388 . S
C176 H147 0.930 . S
C176 C171 1.391 . S
C176 N175 1.388 . S
Co177 O179 2.143 1_565 S
Co177 O185 2.074 . S
Co177 O188 2.093 . S
Co177 O201 2.101 . S
Co177 N218 2.151 . S
Co177 N226 2.214 . S
Co178 O179 2.160 . S
Co178 O184 2.058 . S
Co178 O194 2.057 . S
Co178 O209 2.037 . S
Co178 N213 2.145 . S
Co178 N234 2.257 . S
O179 Co177 2.143 1_545 S
O179 Co178 2.160 . S
C180 O181 1.278 . S
C180 O188 1.224 1_545 S
O181 C180 1.278 . S
C182 O183 1.245 . S
C182 O194 1.232 . S
O183 C182 1.245 . S
O184 Co178 2.058 . S
O184 C210 1.269 . S
O185 Co177 2.074 . S
O185 C210 1.257 1_565 S
H186 C211 0.930 . S
H187 C217 0.930 . S
O188 Co177 2.093 . S
O188 C180 1.224 1_565 S
H189 C221 0.929 . S
H190 C223 0.930 . S
H191 C224 0.930 . S
H192 C222 0.929 . S
H193 C225 0.928 . S
O194 Co178 2.057 . S
O194 C182 1.232 . S
H195 C214 0.929 . S
H196 C215 0.929 . S
H197 C227 0.931 . S
H198 C219 0.929 . S
H199 C228 0.930 . S
H200 C220 0.931 . S
O201 Co177 2.101 . S
O201 C229 1.205 1_565 S
H202 C230 0.929 . S
H203 C231 0.929 . S
H204 C232 0.930 . S
H205 C233 0.929 . S
H206 C235 0.930 . S
H207 C212 0.930 . S
H208 C216 0.930 . S
O209 Co178 2.037 . S
O209 C229 1.234 . S
C210 O184 1.269 . S
C210 O185 1.257 1_545 S
C211 H186 0.930 . S
C211 C214 1.388 . S
C211 C216 1.418 . S
C212 H207 0.930 . S
C212 C215 1.404 . S
C212 C216 1.353 . S
N213 Co178 2.145 . S
N213 C214 1.397 . S
N213 C215 1.334 . S
C214 H195 0.929 . S
C214 C211 1.388 . S
C214 N213 1.397 . S
C215 H196 0.929 . S
C215 C212 1.404 . S
C215 N213 1.334 . S
C216 H208 0.930 . S
C216 C211 1.418 . S
C216 C212 1.353 . S
C217 H187 0.930 . S
C217 N218 1.330 . S
C217 C219 1.446 . S
N218 Co177 2.151 . S
N218 C217 1.330 . S
N218 C222 1.418 . S
C219 H198 0.929 . S
C219 C217 1.446 . S
C219 C220 1.332 . S
C220 H200 0.931 . S
C220 C219 1.332 . S
C220 C221 1.267 . S
C221 H189 0.929 . S
C221 C220 1.267 . S
C221 C222 1.251 . S
C222 H192 0.929 . S
C222 N218 1.418 . S
C222 C221 1.251 . S
C223 H190 0.930 . S
C223 C225 1.406 . S
C223 C228 1.261 . S
C224 H191 0.930 . S
C224 N226 1.325 . S
C224 C227 1.357 . S
C225 H193 0.928 . S
C225 C223 1.406 . S
C225 N226 1.261 . S
N226 Co177 2.214 . S
N226 C224 1.325 . S
N226 C225 1.261 . S
C227 H197 0.931 . S
C227 C224 1.357 . S
C227 C228 1.312 . S
C228 H199 0.930 . S
C228 C223 1.261 . S
C228 C227 1.312 . S
C229 O201 1.205 1_545 S
C229 O209 1.234 . S
C230 H202 0.929 . S
C230 C233 1.391 . S
C230 C235 1.391 . S
C231 H203 0.929 . S
C231 C232 1.390 . S
C231 N234 1.391 . S
C232 H204 0.930 . S
C232 C231 1.390 . S
C232 C233 1.392 . S
C233 H205 0.929 . S
C233 C230 1.391 . S
C233 C232 1.392 . S
N234 Co178 2.257 . S
N234 C231 1.391 . S
N234 C235 1.388 . S
C235 H206 0.930 . S
C235 C230 1.391 . S
C235 N234 1.388 . S
Co236 O238 2.143 1_545 S
Co236 O244 2.074 . S
Co236 O247 2.093 . S
Co236 O260 2.101 . S
Co236 N277 2.151 . S
Co236 N285 2.214 . S
Co237 O238 2.160 . S
Co237 O243 2.058 . S
Co237 O253 2.057 . S
Co237 O268 2.037 . S
Co237 N272 2.145 . S
Co237 N293 2.257 . S
O238 Co236 2.143 1_565 S
O238 Co237 2.160 . S
C239 O240 1.278 . S
C239 O247 1.224 1_565 S
O240 C239 1.278 . S
C241 O242 1.245 . S
C241 O253 1.232 . S
O242 C241 1.245 . S
O243 Co237 2.058 . S
O243 C269 1.269 . S
O244 Co236 2.074 . S
O244 C269 1.257 1_545 S
H245 C270 0.930 . S
H246 C276 0.930 . S
O247 Co236 2.093 . S
O247 C239 1.224 1_545 S
H248 C280 0.929 . S
H249 C282 0.930 . S
H250 C283 0.930 . S
H251 C281 0.929 . S
H252 C284 0.928 . S
O253 Co237 2.057 . S
O253 C241 1.232 . S
H254 C273 0.929 . S
H255 C274 0.929 . S
H256 C286 0.931 . S
H257 C278 0.929 . S
H258 C287 0.930 . S
H259 C279 0.931 . S
O260 Co236 2.101 . S
O260 C288 1.205 1_545 S
H261 C289 0.929 . S
H262 C290 0.929 . S
H263 C291 0.930 . S
H264 C292 0.929 . S
H265 C294 0.930 . S
H266 C271 0.930 . S
H267 C275 0.930 . S
O268 Co237 2.037 . S
O268 C288 1.234 . S
C269 O243 1.269 . S
C269 O244 1.257 1_565 S
C270 H245 0.930 . S
C270 C273 1.388 . S
C270 C275 1.418 . S
C271 H266 0.930 . S
C271 C274 1.404 . S
C271 C275 1.353 . S
N272 Co237 2.145 . S
N272 C273 1.397 . S
N272 C274 1.334 . S
C273 H254 0.929 . S
C273 C270 1.388 . S
C273 N272 1.397 . S
C274 H255 0.929 . S
C274 C271 1.404 . S
C274 N272 1.334 . S
C275 H267 0.930 . S
C275 C270 1.418 . S
C275 C271 1.353 . S
C276 H246 0.930 . S
C276 N277 1.330 . S
C276 C278 1.446 . S
N277 Co236 2.151 . S
N277 C276 1.330 . S
N277 C281 1.418 . S
C278 H257 0.929 . S
C278 C276 1.446 . S
C278 C279 1.332 . S
C279 H259 0.931 . S
C279 C278 1.332 . S
C279 C280 1.267 . S
C280 H248 0.929 . S
C280 C279 1.267 . S
C280 C281 1.251 . S
C281 H251 0.929 . S
C281 N277 1.418 . S
C281 C280 1.251 . S
C282 H249 0.930 . S
C282 C284 1.406 . S
C282 C287 1.261 . S
C283 H250 0.930 . S
C283 N285 1.325 . S
C283 C286 1.357 . S
C284 H252 0.928 . S
C284 C282 1.406 . S
C284 N285 1.261 . S
N285 Co236 2.214 . S
N285 C283 1.325 . S
N285 C284 1.261 . S
C286 H256 0.931 . S
C286 C283 1.357 . S
C286 C287 1.312 . S
C287 H258 0.930 . S
C287 C282 1.261 . S
C287 C286 1.312 . S
C288 O260 1.205 1_565 S
C288 O268 1.234 . S
C289 H261 0.929 . S
C289 C292 1.391 . S
C289 C294 1.391 . S
C290 H262 0.929 . S
C290 C291 1.390 . S
C290 N293 1.391 . S
C291 H263 0.930 . S
C291 C290 1.390 . S
C291 C292 1.392 . S
C292 H264 0.929 . S
C292 C289 1.391 . S
C292 C291 1.392 . S
N293 Co237 2.257 . S
N293 C290 1.391 . S
N293 C294 1.388 . S
C294 H265 0.930 . S
C294 C289 1.391 . S
C294 N293 1.388 . S
Co295 O297 2.143 1_565 S
Co295 O303 2.074 . S
Co295 O306 2.093 . S
Co295 O319 2.101 . S
Co295 N336 2.151 . S
Co295 N344 2.214 . S
Co296 O297 2.160 . S
Co296 O302 2.058 . S
Co296 O312 2.057 . S
Co296 O327 2.037 . S
Co296 N331 2.145 . S
Co296 N352 2.257 . S
O297 Co295 2.143 1_545 S
O297 Co296 2.160 . S
C298 O299 1.278 . S
C298 O306 1.224 1_545 S
O299 C298 1.278 . S
C300 O301 1.245 . S
C300 O312 1.232 . S
O301 C300 1.245 . S
O302 Co296 2.058 . S
O302 C328 1.269 . S
O303 Co295 2.074 . S
O303 C328 1.257 1_565 S
H304 C329 0.930 . S
H305 C335 0.930 . S
O306 Co295 2.093 . S
O306 C298 1.224 1_565 S
H307 C339 0.929 . S
H308 C341 0.930 . S
H309 C342 0.930 . S
H310 C340 0.929 . S
H311 C343 0.928 . S
O312 Co296 2.057 . S
O312 C300 1.232 . S
H313 C332 0.929 . S
H314 C333 0.929 . S
H315 C345 0.931 . S
H316 C337 0.929 . S
H317 C346 0.930 . S
H318 C338 0.931 . S
O319 Co295 2.101 . S
O319 C347 1.205 1_565 S
H320 C348 0.929 . S
H321 C349 0.929 . S
H322 C350 0.930 . S
H323 C351 0.929 . S
H324 C353 0.930 . S
H325 C330 0.930 . S
H326 C334 0.930 . S
O327 Co296 2.037 . S
O327 C347 1.234 . S
C328 O302 1.269 . S
C328 O303 1.257 1_545 S
C329 H304 0.930 . S
C329 C332 1.388 . S
C329 C334 1.418 . S
C330 H325 0.930 . S
C330 C333 1.404 . S
C330 C334 1.353 . S
N331 Co296 2.145 . S
N331 C332 1.397 . S
N331 C333 1.334 . S
C332 H313 0.929 . S
C332 C329 1.388 . S
C332 N331 1.397 . S
C333 H314 0.929 . S
C333 C330 1.404 . S
C333 N331 1.334 . S
C334 H326 0.930 . S
C334 C329 1.418 . S
C334 C330 1.353 . S
C335 H305 0.930 . S
C335 N336 1.330 . S
C335 C337 1.446 . S
N336 Co295 2.151 . S
N336 C335 1.330 . S
N336 C340 1.418 . S
C337 H316 0.929 . S
C337 C335 1.446 . S
C337 C338 1.332 . S
C338 H318 0.931 . S
C338 C337 1.332 . S
C338 C339 1.267 . S
C339 H307 0.929 . S
C339 C338 1.267 . S
C339 C340 1.251 . S
C340 H310 0.929 . S
C340 N336 1.418 . S
C340 C339 1.251 . S
C341 H308 0.930 . S
C341 C343 1.406 . S
C341 C346 1.261 . S
C342 H309 0.930 . S
C342 N344 1.325 . S
C342 C345 1.357 . S
C343 H311 0.928 . S
C343 C341 1.406 . S
C343 N344 1.261 . S
N344 Co295 2.214 . S
N344 C342 1.325 . S
N344 C343 1.261 . S
C345 H315 0.931 . S
C345 C342 1.357 . S
C345 C346 1.312 . S
C346 H317 0.930 . S
C346 C341 1.261 . S
C346 C345 1.312 . S
C347 O319 1.205 1_545 S
C347 O327 1.234 . S
C348 H320 0.929 . S
C348 C351 1.391 . S
C348 C353 1.391 . S
C349 H321 0.929 . S
C349 C350 1.390 . S
C349 N352 1.391 . S
C350 H322 0.930 . S
C350 C349 1.390 . S
C350 C351 1.392 . S
C351 H323 0.929 . S
C351 C348 1.391 . S
C351 C350 1.392 . S
N352 Co296 2.257 . S
N352 C349 1.391 . S
N352 C353 1.388 . S
C353 H324 0.930 . S
C353 C348 1.391 . S
C353 N352 1.388 . S
Co354 O356 2.143 1_565 S
Co354 O362 2.074 . S
Co354 O365 2.093 . S
Co354 O378 2.101 . S
Co354 N395 2.151 . S
Co354 N403 2.214 . S
Co355 O356 2.160 . S
Co355 O361 2.058 . S
Co355 O371 2.057 . S
Co355 O386 2.037 . S
Co355 N390 2.145 . S
Co355 N411 2.257 . S
O356 Co354 2.143 1_545 S
O356 Co355 2.160 . S
C357 O358 1.278 . S
C357 O365 1.224 1_545 S
O358 C357 1.278 . S
C359 O360 1.245 . S
C359 O371 1.232 . S
O360 C359 1.245 . S
O361 Co355 2.058 . S
O361 C387 1.269 . S
O362 Co354 2.074 . S
O362 C387 1.257 1_565 S
H363 C388 0.930 . S
H364 C394 0.930 . S
O365 Co354 2.093 . S
O365 C357 1.224 1_565 S
H366 C398 0.929 . S
H367 C400 0.930 . S
H368 C401 0.930 . S
H369 C399 0.929 . S
H370 C402 0.928 . S
O371 Co355 2.057 . S
O371 C359 1.232 . S
H372 C391 0.929 . S
H373 C392 0.929 . S
H374 C404 0.931 . S
H375 C396 0.929 . S
H376 C405 0.930 . S
H377 C397 0.931 . S
O378 Co354 2.101 . S
O378 C406 1.205 1_565 S
H379 C407 0.929 . S
H380 C408 0.929 . S
H381 C409 0.930 . S
H382 C410 0.929 . S
H383 C412 0.930 . S
H384 C389 0.930 . S
H385 C393 0.930 . S
O386 Co355 2.037 . S
O386 C406 1.234 . S
C387 O361 1.269 . S
C387 O362 1.257 1_545 S
C388 H363 0.930 . S
C388 C391 1.388 . S
C388 C393 1.418 . S
C389 H384 0.930 . S
C389 C392 1.404 . S
C389 C393 1.353 . S
N390 Co355 2.145 . S
N390 C391 1.397 . S
N390 C392 1.334 . S
C391 H372 0.929 . S
C391 C388 1.388 . S
C391 N390 1.397 . S
C392 H373 0.929 . S
C392 C389 1.404 . S
C392 N390 1.334 . S
C393 H385 0.930 . S
C393 C388 1.418 . S
C393 C389 1.353 . S
C394 H364 0.930 . S
C394 N395 1.330 . S
C394 C396 1.446 . S
N395 Co354 2.151 . S
N395 C394 1.330 . S
N395 C399 1.418 . S
C396 H375 0.929 . S
C396 C394 1.446 . S
C396 C397 1.332 . S
C397 H377 0.931 . S
C397 C396 1.332 . S
C397 C398 1.267 . S
C398 H366 0.929 . S
C398 C397 1.267 . S
C398 C399 1.251 . S
C399 H369 0.929 . S
C399 N395 1.418 . S
C399 C398 1.251 . S
C400 H367 0.930 . S
C400 C402 1.406 . S
C400 C405 1.261 . S
C401 H368 0.930 . S
C401 N403 1.325 . S
C401 C404 1.357 . S
C402 H370 0.928 . S
C402 C400 1.406 . S
C402 N403 1.261 . S
N403 Co354 2.214 . S
N403 C401 1.325 . S
N403 C402 1.261 . S
C404 H374 0.931 . S
C404 C401 1.357 . S
C404 C405 1.312 . S
C405 H376 0.930 . S
C405 C400 1.261 . S
C405 C404 1.312 . S
C406 O378 1.205 1_545 S
C406 O386 1.234 . S
C407 H379 0.929 . S
C407 C410 1.391 . S
C407 C412 1.391 . S
C408 H380 0.929 . S
C408 C409 1.390 . S
C408 N411 1.391 . S
C409 H381 0.930 . S
C409 C408 1.390 . S
C409 C410 1.392 . S
C410 H382 0.929 . S
C410 C407 1.391 . S
C410 C409 1.392 . S
N411 Co355 2.257 . S
N411 C408 1.391 . S
N411 C412 1.388 . S
C412 H383 0.930 . S
C412 C407 1.391 . S
C412 N411 1.388 . S
Co413 O415 2.143 1_545 S
Co413 O421 2.074 . S
Co413 O424 2.093 . S
Co413 O437 2.101 . S
Co413 N454 2.151 . S
Co413 N462 2.214 . S
Co414 O415 2.160 . S
Co414 O420 2.058 . S
Co414 O430 2.057 . S
Co414 O445 2.037 . S
Co414 N449 2.145 . S
Co414 N470 2.257 . S
O415 Co413 2.143 1_565 S
O415 Co414 2.160 . S
C416 O417 1.278 . S
C416 O424 1.224 1_565 S
O417 C416 1.278 . S
C418 O419 1.245 . S
C418 O430 1.232 . S
O419 C418 1.245 . S
O420 Co414 2.058 . S
O420 C446 1.269 . S
O421 Co413 2.074 . S
O421 C446 1.257 1_545 S
H422 C447 0.930 . S
H423 C453 0.930 . S
O424 Co413 2.093 . S
O424 C416 1.224 1_545 S
H425 C457 0.929 . S
H426 C459 0.930 . S
H427 C460 0.930 . S
H428 C458 0.929 . S
H429 C461 0.928 . S
O430 Co414 2.057 . S
O430 C418 1.232 . S
H431 C450 0.929 . S
H432 C451 0.929 . S
H433 C463 0.931 . S
H434 C455 0.929 . S
H435 C464 0.930 . S
H436 C456 0.931 . S
O437 Co413 2.101 . S
O437 C465 1.205 1_545 S
H438 C466 0.929 . S
H439 C467 0.929 . S
H440 C468 0.930 . S
H441 C469 0.929 . S
H442 C471 0.930 . S
H443 C448 0.930 . S
H444 C452 0.930 . S
O445 Co414 2.037 . S
O445 C465 1.234 . S
C446 O420 1.269 . S
C446 O421 1.257 1_565 S
C447 H422 0.930 . S
C447 C450 1.388 . S
C447 C452 1.418 . S
C448 H443 0.930 . S
C448 C451 1.404 . S
C448 C452 1.353 . S
N449 Co414 2.145 . S
N449 C450 1.397 . S
N449 C451 1.334 . S
C450 H431 0.929 . S
C450 C447 1.388 . S
C450 N449 1.397 . S
C451 H432 0.929 . S
C451 C448 1.404 . S
C451 N449 1.334 . S
C452 H444 0.930 . S
C452 C447 1.418 . S
C452 C448 1.353 . S
C453 H423 0.930 . S
C453 N454 1.330 . S
C453 C455 1.446 . S
N454 Co413 2.151 . S
N454 C453 1.330 . S
N454 C458 1.418 . S
C455 H434 0.929 . S
C455 C453 1.446 . S
C455 C456 1.332 . S
C456 H436 0.931 . S
C456 C455 1.332 . S
C456 C457 1.267 . S
C457 H425 0.929 . S
C457 C456 1.267 . S
C457 C458 1.251 . S
C458 H428 0.929 . S
C458 N454 1.418 . S
C458 C457 1.251 . S
C459 H426 0.930 . S
C459 C461 1.406 . S
C459 C464 1.261 . S
C460 H427 0.930 . S
C460 N462 1.325 . S
C460 C463 1.357 . S
C461 H429 0.928 . S
C461 C459 1.406 . S
C461 N462 1.261 . S
N462 Co413 2.214 . S
N462 C460 1.325 . S
N462 C461 1.261 . S
C463 H433 0.931 . S
C463 C460 1.357 . S
C463 C464 1.312 . S
C464 H435 0.930 . S
C464 C459 1.261 . S
C464 C463 1.312 . S
C465 O437 1.205 1_565 S
C465 O445 1.234 . S
C466 H438 0.929 . S
C466 C469 1.391 . S
C466 C471 1.391 . S
C467 H439 0.929 . S
C467 C468 1.390 . S
C467 N470 1.391 . S
C468 H440 0.930 . S
C468 C467 1.390 . S
C468 C469 1.392 . S
C469 H441 0.929 . S
C469 C466 1.391 . S
C469 C468 1.392 . S
N470 Co414 2.257 . S
N470 C467 1.391 . S
N470 C471 1.388 . S
C471 H442 0.930 . S
C471 C466 1.391 . S
C471 N470 1.388 . S
Co472 O474 2.143 . S
Co472 O480 2.074 . S
Co472 O483 2.093 . S
Co472 O496 2.097 . S
Co472 N513 2.151 . S
Co472 N521 2.214 . S
Co473 O474 2.160 . S
Co473 O479 2.058 . S
Co473 O489 2.057 . S
Co473 O504 2.037 . S
Co473 N508 2.145 . S
Co473 N529 2.257 . S
O474 Co472 2.143 . S
O474 Co473 2.160 . S
C475 O476 1.278 . S
C475 O483 1.224 . S
O476 C475 1.278 . S
C477 O478 1.245 . S
C477 O489 1.232 . S
O478 C477 1.245 . S
O479 Co473 2.058 . S
O479 C505 1.269 . S
O480 Co472 2.074 . S
O480 C505 1.257 . S
H481 C506 0.930 . S
H482 C512 0.930 . S
O483 Co472 2.093 . S
O483 C475 1.224 . S
H484 C516 0.929 . S
H485 C518 0.930 . S
H486 C519 0.930 . S
H487 C517 0.929 . S
H488 C520 0.928 . S
O489 Co473 2.057 . S
O489 C477 1.232 . S
H490 C509 0.929 . S
H491 C510 0.929 . S
H492 C522 0.931 . S
H493 C514 0.929 . S
H494 C523 0.930 . S
H495 C515 0.931 . S
O496 Co472 2.097 . S
O496 C524 1.214 . S
H497 C525 0.929 . S
H498 C526 0.929 . S
H499 C527 0.930 . S
H500 C528 0.929 . S
H501 C530 0.930 . S
H502 C507 0.930 . S
H503 C511 0.930 . S
O504 Co473 2.037 . S
O504 C524 1.234 . S
C505 O479 1.269 . S
C505 O480 1.257 . S
C506 H481 0.930 . S
C506 C509 1.388 . S
C506 C511 1.418 . S
C507 H502 0.930 . S
C507 C510 1.404 . S
C507 C511 1.353 . S
N508 Co473 2.145 . S
N508 C509 1.397 . S
N508 C510 1.334 . S
C509 H490 0.929 . S
C509 C506 1.388 . S
C509 N508 1.397 . S
C510 H491 0.929 . S
C510 C507 1.404 . S
C510 N508 1.334 . S
C511 H503 0.930 . S
C511 C506 1.418 . S
C511 C507 1.353 . S
C512 H482 0.930 . S
C512 N513 1.330 . S
C512 C514 1.446 . S
N513 Co472 2.151 . S
N513 C512 1.330 . S
N513 C517 1.418 . S
C514 H493 0.929 . S
C514 C512 1.446 . S
C514 C515 1.332 . S
C515 H495 0.931 . S
C515 C514 1.332 . S
C515 C516 1.267 . S
C516 H484 0.929 . S
C516 C515 1.267 . S
C516 C517 1.251 . S
C517 H487 0.929 . S
C517 N513 1.418 . S
C517 C516 1.251 . S
C518 H485 0.930 . S
C518 C520 1.406 . S
C518 C523 1.261 . S
C519 H486 0.930 . S
C519 N521 1.325 . S
C519 C522 1.357 . S
C520 H488 0.928 . S
C520 C518 1.406 . S
C520 N521 1.261 . S
N521 Co472 2.214 . S
N521 C519 1.325 . S
N521 C520 1.261 . S
C522 H492 0.931 . S
C522 C519 1.357 . S
C522 C523 1.312 . S
C523 H494 0.930 . S
C523 C518 1.261 . S
C523 C522 1.312 . S
C524 O496 1.214 . S
C524 O504 1.234 . S
C525 H497 0.929 . S
C525 C528 1.391 . S
C525 C530 1.391 . S
C526 H498 0.929 . S
C526 C527 1.390 . S
C526 N529 1.391 . S
C527 H499 0.930 . S
C527 C526 1.390 . S
C527 C528 1.392 . S
C528 H500 0.929 . S
C528 C525 1.391 . S
C528 C527 1.392 . S
N529 Co473 2.257 . S
N529 C526 1.391 . S
N529 C530 1.388 . S
C530 H501 0.930 . S
C530 C525 1.391 . S
C530 N529 1.388 . S
Co531 O533 2.143 . S
Co531 O539 2.074 . S
Co531 O542 2.093 . S
Co531 O555 2.097 . S
Co531 N572 2.151 . S
Co531 N580 2.214 . S
Co532 O533 2.160 . S
Co532 O538 2.058 . S
Co532 O548 2.057 . S
Co532 O563 2.037 . S
Co532 N567 2.145 . S
Co532 N588 2.257 . S
O533 Co531 2.143 . S
O533 Co532 2.160 . S
C534 O535 1.278 . S
C534 O542 1.224 . S
O535 C534 1.278 . S
C536 O537 1.245 . S
C536 O548 1.232 . S
O537 C536 1.245 . S
O538 Co532 2.058 . S
O538 C564 1.269 . S
O539 Co531 2.074 . S
O539 C564 1.257 . S
H540 C565 0.930 . S
H541 C571 0.930 . S
O542 Co531 2.093 . S
O542 C534 1.224 . S
H543 C575 0.929 . S
H544 C577 0.930 . S
H545 C578 0.930 . S
H546 C576 0.929 . S
H547 C579 0.928 . S
O548 Co532 2.057 . S
O548 C536 1.232 . S
H549 C568 0.929 . S
H550 C569 0.929 . S
H551 C581 0.931 . S
H552 C573 0.929 . S
H553 C582 0.930 . S
H554 C574 0.931 . S
O555 Co531 2.097 . S
O555 C583 1.214 . S
H556 C584 0.929 . S
H557 C585 0.929 . S
H558 C586 0.930 . S
H559 C587 0.929 . S
H560 C589 0.930 . S
H561 C566 0.930 . S
H562 C570 0.930 . S
O563 Co532 2.037 . S
O563 C583 1.234 . S
C564 O538 1.269 . S
C564 O539 1.257 . S
C565 H540 0.930 . S
C565 C568 1.388 . S
C565 C570 1.418 . S
C566 H561 0.930 . S
C566 C569 1.404 . S
C566 C570 1.353 . S
N567 Co532 2.145 . S
N567 C568 1.397 . S
N567 C569 1.334 . S
C568 H549 0.929 . S
C568 C565 1.388 . S
C568 N567 1.397 . S
C569 H550 0.929 . S
C569 C566 1.404 . S
C569 N567 1.334 . S
C570 H562 0.930 . S
C570 C565 1.418 . S
C570 C566 1.353 . S
C571 H541 0.930 . S
C571 N572 1.330 . S
C571 C573 1.446 . S
N572 Co531 2.151 . S
N572 C571 1.330 . S
N572 C576 1.418 . S
C573 H552 0.929 . S
C573 C571 1.446 . S
C573 C574 1.332 . S
C574 H554 0.931 . S
C574 C573 1.332 . S
C574 C575 1.267 . S
C575 H543 0.929 . S
C575 C574 1.267 . S
C575 C576 1.251 . S
C576 H546 0.929 . S
C576 N572 1.418 . S
C576 C575 1.251 . S
C577 H544 0.930 . S
C577 C579 1.406 . S
C577 C582 1.261 . S
C578 H545 0.930 . S
C578 N580 1.325 . S
C578 C581 1.357 . S
C579 H547 0.928 . S
C579 C577 1.406 . S
C579 N580 1.261 . S
N580 Co531 2.214 . S
N580 C578 1.325 . S
N580 C579 1.261 . S
C581 H551 0.931 . S
C581 C578 1.357 . S
C581 C582 1.312 . S
C582 H553 0.930 . S
C582 C577 1.261 . S
C582 C581 1.312 . S
C583 O555 1.214 . S
C583 O563 1.234 . S
C584 H556 0.929 . S
C584 C587 1.391 . S
C584 C589 1.391 . S
C585 H557 0.929 . S
C585 C586 1.390 . S
C585 N588 1.391 . S
C586 H558 0.930 . S
C586 C585 1.390 . S
C586 C587 1.392 . S
C587 H559 0.929 . S
C587 C584 1.391 . S
C587 C586 1.392 . S
N588 Co532 2.257 . S
N588 C585 1.391 . S
N588 C589 1.388 . S
C589 H560 0.930 . S
C589 C584 1.391 . S
C589 N588 1.388 . S
Co590 O592 2.143 . S
Co590 O598 2.074 . S
Co590 O601 2.093 . S
Co590 O614 2.097 . S
Co590 N631 2.151 . S
Co590 N639 2.214 . S
Co591 O592 2.160 . S
Co591 O597 2.058 . S
Co591 O607 2.057 . S
Co591 O622 2.037 . S
Co591 N626 2.145 . S
Co591 N647 2.257 . S
O592 Co590 2.143 . S
O592 Co591 2.160 . S
C593 O594 1.278 . S
C593 O601 1.224 . S
O594 C593 1.278 . S
C595 O596 1.245 . S
C595 O607 1.232 . S
O596 C595 1.245 . S
O597 Co591 2.058 . S
O597 C623 1.269 . S
O598 Co590 2.074 . S
O598 C623 1.257 . S
H599 C624 0.930 . S
H600 C630 0.930 . S
O601 Co590 2.093 . S
O601 C593 1.224 . S
H602 C634 0.929 . S
H603 C636 0.930 . S
H604 C637 0.930 . S
H605 C635 0.929 . S
H606 C638 0.928 . S
O607 Co591 2.057 . S
O607 C595 1.232 . S
H608 C627 0.929 . S
H609 C628 0.929 . S
H610 C640 0.931 . S
H611 C632 0.929 . S
H612 C641 0.930 . S
H613 C633 0.931 . S
O614 Co590 2.097 . S
O614 C642 1.214 . S
H615 C643 0.929 . S
H616 C644 0.929 . S
H617 C645 0.930 . S
H618 C646 0.929 . S
H619 C648 0.930 . S
H620 C625 0.930 . S
H621 C629 0.930 . S
O622 Co591 2.037 . S
O622 C642 1.234 . S
C623 O597 1.269 . S
C623 O598 1.257 . S
C624 H599 0.930 . S
C624 C627 1.388 . S
C624 C629 1.418 . S
C625 H620 0.930 . S
C625 C628 1.404 . S
C625 C629 1.353 . S
N626 Co591 2.145 . S
N626 C627 1.397 . S
N626 C628 1.334 . S
C627 H608 0.929 . S
C627 C624 1.388 . S
C627 N626 1.397 . S
C628 H609 0.929 . S
C628 C625 1.404 . S
C628 N626 1.334 . S
C629 H621 0.930 . S
C629 C624 1.418 . S
C629 C625 1.353 . S
C630 H600 0.930 . S
C630 N631 1.330 . S
C630 C632 1.446 . S
N631 Co590 2.151 . S
N631 C630 1.330 . S
N631 C635 1.418 . S
C632 H611 0.929 . S
C632 C630 1.446 . S
C632 C633 1.332 . S
C633 H613 0.931 . S
C633 C632 1.332 . S
C633 C634 1.267 . S
C634 H602 0.929 . S
C634 C633 1.267 . S
C634 C635 1.251 . S
C635 H605 0.929 . S
C635 N631 1.418 . S
C635 C634 1.251 . S
C636 H603 0.930 . S
C636 C638 1.406 . S
C636 C641 1.261 . S
C637 H604 0.930 . S
C637 N639 1.325 . S
C637 C640 1.357 . S
C638 H606 0.928 . S
C638 C636 1.406 . S
C638 N639 1.261 . S
N639 Co590 2.214 . S
N639 C637 1.325 . S
N639 C638 1.261 . S
C640 H610 0.931 . S
C640 C637 1.357 . S
C640 C641 1.312 . S
C641 H612 0.930 . S
C641 C636 1.261 . S
C641 C640 1.312 . S
C642 O614 1.214 . S
C642 O622 1.234 . S
C643 H615 0.929 . S
C643 C646 1.391 . S
C643 C648 1.391 . S
C644 H616 0.929 . S
C644 C645 1.390 . S
C644 N647 1.391 . S
C645 H617 0.930 . S
C645 C644 1.390 . S
C645 C646 1.392 . S
C646 H618 0.929 . S
C646 C643 1.391 . S
C646 C645 1.392 . S
N647 Co591 2.257 . S
N647 C644 1.391 . S
N647 C648 1.388 . S
C648 H619 0.930 . S
C648 C643 1.391 . S
C648 N647 1.388 . S
Co649 O651 2.143 . S
Co649 O657 2.074 . S
Co649 O660 2.093 . S
Co649 O673 2.097 . S
Co649 N690 2.151 . S
Co649 N698 2.214 . S
Co650 O651 2.160 . S
Co650 O656 2.058 . S
Co650 O666 2.057 . S
Co650 O681 2.037 . S
Co650 N685 2.145 . S
Co650 N706 2.257 . S
O651 Co649 2.143 . S
O651 Co650 2.160 . S
C652 O653 1.278 . S
C652 O660 1.224 . S
O653 C652 1.278 . S
C654 O655 1.245 . S
C654 O666 1.232 . S
O655 C654 1.245 . S
O656 Co650 2.058 . S
O656 C682 1.269 . S
O657 Co649 2.074 . S
O657 C682 1.257 . S
H658 C683 0.930 . S
H659 C689 0.930 . S
O660 Co649 2.093 . S
O660 C652 1.224 . S
H661 C693 0.929 . S
H662 C695 0.930 . S
H663 C696 0.930 . S
H664 C694 0.929 . S
H665 C697 0.928 . S
O666 Co650 2.057 . S
O666 C654 1.232 . S
H667 C686 0.929 . S
H668 C687 0.929 . S
H669 C699 0.931 . S
H670 C691 0.929 . S
H671 C700 0.930 . S
H672 C692 0.931 . S
O673 Co649 2.097 . S
O673 C701 1.214 . S
H674 C702 0.929 . S
H675 C703 0.929 . S
H676 C704 0.930 . S
H677 C705 0.929 . S
H678 C707 0.930 . S
H679 C684 0.930 . S
H680 C688 0.930 . S
O681 Co650 2.037 . S
O681 C701 1.234 . S
C682 O656 1.269 . S
C682 O657 1.257 . S
C683 H658 0.930 . S
C683 C686 1.388 . S
C683 C688 1.418 . S
C684 H679 0.930 . S
C684 C687 1.404 . S
C684 C688 1.353 . S
N685 Co650 2.145 . S
N685 C686 1.397 . S
N685 C687 1.334 . S
C686 H667 0.929 . S
C686 C683 1.388 . S
C686 N685 1.397 . S
C687 H668 0.929 . S
C687 C684 1.404 . S
C687 N685 1.334 . S
C688 H680 0.930 . S
C688 C683 1.418 . S
C688 C684 1.353 . S
C689 H659 0.930 . S
C689 N690 1.330 . S
C689 C691 1.446 . S
N690 Co649 2.151 . S
N690 C689 1.330 . S
N690 C694 1.418 . S
C691 H670 0.929 . S
C691 C689 1.446 . S
C691 C692 1.332 . S
C692 H672 0.931 . S
C692 C691 1.332 . S
C692 C693 1.267 . S
C693 H661 0.929 . S
C693 C692 1.267 . S
C693 C694 1.251 . S
C694 H664 0.929 . S
C694 N690 1.418 . S
C694 C693 1.251 . S
C695 H662 0.930 . S
C695 C697 1.406 . S
C695 C700 1.261 . S
C696 H663 0.930 . S
C696 N698 1.325 . S
C696 C699 1.357 . S
C697 H665 0.928 . S
C697 C695 1.406 . S
C697 N698 1.261 . S
N698 Co649 2.214 . S
N698 C696 1.325 . S
N698 C697 1.261 . S
C699 H669 0.931 . S
C699 C696 1.357 . S
C699 C700 1.312 . S
C700 H671 0.930 . S
C700 C695 1.261 . S
C700 C699 1.312 . S
C701 O673 1.214 . S
C701 O681 1.234 . S
C702 H674 0.929 . S
C702 C705 1.391 . S
C702 C707 1.391 . S
C703 H675 0.929 . S
C703 C704 1.390 . S
C703 N706 1.391 . S
C704 H676 0.930 . S
C704 C703 1.390 . S
C704 C705 1.392 . S
C705 H677 0.929 . S
C705 C702 1.391 . S
C705 C704 1.392 . S
N706 Co650 2.257 . S
N706 C703 1.391 . S
N706 C707 1.388 . S
C707 H678 0.930 . S
C707 C702 1.391 . S
C707 N706 1.388 . S
Co708 O710 2.143 . S
Co708 O716 2.074 . S
Co708 O719 2.093 . S
Co708 O732 2.097 . S
Co708 N749 2.151 . S
Co708 N757 2.214 . S
Co709 O710 2.160 . S
Co709 O715 2.058 . S
Co709 O725 2.057 . S
Co709 O740 2.037 . S
Co709 N744 2.145 . S
Co709 N765 2.257 . S
O710 Co708 2.143 . S
O710 Co709 2.160 . S
C711 O712 1.278 . S
C711 O719 1.224 . S
O712 C711 1.278 . S
C713 O714 1.245 . S
C713 O725 1.232 . S
O714 C713 1.245 . S
O715 Co709 2.058 . S
O715 C741 1.269 . S
O716 Co708 2.074 . S
O716 C741 1.257 . S
H717 C742 0.930 . S
H718 C748 0.930 . S
O719 Co708 2.093 . S
O719 C711 1.224 . S
H720 C752 0.929 . S
H721 C754 0.930 . S
H722 C755 0.930 . S
H723 C753 0.929 . S
H724 C756 0.928 . S
O725 Co709 2.057 . S
O725 C713 1.232 . S
H726 C745 0.929 . S
H727 C746 0.929 . S
H728 C758 0.931 . S
H729 C750 0.929 . S
H730 C759 0.930 . S
H731 C751 0.931 . S
O732 Co708 2.097 . S
O732 C760 1.214 . S
H733 C761 0.929 . S
H734 C762 0.929 . S
H735 C763 0.930 . S
H736 C764 0.929 . S
H737 C766 0.930 . S
H738 C743 0.930 . S
H739 C747 0.930 . S
O740 Co709 2.037 . S
O740 C760 1.234 . S
C741 O715 1.269 . S
C741 O716 1.257 . S
C742 H717 0.930 . S
C742 C745 1.388 . S
C742 C747 1.418 . S
C743 H738 0.930 . S
C743 C746 1.404 . S
C743 C747 1.353 . S
N744 Co709 2.145 . S
N744 C745 1.397 . S
N744 C746 1.334 . S
C745 H726 0.929 . S
C745 C742 1.388 . S
C745 N744 1.397 . S
C746 H727 0.929 . S
C746 C743 1.404 . S
C746 N744 1.334 . S
C747 H739 0.930 . S
C747 C742 1.418 . S
C747 C743 1.353 . S
C748 H718 0.930 . S
C748 N749 1.330 . S
C748 C750 1.446 . S
N749 Co708 2.151 . S
N749 C748 1.330 . S
N749 C753 1.418 . S
C750 H729 0.929 . S
C750 C748 1.446 . S
C750 C751 1.332 . S
C751 H731 0.931 . S
C751 C750 1.332 . S
C751 C752 1.267 . S
C752 H720 0.929 . S
C752 C751 1.267 . S
C752 C753 1.251 . S
C753 H723 0.929 . S
C753 N749 1.418 . S
C753 C752 1.251 . S
C754 H721 0.930 . S
C754 C756 1.406 . S
C754 C759 1.261 . S
C755 H722 0.930 . S
C755 N757 1.325 . S
C755 C758 1.357 . S
C756 H724 0.928 . S
C756 C754 1.406 . S
C756 N757 1.261 . S
N757 Co708 2.214 . S
N757 C755 1.325 . S
N757 C756 1.261 . S
C758 H728 0.931 . S
C758 C755 1.357 . S
C758 C759 1.312 . S
C759 H730 0.930 . S
C759 C754 1.261 . S
C759 C758 1.312 . S
C760 O732 1.214 . S
C760 O740 1.234 . S
C761 H733 0.929 . S
C761 C764 1.391 . S
C761 C766 1.391 . S
C762 H734 0.929 . S
C762 C763 1.390 . S
C762 N765 1.391 . S
C763 H735 0.930 . S
C763 C762 1.390 . S
C763 C764 1.392 . S
C764 H736 0.929 . S
C764 C761 1.391 . S
C764 C763 1.392 . S
N765 Co709 2.257 . S
N765 C762 1.391 . S
N765 C766 1.388 . S
C766 H737 0.930 . S
C766 C761 1.391 . S
C766 N765 1.388 . S
Co767 O769 2.143 . S
Co767 O775 2.074 . S
Co767 O778 2.093 . S
Co767 O791 2.097 . S
Co767 N808 2.151 . S
Co767 N816 2.214 . S
Co768 O769 2.160 . S
Co768 O774 2.058 . S
Co768 O784 2.057 . S
Co768 O799 2.037 . S
Co768 N803 2.145 . S
Co768 N824 2.257 . S
O769 Co767 2.143 . S
O769 Co768 2.160 . S
C770 O771 1.278 . S
C770 O778 1.224 . S
O771 C770 1.278 . S
C772 O773 1.245 . S
C772 O784 1.232 . S
O773 C772 1.245 . S
O774 Co768 2.058 . S
O774 C800 1.269 . S
O775 Co767 2.074 . S
O775 C800 1.257 . S
H776 C801 0.930 . S
H777 C807 0.930 . S
O778 Co767 2.093 . S
O778 C770 1.224 . S
H779 C811 0.929 . S
H780 C813 0.930 . S
H781 C814 0.930 . S
H782 C812 0.929 . S
H783 C815 0.928 . S
O784 Co768 2.057 . S
O784 C772 1.232 . S
H785 C804 0.929 . S
H786 C805 0.929 . S
H787 C817 0.931 . S
H788 C809 0.929 . S
H789 C818 0.930 . S
H790 C810 0.931 . S
O791 Co767 2.097 . S
O791 C819 1.214 . S
H792 C820 0.929 . S
H793 C821 0.929 . S
H794 C822 0.930 . S
H795 C823 0.929 . S
H796 C825 0.930 . S
H797 C802 0.930 . S
H798 C806 0.930 . S
O799 Co768 2.037 . S
O799 C819 1.234 . S
C800 O774 1.269 . S
C800 O775 1.257 . S
C801 H776 0.930 . S
C801 C804 1.388 . S
C801 C806 1.418 . S
C802 H797 0.930 . S
C802 C805 1.404 . S
C802 C806 1.353 . S
N803 Co768 2.145 . S
N803 C804 1.397 . S
N803 C805 1.334 . S
C804 H785 0.929 . S
C804 C801 1.388 . S
C804 N803 1.397 . S
C805 H786 0.929 . S
C805 C802 1.404 . S
C805 N803 1.334 . S
C806 H798 0.930 . S
C806 C801 1.418 . S
C806 C802 1.353 . S
C807 H777 0.930 . S
C807 N808 1.330 . S
C807 C809 1.446 . S
N808 Co767 2.151 . S
N808 C807 1.330 . S
N808 C812 1.418 . S
C809 H788 0.929 . S
C809 C807 1.446 . S
C809 C810 1.332 . S
C810 H790 0.931 . S
C810 C809 1.332 . S
C810 C811 1.267 . S
C811 H779 0.929 . S
C811 C810 1.267 . S
C811 C812 1.251 . S
C812 H782 0.929 . S
C812 N808 1.418 . S
C812 C811 1.251 . S
C813 H780 0.930 . S
C813 C815 1.406 . S
C813 C818 1.261 . S
C814 H781 0.930 . S
C814 N816 1.325 . S
C814 C817 1.357 . S
C815 H783 0.928 . S
C815 C813 1.406 . S
C815 N816 1.261 . S
N816 Co767 2.214 . S
N816 C814 1.325 . S
N816 C815 1.261 . S
C817 H787 0.931 . S
C817 C814 1.357 . S
C817 C818 1.312 . S
C818 H789 0.930 . S
C818 C813 1.261 . S
C818 C817 1.312 . S
C819 O791 1.214 . S
C819 O799 1.234 . S
C820 H792 0.929 . S
C820 C823 1.391 . S
C820 C825 1.391 . S
C821 H793 0.929 . S
C821 C822 1.390 . S
C821 N824 1.391 . S
C822 H794 0.930 . S
C822 C821 1.390 . S
C822 C823 1.392 . S
C823 H795 0.929 . S
C823 C820 1.391 . S
C823 C822 1.392 . S
N824 Co768 2.257 . S
N824 C821 1.391 . S
N824 C825 1.388 . S
C825 H796 0.930 . S
C825 C820 1.391 . S
C825 N824 1.388 . S
Co826 O828 2.143 . S
Co826 O834 2.074 . S
Co826 O837 2.093 . S
Co826 O850 2.097 . S
Co826 N867 2.151 . S
Co826 N875 2.214 . S
Co827 O828 2.160 . S
Co827 O833 2.058 . S
Co827 O843 2.057 . S
Co827 O858 2.037 . S
Co827 N862 2.145 . S
Co827 N883 2.257 . S
O828 Co826 2.143 . S
O828 Co827 2.160 . S
C829 O830 1.278 . S
C829 O837 1.224 . S
O830 C829 1.278 . S
C831 O832 1.245 . S
C831 O843 1.232 . S
O832 C831 1.245 . S
O833 Co827 2.058 . S
O833 C859 1.269 . S
O834 Co826 2.074 . S
O834 C859 1.257 . S
H835 C860 0.930 . S
H836 C866 0.930 . S
O837 Co826 2.093 . S
O837 C829 1.224 . S
H838 C870 0.929 . S
H839 C872 0.930 . S
H840 C873 0.930 . S
H841 C871 0.929 . S
H842 C874 0.928 . S
O843 Co827 2.057 . S
O843 C831 1.232 . S
H844 C863 0.929 . S
H845 C864 0.929 . S
H846 C876 0.931 . S
H847 C868 0.929 . S
H848 C877 0.930 . S
H849 C869 0.931 . S
O850 Co826 2.097 . S
O850 C878 1.214 . S
H851 C879 0.929 . S
H852 C880 0.929 . S
H853 C881 0.930 . S
H854 C882 0.929 . S
H855 C884 0.930 . S
H856 C861 0.930 . S
H857 C865 0.930 . S
O858 Co827 2.037 . S
O858 C878 1.234 . S
C859 O833 1.269 . S
C859 O834 1.257 . S
C860 H835 0.930 . S
C860 C863 1.388 . S
C860 C865 1.418 . S
C861 H856 0.930 . S
C861 C864 1.404 . S
C861 C865 1.353 . S
N862 Co827 2.145 . S
N862 C863 1.397 . S
N862 C864 1.334 . S
C863 H844 0.929 . S
C863 C860 1.388 . S
C863 N862 1.397 . S
C864 H845 0.929 . S
C864 C861 1.404 . S
C864 N862 1.334 . S
C865 H857 0.930 . S
C865 C860 1.418 . S
C865 C861 1.353 . S
C866 H836 0.930 . S
C866 N867 1.330 . S
C866 C868 1.446 . S
N867 Co826 2.151 . S
N867 C866 1.330 . S
N867 C871 1.418 . S
C868 H847 0.929 . S
C868 C866 1.446 . S
C868 C869 1.332 . S
C869 H849 0.931 . S
C869 C868 1.332 . S
C869 C870 1.267 . S
C870 H838 0.929 . S
C870 C869 1.267 . S
C870 C871 1.251 . S
C871 H841 0.929 . S
C871 N867 1.418 . S
C871 C870 1.251 . S
C872 H839 0.930 . S
C872 C874 1.406 . S
C872 C877 1.261 . S
C873 H840 0.930 . S
C873 N875 1.325 . S
C873 C876 1.357 . S
C874 H842 0.928 . S
C874 C872 1.406 . S
C874 N875 1.261 . S
N875 Co826 2.214 . S
N875 C873 1.325 . S
N875 C874 1.261 . S
C876 H846 0.931 . S
C876 C873 1.357 . S
C876 C877 1.312 . S
C877 H848 0.930 . S
C877 C872 1.261 . S
C877 C876 1.312 . S
C878 O850 1.214 . S
C878 O858 1.234 . S
C879 H851 0.929 . S
C879 C882 1.391 . S
C879 C884 1.391 . S
C880 H852 0.929 . S
C880 C881 1.390 . S
C880 N883 1.391 . S
C881 H853 0.930 . S
C881 C880 1.390 . S
C881 C882 1.392 . S
C882 H854 0.929 . S
C882 C879 1.391 . S
C882 C881 1.392 . S
N883 Co827 2.257 . S
N883 C880 1.391 . S
N883 C884 1.388 . S
C884 H855 0.930 . S
C884 C879 1.391 . S
C884 N883 1.388 . S
Co885 O887 2.143 . S
Co885 O893 2.074 . S
Co885 O896 2.093 . S
Co885 O909 2.097 . S
Co885 N926 2.151 . S
Co885 N934 2.214 . S
Co886 O887 2.160 . S
Co886 O892 2.058 . S
Co886 O902 2.057 . S
Co886 O917 2.037 . S
Co886 N921 2.145 . S
Co886 N942 2.257 . S
O887 Co885 2.143 . S
O887 Co886 2.160 . S
C888 O889 1.278 . S
C888 O896 1.224 . S
O889 C888 1.278 . S
C890 O891 1.245 . S
C890 O902 1.232 . S
O891 C890 1.245 . S
O892 Co886 2.058 . S
O892 C918 1.269 . S
O893 Co885 2.074 . S
O893 C918 1.257 . S
H894 C919 0.930 . S
H895 C925 0.930 . S
O896 Co885 2.093 . S
O896 C888 1.224 . S
H897 C929 0.929 . S
H898 C931 0.930 . S
H899 C932 0.930 . S
H900 C930 0.929 . S
H901 C933 0.928 . S
O902 Co886 2.057 . S
O902 C890 1.232 . S
H903 C922 0.929 . S
H904 C923 0.929 . S
H905 C935 0.931 . S
H906 C927 0.929 . S
H907 C936 0.930 . S
H908 C928 0.931 . S
O909 Co885 2.097 . S
O909 C937 1.214 . S
H910 C938 0.929 . S
H911 C939 0.929 . S
H912 C940 0.930 . S
H913 C941 0.929 . S
H914 C943 0.930 . S
H915 C920 0.930 . S
H916 C924 0.930 . S
O917 Co886 2.037 . S
O917 C937 1.234 . S
C918 O892 1.269 . S
C918 O893 1.257 . S
C919 H894 0.930 . S
C919 C922 1.388 . S
C919 C924 1.418 . S
C920 H915 0.930 . S
C920 C923 1.404 . S
C920 C924 1.353 . S
N921 Co886 2.145 . S
N921 C922 1.397 . S
N921 C923 1.334 . S
C922 H903 0.929 . S
C922 C919 1.388 . S
C922 N921 1.397 . S
C923 H904 0.929 . S
C923 C920 1.404 . S
C923 N921 1.334 . S
C924 H916 0.930 . S
C924 C919 1.418 . S
C924 C920 1.353 . S
C925 H895 0.930 . S
C925 N926 1.330 . S
C925 C927 1.446 . S
N926 Co885 2.151 . S
N926 C925 1.330 . S
N926 C930 1.418 . S
C927 H906 0.929 . S
C927 C925 1.446 . S
C927 C928 1.332 . S
C928 H908 0.931 . S
C928 C927 1.332 . S
C928 C929 1.267 . S
C929 H897 0.929 . S
C929 C928 1.267 . S
C929 C930 1.251 . S
C930 H900 0.929 . S
C930 N926 1.418 . S
C930 C929 1.251 . S
C931 H898 0.930 . S
C931 C933 1.406 . S
C931 C936 1.261 . S
C932 H899 0.930 . S
C932 N934 1.325 . S
C932 C935 1.357 . S
C933 H901 0.928 . S
C933 C931 1.406 . S
C933 N934 1.261 . S
N934 Co885 2.214 . S
N934 C932 1.325 . S
N934 C933 1.261 . S
C935 H905 0.931 . S
C935 C932 1.357 . S
C935 C936 1.312 . S
C936 H907 0.930 . S
C936 C931 1.261 . S
C936 C935 1.312 . S
C937 O909 1.214 . S
C937 O917 1.234 . S
C938 H910 0.929 . S
C938 C941 1.391 . S
C938 C943 1.391 . S
C939 H911 0.929 . S
C939 C940 1.390 . S
C939 N942 1.391 . S
C940 H912 0.930 . S
C940 C939 1.390 . S
C940 C941 1.392 . S
C941 H913 0.929 . S
C941 C938 1.391 . S
C941 C940 1.392 . S
N942 Co886 2.257 . S
N942 C939 1.391 . S
N942 C943 1.388 . S
C943 H914 0.930 . S
C943 C938 1.391 . S
C943 N942 1.388 . S
C944 C945 1.387 1_565 S
C944 H948 0.950 . S
C944 C953 1.390 . S
C945 C944 1.387 1_545 S
C945 C947 1.387 . S
H946 C953 0.950 . S
C947 C945 1.387 . S
C947 C949 1.390 . S
C947 H951 0.950 . S
H948 C944 0.950 . S
C949 C947 1.390 . S
C949 C950 1.387 . S
C949 H952 0.950 . S
C950 C949 1.387 . S
C950 C953 1.387 1_545 S
H951 C947 0.950 . S
H952 C949 0.950 . S
C953 C944 1.390 . S
C953 H946 0.950 . S
C953 C950 1.387 1_565 S
C954 C955 1.387 1_545 S
C954 H958 0.950 . S
C954 C963 1.390 . S
C955 C954 1.387 1_565 S
C955 C957 1.387 . S
H956 C963 0.950 . S
C957 C955 1.387 . S
C957 C959 1.390 . S
C957 H961 0.950 . S
H958 C954 0.950 . S
C959 C957 1.390 . S
C959 C960 1.387 . S
C959 H962 0.950 . S
C960 C959 1.387 . S
C960 C963 1.387 1_565 S
H961 C957 0.950 . S
H962 C959 0.950 . S
C963 C954 1.390 . S
C963 H956 0.950 . S
C963 C960 1.387 1_545 S
C964 C965 1.387 . S
C964 H968 0.950 1_565 S
C964 C973 1.390 1_554 S
C965 C964 1.387 . S
C965 C967 1.387 . S
H966 C973 0.950 1_545 S
C967 C965 1.387 . S
C967 C969 1.390 1_554 S
C967 H971 0.950 . S
H968 C964 0.950 1_545 S
C969 C967 1.390 1_556 S
C969 C970 1.387 . S
C969 H972 0.950 . S
C970 C969 1.387 . S
C970 C973 1.387 . S
H971 C967 0.950 . S
H972 C969 0.950 . S
C973 C964 1.390 1_556 S
C973 H966 0.950 1_565 S
C973 C970 1.387 . S
C974 C975 1.387 . S
C974 H978 0.950 1_545 S
C974 C983 1.390 1_556 S
C975 C974 1.387 . S
C975 C977 1.387 . S
H976 C983 0.950 1_565 S
C977 C975 1.387 . S
C977 C979 1.390 1_556 S
C977 H981 0.950 . S
H978 C974 0.950 1_565 S
C979 C977 1.390 1_554 S
C979 C980 1.387 . S
C979 H982 0.950 . S
C980 C979 1.387 . S
C980 C983 1.387 . S
H981 C977 0.950 . S
H982 C979 0.950 . S
C983 C974 1.390 1_554 S
C983 H976 0.950 1_545 S
C983 C980 1.387 . S
C984 C985 1.387 . S
C984 H988 0.950 . S
C984 C993 1.390 . S
C985 C984 1.387 . S
C985 C987 1.387 . S
H986 C993 0.950 . S
C987 C985 1.387 . S
C987 C989 1.390 . S
C987 H991 0.950 . S
H988 C984 0.950 . S
C989 C987 1.390 . S
C989 C990 1.387 . S
C989 H992 0.950 . S
C990 C989 1.387 . S
C990 C993 1.387 . S
H991 C987 0.950 . S
H992 C989 0.950 . S
C993 C984 1.390 . S
C993 H986 0.950 . S
C993 C990 1.387 . S
C994 C995 1.387 . S
C994 H998 0.950 . S
C994 C1003 1.390 . S
C995 C994 1.387 . S
C995 C997 1.387 . S
H996 C1003 0.950 . S
C997 C995 1.387 . S
C997 C999 1.390 . S
C997 H1001 0.950 . S
H998 C994 0.950 . S
C999 C997 1.390 . S
C999 C1000 1.387 . S
C999 H1002 0.950 . S
C1000 C999 1.387 . S
C1000 C1003 1.387 . S
H1001 C997 0.950 . S
H1002 C999 0.950 . S
C1003 C994 1.390 . S
C1003 H996 0.950 . S
C1003 C1000 1.387 . S
C1004 C1005 1.387 . S
C1004 H1008 0.950 . S
C1004 C1013 1.390 1_556 S
C1005 C1004 1.387 . S
C1005 C1007 1.387 . S
H1006 C1013 0.950 . S
C1007 C1005 1.387 . S
C1007 C1009 1.390 1_556 S
C1007 H1011 0.950 . S
H1008 C1004 0.950 . S
C1009 C1007 1.390 1_554 S
C1009 C1010 1.387 . S
C1009 H1012 0.950 . S
C1010 C1009 1.387 . S
C1010 C1013 1.387 . S
H1011 C1007 0.950 . S
H1012 C1009 0.950 . S
C1013 C1004 1.390 1_554 S
C1013 H1006 0.950 . S
C1013 C1010 1.387 . S
C1014 C1015 1.387 . S
C1014 H1018 0.950 . S
C1014 C1023 1.390 1_554 S
C1015 C1014 1.387 . S
C1015 C1017 1.387 . S
H1016 C1023 0.950 . S
C1017 C1015 1.387 . S
C1017 C1019 1.390 1_554 S
C1017 H1021 0.950 . S
H1018 C1014 0.950 . S
C1019 C1017 1.390 1_556 S
C1019 C1020 1.387 . S
C1019 H1022 0.950 . S
C1020 C1019 1.387 . S
C1020 C1023 1.387 . S
H1021 C1017 0.950 . S
H1022 C1019 0.950 . S
C1023 C1014 1.390 1_556 S
C1023 H1016 0.950 . S
C1023 C1020 1.387 . S
C1024 C1025 1.387 . S
C1024 H1028 0.950 . S
C1024 C1033 1.390 1_565 S
C1025 C1024 1.387 . S
C1025 C1027 1.387 . S
H1026 C1033 0.950 . S
C1027 C1025 1.387 . S
C1027 C1029 1.390 1_565 S
C1027 H1031 0.950 . S
H1028 C1024 0.950 . S
C1029 C1027 1.390 1_545 S
C1029 C1030 1.387 . S
C1029 H1032 0.950 . S
C1030 C1029 1.387 . S
C1030 C1033 1.387 . S
H1031 C1027 0.950 . S
H1032 C1029 0.950 . S
C1033 C1024 1.390 1_545 S
C1033 H1026 0.950 . S
C1033 C1030 1.387 . S
C1034 C1035 1.387 . S
C1034 H1038 0.950 . S
C1034 C1043 1.390 1_565 S
C1035 C1034 1.387 . S
C1035 C1037 1.387 . S
H1036 C1043 0.950 . S
C1037 C1035 1.387 . S
C1037 C1039 1.390 1_565 S
C1037 H1041 0.950 . S
H1038 C1034 0.950 . S
C1039 C1037 1.390 1_545 S
C1039 C1040 1.387 . S
C1039 H1042 0.950 . S
C1040 C1039 1.387 . S
C1040 C1043 1.387 . S
H1041 C1037 0.950 . S
H1042 C1039 0.950 . S
C1043 C1034 1.390 1_545 S
C1043 H1036 0.950 . S
C1043 C1040 1.387 . S
C1044 C1045 1.387 . S
C1044 H1048 0.950 . S
C1044 C1053 1.390 1_565 S
C1045 C1044 1.387 . S
C1045 C1047 1.387 . S
H1046 C1053 0.950 . S
C1047 C1045 1.387 . S
C1047 C1049 1.390 1_565 S
C1047 H1051 0.950 . S
H1048 C1044 0.950 . S
C1049 C1047 1.390 1_545 S
C1049 C1050 1.387 . S
C1049 H1052 0.950 . S
C1050 C1049 1.387 . S
C1050 C1053 1.387 . S
H1051 C1047 0.950 . S
H1052 C1049 0.950 . S
C1053 C1044 1.390 1_545 S
C1053 H1046 0.950 . S
C1053 C1050 1.387 . S
C1054 C1055 1.387 . S
C1054 H1058 0.950 . S
C1054 C1063 1.390 1_545 S
C1055 C1054 1.387 . S
C1055 C1057 1.387 . S
H1056 C1063 0.950 . S
C1057 C1055 1.387 . S
C1057 C1059 1.390 1_545 S
C1057 H1061 0.950 . S
H1058 C1054 0.950 . S
C1059 C1057 1.390 1_565 S
C1059 C1060 1.387 . S
C1059 H1062 0.950 . S
C1060 C1059 1.387 . S
C1060 C1063 1.387 . S
H1061 C1057 0.950 . S
H1062 C1059 0.950 . S
C1063 C1054 1.390 1_565 S
C1063 H1056 0.950 . S
C1063 C1060 1.387 . S
C1064 C1065 1.387 . S
C1064 H1068 0.950 . S
C1064 C1073 1.390 1_655 S
C1065 C1064 1.387 . S
C1065 C1067 1.387 . S
H1066 C1073 0.950 . S
C1067 C1065 1.387 . S
C1067 C1069 1.390 1_655 S
C1067 H1071 0.950 . S
H1068 C1064 0.950 . S
C1069 C1067 1.390 1_455 S
C1069 C1070 1.387 . S
C1069 H1072 0.950 . S
C1070 C1069 1.387 . S
C1070 C1073 1.387 . S
H1071 C1067 0.950 . S
H1072 C1069 0.950 . S
C1073 C1064 1.390 1_455 S
C1073 H1066 0.950 . S
C1073 C1070 1.387 . S
C1074 C1075 1.387 . S
C1074 H1078 0.950 . S
C1074 C1083 1.390 1_455 S
C1075 C1074 1.387 . S
C1075 C1077 1.387 . S
H1076 C1083 0.950 . S
C1077 C1075 1.387 . S
C1077 C1079 1.390 1_455 S
C1077 H1081 0.950 . S
H1078 C1074 0.950 . S
C1079 C1077 1.390 1_655 S
C1079 C1080 1.387 . S
C1079 H1082 0.950 . S
C1080 C1079 1.387 . S
C1080 C1083 1.387 . S
H1081 C1077 0.950 . S
H1082 C1079 0.950 . S
C1083 C1074 1.390 1_655 S
C1083 H1076 0.950 . S
C1083 C1080 1.387 . S
C1084 C1085 1.387 . S
C1084 H1088 0.950 . S
C1084 C1093 1.390 1_655 S
C1085 C1084 1.387 . S
C1085 C1087 1.387 . S
H1086 C1093 0.950 . S
C1087 C1085 1.387 . S
C1087 C1089 1.390 1_655 S
C1087 H1091 0.950 . S
H1088 C1084 0.950 . S
C1089 C1087 1.390 1_455 S
C1089 C1090 1.387 . S
C1089 H1092 0.950 . S
C1090 C1089 1.387 . S
C1090 C1093 1.387 . S
H1091 C1087 0.950 . S
H1092 C1089 0.950 . S
C1093 C1084 1.390 1_455 S
C1093 H1086 0.950 . S
C1093 C1090 1.387 . S
C1094 C1095 1.387 . S
C1094 H1098 0.950 . S
C1094 C1103 1.390 1_455 S
C1095 C1094 1.387 . S
C1095 C1097 1.387 . S
H1096 C1103 0.950 . S
C1097 C1095 1.387 . S
C1097 C1099 1.390 1_455 S
C1097 H1101 0.950 . S
H1098 C1094 0.950 . S
C1099 C1097 1.390 1_655 S
C1099 C1100 1.387 . S
C1099 H1102 0.950 . S
C1100 C1099 1.387 . S
C1100 C1103 1.387 . S
H1101 C1097 0.950 . S
H1102 C1099 0.950 . S
C1103 C1094 1.390 1_655 S
C1103 H1096 0.950 . S
C1103 C1100 1.387 . S
C1104 C1105 1.387 . S
C1104 H1108 0.950 . S
C1104 C1113 1.390 . S
C1105 C1104 1.387 . S
C1105 C1107 1.387 . S
H1106 C1113 0.950 . S
C1107 C1105 1.387 . S
C1107 C1109 1.390 . S
C1107 H1111 0.950 . S
H1108 C1104 0.950 . S
C1109 C1107 1.390 . S
C1109 C1110 1.387 . S
C1109 H1112 0.950 . S
C1110 C1109 1.387 . S
C1110 C1113 1.387 . S
H1111 C1107 0.950 . S
H1112 C1109 0.950 . S
C1113 C1104 1.390 . S
C1113 H1106 0.950 . S
C1113 C1110 1.387 . S
C1114 C1115 1.387 . S
C1114 H1118 0.950 . S
C1114 C1123 1.390 . S
C1115 C1114 1.387 . S
C1115 C1117 1.387 . S
H1116 C1123 0.950 . S
C1117 C1115 1.387 . S
C1117 C1119 1.390 . S
C1117 H1121 0.950 . S
H1118 C1114 0.950 . S
C1119 C1117 1.390 . S
C1119 C1120 1.387 . S
C1119 H1122 0.950 . S
C1120 C1119 1.387 . S
C1120 C1123 1.387 . S
H1121 C1117 0.950 . S
H1122 C1119 0.950 . S
C1123 C1114 1.390 . S
C1123 H1116 0.950 . S
C1123 C1120 1.387 . S
C1124 C1125 1.387 . S
C1124 H1128 0.950 . S
C1124 C1133 1.390 . S
C1125 C1124 1.387 . S
C1125 C1127 1.387 . S
H1126 C1133 0.950 . S
C1127 C1125 1.387 . S
C1127 C1129 1.390 . S
C1127 H1131 0.950 . S
H1128 C1124 0.950 . S
C1129 C1127 1.390 . S
C1129 C1130 1.387 . S
C1129 H1132 0.950 . S
C1130 C1129 1.387 . S
C1130 C1133 1.387 . S
H1131 C1127 0.950 . S
H1132 C1129 0.950 . S
C1133 C1124 1.390 . S
C1133 H1126 0.950 . S
C1133 C1130 1.387 . S
C1134 C1135 1.387 . S
C1134 H1138 0.950 . S
C1134 C1143 1.390 . S
C1135 C1134 1.387 . S
C1135 C1137 1.387 . S
H1136 C1143 0.950 . S
C1137 C1135 1.387 . S
C1137 C1139 1.390 . S
C1137 H1141 0.950 . S
H1138 C1134 0.950 . S
C1139 C1137 1.390 . S
C1139 C1140 1.387 . S
C1139 H1142 0.950 . S
C1140 C1139 1.387 . S
C1140 C1143 1.387 . S
H1141 C1137 0.950 . S
H1142 C1139 0.950 . S
C1143 C1134 1.390 . S
C1143 H1136 0.950 . S
C1143 C1140 1.387 . S
C1144 C1145 1.387 . S
C1144 H1148 0.950 . S
C1144 C1153 1.390 . S
C1145 C1144 1.387 . S
C1145 C1147 1.387 . S
H1146 C1153 0.950 . S
C1147 C1145 1.387 . S
C1147 C1149 1.390 . S
C1147 H1151 0.950 . S
H1148 C1144 0.950 . S
C1149 C1147 1.390 . S
C1149 C1150 1.387 . S
C1149 H1152 0.950 . S
C1150 C1149 1.387 . S
C1150 C1153 1.387 . S
H1151 C1147 0.950 . S
H1152 C1149 0.950 . S
C1153 C1144 1.390 . S
C1153 H1146 0.950 . S
C1153 C1150 1.387 . S
C1154 C1155 1.387 . S
C1154 H1158 0.950 . S
C1154 C1163 1.390 . S
C1155 C1154 1.387 . S
C1155 C1157 1.387 . S
H1156 C1163 0.950 . S
C1157 C1155 1.387 . S
C1157 C1159 1.390 . S
C1157 H1161 0.950 . S
H1158 C1154 0.950 . S
C1159 C1157 1.390 . S
C1159 C1160 1.387 . S
C1159 H1162 0.950 . S
C1160 C1159 1.387 . S
C1160 C1163 1.387 . S
H1161 C1157 0.950 . S
H1162 C1159 0.950 . S
C1163 C1154 1.390 . S
C1163 H1156 0.950 . S
C1163 C1160 1.387 . S
C1164 C1165 1.387 . S
C1164 H1168 0.950 . S
C1164 C1173 1.390 . S
C1165 C1164 1.387 . S
C1165 C1167 1.387 . S
H1166 C1173 0.950 . S
C1167 C1165 1.387 . S
C1167 C1169 1.390 . S
C1167 H1171 0.950 . S
H1168 C1164 0.950 . S
C1169 C1167 1.390 . S
C1169 C1170 1.387 . S
C1169 H1172 0.950 . S
C1170 C1169 1.387 . S
C1170 C1173 1.387 . S
H1171 C1167 0.950 . S
H1172 C1169 0.950 . S
C1173 C1164 1.390 . S
C1173 H1166 0.950 . S
C1173 C1170 1.387 . S
C1174 C1175 1.387 . S
C1174 H1178 0.950 . S
C1174 C1183 1.390 . S
C1175 C1174 1.387 . S
C1175 C1177 1.387 . S
H1176 C1183 0.950 . S
C1177 C1175 1.387 . S
C1177 C1179 1.390 . S
C1177 H1181 0.950 . S
H1178 C1174 0.950 . S
C1179 C1177 1.390 . S
C1179 C1180 1.387 . S
C1179 H1182 0.950 . S
C1180 C1179 1.387 . S
C1180 C1183 1.387 . S
H1181 C1177 0.950 . S
H1182 C1179 0.950 . S
C1183 C1174 1.390 . S
C1183 H1176 0.950 . S
C1183 C1180 1.387 . S
C1184 C1185 1.387 . S
C1184 H1188 0.950 . S
C1184 C1193 1.390 1_565 S
C1185 C1184 1.387 . S
C1185 C1187 1.387 . S
H1186 C1193 0.950 . S
C1187 C1185 1.387 . S
C1187 C1189 1.390 1_565 S
C1187 H1191 0.950 . S
H1188 C1184 0.950 . S
C1189 C1187 1.390 1_545 S
C1189 C1190 1.387 . S
C1189 H1192 0.950 . S
C1190 C1189 1.387 . S
C1190 C1193 1.387 . S
H1191 C1187 0.950 . S
H1192 C1189 0.950 . S
C1193 C1184 1.390 1_545 S
C1193 H1186 0.950 . S
C1193 C1190 1.387 . S
C1194 C1195 1.387 . S
C1194 H1198 0.950 . S
C1194 C1203 1.390 1_565 S
C1195 C1194 1.387 . S
C1195 C1197 1.387 . S
H1196 C1203 0.950 . S
C1197 C1195 1.387 . S
C1197 C1199 1.390 1_565 S
C1197 H1201 0.950 . S
H1198 C1194 0.950 . S
C1199 C1197 1.390 1_545 S
C1199 C1200 1.387 . S
C1199 H1202 0.950 . S
C1200 C1199 1.387 . S
C1200 C1203 1.387 . S
H1201 C1197 0.950 . S
H1202 C1199 0.950 . S
C1203 C1194 1.390 1_545 S
C1203 H1196 0.950 . S
C1203 C1200 1.387 . S
C1204 C1205 1.387 . S
C1204 H1208 0.950 . S
C1204 C1213 1.390 1_565 S
C1205 C1204 1.387 . S
C1205 C1207 1.387 . S
H1206 C1213 0.950 . S
C1207 C1205 1.387 . S
C1207 C1209 1.390 1_565 S
C1207 H1211 0.950 . S
H1208 C1204 0.950 . S
C1209 C1207 1.390 1_545 S
C1209 C1210 1.387 . S
C1209 H1212 0.950 . S
C1210 C1209 1.387 . S
C1210 C1213 1.387 . S
H1211 C1207 0.950 . S
H1212 C1209 0.950 . S
C1213 C1204 1.390 1_545 S
C1213 H1206 0.950 . S
C1213 C1210 1.387 . S
C1214 C1215 1.387 . S
C1214 H1218 0.950 . S
C1214 C1223 1.390 1_545 S
C1215 C1214 1.387 . S
C1215 C1217 1.387 . S
H1216 C1223 0.950 . S
C1217 C1215 1.387 . S
C1217 C1219 1.390 1_545 S
C1217 H1221 0.950 . S
H1218 C1214 0.950 . S
C1219 C1217 1.390 1_565 S
C1219 C1220 1.387 . S
C1219 H1222 0.950 . S
C1220 C1219 1.387 . S
C1220 C1223 1.387 . S
H1221 C1217 0.950 . S
H1222 C1219 0.950 . S
C1223 C1214 1.390 1_565 S
C1223 H1216 0.950 . S
C1223 C1220 1.387 . S
C1224 C1225 1.387 . S
C1224 H1228 0.950 . S
C1224 C1233 1.390 . S
C1225 C1224 1.387 . S
C1225 C1227 1.387 . S
H1226 C1233 0.950 . S
C1227 C1225 1.387 . S
C1227 C1229 1.390 . S
C1227 H1231 0.950 . S
H1228 C1224 0.950 . S
C1229 C1227 1.390 . S
C1229 C1230 1.387 . S
C1229 H1232 0.950 . S
C1230 C1229 1.387 . S
C1230 C1233 1.387 . S
H1231 C1227 0.950 . S
H1232 C1229 0.950 . S
C1233 C1224 1.390 . S
C1233 H1226 0.950 . S
C1233 C1230 1.387 . S
C1234 C1235 1.387 . S
C1234 H1238 0.950 . S
C1234 C1243 1.390 . S
C1235 C1234 1.387 . S
C1235 C1237 1.387 . S
H1236 C1243 0.950 . S
C1237 C1235 1.387 . S
C1237 C1239 1.390 . S
C1237 H1241 0.950 . S
H1238 C1234 0.950 . S
C1239 C1237 1.390 . S
C1239 C1240 1.387 . S
C1239 H1242 0.950 . S
C1240 C1239 1.387 . S
C1240 C1243 1.387 . S
H1241 C1237 0.950 . S
H1242 C1239 0.950 . S
C1243 C1234 1.390 . S
C1243 H1236 0.950 . S
C1243 C1240 1.387 . S
C1244 C1245 1.387 . S
C1244 H1248 0.950 . S
C1244 C1253 1.390 . S
C1245 C1244 1.387 . S
C1245 C1247 1.387 . S
H1246 C1253 0.950 . S
C1247 C1245 1.387 . S
C1247 C1249 1.390 . S
C1247 H1251 0.950 . S
H1248 C1244 0.950 . S
C1249 C1247 1.390 . S
C1249 C1250 1.387 . S
C1249 H1252 0.950 . S
C1250 C1249 1.387 . S
C1250 C1253 1.387 . S
H1251 C1247 0.950 . S
H1252 C1249 0.950 . S
C1253 C1244 1.390 . S
C1253 H1246 0.950 . S
C1253 C1250 1.387 . S
C1254 C1255 1.387 . S
C1254 H1258 0.950 . S
C1254 C1263 1.390 . S
C1255 C1254 1.387 . S
C1255 C1257 1.387 . S
H1256 C1263 0.950 . S
C1257 C1255 1.387 . S
C1257 C1259 1.390 . S
C1257 H1261 0.950 . S
H1258 C1254 0.950 . S
C1259 C1257 1.390 . S
C1259 C1260 1.387 . S
C1259 H1262 0.950 . S
C1260 C1259 1.387 . S
C1260 C1263 1.387 . S
H1261 C1257 0.950 . S
H1262 C1259 0.950 . S
C1263 C1254 1.390 . S
C1263 H1256 0.950 . S
C1263 C1260 1.387 . S
C945 C3 1.446 . S
C950 C298 1.444 . S
C955 C239 1.444 . S
C960 C62 1.446 . S
C965 C121 1.446 . S
C970 C416 1.444 . S
C975 C357 1.444 . S
C980 C180 1.446 . S
C985 C770 1.444 . S
C990 C475 1.446 . S
C995 C711 1.444 . S
C1000 C534 1.446 . S
C1005 C888 1.446 . S
C1010 C593 1.444 . S
C1015 C652 1.445 . S
C1020 C829 1.445 . S
C1025 C111 1.502 . S
C1030 C52 1.502 . S
C1035 C170 1.502 . S
C1040 C229 1.502 . S
C1045 C288 1.502 . S
C1050 C347 1.502 . S
C1055 C406 1.502 . S
C1060 C465 1.502 . S
C1065 C524 1.502 . S
C1070 C583 1.502 . S
C1075 C701 1.502 . S
C1080 C642 1.502 . S
C1085 C819 1.502 . S
C1090 C760 1.502 . S
C1095 C878 1.502 . S
C1100 C937 1.502 . S
C1105 C536 1.510 . S
C1110 C5 1.510 . S
C1115 C64 1.510 . S
C1120 C477 1.510 . S
C1125 C654 1.510 . S
C1130 C123 1.510 . S
C1135 C182 1.510 . S
C1140 C595 1.510 . S
C1145 C241 1.510 . S
C1150 C772 1.510 . S
C1155 C713 1.510 . S
C1160 C300 1.510 . S
C1165 C359 1.510 . S
C1170 C890 1.510 . S
C1175 C831 1.510 . S
C1180 C418 1.510 . S
C1185 C33 1.370 1_565 S
C1190 C151 1.370 1_545 S
C1195 C210 1.370 1_565 S
C1200 C92 1.370 1_545 S
C1205 C387 1.370 1_565 S
C1210 C269 1.370 1_545 S
C1215 C446 1.370 1_545 S
C1220 C328 1.370 1_565 S
C1225 C623 1.370 . S
C1230 C505 1.370 . S
C1235 C564 1.367 . S
C1240 C682 1.367 . S
C1245 C859 1.367 . S
C1250 C741 1.367 . S
C1255 C800 1.370 . S
C1260 C918 1.370 . S
