# Generated by pormake.
# Topology zfv, (5)-cn, num edge types: 1
# Building blocks:
#     Node 0, Type 0, BuildingBlock: BEQFEK_clean_sbu_0, # of connection points: 5
#     Node 1, Type 0, BuildingBlock: BEQFEK_clean_sbu_0, # of connection points: 5
#     Node 2, Type 0, BuildingBlock: BEQFEK_clean_sbu_0, # of connection points: 5
#     Node 3, Type 0, BuildingBlock: BEQFEK_clean_sbu_0, # of connection points: 5
#     Node 4, Type 0, BuildingBlock: BEQFEK_clean_sbu_0, # of connection points: 5
#     Node 5, Type 0, BuildingBlock: BEQFEK_clean_sbu_0, # of connection points: 5
#     Node 6, Type 0, BuildingBlock: BEQFEK_clean_sbu_0, # of connection points: 5
#     Node 7, Type 0, BuildingBlock: BEQFEK_clean_sbu_0, # of connection points: 5
#     Node 8, Type 0, BuildingBlock: BEQFEK_clean_sbu_0, # of connection points: 5
#     Node 9, Type 0, BuildingBlock: BEQFEK_clean_sbu_0, # of connection points: 5
#     Node 10, Type 0, BuildingBlock: BEQFEK_clean_sbu_0, # of connection points: 5
#     Node 11, Type 0, BuildingBlock: BEQFEK_clean_sbu_0, # of connection points: 5
#     Node 12, Type 0, BuildingBlock: BEQFEK_clean_sbu_0, # of connection points: 5
#     Node 13, Type 0, BuildingBlock: BEQFEK_clean_sbu_0, # of connection points: 5
#     Node 14, Type 0, BuildingBlock: BEQFEK_clean_sbu_0, # of connection points: 5
#     Node 15, Type 0, BuildingBlock: BEQFEK_clean_sbu_0, # of connection points: 5
#     Edge 16, Type (0, 0), BuildingBlock: UVAHIK_clean_linker_0, # of connection points: 2
#     Edge 17, Type (0, 0), BuildingBlock: UVAHIK_clean_linker_0, # of connection points: 2
#     Edge 18, Type (0, 0), BuildingBlock: UVAHIK_clean_linker_0, # of connection points: 2
#     Edge 19, Type (0, 0), BuildingBlock: UVAHIK_clean_linker_0, # of connection points: 2
#     Edge 20, Type (0, 0), BuildingBlock: UVAHIK_clean_linker_0, # of connection points: 2
#     Edge 21, Type (0, 0), BuildingBlock: UVAHIK_clean_linker_0, # of connection points: 2
#     Edge 22, Type (0, 0), BuildingBlock: UVAHIK_clean_linker_0, # of connection points: 2
#     Edge 23, Type (0, 0), BuildingBlock: UVAHIK_clean_linker_0, # of connection points: 2
#     Edge 24, Type (0, 0), BuildingBlock: UVAHIK_clean_linker_0, # of connection points: 2
#     Edge 25, Type (0, 0), BuildingBlock: UVAHIK_clean_linker_0, # of connection points: 2
#     Edge 26, Type (0, 0), BuildingBlock: UVAHIK_clean_linker_0, # of connection points: 2
#     Edge 27, Type (0, 0), BuildingBlock: UVAHIK_clean_linker_0, # of connection points: 2
#     Edge 28, Type (0, 0), BuildingBlock: UVAHIK_clean_linker_0, # of connection points: 2
#     Edge 29, Type (0, 0), BuildingBlock: UVAHIK_clean_linker_0, # of connection points: 2
#     Edge 30, Type (0, 0), BuildingBlock: UVAHIK_clean_linker_0, # of connection points: 2
#     Edge 31, Type (0, 0), BuildingBlock: UVAHIK_clean_linker_0, # of connection points: 2
#     Edge 32, Type (0, 0), BuildingBlock: UVAHIK_clean_linker_0, # of connection points: 2
#     Edge 33, Type (0, 0), BuildingBlock: UVAHIK_clean_linker_0, # of connection points: 2
#     Edge 34, Type (0, 0), BuildingBlock: UVAHIK_clean_linker_0, # of connection points: 2
#     Edge 35, Type (0, 0), BuildingBlock: UVAHIK_clean_linker_0, # of connection points: 2
#     Edge 36, Type (0, 0), BuildingBlock: UVAHIK_clean_linker_0, # of connection points: 2
#     Edge 37, Type (0, 0), BuildingBlock: UVAHIK_clean_linker_0, # of connection points: 2
#     Edge 38, Type (0, 0), BuildingBlock: UVAHIK_clean_linker_0, # of connection points: 2
#     Edge 39, Type (0, 0), BuildingBlock: UVAHIK_clean_linker_0, # of connection points: 2
#     Edge 40, Type (0, 0), BuildingBlock: UVAHIK_clean_linker_0, # of connection points: 2
#     Edge 41, Type (0, 0), BuildingBlock: UVAHIK_clean_linker_0, # of connection points: 2
#     Edge 42, Type (0, 0), BuildingBlock: UVAHIK_clean_linker_0, # of connection points: 2
#     Edge 43, Type (0, 0), BuildingBlock: UVAHIK_clean_linker_0, # of connection points: 2
#     Edge 44, Type (0, 0), BuildingBlock: UVAHIK_clean_linker_0, # of connection points: 2
#     Edge 45, Type (0, 0), BuildingBlock: UVAHIK_clean_linker_0, # of connection points: 2
#     Edge 46, Type (0, 0), BuildingBlock: UVAHIK_clean_linker_0, # of connection points: 2
#     Edge 47, Type (0, 0), BuildingBlock: UVAHIK_clean_linker_0, # of connection points: 2
#     Edge 48, Type (0, 0), BuildingBlock: UVAHIK_clean_linker_0, # of connection points: 2
#     Edge 49, Type (0, 0), BuildingBlock: UVAHIK_clean_linker_0, # of connection points: 2
#     Edge 50, Type (0, 0), BuildingBlock: UVAHIK_clean_linker_0, # of connection points: 2
#     Edge 51, Type (0, 0), BuildingBlock: UVAHIK_clean_linker_0, # of connection points: 2
#     Edge 52, Type (0, 0), BuildingBlock: UVAHIK_clean_linker_0, # of connection points: 2
#     Edge 53, Type (0, 0), BuildingBlock: UVAHIK_clean_linker_0, # of connection points: 2
#     Edge 54, Type (0, 0), BuildingBlock: UVAHIK_clean_linker_0, # of connection points: 2
#     Edge 55, Type (0, 0), BuildingBlock: UVAHIK_clean_linker_0, # of connection points: 2
# Relax obj value: 0.067
# Max RMSD: 0.132
# Mean RMSD: 0.132
data_MOF--net-zfv--node1-BEQFEK_clean_sbu_0--edge1-UVAHIK_clean_linker_0
_symmetry_space_group_name_H-M    P1
_symmetry_Int_Tables_number       1
_symmetry_cell_setting            triclinic
loop_
_symmetry_equiv_pos_as_xyz
'x, y, z'
_cell_length_a     97.156344
_cell_length_b     97.071571
_cell_length_c     23.732817
_cell_angle_alpha  90.014662
_cell_angle_beta   89.981804
_cell_angle_gamma 90.010691
loop_
_atom_site_label
_atom_site_type_symbol
_atom_site_fract_x
_atom_site_fract_y
_atom_site_fract_z
_atom_type_partial_charge
Co0 Co 0.01469 0.60393 0.14778 0.0
Co1 Co 0.01518 0.60721 0.01657 0.0
C2 C 0.99146 0.61733 0.08316 0.0
O3 O -0.00268 0.61339 0.12837 0.0
O4 O -0.00293 0.6155 0.03518 0.0
C5 C 0.00298 0.59489 0.25236 0.0
O6 O 0.99166 0.59328 0.22277 0.0
C7 C 0.01006 0.60546 0.89275 0.0
C8 C 0.0316 0.60405 0.86321 0.0
C9 C 0.01809 0.60389 0.84458 0.0
N10 N 0.01852 0.60623 0.9376 0.0
N11 N 0.03135 0.60551 0.91942 0.0
C12 C 0.99473 0.60662 0.89632 0.0
H13 H 0.99026 0.59623 0.90298 0.0
H14 H 0.99043 0.61107 0.85702 0.0
H15 H 0.99174 0.61321 0.93234 0.0
C16 C 0.01936 0.57476 0.11677 0.0
N17 N 0.01719 0.58806 0.10334 0.0
N18 N 0.01688 0.58934 0.04818 0.0
C19 C 0.0186 0.57682 0.02468 0.0
C20 C 0.02035 0.56721 0.06734 0.0
C21 C 0.02118 0.56958 0.17568 0.0
H22 H 0.02731 0.57706 0.20054 0.0
H23 H 0.01093 0.56852 0.19579 0.0
H24 H 0.02642 0.55942 0.17627 0.0
O25 O 0.03026 0.61668 0.13786 0.0
O26 O 0.03002 0.61933 0.04515 0.0
H27 H 0.02737 0.57741 0.94212 0.0
H28 H 0.01613 0.5629 0.95396 0.0
C29 C 0.01772 0.574 0.96277 0.0
H30 H 0.00901 0.57984 0.94447 0.0
H31 H 0.03996 0.60577 0.94567 0.0
O32 O 0.01385 0.59911 0.22815 0.0
C33 C 0.03509 0.62208 0.09325 0.0
Co34 Co 0.65675 0.74484 0.40043 0.0
Co35 Co 0.65204 0.74653 0.27035 0.0
C36 C 0.64004 0.72367 0.33578 0.0
O37 O 0.64502 0.72895 0.38047 0.0
O38 O 0.64204 0.72919 0.28773 0.0
C39 C 0.66233 0.73114 0.50516 0.0
O40 O 0.65861 0.71997 0.47792 0.0
C41 C 0.65326 0.7417 0.14733 0.0
C42 C 0.6538 0.76326 0.11727 0.0
C43 C 0.65447 0.74972 0.09904 0.0
N44 N 0.65216 0.7502 0.19186 0.0
N45 N 0.65227 0.76304 0.17345 0.0
C46 C 0.65446 0.72638 0.15215 0.0
H47 H 0.65745 0.7234 0.19559 0.0
H48 H 0.66213 0.72237 0.12162 0.0
H49 H 0.64433 0.72164 0.14255 0.0
C50 C 0.6858 0.74618 0.36446 0.0
N51 N 0.67224 0.74568 0.35305 0.0
N52 N 0.67039 0.74614 0.29818 0.0
C53 C 0.68277 0.7469 0.27277 0.0
C54 C 0.69292 0.74699 0.31395 0.0
C55 C 0.69164 0.74667 0.42276 0.0
H56 H 0.68572 0.75412 0.44864 0.0
H57 H 0.69061 0.73636 0.44249 0.0
H58 H 0.70265 0.74972 0.42258 0.0
O59 O 0.64598 0.76202 0.39507 0.0
O60 O 0.64205 0.76236 0.30314 0.0
H61 H 0.68054 0.75657 0.19233 0.0
H62 H 0.69587 0.74613 0.19856 0.0
C63 C 0.68486 0.74696 0.21028 0.0
H64 H 0.67935 0.7381 0.19158 0.0
H65 H 0.65178 0.77168 0.19953 0.0
O66 O 0.66247 0.74266 0.47967 0.0
C67 C 0.64059 0.7676 0.35188 0.0
Co68 Co 0.51672 0.38815 0.64229 0.0
Co69 Co 0.51564 0.38226 0.51172 0.0
C70 C 0.5388 0.37204 0.5823 0.0
O71 O 0.53329 0.37706 0.62639 0.0
O72 O 0.53323 0.37345 0.53407 0.0
C73 C 0.52955 0.39552 0.74654 0.0
O74 O 0.54085 0.39374 0.71705 0.0
C75 C 0.52254 0.38464 0.39062 0.0
C76 C 0.50376 0.37598 0.35169 0.0
C77 C 0.51647 0.38163 0.33911 0.0
N78 N 0.51372 0.38102 0.43178 0.0
N79 N 0.50254 0.37583 0.40812 0.0
C80 C 0.53678 0.38994 0.40077 0.0
H81 H 0.53883 0.39095 0.44658 0.0
H82 H 0.53813 0.40011 0.3803 0.0
H83 H 0.54435 0.38277 0.38158 0.0
C84 C 0.51463 0.41689 0.60074 0.0
N85 N 0.51549 0.40322 0.59174 0.0
N86 N 0.51466 0.40077 0.53722 0.0
C87 C 0.51292 0.41281 0.50995 0.0
C88 C 0.51303 0.42341 0.54913 0.0
C89 C 0.51581 0.42345 0.65759 0.0
H90 H 0.52536 0.41981 0.67835 0.0
H91 H 0.51607 0.43485 0.65494 0.0
H92 H 0.50698 0.42017 0.68408 0.0
O93 O 0.5002 0.37621 0.6355 0.0
O94 O 0.50012 0.37184 0.54371 0.0
H95 H 0.50463 0.424 0.43881 0.0
H96 H 0.51966 0.41381 0.42437 0.0
C97 C 0.50989 0.41413 0.44833 0.0
H98 H 0.5032 0.40555 0.43429 0.0
H99 H 0.49405 0.37218 0.43053 0.0
O100 O 0.51794 0.39427 0.72223 0.0
C101 C 0.49494 0.37036 0.59257 0.0
Co102 Co 0.87273 0.24835 0.88888 0.0
Co103 Co 0.87869 0.24559 0.75962 0.0
C104 C 0.88961 0.26924 0.82527 0.0
O105 O 0.88435 0.26433 0.87008 0.0
O106 O 0.8881 0.26323 0.77789 0.0
C107 C 0.86691 0.26157 0.99496 0.0
O108 O 0.87126 0.27277 0.96957 0.0
C109 C 0.87689 0.25046 0.63711 0.0
C110 C 0.88072 0.22941 0.60516 0.0
C111 C 0.87736 0.24263 0.5881 0.0
N112 N 0.87965 0.24213 0.68094 0.0
N113 N 0.88215 0.22963 0.66142 0.0
C114 C 0.87265 0.26519 0.64325 0.0
H115 H 0.86922 0.2673 0.68705 0.0
H116 H 0.86428 0.26772 0.61315 0.0
H117 H 0.8816 0.27191 0.63381 0.0
C118 C 0.84403 0.24713 0.84806 0.0
N119 N 0.8577 0.24717 0.83883 0.0
N120 N 0.86008 0.24568 0.78455 0.0
C121 C 0.84794 0.24436 0.75759 0.0
C122 C 0.8374 0.24538 0.79683 0.0
C123 C 0.8376 0.2493 0.90466 0.0
H124 H 0.84 0.24037 0.93211 0.0
H125 H 0.8421 0.25862 0.92449 0.0
H126 H 0.82628 0.2506 0.90177 0.0
O127 O 0.8839 0.23131 0.88596 0.0
O128 O 0.8886 0.23011 0.79474 0.0
H129 H 0.85419 0.23331 0.68359 0.0
H130 H 0.83603 0.23679 0.68689 0.0
C131 C 0.84639 0.24102 0.69632 0.0
H132 H 0.84788 0.25051 0.67115 0.0
H133 H 0.88433 0.22112 0.68673 0.0
O134 O 0.86637 0.2503 0.9677 0.0
C135 C 0.88971 0.22538 0.84446 0.0
Co136 Co 0.01509 0.38874 0.84914 0.0
Co137 Co 0.01528 0.38193 0.97921 0.0
C138 C 0.99272 0.37204 0.90477 0.0
O139 O -0.00139 0.37742 0.86227 0.0
O140 O -0.00217 0.37313 0.954 0.0
C141 C 0.0026 0.3966 0.74499 0.0
O142 O 0.99126 0.39506 0.77452 0.0
C143 C 0.00796 0.38395 0.10027 0.0
C144 C 0.02636 0.37463 0.13953 0.0
C145 C 0.0138 0.38063 0.1519 0.0
N146 N 0.01676 0.38018 0.05926 0.0
N147 N 0.0277 0.37458 0.08314 0.0
C148 C 0.99391 0.38973 0.08979 0.0
H149 H 0.99205 0.39099 0.04394 0.0
H150 H 0.99279 0.39983 0.11103 0.0
H151 H 0.98607 0.3827 0.10799 0.0
C152 C 0.017 0.41713 0.89378 0.0
N153 N 0.01587 0.40344 0.9014 0.0
N154 N 0.0164 0.40065 0.95572 0.0
C155 C 0.01826 0.41251 0.98426 0.0
C156 C 0.01853 0.42332 0.94609 0.0
C157 C 0.01633 0.424 0.83743 0.0
H158 H 0.00707 0.42036 0.81458 0.0
H159 H 0.01587 0.43538 0.84117 0.0
H160 H 0.02549 0.42102 0.81229 0.0
O161 O 0.03169 0.37704 0.85674 0.0
O162 O 0.03109 0.37176 0.94771 0.0
H163 H 0.02691 0.42305 0.05636 0.0
H164 H 0.01151 0.41336 0.06984 0.0
C165 C 0.0213 0.41342 0.046 0.0
H166 H 0.02766 0.40454 0.05943 0.0
H167 H 0.03615 0.37075 0.06092 0.0
O168 O 0.01418 0.39515 0.76938 0.0
C169 C 0.03668 0.37082 0.89935 0.0
Co170 Co 0.87208 0.74241 0.09343 0.0
Co171 Co 0.87867 0.74345 0.22255 0.0
C172 C 0.88856 0.72026 0.15312 0.0
O173 O 0.88344 0.72599 0.10966 0.0
O174 O 0.88727 0.72561 0.20189 0.0
C175 C 0.86504 0.72957 0.98827 0.0
O176 O 0.86827 0.71812 0.01461 0.0
C177 C 0.87732 0.73848 0.34549 0.0
C178 C 0.88187 0.75944 0.37678 0.0
C179 C 0.87818 0.74635 0.39434 0.0
N180 N 0.88014 0.74669 0.30132 0.0
N181 N 0.88309 0.75912 0.32048 0.0
C182 C 0.87269 0.72384 0.33995 0.0
H183 H 0.86925 0.7217 0.29621 0.0
H184 H 0.86424 0.72162 0.37008 0.0
H185 H 0.88145 0.71692 0.34985 0.0
C186 C 0.8436 0.74403 0.13636 0.0
N187 N 0.8573 0.74354 0.1446 0.0
N188 N 0.85993 0.74428 0.19895 0.0
C189 C 0.84792 0.74551 0.227 0.0
C190 C 0.83722 0.74524 0.18836 0.0
C191 C 0.8369 0.74269 0.07986 0.0
H192 H 0.83999 0.75153 0.05303 0.0
H193 H 0.84059 0.73315 0.05912 0.0
H194 H 0.82552 0.7423 0.08305 0.0
O195 O 0.88356 0.75923 0.09759 0.0
O196 O 0.88924 0.75857 0.18797 0.0
H197 H 0.85459 0.75529 0.30331 0.0
H198 H 0.83637 0.75211 0.30022 0.0
C199 C 0.84664 0.7479 0.28909 0.0
H200 H 0.84805 0.73801 0.31161 0.0
H201 H 0.8854 0.76755 0.2949 0.0
O202 O 0.86548 0.74095 0.01477 0.0
C203 C 0.89011 0.76407 0.13953 0.0
Co204 Co 0.51526 0.60369 0.33532 0.0
Co205 Co 0.51515 0.60727 0.46643 0.0
C206 C 0.53796 0.61857 0.39804 0.0
O207 O 0.53216 0.61422 0.35333 0.0
O208 O 0.53267 0.61649 0.44645 0.0
C209 C 0.52722 0.59483 0.23106 0.0
O210 O 0.53858 0.59371 0.26075 0.0
C211 C 0.52059 0.60602 0.59021 0.0
C212 C 0.49914 0.60429 0.62052 0.0
C213 C 0.51268 0.60446 0.63874 0.0
N214 N 0.51203 0.60645 0.54559 0.0
N215 N 0.49926 0.60555 0.56424 0.0
C216 C 0.53589 0.60742 0.58605 0.0
H217 H 0.53873 0.61368 0.54887 0.0
H218 H 0.54055 0.59706 0.58106 0.0
H219 H 0.54015 0.61232 0.62454 0.0
C220 C 0.51201 0.57439 0.36813 0.0
N221 N 0.51378 0.58781 0.38071 0.0
N222 N 0.51426 0.58927 0.43578 0.0
C223 C 0.51303 0.57679 0.46005 0.0
C224 C 0.51143 0.56699 0.41805 0.0
C225 C 0.51003 0.56897 0.30968 0.0
H226 H 0.50356 0.57618 0.28498 0.0
H227 H 0.52021 0.56816 0.28871 0.0
H228 H 0.50512 0.55865 0.31005 0.0
O229 O 0.49901 0.61561 0.34532 0.0
O230 O 0.49961 0.61839 0.43794 0.0
H231 H 0.50434 0.57749 0.54274 0.0
H232 H 0.51593 0.56321 0.53159 0.0
C233 C 0.51405 0.57424 0.52211 0.0
H234 H 0.52263 0.58037 0.53982 0.0
H235 H 0.49059 0.60554 0.53828 0.0
O236 O 0.51619 0.59868 0.25512 0.0
C237 C 0.49412 0.62078 0.39031 0.0
Co238 Co 0.65594 0.24513 0.59898 0.0
Co239 Co 0.65219 0.24584 0.72988 0.0
C240 C 0.64085 0.26815 0.65971 0.0
O241 O 0.64529 0.26197 0.61599 0.0
O242 O 0.64281 0.26325 0.7089 0.0
C243 C 0.66453 0.25718 0.495 0.0
O244 O 0.6654 0.26851 0.52507 0.0
C245 C 0.65297 0.25145 0.85373 0.0
C246 C 0.65578 0.23009 0.88398 0.0
C247 C 0.65483 0.2436 0.90226 0.0
N248 N 0.65309 0.24288 0.80906 0.0
N249 N 0.65464 0.23016 0.82767 0.0
C250 C 0.65072 0.26666 0.84962 0.0
H251 H 0.64428 0.26914 0.81251 0.0
H252 H 0.6608 0.27188 0.84447 0.0
H253 H 0.64564 0.27065 0.8882 0.0
C254 C 0.68524 0.243 0.63232 0.0
N255 N 0.67177 0.24425 0.64457 0.0
N256 N 0.67024 0.24514 0.69952 0.0
C257 C 0.68273 0.24472 0.72402 0.0
C258 C 0.69263 0.24324 0.6823 0.0
C259 C 0.6908 0.24091 0.57413 0.0
H260 H 0.68377 0.23421 0.5496 0.0
H261 H 0.69147 0.25103 0.5526 0.0
H262 H 0.7012 0.23619 0.57515 0.0
O263 O 0.64434 0.2287 0.61003 0.0
O264 O 0.64131 0.22998 0.70237 0.0
H265 H 0.68258 0.23688 0.80814 0.0
H266 H 0.69606 0.24926 0.79488 0.0
C267 C 0.68519 0.24657 0.78583 0.0
H268 H 0.6785 0.2549 0.80211 0.0
H269 H 0.65517 0.22151 0.80165 0.0
O270 O 0.66095 0.24601 0.51875 0.0
C271 C 0.63913 0.22407 0.65538 0.0
Co272 Co 0.37295 0.24574 0.59202 0.0
Co273 Co 0.37709 0.24653 0.72281 0.0
C274 C 0.38865 0.2237 0.65493 0.0
O275 O 0.38397 0.2292 0.61015 0.0
O276 O 0.38667 0.22915 0.70313 0.0
C277 C 0.36468 0.23338 0.48742 0.0
O278 O 0.3644 0.22186 0.51646 0.0
C279 C 0.37657 0.2413 0.84674 0.0
C280 C 0.37354 0.26266 0.87659 0.0
C281 C 0.37459 0.24917 0.89512 0.0
N282 N 0.37639 0.2498 0.80191 0.0
N283 N 0.37473 0.26254 0.82027 0.0
C284 C 0.37899 0.22611 0.84292 0.0
H285 H 0.38572 0.22371 0.80661 0.0
H286 H 0.36901 0.22078 0.83656 0.0
H287 H 0.38387 0.22216 0.88198 0.0
C288 C 0.34368 0.24746 0.62663 0.0
N289 N 0.35723 0.24678 0.63834 0.0
N290 N 0.35894 0.24667 0.69332 0.0
C291 C 0.34651 0.24705 0.71841 0.0
C292 C 0.33645 0.24768 0.67702 0.0
C293 C 0.33788 0.24848 0.56838 0.0
H294 H 0.34438 0.25538 0.54235 0.0
H295 H 0.33792 0.23811 0.54876 0.0
H296 H 0.32718 0.25246 0.56895 0.0
O297 O 0.38445 0.26232 0.60064 0.0
O298 O 0.38777 0.26229 0.69296 0.0
H299 H 0.34703 0.25574 0.80113 0.0
H300 H 0.33344 0.2433 0.79095 0.0
C301 C 0.34428 0.24585 0.78063 0.0
H302 H 0.35098 0.23765 0.79781 0.0
H303 H 0.37412 0.27115 0.79407 0.0
O304 O 0.36777 0.24458 0.51204 0.0
C305 C 0.38977 0.26757 0.64463 0.0
Co306 Co 0.15673 0.74875 0.10245 0.0
Co307 Co 0.15113 0.7462 0.232 0.0
C308 C 0.14097 0.77032 0.16738 0.0
O309 O 0.14589 0.76528 0.12214 0.0
O310 O 0.14239 0.76419 0.21451 0.0
C311 C 0.1629 0.76176 0.99631 0.0
O312 O 0.15896 0.77312 0.02169 0.0
C313 C 0.1532 0.75088 0.3545 0.0
C314 C 0.14911 0.72984 0.38609 0.0
C315 C 0.15269 0.743 0.40334 0.0
N316 N 0.15026 0.74264 0.31057 0.0
N317 N 0.14761 0.73015 0.32987 0.0
C318 C 0.15764 0.76556 0.34857 0.0
H319 H 0.1611 0.76766 0.30481 0.0
H320 H 0.16605 0.76796 0.37869 0.0
H321 H 0.14879 0.77239 0.35811 0.0
C322 C 0.18553 0.74636 0.14192 0.0
N323 N 0.17188 0.74681 0.15167 0.0
N324 N 0.16961 0.74551 0.20609 0.0
C325 C 0.18176 0.74393 0.23262 0.0
C326 C 0.19223 0.74457 0.19298 0.0
C327 C 0.19191 0.74835 0.08509 0.0
H328 H 0.18882 0.73971 0.05716 0.0
H329 H 0.18796 0.75802 0.0662 0.0
H330 H 0.20329 0.74888 0.08738 0.0
O331 O 0.14462 0.73231 0.10544 0.0
O332 O 0.14042 0.73131 0.1971 0.0
H333 H 0.17554 0.73332 0.30768 0.0
H334 H 0.19371 0.73664 0.30366 0.0
C335 C 0.18338 0.7409 0.29413 0.0
H336 H 0.182 0.75053 0.31852 0.0
H337 H 0.14528 0.72171 0.30441 0.0
O338 O 0.16303 0.75049 0.02353 0.0
C339 C 0.13874 0.72668 0.14748 0.0
Co340 Co 0.15654 0.24467 0.89435 0.0
Co341 Co 0.15095 0.24625 0.76456 0.0
C342 C 0.13868 0.22399 0.83323 0.0
O343 O 0.14413 0.2292 0.87706 0.0
O344 O 0.14057 0.22927 0.78467 0.0
C345 C 0.16224 0.23125 -0.00052 0.0
O346 O 0.1582 0.22011 0.97279 0.0
C347 C 0.15257 0.24089 0.64208 0.0
C348 C 0.15025 0.26212 0.60968 0.0
C349 C 0.15276 0.24868 0.59296 0.0
N350 N 0.15029 0.24944 0.68568 0.0
N351 N 0.14868 0.26205 0.66584 0.0
C352 C 0.15578 0.2259 0.64852 0.0
H353 H 0.15885 0.22358 0.69256 0.0
H354 H 0.16409 0.22281 0.61901 0.0
H355 H 0.14644 0.2198 0.63835 0.0
C356 C 0.18535 0.24425 0.85443 0.0
N357 N 0.17171 0.24466 0.8447 0.0
N358 N 0.1695 0.24547 0.79007 0.0
C359 C 0.18174 0.24585 0.76331 0.0
C360 C 0.19215 0.24494 0.80313 0.0
C361 C 0.1916 0.24269 0.91171 0.0
H362 H 0.18883 0.25175 0.9379 0.0
H363 H 0.18726 0.23341 0.93234 0.0
H364 H 0.20295 0.24166 0.90981 0.0
O365 O 0.14613 0.26218 0.88923 0.0
O366 O 0.14177 0.26242 0.79762 0.0
H367 H 0.17635 0.25633 0.68693 0.0
H368 H 0.19418 0.25156 0.69118 0.0
C369 C 0.18355 0.24824 0.70142 0.0
H370 H 0.18134 0.23857 0.67836 0.0
H371 H 0.14707 0.27073 0.69092 0.0
O372 O 0.16266 0.24268 0.97337 0.0
C373 C 0.14069 0.2678 0.84623 0.0
Co374 Co 0.37242 0.74595 0.40892 0.0
Co375 Co 0.37681 0.74526 0.27816 0.0
C376 C 0.3883 0.76801 0.3468 0.0
O377 O 0.38347 0.76252 0.39135 0.0
O378 O 0.38641 0.76257 0.29851 0.0
C379 C 0.3638 0.75819 0.51338 0.0
O380 O 0.36336 0.76971 0.48436 0.0
C381 C 0.3763 0.75067 0.15432 0.0
C382 C 0.37418 0.72926 0.12383 0.0
C383 C 0.37472 0.7428 0.10567 0.0
N384 N 0.37637 0.74209 0.19894 0.0
N385 N 0.37525 0.72933 0.18018 0.0
C386 C 0.37805 0.76595 0.15863 0.0
H387 H 0.38437 0.76862 0.19584 0.0
H388 H 0.36781 0.77085 0.1637 0.0
H389 H 0.38305 0.77012 0.12021 0.0
C390 C 0.34327 0.74364 0.37337 0.0
N391 N 0.3568 0.7448 0.36201 0.0
N392 N 0.35861 0.74498 0.30708 0.0
C393 C 0.34624 0.74416 0.28165 0.0
C394 C 0.33614 0.74316 0.32277 0.0
C395 C 0.33744 0.74221 0.43144 0.0
H396 H 0.34417 0.73546 0.45719 0.0
H397 H 0.33709 0.75251 0.45166 0.0
H398 H 0.32689 0.73783 0.43049 0.0
O399 O 0.38397 0.7294 0.40055 0.0
O400 O 0.38739 0.72949 0.30826 0.0
H401 H 0.34726 0.73524 0.19941 0.0
H402 H 0.3332 0.74719 0.20855 0.0
C403 C 0.3441 0.74508 0.21931 0.0
H404 H 0.35052 0.75348 0.20193 0.0
H405 H 0.37494 0.72066 0.20612 0.0
O406 O 0.36709 0.74704 0.48877 0.0
C407 C 0.38934 0.72419 0.35658 0.0
Co408 Co 0.51324 0.10307 0.66008 0.0
Co409 Co 0.51555 0.10844 0.53036 0.0
C410 C 0.49239 0.12007 0.59542 0.0
O411 O 0.49739 0.11484 0.64014 0.0
O412 O 0.49817 0.11834 0.54773 0.0
C413 C 0.49956 0.09749 0.76514 0.0
O414 O 0.48845 0.10162 0.7386 0.0
C415 C 0.51103 0.10776 0.40705 0.0
C416 C 0.53263 0.10752 0.37764 0.0
C417 C 0.51915 0.10682 0.35891 0.0
N418 N 0.51943 0.10874 0.45194 0.0
N419 N 0.53229 0.10882 0.43393 0.0
C420 C 0.49572 0.10643 0.41131 0.0
H421 H 0.49267 0.10332 0.45454 0.0
H422 H 0.49184 0.09878 0.38039 0.0
H423 H 0.49093 0.11654 0.40187 0.0
C424 C 0.51442 0.07416 0.6215 0.0
N425 N 0.51428 0.0878 0.61136 0.0
N426 N 0.51506 0.08995 0.55671 0.0
C427 C 0.51575 0.07768 0.53022 0.0
C428 C 0.51539 0.0673 0.57041 0.0
C429 C 0.51424 0.06797 0.67922 0.0
H430 H 0.52174 0.07342 0.70652 0.0
H431 H 0.50386 0.06935 0.69787 0.0
H432 H 0.51681 0.05683 0.67827 0.0
O433 O 0.53032 0.11407 0.65656 0.0
O434 O 0.53119 0.11831 0.56492 0.0
H435 H 0.52557 0.08054 0.45038 0.0
H436 H 0.51539 0.06499 0.45467 0.0
C437 C 0.516 0.07595 0.46754 0.0
H438 H 0.5071 0.0814 0.44903 0.0
H439 H 0.54087 0.10926 0.46032 0.0
O440 O 0.51097 0.09704 0.739 0.0
C441 C 0.5361 0.11965 0.61426 0.0
Co442 Co 0.01283 0.88692 0.15017 0.0
Co443 Co 0.01405 0.88214 0.01984 0.0
C444 C 0.03595 0.87116 0.09238 0.0
O445 O 0.02952 0.8758 0.13516 0.0
O446 O 0.03141 0.87301 0.04256 0.0
C447 C 0.02478 0.89569 0.2541 0.0
O448 O 0.03617 0.89625 0.22433 0.0
C449 C 0.01989 0.88226 0.896 0.0
C450 C -0.00146 0.88436 0.86492 0.0
C451 C 0.01209 0.88363 0.84707 0.0
N452 N 0.01125 0.88244 0.94043 0.0
N453 N -0.00146 0.88356 0.92132 0.0
C454 C 0.03513 0.88044 0.90073 0.0
H455 H 0.03772 0.87439 0.9388 0.0
H456 H 0.04009 0.89069 0.90452 0.0
H457 H 0.03929 0.87514 0.86294 0.0
C458 C 0.01127 0.91598 0.11337 0.0
N459 N 0.01236 0.90241 0.10274 0.0
N460 N 0.01325 0.90046 0.048 0.0
C461 C 0.01296 0.9128 0.02201 0.0
C462 C 0.01161 0.92301 0.06253 0.0
C463 C 0.00925 0.92197 0.17089 0.0
H464 H 0.00236 0.91525 0.19603 0.0
H465 H 0.01935 0.92253 0.19255 0.0
H466 H 0.00478 0.93248 0.16866 0.0
O467 O -0.00383 0.87566 0.1394 0.0
O468 O -0.0017 0.8712 0.0482 0.0
H469 H 0.00519 0.91175 0.93789 0.0
H470 H 0.01723 0.92564 0.94934 0.0
C471 C 0.01478 0.91479 0.95992 0.0
H472 H 0.02327 0.90816 0.9447 0.0
H473 H 0.98984 0.88404 0.94704 0.0
O474 O 0.01358 0.89233 0.23008 0.0
C475 C 0.992 0.86973 0.0948 0.0
Co476 Co 0.51476 0.88713 0.34926 0.0
Co477 Co 0.51641 0.88241 0.4794 0.0
C478 C 0.49429 0.86942 0.41261 0.0
O479 O 0.49943 0.87462 0.36811 0.0
O480 O 0.49958 0.87169 0.46088 0.0
C481 C 0.50114 0.89208 0.24397 0.0
O482 O 0.49014 0.88773 0.2708 0.0
C483 C 0.51107 0.88423 0.6017 0.0
C484 C 0.53242 0.88343 0.63389 0.0
C485 C 0.51887 0.88509 0.65066 0.0
N486 N 0.51972 0.88237 0.55812 0.0
N487 N 0.53242 0.88168 0.57781 0.0
C488 C 0.49591 0.88641 0.59534 0.0
H489 H 0.49338 0.88935 0.55134 0.0
H490 H 0.49227 0.89449 0.6249 0.0
H491 H 0.49048 0.87667 0.6054 0.0
C492 C 0.51374 0.91622 0.38612 0.0
N493 N 0.51452 0.90264 0.39719 0.0
N494 N 0.51521 0.90077 0.45205 0.0
C495 C 0.51502 0.91316 0.47766 0.0
C496 C 0.51396 0.92331 0.4368 0.0
C497 C 0.51222 0.92212 0.32821 0.0
H498 H 0.50281 0.91784 0.30838 0.0
H499 H 0.51145 0.93351 0.32889 0.0
H500 H 0.52116 0.91897 0.30205 0.0
O501 O 0.53243 0.87705 0.35509 0.0
O502 O 0.5327 0.87328 0.44711 0.0
H503 H 0.51918 0.92629 0.54963 0.0
H504 H 0.50719 0.91246 0.56172 0.0
C505 C 0.5168 0.91538 0.53967 0.0
H506 H 0.52532 0.90889 0.55556 0.0
H507 H 0.54116 0.88054 0.55266 0.0
O508 O 0.51255 0.89286 0.26994 0.0
C509 C 0.53812 0.87198 0.39867 0.0
Co510 Co 0.01337 0.10374 0.85522 0.0
Co511 Co 0.01262 0.10903 0.98617 0.0
C512 C 0.03466 0.12106 0.91463 0.0
O513 O 0.02919 0.11585 0.87089 0.0
O514 O 0.02954 0.11909 0.9634 0.0
C515 C 0.02661 0.09731 0.75111 0.0
O516 O 0.03775 0.09948 0.78122 0.0
C517 C 0.01991 0.1069 0.10703 0.0
C518 C 0.0006 0.11408 0.14666 0.0
C519 C 0.01372 0.10941 0.15874 0.0
N520 N 0.01078 0.10988 0.06619 0.0
N521 N -0.00072 0.11417 0.09028 0.0
C522 C 0.03449 0.1027 0.0964 0.0
H523 H 0.03651 0.10179 0.05053 0.0
H524 H 0.03665 0.0927 0.11706 0.0
H525 H 0.04153 0.11046 0.11513 0.0
C526 C 0.01335 0.0748 0.89462 0.0
N527 N 0.01338 0.08844 0.90473 0.0
N528 N 0.01275 0.09057 0.95951 0.0
C529 C 0.01201 0.07831 0.98591 0.0
C530 C 0.01252 0.06793 0.94578 0.0
C531 C 0.01461 0.06861 0.83708 0.0
H532 H 0.02396 0.07274 0.81628 0.0
H533 H 0.01536 0.05723 0.83852 0.0
H534 H 0.00559 0.07168 0.81133 0.0
O535 O -0.00384 0.11453 0.86375 0.0
O536 O -0.00364 0.11861 0.95574 0.0
H537 H 0.00518 0.06622 0.05727 0.0
H538 H 0.01947 0.07755 0.07048 0.0
C539 C 0.00956 0.07651 0.04777 0.0
H540 H 0.00234 0.08448 0.06328 0.0
H541 H 0.9905 0.11719 0.0682 0.0
O542 O 0.01489 0.098 0.77492 0.0
C543 C 0.99082 0.11993 0.9075 0.0
C544 C 0.02301 0.60603 0.74226 0.0
C545 C 0.01401 0.60174 0.78516 0.0
C546 C 0.0202 0.60298 0.68612 0.0
C547 C 0.99384 0.59642 0.58438 0.0
H548 H 0.02322 0.57878 0.50034 0.0
C549 C 0.99101 0.58861 0.34259 0.0
C550 C 0.00307 0.59241 0.31376 0.0
C551 C 0.9911 0.58713 0.40126 0.0
C552 C 0.01492 0.58374 0.52312 0.0
H553 H -0.00488 0.59051 0.80236 0.0
H554 H 0.98987 0.58585 0.70337 0.0
H555 H 0.02546 0.58181 0.60188 0.0
H556 H 0.02473 0.59732 0.32365 0.0
H557 H 0.02483 0.59503 0.42518 0.0
H558 H 0.98363 0.59911 0.50519 0.0
C559 C -0.00093 0.59162 0.71388 0.0
C560 C 0.01619 0.58541 0.58117 0.0
C561 C 0.00199 0.59448 0.77044 0.0
C562 C 0.01526 0.59437 0.34448 0.0
C563 C 0.01534 0.59293 0.40282 0.0
C564 C 0.99263 0.59492 0.52596 0.0
C565 C 0.00829 0.59566 0.67151 0.0
C566 C 0.00586 0.59211 0.61195 0.0
C567 C 0.00325 0.58941 0.43203 0.0
C568 C 0.00337 0.58895 0.49452 0.0
H569 H 0.03236 0.61161 0.75214 0.0
H570 H 0.02739 0.60632 0.65397 0.0
H571 H 0.98576 0.60164 0.60748 0.0
H572 H 0.98146 0.58698 0.32001 0.0
H573 H 0.98165 0.5843 0.42253 0.0
C574 C 0.65151 0.73372 0.01635 0.0
C575 C 0.65745 0.74553 0.04048 0.0
C576 C 0.65371 0.73067 0.9594 0.0
C577 C 0.66125 0.74842 0.82757 0.0
H578 H 0.66952 0.71222 0.76734 0.0
C579 C 0.6715 0.74178 0.593 0.0
C580 C 0.66485 0.73072 0.56636 0.0
C581 C 0.67234 0.74232 0.65157 0.0
C582 C 0.66712 0.72237 0.78358 0.0
H583 H 0.6707 0.7631 0.02475 0.0
H584 H 0.6745 0.75779 0.92587 0.0
H585 H 0.66731 0.71538 0.86942 0.0
H586 H 0.65451 0.71119 0.57977 0.0
H587 H 0.65564 0.71233 0.68239 0.0
H588 H 0.66068 0.75545 0.74257 0.0
C589 C 0.66805 0.75097 0.95057 0.0
C590 C 0.66586 0.72416 0.84189 0.0
C591 C 0.66587 0.754 0.00717 0.0
C592 C 0.65969 0.71985 0.59925 0.0
C593 C 0.66039 0.72047 0.65803 0.0
C594 C 0.66242 0.74664 0.76961 0.0
C595 C 0.66178 0.73944 0.9258 0.0
C596 C 0.663 0.73724 0.86433 0.0
C597 C 0.66637 0.73192 0.68482 0.0
C598 C 0.66546 0.73362 0.74685 0.0
H599 H 0.64473 0.72717 0.04063 0.0
H600 H 0.64864 0.72179 0.94111 0.0
H601 H 0.65874 0.75857 0.84363 0.0
H602 H 0.67577 0.75019 0.56862 0.0
H603 H 0.67736 0.7511 0.67088 0.0
C604 C 0.52619 0.39726 0.26524 0.0
C605 C 0.52167 0.38412 0.28165 0.0
C606 C 0.52931 0.39997 0.20872 0.0
C607 C 0.52377 0.40401 0.08219 0.0
H608 H 0.54405 0.37807 0.98966 0.0
C609 C 0.51837 0.39998 0.8401 0.0
C610 C 0.53032 0.39742 0.80837 0.0
C611 C 0.51892 0.40029 0.89897 0.0
C612 C 0.53851 0.38551 0.01502 0.0
H613 H 0.51702 0.36349 0.25274 0.0
H614 H 0.52272 0.36811 0.15425 0.0
H615 H 0.54278 0.37457 0.09143 0.0
H616 H 0.55233 0.39377 0.81357 0.0
H617 H 0.55323 0.39423 0.91628 0.0
H618 H 0.51915 0.41471 0.00546 0.0
C619 C 0.52394 0.3763 0.18487 0.0
C620 C 0.5377 0.38344 0.07317 0.0
C621 C 0.52064 0.37366 0.24109 0.0
C622 C 0.54292 0.39572 0.83671 0.0
C623 C 0.54344 0.39591 0.89555 0.0
C624 C 0.52444 0.40599 0.02388 0.0
C625 C 0.52807 0.38954 0.1679 0.0
C626 C 0.53016 0.39255 0.10724 0.0
C627 C 0.53141 0.39795 0.92731 0.0
C628 C 0.53167 0.39665 0.98961 0.0
H629 H 0.52666 0.4056 0.29543 0.0
H630 H 0.53245 0.41027 0.19673 0.0
H631 H 0.51779 0.41113 0.1074 0.0
H632 H 0.50852 0.40137 0.81954 0.0
H633 H 0.50946 0.40179 0.92234 0.0
C634 C 0.87745 0.25919 0.50649 0.0
C635 C 0.87361 0.24646 0.52989 0.0
C636 C 0.87476 0.26201 0.44967 0.0
C637 C 0.86951 0.24353 0.31651 0.0
H638 H 0.85737 0.27882 0.25832 0.0
C639 C 0.8584 0.24998 0.08219 0.0
C640 C 0.86425 0.26159 0.05624 0.0
C641 C 0.85757 0.24916 0.14076 0.0
C642 C 0.86082 0.26894 0.27402 0.0
H643 H 0.86348 0.22698 0.51322 0.0
H644 H 0.85867 0.23194 0.41481 0.0
H645 H 0.85988 0.27558 0.36021 0.0
H646 H 0.87307 0.2818 0.07115 0.0
H647 H 0.87184 0.28025 0.17364 0.0
H648 H 0.87073 0.23689 0.23101 0.0
C649 C 0.86396 0.23965 0.43973 0.0
C650 C 0.86227 0.2671 0.33225 0.0
C651 C 0.86669 0.23682 0.49612 0.0
C652 C 0.86854 0.2727 0.08994 0.0
C653 C 0.86778 0.27184 0.14868 0.0
C654 C 0.86808 0.24537 0.25864 0.0
C655 C 0.86822 0.25214 0.41549 0.0
C656 C 0.86658 0.25434 0.35402 0.0
C657 C 0.86267 0.25989 0.1747 0.0
C658 C 0.86368 0.25805 0.23664 0.0
H659 H 0.88302 0.26671 0.53123 0.0
H660 H 0.87828 0.27167 0.43198 0.0
H661 H 0.87317 0.23368 0.33182 0.0
H662 H 0.85482 0.24134 0.05732 0.0
H663 H 0.85327 0.23995 0.15953 0.0
C664 C 0.0094 0.37292 0.25013 0.0
C665 C 0.00871 0.38336 0.20939 0.0
C666 C 0.0064 0.37577 0.30648 0.0
C667 C 0.99345 0.38365 0.41906 0.0
H668 H 0.01339 0.41438 0.48449 0.0
C669 C 0.98916 0.39694 0.65499 0.0
C670 C 0.00184 0.39833 0.68304 0.0
C671 C 0.98858 0.39689 0.59615 0.0
C672 C 0.00772 0.4058 0.46673 0.0
H673 H 0.00461 0.40502 0.19546 0.0
H674 H -0.00066 0.41005 0.29433 0.0
H675 H 0.01429 0.41048 0.38265 0.0
H676 H 0.02375 0.40148 0.67122 0.0
H677 H 0.02271 0.4015 0.56838 0.0
H678 H 0.98716 0.37874 0.50312 0.0
C679 C 0.00199 0.39961 0.28241 0.0
C680 C 0.00813 0.40365 0.40846 0.0
C681 C 0.0048 0.3967 0.22577 0.0
C682 C 0.01383 0.40034 0.65092 0.0
C683 C 0.01323 0.40042 0.59202 0.0
C684 C 0.99291 0.38589 0.47718 0.0
C685 C 0.00292 0.3892 0.32342 0.0
C686 C 0.00121 0.39239 0.38418 0.0
C687 C 0.00064 0.39838 0.56403 0.0
C688 C 0.00023 0.39685 0.50178 0.0
H689 H 0.01256 0.3626 0.23853 0.0
H690 H 0.00738 0.36757 0.33721 0.0
H691 H 0.98797 0.37494 0.40145 0.0
H692 H 0.97972 0.39541 0.67839 0.0
H693 H 0.97872 0.39546 0.57573 0.0
C694 C 0.87758 0.72996 0.47665 0.0
C695 C 0.87432 0.74279 0.45277 0.0
C696 C 0.87475 0.72739 0.53359 0.0
C697 C 0.87038 0.74634 0.66603 0.0
H698 H 0.85571 0.71212 0.7251 0.0
C699 C 0.85784 0.74146 0.8998 0.0
C700 C 0.86265 0.72953 0.92682 0.0
C701 C 0.85739 0.74214 0.84113 0.0
C702 C 0.85989 0.7217 0.70917 0.0
H703 H 0.86507 0.76274 0.46877 0.0
H704 H 0.86006 0.75824 0.56733 0.0
H705 H 0.85882 0.71487 0.62322 0.0
H706 H 0.86998 0.70867 0.91369 0.0
H707 H 0.86944 0.70996 0.81108 0.0
H708 H 0.87173 0.75316 0.75125 0.0
C709 C 0.865 0.75024 0.54269 0.0
C710 C 0.86167 0.72326 0.65095 0.0
C711 C 0.86785 0.75281 0.4862 0.0
C712 C 0.86625 0.71802 0.89405 0.0
C713 C 0.86589 0.71874 0.83523 0.0
C714 C 0.86863 0.74479 0.72389 0.0
C715 C 0.86867 0.73763 0.56737 0.0
C716 C 0.86686 0.73565 0.62886 0.0
C717 C 0.86184 0.73096 0.80816 0.0
C718 C 0.86329 0.73249 0.74621 0.0
H719 H 0.8828 0.72214 0.45219 0.0
H720 H 0.87781 0.71761 0.55167 0.0
H721 H 0.8747 0.7559 0.65042 0.0
H722 H 0.85481 0.75044 0.92393 0.0
H723 H 0.85389 0.75159 0.82153 0.0
C724 C 0.52906 0.59558 0.71293 0.0
C725 C 0.51688 0.60255 0.69816 0.0
C726 C 0.53203 0.59278 0.76951 0.0
C727 C 0.5149 0.58587 0.90132 0.0
H728 H 0.54687 0.60029 0.97929 0.0
C729 C 0.51509 0.59403 0.13863 0.0
C730 C 0.52729 0.59242 0.16961 0.0
C731 C 0.51515 0.59275 0.08021 0.0
C732 C 0.53805 0.5959 0.95795 0.0
H733 H 0.49835 0.61208 0.73116 0.0
H734 H 0.5034 0.60689 0.82933 0.0
H735 H 0.5449 0.60308 0.87706 0.0
H736 H 0.54908 0.58774 0.16373 0.0
H737 H 0.54915 0.58533 0.06111 0.0
H738 H 0.5079 0.57877 0.98149 0.0
C739 C 0.51067 0.60372 0.7972 0.0
C740 C 0.53693 0.59756 0.89957 0.0
C741 C 0.50782 0.6067 0.74106 0.0
C742 C 0.53951 0.58909 0.14096 0.0
C743 C 0.53957 0.58778 0.08222 0.0
C744 C 0.51609 0.58405 0.95932 0.0
C745 C 0.5227 0.59661 0.81183 0.0
C746 C 0.52511 0.59297 0.87131 0.0
C747 C 0.5274 0.58974 0.05119 0.0
C748 C 0.52742 0.5895 0.98866 0.0
H749 H 0.53602 0.59174 0.68106 0.0
H750 H 0.54132 0.58718 0.78005 0.0
H751 H 0.50579 0.58207 0.88005 0.0
H752 H 0.50549 0.5966 0.15932 0.0
H753 H 0.50564 0.5946 0.05768 0.0
C754 C 0.66966 0.26988 0.40529 0.0
C755 C 0.66682 0.25746 0.43349 0.0
C756 C 0.67081 0.27014 0.34652 0.0
C757 C 0.67507 0.24716 0.22237 0.0
H758 H 0.65481 0.27549 0.14228 0.0
C759 C 0.65255 0.23857 0.00435 0.0
C760 C 0.65637 0.24787 0.96177 0.0
C761 C 0.65538 0.24145 0.06059 0.0
C762 C 0.66067 0.26766 0.16418 0.0
H763 H 0.66336 0.23554 0.42237 0.0
H764 H 0.6651 0.23603 0.32062 0.0
H765 H 0.65773 0.27726 0.24453 0.0
H766 H 0.66635 0.26749 0.94528 0.0
H767 H 0.67067 0.27281 0.04453 0.0
H768 H 0.67729 0.23718 0.14248 0.0
C769 C 0.66667 0.24555 0.34355 0.0
C770 C 0.66241 0.26867 0.22256 0.0
C771 C 0.66555 0.24528 0.40202 0.0
C772 C 0.66279 0.26033 0.97695 0.0
C773 C 0.66545 0.26331 0.03366 0.0
C774 C 0.67319 0.24608 0.16437 0.0
C775 C 0.66918 0.25799 0.315 0.0
C776 C 0.66926 0.25819 0.25247 0.0
C777 C 0.66201 0.25374 0.07563 0.0
C778 C 0.66565 0.2561 0.13513 0.0
H779 H 0.67074 0.27943 0.42844 0.0
H780 H 0.67287 0.27986 0.32577 0.0
H781 H 0.6807 0.2391 0.24393 0.0
H782 H 0.64759 0.22889 0.9941 0.0
H783 H 0.65251 0.23399 0.09246 0.0
C784 C 0.35985 0.221 0.39663 0.0
C785 C 0.36235 0.23334 0.42592 0.0
C786 C 0.3587 0.22101 0.33784 0.0
C787 C 0.35407 0.24458 0.21553 0.0
H788 H 0.37476 0.21691 0.13333 0.0
C789 C 0.37648 0.25421 0.99743 0.0
C790 C 0.37289 0.2449 0.95457 0.0
C791 C 0.37363 0.25121 0.05358 0.0
C792 C 0.36878 0.22457 0.15583 0.0
H793 H 0.36522 0.2554 0.41669 0.0
H794 H 0.36353 0.25539 0.31499 0.0
H795 H 0.37183 0.21463 0.23538 0.0
H796 H 0.36314 0.22519 0.93746 0.0
H797 H 0.35883 0.21966 0.03642 0.0
H798 H 0.35175 0.2549 0.13642 0.0
C799 C 0.36219 0.24571 0.33703 0.0
C800 C 0.36704 0.22326 0.2141 0.0
C801 C 0.36328 0.24571 0.39551 0.0
C802 C 0.36658 0.23236 0.96934 0.0
C803 C 0.36391 0.22925 0.0259 0.0
C804 C 0.35597 0.24597 0.15763 0.0
C805 C 0.36002 0.23337 0.30736 0.0
C806 C 0.36001 0.23348 0.24481 0.0
C807 C 0.3672 0.23879 0.06821 0.0
C808 C 0.36365 0.23618 0.12765 0.0
H809 H 0.35902 0.2113 0.41894 0.0
H810 H 0.3569 0.21135 0.31624 0.0
H811 H 0.3483 0.25245 0.23765 0.0
H812 H 0.38132 0.26397 0.9875 0.0
H813 H 0.37636 0.25866 0.0857 0.0
C814 C 0.16332 0.73697 0.49512 0.0
C815 C 0.15652 0.74674 0.46156 0.0
C816 C 0.16613 0.73973 0.55152 0.0
C817 C 0.16825 0.76708 0.65927 0.0
H818 H 0.15917 0.73702 0.76025 0.0
C819 C 0.16168 0.77288 0.90124 0.0
C820 C 0.16567 0.7617 0.93514 0.0
C821 C 0.16254 0.77197 0.84254 0.0
C822 C 0.162 0.74545 0.7327 0.0
H823 H 0.1474 0.76711 0.46056 0.0
H824 H 0.15227 0.77195 0.55979 0.0
H825 H 0.1568 0.73386 0.65938 0.0
H826 H 0.1747 0.74126 0.93452 0.0
H827 H 0.17645 0.7398 0.83239 0.0
H828 H 0.17327 0.77873 0.73331 0.0
C829 C 0.15565 0.76225 0.54195 0.0
C830 C 0.16061 0.74364 0.6748 0.0
C831 C 0.15288 0.7595 0.48515 0.0
C832 C 0.17134 0.74996 0.90947 0.0
C833 C 0.17229 0.7491 0.85095 0.0
C834 C 0.16967 0.7689 0.71752 0.0
C835 C 0.16206 0.75226 0.57593 0.0
C836 C 0.16374 0.75441 0.63739 0.0
C837 C 0.16748 0.75991 0.81677 0.0
C838 C 0.16657 0.75807 0.75482 0.0
H839 H 0.16638 0.7271 0.47787 0.0
H840 H 0.17131 0.73193 0.57631 0.0
H841 H 0.17081 0.77553 0.63138 0.0
H842 H 0.15729 0.78207 0.91983 0.0
H843 H 0.1587 0.78045 0.8174 0.0
C844 C 0.16415 0.25377 0.50186 0.0
C845 C 0.15647 0.2446 0.53502 0.0
C846 C 0.16676 0.25089 0.44544 0.0
C847 C 0.16668 0.22395 0.33614 0.0
H848 H 0.15946 0.25499 0.2376 0.0
C849 C 0.16024 0.21974 0.09349 0.0
C850 C 0.16485 0.23088 0.06071 0.0
C851 C 0.16102 0.22029 0.15226 0.0
C852 C 0.16177 0.24627 0.26444 0.0
H853 H 0.14568 0.22506 0.53544 0.0
H854 H 0.15021 0.21999 0.43598 0.0
H855 H 0.15734 0.25782 0.3387 0.0
H856 H 0.17488 0.25083 0.06332 0.0
H857 H 0.17653 0.25166 0.1656 0.0
H858 H 0.171 0.21238 0.26118 0.0
C859 C 0.15438 0.22933 0.45421 0.0
C860 C 0.16051 0.24789 0.32246 0.0
C861 C 0.15181 0.23221 0.5111 0.0
C862 C 0.17104 0.24218 0.08753 0.0
C863 C 0.17193 0.24268 0.14613 0.0
C864 C 0.16799 0.22233 0.27775 0.0
C865 C 0.16161 0.23882 0.42059 0.0
C866 C 0.163 0.23679 0.35899 0.0
C867 C 0.16651 0.23196 0.17923 0.0
C868 C 0.1656 0.23351 0.24132 0.0
H869 H 0.16802 0.26333 0.5194 0.0
H870 H 0.17259 0.25827 0.42088 0.0
H871 H 0.16871 0.21524 0.36341 0.0
H872 H 0.15543 0.21088 0.07395 0.0
H873 H 0.1567 0.21189 0.17653 0.0
C874 C 0.36275 0.74587 0.60539 0.0
C875 C 0.36152 0.7582 0.57493 0.0
C876 C 0.36176 0.74586 0.66391 0.0
C877 C 0.36632 0.7685 0.78658 0.0
H878 H 0.35198 0.73652 0.865 0.0
C879 C 0.36622 0.75942 0.03156 0.0
C880 C 0.37294 0.74708 0.04625 0.0
C881 C 0.36347 0.76246 0.97501 0.0
C882 C 0.35593 0.74554 0.84357 0.0
H883 H 0.35775 0.78017 0.58189 0.0
H884 H 0.35578 0.78011 0.68464 0.0
H885 H 0.34828 0.73883 0.76386 0.0
H886 H 0.38206 0.72835 0.01311 0.0
H887 H 0.37694 0.73354 0.91495 0.0
H888 H 0.374 0.77509 0.86707 0.0
C889 C 0.35775 0.77048 0.66306 0.0
C890 C 0.35389 0.74685 0.78573 0.0
C891 C 0.3588 0.7705 0.60423 0.0
C892 C 0.37689 0.73795 0.00327 0.0
C893 C 0.37395 0.74088 0.94714 0.0
C894 C 0.36819 0.76727 0.84481 0.0
C895 C 0.35939 0.75817 0.69358 0.0
C896 C 0.3595 0.75808 0.75616 0.0
C897 C 0.36708 0.75307 0.93263 0.0
C898 C 0.3634 0.75555 0.87325 0.0
H899 H 0.36486 0.73621 0.58421 0.0
H900 H 0.36334 0.73622 0.68595 0.0
H901 H 0.37085 0.77723 0.76509 0.0
H902 H 0.36252 0.76644 0.06347 0.0
H903 H 0.35805 0.77188 0.96457 0.0
C904 C 0.48853 0.10033 0.85969 0.0
C905 C 0.49928 0.09507 0.82648 0.0
C906 C 0.48933 0.09983 0.91847 0.0
C907 C 0.51579 0.09829 0.02879 0.0
H908 H 0.48488 0.0936 0.13045 0.0
C909 C 0.52372 0.09571 0.26658 0.0
C910 C 0.5151 0.10395 0.30007 0.0
C911 C 0.5207 0.09348 0.20999 0.0
C912 C 0.49356 0.09501 0.10241 0.0
H913 H 0.51875 0.08416 0.82835 0.0
H914 H 0.51998 0.08294 0.93065 0.0
H915 H 0.48145 0.09099 0.02871 0.0
H916 H 0.49655 0.11636 0.30036 0.0
H917 H 0.49118 0.11234 0.20094 0.0
H918 H 0.5279 0.10235 0.10195 0.0
C919 C 0.51114 0.08787 0.91152 0.0
C920 C 0.49162 0.09352 0.04428 0.0
C921 C 0.51041 0.0885 0.85292 0.0
C922 C 0.50321 0.10971 0.276 0.0
C923 C 0.50017 0.10745 0.21907 0.0
C924 C 0.51774 0.09972 0.08659 0.0
C925 C 0.50086 0.09395 0.94499 0.0
C926 C 0.50274 0.0951 0.00687 0.0
C927 C 0.50903 0.0995 0.18538 0.0
C928 C 0.50668 0.09804 0.12404 0.0
H929 H 0.47982 0.10546 0.84042 0.0
H930 H 0.48126 0.10467 0.94299 0.0
H931 H 0.52451 0.09997 0.00117 0.0
H932 H 0.53289 0.09102 0.28406 0.0
H933 H 0.5276 0.08712 0.18527 0.0
C934 C 0.00724 0.88091 0.745 0.0
C935 C 0.01639 0.88507 0.78754 0.0
C936 C 0.01001 0.8838 0.6887 0.0
C937 C 0.03573 0.89 0.58422 0.0
H938 H 0.00679 0.91015 0.50745 0.0
C939 C 0.0375 0.90044 0.34409 0.0
C940 C 0.02507 0.89778 0.31575 0.0
C941 C 0.03781 0.90122 0.40296 0.0
C942 C 0.01494 0.90448 0.52813 0.0
H943 H 0.03572 0.89561 0.80379 0.0
H944 H 0.04087 0.90003 0.70448 0.0
H945 H 0.00513 0.90613 0.60859 0.0
H946 H 0.00317 0.89429 0.32682 0.0
H947 H 0.00375 0.89536 0.42871 0.0
H948 H 0.04517 0.88763 0.50328 0.0
C949 C 0.03155 0.89452 0.71544 0.0
C950 C 0.01401 0.90225 0.58598 0.0
C951 C 0.02867 0.89181 0.7722 0.0
C952 C 0.01292 0.89636 0.34726 0.0
C953 C 0.01324 0.89709 0.40585 0.0
C954 C 0.03658 0.89207 0.52596 0.0
C955 C 0.02207 0.89081 0.67356 0.0
C956 C 0.0242 0.89469 0.61416 0.0
C957 C 0.0257 0.89937 0.43451 0.0
C958 C 0.02598 0.89899 0.49706 0.0
H959 H -0.0023 0.8757 0.75533 0.0
H960 H 0.00262 0.88073 0.6569 0.0
H961 H 0.04368 0.88413 0.60531 0.0
H962 H 0.04703 0.90163 0.32094 0.0
H963 H 0.04755 0.90313 0.42375 0.0
C964 C 0.51153 0.90174 0.15644 0.0
C965 C 0.50063 0.8948 0.18289 0.0
C966 C 0.51195 0.90288 0.09792 0.0
C967 C 0.49179 0.8982 0.96623 0.0
H968 H 0.52782 0.89002 0.90436 0.0
C969 C 0.50255 0.88303 0.73255 0.0
C970 C 0.51456 0.88855 0.70855 0.0
C971 C 0.49954 0.88538 0.78945 0.0
C972 C 0.51772 0.8925 0.92088 0.0
H973 H 0.48122 0.88427 0.16922 0.0
H974 H 0.48212 0.88595 0.06671 0.0
H975 H 0.52494 0.89162 0.00558 0.0
H976 H 0.53243 0.90139 0.72399 0.0
H977 H 0.52714 0.90556 0.82264 0.0
H978 H 0.48461 0.89872 0.88069 0.0
C979 C 0.49026 0.89067 0.0912 0.0
C980 C 0.51607 0.89347 0.97897 0.0
C981 C 0.48978 0.88966 0.14992 0.0
C982 C 0.52319 0.89686 0.74161 0.0
C983 C 0.52017 0.89924 0.79808 0.0
C984 C 0.49345 0.89718 0.90777 0.0
C985 C 0.50155 0.89696 0.06454 0.0
C986 C 0.50312 0.89639 0.00241 0.0
C987 C 0.50852 0.89324 0.823 0.0
C988 C 0.50647 0.89439 0.88463 0.0
H989 H 0.51993 0.906 0.18086 0.0
H990 H 0.52062 0.90809 0.07871 0.0
H991 H 0.48169 0.90051 0.98305 0.0
H992 H 0.49585 0.87639 0.70829 0.0
H993 H 0.49054 0.88054 0.80777 0.0
C994 C 0.01754 0.1178 0.25634 0.0
C995 C 0.01921 0.10737 0.21601 0.0
C996 C 0.02104 0.11546 0.31255 0.0
C997 C 0.03513 0.10932 0.42449 0.0
H998 H 0.01818 0.07717 0.49251 0.0
C999 C 0.04025 0.09778 0.66164 0.0
C1000 C 0.02766 0.09547 0.68935 0.0
C1001 C 0.04098 0.09752 0.60285 0.0
C1002 C 0.02303 0.08614 0.474 0.0
H1003 H 0.02564 0.08627 0.2025 0.0
H1004 H 0.03175 0.08211 0.30128 0.0
H1005 H 0.01692 0.08046 0.3904 0.0
H1006 H 0.00613 0.09038 0.67717 0.0
H1007 H 0.00744 0.08984 0.57443 0.0
H1008 H 0.04092 0.11521 0.50809 0.0
C1009 C 0.02794 0.09217 0.2891 0.0
C1010 C 0.02242 0.08796 0.4156 0.0
C1011 C 0.02463 0.0946 0.23256 0.0
C1012 C 0.01596 0.09226 0.65708 0.0
C1013 C 0.01673 0.09187 0.59827 0.0
C1014 C 0.03589 0.10742 0.48275 0.0
C1015 C 0.02602 0.10254 0.32972 0.0
C1016 C 0.02821 0.09972 0.39045 0.0
C1017 C 0.02918 0.09479 0.57054 0.0
C1018 C 0.0296 0.09596 0.50823 0.0
H1019 H 0.01323 0.12768 0.24455 0.0
H1020 H 0.01928 0.12358 0.34304 0.0
H1021 H 0.03974 0.11844 0.40613 0.0
H1022 H 0.04947 0.10024 0.68523 0.0
H1023 H 0.05074 0.09967 0.5826 0.0
C1024 C 0.03277 0.54739 0.0242 0.0
C1025 C 0.02261 0.55229 0.06106 0.0
C1026 C 0.03425 0.53327 0.01491 0.0
C1027 C 0.02507 0.49905 0.07188 0.0
H1028 H 0.02749 0.48754 0.91564 0.0
C1029 C 0.01188 0.44416 0.00043 0.0
C1030 C 0.02021 0.43805 0.9592 0.0
C1031 C 0.01363 0.45799 0.01456 0.0
C1032 C 0.02704 0.49058 0.95952 0.0
H1033 H 0.00627 0.5465 0.11834 0.0
H1034 H 0.00879 0.52177 0.10217 0.0
H1035 H 0.02828 0.51198 0.93884 0.0
H1036 H 0.03703 0.44133 0.9009 0.0
H1037 H 0.04009 0.46566 0.92528 0.0
H1038 H 0.02357 0.47765 0.09242 0.0
C1039 C 0.01572 0.52878 0.08083 0.0
C1040 C 0.0275 0.50457 0.97283 0.0
C1041 C 0.01425 0.5429 0.09002 0.0
C1042 C 0.03035 0.44594 0.93221 0.0
C1043 C 0.0321 0.4598 0.94626 0.0
C1044 C 0.02461 0.48506 0.05857 0.0
C1045 C 0.0256 0.52384 0.04249 0.0
C1046 C 0.02631 0.50896 0.02907 0.0
C1047 C 0.02377 0.46595 0.9877 0.0
C1048 C 0.02537 0.4807 0.00217 0.0
H1049 H 0.03946 0.55449 0.00204 0.0
H1050 H 0.04209 0.52975 0.9858 0.0
H1051 H 0.02435 0.50213 0.11566 0.0
H1052 H 0.00394 0.43825 0.02151 0.0
H1053 H 0.00689 0.46249 0.04593 0.0
C1054 C 0.81666 0.73648 0.2394 0.0
C1055 C 0.82239 0.74577 0.20072 0.0
C1056 C 0.8027 0.73717 0.2528 0.0
C1057 C 0.76952 0.75044 0.20066 0.0
H1058 H 0.75803 0.74494 0.35563 0.0
C1059 C 0.71348 0.7584 0.27196 0.0
C1060 C 0.70792 0.74791 0.30558 0.0
C1061 C 0.72759 0.75881 0.2611 0.0
C1062 C 0.7611 0.74641 0.31214 0.0
H1063 H 0.81829 0.76309 0.14594 0.0
H1064 H 0.79381 0.76442 0.16956 0.0
H1065 H 0.78246 0.74436 0.33197 0.0
H1066 H 0.71254 0.72985 0.35556 0.0
H1067 H 0.73731 0.73057 0.33694 0.0
H1068 H 0.74814 0.7525 0.18093 0.0
C1069 C 0.80002 0.75646 0.1889 0.0
C1070 C 0.77507 0.74605 0.29855 0.0
C1071 C 0.81399 0.75573 0.17539 0.0
C1072 C 0.71667 0.73807 0.3297 0.0
C1073 C 0.7308 0.7385 0.31909 0.0
C1074 C 0.75556 0.75086 0.21432 0.0
C1075 C 0.79424 0.74721 0.22791 0.0
C1076 C 0.77942 0.74797 0.24259 0.0
C1077 C 0.73636 0.74877 0.28407 0.0
C1078 C 0.75121 0.74877 0.27013 0.0
H1079 H 0.82299 0.72866 0.25911 0.0
H1080 H 0.79852 0.72974 0.28224 0.0
H1081 H 0.77253 0.75176 0.15705 0.0
H1082 H 0.70689 0.76621 0.25366 0.0
H1083 H 0.73163 0.76696 0.2347 0.0
C1084 C 0.51777 0.54262 0.3973 0.0
C1085 C 0.50933 0.55207 0.42552 0.0
C1086 C 0.51652 0.52854 0.40813 0.0
C1087 C 0.50518 0.5049 0.51919 0.0
H1088 H 0.50915 0.47723 0.40249 0.0
C1089 C 0.50197 0.44637 0.5642 0.0
C1090 C 0.51191 0.43825 0.53717 0.0
C1091 C 0.5005 0.46026 0.54994 0.0
C1092 C 0.50811 0.48485 0.43556 0.0
H1093 H 0.49252 0.55441 0.48468 0.0
H1094 H 0.49028 0.52976 0.50369 0.0
H1095 H 0.50824 0.50153 0.37663 0.0
H1096 H 0.52826 0.43809 0.47519 0.0
H1097 H 0.52581 0.46236 0.45046 0.0
H1098 H 0.50527 0.48823 0.57819 0.0
C1099 C 0.49802 0.5332 0.47401 0.0
C1100 C 0.50758 0.49875 0.42074 0.0
C1101 C 0.49928 0.54726 0.46311 0.0
C1102 C 0.52046 0.44418 0.49624 0.0
C1103 C 0.51899 0.45802 0.48191 0.0
C1104 C 0.50571 0.491 0.53401 0.0
C1105 C 0.50679 0.52371 0.44734 0.0
C1106 C 0.5063 0.50892 0.46246 0.0
C1107 C 0.50893 0.46618 0.50827 0.0
C1108 C 0.5074 0.48085 0.4924 0.0
H1109 H 0.52565 0.54616 0.36838 0.0
H1110 H 0.52352 0.52149 0.38737 0.0
H1111 H 0.50436 0.51252 0.55236 0.0
H1112 H 0.49516 0.4419 0.59537 0.0
H1113 H 0.49259 0.46628 0.57062 0.0
C1114 C 0.81413 0.23546 0.81534 0.0
C1115 C 0.82251 0.24474 0.78577 0.0
C1116 C 0.8001 0.23457 0.80316 0.0
C1117 C 0.77485 0.24236 0.69163 0.0
H1118 H 0.7483 0.24002 0.81329 0.0
C1119 C 0.71658 0.25064 0.65952 0.0
C1120 C 0.70763 0.2421 0.68993 0.0
C1121 C 0.73074 0.25011 0.66935 0.0
C1122 C 0.7556 0.24048 0.77883 0.0
H1123 H 0.823 0.26046 0.72116 0.0
H1124 H 0.79844 0.25902 0.69999 0.0
H1125 H 0.7728 0.24086 0.83504 0.0
H1126 H 0.70628 0.22593 0.75249 0.0
H1127 H 0.73105 0.22494 0.76978 0.0
H1128 H 0.75762 0.24211 0.63546 0.0
C1129 C 0.80269 0.25229 0.73193 0.0
C1130 C 0.76962 0.24097 0.7913 0.0
C1131 C 0.81669 0.25316 0.74415 0.0
C1132 C 0.71302 0.23275 0.72918 0.0
C1133 C 0.72716 0.23222 0.73909 0.0
C1134 C 0.76082 0.24188 0.67917 0.0
C1135 C 0.79425 0.24294 0.76114 0.0
C1136 C 0.77939 0.242 0.74785 0.0
C1137 C 0.73615 0.24101 0.70976 0.0
C1138 C 0.75105 0.24101 0.72267 0.0
H1139 H 0.81848 0.22875 0.84712 0.0
H1140 H 0.79388 0.22717 0.82592 0.0
H1141 H 0.78215 0.24292 0.65721 0.0
H1142 H 0.71259 0.258 0.62934 0.0
H1143 H 0.7374 0.25711 0.64654 0.0
C1144 C 0.21271 0.23564 0.75362 0.0
C1145 C 0.20707 0.24495 0.79245 0.0
C1146 C 0.22671 0.23611 0.74072 0.0
C1147 C 0.26008 0.24867 0.79341 0.0
H1148 H 0.27118 0.24508 0.63703 0.0
C1149 C 0.31584 0.25807 0.72256 0.0
C1150 C 0.32145 0.24834 0.68542 0.0
C1151 C 0.30176 0.25811 0.73394 0.0
C1152 C 0.26824 0.24598 0.6809 0.0
H1153 H 0.2114 0.262 0.84842 0.0
H1154 H 0.23597 0.26287 0.82601 0.0
H1155 H 0.24682 0.24401 0.66166 0.0
H1156 H 0.31691 0.23124 0.62991 0.0
H1157 H 0.29219 0.23127 0.64968 0.0
H1158 H 0.28149 0.25061 0.81267 0.0
C1159 C 0.22964 0.25509 0.80601 0.0
C1160 C 0.25431 0.24535 0.69504 0.0
C1161 C 0.21562 0.25461 0.81887 0.0
C1162 C 0.31274 0.2389 0.65841 0.0
C1163 C 0.29864 0.23893 0.66973 0.0
C1164 C 0.274 0.24931 0.77927 0.0
C1165 C 0.2353 0.24591 0.76643 0.0
C1166 C 0.25009 0.24665 0.75146 0.0
C1167 C 0.29304 0.24842 0.70824 0.0
C1168 C 0.27823 0.24796 0.72289 0.0
H1169 H 0.20626 0.22805 0.73304 0.0
H1170 H 0.23081 0.22876 0.71075 0.0
H1171 H 0.25716 0.24951 0.83732 0.0
H1172 H 0.32239 0.26556 0.74325 0.0
H1173 H 0.2977 0.26569 0.76301 0.0
C1174 C 0.2155 0.7344 0.1764 0.0
C1175 C 0.20713 0.74403 0.20403 0.0
C1176 C 0.22947 0.73343 0.18983 0.0
C1177 C 0.25405 0.74185 0.3033 0.0
H1178 H 0.28155 0.7378 0.18606 0.0
C1179 C 0.31199 0.75063 0.34116 0.0
C1180 C 0.3212 0.74172 0.31402 0.0
C1181 C 0.29792 0.74985 0.32972 0.0
C1182 C 0.27397 0.73873 0.21933 0.0
H1183 H 0.2066 0.76039 0.26592 0.0
H1184 H 0.23102 0.75885 0.28909 0.0
H1185 H 0.25724 0.73865 0.16071 0.0
H1186 H 0.32308 0.72464 0.25584 0.0
H1187 H 0.29845 0.72325 0.23564 0.0
H1188 H 0.2708 0.74212 0.36183 0.0
C1189 C 0.22682 0.75187 0.25791 0.0
C1190 C 0.26006 0.73923 0.2048 0.0
C1191 C 0.2129 0.75282 0.24449 0.0
C1192 C 0.31614 0.73174 0.2766 0.0
C1193 C 0.30208 0.73098 0.26502 0.0
C1194 C 0.26795 0.74138 0.31781 0.0
C1195 C 0.23524 0.74207 0.23114 0.0
C1196 C 0.24997 0.74093 0.24659 0.0
C1197 C 0.29285 0.74014 0.29091 0.0
C1198 C 0.27806 0.73994 0.27593 0.0
H1199 H 0.21117 0.72744 0.14545 0.0
H1200 H 0.23567 0.72571 0.16885 0.0
H1201 H 0.24648 0.7429 0.33655 0.0
H1202 H 0.31572 0.75846 0.3699 0.0
H1203 H 0.29106 0.75714 0.34987 0.0
C1204 C 0.52621 0.04655 0.52749 0.0
C1205 C 0.51573 0.05233 0.56047 0.0
C1206 C 0.52601 0.03254 0.51445 0.0
C1207 C 0.51175 -0.00076 0.55892 0.0
H1208 H 0.51843 0.98871 0.40358 0.0
C1209 C 0.50325 0.94376 0.48203 0.0
C1210 C 0.51331 0.93828 0.44612 0.0
C1211 C 0.50321 0.9578 0.49463 0.0
C1212 C 0.51669 0.99147 0.44723 0.0
H1213 H 0.49705 0.04818 0.60718 0.0
H1214 H 0.49671 0.02355 0.58483 0.0
H1215 H 0.51944 0.01295 0.43038 0.0
H1216 H 0.53108 0.94289 0.3946 0.0
H1217 H 0.53114 0.9675 0.41687 0.0
H1218 H 0.50913 0.97778 0.576 0.0
C1219 C 0.50509 0.02982 0.56909 0.0
C1220 C 0.51727 0.00534 0.46256 0.0
C1221 C 0.50527 0.04386 0.58187 0.0
C1222 C 0.52315 0.94701 0.42195 0.0
C1223 C 0.52315 0.96105 0.43468 0.0
C1224 C 0.51123 0.98537 0.54366 0.0
C1225 C 0.51536 0.02407 0.53458 0.0
C1226 C 0.51481 0.00935 0.51855 0.0
C1227 C 0.51327 0.96657 0.47171 0.0
C1228 C 0.51368 0.98133 0.48763 0.0
H1229 H 0.53447 0.05291 0.51124 0.0
H1230 H 0.53418 0.02833 0.48857 0.0
H1231 H 0.50997 0.00204 0.60251 0.0
H1232 H 0.49553 0.93715 0.50083 0.0
H1233 H 0.49531 0.96176 0.52247 0.0
C1234 C 0.00126 0.94329 0.01418 0.0
C1235 C 0.01068 0.93798 0.05328 0.0
C1236 C 0.00077 0.95741 0.00349 0.0
C1237 C 0.01082 0.99117 0.06206 0.0
H1238 H 0.00825 0.00318 0.90652 0.0
C1239 C 0.02123 0.04713 0.99541 0.0
C1240 C 0.01218 0.05298 0.95613 0.0
C1241 C 0.02062 0.03308 0.00735 0.0
C1242 C 0.00881 -1e-05 0.95018 0.0
H1243 H 0.02686 0.94306 0.11242 0.0
H1244 H 0.02609 0.96781 0.09367 0.0
H1245 H 0.00776 0.97864 0.92831 0.0
H1246 H -0.00466 0.04896 0.89876 0.0
H1247 H 0.99429 0.02426 0.91926 0.0
H1248 H 0.01201 0.01253 0.08384 0.0
C1249 C 0.01896 0.96112 0.07171 0.0
C1250 C 0.00851 0.98594 0.96269 0.0
C1251 C 0.01943 0.94699 0.0824 0.0
C1252 C 0.00256 0.04458 0.92858 0.0
C1253 C 0.00196 0.0305 0.94038 0.0
C1254 C 0.01114 0.00521 0.04954 0.0
C1255 C 0.0097 0.96646 0.03178 0.0
C1256 C 0.00959 0.98139 0.01874 0.0
C1257 C 0.01094 0.02463 0.98015 0.0
C1258 C 0.01022 0.00975 0.99346 0.0
H1259 H 0.9943 0.9365 0.99182 0.0
H1260 H 0.99337 0.96125 0.97319 0.0
H1261 H 0.01144 0.98799 0.10572 0.0
H1262 H 0.02879 0.05345 0.01687 0.0
H1263 H 0.02781 0.02881 0.03755 0.0
C1264 C 0.12531 0.71066 0.08499 0.0
C1265 C 0.12945 0.71479 0.13919 0.0
C1266 C 0.11579 0.69998 0.07823 0.0
C1267 C 0.08813 0.6824 0.15609 0.0
H1268 H 0.09128 0.65448 0.03992 0.0
C1269 C 0.05218 0.63553 0.14997 0.0
C1270 C 0.04669 0.6319 0.09724 0.0
C1271 C 0.0628 0.64515 0.15383 0.0
C1272 C 0.09022 0.66229 0.07225 0.0
H1273 H 0.1273 0.71051 0.22862 0.0
H1274 H 0.11092 0.69187 0.21669 0.0
H1275 H 0.10905 0.67222 0.04837 0.0
H1276 H 0.04829 0.63534 0.00703 0.0
H1277 H 0.06677 0.65224 0.01399 0.0
H1278 H 0.06935 0.67256 0.17998 0.0
C1279 C 0.11477 0.69707 0.17949 0.0
C1280 C 0.10037 0.67244 0.07704 0.0
C1281 C 0.12422 0.70772 0.18626 0.0
C1282 C 0.05226 0.63792 0.04836 0.0
C1283 C 0.0629 0.64754 0.05226 0.0
C1284 C 0.07803 0.67228 0.15136 0.0
C1285 C 0.11026 0.69323 0.12553 0.0
C1286 C 0.09946 0.68254 0.11927 0.0
C1287 C 0.06819 0.65136 0.10508 0.0
C1288 C 0.07899 0.66208 0.10961 0.0
H1289 H 0.12916 0.71589 0.04789 0.0
H1290 H 0.11244 0.69728 0.03611 0.0
H1291 H 0.08698 0.69022 0.1883 0.0
H1292 H 0.04819 0.63103 0.18843 0.0
H1293 H 0.06681 0.64774 0.19508 0.0
C1294 C 0.55834 0.86027 0.44235 0.0
C1295 C 0.55101 0.86399 0.39359 0.0
C1296 C 0.56981 0.85171 0.4388 0.0
C1297 C 0.59528 0.83654 0.34064 0.0
H1298 H 0.59556 0.8068 0.44979 0.0
C1299 C 0.62625 0.78645 0.31044 0.0
C1300 C 0.63229 0.78029 0.35803 0.0
C1301 C 0.61789 0.79805 0.31614 0.0
C1302 C 0.5958 0.81516 0.4196 0.0
H1303 H 0.55036 0.86211 0.30256 0.0
H1304 H 0.57032 0.84689 0.29646 0.0
H1305 H 0.5782 0.82472 0.45661 0.0
H1306 H 0.63465 0.78179 0.44875 0.0
H1307 H 0.62009 0.80212 0.45859 0.0
H1308 H 0.61275 0.82672 0.30298 0.0
C1309 C 0.56725 0.85075 0.33738 0.0
C1310 C 0.58583 0.82545 0.42347 0.0
C1311 C 0.55577 0.85941 0.34089 0.0
C1312 C 0.63007 0.78622 0.41129 0.0
C1313 C 0.6217 0.79784 0.41697 0.0
C1314 C 0.60527 0.82622 0.33676 0.0
C1315 C 0.5742 0.84657 0.38648 0.0
C1316 C 0.58537 0.83618 0.38377 0.0
C1317 C 0.61538 0.80377 0.36952 0.0
C1318 C 0.60553 0.81534 0.37587 0.0
H1319 H 0.55508 0.86378 0.48358 0.0
H1320 H 0.57512 0.84891 0.47726 0.0
H1321 H 0.59529 0.84477 0.30985 0.0
H1322 H 0.62777 0.78219 0.26871 0.0
H1323 H 0.61304 0.80227 0.27886 0.0
C1324 C 0.47795 0.35748 0.65258 0.0
C1325 C 0.48271 0.36141 0.599 0.0
C1326 C 0.46686 0.34837 0.65785 0.0
C1327 C 0.4488 0.32138 0.57773 0.0
H1328 H 0.42078 0.32519 0.69306 0.0
C1329 C 0.4021 0.2852 0.58631 0.0
C1330 C 0.39886 0.27974 0.63951 0.0
C1331 C 0.41138 0.29612 0.58137 0.0
C1332 C 0.42858 0.32397 0.66086 0.0
H1333 H 0.47917 0.35933 0.50903 0.0
H1334 H 0.4598 0.34371 0.51833 0.0
H1335 H 0.43886 0.3426 0.68488 0.0
H1336 H 0.40248 0.28178 0.72944 0.0
H1337 H 0.41875 0.30075 0.72061 0.0
H1338 H 0.43865 0.30275 0.55389 0.0
C1339 C 0.46481 0.34737 0.55624 0.0
C1340 C 0.43894 0.33391 0.65625 0.0
C1341 C 0.47589 0.35639 0.55097 0.0
C1342 C 0.40478 0.28571 0.68777 0.0
C1343 C 0.41404 0.29664 0.6828 0.0
C1344 C 0.43846 0.31149 0.58225 0.0
C1345 C 0.46031 0.34308 0.60965 0.0
C1346 C 0.44916 0.3327 0.61462 0.0
C1347 C 0.41759 0.30182 0.62949 0.0
C1348 C 0.42825 0.31265 0.62388 0.0
H1349 H 0.48298 0.36116 0.69041 0.0
H1350 H 0.4637 0.34517 0.69959 0.0
H1351 H 0.45668 0.31999 0.54594 0.0
H1352 H 0.39766 0.28091 0.5483 0.0
H1353 H 0.41377 0.30003 0.53976 0.0
C1354 C 0.97147 0.13309 0.95136 0.0
C1355 C 0.97821 0.12839 0.90256 0.0
C1356 C 0.96023 0.14196 0.94736 0.0
C1357 C 0.93423 0.156 0.84887 0.0
H1358 H 0.93511 0.18744 0.94978 0.0
C1359 C 0.90401 0.20595 0.80761 0.0
C1360 C 0.89807 0.21285 0.85371 0.0
C1361 C 0.91232 0.19442 0.81597 0.0
C1362 C 0.93457 0.17861 0.92195 0.0
H1363 H 0.97809 0.12892 0.81118 0.0
H1364 H 0.95857 0.14463 0.80422 0.0
H1365 H 0.95227 0.16935 0.95949 0.0
H1366 H 0.89593 0.2128 0.94474 0.0
H1367 H 0.91047 0.1926 0.95927 0.0
H1368 H 0.91668 0.16549 0.81052 0.0
C1369 C 0.9619 0.1413 0.84559 0.0
C1370 C 0.9444 0.16823 0.92748 0.0
C1371 C 0.97314 0.13236 0.84957 0.0
C1372 C 0.90041 0.20777 0.90834 0.0
C1373 C 0.90877 0.19624 0.9167 0.0
C1374 C 0.92439 0.16641 0.84329 0.0
C1375 C 0.95549 0.14639 0.89451 0.0
C1376 C 0.94444 0.15689 0.89061 0.0
C1377 C 0.91491 0.18952 0.8706 0.0
C1378 C 0.92457 0.1779 0.87933 0.0
H1379 H 0.975 0.1301 0.99288 0.0
H1380 H 0.95536 0.14549 0.98579 0.0
H1381 H 0.93388 0.14729 0.82037 0.0
H1382 H 0.9024 0.20954 0.76491 0.0
H1383 H 0.91705 0.18959 0.77965 0.0
C1384 C 0.12864 0.28801 0.80402 0.0
C1385 C 0.13254 0.28057 0.85224 0.0
C1386 C 0.11996 0.29938 0.80845 0.0
C1387 C 0.10478 0.32436 0.9088 0.0
H1388 H 0.07517 0.3253 0.79921 0.0
C1389 C 0.05492 0.3556 0.94007 0.0
C1390 C 0.04912 0.36218 0.89291 0.0
C1391 C 0.06635 0.34703 0.93407 0.0
C1392 C 0.0835 0.32533 0.82958 0.0
H1393 H 0.13081 0.27957 0.94326 0.0
H1394 H 0.11537 0.29933 0.95095 0.0
H1395 H 0.09302 0.30786 0.79132 0.0
H1396 H 0.05104 0.36518 0.80262 0.0
H1397 H 0.07104 0.35019 0.79224 0.0
H1398 H 0.09499 0.34169 0.94775 0.0
C1399 C 0.11919 0.29644 0.90973 0.0
C1400 C 0.09374 0.31534 0.82508 0.0
C1401 C 0.12798 0.28508 0.90533 0.0
C1402 C 0.05519 0.36021 0.83976 0.0
C1403 C 0.06662 0.35159 0.83376 0.0
C1404 C 0.0945 0.33436 0.91337 0.0
C1405 C 0.11487 0.30353 0.86117 0.0
C1406 C 0.10444 0.31466 0.86485 0.0
C1407 C 0.07222 0.34481 0.88079 0.0
C1408 C 0.08368 0.33487 0.87405 0.0
H1409 H 0.13212 0.28494 0.76252 0.0
H1410 H 0.11706 0.30481 0.77038 0.0
H1411 H 0.11299 0.32421 0.93966 0.0
H1412 H 0.05053 0.3569 0.98169 0.0
H1413 H 0.07032 0.34181 0.97098 0.0
C1414 C 0.97795 0.85039 0.05642 0.0
C1415 C 0.97974 0.86079 0.09685 0.0
C1416 C 0.96665 0.84156 0.05914 0.0
C1417 C 0.9403 0.82893 0.15972 0.0
H1418 H 0.92594 0.81154 0.02494 0.0
C1419 C 0.9094 0.77894 0.17225 0.0
C1420 C 0.89901 0.77629 0.13266 0.0
C1421 C 0.91785 0.79045 0.16675 0.0
C1422 C 0.92962 0.81644 0.06304 0.0
H1423 H 0.97081 0.87053 0.17042 0.0
H1424 H 0.95071 0.85552 0.1739 0.0
H1425 H 0.94253 0.83012 0.01639 0.0
H1426 H 0.88914 0.78372 0.05662 0.0
H1427 H 0.90362 0.80418 0.04795 0.0
H1428 H 0.927 0.81566 0.20631 0.0
C1429 C 0.95829 0.85381 0.1412 0.0
C1430 C 0.93935 0.82698 0.05817 0.0
C1431 C 0.96978 0.86247 0.13914 0.0
C1432 C 0.89716 0.78546 0.08753 0.0
C1433 C 0.90549 0.79715 0.08252 0.0
C1434 C 0.9304 0.8186 0.16454 0.0
C1435 C 0.95668 0.8431 0.10172 0.0
C1436 C 0.94512 0.83309 0.1065 0.0
C1437 C 0.91597 0.79978 0.12208 0.0
C1438 C 0.92524 0.81191 0.11637 0.0
H1439 H 0.98551 0.8488 0.02347 0.0
H1440 H 0.96598 0.83328 0.02869 0.0
H1441 H 0.94452 0.83327 0.19802 0.0
H1442 H 0.91118 0.772 0.20723 0.0
H1443 H 0.92603 0.79187 0.19718 0.0
C1444 C 0.47656 0.63419 0.33561 0.0
C1445 C 0.48195 0.6299 0.38768 0.0
C1446 C 0.46541 0.64327 0.33361 0.0
C1447 C 0.44805 0.66966 0.41923 0.0
H1448 H 0.41912 0.66619 0.30759 0.0
C1449 C 0.40174 0.70657 0.41475 0.0
C1450 C 0.39835 0.71197 0.36159 0.0
C1451 C 0.41088 0.69553 0.41937 0.0
C1452 C 0.42717 0.66731 0.33882 0.0
H1453 H 0.47956 0.63143 0.47847 0.0
H1454 H 0.46006 0.64709 0.47483 0.0
H1455 H 0.43716 0.64871 0.31277 0.0
H1456 H 0.40158 0.70972 0.27149 0.0
H1457 H 0.4176 0.69056 0.27974 0.0
H1458 H 0.43819 0.68831 0.4449 0.0
C1459 C 0.46461 0.64366 0.43559 0.0
C1460 C 0.4375 0.65733 0.34171 0.0
C1461 C 0.47576 0.63463 0.43762 0.0
C1462 C 0.404 0.70584 0.31312 0.0
C1463 C 0.41311 0.69479 0.31777 0.0
C1464 C 0.43773 0.67961 0.4164 0.0
C1465 C 0.45941 0.64821 0.38361 0.0
C1466 C 0.44811 0.65845 0.3817 0.0
C1467 C 0.41678 0.68964 0.37096 0.0
C1468 C 0.42724 0.6786 0.37589 0.0
H1469 H 0.4811 0.63074 0.29637 0.0
H1470 H 0.46173 0.6467 0.29289 0.0
H1471 H 0.45621 0.67095 0.44989 0.0
H1472 H 0.39752 0.711 0.45291 0.0
H1473 H 0.4134 0.69165 0.4609 0.0
C1474 C 0.62642 0.20568 0.6024 0.0
C1475 C 0.63028 0.21168 0.65393 0.0
C1476 C 0.61765 0.19428 0.60136 0.0
C1477 C 0.59114 0.17711 0.68679 0.0
H1478 H 0.59558 0.14763 0.57798 0.0
C1479 C 0.55339 0.13138 0.67651 0.0
C1480 C 0.54857 0.12819 0.62222 0.0
C1481 C 0.56466 0.14017 0.68358 0.0
C1482 C 0.5942 0.15581 0.6085 0.0
H1483 H 0.62831 0.2101 0.74488 0.0
H1484 H 0.61316 0.19016 0.74293 0.0
H1485 H 0.61296 0.16574 0.58417 0.0
H1486 H 0.55211 0.13133 0.53276 0.0
H1487 H 0.57162 0.14669 0.54522 0.0
H1488 H 0.57228 0.16734 0.71046 0.0
C1489 C 0.61671 0.19442 0.70332 0.0
C1490 C 0.60413 0.16619 0.61196 0.0
C1491 C 0.62543 0.20583 0.70439 0.0
C1492 C 0.55551 0.13361 0.57521 0.0
C1493 C 0.56678 0.14234 0.5823 0.0
C1494 C 0.58124 0.16673 0.68339 0.0
C1495 C 0.61259 0.18861 0.65181 0.0
C1496 C 0.6026 0.17705 0.6506 0.0
C1497 C 0.57136 0.14586 0.63653 0.0
C1498 C 0.58255 0.15609 0.64364 0.0
H1499 H 0.62996 0.20994 0.56278 0.0
H1500 H 0.61454 0.19014 0.56094 0.0
H1501 H 0.58956 0.18544 0.71647 0.0
H1502 H 0.54832 0.12732 0.7136 0.0
H1503 H 0.56807 0.14259 0.72589 0.0
C1504 C 0.97501 0.36195 0.8405 0.0
C1505 C 0.98006 0.36387 0.89553 0.0
C1506 C 0.96374 0.35341 0.83055 0.0
C1507 C 0.93407 0.33645 0.89718 0.0
H1508 H 0.93917 0.30915 0.7796 0.0
C1509 C 0.90118 0.28743 0.88271 0.0
C1510 C 0.89806 0.28188 0.82948 0.0
C1511 C 0.90982 0.29882 0.88771 0.0
C1512 C 0.93742 0.31687 0.8118 0.0
H1513 H 0.97681 0.35875 0.98352 0.0
H1514 H 0.95705 0.34376 0.96594 0.0
H1515 H 0.95671 0.32665 0.79492 0.0
H1516 H 0.9012 0.2843 0.73952 0.0
H1517 H 0.91616 0.30441 0.74824 0.0
H1518 H 0.91481 0.32662 0.91432 0.0
C1519 C 0.96186 0.34893 0.93063 0.0
C1520 C 0.94751 0.32687 0.82071 0.0
C1521 C 0.97322 0.35745 0.94064 0.0
C1522 C 0.90348 0.28826 0.78117 0.0
C1523 C 0.9121 0.29974 0.78619 0.0
C1524 C 0.92391 0.32651 0.888 0.0
C1525 C 0.95719 0.34664 0.87535 0.0
C1526 C 0.94602 0.33664 0.86398 0.0
C1527 C 0.91551 0.30503 0.83962 0.0
C1528 C 0.92558 0.31645 0.84579 0.0
H1529 H 0.97995 0.36681 0.8047 0.0
H1530 H 0.96023 0.35198 0.78761 0.0
H1531 H 0.93258 0.34398 0.93033 0.0
H1532 H 0.89723 0.28278 0.92091 0.0
H1533 H 0.91239 0.30246 0.92955 0.0
C1534 C 0.47404 0.13506 0.55263 0.0
C1535 C 0.47995 0.12879 0.60024 0.0
C1536 C 0.46285 0.14403 0.55858 0.0
C1537 C 0.44736 0.16714 0.66269 0.0
H1538 H 0.41578 0.16721 0.56288 0.0
C1539 C 0.40232 0.20448 0.69817 0.0
C1540 C 0.39717 0.21111 0.64999 0.0
C1541 C 0.41122 0.19324 0.69292 0.0
C1542 C 0.42459 0.16738 0.59084 0.0
H1543 H 0.47837 0.12666 0.6912 0.0
H1544 H 0.45895 0.14218 0.70122 0.0
H1545 H 0.43378 0.14985 0.55064 0.0
H1546 H 0.39698 0.21084 0.55845 0.0
H1547 H 0.41268 0.19151 0.54945 0.0
H1548 H 0.43848 0.1848 0.70208 0.0
C1549 C 0.46306 0.14031 0.65947 0.0
C1550 C 0.43487 0.15745 0.58379 0.0
C1551 C 0.47416 0.13136 0.65357 0.0
C1552 C 0.40076 0.20599 0.59652 0.0
C1553 C 0.40971 0.19482 0.5913 0.0
C1554 C 0.43716 0.17709 0.66952 0.0
C1555 C 0.45743 0.14691 0.61223 0.0
C1556 C 0.44636 0.15725 0.61964 0.0
C1557 C 0.41522 0.18845 0.6394 0.0
C1558 C 0.42566 0.17737 0.63362 0.0
H1559 H 0.47822 0.13328 0.51094 0.0
H1560 H 0.45874 0.14904 0.52146 0.0
H1561 H 0.45622 0.16738 0.69037 0.0
H1562 H 0.39968 0.20808 0.73997 0.0
H1563 H 0.41509 0.1884 0.73085 0.0
C1564 C 0.6288 0.70553 0.39452 0.0
C1565 C 0.63142 0.71116 0.34096 0.0
C1566 C 0.62005 0.69427 0.40069 0.0
C1567 C 0.60369 0.66543 0.32568 0.0
H1568 H 0.57626 0.66862 0.44377 0.0
C1569 C 0.55573 0.63049 0.33927 0.0
C1570 C 0.55063 0.62695 0.39283 0.0
C1571 C 0.56683 0.63951 0.33381 0.0
C1572 C 0.584 0.66742 0.41128 0.0
H1573 H 0.62721 0.70903 0.25159 0.0
H1574 H 0.61178 0.68928 0.26258 0.0
H1575 H 0.59322 0.68678 0.43151 0.0
H1576 H 0.5537 0.62956 0.48276 0.0
H1577 H 0.57326 0.64512 0.47321 0.0
H1578 H 0.59438 0.64606 0.30531 0.0
C1579 C 0.61661 0.69362 0.29968 0.0
C1580 C 0.59369 0.67786 0.40412 0.0
C1581 C 0.62537 0.70497 0.29344 0.0
C1582 C 0.55729 0.63216 0.44087 0.0
C1583 C 0.56845 0.64115 0.43539 0.0
C1584 C 0.59401 0.65492 0.33302 0.0
C1585 C 0.61369 0.68832 0.35351 0.0
C1586 C 0.60361 0.67701 0.36115 0.0
C1587 C 0.57315 0.64516 0.38177 0.0
C1588 C 0.584 0.65584 0.37575 0.0
H1589 H 0.63332 0.70996 0.4321 0.0
H1590 H 0.61817 0.69026 0.4426 0.0
H1591 H 0.61131 0.66445 0.2926 0.0
H1592 H 0.55088 0.62665 0.30129 0.0
H1593 H 0.57009 0.64248 0.29189 0.0
C1594 C 0.05339 0.86071 0.15692 0.0
C1595 C 0.04868 0.8631 0.10172 0.0
C1596 C 0.06485 0.85241 0.16662 0.0
C1597 C 0.0955 0.83717 0.09998 0.0
H1598 H 0.09091 0.80881 0.21356 0.0
C1599 C 0.12982 0.78901 0.11113 0.0
C1600 C 0.13274 0.78312 0.16394 0.0
C1601 C 0.12103 0.8003 0.10676 0.0
C1602 C 0.09251 0.81682 0.18251 0.0
H1603 H 0.05266 0.85901 0.0133 0.0
H1604 H 0.07272 0.84443 0.03044 0.0
H1605 H 0.07279 0.82572 0.19906 0.0
H1606 H 0.12922 0.78494 0.25391 0.0
H1607 H 0.11399 0.80486 0.24632 0.0
H1608 H 0.11519 0.82819 0.08308 0.0
C1609 C 0.06752 0.84907 0.06609 0.0
C1610 C 0.08209 0.82649 0.17406 0.0
C1611 C 0.05599 0.85735 0.05631 0.0
C1612 C 0.12709 0.78916 0.21255 0.0
C1613 C 0.11831 0.80052 0.20817 0.0
C1614 C 0.10598 0.82754 0.10867 0.0
C1615 C 0.07192 0.84634 0.12141 0.0
C1616 C 0.0834 0.83665 0.13224 0.0
C1617 C 0.11497 0.80605 0.1551 0.0
C1618 C 0.10451 0.81713 0.14949 0.0
H1619 H 0.0481 0.86506 0.19294 0.0
H1620 H 0.06813 0.85064 0.20965 0.0
H1621 H 0.09686 0.845 0.06797 0.0
H1622 H 0.13398 0.78464 0.07273 0.0
H1623 H 0.11855 0.80415 0.06517 0.0
C1624 C 0.8986 0.702 0.09128 0.0
C1625 C 0.89662 0.70745 0.14562 0.0
C1626 C 0.90701 0.69056 0.08294 0.0
C1627 C 0.92373 0.66123 0.15361 0.0
H1628 H 0.95082 0.66522 0.03465 0.0
C1629 C 0.97281 0.62819 0.14061 0.0
C1630 C 0.97832 0.62496 0.0874 0.0
C1631 C 0.96124 0.63661 0.14538 0.0
C1632 C 0.94316 0.66377 0.06727 0.0
H1633 H 0.90154 0.70477 0.23413 0.0
H1634 H 0.91635 0.68474 0.21935 0.0
H1635 H 0.93356 0.68301 0.04826 0.0
H1636 H 0.97547 0.62744 0.99729 0.0
H1637 H 0.95508 0.64194 0.00562 0.0
H1638 H 0.93345 0.64202 0.17294 0.0
C1639 C 0.91129 0.68935 0.18333 0.0
C1640 C 0.93329 0.67401 0.07521 0.0
C1641 C 0.90288 0.70086 0.19173 0.0
C1642 C 0.97158 0.62982 0.03893 0.0
C1643 C 0.95994 0.6382 0.04372 0.0
C1644 C 0.93358 0.65092 0.14545 0.0
C1645 C 0.91364 0.68425 0.12869 0.0
C1646 C 0.92357 0.67293 0.11883 0.0
C1647 C 0.95482 0.64195 0.09706 0.0
C1648 C 0.94352 0.65216 0.10263 0.0
H1649 H 0.89388 0.70673 0.05476 0.0
H1650 H 0.90847 0.68673 0.04047 0.0
H1651 H 0.91625 0.66007 0.18714 0.0
H1652 H 0.9777 0.6246 0.17891 0.0
H1653 H 0.9577 0.63939 0.18712 0.0
C1654 C 0.12299 0.20573 0.7938 0.0
C1655 C 0.12954 0.2119 0.84022 0.0
C1656 C 0.11375 0.19484 0.80184 0.0
C1657 C 0.09064 0.18066 0.90928 0.0
H1658 H 0.09009 0.14805 0.81501 0.0
C1659 C 0.05358 0.13574 0.95461 0.0
C1660 C 0.04689 0.12999 0.90769 0.0
C1661 C 0.06463 0.14479 0.94723 0.0
C1662 C 0.09004 0.15715 0.84142 0.0
H1663 H 0.1318 0.21114 0.93132 0.0
H1664 H 0.11581 0.19225 0.94493 0.0
H1665 H 0.10748 0.16581 0.79878 0.0
H1666 H 0.04678 0.12903 0.8162 0.0
H1667 H 0.06575 0.14496 0.80352 0.0
H1668 H 0.07308 0.17226 0.95119 0.0
C1669 C 0.11767 0.19592 0.90249 0.0
C1670 C 0.09999 0.1673 0.83207 0.0
C1671 C 0.12691 0.20671 0.89453 0.0
C1672 C 0.05169 0.13325 0.85336 0.0
C1673 C 0.06266 0.14233 0.84602 0.0
C1674 C 0.08066 0.17058 0.91841 0.0
C1675 C 0.11085 0.19 0.85641 0.0
C1676 C 0.10038 0.17915 0.86593 0.0
C1677 C 0.06917 0.14833 0.8928 0.0
C1678 C 0.08021 0.15871 0.88454 0.0
H1679 H 0.12482 0.20945 0.75143 0.0
H1680 H 0.10856 0.19049 0.76556 0.0
H1681 H 0.09055 0.1898 0.93549 0.0
H1682 H 0.05021 0.13336 0.99702 0.0
H1683 H 0.06957 0.14908 0.98419 0.0
C1684 C 0.62651 0.28757 0.69812 0.0
C1685 C 0.63281 0.28096 0.65212 0.0
C1686 C 0.61805 0.29904 0.68953 0.0
C1687 C 0.59607 0.31413 0.58081 0.0
H1688 H 0.59562 0.34628 0.67773 0.0
C1689 C 0.55836 0.35862 0.54041 0.0
C1690 C 0.55155 0.36383 0.5881 0.0
C1691 C 0.56978 0.34998 0.54651 0.0
C1692 C 0.59557 0.33733 0.6505 0.0
H1693 H 0.63569 0.28168 0.56133 0.0
H1694 H 0.62101 0.3016 0.54669 0.0
H1695 H 0.61282 0.32829 0.69299 0.0
H1696 H 0.5517 0.36443 0.6796 0.0
H1697 H 0.57131 0.34918 0.69011 0.0
H1698 H 0.57863 0.32283 0.53934 0.0
C1699 C 0.62243 0.29779 0.58921 0.0
C1700 C 0.60542 0.32705 0.65926 0.0
C1701 C 0.63089 0.28639 0.59773 0.0
C1702 C 0.55668 0.3606 0.6419 0.0
C1703 C 0.56802 0.35191 0.64798 0.0
C1704 C 0.58619 0.32434 0.57227 0.0
C1705 C 0.61572 0.30408 0.63481 0.0
C1706 C 0.60571 0.31532 0.62467 0.0
C1707 C 0.57457 0.34631 0.60041 0.0
C1708 C 0.58575 0.33601 0.60724 0.0
H1709 H 0.62781 0.28367 0.74055 0.0
H1710 H 0.61293 0.30365 0.72545 0.0
H1711 H 0.59589 0.30509 0.55403 0.0
H1712 H 0.55476 0.36102 0.49836 0.0
H1713 H 0.57474 0.34604 0.50897 0.0
C1714 C 0.47704 0.8571 0.3531 0.0
C1715 C 0.48213 0.86034 0.40699 0.0
C1716 C 0.46594 0.84816 0.34673 0.0
C1717 C 0.43638 0.83281 0.41993 0.0
H1718 H 0.44008 0.80435 0.30618 0.0
C1719 C 0.40023 0.78573 0.4058 0.0
C1720 C 0.39705 0.78043 0.35219 0.0
C1721 C 0.40957 0.79655 0.4117 0.0
C1722 C 0.43875 0.81237 0.33744 0.0
H1723 H 0.47929 0.85693 0.4966 0.0
H1724 H 0.4598 0.84118 0.48527 0.0
H1725 H 0.45849 0.82102 0.3192 0.0
H1726 H 0.40066 0.78285 0.26251 0.0
H1727 H 0.41679 0.80192 0.27279 0.0
H1728 H 0.41662 0.82412 0.4382 0.0
C1729 C 0.46445 0.84567 0.44807 0.0
C1730 C 0.44934 0.82189 0.34505 0.0
C1731 C 0.47564 0.85462 0.45452 0.0
C1732 C 0.40297 0.7866 0.30444 0.0
C1733 C 0.41228 0.79748 0.31036 0.0
C1734 C 0.42574 0.8233 0.41213 0.0
C1735 C 0.45961 0.84224 0.39402 0.0
C1736 C 0.44828 0.83219 0.3864 0.0
C1737 C 0.4159 0.80238 0.36413 0.0
C1738 C 0.42683 0.81295 0.37087 0.0
H1739 H 0.48173 0.86133 0.31548 0.0
H1740 H 0.46231 0.84586 0.3046 0.0
H1741 H 0.43524 0.84075 0.45169 0.0
H1742 H 0.39585 0.78124 0.44356 0.0
H1743 H 0.41222 0.79998 0.45375 0.0
loop_
_geom_bond_atom_site_label_1
_geom_bond_atom_site_label_2
_geom_bond_distance
_geom_bond_site_symmetry_2
_ccdc_geom_bond_type
Co0 O3 1.970 . S
Co0 N17 1.989 . S
Co0 O25 1.967 . S
Co0 O32 1.920 . S
Co1 O4 1.964 1_556 S
Co1 N10 2.030 . S
Co1 N18 1.991 1_556 S
Co1 O26 1.939 1_556 S
C2 O3 1.258 . S
C2 O4 1.263 . S
O3 Co0 1.970 . S
O3 C2 1.258 . S
O4 Co1 1.964 1_554 S
O4 C2 1.263 . S
C5 O6 1.235 . S
C5 O32 1.289 . S
O6 C5 1.235 . S
C7 C9 1.400 . S
C7 N10 1.351 . S
C7 C12 1.564 . S
C8 C9 1.387 . S
C8 N11 1.341 . S
C9 C7 1.400 . S
C9 C8 1.387 . S
N10 Co1 2.030 . S
N10 C7 1.351 . S
N10 N11 1.365 . S
N11 C8 1.341 . S
N11 N10 1.365 . S
N11 H31 0.862 . S
C12 C7 1.564 . S
C12 H13 0.968 . S
C12 H14 0.911 1_455 S
C12 H15 0.947 1_455 S
H13 C12 0.968 . S
H14 C12 0.911 1_655 S
H15 C12 0.947 1_655 S
C16 N17 1.342 . S
C16 C20 1.401 . S
C16 C21 1.499 . S
N17 Co0 1.989 . S
N17 C16 1.342 . S
N17 N18 1.388 . S
N18 Co1 1.991 1_554 S
N18 N17 1.388 . S
N18 C19 1.346 . S
C19 N18 1.346 . S
C19 C20 1.396 . S
C19 C29 1.510 1_554 S
C20 C16 1.401 . S
C20 C19 1.396 . S
C21 C16 1.499 . S
C21 H22 0.959 . S
C21 H23 0.960 . S
C21 H24 0.961 . S
H22 C21 0.959 . S
H23 C21 0.960 . S
H24 C21 0.961 . S
O25 Co0 1.967 . S
O25 C33 1.258 . S
O26 Co1 1.939 1_554 S
O26 C33 1.266 . S
H27 C29 0.959 . S
H28 C29 0.961 . S
C29 C19 1.510 1_556 S
C29 H27 0.959 . S
C29 H28 0.961 . S
C29 H30 0.960 . S
H30 C29 0.960 . S
H31 N11 0.862 . S
O32 Co0 1.920 . S
O32 C5 1.289 . S
C33 O25 1.258 . S
C33 O26 1.266 . S
Co34 O37 1.970 . S
Co34 N51 1.989 . S
Co34 O59 1.967 . S
Co34 O66 1.920 . S
Co35 O38 1.966 . S
Co35 N44 2.022 . S
Co35 N52 1.993 . S
Co35 O60 1.941 . S
C36 O37 1.258 . S
C36 O38 1.263 . S
O37 Co34 1.970 . S
O37 C36 1.258 . S
O38 Co35 1.966 . S
O38 C36 1.263 . S
C39 O40 1.235 . S
C39 O66 1.289 . S
O40 C39 1.235 . S
C41 C43 1.400 . S
C41 N44 1.351 . S
C41 C46 1.501 . S
C42 C43 1.387 . S
C42 N45 1.341 . S
C43 C41 1.400 . S
C43 C42 1.387 . S
N44 Co35 2.022 . S
N44 C41 1.351 . S
N44 N45 1.365 . S
N45 C42 1.341 . S
N45 N44 1.365 . S
N45 H65 0.862 . S
C46 C41 1.501 . S
C46 H47 0.961 . S
C46 H48 0.961 . S
C46 H49 0.960 . S
H47 C46 0.961 . S
H48 C46 0.961 . S
H49 C46 0.960 . S
C50 N51 1.342 . S
C50 C54 1.401 . S
C50 C55 1.499 . S
N51 Co34 1.989 . S
N51 C50 1.342 . S
N51 N52 1.388 . S
N52 Co35 1.993 . S
N52 N51 1.388 . S
N52 C53 1.346 . S
C53 N52 1.346 . S
C53 C54 1.396 . S
C53 C63 1.510 . S
C54 C50 1.401 . S
C54 C53 1.396 . S
C55 C50 1.499 . S
C55 H56 0.959 . S
C55 H57 0.960 . S
C55 H58 0.961 . S
H56 C55 0.959 . S
H57 C55 0.960 . S
H58 C55 0.961 . S
O59 Co34 1.967 . S
O59 C67 1.258 . S
O60 Co35 1.941 . S
O60 C67 1.266 . S
H61 C63 0.959 . S
H62 C63 0.961 . S
C63 C53 1.510 . S
C63 H61 0.959 . S
C63 H62 0.961 . S
C63 H64 0.960 . S
H64 C63 0.960 . S
H65 N45 0.862 . S
O66 Co34 1.920 . S
O66 C39 1.289 . S
C67 O59 1.258 . S
C67 O60 1.266 . S
Co68 O71 1.970 . S
Co68 N85 1.989 . S
Co68 O93 1.967 . S
Co68 O100 1.920 . S
Co69 O72 1.966 . S
Co69 N78 2.022 . S
Co69 N86 1.993 . S
Co69 O94 1.941 . S
C70 O71 1.258 . S
C70 O72 1.263 . S
O71 Co68 1.970 . S
O71 C70 1.258 . S
O72 Co69 1.966 . S
O72 C70 1.263 . S
C73 O74 1.235 . S
C73 O100 1.289 . S
O74 C73 1.235 . S
C75 C77 1.400 . S
C75 N78 1.351 . S
C75 C80 1.501 . S
C76 C77 1.387 . S
C76 N79 1.341 . S
C77 C75 1.400 . S
C77 C76 1.387 . S
N78 Co69 2.022 . S
N78 C75 1.351 . S
N78 N79 1.365 . S
N79 C76 1.341 . S
N79 N78 1.365 . S
N79 H99 0.862 . S
C80 C75 1.501 . S
C80 H81 0.961 . S
C80 H82 0.961 . S
C80 H83 0.960 . S
H81 C80 0.961 . S
H82 C80 0.961 . S
H83 C80 0.960 . S
C84 N85 1.342 . S
C84 C88 1.401 . S
C84 C89 1.499 . S
N85 Co68 1.989 . S
N85 C84 1.342 . S
N85 N86 1.388 . S
N86 Co69 1.993 . S
N86 N85 1.388 . S
N86 C87 1.346 . S
C87 N86 1.346 . S
C87 C88 1.396 . S
C87 C97 1.510 . S
C88 C84 1.401 . S
C88 C87 1.396 . S
C89 C84 1.499 . S
C89 H90 0.959 . S
C89 H91 0.960 . S
C89 H92 0.961 . S
H90 C89 0.959 . S
H91 C89 0.960 . S
H92 C89 0.961 . S
O93 Co68 1.967 . S
O93 C101 1.258 . S
O94 Co69 1.941 . S
O94 C101 1.266 . S
H95 C97 0.959 . S
H96 C97 0.961 . S
C97 C87 1.510 . S
C97 H95 0.959 . S
C97 H96 0.961 . S
C97 H98 0.960 . S
H98 C97 0.960 . S
H99 N79 0.862 . S
O100 Co68 1.920 . S
O100 C73 1.289 . S
C101 O93 1.258 . S
C101 O94 1.266 . S
Co102 O105 1.970 . S
Co102 N119 1.989 . S
Co102 O127 1.967 . S
Co102 O134 1.920 . S
Co103 O106 1.966 . S
Co103 N112 2.022 . S
Co103 N120 1.993 . S
Co103 O128 1.941 . S
C104 O105 1.258 . S
C104 O106 1.263 . S
O105 Co102 1.970 . S
O105 C104 1.258 . S
O106 Co103 1.966 . S
O106 C104 1.263 . S
C107 O108 1.235 . S
C107 O134 1.289 . S
O108 C107 1.235 . S
C109 C111 1.400 . S
C109 N112 1.351 . S
C109 C114 1.501 . S
C110 C111 1.387 . S
C110 N113 1.341 . S
C111 C109 1.400 . S
C111 C110 1.387 . S
N112 Co103 2.022 . S
N112 C109 1.351 . S
N112 N113 1.365 . S
N113 C110 1.341 . S
N113 N112 1.365 . S
N113 H133 0.862 . S
C114 C109 1.501 . S
C114 H115 0.961 . S
C114 H116 0.961 . S
C114 H117 0.960 . S
H115 C114 0.961 . S
H116 C114 0.961 . S
H117 C114 0.960 . S
C118 N119 1.342 . S
C118 C122 1.401 . S
C118 C123 1.499 . S
N119 Co102 1.989 . S
N119 C118 1.342 . S
N119 N120 1.388 . S
N120 Co103 1.993 . S
N120 N119 1.388 . S
N120 C121 1.346 . S
C121 N120 1.346 . S
C121 C122 1.396 . S
C121 C131 1.510 . S
C122 C118 1.401 . S
C122 C121 1.396 . S
C123 C118 1.499 . S
C123 H124 0.959 . S
C123 H125 0.960 . S
C123 H126 0.961 . S
H124 C123 0.959 . S
H125 C123 0.960 . S
H126 C123 0.961 . S
O127 Co102 1.967 . S
O127 C135 1.258 . S
O128 Co103 1.941 . S
O128 C135 1.266 . S
H129 C131 0.959 . S
H130 C131 0.961 . S
C131 C121 1.510 . S
C131 H129 0.959 . S
C131 H130 0.961 . S
C131 H132 0.960 . S
H132 C131 0.960 . S
H133 N113 0.862 . S
O134 Co102 1.920 . S
O134 C107 1.289 . S
C135 O127 1.258 . S
C135 O128 1.266 . S
Co136 O139 1.970 . S
Co136 N153 1.989 . S
Co136 O161 1.967 . S
Co136 O168 1.920 . S
Co137 O140 1.964 1_554 S
Co137 N146 2.030 . S
Co137 N154 1.991 1_554 S
Co137 O162 1.939 1_554 S
C138 O139 1.258 . S
C138 O140 1.263 . S
O139 Co136 1.970 . S
O139 C138 1.258 . S
O140 Co137 1.964 1_556 S
O140 C138 1.263 . S
C141 O142 1.235 . S
C141 O168 1.289 . S
O142 C141 1.235 . S
C143 C145 1.400 . S
C143 N146 1.351 . S
C143 C148 1.564 . S
C144 C145 1.387 . S
C144 N147 1.341 . S
C145 C143 1.400 . S
C145 C144 1.387 . S
N146 Co137 2.030 . S
N146 C143 1.351 . S
N146 N147 1.365 . S
N147 C144 1.341 . S
N147 N146 1.365 . S
N147 H167 0.862 . S
C148 C143 1.564 . S
C148 H149 0.968 . S
C148 H150 0.911 1_455 S
C148 H151 0.947 1_455 S
H149 C148 0.968 . S
H150 C148 0.911 1_655 S
H151 C148 0.947 1_655 S
C152 N153 1.342 . S
C152 C156 1.401 . S
C152 C157 1.499 . S
N153 Co136 1.989 . S
N153 C152 1.342 . S
N153 N154 1.388 . S
N154 Co137 1.991 1_556 S
N154 N153 1.388 . S
N154 C155 1.346 . S
C155 N154 1.346 . S
C155 C156 1.396 . S
C155 C165 1.510 1_556 S
C156 C152 1.401 . S
C156 C155 1.396 . S
C157 C152 1.499 . S
C157 H158 0.959 . S
C157 H159 0.960 . S
C157 H160 0.961 . S
H158 C157 0.959 . S
H159 C157 0.960 . S
H160 C157 0.961 . S
O161 Co136 1.967 . S
O161 C169 1.258 . S
O162 Co137 1.939 1_556 S
O162 C169 1.266 . S
H163 C165 0.959 . S
H164 C165 0.961 . S
C165 C155 1.510 1_554 S
C165 H163 0.959 . S
C165 H164 0.961 . S
C165 H166 0.960 . S
H166 C165 0.960 . S
H167 N147 0.862 . S
O168 Co136 1.920 . S
O168 C141 1.289 . S
C169 O161 1.258 . S
C169 O162 1.266 . S
Co170 O173 1.970 . S
Co170 N187 1.989 . S
Co170 O195 1.967 . S
Co170 O202 1.920 . S
Co171 O174 1.966 . S
Co171 N180 2.022 . S
Co171 N188 1.993 . S
Co171 O196 1.941 . S
C172 O173 1.258 . S
C172 O174 1.263 . S
O173 Co170 1.970 . S
O173 C172 1.258 . S
O174 Co171 1.966 . S
O174 C172 1.263 . S
C175 O176 1.235 . S
C175 O202 1.289 . S
O176 C175 1.235 . S
C177 C179 1.400 . S
C177 N180 1.351 . S
C177 C182 1.501 . S
C178 C179 1.387 . S
C178 N181 1.341 . S
C179 C177 1.400 . S
C179 C178 1.387 . S
N180 Co171 2.022 . S
N180 C177 1.351 . S
N180 N181 1.365 . S
N181 C178 1.341 . S
N181 N180 1.365 . S
N181 H201 0.862 . S
C182 C177 1.501 . S
C182 H183 0.961 . S
C182 H184 0.961 . S
C182 H185 0.960 . S
H183 C182 0.961 . S
H184 C182 0.961 . S
H185 C182 0.960 . S
C186 N187 1.342 . S
C186 C190 1.401 . S
C186 C191 1.499 . S
N187 Co170 1.989 . S
N187 C186 1.342 . S
N187 N188 1.388 . S
N188 Co171 1.993 . S
N188 N187 1.388 . S
N188 C189 1.346 . S
C189 N188 1.346 . S
C189 C190 1.396 . S
C189 C199 1.510 . S
C190 C186 1.401 . S
C190 C189 1.396 . S
C191 C186 1.499 . S
C191 H192 0.959 . S
C191 H193 0.960 . S
C191 H194 0.961 . S
H192 C191 0.959 . S
H193 C191 0.960 . S
H194 C191 0.961 . S
O195 Co170 1.967 . S
O195 C203 1.258 . S
O196 Co171 1.941 . S
O196 C203 1.266 . S
H197 C199 0.959 . S
H198 C199 0.961 . S
C199 C189 1.510 . S
C199 H197 0.959 . S
C199 H198 0.961 . S
C199 H200 0.960 . S
H200 C199 0.960 . S
H201 N181 0.862 . S
O202 Co170 1.920 . S
O202 C175 1.289 . S
C203 O195 1.258 . S
C203 O196 1.266 . S
Co204 O207 1.970 . S
Co204 N221 1.989 . S
Co204 O229 1.967 . S
Co204 O236 1.920 . S
Co205 O208 1.966 . S
Co205 N214 2.022 . S
Co205 N222 1.993 . S
Co205 O230 1.941 . S
C206 O207 1.258 . S
C206 O208 1.263 . S
O207 Co204 1.970 . S
O207 C206 1.258 . S
O208 Co205 1.966 . S
O208 C206 1.263 . S
C209 O210 1.235 . S
C209 O236 1.289 . S
O210 C209 1.235 . S
C211 C213 1.400 . S
C211 N214 1.351 . S
C211 C216 1.501 . S
C212 C213 1.387 . S
C212 N215 1.341 . S
C213 C211 1.400 . S
C213 C212 1.387 . S
N214 Co205 2.022 . S
N214 C211 1.351 . S
N214 N215 1.365 . S
N215 C212 1.341 . S
N215 N214 1.365 . S
N215 H235 0.862 . S
C216 C211 1.501 . S
C216 H217 0.961 . S
C216 H218 0.961 . S
C216 H219 0.960 . S
H217 C216 0.961 . S
H218 C216 0.961 . S
H219 C216 0.960 . S
C220 N221 1.342 . S
C220 C224 1.401 . S
C220 C225 1.499 . S
N221 Co204 1.989 . S
N221 C220 1.342 . S
N221 N222 1.388 . S
N222 Co205 1.993 . S
N222 N221 1.388 . S
N222 C223 1.346 . S
C223 N222 1.346 . S
C223 C224 1.396 . S
C223 C233 1.510 . S
C224 C220 1.401 . S
C224 C223 1.396 . S
C225 C220 1.499 . S
C225 H226 0.959 . S
C225 H227 0.960 . S
C225 H228 0.961 . S
H226 C225 0.959 . S
H227 C225 0.960 . S
H228 C225 0.961 . S
O229 Co204 1.967 . S
O229 C237 1.258 . S
O230 Co205 1.941 . S
O230 C237 1.266 . S
H231 C233 0.959 . S
H232 C233 0.961 . S
C233 C223 1.510 . S
C233 H231 0.959 . S
C233 H232 0.961 . S
C233 H234 0.960 . S
H234 C233 0.960 . S
H235 N215 0.862 . S
O236 Co204 1.920 . S
O236 C209 1.289 . S
C237 O229 1.258 . S
C237 O230 1.266 . S
Co238 O241 1.970 . S
Co238 N255 1.989 . S
Co238 O263 1.967 . S
Co238 O270 1.920 . S
Co239 O242 1.966 . S
Co239 N248 2.022 . S
Co239 N256 1.993 . S
Co239 O264 1.941 . S
C240 O241 1.258 . S
C240 O242 1.263 . S
O241 Co238 1.970 . S
O241 C240 1.258 . S
O242 Co239 1.966 . S
O242 C240 1.263 . S
C243 O244 1.235 . S
C243 O270 1.289 . S
O244 C243 1.235 . S
C245 C247 1.400 . S
C245 N248 1.351 . S
C245 C250 1.501 . S
C246 C247 1.387 . S
C246 N249 1.341 . S
C247 C245 1.400 . S
C247 C246 1.387 . S
N248 Co239 2.022 . S
N248 C245 1.351 . S
N248 N249 1.365 . S
N249 C246 1.341 . S
N249 N248 1.365 . S
N249 H269 0.862 . S
C250 C245 1.501 . S
C250 H251 0.961 . S
C250 H252 0.961 . S
C250 H253 0.960 . S
H251 C250 0.961 . S
H252 C250 0.961 . S
H253 C250 0.960 . S
C254 N255 1.342 . S
C254 C258 1.401 . S
C254 C259 1.499 . S
N255 Co238 1.989 . S
N255 C254 1.342 . S
N255 N256 1.388 . S
N256 Co239 1.993 . S
N256 N255 1.388 . S
N256 C257 1.346 . S
C257 N256 1.346 . S
C257 C258 1.396 . S
C257 C267 1.510 . S
C258 C254 1.401 . S
C258 C257 1.396 . S
C259 C254 1.499 . S
C259 H260 0.959 . S
C259 H261 0.960 . S
C259 H262 0.961 . S
H260 C259 0.959 . S
H261 C259 0.960 . S
H262 C259 0.961 . S
O263 Co238 1.967 . S
O263 C271 1.258 . S
O264 Co239 1.941 . S
O264 C271 1.266 . S
H265 C267 0.959 . S
H266 C267 0.961 . S
C267 C257 1.510 . S
C267 H265 0.959 . S
C267 H266 0.961 . S
C267 H268 0.960 . S
H268 C267 0.960 . S
H269 N249 0.862 . S
O270 Co238 1.920 . S
O270 C243 1.289 . S
C271 O263 1.258 . S
C271 O264 1.266 . S
Co272 O275 1.970 . S
Co272 N289 1.989 . S
Co272 O297 1.967 . S
Co272 O304 1.920 . S
Co273 O276 1.966 . S
Co273 N282 2.022 . S
Co273 N290 1.993 . S
Co273 O298 1.941 . S
C274 O275 1.258 . S
C274 O276 1.263 . S
O275 Co272 1.970 . S
O275 C274 1.258 . S
O276 Co273 1.966 . S
O276 C274 1.263 . S
C277 O278 1.235 . S
C277 O304 1.289 . S
O278 C277 1.235 . S
C279 C281 1.400 . S
C279 N282 1.351 . S
C279 C284 1.501 . S
C280 C281 1.387 . S
C280 N283 1.341 . S
C281 C279 1.400 . S
C281 C280 1.387 . S
N282 Co273 2.022 . S
N282 C279 1.351 . S
N282 N283 1.365 . S
N283 C280 1.341 . S
N283 N282 1.365 . S
N283 H303 0.862 . S
C284 C279 1.501 . S
C284 H285 0.961 . S
C284 H286 0.961 . S
C284 H287 0.960 . S
H285 C284 0.961 . S
H286 C284 0.961 . S
H287 C284 0.960 . S
C288 N289 1.342 . S
C288 C292 1.401 . S
C288 C293 1.499 . S
N289 Co272 1.989 . S
N289 C288 1.342 . S
N289 N290 1.388 . S
N290 Co273 1.993 . S
N290 N289 1.388 . S
N290 C291 1.346 . S
C291 N290 1.346 . S
C291 C292 1.396 . S
C291 C301 1.510 . S
C292 C288 1.401 . S
C292 C291 1.396 . S
C293 C288 1.499 . S
C293 H294 0.959 . S
C293 H295 0.960 . S
C293 H296 0.961 . S
H294 C293 0.959 . S
H295 C293 0.960 . S
H296 C293 0.961 . S
O297 Co272 1.967 . S
O297 C305 1.258 . S
O298 Co273 1.941 . S
O298 C305 1.266 . S
H299 C301 0.959 . S
H300 C301 0.961 . S
C301 C291 1.510 . S
C301 H299 0.959 . S
C301 H300 0.961 . S
C301 H302 0.960 . S
H302 C301 0.960 . S
H303 N283 0.862 . S
O304 Co272 1.920 . S
O304 C277 1.289 . S
C305 O297 1.258 . S
C305 O298 1.266 . S
Co306 O309 1.970 . S
Co306 N323 1.989 . S
Co306 O331 1.967 . S
Co306 O338 1.920 . S
Co307 O310 1.966 . S
Co307 N316 2.022 . S
Co307 N324 1.993 . S
Co307 O332 1.941 . S
C308 O309 1.258 . S
C308 O310 1.263 . S
O309 Co306 1.970 . S
O309 C308 1.258 . S
O310 Co307 1.966 . S
O310 C308 1.263 . S
C311 O312 1.235 . S
C311 O338 1.289 . S
O312 C311 1.235 . S
C313 C315 1.400 . S
C313 N316 1.351 . S
C313 C318 1.501 . S
C314 C315 1.387 . S
C314 N317 1.341 . S
C315 C313 1.400 . S
C315 C314 1.387 . S
N316 Co307 2.022 . S
N316 C313 1.351 . S
N316 N317 1.365 . S
N317 C314 1.341 . S
N317 N316 1.365 . S
N317 H337 0.862 . S
C318 C313 1.501 . S
C318 H319 0.961 . S
C318 H320 0.961 . S
C318 H321 0.960 . S
H319 C318 0.961 . S
H320 C318 0.961 . S
H321 C318 0.960 . S
C322 N323 1.342 . S
C322 C326 1.401 . S
C322 C327 1.499 . S
N323 Co306 1.989 . S
N323 C322 1.342 . S
N323 N324 1.388 . S
N324 Co307 1.993 . S
N324 N323 1.388 . S
N324 C325 1.346 . S
C325 N324 1.346 . S
C325 C326 1.396 . S
C325 C335 1.510 . S
C326 C322 1.401 . S
C326 C325 1.396 . S
C327 C322 1.499 . S
C327 H328 0.959 . S
C327 H329 0.960 . S
C327 H330 0.961 . S
H328 C327 0.959 . S
H329 C327 0.960 . S
H330 C327 0.961 . S
O331 Co306 1.967 . S
O331 C339 1.258 . S
O332 Co307 1.941 . S
O332 C339 1.266 . S
H333 C335 0.959 . S
H334 C335 0.961 . S
C335 C325 1.510 . S
C335 H333 0.959 . S
C335 H334 0.961 . S
C335 H336 0.960 . S
H336 C335 0.960 . S
H337 N317 0.862 . S
O338 Co306 1.920 . S
O338 C311 1.289 . S
C339 O331 1.258 . S
C339 O332 1.266 . S
Co340 O343 1.970 . S
Co340 N357 1.989 . S
Co340 O365 1.967 . S
Co340 O372 1.920 . S
Co341 O344 1.966 . S
Co341 N350 2.022 . S
Co341 N358 1.993 . S
Co341 O366 1.941 . S
C342 O343 1.258 . S
C342 O344 1.263 . S
O343 Co340 1.970 . S
O343 C342 1.258 . S
O344 Co341 1.966 . S
O344 C342 1.263 . S
C345 O346 1.235 . S
C345 O372 1.289 . S
O346 C345 1.235 . S
C347 C349 1.400 . S
C347 N350 1.351 . S
C347 C352 1.501 . S
C348 C349 1.387 . S
C348 N351 1.341 . S
C349 C347 1.400 . S
C349 C348 1.387 . S
N350 Co341 2.022 . S
N350 C347 1.351 . S
N350 N351 1.365 . S
N351 C348 1.341 . S
N351 N350 1.365 . S
N351 H371 0.862 . S
C352 C347 1.501 . S
C352 H353 0.961 . S
C352 H354 0.961 . S
C352 H355 0.960 . S
H353 C352 0.961 . S
H354 C352 0.961 . S
H355 C352 0.960 . S
C356 N357 1.342 . S
C356 C360 1.401 . S
C356 C361 1.499 . S
N357 Co340 1.989 . S
N357 C356 1.342 . S
N357 N358 1.388 . S
N358 Co341 1.993 . S
N358 N357 1.388 . S
N358 C359 1.346 . S
C359 N358 1.346 . S
C359 C360 1.396 . S
C359 C369 1.510 . S
C360 C356 1.401 . S
C360 C359 1.396 . S
C361 C356 1.499 . S
C361 H362 0.959 . S
C361 H363 0.960 . S
C361 H364 0.961 . S
H362 C361 0.959 . S
H363 C361 0.960 . S
H364 C361 0.961 . S
O365 Co340 1.967 . S
O365 C373 1.258 . S
O366 Co341 1.941 . S
O366 C373 1.266 . S
H367 C369 0.959 . S
H368 C369 0.961 . S
C369 C359 1.510 . S
C369 H367 0.959 . S
C369 H368 0.961 . S
C369 H370 0.960 . S
H370 C369 0.960 . S
H371 N351 0.862 . S
O372 Co340 1.920 . S
O372 C345 1.289 . S
C373 O365 1.258 . S
C373 O366 1.266 . S
Co374 O377 1.970 . S
Co374 N391 1.989 . S
Co374 O399 1.967 . S
Co374 O406 1.920 . S
Co375 O378 1.966 . S
Co375 N384 2.022 . S
Co375 N392 1.993 . S
Co375 O400 1.941 . S
C376 O377 1.258 . S
C376 O378 1.263 . S
O377 Co374 1.970 . S
O377 C376 1.258 . S
O378 Co375 1.966 . S
O378 C376 1.263 . S
C379 O380 1.235 . S
C379 O406 1.289 . S
O380 C379 1.235 . S
C381 C383 1.400 . S
C381 N384 1.351 . S
C381 C386 1.501 . S
C382 C383 1.387 . S
C382 N385 1.341 . S
C383 C381 1.400 . S
C383 C382 1.387 . S
N384 Co375 2.022 . S
N384 C381 1.351 . S
N384 N385 1.365 . S
N385 C382 1.341 . S
N385 N384 1.365 . S
N385 H405 0.862 . S
C386 C381 1.501 . S
C386 H387 0.961 . S
C386 H388 0.961 . S
C386 H389 0.960 . S
H387 C386 0.961 . S
H388 C386 0.961 . S
H389 C386 0.960 . S
C390 N391 1.342 . S
C390 C394 1.401 . S
C390 C395 1.499 . S
N391 Co374 1.989 . S
N391 C390 1.342 . S
N391 N392 1.388 . S
N392 Co375 1.993 . S
N392 N391 1.388 . S
N392 C393 1.346 . S
C393 N392 1.346 . S
C393 C394 1.396 . S
C393 C403 1.510 . S
C394 C390 1.401 . S
C394 C393 1.396 . S
C395 C390 1.499 . S
C395 H396 0.959 . S
C395 H397 0.960 . S
C395 H398 0.961 . S
H396 C395 0.959 . S
H397 C395 0.960 . S
H398 C395 0.961 . S
O399 Co374 1.967 . S
O399 C407 1.258 . S
O400 Co375 1.941 . S
O400 C407 1.266 . S
H401 C403 0.959 . S
H402 C403 0.961 . S
C403 C393 1.510 . S
C403 H401 0.959 . S
C403 H402 0.961 . S
C403 H404 0.960 . S
H404 C403 0.960 . S
H405 N385 0.862 . S
O406 Co374 1.920 . S
O406 C379 1.289 . S
C407 O399 1.258 . S
C407 O400 1.266 . S
Co408 O411 1.970 . S
Co408 N425 1.989 . S
Co408 O433 1.967 . S
Co408 O440 1.920 . S
Co409 O412 1.966 . S
Co409 N418 2.022 . S
Co409 N426 1.993 . S
Co409 O434 1.941 . S
C410 O411 1.258 . S
C410 O412 1.263 . S
O411 Co408 1.970 . S
O411 C410 1.258 . S
O412 Co409 1.966 . S
O412 C410 1.263 . S
C413 O414 1.235 . S
C413 O440 1.289 . S
O414 C413 1.235 . S
C415 C417 1.400 . S
C415 N418 1.351 . S
C415 C420 1.501 . S
C416 C417 1.387 . S
C416 N419 1.341 . S
C417 C415 1.400 . S
C417 C416 1.387 . S
N418 Co409 2.022 . S
N418 C415 1.351 . S
N418 N419 1.365 . S
N419 C416 1.341 . S
N419 N418 1.365 . S
N419 H439 0.862 . S
C420 C415 1.501 . S
C420 H421 0.961 . S
C420 H422 0.961 . S
C420 H423 0.960 . S
H421 C420 0.961 . S
H422 C420 0.961 . S
H423 C420 0.960 . S
C424 N425 1.342 . S
C424 C428 1.401 . S
C424 C429 1.499 . S
N425 Co408 1.989 . S
N425 C424 1.342 . S
N425 N426 1.388 . S
N426 Co409 1.993 . S
N426 N425 1.388 . S
N426 C427 1.346 . S
C427 N426 1.346 . S
C427 C428 1.396 . S
C427 C437 1.510 . S
C428 C424 1.401 . S
C428 C427 1.396 . S
C429 C424 1.499 . S
C429 H430 0.959 . S
C429 H431 0.960 . S
C429 H432 0.961 . S
H430 C429 0.959 . S
H431 C429 0.960 . S
H432 C429 0.961 . S
O433 Co408 1.967 . S
O433 C441 1.258 . S
O434 Co409 1.941 . S
O434 C441 1.266 . S
H435 C437 0.959 . S
H436 C437 0.961 . S
C437 C427 1.510 . S
C437 H435 0.959 . S
C437 H436 0.961 . S
C437 H438 0.960 . S
H438 C437 0.960 . S
H439 N419 0.862 . S
O440 Co408 1.920 . S
O440 C413 1.289 . S
C441 O433 1.258 . S
C441 O434 1.266 . S
Co442 O445 1.970 . S
Co442 N459 1.989 . S
Co442 O467 1.967 . S
Co442 O474 1.920 . S
Co443 O446 1.964 1_556 S
Co443 N452 2.030 . S
Co443 N460 1.991 1_556 S
Co443 O468 1.939 1_456 S
C444 O445 1.258 . S
C444 O446 1.263 . S
O445 Co442 1.970 . S
O445 C444 1.258 . S
O446 Co443 1.964 1_554 S
O446 C444 1.263 . S
C447 O448 1.235 . S
C447 O474 1.289 . S
O448 C447 1.235 . S
C449 C451 1.400 . S
C449 N452 1.351 . S
C449 C454 1.501 . S
C450 C451 1.387 . S
C450 N453 1.341 . S
C451 C449 1.400 . S
C451 C450 1.387 . S
N452 Co443 2.030 . S
N452 C449 1.351 . S
N452 N453 1.365 . S
N453 C450 1.341 . S
N453 N452 1.365 . S
N453 H473 0.862 1_455 S
C454 C449 1.501 . S
C454 H455 0.961 . S
C454 H456 0.961 . S
C454 H457 0.960 . S
H455 C454 0.961 . S
H456 C454 0.961 . S
H457 C454 0.960 . S
C458 N459 1.342 . S
C458 C462 1.401 . S
C458 C463 1.499 . S
N459 Co442 1.989 . S
N459 C458 1.342 . S
N459 N460 1.388 . S
N460 Co443 1.991 1_554 S
N460 N459 1.388 . S
N460 C461 1.346 . S
C461 N460 1.346 . S
C461 C462 1.396 . S
C461 C471 1.510 1_554 S
C462 C458 1.401 . S
C462 C461 1.396 . S
C463 C458 1.499 . S
C463 H464 0.959 . S
C463 H465 0.960 . S
C463 H466 0.961 . S
H464 C463 0.959 . S
H465 C463 0.960 . S
H466 C463 0.961 . S
O467 Co442 1.967 . S
O467 C475 1.258 1_455 S
O468 Co443 1.939 1_654 S
O468 C475 1.266 . S
H469 C471 0.959 . S
H470 C471 0.961 . S
C471 C461 1.510 1_556 S
C471 H469 0.959 . S
C471 H470 0.961 . S
C471 H472 0.960 . S
H472 C471 0.960 . S
H473 N453 0.862 1_655 S
O474 Co442 1.920 . S
O474 C447 1.289 . S
C475 O467 1.258 1_655 S
C475 O468 1.266 . S
Co476 O479 1.970 . S
Co476 N493 1.989 . S
Co476 O501 1.967 . S
Co476 O508 1.920 . S
Co477 O480 1.966 . S
Co477 N486 2.022 . S
Co477 N494 1.993 . S
Co477 O502 1.941 . S
C478 O479 1.258 . S
C478 O480 1.263 . S
O479 Co476 1.970 . S
O479 C478 1.258 . S
O480 Co477 1.966 . S
O480 C478 1.263 . S
C481 O482 1.235 . S
C481 O508 1.289 . S
O482 C481 1.235 . S
C483 C485 1.400 . S
C483 N486 1.351 . S
C483 C488 1.501 . S
C484 C485 1.387 . S
C484 N487 1.341 . S
C485 C483 1.400 . S
C485 C484 1.387 . S
N486 Co477 2.022 . S
N486 C483 1.351 . S
N486 N487 1.365 . S
N487 C484 1.341 . S
N487 N486 1.365 . S
N487 H507 0.862 . S
C488 C483 1.501 . S
C488 H489 0.961 . S
C488 H490 0.961 . S
C488 H491 0.960 . S
H489 C488 0.961 . S
H490 C488 0.961 . S
H491 C488 0.960 . S
C492 N493 1.342 . S
C492 C496 1.401 . S
C492 C497 1.499 . S
N493 Co476 1.989 . S
N493 C492 1.342 . S
N493 N494 1.388 . S
N494 Co477 1.993 . S
N494 N493 1.388 . S
N494 C495 1.346 . S
C495 N494 1.346 . S
C495 C496 1.396 . S
C495 C505 1.510 . S
C496 C492 1.401 . S
C496 C495 1.396 . S
C497 C492 1.499 . S
C497 H498 0.959 . S
C497 H499 0.960 . S
C497 H500 0.961 . S
H498 C497 0.959 . S
H499 C497 0.960 . S
H500 C497 0.961 . S
O501 Co476 1.967 . S
O501 C509 1.258 . S
O502 Co477 1.941 . S
O502 C509 1.266 . S
H503 C505 0.959 . S
H504 C505 0.961 . S
C505 C495 1.510 . S
C505 H503 0.959 . S
C505 H504 0.961 . S
C505 H506 0.960 . S
H506 C505 0.960 . S
H507 N487 0.862 . S
O508 Co476 1.920 . S
O508 C481 1.289 . S
C509 O501 1.258 . S
C509 O502 1.266 . S
Co510 O513 1.970 . S
Co510 N527 1.989 . S
Co510 O535 1.967 . S
Co510 O542 1.920 . S
Co511 O514 1.964 1_554 S
Co511 N520 2.030 . S
Co511 N528 1.991 1_554 S
Co511 O536 1.939 1_454 S
C512 O513 1.258 . S
C512 O514 1.263 . S
O513 Co510 1.970 . S
O513 C512 1.258 . S
O514 Co511 1.964 1_556 S
O514 C512 1.263 . S
C515 O516 1.235 . S
C515 O542 1.289 . S
O516 C515 1.235 . S
C517 C519 1.400 . S
C517 N520 1.351 . S
C517 C522 1.501 . S
C518 C519 1.387 . S
C518 N521 1.341 . S
C519 C517 1.400 . S
C519 C518 1.387 . S
N520 Co511 2.030 . S
N520 C517 1.351 . S
N520 N521 1.365 . S
N521 C518 1.341 . S
N521 N520 1.365 . S
N521 H541 0.862 1_455 S
C522 C517 1.501 . S
C522 H523 0.961 . S
C522 H524 0.961 . S
C522 H525 0.960 . S
H523 C522 0.961 . S
H524 C522 0.961 . S
H525 C522 0.960 . S
C526 N527 1.342 . S
C526 C530 1.401 . S
C526 C531 1.499 . S
N527 Co510 1.989 . S
N527 C526 1.342 . S
N527 N528 1.388 . S
N528 Co511 1.991 1_556 S
N528 N527 1.388 . S
N528 C529 1.346 . S
C529 N528 1.346 . S
C529 C530 1.396 . S
C529 C539 1.510 1_556 S
C530 C526 1.401 . S
C530 C529 1.396 . S
C531 C526 1.499 . S
C531 H532 0.959 . S
C531 H533 0.960 . S
C531 H534 0.961 . S
H532 C531 0.959 . S
H533 C531 0.960 . S
H534 C531 0.961 . S
O535 Co510 1.967 . S
O535 C543 1.258 1_455 S
O536 Co511 1.939 1_656 S
O536 C543 1.266 . S
H537 C539 0.959 . S
H538 C539 0.961 . S
C539 C529 1.510 1_554 S
C539 H537 0.959 . S
C539 H538 0.961 . S
C539 H540 0.960 . S
H540 C539 0.960 . S
H541 N521 0.862 1_655 S
O542 Co510 1.920 . S
O542 C515 1.289 . S
C543 O535 1.258 1_655 S
C543 O536 1.266 . S
C544 C545 1.349 . S
C544 C546 1.327 . S
C544 H569 0.950 . S
C545 C544 1.349 . S
C545 C561 1.349 . S
C546 C544 1.327 . S
C546 C565 1.429 . S
C546 H570 0.950 . S
C547 C564 1.574 . S
C547 C566 1.368 . S
C547 H571 0.949 . S
H548 C552 0.949 . S
C549 C550 1.349 . S
C549 C551 1.327 . S
C549 H572 0.950 . S
C550 C549 1.349 . S
C550 C562 1.349 . S
C551 C549 1.327 . S
C551 C567 1.429 . S
C551 H573 0.950 . S
C552 H548 0.949 . S
C552 C560 1.574 . S
C552 C568 1.368 . S
H553 C561 0.950 . S
H554 C559 0.950 . S
H555 C560 0.949 . S
H556 C562 0.950 . S
H557 C563 0.950 . S
H558 C564 0.949 . S
C559 H554 0.950 . S
C559 C561 1.327 . S
C559 C565 1.429 . S
C560 C552 1.574 . S
C560 H555 0.949 . S
C560 C566 1.368 . S
C561 C545 1.349 . S
C561 H553 0.950 . S
C561 C559 1.327 . S
C562 C550 1.349 . S
C562 H556 0.950 . S
C562 C563 1.327 . S
C563 H557 0.950 . S
C563 C562 1.327 . S
C563 C567 1.429 . S
C564 C547 1.574 . S
C564 H558 0.949 . S
C564 C568 1.368 . S
C565 C546 1.429 . S
C565 C559 1.429 . S
C565 C566 1.523 . S
C566 C547 1.368 . S
C566 C560 1.368 . S
C566 C565 1.523 . S
C567 C551 1.429 . S
C567 C563 1.429 . S
C567 C568 1.523 . S
C568 C552 1.368 . S
C568 C564 1.368 . S
C568 C567 1.523 . S
H569 C544 0.950 . S
H570 C546 0.950 . S
H571 C547 0.949 . S
H572 C549 0.950 . S
H573 C551 0.950 . S
C574 C575 1.349 1_556 S
C574 C576 1.327 . S
C574 H599 0.950 1_556 S
C575 C574 1.349 1_554 S
C575 C591 1.349 1_554 S
C576 C574 1.327 . S
C576 C595 1.429 . S
C576 H600 0.950 . S
C577 C594 1.574 . S
C577 C596 1.368 . S
C577 H601 0.949 . S
H578 C582 0.949 . S
C579 C580 1.349 . S
C579 C581 1.327 . S
C579 H602 0.950 . S
C580 C579 1.349 . S
C580 C592 1.349 . S
C581 C579 1.327 . S
C581 C597 1.429 . S
C581 H603 0.950 . S
C582 H578 0.949 . S
C582 C590 1.574 . S
C582 C598 1.368 . S
H583 C591 0.950 1_554 S
H584 C589 0.950 . S
H585 C590 0.949 . S
H586 C592 0.950 . S
H587 C593 0.950 . S
H588 C594 0.949 . S
C589 H584 0.950 . S
C589 C591 1.327 . S
C589 C595 1.429 . S
C590 C582 1.574 . S
C590 H585 0.949 . S
C590 C596 1.368 . S
C591 C575 1.349 1_556 S
C591 H583 0.950 1_556 S
C591 C589 1.327 . S
C592 C580 1.349 . S
C592 H586 0.950 . S
C592 C593 1.327 . S
C593 H587 0.950 . S
C593 C592 1.327 . S
C593 C597 1.429 . S
C594 C577 1.574 . S
C594 H588 0.949 . S
C594 C598 1.368 . S
C595 C576 1.429 . S
C595 C589 1.429 . S
C595 C596 1.523 . S
C596 C577 1.368 . S
C596 C590 1.368 . S
C596 C595 1.523 . S
C597 C581 1.429 . S
C597 C593 1.429 . S
C597 C598 1.523 . S
C598 C582 1.368 . S
C598 C594 1.368 . S
C598 C597 1.523 . S
H599 C574 0.950 1_554 S
H600 C576 0.950 . S
H601 C577 0.949 . S
H602 C579 0.950 . S
H603 C581 0.950 . S
C604 C605 1.349 . S
C604 C606 1.327 . S
C604 H629 0.950 . S
C605 C604 1.349 . S
C605 C621 1.349 . S
C606 C604 1.327 . S
C606 C625 1.429 . S
C606 H630 0.950 . S
C607 C624 1.574 . S
C607 C626 1.368 . S
C607 H631 0.949 . S
H608 C612 0.949 1_556 S
C609 C610 1.349 . S
C609 C611 1.327 . S
C609 H632 0.950 . S
C610 C609 1.349 . S
C610 C622 1.349 . S
C611 C609 1.327 . S
C611 C627 1.429 . S
C611 H633 0.950 . S
C612 H608 0.949 1_554 S
C612 C620 1.574 . S
C612 C628 1.368 1_554 S
H613 C621 0.950 . S
H614 C619 0.950 . S
H615 C620 0.949 . S
H616 C622 0.950 . S
H617 C623 0.950 . S
H618 C624 0.949 1_556 S
C619 H614 0.950 . S
C619 C621 1.327 . S
C619 C625 1.429 . S
C620 C612 1.574 . S
C620 H615 0.949 . S
C620 C626 1.368 . S
C621 C605 1.349 . S
C621 H613 0.950 . S
C621 C619 1.327 . S
C622 C610 1.349 . S
C622 H616 0.950 . S
C622 C623 1.327 . S
C623 H617 0.950 . S
C623 C622 1.327 . S
C623 C627 1.429 . S
C624 C607 1.574 . S
C624 H618 0.949 1_554 S
C624 C628 1.368 1_554 S
C625 C606 1.429 . S
C625 C619 1.429 . S
C625 C626 1.523 . S
C626 C607 1.368 . S
C626 C620 1.368 . S
C626 C625 1.523 . S
C627 C611 1.429 . S
C627 C623 1.429 . S
C627 C628 1.523 . S
C628 C612 1.368 1_556 S
C628 C624 1.368 1_556 S
C628 C627 1.523 . S
H629 C604 0.950 . S
H630 C606 0.950 . S
H631 C607 0.949 . S
H632 C609 0.950 . S
H633 C611 0.950 . S
C634 C635 1.349 . S
C634 C636 1.327 . S
C634 H659 0.950 . S
C635 C634 1.349 . S
C635 C651 1.349 . S
C636 C634 1.327 . S
C636 C655 1.429 . S
C636 H660 0.950 . S
C637 C654 1.574 . S
C637 C656 1.368 . S
C637 H661 0.949 . S
H638 C642 0.949 . S
C639 C640 1.349 . S
C639 C641 1.327 . S
C639 H662 0.950 . S
C640 C639 1.349 . S
C640 C652 1.349 . S
C641 C639 1.327 . S
C641 C657 1.429 . S
C641 H663 0.950 . S
C642 H638 0.949 . S
C642 C650 1.574 . S
C642 C658 1.368 . S
H643 C651 0.950 . S
H644 C649 0.950 . S
H645 C650 0.949 . S
H646 C652 0.950 . S
H647 C653 0.950 . S
H648 C654 0.949 . S
C649 H644 0.950 . S
C649 C651 1.327 . S
C649 C655 1.429 . S
C650 C642 1.574 . S
C650 H645 0.949 . S
C650 C656 1.368 . S
C651 C635 1.349 . S
C651 H643 0.950 . S
C651 C649 1.327 . S
C652 C640 1.349 . S
C652 H646 0.950 . S
C652 C653 1.327 . S
C653 H647 0.950 . S
C653 C652 1.327 . S
C653 C657 1.429 . S
C654 C637 1.574 . S
C654 H648 0.949 . S
C654 C658 1.368 . S
C655 C636 1.429 . S
C655 C649 1.429 . S
C655 C656 1.523 . S
C656 C637 1.368 . S
C656 C650 1.368 . S
C656 C655 1.523 . S
C657 C641 1.429 . S
C657 C653 1.429 . S
C657 C658 1.523 . S
C658 C642 1.368 . S
C658 C654 1.368 . S
C658 C657 1.523 . S
H659 C634 0.950 . S
H660 C636 0.950 . S
H661 C637 0.949 . S
H662 C639 0.950 . S
H663 C641 0.950 . S
C664 C665 1.349 . S
C664 C666 1.327 . S
C664 H689 0.950 . S
C665 C664 1.349 . S
C665 C681 1.349 . S
C666 C664 1.327 . S
C666 C685 1.429 . S
C666 H690 0.950 . S
C667 C684 1.574 . S
C667 C686 1.368 . S
C667 H691 0.949 . S
H668 C672 0.949 . S
C669 C670 1.349 . S
C669 C671 1.327 . S
C669 H692 0.950 . S
C670 C669 1.349 . S
C670 C682 1.349 . S
C671 C669 1.327 . S
C671 C687 1.429 . S
C671 H693 0.950 . S
C672 H668 0.949 . S
C672 C680 1.574 . S
C672 C688 1.368 . S
H673 C681 0.950 . S
H674 C679 0.950 . S
H675 C680 0.949 . S
H676 C682 0.950 . S
H677 C683 0.950 . S
H678 C684 0.949 . S
C679 H674 0.950 . S
C679 C681 1.327 . S
C679 C685 1.429 . S
C680 C672 1.574 . S
C680 H675 0.949 . S
C680 C686 1.368 . S
C681 C665 1.349 . S
C681 H673 0.950 . S
C681 C679 1.327 . S
C682 C670 1.349 . S
C682 H676 0.950 . S
C682 C683 1.327 . S
C683 H677 0.950 . S
C683 C682 1.327 . S
C683 C687 1.429 . S
C684 C667 1.574 . S
C684 H678 0.949 . S
C684 C688 1.368 . S
C685 C666 1.429 . S
C685 C679 1.429 . S
C685 C686 1.523 . S
C686 C667 1.368 . S
C686 C680 1.368 . S
C686 C685 1.523 . S
C687 C671 1.429 . S
C687 C683 1.429 . S
C687 C688 1.523 . S
C688 C672 1.368 . S
C688 C684 1.368 . S
C688 C687 1.523 . S
H689 C664 0.950 . S
H690 C666 0.950 . S
H691 C667 0.949 . S
H692 C669 0.950 . S
H693 C671 0.950 . S
C694 C695 1.349 . S
C694 C696 1.327 . S
C694 H719 0.950 . S
C695 C694 1.349 . S
C695 C711 1.349 . S
C696 C694 1.327 . S
C696 C715 1.429 . S
C696 H720 0.950 . S
C697 C714 1.574 . S
C697 C716 1.368 . S
C697 H721 0.949 . S
H698 C702 0.949 . S
C699 C700 1.349 . S
C699 C701 1.327 . S
C699 H722 0.950 . S
C700 C699 1.349 . S
C700 C712 1.349 . S
C701 C699 1.327 . S
C701 C717 1.429 . S
C701 H723 0.950 . S
C702 H698 0.949 . S
C702 C710 1.574 . S
C702 C718 1.368 . S
H703 C711 0.950 . S
H704 C709 0.950 . S
H705 C710 0.949 . S
H706 C712 0.950 . S
H707 C713 0.950 . S
H708 C714 0.949 . S
C709 H704 0.950 . S
C709 C711 1.327 . S
C709 C715 1.429 . S
C710 C702 1.574 . S
C710 H705 0.949 . S
C710 C716 1.368 . S
C711 C695 1.349 . S
C711 H703 0.950 . S
C711 C709 1.327 . S
C712 C700 1.349 . S
C712 H706 0.950 . S
C712 C713 1.327 . S
C713 H707 0.950 . S
C713 C712 1.327 . S
C713 C717 1.429 . S
C714 C697 1.574 . S
C714 H708 0.949 . S
C714 C718 1.368 . S
C715 C696 1.429 . S
C715 C709 1.429 . S
C715 C716 1.523 . S
C716 C697 1.368 . S
C716 C710 1.368 . S
C716 C715 1.523 . S
C717 C701 1.429 . S
C717 C713 1.429 . S
C717 C718 1.523 . S
C718 C702 1.368 . S
C718 C714 1.368 . S
C718 C717 1.523 . S
H719 C694 0.950 . S
H720 C696 0.950 . S
H721 C697 0.949 . S
H722 C699 0.950 . S
H723 C701 0.950 . S
C724 C725 1.349 . S
C724 C726 1.327 . S
C724 H749 0.950 . S
C725 C724 1.349 . S
C725 C741 1.349 . S
C726 C724 1.327 . S
C726 C745 1.429 . S
C726 H750 0.950 . S
C727 C744 1.574 . S
C727 C746 1.368 . S
C727 H751 0.949 . S
H728 C732 0.949 1_554 S
C729 C730 1.349 . S
C729 C731 1.327 . S
C729 H752 0.950 . S
C730 C729 1.349 . S
C730 C742 1.349 . S
C731 C729 1.327 . S
C731 C747 1.429 . S
C731 H753 0.950 . S
C732 H728 0.949 1_556 S
C732 C740 1.574 . S
C732 C748 1.368 1_556 S
H733 C741 0.950 . S
H734 C739 0.950 . S
H735 C740 0.949 . S
H736 C742 0.950 . S
H737 C743 0.950 . S
H738 C744 0.949 1_554 S
C739 H734 0.950 . S
C739 C741 1.327 . S
C739 C745 1.429 . S
C740 C732 1.574 . S
C740 H735 0.949 . S
C740 C746 1.368 . S
C741 C725 1.349 . S
C741 H733 0.950 . S
C741 C739 1.327 . S
C742 C730 1.349 . S
C742 H736 0.950 . S
C742 C743 1.327 . S
C743 H737 0.950 . S
C743 C742 1.327 . S
C743 C747 1.429 . S
C744 C727 1.574 . S
C744 H738 0.949 1_556 S
C744 C748 1.368 1_556 S
C745 C726 1.429 . S
C745 C739 1.429 . S
C745 C746 1.523 . S
C746 C727 1.368 . S
C746 C740 1.368 . S
C746 C745 1.523 . S
C747 C731 1.429 . S
C747 C743 1.429 . S
C747 C748 1.523 . S
C748 C732 1.368 1_554 S
C748 C744 1.368 1_554 S
C748 C747 1.523 . S
H749 C724 0.950 . S
H750 C726 0.950 . S
H751 C727 0.949 . S
H752 C729 0.950 . S
H753 C731 0.950 . S
C754 C755 1.349 . S
C754 C756 1.327 . S
C754 H779 0.950 . S
C755 C754 1.349 . S
C755 C771 1.349 . S
C756 C754 1.327 . S
C756 C775 1.429 . S
C756 H780 0.950 . S
C757 C774 1.574 . S
C757 C776 1.368 . S
C757 H781 0.949 . S
H758 C762 0.949 . S
C759 C760 1.349 1_554 S
C759 C761 1.327 . S
C759 H782 0.950 1_554 S
C760 C759 1.349 1_556 S
C760 C772 1.349 1_556 S
C761 C759 1.327 . S
C761 C777 1.429 . S
C761 H783 0.950 . S
C762 H758 0.949 . S
C762 C770 1.574 . S
C762 C778 1.368 . S
H763 C771 0.950 . S
H764 C769 0.950 . S
H765 C770 0.949 . S
H766 C772 0.950 1_556 S
H767 C773 0.950 . S
H768 C774 0.949 . S
C769 H764 0.950 . S
C769 C771 1.327 . S
C769 C775 1.429 . S
C770 C762 1.574 . S
C770 H765 0.949 . S
C770 C776 1.368 . S
C771 C755 1.349 . S
C771 H763 0.950 . S
C771 C769 1.327 . S
C772 C760 1.349 1_554 S
C772 H766 0.950 1_554 S
C772 C773 1.327 . S
C773 H767 0.950 . S
C773 C772 1.327 . S
C773 C777 1.429 . S
C774 C757 1.574 . S
C774 H768 0.949 . S
C774 C778 1.368 . S
C775 C756 1.429 . S
C775 C769 1.429 . S
C775 C776 1.523 . S
C776 C757 1.368 . S
C776 C770 1.368 . S
C776 C775 1.523 . S
C777 C761 1.429 . S
C777 C773 1.429 . S
C777 C778 1.523 . S
C778 C762 1.368 . S
C778 C774 1.368 . S
C778 C777 1.523 . S
H779 C754 0.950 . S
H780 C756 0.950 . S
H781 C757 0.949 . S
H782 C759 0.950 1_556 S
H783 C761 0.950 . S
C784 C785 1.349 . S
C784 C786 1.327 . S
C784 H809 0.950 . S
C785 C784 1.349 . S
C785 C801 1.349 . S
C786 C784 1.327 . S
C786 C805 1.429 . S
C786 H810 0.950 . S
C787 C804 1.574 . S
C787 C806 1.368 . S
C787 H811 0.949 . S
H788 C792 0.949 . S
C789 C790 1.349 1_554 S
C789 C791 1.327 . S
C789 H812 0.950 1_554 S
C790 C789 1.349 1_556 S
C790 C802 1.349 1_556 S
C791 C789 1.327 . S
C791 C807 1.429 . S
C791 H813 0.950 . S
C792 H788 0.949 . S
C792 C800 1.574 . S
C792 C808 1.368 . S
H793 C801 0.950 . S
H794 C799 0.950 . S
H795 C800 0.949 . S
H796 C802 0.950 1_556 S
H797 C803 0.950 . S
H798 C804 0.949 . S
C799 H794 0.950 . S
C799 C801 1.327 . S
C799 C805 1.429 . S
C800 C792 1.574 . S
C800 H795 0.949 . S
C800 C806 1.368 . S
C801 C785 1.349 . S
C801 H793 0.950 . S
C801 C799 1.327 . S
C802 C790 1.349 1_554 S
C802 H796 0.950 1_554 S
C802 C803 1.327 . S
C803 H797 0.950 . S
C803 C802 1.327 . S
C803 C807 1.429 . S
C804 C787 1.574 . S
C804 H798 0.949 . S
C804 C808 1.368 . S
C805 C786 1.429 . S
C805 C799 1.429 . S
C805 C806 1.523 . S
C806 C787 1.368 . S
C806 C800 1.368 . S
C806 C805 1.523 . S
C807 C791 1.429 . S
C807 C803 1.429 . S
C807 C808 1.523 . S
C808 C792 1.368 . S
C808 C804 1.368 . S
C808 C807 1.523 . S
H809 C784 0.950 . S
H810 C786 0.950 . S
H811 C787 0.949 . S
H812 C789 0.950 1_556 S
H813 C791 0.950 . S
C814 C815 1.349 . S
C814 C816 1.327 . S
C814 H839 0.950 . S
C815 C814 1.349 . S
C815 C831 1.349 . S
C816 C814 1.327 . S
C816 C835 1.429 . S
C816 H840 0.950 . S
C817 C834 1.574 . S
C817 C836 1.368 . S
C817 H841 0.949 . S
H818 C822 0.949 . S
C819 C820 1.349 . S
C819 C821 1.327 . S
C819 H842 0.950 . S
C820 C819 1.349 . S
C820 C832 1.349 . S
C821 C819 1.327 . S
C821 C837 1.429 . S
C821 H843 0.950 . S
C822 H818 0.949 . S
C822 C830 1.574 . S
C822 C838 1.368 . S
H823 C831 0.950 . S
H824 C829 0.950 . S
H825 C830 0.949 . S
H826 C832 0.950 . S
H827 C833 0.950 . S
H828 C834 0.949 . S
C829 H824 0.950 . S
C829 C831 1.327 . S
C829 C835 1.429 . S
C830 C822 1.574 . S
C830 H825 0.949 . S
C830 C836 1.368 . S
C831 C815 1.349 . S
C831 H823 0.950 . S
C831 C829 1.327 . S
C832 C820 1.349 . S
C832 H826 0.950 . S
C832 C833 1.327 . S
C833 H827 0.950 . S
C833 C832 1.327 . S
C833 C837 1.429 . S
C834 C817 1.574 . S
C834 H828 0.949 . S
C834 C838 1.368 . S
C835 C816 1.429 . S
C835 C829 1.429 . S
C835 C836 1.523 . S
C836 C817 1.368 . S
C836 C830 1.368 . S
C836 C835 1.523 . S
C837 C821 1.429 . S
C837 C833 1.429 . S
C837 C838 1.523 . S
C838 C822 1.368 . S
C838 C834 1.368 . S
C838 C837 1.523 . S
H839 C814 0.950 . S
H840 C816 0.950 . S
H841 C817 0.949 . S
H842 C819 0.950 . S
H843 C821 0.950 . S
C844 C845 1.349 . S
C844 C846 1.327 . S
C844 H869 0.950 . S
C845 C844 1.349 . S
C845 C861 1.349 . S
C846 C844 1.327 . S
C846 C865 1.429 . S
C846 H870 0.950 . S
C847 C864 1.574 . S
C847 C866 1.368 . S
C847 H871 0.949 . S
H848 C852 0.949 . S
C849 C850 1.349 . S
C849 C851 1.327 . S
C849 H872 0.950 . S
C850 C849 1.349 . S
C850 C862 1.349 . S
C851 C849 1.327 . S
C851 C867 1.429 . S
C851 H873 0.950 . S
C852 H848 0.949 . S
C852 C860 1.574 . S
C852 C868 1.368 . S
H853 C861 0.950 . S
H854 C859 0.950 . S
H855 C860 0.949 . S
H856 C862 0.950 . S
H857 C863 0.950 . S
H858 C864 0.949 . S
C859 H854 0.950 . S
C859 C861 1.327 . S
C859 C865 1.429 . S
C860 C852 1.574 . S
C860 H855 0.949 . S
C860 C866 1.368 . S
C861 C845 1.349 . S
C861 H853 0.950 . S
C861 C859 1.327 . S
C862 C850 1.349 . S
C862 H856 0.950 . S
C862 C863 1.327 . S
C863 H857 0.950 . S
C863 C862 1.327 . S
C863 C867 1.429 . S
C864 C847 1.574 . S
C864 H858 0.949 . S
C864 C868 1.368 . S
C865 C846 1.429 . S
C865 C859 1.429 . S
C865 C866 1.523 . S
C866 C847 1.368 . S
C866 C860 1.368 . S
C866 C865 1.523 . S
C867 C851 1.429 . S
C867 C863 1.429 . S
C867 C868 1.523 . S
C868 C852 1.368 . S
C868 C864 1.368 . S
C868 C867 1.523 . S
H869 C844 0.950 . S
H870 C846 0.950 . S
H871 C847 0.949 . S
H872 C849 0.950 . S
H873 C851 0.950 . S
C874 C875 1.349 . S
C874 C876 1.327 . S
C874 H899 0.950 . S
C875 C874 1.349 . S
C875 C891 1.349 . S
C876 C874 1.327 . S
C876 C895 1.429 . S
C876 H900 0.950 . S
C877 C894 1.574 . S
C877 C896 1.368 . S
C877 H901 0.949 . S
H878 C882 0.949 . S
C879 C880 1.349 1_556 S
C879 C881 1.327 . S
C879 H902 0.950 1_556 S
C880 C879 1.349 1_554 S
C880 C892 1.349 1_554 S
C881 C879 1.327 . S
C881 C897 1.429 . S
C881 H903 0.950 . S
C882 H878 0.949 . S
C882 C890 1.574 . S
C882 C898 1.368 . S
H883 C891 0.950 . S
H884 C889 0.950 . S
H885 C890 0.949 . S
H886 C892 0.950 1_554 S
H887 C893 0.950 . S
H888 C894 0.949 . S
C889 H884 0.950 . S
C889 C891 1.327 . S
C889 C895 1.429 . S
C890 C882 1.574 . S
C890 H885 0.949 . S
C890 C896 1.368 . S
C891 C875 1.349 . S
C891 H883 0.950 . S
C891 C889 1.327 . S
C892 C880 1.349 1_556 S
C892 H886 0.950 1_556 S
C892 C893 1.327 . S
C893 H887 0.950 . S
C893 C892 1.327 . S
C893 C897 1.429 . S
C894 C877 1.574 . S
C894 H888 0.949 . S
C894 C898 1.368 . S
C895 C876 1.429 . S
C895 C889 1.429 . S
C895 C896 1.523 . S
C896 C877 1.368 . S
C896 C890 1.368 . S
C896 C895 1.523 . S
C897 C881 1.429 . S
C897 C893 1.429 . S
C897 C898 1.523 . S
C898 C882 1.368 . S
C898 C894 1.368 . S
C898 C897 1.523 . S
H899 C874 0.950 . S
H900 C876 0.950 . S
H901 C877 0.949 . S
H902 C879 0.950 1_554 S
H903 C881 0.950 . S
C904 C905 1.349 . S
C904 C906 1.327 . S
C904 H929 0.950 . S
C905 C904 1.349 . S
C905 C921 1.349 . S
C906 C904 1.327 . S
C906 C925 1.429 . S
C906 H930 0.950 . S
C907 C924 1.574 . S
C907 C926 1.368 1_554 S
C907 H931 0.949 1_554 S
H908 C912 0.949 . S
C909 C910 1.349 . S
C909 C911 1.327 . S
C909 H932 0.950 . S
C910 C909 1.349 . S
C910 C922 1.349 . S
C911 C909 1.327 . S
C911 C927 1.429 . S
C911 H933 0.950 . S
C912 H908 0.949 . S
C912 C920 1.574 . S
C912 C928 1.368 . S
H913 C921 0.950 . S
H914 C919 0.950 . S
H915 C920 0.949 1_556 S
H916 C922 0.950 . S
H917 C923 0.950 . S
H918 C924 0.949 . S
C919 H914 0.950 . S
C919 C921 1.327 . S
C919 C925 1.429 . S
C920 C912 1.574 . S
C920 H915 0.949 1_554 S
C920 C926 1.368 1_554 S
C921 C905 1.349 . S
C921 H913 0.950 . S
C921 C919 1.327 . S
C922 C910 1.349 . S
C922 H916 0.950 . S
C922 C923 1.327 . S
C923 H917 0.950 . S
C923 C922 1.327 . S
C923 C927 1.429 . S
C924 C907 1.574 . S
C924 H918 0.949 . S
C924 C928 1.368 . S
C925 C906 1.429 . S
C925 C919 1.429 . S
C925 C926 1.523 . S
C926 C907 1.368 1_556 S
C926 C920 1.368 1_556 S
C926 C925 1.523 . S
C927 C911 1.429 . S
C927 C923 1.429 . S
C927 C928 1.523 . S
C928 C912 1.368 . S
C928 C924 1.368 . S
C928 C927 1.523 . S
H929 C904 0.950 . S
H930 C906 0.950 . S
H931 C907 0.949 1_556 S
H932 C909 0.950 . S
H933 C911 0.950 . S
C934 C935 1.349 . S
C934 C936 1.327 . S
C934 H959 0.950 . S
C935 C934 1.349 . S
C935 C951 1.349 . S
C936 C934 1.327 . S
C936 C955 1.429 . S
C936 H960 0.950 . S
C937 C954 1.574 . S
C937 C956 1.368 . S
C937 H961 0.949 . S
H938 C942 0.949 . S
C939 C940 1.349 . S
C939 C941 1.327 . S
C939 H962 0.950 . S
C940 C939 1.349 . S
C940 C952 1.349 . S
C941 C939 1.327 . S
C941 C957 1.429 . S
C941 H963 0.950 . S
C942 H938 0.949 . S
C942 C950 1.574 . S
C942 C958 1.368 . S
H943 C951 0.950 . S
H944 C949 0.950 . S
H945 C950 0.949 . S
H946 C952 0.950 . S
H947 C953 0.950 . S
H948 C954 0.949 . S
C949 H944 0.950 . S
C949 C951 1.327 . S
C949 C955 1.429 . S
C950 C942 1.574 . S
C950 H945 0.949 . S
C950 C956 1.368 . S
C951 C935 1.349 . S
C951 H943 0.950 . S
C951 C949 1.327 . S
C952 C940 1.349 . S
C952 H946 0.950 . S
C952 C953 1.327 . S
C953 H947 0.950 . S
C953 C952 1.327 . S
C953 C957 1.429 . S
C954 C937 1.574 . S
C954 H948 0.949 . S
C954 C958 1.368 . S
C955 C936 1.429 . S
C955 C949 1.429 . S
C955 C956 1.523 . S
C956 C937 1.368 . S
C956 C950 1.368 . S
C956 C955 1.523 . S
C957 C941 1.429 . S
C957 C953 1.429 . S
C957 C958 1.523 . S
C958 C942 1.368 . S
C958 C954 1.368 . S
C958 C957 1.523 . S
H959 C934 0.950 . S
H960 C936 0.950 . S
H961 C937 0.949 . S
H962 C939 0.950 . S
H963 C941 0.950 . S
C964 C965 1.349 . S
C964 C966 1.327 . S
C964 H989 0.950 . S
C965 C964 1.349 . S
C965 C981 1.349 . S
C966 C964 1.327 . S
C966 C985 1.429 . S
C966 H990 0.950 . S
C967 C984 1.574 . S
C967 C986 1.368 1_556 S
C967 H991 0.949 1_556 S
H968 C972 0.949 . S
C969 C970 1.349 . S
C969 C971 1.327 . S
C969 H992 0.950 . S
C970 C969 1.349 . S
C970 C982 1.349 . S
C971 C969 1.327 . S
C971 C987 1.429 . S
C971 H993 0.950 . S
C972 H968 0.949 . S
C972 C980 1.574 . S
C972 C988 1.368 . S
H973 C981 0.950 . S
H974 C979 0.950 . S
H975 C980 0.949 1_554 S
H976 C982 0.950 . S
H977 C983 0.950 . S
H978 C984 0.949 . S
C979 H974 0.950 . S
C979 C981 1.327 . S
C979 C985 1.429 . S
C980 C972 1.574 . S
C980 H975 0.949 1_556 S
C980 C986 1.368 1_556 S
C981 C965 1.349 . S
C981 H973 0.950 . S
C981 C979 1.327 . S
C982 C970 1.349 . S
C982 H976 0.950 . S
C982 C983 1.327 . S
C983 H977 0.950 . S
C983 C982 1.327 . S
C983 C987 1.429 . S
C984 C967 1.574 . S
C984 H978 0.949 . S
C984 C988 1.368 . S
C985 C966 1.429 . S
C985 C979 1.429 . S
C985 C986 1.523 . S
C986 C967 1.368 1_554 S
C986 C980 1.368 1_554 S
C986 C985 1.523 . S
C987 C971 1.429 . S
C987 C983 1.429 . S
C987 C988 1.523 . S
C988 C972 1.368 . S
C988 C984 1.368 . S
C988 C987 1.523 . S
H989 C964 0.950 . S
H990 C966 0.950 . S
H991 C967 0.949 1_554 S
H992 C969 0.950 . S
H993 C971 0.950 . S
C994 C995 1.349 . S
C994 C996 1.327 . S
C994 H1019 0.950 . S
C995 C994 1.349 . S
C995 C1011 1.349 . S
C996 C994 1.327 . S
C996 C1015 1.429 . S
C996 H1020 0.950 . S
C997 C1014 1.574 . S
C997 C1016 1.368 . S
C997 H1021 0.949 . S
H998 C1002 0.949 . S
C999 C1000 1.349 . S
C999 C1001 1.327 . S
C999 H1022 0.950 . S
C1000 C999 1.349 . S
C1000 C1012 1.349 . S
C1001 C999 1.327 . S
C1001 C1017 1.429 . S
C1001 H1023 0.950 . S
C1002 H998 0.949 . S
C1002 C1010 1.574 . S
C1002 C1018 1.368 . S
H1003 C1011 0.950 . S
H1004 C1009 0.950 . S
H1005 C1010 0.949 . S
H1006 C1012 0.950 . S
H1007 C1013 0.950 . S
H1008 C1014 0.949 . S
C1009 H1004 0.950 . S
C1009 C1011 1.327 . S
C1009 C1015 1.429 . S
C1010 C1002 1.574 . S
C1010 H1005 0.949 . S
C1010 C1016 1.368 . S
C1011 C995 1.349 . S
C1011 H1003 0.950 . S
C1011 C1009 1.327 . S
C1012 C1000 1.349 . S
C1012 H1006 0.950 . S
C1012 C1013 1.327 . S
C1013 H1007 0.950 . S
C1013 C1012 1.327 . S
C1013 C1017 1.429 . S
C1014 C997 1.574 . S
C1014 H1008 0.949 . S
C1014 C1018 1.368 . S
C1015 C996 1.429 . S
C1015 C1009 1.429 . S
C1015 C1016 1.523 . S
C1016 C997 1.368 . S
C1016 C1010 1.368 . S
C1016 C1015 1.523 . S
C1017 C1001 1.429 . S
C1017 C1013 1.429 . S
C1017 C1018 1.523 . S
C1018 C1002 1.368 . S
C1018 C1014 1.368 . S
C1018 C1017 1.523 . S
H1019 C994 0.950 . S
H1020 C996 0.950 . S
H1021 C997 0.949 . S
H1022 C999 0.950 . S
H1023 C1001 0.950 . S
C1024 C1025 1.349 1_556 S
C1024 C1026 1.327 . S
C1024 H1049 0.950 . S
C1025 C1024 1.349 1_554 S
C1025 C1041 1.349 . S
C1026 C1024 1.327 . S
C1026 C1045 1.429 1_556 S
C1026 H1050 0.950 . S
C1027 C1044 1.574 . S
C1027 C1046 1.368 . S
C1027 H1051 0.949 . S
H1028 C1032 0.949 . S
C1029 C1030 1.349 1_554 S
C1029 C1031 1.327 . S
C1029 H1052 0.950 . S
C1030 C1029 1.349 1_556 S
C1030 C1042 1.349 . S
C1031 C1029 1.327 . S
C1031 C1047 1.429 1_554 S
C1031 H1053 0.950 . S
C1032 H1028 0.949 . S
C1032 C1040 1.574 . S
C1032 C1048 1.368 . S
H1033 C1041 0.950 . S
H1034 C1039 0.950 . S
H1035 C1040 0.949 . S
H1036 C1042 0.950 . S
H1037 C1043 0.950 . S
H1038 C1044 0.949 . S
C1039 H1034 0.950 . S
C1039 C1041 1.327 . S
C1039 C1045 1.429 . S
C1040 C1032 1.574 . S
C1040 H1035 0.949 . S
C1040 C1046 1.368 1_556 S
C1041 C1025 1.349 . S
C1041 H1033 0.950 . S
C1041 C1039 1.327 . S
C1042 C1030 1.349 . S
C1042 H1036 0.950 . S
C1042 C1043 1.327 . S
C1043 H1037 0.950 . S
C1043 C1042 1.327 . S
C1043 C1047 1.429 . S
C1044 C1027 1.574 . S
C1044 H1038 0.949 . S
C1044 C1048 1.368 1_554 S
C1045 C1026 1.429 1_554 S
C1045 C1039 1.429 . S
C1045 C1046 1.523 . S
C1046 C1027 1.368 . S
C1046 C1040 1.368 1_554 S
C1046 C1045 1.523 . S
C1047 C1031 1.429 1_556 S
C1047 C1043 1.429 . S
C1047 C1048 1.523 . S
C1048 C1032 1.368 . S
C1048 C1044 1.368 1_556 S
C1048 C1047 1.523 . S
H1049 C1024 0.950 . S
H1050 C1026 0.950 . S
H1051 C1027 0.949 . S
H1052 C1029 0.950 . S
H1053 C1031 0.950 . S
C1054 C1055 1.349 . S
C1054 C1056 1.327 . S
C1054 H1079 0.950 . S
C1055 C1054 1.349 . S
C1055 C1071 1.349 . S
C1056 C1054 1.327 . S
C1056 C1075 1.429 . S
C1056 H1080 0.950 . S
C1057 C1074 1.574 . S
C1057 C1076 1.368 . S
C1057 H1081 0.949 . S
H1058 C1062 0.949 . S
C1059 C1060 1.349 . S
C1059 C1061 1.327 . S
C1059 H1082 0.950 . S
C1060 C1059 1.349 . S
C1060 C1072 1.349 . S
C1061 C1059 1.327 . S
C1061 C1077 1.429 . S
C1061 H1083 0.950 . S
C1062 H1058 0.949 . S
C1062 C1070 1.574 . S
C1062 C1078 1.368 . S
H1063 C1071 0.950 . S
H1064 C1069 0.950 . S
H1065 C1070 0.949 . S
H1066 C1072 0.950 . S
H1067 C1073 0.950 . S
H1068 C1074 0.949 . S
C1069 H1064 0.950 . S
C1069 C1071 1.327 . S
C1069 C1075 1.429 . S
C1070 C1062 1.574 . S
C1070 H1065 0.949 . S
C1070 C1076 1.368 . S
C1071 C1055 1.349 . S
C1071 H1063 0.950 . S
C1071 C1069 1.327 . S
C1072 C1060 1.349 . S
C1072 H1066 0.950 . S
C1072 C1073 1.327 . S
C1073 H1067 0.950 . S
C1073 C1072 1.327 . S
C1073 C1077 1.429 . S
C1074 C1057 1.574 . S
C1074 H1068 0.949 . S
C1074 C1078 1.368 . S
C1075 C1056 1.429 . S
C1075 C1069 1.429 . S
C1075 C1076 1.523 . S
C1076 C1057 1.368 . S
C1076 C1070 1.368 . S
C1076 C1075 1.523 . S
C1077 C1061 1.429 . S
C1077 C1073 1.429 . S
C1077 C1078 1.523 . S
C1078 C1062 1.368 . S
C1078 C1074 1.368 . S
C1078 C1077 1.523 . S
H1079 C1054 0.950 . S
H1080 C1056 0.950 . S
H1081 C1057 0.949 . S
H1082 C1059 0.950 . S
H1083 C1061 0.950 . S
C1084 C1085 1.349 . S
C1084 C1086 1.327 . S
C1084 H1109 0.950 . S
C1085 C1084 1.349 . S
C1085 C1101 1.349 . S
C1086 C1084 1.327 . S
C1086 C1105 1.429 . S
C1086 H1110 0.950 . S
C1087 C1104 1.574 . S
C1087 C1106 1.368 . S
C1087 H1111 0.949 . S
H1088 C1092 0.949 . S
C1089 C1090 1.349 . S
C1089 C1091 1.327 . S
C1089 H1112 0.950 . S
C1090 C1089 1.349 . S
C1090 C1102 1.349 . S
C1091 C1089 1.327 . S
C1091 C1107 1.429 . S
C1091 H1113 0.950 . S
C1092 H1088 0.949 . S
C1092 C1100 1.574 . S
C1092 C1108 1.368 . S
H1093 C1101 0.950 . S
H1094 C1099 0.950 . S
H1095 C1100 0.949 . S
H1096 C1102 0.950 . S
H1097 C1103 0.950 . S
H1098 C1104 0.949 . S
C1099 H1094 0.950 . S
C1099 C1101 1.327 . S
C1099 C1105 1.429 . S
C1100 C1092 1.574 . S
C1100 H1095 0.949 . S
C1100 C1106 1.368 . S
C1101 C1085 1.349 . S
C1101 H1093 0.950 . S
C1101 C1099 1.327 . S
C1102 C1090 1.349 . S
C1102 H1096 0.950 . S
C1102 C1103 1.327 . S
C1103 H1097 0.950 . S
C1103 C1102 1.327 . S
C1103 C1107 1.429 . S
C1104 C1087 1.574 . S
C1104 H1098 0.949 . S
C1104 C1108 1.368 . S
C1105 C1086 1.429 . S
C1105 C1099 1.429 . S
C1105 C1106 1.523 . S
C1106 C1087 1.368 . S
C1106 C1100 1.368 . S
C1106 C1105 1.523 . S
C1107 C1091 1.429 . S
C1107 C1103 1.429 . S
C1107 C1108 1.523 . S
C1108 C1092 1.368 . S
C1108 C1104 1.368 . S
C1108 C1107 1.523 . S
H1109 C1084 0.950 . S
H1110 C1086 0.950 . S
H1111 C1087 0.949 . S
H1112 C1089 0.950 . S
H1113 C1091 0.950 . S
C1114 C1115 1.349 . S
C1114 C1116 1.327 . S
C1114 H1139 0.950 . S
C1115 C1114 1.349 . S
C1115 C1131 1.349 . S
C1116 C1114 1.327 . S
C1116 C1135 1.429 . S
C1116 H1140 0.950 . S
C1117 C1134 1.574 . S
C1117 C1136 1.368 . S
C1117 H1141 0.949 . S
H1118 C1122 0.949 . S
C1119 C1120 1.349 . S
C1119 C1121 1.327 . S
C1119 H1142 0.950 . S
C1120 C1119 1.349 . S
C1120 C1132 1.349 . S
C1121 C1119 1.327 . S
C1121 C1137 1.429 . S
C1121 H1143 0.950 . S
C1122 H1118 0.949 . S
C1122 C1130 1.574 . S
C1122 C1138 1.368 . S
H1123 C1131 0.950 . S
H1124 C1129 0.950 . S
H1125 C1130 0.949 . S
H1126 C1132 0.950 . S
H1127 C1133 0.950 . S
H1128 C1134 0.949 . S
C1129 H1124 0.950 . S
C1129 C1131 1.327 . S
C1129 C1135 1.429 . S
C1130 C1122 1.574 . S
C1130 H1125 0.949 . S
C1130 C1136 1.368 . S
C1131 C1115 1.349 . S
C1131 H1123 0.950 . S
C1131 C1129 1.327 . S
C1132 C1120 1.349 . S
C1132 H1126 0.950 . S
C1132 C1133 1.327 . S
C1133 H1127 0.950 . S
C1133 C1132 1.327 . S
C1133 C1137 1.429 . S
C1134 C1117 1.574 . S
C1134 H1128 0.949 . S
C1134 C1138 1.368 . S
C1135 C1116 1.429 . S
C1135 C1129 1.429 . S
C1135 C1136 1.523 . S
C1136 C1117 1.368 . S
C1136 C1130 1.368 . S
C1136 C1135 1.523 . S
C1137 C1121 1.429 . S
C1137 C1133 1.429 . S
C1137 C1138 1.523 . S
C1138 C1122 1.368 . S
C1138 C1134 1.368 . S
C1138 C1137 1.523 . S
H1139 C1114 0.950 . S
H1140 C1116 0.950 . S
H1141 C1117 0.949 . S
H1142 C1119 0.950 . S
H1143 C1121 0.950 . S
C1144 C1145 1.349 . S
C1144 C1146 1.327 . S
C1144 H1169 0.950 . S
C1145 C1144 1.349 . S
C1145 C1161 1.349 . S
C1146 C1144 1.327 . S
C1146 C1165 1.429 . S
C1146 H1170 0.950 . S
C1147 C1164 1.574 . S
C1147 C1166 1.368 . S
C1147 H1171 0.949 . S
H1148 C1152 0.949 . S
C1149 C1150 1.349 . S
C1149 C1151 1.327 . S
C1149 H1172 0.950 . S
C1150 C1149 1.349 . S
C1150 C1162 1.349 . S
C1151 C1149 1.327 . S
C1151 C1167 1.429 . S
C1151 H1173 0.950 . S
C1152 H1148 0.949 . S
C1152 C1160 1.574 . S
C1152 C1168 1.368 . S
H1153 C1161 0.950 . S
H1154 C1159 0.950 . S
H1155 C1160 0.949 . S
H1156 C1162 0.950 . S
H1157 C1163 0.950 . S
H1158 C1164 0.949 . S
C1159 H1154 0.950 . S
C1159 C1161 1.327 . S
C1159 C1165 1.429 . S
C1160 C1152 1.574 . S
C1160 H1155 0.949 . S
C1160 C1166 1.368 . S
C1161 C1145 1.349 . S
C1161 H1153 0.950 . S
C1161 C1159 1.327 . S
C1162 C1150 1.349 . S
C1162 H1156 0.950 . S
C1162 C1163 1.327 . S
C1163 H1157 0.950 . S
C1163 C1162 1.327 . S
C1163 C1167 1.429 . S
C1164 C1147 1.574 . S
C1164 H1158 0.949 . S
C1164 C1168 1.368 . S
C1165 C1146 1.429 . S
C1165 C1159 1.429 . S
C1165 C1166 1.523 . S
C1166 C1147 1.368 . S
C1166 C1160 1.368 . S
C1166 C1165 1.523 . S
C1167 C1151 1.429 . S
C1167 C1163 1.429 . S
C1167 C1168 1.523 . S
C1168 C1152 1.368 . S
C1168 C1164 1.368 . S
C1168 C1167 1.523 . S
H1169 C1144 0.950 . S
H1170 C1146 0.950 . S
H1171 C1147 0.949 . S
H1172 C1149 0.950 . S
H1173 C1151 0.950 . S
C1174 C1175 1.349 . S
C1174 C1176 1.327 . S
C1174 H1199 0.950 . S
C1175 C1174 1.349 . S
C1175 C1191 1.349 . S
C1176 C1174 1.327 . S
C1176 C1195 1.429 . S
C1176 H1200 0.950 . S
C1177 C1194 1.574 . S
C1177 C1196 1.368 . S
C1177 H1201 0.949 . S
H1178 C1182 0.949 . S
C1179 C1180 1.349 . S
C1179 C1181 1.327 . S
C1179 H1202 0.950 . S
C1180 C1179 1.349 . S
C1180 C1192 1.349 . S
C1181 C1179 1.327 . S
C1181 C1197 1.429 . S
C1181 H1203 0.950 . S
C1182 H1178 0.949 . S
C1182 C1190 1.574 . S
C1182 C1198 1.368 . S
H1183 C1191 0.950 . S
H1184 C1189 0.950 . S
H1185 C1190 0.949 . S
H1186 C1192 0.950 . S
H1187 C1193 0.950 . S
H1188 C1194 0.949 . S
C1189 H1184 0.950 . S
C1189 C1191 1.327 . S
C1189 C1195 1.429 . S
C1190 C1182 1.574 . S
C1190 H1185 0.949 . S
C1190 C1196 1.368 . S
C1191 C1175 1.349 . S
C1191 H1183 0.950 . S
C1191 C1189 1.327 . S
C1192 C1180 1.349 . S
C1192 H1186 0.950 . S
C1192 C1193 1.327 . S
C1193 H1187 0.950 . S
C1193 C1192 1.327 . S
C1193 C1197 1.429 . S
C1194 C1177 1.574 . S
C1194 H1188 0.949 . S
C1194 C1198 1.368 . S
C1195 C1176 1.429 . S
C1195 C1189 1.429 . S
C1195 C1196 1.523 . S
C1196 C1177 1.368 . S
C1196 C1190 1.368 . S
C1196 C1195 1.523 . S
C1197 C1181 1.429 . S
C1197 C1193 1.429 . S
C1197 C1198 1.523 . S
C1198 C1182 1.368 . S
C1198 C1194 1.368 . S
C1198 C1197 1.523 . S
H1199 C1174 0.950 . S
H1200 C1176 0.950 . S
H1201 C1177 0.949 . S
H1202 C1179 0.950 . S
H1203 C1181 0.950 . S
C1204 C1205 1.349 . S
C1204 C1206 1.327 . S
C1204 H1229 0.950 . S
C1205 C1204 1.349 . S
C1205 C1221 1.349 . S
C1206 C1204 1.327 . S
C1206 C1225 1.429 . S
C1206 H1230 0.950 . S
C1207 C1224 1.574 1_545 S
C1207 C1226 1.368 . S
C1207 H1231 0.949 . S
H1208 C1212 0.949 . S
C1209 C1210 1.349 . S
C1209 C1211 1.327 . S
C1209 H1232 0.950 . S
C1210 C1209 1.349 . S
C1210 C1222 1.349 . S
C1211 C1209 1.327 . S
C1211 C1227 1.429 . S
C1211 H1233 0.950 . S
C1212 H1208 0.949 . S
C1212 C1220 1.574 1_565 S
C1212 C1228 1.368 . S
H1213 C1221 0.950 . S
H1214 C1219 0.950 . S
H1215 C1220 0.949 . S
H1216 C1222 0.950 . S
H1217 C1223 0.950 . S
H1218 C1224 0.949 . S
C1219 H1214 0.950 . S
C1219 C1221 1.327 . S
C1219 C1225 1.429 . S
C1220 C1212 1.574 1_545 S
C1220 H1215 0.949 . S
C1220 C1226 1.368 . S
C1221 C1205 1.349 . S
C1221 H1213 0.950 . S
C1221 C1219 1.327 . S
C1222 C1210 1.349 . S
C1222 H1216 0.950 . S
C1222 C1223 1.327 . S
C1223 H1217 0.950 . S
C1223 C1222 1.327 . S
C1223 C1227 1.429 . S
C1224 C1207 1.574 1_565 S
C1224 H1218 0.949 . S
C1224 C1228 1.368 . S
C1225 C1206 1.429 . S
C1225 C1219 1.429 . S
C1225 C1226 1.523 . S
C1226 C1207 1.368 . S
C1226 C1220 1.368 . S
C1226 C1225 1.523 . S
C1227 C1211 1.429 . S
C1227 C1223 1.429 . S
C1227 C1228 1.523 . S
C1228 C1212 1.368 . S
C1228 C1224 1.368 . S
C1228 C1227 1.523 . S
H1229 C1204 0.950 . S
H1230 C1206 0.950 . S
H1231 C1207 0.949 . S
H1232 C1209 0.950 . S
H1233 C1211 0.950 . S
C1234 C1235 1.349 1_556 S
C1234 C1236 1.327 . S
C1234 H1259 0.950 1_455 S
C1235 C1234 1.349 1_554 S
C1235 C1251 1.349 . S
C1236 C1234 1.327 . S
C1236 C1255 1.429 1_556 S
C1236 H1260 0.950 1_455 S
C1237 C1254 1.574 1_565 S
C1237 C1256 1.368 . S
C1237 H1261 0.949 . S
H1238 C1242 0.949 1_655 S
C1239 C1240 1.349 1_554 S
C1239 C1241 1.327 . S
C1239 H1262 0.950 . S
C1240 C1239 1.349 1_556 S
C1240 C1252 1.349 . S
C1241 C1239 1.327 . S
C1241 C1257 1.429 1_554 S
C1241 H1263 0.950 . S
C1242 H1238 0.949 1_455 S
C1242 C1250 1.574 1_545 S
C1242 C1258 1.368 . S
H1243 C1251 0.950 . S
H1244 C1249 0.950 . S
H1245 C1250 0.949 1_655 S
H1246 C1252 0.950 1_655 S
H1247 C1253 0.950 1_655 S
H1248 C1254 0.949 . S
C1249 H1244 0.950 . S
C1249 C1251 1.327 . S
C1249 C1255 1.429 . S
C1250 C1242 1.574 1_565 S
C1250 H1245 0.949 1_455 S
C1250 C1256 1.368 1_556 S
C1251 C1235 1.349 . S
C1251 H1243 0.950 . S
C1251 C1249 1.327 . S
C1252 C1240 1.349 . S
C1252 H1246 0.950 1_455 S
C1252 C1253 1.327 . S
C1253 H1247 0.950 1_455 S
C1253 C1252 1.327 . S
C1253 C1257 1.429 . S
C1254 C1237 1.574 1_545 S
C1254 H1248 0.949 . S
C1254 C1258 1.368 1_554 S
C1255 C1236 1.429 1_554 S
C1255 C1249 1.429 . S
C1255 C1256 1.523 . S
C1256 C1237 1.368 . S
C1256 C1250 1.368 1_554 S
C1256 C1255 1.523 . S
C1257 C1241 1.429 1_556 S
C1257 C1253 1.429 . S
C1257 C1258 1.523 . S
C1258 C1242 1.368 . S
C1258 C1254 1.368 1_556 S
C1258 C1257 1.523 . S
H1259 C1234 0.950 1_655 S
H1260 C1236 0.950 1_655 S
H1261 C1237 0.949 . S
H1262 C1239 0.950 . S
H1263 C1241 0.950 . S
C1264 C1265 1.349 . S
C1264 C1266 1.327 . S
C1264 H1289 0.950 . S
C1265 C1264 1.349 . S
C1265 C1281 1.349 . S
C1266 C1264 1.327 . S
C1266 C1285 1.429 . S
C1266 H1290 0.950 . S
C1267 C1284 1.574 . S
C1267 C1286 1.368 . S
C1267 H1291 0.949 . S
H1268 C1272 0.949 . S
C1269 C1270 1.349 . S
C1269 C1271 1.327 . S
C1269 H1292 0.950 . S
C1270 C1269 1.349 . S
C1270 C1282 1.349 . S
C1271 C1269 1.327 . S
C1271 C1287 1.429 . S
C1271 H1293 0.950 . S
C1272 H1268 0.949 . S
C1272 C1280 1.574 . S
C1272 C1288 1.368 . S
H1273 C1281 0.950 . S
H1274 C1279 0.950 . S
H1275 C1280 0.949 . S
H1276 C1282 0.950 . S
H1277 C1283 0.950 . S
H1278 C1284 0.949 . S
C1279 H1274 0.950 . S
C1279 C1281 1.327 . S
C1279 C1285 1.429 . S
C1280 C1272 1.574 . S
C1280 H1275 0.949 . S
C1280 C1286 1.368 . S
C1281 C1265 1.349 . S
C1281 H1273 0.950 . S
C1281 C1279 1.327 . S
C1282 C1270 1.349 . S
C1282 H1276 0.950 . S
C1282 C1283 1.327 . S
C1283 H1277 0.950 . S
C1283 C1282 1.327 . S
C1283 C1287 1.429 . S
C1284 C1267 1.574 . S
C1284 H1278 0.949 . S
C1284 C1288 1.368 . S
C1285 C1266 1.429 . S
C1285 C1279 1.429 . S
C1285 C1286 1.523 . S
C1286 C1267 1.368 . S
C1286 C1280 1.368 . S
C1286 C1285 1.523 . S
C1287 C1271 1.429 . S
C1287 C1283 1.429 . S
C1287 C1288 1.523 . S
C1288 C1272 1.368 . S
C1288 C1284 1.368 . S
C1288 C1287 1.523 . S
H1289 C1264 0.950 . S
H1290 C1266 0.950 . S
H1291 C1267 0.949 . S
H1292 C1269 0.950 . S
H1293 C1271 0.950 . S
C1294 C1295 1.349 . S
C1294 C1296 1.327 . S
C1294 H1319 0.950 . S
C1295 C1294 1.349 . S
C1295 C1311 1.349 . S
C1296 C1294 1.327 . S
C1296 C1315 1.429 . S
C1296 H1320 0.950 . S
C1297 C1314 1.574 . S
C1297 C1316 1.368 . S
C1297 H1321 0.949 . S
H1298 C1302 0.949 . S
C1299 C1300 1.349 . S
C1299 C1301 1.327 . S
C1299 H1322 0.950 . S
C1300 C1299 1.349 . S
C1300 C1312 1.349 . S
C1301 C1299 1.327 . S
C1301 C1317 1.429 . S
C1301 H1323 0.950 . S
C1302 H1298 0.949 . S
C1302 C1310 1.574 . S
C1302 C1318 1.368 . S
H1303 C1311 0.950 . S
H1304 C1309 0.950 . S
H1305 C1310 0.949 . S
H1306 C1312 0.950 . S
H1307 C1313 0.950 . S
H1308 C1314 0.949 . S
C1309 H1304 0.950 . S
C1309 C1311 1.327 . S
C1309 C1315 1.429 . S
C1310 C1302 1.574 . S
C1310 H1305 0.949 . S
C1310 C1316 1.368 . S
C1311 C1295 1.349 . S
C1311 H1303 0.950 . S
C1311 C1309 1.327 . S
C1312 C1300 1.349 . S
C1312 H1306 0.950 . S
C1312 C1313 1.327 . S
C1313 H1307 0.950 . S
C1313 C1312 1.327 . S
C1313 C1317 1.429 . S
C1314 C1297 1.574 . S
C1314 H1308 0.949 . S
C1314 C1318 1.368 . S
C1315 C1296 1.429 . S
C1315 C1309 1.429 . S
C1315 C1316 1.523 . S
C1316 C1297 1.368 . S
C1316 C1310 1.368 . S
C1316 C1315 1.523 . S
C1317 C1301 1.429 . S
C1317 C1313 1.429 . S
C1317 C1318 1.523 . S
C1318 C1302 1.368 . S
C1318 C1314 1.368 . S
C1318 C1317 1.523 . S
H1319 C1294 0.950 . S
H1320 C1296 0.950 . S
H1321 C1297 0.949 . S
H1322 C1299 0.950 . S
H1323 C1301 0.950 . S
C1324 C1325 1.349 . S
C1324 C1326 1.327 . S
C1324 H1349 0.950 . S
C1325 C1324 1.349 . S
C1325 C1341 1.349 . S
C1326 C1324 1.327 . S
C1326 C1345 1.429 . S
C1326 H1350 0.950 . S
C1327 C1344 1.574 . S
C1327 C1346 1.368 . S
C1327 H1351 0.949 . S
H1328 C1332 0.949 . S
C1329 C1330 1.349 . S
C1329 C1331 1.327 . S
C1329 H1352 0.950 . S
C1330 C1329 1.349 . S
C1330 C1342 1.349 . S
C1331 C1329 1.327 . S
C1331 C1347 1.429 . S
C1331 H1353 0.950 . S
C1332 H1328 0.949 . S
C1332 C1340 1.574 . S
C1332 C1348 1.368 . S
H1333 C1341 0.950 . S
H1334 C1339 0.950 . S
H1335 C1340 0.949 . S
H1336 C1342 0.950 . S
H1337 C1343 0.950 . S
H1338 C1344 0.949 . S
C1339 H1334 0.950 . S
C1339 C1341 1.327 . S
C1339 C1345 1.429 . S
C1340 C1332 1.574 . S
C1340 H1335 0.949 . S
C1340 C1346 1.368 . S
C1341 C1325 1.349 . S
C1341 H1333 0.950 . S
C1341 C1339 1.327 . S
C1342 C1330 1.349 . S
C1342 H1336 0.950 . S
C1342 C1343 1.327 . S
C1343 H1337 0.950 . S
C1343 C1342 1.327 . S
C1343 C1347 1.429 . S
C1344 C1327 1.574 . S
C1344 H1338 0.949 . S
C1344 C1348 1.368 . S
C1345 C1326 1.429 . S
C1345 C1339 1.429 . S
C1345 C1346 1.523 . S
C1346 C1327 1.368 . S
C1346 C1340 1.368 . S
C1346 C1345 1.523 . S
C1347 C1331 1.429 . S
C1347 C1343 1.429 . S
C1347 C1348 1.523 . S
C1348 C1332 1.368 . S
C1348 C1344 1.368 . S
C1348 C1347 1.523 . S
H1349 C1324 0.950 . S
H1350 C1326 0.950 . S
H1351 C1327 0.949 . S
H1352 C1329 0.950 . S
H1353 C1331 0.950 . S
C1354 C1355 1.349 . S
C1354 C1356 1.327 . S
C1354 H1379 0.950 . S
C1355 C1354 1.349 . S
C1355 C1371 1.349 . S
C1356 C1354 1.327 . S
C1356 C1375 1.429 . S
C1356 H1380 0.950 . S
C1357 C1374 1.574 . S
C1357 C1376 1.368 . S
C1357 H1381 0.949 . S
H1358 C1362 0.949 . S
C1359 C1360 1.349 . S
C1359 C1361 1.327 . S
C1359 H1382 0.950 . S
C1360 C1359 1.349 . S
C1360 C1372 1.349 . S
C1361 C1359 1.327 . S
C1361 C1377 1.429 . S
C1361 H1383 0.950 . S
C1362 H1358 0.949 . S
C1362 C1370 1.574 . S
C1362 C1378 1.368 . S
H1363 C1371 0.950 . S
H1364 C1369 0.950 . S
H1365 C1370 0.949 . S
H1366 C1372 0.950 . S
H1367 C1373 0.950 . S
H1368 C1374 0.949 . S
C1369 H1364 0.950 . S
C1369 C1371 1.327 . S
C1369 C1375 1.429 . S
C1370 C1362 1.574 . S
C1370 H1365 0.949 . S
C1370 C1376 1.368 . S
C1371 C1355 1.349 . S
C1371 H1363 0.950 . S
C1371 C1369 1.327 . S
C1372 C1360 1.349 . S
C1372 H1366 0.950 . S
C1372 C1373 1.327 . S
C1373 H1367 0.950 . S
C1373 C1372 1.327 . S
C1373 C1377 1.429 . S
C1374 C1357 1.574 . S
C1374 H1368 0.949 . S
C1374 C1378 1.368 . S
C1375 C1356 1.429 . S
C1375 C1369 1.429 . S
C1375 C1376 1.523 . S
C1376 C1357 1.368 . S
C1376 C1370 1.368 . S
C1376 C1375 1.523 . S
C1377 C1361 1.429 . S
C1377 C1373 1.429 . S
C1377 C1378 1.523 . S
C1378 C1362 1.368 . S
C1378 C1374 1.368 . S
C1378 C1377 1.523 . S
H1379 C1354 0.950 . S
H1380 C1356 0.950 . S
H1381 C1357 0.949 . S
H1382 C1359 0.950 . S
H1383 C1361 0.950 . S
C1384 C1385 1.349 . S
C1384 C1386 1.327 . S
C1384 H1409 0.950 . S
C1385 C1384 1.349 . S
C1385 C1401 1.349 . S
C1386 C1384 1.327 . S
C1386 C1405 1.429 . S
C1386 H1410 0.950 . S
C1387 C1404 1.574 . S
C1387 C1406 1.368 . S
C1387 H1411 0.949 . S
H1388 C1392 0.949 . S
C1389 C1390 1.349 . S
C1389 C1391 1.327 . S
C1389 H1412 0.950 . S
C1390 C1389 1.349 . S
C1390 C1402 1.349 . S
C1391 C1389 1.327 . S
C1391 C1407 1.429 . S
C1391 H1413 0.950 . S
C1392 H1388 0.949 . S
C1392 C1400 1.574 . S
C1392 C1408 1.368 . S
H1393 C1401 0.950 . S
H1394 C1399 0.950 . S
H1395 C1400 0.949 . S
H1396 C1402 0.950 . S
H1397 C1403 0.950 . S
H1398 C1404 0.949 . S
C1399 H1394 0.950 . S
C1399 C1401 1.327 . S
C1399 C1405 1.429 . S
C1400 C1392 1.574 . S
C1400 H1395 0.949 . S
C1400 C1406 1.368 . S
C1401 C1385 1.349 . S
C1401 H1393 0.950 . S
C1401 C1399 1.327 . S
C1402 C1390 1.349 . S
C1402 H1396 0.950 . S
C1402 C1403 1.327 . S
C1403 H1397 0.950 . S
C1403 C1402 1.327 . S
C1403 C1407 1.429 . S
C1404 C1387 1.574 . S
C1404 H1398 0.949 . S
C1404 C1408 1.368 . S
C1405 C1386 1.429 . S
C1405 C1399 1.429 . S
C1405 C1406 1.523 . S
C1406 C1387 1.368 . S
C1406 C1400 1.368 . S
C1406 C1405 1.523 . S
C1407 C1391 1.429 . S
C1407 C1403 1.429 . S
C1407 C1408 1.523 . S
C1408 C1392 1.368 . S
C1408 C1404 1.368 . S
C1408 C1407 1.523 . S
H1409 C1384 0.950 . S
H1410 C1386 0.950 . S
H1411 C1387 0.949 . S
H1412 C1389 0.950 . S
H1413 C1391 0.950 . S
C1414 C1415 1.349 . S
C1414 C1416 1.327 . S
C1414 H1439 0.967 . S
C1415 C1414 1.349 . S
C1415 C1431 1.349 . S
C1416 C1414 1.327 . S
C1416 C1435 1.429 . S
C1416 H1440 0.950 . S
C1417 C1434 1.574 . S
C1417 C1436 1.368 . S
C1417 H1441 0.949 . S
H1418 C1422 0.949 . S
C1419 C1420 1.349 . S
C1419 C1421 1.327 . S
C1419 H1442 0.950 . S
C1420 C1419 1.349 . S
C1420 C1432 1.349 . S
C1421 C1419 1.327 . S
C1421 C1437 1.429 . S
C1421 H1443 0.950 . S
C1422 H1418 0.949 . S
C1422 C1430 1.574 . S
C1422 C1438 1.368 . S
H1423 C1431 0.950 . S
H1424 C1429 0.950 . S
H1425 C1430 0.949 . S
H1426 C1432 0.950 . S
H1427 C1433 0.950 . S
H1428 C1434 0.949 . S
C1429 H1424 0.950 . S
C1429 C1431 1.327 . S
C1429 C1435 1.429 . S
C1430 C1422 1.574 . S
C1430 H1425 0.949 . S
C1430 C1436 1.368 . S
C1431 C1415 1.349 . S
C1431 H1423 0.950 . S
C1431 C1429 1.327 . S
C1432 C1420 1.349 . S
C1432 H1426 0.950 . S
C1432 C1433 1.327 . S
C1433 H1427 0.950 . S
C1433 C1432 1.327 . S
C1433 C1437 1.429 . S
C1434 C1417 1.574 . S
C1434 H1428 0.949 . S
C1434 C1438 1.368 . S
C1435 C1416 1.429 . S
C1435 C1429 1.429 . S
C1435 C1436 1.523 . S
C1436 C1417 1.368 . S
C1436 C1430 1.368 . S
C1436 C1435 1.523 . S
C1437 C1421 1.429 . S
C1437 C1433 1.429 . S
C1437 C1438 1.523 . S
C1438 C1422 1.368 . S
C1438 C1434 1.368 . S
C1438 C1437 1.523 . S
H1439 C1414 0.967 . S
H1440 C1416 0.950 . S
H1441 C1417 0.949 . S
H1442 C1419 0.950 . S
H1443 C1421 0.950 . S
C1444 C1445 1.349 . S
C1444 C1446 1.327 . S
C1444 H1469 0.950 . S
C1445 C1444 1.349 . S
C1445 C1461 1.349 . S
C1446 C1444 1.327 . S
C1446 C1465 1.429 . S
C1446 H1470 0.950 . S
C1447 C1464 1.574 . S
C1447 C1466 1.368 . S
C1447 H1471 0.949 . S
H1448 C1452 0.949 . S
C1449 C1450 1.349 . S
C1449 C1451 1.327 . S
C1449 H1472 0.950 . S
C1450 C1449 1.349 . S
C1450 C1462 1.349 . S
C1451 C1449 1.327 . S
C1451 C1467 1.429 . S
C1451 H1473 0.950 . S
C1452 H1448 0.949 . S
C1452 C1460 1.574 . S
C1452 C1468 1.368 . S
H1453 C1461 0.950 . S
H1454 C1459 0.950 . S
H1455 C1460 0.949 . S
H1456 C1462 0.950 . S
H1457 C1463 0.950 . S
H1458 C1464 0.949 . S
C1459 H1454 0.950 . S
C1459 C1461 1.327 . S
C1459 C1465 1.429 . S
C1460 C1452 1.574 . S
C1460 H1455 0.949 . S
C1460 C1466 1.368 . S
C1461 C1445 1.349 . S
C1461 H1453 0.950 . S
C1461 C1459 1.327 . S
C1462 C1450 1.349 . S
C1462 H1456 0.950 . S
C1462 C1463 1.327 . S
C1463 H1457 0.950 . S
C1463 C1462 1.327 . S
C1463 C1467 1.429 . S
C1464 C1447 1.574 . S
C1464 H1458 0.949 . S
C1464 C1468 1.368 . S
C1465 C1446 1.429 . S
C1465 C1459 1.429 . S
C1465 C1466 1.523 . S
C1466 C1447 1.368 . S
C1466 C1460 1.368 . S
C1466 C1465 1.523 . S
C1467 C1451 1.429 . S
C1467 C1463 1.429 . S
C1467 C1468 1.523 . S
C1468 C1452 1.368 . S
C1468 C1464 1.368 . S
C1468 C1467 1.523 . S
H1469 C1444 0.950 . S
H1470 C1446 0.950 . S
H1471 C1447 0.949 . S
H1472 C1449 0.950 . S
H1473 C1451 0.950 . S
C1474 C1475 1.349 . S
C1474 C1476 1.327 . S
C1474 H1499 0.950 . S
C1475 C1474 1.349 . S
C1475 C1491 1.349 . S
C1476 C1474 1.327 . S
C1476 C1495 1.429 . S
C1476 H1500 0.950 . S
C1477 C1494 1.574 . S
C1477 C1496 1.368 . S
C1477 H1501 0.949 . S
H1478 C1482 0.949 . S
C1479 C1480 1.349 . S
C1479 C1481 1.327 . S
C1479 H1502 0.950 . S
C1480 C1479 1.349 . S
C1480 C1492 1.349 . S
C1481 C1479 1.327 . S
C1481 C1497 1.429 . S
C1481 H1503 0.950 . S
C1482 H1478 0.949 . S
C1482 C1490 1.574 . S
C1482 C1498 1.368 . S
H1483 C1491 0.950 . S
H1484 C1489 0.950 . S
H1485 C1490 0.949 . S
H1486 C1492 0.950 . S
H1487 C1493 0.950 . S
H1488 C1494 0.949 . S
C1489 H1484 0.950 . S
C1489 C1491 1.327 . S
C1489 C1495 1.429 . S
C1490 C1482 1.574 . S
C1490 H1485 0.949 . S
C1490 C1496 1.368 . S
C1491 C1475 1.349 . S
C1491 H1483 0.950 . S
C1491 C1489 1.327 . S
C1492 C1480 1.349 . S
C1492 H1486 0.950 . S
C1492 C1493 1.327 . S
C1493 H1487 0.950 . S
C1493 C1492 1.327 . S
C1493 C1497 1.429 . S
C1494 C1477 1.574 . S
C1494 H1488 0.949 . S
C1494 C1498 1.368 . S
C1495 C1476 1.429 . S
C1495 C1489 1.429 . S
C1495 C1496 1.523 . S
C1496 C1477 1.368 . S
C1496 C1490 1.368 . S
C1496 C1495 1.523 . S
C1497 C1481 1.429 . S
C1497 C1493 1.429 . S
C1497 C1498 1.523 . S
C1498 C1482 1.368 . S
C1498 C1494 1.368 . S
C1498 C1497 1.523 . S
H1499 C1474 0.950 . S
H1500 C1476 0.950 . S
H1501 C1477 0.949 . S
H1502 C1479 0.950 . S
H1503 C1481 0.950 . S
C1504 C1505 1.349 . S
C1504 C1506 1.327 . S
C1504 H1529 0.950 . S
C1505 C1504 1.349 . S
C1505 C1521 1.349 . S
C1506 C1504 1.327 . S
C1506 C1525 1.429 . S
C1506 H1530 0.950 . S
C1507 C1524 1.574 . S
C1507 C1526 1.368 . S
C1507 H1531 0.949 . S
H1508 C1512 0.949 . S
C1509 C1510 1.349 . S
C1509 C1511 1.327 . S
C1509 H1532 0.950 . S
C1510 C1509 1.349 . S
C1510 C1522 1.349 . S
C1511 C1509 1.327 . S
C1511 C1527 1.429 . S
C1511 H1533 0.950 . S
C1512 H1508 0.949 . S
C1512 C1520 1.574 . S
C1512 C1528 1.368 . S
H1513 C1521 0.968 . S
H1514 C1519 0.950 . S
H1515 C1520 0.949 . S
H1516 C1522 0.950 . S
H1517 C1523 0.950 . S
H1518 C1524 0.949 . S
C1519 H1514 0.950 . S
C1519 C1521 1.327 . S
C1519 C1525 1.429 . S
C1520 C1512 1.574 . S
C1520 H1515 0.949 . S
C1520 C1526 1.368 . S
C1521 C1505 1.349 . S
C1521 H1513 0.968 . S
C1521 C1519 1.327 . S
C1522 C1510 1.349 . S
C1522 H1516 0.950 . S
C1522 C1523 1.327 . S
C1523 H1517 0.950 . S
C1523 C1522 1.327 . S
C1523 C1527 1.429 . S
C1524 C1507 1.574 . S
C1524 H1518 0.949 . S
C1524 C1528 1.368 . S
C1525 C1506 1.429 . S
C1525 C1519 1.429 . S
C1525 C1526 1.523 . S
C1526 C1507 1.368 . S
C1526 C1520 1.368 . S
C1526 C1525 1.523 . S
C1527 C1511 1.429 . S
C1527 C1523 1.429 . S
C1527 C1528 1.523 . S
C1528 C1512 1.368 . S
C1528 C1524 1.368 . S
C1528 C1527 1.523 . S
H1529 C1504 0.950 . S
H1530 C1506 0.950 . S
H1531 C1507 0.949 . S
H1532 C1509 0.950 . S
H1533 C1511 0.950 . S
C1534 C1535 1.349 . S
C1534 C1536 1.327 . S
C1534 H1559 0.950 . S
C1535 C1534 1.349 . S
C1535 C1551 1.349 . S
C1536 C1534 1.327 . S
C1536 C1555 1.429 . S
C1536 H1560 0.950 . S
C1537 C1554 1.574 . S
C1537 C1556 1.368 . S
C1537 H1561 0.949 . S
H1538 C1542 0.949 . S
C1539 C1540 1.349 . S
C1539 C1541 1.327 . S
C1539 H1562 0.950 . S
C1540 C1539 1.349 . S
C1540 C1552 1.349 . S
C1541 C1539 1.327 . S
C1541 C1557 1.429 . S
C1541 H1563 0.950 . S
C1542 H1538 0.949 . S
C1542 C1550 1.574 . S
C1542 C1558 1.368 . S
H1543 C1551 0.950 . S
H1544 C1549 0.950 . S
H1545 C1550 0.949 . S
H1546 C1552 0.950 . S
H1547 C1553 0.950 . S
H1548 C1554 0.949 . S
C1549 H1544 0.950 . S
C1549 C1551 1.327 . S
C1549 C1555 1.429 . S
C1550 C1542 1.574 . S
C1550 H1545 0.949 . S
C1550 C1556 1.368 . S
C1551 C1535 1.349 . S
C1551 H1543 0.950 . S
C1551 C1549 1.327 . S
C1552 C1540 1.349 . S
C1552 H1546 0.950 . S
C1552 C1553 1.327 . S
C1553 H1547 0.950 . S
C1553 C1552 1.327 . S
C1553 C1557 1.429 . S
C1554 C1537 1.574 . S
C1554 H1548 0.949 . S
C1554 C1558 1.368 . S
C1555 C1536 1.429 . S
C1555 C1549 1.429 . S
C1555 C1556 1.523 . S
C1556 C1537 1.368 . S
C1556 C1550 1.368 . S
C1556 C1555 1.523 . S
C1557 C1541 1.429 . S
C1557 C1553 1.429 . S
C1557 C1558 1.523 . S
C1558 C1542 1.368 . S
C1558 C1554 1.368 . S
C1558 C1557 1.523 . S
H1559 C1534 0.950 . S
H1560 C1536 0.950 . S
H1561 C1537 0.949 . S
H1562 C1539 0.950 . S
H1563 C1541 0.950 . S
C1564 C1565 1.349 . S
C1564 C1566 1.327 . S
C1564 H1589 0.950 . S
C1565 C1564 1.349 . S
C1565 C1581 1.349 . S
C1566 C1564 1.327 . S
C1566 C1585 1.429 . S
C1566 H1590 0.950 . S
C1567 C1584 1.574 . S
C1567 C1586 1.368 . S
C1567 H1591 0.949 . S
H1568 C1572 0.949 . S
C1569 C1570 1.349 . S
C1569 C1571 1.327 . S
C1569 H1592 0.950 . S
C1570 C1569 1.349 . S
C1570 C1582 1.349 . S
C1571 C1569 1.327 . S
C1571 C1587 1.429 . S
C1571 H1593 0.950 . S
C1572 H1568 0.949 . S
C1572 C1580 1.574 . S
C1572 C1588 1.368 . S
H1573 C1581 0.950 . S
H1574 C1579 0.950 . S
H1575 C1580 0.949 . S
H1576 C1582 0.950 . S
H1577 C1583 0.950 . S
H1578 C1584 0.949 . S
C1579 H1574 0.950 . S
C1579 C1581 1.327 . S
C1579 C1585 1.429 . S
C1580 C1572 1.574 . S
C1580 H1575 0.949 . S
C1580 C1586 1.368 . S
C1581 C1565 1.349 . S
C1581 H1573 0.950 . S
C1581 C1579 1.327 . S
C1582 C1570 1.349 . S
C1582 H1576 0.950 . S
C1582 C1583 1.327 . S
C1583 H1577 0.950 . S
C1583 C1582 1.327 . S
C1583 C1587 1.429 . S
C1584 C1567 1.574 . S
C1584 H1578 0.949 . S
C1584 C1588 1.368 . S
C1585 C1566 1.429 . S
C1585 C1579 1.429 . S
C1585 C1586 1.523 . S
C1586 C1567 1.368 . S
C1586 C1580 1.368 . S
C1586 C1585 1.523 . S
C1587 C1571 1.429 . S
C1587 C1583 1.429 . S
C1587 C1588 1.523 . S
C1588 C1572 1.368 . S
C1588 C1584 1.368 . S
C1588 C1587 1.523 . S
H1589 C1564 0.950 . S
H1590 C1566 0.950 . S
H1591 C1567 0.949 . S
H1592 C1569 0.950 . S
H1593 C1571 0.950 . S
C1594 C1595 1.349 . S
C1594 C1596 1.327 . S
C1594 H1619 0.950 . S
C1595 C1594 1.349 . S
C1595 C1611 1.349 . S
C1596 C1594 1.327 . S
C1596 C1615 1.429 . S
C1596 H1620 0.950 . S
C1597 C1614 1.574 . S
C1597 C1616 1.368 . S
C1597 H1621 0.949 . S
H1598 C1602 0.949 . S
C1599 C1600 1.349 . S
C1599 C1601 1.327 . S
C1599 H1622 0.950 . S
C1600 C1599 1.349 . S
C1600 C1612 1.349 . S
C1601 C1599 1.327 . S
C1601 C1617 1.429 . S
C1601 H1623 0.950 . S
C1602 H1598 0.949 . S
C1602 C1610 1.574 . S
C1602 C1618 1.368 . S
H1603 C1611 0.950 . S
H1604 C1609 0.950 . S
H1605 C1610 0.949 . S
H1606 C1612 0.950 . S
H1607 C1613 0.950 . S
H1608 C1614 0.949 . S
C1609 H1604 0.950 . S
C1609 C1611 1.327 . S
C1609 C1615 1.429 . S
C1610 C1602 1.574 . S
C1610 H1605 0.949 . S
C1610 C1616 1.368 . S
C1611 C1595 1.349 . S
C1611 H1603 0.950 . S
C1611 C1609 1.327 . S
C1612 C1600 1.349 . S
C1612 H1606 0.950 . S
C1612 C1613 1.327 . S
C1613 H1607 0.950 . S
C1613 C1612 1.327 . S
C1613 C1617 1.429 . S
C1614 C1597 1.574 . S
C1614 H1608 0.949 . S
C1614 C1618 1.368 . S
C1615 C1596 1.429 . S
C1615 C1609 1.429 . S
C1615 C1616 1.523 . S
C1616 C1597 1.368 . S
C1616 C1610 1.368 . S
C1616 C1615 1.523 . S
C1617 C1601 1.429 . S
C1617 C1613 1.429 . S
C1617 C1618 1.523 . S
C1618 C1602 1.368 . S
C1618 C1614 1.368 . S
C1618 C1617 1.523 . S
H1619 C1594 0.950 . S
H1620 C1596 0.950 . S
H1621 C1597 0.949 . S
H1622 C1599 0.950 . S
H1623 C1601 0.950 . S
C1624 C1625 1.349 . S
C1624 C1626 1.327 . S
C1624 H1649 0.950 . S
C1625 C1624 1.349 . S
C1625 C1641 1.349 . S
C1626 C1624 1.327 . S
C1626 C1645 1.429 . S
C1626 H1650 0.950 . S
C1627 C1644 1.574 . S
C1627 C1646 1.368 . S
C1627 H1651 0.949 . S
H1628 C1632 0.949 . S
C1629 C1630 1.349 . S
C1629 C1631 1.327 . S
C1629 H1652 0.950 . S
C1630 C1629 1.349 . S
C1630 C1642 1.349 . S
C1631 C1629 1.327 . S
C1631 C1647 1.429 . S
C1631 H1653 0.950 . S
C1632 H1628 0.949 . S
C1632 C1640 1.574 . S
C1632 C1648 1.368 . S
H1633 C1641 0.950 . S
H1634 C1639 0.950 . S
H1635 C1640 0.949 . S
H1636 C1642 0.892 1_455 S
H1637 C1643 0.950 . S
H1638 C1644 0.949 . S
C1639 H1634 0.950 . S
C1639 C1641 1.327 . S
C1639 C1645 1.429 . S
C1640 C1632 1.574 . S
C1640 H1635 0.949 . S
C1640 C1646 1.368 . S
C1641 C1625 1.349 . S
C1641 H1633 0.950 . S
C1641 C1639 1.327 . S
C1642 C1630 1.349 . S
C1642 H1636 0.892 1_655 S
C1642 C1643 1.327 . S
C1643 H1637 0.950 . S
C1643 C1642 1.327 . S
C1643 C1647 1.429 . S
C1644 C1627 1.574 . S
C1644 H1638 0.949 . S
C1644 C1648 1.368 . S
C1645 C1626 1.429 . S
C1645 C1639 1.429 . S
C1645 C1646 1.523 . S
C1646 C1627 1.368 . S
C1646 C1640 1.368 . S
C1646 C1645 1.523 . S
C1647 C1631 1.429 . S
C1647 C1643 1.429 . S
C1647 C1648 1.523 . S
C1648 C1632 1.368 . S
C1648 C1644 1.368 . S
C1648 C1647 1.523 . S
H1649 C1624 0.950 . S
H1650 C1626 0.950 . S
H1651 C1627 0.949 . S
H1652 C1629 0.950 . S
H1653 C1631 0.950 . S
C1654 C1655 1.349 . S
C1654 C1656 1.327 . S
C1654 H1679 0.950 . S
C1655 C1654 1.349 . S
C1655 C1671 1.349 . S
C1656 C1654 1.327 . S
C1656 C1675 1.429 . S
C1656 H1680 0.950 . S
C1657 C1674 1.574 . S
C1657 C1676 1.368 . S
C1657 H1681 0.949 . S
H1658 C1662 0.949 . S
C1659 C1660 1.349 . S
C1659 C1661 1.327 . S
C1659 H1682 0.950 . S
C1660 C1659 1.349 . S
C1660 C1672 1.349 . S
C1661 C1659 1.327 . S
C1661 C1677 1.429 . S
C1661 H1683 0.950 . S
C1662 H1658 0.949 . S
C1662 C1670 1.574 . S
C1662 C1678 1.368 . S
H1663 C1671 0.950 . S
H1664 C1669 0.950 . S
H1665 C1670 0.949 . S
H1666 C1672 0.950 . S
H1667 C1673 0.950 . S
H1668 C1674 0.949 . S
C1669 H1664 0.950 . S
C1669 C1671 1.327 . S
C1669 C1675 1.429 . S
C1670 C1662 1.574 . S
C1670 H1665 0.949 . S
C1670 C1676 1.368 . S
C1671 C1655 1.349 . S
C1671 H1663 0.950 . S
C1671 C1669 1.327 . S
C1672 C1660 1.349 . S
C1672 H1666 0.950 . S
C1672 C1673 1.327 . S
C1673 H1667 0.950 . S
C1673 C1672 1.327 . S
C1673 C1677 1.429 . S
C1674 C1657 1.574 . S
C1674 H1668 0.949 . S
C1674 C1678 1.368 . S
C1675 C1656 1.429 . S
C1675 C1669 1.429 . S
C1675 C1676 1.523 . S
C1676 C1657 1.368 . S
C1676 C1670 1.368 . S
C1676 C1675 1.523 . S
C1677 C1661 1.429 . S
C1677 C1673 1.429 . S
C1677 C1678 1.523 . S
C1678 C1662 1.368 . S
C1678 C1674 1.368 . S
C1678 C1677 1.523 . S
H1679 C1654 0.950 . S
H1680 C1656 0.950 . S
H1681 C1657 0.949 . S
H1682 C1659 0.950 . S
H1683 C1661 0.950 . S
C1684 C1685 1.349 . S
C1684 C1686 1.327 . S
C1684 H1709 0.950 . S
C1685 C1684 1.349 . S
C1685 C1701 1.349 . S
C1686 C1684 1.327 . S
C1686 C1705 1.429 . S
C1686 H1710 0.950 . S
C1687 C1704 1.574 . S
C1687 C1706 1.368 . S
C1687 H1711 0.949 . S
H1688 C1692 0.949 . S
C1689 C1690 1.349 . S
C1689 C1691 1.327 . S
C1689 H1712 0.950 . S
C1690 C1689 1.349 . S
C1690 C1702 1.349 . S
C1691 C1689 1.327 . S
C1691 C1707 1.429 . S
C1691 H1713 0.950 . S
C1692 H1688 0.949 . S
C1692 C1700 1.574 . S
C1692 C1708 1.368 . S
H1693 C1701 0.950 . S
H1694 C1699 0.950 . S
H1695 C1700 0.949 . S
H1696 C1702 0.950 . S
H1697 C1703 0.950 . S
H1698 C1704 0.949 . S
C1699 H1694 0.950 . S
C1699 C1701 1.327 . S
C1699 C1705 1.429 . S
C1700 C1692 1.574 . S
C1700 H1695 0.949 . S
C1700 C1706 1.368 . S
C1701 C1685 1.349 . S
C1701 H1693 0.950 . S
C1701 C1699 1.327 . S
C1702 C1690 1.349 . S
C1702 H1696 0.950 . S
C1702 C1703 1.327 . S
C1703 H1697 0.950 . S
C1703 C1702 1.327 . S
C1703 C1707 1.429 . S
C1704 C1687 1.574 . S
C1704 H1698 0.949 . S
C1704 C1708 1.368 . S
C1705 C1686 1.429 . S
C1705 C1699 1.429 . S
C1705 C1706 1.523 . S
C1706 C1687 1.368 . S
C1706 C1700 1.368 . S
C1706 C1705 1.523 . S
C1707 C1691 1.429 . S
C1707 C1703 1.429 . S
C1707 C1708 1.523 . S
C1708 C1692 1.368 . S
C1708 C1704 1.368 . S
C1708 C1707 1.523 . S
H1709 C1684 0.950 . S
H1710 C1686 0.950 . S
H1711 C1687 0.949 . S
H1712 C1689 0.950 . S
H1713 C1691 0.950 . S
C1714 C1715 1.349 . S
C1714 C1716 1.327 . S
C1714 H1739 0.950 . S
C1715 C1714 1.349 . S
C1715 C1731 1.349 . S
C1716 C1714 1.327 . S
C1716 C1735 1.429 . S
C1716 H1740 0.950 . S
C1717 C1734 1.574 . S
C1717 C1736 1.368 . S
C1717 H1741 0.949 . S
H1718 C1722 0.949 . S
C1719 C1720 1.349 . S
C1719 C1721 1.327 . S
C1719 H1742 0.950 . S
C1720 C1719 1.349 . S
C1720 C1732 1.349 . S
C1721 C1719 1.327 . S
C1721 C1737 1.429 . S
C1721 H1743 0.950 . S
C1722 H1718 0.949 . S
C1722 C1730 1.574 . S
C1722 C1738 1.368 . S
H1723 C1731 0.950 . S
H1724 C1729 0.950 . S
H1725 C1730 0.949 . S
H1726 C1732 0.950 . S
H1727 C1733 0.950 . S
H1728 C1734 0.949 . S
C1729 H1724 0.950 . S
C1729 C1731 1.327 . S
C1729 C1735 1.429 . S
C1730 C1722 1.574 . S
C1730 H1725 0.949 . S
C1730 C1736 1.368 . S
C1731 C1715 1.349 . S
C1731 H1723 0.950 . S
C1731 C1729 1.327 . S
C1732 C1720 1.349 . S
C1732 H1726 0.950 . S
C1732 C1733 1.327 . S
C1733 H1727 0.950 . S
C1733 C1732 1.327 . S
C1733 C1737 1.429 . S
C1734 C1717 1.574 . S
C1734 H1728 0.949 . S
C1734 C1738 1.368 . S
C1735 C1716 1.429 . S
C1735 C1729 1.429 . S
C1735 C1736 1.523 . S
C1736 C1717 1.368 . S
C1736 C1730 1.368 . S
C1736 C1735 1.523 . S
C1737 C1721 1.429 . S
C1737 C1733 1.429 . S
C1737 C1738 1.523 . S
C1738 C1722 1.368 . S
C1738 C1734 1.368 . S
C1738 C1737 1.523 . S
H1739 C1714 0.950 . S
H1740 C1716 0.950 . S
H1741 C1717 0.949 . S
H1742 C1719 0.950 . S
H1743 C1721 0.950 . S
C545 C9 1.299 . S
C550 C5 1.377 . S
C575 C43 1.299 . S
C580 C39 1.377 . S
C605 C77 1.299 . S
C610 C73 1.377 . S
C635 C111 1.299 . S
C640 C107 1.377 1_554 S
C665 C145 1.299 . S
C670 C141 1.377 . S
C695 C179 1.299 . S
C700 C175 1.377 1_556 S
C725 C213 1.299 . S
C730 C209 1.377 . S
C755 C243 1.377 . S
C760 C247 1.299 . S
C785 C277 1.377 . S
C790 C281 1.299 . S
C815 C315 1.299 . S
C820 C311 1.377 1_556 S
C845 C349 1.299 . S
C850 C345 1.377 1_554 S
C875 C379 1.377 . S
C880 C383 1.299 . S
C905 C413 1.377 . S
C910 C417 1.299 . S
C935 C451 1.299 . S
C940 C447 1.377 . S
C965 C481 1.377 . S
C970 C485 1.299 . S
C995 C519 1.299 . S
C1000 C515 1.377 . S
C1025 C20 1.454 . S
C1030 C156 1.454 . S
C1055 C190 1.454 . S
C1060 C54 1.454 . S
C1085 C224 1.454 . S
C1090 C88 1.454 . S
C1115 C122 1.454 . S
C1120 C258 1.454 . S
C1145 C360 1.454 . S
C1150 C292 1.454 . S
C1175 C326 1.454 . S
C1180 C394 1.454 . S
C1205 C428 1.455 . S
C1210 C496 1.455 . S
C1235 C462 1.454 . S
C1240 C530 1.454 . S
C1265 C339 1.116 . S
C1270 C33 1.116 . S
C1295 C509 1.116 . S
C1300 C67 1.116 . S
C1325 C101 1.116 . S
C1330 C305 1.116 . S
C1355 C543 1.116 . S
C1360 C135 1.116 . S
C1385 C373 1.116 . S
C1390 C169 1.116 . S
C1415 C475 1.116 . S
C1420 C203 1.116 . S
C1445 C237 1.116 . S
C1450 C407 1.116 . S
C1475 C271 1.116 . S
C1480 C441 1.116 . S
C1505 C138 1.742 1_655 S
C1510 C104 1.742 . S
C1535 C410 1.742 . S
C1540 C274 1.742 . S
C1565 C36 1.742 . S
C1570 C206 1.742 . S
C1595 C444 1.742 . S
C1600 C308 1.742 . S
C1625 C172 1.742 . S
C1630 C2 1.742 1_655 S
C1655 C342 1.742 . S
C1660 C512 1.742 . S
C1685 C240 1.742 . S
C1690 C70 1.742 . S
C1715 C478 1.742 . S
C1720 C376 1.742 . S
