# Generated by pormake.
# Topology sra, (4)-cn, num edge types: 1
# Building blocks:
#     Node 0, Type 0, BuildingBlock: QUQFOY_clean_sbu_3, # of connection points: 4
#     Node 1, Type 0, BuildingBlock: QUQFOY_clean_sbu_3, # of connection points: 4
#     Node 2, Type 0, BuildingBlock: QUQFOY_clean_sbu_3, # of connection points: 4
#     Node 3, Type 0, BuildingBlock: QUQFOY_clean_sbu_3, # of connection points: 4
#     Node 4, Type 0, BuildingBlock: QUQFOY_clean_sbu_3, # of connection points: 4
#     Node 5, Type 0, BuildingBlock: QUQFOY_clean_sbu_3, # of connection points: 4
#     Node 6, Type 0, BuildingBlock: QUQFOY_clean_sbu_3, # of connection points: 4
#     Node 7, Type 0, BuildingBlock: QUQFOY_clean_sbu_3, # of connection points: 4
#     Edge 8, Type (0, 0), BuildingBlock: UVAHIK_clean_linker_0, # of connection points: 2
#     Edge 9, Type (0, 0), BuildingBlock: UVAHIK_clean_linker_0, # of connection points: 2
#     Edge 10, Type (0, 0), BuildingBlock: UVAHIK_clean_linker_0, # of connection points: 2
#     Edge 11, Type (0, 0), BuildingBlock: UVAHIK_clean_linker_0, # of connection points: 2
#     Edge 12, Type (0, 0), BuildingBlock: UVAHIK_clean_linker_0, # of connection points: 2
#     Edge 13, Type (0, 0), BuildingBlock: UVAHIK_clean_linker_0, # of connection points: 2
#     Edge 14, Type (0, 0), BuildingBlock: UVAHIK_clean_linker_0, # of connection points: 2
#     Edge 15, Type (0, 0), BuildingBlock: UVAHIK_clean_linker_0, # of connection points: 2
#     Edge 16, Type (0, 0), BuildingBlock: UVAHIK_clean_linker_0, # of connection points: 2
#     Edge 17, Type (0, 0), BuildingBlock: UVAHIK_clean_linker_0, # of connection points: 2
#     Edge 18, Type (0, 0), BuildingBlock: UVAHIK_clean_linker_0, # of connection points: 2
#     Edge 19, Type (0, 0), BuildingBlock: UVAHIK_clean_linker_0, # of connection points: 2
#     Edge 20, Type (0, 0), BuildingBlock: UVAHIK_clean_linker_0, # of connection points: 2
#     Edge 21, Type (0, 0), BuildingBlock: UVAHIK_clean_linker_0, # of connection points: 2
#     Edge 22, Type (0, 0), BuildingBlock: UVAHIK_clean_linker_0, # of connection points: 2
#     Edge 23, Type (0, 0), BuildingBlock: UVAHIK_clean_linker_0, # of connection points: 2
# Relax obj value: 0.028
# Max RMSD: 0.060
# Mean RMSD: 0.060
data_MOF--net-sra--node1-QUQFOY_clean_sbu_3--edge1-UVAHIK_clean_linker_0
_symmetry_space_group_name_H-M    P1
_symmetry_Int_Tables_number       1
_symmetry_cell_setting            triclinic
loop_
_symmetry_equiv_pos_as_xyz
'x, y, z'
_cell_length_a     36.867297
_cell_length_b     70.269401
_cell_length_c     44.891017
_cell_angle_alpha  90.121551
_cell_angle_beta   89.611471
_cell_angle_gamma 89.942054
loop_
_atom_site_label
_atom_site_type_symbol
_atom_site_fract_x
_atom_site_fract_y
_atom_site_fract_z
_atom_type_partial_charge
C0 C 0.05303 0.08654 0.18413 0.0
O1 O 0.03008 0.09111 0.2041 0.0
Cd2 Cd 0.97004 0.10097 0.19225 0.0
O3 O 0.0436 0.08535 0.1569 0.0
Cd4 Cd -0.01184 0.0873 0.12552 0.0
C5 C -0.01072 0.13464 0.13744 0.0
O6 O 0.94481 0.07632 0.16251 0.0
O7 O 0.92174 0.08989 0.12397 0.0
O8 O 0.00456 0.05599 0.10754 0.0
C9 C 0.9167 0.08097 0.14818 0.0
O10 O 0.97945 0.13017 0.16378 0.0
C11 C 0.00303 0.05978 0.07998 0.0
O12 O -0.00447 0.12183 0.11788 0.0
O13 O -0.00472 0.07685 0.07306 0.0
C14 C 0.93247 0.3818 0.18475 0.0
O15 O 0.95546 0.37796 0.20479 0.0
Cd16 Cd 0.01766 0.37104 0.1939 0.0
O17 O 0.94244 0.38348 0.15763 0.0
Cd18 Cd -0.00113 0.38326 0.12696 0.0
C19 C 0.00727 0.33617 0.13938 0.0
O20 O 0.04031 0.3962 0.1638 0.0
O21 O 0.06528 0.38282 0.12552 0.0
O22 O -0.01991 0.41383 0.10779 0.0
C23 C 0.06907 0.39219 0.14947 0.0
O24 O 0.01656 0.34144 0.16542 0.0
C25 C -0.01743 0.40958 0.08039 0.0
O26 O -0.00285 0.34837 0.1201 0.0
O27 O -0.0082 0.39257 0.07416 0.0
C28 C 0.05488 0.88042 0.75869 0.0
O29 O 0.03269 0.87562 0.73851 0.0
Cd30 Cd 0.96997 0.86897 0.74816 0.0
O31 O 0.04401 0.88299 0.78542 0.0
Cd32 Cd -0.01272 0.88311 0.81549 0.0
C33 C 0.97812 0.8356 0.80483 0.0
O34 O 0.94724 0.89481 0.77684 0.0
O35 O 0.92076 0.88472 0.81672 0.0
O36 O 0.00638 0.91383 0.83423 0.0
C37 C 0.91796 0.89217 0.79114 0.0
O38 O 0.96977 0.84022 0.77831 0.0
C39 C 0.00359 0.90981 0.86168 0.0
O40 O -0.01216 0.84823 0.82363 0.0
O41 O -0.00593 0.8929 0.86808 0.0
C42 C 0.93442 0.58751 0.76002 0.0
O43 O 0.95737 0.59212 0.74012 0.0
Cd44 Cd 0.01753 0.60165 0.75219 0.0
O45 O 0.94391 0.58605 0.7872 0.0
Cd46 Cd -0.00057 0.58746 0.81855 0.0
C47 C -0.00159 0.63489 0.80792 0.0
O48 O 0.04251 0.57658 0.78118 0.0
O49 O 0.0659 0.58973 0.82004 0.0
O50 O -0.01724 0.55606 0.83576 0.0
C51 C 0.07071 0.58093 0.79563 0.0
O52 O 0.00811 0.63063 0.78143 0.0
C53 C -0.01563 0.55964 0.86341 0.0
O54 O -0.0077 0.62193 0.82717 0.0
O55 O -0.0077 0.57664 0.87074 0.0
C56 C 0.55717 0.58824 0.68389 0.0
O57 O 0.5349 0.59277 0.7044 0.0
Cd58 Cd 0.47279 0.60045 0.695 0.0
O59 O 0.5465 0.58635 0.65709 0.0
Cd60 Cd 0.48965 0.58721 0.62775 0.0
C61 C 0.48341 0.63453 0.63943 0.0
O62 O 0.44821 0.57537 0.66588 0.0
O63 O 0.42335 0.58855 0.62774 0.0
O64 O 0.50595 0.55615 0.60854 0.0
C65 C 0.41945 0.57964 0.65209 0.0
O66 O 0.47442 0.62967 0.66581 0.0
C67 C 0.50374 0.56031 0.58115 0.0
O68 O 0.49277 0.62201 0.62021 0.0
O69 O 0.49575 0.57747 0.57493 0.0
C70 C 0.43401 0.88246 0.6833 0.0
O71 O 0.45638 0.87782 0.70342 0.0
Cd72 Cd 0.51767 0.86898 0.69296 0.0
O73 O 0.44437 0.88422 0.65627 0.0
Cd74 Cd 0.50074 0.88322 0.62527 0.0
C75 C 0.50217 0.83563 0.63687 0.0
O76 O 0.54138 0.89414 0.6636 0.0
O77 O 0.5677 0.88345 0.62399 0.0
O78 O 0.48262 0.91413 0.60681 0.0
C79 C 0.57066 0.89099 0.64956 0.0
O80 O 0.51066 0.84004 0.66347 0.0
C81 C 0.48532 0.91012 0.57933 0.0
O82 O 0.49616 0.84847 0.61745 0.0
O83 O 0.4944 0.89313 0.57277 0.0
C84 C 0.55288 0.38149 0.2598 0.0
O85 O 0.53063 0.37736 0.23932 0.0
Cd86 Cd 0.46808 0.3706 0.24915 0.0
O87 O 0.54195 0.38351 0.28662 0.0
Cd88 Cd 0.48477 0.38364 0.31617 0.0
C89 C 0.47684 0.33642 0.30472 0.0
O90 O 0.4442 0.39605 0.27825 0.0
O91 O 0.41842 0.3832 0.31653 0.0
O92 O 0.50305 0.41449 0.33454 0.0
C93 C 0.41514 0.39221 0.29224 0.0
O94 O 0.46826 0.34139 0.27839 0.0
C95 C 0.50002 0.41073 0.36206 0.0
O96 O 0.48652 0.34882 0.3239 0.0
O97 O 0.49063 0.39385 0.36879 0.0
C98 C 0.42975 0.08715 0.25982 0.0
O99 O 0.45155 0.09203 0.23921 0.0
Cd100 Cd 0.51206 0.10202 0.24937 0.0
O101 O 0.44061 0.0858 0.28665 0.0
Cd102 Cd 0.49715 0.0879 0.31648 0.0
C103 C 0.49471 0.13531 0.30538 0.0
O104 O 0.53914 0.07738 0.27799 0.0
O105 O 0.56345 0.09061 0.31642 0.0
O106 O 0.48221 0.05644 0.3344 0.0
C107 C 0.5677 0.08199 0.29179 0.0
O108 O 0.50341 0.13102 0.27867 0.0
C109 C 0.48439 0.06019 0.36196 0.0
O110 O 0.48958 0.12238 0.32487 0.0
O111 O 0.49192 0.07729 0.36893 0.0
C112 C -0.0027 0.30846 0.10427 0.0
C113 C 0.00835 0.31554 0.13213 0.0
C114 C -0.00159 0.28884 0.09826 0.0
C115 C 0.04054 0.24412 0.12569 0.0
H116 H 0.95717 0.21876 0.0915 0.0
C117 C 0.00192 0.16785 0.15373 0.0
C118 C -0.00532 0.15504 0.13045 0.0
C119 C 0.0068 0.18715 0.14798 0.0
C120 C -0.01909 0.2257 0.10055 0.0
H121 H 0.02912 0.3074 0.17547 0.0
H122 H 0.03059 0.27365 0.1652 0.0
H123 H 0.95974 0.25365 0.09228 0.0
H124 H -0.0134 0.15247 0.08282 0.0
H125 H -0.00584 0.18671 0.07286 0.0
H126 H 0.06069 0.21627 0.13552 0.0
C127 C 0.0217 0.28314 0.14771 0.0
C128 C -0.01757 0.24565 0.10098 0.0
C129 C 0.02054 0.30258 0.1537 0.0
C130 C -0.00771 0.16202 0.10117 0.0
C131 C -0.00353 0.18155 0.09548 0.0
C132 C 0.03884 0.2243 0.1255 0.0
C133 C 0.01083 0.27598 0.11993 0.0
C134 C 0.0117 0.25506 0.11455 0.0
C135 C 0.00401 0.19423 0.11889 0.0
C136 C 0.00852 0.21491 0.11381 0.0
H137 H -0.01227 0.31805 0.08717 0.0
H138 H -0.01013 0.28376 0.07663 0.0
H139 H 0.06392 0.2509 0.13561 0.0
H140 H 0.00409 0.16295 0.17651 0.0
H141 H 0.01222 0.19666 0.16647 0.0
C142 C 0.9628 0.80191 0.79258 0.0
C143 C 0.9765 0.81516 0.81313 0.0
C144 C 0.96164 0.7826 0.79932 0.0
C145 C 0.00399 0.7458 0.84517 0.0
H146 H 0.92436 0.71586 0.81405 0.0
C147 C -0.00423 0.66204 0.8448 0.0
C148 C -0.00724 0.65521 0.81543 0.0
C149 C -0.00873 0.68151 0.85097 0.0
C150 C 0.94658 0.72405 0.82317 0.0
H151 H -0.0004 0.81835 0.85717 0.0
H152 H -0.00247 0.78425 0.86903 0.0
H153 H 0.92031 0.75049 0.81401 0.0
H154 H -0.01816 0.66331 0.76973 0.0
H155 H 0.97305 0.69692 0.78064 0.0
H156 H 0.03045 0.71909 0.85361 0.0
C157 C -0.01222 0.78902 0.84759 0.0
C158 C 0.94441 0.74387 0.823 0.0
C159 C -0.01116 0.80853 0.84084 0.0
C160 C -0.01547 0.66811 0.79256 0.0
C161 C 0.97929 0.68734 0.7988 0.0
C162 C 0.00599 0.72587 0.84562 0.0
C163 C 0.97406 0.77585 0.82686 0.0
C164 C 0.97371 0.75501 0.83278 0.0
C165 C -0.01728 0.69426 0.82798 0.0
C166 C 0.97785 0.71489 0.83354 0.0
H167 H 0.9531 0.8064 0.77098 0.0
H168 H 0.95166 0.77287 0.78252 0.0
H169 H 0.02706 0.75396 0.85281 0.0
H170 H 0.00222 0.65242 0.86283 0.0
H171 H -0.00591 0.68658 0.87364 0.0
C172 C 0.47007 0.66831 0.65289 0.0
C173 C 0.48269 0.65507 0.6317 0.0
C174 C 0.46917 0.68768 0.64644 0.0
C175 C 0.51011 0.72456 0.59959 0.0
H176 H 0.43077 0.75435 0.63263 0.0
C177 C 0.50051 0.80837 0.6001 0.0
C178 C 0.49751 0.81522 0.6295 0.0
C179 C 0.49651 0.78886 0.59407 0.0
C180 C 0.45291 0.74621 0.62298 0.0
H181 H 0.50436 0.65197 0.5869 0.0
H182 H 0.50278 0.68614 0.57558 0.0
H183 H 0.42717 0.71973 0.63287 0.0
H184 H 0.4873 0.80706 0.67542 0.0
H185 H 0.4795 0.77342 0.66476 0.0
H186 H 0.53609 0.75134 0.59046 0.0
C187 C 0.49365 0.68133 0.59727 0.0
C188 C 0.45099 0.72639 0.62326 0.0
C189 C 0.49444 0.66178 0.60372 0.0
C190 C 0.48998 0.80228 0.65255 0.0
C191 C 0.48528 0.78301 0.64646 0.0
C192 C 0.51188 0.74451 0.59907 0.0
C193 C 0.48078 0.69447 0.61857 0.0
C194 C 0.4802 0.71532 0.61275 0.0
C195 C 0.48854 0.77608 0.61725 0.0
C196 C 0.48385 0.75544 0.61182 0.0
H197 H 0.46091 0.66378 0.67472 0.0
H198 H 0.45989 0.69739 0.66365 0.0
H199 H 0.53308 0.71644 0.59136 0.0
H200 H 0.50642 0.81801 0.58193 0.0
H201 H 0.49919 0.78379 0.57135 0.0
C202 C 0.46216 0.30282 0.29135 0.0
C203 C 0.47545 0.31587 0.31238 0.0
C204 C 0.46093 0.28343 0.29762 0.0
C205 C 0.50215 0.24614 0.34319 0.0
H206 H 0.42221 0.21677 0.31129 0.0
C207 C 0.4931 0.16251 0.34222 0.0
C208 C 0.48927 0.15565 0.31293 0.0
C209 C 0.48892 0.182 0.3484 0.0
C210 C 0.44453 0.2248 0.32059 0.0
H211 H 0.49785 0.31864 0.35674 0.0
H212 H 0.49567 0.28443 0.36776 0.0
H213 H 0.4189 0.25141 0.3115 0.0
H214 H 0.47726 0.16372 0.26741 0.0
H215 H 0.46914 0.19735 0.27833 0.0
H216 H 0.528 0.21926 0.35155 0.0
C217 C 0.48629 0.2894 0.34633 0.0
C218 C 0.44277 0.24462 0.32058 0.0
C219 C 0.48742 0.30897 0.34005 0.0
C220 C 0.48056 0.16853 0.29018 0.0
C221 C 0.47569 0.18779 0.29643 0.0
C222 C 0.50375 0.2262 0.34344 0.0
C223 C 0.47287 0.27643 0.32516 0.0
C224 C 0.47217 0.25556 0.3307 0.0
C225 C 0.47994 0.19475 0.32551 0.0
C226 C 0.47551 0.21541 0.33108 0.0
H227 H 0.45278 0.30751 0.26976 0.0
H228 H 0.4512 0.27386 0.28051 0.0
H229 H 0.52527 0.25414 0.35109 0.0
H230 H 0.49994 0.1529 0.36016 0.0
H231 H 0.49238 0.18708 0.37099 0.0
C232 C 0.37938 0.08368 0.22303 0.0
C233 C 0.3912 0.0836 0.25275 0.0
C234 C 0.34268 0.0814 0.21642 0.0
C235 C 0.2528 0.08905 0.249 0.0
H236 H 0.21958 0.05825 0.18281 0.0
C237 C 0.10105 0.0821 0.22268 0.0
C238 C 0.09123 0.08313 0.19252 0.0
C239 C 0.13733 0.07999 0.23072 0.0
C240 C 0.22846 0.06704 0.20121 0.0
H241 H 0.37378 0.08058 0.29878 0.0
H242 H 0.30967 0.07668 0.28716 0.0
H243 H 0.28387 0.05841 0.19562 0.0
H244 H 0.11181 0.08233 0.14714 0.0
H245 H 0.1752 0.07906 0.16119 0.0
H246 H 0.19782 0.09813 0.2542 0.0
C247 C 0.32885 0.07862 0.26904 0.0
C248 C 0.26524 0.06709 0.20857 0.0
C249 C 0.36559 0.08077 0.27566 0.0
C250 C 0.11844 0.08155 0.17057 0.0
C251 C 0.15479 0.07956 0.17864 0.0
C252 C 0.21612 0.0891 0.24155 0.0
C253 C 0.31699 0.07912 0.23937 0.0
C254 C 0.27779 0.07819 0.23243 0.0
C255 C 0.16471 0.07899 0.20882 0.0
C256 C 0.20352 0.07819 0.21745 0.0
H257 H 0.39839 0.08578 0.20483 0.0
H258 H 0.33428 0.08203 0.19336 0.0
H259 H 0.26176 0.09799 0.2672 0.0
H260 H 0.08073 0.08309 0.24015 0.0
H261 H 0.14394 0.07923 0.25416 0.0
C262 C 0.60397 0.38322 0.22278 0.0
C263 C 0.59188 0.38367 0.25255 0.0
C264 C 0.64089 0.38469 0.21599 0.0
C265 C 0.73043 0.37611 0.24801 0.0
H266 H 0.7651 0.40736 0.18268 0.0
C267 C 0.88292 0.38438 0.22301 0.0
C268 C 0.89373 0.38399 0.19292 0.0
C269 C 0.84628 0.38577 0.23077 0.0
C270 C 0.75582 0.39842 0.2008 0.0
H271 H 0.60914 0.38631 0.29851 0.0
H272 H 0.6736 0.38881 0.28658 0.0
H273 H 0.70058 0.40716 0.19528 0.0
H274 H 0.87447 0.385 0.14738 0.0
H275 H 0.8105 0.38701 0.16092 0.0
H276 H 0.78533 0.367 0.25321 0.0
C277 C 0.65446 0.3872 0.26855 0.0
C278 C 0.71889 0.39834 0.20804 0.0
C279 C 0.61752 0.38586 0.27535 0.0
C280 C 0.86708 0.38532 0.17078 0.0
C281 C 0.83039 0.38658 0.17854 0.0
C282 C 0.76728 0.37609 0.24067 0.0
C283 C 0.66653 0.38652 0.23882 0.0
C284 C 0.70582 0.38713 0.23166 0.0
C285 C 0.81953 0.38668 0.20864 0.0
C286 C 0.78043 0.38719 0.21691 0.0
H287 H 0.58496 0.38158 0.20467 0.0
H288 H 0.64945 0.38394 0.19288 0.0
H289 H 0.72106 0.36711 0.26605 0.0
H290 H 0.90277 0.38354 0.24064 0.0
H291 H 0.83892 0.38615 0.25416 0.0
C292 C 0.11941 0.88568 0.7738 0.0
C293 C 0.09375 0.88285 0.75119 0.0
C294 C 0.15624 0.88734 0.76681 0.0
C295 C 0.21997 0.89842 0.70585 0.0
H296 H 0.28767 0.86829 0.75174 0.0
C297 C 0.36879 0.88638 0.66904 0.0
C298 C 0.39534 0.8852 0.69128 0.0
C299 C 0.33206 0.88766 0.6767 0.0
C300 C 0.26927 0.87706 0.739 0.0
H301 H 0.08665 0.87996 0.70342 0.0
H302 H 0.15099 0.88291 0.6913 0.0
H303 H 0.22346 0.86781 0.76461 0.0
H304 H 0.40424 0.88523 0.73902 0.0
H305 H 0.34038 0.88792 0.75234 0.0
H306 H 0.2658 0.90773 0.68027 0.0
C307 C 0.14251 0.88389 0.7144 0.0
C308 C 0.23245 0.87673 0.74636 0.0
C309 C 0.1057 0.88209 0.72139 0.0
C310 C 0.38445 0.88592 0.72132 0.0
C311 C 0.34779 0.88735 0.72897 0.0
C312 C 0.25689 0.89886 0.6986 0.0
C313 C 0.16818 0.88636 0.73706 0.0
C314 C 0.20739 0.88731 0.72977 0.0
C315 C 0.3211 0.88793 0.70677 0.0
C316 C 0.28197 0.88809 0.715 0.0
H317 H 0.11114 0.88639 0.79698 0.0
H318 H 0.17541 0.88943 0.7847 0.0
H319 H 0.20128 0.90688 0.69289 0.0
H320 H 0.37626 0.88581 0.64567 0.0
H321 H 0.31222 0.88786 0.65902 0.0
C322 C 0.62179 0.58288 0.66827 0.0
C323 C 0.59593 0.58545 0.69109 0.0
C324 C 0.65856 0.58107 0.67503 0.0
C325 C 0.72181 0.56947 0.73556 0.0
H326 H 0.78953 0.60046 0.69048 0.0
C327 C 0.86896 0.58286 0.77361 0.0
C328 C 0.89612 0.58441 0.75164 0.0
C329 C 0.83254 0.58119 0.76559 0.0
C330 C 0.77114 0.59145 0.70298 0.0
H331 H 0.58838 0.58764 0.73898 0.0
H332 H 0.65256 0.58445 0.7507 0.0
H333 H 0.72557 0.60059 0.67743 0.0
H334 H 0.90647 0.58465 0.70399 0.0
H335 H 0.84313 0.58132 0.69004 0.0
H336 H 0.76737 0.56033 0.76114 0.0
C337 C 0.64432 0.58378 0.72761 0.0
C338 C 0.73446 0.59157 0.69551 0.0
C339 C 0.60758 0.58573 0.72085 0.0
C340 C 0.88618 0.58367 0.72149 0.0
C341 C 0.84983 0.58187 0.71348 0.0
C342 C 0.75858 0.56925 0.74292 0.0
C343 C 0.67022 0.58163 0.70475 0.0
C344 C 0.70937 0.5807 0.71187 0.0
C345 C 0.8225 0.5809 0.73542 0.0
C346 C 0.78365 0.58037 0.72686 0.0
H347 H 0.61375 0.58255 0.64511 0.0
H348 H 0.67791 0.57923 0.65698 0.0
H349 H 0.70311 0.56078 0.74832 0.0
H350 H 0.87568 0.58343 0.79705 0.0
H351 H 0.81218 0.58071 0.78308 0.0
C352 C 0.60819 0.89752 0.6945 0.0
C353 C 0.60623 0.8938 0.66378 0.0
C354 C 0.64175 0.89916 0.70844 0.0
C355 C 0.7378 0.90939 0.69575 0.0
H356 H 0.75288 0.87834 0.7659 0.0
C357 C 0.87961 0.89755 0.74625 0.0
C358 C 0.88229 0.89519 0.77722 0.0
C359 C 0.84568 0.89898 0.73278 0.0
C360 C 0.74902 0.8874 0.7467 0.0
H361 H 0.63778 0.88947 0.62339 0.0
H362 H 0.69665 0.89262 0.64781 0.0
H363 H 0.69409 0.8782 0.74162 0.0
H364 H 0.85179 0.89331 0.81853 0.0
H365 H 0.79261 0.89651 0.79522 0.0
H366 H 0.79251 0.91885 0.70099 0.0
C367 C 0.67212 0.89418 0.66103 0.0
C368 C 0.71535 0.88722 0.73272 0.0
C369 C 0.6385 0.89228 0.64712 0.0
C370 C 0.85049 0.89494 0.79457 0.0
C371 C 0.81658 0.89664 0.78115 0.0
C372 C 0.77141 0.90977 0.70997 0.0
C373 C 0.67401 0.89737 0.69188 0.0
C374 C 0.70949 0.89811 0.70702 0.0
C375 C 0.8137 0.89834 0.75002 0.0
C376 C 0.77753 0.89867 0.73552 0.0
H377 H 0.58378 0.89877 0.70794 0.0
H378 H 0.64251 0.90179 0.73222 0.0
H379 H 0.73381 0.91805 0.6761 0.0
H380 H 0.90369 0.8977 0.73229 0.0
H381 H 0.84459 0.9 0.70874 0.0
C382 C 0.35271 0.58586 0.65395 0.0
C383 C 0.38336 0.57685 0.66583 0.0
C384 C 0.319 0.58427 0.66808 0.0
C385 C 0.27774 0.5729 0.7413 0.0
H386 H 0.18912 0.57224 0.69537 0.0
C387 C 0.11183 0.56603 0.75782 0.0
C388 C 0.10721 0.57793 0.78273 0.0
C389 C 0.1459 0.56396 0.74444 0.0
C390 C 0.21356 0.57214 0.70861 0.0
H391 H 0.40259 0.55856 0.70122 0.0
H392 H 0.34354 0.55529 0.72543 0.0
H393 H 0.24732 0.57131 0.66975 0.0
H394 H 0.13466 0.59673 0.81355 0.0
H395 H 0.19393 0.59362 0.78969 0.0
H396 H 0.24393 0.5732 0.78019 0.0
C397 C 0.34567 0.56402 0.70565 0.0
C398 C 0.24701 0.57189 0.69386 0.0
C399 C 0.37946 0.56578 0.69167 0.0
C400 C 0.13745 0.58742 0.79441 0.0
C401 C 0.17148 0.58553 0.78081 0.0
C402 C 0.24427 0.57296 0.75607 0.0
C403 C 0.3151 0.57345 0.69424 0.0
C404 C 0.27953 0.57252 0.70999 0.0
C405 C 0.17605 0.57393 0.75546 0.0
C406 C 0.21174 0.5728 0.7399 0.0
H407 H 0.3549 0.59457 0.63413 0.0
H408 H 0.29623 0.59197 0.6589 0.0
H409 H 0.3022 0.57361 0.75448 0.0
H410 H 0.08905 0.55839 0.74851 0.0
H411 H 0.14853 0.55459 0.72536 0.0
C412 C 0.60801 0.06816 0.25236 0.0
C413 C 0.60386 0.07941 0.27806 0.0
C414 C 0.64185 0.06639 0.23848 0.0
C415 C 0.74033 0.0744 0.25032 0.0
H416 H 0.7435 0.07473 0.16397 0.0
C417 C 0.85017 0.08805 0.14943 0.0
C418 C 0.88016 0.07837 0.16117 0.0
C419 C 0.81615 0.08661 0.16315 0.0
C420 C 0.74314 0.07476 0.18809 0.0
H421 H 0.63192 0.09746 0.3096 0.0
H422 H 0.69076 0.09485 0.28495 0.0
H423 H 0.68523 0.07568 0.18963 0.0
H424 H 0.89786 0.05898 0.19567 0.0
H425 H 0.83836 0.05599 0.21905 0.0
H426 H 0.79824 0.07443 0.24882 0.0
C427 C 0.66811 0.08703 0.27582 0.0
C428 C 0.70966 0.07502 0.20284 0.0
C429 C 0.63432 0.08863 0.28988 0.0
C430 C 0.87527 0.06675 0.18629 0.0
C431 C 0.84121 0.06514 0.1998 0.0
C432 C 0.7738 0.07431 0.23559 0.0
C433 C 0.67224 0.076 0.24981 0.0
C434 C 0.70784 0.07496 0.23415 0.0
C435 C 0.81133 0.07529 0.1887 0.0
C436 C 0.77564 0.0746 0.20428 0.0
H437 H 0.58504 0.06075 0.24287 0.0
H438 H 0.64415 0.05749 0.21883 0.0
H439 H 0.73998 0.07407 0.27444 0.0
H440 H 0.85315 0.09717 0.13015 0.0
H441 H 0.79389 0.09483 0.1542 0.0
C442 C 0.13604 0.38662 0.15063 0.0
C443 C 0.10518 0.39574 0.16235 0.0
C444 C 0.16973 0.38883 0.16425 0.0
C445 C 0.21007 0.4022 0.23659 0.0
H446 H 0.29947 0.40089 0.1907 0.0
C447 C 0.37607 0.40705 0.25333 0.0
C448 C 0.37928 0.39564 0.27883 0.0
C449 C 0.34246 0.40941 0.23961 0.0
C450 C 0.27481 0.40157 0.20391 0.0
H451 H 0.08558 0.41498 0.19669 0.0
H452 H 0.14456 0.41934 0.21991 0.0
H453 H 0.24168 0.40164 0.16501 0.0
H454 H 0.34978 0.37798 0.31024 0.0
H455 H 0.29146 0.38159 0.28589 0.0
H456 H 0.24319 0.40263 0.27547 0.0
C457 C 0.14264 0.41002 0.20074 0.0
C458 C 0.24159 0.40171 0.18914 0.0
C459 C 0.10887 0.40763 0.18732 0.0
C460 C 0.34813 0.38693 0.29068 0.0
C461 C 0.31461 0.38911 0.27679 0.0
C462 C 0.24328 0.40226 0.25135 0.0
C463 C 0.17339 0.4004 0.18968 0.0
C464 C 0.20878 0.40172 0.20529 0.0
C465 C 0.31139 0.40025 0.25091 0.0
C466 C 0.27608 0.40164 0.23522 0.0
H467 H 0.13401 0.3773 0.13147 0.0
H468 H 0.19263 0.38096 0.15534 0.0
H469 H 0.18541 0.402 0.24982 0.0
H470 H 0.39958 0.41407 0.24382 0.0
H471 H 0.34089 0.41837 0.22007 0.0
C472 C 0.01256 0.02562 0.06658 0.0
C473 C 0.00837 0.04462 0.0574 0.0
C474 C 0.01527 0.01097 0.04567 0.0
C475 C 0.03744 0.00016 0.96762 0.0
H476 H 0.97613 0.95605 -0.0197 0.0
C477 C 0.01435 0.94365 0.87632 0.0
C478 C 0.0093 0.92457 0.88475 0.0
C479 C 0.01714 0.95796 0.8978 0.0
C480 C -0.00604 0.96807 -0.02337 0.0
H481 H 0.00476 0.06317 0.01902 0.0
H482 H 0.00987 0.03744 -0.0177 0.0
H483 H 0.97577 0.98182 0.01662 0.0
H484 H 0.00442 0.90547 0.92239 0.0
H485 H 0.01031 0.93041 0.96003 0.0
H486 H 0.05596 -0.01363 0.92779 0.0
C487 C 0.011 0.03398 0.00577 0.0
C488 C -0.00641 0.9829 -0.00259 0.0
C489 C 0.00795 0.04869 0.02677 0.0
C490 C 0.00811 0.92005 0.9152 0.0
C491 C 0.01122 0.93438 0.93675 0.0
C492 C 0.03809 -0.01476 0.94694 0.0
C493 C 0.01416 0.01494 0.01506 0.0
C494 C 0.01517 -0.00086 -0.00694 0.0
C495 C 0.01528 0.95357 0.92831 0.0
C496 C 0.01614 0.96904 0.95106 0.0
H497 H 0.0131 0.02198 0.09 0.0
H498 H 0.01816 -0.00353 0.05347 0.0
H499 H 0.05468 0.01241 0.96388 0.0
H500 H 0.01521 0.94765 0.85304 0.0
H501 H 0.01965 0.97255 0.89038 0.0
C502 C 0.97477 0.52542 0.87605 0.0
C503 C 0.97887 0.54436 0.88563 0.0
C504 C 0.97181 0.51065 0.89665 0.0
C505 C 0.94867 0.49956 -0.02566 0.0
H506 H 0.01012 0.45541 0.96161 0.0
C507 C 0.97166 0.44332 0.06554 0.0
C508 C 0.97685 0.42421 0.0572 0.0
C509 C 0.96883 0.45753 0.04401 0.0
C510 C -0.00775 0.46744 0.96528 0.0
H511 H -0.01788 0.56269 0.92441 0.0
H512 H 0.97658 0.53678 0.96058 0.0
H513 H 0.01079 0.48123 0.92553 0.0
H514 H -0.01802 0.40495 0.01964 0.0
H515 H 0.97606 0.42974 -0.01812 0.0
H516 H 0.92982 0.48575 0.01393 0.0
C517 C 0.9757 0.53344 0.93702 0.0
C518 C -0.00721 0.48229 0.94464 0.0
C519 C 0.979 0.54825 0.91635 0.0
C520 C 0.97816 0.41956 0.02677 0.0
C521 C 0.97503 0.4338 0.00515 0.0
C522 C 0.94785 0.48462 -0.00513 0.0
C523 C 0.97258 0.51446 0.92734 0.0
C524 C 0.97122 0.49857 0.94906 0.0
C525 C 0.9708 0.45302 0.01352 0.0
C526 C 0.9699 0.46842 -0.00924 0.0
H527 H 0.97448 0.5219 0.85255 0.0
H528 H 0.96898 0.4962 0.88854 0.0
H529 H 0.93141 0.51183 -0.0219 0.0
H530 H 0.97069 0.44742 0.0888 0.0
H531 H 0.96621 0.47215 0.05139 0.0
C532 C 0.51112 0.44469 0.3757 0.0
C533 C 0.50548 0.42577 0.38475 0.0
C534 C 0.51392 0.45928 0.39668 0.0
C535 C 0.53412 0.46961 0.47494 0.0
H536 H 0.4758 0.51477 0.46189 0.0
C537 C 0.51202 0.52631 0.56628 0.0
C538 C 0.50855 0.5455 0.55796 0.0
C539 C 0.5143 0.512 0.54474 0.0
C540 C 0.49279 0.50244 0.46567 0.0
H541 H 0.49934 0.40725 0.42302 0.0
H542 H 0.50465 0.43286 0.45988 0.0
H543 H 0.47504 0.48905 0.42545 0.0
H544 H 0.5058 0.56477 0.52043 0.0
H545 H 0.51079 0.5398 0.48265 0.0
H546 H 0.55225 0.48303 0.51496 0.0
C547 C 0.50683 0.43632 0.43644 0.0
C548 C 0.4922 0.48766 0.44482 0.0
C549 C 0.50367 0.42169 0.41536 0.0
C550 C 0.50828 0.55011 0.52754 0.0
C551 C 0.51089 0.53577 0.50591 0.0
C552 C 0.53501 0.48449 0.49567 0.0
C553 C 0.51146 0.4553 0.42725 0.0
C554 C 0.51268 0.47104 0.44932 0.0
C555 C 0.51351 0.5165 0.51425 0.0
C556 C 0.51413 0.50105 0.49143 0.0
H557 H 0.51271 0.44834 0.35229 0.0
H558 H 0.51794 0.47372 0.38896 0.0
H559 H 0.55053 0.45707 0.47878 0.0
H560 H 0.51213 0.52224 0.58954 0.0
H561 H 0.51566 0.49736 0.55209 0.0
C562 C 0.47512 0.94402 0.56495 0.0
C563 C 0.47989 0.92493 0.55637 0.0
C564 C 0.47242 0.95835 0.54359 0.0
C565 C 0.49527 0.96843 0.46477 0.0
H566 H 0.43459 0.01284 0.47797 0.0
C567 C 0.47588 0.02598 0.37521 0.0
C568 C 0.4798 0.04499 0.38448 0.0
C569 C 0.47356 0.01132 0.39605 0.0
C570 C 0.45183 0.00058 0.47411 0.0
H571 H 0.48444 0.90582 0.51858 0.0
H572 H 0.47874 0.9308 0.48114 0.0
H573 H 0.43349 -0.01318 0.51391 0.0
H574 H 0.48347 0.06357 0.42295 0.0
H575 H 0.47908 0.03783 0.45954 0.0
H576 H 0.51327 0.98216 0.42481 0.0
C577 C 0.47795 0.93476 0.50445 0.0
C578 C 0.45128 -0.01434 0.4947 0.0
C579 C 0.48096 0.92041 0.52589 0.0
C580 C 0.48048 0.04907 0.41513 0.0
C581 C 0.47783 0.03435 0.43605 0.0
C582 C 0.49554 0.98326 0.44408 0.0
C583 C 0.4741 0.95396 0.51304 0.0
C584 C 0.4732 0.96944 0.49041 0.0
C585 C 0.47482 0.01531 0.42667 0.0
C586 C 0.47399 -0.00047 0.4486 0.0
H587 H 0.47435 0.94801 0.58827 0.0
H588 H 0.47007 0.97295 0.55112 0.0
H589 H 0.51305 0.95639 0.46097 0.0
H590 H 0.47516 0.02233 0.35177 0.0
H591 H 0.47079 -0.00319 0.38817 0.0
loop_
_geom_bond_atom_site_label_1
_geom_bond_atom_site_label_2
_geom_bond_distance
_geom_bond_site_symmetry_2
_ccdc_geom_bond_type
C0 O1 1.306 . S
C0 O3 1.160 . S
O1 C0 1.306 . S
O1 Cd2 2.228 . S
Cd2 O1 2.228 . S
Cd2 O6 2.273 1_455 S
Cd2 O10 2.277 . S
O3 C0 1.160 . S
O3 Cd4 2.203 . S
Cd4 O3 2.203 . S
Cd4 O6 2.411 1_455 S
Cd4 O7 2.333 1_455 S
Cd4 O8 2.352 . S
Cd4 O12 2.277 . S
Cd4 O13 2.356 . S
C5 O10 1.209 . S
C5 O12 1.226 . S
O6 Cd2 2.273 1_655 S
O6 Cd4 2.411 1_655 S
O6 C9 1.320 . S
O7 Cd4 2.333 1_655 S
O7 C9 1.214 . S
O8 Cd4 2.352 . S
O8 C11 1.258 . S
C9 O6 1.320 . S
C9 O7 1.214 . S
O10 Cd2 2.277 . S
O10 C5 1.209 . S
C11 O8 1.258 . S
C11 O13 1.282 . S
O12 Cd4 2.277 . S
O12 C5 1.226 . S
O13 Cd4 2.356 . S
O13 C11 1.282 . S
C14 O15 1.306 . S
C14 O17 1.160 . S
O15 C14 1.306 . S
O15 Cd16 2.228 1_655 S
Cd16 O15 2.228 1_455 S
Cd16 O20 2.273 . S
Cd16 O24 2.277 . S
O17 C14 1.160 . S
O17 Cd18 2.203 1_655 S
Cd18 O17 2.203 1_455 S
Cd18 O20 2.411 . S
Cd18 O21 2.333 . S
Cd18 O22 2.352 . S
Cd18 O26 2.277 . S
Cd18 O27 2.356 . S
C19 O24 1.209 . S
C19 O26 1.226 . S
O20 Cd16 2.273 . S
O20 Cd18 2.411 . S
O20 C23 1.320 . S
O21 Cd18 2.333 . S
O21 C23 1.214 . S
O22 Cd18 2.352 . S
O22 C25 1.258 . S
C23 O20 1.320 . S
C23 O21 1.214 . S
O24 Cd16 2.277 . S
O24 C19 1.209 . S
C25 O22 1.258 . S
C25 O27 1.282 . S
O26 Cd18 2.277 . S
O26 C19 1.226 . S
O27 Cd18 2.356 . S
O27 C25 1.282 . S
C28 O29 1.306 . S
C28 O31 1.160 . S
O29 C28 1.306 . S
O29 Cd30 2.228 . S
Cd30 O29 2.228 . S
Cd30 O34 2.273 1_455 S
Cd30 O38 2.277 . S
O31 C28 1.160 . S
O31 Cd32 2.203 . S
Cd32 O31 2.203 . S
Cd32 O34 2.411 1_455 S
Cd32 O35 2.333 1_455 S
Cd32 O36 2.352 . S
Cd32 O40 2.277 . S
Cd32 O41 2.356 . S
C33 O38 1.209 . S
C33 O40 1.226 . S
O34 Cd30 2.273 1_655 S
O34 Cd32 2.411 1_655 S
O34 C37 1.320 . S
O35 Cd32 2.333 1_655 S
O35 C37 1.214 . S
O36 Cd32 2.352 . S
O36 C39 1.258 . S
C37 O34 1.320 . S
C37 O35 1.214 . S
O38 Cd30 2.277 . S
O38 C33 1.209 . S
C39 O36 1.258 . S
C39 O41 1.282 . S
O40 Cd32 2.277 . S
O40 C33 1.226 . S
O41 Cd32 2.356 . S
O41 C39 1.282 . S
C42 O43 1.306 . S
C42 O45 1.160 . S
O43 C42 1.306 . S
O43 Cd44 2.228 1_655 S
Cd44 O43 2.228 1_455 S
Cd44 O48 2.273 . S
Cd44 O52 2.277 . S
O45 C42 1.160 . S
O45 Cd46 2.203 1_655 S
Cd46 O45 2.203 1_455 S
Cd46 O48 2.411 . S
Cd46 O49 2.333 . S
Cd46 O50 2.352 . S
Cd46 O54 2.277 . S
Cd46 O55 2.356 . S
C47 O52 1.209 . S
C47 O54 1.226 . S
O48 Cd44 2.273 . S
O48 Cd46 2.411 . S
O48 C51 1.320 . S
O49 Cd46 2.333 . S
O49 C51 1.214 . S
O50 Cd46 2.352 . S
O50 C53 1.258 . S
C51 O48 1.320 . S
C51 O49 1.214 . S
O52 Cd44 2.277 . S
O52 C47 1.209 . S
C53 O50 1.258 . S
C53 O55 1.282 . S
O54 Cd46 2.277 . S
O54 C47 1.226 . S
O55 Cd46 2.356 . S
O55 C53 1.282 . S
C56 O57 1.306 . S
C56 O59 1.160 . S
O57 C56 1.306 . S
O57 Cd58 2.228 . S
Cd58 O57 2.228 . S
Cd58 O62 2.273 . S
Cd58 O66 2.277 . S
O59 C56 1.160 . S
O59 Cd60 2.203 . S
Cd60 O59 2.203 . S
Cd60 O62 2.411 . S
Cd60 O63 2.333 . S
Cd60 O64 2.352 . S
Cd60 O68 2.277 . S
Cd60 O69 2.356 . S
C61 O66 1.209 . S
C61 O68 1.226 . S
O62 Cd58 2.273 . S
O62 Cd60 2.411 . S
O62 C65 1.320 . S
O63 Cd60 2.333 . S
O63 C65 1.214 . S
O64 Cd60 2.352 . S
O64 C67 1.258 . S
C65 O62 1.320 . S
C65 O63 1.214 . S
O66 Cd58 2.277 . S
O66 C61 1.209 . S
C67 O64 1.258 . S
C67 O69 1.282 . S
O68 Cd60 2.277 . S
O68 C61 1.226 . S
O69 Cd60 2.356 . S
O69 C67 1.282 . S
C70 O71 1.306 . S
C70 O73 1.160 . S
O71 C70 1.306 . S
O71 Cd72 2.228 . S
Cd72 O71 2.228 . S
Cd72 O76 2.273 . S
Cd72 O80 2.277 . S
O73 C70 1.160 . S
O73 Cd74 2.203 . S
Cd74 O73 2.203 . S
Cd74 O76 2.411 . S
Cd74 O77 2.333 . S
Cd74 O78 2.352 . S
Cd74 O82 2.277 . S
Cd74 O83 2.356 . S
C75 O80 1.209 . S
C75 O82 1.226 . S
O76 Cd72 2.273 . S
O76 Cd74 2.411 . S
O76 C79 1.320 . S
O77 Cd74 2.333 . S
O77 C79 1.214 . S
O78 Cd74 2.352 . S
O78 C81 1.258 . S
C79 O76 1.320 . S
C79 O77 1.214 . S
O80 Cd72 2.277 . S
O80 C75 1.209 . S
C81 O78 1.258 . S
C81 O83 1.282 . S
O82 Cd74 2.277 . S
O82 C75 1.226 . S
O83 Cd74 2.356 . S
O83 C81 1.282 . S
C84 O85 1.306 . S
C84 O87 1.160 . S
O85 C84 1.306 . S
O85 Cd86 2.228 . S
Cd86 O85 2.228 . S
Cd86 O90 2.273 . S
Cd86 O94 2.277 . S
O87 C84 1.160 . S
O87 Cd88 2.203 . S
Cd88 O87 2.203 . S
Cd88 O90 2.411 . S
Cd88 O91 2.333 . S
Cd88 O92 2.352 . S
Cd88 O96 2.277 . S
Cd88 O97 2.356 . S
C89 O94 1.209 . S
C89 O96 1.226 . S
O90 Cd86 2.273 . S
O90 Cd88 2.411 . S
O90 C93 1.320 . S
O91 Cd88 2.333 . S
O91 C93 1.214 . S
O92 Cd88 2.352 . S
O92 C95 1.258 . S
C93 O90 1.320 . S
C93 O91 1.214 . S
O94 Cd86 2.277 . S
O94 C89 1.209 . S
C95 O92 1.258 . S
C95 O97 1.282 . S
O96 Cd88 2.277 . S
O96 C89 1.226 . S
O97 Cd88 2.356 . S
O97 C95 1.282 . S
C98 O99 1.306 . S
C98 O101 1.160 . S
O99 C98 1.306 . S
O99 Cd100 2.228 . S
Cd100 O99 2.228 . S
Cd100 O104 2.273 . S
Cd100 O108 2.277 . S
O101 C98 1.160 . S
O101 Cd102 2.203 . S
Cd102 O101 2.203 . S
Cd102 O104 2.411 . S
Cd102 O105 2.333 . S
Cd102 O106 2.352 . S
Cd102 O110 2.277 . S
Cd102 O111 2.356 . S
C103 O108 1.209 . S
C103 O110 1.226 . S
O104 Cd100 2.273 . S
O104 Cd102 2.411 . S
O104 C107 1.320 . S
O105 Cd102 2.333 . S
O105 C107 1.214 . S
O106 Cd102 2.352 . S
O106 C109 1.258 . S
C107 O104 1.320 . S
C107 O105 1.214 . S
O108 Cd100 2.277 . S
O108 C103 1.209 . S
C109 O106 1.258 . S
C109 O111 1.282 . S
O110 Cd102 2.277 . S
O110 C103 1.226 . S
O111 Cd102 2.356 . S
O111 C109 1.282 . S
C112 C113 1.349 . S
C112 C114 1.327 . S
C112 H137 0.950 . S
C113 C112 1.349 . S
C113 C129 1.349 1_455 S
C114 C112 1.327 . S
C114 C133 1.429 . S
C114 H138 0.950 . S
C115 C132 1.574 . S
C115 C134 1.368 1_655 S
C115 H139 0.949 . S
H116 C120 0.949 . S
C117 C118 1.349 1_655 S
C117 C119 1.327 . S
C117 H140 0.950 . S
C118 C117 1.349 1_455 S
C118 C130 1.349 . S
C119 C117 1.327 . S
C119 C135 1.429 1_655 S
C119 H141 0.950 . S
C120 H116 0.949 . S
C120 C128 1.574 . S
C120 C136 1.368 . S
H121 C129 0.950 . S
H122 C127 0.950 . S
H123 C128 0.949 . S
H124 C130 0.950 . S
H125 C131 0.950 . S
H126 C132 0.949 . S
C127 H122 0.950 . S
C127 C129 1.327 . S
C127 C133 1.429 1_655 S
C128 C120 1.574 . S
C128 H123 0.949 . S
C128 C134 1.368 . S
C129 C113 1.349 1_655 S
C129 H121 0.950 . S
C129 C127 1.327 . S
C130 C118 1.349 . S
C130 H124 0.950 . S
C130 C131 1.327 . S
C131 H125 0.950 . S
C131 C130 1.327 . S
C131 C135 1.429 . S
C132 C115 1.574 . S
C132 H126 0.949 . S
C132 C136 1.368 1_655 S
C133 C114 1.429 . S
C133 C127 1.429 1_455 S
C133 C134 1.523 . S
C134 C115 1.368 1_455 S
C134 C128 1.368 . S
C134 C133 1.523 . S
C135 C119 1.429 1_455 S
C135 C131 1.429 . S
C135 C136 1.523 . S
C136 C120 1.368 . S
C136 C132 1.368 1_455 S
C136 C135 1.523 . S
H137 C112 0.950 . S
H138 C114 0.950 . S
H139 C115 0.949 . S
H140 C117 0.950 . S
H141 C119 0.950 . S
C142 C143 1.349 . S
C142 C144 1.327 . S
C142 H167 0.950 . S
C143 C142 1.349 . S
C143 C159 1.349 1_455 S
C144 C142 1.327 . S
C144 C163 1.429 . S
C144 H168 0.950 . S
C145 C162 1.574 . S
C145 C164 1.368 1_655 S
C145 H169 0.949 . S
H146 C150 0.949 . S
C147 C148 1.349 1_655 S
C147 C149 1.327 . S
C147 H170 0.950 . S
C148 C147 1.349 1_455 S
C148 C160 1.349 . S
C149 C147 1.327 . S
C149 C165 1.429 1_655 S
C149 H171 0.950 . S
C150 H146 0.949 . S
C150 C158 1.574 . S
C150 C166 1.368 . S
H151 C159 0.950 . S
H152 C157 0.950 . S
H153 C158 0.949 . S
H154 C160 0.950 . S
H155 C161 0.950 . S
H156 C162 0.949 . S
C157 H152 0.950 . S
C157 C159 1.327 . S
C157 C163 1.429 1_655 S
C158 C150 1.574 . S
C158 H153 0.949 . S
C158 C164 1.368 . S
C159 C143 1.349 1_655 S
C159 H151 0.950 . S
C159 C157 1.327 . S
C160 C148 1.349 . S
C160 H154 0.950 . S
C160 C161 1.327 . S
C161 H155 0.950 . S
C161 C160 1.327 . S
C161 C165 1.429 . S
C162 C145 1.574 . S
C162 H156 0.949 . S
C162 C166 1.368 1_655 S
C163 C144 1.429 . S
C163 C157 1.429 1_455 S
C163 C164 1.523 . S
C164 C145 1.368 1_455 S
C164 C158 1.368 . S
C164 C163 1.523 . S
C165 C149 1.429 1_455 S
C165 C161 1.429 . S
C165 C166 1.523 . S
C166 C150 1.368 . S
C166 C162 1.368 1_455 S
C166 C165 1.523 . S
H167 C142 0.950 . S
H168 C144 0.950 . S
H169 C145 0.949 . S
H170 C147 0.950 . S
H171 C149 0.950 . S
C172 C173 1.349 . S
C172 C174 1.327 . S
C172 H197 0.950 . S
C173 C172 1.349 . S
C173 C189 1.349 . S
C174 C172 1.327 . S
C174 C193 1.429 . S
C174 H198 0.950 . S
C175 C192 1.574 . S
C175 C194 1.368 . S
C175 H199 0.949 . S
H176 C180 0.949 . S
C177 C178 1.349 . S
C177 C179 1.327 . S
C177 H200 0.950 . S
C178 C177 1.349 . S
C178 C190 1.349 . S
C179 C177 1.327 . S
C179 C195 1.429 . S
C179 H201 0.950 . S
C180 H176 0.949 . S
C180 C188 1.574 . S
C180 C196 1.368 . S
H181 C189 0.950 . S
H182 C187 0.950 . S
H183 C188 0.949 . S
H184 C190 0.950 . S
H185 C191 0.950 . S
H186 C192 0.949 . S
C187 H182 0.950 . S
C187 C189 1.327 . S
C187 C193 1.429 . S
C188 C180 1.574 . S
C188 H183 0.949 . S
C188 C194 1.368 . S
C189 C173 1.349 . S
C189 H181 0.950 . S
C189 C187 1.327 . S
C190 C178 1.349 . S
C190 H184 0.950 . S
C190 C191 1.327 . S
C191 H185 0.950 . S
C191 C190 1.327 . S
C191 C195 1.429 . S
C192 C175 1.574 . S
C192 H186 0.949 . S
C192 C196 1.368 . S
C193 C174 1.429 . S
C193 C187 1.429 . S
C193 C194 1.523 . S
C194 C175 1.368 . S
C194 C188 1.368 . S
C194 C193 1.523 . S
C195 C179 1.429 . S
C195 C191 1.429 . S
C195 C196 1.523 . S
C196 C180 1.368 . S
C196 C192 1.368 . S
C196 C195 1.523 . S
H197 C172 0.950 . S
H198 C174 0.950 . S
H199 C175 0.949 . S
H200 C177 0.950 . S
H201 C179 0.950 . S
C202 C203 1.349 . S
C202 C204 1.327 . S
C202 H227 0.950 . S
C203 C202 1.349 . S
C203 C219 1.349 . S
C204 C202 1.327 . S
C204 C223 1.429 . S
C204 H228 0.950 . S
C205 C222 1.574 . S
C205 C224 1.368 . S
C205 H229 0.949 . S
H206 C210 0.949 . S
C207 C208 1.349 . S
C207 C209 1.327 . S
C207 H230 0.950 . S
C208 C207 1.349 . S
C208 C220 1.349 . S
C209 C207 1.327 . S
C209 C225 1.429 . S
C209 H231 0.950 . S
C210 H206 0.949 . S
C210 C218 1.574 . S
C210 C226 1.368 . S
H211 C219 0.950 . S
H212 C217 0.950 . S
H213 C218 0.949 . S
H214 C220 0.950 . S
H215 C221 0.950 . S
H216 C222 0.949 . S
C217 H212 0.950 . S
C217 C219 1.327 . S
C217 C223 1.429 . S
C218 C210 1.574 . S
C218 H213 0.949 . S
C218 C224 1.368 . S
C219 C203 1.349 . S
C219 H211 0.950 . S
C219 C217 1.327 . S
C220 C208 1.349 . S
C220 H214 0.950 . S
C220 C221 1.327 . S
C221 H215 0.950 . S
C221 C220 1.327 . S
C221 C225 1.429 . S
C222 C205 1.574 . S
C222 H216 0.949 . S
C222 C226 1.368 . S
C223 C204 1.429 . S
C223 C217 1.429 . S
C223 C224 1.523 . S
C224 C205 1.368 . S
C224 C218 1.368 . S
C224 C223 1.523 . S
C225 C209 1.429 . S
C225 C221 1.429 . S
C225 C226 1.523 . S
C226 C210 1.368 . S
C226 C222 1.368 . S
C226 C225 1.523 . S
H227 C202 0.950 . S
H228 C204 0.950 . S
H229 C205 0.949 . S
H230 C207 0.950 . S
H231 C209 0.950 . S
C232 C233 1.349 . S
C232 C234 1.327 . S
C232 H257 0.950 . S
C233 C232 1.349 . S
C233 C249 1.349 . S
C234 C232 1.327 . S
C234 C253 1.429 . S
C234 H258 0.950 . S
C235 C252 1.574 . S
C235 C254 1.368 . S
C235 H259 0.949 . S
H236 C240 0.949 . S
C237 C238 1.349 . S
C237 C239 1.327 . S
C237 H260 0.950 . S
C238 C237 1.349 . S
C238 C250 1.349 . S
C239 C237 1.327 . S
C239 C255 1.429 . S
C239 H261 0.950 . S
C240 H236 0.949 . S
C240 C248 1.574 . S
C240 C256 1.368 . S
H241 C249 0.950 . S
H242 C247 0.950 . S
H243 C248 0.949 . S
H244 C250 0.950 . S
H245 C251 0.950 . S
H246 C252 0.949 . S
C247 H242 0.950 . S
C247 C249 1.327 . S
C247 C253 1.429 . S
C248 C240 1.574 . S
C248 H243 0.949 . S
C248 C254 1.368 . S
C249 C233 1.349 . S
C249 H241 0.950 . S
C249 C247 1.327 . S
C250 C238 1.349 . S
C250 H244 0.950 . S
C250 C251 1.327 . S
C251 H245 0.950 . S
C251 C250 1.327 . S
C251 C255 1.429 . S
C252 C235 1.574 . S
C252 H246 0.949 . S
C252 C256 1.368 . S
C253 C234 1.429 . S
C253 C247 1.429 . S
C253 C254 1.523 . S
C254 C235 1.368 . S
C254 C248 1.368 . S
C254 C253 1.523 . S
C255 C239 1.429 . S
C255 C251 1.429 . S
C255 C256 1.523 . S
C256 C240 1.368 . S
C256 C252 1.368 . S
C256 C255 1.523 . S
H257 C232 0.950 . S
H258 C234 0.950 . S
H259 C235 0.949 . S
H260 C237 0.950 . S
H261 C239 0.950 . S
C262 C263 1.349 . S
C262 C264 1.327 . S
C262 H287 0.950 . S
C263 C262 1.349 . S
C263 C279 1.349 . S
C264 C262 1.327 . S
C264 C283 1.429 . S
C264 H288 0.950 . S
C265 C282 1.574 . S
C265 C284 1.368 . S
C265 H289 0.949 . S
H266 C270 0.949 . S
C267 C268 1.349 . S
C267 C269 1.327 . S
C267 H290 0.950 . S
C268 C267 1.349 . S
C268 C280 1.349 . S
C269 C267 1.327 . S
C269 C285 1.429 . S
C269 H291 0.950 . S
C270 H266 0.949 . S
C270 C278 1.574 . S
C270 C286 1.368 . S
H271 C279 0.950 . S
H272 C277 0.950 . S
H273 C278 0.949 . S
H274 C280 0.950 . S
H275 C281 0.950 . S
H276 C282 0.949 . S
C277 H272 0.950 . S
C277 C279 1.327 . S
C277 C283 1.429 . S
C278 C270 1.574 . S
C278 H273 0.949 . S
C278 C284 1.368 . S
C279 C263 1.349 . S
C279 H271 0.950 . S
C279 C277 1.327 . S
C280 C268 1.349 . S
C280 H274 0.950 . S
C280 C281 1.327 . S
C281 H275 0.950 . S
C281 C280 1.327 . S
C281 C285 1.429 . S
C282 C265 1.574 . S
C282 H276 0.949 . S
C282 C286 1.368 . S
C283 C264 1.429 . S
C283 C277 1.429 . S
C283 C284 1.523 . S
C284 C265 1.368 . S
C284 C278 1.368 . S
C284 C283 1.523 . S
C285 C269 1.429 . S
C285 C281 1.429 . S
C285 C286 1.523 . S
C286 C270 1.368 . S
C286 C282 1.368 . S
C286 C285 1.523 . S
H287 C262 0.950 . S
H288 C264 0.950 . S
H289 C265 0.949 . S
H290 C267 0.950 . S
H291 C269 0.950 . S
C292 C293 1.349 . S
C292 C294 1.327 . S
C292 H317 0.950 . S
C293 C292 1.349 . S
C293 C309 1.349 . S
C294 C292 1.327 . S
C294 C313 1.429 . S
C294 H318 0.950 . S
C295 C312 1.574 . S
C295 C314 1.368 . S
C295 H319 0.949 . S
H296 C300 0.949 . S
C297 C298 1.349 . S
C297 C299 1.327 . S
C297 H320 0.950 . S
C298 C297 1.349 . S
C298 C310 1.349 . S
C299 C297 1.327 . S
C299 C315 1.429 . S
C299 H321 0.950 . S
C300 H296 0.949 . S
C300 C308 1.574 . S
C300 C316 1.368 . S
H301 C309 0.950 . S
H302 C307 0.950 . S
H303 C308 0.949 . S
H304 C310 0.950 . S
H305 C311 0.950 . S
H306 C312 0.949 . S
C307 H302 0.950 . S
C307 C309 1.327 . S
C307 C313 1.429 . S
C308 C300 1.574 . S
C308 H303 0.949 . S
C308 C314 1.368 . S
C309 C293 1.349 . S
C309 H301 0.950 . S
C309 C307 1.327 . S
C310 C298 1.349 . S
C310 H304 0.950 . S
C310 C311 1.327 . S
C311 H305 0.950 . S
C311 C310 1.327 . S
C311 C315 1.429 . S
C312 C295 1.574 . S
C312 H306 0.949 . S
C312 C316 1.368 . S
C313 C294 1.429 . S
C313 C307 1.429 . S
C313 C314 1.523 . S
C314 C295 1.368 . S
C314 C308 1.368 . S
C314 C313 1.523 . S
C315 C299 1.429 . S
C315 C311 1.429 . S
C315 C316 1.523 . S
C316 C300 1.368 . S
C316 C312 1.368 . S
C316 C315 1.523 . S
H317 C292 0.950 . S
H318 C294 0.950 . S
H319 C295 0.949 . S
H320 C297 0.950 . S
H321 C299 0.950 . S
C322 C323 1.349 . S
C322 C324 1.327 . S
C322 H347 0.950 . S
C323 C322 1.349 . S
C323 C339 1.349 . S
C324 C322 1.327 . S
C324 C343 1.429 . S
C324 H348 0.950 . S
C325 C342 1.574 . S
C325 C344 1.368 . S
C325 H349 0.949 . S
H326 C330 0.949 . S
C327 C328 1.349 . S
C327 C329 1.327 . S
C327 H350 0.950 . S
C328 C327 1.349 . S
C328 C340 1.349 . S
C329 C327 1.327 . S
C329 C345 1.429 . S
C329 H351 0.950 . S
C330 H326 0.949 . S
C330 C338 1.574 . S
C330 C346 1.368 . S
H331 C339 0.950 . S
H332 C337 0.950 . S
H333 C338 0.949 . S
H334 C340 0.950 . S
H335 C341 0.950 . S
H336 C342 0.949 . S
C337 H332 0.950 . S
C337 C339 1.327 . S
C337 C343 1.429 . S
C338 C330 1.574 . S
C338 H333 0.949 . S
C338 C344 1.368 . S
C339 C323 1.349 . S
C339 H331 0.950 . S
C339 C337 1.327 . S
C340 C328 1.349 . S
C340 H334 0.950 . S
C340 C341 1.327 . S
C341 H335 0.950 . S
C341 C340 1.327 . S
C341 C345 1.429 . S
C342 C325 1.574 . S
C342 H336 0.949 . S
C342 C346 1.368 . S
C343 C324 1.429 . S
C343 C337 1.429 . S
C343 C344 1.523 . S
C344 C325 1.368 . S
C344 C338 1.368 . S
C344 C343 1.523 . S
C345 C329 1.429 . S
C345 C341 1.429 . S
C345 C346 1.523 . S
C346 C330 1.368 . S
C346 C342 1.368 . S
C346 C345 1.523 . S
H347 C322 0.950 . S
H348 C324 0.950 . S
H349 C325 0.949 . S
H350 C327 0.950 . S
H351 C329 0.950 . S
C352 C353 1.349 . S
C352 C354 1.327 . S
C352 H377 0.950 . S
C353 C352 1.349 . S
C353 C369 1.349 . S
C354 C352 1.327 . S
C354 C373 1.429 . S
C354 H378 0.950 . S
C355 C372 1.574 . S
C355 C374 1.368 . S
C355 H379 0.949 . S
H356 C360 0.949 . S
C357 C358 1.349 . S
C357 C359 1.327 . S
C357 H380 0.950 . S
C358 C357 1.349 . S
C358 C370 1.349 . S
C359 C357 1.327 . S
C359 C375 1.429 . S
C359 H381 0.950 . S
C360 H356 0.949 . S
C360 C368 1.574 . S
C360 C376 1.368 . S
H361 C369 0.950 . S
H362 C367 0.950 . S
H363 C368 0.949 . S
H364 C370 0.950 . S
H365 C371 0.950 . S
H366 C372 0.949 . S
C367 H362 0.950 . S
C367 C369 1.327 . S
C367 C373 1.429 . S
C368 C360 1.574 . S
C368 H363 0.949 . S
C368 C374 1.368 . S
C369 C353 1.349 . S
C369 H361 0.950 . S
C369 C367 1.327 . S
C370 C358 1.349 . S
C370 H364 0.950 . S
C370 C371 1.327 . S
C371 H365 0.950 . S
C371 C370 1.327 . S
C371 C375 1.429 . S
C372 C355 1.574 . S
C372 H366 0.949 . S
C372 C376 1.368 . S
C373 C354 1.429 . S
C373 C367 1.429 . S
C373 C374 1.523 . S
C374 C355 1.368 . S
C374 C368 1.368 . S
C374 C373 1.523 . S
C375 C359 1.429 . S
C375 C371 1.429 . S
C375 C376 1.523 . S
C376 C360 1.368 . S
C376 C372 1.368 . S
C376 C375 1.523 . S
H377 C352 0.950 . S
H378 C354 0.950 . S
H379 C355 0.949 . S
H380 C357 0.950 . S
H381 C359 0.950 . S
C382 C383 1.349 . S
C382 C384 1.327 . S
C382 H407 0.950 . S
C383 C382 1.349 . S
C383 C399 1.349 . S
C384 C382 1.327 . S
C384 C403 1.429 . S
C384 H408 0.950 . S
C385 C402 1.574 . S
C385 C404 1.368 . S
C385 H409 0.949 . S
H386 C390 0.949 . S
C387 C388 1.349 . S
C387 C389 1.327 . S
C387 H410 0.950 . S
C388 C387 1.349 . S
C388 C400 1.349 . S
C389 C387 1.327 . S
C389 C405 1.429 . S
C389 H411 0.950 . S
C390 H386 0.949 . S
C390 C398 1.574 . S
C390 C406 1.368 . S
H391 C399 0.950 . S
H392 C397 0.950 . S
H393 C398 0.949 . S
H394 C400 0.950 . S
H395 C401 0.950 . S
H396 C402 0.949 . S
C397 H392 0.950 . S
C397 C399 1.327 . S
C397 C403 1.429 . S
C398 C390 1.574 . S
C398 H393 0.949 . S
C398 C404 1.368 . S
C399 C383 1.349 . S
C399 H391 0.950 . S
C399 C397 1.327 . S
C400 C388 1.349 . S
C400 H394 0.950 . S
C400 C401 1.327 . S
C401 H395 0.950 . S
C401 C400 1.327 . S
C401 C405 1.429 . S
C402 C385 1.574 . S
C402 H396 0.949 . S
C402 C406 1.368 . S
C403 C384 1.429 . S
C403 C397 1.429 . S
C403 C404 1.523 . S
C404 C385 1.368 . S
C404 C398 1.368 . S
C404 C403 1.523 . S
C405 C389 1.429 . S
C405 C401 1.429 . S
C405 C406 1.523 . S
C406 C390 1.368 . S
C406 C402 1.368 . S
C406 C405 1.523 . S
H407 C382 0.950 . S
H408 C384 0.950 . S
H409 C385 0.949 . S
H410 C387 0.950 . S
H411 C389 0.950 . S
C412 C413 1.349 . S
C412 C414 1.327 . S
C412 H437 0.950 . S
C413 C412 1.349 . S
C413 C429 1.349 . S
C414 C412 1.327 . S
C414 C433 1.429 . S
C414 H438 0.950 . S
C415 C432 1.574 . S
C415 C434 1.368 . S
C415 H439 0.949 . S
H416 C420 0.949 . S
C417 C418 1.349 . S
C417 C419 1.327 . S
C417 H440 0.950 . S
C418 C417 1.349 . S
C418 C430 1.349 . S
C419 C417 1.327 . S
C419 C435 1.429 . S
C419 H441 0.950 . S
C420 H416 0.949 . S
C420 C428 1.574 . S
C420 C436 1.368 . S
H421 C429 0.950 . S
H422 C427 0.950 . S
H423 C428 0.949 . S
H424 C430 0.950 . S
H425 C431 0.950 . S
H426 C432 0.949 . S
C427 H422 0.950 . S
C427 C429 1.327 . S
C427 C433 1.429 . S
C428 C420 1.574 . S
C428 H423 0.949 . S
C428 C434 1.368 . S
C429 C413 1.349 . S
C429 H421 0.950 . S
C429 C427 1.327 . S
C430 C418 1.349 . S
C430 H424 0.950 . S
C430 C431 1.327 . S
C431 H425 0.950 . S
C431 C430 1.327 . S
C431 C435 1.429 . S
C432 C415 1.574 . S
C432 H426 0.949 . S
C432 C436 1.368 . S
C433 C414 1.429 . S
C433 C427 1.429 . S
C433 C434 1.523 . S
C434 C415 1.368 . S
C434 C428 1.368 . S
C434 C433 1.523 . S
C435 C419 1.429 . S
C435 C431 1.429 . S
C435 C436 1.523 . S
C436 C420 1.368 . S
C436 C432 1.368 . S
C436 C435 1.523 . S
H437 C412 0.950 . S
H438 C414 0.950 . S
H439 C415 0.949 . S
H440 C417 0.950 . S
H441 C419 0.950 . S
C442 C443 1.349 . S
C442 C444 1.327 . S
C442 H467 0.950 . S
C443 C442 1.349 . S
C443 C459 1.349 . S
C444 C442 1.327 . S
C444 C463 1.429 . S
C444 H468 0.950 . S
C445 C462 1.574 . S
C445 C464 1.368 . S
C445 H469 0.949 . S
H446 C450 0.949 . S
C447 C448 1.349 . S
C447 C449 1.327 . S
C447 H470 0.950 . S
C448 C447 1.349 . S
C448 C460 1.349 . S
C449 C447 1.327 . S
C449 C465 1.429 . S
C449 H471 0.950 . S
C450 H446 0.949 . S
C450 C458 1.574 . S
C450 C466 1.368 . S
H451 C459 0.950 . S
H452 C457 0.950 . S
H453 C458 0.949 . S
H454 C460 0.950 . S
H455 C461 0.950 . S
H456 C462 0.949 . S
C457 H452 0.950 . S
C457 C459 1.327 . S
C457 C463 1.429 . S
C458 C450 1.574 . S
C458 H453 0.949 . S
C458 C464 1.368 . S
C459 C443 1.349 . S
C459 H451 0.950 . S
C459 C457 1.327 . S
C460 C448 1.349 . S
C460 H454 0.950 . S
C460 C461 1.327 . S
C461 H455 0.950 . S
C461 C460 1.327 . S
C461 C465 1.429 . S
C462 C445 1.574 . S
C462 H456 0.949 . S
C462 C466 1.368 . S
C463 C444 1.429 . S
C463 C457 1.429 . S
C463 C464 1.523 . S
C464 C445 1.368 . S
C464 C458 1.368 . S
C464 C463 1.523 . S
C465 C449 1.429 . S
C465 C461 1.429 . S
C465 C466 1.523 . S
C466 C450 1.368 . S
C466 C462 1.368 . S
C466 C465 1.523 . S
H467 C442 0.950 . S
H468 C444 0.950 . S
H469 C445 0.949 . S
H470 C447 0.950 . S
H471 C449 0.950 . S
C472 C473 1.349 1_655 S
C472 C474 1.327 . S
C472 H497 0.950 . S
C473 C472 1.349 1_455 S
C473 C489 1.349 . S
C474 C472 1.327 . S
C474 C493 1.429 1_655 S
C474 H498 0.950 . S
C475 C492 1.574 . S
C475 C494 1.368 1_556 S
C475 H499 0.949 . S
H476 C480 0.949 . S
C477 C478 1.349 . S
C477 C479 1.327 . S
C477 H500 0.950 . S
C478 C477 1.349 . S
C478 C490 1.349 1_455 S
C479 C477 1.327 . S
C479 C495 1.429 . S
C479 H501 0.950 . S
C480 H476 0.949 . S
C480 C488 1.574 . S
C480 C496 1.368 1_654 S
H481 C489 0.950 . S
H482 C487 0.950 . S
H483 C488 0.949 . S
H484 C490 0.950 . S
H485 C491 0.950 . S
H486 C492 0.949 . S
C487 H482 0.950 . S
C487 C489 1.327 . S
C487 C493 1.429 . S
C488 C480 1.574 . S
C488 H483 0.949 . S
C488 C494 1.368 1_665 S
C489 C473 1.349 . S
C489 H481 0.950 . S
C489 C487 1.327 . S
C490 C478 1.349 1_655 S
C490 H484 0.950 . S
C490 C491 1.327 . S
C491 H485 0.950 . S
C491 C490 1.327 . S
C491 C495 1.429 1_655 S
C492 C475 1.574 . S
C492 H486 0.949 . S
C492 C496 1.368 1_545 S
C493 C474 1.429 1_455 S
C493 C487 1.429 . S
C493 C494 1.523 . S
C494 C475 1.368 1_554 S
C494 C488 1.368 1_445 S
C494 C493 1.523 . S
C495 C479 1.429 . S
C495 C491 1.429 1_455 S
C495 C496 1.523 . S
C496 C480 1.368 1_456 S
C496 C492 1.368 1_565 S
C496 C495 1.523 . S
H497 C472 0.950 . S
H498 C474 0.950 . S
H499 C475 0.949 . S
H500 C477 0.950 . S
H501 C479 0.950 . S
C502 C503 1.349 . S
C502 C504 1.327 . S
C502 H527 0.950 . S
C503 C502 1.349 . S
C503 C519 1.349 1_455 S
C504 C502 1.327 . S
C504 C523 1.429 . S
C504 H528 0.950 . S
C505 C522 1.574 1_556 S
C505 C524 1.368 1_655 S
C505 H529 0.949 . S
H506 C510 0.949 . S
C507 C508 1.349 1_655 S
C507 C509 1.327 . S
C507 H530 0.950 . S
C508 C507 1.349 1_455 S
C508 C520 1.349 . S
C509 C507 1.327 . S
C509 C525 1.429 1_655 S
C509 H531 0.950 . S
C510 H506 0.949 . S
C510 C518 1.574 1_554 S
C510 C526 1.368 . S
H511 C519 0.950 . S
H512 C517 0.950 . S
H513 C518 0.949 . S
H514 C520 0.950 . S
H515 C521 0.950 . S
H516 C522 0.949 . S
C517 H512 0.950 . S
C517 C519 1.327 . S
C517 C523 1.429 1_655 S
C518 C510 1.574 1_556 S
C518 H513 0.949 . S
C518 C524 1.368 . S
C519 C503 1.349 1_655 S
C519 H511 0.950 . S
C519 C517 1.327 . S
C520 C508 1.349 . S
C520 H514 0.950 . S
C520 C521 1.327 . S
C521 H515 0.950 . S
C521 C520 1.327 . S
C521 C525 1.429 . S
C522 C505 1.574 1_554 S
C522 H516 0.949 . S
C522 C526 1.368 1_655 S
C523 C504 1.429 . S
C523 C517 1.429 1_455 S
C523 C524 1.523 . S
C524 C505 1.368 1_455 S
C524 C518 1.368 . S
C524 C523 1.523 . S
C525 C509 1.429 1_455 S
C525 C521 1.429 . S
C525 C526 1.523 . S
C526 C510 1.368 . S
C526 C522 1.368 1_455 S
C526 C525 1.523 . S
H527 C502 0.950 . S
H528 C504 0.950 . S
H529 C505 0.949 . S
H530 C507 0.950 . S
H531 C509 0.950 . S
C532 C533 1.349 . S
C532 C534 1.327 . S
C532 H557 0.950 . S
C533 C532 1.349 . S
C533 C549 1.349 . S
C534 C532 1.327 . S
C534 C553 1.429 . S
C534 H558 0.950 . S
C535 C552 1.574 . S
C535 C554 1.368 . S
C535 H559 0.949 . S
H536 C540 0.949 . S
C537 C538 1.349 . S
C537 C539 1.327 . S
C537 H560 0.950 . S
C538 C537 1.349 . S
C538 C550 1.349 . S
C539 C537 1.327 . S
C539 C555 1.429 . S
C539 H561 0.950 . S
C540 H536 0.949 . S
C540 C548 1.574 . S
C540 C556 1.368 . S
H541 C549 0.950 . S
H542 C547 0.950 . S
H543 C548 0.949 . S
H544 C550 0.950 . S
H545 C551 0.950 . S
H546 C552 0.949 . S
C547 H542 0.950 . S
C547 C549 1.327 . S
C547 C553 1.429 . S
C548 C540 1.574 . S
C548 H543 0.949 . S
C548 C554 1.368 . S
C549 C533 1.349 . S
C549 H541 0.950 . S
C549 C547 1.327 . S
C550 C538 1.349 . S
C550 H544 0.950 . S
C550 C551 1.327 . S
C551 H545 0.950 . S
C551 C550 1.327 . S
C551 C555 1.429 . S
C552 C535 1.574 . S
C552 H546 0.949 . S
C552 C556 1.368 . S
C553 C534 1.429 . S
C553 C547 1.429 . S
C553 C554 1.523 . S
C554 C535 1.368 . S
C554 C548 1.368 . S
C554 C553 1.523 . S
C555 C539 1.429 . S
C555 C551 1.429 . S
C555 C556 1.523 . S
C556 C540 1.368 . S
C556 C552 1.368 . S
C556 C555 1.523 . S
H557 C532 0.950 . S
H558 C534 0.950 . S
H559 C535 0.949 . S
H560 C537 0.950 . S
H561 C539 0.950 . S
C562 C563 1.349 . S
C562 C564 1.327 . S
C562 H587 0.950 . S
C563 C562 1.349 . S
C563 C579 1.349 . S
C564 C562 1.327 . S
C564 C583 1.429 . S
C564 H588 0.950 . S
C565 C582 1.574 1_565 S
C565 C584 1.368 . S
C565 H589 0.949 . S
H566 C570 0.949 . S
C567 C568 1.349 . S
C567 C569 1.327 . S
C567 H590 0.950 . S
C568 C567 1.349 . S
C568 C580 1.349 . S
C569 C567 1.327 . S
C569 C585 1.429 . S
C569 H591 0.950 . S
C570 H566 0.949 . S
C570 C578 1.574 1_545 S
C570 C586 1.368 . S
H571 C579 0.950 . S
H572 C577 0.950 . S
H573 C578 0.949 . S
H574 C580 0.950 . S
H575 C581 0.950 . S
H576 C582 0.949 . S
C577 H572 0.950 . S
C577 C579 1.327 . S
C577 C583 1.429 . S
C578 C570 1.574 1_565 S
C578 H573 0.949 . S
C578 C584 1.368 . S
C579 C563 1.349 . S
C579 H571 0.950 . S
C579 C577 1.327 . S
C580 C568 1.349 . S
C580 H574 0.950 . S
C580 C581 1.327 . S
C581 H575 0.950 . S
C581 C580 1.327 . S
C581 C585 1.429 . S
C582 C565 1.574 1_545 S
C582 H576 0.949 . S
C582 C586 1.368 . S
C583 C564 1.429 . S
C583 C577 1.429 . S
C583 C584 1.523 . S
C584 C565 1.368 . S
C584 C578 1.368 . S
C584 C583 1.523 . S
C585 C569 1.429 . S
C585 C581 1.429 . S
C585 C586 1.523 . S
C586 C570 1.368 . S
C586 C582 1.368 . S
C586 C585 1.523 . S
H587 C562 0.950 . S
H588 C564 0.950 . S
H589 C565 0.949 . S
H590 C567 0.950 . S
H591 C569 0.950 . S
C113 C19 1.424 . S
C118 C5 1.424 . S
C143 C33 1.424 . S
C148 C47 1.424 . S
C173 C61 1.424 . S
C178 C75 1.424 . S
C203 C89 1.424 . S
C208 C103 1.424 . S
C233 C98 1.396 . S
C238 C0 1.396 . S
C263 C84 1.396 . S
C268 C14 1.396 . S
C293 C28 1.396 . S
C298 C70 1.396 . S
C323 C56 1.396 . S
C328 C42 1.396 . S
C353 C79 1.388 . S
C358 C37 1.388 . S
C383 C65 1.388 . S
C388 C51 1.388 . S
C413 C107 1.388 . S
C418 C9 1.388 . S
C443 C23 1.388 . S
C448 C93 1.388 . S
C473 C11 1.350 . S
C478 C39 1.350 . S
C503 C53 1.350 . S
C508 C25 1.350 . S
C533 C95 1.350 . S
C538 C67 1.350 . S
C563 C81 1.350 . S
C568 C109 1.350 . S
