# Generated by pormake.
# Topology ukm, (4)-cn, num edge types: 1
# Building blocks:
#     Node 0, Type 0, BuildingBlock: CEKHIL_clean_sbu_0, # of connection points: 4
#     Node 1, Type 0, BuildingBlock: CEKHIL_clean_sbu_0, # of connection points: 4
#     Node 2, Type 0, BuildingBlock: CEKHIL_clean_sbu_0, # of connection points: 4
#     Node 3, Type 0, BuildingBlock: CEKHIL_clean_sbu_0, # of connection points: 4
#     Node 4, Type 0, BuildingBlock: CEKHIL_clean_sbu_0, # of connection points: 4
#     Node 5, Type 0, BuildingBlock: CEKHIL_clean_sbu_0, # of connection points: 4
#     Node 6, Type 0, BuildingBlock: CEKHIL_clean_sbu_0, # of connection points: 4
#     Node 7, Type 0, BuildingBlock: CEKHIL_clean_sbu_0, # of connection points: 4
#     Node 8, Type 0, BuildingBlock: CEKHIL_clean_sbu_0, # of connection points: 4
#     Node 9, Type 0, BuildingBlock: CEKHIL_clean_sbu_0, # of connection points: 4
#     Node 10, Type 0, BuildingBlock: CEKHIL_clean_sbu_0, # of connection points: 4
#     Node 11, Type 0, BuildingBlock: CEKHIL_clean_sbu_0, # of connection points: 4
#     Node 12, Type 0, BuildingBlock: CEKHIL_clean_sbu_0, # of connection points: 4
#     Node 13, Type 0, BuildingBlock: CEKHIL_clean_sbu_0, # of connection points: 4
#     Node 14, Type 0, BuildingBlock: CEKHIL_clean_sbu_0, # of connection points: 4
#     Node 15, Type 0, BuildingBlock: CEKHIL_clean_sbu_0, # of connection points: 4
#     Node 16, Type 0, BuildingBlock: CEKHIL_clean_sbu_0, # of connection points: 4
#     Node 17, Type 0, BuildingBlock: CEKHIL_clean_sbu_0, # of connection points: 4
#     Node 18, Type 0, BuildingBlock: CEKHIL_clean_sbu_0, # of connection points: 4
#     Node 19, Type 0, BuildingBlock: CEKHIL_clean_sbu_0, # of connection points: 4
#     Node 20, Type 0, BuildingBlock: CEKHIL_clean_sbu_0, # of connection points: 4
#     Node 21, Type 0, BuildingBlock: CEKHIL_clean_sbu_0, # of connection points: 4
#     Node 22, Type 0, BuildingBlock: CEKHIL_clean_sbu_0, # of connection points: 4
#     Node 23, Type 0, BuildingBlock: CEKHIL_clean_sbu_0, # of connection points: 4
#     Node 24, Type 0, BuildingBlock: CEKHIL_clean_sbu_0, # of connection points: 4
#     Node 25, Type 0, BuildingBlock: CEKHIL_clean_sbu_0, # of connection points: 4
#     Node 26, Type 0, BuildingBlock: CEKHIL_clean_sbu_0, # of connection points: 4
#     Node 27, Type 0, BuildingBlock: CEKHIL_clean_sbu_0, # of connection points: 4
#     Node 28, Type 0, BuildingBlock: CEKHIL_clean_sbu_0, # of connection points: 4
#     Node 29, Type 0, BuildingBlock: CEKHIL_clean_sbu_0, # of connection points: 4
#     Node 30, Type 0, BuildingBlock: CEKHIL_clean_sbu_0, # of connection points: 4
#     Node 31, Type 0, BuildingBlock: CEKHIL_clean_sbu_0, # of connection points: 4
#     Edge 32, Type (0, 0), BuildingBlock: XUDNAN_clean_linker_2, # of connection points: 2
#     Edge 33, Type (0, 0), BuildingBlock: XUDNAN_clean_linker_2, # of connection points: 2
#     Edge 34, Type (0, 0), BuildingBlock: XUDNAN_clean_linker_2, # of connection points: 2
#     Edge 35, Type (0, 0), BuildingBlock: XUDNAN_clean_linker_2, # of connection points: 2
#     Edge 36, Type (0, 0), BuildingBlock: XUDNAN_clean_linker_2, # of connection points: 2
#     Edge 37, Type (0, 0), BuildingBlock: XUDNAN_clean_linker_2, # of connection points: 2
#     Edge 38, Type (0, 0), BuildingBlock: XUDNAN_clean_linker_2, # of connection points: 2
#     Edge 39, Type (0, 0), BuildingBlock: XUDNAN_clean_linker_2, # of connection points: 2
#     Edge 40, Type (0, 0), BuildingBlock: XUDNAN_clean_linker_2, # of connection points: 2
#     Edge 41, Type (0, 0), BuildingBlock: XUDNAN_clean_linker_2, # of connection points: 2
#     Edge 42, Type (0, 0), BuildingBlock: XUDNAN_clean_linker_2, # of connection points: 2
#     Edge 43, Type (0, 0), BuildingBlock: XUDNAN_clean_linker_2, # of connection points: 2
#     Edge 44, Type (0, 0), BuildingBlock: XUDNAN_clean_linker_2, # of connection points: 2
#     Edge 45, Type (0, 0), BuildingBlock: XUDNAN_clean_linker_2, # of connection points: 2
#     Edge 46, Type (0, 0), BuildingBlock: XUDNAN_clean_linker_2, # of connection points: 2
#     Edge 47, Type (0, 0), BuildingBlock: XUDNAN_clean_linker_2, # of connection points: 2
#     Edge 48, Type (0, 0), BuildingBlock: XUDNAN_clean_linker_2, # of connection points: 2
#     Edge 49, Type (0, 0), BuildingBlock: XUDNAN_clean_linker_2, # of connection points: 2
#     Edge 50, Type (0, 0), BuildingBlock: XUDNAN_clean_linker_2, # of connection points: 2
#     Edge 51, Type (0, 0), BuildingBlock: XUDNAN_clean_linker_2, # of connection points: 2
#     Edge 52, Type (0, 0), BuildingBlock: XUDNAN_clean_linker_2, # of connection points: 2
#     Edge 53, Type (0, 0), BuildingBlock: XUDNAN_clean_linker_2, # of connection points: 2
#     Edge 54, Type (0, 0), BuildingBlock: XUDNAN_clean_linker_2, # of connection points: 2
#     Edge 55, Type (0, 0), BuildingBlock: XUDNAN_clean_linker_2, # of connection points: 2
#     Edge 56, Type (0, 0), BuildingBlock: XUDNAN_clean_linker_2, # of connection points: 2
#     Edge 57, Type (0, 0), BuildingBlock: XUDNAN_clean_linker_2, # of connection points: 2
#     Edge 58, Type (0, 0), BuildingBlock: XUDNAN_clean_linker_2, # of connection points: 2
#     Edge 59, Type (0, 0), BuildingBlock: XUDNAN_clean_linker_2, # of connection points: 2
#     Edge 60, Type (0, 0), BuildingBlock: XUDNAN_clean_linker_2, # of connection points: 2
#     Edge 61, Type (0, 0), BuildingBlock: XUDNAN_clean_linker_2, # of connection points: 2
#     Edge 62, Type (0, 0), BuildingBlock: XUDNAN_clean_linker_2, # of connection points: 2
#     Edge 63, Type (0, 0), BuildingBlock: XUDNAN_clean_linker_2, # of connection points: 2
#     Edge 64, Type (0, 0), BuildingBlock: XUDNAN_clean_linker_2, # of connection points: 2
#     Edge 65, Type (0, 0), BuildingBlock: XUDNAN_clean_linker_2, # of connection points: 2
#     Edge 66, Type (0, 0), BuildingBlock: XUDNAN_clean_linker_2, # of connection points: 2
#     Edge 67, Type (0, 0), BuildingBlock: XUDNAN_clean_linker_2, # of connection points: 2
#     Edge 68, Type (0, 0), BuildingBlock: XUDNAN_clean_linker_2, # of connection points: 2
#     Edge 69, Type (0, 0), BuildingBlock: XUDNAN_clean_linker_2, # of connection points: 2
#     Edge 70, Type (0, 0), BuildingBlock: XUDNAN_clean_linker_2, # of connection points: 2
#     Edge 71, Type (0, 0), BuildingBlock: XUDNAN_clean_linker_2, # of connection points: 2
#     Edge 72, Type (0, 0), BuildingBlock: XUDNAN_clean_linker_2, # of connection points: 2
#     Edge 73, Type (0, 0), BuildingBlock: XUDNAN_clean_linker_2, # of connection points: 2
#     Edge 74, Type (0, 0), BuildingBlock: XUDNAN_clean_linker_2, # of connection points: 2
#     Edge 75, Type (0, 0), BuildingBlock: XUDNAN_clean_linker_2, # of connection points: 2
#     Edge 76, Type (0, 0), BuildingBlock: XUDNAN_clean_linker_2, # of connection points: 2
#     Edge 77, Type (0, 0), BuildingBlock: XUDNAN_clean_linker_2, # of connection points: 2
#     Edge 78, Type (0, 0), BuildingBlock: XUDNAN_clean_linker_2, # of connection points: 2
#     Edge 79, Type (0, 0), BuildingBlock: XUDNAN_clean_linker_2, # of connection points: 2
#     Edge 80, Type (0, 0), BuildingBlock: XUDNAN_clean_linker_2, # of connection points: 2
#     Edge 81, Type (0, 0), BuildingBlock: XUDNAN_clean_linker_2, # of connection points: 2
#     Edge 82, Type (0, 0), BuildingBlock: XUDNAN_clean_linker_2, # of connection points: 2
#     Edge 83, Type (0, 0), BuildingBlock: XUDNAN_clean_linker_2, # of connection points: 2
#     Edge 84, Type (0, 0), BuildingBlock: XUDNAN_clean_linker_2, # of connection points: 2
#     Edge 85, Type (0, 0), BuildingBlock: XUDNAN_clean_linker_2, # of connection points: 2
#     Edge 86, Type (0, 0), BuildingBlock: XUDNAN_clean_linker_2, # of connection points: 2
#     Edge 87, Type (0, 0), BuildingBlock: XUDNAN_clean_linker_2, # of connection points: 2
#     Edge 88, Type (0, 0), BuildingBlock: XUDNAN_clean_linker_2, # of connection points: 2
#     Edge 89, Type (0, 0), BuildingBlock: XUDNAN_clean_linker_2, # of connection points: 2
#     Edge 90, Type (0, 0), BuildingBlock: XUDNAN_clean_linker_2, # of connection points: 2
#     Edge 91, Type (0, 0), BuildingBlock: XUDNAN_clean_linker_2, # of connection points: 2
#     Edge 92, Type (0, 0), BuildingBlock: XUDNAN_clean_linker_2, # of connection points: 2
#     Edge 93, Type (0, 0), BuildingBlock: XUDNAN_clean_linker_2, # of connection points: 2
#     Edge 94, Type (0, 0), BuildingBlock: XUDNAN_clean_linker_2, # of connection points: 2
#     Edge 95, Type (0, 0), BuildingBlock: XUDNAN_clean_linker_2, # of connection points: 2
# Relax obj value: 0.248
# Max RMSD: 0.190
# Mean RMSD: 0.187
data_MOF--net-ukm--node1-CEKHIL_clean_sbu_0--edge1-XUDNAN_clean_linker_2
_symmetry_space_group_name_H-M    P1
_symmetry_Int_Tables_number       1
_symmetry_cell_setting            triclinic
loop_
_symmetry_equiv_pos_as_xyz
'x, y, z'
_cell_length_a     23.347125
_cell_length_b     102.90607
_cell_length_c     42.781764
_cell_angle_alpha  89.860294
_cell_angle_beta   89.984191
_cell_angle_gamma 90.020813
loop_
_atom_site_label
_atom_site_type_symbol
_atom_site_fract_x
_atom_site_fract_y
_atom_site_fract_z
_atom_type_partial_charge
Co0 Co 0.11914 0.31137 0.27521 0.0
O1 O 0.12583 0.29641 0.24903 0.0
O2 O 0.04339 0.30433 0.26631 0.0
C3 C 0.18963 0.30562 0.30815 0.0
O4 O 0.09832 0.32701 0.30245 0.0
Co5 Co 0.2277 0.32957 0.27717 0.0
O6 O 0.1777 0.33958 0.30566 0.0
C7 C 0.15289 0.3293 0.22215 0.0
C8 C 0.07056 0.2957 0.24968 0.0
C9 C 0.1251 0.33729 0.31171 0.0
O10 O 0.11497 0.32275 0.2372 0.0
O11 O 0.20327 0.33163 0.2325 0.0
O12 O 0.13855 0.30089 0.31225 0.0
O13 O 0.19675 0.31246 0.2833 0.0
Co14 Co 0.13053 0.93995 0.27085 0.0
O15 O 0.12894 0.95727 0.25415 0.0
O16 O 0.20765 0.94545 0.25991 0.0
C17 C 0.07062 0.94449 0.31007 0.0
O18 O 0.14835 0.92183 0.28843 0.0
Co19 Co 0.01861 0.9235 0.27555 0.0
O20 O 0.06536 0.91283 0.30437 0.0
C21 C 0.07817 0.92629 0.21511 0.0
C22 C 0.18392 0.9563 0.25102 0.0
C23 C 0.11982 0.91297 0.30301 0.0
O24 O 0.11925 0.93262 0.22804 0.0
O25 O 0.03346 0.92231 0.22955 0.0
O26 O 0.12502 0.94687 0.3134 0.0
O27 O 0.05454 0.94009 0.28339 0.0
Co28 Co 0.09068 0.9435 0.93287 0.0
O29 O 0.08663 0.96002 0.95297 0.0
O30 O 0.01086 0.94832 0.93929 0.0
C31 C 0.15877 0.94953 0.89908 0.0
O32 O 0.08116 0.92598 0.9107 0.0
Co33 Co 0.20714 0.92843 0.93538 0.0
O34 O 0.17042 0.91866 0.90098 0.0
C35 C 0.13115 0.92878 0.99013 0.0
C36 C 0.0316 0.95877 0.95226 0.0
C37 C 0.11629 0.91808 0.89724 0.0
O38 O 0.09187 0.93465 0.97458 0.0
O39 O 0.18119 0.92624 0.97965 0.0
O40 O 0.10541 0.95191 0.89243 0.0
O41 O 0.16858 0.94454 0.92611 0.0
Co42 Co 0.13474 0.31025 0.9567 0.0
O43 O 0.11947 0.29622 0.98528 0.0
O44 O 0.2063 0.30282 0.97158 0.0
C45 C 0.0699 0.30387 0.92109 0.0
O46 O 0.16651 0.32457 0.92823 0.0
Co47 Co 0.03726 0.32991 0.93945 0.0
O48 O 0.09288 0.33585 0.90759 0.0
C49 C 0.09287 0.33072 0.00149 0.0
C50 C 0.17446 0.29494 0.98788 0.0
C51 C 0.14615 0.33333 0.90973 0.0
O52 O 0.1321 0.32282 -0.00769 0.0
O53 O 0.04914 0.33378 0.98496 0.0
O54 O 0.12055 0.29863 0.92109 0.0
O55 O 0.05963 0.31197 0.9432 0.0
Co56 Co 0.91903 0.68517 0.69312 0.0
O57 O 0.97734 0.68792 0.72447 0.0
O58 O 0.88333 0.68788 0.73251 0.0
C59 C 0.95771 0.66783 0.66974 0.0
O60 O 0.84598 0.6821 0.66942 0.0
Co61 Co 0.93749 0.68865 0.6228 0.0
O62 O 0.85681 0.68256 0.61749 0.0
C63 C 0.93839 0.71147 0.66338 0.0
C64 C 0.93455 0.68897 0.74387 0.0
C65 C 0.82609 0.68079 0.64174 0.0
O66 O 0.91593 0.70436 0.68475 0.0
O67 O 0.95677 0.70684 0.63751 0.0
O68 O 0.93 0.6666 0.69588 0.0
O69 O 0.96661 0.67962 0.65995 0.0
Co70 Co 0.86845 0.07116 0.71054 0.0
O71 O 0.83383 0.07841 0.74781 0.0
O72 O 0.92172 0.07024 0.74406 0.0
C73 C 0.84364 0.08714 0.67714 0.0
O74 O 0.92183 0.06338 0.67897 0.0
Co75 Co 0.80654 0.06208 0.65199 0.0
O76 O 0.88321 0.06 0.63195 0.0
C77 C 0.80432 0.04541 0.7083 0.0
C78 C 0.88272 0.07573 0.76102 0.0
C79 C 0.92594 0.06004 0.65035 0.0
O80 O 0.83833 0.05346 0.7217 0.0
O81 O 0.78343 0.04743 0.68101 0.0
O82 O 0.88784 0.0883 0.69531 0.0
O83 O 0.81269 0.07676 0.68093 0.0
Co84 Co 0.92593 0.06823 0.03877 0.0
O85 O 0.97489 0.07102 0.00348 0.0
O86 O 0.88148 0.06715 0.00094 0.0
C87 C 0.95799 0.08518 0.06681 0.0
O88 O 0.86103 0.06559 0.06979 0.0
Co89 Co 0.97521 0.06097 0.10309 0.0
O90 O 0.89723 0.06498 0.11834 0.0
C91 C 0.96312 0.04054 0.0556 0.0
C92 C 0.92913 0.06979 0.9865 0.0
C93 C 0.85486 0.06546 0.09965 0.0
O94 O 0.94113 0.04899 0.03702 0.0
O95 O 0.98154 0.04335 0.08295 0.0
O96 O 0.92008 0.08675 0.04498 0.0
O97 O 0.9797 0.07361 0.06922 0.0
Co98 Co 0.88449 0.67991 0.02047 0.0
O99 O 0.85195 0.68143 0.97909 0.0
O100 O 0.94344 0.68427 0.99156 0.0
C101 C 0.8427 0.66121 0.03524 0.0
O102 O 0.93638 0.67876 0.05767 0.0
Co103 Co 0.81662 0.68151 0.08188 0.0
O104 O 0.88951 0.67627 0.10288 0.0
C105 C 0.83215 0.70503 0.04378 0.0
C106 C 0.9041 0.68415 0.97025 0.0
C107 C 0.93575 0.67667 0.08712 0.0
O108 O 0.86993 0.69886 0.02791 0.0
O109 O 0.80128 0.69955 0.06478 0.0
O110 O 0.88683 0.66115 0.01674 0.0
O111 O 0.82127 0.67254 0.04164 0.0
Co112 Co 0.13899 0.80641 0.7773 0.0
O113 O 0.13732 0.78999 0.75598 0.0
O114 O 0.06126 0.80232 0.76438 0.0
C115 C 0.19498 0.79973 0.81674 0.0
O116 O 0.12508 0.82392 0.79863 0.0
Co117 Co 0.25737 0.82043 0.78529 0.0
O118 O 0.2106 0.83345 0.80767 0.0
C119 C 0.20066 0.81988 0.724 0.0
C120 C 0.08272 0.79174 0.75254 0.0
C121 C 0.15601 0.83338 0.80894 0.0
O122 O 0.15445 0.81547 0.73657 0.0
O123 O 0.24789 0.82121 0.73882 0.0
O124 O 0.14021 0.79753 0.81808 0.0
O125 O 0.21376 0.80473 0.79121 0.0
Co126 Co 0.13834 0.43969 0.78283 0.0
O127 O 0.12571 0.45496 0.75798 0.0
O128 O 0.21102 0.44829 0.77399 0.0
C129 C 0.06602 0.44384 0.81594 0.0
O130 O 0.16656 0.42404 0.80852 0.0
Co131 Co 0.03975 0.41896 0.78743 0.0
O132 O 0.09079 0.41105 0.81876 0.0
C133 C 0.10953 0.42131 0.7302 0.0
C134 C 0.1806 0.45666 0.75827 0.0
C135 C 0.14367 0.4139 0.82131 0.0
O136 O 0.14413 0.42926 0.74357 0.0
O137 O 0.06394 0.41682 0.74284 0.0
O138 O 0.11568 0.44923 0.82063 0.0
O139 O 0.06154 0.43693 0.79112 0.0
Co140 Co 0.0936 0.44311 0.45135 0.0
O141 O 0.09684 0.4594 0.47321 0.0
O142 O 0.01672 0.44941 0.45963 0.0
C143 C 0.16093 0.44851 0.41618 0.0
O144 O 0.07382 0.42628 0.4282 0.0
Co145 Co 0.20131 0.42523 0.44629 0.0
O146 O 0.15635 0.41708 0.41246 0.0
C147 C 0.13282 0.42582 0.50439 0.0
C148 C 0.04133 0.45932 0.47296 0.0
C149 C 0.10194 0.41785 0.41211 0.0
O150 O 0.09582 0.43356 0.49218 0.0
O151 O 0.17824 0.42188 0.49063 0.0
O152 O 0.10803 0.45197 0.4115 0.0
O153 O 0.17133 0.44261 0.44211 0.0
Co154 Co 0.12163 0.8072 0.4484 0.0
O155 O 0.1206 0.79234 0.47539 0.0
O156 O 0.19738 0.79919 0.44975 0.0
C157 C 0.03891 0.80234 0.42409 0.0
O158 O 0.13635 0.82257 0.41881 0.0
Co159 Co 0.02012 0.82693 0.45736 0.0
O160 O 0.06113 0.83629 0.42375 0.0
C161 C 0.11109 0.82472 0.50438 0.0
C162 C 0.17459 0.79102 0.46949 0.0
C163 C 0.10967 0.83323 0.41218 0.0
O164 O 0.14214 0.81834 0.485 0.0
O165 O 0.05872 0.82773 0.49921 0.0
O166 O 0.08635 0.79701 0.41464 0.0
O167 O 0.04294 0.80933 0.4488 0.0
Co168 Co 0.93368 0.18552 0.19828 0.0
O169 O 0.98479 0.18689 0.23332 0.0
O170 O 0.89052 0.18977 0.23495 0.0
C171 C 0.96836 0.16679 0.17942 0.0
O172 O 0.8665 0.18444 0.16837 0.0
Co173 Co 0.97644 0.18702 0.13036 0.0
O174 O 0.89723 0.18187 0.11912 0.0
C175 C 0.97106 0.21095 0.16771 0.0
C176 C 0.93918 0.18942 0.24964 0.0
C177 C 0.85711 0.18231 0.13925 0.0
O178 O 0.94493 0.20451 0.18914 0.0
O179 O 0.99093 0.2056 0.14297 0.0
O180 O 0.93251 0.16677 0.20258 0.0
O181 O 0.98661 0.17806 0.17017 0.0
Co182 Co 0.84679 0.57257 0.2116 0.0
O183 O 0.78534 0.5745 0.24159 0.0
O184 O 0.87828 0.57357 0.25245 0.0
C185 C 0.81777 0.58739 0.17627 0.0
O186 O 0.92268 0.57117 0.18946 0.0
Co187 Co 0.83066 0.56202 0.14507 0.0
O188 O 0.91413 0.56529 0.13936 0.0
C189 C 0.8206 0.54416 0.19836 0.0
C190 C 0.82604 0.57449 0.26244 0.0
C191 C 0.94452 0.5687 0.16268 0.0
O192 O 0.84139 0.55311 0.21588 0.0
O193 O 0.80749 0.5461 0.16966 0.0
O194 O 0.84415 0.59097 0.20157 0.0
O195 O 0.80434 0.57518 0.17461 0.0
Co196 Co 0.86819 0.56944 0.5408 0.0
O197 O 0.90006 0.56938 0.49927 0.0
O198 O 0.80786 0.56732 0.51103 0.0
C199 C 0.91565 0.58681 0.55915 0.0
O200 O 0.81737 0.56998 0.57874 0.0
Co201 Co 0.93703 0.56439 0.60076 0.0
O202 O 0.8678 0.57081 0.62333 0.0
C203 C 0.91378 0.54273 0.55793 0.0
C204 C 0.84732 0.56813 0.48979 0.0
C205 C 0.82093 0.57166 0.6083 0.0
O206 O 0.87765 0.55003 0.54364 0.0
O207 O 0.9462 0.54691 0.57988 0.0
O208 O 0.87084 0.58822 0.54148 0.0
O209 O 0.934 0.57499 0.5627 0.0
Co210 Co 0.86701 0.18413 0.52649 0.0
O211 O 0.83855 0.1831 0.48415 0.0
O212 O 0.92609 0.18916 0.49823 0.0
C213 C 0.83506 0.16489 0.54435 0.0
O214 O 0.91457 0.18603 0.56522 0.0
Co215 Co 0.79264 0.18555 0.58542 0.0
O216 O 0.86424 0.17977 0.60707 0.0
C217 C 0.80594 0.20898 0.54641 0.0
C218 C 0.88955 0.18703 0.47604 0.0
C219 C 0.91166 0.18232 0.59369 0.0
O220 O 0.84175 0.20269 0.52949 0.0
O221 O 0.77809 0.20374 0.56898 0.0
O222 O 0.8812 0.16561 0.52746 0.0
O223 O 0.80596 0.17558 0.54718 0.0
Co224 Co 0.6241 0.3049 0.79113 0.0
O225 O 0.61991 0.2886 0.76934 0.0
O226 O 0.54497 0.29913 0.78815 0.0
C227 C 0.69818 0.29911 0.8219 0.0
O228 O 0.61252 0.32201 0.81507 0.0
Co229 Co 0.7376 0.32138 0.78675 0.0
O230 O 0.69575 0.33323 0.81481 0.0
C231 C 0.65497 0.32112 0.73427 0.0
C232 C 0.56494 0.28904 0.77339 0.0
C233 C 0.64315 0.33203 0.82224 0.0
O234 O 0.61809 0.31457 0.75025 0.0
O235 O 0.70559 0.32373 0.74388 0.0
O236 O 0.6465 0.29575 0.82982 0.0
O237 O 0.70324 0.30481 0.79535 0.0
Co238 Co 0.62412 0.94076 0.7867 0.0
O239 O 0.61936 0.95814 0.77068 0.0
O240 O 0.69331 0.9504 0.79713 0.0
C241 C 0.53415 0.9409 0.80547 0.0
O242 O 0.6426 0.92311 0.80721 0.0
Co243 Co 0.5388 0.91959 0.76164 0.0
O244 O 0.57461 0.90858 0.7936 0.0
C245 C 0.63229 0.93007 0.72227 0.0
C246 C 0.67 0.96006 0.78205 0.0
C247 C 0.61985 0.91165 0.80846 0.0
O248 O 0.65769 0.93524 0.74576 0.0
O249 O 0.58332 0.92452 0.7237 0.0
O250 O 0.5757 0.94559 0.82232 0.0
O251 O 0.54825 0.93684 0.77821 0.0
Co252 Co 0.61627 0.94433 0.4379 0.0
O253 O 0.62409 0.9613 0.45647 0.0
O254 O 0.54604 0.95407 0.43272 0.0
C255 C 0.70375 0.9444 0.41566 0.0
O256 O 0.59189 0.9276 0.41542 0.0
Co257 Co 0.70015 0.92137 0.45323 0.0
O258 O 0.6644 0.91316 0.4166 0.0
C259 C 0.61789 0.93139 0.50007 0.0
C260 C 0.57131 0.96327 0.44828 0.0
C261 C 0.61562 0.91687 0.40683 0.0
O262 O 0.58903 0.93758 0.47925 0.0
O263 O 0.66449 0.92528 0.4945 0.0
O264 O 0.66127 0.95007 0.40126 0.0
O265 O 0.69195 0.93949 0.44242 0.0
Co266 Co 0.6133 0.31003 0.45837 0.0
O267 O 0.61326 0.29391 0.48098 0.0
O268 O 0.69141 0.30438 0.46592 0.0
C269 C 0.54625 0.3041 0.42383 0.0
O270 O 0.62841 0.32685 0.43409 0.0
Co271 Co 0.49998 0.32641 0.45765 0.0
O272 O 0.54336 0.33688 0.42671 0.0
C273 C 0.57004 0.32479 0.51433 0.0
C274 C 0.66866 0.29433 0.4798 0.0
C275 C 0.59718 0.33594 0.42218 0.0
O276 O 0.61172 0.31988 0.49872 0.0
O277 O 0.51985 0.3267 0.50327 0.0
O278 O 0.59912 0.30069 0.4192 0.0
O279 O 0.53549 0.30982 0.44987 0.0
Co280 Co 0.39529 0.68127 0.21612 0.0
O281 O 0.43495 0.68403 0.25541 0.0
O282 O 0.34092 0.68503 0.24774 0.0
C283 C 0.43934 0.66323 0.19933 0.0
O284 O 0.33687 0.67836 0.18268 0.0
Co285 Co 0.44878 0.68345 0.15087 0.0
O286 O 0.37492 0.67608 0.135 0.0
C287 C 0.43234 0.70704 0.18794 0.0
C288 C 0.38384 0.68614 0.26667 0.0
C289 C 0.33272 0.67541 0.15381 0.0
O290 O 0.40069 0.70035 0.20645 0.0
O291 O 0.46096 0.70193 0.16559 0.0
O292 O 0.40007 0.6626 0.22085 0.0
O293 O 0.45629 0.67483 0.19165 0.0
Co294 Co 0.34924 0.0665 0.20273 0.0
O295 O 0.2913 0.06837 0.2347 0.0
O296 O 0.38149 0.06245 0.24259 0.0
C297 C 0.33097 0.08537 0.17828 0.0
O298 O 0.42304 0.06427 0.17881 0.0
Co299 Co 0.33019 0.06378 0.13311 0.0
O300 O 0.41358 0.06664 0.12727 0.0
C301 C 0.31199 0.04092 0.17322 0.0
C302 C 0.33187 0.06531 0.25428 0.0
C303 C 0.4447 0.06536 0.15143 0.0
O304 O 0.32771 0.04777 0.19671 0.0
O305 O 0.30846 0.04548 0.14544 0.0
O306 O 0.362 0.08496 0.20339 0.0
O307 O 0.30828 0.07447 0.16917 0.0
Co308 Co 0.38679 0.07098 0.5324 0.0
O309 O 0.42126 0.07514 0.49227 0.0
O310 O 0.3308 0.06936 0.5004 0.0
C311 C 0.42065 0.0879 0.56032 0.0
O312 O 0.33227 0.06657 0.5673 0.0
Co313 Co 0.44957 0.06387 0.59327 0.0
O314 O 0.37322 0.06311 0.6138 0.0
C315 C 0.44116 0.0444 0.54299 0.0
C316 C 0.37036 0.07283 0.48095 0.0
C317 C 0.32904 0.06412 0.59657 0.0
O318 O 0.40925 0.05216 0.52711 0.0
O319 O 0.46359 0.04739 0.56928 0.0
O320 O 0.37711 0.08931 0.54169 0.0
O321 O 0.44587 0.07668 0.55945 0.0
Co322 Co 0.33892 0.68426 0.54413 0.0
O323 O 0.28928 0.68459 0.50825 0.0
O324 O 0.38404 0.68689 0.50739 0.0
C325 C 0.30224 0.6666 0.5679 0.0
O326 O 0.40506 0.68403 0.57461 0.0
Co327 Co 0.29607 0.68863 0.61137 0.0
O328 O 0.37314 0.68222 0.62382 0.0
C329 C 0.30161 0.71082 0.56783 0.0
C330 C 0.33595 0.68652 0.49223 0.0
C331 C 0.41362 0.68209 0.60386 0.0
O332 O 0.32879 0.7036 0.54841 0.0
O333 O 0.28154 0.70653 0.59375 0.0
O334 O 0.33812 0.66538 0.54486 0.0
O335 O 0.28508 0.67834 0.57362 0.0
Co336 Co 0.61016 0.8061 0.29372 0.0
O337 O 0.61223 0.78915 0.27515 0.0
O338 O 0.53395 0.80111 0.27994 0.0
C339 C 0.6643 0.80091 0.33519 0.0
O340 O 0.59285 0.8241 0.31183 0.0
Co341 Co 0.72686 0.82099 0.30155 0.0
O342 O 0.67695 0.83442 0.3201 0.0
C343 C 0.67425 0.81819 0.23948 0.0
C344 C 0.55774 0.79039 0.27029 0.0
C345 C 0.62235 0.83405 0.32064 0.0
O346 O 0.62737 0.81409 0.25189 0.0
O347 O 0.72032 0.82014 0.25499 0.0
O348 O 0.60982 0.79831 0.33585 0.0
O349 O 0.68391 0.80536 0.30928 0.0
Co350 Co 0.60899 0.44375 0.28119 0.0
O351 O 0.61459 0.46074 0.26309 0.0
O352 O 0.68445 0.45113 0.28934 0.0
C353 C 0.5216 0.44713 0.30189 0.0
O354 O 0.61702 0.4261 0.30324 0.0
Co355 Co 0.50961 0.42561 0.25878 0.0
O356 O 0.53975 0.4139 0.29143 0.0
C357 C 0.60903 0.43096 0.21803 0.0
C358 C 0.66666 0.46116 0.27338 0.0
C359 C 0.58723 0.41555 0.30559 0.0
O360 O 0.63664 0.43611 0.24083 0.0
O361 O 0.55663 0.42737 0.21994 0.0
O362 O 0.567 0.45072 0.31722 0.0
O363 O 0.53059 0.44243 0.27454 0.0
Co364 Co 0.63159 0.44357 0.94149 0.0
O365 O 0.63396 0.46054 0.96017 0.0
O366 O 0.55491 0.44901 0.95309 0.0
C367 C 0.6895 0.44861 0.9016 0.0
O368 O 0.61324 0.42574 0.92266 0.0
Co369 Co 0.74542 0.4276 0.93477 0.0
O370 O 0.69624 0.41581 0.90996 0.0
C371 C 0.69356 0.43224 -0.00364 0.0
C372 C 0.57883 0.45967 0.96297 0.0
C373 C 0.6417 0.41636 0.91013 0.0
O374 O 0.6458 0.43554 0.98355 0.0
O375 O 0.73979 0.4302 0.98107 0.0
O376 O 0.63539 0.45145 0.89952 0.0
O377 O 0.70643 0.44383 0.92772 0.0
Co378 Co 0.63171 0.80612 0.95551 0.0
O379 O 0.63098 0.78954 0.97635 0.0
O380 O 0.70844 0.79894 0.95682 0.0
C381 C 0.55419 0.80213 0.92589 0.0
O382 O 0.64839 0.8231 0.9323 0.0
Co383 Co 0.52797 0.82496 0.96401 0.0
O384 O 0.56953 0.83579 0.93313 0.0
C385 C 0.60999 0.82077 0.01518 0.0
C386 C 0.68577 0.78911 0.97157 0.0
C387 C 0.62092 0.8335 0.92479 0.0
O388 O 0.64441 0.815 -0.0036 0.0
O389 O 0.55907 0.82421 0.00776 0.0
O390 O 0.60421 0.79796 0.9171 0.0
O391 O 0.55228 0.80764 0.95287 0.0
Co392 Co 0.36979 0.17924 0.72025 0.0
O393 O 0.40517 0.18051 0.7612 0.0
O394 O 0.31208 0.18149 0.75104 0.0
C395 C 0.41734 0.16199 0.70129 0.0
O396 O 0.31464 0.17758 0.68463 0.0
Co397 Co 0.42797 0.18401 0.65703 0.0
O398 O 0.3529 0.17988 0.63699 0.0
C399 C 0.41205 0.20579 0.70013 0.0
C400 C 0.3528 0.18178 0.7715 0.0
C401 C 0.31067 0.17748 0.65487 0.0
O402 O 0.37607 0.1987 0.71525 0.0
O403 O 0.44236 0.20132 0.67766 0.0
O404 O 0.37581 0.16044 0.72117 0.0
O405 O 0.43321 0.17389 0.69596 0.0
Co406 Co 0.33287 0.5669 0.70837 0.0
O407 O 0.27704 0.56675 0.74158 0.0
O408 O 0.37005 0.56292 0.74705 0.0
C409 C 0.30425 0.58569 0.68644 0.0
O410 O 0.40465 0.56689 0.68178 0.0
Co411 Co 0.30311 0.56519 0.63868 0.0
O412 O 0.38162 0.57223 0.63258 0.0
C413 C 0.29647 0.54152 0.67773 0.0
C414 C 0.32014 0.56431 0.75996 0.0
C415 C 0.41831 0.57071 0.65424 0.0
O416 O 0.31897 0.54788 0.70044 0.0
O417 O 0.28348 0.54684 0.65156 0.0
O418 O 0.33705 0.58567 0.7109 0.0
O419 O 0.28568 0.57445 0.67722 0.0
Co420 Co 0.39012 0.56989 0.03709 0.0
O421 O 0.41653 0.57386 -0.00469 0.0
O422 O 0.3289 0.56737 0.0082 0.0
C423 C 0.42537 0.58735 0.06192 0.0
O424 O 0.34431 0.56542 0.07534 0.0
Co425 Co 0.4673 0.56375 0.09301 0.0
O426 O 0.39685 0.56594 0.11898 0.0
C427 C 0.45093 0.5438 0.04457 0.0
C428 C 0.36471 0.57084 0.9866 0.0
C429 C 0.34871 0.56523 0.10513 0.0
O430 O 0.41375 0.55126 0.03167 0.0
O431 O 0.48057 0.54726 0.06835 0.0
O432 O 0.37806 0.58809 0.04606 0.0
O433 O 0.45344 0.5765 0.0598 0.0
Co434 Co 0.34733 0.18814 0.04939 0.0
O435 O 0.28715 0.18814 0.01837 0.0
O436 O 0.37953 0.19162 0.00932 0.0
C437 C 0.32145 0.16983 0.07447 0.0
O438 O 0.42263 0.18809 0.07237 0.0
Co439 Co 0.33075 0.19098 0.12006 0.0
O440 O 0.41293 0.186 0.12414 0.0
C441 C 0.31238 0.21366 0.07906 0.0
C442 C 0.32807 0.19042 -0.00163 0.0
C443 C 0.44378 0.18616 0.09961 0.0
O444 O 0.33538 0.20729 0.05652 0.0
O445 O 0.30238 0.20854 0.10585 0.0
O446 O 0.35004 0.16931 0.04845 0.0
O447 O 0.3052 0.18131 0.08327 0.0
H448 H 0.11701 0.4105 0.35238 0.0
H449 H 0.025 0.40074 0.4369 0.0
H450 H 0.00288 0.37896 0.41539 0.0
H451 H 0.02516 0.38963 0.29632 0.0
H452 H 0.08845 0.38572 0.27412 0.0
H453 H 0.0819 0.40141 0.29243 0.0
H454 H 0.1786 0.39759 0.32069 0.0
H455 H 0.18504 0.38187 0.30314 0.0
H456 H 0.18717 0.3834 0.34509 0.0
H457 H 0.01309 0.35659 0.3899 0.0
H458 H 0.04944 0.33705 0.3619 0.0
H459 H 0.13212 0.3621 0.29415 0.0
C460 C 0.08936 0.40401 0.36548 0.0
C461 C 0.07172 0.40728 0.39589 0.0
C462 C 0.03745 0.39848 0.41313 0.0
C463 C 0.02505 0.38606 0.40114 0.0
C464 C 0.04618 0.38279 0.37163 0.0
C465 C 0.07627 0.39172 0.35369 0.0
C466 C 0.1012 0.38551 0.32479 0.0
C467 C 0.07244 0.39089 0.29516 0.0
C468 C 0.16683 0.38719 0.3234 0.0
C469 C 0.08448 0.37152 0.3304 0.0
C470 C 0.05166 0.37005 0.35706 0.0
C471 C 0.03731 0.35769 0.36848 0.0
C472 C 0.05804 0.34665 0.35255 0.0
C473 C 0.09342 0.34816 0.32599 0.0
C474 C 0.10487 0.36072 0.31439 0.0
H475 H 0.12028 0.90596 0.36364 0.0
H476 H 0.17932 0.89412 0.27231 0.0
H477 H 0.20124 0.87214 0.29305 0.0
H478 H 0.22398 0.88441 0.41089 0.0
H479 H 0.1691 0.88161 0.43977 0.0
H480 H 0.17256 0.89697 0.41948 0.0
H481 H 0.06688 0.89414 0.40228 0.0
H482 H 0.06321 0.87877 0.42196 0.0
H483 H 0.0464 0.87978 0.38091 0.0
H484 H 0.19513 0.85019 0.32153 0.0
H485 H 0.1659 0.83148 0.35504 0.0
H486 H 0.1141 0.85837 0.42738 0.0
C487 C 0.14075 0.89892 0.34854 0.0
C488 C 0.14942 0.90171 0.31671 0.0
C489 C 0.17405 0.89219 0.29705 0.0
C490 C 0.1863 0.87968 0.30864 0.0
C491 C 0.17469 0.87699 0.34003 0.0
C492 C 0.15382 0.88651 0.35987 0.0
C493 C 0.13833 0.88098 0.39148 0.0
C494 C 0.1784 0.88631 0.41691 0.0
C495 C 0.07498 0.88356 0.39958 0.0
C496 C 0.14944 0.86673 0.3857 0.0
C497 C 0.17163 0.86452 0.35624 0.0
C498 C 0.17927 0.85186 0.34495 0.0
C499 C 0.16265 0.84128 0.36404 0.0
C500 C 0.13787 0.84355 0.39367 0.0
C501 C 0.13319 0.85639 0.40479 0.0
H502 H 0.16553 0.90787 0.84603 0.0
H503 H 0.02261 0.90255 0.90924 0.0
H504 H 0.0066 0.88047 0.88762 0.0
H505 H 0.10912 0.88728 0.77932 0.0
H506 H 0.18041 0.88143 0.77141 0.0
H507 H 0.17005 0.89765 0.78617 0.0
H508 H 0.23925 0.8925 0.8319 0.0
H509 H 0.24889 0.87624 0.81784 0.0
H510 H 0.2242 0.87889 0.85724 0.0
H511 H 0.01903 0.8573 0.86521 0.0
H512 H 0.05689 0.83648 0.84401 0.0
H513 H 0.19364 0.85766 0.79814 0.0
C514 C 0.1293 0.90226 0.85438 0.0
C515 C 0.09502 0.9069 0.87905 0.0
C516 C 0.04866 0.89924 0.88988 0.0
C517 C 0.03956 0.88666 0.87784 0.0
C518 C 0.0767 0.88204 0.85474 0.0
C519 C 0.12002 0.88979 0.84278 0.0
C520 C 0.15892 0.8823 0.82117 0.0
C521 C 0.15431 0.88747 0.78752 0.0
C522 C 0.22144 0.88249 0.83276 0.0
C523 C 0.13293 0.86893 0.82404 0.0
C524 C 0.08474 0.8689 0.84282 0.0
C525 C 0.05619 0.85731 0.85009 0.0
C526 C 0.07794 0.84553 0.83807 0.0
C527 C 0.12845 0.84549 0.81978 0.0
C528 C 0.15521 0.85738 0.81233 0.0
H529 H 0.15025 0.39043 0.79636 0.0
H530 H 0.21238 0.41314 0.87413 0.0
H531 H 0.24755 0.39293 0.89964 0.0
H532 H 0.08596 0.3686 0.83891 0.0
H533 H 0.09843 0.35473 0.81415 0.0
H534 H 0.09834 0.3707 0.79759 0.0
H535 H 0.20034 0.36693 0.77543 0.0
H536 H 0.20065 0.3508 0.79204 0.0
H537 H 0.25739 0.36204 0.80128 0.0
H538 H 0.25491 0.37014 0.92143 0.0
H539 H 0.22371 0.34845 0.93956 0.0
H540 H 0.1484 0.34093 0.84915 0.0
C541 C 0.17402 0.39116 0.81804 0.0
C542 C 0.1799 0.40326 0.83308 0.0
C543 C 0.20904 0.40396 0.86193 0.0
C544 C 0.22899 0.39251 0.87649 0.0
C545 C 0.21941 0.38054 0.86176 0.0
C546 C 0.19268 0.37988 0.83295 0.0
C547 C 0.17581 0.3661 0.82476 0.0
C548 C 0.11084 0.36498 0.81854 0.0
C549 C 0.21065 0.36118 0.79671 0.0
C550 C 0.19307 0.35914 0.85442 0.0
C551 C 0.22068 0.36746 0.87494 0.0
C552 C 0.23476 0.3635 0.90522 0.0
C553 C 0.21732 0.3511 0.91528 0.0
C554 C 0.18469 0.34299 0.89543 0.0
C555 C 0.1749 0.34683 0.86429 0.0
H556 H 0.89206 0.6124 0.54911 0.0
H557 H 0.99407 0.58664 0.60705 0.0
H558 H 0.0279 0.60557 0.63757 0.0
H559 H 0.99337 0.64031 0.54957 0.0
H560 H 0.93584 0.65197 0.55095 0.0
H561 H 0.9256 0.63663 0.53144 0.0
H562 H 0.83687 0.63196 0.56616 0.0
H563 H 0.84674 0.64725 0.58565 0.0
H564 H 0.84415 0.63242 0.6081 0.0
H565 H 0.03818 0.62672 0.66636 0.0
H566 H 0.02596 0.64841 0.69031 0.0
H567 H 0.92238 0.66062 0.6117 0.0
C568 C 0.92241 0.61075 0.56784 0.0
C569 C 0.94058 0.59806 0.57573 0.0
C570 C 0.97993 0.59629 0.60052 0.0
C571 C -0.00059 0.60699 0.61791 0.0
C572 C 0.97983 0.61937 0.60982 0.0
C573 C 0.94262 0.6213 0.58514 0.0
C574 C 0.92467 0.63541 0.58254 0.0
C575 C 0.94617 0.64143 0.55179 0.0
C576 C 0.85926 0.63684 0.58582 0.0
C577 C 0.95577 0.64107 0.61037 0.0
C578 C 0.98774 0.63168 0.62569 0.0
C579 C 0.01475 0.63423 0.65408 0.0
C580 C 0.00773 0.64655 0.66747 0.0
C581 C 0.97481 0.6562 0.65225 0.0
C582 C 0.94971 0.65354 0.62304 0.0
H583 H 0.91791 0.10286 0.64605 0.0
H584 H 0.73691 0.09488 0.65776 0.0
H585 H 0.71363 0.11398 0.62451 0.0
H586 H 0.91195 0.1371 0.64766 0.0
H587 H 0.96552 0.13933 0.61777 0.0
H588 H 0.96676 0.125 0.6419 0.0
H589 H 0.96394 0.1106 0.59217 0.0
H590 H 0.96266 0.12498 0.56809 0.0
H591 H 0.90728 0.11289 0.56407 0.0
H592 H 0.71142 0.13554 0.59419 0.0
H593 H 0.73035 0.1556 0.5634 0.0
H594 H 0.91263 0.14793 0.56838 0.0
C595 C 0.87337 0.10507 0.64135 0.0
C596 C 0.8291 0.0975 0.65453 0.0
C597 C 0.77137 0.10057 0.6477 0.0
C598 C 0.75783 0.11143 0.62902 0.0
C599 C 0.80264 0.11889 0.61686 0.0
C600 C 0.85927 0.11564 0.62223 0.0
C601 C 0.89965 0.12499 0.60604 0.0
C602 C 0.9382 0.13202 0.62977 0.0
C603 C 0.93548 0.11794 0.58111 0.0
C604 C 0.85705 0.13421 0.59126 0.0
C605 C 0.80126 0.13066 0.59798 0.0
C606 C 0.7549 0.13825 0.58831 0.0
C607 C 0.76596 0.14964 0.571 0.0
C608 C 0.82275 0.15314 0.5631 0.0
C609 C 0.86865 0.14531 0.57347 0.0
H610 H 0.95067 0.15901 0.11946 0.0
H611 H 0.02126 0.14667 0.20821 0.0
H612 H 0.03731 0.1246 0.18694 0.0
H613 H 0.87003 0.13127 0.10879 0.0
H614 H 0.87766 0.13062 0.0669 0.0
H615 H 0.8826 0.14596 0.08676 0.0
H616 H 0.98267 0.14998 0.06235 0.0
H617 H 0.97785 0.13468 0.04212 0.0
H618 H 0.0382 0.13797 0.06716 0.0
H619 H 0.03686 0.10333 0.15738 0.0
H620 H 0.01535 0.08455 0.12303 0.0
H621 H 0.93825 0.11074 0.05551 0.0
C622 C 0.97146 0.15177 0.13391 0.0
C623 C 0.98632 0.15451 0.16507 0.0
C624 C 0.01085 0.14471 0.184 0.0
C625 C 0.02007 0.13218 0.17213 0.0
C626 C 0.00351 0.12962 0.14146 0.0
C627 C 0.97952 0.13915 0.12265 0.0
C628 C 0.95843 0.13353 0.09211 0.0
C629 C 0.89334 0.13546 0.08845 0.0
C630 C 0.99128 0.13939 0.06429 0.0
C631 C 0.97344 0.11936 0.09687 0.0
C632 C 0.00033 0.11729 0.12518 0.0
C633 C 0.01628 0.10485 0.13501 0.0
C634 C 0.00392 0.09425 0.11543 0.0
C635 C 0.97508 0.09621 0.08674 0.0
C636 C 0.96032 0.10894 0.07736 0.0
H637 H 0.80961 0.61379 0.17984 0.0
H638 H 0.80585 0.58181 0.11408 0.0
H639 H 0.8007 0.59749 0.07022 0.0
H640 H 0.70984 0.63515 0.1349 0.0
H641 H 0.7481 0.64965 0.14588 0.0
H642 H 0.74621 0.63589 0.17202 0.0
H643 H 0.85727 0.6356 0.17356 0.0
H644 H 0.85936 0.64933 0.14749 0.0
H645 H 0.89673 0.6346 0.13741 0.0
H646 H 0.81226 0.61657 0.03393 0.0
H647 H 0.83054 0.63766 0.00786 0.0
H648 H 0.81548 0.65734 0.09685 0.0
C649 C 0.80667 0.6101 0.15621 0.0
C650 C 0.8083 0.5966 0.15025 0.0
C651 C 0.80436 0.59211 0.11911 0.0
C652 C 0.80145 0.60095 0.09409 0.0
C653 C 0.80102 0.61422 0.10072 0.0
C654 C 0.80237 0.61878 0.13107 0.0
C655 C 0.80337 0.63351 0.13186 0.0
C656 C 0.74861 0.63886 0.14706 0.0
C657 C 0.85739 0.63855 0.14856 0.0
C658 C 0.80498 0.63653 0.0972 0.0
C659 C 0.80366 0.62526 0.07964 0.0
C660 C 0.81161 0.62547 0.04735 0.0
C661 C 0.82203 0.63746 0.03275 0.0
C662 C 0.82329 0.64909 0.05031 0.0
C663 C 0.8132 0.64864 0.0828 0.0
H664 H 0.65549 0.40649 0.85245 0.0
H665 H 0.56547 0.40024 0.9395 0.0
H666 H 0.53966 0.37795 0.92244 0.0
H667 H 0.55746 0.38515 0.80185 0.0
H668 H 0.61833 0.37994 0.77921 0.0
H669 H 0.61643 0.39613 0.79521 0.0
H670 H 0.71384 0.39191 0.82245 0.0
H671 H 0.71573 0.37573 0.80709 0.0
H672 H 0.72084 0.37826 0.84868 0.0
H673 H 0.54283 0.35475 0.89997 0.0
H674 H 0.5712 0.33412 0.87377 0.0
H675 H 0.65714 0.35636 0.80169 0.0
C676 C 0.62787 0.40063 0.86716 0.0
C677 C 0.61152 0.40506 0.89693 0.0
C678 C 0.57703 0.39707 0.91621 0.0
C679 C 0.5625 0.38438 0.90674 0.0
C680 C 0.58181 0.38001 0.87767 0.0
C681 C 0.61257 0.38809 0.85786 0.0
C682 C 0.63426 0.38086 0.82957 0.0
C683 C 0.60485 0.38581 0.79969 0.0
C684 C 0.70002 0.38174 0.82684 0.0
C685 C 0.61483 0.36726 0.83755 0.0
C686 C 0.58344 0.36687 0.86494 0.0
C687 C 0.5661 0.35501 0.87809 0.0
C688 C 0.58228 0.34335 0.86315 0.0
C689 C 0.61627 0.34373 0.83581 0.0
C690 C 0.63096 0.35583 0.82257 0.0
H691 H 0.61608 0.83938 0.86313 0.0
H692 H 0.68646 0.85209 0.95134 0.0
H693 H 0.71204 0.87332 0.92772 0.0
H694 H 0.72073 0.85884 0.81086 0.0
H695 H 0.66407 0.86194 0.78323 0.0
H696 H 0.66546 0.84687 0.80482 0.0
H697 H 0.56242 0.85137 0.82457 0.0
H698 H 0.56088 0.86645 0.80353 0.0
H699 H 0.54764 0.8663 0.84505 0.0
H700 H 0.70933 0.89461 0.89767 0.0
H701 H 0.68165 0.9132 0.86367 0.0
H702 H 0.61631 0.88609 0.79499 0.0
C703 C 0.63977 0.84641 0.87682 0.0
C704 C 0.65089 0.8441 0.90863 0.0
C705 C 0.67934 0.85364 0.92658 0.0
C706 C 0.69381 0.86572 0.91337 0.0
C707 C 0.68017 0.86798 0.88208 0.0
C708 C 0.65494 0.85843 0.86384 0.0
C709 C 0.638 0.8637 0.83218 0.0
C710 C 0.67424 0.85747 0.80624 0.0
C711 C 0.57344 0.86185 0.82602 0.0
C712 C 0.65329 0.87787 0.83631 0.0
C713 C 0.67886 0.88019 0.86486 0.0
C714 C 0.69079 0.89285 0.87489 0.0
C715 C 0.67497 0.90336 0.85551 0.0
C716 C 0.64672 0.90107 0.82681 0.0
C717 C 0.63786 0.88815 0.81685 0.0
H718 H 0.65284 0.85779 0.30115 0.0
H719 H 0.52889 0.83795 0.35944 0.0
H720 H 0.49505 0.8593 0.37943 0.0
H721 H 0.69898 0.8787 0.35382 0.0
H722 H 0.70942 0.8923 0.3278 0.0
H723 H 0.71184 0.8761 0.31273 0.0
H724 H 0.6321 0.88191 0.27283 0.0
H725 H 0.62926 0.89823 0.28809 0.0
H726 H 0.56512 0.8885 0.28651 0.0
H727 H 0.4904 0.88235 0.40076 0.0
H728 H 0.51904 0.90362 0.42283 0.0
H729 H 0.64667 0.90792 0.35041 0.0
C730 C 0.61727 0.85797 0.31741 0.0
C731 C 0.59342 0.84632 0.32887 0.0
C732 C 0.54725 0.84683 0.3502 0.0
C733 C 0.52779 0.85892 0.36155 0.0
C734 C 0.55416 0.87029 0.35067 0.0
C735 C 0.59752 0.86985 0.32866 0.0
C736 C 0.625 0.88299 0.32378 0.0
C737 C 0.69008 0.88248 0.32994 0.0
C738 C 0.61208 0.88822 0.29084 0.0
C739 C 0.59386 0.89078 0.34833 0.0
C740 C 0.55157 0.88349 0.36287 0.0
C741 C 0.52211 0.88824 0.38889 0.0
C742 C 0.53828 0.90037 0.40116 0.0
C743 C 0.58404 0.90744 0.3877 0.0
C744 C 0.61026 0.90284 0.3603 0.0
H745 H 0.566 0.34325 0.36434 0.0
H746 H 0.68258 0.35268 0.43946 0.0
H747 H 0.704 0.37387 0.41408 0.0
H748 H 0.64786 0.36108 0.2999 0.0
H749 H 0.58132 0.36575 0.28173 0.0
H750 H 0.58654 0.35047 0.30223 0.0
H751 H 0.49957 0.35703 0.33633 0.0
H752 H 0.49479 0.37241 0.31667 0.0
H753 H 0.50251 0.37188 0.35858 0.0
H754 H 0.69717 0.3958 0.38484 0.0
H755 H 0.66774 0.41507 0.3535 0.0
H756 H 0.55612 0.39039 0.29845 0.0
C757 C 0.59813 0.34954 0.37458 0.0
C758 C 0.62346 0.34635 0.40341 0.0
C759 C 0.66395 0.35489 0.41688 0.0
C760 C 0.67598 0.36697 0.40271 0.0
C761 C 0.64787 0.37015 0.37489 0.0
C762 C 0.61085 0.36147 0.36062 0.0
C763 C 0.58142 0.36749 0.33272 0.0
C764 C 0.60044 0.3608 0.30235 0.0
C765 C 0.51573 0.36719 0.33633 0.0
C766 C 0.60455 0.38116 0.3346 0.0
C767 C 0.6437 0.38257 0.35855 0.0
C768 C 0.66738 0.39471 0.36565 0.0
C769 C 0.65031 0.40561 0.34785 0.0
C770 C 0.60922 0.40429 0.32371 0.0
C771 C 0.58723 0.39182 0.3169 0.0
H772 H 0.35442 0.60137 0.0989 0.0
H773 H 0.53298 0.5969 0.0736 0.0
H774 H 0.55789 0.61588 0.10682 0.0
H775 H 0.34867 0.63565 0.10088 0.0
H776 H 0.30258 0.63643 0.13461 0.0
H777 H 0.29961 0.62255 0.10917 0.0
H778 H 0.31957 0.60721 0.15613 0.0
H779 H 0.322 0.62107 0.18176 0.0
H780 H 0.38169 0.60998 0.18023 0.0
H781 H 0.56009 0.63703 0.13884 0.0
H782 H 0.54173 0.65624 0.17255 0.0
H783 H 0.36363 0.6449 0.18066 0.0
C784 C 0.39881 0.60437 0.10049 0.0
C785 C 0.44185 0.59784 0.08356 0.0
C786 C 0.49956 0.60184 0.0865 0.0
C787 C 0.51393 0.61261 0.10517 0.0
C788 C 0.47017 0.61901 0.12125 0.0
C789 C 0.41395 0.61482 0.1196 0.0
C790 C 0.37496 0.62302 0.13974 0.0
C791 C 0.32875 0.62981 0.11991 0.0
C792 C 0.34798 0.61483 0.16603 0.0
C793 C 0.41765 0.63269 0.15255 0.0
C794 C 0.47228 0.63038 0.14135 0.0
C795 C 0.51774 0.63873 0.14826 0.0
C796 C 0.50701 0.64962 0.16729 0.0
C797 C 0.4517 0.65181 0.17968 0.0
C798 C 0.40673 0.64322 0.1722 0.0
H799 H 0.34531 0.14458 0.05902 0.0
H800 H 0.27383 0.16848 0.13283 0.0
H801 H 0.25983 0.14887 0.1654 0.0
H802 H 0.251 0.11629 0.07157 0.0
H803 H 0.30713 0.10479 0.06321 0.0
H804 H 0.30754 0.12055 0.04473 0.0
H805 H 0.40983 0.12478 0.06592 0.0
H806 H 0.40979 0.10904 0.08435 0.0
H807 H 0.42319 0.12339 0.1073 0.0
H808 H 0.26281 0.12725 0.19175 0.0
H809 H 0.28086 0.10482 0.21001 0.0
H810 H 0.34604 0.09454 0.11854 0.0
C811 C 0.3261 0.14567 0.08191 0.0
C812 C 0.31062 0.15806 0.09344 0.0
C813 C 0.28585 0.15909 0.12352 0.0
C814 C 0.27762 0.14801 0.14214 0.0
C815 C 0.29378 0.13596 0.13017 0.0
C816 C 0.31717 0.1347 0.10069 0.0
C817 C 0.33323 0.12069 0.09396 0.0
C818 C 0.29759 0.11526 0.06675 0.0
C819 C 0.39784 0.11941 0.08751 0.0
C820 C 0.31677 0.11432 0.12464 0.0
C821 C 0.29381 0.12333 0.14512 0.0
C822 C 0.27963 0.12007 0.17575 0.0
C823 C 0.29002 0.10734 0.18591 0.0
C824 C 0.31365 0.09801 0.16542 0.0
C825 C 0.32633 0.10145 0.13426 0.0
H826 H 0.39062 0.11354 0.55892 0.0
H827 H 0.48431 0.08516 0.61383 0.0
H828 H 0.50239 0.10181 0.6543 0.0
H829 H 0.48306 0.14153 0.57856 0.0
H830 H 0.42347 0.15265 0.57943 0.0
H831 H 0.42165 0.13874 0.55394 0.0
H832 H 0.3257 0.13141 0.57893 0.0
H833 H 0.32724 0.14529 0.6044 0.0
H834 H 0.32166 0.12917 0.62069 0.0
H835 H 0.49865 0.12088 0.69182 0.0
H836 H 0.47886 0.14114 0.72128 0.0
H837 H 0.39519 0.15737 0.63991 0.0
C838 C 0.41563 0.11088 0.57927 0.0
C839 C 0.43596 0.09805 0.5833 0.0
C840 C 0.46852 0.09494 0.61022 0.0
C841 C 0.47898 0.10434 0.63332 0.0
C842 C 0.45759 0.11686 0.62883 0.0
C843 C 0.42729 0.12018 0.60222 0.0
C844 C 0.4074 0.13418 0.60336 0.0
C845 C 0.4356 0.14225 0.57727 0.0
C846 C 0.34162 0.13506 0.60176 0.0
C847 C 0.42958 0.13812 0.63521 0.0
C848 C 0.45842 0.12801 0.6496 0.0
C849 C 0.4776 0.12897 0.68042 0.0
C850 C 0.46634 0.14048 0.69696 0.0
C851 C 0.43723 0.15092 0.68245 0.0
C852 C 0.41946 0.14976 0.65111 0.0
H853 H 0.32268 0.64083 0.55693 0.0
H854 H 0.25001 0.66724 0.62518 0.0
H855 H 0.23391 0.6488 0.66124 0.0
H856 H 0.22558 0.61323 0.57411 0.0
H857 H 0.28132 0.60136 0.56824 0.0
H858 H 0.28274 0.61647 0.54683 0.0
H859 H 0.38498 0.62112 0.56768 0.0
H860 H 0.38376 0.60604 0.58902 0.0
H861 H 0.39758 0.62106 0.60926 0.0
H862 H 0.23831 0.62816 0.69231 0.0
H863 H 0.25633 0.60638 0.71489 0.0
H864 H 0.31822 0.59294 0.62517 0.0
C865 C 0.30254 0.6427 0.57927 0.0
C866 C 0.28768 0.65547 0.58832 0.0
C867 C 0.26158 0.65754 0.61775 0.0
C868 C 0.25225 0.64712 0.63837 0.0
C869 C 0.26834 0.63468 0.62895 0.0
C870 C 0.29219 0.63239 0.59993 0.0
C871 C 0.30766 0.61818 0.59599 0.0
C872 C 0.27219 0.61194 0.56973 0.0
C873 C 0.37232 0.61651 0.59016 0.0
C874 C 0.29045 0.6129 0.62771 0.0
C875 C 0.26794 0.6226 0.64638 0.0
C876 C 0.25445 0.62042 0.67769 0.0
C877 C 0.26486 0.60806 0.69031 0.0
C878 C 0.28743 0.598 0.67154 0.0
C879 C 0.2994 0.60038 0.63973 0.0
H880 H 0.4831 0.32154 0.39174 0.0
H881 H 0.50389 0.28035 0.40907 0.0
H882 H 0.41172 0.27602 0.38205 0.0
H883 H 0.33694 0.32331 0.40507 0.0
H884 H 0.32184 0.33486 0.37442 0.0
H885 H 0.3914 0.33461 0.39255 0.0
H886 H 0.44029 0.33145 0.33875 0.0
H887 H 0.37107 0.3321 0.32025 0.0
H888 H 0.41741 0.31836 0.31376 0.0
H889 H 0.31138 0.27681 0.35915 0.0
H890 H 0.21962 0.2821 0.33265 0.0
H891 H 0.26944 0.32262 0.32816 0.0
C892 C 0.46889 0.3116 0.38907 0.0
C893 C 0.50008 0.30123 0.40201 0.0
C894 C 0.48044 0.28834 0.39861 0.0
C895 C 0.42809 0.28583 0.38367 0.0
C896 C 0.39698 0.29636 0.37209 0.0
C897 C 0.41752 0.30895 0.37385 0.0
C898 C 0.37609 0.3186 0.35984 0.0
C899 C 0.35536 0.32842 0.38445 0.0
C900 C 0.40281 0.32553 0.33145 0.0
C901 C 0.32856 0.3095 0.35025 0.0
C902 C 0.34079 0.29674 0.35794 0.0
C903 C 0.30168 0.28673 0.35262 0.0
C904 C 0.24959 0.28982 0.33798 0.0
C905 C 0.23814 0.30273 0.32856 0.0
C906 C 0.27766 0.31267 0.33513 0.0
H907 H 0.97148 0.95741 0.30428 0.0
H908 H 0.07271 0.93471 0.36931 0.0
H909 H 0.98909 0.93323 0.40493 0.0
H910 H 0.88425 0.97497 0.36586 0.0
H911 H 0.82156 0.97478 0.3413 0.0
H912 H 0.89184 0.97576 0.32397 0.0
H913 H 0.86841 0.95547 0.29063 0.0
H914 H 0.7989 0.95414 0.30847 0.0
H915 H 0.84769 0.94057 0.30984 0.0
H916 H 0.89236 0.93128 0.42819 0.0
H917 H 0.79113 0.93137 0.44291 0.0
H918 H 0.75141 0.95601 0.36317 0.0
C919 C 0.97641 0.95258 0.32665 0.0
C920 C 0.02812 0.94633 0.33462 0.0
C921 C 0.03354 0.93981 0.36348 0.0
C922 C 0.98625 0.93885 0.38358 0.0
C923 C 0.9349 0.9447 0.37443 0.0
C924 C 0.93007 0.95174 0.34706 0.0
C925 C 0.86931 0.95647 0.34184 0.0
C926 C 0.86659 0.97138 0.34334 0.0
C927 C 0.84466 0.95134 0.31086 0.0
C928 C 0.83984 0.95036 0.36968 0.0
C929 C 0.87872 0.94372 0.38821 0.0
C930 C 0.86178 0.93669 0.4143 0.0
C931 C 0.80387 0.93674 0.42227 0.0
C932 C 0.76324 0.94378 0.40422 0.0
C933 C 0.78145 0.95059 0.37739 0.0
H934 H 0.48813 0.94965 0.86062 0.0
H935 H 0.44301 0.9344 0.76931 0.0
H936 H 0.34086 0.93764 0.78094 0.0
H937 H 0.37352 0.93434 0.90145 0.0
H938 H 0.36269 0.94771 0.92792 0.0
H939 H 0.43237 0.94491 0.91133 0.0
H940 H 0.43326 0.96855 0.89013 0.0
H941 H 0.3629 0.97132 0.90611 0.0
H942 H 0.37597 0.974 0.86507 0.0
H943 H 0.24335 0.94211 0.80258 0.0
H944 H 0.15744 0.94469 0.83619 0.0
H945 H 0.26633 0.95649 0.91309 0.0
C946 C 0.45671 0.94699 0.84314 0.0
C947 C 0.4734 0.94185 0.81409 0.0
C948 C 0.43112 0.93839 0.7918 0.0
C949 C 0.37297 0.94029 0.79801 0.0
C950 C 0.35784 0.94562 0.82663 0.0
C951 C 0.39835 0.94874 0.84903 0.0
C952 C 0.37046 0.95347 0.87871 0.0
C953 C 0.38564 0.94457 0.90648 0.0
C954 C 0.38662 0.96768 0.88538 0.0
C955 C 0.30811 0.95226 0.86966 0.0
C956 C 0.30158 0.94798 0.83931 0.0
C957 C 0.24773 0.94559 0.82631 0.0
C958 C 0.19928 0.94718 0.84534 0.0
C959 C 0.20585 0.95088 0.87687 0.0
C960 C 0.26056 0.95378 0.88883 0.0
H961 H 0.77517 0.31724 0.8385 0.0
H962 H 0.73659 0.27623 0.847 0.0
H963 H 0.8336 0.27239 0.86926 0.0
H964 H 0.91887 0.31443 0.81567 0.0
H965 H 0.94351 0.32818 0.83798 0.0
H966 H 0.87079 0.32769 0.824 0.0
H967 H 0.83205 0.33066 0.88036 0.0
H968 H 0.90461 0.33165 0.89433 0.0
H969 H 0.85611 0.31986 0.91088 0.0
H970 H 0.93865 0.27322 0.88701 0.0
H971 H 0.03369 0.27919 0.90882 0.0
H972 H 0.99865 0.31974 0.8897 0.0
C973 C 0.78676 0.3075 0.84564 0.0
C974 C 0.74888 0.29703 0.84137 0.0
C975 C 0.76516 0.28438 0.85074 0.0
C976 C 0.82026 0.28211 0.86292 0.0
C977 C 0.85766 0.29265 0.86571 0.0
C978 C 0.84081 0.30514 0.8581 0.0
C979 C 0.88768 0.31492 0.86405 0.0
C980 C 0.90629 0.3217 0.8336 0.0
C981 C 0.86901 0.32485 0.88889 0.0
C982 C 0.93397 0.30601 0.87616 0.0
C983 C 0.91654 0.29316 0.87646 0.0
C984 C 0.9526 0.28325 0.88693 0.0
C985 C 0.00668 0.28668 0.89883 0.0
C986 C 0.02319 0.29988 0.90043 0.0
C987 C 0.98706 0.30957 0.88824 0.0
H988 H 0.75421 0.68458 0.59126 0.0
H989 H 0.75856 0.6701 0.68669 0.0
H990 H 0.65397 0.66758 0.68614 0.0
H991 H 0.63188 0.70338 0.59927 0.0
H992 H 0.60223 0.69994 0.56128 0.0
H993 H 0.67842 0.69912 0.56724 0.0
H994 H 0.67969 0.6754 0.54709 0.0
H995 H 0.60346 0.67619 0.54068 0.0
H996 H 0.63315 0.6635 0.56484 0.0
H997 H 0.54894 0.66903 0.678 0.0
H998 H 0.44939 0.67291 0.66086 0.0
H999 H 0.51234 0.68606 0.57058 0.0
C1000 C 0.73326 0.68056 0.61169 0.0
C1001 C 0.76458 0.67759 0.63901 0.0
C1002 C 0.73548 0.67254 0.66551 0.0
C1003 C 0.67602 0.67102 0.66545 0.0
C1004 C 0.64613 0.67448 0.63864 0.0
C1005 C 0.67362 0.67897 0.61206 0.0
C1006 C 0.63073 0.68268 0.58704 0.0
C1007 C 0.63616 0.69714 0.57821 0.0
C1008 C 0.63714 0.67392 0.55821 0.0
C1009 C 0.57516 0.67996 0.60416 0.0
C1010 C 0.58502 0.67516 0.6338 0.0
C1011 C 0.54049 0.67259 0.65464 0.0
C1012 C 0.48415 0.67491 0.64478 0.0
C1013 C 0.473 0.67973 0.61437 0.0
C1014 C 0.51931 0.68223 0.59387 0.0
H1015 H 0.98889 0.06954 0.60132 0.0
H1016 H 0.99256 0.04231 0.67868 0.0
H1017 H 0.09691 0.03972 0.67232 0.0
H1018 H 0.1073 0.05384 0.55442 0.0
H1019 H 0.13452 0.06943 0.54215 0.0
H1020 H 0.05902 0.06736 0.5494 0.0
H1021 H 0.06245 0.08654 0.58847 0.0
H1022 H 0.13817 0.08844 0.5821 0.0
H1023 H 0.1112 0.08585 0.6211 0.0
H1024 H 0.20167 0.04276 0.66339 0.0
H1025 H 0.29979 0.04873 0.6466 0.0
H1026 H 0.22821 0.07382 0.57487 0.0
C1027 C 0.01145 0.06257 0.61579 0.0
C1028 C 0.98302 0.05593 0.64007 0.0
C1029 C 0.01391 0.0473 0.65962 0.0
C1030 C 0.07311 0.04583 0.65633 0.0
C1031 C 0.10069 0.05305 0.6333 0.0
C1032 C 0.07087 0.06103 0.61287 0.0
C1033 C 0.11152 0.0684 0.59172 0.0
C1034 C 0.10256 0.06452 0.55738 0.0
C1035 C 0.10545 0.08318 0.59613 0.0
C1036 C 0.16848 0.06355 0.60401 0.0
C1037 C 0.16138 0.05473 0.62804 0.0
C1038 C 0.20791 0.04948 0.64419 0.0
C1039 C 0.26337 0.05303 0.6348 0.0
C1040 C 0.27145 0.06166 0.60941 0.0
C1041 C 0.22327 0.06708 0.59418 0.0
H1042 H 0.51185 0.06739 0.0982 0.0
H1043 H 0.52092 0.06248 0.1991 0.0
H1044 H 0.62566 0.0621 0.19631 0.0
H1045 H 0.63129 0.04631 0.08004 0.0
H1046 H 0.6573 0.05632 0.04846 0.0
H1047 H 0.58211 0.05622 0.05792 0.0
H1048 H 0.58418 0.08123 0.06459 0.0
H1049 H 0.6594 0.08141 0.05522 0.0
H1050 H 0.63464 0.08842 0.09134 0.0
H1051 H 0.72834 0.06248 0.18367 0.0
H1052 H 0.82518 0.0631 0.1612 0.0
H1053 H 0.75208 0.06759 0.06831 0.0
C1054 C 0.53588 0.06622 0.11966 0.0
C1055 C 0.50787 0.06499 0.14883 0.0
C1056 C 0.54104 0.06347 0.1764 0.0
C1057 C 0.60075 0.06324 0.17515 0.0
C1058 C 0.62694 0.06452 0.14618 0.0
C1059 C 0.5959 0.06595 0.11888 0.0
C1060 C 0.6354 0.06711 0.09088 0.0
C1061 C 0.62595 0.05581 0.06798 0.0
C1062 C 0.62795 0.08033 0.07455 0.0
C1063 C 0.69321 0.06612 0.10686 0.0
C1064 C 0.68709 0.06466 0.13876 0.0
C1065 C 0.7339 0.06361 0.1587 0.0
C1066 C 0.78878 0.06399 0.14567 0.0
C1067 C 0.79642 0.06539 0.11296 0.0
C1068 C 0.74779 0.06649 0.09338 0.0
H1069 H 0.03921 0.68466 0.0656 0.0
H1070 H 0.95885 0.66364 0.14204 0.0
H1071 H 0.05495 0.65863 0.16365 0.0
H1072 H 0.16164 0.66349 0.05576 0.0
H1073 H 0.20999 0.67671 0.04746 0.0
H1074 H 0.13531 0.67808 0.03732 0.0
H1075 H 0.12703 0.69927 0.06968 0.0
H1076 H 0.2018 0.6981 0.07938 0.0
H1077 H 0.1491 0.69922 0.11006 0.0
H1078 H 0.15888 0.65634 0.17689 0.0
H1079 H 0.26224 0.65947 0.18562 0.0
H1080 H 0.27432 0.6822 0.10041 0.0
C1081 C 0.04165 0.67894 0.08684 0.0
C1082 C 0.99169 0.67445 0.10213 0.0
C1083 C 0.99667 0.6672 0.1301 0.0
C1084 C 0.05097 0.6642 0.14226 0.0
C1085 C 0.09935 0.66855 0.1261 0.0
C1086 C 0.09509 0.67592 0.09924 0.0
C1087 C 0.15326 0.68015 0.08732 0.0
C1088 C 0.16577 0.67425 0.05505 0.0
C1089 C 0.15807 0.69507 0.08659 0.0
C1090 C 0.19131 0.67426 0.11215 0.0
C1091 C 0.15932 0.66739 0.13392 0.0
C1092 C 0.18431 0.66162 0.15993 0.0
C1093 C 0.24297 0.66343 0.16462 0.0
C1094 C 0.27588 0.67104 0.14357 0.0
C1095 C 0.25024 0.67613 0.11641 0.0
H1096 H 0.45861 0.81711 0.92171 0.0
H1097 H 0.53092 0.78031 0.89237 0.0
H1098 H 0.43786 0.77416 0.86887 0.0
H1099 H 0.31415 0.80615 0.93855 0.0
H1100 H 0.28082 0.82041 0.92213 0.0
H1101 H 0.35131 0.8215 0.93909 0.0
H1102 H 0.3917 0.83102 0.88735 0.0
H1103 H 0.32106 0.8303 0.8707 0.0
H1104 H 0.37999 0.82238 0.8513 0.0
H1105 H 0.33811 0.77221 0.84816 0.0
H1106 H 0.24564 0.77638 0.82179 0.0
H1107 H 0.24039 0.81493 0.8618 0.0
C1108 C 0.45461 0.80775 0.91037 0.0
C1109 C 0.50133 0.79911 0.9089 0.0
C1110 C 0.49536 0.78705 0.89349 0.0
C1111 C 0.44259 0.78343 0.88052 0.0
C1112 C 0.39679 0.79206 0.8829 0.0
C1113 C 0.40273 0.80412 0.89669 0.0
C1114 C 0.34892 0.81218 0.89314 0.0
C1115 C 0.32224 0.81523 0.92514 0.0
C1116 C 0.36115 0.8247 0.87451 0.0
C1117 C 0.31193 0.80283 0.87483 0.0
C1118 C 0.33978 0.79114 0.86994 0.0
C1119 C 0.31555 0.78124 0.85215 0.0
C1120 C 0.26284 0.78361 0.83759 0.0
C1121 C 0.23566 0.79579 0.84077 0.0
C1122 C 0.25957 0.80537 0.86022 0.0
H1123 H 0.74797 0.43105 0.8684 0.0
H1124 H 0.73095 0.47226 0.88553 0.0
H1125 H 0.82926 0.47584 0.86543 0.0
H1126 H 0.88097 0.42811 0.89667 0.0
H1127 H 0.90746 0.41633 0.86913 0.0
H1128 H 0.83208 0.41714 0.87755 0.0
H1129 H 0.80779 0.42064 0.81907 0.0
H1130 H 0.88285 0.41911 0.81008 0.0
H1131 H 0.84382 0.43328 0.79741 0.0
H1132 H 0.93549 0.47406 0.85312 0.0
H1133 H 0.03422 0.46772 0.83784 0.0
H1134 H 0.97966 0.4276 0.83032 0.0
C1135 C 0.76382 0.44089 0.86612 0.0
C1136 C 0.732 0.45143 0.87762 0.0
C1137 C 0.75443 0.46416 0.8757 0.0
C1138 C 0.81048 0.46623 0.86487 0.0
C1139 C 0.84267 0.45543 0.85599 0.0
C1140 C 0.81942 0.44306 0.85553 0.0
C1141 C 0.86377 0.43293 0.84753 0.0
C1142 C 0.87148 0.42305 0.87432 0.0
C1143 C 0.84867 0.42609 0.81668 0.0
C1144 C 0.91589 0.44147 0.84411 0.0
C1145 C 0.90329 0.45441 0.84931 0.0
C1146 C 0.94565 0.46398 0.84854 0.0
C1147 C 0.00168 0.46029 0.84046 0.0
C1148 C 0.01405 0.44719 0.83321 0.0
C1149 C 0.97105 0.43768 0.83593 0.0
H1150 H 0.48603 0.449 0.3628 0.0
H1151 H 0.425 0.44876 0.26703 0.0
H1152 H 0.32554 0.45104 0.28563 0.0
H1153 H 0.3744 0.42938 0.39254 0.0
H1154 H 0.36959 0.43768 0.4295 0.0
H1155 H 0.43641 0.43741 0.40855 0.0
H1156 H 0.43982 0.4626 0.4096 0.0
H1157 H 0.37283 0.46293 0.4305 0.0
H1158 H 0.38027 0.47176 0.39429 0.0
H1159 H 0.23223 0.45266 0.31465 0.0
H1160 H 0.15181 0.45157 0.35254 0.0
H1161 H 0.27406 0.4496 0.42874 0.0
C1162 C 0.45171 0.44963 0.34583 0.0
C1163 C 0.46293 0.44881 0.31357 0.0
C1164 C 0.41706 0.44938 0.29193 0.0
C1165 C 0.36051 0.45075 0.30221 0.0
C1166 C 0.35061 0.45143 0.33421 0.0
C1167 C 0.39484 0.45078 0.35572 0.0
C1168 C 0.37223 0.45065 0.3888 0.0
C1169 C 0.38915 0.43803 0.40583 0.0
C1170 C 0.39249 0.46271 0.40685 0.0
C1171 C 0.30856 0.45117 0.38245 0.0
C1172 C 0.29683 0.45185 0.35087 0.0
C1173 C 0.24079 0.45219 0.33948 0.0
C1174 C 0.1955 0.4516 0.36105 0.0
C1175 C 0.20703 0.45047 0.39335 0.0
C1176 C 0.26417 0.45042 0.40407 0.0
H1177 H 0.72169 0.81775 0.37145 0.0
H1178 H 0.70191 0.77693 0.35025 0.0
H1179 H 0.79659 0.77239 0.37383 0.0
H1180 H 0.85742 0.82068 0.3506 0.0
H1181 H 0.88149 0.83153 0.38089 0.0
H1182 H 0.80733 0.83139 0.36966 0.0
H1183 H 0.77581 0.82648 0.4265 0.0
H1184 H 0.84981 0.8272 0.43838 0.0
H1185 H 0.80749 0.81301 0.44724 0.0
H1186 H 0.90139 0.77339 0.38741 0.0
H1187 H 0.00116 0.77897 0.4022 0.0
H1188 H 0.95001 0.81894 0.41717 0.0
C1189 C 0.73587 0.80777 0.37372 0.0
C1190 C 0.70444 0.79761 0.36003 0.0
C1191 C 0.72493 0.78472 0.36174 0.0
C1192 C 0.77891 0.7821 0.37467 0.0
C1193 C 0.81085 0.7925 0.38616 0.0
C1194 C 0.78917 0.80501 0.38695 0.0
C1195 C 0.83364 0.81463 0.39812 0.0
C1196 C 0.84564 0.82517 0.37333 0.0
C1197 C 0.81562 0.82068 0.42943 0.0
C1198 C 0.8844 0.80569 0.4021 0.0
C1199 C 0.87068 0.79297 0.39491 0.0
C1200 C 0.91224 0.78324 0.394 0.0
C1201 C 0.9688 0.78651 0.4019 0.0
C1202 C 0.98262 0.79934 0.41085 0.0
C1203 C 0.94007 0.80903 0.41069 0.0
H1204 H 0.75862 0.18652 0.17301 0.0
H1205 H 0.81992 0.17484 0.08133 0.0
H1206 H 0.72027 0.17345 0.06273 0.0
H1207 H 0.63019 0.16601 0.17378 0.0
H1208 H 0.58731 0.1781 0.19326 0.0
H1209 H 0.66338 0.17737 0.2002 0.0
H1210 H 0.673 0.20154 0.18394 0.0
H1211 H 0.59708 0.20234 0.17687 0.0
H1212 H 0.64666 0.20669 0.14629 0.0
H1213 H 0.61619 0.17461 0.05298 0.0
H1214 H 0.51218 0.17799 0.05234 0.0
H1215 H 0.51632 0.18878 0.15046 0.0
C1216 C 0.75116 0.1835 0.14912 0.0
C1217 C 0.79722 0.18079 0.12861 0.0
C1218 C 0.78547 0.177 0.09746 0.0
C1219 C 0.729 0.17614 0.08669 0.0
C1220 C 0.68479 0.17904 0.10738 0.0
C1221 C 0.69501 0.1826 0.13795 0.0
C1222 C 0.63962 0.18573 0.1549 0.0
C1223 C 0.62954 0.17623 0.18215 0.0
C1224 C 0.63909 0.19992 0.16615 0.0
C1225 C 0.59673 0.18358 0.12885 0.0
C1226 C 0.62396 0.17967 0.10174 0.0
C1227 C 0.59428 0.17757 0.07409 0.0
C1228 C 0.53516 0.1796 0.07399 0.0
C1229 C 0.50605 0.18369 0.10137 0.0
C1230 C 0.53729 0.18555 0.12928 0.0
H1231 H 0.24761 0.55567 0.08452 0.0
H1232 H 0.32697 0.57405 0.16478 0.0
H1233 H 0.23126 0.57632 0.18942 0.0
H1234 H 0.1305 0.57607 0.07972 0.0
H1235 H 0.08021 0.5637 0.06804 0.0
H1236 H 0.15496 0.56194 0.05876 0.0
H1237 H 0.15774 0.53963 0.08698 0.0
H1238 H 0.0826 0.54118 0.09582 0.0
H1239 H 0.13335 0.53841 0.12687 0.0
H1240 H 0.12585 0.57836 0.20242 0.0
H1241 H 0.02045 0.57879 0.20488 0.0
H1242 H 0.01167 0.55952 0.11476 0.0
C1243 C 0.24517 0.55995 0.10759 0.0
C1244 C 0.29461 0.56467 0.12285 0.0
C1245 C 0.28962 0.57023 0.15293 0.0
C1246 C 0.23548 0.57163 0.16694 0.0
C1247 C 0.18734 0.56731 0.15055 0.0
C1248 C 0.19192 0.56143 0.1217 0.0
C1249 C 0.13391 0.55826 0.10798 0.0
C1250 C 0.12437 0.56542 0.07679 0.0
C1251 C 0.12647 0.54349 0.10421 0.0
C1252 C 0.0955 0.56352 0.13333 0.0
C1253 C 0.12704 0.56863 0.15777 0.0
C1254 C 0.10081 0.57428 0.18356 0.0
C1255 C 0.04084 0.57451 0.18463 0.0
C1256 C 0.00765 0.56918 0.15997 0.0
C1257 C 0.03565 0.56372 0.13391 0.0
H1258 H 0.75378 0.558 0.64926 0.0
H1259 H 0.7679 0.59429 0.59843 0.0
H1260 H 0.66631 0.59905 0.60916 0.0
H1261 H 0.6259 0.54902 0.62118 0.0
H1262 H 0.59565 0.54214 0.65628 0.0
H1263 H 0.67208 0.54269 0.65137 0.0
H1264 H 0.68339 0.55543 0.7031 0.0
H1265 H 0.60695 0.55459 0.70878 0.0
H1266 H 0.64277 0.57011 0.70905 0.0
H1267 H 0.5613 0.59744 0.61417 0.0
H1268 H 0.45967 0.59147 0.62213 0.0
H1269 H 0.51224 0.55689 0.67261 0.0
C1270 C 0.73602 0.56725 0.64207 0.0
C1271 C 0.76836 0.57596 0.62371 0.0
C1272 C 0.74361 0.5877 0.61316 0.0
C1273 C 0.686 0.59044 0.61898 0.0
C1274 C 0.65404 0.58136 0.63565 0.0
C1275 C 0.67832 0.57018 0.64791 0.0
C1276 C 0.63299 0.56152 0.66249 0.0
C1277 C 0.63161 0.54805 0.64688 0.0
C1278 C 0.64206 0.56035 0.69797 0.0
C1279 C 0.57951 0.56926 0.655 0.0
C1280 C 0.59269 0.58067 0.6395 0.0
C1281 C 0.55037 0.58874 0.62714 0.0
C1282 C 0.49294 0.58521 0.63138 0.0
C1283 C 0.47864 0.57381 0.64812 0.0
C1284 C 0.5224 0.56578 0.66017 0.0
H1285 H 0.00929 0.19595 0.58449 0.0
H1286 H 0.93838 0.16364 0.63709 0.0
H1287 H 0.03626 0.15756 0.65428 0.0
H1288 H 0.13302 0.17995 0.55692 0.0
H1289 H 0.17931 0.19389 0.56039 0.0
H1290 H 0.10384 0.19611 0.55346 0.0
H1291 H 0.09508 0.21051 0.60289 0.0
H1292 H 0.17084 0.20871 0.60932 0.0
H1293 H 0.12096 0.20443 0.63983 0.0
H1294 H 0.14167 0.15465 0.66356 0.0
H1295 H 0.24576 0.15708 0.67186 0.0
H1296 H 0.24733 0.1912 0.61233 0.0
C1297 C 0.01427 0.18773 0.60012 0.0
C1298 C 0.96658 0.18026 0.60967 0.0
C1299 C 0.97448 0.16957 0.63001 0.0
C1300 C 0.02986 0.16596 0.63945 0.0
C1301 C 0.07623 0.17322 0.62839 0.0
C1302 C 0.06884 0.18405 0.60973 0.0
C1303 C 0.12539 0.19036 0.60141 0.0
C1304 C 0.13598 0.19005 0.56594 0.0
C1305 C 0.12823 0.20433 0.61414 0.0
C1306 C 0.16617 0.18144 0.61849 0.0
C1307 C 0.13691 0.17152 0.63355 0.0
C1308 C 0.16497 0.16234 0.65184 0.0
C1309 C 0.22399 0.16374 0.65621 0.0
C1310 C 0.25411 0.17422 0.64236 0.0
C1311 C 0.22533 0.18292 0.62241 0.0
H1312 H 0.95156 0.22494 0.22123 0.0
H1313 H 0.01076 0.229 0.12543 0.0
H1314 H 0.02926 0.25229 0.13464 0.0
H1315 H 0.88459 0.25738 0.22832 0.0
H1316 H 0.90812 0.25928 0.26817 0.0
H1317 H 0.89296 0.2433 0.25307 0.0
H1318 H 0.9948 0.23567 0.26862 0.0
H1319 H 0.0101 0.25155 0.28391 0.0
H1320 H 0.05615 0.24459 0.25458 0.0
H1321 H 0.05101 0.27432 0.15554 0.0
H1322 H 0.07851 0.29333 0.18734 0.0
H1323 H 0.00415 0.27532 0.26942 0.0
C1324 C 0.96732 0.23076 0.20193 0.0
C1325 C 0.9793 0.22511 0.17248 0.0
C1326 C 0.00103 0.23307 0.14814 0.0
C1327 C 0.01137 0.24634 0.1531 0.0
C1328 C -0.00047 0.25154 0.18247 0.0
C1329 C 0.97804 0.244 0.2065 0.0
C1330 C 0.9738 0.25168 0.23664 0.0
C1331 C 0.91113 0.25299 0.24716 0.0
C1332 C 0.01094 0.24551 0.26244 0.0
C1333 C 0.99781 0.26465 0.22605 0.0
C1334 C 0.01164 0.26438 0.19457 0.0
C1335 C 0.03916 0.27476 0.17997 0.0
C1336 C 0.05442 0.28552 0.19814 0.0
C1337 C 0.04179 0.28587 0.23045 0.0
C1338 C 0.01205 0.27545 0.24448 0.0
H1339 H 0.17906 0.98154 0.26821 0.0
H1340 H 0.25894 0.95545 0.20198 0.0
H1341 H 0.30033 0.97439 0.17373 0.0
H1342 H 0.14176 0.00643 0.21613 0.0
H1343 H 0.15836 0.01959 0.24234 0.0
H1344 H 0.13722 0.00403 0.25782 0.0
H1345 H 0.2305 0.00283 0.29053 0.0
H1346 H 0.25148 0.0185 0.27559 0.0
H1347 H 0.29875 0.00477 0.27135 0.0
H1348 H 0.32363 0.99661 0.14984 0.0
H1349 H 0.34059 0.01987 0.13732 0.0
H1350 H 0.25241 0.03095 0.22233 0.0
C1351 C 0.20628 0.97984 0.24811 0.0
C1352 C 0.21639 0.96713 0.23723 0.0
C1353 C 0.25168 0.96517 0.21081 0.0
C1354 C 0.27482 0.97585 0.19455 0.0
C1355 C 0.26306 0.98835 0.20553 0.0
C1356 C 0.23081 0.99034 0.23221 0.0
C1357 C 0.22499 0.00465 0.23958 0.0
C1358 C 0.16183 0.00892 0.23891 0.0
C1359 C 0.25313 0.00788 0.27113 0.0
C1360 C 0.25814 0.01046 0.21261 0.0
C1361 C 0.27909 1.00095 0.19289 0.0
C1362 C 0.30827 0.00411 0.16542 0.0
C1363 C 0.31731 0.01732 0.15836 0.0
C1364 C 0.29818 0.02712 0.17901 0.0
C1365 C 0.26809 0.02361 0.20635 0.0
H1366 H 0.97643 0.03173 -0.00416 0.0
H1367 H 0.95462 0.01853 0.09145 0.0
H1368 H 0.95346 0.99572 0.0732 0.0
H1369 H 0.89082 0.00679 0.95723 0.0
H1370 H 0.93981 0.00527 0.92487 0.0
H1371 H 0.9329 0.02058 0.94495 0.0
H1372 H 0.04213 0.02088 0.95593 0.0
H1373 H 0.04939 0.00577 0.93532 0.0
H1374 H 0.07488 0.00711 0.97495 0.0
H1375 H 0.95794 0.97433 0.04461 0.0
H1376 H 0.98459 0.95618 0.0096 0.0
H1377 H 0.00904 0.98336 0.93346 0.0
C1378 C 0.9708 0.02403 0.01288 0.0
C1379 C 0.96505 0.02687 0.04501 0.0
C1380 C 0.95912 0.01655 0.06672 0.0
C1381 C 0.95778 0.00359 0.05653 0.0
C1382 C 0.96297 0.00112 0.0246 0.0
C1383 C 0.97052 0.01106 0.00319 0.0
C1384 C 0.98136 0.0058 0.9707 0.0
C1385 C 0.93335 0.00985 0.94811 0.0
C1386 C 0.04045 0.01014 0.95853 0.0
C1387 C 0.97966 0.99133 0.97719 0.0
C1388 C 0.96747 0.98882 0.00827 0.0
C1389 C 0.9666 0.97618 0.02014 0.0
C1390 C 0.98101 0.96591 5e-05 0.0
C1391 C 0.9967 0.96841 0.96871 0.0
C1392 C 0.99481 0.98121 0.95702 0.0
H1393 H 0.33548 0.2289 0.02754 0.0
H1394 H 0.24699 0.22925 0.11688 0.0
H1395 H 0.20946 0.2511 0.10501 0.0
H1396 H 0.37248 0.26384 0.02633 0.0
H1397 H 0.36103 0.26517 0.98478 0.0
H1398 H 0.38509 0.25002 0.00144 0.0
H1399 H 0.29892 0.23814 0.97621 0.0
H1400 H 0.27459 0.25323 0.95953 0.0
H1401 H 0.22728 0.24381 0.984 0.0
H1402 H 0.17209 0.27159 0.08093 0.0
H1403 H 0.14151 0.28987 0.04724 0.0
H1404 H 0.25816 0.27707 0.97481 0.0
C1405 C 0.30903 0.23364 0.04489 0.0
C1406 C 0.29437 0.22731 0.07323 0.0
C1407 C 0.25922 0.23388 0.09511 0.0
C1408 C 0.23764 0.24631 0.08858 0.0
C1409 C 0.25216 0.25216 0.06025 0.0
C1410 C 0.28755 0.24612 0.03889 0.0
C1411 C 0.29441 0.25428 0.00954 0.0
C1412 C 0.35698 0.25858 0.00528 0.0
C1413 C 0.27248 0.24692 0.98062 0.0
C1414 C 0.25616 0.26572 0.0174 0.0
C1415 C 0.23222 0.26428 0.0468 0.0
C1416 C 0.19152 0.27297 0.05819 0.0
C1417 C 0.17435 0.28329 0.03892 0.0
C1418 C 0.19841 0.28495 0.00884 0.0
C1419 C 0.24052 0.27619 -0.00186 0.0
H1420 H 0.03535 0.72613 0.65809 0.0
H1421 H 0.85774 0.72772 0.687 0.0
H1422 H 0.87261 0.74993 0.70748 0.0
H1423 H 0.08833 0.73982 0.72539 0.0
H1424 H 0.14586 0.74879 0.70732 0.0
H1425 H 0.11903 0.73429 0.6891 0.0
H1426 H 0.09863 0.74712 0.63813 0.0
H1427 H 0.126 0.76168 0.6561 0.0
H1428 H 0.05498 0.76155 0.63959 0.0
H1429 H 0.90924 0.77102 0.72968 0.0
H1430 H 0.9658 0.78868 0.75405 0.0
H1431 H 0.1208 0.77255 0.71392 0.0
C1432 C -0.0008 0.73141 0.66758 0.0
C1433 C 0.94505 0.72542 0.67028 0.0
C1434 C 0.89924 0.7323 0.68425 0.0
C1435 C 0.90731 0.7449 0.6959 0.0
C1436 C 0.96169 0.75043 0.69379 0.0
C1437 C 0.00693 0.74389 0.68 0.0
C1438 C 0.06262 0.75124 0.68433 0.0
C1439 C 0.10651 0.74305 0.70263 0.0
C1440 C 0.08697 0.75566 0.65265 0.0
C1441 C 0.0419 0.76271 0.70337 0.0
C1442 C 0.9834 0.76224 0.70802 0.0
C1443 C 0.95502 0.77156 0.72593 0.0
C1444 C 0.98741 0.78155 0.73971 0.0
C1445 C 0.04759 0.78195 0.73598 0.0
C1446 C 0.07481 0.77248 0.71723 0.0
H1447 H 0.64447 0.97786 0.73722 0.0
H1448 H 0.76216 0.97046 0.81366 0.0
H1449 H 0.80842 0.99182 0.80388 0.0
H1450 H 0.74716 0.99307 0.68646 0.0
H1451 H 0.69612 0.00447 0.67072 0.0
H1452 H 0.67233 0.98882 0.68447 0.0
H1453 H 0.60027 1.00008 0.72171 0.0
H1454 H 0.62405 0.01577 0.7082 0.0
H1455 H 0.62591 0.01195 0.74933 0.0
H1456 H 0.83931 0.0144 0.7862 0.0
H1457 H 0.85767 0.03539 0.76011 0.0
H1458 H 0.72153 0.02729 0.69377 0.0
C1459 C 0.67984 0.98073 0.75206 0.0
C1460 C 0.69947 0.97258 0.77644 0.0
C1461 C 0.74645 0.97659 0.79493 0.0
C1462 C 0.77278 0.98871 0.78957 0.0
C1463 C 0.75195 0.99655 0.76542 0.0
C1464 C 0.70691 0.99264 0.74677 0.0
C1465 C 0.6935 0.00261 0.72173 0.0
C1466 C 0.70285 0.9969 0.68891 0.0
C1467 C 0.63231 0.00791 0.72548 0.0
C1468 C 0.73778 0.01286 0.72924 0.0
C1469 C 0.77082 0.00925 0.75465 0.0
C1470 C 0.81387 0.01727 0.76621 0.0
C1471 C 0.8238 0.02922 0.75124 0.0
C1472 C 0.79115 0.03302 0.72475 0.0
C1473 C 0.74746 0.02469 0.71381 0.0
H1474 H 0.64789 0.76817 0.00517 0.0
H1475 H 0.80069 0.78469 0.96304 0.0
H1476 H 0.85652 0.76561 0.98078 0.0
H1477 H 0.71776 0.7539 0.07339 0.0
H1478 H 0.67265 0.73968 0.07323 0.0
H1479 H 0.64555 0.75493 0.05868 0.0
H1480 H 0.62023 0.74406 0.00589 0.0
H1481 H 0.64696 0.72879 0.02031 0.0
H1482 H 0.67515 0.73554 0.98456 0.0
H1483 H 0.8938 0.74413 -6e-05 0.0
H1484 H 0.91031 0.72179 0.01887 0.0
H1485 H 0.73359 0.71949 0.04988 0.0
C1486 C 0.69322 0.76785 -0.00013 0.0
C1487 C 0.72003 0.77793 0.98271 0.0
C1488 C 0.77933 0.77709 0.97617 0.0
C1489 C 0.81136 0.76631 0.98623 0.0
C1490 C 0.78349 0.75652 0.00298 0.0
C1491 C 0.72578 0.75721 0.00983 0.0
C1492 C 0.70557 0.74518 0.02713 0.0
C1493 C 0.68413 0.74864 0.06007 0.0
C1494 C 0.65926 0.73797 0.00834 0.0
C1495 C 0.76078 0.73748 0.02852 0.0
C1496 C 0.80522 0.74423 0.01453 0.0
C1497 C 0.85952 0.73882 0.01126 0.0
C1498 C 0.86843 0.72611 0.02206 0.0
C1499 C 0.82338 0.71893 0.03611 0.0
C1500 C 0.76915 0.72482 0.03985 0.0
H1501 H 0.31589 0.52663 0.73036 0.0
H1502 H 0.24679 0.52463 0.63619 0.0
H1503 H 0.2195 0.5018 0.64526 0.0
H1504 H 0.37078 0.49292 0.73348 0.0
H1505 H 0.35135 0.49092 0.77399 0.0
H1506 H 0.37055 0.50676 0.75924 0.0
H1507 H 0.27392 0.516 0.77894 0.0
H1508 H 0.25449 0.50023 0.79377 0.0
H1509 H 0.20797 0.50848 0.76659 0.0
H1510 H 0.18979 0.48026 0.6661 0.0
H1511 H 0.16093 0.46116 0.69729 0.0
H1512 H 0.25263 0.4763 0.77734 0.0
C1513 C 0.29589 0.52135 0.71141 0.0
C1514 C 0.28366 0.52749 0.68248 0.0
C1515 C 0.25683 0.52021 0.65851 0.0
C1516 C 0.24128 0.50719 0.66341 0.0
C1517 C 0.25328 0.50152 0.69229 0.0
C1518 C 0.28028 0.50832 0.71585 0.0
C1519 C 0.28515 0.50014 0.74533 0.0
C1520 C 0.34822 0.49753 0.75348 0.0
C1521 C 0.25349 0.5066 0.77277 0.0
C1522 C 0.25521 0.4878 0.73492 0.0
C1523 C 0.23749 0.48883 0.70413 0.0
C1524 C 0.20455 0.47923 0.68995 0.0
C1525 C 0.18843 0.46841 0.70781 0.0
C1526 C 0.20586 0.46716 0.73933 0.0
C1527 C 0.24051 0.47686 0.75294 0.0
H1528 H 0.08219 0.47836 0.51126 0.0
H1529 H 0.92714 0.46499 0.46562 0.0
H1530 H 0.87528 0.48421 0.48586 0.0
H1531 H 0.01199 0.49162 0.58123 0.0
H1532 H 0.06117 0.50508 0.58375 0.0
H1533 H 0.08452 0.48985 0.56744 0.0
H1534 H 0.11608 0.50172 0.51679 0.0
H1535 H 0.09277 0.51696 0.53289 0.0
H1536 H 0.06495 0.51155 0.49583 0.0
H1537 H 0.84344 0.50597 0.50678 0.0
H1538 H 0.83252 0.52803 0.52856 0.0
H1539 H 0.00755 0.52668 0.5625 0.0
C1540 C 0.03712 0.47938 0.5058 0.0
C1541 C 0.00863 0.4702 0.4868 0.0
C1542 C 0.9497 0.47188 0.48022 0.0
C1543 C 0.91996 0.48277 0.49161 0.0
C1544 C 0.94963 0.49174 0.50991 0.0
C1545 C 0.00677 0.49008 0.51724 0.0
C1546 C 0.02935 0.50132 0.53649 0.0
C1547 C 0.04783 0.49669 0.56917 0.0
C1548 C 0.07868 0.5083 0.51947 0.0
C1549 C 0.97638 0.50977 0.53817 0.0
C1550 C 0.93082 0.50407 0.52275 0.0
C1551 C 0.87853 0.51043 0.51933 0.0
C1552 C 0.8728 0.52298 0.53171 0.0
C1553 C 0.91897 0.52904 0.54754 0.0
C1554 C 0.9711 0.52222 0.55114 0.0
H1555 H 0.3041 0.72162 0.50911 0.0
H1556 H 0.27378 0.73103 0.6066 0.0
H1557 H 0.25086 0.75362 0.59157 0.0
H1558 H 0.36449 0.75337 0.48497 0.0
H1559 H 0.32866 0.75305 0.44766 0.0
H1560 H 0.34972 0.73806 0.46624 0.0
H1561 H 0.24532 0.7297 0.46312 0.0
H1562 H 0.22394 0.7446 0.44444 0.0
H1563 H 0.18843 0.73933 0.47967 0.0
H1564 H 0.22321 0.77439 0.56614 0.0
H1565 H 0.1863 0.79172 0.53165 0.0
H1566 H 0.23284 0.76914 0.45019 0.0
C1567 C 0.29396 0.72851 0.5274 0.0
C1568 C 0.29144 0.72459 0.55914 0.0
C1569 C 0.27632 0.73381 0.5822 0.0
C1570 C 0.26355 0.74669 0.5739 0.0
C1571 C 0.26596 0.75019 0.54241 0.0
C1572 C 0.2805 0.74137 0.51947 0.0
C1573 C 0.2745 0.74732 0.4871 0.0
C1574 C 0.33283 0.74799 0.47052 0.0
C1575 C 0.23042 0.73979 0.46744 0.0
C1576 C 0.25297 0.76079 0.4954 0.0
C1577 C 0.2493 0.76226 0.52751 0.0
C1578 C 0.22685 0.77345 0.54103 0.0
C1579 C 0.20617 0.78324 0.5213 0.0
C1580 C 0.20814 0.78183 0.48844 0.0
C1581 C 0.23281 0.77059 0.47525 0.0
H1582 H 0.65288 0.47779 0.22482 0.0
H1583 H 0.76234 0.47008 0.3046 0.0
H1584 H 0.8176 0.49015 0.29271 0.0
H1585 H 0.76503 0.49055 0.17379 0.0
H1586 H 0.71785 0.50236 0.15626 0.0
H1587 H 0.68948 0.48719 0.17058 0.0
H1588 H 0.61772 0.49975 0.2055 0.0
H1589 H 0.64595 0.51494 0.19139 0.0
H1590 H 0.6443 0.51164 0.23278 0.0
H1591 H 0.85439 0.51226 0.27431 0.0
H1592 H 0.87431 0.53346 0.24922 0.0
H1593 H 0.74328 0.52565 0.17986 0.0
C1594 C 0.68874 0.48026 0.23973 0.0
C1595 C 0.70322 0.47246 0.26579 0.0
C1596 C 0.75072 0.47593 0.28451 0.0
C1597 C 0.78216 0.4873 0.27794 0.0
C1598 C 0.76602 0.49489 0.25225 0.0
C1599 C 0.72087 0.49137 0.23322 0.0
C1600 C 0.71141 0.50115 0.20725 0.0
C1601 C 0.72157 0.49494 0.17507 0.0
C1602 C 0.65129 0.50723 0.20938 0.0
C1603 C 0.75751 0.51095 0.21493 0.0
C1604 C 0.78852 0.50722 0.24101 0.0
C1605 C 0.83096 0.51516 0.25361 0.0
C1606 C 0.84181 0.5272 0.23925 0.0
C1607 C 0.81075 0.53116 0.21237 0.0
C1608 C 0.7685 0.52281 0.19999 0.0
H1609 H 0.70979 0.22412 0.55506 0.0
H1610 H 0.8846 0.22529 0.52068 0.0
H1611 H 0.87154 0.24812 0.50473 0.0
H1612 H 0.65086 0.24176 0.49289 0.0
H1613 H 0.59879 0.25039 0.51601 0.0
H1614 H 0.62389 0.23471 0.52859 0.0
H1615 H 0.6547 0.24449 0.58177 0.0
H1616 H 0.6296 0.26024 0.56932 0.0
H1617 H 0.70244 0.25826 0.58244 0.0
H1618 H 0.83785 0.27032 0.48892 0.0
H1619 H 0.78381 0.28983 0.47223 0.0
H1620 H 0.63042 0.27403 0.51527 0.0
C1621 C 0.74561 0.22929 0.54482 0.0
C1622 C 0.79828 0.22296 0.53928 0.0
C1623 C 0.8438 0.22995 0.52511 0.0
C1624 C 0.83695 0.24295 0.51612 0.0
C1625 C 0.78423 0.24886 0.52132 0.0
C1626 C 0.73925 0.24227 0.53527 0.0
C1627 C 0.68555 0.25052 0.5356 0.0
C1628 C 0.63693 0.24396 0.51717 0.0
C1629 C 0.667 0.25356 0.56929 0.0
C1630 C 0.7071 0.26262 0.51906 0.0
C1631 C 0.76436 0.26156 0.51146 0.0
C1632 C 0.79307 0.27132 0.495 0.0
C1633 C 0.76212 0.28237 0.48562 0.0
C1634 C 0.70303 0.28346 0.49244 0.0
C1635 C 0.67565 0.27351 0.50979 0.0
H1636 H 0.59405 0.26976 0.73272 0.0
H1637 H 0.45295 0.28388 0.78919 0.0
H1638 H 0.39512 0.26476 0.77356 0.0
H1639 H 0.50607 0.25648 0.66906 0.0
H1640 H 0.55338 0.24286 0.66327 0.0
H1641 H 0.58148 0.25809 0.67724 0.0
H1642 H 0.62475 0.24633 0.72538 0.0
H1643 H 0.59673 0.2311 0.71163 0.0
H1644 H 0.57878 0.23674 0.75026 0.0
H1645 H 0.3568 0.24288 0.75568 0.0
H1646 H 0.33934 0.22079 0.73527 0.0
H1647 H 0.50457 0.2216 0.68881 0.0
C1648 C 0.55071 0.26894 0.74153 0.0
C1649 C 0.52798 0.2783 0.76225 0.0
C1650 C 0.47112 0.27685 0.77321 0.0
C1651 C 0.43803 0.26602 0.76446 0.0
C1652 C 0.46219 0.25685 0.74439 0.0
C1653 C 0.51705 0.2583 0.73278 0.0
C1654 C 0.53392 0.24692 0.71235 0.0
C1655 C 0.54431 0.25136 0.67847 0.0
C1656 C 0.58665 0.23986 0.72572 0.0
C1657 C 0.48057 0.23862 0.7149 0.0
C1658 C 0.43959 0.24451 0.73341 0.0
C1659 C 0.38824 0.23829 0.74076 0.0
C1660 C 0.37877 0.22571 0.7291 0.0
C1661 C 0.42028 0.21948 0.71013 0.0
C1662 C 0.47146 0.22616 0.7027 0.0
H1663 H 0.49005 0.03699 0.48752 0.0
H1664 H 0.41432 0.02203 0.5728 0.0
H1665 H 0.43105 0.99953 0.55464 0.0
H1666 H 0.44201 0.01117 0.43435 0.0
H1667 H 0.50862 0.01077 0.41307 0.0
H1668 H 0.48483 0.02568 0.43088 0.0
H1669 H 0.58048 0.02734 0.46128 0.0
H1670 H 0.60464 0.01249 0.44348 0.0
H1671 H 0.60322 0.01392 0.48546 0.0
H1672 H 0.45704 0.97887 0.52808 0.0
H1673 H 0.50188 0.96113 0.49787 0.0
H1674 H 0.56991 0.98921 0.43197 0.0
C1675 C 0.4763 0.02893 0.50201 0.0
C1676 C 0.45013 0.03112 0.53129 0.0
C1677 C 0.43401 0.02044 0.55019 0.0
C1678 C 0.44309 0.00768 0.54 0.0
C1679 C 0.46924 0.00578 0.51108 0.0
C1680 C 0.4865 0.01609 0.49252 0.0
C1681 C 0.51874 0.01132 0.46392 0.0
C1682 C 0.48663 0.01495 0.43377 0.0
C1683 C 0.58043 0.01658 0.46353 0.0
C1684 C 0.51752 0.99675 0.46956 0.0
C1685 C 0.48746 0.9938 0.49653 0.0
C1686 C 0.48049 0.98105 0.50688 0.0
C1687 C 0.50582 0.97105 0.48957 0.0
C1688 C 0.53852 0.97388 0.46261 0.0
C1689 C 0.54433 0.98686 0.45233 0.0
H1690 H 0.60192 0.77052 0.23599 0.0
H1691 H 0.44118 0.7865 0.26917 0.0
H1692 H 0.38946 0.76779 0.24611 0.0
H1693 H 0.54537 0.75712 0.16195 0.0
H1694 H 0.59128 0.74307 0.16407 0.0
H1695 H 0.61441 0.75829 0.18058 0.0
H1696 H 0.63088 0.747 0.23405 0.0
H1697 H 0.60796 0.73178 0.21775 0.0
H1698 H 0.57292 0.73813 0.25201 0.0
H1699 H 0.35776 0.74595 0.22565 0.0
H1700 H 0.34764 0.72328 0.20744 0.0
H1701 H 0.5285 0.72222 0.18474 0.0
C1702 C 0.5557 0.7702 0.23804 0.0
C1703 C 0.52545 0.77993 0.25446 0.0
C1704 C 0.46508 0.77916 0.2566 0.0
C1705 C 0.43544 0.76858 0.24355 0.0
C1706 C 0.4668 0.75902 0.22796 0.0
C1707 C 0.52556 0.75984 0.22482 0.0
C1708 C 0.5497 0.74803 0.20833 0.0
C1709 C 0.57678 0.75186 0.17686 0.0
C1710 C 0.59289 0.74081 0.22929 0.0
C1711 C 0.4956 0.74017 0.20363 0.0
C1712 C 0.44818 0.7467 0.21501 0.0
C1713 C 0.39432 0.74088 0.21603 0.0
C1714 C 0.389 0.728 0.20569 0.0
C1715 C 0.43709 0.72112 0.19417 0.0
C1716 C 0.49074 0.7274 0.19252 0.0
H1717 H 0.61404 0.47743 0.00602 0.0
H1718 H 0.46976 0.46694 0.94749 0.0
H1719 H 0.4195 0.48704 0.96365 0.0
H1720 H 0.52621 0.49161 0.06972 0.0
H1721 H 0.57868 0.50399 0.07793 0.0
H1722 H 0.60115 0.48841 0.06315 0.0
H1723 H 0.65347 0.49991 0.01737 0.0
H1724 H 0.63071 0.51548 0.03178 0.0
H1725 H 0.614 0.51078 -0.00775 0.0
H1726 H 0.39022 0.50933 0.98182 0.0
H1727 H 0.3787 0.53111 0.00467 0.0
H1728 H 0.53999 0.52655 0.05406 0.0
C1729 C 0.57145 0.47928 -0.00299 0.0
C1730 C 0.5456 0.47069 0.97551 0.0
C1731 C 0.48992 0.47337 0.96421 0.0
C1732 C 0.46127 0.48477 0.97316 0.0
C1733 C 0.48847 0.49319 -0.00605 0.0
C1734 C 0.54182 0.49045 0.00624 0.0
C1735 C 0.56178 0.50112 0.02807 0.0
C1736 C 0.56727 0.49597 0.06171 0.0
C1737 C 0.61833 0.50718 0.01666 0.0
C1738 C 0.5124 0.51059 0.02513 0.0
C1739 C 0.47054 0.50581 0.00538 0.0
C1740 C 0.42224 0.51306 -0.00227 0.0
C1741 C 0.41629 0.52548 0.01075 0.0
C1742 C 0.45827 0.53056 0.03139 0.0
C1743 C 0.5068 0.52292 0.03872 0.0
H1744 H 0.22104 0.32971 0.1709 0.0
H1745 H 0.04984 0.3388 0.20331 0.0
H1746 H 0.02135 0.34454 0.14939 0.0
H1747 H 0.22839 0.35378 0.10431 0.0
H1748 H 0.26482 0.34221 0.07978 0.0
H1749 H 0.27578 0.34192 0.1215 0.0
H1750 H 0.24557 0.31766 0.12304 0.0
H1751 H 0.23454 0.31788 0.08152 0.0
H1752 H 0.17711 0.31298 0.10713 0.0
H1753 H 0.00783 0.34628 0.09224 0.0
H1754 H 0.00687 0.3418 0.03574 0.0
H1755 H 0.18567 0.33032 0.04029 0.0
C1756 C 0.17824 0.33337 0.16668 0.0
C1757 C 0.13775 0.33405 0.19098 0.0
C1758 C 0.08139 0.33835 0.18477 0.0
C1759 C 0.06507 0.34173 0.15436 0.0
C1760 C 0.10561 0.34064 0.13061 0.0
C1761 C 0.16098 0.33649 0.13639 0.0
C1762 C 0.1933 0.33402 0.10637 0.0
C1763 C 0.24354 0.34355 0.10278 0.0
C1764 C 0.21377 0.3198 0.10442 0.0
C1765 C 0.14665 0.33684 0.08287 0.0
C1766 C 0.09702 0.34105 0.09725 0.0
C1767 C 0.04669 0.34322 0.0806 0.0
C1768 C 0.04659 0.34063 0.04851 0.0
C1769 C 0.0962 0.33567 0.03368 0.0
C1770 C 0.1472 0.33416 0.05097 0.0
H1771 H 0.14383 0.94477 0.03902 0.0
H1772 H 0.09197 0.90584 0.01317 0.0
H1773 H 0.07134 0.90077 0.06888 0.0
H1774 H 0.21538 0.93624 0.10988 0.0
H1775 H 0.19222 0.95055 0.13057 0.0
H1776 H 0.20089 0.95107 0.08878 0.0
H1777 H 0.09587 0.95892 0.08261 0.0
H1778 H 0.08698 0.95845 0.12442 0.0
H1779 H 0.03872 0.94949 0.09964 0.0
H1780 H 0.05417 0.90042 0.12697 0.0
H1781 H 0.04734 0.90427 0.18403 0.0
H1782 H 0.11637 0.94305 0.1711 0.0
C1783 C 0.12812 0.9352 0.0453 0.0
C1784 C 0.11915 0.92564 0.02251 0.0
C1785 C 0.09876 0.9132 0.03086 0.0
C1786 C 0.08697 0.91028 0.06221 0.0
C1787 C 0.09628 0.91995 0.08442 0.0
C1788 C 0.11671 0.93213 0.07635 0.0
C1789 C 0.12401 0.94073 0.10456 0.0
C1790 C 0.18687 0.94489 0.10868 0.0
C1791 C 0.08401 0.9526 0.10269 0.0
C1792 C 0.10538 0.93143 0.12988 0.0
C1793 C 0.08862 0.91957 0.11782 0.0
C1794 C 0.06757 0.90962 0.13675 0.0
C1795 C 0.06374 0.91188 0.16895 0.0
C1796 C 0.082 0.92387 0.18158 0.0
C1797 C 0.10314 0.93372 0.16186 0.0
H1798 H 0.85112 0.6895 0.78791 0.0
H1799 H 0.03553 0.69197 0.77611 0.0
H1800 H 0.047 0.69296 0.83362 0.0
H1801 H 0.83989 0.71058 0.85706 0.0
H1802 H 0.78454 0.70064 0.87419 0.0
H1803 H 0.79091 0.70181 0.83229 0.0
H1804 H 0.79818 0.67672 0.82875 0.0
H1805 H 0.79227 0.67546 0.87056 0.0
H1806 H 0.85278 0.66835 0.85078 0.0
H1807 H 0.03822 0.69183 0.89189 0.0
H1808 H 0.01096 0.68834 0.94686 0.0
H1809 H 0.83196 0.68599 0.91987 0.0
C1810 C 0.89396 0.6905 0.79731 0.0
C1811 C 0.94253 0.69071 0.77766 0.0
C1812 C 0.99782 0.69185 0.79086 0.0
C1813 C 0.00466 0.69245 0.8234 0.0
C1814 C 0.95574 0.69193 0.84211 0.0
C1815 C 0.90147 0.69102 0.82951 0.0
C1816 C 0.85614 0.68961 0.85454 0.0
C1817 C 0.81548 0.70136 0.85451 0.0
C1818 C 0.82293 0.67677 0.85093 0.0
C1819 C 0.89351 0.68948 0.88329 0.0
C1820 C 0.95071 0.69103 0.87565 0.0
C1821 C 0.99357 0.69074 0.89817 0.0
C1822 C 0.97758 0.68871 0.92931 0.0
C1823 C 0.91928 0.68688 0.93753 0.0
C1824 C 0.87677 0.68739 0.91424 0.0
H1825 H 0.81111 0.07284 0.81139 0.0
H1826 H 0.98331 0.08395 0.78427 0.0
H1827 H 0.01172 0.08498 0.83964 0.0
H1828 H 0.80496 0.09211 0.8856 0.0
H1829 H 0.76657 0.07945 0.90592 0.0
H1830 H 0.75701 0.08159 0.86442 0.0
H1831 H 0.78477 0.05749 0.85575 0.0
H1832 H 0.79538 0.05533 0.8971 0.0
H1833 H 0.85253 0.05162 0.87023 0.0
H1834 H 0.0251 0.08233 0.89613 0.0
H1835 H 0.02153 0.07742 0.95239 0.0
H1836 H 0.84122 0.06754 0.94412 0.0
C1837 C 0.85407 0.07594 0.81734 0.0
C1838 C 0.89499 0.07849 0.79388 0.0
C1839 C 0.95146 0.08206 0.80214 0.0
C1840 C 0.96795 0.08267 0.83345 0.0
C1841 C 0.92744 0.07962 0.85611 0.0
C1842 C 0.87153 0.07642 0.84864 0.0
C1843 C 0.83824 0.07247 0.87757 0.0
C1844 C 0.78877 0.08198 0.88374 0.0
C1845 C 0.81647 0.05839 0.87499 0.0
C1846 C 0.88461 0.07368 0.90217 0.0
C1847 C 0.93552 0.07789 0.8892 0.0
C1848 C 0.98533 0.0792 0.90674 0.0
C1849 C 0.98292 0.0763 0.93863 0.0
C1850 C 0.93109 0.07213 0.95258 0.0
C1851 C 0.88136 0.07077 0.93407 0.0
H1852 H 0.10615 0.82403 0.68777 0.0
H1853 H 0.29213 0.82371 0.68499 0.0
H1854 H 0.28931 0.82813 0.62834 0.0
H1855 H 0.08409 0.80741 0.61947 0.0
H1856 H 0.02213 0.81654 0.6072 0.0
H1857 H 0.03898 0.81519 0.64805 0.0
H1858 H 0.04035 0.84033 0.65264 0.0
H1859 H 0.02359 0.84175 0.61164 0.0
H1860 H 0.08614 0.8497 0.62721 0.0
H1861 H 0.26635 0.82917 0.57163 0.0
H1862 H 0.22449 0.82739 0.51883 0.0
H1863 H 0.05387 0.82811 0.55907 0.0
C1864 C 0.14634 0.8251 0.67538 0.0
C1865 C 0.19931 0.8235 0.69072 0.0
C1866 C 0.25099 0.82496 0.67369 0.0
C1867 C 0.24987 0.82752 0.64155 0.0
C1868 C 0.19682 0.82881 0.62704 0.0
C1869 C 0.14601 0.8278 0.64345 0.0
C1870 C 0.09472 0.82859 0.62203 0.0
C1871 C 0.05786 0.81619 0.62433 0.0
C1872 C 0.05911 0.84082 0.62879 0.0
C1873 C 0.12468 0.82959 0.59084 0.0
C1874 C 0.18356 0.82985 0.59422 0.0
C1875 C 0.22033 0.82932 0.56863 0.0
C1876 C 0.19621 0.82826 0.5388 0.0
C1877 C 0.13601 0.82779 0.53498 0.0
C1878 C 0.09998 0.82881 0.56128 0.0
H1879 H 0.12894 0.43912 0.68576 0.0
H1880 H 0.10556 0.39781 0.70062 0.0
H1881 H 0.11057 0.39418 0.6433 0.0
H1882 H 0.03706 0.44099 0.62091 0.0
H1883 H 0.07814 0.45324 0.60071 0.0
H1884 H 0.08006 0.45236 0.64272 0.0
H1885 H 0.19059 0.45031 0.64164 0.0
H1886 H 0.18929 0.45142 0.59965 0.0
H1887 H 0.22346 0.43777 0.61839 0.0
H1888 H 0.11913 0.39537 0.58445 0.0
H1889 H 0.12385 0.40138 0.52823 0.0
H1890 H 0.12913 0.44213 0.55323 0.0
C1891 C 0.12647 0.42929 0.67688 0.0
C1892 C 0.11843 0.41868 0.69713 0.0
C1893 C 0.11273 0.40598 0.68507 0.0
C1894 C 0.11543 0.40386 0.65275 0.0
C1895 C 0.12239 0.41462 0.63323 0.0
C1896 C 0.12728 0.4271 0.64487 0.0
C1897 C 0.12948 0.43713 0.61915 0.0
C1898 C 0.07811 0.44647 0.62099 0.0
C1899 C 0.18661 0.44459 0.61975 0.0
C1900 C 0.12534 0.42836 0.59108 0.0
C1901 C 0.12219 0.4154 0.59958 0.0
C1902 C 0.12087 0.40548 0.57748 0.0
C1903 C 0.12338 0.40894 0.54581 0.0
C1904 C 0.12557 0.42216 0.53699 0.0
C1905 C 0.12602 0.43197 0.55974 0.0
H1906 H 0.85088 0.18793 0.29115 0.0
H1907 H 0.03411 0.19459 0.28465 0.0
H1908 H 0.03969 0.19606 0.34221 0.0
H1909 H 0.82357 0.20897 0.35876 0.0
H1910 H 0.77175 0.19794 0.37533 0.0
H1911 H 0.78123 0.19875 0.33356 0.0
H1912 H 0.80068 0.17396 0.33226 0.0
H1913 H 0.79163 0.17308 0.37398 0.0
H1914 H 0.85682 0.16726 0.35631 0.0
H1915 H 0.02642 0.19561 0.39976 0.0
H1916 H 0.99604 0.1928 0.45442 0.0
H1917 H 0.82155 0.18564 0.4237 0.0
C1918 C 0.89198 0.18994 0.30183 0.0
C1919 C 0.94207 0.19124 0.28362 0.0
C1920 C 0.99529 0.19359 0.29832 0.0
C1921 C -0.00118 0.19449 0.33091 0.0
C1922 C 0.94876 0.19294 0.34825 0.0
C1923 C 0.89635 0.1907 0.33429 0.0
C1924 C 0.84979 0.1885 0.35837 0.0
C1925 C 0.80388 0.19918 0.35638 0.0
C1926 C 0.8232 0.17489 0.35502 0.0
C1927 C 0.88447 0.18963 0.38808 0.0
C1928 C 0.94129 0.19234 0.38165 0.0
C1929 C 0.98202 0.19356 0.40514 0.0
C1930 C 0.96428 0.19192 0.43609 0.0
C1931 C 0.90642 0.18899 0.44324 0.0
C1932 C 0.86601 0.18788 0.41889 0.0
H1933 H 0.91934 0.5714 0.44009 0.0
H1934 H 0.74051 0.56569 0.46435 0.0
H1935 H 0.71398 0.56756 0.40865 0.0
H1936 H 0.89624 0.59506 0.3802 0.0
H1937 H 0.95262 0.589 0.35542 0.0
H1938 H 0.95748 0.58704 0.39717 0.0
H1939 H 0.96925 0.56213 0.39053 0.0
H1940 H 0.96509 0.56403 0.34877 0.0
H1941 H 0.9165 0.55317 0.36859 0.0
H1942 H 0.70726 0.57024 0.3499 0.0
H1943 H 0.72232 0.57232 0.2927 0.0
H1944 H 0.90508 0.5765 0.30845 0.0
C1945 C 0.87465 0.57046 0.43369 0.0
C1946 C 0.83202 0.5684 0.45644 0.0
C1947 C 0.77393 0.56726 0.44719 0.0
C1948 C 0.75838 0.56835 0.41567 0.0
C1949 C 0.80145 0.57059 0.39382 0.0
C1950 C 0.8584 0.57155 0.40244 0.0
C1951 C 0.89656 0.57387 0.37452 0.0
C1952 C 0.92753 0.58702 0.37699 0.0
C1953 C 0.93935 0.56263 0.37036 0.0
C1954 C 0.85223 0.57401 0.34885 0.0
C1955 C 0.79754 0.57216 0.36031 0.0
C1956 C 0.7499 0.57172 0.34063 0.0
C1957 C 0.75875 0.57297 0.30828 0.0
C1958 C 0.81475 0.57458 0.29625 0.0
C1959 C 0.86168 0.5753 0.31693 0.0
H1960 H 0.51818 0.31485 0.56567 0.0
H1961 H 0.64823 0.34209 0.53511 0.0
H1962 H 0.67282 0.34675 0.59021 0.0
H1963 H 0.47662 0.33144 0.64029 0.0
H1964 H 0.47047 0.31621 0.66093 0.0
H1965 H 0.45486 0.31699 0.6197 0.0
H1966 H 0.52897 0.29874 0.60938 0.0
H1967 H 0.54477 0.29792 0.65045 0.0
H1968 H 0.60164 0.30078 0.62277 0.0
H1969 H 0.69067 0.34658 0.64667 0.0
H1970 H 0.70716 0.34045 0.70143 0.0
H1971 H 0.56896 0.31226 0.69598 0.0
C1972 C 0.5505 0.32209 0.57085 0.0
C1973 C 0.58079 0.32837 0.54671 0.0
C1974 C 0.62442 0.33738 0.5537 0.0
C1975 C 0.63827 0.34013 0.58478 0.0
C1976 C 0.60837 0.33362 0.60827 0.0
C1977 C 0.56568 0.32471 0.60176 0.0
C1978 C 0.54624 0.31767 0.63102 0.0
C1979 C 0.4833 0.32077 0.63842 0.0
C1980 C 0.55603 0.30291 0.62823 0.0
C1981 C 0.58605 0.32371 0.6548 0.0
C1982 C 0.62048 0.33309 0.64123 0.0
C1983 C 0.66358 0.33937 0.65771 0.0
C1984 C 0.67281 0.33574 0.68875 0.0
C1985 C 0.63948 0.32582 0.70287 0.0
C1986 C 0.59457 0.31998 0.68589 0.0
H1987 H 0.61476 0.91315 0.54549 0.0
H1988 H 0.59893 0.95451 0.52821 0.0
H1989 H 0.61552 0.95885 0.58435 0.0
H1990 H 0.54413 0.91345 0.62305 0.0
H1991 H 0.59077 0.90079 0.63722 0.0
H1992 H 0.57241 0.90151 0.59642 0.0
H1993 H 0.68106 0.9017 0.58339 0.0
H1994 H 0.69955 0.90182 0.62425 0.0
H1995 H 0.72571 0.91447 0.59876 0.0
H1996 H 0.64523 0.95861 0.64095 0.0
H1997 H 0.65503 0.95362 0.69728 0.0
H1998 H 0.64918 0.91245 0.67681 0.0
C1999 C 0.6124 0.92307 0.55386 0.0
C2000 C 0.60505 0.9335 0.53297 0.0
C2001 C 0.60321 0.9464 0.54426 0.0
C2002 C 0.61385 0.94896 0.57587 0.0
C2003 C 0.62533 0.93847 0.59553 0.0
C2004 C 0.62228 0.92577 0.58523 0.0
C2005 C 0.63479 0.9162 0.61109 0.0
C2006 C 0.58241 0.90748 0.61733 0.0
C2007 C 0.68847 0.90807 0.60392 0.0
C2008 C 0.64557 0.92551 0.63763 0.0
C2009 C 0.6414 0.93832 0.62806 0.0
C2010 C 0.64838 0.94863 0.64877 0.0
C2011 C 0.65506 0.94572 0.68056 0.0
C2012 C 0.65342 0.93267 0.6909 0.0
C2013 C 0.65178 0.92247 0.66913 0.0
H2014 H 0.42159 0.68157 0.45083 0.0
H2015 H 0.24792 0.6963 0.4577 0.0
H2016 H 0.24702 0.70028 0.40069 0.0
H2017 H 0.47165 0.70323 0.38822 0.0
H2018 H 0.51262 0.69065 0.36935 0.0
H2019 H 0.50217 0.69023 0.41109 0.0
H2020 H 0.45938 0.66705 0.40699 0.0
H2021 H 0.4701 0.66736 0.36535 0.0
H2022 H 0.39982 0.6642 0.38108 0.0
H2023 H 0.26253 0.7015 0.34379 0.0
H2024 H 0.28936 0.6981 0.2889 0.0
H2025 H 0.45263 0.68192 0.31803 0.0
C2026 C 0.38367 0.68578 0.44029 0.0
C2027 C 0.33482 0.68869 0.45839 0.0
C2028 C 0.28554 0.69395 0.444 0.0
C2029 C 0.2849 0.69636 0.4118 0.0
C2030 C 0.33375 0.69335 0.39454 0.0
C2031 C 0.38204 0.68805 0.40815 0.0
C2032 C 0.42675 0.6846 0.38388 0.0
C2033 C 0.48153 0.69266 0.38841 0.0
C2034 C 0.43974 0.66993 0.38436 0.0
C2035 C 0.39549 0.68854 0.35437 0.0
C2036 C 0.34236 0.69377 0.36124 0.0
C2037 C 0.30409 0.6975 0.33807 0.0
C2038 C 0.31971 0.69547 0.307 0.0
C2039 C 0.37298 0.68969 0.29937 0.0
C2040 C 0.412 0.68649 0.3233 0.0
H2041 H 0.4403 0.06794 0.43069 0.0
H2042 H 0.26774 0.07931 0.45642 0.0
H2043 H 0.23833 0.07841 0.40114 0.0
H2044 H 0.44618 0.08527 0.35598 0.0
H2045 H 0.48519 0.07244 0.33682 0.0
H2046 H 0.49355 0.07495 0.37821 0.0
H2047 H 0.46535 0.05092 0.38824 0.0
H2048 H 0.45603 0.0484 0.34691 0.0
H2049 H 0.39808 0.04491 0.37348 0.0
H2050 H 0.22646 0.07557 0.34358 0.0
H2051 H 0.2346 0.07179 0.28665 0.0
H2052 H 0.41353 0.06141 0.29879 0.0
C2053 C 0.39678 0.07051 0.42448 0.0
C2054 C 0.35635 0.0738 0.44758 0.0
C2055 C 0.29932 0.0768 0.43888 0.0
C2056 C 0.28216 0.07629 0.40762 0.0
C2057 C 0.32247 0.07266 0.3854 0.0
C2058 C 0.37864 0.06987 0.39332 0.0
C2059 C 0.41263 0.06569 0.36498 0.0
C2060 C 0.46231 0.07516 0.35862 0.0
C2061 C 0.43428 0.05165 0.36863 0.0
C2062 C 0.36685 0.06666 0.34002 0.0
C2063 C 0.31516 0.07069 0.35225 0.0
C2064 C 0.26671 0.0724 0.33363 0.0
C2065 C 0.27162 0.07018 0.30141 0.0
C2066 C 0.32452 0.06627 0.28837 0.0
C2067 C 0.37235 0.06432 0.30808 0.0
H2068 H 0.54516 0.82116 0.06805 0.0
H2069 H 0.71968 0.82497 0.03431 0.0
H2070 H 0.75419 0.82679 0.08868 0.0
H2071 H 0.55803 0.84265 0.13681 0.0
H2072 H 0.51399 0.8322 0.16066 0.0
H2073 H 0.5022 0.83307 0.11907 0.0
H2074 H 0.51411 0.80807 0.11523 0.0
H2075 H 0.52631 0.80713 0.15668 0.0
H2076 H 0.57853 0.8006 0.12997 0.0
H2077 H 0.77033 0.82651 0.14602 0.0
H2078 H 0.76801 0.82331 0.20305 0.0
H2079 H 0.58304 0.8187 0.19924 0.0
C2080 C 0.59042 0.82273 0.07213 0.0
C2081 C 0.62981 0.82309 0.04719 0.0
C2082 C 0.68894 0.82473 0.05327 0.0
C2083 C 0.70885 0.82584 0.08398 0.0
C2084 C 0.66901 0.82518 0.10814 0.0
C2085 C 0.61108 0.82363 0.10261 0.0
C2086 C 0.57802 0.8219 0.13272 0.0
C2087 C 0.53556 0.83313 0.1376 0.0
C2088 C 0.54747 0.80864 0.13369 0.0
C2089 C 0.62662 0.82247 0.15597 0.0
C2090 C 0.67858 0.82456 0.14135 0.0
C2091 C 0.72988 0.82499 0.15783 0.0
C2092 C 0.72806 0.82313 0.1902 0.0
C2093 C 0.67532 0.82074 0.2056 0.0
C2094 C 0.62402 0.82052 0.18819 0.0
H2095 H 0.60881 0.42366 0.03471 0.0
H2096 H 0.78325 0.43817 0.0344 0.0
H2097 H 0.78477 0.43746 0.09218 0.0
H2098 H 0.55899 0.44097 0.09817 0.0
H2099 H 0.51531 0.42806 0.11387 0.0
H2100 H 0.53035 0.42863 0.0727 0.0
H2101 H 0.57172 0.40525 0.07532 0.0
H2102 H 0.55689 0.40462 0.11665 0.0
H2103 H 0.62842 0.40161 0.10256 0.0
H2104 H 0.76259 0.43758 0.14972 0.0
H2105 H 0.71971 0.43766 0.20253 0.0
H2106 H 0.56224 0.4218 0.16414 0.0
C2107 C 0.64749 0.42653 0.04687 0.0
C2108 C 0.69581 0.43099 0.03042 0.0
C2109 C 0.74592 0.43463 0.04684 0.0
C2110 C 0.74721 0.43425 0.07955 0.0
C2111 C 0.69851 0.42992 0.09519 0.0
C2112 C 0.64991 0.42594 0.07935 0.0
C2113 C 0.60262 0.42211 0.10153 0.0
C2114 C 0.54868 0.43045 0.09625 0.0
C2115 C 0.58914 0.40753 0.09885 0.0
C2116 C 0.63112 0.42519 0.13227 0.0
C2117 C 0.68658 0.42955 0.12826 0.0
C2118 C 0.7196 0.43392 0.15326 0.0
C2119 C 0.69485 0.43395 0.18313 0.0
C2120 C 0.63769 0.42968 0.18751 0.0
C2121 C 0.6062 0.42501 0.16174 0.0
H2122 H 0.42589 0.18643 0.82082 0.0
H2123 H 0.24647 0.18122 0.79707 0.0
H2124 H 0.21974 0.18434 0.85209 0.0
H2125 H 0.42148 0.16955 0.89328 0.0
H2126 H 0.46987 0.18045 0.913 0.0
H2127 H 0.47489 0.17836 0.87134 0.0
H2128 H 0.46354 0.20323 0.86355 0.0
H2129 H 0.45815 0.20538 0.90524 0.0
H2130 H 0.40227 0.21139 0.88001 0.0
H2131 H 0.21221 0.18689 0.90988 0.0
H2132 H 0.22573 0.18848 0.96713 0.0
H2133 H 0.40905 0.19263 0.95298 0.0
C2134 C 0.38107 0.18598 0.82724 0.0
C2135 C 0.33838 0.18358 0.80471 0.0
C2136 C 0.28004 0.18308 0.81395 0.0
C2137 C 0.26426 0.18487 0.84514 0.0
C2138 C 0.30724 0.18725 0.86681 0.0
C2139 C 0.36441 0.18784 0.85834 0.0
C2140 C 0.40207 0.19023 0.88647 0.0
C2141 C 0.44456 0.17897 0.8913 0.0
C2142 C 0.43334 0.20334 0.88364 0.0
C2143 C 0.35721 0.19057 0.912 0.0
C2144 C 0.30273 0.18893 0.90018 0.0
C2145 C 0.25462 0.18832 0.91948 0.0
C2146 C 0.26263 0.18923 0.95189 0.0
C2147 C 0.31828 0.19073 0.96441 0.0
C2148 C 0.36585 0.19161 0.94409 0.0
H2149 H 0.4334 0.57004 0.93468 0.0
H2150 H 0.25568 0.57105 0.96439 0.0
H2151 H 0.22445 0.56917 0.90952 0.0
H2152 H 0.41499 0.5883 0.86262 0.0
H2153 H 0.46563 0.57852 0.84129 0.0
H2154 H 0.47371 0.58061 0.88283 0.0
H2155 H 0.47355 0.55559 0.89009 0.0
H2156 H 0.46474 0.55343 0.84861 0.0
H2157 H 0.4142 0.54621 0.87537 0.0
H2158 H 0.21241 0.56693 0.85162 0.0
H2159 H 0.22097 0.56486 0.79419 0.0
H2160 H 0.40626 0.56438 0.80285 0.0
C2161 C 0.38798 0.57004 0.92954 0.0
C2162 C 0.34692 0.57074 0.95363 0.0
C2163 C 0.28782 0.57052 0.94617 0.0
C2164 C 0.26963 0.56944 0.91512 0.0
C2165 C 0.31112 0.56851 0.89191 0.0
C2166 C 0.36905 0.56882 0.8987 0.0
C2167 C 0.40476 0.56729 0.86946 0.0
C2168 C 0.44195 0.5794 0.86371 0.0
C2169 C 0.44146 0.55489 0.87099 0.0
C2170 C 0.35784 0.56609 0.84526 0.0
C2171 C 0.30414 0.56686 0.85864 0.0
C2172 C 0.25423 0.56627 0.84082 0.0
C2173 C 0.25946 0.56506 0.8083 0.0
C2174 C 0.31418 0.56437 0.79419 0.0
C2175 C 0.3638 0.56474 0.81302 0.0
loop_
_geom_bond_atom_site_label_1
_geom_bond_atom_site_label_2
_geom_bond_distance
_geom_bond_site_symmetry_2
_ccdc_geom_bond_type
Co0 O1 2.216 . S
Co0 O2 2.091 . S
Co0 O4 2.004 . S
Co0 O10 2.021 . S
Co0 O12 2.137 . S
Co0 O13 2.244 . S
O1 Co0 2.216 . S
O1 C8 1.247 . S
O2 Co0 2.091 . S
O2 C8 1.261 . S
C3 O12 1.247 . S
C3 O13 1.272 . S
O4 Co0 2.004 . S
O4 C9 1.259 . S
Co5 O6 2.061 . S
Co5 O11 2.052 . S
Co5 O13 2.135 . S
O6 Co5 2.061 . S
O6 C9 1.235 . S
C7 O10 1.238 . S
C7 O11 1.241 . S
C8 O1 1.247 . S
C8 O2 1.261 . S
C9 O4 1.259 . S
C9 O6 1.235 . S
O10 Co0 2.021 . S
O10 C7 1.238 . S
O11 Co5 2.052 . S
O11 C7 1.241 . S
O12 Co0 2.137 . S
O12 C3 1.247 . S
O13 Co0 2.244 . S
O13 C3 1.272 . S
O13 Co5 2.135 . S
Co14 O15 2.216 . S
Co14 O16 2.091 . S
Co14 O18 2.004 . S
Co14 O24 2.021 . S
Co14 O26 2.137 . S
Co14 O27 2.244 . S
O15 Co14 2.216 . S
O15 C22 1.247 . S
O16 Co14 2.091 . S
O16 C22 1.261 . S
C17 O26 1.247 . S
C17 O27 1.272 . S
O18 Co14 2.004 . S
O18 C23 1.259 . S
Co19 O20 2.061 . S
Co19 O25 2.052 . S
Co19 O27 2.135 . S
O20 Co19 2.061 . S
O20 C23 1.235 . S
C21 O24 1.238 . S
C21 O25 1.241 . S
C22 O15 1.247 . S
C22 O16 1.261 . S
C23 O18 1.259 . S
C23 O20 1.235 . S
O24 Co14 2.021 . S
O24 C21 1.238 . S
O25 Co19 2.052 . S
O25 C21 1.241 . S
O26 Co14 2.137 . S
O26 C17 1.247 . S
O27 Co14 2.244 . S
O27 C17 1.272 . S
O27 Co19 2.135 . S
Co28 O29 2.216 . S
Co28 O30 2.091 . S
Co28 O32 2.004 . S
Co28 O38 2.021 . S
Co28 O40 2.137 . S
Co28 O41 2.244 . S
O29 Co28 2.216 . S
O29 C36 1.247 . S
O30 Co28 2.091 . S
O30 C36 1.261 . S
C31 O40 1.247 . S
C31 O41 1.272 . S
O32 Co28 2.004 . S
O32 C37 1.259 . S
Co33 O34 2.061 . S
Co33 O39 2.052 1_556 S
Co33 O41 2.135 . S
O34 Co33 2.061 . S
O34 C37 1.235 . S
C35 O38 1.238 1_554 S
C35 O39 1.241 . S
C36 O29 1.247 . S
C36 O30 1.261 . S
C37 O32 1.259 . S
C37 O34 1.235 . S
O38 Co28 2.021 . S
O38 C35 1.238 1_556 S
O39 Co33 2.052 1_554 S
O39 C35 1.241 . S
O40 Co28 2.137 . S
O40 C31 1.247 . S
O41 Co28 2.244 . S
O41 C31 1.272 . S
O41 Co33 2.135 . S
Co42 O43 2.216 . S
Co42 O44 2.091 . S
Co42 O46 2.004 . S
Co42 O52 2.021 . S
Co42 O54 2.137 . S
Co42 O55 2.244 . S
O43 Co42 2.216 . S
O43 C50 1.247 . S
O44 Co42 2.091 . S
O44 C50 1.261 . S
C45 O54 1.247 . S
C45 O55 1.272 . S
O46 Co42 2.004 . S
O46 C51 1.259 . S
Co47 O48 2.061 . S
Co47 O53 2.052 1_556 S
Co47 O55 2.135 . S
O48 Co47 2.061 . S
O48 C51 1.235 . S
C49 O52 1.238 1_554 S
C49 O53 1.241 . S
C50 O43 1.247 . S
C50 O44 1.261 . S
C51 O46 1.259 . S
C51 O48 1.235 . S
O52 Co42 2.021 . S
O52 C49 1.238 1_556 S
O53 Co47 2.052 1_554 S
O53 C49 1.241 . S
O54 Co42 2.137 . S
O54 C45 1.247 . S
O55 Co42 2.244 . S
O55 C45 1.272 . S
O55 Co47 2.135 . S
Co56 O57 2.216 . S
Co56 O58 2.091 . S
Co56 O60 2.004 . S
Co56 O66 2.021 . S
Co56 O68 2.137 . S
Co56 O69 2.244 . S
O57 Co56 2.216 . S
O57 C64 1.247 . S
O58 Co56 2.091 . S
O58 C64 1.261 . S
C59 O68 1.247 . S
C59 O69 1.272 . S
O60 Co56 2.004 . S
O60 C65 1.259 . S
Co61 O62 2.061 . S
Co61 O67 2.052 . S
Co61 O69 2.135 . S
O62 Co61 2.061 . S
O62 C65 1.235 . S
C63 O66 1.238 . S
C63 O67 1.241 . S
C64 O57 1.247 . S
C64 O58 1.261 . S
C65 O60 1.259 . S
C65 O62 1.235 . S
O66 Co56 2.021 . S
O66 C63 1.238 . S
O67 Co61 2.052 . S
O67 C63 1.241 . S
O68 Co56 2.137 . S
O68 C59 1.247 . S
O69 Co56 2.244 . S
O69 C59 1.272 . S
O69 Co61 2.135 . S
Co70 O71 2.216 . S
Co70 O72 2.091 . S
Co70 O74 2.004 . S
Co70 O80 2.021 . S
Co70 O82 2.137 . S
Co70 O83 2.244 . S
O71 Co70 2.216 . S
O71 C78 1.247 . S
O72 Co70 2.091 . S
O72 C78 1.261 . S
C73 O82 1.247 . S
C73 O83 1.272 . S
O74 Co70 2.004 . S
O74 C79 1.259 . S
Co75 O76 2.061 . S
Co75 O81 2.052 . S
Co75 O83 2.135 . S
O76 Co75 2.061 . S
O76 C79 1.235 . S
C77 O80 1.238 . S
C77 O81 1.241 . S
C78 O71 1.247 . S
C78 O72 1.261 . S
C79 O74 1.259 . S
C79 O76 1.235 . S
O80 Co70 2.021 . S
O80 C77 1.238 . S
O81 Co75 2.052 . S
O81 C77 1.241 . S
O82 Co70 2.137 . S
O82 C73 1.247 . S
O83 Co70 2.244 . S
O83 C73 1.272 . S
O83 Co75 2.135 . S
Co84 O85 2.216 1_554 S
Co84 O86 2.091 1_554 S
Co84 O88 2.004 . S
Co84 O94 2.021 . S
Co84 O96 2.137 . S
Co84 O97 2.244 . S
O85 Co84 2.216 1_556 S
O85 C92 1.247 . S
O86 Co84 2.091 1_556 S
O86 C92 1.261 . S
C87 O96 1.247 . S
C87 O97 1.272 . S
O88 Co84 2.004 . S
O88 C93 1.259 . S
Co89 O90 2.061 . S
Co89 O95 2.052 . S
Co89 O97 2.135 . S
O90 Co89 2.061 . S
O90 C93 1.235 . S
C91 O94 1.238 . S
C91 O95 1.241 . S
C92 O85 1.247 . S
C92 O86 1.261 . S
C93 O88 1.259 . S
C93 O90 1.235 . S
O94 Co84 2.021 . S
O94 C91 1.238 . S
O95 Co89 2.052 . S
O95 C91 1.241 . S
O96 Co84 2.137 . S
O96 C87 1.247 . S
O97 Co84 2.244 . S
O97 C87 1.272 . S
O97 Co89 2.135 . S
Co98 O99 2.216 1_554 S
Co98 O100 2.091 1_554 S
Co98 O102 2.004 . S
Co98 O108 2.021 . S
Co98 O110 2.137 . S
Co98 O111 2.244 . S
O99 Co98 2.216 1_556 S
O99 C106 1.247 . S
O100 Co98 2.091 1_556 S
O100 C106 1.261 . S
C101 O110 1.247 . S
C101 O111 1.272 . S
O102 Co98 2.004 . S
O102 C107 1.259 . S
Co103 O104 2.061 . S
Co103 O109 2.052 . S
Co103 O111 2.135 . S
O104 Co103 2.061 . S
O104 C107 1.235 . S
C105 O108 1.238 . S
C105 O109 1.241 . S
C106 O99 1.247 . S
C106 O100 1.261 . S
C107 O102 1.259 . S
C107 O104 1.235 . S
O108 Co98 2.021 . S
O108 C105 1.238 . S
O109 Co103 2.052 . S
O109 C105 1.241 . S
O110 Co98 2.137 . S
O110 C101 1.247 . S
O111 Co98 2.244 . S
O111 C101 1.272 . S
O111 Co103 2.135 . S
Co112 O113 2.216 . S
Co112 O114 2.091 . S
Co112 O116 2.004 . S
Co112 O122 2.021 . S
Co112 O124 2.137 . S
Co112 O125 2.244 . S
O113 Co112 2.216 . S
O113 C120 1.247 . S
O114 Co112 2.091 . S
O114 C120 1.261 . S
C115 O124 1.247 . S
C115 O125 1.272 . S
O116 Co112 2.004 . S
O116 C121 1.259 . S
Co117 O118 2.061 . S
Co117 O123 2.052 . S
Co117 O125 2.135 . S
O118 Co117 2.061 . S
O118 C121 1.235 . S
C119 O122 1.238 . S
C119 O123 1.241 . S
C120 O113 1.247 . S
C120 O114 1.261 . S
C121 O116 1.259 . S
C121 O118 1.235 . S
O122 Co112 2.021 . S
O122 C119 1.238 . S
O123 Co117 2.052 . S
O123 C119 1.241 . S
O124 Co112 2.137 . S
O124 C115 1.247 . S
O125 Co112 2.244 . S
O125 C115 1.272 . S
O125 Co117 2.135 . S
Co126 O127 2.216 . S
Co126 O128 2.091 . S
Co126 O130 2.004 . S
Co126 O136 2.021 . S
Co126 O138 2.137 . S
Co126 O139 2.244 . S
O127 Co126 2.216 . S
O127 C134 1.247 . S
O128 Co126 2.091 . S
O128 C134 1.261 . S
C129 O138 1.247 . S
C129 O139 1.272 . S
O130 Co126 2.004 . S
O130 C135 1.259 . S
Co131 O132 2.061 . S
Co131 O137 2.052 . S
Co131 O139 2.135 . S
O132 Co131 2.061 . S
O132 C135 1.235 . S
C133 O136 1.238 . S
C133 O137 1.241 . S
C134 O127 1.247 . S
C134 O128 1.261 . S
C135 O130 1.259 . S
C135 O132 1.235 . S
O136 Co126 2.021 . S
O136 C133 1.238 . S
O137 Co131 2.052 . S
O137 C133 1.241 . S
O138 Co126 2.137 . S
O138 C129 1.247 . S
O139 Co126 2.244 . S
O139 C129 1.272 . S
O139 Co131 2.135 . S
Co140 O141 2.216 . S
Co140 O142 2.091 . S
Co140 O144 2.004 . S
Co140 O150 2.021 . S
Co140 O152 2.137 . S
Co140 O153 2.244 . S
O141 Co140 2.216 . S
O141 C148 1.247 . S
O142 Co140 2.091 . S
O142 C148 1.261 . S
C143 O152 1.247 . S
C143 O153 1.272 . S
O144 Co140 2.004 . S
O144 C149 1.259 . S
Co145 O146 2.061 . S
Co145 O151 2.052 . S
Co145 O153 2.135 . S
O146 Co145 2.061 . S
O146 C149 1.235 . S
C147 O150 1.238 . S
C147 O151 1.241 . S
C148 O141 1.247 . S
C148 O142 1.261 . S
C149 O144 1.259 . S
C149 O146 1.235 . S
O150 Co140 2.021 . S
O150 C147 1.238 . S
O151 Co145 2.052 . S
O151 C147 1.241 . S
O152 Co140 2.137 . S
O152 C143 1.247 . S
O153 Co140 2.244 . S
O153 C143 1.272 . S
O153 Co145 2.135 . S
Co154 O155 2.216 . S
Co154 O156 2.091 . S
Co154 O158 2.004 . S
Co154 O164 2.021 . S
Co154 O166 2.137 . S
Co154 O167 2.244 . S
O155 Co154 2.216 . S
O155 C162 1.247 . S
O156 Co154 2.091 . S
O156 C162 1.261 . S
C157 O166 1.247 . S
C157 O167 1.272 . S
O158 Co154 2.004 . S
O158 C163 1.259 . S
Co159 O160 2.061 . S
Co159 O165 2.052 . S
Co159 O167 2.135 . S
O160 Co159 2.061 . S
O160 C163 1.235 . S
C161 O164 1.238 . S
C161 O165 1.241 . S
C162 O155 1.247 . S
C162 O156 1.261 . S
C163 O158 1.259 . S
C163 O160 1.235 . S
O164 Co154 2.021 . S
O164 C161 1.238 . S
O165 Co159 2.052 . S
O165 C161 1.241 . S
O166 Co154 2.137 . S
O166 C157 1.247 . S
O167 Co154 2.244 . S
O167 C157 1.272 . S
O167 Co159 2.135 . S
Co168 O169 2.216 . S
Co168 O170 2.091 . S
Co168 O172 2.004 . S
Co168 O178 2.021 . S
Co168 O180 2.137 . S
Co168 O181 2.244 . S
O169 Co168 2.216 . S
O169 C176 1.247 . S
O170 Co168 2.091 . S
O170 C176 1.261 . S
C171 O180 1.247 . S
C171 O181 1.272 . S
O172 Co168 2.004 . S
O172 C177 1.259 . S
Co173 O174 2.061 . S
Co173 O179 2.052 . S
Co173 O181 2.135 . S
O174 Co173 2.061 . S
O174 C177 1.235 . S
C175 O178 1.238 . S
C175 O179 1.241 . S
C176 O169 1.247 . S
C176 O170 1.261 . S
C177 O172 1.259 . S
C177 O174 1.235 . S
O178 Co168 2.021 . S
O178 C175 1.238 . S
O179 Co173 2.052 . S
O179 C175 1.241 . S
O180 Co168 2.137 . S
O180 C171 1.247 . S
O181 Co168 2.244 . S
O181 C171 1.272 . S
O181 Co173 2.135 . S
Co182 O183 2.216 . S
Co182 O184 2.091 . S
Co182 O186 2.004 . S
Co182 O192 2.021 . S
Co182 O194 2.137 . S
Co182 O195 2.244 . S
O183 Co182 2.216 . S
O183 C190 1.247 . S
O184 Co182 2.091 . S
O184 C190 1.261 . S
C185 O194 1.247 . S
C185 O195 1.272 . S
O186 Co182 2.004 . S
O186 C191 1.259 . S
Co187 O188 2.061 . S
Co187 O193 2.052 . S
Co187 O195 2.135 . S
O188 Co187 2.061 . S
O188 C191 1.235 . S
C189 O192 1.238 . S
C189 O193 1.241 . S
C190 O183 1.247 . S
C190 O184 1.261 . S
C191 O186 1.259 . S
C191 O188 1.235 . S
O192 Co182 2.021 . S
O192 C189 1.238 . S
O193 Co187 2.052 . S
O193 C189 1.241 . S
O194 Co182 2.137 . S
O194 C185 1.247 . S
O195 Co182 2.244 . S
O195 C185 1.272 . S
O195 Co187 2.135 . S
Co196 O197 2.216 . S
Co196 O198 2.091 . S
Co196 O200 2.004 . S
Co196 O206 2.021 . S
Co196 O208 2.137 . S
Co196 O209 2.244 . S
O197 Co196 2.216 . S
O197 C204 1.247 . S
O198 Co196 2.091 . S
O198 C204 1.261 . S
C199 O208 1.247 . S
C199 O209 1.272 . S
O200 Co196 2.004 . S
O200 C205 1.259 . S
Co201 O202 2.061 . S
Co201 O207 2.052 . S
Co201 O209 2.135 . S
O202 Co201 2.061 . S
O202 C205 1.235 . S
C203 O206 1.238 . S
C203 O207 1.241 . S
C204 O197 1.247 . S
C204 O198 1.261 . S
C205 O200 1.259 . S
C205 O202 1.235 . S
O206 Co196 2.021 . S
O206 C203 1.238 . S
O207 Co201 2.052 . S
O207 C203 1.241 . S
O208 Co196 2.137 . S
O208 C199 1.247 . S
O209 Co196 2.244 . S
O209 C199 1.272 . S
O209 Co201 2.135 . S
Co210 O211 2.216 . S
Co210 O212 2.091 . S
Co210 O214 2.004 . S
Co210 O220 2.021 . S
Co210 O222 2.137 . S
Co210 O223 2.244 . S
O211 Co210 2.216 . S
O211 C218 1.247 . S
O212 Co210 2.091 . S
O212 C218 1.261 . S
C213 O222 1.247 . S
C213 O223 1.272 . S
O214 Co210 2.004 . S
O214 C219 1.259 . S
Co215 O216 2.061 . S
Co215 O221 2.052 . S
Co215 O223 2.135 . S
O216 Co215 2.061 . S
O216 C219 1.235 . S
C217 O220 1.238 . S
C217 O221 1.241 . S
C218 O211 1.247 . S
C218 O212 1.261 . S
C219 O214 1.259 . S
C219 O216 1.235 . S
O220 Co210 2.021 . S
O220 C217 1.238 . S
O221 Co215 2.052 . S
O221 C217 1.241 . S
O222 Co210 2.137 . S
O222 C213 1.247 . S
O223 Co210 2.244 . S
O223 C213 1.272 . S
O223 Co215 2.135 . S
Co224 O225 2.216 . S
Co224 O226 2.091 . S
Co224 O228 2.004 . S
Co224 O234 2.021 . S
Co224 O236 2.137 . S
Co224 O237 2.244 . S
O225 Co224 2.216 . S
O225 C232 1.247 . S
O226 Co224 2.091 . S
O226 C232 1.261 . S
C227 O236 1.247 . S
C227 O237 1.272 . S
O228 Co224 2.004 . S
O228 C233 1.259 . S
Co229 O230 2.061 . S
Co229 O235 2.052 . S
Co229 O237 2.135 . S
O230 Co229 2.061 . S
O230 C233 1.235 . S
C231 O234 1.238 . S
C231 O235 1.241 . S
C232 O225 1.247 . S
C232 O226 1.261 . S
C233 O228 1.259 . S
C233 O230 1.235 . S
O234 Co224 2.021 . S
O234 C231 1.238 . S
O235 Co229 2.052 . S
O235 C231 1.241 . S
O236 Co224 2.137 . S
O236 C227 1.247 . S
O237 Co224 2.244 . S
O237 C227 1.272 . S
O237 Co229 2.135 . S
Co238 O239 2.216 . S
Co238 O240 2.091 . S
Co238 O242 2.004 . S
Co238 O248 2.021 . S
Co238 O250 2.137 . S
Co238 O251 2.244 . S
O239 Co238 2.216 . S
O239 C246 1.247 . S
O240 Co238 2.091 . S
O240 C246 1.261 . S
C241 O250 1.247 . S
C241 O251 1.272 . S
O242 Co238 2.004 . S
O242 C247 1.259 . S
Co243 O244 2.061 . S
Co243 O249 2.052 . S
Co243 O251 2.135 . S
O244 Co243 2.061 . S
O244 C247 1.235 . S
C245 O248 1.238 . S
C245 O249 1.241 . S
C246 O239 1.247 . S
C246 O240 1.261 . S
C247 O242 1.259 . S
C247 O244 1.235 . S
O248 Co238 2.021 . S
O248 C245 1.238 . S
O249 Co243 2.052 . S
O249 C245 1.241 . S
O250 Co238 2.137 . S
O250 C241 1.247 . S
O251 Co238 2.244 . S
O251 C241 1.272 . S
O251 Co243 2.135 . S
Co252 O253 2.216 . S
Co252 O254 2.091 . S
Co252 O256 2.004 . S
Co252 O262 2.021 . S
Co252 O264 2.137 . S
Co252 O265 2.244 . S
O253 Co252 2.216 . S
O253 C260 1.247 . S
O254 Co252 2.091 . S
O254 C260 1.261 . S
C255 O264 1.247 . S
C255 O265 1.272 . S
O256 Co252 2.004 . S
O256 C261 1.259 . S
Co257 O258 2.061 . S
Co257 O263 2.052 . S
Co257 O265 2.135 . S
O258 Co257 2.061 . S
O258 C261 1.235 . S
C259 O262 1.238 . S
C259 O263 1.241 . S
C260 O253 1.247 . S
C260 O254 1.261 . S
C261 O256 1.259 . S
C261 O258 1.235 . S
O262 Co252 2.021 . S
O262 C259 1.238 . S
O263 Co257 2.052 . S
O263 C259 1.241 . S
O264 Co252 2.137 . S
O264 C255 1.247 . S
O265 Co252 2.244 . S
O265 C255 1.272 . S
O265 Co257 2.135 . S
Co266 O267 2.216 . S
Co266 O268 2.091 . S
Co266 O270 2.004 . S
Co266 O276 2.021 . S
Co266 O278 2.137 . S
Co266 O279 2.244 . S
O267 Co266 2.216 . S
O267 C274 1.247 . S
O268 Co266 2.091 . S
O268 C274 1.261 . S
C269 O278 1.247 . S
C269 O279 1.272 . S
O270 Co266 2.004 . S
O270 C275 1.259 . S
Co271 O272 2.061 . S
Co271 O277 2.052 . S
Co271 O279 2.135 . S
O272 Co271 2.061 . S
O272 C275 1.235 . S
C273 O276 1.238 . S
C273 O277 1.241 . S
C274 O267 1.247 . S
C274 O268 1.261 . S
C275 O270 1.259 . S
C275 O272 1.235 . S
O276 Co266 2.021 . S
O276 C273 1.238 . S
O277 Co271 2.052 . S
O277 C273 1.241 . S
O278 Co266 2.137 . S
O278 C269 1.247 . S
O279 Co266 2.244 . S
O279 C269 1.272 . S
O279 Co271 2.135 . S
Co280 O281 2.216 . S
Co280 O282 2.091 . S
Co280 O284 2.004 . S
Co280 O290 2.021 . S
Co280 O292 2.137 . S
Co280 O293 2.244 . S
O281 Co280 2.216 . S
O281 C288 1.247 . S
O282 Co280 2.091 . S
O282 C288 1.261 . S
C283 O292 1.247 . S
C283 O293 1.272 . S
O284 Co280 2.004 . S
O284 C289 1.259 . S
Co285 O286 2.061 . S
Co285 O291 2.052 . S
Co285 O293 2.135 . S
O286 Co285 2.061 . S
O286 C289 1.235 . S
C287 O290 1.238 . S
C287 O291 1.241 . S
C288 O281 1.247 . S
C288 O282 1.261 . S
C289 O284 1.259 . S
C289 O286 1.235 . S
O290 Co280 2.021 . S
O290 C287 1.238 . S
O291 Co285 2.052 . S
O291 C287 1.241 . S
O292 Co280 2.137 . S
O292 C283 1.247 . S
O293 Co280 2.244 . S
O293 C283 1.272 . S
O293 Co285 2.135 . S
Co294 O295 2.216 . S
Co294 O296 2.091 . S
Co294 O298 2.004 . S
Co294 O304 2.021 . S
Co294 O306 2.137 . S
Co294 O307 2.244 . S
O295 Co294 2.216 . S
O295 C302 1.247 . S
O296 Co294 2.091 . S
O296 C302 1.261 . S
C297 O306 1.247 . S
C297 O307 1.272 . S
O298 Co294 2.004 . S
O298 C303 1.259 . S
Co299 O300 2.061 . S
Co299 O305 2.052 . S
Co299 O307 2.135 . S
O300 Co299 2.061 . S
O300 C303 1.235 . S
C301 O304 1.238 . S
C301 O305 1.241 . S
C302 O295 1.247 . S
C302 O296 1.261 . S
C303 O298 1.259 . S
C303 O300 1.235 . S
O304 Co294 2.021 . S
O304 C301 1.238 . S
O305 Co299 2.052 . S
O305 C301 1.241 . S
O306 Co294 2.137 . S
O306 C297 1.247 . S
O307 Co294 2.244 . S
O307 C297 1.272 . S
O307 Co299 2.135 . S
Co308 O309 2.216 . S
Co308 O310 2.091 . S
Co308 O312 2.004 . S
Co308 O318 2.021 . S
Co308 O320 2.137 . S
Co308 O321 2.244 . S
O309 Co308 2.216 . S
O309 C316 1.247 . S
O310 Co308 2.091 . S
O310 C316 1.261 . S
C311 O320 1.247 . S
C311 O321 1.272 . S
O312 Co308 2.004 . S
O312 C317 1.259 . S
Co313 O314 2.061 . S
Co313 O319 2.052 . S
Co313 O321 2.135 . S
O314 Co313 2.061 . S
O314 C317 1.235 . S
C315 O318 1.238 . S
C315 O319 1.241 . S
C316 O309 1.247 . S
C316 O310 1.261 . S
C317 O312 1.259 . S
C317 O314 1.235 . S
O318 Co308 2.021 . S
O318 C315 1.238 . S
O319 Co313 2.052 . S
O319 C315 1.241 . S
O320 Co308 2.137 . S
O320 C311 1.247 . S
O321 Co308 2.244 . S
O321 C311 1.272 . S
O321 Co313 2.135 . S
Co322 O323 2.216 . S
Co322 O324 2.091 . S
Co322 O326 2.004 . S
Co322 O332 2.021 . S
Co322 O334 2.137 . S
Co322 O335 2.244 . S
O323 Co322 2.216 . S
O323 C330 1.247 . S
O324 Co322 2.091 . S
O324 C330 1.261 . S
C325 O334 1.247 . S
C325 O335 1.272 . S
O326 Co322 2.004 . S
O326 C331 1.259 . S
Co327 O328 2.061 . S
Co327 O333 2.052 . S
Co327 O335 2.135 . S
O328 Co327 2.061 . S
O328 C331 1.235 . S
C329 O332 1.238 . S
C329 O333 1.241 . S
C330 O323 1.247 . S
C330 O324 1.261 . S
C331 O326 1.259 . S
C331 O328 1.235 . S
O332 Co322 2.021 . S
O332 C329 1.238 . S
O333 Co327 2.052 . S
O333 C329 1.241 . S
O334 Co322 2.137 . S
O334 C325 1.247 . S
O335 Co322 2.244 . S
O335 C325 1.272 . S
O335 Co327 2.135 . S
Co336 O337 2.216 . S
Co336 O338 2.091 . S
Co336 O340 2.004 . S
Co336 O346 2.021 . S
Co336 O348 2.137 . S
Co336 O349 2.244 . S
O337 Co336 2.216 . S
O337 C344 1.247 . S
O338 Co336 2.091 . S
O338 C344 1.261 . S
C339 O348 1.247 . S
C339 O349 1.272 . S
O340 Co336 2.004 . S
O340 C345 1.259 . S
Co341 O342 2.061 . S
Co341 O347 2.052 . S
Co341 O349 2.135 . S
O342 Co341 2.061 . S
O342 C345 1.235 . S
C343 O346 1.238 . S
C343 O347 1.241 . S
C344 O337 1.247 . S
C344 O338 1.261 . S
C345 O340 1.259 . S
C345 O342 1.235 . S
O346 Co336 2.021 . S
O346 C343 1.238 . S
O347 Co341 2.052 . S
O347 C343 1.241 . S
O348 Co336 2.137 . S
O348 C339 1.247 . S
O349 Co336 2.244 . S
O349 C339 1.272 . S
O349 Co341 2.135 . S
Co350 O351 2.216 . S
Co350 O352 2.091 . S
Co350 O354 2.004 . S
Co350 O360 2.021 . S
Co350 O362 2.137 . S
Co350 O363 2.244 . S
O351 Co350 2.216 . S
O351 C358 1.247 . S
O352 Co350 2.091 . S
O352 C358 1.261 . S
C353 O362 1.247 . S
C353 O363 1.272 . S
O354 Co350 2.004 . S
O354 C359 1.259 . S
Co355 O356 2.061 . S
Co355 O361 2.052 . S
Co355 O363 2.135 . S
O356 Co355 2.061 . S
O356 C359 1.235 . S
C357 O360 1.238 . S
C357 O361 1.241 . S
C358 O351 1.247 . S
C358 O352 1.261 . S
C359 O354 1.259 . S
C359 O356 1.235 . S
O360 Co350 2.021 . S
O360 C357 1.238 . S
O361 Co355 2.052 . S
O361 C357 1.241 . S
O362 Co350 2.137 . S
O362 C353 1.247 . S
O363 Co350 2.244 . S
O363 C353 1.272 . S
O363 Co355 2.135 . S
Co364 O365 2.216 . S
Co364 O366 2.091 . S
Co364 O368 2.004 . S
Co364 O374 2.021 . S
Co364 O376 2.137 . S
Co364 O377 2.244 . S
O365 Co364 2.216 . S
O365 C372 1.247 . S
O366 Co364 2.091 . S
O366 C372 1.261 . S
C367 O376 1.247 . S
C367 O377 1.272 . S
O368 Co364 2.004 . S
O368 C373 1.259 . S
Co369 O370 2.061 . S
Co369 O375 2.052 1_556 S
Co369 O377 2.135 . S
O370 Co369 2.061 . S
O370 C373 1.235 . S
C371 O374 1.238 1_554 S
C371 O375 1.241 . S
C372 O365 1.247 . S
C372 O366 1.261 . S
C373 O368 1.259 . S
C373 O370 1.235 . S
O374 Co364 2.021 . S
O374 C371 1.238 1_556 S
O375 Co369 2.052 1_554 S
O375 C371 1.241 . S
O376 Co364 2.137 . S
O376 C367 1.247 . S
O377 Co364 2.244 . S
O377 C367 1.272 . S
O377 Co369 2.135 . S
Co378 O379 2.216 . S
Co378 O380 2.091 . S
Co378 O382 2.004 . S
Co378 O388 2.021 . S
Co378 O390 2.137 . S
Co378 O391 2.244 . S
O379 Co378 2.216 . S
O379 C386 1.247 . S
O380 Co378 2.091 . S
O380 C386 1.261 . S
C381 O390 1.247 . S
C381 O391 1.272 . S
O382 Co378 2.004 . S
O382 C387 1.259 . S
Co383 O384 2.061 . S
Co383 O389 2.052 1_556 S
Co383 O391 2.135 . S
O384 Co383 2.061 . S
O384 C387 1.235 . S
C385 O388 1.238 1_554 S
C385 O389 1.241 . S
C386 O379 1.247 . S
C386 O380 1.261 . S
C387 O382 1.259 . S
C387 O384 1.235 . S
O388 Co378 2.021 . S
O388 C385 1.238 1_556 S
O389 Co383 2.052 1_554 S
O389 C385 1.241 . S
O390 Co378 2.137 . S
O390 C381 1.247 . S
O391 Co378 2.244 . S
O391 C381 1.272 . S
O391 Co383 2.135 . S
Co392 O393 2.216 . S
Co392 O394 2.091 . S
Co392 O396 2.004 . S
Co392 O402 2.021 . S
Co392 O404 2.137 . S
Co392 O405 2.244 . S
O393 Co392 2.216 . S
O393 C400 1.247 . S
O394 Co392 2.091 . S
O394 C400 1.261 . S
C395 O404 1.247 . S
C395 O405 1.272 . S
O396 Co392 2.004 . S
O396 C401 1.259 . S
Co397 O398 2.061 . S
Co397 O403 2.052 . S
Co397 O405 2.135 . S
O398 Co397 2.061 . S
O398 C401 1.235 . S
C399 O402 1.238 . S
C399 O403 1.241 . S
C400 O393 1.247 . S
C400 O394 1.261 . S
C401 O396 1.259 . S
C401 O398 1.235 . S
O402 Co392 2.021 . S
O402 C399 1.238 . S
O403 Co397 2.052 . S
O403 C399 1.241 . S
O404 Co392 2.137 . S
O404 C395 1.247 . S
O405 Co392 2.244 . S
O405 C395 1.272 . S
O405 Co397 2.135 . S
Co406 O407 2.216 . S
Co406 O408 2.091 . S
Co406 O410 2.004 . S
Co406 O416 2.021 . S
Co406 O418 2.137 . S
Co406 O419 2.244 . S
O407 Co406 2.216 . S
O407 C414 1.247 . S
O408 Co406 2.091 . S
O408 C414 1.261 . S
C409 O418 1.247 . S
C409 O419 1.272 . S
O410 Co406 2.004 . S
O410 C415 1.259 . S
Co411 O412 2.061 . S
Co411 O417 2.052 . S
Co411 O419 2.135 . S
O412 Co411 2.061 . S
O412 C415 1.235 . S
C413 O416 1.238 . S
C413 O417 1.241 . S
C414 O407 1.247 . S
C414 O408 1.261 . S
C415 O410 1.259 . S
C415 O412 1.235 . S
O416 Co406 2.021 . S
O416 C413 1.238 . S
O417 Co411 2.052 . S
O417 C413 1.241 . S
O418 Co406 2.137 . S
O418 C409 1.247 . S
O419 Co406 2.244 . S
O419 C409 1.272 . S
O419 Co411 2.135 . S
Co420 O421 2.216 1_554 S
Co420 O422 2.091 1_554 S
Co420 O424 2.004 . S
Co420 O430 2.021 . S
Co420 O432 2.137 . S
Co420 O433 2.244 . S
O421 Co420 2.216 1_556 S
O421 C428 1.247 . S
O422 Co420 2.091 1_556 S
O422 C428 1.261 . S
C423 O432 1.247 . S
C423 O433 1.272 . S
O424 Co420 2.004 . S
O424 C429 1.259 . S
Co425 O426 2.061 . S
Co425 O431 2.052 . S
Co425 O433 2.135 . S
O426 Co425 2.061 . S
O426 C429 1.235 . S
C427 O430 1.238 . S
C427 O431 1.241 . S
C428 O421 1.247 . S
C428 O422 1.261 . S
C429 O424 1.259 . S
C429 O426 1.235 . S
O430 Co420 2.021 . S
O430 C427 1.238 . S
O431 Co425 2.052 . S
O431 C427 1.241 . S
O432 Co420 2.137 . S
O432 C423 1.247 . S
O433 Co420 2.244 . S
O433 C423 1.272 . S
O433 Co425 2.135 . S
Co434 O435 2.216 1_554 S
Co434 O436 2.091 1_554 S
Co434 O438 2.004 . S
Co434 O444 2.021 . S
Co434 O446 2.137 . S
Co434 O447 2.244 . S
O435 Co434 2.216 1_556 S
O435 C442 1.247 . S
O436 Co434 2.091 1_556 S
O436 C442 1.261 . S
C437 O446 1.247 . S
C437 O447 1.272 . S
O438 Co434 2.004 . S
O438 C443 1.259 . S
Co439 O440 2.061 . S
Co439 O445 2.052 . S
Co439 O447 2.135 . S
O440 Co439 2.061 . S
O440 C443 1.235 . S
C441 O444 1.238 . S
C441 O445 1.241 . S
C442 O435 1.247 . S
C442 O436 1.261 . S
C443 O438 1.259 . S
C443 O440 1.235 . S
O444 Co434 2.021 . S
O444 C441 1.238 . S
O445 Co439 2.052 . S
O445 C441 1.241 . S
O446 Co434 2.137 . S
O446 C437 1.247 . S
O447 Co434 2.244 . S
O447 C437 1.272 . S
O447 Co439 2.135 . S
H448 C460 0.930 . S
H449 C462 0.930 . S
H450 C463 0.930 . S
H451 C467 0.959 . S
H452 C467 0.959 . S
H453 C467 0.961 . S
H454 C468 0.960 . S
H455 C468 0.961 . S
H456 C468 0.959 . S
H457 C471 0.929 . S
H458 C472 0.931 . S
H459 C474 0.930 . S
C460 H448 0.930 . S
C460 C461 1.399 . S
C460 C465 1.399 . S
C461 C460 1.399 . S
C461 C462 1.376 . S
C462 H449 0.930 . S
C462 C461 1.376 . S
C462 C463 1.388 . S
C463 H450 0.930 . S
C463 C462 1.388 . S
C463 C464 1.390 . S
C464 C463 1.390 . S
C464 C465 1.394 . S
C464 C470 1.465 . S
C465 C460 1.399 . S
C465 C464 1.394 . S
C465 C466 1.516 . S
C466 C465 1.516 . S
C466 C467 1.502 1_455 S
C466 C468 1.561 . S
C466 C469 1.526 . S
C467 H451 0.959 . S
C467 H452 0.959 . S
C467 H453 0.961 . S
C467 C466 1.502 1_655 S
C468 H454 0.960 . S
C468 H455 0.961 . S
C468 H456 0.959 . S
C468 C466 1.561 . S
C469 C466 1.526 . S
C469 C470 1.396 . S
C469 C474 1.390 . S
C470 C464 1.465 . S
C470 C469 1.396 . S
C470 C471 1.399 . S
C471 H457 0.929 . S
C471 C470 1.399 . S
C471 C472 1.385 . S
C472 H458 0.931 . S
C472 C471 1.385 . S
C472 C473 1.389 . S
C473 C472 1.389 . S
C473 C474 1.387 . S
C474 H459 0.930 . S
C474 C469 1.390 . S
C474 C473 1.387 . S
H475 C487 0.930 . S
H476 C489 0.930 . S
H477 C490 0.930 . S
H478 C494 0.959 . S
H479 C494 0.959 . S
H480 C494 0.961 . S
H481 C495 0.960 . S
H482 C495 0.961 . S
H483 C495 0.959 . S
H484 C498 0.929 . S
H485 C499 0.931 . S
H486 C501 0.930 . S
C487 H475 0.930 . S
C487 C488 1.399 . S
C487 C492 1.399 . S
C488 C487 1.399 . S
C488 C489 1.376 . S
C489 H476 0.930 . S
C489 C488 1.376 . S
C489 C490 1.388 . S
C490 H477 0.930 . S
C490 C489 1.388 . S
C490 C491 1.390 . S
C491 C490 1.390 . S
C491 C492 1.394 . S
C491 C497 1.465 . S
C492 C487 1.399 . S
C492 C491 1.394 . S
C492 C493 1.516 . S
C493 C492 1.516 . S
C493 C494 1.502 . S
C493 C495 1.561 . S
C493 C496 1.526 . S
C494 H478 0.959 . S
C494 H479 0.959 . S
C494 H480 0.961 . S
C494 C493 1.502 . S
C495 H481 0.960 . S
C495 H482 0.961 . S
C495 H483 0.959 . S
C495 C493 1.561 . S
C496 C493 1.526 . S
C496 C497 1.396 . S
C496 C501 1.390 . S
C497 C491 1.465 . S
C497 C496 1.396 . S
C497 C498 1.399 . S
C498 H484 0.929 . S
C498 C497 1.399 . S
C498 C499 1.385 . S
C499 H485 0.931 . S
C499 C498 1.385 . S
C499 C500 1.389 . S
C500 C499 1.389 . S
C500 C501 1.387 . S
C501 H486 0.930 . S
C501 C496 1.390 . S
C501 C500 1.387 . S
H502 C514 0.930 . S
H503 C516 0.930 1_655 S
H504 C517 0.926 1_655 S
H505 C521 0.959 . S
H506 C521 0.959 . S
H507 C521 0.961 . S
H508 C522 0.960 . S
H509 C522 0.961 . S
H510 C522 0.959 . S
H511 C525 0.929 . S
H512 C526 0.931 1_655 S
H513 C528 0.930 . S
C514 H502 0.930 . S
C514 C515 1.399 . S
C514 C519 1.399 . S
C515 C514 1.399 . S
C515 C516 1.376 . S
C516 H503 0.930 1_455 S
C516 C515 1.376 . S
C516 C517 1.389 . S
C517 H504 0.926 1_455 S
C517 C516 1.389 . S
C517 C518 1.393 . S
C518 C517 1.393 . S
C518 C519 1.394 . S
C518 C524 1.465 . S
C519 C514 1.399 . S
C519 C518 1.394 . S
C519 C520 1.516 . S
C520 C519 1.516 . S
C520 C521 1.502 . S
C520 C522 1.561 . S
C520 C523 1.526 . S
C521 H505 0.959 . S
C521 H506 0.959 . S
C521 H507 0.961 . S
C521 C520 1.502 . S
C522 H508 0.960 . S
C522 H509 0.961 . S
C522 H510 0.959 . S
C522 C520 1.561 . S
C523 C520 1.526 . S
C523 C524 1.396 . S
C523 C528 1.390 . S
C524 C518 1.465 . S
C524 C523 1.396 . S
C524 C525 1.399 1_455 S
C525 H511 0.929 . S
C525 C524 1.399 1_655 S
C525 C526 1.385 1_655 S
C526 H512 0.931 1_455 S
C526 C525 1.385 1_455 S
C526 C527 1.389 . S
C527 C526 1.389 . S
C527 C528 1.387 . S
C528 H513 0.930 . S
C528 C523 1.390 . S
C528 C527 1.387 . S
H529 C541 0.930 . S
H530 C543 0.930 . S
H531 C544 0.930 . S
H532 C548 0.959 . S
H533 C548 0.959 . S
H534 C548 0.961 . S
H535 C549 0.960 . S
H536 C549 0.961 . S
H537 C549 0.959 . S
H538 C552 0.929 . S
H539 C553 0.931 . S
H540 C555 0.930 . S
C541 H529 0.930 . S
C541 C542 1.399 . S
C541 C546 1.399 . S
C542 C541 1.399 . S
C542 C543 1.376 . S
C543 H530 0.930 . S
C543 C542 1.376 . S
C543 C544 1.388 . S
C544 H531 0.930 . S
C544 C543 1.388 . S
C544 C545 1.390 . S
C545 C544 1.390 . S
C545 C546 1.394 . S
C545 C551 1.465 . S
C546 C541 1.399 . S
C546 C545 1.394 . S
C546 C547 1.516 . S
C547 C546 1.516 . S
C547 C548 1.502 . S
C547 C549 1.561 . S
C547 C550 1.526 . S
C548 H532 0.959 . S
C548 H533 0.959 . S
C548 H534 0.961 . S
C548 C547 1.502 . S
C549 H535 0.960 . S
C549 H536 0.961 . S
C549 H537 0.959 . S
C549 C547 1.561 . S
C550 C547 1.526 . S
C550 C551 1.396 . S
C550 C555 1.390 . S
C551 C545 1.465 . S
C551 C550 1.396 . S
C551 C552 1.399 . S
C552 H538 0.929 . S
C552 C551 1.399 . S
C552 C553 1.385 . S
C553 H539 0.931 . S
C553 C552 1.385 . S
C553 C554 1.389 . S
C554 C553 1.389 . S
C554 C555 1.387 . S
C555 H540 0.930 . S
C555 C550 1.390 . S
C555 C554 1.387 . S
H556 C568 0.930 . S
H557 C570 0.930 . S
H558 C571 0.930 . S
H559 C575 0.959 . S
H560 C575 0.959 . S
H561 C575 0.961 . S
H562 C576 0.960 . S
H563 C576 0.961 . S
H564 C576 0.959 . S
H565 C579 0.929 . S
H566 C580 0.931 . S
H567 C582 0.930 . S
C568 H556 0.930 . S
C568 C569 1.399 . S
C568 C573 1.399 . S
C569 C568 1.399 . S
C569 C570 1.376 . S
C570 H557 0.930 . S
C570 C569 1.376 . S
C570 C571 1.388 . S
C571 H558 0.930 . S
C571 C570 1.388 . S
C571 C572 1.390 . S
C572 C571 1.390 . S
C572 C573 1.394 . S
C572 C578 1.465 . S
C573 C568 1.399 . S
C573 C572 1.394 . S
C573 C574 1.516 . S
C574 C573 1.516 . S
C574 C575 1.502 1_655 S
C574 C576 1.561 . S
C574 C577 1.526 . S
C575 H559 0.959 . S
C575 H560 0.959 . S
C575 H561 0.961 . S
C575 C574 1.502 1_455 S
C576 H562 0.960 . S
C576 H563 0.961 . S
C576 H564 0.959 . S
C576 C574 1.561 . S
C577 C574 1.526 . S
C577 C578 1.396 . S
C577 C582 1.390 . S
C578 C572 1.465 . S
C578 C577 1.396 . S
C578 C579 1.399 . S
C579 H565 0.929 . S
C579 C578 1.399 . S
C579 C580 1.385 . S
C580 H566 0.931 . S
C580 C579 1.385 . S
C580 C581 1.389 . S
C581 C580 1.389 . S
C581 C582 1.387 . S
C582 H567 0.930 . S
C582 C577 1.390 . S
C582 C581 1.387 . S
H583 C595 0.930 . S
H584 C597 0.930 . S
H585 C598 0.930 . S
H586 C602 0.959 . S
H587 C602 0.959 . S
H588 C602 0.961 . S
H589 C603 0.960 . S
H590 C603 0.961 . S
H591 C603 0.959 . S
H592 C606 0.929 . S
H593 C607 0.931 . S
H594 C609 0.930 . S
C595 H583 0.930 . S
C595 C596 1.399 . S
C595 C600 1.399 . S
C596 C595 1.399 . S
C596 C597 1.376 . S
C597 H584 0.930 . S
C597 C596 1.376 . S
C597 C598 1.388 . S
C598 H585 0.930 . S
C598 C597 1.388 . S
C598 C599 1.390 . S
C599 C598 1.390 . S
C599 C600 1.394 . S
C599 C605 1.465 . S
C600 C595 1.399 . S
C600 C599 1.394 . S
C600 C601 1.516 . S
C601 C600 1.516 . S
C601 C602 1.502 . S
C601 C603 1.561 . S
C601 C604 1.526 . S
C602 H586 0.959 . S
C602 H587 0.959 . S
C602 H588 0.961 . S
C602 C601 1.502 . S
C603 H589 0.960 . S
C603 H590 0.961 . S
C603 H591 0.959 . S
C603 C601 1.561 . S
C604 C601 1.526 . S
C604 C605 1.396 . S
C604 C609 1.390 . S
C605 C599 1.465 . S
C605 C604 1.396 . S
C605 C606 1.399 . S
C606 H592 0.929 . S
C606 C605 1.399 . S
C606 C607 1.385 . S
C607 H593 0.931 . S
C607 C606 1.385 . S
C607 C608 1.389 . S
C608 C607 1.389 . S
C608 C609 1.387 . S
C609 H594 0.930 . S
C609 C604 1.390 . S
C609 C608 1.387 . S
H610 C622 0.930 . S
H611 C624 0.930 . S
H612 C625 0.930 1_455 S
H613 C629 0.959 . S
H614 C629 0.959 . S
H615 C629 0.961 . S
H616 C630 0.960 . S
H617 C630 0.961 . S
H618 C630 0.959 . S
H619 C633 0.929 1_455 S
H620 C634 0.931 . S
H621 C636 0.930 . S
C622 H610 0.930 . S
C622 C623 1.399 . S
C622 C627 1.399 . S
C623 C622 1.399 . S
C623 C624 1.376 . S
C624 H611 0.930 . S
C624 C623 1.376 . S
C624 C625 1.388 . S
C625 H612 0.930 1_655 S
C625 C624 1.388 . S
C625 C626 1.390 . S
C626 C625 1.390 . S
C626 C627 1.394 . S
C626 C632 1.465 . S
C627 C622 1.399 . S
C627 C626 1.394 . S
C627 C628 1.516 . S
C628 C627 1.516 . S
C628 C629 1.502 . S
C628 C630 1.561 . S
C628 C631 1.526 . S
C629 H613 0.959 . S
C629 H614 0.959 . S
C629 H615 0.961 . S
C629 C628 1.502 . S
C630 H616 0.960 . S
C630 H617 0.961 . S
C630 H618 0.959 . S
C630 C628 1.561 . S
C631 C628 1.526 . S
C631 C632 1.396 . S
C631 C636 1.390 . S
C632 C626 1.465 . S
C632 C631 1.396 . S
C632 C633 1.399 . S
C633 H619 0.929 1_655 S
C633 C632 1.399 . S
C633 C634 1.385 . S
C634 H620 0.931 . S
C634 C633 1.385 . S
C634 C635 1.389 . S
C635 C634 1.389 . S
C635 C636 1.387 . S
C636 H621 0.930 . S
C636 C631 1.390 . S
C636 C635 1.387 . S
H637 C649 0.930 . S
H638 C651 0.930 . S
H639 C652 0.930 . S
H640 C656 0.959 . S
H641 C656 0.959 . S
H642 C656 0.961 . S
H643 C657 0.960 . S
H644 C657 0.961 . S
H645 C657 0.959 . S
H646 C660 0.929 . S
H647 C661 0.931 . S
H648 C663 0.930 . S
C649 H637 0.930 . S
C649 C650 1.399 . S
C649 C654 1.399 . S
C650 C649 1.399 . S
C650 C651 1.376 . S
C651 H638 0.930 . S
C651 C650 1.376 . S
C651 C652 1.388 . S
C652 H639 0.930 . S
C652 C651 1.388 . S
C652 C653 1.390 . S
C653 C652 1.390 . S
C653 C654 1.394 . S
C653 C659 1.465 . S
C654 C649 1.399 . S
C654 C653 1.394 . S
C654 C655 1.516 . S
C655 C654 1.516 . S
C655 C656 1.502 . S
C655 C657 1.561 . S
C655 C658 1.526 . S
C656 H640 0.959 . S
C656 H641 0.959 . S
C656 H642 0.961 . S
C656 C655 1.502 . S
C657 H643 0.960 . S
C657 H644 0.961 . S
C657 H645 0.959 . S
C657 C655 1.561 . S
C658 C655 1.526 . S
C658 C659 1.396 . S
C658 C663 1.390 . S
C659 C653 1.465 . S
C659 C658 1.396 . S
C659 C660 1.399 . S
C660 H646 0.929 . S
C660 C659 1.399 . S
C660 C661 1.385 . S
C661 H647 0.931 . S
C661 C660 1.385 . S
C661 C662 1.389 . S
C662 C661 1.389 . S
C662 C663 1.387 . S
C663 H648 0.930 . S
C663 C658 1.390 . S
C663 C662 1.387 . S
H664 C676 0.930 . S
H665 C678 0.930 . S
H666 C679 0.930 . S
H667 C683 0.959 . S
H668 C683 0.959 . S
H669 C683 0.961 . S
H670 C684 0.960 . S
H671 C684 0.961 . S
H672 C684 0.959 . S
H673 C687 0.929 . S
H674 C688 0.931 . S
H675 C690 0.930 . S
C676 H664 0.930 . S
C676 C677 1.399 . S
C676 C681 1.399 . S
C677 C676 1.399 . S
C677 C678 1.376 . S
C678 H665 0.930 . S
C678 C677 1.376 . S
C678 C679 1.388 . S
C679 H666 0.930 . S
C679 C678 1.388 . S
C679 C680 1.390 . S
C680 C679 1.390 . S
C680 C681 1.394 . S
C680 C686 1.465 . S
C681 C676 1.399 . S
C681 C680 1.394 . S
C681 C682 1.516 . S
C682 C681 1.516 . S
C682 C683 1.502 . S
C682 C684 1.561 . S
C682 C685 1.526 . S
C683 H667 0.959 . S
C683 H668 0.959 . S
C683 H669 0.961 . S
C683 C682 1.502 . S
C684 H670 0.960 . S
C684 H671 0.961 . S
C684 H672 0.959 . S
C684 C682 1.561 . S
C685 C682 1.526 . S
C685 C686 1.396 . S
C685 C690 1.390 . S
C686 C680 1.465 . S
C686 C685 1.396 . S
C686 C687 1.399 . S
C687 H673 0.929 . S
C687 C686 1.399 . S
C687 C688 1.385 . S
C688 H674 0.931 . S
C688 C687 1.385 . S
C688 C689 1.389 . S
C689 C688 1.389 . S
C689 C690 1.387 . S
C690 H675 0.930 . S
C690 C685 1.390 . S
C690 C689 1.387 . S
H691 C703 0.930 . S
H692 C705 0.930 . S
H693 C706 0.930 . S
H694 C710 0.959 . S
H695 C710 0.959 . S
H696 C710 0.961 . S
H697 C711 0.960 . S
H698 C711 0.961 . S
H699 C711 0.959 . S
H700 C714 0.929 . S
H701 C715 0.931 . S
H702 C717 0.930 . S
C703 H691 0.930 . S
C703 C704 1.399 . S
C703 C708 1.399 . S
C704 C703 1.399 . S
C704 C705 1.376 . S
C705 H692 0.930 . S
C705 C704 1.376 . S
C705 C706 1.388 . S
C706 H693 0.930 . S
C706 C705 1.388 . S
C706 C707 1.390 . S
C707 C706 1.390 . S
C707 C708 1.394 . S
C707 C713 1.465 . S
C708 C703 1.399 . S
C708 C707 1.394 . S
C708 C709 1.516 . S
C709 C708 1.516 . S
C709 C710 1.502 . S
C709 C711 1.561 . S
C709 C712 1.526 . S
C710 H694 0.959 . S
C710 H695 0.959 . S
C710 H696 0.961 . S
C710 C709 1.502 . S
C711 H697 0.960 . S
C711 H698 0.961 . S
C711 H699 0.959 . S
C711 C709 1.561 . S
C712 C709 1.526 . S
C712 C713 1.396 . S
C712 C717 1.390 . S
C713 C707 1.465 . S
C713 C712 1.396 . S
C713 C714 1.399 . S
C714 H700 0.929 . S
C714 C713 1.399 . S
C714 C715 1.385 . S
C715 H701 0.931 . S
C715 C714 1.385 . S
C715 C716 1.389 . S
C716 C715 1.389 . S
C716 C717 1.387 . S
C717 H702 0.930 . S
C717 C712 1.390 . S
C717 C716 1.387 . S
H718 C730 0.930 . S
H719 C732 0.930 . S
H720 C733 0.930 . S
H721 C737 0.959 . S
H722 C737 0.959 . S
H723 C737 0.961 . S
H724 C738 0.960 . S
H725 C738 0.961 . S
H726 C738 0.959 . S
H727 C741 0.929 . S
H728 C742 0.931 . S
H729 C744 0.930 . S
C730 H718 0.930 . S
C730 C731 1.399 . S
C730 C735 1.399 . S
C731 C730 1.399 . S
C731 C732 1.376 . S
C732 H719 0.930 . S
C732 C731 1.376 . S
C732 C733 1.388 . S
C733 H720 0.930 . S
C733 C732 1.388 . S
C733 C734 1.390 . S
C734 C733 1.390 . S
C734 C735 1.394 . S
C734 C740 1.465 . S
C735 C730 1.399 . S
C735 C734 1.394 . S
C735 C736 1.516 . S
C736 C735 1.516 . S
C736 C737 1.502 . S
C736 C738 1.561 . S
C736 C739 1.526 . S
C737 H721 0.959 . S
C737 H722 0.959 . S
C737 H723 0.961 . S
C737 C736 1.502 . S
C738 H724 0.960 . S
C738 H725 0.961 . S
C738 H726 0.959 . S
C738 C736 1.561 . S
C739 C736 1.526 . S
C739 C740 1.396 . S
C739 C744 1.390 . S
C740 C734 1.465 . S
C740 C739 1.396 . S
C740 C741 1.399 . S
C741 H727 0.929 . S
C741 C740 1.399 . S
C741 C742 1.385 . S
C742 H728 0.931 . S
C742 C741 1.385 . S
C742 C743 1.389 . S
C743 C742 1.389 . S
C743 C744 1.387 . S
C744 H729 0.930 . S
C744 C739 1.390 . S
C744 C743 1.387 . S
H745 C757 0.930 . S
H746 C759 0.930 . S
H747 C760 0.930 . S
H748 C764 0.959 . S
H749 C764 0.959 . S
H750 C764 0.961 . S
H751 C765 0.960 . S
H752 C765 0.961 . S
H753 C765 0.959 . S
H754 C768 0.929 . S
H755 C769 0.931 . S
H756 C771 0.930 . S
C757 H745 0.930 . S
C757 C758 1.399 . S
C757 C762 1.399 . S
C758 C757 1.399 . S
C758 C759 1.376 . S
C759 H746 0.930 . S
C759 C758 1.376 . S
C759 C760 1.388 . S
C760 H747 0.930 . S
C760 C759 1.388 . S
C760 C761 1.390 . S
C761 C760 1.390 . S
C761 C762 1.394 . S
C761 C767 1.465 . S
C762 C757 1.399 . S
C762 C761 1.394 . S
C762 C763 1.516 . S
C763 C762 1.516 . S
C763 C764 1.502 . S
C763 C765 1.561 . S
C763 C766 1.526 . S
C764 H748 0.959 . S
C764 H749 0.959 . S
C764 H750 0.961 . S
C764 C763 1.502 . S
C765 H751 0.960 . S
C765 H752 0.961 . S
C765 H753 0.959 . S
C765 C763 1.561 . S
C766 C763 1.526 . S
C766 C767 1.396 . S
C766 C771 1.390 . S
C767 C761 1.465 . S
C767 C766 1.396 . S
C767 C768 1.399 . S
C768 H754 0.929 . S
C768 C767 1.399 . S
C768 C769 1.385 . S
C769 H755 0.931 . S
C769 C768 1.385 . S
C769 C770 1.389 . S
C770 C769 1.389 . S
C770 C771 1.387 . S
C771 H756 0.930 . S
C771 C766 1.390 . S
C771 C770 1.387 . S
H772 C784 0.930 . S
H773 C786 0.930 . S
H774 C787 0.930 . S
H775 C791 0.959 . S
H776 C791 0.959 . S
H777 C791 0.961 . S
H778 C792 0.960 . S
H779 C792 0.961 . S
H780 C792 0.959 . S
H781 C795 0.929 . S
H782 C796 0.931 . S
H783 C798 0.930 . S
C784 H772 0.930 . S
C784 C785 1.399 . S
C784 C789 1.399 . S
C785 C784 1.399 . S
C785 C786 1.376 . S
C786 H773 0.930 . S
C786 C785 1.376 . S
C786 C787 1.388 . S
C787 H774 0.930 . S
C787 C786 1.388 . S
C787 C788 1.390 . S
C788 C787 1.390 . S
C788 C789 1.394 . S
C788 C794 1.465 . S
C789 C784 1.399 . S
C789 C788 1.394 . S
C789 C790 1.516 . S
C790 C789 1.516 . S
C790 C791 1.502 . S
C790 C792 1.561 . S
C790 C793 1.526 . S
C791 H775 0.959 . S
C791 H776 0.959 . S
C791 H777 0.961 . S
C791 C790 1.502 . S
C792 H778 0.960 . S
C792 H779 0.961 . S
C792 H780 0.959 . S
C792 C790 1.561 . S
C793 C790 1.526 . S
C793 C794 1.396 . S
C793 C798 1.390 . S
C794 C788 1.465 . S
C794 C793 1.396 . S
C794 C795 1.399 . S
C795 H781 0.929 . S
C795 C794 1.399 . S
C795 C796 1.385 . S
C796 H782 0.931 . S
C796 C795 1.385 . S
C796 C797 1.389 . S
C797 C796 1.389 . S
C797 C798 1.387 . S
C798 H783 0.930 . S
C798 C793 1.390 . S
C798 C797 1.387 . S
H799 C811 0.930 . S
H800 C813 0.930 . S
H801 C814 0.930 . S
H802 C818 0.959 . S
H803 C818 0.959 . S
H804 C818 0.961 . S
H805 C819 0.960 . S
H806 C819 0.961 . S
H807 C819 0.959 . S
H808 C822 0.929 . S
H809 C823 0.931 . S
H810 C825 0.930 . S
C811 H799 0.930 . S
C811 C812 1.399 . S
C811 C816 1.399 . S
C812 C811 1.399 . S
C812 C813 1.376 . S
C813 H800 0.930 . S
C813 C812 1.376 . S
C813 C814 1.388 . S
C814 H801 0.930 . S
C814 C813 1.388 . S
C814 C815 1.390 . S
C815 C814 1.390 . S
C815 C816 1.394 . S
C815 C821 1.465 . S
C816 C811 1.399 . S
C816 C815 1.394 . S
C816 C817 1.516 . S
C817 C816 1.516 . S
C817 C818 1.502 . S
C817 C819 1.561 . S
C817 C820 1.526 . S
C818 H802 0.959 . S
C818 H803 0.959 . S
C818 H804 0.961 . S
C818 C817 1.502 . S
C819 H805 0.960 . S
C819 H806 0.961 . S
C819 H807 0.959 . S
C819 C817 1.561 . S
C820 C817 1.526 . S
C820 C821 1.396 . S
C820 C825 1.390 . S
C821 C815 1.465 . S
C821 C820 1.396 . S
C821 C822 1.399 . S
C822 H808 0.929 . S
C822 C821 1.399 . S
C822 C823 1.385 . S
C823 H809 0.931 . S
C823 C822 1.385 . S
C823 C824 1.389 . S
C824 C823 1.389 . S
C824 C825 1.387 . S
C825 H810 0.930 . S
C825 C820 1.390 . S
C825 C824 1.387 . S
H826 C838 0.930 . S
H827 C840 0.930 . S
H828 C841 0.930 . S
H829 C845 0.959 . S
H830 C845 0.959 . S
H831 C845 0.961 . S
H832 C846 0.960 . S
H833 C846 0.961 . S
H834 C846 0.959 . S
H835 C849 0.929 . S
H836 C850 0.931 . S
H837 C852 0.930 . S
C838 H826 0.930 . S
C838 C839 1.399 . S
C838 C843 1.399 . S
C839 C838 1.399 . S
C839 C840 1.376 . S
C840 H827 0.930 . S
C840 C839 1.376 . S
C840 C841 1.388 . S
C841 H828 0.930 . S
C841 C840 1.388 . S
C841 C842 1.390 . S
C842 C841 1.390 . S
C842 C843 1.394 . S
C842 C848 1.465 . S
C843 C838 1.399 . S
C843 C842 1.394 . S
C843 C844 1.516 . S
C844 C843 1.516 . S
C844 C845 1.502 . S
C844 C846 1.561 . S
C844 C847 1.526 . S
C845 H829 0.959 . S
C845 H830 0.959 . S
C845 H831 0.961 . S
C845 C844 1.502 . S
C846 H832 0.960 . S
C846 H833 0.961 . S
C846 H834 0.959 . S
C846 C844 1.561 . S
C847 C844 1.526 . S
C847 C848 1.396 . S
C847 C852 1.390 . S
C848 C842 1.465 . S
C848 C847 1.396 . S
C848 C849 1.399 . S
C849 H835 0.929 . S
C849 C848 1.399 . S
C849 C850 1.385 . S
C850 H836 0.931 . S
C850 C849 1.385 . S
C850 C851 1.389 . S
C851 C850 1.389 . S
C851 C852 1.387 . S
C852 H837 0.930 . S
C852 C847 1.390 . S
C852 C851 1.387 . S
H853 C865 0.930 . S
H854 C867 0.930 . S
H855 C868 0.930 . S
H856 C872 0.959 . S
H857 C872 0.959 . S
H858 C872 0.961 . S
H859 C873 0.960 . S
H860 C873 0.961 . S
H861 C873 0.959 . S
H862 C876 0.929 . S
H863 C877 0.931 . S
H864 C879 0.930 . S
C865 H853 0.930 . S
C865 C866 1.399 . S
C865 C870 1.399 . S
C866 C865 1.399 . S
C866 C867 1.376 . S
C867 H854 0.930 . S
C867 C866 1.376 . S
C867 C868 1.388 . S
C868 H855 0.930 . S
C868 C867 1.388 . S
C868 C869 1.390 . S
C869 C868 1.390 . S
C869 C870 1.394 . S
C869 C875 1.465 . S
C870 C865 1.399 . S
C870 C869 1.394 . S
C870 C871 1.516 . S
C871 C870 1.516 . S
C871 C872 1.502 . S
C871 C873 1.561 . S
C871 C874 1.526 . S
C872 H856 0.959 . S
C872 H857 0.959 . S
C872 H858 0.961 . S
C872 C871 1.502 . S
C873 H859 0.960 . S
C873 H860 0.961 . S
C873 H861 0.959 . S
C873 C871 1.561 . S
C874 C871 1.526 . S
C874 C875 1.396 . S
C874 C879 1.390 . S
C875 C869 1.465 . S
C875 C874 1.396 . S
C875 C876 1.399 . S
C876 H862 0.929 . S
C876 C875 1.399 . S
C876 C877 1.385 . S
C877 H863 0.931 . S
C877 C876 1.385 . S
C877 C878 1.389 . S
C878 C877 1.389 . S
C878 C879 1.387 . S
C879 H864 0.930 . S
C879 C874 1.390 . S
C879 C878 1.387 . S
H880 C892 0.930 . S
H881 C894 0.930 . S
H882 C895 0.930 . S
H883 C899 0.959 . S
H884 C899 0.959 . S
H885 C899 0.961 . S
H886 C900 0.960 . S
H887 C900 0.961 . S
H888 C900 0.959 . S
H889 C903 0.929 . S
H890 C904 0.931 . S
H891 C906 0.930 . S
C892 H880 0.930 . S
C892 C893 1.399 . S
C892 C897 1.399 . S
C893 C892 1.399 . S
C893 C894 1.376 . S
C894 H881 0.930 . S
C894 C893 1.376 . S
C894 C895 1.388 . S
C895 H882 0.930 . S
C895 C894 1.388 . S
C895 C896 1.390 . S
C896 C895 1.390 . S
C896 C897 1.394 . S
C896 C902 1.465 . S
C897 C892 1.399 . S
C897 C896 1.394 . S
C897 C898 1.516 . S
C898 C897 1.516 . S
C898 C899 1.502 . S
C898 C900 1.561 . S
C898 C901 1.526 . S
C899 H883 0.959 . S
C899 H884 0.959 . S
C899 H885 0.961 . S
C899 C898 1.502 . S
C900 H886 0.960 . S
C900 H887 0.961 . S
C900 H888 0.959 . S
C900 C898 1.561 . S
C901 C898 1.526 . S
C901 C902 1.396 . S
C901 C906 1.390 . S
C902 C896 1.465 . S
C902 C901 1.396 . S
C902 C903 1.399 . S
C903 H889 0.929 . S
C903 C902 1.399 . S
C903 C904 1.385 . S
C904 H890 0.931 . S
C904 C903 1.385 . S
C904 C905 1.389 . S
C905 C904 1.389 . S
C905 C906 1.387 . S
C906 H891 0.930 . S
C906 C901 1.390 . S
C906 C905 1.387 . S
H907 C919 0.930 . S
H908 C921 0.930 1_455 S
H909 C922 0.930 . S
H910 C926 0.959 . S
H911 C926 0.959 . S
H912 C926 0.961 . S
H913 C927 0.960 . S
H914 C927 0.961 . S
H915 C927 0.959 . S
H916 C930 0.929 . S
H917 C931 0.931 . S
H918 C933 0.930 . S
C919 H907 0.930 . S
C919 C920 1.399 1_655 S
C919 C924 1.399 . S
C920 C919 1.399 1_455 S
C920 C921 1.376 1_455 S
C921 H908 0.930 1_655 S
C921 C920 1.376 1_655 S
C921 C922 1.388 . S
C922 H909 0.930 . S
C922 C921 1.388 . S
C922 C923 1.390 . S
C923 C922 1.390 . S
C923 C924 1.394 . S
C923 C929 1.465 . S
C924 C919 1.399 . S
C924 C923 1.394 . S
C924 C925 1.516 . S
C925 C924 1.516 . S
C925 C926 1.502 . S
C925 C927 1.561 . S
C925 C928 1.526 . S
C926 H910 0.959 . S
C926 H911 0.959 . S
C926 H912 0.961 . S
C926 C925 1.502 . S
C927 H913 0.960 . S
C927 H914 0.961 . S
C927 H915 0.959 . S
C927 C925 1.561 . S
C928 C925 1.526 . S
C928 C929 1.396 . S
C928 C933 1.390 . S
C929 C923 1.465 . S
C929 C928 1.396 . S
C929 C930 1.399 . S
C930 H916 0.929 . S
C930 C929 1.399 . S
C930 C931 1.385 . S
C931 H917 0.931 . S
C931 C930 1.385 . S
C931 C932 1.389 . S
C932 C931 1.389 . S
C932 C933 1.387 . S
C933 H918 0.930 . S
C933 C928 1.390 . S
C933 C932 1.387 . S
H934 C946 0.930 . S
H935 C948 0.930 . S
H936 C949 0.930 . S
H937 C953 0.959 . S
H938 C953 0.959 . S
H939 C953 0.961 . S
H940 C954 0.960 . S
H941 C954 0.961 . S
H942 C954 0.959 . S
H943 C957 0.929 . S
H944 C958 0.931 . S
H945 C960 0.930 . S
C946 H934 0.930 . S
C946 C947 1.399 . S
C946 C951 1.399 . S
C947 C946 1.399 . S
C947 C948 1.376 . S
C948 H935 0.930 . S
C948 C947 1.376 . S
C948 C949 1.388 . S
C949 H936 0.930 . S
C949 C948 1.388 . S
C949 C950 1.390 . S
C950 C949 1.390 . S
C950 C951 1.394 . S
C950 C956 1.465 . S
C951 C946 1.399 . S
C951 C950 1.394 . S
C951 C952 1.516 . S
C952 C951 1.516 . S
C952 C953 1.502 . S
C952 C954 1.561 . S
C952 C955 1.526 . S
C953 H937 0.959 . S
C953 H938 0.959 . S
C953 H939 0.961 . S
C953 C952 1.502 . S
C954 H940 0.960 . S
C954 H941 0.961 . S
C954 H942 0.959 . S
C954 C952 1.561 . S
C955 C952 1.526 . S
C955 C956 1.396 . S
C955 C960 1.390 . S
C956 C950 1.465 . S
C956 C955 1.396 . S
C956 C957 1.399 . S
C957 H943 0.929 . S
C957 C956 1.399 . S
C957 C958 1.385 . S
C958 H944 0.931 . S
C958 C957 1.385 . S
C958 C959 1.389 . S
C959 C958 1.389 . S
C959 C960 1.387 . S
C960 H945 0.930 . S
C960 C955 1.390 . S
C960 C959 1.387 . S
H961 C973 0.930 . S
H962 C975 0.930 . S
H963 C976 0.930 . S
H964 C980 0.959 . S
H965 C980 0.959 . S
H966 C980 0.961 . S
H967 C981 0.960 . S
H968 C981 0.961 . S
H969 C981 0.959 . S
H970 C984 0.929 . S
H971 C985 0.931 1_455 S
H972 C987 0.930 . S
C973 H961 0.930 . S
C973 C974 1.399 . S
C973 C978 1.399 . S
C974 C973 1.399 . S
C974 C975 1.376 . S
C975 H962 0.930 . S
C975 C974 1.376 . S
C975 C976 1.388 . S
C976 H963 0.930 . S
C976 C975 1.388 . S
C976 C977 1.390 . S
C977 C976 1.390 . S
C977 C978 1.394 . S
C977 C983 1.465 . S
C978 C973 1.399 . S
C978 C977 1.394 . S
C978 C979 1.516 . S
C979 C978 1.516 . S
C979 C980 1.502 . S
C979 C981 1.561 . S
C979 C982 1.526 . S
C980 H964 0.959 . S
C980 H965 0.959 . S
C980 H966 0.961 . S
C980 C979 1.502 . S
C981 H967 0.960 . S
C981 H968 0.961 . S
C981 H969 0.959 . S
C981 C979 1.561 . S
C982 C979 1.526 . S
C982 C983 1.396 . S
C982 C987 1.390 . S
C983 C977 1.465 . S
C983 C982 1.396 . S
C983 C984 1.399 . S
C984 H970 0.929 . S
C984 C983 1.399 . S
C984 C985 1.385 . S
C985 H971 0.931 1_655 S
C985 C984 1.385 . S
C985 C986 1.389 1_655 S
C986 C985 1.389 1_455 S
C986 C987 1.387 1_455 S
C987 H972 0.930 . S
C987 C982 1.390 . S
C987 C986 1.387 1_655 S
H988 C1000 0.930 . S
H989 C1002 0.930 . S
H990 C1003 0.930 . S
H991 C1007 0.959 . S
H992 C1007 0.959 . S
H993 C1007 0.961 . S
H994 C1008 0.960 . S
H995 C1008 0.961 . S
H996 C1008 0.959 . S
H997 C1011 0.929 . S
H998 C1012 0.931 . S
H999 C1014 0.930 . S
C1000 H988 0.930 . S
C1000 C1001 1.399 . S
C1000 C1005 1.399 . S
C1001 C1000 1.399 . S
C1001 C1002 1.376 . S
C1002 H989 0.930 . S
C1002 C1001 1.376 . S
C1002 C1003 1.388 . S
C1003 H990 0.930 . S
C1003 C1002 1.388 . S
C1003 C1004 1.390 . S
C1004 C1003 1.390 . S
C1004 C1005 1.394 . S
C1004 C1010 1.465 . S
C1005 C1000 1.399 . S
C1005 C1004 1.394 . S
C1005 C1006 1.516 . S
C1006 C1005 1.516 . S
C1006 C1007 1.502 . S
C1006 C1008 1.561 . S
C1006 C1009 1.526 . S
C1007 H991 0.959 . S
C1007 H992 0.959 . S
C1007 H993 0.961 . S
C1007 C1006 1.502 . S
C1008 H994 0.960 . S
C1008 H995 0.961 . S
C1008 H996 0.959 . S
C1008 C1006 1.561 . S
C1009 C1006 1.526 . S
C1009 C1010 1.396 . S
C1009 C1014 1.390 . S
C1010 C1004 1.465 . S
C1010 C1009 1.396 . S
C1010 C1011 1.399 . S
C1011 H997 0.929 . S
C1011 C1010 1.399 . S
C1011 C1012 1.385 . S
C1012 H998 0.931 . S
C1012 C1011 1.385 . S
C1012 C1013 1.389 . S
C1013 C1012 1.389 . S
C1013 C1014 1.387 . S
C1014 H999 0.930 . S
C1014 C1009 1.390 . S
C1014 C1013 1.387 . S
H1015 C1027 0.930 . S
H1016 C1029 0.930 1_655 S
H1017 C1030 0.930 . S
H1018 C1034 0.959 . S
H1019 C1034 0.959 . S
H1020 C1034 0.961 . S
H1021 C1035 0.960 . S
H1022 C1035 0.961 . S
H1023 C1035 0.959 . S
H1024 C1038 0.929 . S
H1025 C1039 0.931 . S
H1026 C1041 0.930 . S
C1027 H1015 0.930 . S
C1027 C1028 1.399 1_455 S
C1027 C1032 1.399 . S
C1028 C1027 1.399 1_655 S
C1028 C1029 1.376 1_655 S
C1029 H1016 0.930 1_455 S
C1029 C1028 1.376 1_455 S
C1029 C1030 1.388 . S
C1030 H1017 0.930 . S
C1030 C1029 1.388 . S
C1030 C1031 1.390 . S
C1031 C1030 1.390 . S
C1031 C1032 1.394 . S
C1031 C1037 1.465 . S
C1032 C1027 1.399 . S
C1032 C1031 1.394 . S
C1032 C1033 1.516 . S
C1033 C1032 1.516 . S
C1033 C1034 1.502 . S
C1033 C1035 1.561 . S
C1033 C1036 1.526 . S
C1034 H1018 0.959 . S
C1034 H1019 0.959 . S
C1034 H1020 0.961 . S
C1034 C1033 1.502 . S
C1035 H1021 0.960 . S
C1035 H1022 0.961 . S
C1035 H1023 0.959 . S
C1035 C1033 1.561 . S
C1036 C1033 1.526 . S
C1036 C1037 1.396 . S
C1036 C1041 1.390 . S
C1037 C1031 1.465 . S
C1037 C1036 1.396 . S
C1037 C1038 1.399 . S
C1038 H1024 0.929 . S
C1038 C1037 1.399 . S
C1038 C1039 1.385 . S
C1039 H1025 0.931 . S
C1039 C1038 1.385 . S
C1039 C1040 1.389 . S
C1040 C1039 1.389 . S
C1040 C1041 1.387 . S
C1041 H1026 0.930 . S
C1041 C1036 1.390 . S
C1041 C1040 1.387 . S
H1042 C1054 0.930 . S
H1043 C1056 0.930 . S
H1044 C1057 0.930 . S
H1045 C1061 0.959 . S
H1046 C1061 0.959 . S
H1047 C1061 0.961 . S
H1048 C1062 0.960 . S
H1049 C1062 0.961 . S
H1050 C1062 0.959 . S
H1051 C1065 0.929 . S
H1052 C1066 0.931 . S
H1053 C1068 0.930 . S
C1054 H1042 0.930 . S
C1054 C1055 1.399 . S
C1054 C1059 1.399 . S
C1055 C1054 1.399 . S
C1055 C1056 1.376 . S
C1056 H1043 0.930 . S
C1056 C1055 1.376 . S
C1056 C1057 1.388 . S
C1057 H1044 0.930 . S
C1057 C1056 1.388 . S
C1057 C1058 1.390 . S
C1058 C1057 1.390 . S
C1058 C1059 1.394 . S
C1058 C1064 1.465 . S
C1059 C1054 1.399 . S
C1059 C1058 1.394 . S
C1059 C1060 1.516 . S
C1060 C1059 1.516 . S
C1060 C1061 1.502 . S
C1060 C1062 1.561 . S
C1060 C1063 1.526 . S
C1061 H1045 0.959 . S
C1061 H1046 0.959 . S
C1061 H1047 0.961 . S
C1061 C1060 1.502 . S
C1062 H1048 0.960 . S
C1062 H1049 0.961 . S
C1062 H1050 0.959 . S
C1062 C1060 1.561 . S
C1063 C1060 1.526 . S
C1063 C1064 1.396 . S
C1063 C1068 1.390 . S
C1064 C1058 1.465 . S
C1064 C1063 1.396 . S
C1064 C1065 1.399 . S
C1065 H1051 0.929 . S
C1065 C1064 1.399 . S
C1065 C1066 1.385 . S
C1066 H1052 0.931 . S
C1066 C1065 1.385 . S
C1066 C1067 1.389 . S
C1067 C1066 1.389 . S
C1067 C1068 1.387 . S
C1068 H1053 0.930 . S
C1068 C1063 1.390 . S
C1068 C1067 1.387 . S
H1069 C1081 0.930 . S
H1070 C1083 0.930 . S
H1071 C1084 0.930 . S
H1072 C1088 0.959 . S
H1073 C1088 0.959 . S
H1074 C1088 0.961 . S
H1075 C1089 0.960 . S
H1076 C1089 0.961 . S
H1077 C1089 0.959 . S
H1078 C1092 0.929 . S
H1079 C1093 0.931 . S
H1080 C1095 0.930 . S
C1081 H1069 0.930 . S
C1081 C1082 1.399 1_455 S
C1081 C1086 1.399 . S
C1082 C1081 1.399 1_655 S
C1082 C1083 1.376 . S
C1083 H1070 0.930 . S
C1083 C1082 1.376 . S
C1083 C1084 1.388 1_655 S
C1084 H1071 0.930 . S
C1084 C1083 1.388 1_455 S
C1084 C1085 1.390 . S
C1085 C1084 1.390 . S
C1085 C1086 1.394 . S
C1085 C1091 1.465 . S
C1086 C1081 1.399 . S
C1086 C1085 1.394 . S
C1086 C1087 1.516 . S
C1087 C1086 1.516 . S
C1087 C1088 1.502 . S
C1087 C1089 1.561 . S
C1087 C1090 1.526 . S
C1088 H1072 0.959 . S
C1088 H1073 0.959 . S
C1088 H1074 0.961 . S
C1088 C1087 1.502 . S
C1089 H1075 0.960 . S
C1089 H1076 0.961 . S
C1089 H1077 0.959 . S
C1089 C1087 1.561 . S
C1090 C1087 1.526 . S
C1090 C1091 1.396 . S
C1090 C1095 1.390 . S
C1091 C1085 1.465 . S
C1091 C1090 1.396 . S
C1091 C1092 1.399 . S
C1092 H1078 0.929 . S
C1092 C1091 1.399 . S
C1092 C1093 1.385 . S
C1093 H1079 0.931 . S
C1093 C1092 1.385 . S
C1093 C1094 1.389 . S
C1094 C1093 1.389 . S
C1094 C1095 1.387 . S
C1095 H1080 0.930 . S
C1095 C1090 1.390 . S
C1095 C1094 1.387 . S
H1096 C1108 0.930 . S
H1097 C1110 0.930 . S
H1098 C1111 0.930 . S
H1099 C1115 0.959 . S
H1100 C1115 0.959 . S
H1101 C1115 0.961 . S
H1102 C1116 0.960 . S
H1103 C1116 0.961 . S
H1104 C1116 0.959 . S
H1105 C1119 0.929 . S
H1106 C1120 0.931 . S
H1107 C1122 0.930 . S
C1108 H1096 0.930 . S
C1108 C1109 1.399 . S
C1108 C1113 1.399 . S
C1109 C1108 1.399 . S
C1109 C1110 1.376 . S
C1110 H1097 0.930 . S
C1110 C1109 1.376 . S
C1110 C1111 1.388 . S
C1111 H1098 0.930 . S
C1111 C1110 1.388 . S
C1111 C1112 1.390 . S
C1112 C1111 1.390 . S
C1112 C1113 1.394 . S
C1112 C1118 1.465 . S
C1113 C1108 1.399 . S
C1113 C1112 1.394 . S
C1113 C1114 1.516 . S
C1114 C1113 1.516 . S
C1114 C1115 1.502 . S
C1114 C1116 1.561 . S
C1114 C1117 1.526 . S
C1115 H1099 0.959 . S
C1115 H1100 0.959 . S
C1115 H1101 0.961 . S
C1115 C1114 1.502 . S
C1116 H1102 0.960 . S
C1116 H1103 0.961 . S
C1116 H1104 0.959 . S
C1116 C1114 1.561 . S
C1117 C1114 1.526 . S
C1117 C1118 1.396 . S
C1117 C1122 1.390 . S
C1118 C1112 1.465 . S
C1118 C1117 1.396 . S
C1118 C1119 1.399 . S
C1119 H1105 0.929 . S
C1119 C1118 1.399 . S
C1119 C1120 1.385 . S
C1120 H1106 0.931 . S
C1120 C1119 1.385 . S
C1120 C1121 1.389 . S
C1121 C1120 1.389 . S
C1121 C1122 1.387 . S
C1122 H1107 0.930 . S
C1122 C1117 1.390 . S
C1122 C1121 1.387 . S
H1123 C1135 0.930 . S
H1124 C1137 0.930 . S
H1125 C1138 0.930 . S
H1126 C1142 0.959 . S
H1127 C1142 0.959 . S
H1128 C1142 0.961 . S
H1129 C1143 0.960 . S
H1130 C1143 0.961 . S
H1131 C1143 0.959 . S
H1132 C1146 0.929 . S
H1133 C1147 0.931 . S
H1134 C1149 0.930 1_455 S
C1135 H1123 0.930 . S
C1135 C1136 1.399 . S
C1135 C1140 1.399 . S
C1136 C1135 1.399 . S
C1136 C1137 1.376 . S
C1137 H1124 0.930 . S
C1137 C1136 1.376 . S
C1137 C1138 1.388 . S
C1138 H1125 0.930 . S
C1138 C1137 1.388 . S
C1138 C1139 1.390 . S
C1139 C1138 1.390 . S
C1139 C1140 1.394 . S
C1139 C1145 1.465 . S
C1140 C1135 1.399 . S
C1140 C1139 1.394 . S
C1140 C1141 1.516 . S
C1141 C1140 1.516 . S
C1141 C1142 1.502 . S
C1141 C1143 1.561 . S
C1141 C1144 1.526 . S
C1142 H1126 0.959 . S
C1142 H1127 0.959 . S
C1142 H1128 0.961 . S
C1142 C1141 1.502 . S
C1143 H1129 0.960 . S
C1143 H1130 0.961 . S
C1143 H1131 0.959 . S
C1143 C1141 1.561 . S
C1144 C1141 1.526 . S
C1144 C1145 1.396 . S
C1144 C1149 1.390 . S
C1145 C1139 1.465 . S
C1145 C1144 1.396 . S
C1145 C1146 1.399 . S
C1146 H1132 0.929 . S
C1146 C1145 1.399 . S
C1146 C1147 1.385 . S
C1147 H1133 0.931 . S
C1147 C1146 1.385 . S
C1147 C1148 1.389 1_655 S
C1148 C1147 1.389 1_455 S
C1148 C1149 1.387 1_455 S
C1149 H1134 0.930 1_655 S
C1149 C1144 1.390 . S
C1149 C1148 1.387 1_655 S
H1150 C1162 0.930 . S
H1151 C1164 0.930 . S
H1152 C1165 0.930 . S
H1153 C1169 0.959 . S
H1154 C1169 0.959 . S
H1155 C1169 0.961 . S
H1156 C1170 0.960 . S
H1157 C1170 0.961 . S
H1158 C1170 0.959 . S
H1159 C1173 0.929 . S
H1160 C1174 0.931 . S
H1161 C1176 0.930 . S
C1162 H1150 0.930 . S
C1162 C1163 1.399 . S
C1162 C1167 1.399 . S
C1163 C1162 1.399 . S
C1163 C1164 1.376 . S
C1164 H1151 0.930 . S
C1164 C1163 1.376 . S
C1164 C1165 1.388 . S
C1165 H1152 0.930 . S
C1165 C1164 1.388 . S
C1165 C1166 1.390 . S
C1166 C1165 1.390 . S
C1166 C1167 1.394 . S
C1166 C1172 1.465 . S
C1167 C1162 1.399 . S
C1167 C1166 1.394 . S
C1167 C1168 1.516 . S
C1168 C1167 1.516 . S
C1168 C1169 1.502 . S
C1168 C1170 1.561 . S
C1168 C1171 1.526 . S
C1169 H1153 0.959 . S
C1169 H1154 0.959 . S
C1169 H1155 0.961 . S
C1169 C1168 1.502 . S
C1170 H1156 0.960 . S
C1170 H1157 0.961 . S
C1170 H1158 0.959 . S
C1170 C1168 1.561 . S
C1171 C1168 1.526 . S
C1171 C1172 1.396 . S
C1171 C1176 1.390 . S
C1172 C1166 1.465 . S
C1172 C1171 1.396 . S
C1172 C1173 1.399 . S
C1173 H1159 0.929 . S
C1173 C1172 1.399 . S
C1173 C1174 1.385 . S
C1174 H1160 0.931 . S
C1174 C1173 1.385 . S
C1174 C1175 1.389 . S
C1175 C1174 1.389 . S
C1175 C1176 1.387 . S
C1176 H1161 0.930 . S
C1176 C1171 1.390 . S
C1176 C1175 1.387 . S
H1177 C1189 0.930 . S
H1178 C1191 0.930 . S
H1179 C1192 0.930 . S
H1180 C1196 0.959 . S
H1181 C1196 0.959 . S
H1182 C1196 0.961 . S
H1183 C1197 0.960 . S
H1184 C1197 0.961 . S
H1185 C1197 0.959 . S
H1186 C1200 0.929 . S
H1187 C1201 0.931 1_455 S
H1188 C1203 0.930 . S
C1189 H1177 0.930 . S
C1189 C1190 1.399 . S
C1189 C1194 1.399 . S
C1190 C1189 1.399 . S
C1190 C1191 1.376 . S
C1191 H1178 0.930 . S
C1191 C1190 1.376 . S
C1191 C1192 1.388 . S
C1192 H1179 0.930 . S
C1192 C1191 1.388 . S
C1192 C1193 1.390 . S
C1193 C1192 1.390 . S
C1193 C1194 1.394 . S
C1193 C1199 1.465 . S
C1194 C1189 1.399 . S
C1194 C1193 1.394 . S
C1194 C1195 1.516 . S
C1195 C1194 1.516 . S
C1195 C1196 1.502 . S
C1195 C1197 1.561 . S
C1195 C1198 1.526 . S
C1196 H1180 0.959 . S
C1196 H1181 0.959 . S
C1196 H1182 0.961 . S
C1196 C1195 1.502 . S
C1197 H1183 0.960 . S
C1197 H1184 0.961 . S
C1197 H1185 0.959 . S
C1197 C1195 1.561 . S
C1198 C1195 1.526 . S
C1198 C1199 1.396 . S
C1198 C1203 1.390 . S
C1199 C1193 1.465 . S
C1199 C1198 1.396 . S
C1199 C1200 1.399 . S
C1200 H1186 0.929 . S
C1200 C1199 1.399 . S
C1200 C1201 1.385 . S
C1201 H1187 0.931 1_655 S
C1201 C1200 1.385 . S
C1201 C1202 1.389 1_655 S
C1202 C1201 1.389 1_455 S
C1202 C1203 1.387 1_455 S
C1203 H1188 0.930 . S
C1203 C1198 1.390 . S
C1203 C1202 1.387 1_655 S
H1204 C1216 0.930 . S
H1205 C1218 0.930 . S
H1206 C1219 0.930 . S
H1207 C1223 0.959 . S
H1208 C1223 0.959 . S
H1209 C1223 0.961 . S
H1210 C1224 0.960 . S
H1211 C1224 0.961 . S
H1212 C1224 0.959 . S
H1213 C1227 0.929 . S
H1214 C1228 0.931 . S
H1215 C1230 0.930 . S
C1216 H1204 0.930 . S
C1216 C1217 1.399 . S
C1216 C1221 1.399 . S
C1217 C1216 1.399 . S
C1217 C1218 1.376 . S
C1218 H1205 0.930 . S
C1218 C1217 1.376 . S
C1218 C1219 1.388 . S
C1219 H1206 0.930 . S
C1219 C1218 1.388 . S
C1219 C1220 1.390 . S
C1220 C1219 1.390 . S
C1220 C1221 1.394 . S
C1220 C1226 1.465 . S
C1221 C1216 1.399 . S
C1221 C1220 1.394 . S
C1221 C1222 1.516 . S
C1222 C1221 1.516 . S
C1222 C1223 1.502 . S
C1222 C1224 1.561 . S
C1222 C1225 1.526 . S
C1223 H1207 0.959 . S
C1223 H1208 0.959 . S
C1223 H1209 0.961 . S
C1223 C1222 1.502 . S
C1224 H1210 0.960 . S
C1224 H1211 0.961 . S
C1224 H1212 0.959 . S
C1224 C1222 1.561 . S
C1225 C1222 1.526 . S
C1225 C1226 1.396 . S
C1225 C1230 1.390 . S
C1226 C1220 1.465 . S
C1226 C1225 1.396 . S
C1226 C1227 1.399 . S
C1227 H1213 0.929 . S
C1227 C1226 1.399 . S
C1227 C1228 1.385 . S
C1228 H1214 0.931 . S
C1228 C1227 1.385 . S
C1228 C1229 1.389 . S
C1229 C1228 1.389 . S
C1229 C1230 1.387 . S
C1230 H1215 0.930 . S
C1230 C1225 1.390 . S
C1230 C1229 1.387 . S
H1231 C1243 0.930 . S
H1232 C1245 0.930 . S
H1233 C1246 0.930 . S
H1234 C1250 0.959 . S
H1235 C1250 0.959 . S
H1236 C1250 0.961 . S
H1237 C1251 0.960 . S
H1238 C1251 0.961 . S
H1239 C1251 0.959 . S
H1240 C1254 0.929 . S
H1241 C1255 0.931 1_655 S
H1242 C1257 0.930 . S
C1243 H1231 0.930 . S
C1243 C1244 1.399 . S
C1243 C1248 1.399 . S
C1244 C1243 1.399 . S
C1244 C1245 1.376 . S
C1245 H1232 0.930 . S
C1245 C1244 1.376 . S
C1245 C1246 1.388 . S
C1246 H1233 0.930 . S
C1246 C1245 1.388 . S
C1246 C1247 1.390 . S
C1247 C1246 1.390 . S
C1247 C1248 1.394 . S
C1247 C1253 1.465 . S
C1248 C1243 1.399 . S
C1248 C1247 1.394 . S
C1248 C1249 1.516 . S
C1249 C1248 1.516 . S
C1249 C1250 1.502 . S
C1249 C1251 1.561 . S
C1249 C1252 1.526 . S
C1250 H1234 0.959 . S
C1250 H1235 0.959 . S
C1250 H1236 0.961 . S
C1250 C1249 1.502 . S
C1251 H1237 0.960 . S
C1251 H1238 0.961 . S
C1251 H1239 0.959 . S
C1251 C1249 1.561 . S
C1252 C1249 1.526 . S
C1252 C1253 1.396 . S
C1252 C1257 1.390 . S
C1253 C1247 1.465 . S
C1253 C1252 1.396 . S
C1253 C1254 1.399 . S
C1254 H1240 0.929 . S
C1254 C1253 1.399 . S
C1254 C1255 1.385 . S
C1255 H1241 0.931 1_455 S
C1255 C1254 1.385 . S
C1255 C1256 1.389 1_455 S
C1256 C1255 1.389 1_655 S
C1256 C1257 1.387 1_655 S
C1257 H1242 0.930 . S
C1257 C1252 1.390 . S
C1257 C1256 1.387 1_455 S
H1258 C1270 0.930 . S
H1259 C1272 0.930 . S
H1260 C1273 0.930 . S
H1261 C1277 0.959 . S
H1262 C1277 0.959 . S
H1263 C1277 0.961 . S
H1264 C1278 0.960 . S
H1265 C1278 0.961 . S
H1266 C1278 0.959 . S
H1267 C1281 0.929 . S
H1268 C1282 0.931 . S
H1269 C1284 0.930 . S
C1270 H1258 0.930 . S
C1270 C1271 1.399 . S
C1270 C1275 1.399 . S
C1271 C1270 1.399 . S
C1271 C1272 1.376 . S
C1272 H1259 0.930 . S
C1272 C1271 1.376 . S
C1272 C1273 1.388 . S
C1273 H1260 0.930 . S
C1273 C1272 1.388 . S
C1273 C1274 1.390 . S
C1274 C1273 1.390 . S
C1274 C1275 1.394 . S
C1274 C1280 1.465 . S
C1275 C1270 1.399 . S
C1275 C1274 1.394 . S
C1275 C1276 1.516 . S
C1276 C1275 1.516 . S
C1276 C1277 1.502 . S
C1276 C1278 1.561 . S
C1276 C1279 1.526 . S
C1277 H1261 0.959 . S
C1277 H1262 0.959 . S
C1277 H1263 0.961 . S
C1277 C1276 1.502 . S
C1278 H1264 0.960 . S
C1278 H1265 0.961 . S
C1278 H1266 0.959 . S
C1278 C1276 1.561 . S
C1279 C1276 1.526 . S
C1279 C1280 1.396 . S
C1279 C1284 1.390 . S
C1280 C1274 1.465 . S
C1280 C1279 1.396 . S
C1280 C1281 1.399 . S
C1281 H1267 0.929 . S
C1281 C1280 1.399 . S
C1281 C1282 1.385 . S
C1282 H1268 0.931 . S
C1282 C1281 1.385 . S
C1282 C1283 1.389 . S
C1283 C1282 1.389 . S
C1283 C1284 1.387 . S
C1284 H1269 0.930 . S
C1284 C1279 1.390 . S
C1284 C1283 1.387 . S
H1285 C1297 0.930 . S
H1286 C1299 0.930 . S
H1287 C1300 0.930 . S
H1288 C1304 0.959 . S
H1289 C1304 0.959 . S
H1290 C1304 0.961 . S
H1291 C1305 0.960 . S
H1292 C1305 0.961 . S
H1293 C1305 0.959 . S
H1294 C1308 0.929 . S
H1295 C1309 0.931 . S
H1296 C1311 0.930 . S
C1297 H1285 0.930 . S
C1297 C1298 1.399 1_455 S
C1297 C1302 1.399 . S
C1298 C1297 1.399 1_655 S
C1298 C1299 1.376 . S
C1299 H1286 0.930 . S
C1299 C1298 1.376 . S
C1299 C1300 1.388 1_655 S
C1300 H1287 0.930 . S
C1300 C1299 1.388 1_455 S
C1300 C1301 1.390 . S
C1301 C1300 1.390 . S
C1301 C1302 1.394 . S
C1301 C1307 1.465 . S
C1302 C1297 1.399 . S
C1302 C1301 1.394 . S
C1302 C1303 1.516 . S
C1303 C1302 1.516 . S
C1303 C1304 1.502 . S
C1303 C1305 1.561 . S
C1303 C1306 1.526 . S
C1304 H1288 0.959 . S
C1304 H1289 0.959 . S
C1304 H1290 0.961 . S
C1304 C1303 1.502 . S
C1305 H1291 0.960 . S
C1305 H1292 0.961 . S
C1305 H1293 0.959 . S
C1305 C1303 1.561 . S
C1306 C1303 1.526 . S
C1306 C1307 1.396 . S
C1306 C1311 1.390 . S
C1307 C1301 1.465 . S
C1307 C1306 1.396 . S
C1307 C1308 1.399 . S
C1308 H1294 0.929 . S
C1308 C1307 1.399 . S
C1308 C1309 1.385 . S
C1309 H1295 0.931 . S
C1309 C1308 1.385 . S
C1309 C1310 1.389 . S
C1310 C1309 1.389 . S
C1310 C1311 1.387 . S
C1311 H1296 0.930 . S
C1311 C1306 1.390 . S
C1311 C1310 1.387 . S
H1312 C1324 0.930 . S
H1313 C1326 0.930 . S
H1314 C1327 0.930 . S
H1315 C1331 0.959 . S
H1316 C1331 0.959 . S
H1317 C1331 0.961 . S
H1318 C1332 0.960 . S
H1319 C1332 0.961 . S
H1320 C1332 0.959 . S
H1321 C1335 0.929 . S
H1322 C1336 0.931 . S
H1323 C1338 0.930 . S
C1324 H1312 0.930 . S
C1324 C1325 1.399 . S
C1324 C1329 1.399 . S
C1325 C1324 1.399 . S
C1325 C1326 1.376 . S
C1326 H1313 0.930 . S
C1326 C1325 1.376 . S
C1326 C1327 1.388 1_655 S
C1327 H1314 0.930 . S
C1327 C1326 1.388 1_455 S
C1327 C1328 1.390 . S
C1328 C1327 1.390 . S
C1328 C1329 1.394 1_455 S
C1328 C1334 1.465 . S
C1329 C1324 1.399 . S
C1329 C1328 1.394 1_655 S
C1329 C1330 1.516 . S
C1330 C1329 1.516 . S
C1330 C1331 1.502 . S
C1330 C1332 1.561 1_655 S
C1330 C1333 1.526 1_655 S
C1331 H1315 0.959 . S
C1331 H1316 0.959 . S
C1331 H1317 0.961 . S
C1331 C1330 1.502 . S
C1332 H1318 0.960 . S
C1332 H1319 0.961 . S
C1332 H1320 0.959 . S
C1332 C1330 1.561 1_455 S
C1333 C1330 1.526 1_455 S
C1333 C1334 1.396 . S
C1333 C1338 1.390 . S
C1334 C1328 1.465 . S
C1334 C1333 1.396 . S
C1334 C1335 1.399 . S
C1335 H1321 0.929 . S
C1335 C1334 1.399 . S
C1335 C1336 1.385 . S
C1336 H1322 0.931 . S
C1336 C1335 1.385 . S
C1336 C1337 1.389 . S
C1337 C1336 1.389 . S
C1337 C1338 1.387 . S
C1338 H1323 0.930 . S
C1338 C1333 1.390 . S
C1338 C1337 1.387 . S
H1339 C1351 0.930 . S
H1340 C1353 0.930 . S
H1341 C1354 0.930 . S
H1342 C1358 0.959 . S
H1343 C1358 0.959 . S
H1344 C1358 0.961 . S
H1345 C1359 0.960 . S
H1346 C1359 0.961 . S
H1347 C1359 0.959 . S
H1348 C1362 0.929 . S
H1349 C1363 0.931 . S
H1350 C1365 0.930 . S
C1351 H1339 0.930 . S
C1351 C1352 1.399 . S
C1351 C1356 1.399 . S
C1352 C1351 1.399 . S
C1352 C1353 1.376 . S
C1353 H1340 0.930 . S
C1353 C1352 1.376 . S
C1353 C1354 1.388 . S
C1354 H1341 0.930 . S
C1354 C1353 1.388 . S
C1354 C1355 1.390 . S
C1355 C1354 1.390 . S
C1355 C1356 1.394 . S
C1355 C1361 1.465 1_565 S
C1356 C1351 1.399 . S
C1356 C1355 1.394 . S
C1356 C1357 1.516 1_565 S
C1357 C1356 1.516 1_545 S
C1357 C1358 1.502 . S
C1357 C1359 1.561 . S
C1357 C1360 1.526 . S
C1358 H1342 0.959 . S
C1358 H1343 0.959 . S
C1358 H1344 0.961 . S
C1358 C1357 1.502 . S
C1359 H1345 0.960 . S
C1359 H1346 0.961 . S
C1359 H1347 0.959 . S
C1359 C1357 1.561 . S
C1360 C1357 1.526 . S
C1360 C1361 1.396 . S
C1360 C1365 1.390 . S
C1361 C1355 1.465 1_545 S
C1361 C1360 1.396 . S
C1361 C1362 1.399 . S
C1362 H1348 0.929 . S
C1362 C1361 1.399 . S
C1362 C1363 1.385 . S
C1363 H1349 0.931 . S
C1363 C1362 1.385 . S
C1363 C1364 1.389 . S
C1364 C1363 1.389 . S
C1364 C1365 1.387 . S
C1365 H1350 0.930 . S
C1365 C1360 1.390 . S
C1365 C1364 1.387 . S
H1366 C1378 0.930 1_556 S
H1367 C1380 0.930 1_455 S
H1368 C1381 0.930 . S
H1369 C1385 0.959 . S
H1370 C1385 0.959 . S
H1371 C1385 0.961 . S
H1372 C1386 0.960 . S
H1373 C1386 0.961 . S
H1374 C1386 0.959 . S
H1375 C1389 0.929 . S
H1376 C1390 0.931 . S
H1377 C1392 0.930 1_655 S
C1378 H1366 0.930 1_554 S
C1378 C1379 1.399 . S
C1378 C1383 1.397 1_554 S
C1379 C1378 1.399 . S
C1379 C1380 1.376 . S
C1380 H1367 0.930 1_655 S
C1380 C1379 1.376 . S
C1380 C1381 1.388 1_655 S
C1381 H1368 0.930 . S
C1381 C1380 1.388 1_455 S
C1381 C1382 1.390 . S
C1382 C1381 1.390 . S
C1382 C1383 1.387 1_454 S
C1382 C1388 1.465 1_545 S
C1383 C1378 1.397 1_556 S
C1383 C1382 1.387 1_656 S
C1383 C1384 1.524 . S
C1384 C1383 1.524 . S
C1384 C1385 1.502 . S
C1384 C1386 1.561 1_655 S
C1384 C1387 1.526 1_645 S
C1385 H1369 0.959 . S
C1385 H1370 0.959 . S
C1385 H1371 0.961 . S
C1385 C1384 1.502 . S
C1386 H1372 0.960 . S
C1386 H1373 0.961 . S
C1386 H1374 0.959 . S
C1386 C1384 1.561 1_455 S
C1387 C1384 1.526 1_465 S
C1387 C1388 1.396 1_556 S
C1387 C1392 1.390 . S
C1388 C1382 1.465 1_565 S
C1388 C1387 1.396 1_554 S
C1388 C1389 1.399 . S
C1389 H1375 0.929 . S
C1389 C1388 1.399 . S
C1389 C1390 1.385 . S
C1390 H1376 0.931 . S
C1390 C1389 1.385 . S
C1390 C1391 1.389 1_554 S
C1391 C1390 1.389 1_556 S
C1391 C1392 1.387 . S
C1392 H1377 0.930 1_455 S
C1392 C1387 1.390 . S
C1392 C1391 1.387 . S
H1393 C1405 0.930 . S
H1394 C1407 0.930 . S
H1395 C1408 0.930 . S
H1396 C1412 0.959 . S
H1397 C1412 0.959 . S
H1398 C1412 0.961 . S
H1399 C1413 0.960 . S
H1400 C1413 0.961 . S
H1401 C1413 0.959 . S
H1402 C1416 0.929 . S
H1403 C1417 0.931 . S
H1404 C1419 0.930 . S
C1405 H1393 0.930 . S
C1405 C1406 1.399 . S
C1405 C1410 1.399 . S
C1406 C1405 1.399 . S
C1406 C1407 1.376 . S
C1407 H1394 0.930 . S
C1407 C1406 1.376 . S
C1407 C1408 1.388 . S
C1408 H1395 0.930 . S
C1408 C1407 1.388 . S
C1408 C1409 1.390 . S
C1409 C1408 1.390 . S
C1409 C1410 1.394 . S
C1409 C1415 1.465 . S
C1410 C1405 1.399 . S
C1410 C1409 1.394 . S
C1410 C1411 1.516 1_554 S
C1411 C1410 1.516 1_556 S
C1411 C1412 1.502 . S
C1411 C1413 1.561 . S
C1411 C1414 1.526 . S
C1412 H1396 0.959 . S
C1412 H1397 0.959 . S
C1412 H1398 0.961 . S
C1412 C1411 1.502 . S
C1413 H1399 0.960 . S
C1413 H1400 0.961 . S
C1413 H1401 0.959 . S
C1413 C1411 1.561 . S
C1414 C1411 1.526 . S
C1414 C1415 1.396 1_556 S
C1414 C1419 1.390 . S
C1415 C1409 1.465 . S
C1415 C1414 1.396 1_554 S
C1415 C1416 1.399 . S
C1416 H1402 0.929 . S
C1416 C1415 1.399 . S
C1416 C1417 1.385 1_554 S
C1417 H1403 0.931 . S
C1417 C1416 1.385 1_556 S
C1417 C1418 1.389 . S
C1418 C1417 1.389 . S
C1418 C1419 1.387 . S
C1419 H1404 0.930 . S
C1419 C1414 1.390 . S
C1419 C1418 1.387 . S
H1420 C1432 0.923 1_455 S
H1421 C1434 0.930 . S
H1422 C1435 0.930 . S
H1423 C1439 0.959 . S
H1424 C1439 0.959 . S
H1425 C1439 0.961 . S
H1426 C1440 0.960 . S
H1427 C1440 0.961 . S
H1428 C1440 0.959 1_655 S
H1429 C1443 0.929 . S
H1430 C1444 0.931 . S
H1431 C1446 0.930 . S
C1432 H1420 0.923 1_655 S
C1432 C1433 1.406 . S
C1432 C1437 1.399 1_655 S
C1433 C1432 1.406 . S
C1433 C1434 1.376 . S
C1434 H1421 0.930 . S
C1434 C1433 1.376 . S
C1434 C1435 1.388 . S
C1435 H1422 0.930 . S
C1435 C1434 1.388 . S
C1435 C1436 1.390 . S
C1436 C1435 1.390 . S
C1436 C1437 1.394 1_655 S
C1436 C1442 1.465 . S
C1437 C1432 1.399 1_455 S
C1437 C1436 1.394 1_455 S
C1437 C1438 1.516 . S
C1438 C1437 1.516 . S
C1438 C1439 1.502 . S
C1438 C1440 1.561 . S
C1438 C1441 1.526 . S
C1439 H1423 0.959 . S
C1439 H1424 0.959 . S
C1439 H1425 0.961 . S
C1439 C1438 1.502 . S
C1440 H1426 0.960 . S
C1440 H1427 0.961 . S
C1440 H1428 0.959 1_455 S
C1440 C1438 1.561 . S
C1441 C1438 1.526 . S
C1441 C1442 1.396 1_455 S
C1441 C1446 1.390 . S
C1442 C1436 1.465 . S
C1442 C1441 1.396 1_655 S
C1442 C1443 1.399 . S
C1443 H1429 0.929 . S
C1443 C1442 1.399 . S
C1443 C1444 1.385 . S
C1444 H1430 0.931 . S
C1444 C1443 1.385 . S
C1444 C1445 1.389 1_655 S
C1445 C1444 1.389 1_455 S
C1445 C1446 1.387 . S
C1446 H1431 0.930 . S
C1446 C1441 1.390 . S
C1446 C1445 1.387 . S
H1447 C1459 0.930 . S
H1448 C1461 0.930 . S
H1449 C1462 0.930 . S
H1450 C1466 0.959 . S
H1451 C1466 0.959 . S
H1452 C1466 0.961 . S
H1453 C1467 0.960 . S
H1454 C1467 0.961 . S
H1455 C1467 0.959 . S
H1456 C1470 0.929 . S
H1457 C1471 0.931 . S
H1458 C1473 0.930 . S
C1459 H1447 0.930 . S
C1459 C1460 1.399 . S
C1459 C1464 1.399 . S
C1460 C1459 1.399 . S
C1460 C1461 1.376 . S
C1461 H1448 0.930 . S
C1461 C1460 1.376 . S
C1461 C1462 1.388 . S
C1462 H1449 0.930 . S
C1462 C1461 1.388 . S
C1462 C1463 1.390 . S
C1463 C1462 1.390 . S
C1463 C1464 1.394 . S
C1463 C1469 1.465 1_565 S
C1464 C1459 1.399 . S
C1464 C1463 1.394 . S
C1464 C1465 1.516 1_565 S
C1465 C1464 1.516 1_545 S
C1465 C1466 1.502 . S
C1465 C1467 1.561 . S
C1465 C1468 1.526 . S
C1466 H1450 0.959 . S
C1466 H1451 0.959 . S
C1466 H1452 0.961 . S
C1466 C1465 1.502 . S
C1467 H1453 0.960 . S
C1467 H1454 0.961 . S
C1467 H1455 0.959 . S
C1467 C1465 1.561 . S
C1468 C1465 1.526 . S
C1468 C1469 1.396 . S
C1468 C1473 1.390 . S
C1469 C1463 1.465 1_545 S
C1469 C1468 1.396 . S
C1469 C1470 1.399 . S
C1470 H1456 0.929 . S
C1470 C1469 1.399 . S
C1470 C1471 1.385 . S
C1471 H1457 0.931 . S
C1471 C1470 1.385 . S
C1471 C1472 1.389 . S
C1472 C1471 1.389 . S
C1472 C1473 1.387 . S
C1473 H1458 0.930 . S
C1473 C1468 1.390 . S
C1473 C1472 1.387 . S
H1474 C1486 0.930 . S
H1475 C1488 0.930 . S
H1476 C1489 0.930 . S
H1477 C1493 0.932 1_554 S
H1478 C1493 0.959 . S
H1479 C1493 0.961 . S
H1480 C1494 0.960 . S
H1481 C1494 0.961 . S
H1482 C1494 0.959 . S
H1483 C1497 0.929 . S
H1484 C1498 0.931 . S
H1485 C1500 0.930 . S
C1486 H1474 0.930 . S
C1486 C1487 1.399 . S
C1486 C1491 1.399 . S
C1487 C1486 1.399 . S
C1487 C1488 1.376 . S
C1488 H1475 0.930 . S
C1488 C1487 1.376 . S
C1488 C1489 1.388 1_556 S
C1489 H1476 0.930 . S
C1489 C1488 1.388 1_554 S
C1489 C1490 1.390 . S
C1490 C1489 1.390 . S
C1490 C1491 1.394 1_554 S
C1490 C1496 1.465 . S
C1491 C1486 1.399 . S
C1491 C1490 1.394 1_556 S
C1491 C1492 1.516 . S
C1492 C1491 1.516 . S
C1492 C1493 1.502 . S
C1492 C1494 1.561 . S
C1492 C1495 1.526 1_556 S
C1493 H1477 0.932 1_556 S
C1493 H1478 0.959 . S
C1493 H1479 0.961 . S
C1493 C1492 1.502 . S
C1494 H1480 0.960 . S
C1494 H1481 0.961 . S
C1494 H1482 0.959 . S
C1494 C1492 1.561 . S
C1495 C1492 1.526 1_554 S
C1495 C1496 1.396 . S
C1495 C1500 1.390 . S
C1496 C1490 1.465 . S
C1496 C1495 1.396 . S
C1496 C1497 1.399 . S
C1497 H1483 0.929 . S
C1497 C1496 1.399 . S
C1497 C1498 1.385 . S
C1498 H1484 0.931 . S
C1498 C1497 1.385 . S
C1498 C1499 1.389 . S
C1499 C1498 1.389 . S
C1499 C1500 1.387 . S
C1500 H1485 0.930 . S
C1500 C1495 1.390 . S
C1500 C1499 1.387 . S
H1501 C1513 0.930 . S
H1502 C1515 0.930 . S
H1503 C1516 0.930 . S
H1504 C1520 0.959 . S
H1505 C1520 0.959 . S
H1506 C1520 0.961 . S
H1507 C1521 0.960 . S
H1508 C1521 0.961 . S
H1509 C1521 0.959 . S
H1510 C1524 0.929 . S
H1511 C1525 0.931 . S
H1512 C1527 0.930 . S
C1513 H1501 0.930 . S
C1513 C1514 1.399 . S
C1513 C1518 1.399 . S
C1514 C1513 1.399 . S
C1514 C1515 1.376 . S
C1515 H1502 0.930 . S
C1515 C1514 1.376 . S
C1515 C1516 1.388 . S
C1516 H1503 0.930 . S
C1516 C1515 1.388 . S
C1516 C1517 1.390 . S
C1517 C1516 1.390 . S
C1517 C1518 1.394 . S
C1517 C1523 1.465 . S
C1518 C1513 1.399 . S
C1518 C1517 1.394 . S
C1518 C1519 1.516 . S
C1519 C1518 1.516 . S
C1519 C1520 1.502 . S
C1519 C1521 1.561 . S
C1519 C1522 1.526 . S
C1520 H1504 0.959 . S
C1520 H1505 0.959 . S
C1520 H1506 0.961 . S
C1520 C1519 1.502 . S
C1521 H1507 0.960 . S
C1521 H1508 0.961 . S
C1521 H1509 0.959 . S
C1521 C1519 1.561 . S
C1522 C1519 1.526 . S
C1522 C1523 1.396 . S
C1522 C1527 1.390 . S
C1523 C1517 1.465 . S
C1523 C1522 1.396 . S
C1523 C1524 1.399 . S
C1524 H1510 0.929 . S
C1524 C1523 1.399 . S
C1524 C1525 1.385 . S
C1525 H1511 0.931 . S
C1525 C1524 1.385 . S
C1525 C1526 1.389 . S
C1526 C1525 1.389 . S
C1526 C1527 1.387 . S
C1527 H1512 0.930 . S
C1527 C1522 1.390 . S
C1527 C1526 1.387 . S
H1528 C1540 0.930 . S
H1529 C1542 0.930 . S
H1530 C1543 0.930 . S
H1531 C1547 0.959 . S
H1532 C1547 0.959 . S
H1533 C1547 0.961 . S
H1534 C1548 0.960 . S
H1535 C1548 0.961 . S
H1536 C1548 0.959 . S
H1537 C1551 0.929 . S
H1538 C1552 0.931 . S
H1539 C1554 0.930 . S
C1540 H1528 0.930 . S
C1540 C1541 1.399 . S
C1540 C1545 1.399 . S
C1541 C1540 1.399 . S
C1541 C1542 1.376 . S
C1542 H1529 0.930 . S
C1542 C1541 1.376 . S
C1542 C1543 1.388 . S
C1543 H1530 0.930 . S
C1543 C1542 1.388 . S
C1543 C1544 1.390 . S
C1544 C1543 1.390 . S
C1544 C1545 1.394 . S
C1544 C1550 1.465 . S
C1545 C1540 1.399 . S
C1545 C1544 1.394 . S
C1545 C1546 1.516 1_455 S
C1546 C1545 1.516 1_655 S
C1546 C1547 1.502 . S
C1546 C1548 1.561 1_655 S
C1546 C1549 1.526 . S
C1547 H1531 0.959 . S
C1547 H1532 0.959 . S
C1547 H1533 0.961 . S
C1547 C1546 1.502 . S
C1548 H1534 0.960 . S
C1548 H1535 0.961 . S
C1548 H1536 0.959 . S
C1548 C1546 1.561 1_455 S
C1549 C1546 1.526 . S
C1549 C1550 1.396 1_655 S
C1549 C1554 1.390 . S
C1550 C1544 1.465 . S
C1550 C1549 1.396 1_455 S
C1550 C1551 1.399 . S
C1551 H1537 0.929 . S
C1551 C1550 1.399 . S
C1551 C1552 1.385 1_455 S
C1552 H1538 0.931 . S
C1552 C1551 1.385 1_655 S
C1552 C1553 1.389 . S
C1553 C1552 1.389 . S
C1553 C1554 1.387 . S
C1554 H1539 0.930 . S
C1554 C1549 1.390 . S
C1554 C1553 1.387 . S
H1555 C1567 0.930 . S
H1556 C1569 0.930 . S
H1557 C1570 0.930 . S
H1558 C1574 0.959 . S
H1559 C1574 0.959 . S
H1560 C1574 0.961 . S
H1561 C1575 0.960 . S
H1562 C1575 0.961 . S
H1563 C1575 0.959 . S
H1564 C1578 0.929 . S
H1565 C1579 0.931 . S
H1566 C1581 0.930 . S
C1567 H1555 0.930 . S
C1567 C1568 1.399 . S
C1567 C1572 1.399 . S
C1568 C1567 1.399 . S
C1568 C1569 1.376 . S
C1569 H1556 0.930 . S
C1569 C1568 1.376 . S
C1569 C1570 1.388 . S
C1570 H1557 0.930 . S
C1570 C1569 1.388 . S
C1570 C1571 1.390 . S
C1571 C1570 1.390 . S
C1571 C1572 1.394 . S
C1571 C1577 1.465 . S
C1572 C1567 1.399 . S
C1572 C1571 1.394 . S
C1572 C1573 1.516 . S
C1573 C1572 1.516 . S
C1573 C1574 1.502 . S
C1573 C1575 1.561 . S
C1573 C1576 1.526 . S
C1574 H1558 0.959 . S
C1574 H1559 0.959 . S
C1574 H1560 0.961 . S
C1574 C1573 1.502 . S
C1575 H1561 0.960 . S
C1575 H1562 0.961 . S
C1575 H1563 0.959 . S
C1575 C1573 1.561 . S
C1576 C1573 1.526 . S
C1576 C1577 1.396 . S
C1576 C1581 1.390 . S
C1577 C1571 1.465 . S
C1577 C1576 1.396 . S
C1577 C1578 1.399 . S
C1578 H1564 0.929 . S
C1578 C1577 1.399 . S
C1578 C1579 1.385 . S
C1579 H1565 0.931 . S
C1579 C1578 1.385 . S
C1579 C1580 1.389 . S
C1580 C1579 1.389 . S
C1580 C1581 1.387 . S
C1581 H1566 0.930 . S
C1581 C1576 1.390 . S
C1581 C1580 1.387 . S
H1582 C1594 0.930 . S
H1583 C1596 0.930 . S
H1584 C1597 0.930 . S
H1585 C1601 0.959 . S
H1586 C1601 0.959 . S
H1587 C1601 0.961 . S
H1588 C1602 0.960 . S
H1589 C1602 0.961 . S
H1590 C1602 0.959 . S
H1591 C1605 0.929 . S
H1592 C1606 0.931 . S
H1593 C1608 0.930 . S
C1594 H1582 0.930 . S
C1594 C1595 1.399 . S
C1594 C1599 1.399 . S
C1595 C1594 1.399 . S
C1595 C1596 1.376 . S
C1596 H1583 0.930 . S
C1596 C1595 1.376 . S
C1596 C1597 1.388 . S
C1597 H1584 0.930 . S
C1597 C1596 1.388 . S
C1597 C1598 1.390 . S
C1598 C1597 1.390 . S
C1598 C1599 1.394 . S
C1598 C1604 1.465 . S
C1599 C1594 1.399 . S
C1599 C1598 1.394 . S
C1599 C1600 1.516 . S
C1600 C1599 1.516 . S
C1600 C1601 1.502 . S
C1600 C1602 1.561 . S
C1600 C1603 1.526 . S
C1601 H1585 0.959 . S
C1601 H1586 0.959 . S
C1601 H1587 0.961 . S
C1601 C1600 1.502 . S
C1602 H1588 0.960 . S
C1602 H1589 0.961 . S
C1602 H1590 0.959 . S
C1602 C1600 1.561 . S
C1603 C1600 1.526 . S
C1603 C1604 1.396 . S
C1603 C1608 1.390 . S
C1604 C1598 1.465 . S
C1604 C1603 1.396 . S
C1604 C1605 1.399 . S
C1605 H1591 0.929 . S
C1605 C1604 1.399 . S
C1605 C1606 1.385 . S
C1606 H1592 0.931 . S
C1606 C1605 1.385 . S
C1606 C1607 1.389 . S
C1607 C1606 1.389 . S
C1607 C1608 1.387 . S
C1608 H1593 0.930 . S
C1608 C1603 1.390 . S
C1608 C1607 1.387 . S
H1609 C1621 0.930 . S
H1610 C1623 0.930 . S
H1611 C1624 0.930 . S
H1612 C1628 0.959 . S
H1613 C1628 0.959 . S
H1614 C1628 0.961 . S
H1615 C1629 0.960 . S
H1616 C1629 0.961 . S
H1617 C1629 0.959 . S
H1618 C1632 0.929 . S
H1619 C1633 0.931 . S
H1620 C1635 0.930 . S
C1621 H1609 0.930 . S
C1621 C1622 1.399 . S
C1621 C1626 1.399 . S
C1622 C1621 1.399 . S
C1622 C1623 1.376 . S
C1623 H1610 0.930 . S
C1623 C1622 1.376 . S
C1623 C1624 1.388 . S
C1624 H1611 0.930 . S
C1624 C1623 1.388 . S
C1624 C1625 1.390 . S
C1625 C1624 1.390 . S
C1625 C1626 1.394 . S
C1625 C1631 1.465 . S
C1626 C1621 1.399 . S
C1626 C1625 1.394 . S
C1626 C1627 1.516 . S
C1627 C1626 1.516 . S
C1627 C1628 1.502 . S
C1627 C1629 1.561 . S
C1627 C1630 1.526 . S
C1628 H1612 0.959 . S
C1628 H1613 0.959 . S
C1628 H1614 0.961 . S
C1628 C1627 1.502 . S
C1629 H1615 0.960 . S
C1629 H1616 0.961 . S
C1629 H1617 0.959 . S
C1629 C1627 1.561 . S
C1630 C1627 1.526 . S
C1630 C1631 1.396 . S
C1630 C1635 1.390 . S
C1631 C1625 1.465 . S
C1631 C1630 1.396 . S
C1631 C1632 1.399 . S
C1632 H1618 0.929 . S
C1632 C1631 1.399 . S
C1632 C1633 1.385 . S
C1633 H1619 0.931 . S
C1633 C1632 1.385 . S
C1633 C1634 1.389 . S
C1634 C1633 1.389 . S
C1634 C1635 1.387 . S
C1635 H1620 0.930 . S
C1635 C1630 1.390 . S
C1635 C1634 1.387 . S
H1636 C1648 0.930 . S
H1637 C1650 0.930 . S
H1638 C1651 0.930 . S
H1639 C1655 0.959 . S
H1640 C1655 0.959 . S
H1641 C1655 0.961 . S
H1642 C1656 0.960 . S
H1643 C1656 0.961 . S
H1644 C1656 0.959 . S
H1645 C1659 0.929 . S
H1646 C1660 0.931 . S
H1647 C1662 0.930 . S
C1648 H1636 0.930 . S
C1648 C1649 1.399 . S
C1648 C1653 1.399 . S
C1649 C1648 1.399 . S
C1649 C1650 1.376 . S
C1650 H1637 0.930 . S
C1650 C1649 1.376 . S
C1650 C1651 1.388 . S
C1651 H1638 0.930 . S
C1651 C1650 1.388 . S
C1651 C1652 1.390 . S
C1652 C1651 1.390 . S
C1652 C1653 1.394 . S
C1652 C1658 1.465 . S
C1653 C1648 1.399 . S
C1653 C1652 1.394 . S
C1653 C1654 1.516 . S
C1654 C1653 1.516 . S
C1654 C1655 1.502 . S
C1654 C1656 1.561 . S
C1654 C1657 1.526 . S
C1655 H1639 0.959 . S
C1655 H1640 0.959 . S
C1655 H1641 0.961 . S
C1655 C1654 1.502 . S
C1656 H1642 0.960 . S
C1656 H1643 0.961 . S
C1656 H1644 0.959 . S
C1656 C1654 1.561 . S
C1657 C1654 1.526 . S
C1657 C1658 1.396 . S
C1657 C1662 1.390 . S
C1658 C1652 1.465 . S
C1658 C1657 1.396 . S
C1658 C1659 1.399 . S
C1659 H1645 0.929 . S
C1659 C1658 1.399 . S
C1659 C1660 1.385 . S
C1660 H1646 0.931 . S
C1660 C1659 1.385 . S
C1660 C1661 1.389 . S
C1661 C1660 1.389 . S
C1661 C1662 1.387 . S
C1662 H1647 0.930 . S
C1662 C1657 1.390 . S
C1662 C1661 1.387 . S
H1663 C1675 0.930 . S
H1664 C1677 0.930 . S
H1665 C1678 0.930 . S
H1666 C1682 0.959 . S
H1667 C1682 0.959 . S
H1668 C1682 0.961 . S
H1669 C1683 0.960 . S
H1670 C1683 0.961 . S
H1671 C1683 0.959 . S
H1672 C1686 0.929 . S
H1673 C1687 0.931 . S
H1674 C1689 0.930 . S
C1675 H1663 0.930 . S
C1675 C1676 1.399 . S
C1675 C1680 1.399 . S
C1676 C1675 1.399 . S
C1676 C1677 1.376 . S
C1677 H1664 0.930 . S
C1677 C1676 1.376 . S
C1677 C1678 1.388 . S
C1678 H1665 0.930 . S
C1678 C1677 1.388 . S
C1678 C1679 1.390 . S
C1679 C1678 1.390 . S
C1679 C1680 1.394 . S
C1679 C1685 1.465 1_545 S
C1680 C1675 1.399 . S
C1680 C1679 1.394 . S
C1680 C1681 1.516 . S
C1681 C1680 1.516 . S
C1681 C1682 1.502 . S
C1681 C1683 1.561 . S
C1681 C1684 1.526 1_545 S
C1682 H1666 0.959 . S
C1682 H1667 0.959 . S
C1682 H1668 0.961 . S
C1682 C1681 1.502 . S
C1683 H1669 0.960 . S
C1683 H1670 0.961 . S
C1683 H1671 0.959 . S
C1683 C1681 1.561 . S
C1684 C1681 1.526 1_565 S
C1684 C1685 1.396 . S
C1684 C1689 1.390 . S
C1685 C1679 1.465 1_565 S
C1685 C1684 1.396 . S
C1685 C1686 1.399 . S
C1686 H1672 0.929 . S
C1686 C1685 1.399 . S
C1686 C1687 1.385 . S
C1687 H1673 0.931 . S
C1687 C1686 1.385 . S
C1687 C1688 1.389 . S
C1688 C1687 1.389 . S
C1688 C1689 1.387 . S
C1689 H1674 0.930 . S
C1689 C1684 1.390 . S
C1689 C1688 1.387 . S
H1690 C1702 0.930 . S
H1691 C1704 0.930 . S
H1692 C1705 0.930 . S
H1693 C1709 0.959 . S
H1694 C1709 0.959 . S
H1695 C1709 0.961 . S
H1696 C1710 0.960 . S
H1697 C1710 0.961 . S
H1698 C1710 0.959 . S
H1699 C1713 0.929 . S
H1700 C1714 0.931 . S
H1701 C1716 0.930 . S
C1702 H1690 0.930 . S
C1702 C1703 1.399 . S
C1702 C1707 1.399 . S
C1703 C1702 1.399 . S
C1703 C1704 1.376 . S
C1704 H1691 0.930 . S
C1704 C1703 1.376 . S
C1704 C1705 1.388 . S
C1705 H1692 0.930 . S
C1705 C1704 1.388 . S
C1705 C1706 1.390 . S
C1706 C1705 1.390 . S
C1706 C1707 1.394 . S
C1706 C1712 1.465 . S
C1707 C1702 1.399 . S
C1707 C1706 1.394 . S
C1707 C1708 1.516 . S
C1708 C1707 1.516 . S
C1708 C1709 1.502 . S
C1708 C1710 1.561 . S
C1708 C1711 1.526 . S
C1709 H1693 0.959 . S
C1709 H1694 0.959 . S
C1709 H1695 0.961 . S
C1709 C1708 1.502 . S
C1710 H1696 0.960 . S
C1710 H1697 0.961 . S
C1710 H1698 0.959 . S
C1710 C1708 1.561 . S
C1711 C1708 1.526 . S
C1711 C1712 1.396 . S
C1711 C1716 1.390 . S
C1712 C1706 1.465 . S
C1712 C1711 1.396 . S
C1712 C1713 1.399 . S
C1713 H1699 0.929 . S
C1713 C1712 1.399 . S
C1713 C1714 1.385 . S
C1714 H1700 0.931 . S
C1714 C1713 1.385 . S
C1714 C1715 1.389 . S
C1715 C1714 1.389 . S
C1715 C1716 1.387 . S
C1716 H1701 0.930 . S
C1716 C1711 1.390 . S
C1716 C1715 1.387 . S
H1717 C1729 0.930 . S
H1718 C1731 0.930 . S
H1719 C1732 0.930 . S
H1720 C1736 0.959 . S
H1721 C1736 0.959 . S
H1722 C1736 0.961 . S
H1723 C1737 0.960 . S
H1724 C1737 0.961 . S
H1725 C1737 0.959 . S
H1726 C1740 0.929 . S
H1727 C1741 0.931 . S
H1728 C1743 0.930 . S
C1729 H1717 0.930 . S
C1729 C1730 1.399 . S
C1729 C1734 1.394 1_556 S
C1730 C1729 1.399 . S
C1730 C1731 1.376 . S
C1731 H1718 0.930 . S
C1731 C1730 1.376 . S
C1731 C1732 1.388 . S
C1732 H1719 0.930 . S
C1732 C1731 1.388 . S
C1732 C1733 1.390 . S
C1733 C1732 1.390 . S
C1733 C1734 1.388 1_556 S
C1733 C1739 1.465 1_556 S
C1734 C1729 1.394 1_554 S
C1734 C1733 1.388 1_554 S
C1734 C1735 1.527 . S
C1735 C1734 1.527 . S
C1735 C1736 1.502 . S
C1735 C1737 1.561 . S
C1735 C1738 1.526 . S
C1736 H1720 0.959 . S
C1736 H1721 0.959 . S
C1736 H1722 0.961 . S
C1736 C1735 1.502 . S
C1737 H1723 0.960 . S
C1737 H1724 0.961 . S
C1737 H1725 0.959 . S
C1737 C1735 1.561 . S
C1738 C1735 1.526 . S
C1738 C1739 1.396 . S
C1738 C1743 1.390 . S
C1739 C1733 1.465 1_554 S
C1739 C1738 1.396 . S
C1739 C1740 1.399 1_554 S
C1740 H1726 0.929 . S
C1740 C1739 1.399 1_556 S
C1740 C1741 1.385 1_556 S
C1741 H1727 0.931 . S
C1741 C1740 1.385 1_554 S
C1741 C1742 1.389 . S
C1742 C1741 1.389 . S
C1742 C1743 1.387 . S
C1743 H1728 0.930 . S
C1743 C1738 1.390 . S
C1743 C1742 1.387 . S
H1744 C1756 0.930 . S
H1745 C1758 0.930 . S
H1746 C1759 0.930 . S
H1747 C1763 0.959 . S
H1748 C1763 0.959 . S
H1749 C1763 0.961 . S
H1750 C1764 0.960 . S
H1751 C1764 0.961 . S
H1752 C1764 0.959 . S
H1753 C1767 0.929 . S
H1754 C1768 0.931 . S
H1755 C1770 0.930 . S
C1756 H1744 0.930 . S
C1756 C1757 1.399 . S
C1756 C1761 1.399 . S
C1757 C1756 1.399 . S
C1757 C1758 1.376 . S
C1758 H1745 0.930 . S
C1758 C1757 1.376 . S
C1758 C1759 1.388 . S
C1759 H1746 0.930 . S
C1759 C1758 1.388 . S
C1759 C1760 1.390 . S
C1760 C1759 1.390 . S
C1760 C1761 1.394 . S
C1760 C1766 1.465 . S
C1761 C1756 1.399 . S
C1761 C1760 1.394 . S
C1761 C1762 1.516 . S
C1762 C1761 1.516 . S
C1762 C1763 1.502 . S
C1762 C1764 1.561 . S
C1762 C1765 1.526 . S
C1763 H1747 0.959 . S
C1763 H1748 0.959 . S
C1763 H1749 0.961 . S
C1763 C1762 1.502 . S
C1764 H1750 0.960 . S
C1764 H1751 0.961 . S
C1764 H1752 0.959 . S
C1764 C1762 1.561 . S
C1765 C1762 1.526 . S
C1765 C1766 1.396 . S
C1765 C1770 1.390 . S
C1766 C1760 1.465 . S
C1766 C1765 1.396 . S
C1766 C1767 1.399 . S
C1767 H1753 0.929 . S
C1767 C1766 1.399 . S
C1767 C1768 1.385 . S
C1768 H1754 0.931 . S
C1768 C1767 1.385 . S
C1768 C1769 1.389 . S
C1769 C1768 1.389 . S
C1769 C1770 1.387 . S
C1770 H1755 0.930 . S
C1770 C1765 1.390 . S
C1770 C1769 1.387 . S
H1771 C1783 0.930 . S
H1772 C1785 0.930 . S
H1773 C1786 0.930 . S
H1774 C1790 0.959 . S
H1775 C1790 0.959 . S
H1776 C1790 0.961 . S
H1777 C1791 0.960 . S
H1778 C1791 0.961 . S
H1779 C1791 0.959 . S
H1780 C1794 0.929 . S
H1781 C1795 0.931 . S
H1782 C1797 0.930 . S
C1783 H1771 0.930 . S
C1783 C1784 1.399 . S
C1783 C1788 1.399 . S
C1784 C1783 1.399 . S
C1784 C1785 1.376 . S
C1785 H1772 0.930 . S
C1785 C1784 1.376 . S
C1785 C1786 1.388 . S
C1786 H1773 0.930 . S
C1786 C1785 1.388 . S
C1786 C1787 1.390 . S
C1787 C1786 1.390 . S
C1787 C1788 1.394 . S
C1787 C1793 1.465 . S
C1788 C1783 1.399 . S
C1788 C1787 1.394 . S
C1788 C1789 1.516 . S
C1789 C1788 1.516 . S
C1789 C1790 1.502 . S
C1789 C1791 1.561 . S
C1789 C1792 1.526 . S
C1790 H1774 0.959 . S
C1790 H1775 0.959 . S
C1790 H1776 0.961 . S
C1790 C1789 1.502 . S
C1791 H1777 0.960 . S
C1791 H1778 0.961 . S
C1791 H1779 0.959 . S
C1791 C1789 1.561 . S
C1792 C1789 1.526 . S
C1792 C1793 1.396 . S
C1792 C1797 1.390 . S
C1793 C1787 1.465 . S
C1793 C1792 1.396 . S
C1793 C1794 1.399 . S
C1794 H1780 0.929 . S
C1794 C1793 1.399 . S
C1794 C1795 1.385 . S
C1795 H1781 0.931 . S
C1795 C1794 1.385 . S
C1795 C1796 1.389 . S
C1796 C1795 1.389 . S
C1796 C1797 1.387 . S
C1797 H1782 0.930 . S
C1797 C1792 1.390 . S
C1797 C1796 1.387 . S
H1798 C1810 0.930 . S
H1799 C1812 0.930 . S
H1800 C1813 0.930 . S
H1801 C1817 0.959 . S
H1802 C1817 0.959 . S
H1803 C1817 0.961 . S
H1804 C1818 0.960 . S
H1805 C1818 0.961 . S
H1806 C1818 0.959 . S
H1807 C1821 0.929 . S
H1808 C1822 0.931 . S
H1809 C1824 0.930 . S
C1810 H1798 0.930 . S
C1810 C1811 1.399 . S
C1810 C1815 1.399 . S
C1811 C1810 1.399 . S
C1811 C1812 1.376 . S
C1812 H1799 0.930 . S
C1812 C1811 1.376 . S
C1812 C1813 1.388 . S
C1813 H1800 0.930 . S
C1813 C1812 1.388 . S
C1813 C1814 1.390 . S
C1814 C1813 1.390 . S
C1814 C1815 1.394 . S
C1814 C1820 1.465 . S
C1815 C1810 1.399 . S
C1815 C1814 1.394 . S
C1815 C1816 1.516 . S
C1816 C1815 1.516 . S
C1816 C1817 1.502 . S
C1816 C1818 1.561 . S
C1816 C1819 1.526 . S
C1817 H1801 0.959 . S
C1817 H1802 0.959 . S
C1817 H1803 0.961 . S
C1817 C1816 1.502 . S
C1818 H1804 0.960 . S
C1818 H1805 0.961 . S
C1818 H1806 0.959 . S
C1818 C1816 1.561 . S
C1819 C1816 1.526 . S
C1819 C1820 1.396 . S
C1819 C1824 1.390 . S
C1820 C1814 1.465 . S
C1820 C1819 1.396 . S
C1820 C1821 1.399 . S
C1821 H1807 0.929 . S
C1821 C1820 1.399 . S
C1821 C1822 1.385 . S
C1822 H1808 0.931 . S
C1822 C1821 1.385 . S
C1822 C1823 1.389 . S
C1823 C1822 1.389 . S
C1823 C1824 1.387 . S
C1824 H1809 0.930 . S
C1824 C1819 1.390 . S
C1824 C1823 1.387 . S
H1825 C1837 0.930 . S
H1826 C1839 0.930 . S
H1827 C1840 0.930 . S
H1828 C1844 0.959 . S
H1829 C1844 0.959 . S
H1830 C1844 0.961 . S
H1831 C1845 0.960 . S
H1832 C1845 0.961 . S
H1833 C1845 0.959 . S
H1834 C1848 0.929 . S
H1835 C1849 0.931 . S
H1836 C1851 0.930 . S
C1837 H1825 0.930 . S
C1837 C1838 1.399 . S
C1837 C1842 1.399 . S
C1838 C1837 1.399 . S
C1838 C1839 1.376 . S
C1839 H1826 0.930 . S
C1839 C1838 1.376 . S
C1839 C1840 1.388 . S
C1840 H1827 0.930 . S
C1840 C1839 1.388 . S
C1840 C1841 1.390 . S
C1841 C1840 1.390 . S
C1841 C1842 1.394 . S
C1841 C1847 1.465 . S
C1842 C1837 1.399 . S
C1842 C1841 1.394 . S
C1842 C1843 1.516 . S
C1843 C1842 1.516 . S
C1843 C1844 1.502 . S
C1843 C1845 1.561 . S
C1843 C1846 1.526 . S
C1844 H1828 0.959 . S
C1844 H1829 0.959 . S
C1844 H1830 0.961 . S
C1844 C1843 1.502 . S
C1845 H1831 0.960 . S
C1845 H1832 0.961 . S
C1845 H1833 0.959 . S
C1845 C1843 1.561 . S
C1846 C1843 1.526 . S
C1846 C1847 1.396 . S
C1846 C1851 1.390 . S
C1847 C1841 1.465 . S
C1847 C1846 1.396 . S
C1847 C1848 1.399 . S
C1848 H1834 0.929 . S
C1848 C1847 1.399 . S
C1848 C1849 1.385 . S
C1849 H1835 0.931 . S
C1849 C1848 1.385 . S
C1849 C1850 1.389 . S
C1850 C1849 1.389 . S
C1850 C1851 1.387 . S
C1851 H1836 0.930 . S
C1851 C1846 1.390 . S
C1851 C1850 1.387 . S
H1852 C1864 0.930 . S
H1853 C1866 0.930 . S
H1854 C1867 0.930 . S
H1855 C1871 0.959 . S
H1856 C1871 0.959 . S
H1857 C1871 0.961 . S
H1858 C1872 0.960 . S
H1859 C1872 0.961 . S
H1860 C1872 0.959 . S
H1861 C1875 0.929 . S
H1862 C1876 0.931 . S
H1863 C1878 0.930 . S
C1864 H1852 0.930 . S
C1864 C1865 1.399 . S
C1864 C1869 1.399 . S
C1865 C1864 1.399 . S
C1865 C1866 1.376 . S
C1866 H1853 0.930 . S
C1866 C1865 1.376 . S
C1866 C1867 1.388 . S
C1867 H1854 0.930 . S
C1867 C1866 1.388 . S
C1867 C1868 1.390 . S
C1868 C1867 1.390 . S
C1868 C1869 1.394 . S
C1868 C1874 1.465 . S
C1869 C1864 1.399 . S
C1869 C1868 1.394 . S
C1869 C1870 1.516 . S
C1870 C1869 1.516 . S
C1870 C1871 1.502 . S
C1870 C1872 1.561 . S
C1870 C1873 1.526 . S
C1871 H1855 0.959 . S
C1871 H1856 0.959 . S
C1871 H1857 0.961 . S
C1871 C1870 1.502 . S
C1872 H1858 0.960 . S
C1872 H1859 0.961 . S
C1872 H1860 0.959 . S
C1872 C1870 1.561 . S
C1873 C1870 1.526 . S
C1873 C1874 1.396 . S
C1873 C1878 1.390 . S
C1874 C1868 1.465 . S
C1874 C1873 1.396 . S
C1874 C1875 1.399 . S
C1875 H1861 0.929 . S
C1875 C1874 1.399 . S
C1875 C1876 1.385 . S
C1876 H1862 0.931 . S
C1876 C1875 1.385 . S
C1876 C1877 1.389 . S
C1877 C1876 1.389 . S
C1877 C1878 1.387 . S
C1878 H1863 0.930 . S
C1878 C1873 1.390 . S
C1878 C1877 1.387 . S
H1879 C1891 0.930 . S
H1880 C1893 0.930 . S
H1881 C1894 0.930 . S
H1882 C1898 0.959 . S
H1883 C1898 0.959 . S
H1884 C1898 0.961 . S
H1885 C1899 0.960 . S
H1886 C1899 0.961 . S
H1887 C1899 0.959 . S
H1888 C1902 0.929 . S
H1889 C1903 0.931 . S
H1890 C1905 0.930 . S
C1891 H1879 0.930 . S
C1891 C1892 1.399 . S
C1891 C1896 1.399 . S
C1892 C1891 1.399 . S
C1892 C1893 1.376 . S
C1893 H1880 0.930 . S
C1893 C1892 1.376 . S
C1893 C1894 1.388 . S
C1894 H1881 0.930 . S
C1894 C1893 1.388 . S
C1894 C1895 1.390 . S
C1895 C1894 1.390 . S
C1895 C1896 1.394 . S
C1895 C1901 1.465 . S
C1896 C1891 1.399 . S
C1896 C1895 1.394 . S
C1896 C1897 1.516 . S
C1897 C1896 1.516 . S
C1897 C1898 1.502 . S
C1897 C1899 1.561 . S
C1897 C1900 1.526 . S
C1898 H1882 0.959 . S
C1898 H1883 0.959 . S
C1898 H1884 0.961 . S
C1898 C1897 1.502 . S
C1899 H1885 0.960 . S
C1899 H1886 0.961 . S
C1899 H1887 0.959 . S
C1899 C1897 1.561 . S
C1900 C1897 1.526 . S
C1900 C1901 1.396 . S
C1900 C1905 1.390 . S
C1901 C1895 1.465 . S
C1901 C1900 1.396 . S
C1901 C1902 1.399 . S
C1902 H1888 0.929 . S
C1902 C1901 1.399 . S
C1902 C1903 1.385 . S
C1903 H1889 0.931 . S
C1903 C1902 1.385 . S
C1903 C1904 1.389 . S
C1904 C1903 1.389 . S
C1904 C1905 1.387 . S
C1905 H1890 0.930 . S
C1905 C1900 1.390 . S
C1905 C1904 1.387 . S
H1906 C1918 0.930 . S
H1907 C1920 0.930 . S
H1908 C1921 0.930 . S
H1909 C1925 0.959 . S
H1910 C1925 0.959 . S
H1911 C1925 0.961 . S
H1912 C1926 0.960 . S
H1913 C1926 0.961 . S
H1914 C1926 0.959 . S
H1915 C1929 0.929 . S
H1916 C1930 0.931 . S
H1917 C1932 0.930 . S
C1918 H1906 0.930 . S
C1918 C1919 1.399 . S
C1918 C1923 1.399 . S
C1919 C1918 1.399 . S
C1919 C1920 1.376 . S
C1920 H1907 0.930 . S
C1920 C1919 1.376 . S
C1920 C1921 1.388 . S
C1921 H1908 0.930 . S
C1921 C1920 1.388 . S
C1921 C1922 1.390 . S
C1922 C1921 1.390 . S
C1922 C1923 1.394 . S
C1922 C1928 1.465 . S
C1923 C1918 1.399 . S
C1923 C1922 1.394 . S
C1923 C1924 1.516 . S
C1924 C1923 1.516 . S
C1924 C1925 1.502 . S
C1924 C1926 1.561 . S
C1924 C1927 1.526 . S
C1925 H1909 0.959 . S
C1925 H1910 0.959 . S
C1925 H1911 0.961 . S
C1925 C1924 1.502 . S
C1926 H1912 0.960 . S
C1926 H1913 0.961 . S
C1926 H1914 0.959 . S
C1926 C1924 1.561 . S
C1927 C1924 1.526 . S
C1927 C1928 1.396 . S
C1927 C1932 1.390 . S
C1928 C1922 1.465 . S
C1928 C1927 1.396 . S
C1928 C1929 1.399 . S
C1929 H1915 0.929 . S
C1929 C1928 1.399 . S
C1929 C1930 1.385 . S
C1930 H1916 0.931 . S
C1930 C1929 1.385 . S
C1930 C1931 1.389 . S
C1931 C1930 1.389 . S
C1931 C1932 1.387 . S
C1932 H1917 0.930 . S
C1932 C1927 1.390 . S
C1932 C1931 1.387 . S
H1933 C1945 0.930 . S
H1934 C1947 0.930 . S
H1935 C1948 0.930 . S
H1936 C1952 0.959 . S
H1937 C1952 0.959 . S
H1938 C1952 0.961 1_455 S
H1939 C1953 0.960 . S
H1940 C1953 0.961 . S
H1941 C1953 0.959 . S
H1942 C1956 0.929 . S
H1943 C1957 0.931 . S
H1944 C1959 0.930 . S
C1945 H1933 0.930 . S
C1945 C1946 1.399 . S
C1945 C1950 1.399 . S
C1946 C1945 1.399 . S
C1946 C1947 1.376 . S
C1947 H1934 0.930 . S
C1947 C1946 1.376 . S
C1947 C1948 1.388 . S
C1948 H1935 0.930 . S
C1948 C1947 1.388 . S
C1948 C1949 1.390 . S
C1949 C1948 1.390 . S
C1949 C1950 1.394 . S
C1949 C1955 1.465 . S
C1950 C1945 1.399 . S
C1950 C1949 1.394 . S
C1950 C1951 1.516 . S
C1951 C1950 1.516 . S
C1951 C1952 1.502 . S
C1951 C1953 1.561 . S
C1951 C1954 1.526 . S
C1952 H1936 0.959 . S
C1952 H1937 0.959 . S
C1952 H1938 0.961 1_655 S
C1952 C1951 1.502 . S
C1953 H1939 0.960 . S
C1953 H1940 0.961 . S
C1953 H1941 0.959 . S
C1953 C1951 1.561 . S
C1954 C1951 1.526 . S
C1954 C1955 1.396 . S
C1954 C1959 1.390 . S
C1955 C1949 1.465 . S
C1955 C1954 1.396 . S
C1955 C1956 1.399 . S
C1956 H1942 0.929 . S
C1956 C1955 1.399 . S
C1956 C1957 1.385 . S
C1957 H1943 0.931 . S
C1957 C1956 1.385 . S
C1957 C1958 1.389 . S
C1958 C1957 1.389 . S
C1958 C1959 1.387 . S
C1959 H1944 0.930 . S
C1959 C1954 1.390 . S
C1959 C1958 1.387 . S
H1960 C1972 0.930 . S
H1961 C1974 0.930 . S
H1962 C1975 0.930 . S
H1963 C1979 0.959 . S
H1964 C1979 0.959 . S
H1965 C1979 0.961 . S
H1966 C1980 0.960 . S
H1967 C1980 0.961 . S
H1968 C1980 0.959 . S
H1969 C1983 0.929 . S
H1970 C1984 0.931 . S
H1971 C1986 0.930 . S
C1972 H1960 0.930 . S
C1972 C1973 1.399 . S
C1972 C1977 1.399 . S
C1973 C1972 1.399 . S
C1973 C1974 1.376 . S
C1974 H1961 0.930 . S
C1974 C1973 1.376 . S
C1974 C1975 1.388 . S
C1975 H1962 0.930 . S
C1975 C1974 1.388 . S
C1975 C1976 1.390 . S
C1976 C1975 1.390 . S
C1976 C1977 1.394 . S
C1976 C1982 1.465 . S
C1977 C1972 1.399 . S
C1977 C1976 1.394 . S
C1977 C1978 1.516 . S
C1978 C1977 1.516 . S
C1978 C1979 1.502 . S
C1978 C1980 1.561 . S
C1978 C1981 1.526 . S
C1979 H1963 0.959 . S
C1979 H1964 0.959 . S
C1979 H1965 0.961 . S
C1979 C1978 1.502 . S
C1980 H1966 0.960 . S
C1980 H1967 0.961 . S
C1980 H1968 0.959 . S
C1980 C1978 1.561 . S
C1981 C1978 1.526 . S
C1981 C1982 1.396 . S
C1981 C1986 1.390 . S
C1982 C1976 1.465 . S
C1982 C1981 1.396 . S
C1982 C1983 1.399 . S
C1983 H1969 0.929 . S
C1983 C1982 1.399 . S
C1983 C1984 1.385 . S
C1984 H1970 0.931 . S
C1984 C1983 1.385 . S
C1984 C1985 1.389 . S
C1985 C1984 1.389 . S
C1985 C1986 1.387 . S
C1986 H1971 0.930 . S
C1986 C1981 1.390 . S
C1986 C1985 1.387 . S
H1987 C1999 0.930 . S
H1988 C2001 0.930 . S
H1989 C2002 0.930 . S
H1990 C2006 0.959 . S
H1991 C2006 0.959 . S
H1992 C2006 0.961 . S
H1993 C2007 0.960 . S
H1994 C2007 0.961 . S
H1995 C2007 0.959 . S
H1996 C2010 0.929 . S
H1997 C2011 0.931 . S
H1998 C2013 0.930 . S
C1999 H1987 0.930 . S
C1999 C2000 1.399 . S
C1999 C2004 1.399 . S
C2000 C1999 1.399 . S
C2000 C2001 1.376 . S
C2001 H1988 0.930 . S
C2001 C2000 1.376 . S
C2001 C2002 1.388 . S
C2002 H1989 0.930 . S
C2002 C2001 1.388 . S
C2002 C2003 1.390 . S
C2003 C2002 1.390 . S
C2003 C2004 1.394 . S
C2003 C2009 1.465 . S
C2004 C1999 1.399 . S
C2004 C2003 1.394 . S
C2004 C2005 1.516 . S
C2005 C2004 1.516 . S
C2005 C2006 1.502 . S
C2005 C2007 1.561 . S
C2005 C2008 1.526 . S
C2006 H1990 0.959 . S
C2006 H1991 0.959 . S
C2006 H1992 0.961 . S
C2006 C2005 1.502 . S
C2007 H1993 0.960 . S
C2007 H1994 0.961 . S
C2007 H1995 0.959 . S
C2007 C2005 1.561 . S
C2008 C2005 1.526 . S
C2008 C2009 1.396 . S
C2008 C2013 1.390 . S
C2009 C2003 1.465 . S
C2009 C2008 1.396 . S
C2009 C2010 1.399 . S
C2010 H1996 0.929 . S
C2010 C2009 1.399 . S
C2010 C2011 1.385 . S
C2011 H1997 0.931 . S
C2011 C2010 1.385 . S
C2011 C2012 1.389 . S
C2012 C2011 1.389 . S
C2012 C2013 1.387 . S
C2013 H1998 0.930 . S
C2013 C2008 1.390 . S
C2013 C2012 1.387 . S
H2014 C2026 0.930 . S
H2015 C2028 0.930 . S
H2016 C2029 0.930 . S
H2017 C2033 0.959 . S
H2018 C2033 0.959 . S
H2019 C2033 0.961 . S
H2020 C2034 0.960 . S
H2021 C2034 0.961 . S
H2022 C2034 0.959 . S
H2023 C2037 0.929 . S
H2024 C2038 0.931 . S
H2025 C2040 0.930 . S
C2026 H2014 0.930 . S
C2026 C2027 1.399 . S
C2026 C2031 1.399 . S
C2027 C2026 1.399 . S
C2027 C2028 1.376 . S
C2028 H2015 0.930 . S
C2028 C2027 1.376 . S
C2028 C2029 1.388 . S
C2029 H2016 0.930 . S
C2029 C2028 1.388 . S
C2029 C2030 1.390 . S
C2030 C2029 1.390 . S
C2030 C2031 1.394 . S
C2030 C2036 1.465 . S
C2031 C2026 1.399 . S
C2031 C2030 1.394 . S
C2031 C2032 1.516 . S
C2032 C2031 1.516 . S
C2032 C2033 1.502 . S
C2032 C2034 1.561 . S
C2032 C2035 1.526 . S
C2033 H2017 0.959 . S
C2033 H2018 0.959 . S
C2033 H2019 0.961 . S
C2033 C2032 1.502 . S
C2034 H2020 0.960 . S
C2034 H2021 0.961 . S
C2034 H2022 0.959 . S
C2034 C2032 1.561 . S
C2035 C2032 1.526 . S
C2035 C2036 1.396 . S
C2035 C2040 1.390 . S
C2036 C2030 1.465 . S
C2036 C2035 1.396 . S
C2036 C2037 1.399 . S
C2037 H2023 0.929 . S
C2037 C2036 1.399 . S
C2037 C2038 1.385 . S
C2038 H2024 0.931 . S
C2038 C2037 1.385 . S
C2038 C2039 1.389 . S
C2039 C2038 1.389 . S
C2039 C2040 1.387 . S
C2040 H2025 0.930 . S
C2040 C2035 1.390 . S
C2040 C2039 1.387 . S
H2041 C2053 0.930 . S
H2042 C2055 0.930 . S
H2043 C2056 0.930 . S
H2044 C2060 0.959 . S
H2045 C2060 0.959 . S
H2046 C2060 0.961 . S
H2047 C2061 0.960 . S
H2048 C2061 0.961 . S
H2049 C2061 0.959 . S
H2050 C2064 0.929 . S
H2051 C2065 0.931 . S
H2052 C2067 0.930 . S
C2053 H2041 0.930 . S
C2053 C2054 1.399 . S
C2053 C2058 1.399 . S
C2054 C2053 1.399 . S
C2054 C2055 1.376 . S
C2055 H2042 0.930 . S
C2055 C2054 1.376 . S
C2055 C2056 1.388 . S
C2056 H2043 0.930 . S
C2056 C2055 1.388 . S
C2056 C2057 1.390 . S
C2057 C2056 1.390 . S
C2057 C2058 1.394 . S
C2057 C2063 1.465 . S
C2058 C2053 1.399 . S
C2058 C2057 1.394 . S
C2058 C2059 1.516 . S
C2059 C2058 1.516 . S
C2059 C2060 1.502 . S
C2059 C2061 1.561 . S
C2059 C2062 1.526 . S
C2060 H2044 0.959 . S
C2060 H2045 0.959 . S
C2060 H2046 0.961 . S
C2060 C2059 1.502 . S
C2061 H2047 0.960 . S
C2061 H2048 0.961 . S
C2061 H2049 0.959 . S
C2061 C2059 1.561 . S
C2062 C2059 1.526 . S
C2062 C2063 1.396 . S
C2062 C2067 1.390 . S
C2063 C2057 1.465 . S
C2063 C2062 1.396 . S
C2063 C2064 1.399 . S
C2064 H2050 0.929 . S
C2064 C2063 1.399 . S
C2064 C2065 1.385 . S
C2065 H2051 0.931 . S
C2065 C2064 1.385 . S
C2065 C2066 1.389 . S
C2066 C2065 1.389 . S
C2066 C2067 1.387 . S
C2067 H2052 0.930 . S
C2067 C2062 1.390 . S
C2067 C2066 1.387 . S
H2068 C2080 0.930 . S
H2069 C2082 0.930 . S
H2070 C2083 0.930 . S
H2071 C2087 0.959 . S
H2072 C2087 0.959 . S
H2073 C2087 0.961 . S
H2074 C2088 0.960 . S
H2075 C2088 0.961 . S
H2076 C2088 0.959 . S
H2077 C2091 0.929 . S
H2078 C2092 0.931 . S
H2079 C2094 0.930 . S
C2080 H2068 0.930 . S
C2080 C2081 1.399 . S
C2080 C2085 1.399 . S
C2081 C2080 1.399 . S
C2081 C2082 1.376 . S
C2082 H2069 0.930 . S
C2082 C2081 1.376 . S
C2082 C2083 1.388 . S
C2083 H2070 0.930 . S
C2083 C2082 1.388 . S
C2083 C2084 1.390 . S
C2084 C2083 1.390 . S
C2084 C2085 1.394 . S
C2084 C2090 1.465 . S
C2085 C2080 1.399 . S
C2085 C2084 1.394 . S
C2085 C2086 1.516 . S
C2086 C2085 1.516 . S
C2086 C2087 1.502 . S
C2086 C2088 1.561 . S
C2086 C2089 1.526 . S
C2087 H2071 0.959 . S
C2087 H2072 0.959 . S
C2087 H2073 0.961 . S
C2087 C2086 1.502 . S
C2088 H2074 0.960 . S
C2088 H2075 0.961 . S
C2088 H2076 0.959 . S
C2088 C2086 1.561 . S
C2089 C2086 1.526 . S
C2089 C2090 1.396 . S
C2089 C2094 1.390 . S
C2090 C2084 1.465 . S
C2090 C2089 1.396 . S
C2090 C2091 1.399 . S
C2091 H2077 0.929 . S
C2091 C2090 1.399 . S
C2091 C2092 1.385 . S
C2092 H2078 0.931 . S
C2092 C2091 1.385 . S
C2092 C2093 1.389 . S
C2093 C2092 1.389 . S
C2093 C2094 1.387 . S
C2094 H2079 0.930 . S
C2094 C2089 1.390 . S
C2094 C2093 1.387 . S
H2095 C2107 0.930 . S
H2096 C2109 0.930 . S
H2097 C2110 0.930 . S
H2098 C2114 0.959 . S
H2099 C2114 0.959 . S
H2100 C2114 0.961 . S
H2101 C2115 0.960 . S
H2102 C2115 0.961 . S
H2103 C2115 0.959 . S
H2104 C2118 0.929 . S
H2105 C2119 0.931 . S
H2106 C2121 0.930 . S
C2107 H2095 0.930 . S
C2107 C2108 1.399 . S
C2107 C2112 1.399 . S
C2108 C2107 1.399 . S
C2108 C2109 1.376 . S
C2109 H2096 0.930 . S
C2109 C2108 1.376 . S
C2109 C2110 1.388 . S
C2110 H2097 0.930 . S
C2110 C2109 1.388 . S
C2110 C2111 1.390 . S
C2111 C2110 1.390 . S
C2111 C2112 1.394 . S
C2111 C2117 1.465 . S
C2112 C2107 1.399 . S
C2112 C2111 1.394 . S
C2112 C2113 1.516 . S
C2113 C2112 1.516 . S
C2113 C2114 1.502 . S
C2113 C2115 1.561 . S
C2113 C2116 1.526 . S
C2114 H2098 0.959 . S
C2114 H2099 0.959 . S
C2114 H2100 0.961 . S
C2114 C2113 1.502 . S
C2115 H2101 0.960 . S
C2115 H2102 0.961 . S
C2115 H2103 0.959 . S
C2115 C2113 1.561 . S
C2116 C2113 1.526 . S
C2116 C2117 1.396 . S
C2116 C2121 1.390 . S
C2117 C2111 1.465 . S
C2117 C2116 1.396 . S
C2117 C2118 1.399 . S
C2118 H2104 0.929 . S
C2118 C2117 1.399 . S
C2118 C2119 1.385 . S
C2119 H2105 0.931 . S
C2119 C2118 1.385 . S
C2119 C2120 1.389 . S
C2120 C2119 1.389 . S
C2120 C2121 1.387 . S
C2121 H2106 0.930 . S
C2121 C2116 1.390 . S
C2121 C2120 1.387 . S
H2122 C2134 0.930 . S
H2123 C2136 0.930 . S
H2124 C2137 0.930 . S
H2125 C2141 0.959 . S
H2126 C2141 0.959 . S
H2127 C2141 0.961 . S
H2128 C2142 0.960 . S
H2129 C2142 0.961 . S
H2130 C2142 0.959 . S
H2131 C2145 0.929 . S
H2132 C2146 0.931 . S
H2133 C2148 0.930 . S
C2134 H2122 0.930 . S
C2134 C2135 1.399 . S
C2134 C2139 1.399 . S
C2135 C2134 1.399 . S
C2135 C2136 1.376 . S
C2136 H2123 0.930 . S
C2136 C2135 1.376 . S
C2136 C2137 1.388 . S
C2137 H2124 0.930 . S
C2137 C2136 1.388 . S
C2137 C2138 1.390 . S
C2138 C2137 1.390 . S
C2138 C2139 1.394 . S
C2138 C2144 1.465 . S
C2139 C2134 1.399 . S
C2139 C2138 1.394 . S
C2139 C2140 1.516 . S
C2140 C2139 1.516 . S
C2140 C2141 1.502 . S
C2140 C2142 1.561 . S
C2140 C2143 1.526 . S
C2141 H2125 0.959 . S
C2141 H2126 0.959 . S
C2141 H2127 0.961 . S
C2141 C2140 1.502 . S
C2142 H2128 0.960 . S
C2142 H2129 0.961 . S
C2142 H2130 0.959 . S
C2142 C2140 1.561 . S
C2143 C2140 1.526 . S
C2143 C2144 1.396 . S
C2143 C2148 1.390 . S
C2144 C2138 1.465 . S
C2144 C2143 1.396 . S
C2144 C2145 1.399 . S
C2145 H2131 0.929 . S
C2145 C2144 1.399 . S
C2145 C2146 1.385 . S
C2146 H2132 0.931 . S
C2146 C2145 1.385 . S
C2146 C2147 1.389 . S
C2147 C2146 1.389 . S
C2147 C2148 1.387 . S
C2148 H2133 0.930 . S
C2148 C2143 1.390 . S
C2148 C2147 1.387 . S
H2149 C2161 0.930 . S
H2150 C2163 0.930 . S
H2151 C2164 0.930 . S
H2152 C2168 0.959 . S
H2153 C2168 0.959 . S
H2154 C2168 0.961 . S
H2155 C2169 0.960 . S
H2156 C2169 0.961 . S
H2157 C2169 0.959 . S
H2158 C2172 0.929 . S
H2159 C2173 0.931 . S
H2160 C2175 0.930 . S
C2161 H2149 0.930 . S
C2161 C2162 1.399 . S
C2161 C2166 1.399 . S
C2162 C2161 1.399 . S
C2162 C2163 1.376 . S
C2163 H2150 0.930 . S
C2163 C2162 1.376 . S
C2163 C2164 1.388 . S
C2164 H2151 0.930 . S
C2164 C2163 1.388 . S
C2164 C2165 1.390 . S
C2165 C2164 1.390 . S
C2165 C2166 1.394 . S
C2165 C2171 1.465 . S
C2166 C2161 1.399 . S
C2166 C2165 1.394 . S
C2166 C2167 1.516 . S
C2167 C2166 1.516 . S
C2167 C2168 1.502 . S
C2167 C2169 1.561 . S
C2167 C2170 1.526 . S
C2168 H2152 0.959 . S
C2168 H2153 0.959 . S
C2168 H2154 0.961 . S
C2168 C2167 1.502 . S
C2169 H2155 0.960 . S
C2169 H2156 0.961 . S
C2169 H2157 0.959 . S
C2169 C2167 1.561 . S
C2170 C2167 1.526 . S
C2170 C2171 1.396 . S
C2170 C2175 1.390 . S
C2171 C2165 1.465 . S
C2171 C2170 1.396 . S
C2171 C2172 1.399 . S
C2172 H2158 0.929 . S
C2172 C2171 1.399 . S
C2172 C2173 1.385 . S
C2173 H2159 0.931 . S
C2173 C2172 1.385 . S
C2173 C2174 1.389 . S
C2174 C2173 1.389 . S
C2174 C2175 1.387 . S
C2175 H2160 0.930 . S
C2175 C2170 1.390 . S
C2175 C2174 1.387 . S
C461 C149 1.262 . S
C473 C9 1.265 . S
C488 C23 1.250 . S
C500 C163 1.251 . S
C515 C37 1.324 . S
C527 C121 1.326 . S
C542 C135 1.331 . S
C554 C51 1.329 . S
C569 C199 1.190 . S
C581 C59 1.201 . S
C596 C73 1.250 . S
C608 C213 1.236 . S
C623 C171 1.253 . S
C635 C87 1.242 . S
C650 C185 1.194 . S
C662 C101 1.207 . S
C677 C373 1.264 . S
C689 C233 1.267 . S
C704 C387 1.251 . S
C716 C247 1.252 . S
C731 C345 1.327 . S
C743 C261 1.325 . S
C758 C275 1.261 . S
C770 C359 1.264 . S
C785 C423 1.254 . S
C797 C283 1.243 . S
C812 C437 1.197 . S
C824 C297 1.212 . S
C839 C311 1.192 . S
C851 C395 1.204 . S
C866 C325 1.202 . S
C878 C409 1.219 . S
C893 C269 1.418 . S
C905 C3 1.415 . S
C920 C17 1.400 . S
C932 C255 1.402 . S
C947 C241 1.400 . S
C959 C31 1.405 . S
C974 C227 1.418 . S
C986 C45 1.415 . S
C1001 C65 1.244 . S
C1013 C331 1.244 . S
C1028 C79 1.245 . S
C1040 C317 1.245 . S
C1055 C303 1.242 . S
C1067 C93 1.242 . S
C1082 C107 1.237 . S
C1094 C289 1.238 . S
C1109 C381 1.418 . S
C1121 C115 1.415 . S
C1136 C367 1.417 . S
C1148 C129 1.413 . S
C1163 C353 1.412 . S
C1175 C143 1.417 . S
C1190 C339 1.418 . S
C1202 C157 1.416 . S
C1217 C177 1.218 . S
C1229 C443 1.219 . S
C1244 C429 1.218 . S
C1256 C191 1.219 . S
C1271 C205 1.216 . S
C1283 C415 1.217 . S
C1298 C219 1.219 . S
C1310 C401 1.220 . S
C1325 C175 1.409 . S
C1337 C8 1.346 . S
C1352 C22 1.369 . S
C1364 C301 1.395 . S
C1379 C91 1.410 . S
C1391 C36 1.345 . S
C1406 C441 1.410 . S
C1418 C50 1.348 . S
C1433 C63 1.383 . S
C1445 C120 1.404 . S
C1460 C246 1.393 . S
C1472 C77 1.386 . S
C1487 C386 1.381 . S
C1499 C105 1.391 . S
C1514 C413 1.410 . S
C1526 C134 1.345 . S
C1541 C148 1.383 . S
C1553 C203 1.397 . S
C1568 C329 1.410 . S
C1580 C162 1.345 . S
C1595 C358 1.394 . S
C1607 C189 1.392 . S
C1622 C217 1.384 . S
C1634 C274 1.405 . S
C1649 C232 1.397 . S
C1661 C399 1.385 . S
C1676 C315 1.408 . S
C1688 C260 1.347 . S
C1703 C344 1.395 . S
C1715 C287 1.385 . S
C1730 C372 1.367 . S
C1742 C427 1.404 . S
C1757 C7 1.138 . S
C1769 C49 1.126 . S
C1784 C35 1.157 . S
C1796 C21 1.103 . S
C1811 C64 0.957 . S
C1823 C106 0.872 . S
C1838 C78 0.897 . S
C1850 C92 0.954 . S
C1865 C119 1.101 . S
C1877 C161 1.161 . S
C1892 C133 1.150 . S
C1904 C147 1.109 . S
C1919 C176 0.934 . S
C1931 C218 0.888 . S
C1946 C204 0.879 . S
C1958 C190 0.964 . S
C1973 C273 1.159 . S
C1985 C231 1.100 . S
C2000 C259 1.121 . S
C2012 C245 1.143 . S
C2027 C330 0.956 . S
C2039 C288 0.872 . S
C2054 C316 0.900 . S
C2066 C302 0.951 . S
C2081 C385 1.164 . S
C2093 C343 1.096 . S
C2108 C371 1.099 . S
C2120 C357 1.162 . S
C2135 C400 0.894 . S
C2147 C442 0.956 . S
C2162 C428 0.893 . S
C2174 C414 0.956 . S
