# Generated by pormake.
# Topology umx, (4)-cn, num edge types: 1
# Building blocks:
#     Node 0, Type 0, BuildingBlock: QUQFOY_clean_sbu_1, # of connection points: 4
#     Node 1, Type 0, BuildingBlock: QUQFOY_clean_sbu_1, # of connection points: 4
#     Node 2, Type 0, BuildingBlock: QUQFOY_clean_sbu_1, # of connection points: 4
#     Node 3, Type 0, BuildingBlock: QUQFOY_clean_sbu_1, # of connection points: 4
#     Node 4, Type 0, BuildingBlock: QUQFOY_clean_sbu_1, # of connection points: 4
#     Node 5, Type 0, BuildingBlock: QUQFOY_clean_sbu_1, # of connection points: 4
#     Node 6, Type 0, BuildingBlock: QUQFOY_clean_sbu_1, # of connection points: 4
#     Node 7, Type 0, BuildingBlock: QUQFOY_clean_sbu_1, # of connection points: 4
#     Edge 8, Type (0, 0), BuildingBlock: XIVTED_clean_linker_0, # of connection points: 2
#     Edge 9, Type (0, 0), BuildingBlock: XIVTED_clean_linker_0, # of connection points: 2
#     Edge 10, Type (0, 0), BuildingBlock: XIVTED_clean_linker_0, # of connection points: 2
#     Edge 11, Type (0, 0), BuildingBlock: XIVTED_clean_linker_0, # of connection points: 2
#     Edge 12, Type (0, 0), BuildingBlock: XIVTED_clean_linker_0, # of connection points: 2
#     Edge 13, Type (0, 0), BuildingBlock: XIVTED_clean_linker_0, # of connection points: 2
#     Edge 14, Type (0, 0), BuildingBlock: XIVTED_clean_linker_0, # of connection points: 2
#     Edge 15, Type (0, 0), BuildingBlock: XIVTED_clean_linker_0, # of connection points: 2
#     Edge 16, Type (0, 0), BuildingBlock: XIVTED_clean_linker_0, # of connection points: 2
#     Edge 17, Type (0, 0), BuildingBlock: XIVTED_clean_linker_0, # of connection points: 2
#     Edge 18, Type (0, 0), BuildingBlock: XIVTED_clean_linker_0, # of connection points: 2
#     Edge 19, Type (0, 0), BuildingBlock: XIVTED_clean_linker_0, # of connection points: 2
#     Edge 20, Type (0, 0), BuildingBlock: XIVTED_clean_linker_0, # of connection points: 2
#     Edge 21, Type (0, 0), BuildingBlock: XIVTED_clean_linker_0, # of connection points: 2
#     Edge 22, Type (0, 0), BuildingBlock: XIVTED_clean_linker_0, # of connection points: 2
#     Edge 23, Type (0, 0), BuildingBlock: XIVTED_clean_linker_0, # of connection points: 2
# Relax obj value: 0.071
# Max RMSD: 0.141
# Mean RMSD: 0.140
data_MOF--net-umx--node1-QUQFOY_clean_sbu_1--edge1-XIVTED_clean_linker_0
_symmetry_space_group_name_H-M    P1
_symmetry_Int_Tables_number       1
_symmetry_cell_setting            triclinic
loop_
_symmetry_equiv_pos_as_xyz
'x, y, z'
_cell_length_a     40.795884
_cell_length_b     40.791981
_cell_length_c     29.123941
_cell_angle_alpha  90.014937
_cell_angle_beta   89.978503
_cell_angle_gamma 90.031656
loop_
_atom_site_label
_atom_site_type_symbol
_atom_site_fract_x
_atom_site_fract_y
_atom_site_fract_z
_atom_type_partial_charge
O0 O 0.19427 0.44874 0.1055 0.0
Cd1 Cd 0.17891 0.42855 0.04442 0.0
Cd2 Cd 0.19681 0.48802 0.01352 0.0
O3 O 0.21873 0.49273 0.07746 0.0
O4 O 0.18294 0.37972 0.0513 0.0
O5 O 0.21498 0.40966 1.00647 0.0
C6 C 0.20816 0.3816 0.02461 0.0
C7 C 0.22276 0.49453 0.94257 0.0
C8 C 0.21185 0.47416 0.11128 0.0
C9 C 0.12492 0.47205 0.01258 0.0
O10 O 0.14679 0.49425 0.01163 0.0
O11 O 0.13283 0.44237 0.02057 0.0
O12 O 0.21565 0.5196 0.96777 0.0
O13 O 0.21701 0.46575 0.95914 0.0
O14 O 0.56582 0.19479 0.60454 0.0
Cd15 Cd 0.58586 0.17922 0.5435 0.0
Cd16 Cd 0.52646 0.19792 0.51252 0.0
O17 O 0.52208 0.21971 0.5766 0.0
O18 O 0.63474 0.18353 0.54979 0.0
O19 O 0.60435 0.21521 0.50515 0.0
C20 C 0.63256 0.20867 0.52299 0.0
C21 C 0.51998 0.22408 0.44171 0.0
C22 C 0.5406 0.21262 0.61039 0.0
C23 C 0.54171 0.12578 0.51139 0.0
O24 O 0.51984 0.14795 0.51035 0.0
O25 O 0.57148 0.13328 0.5196 0.0
O26 O 0.49491 0.21706 0.46696 0.0
O27 O 0.54873 0.21812 0.45816 0.0
O28 O 0.81921 0.56473 0.10516 0.0
Cd29 Cd 0.83487 0.58538 0.04452 0.0
Cd30 Cd 0.81725 0.52603 0.01248 0.0
O31 O 0.79525 0.52076 0.07622 0.0
O32 O 0.83021 0.63416 0.05149 0.0
O33 O 0.79901 0.60389 1.00594 0.0
C34 C 0.80532 0.63203 0.02423 0.0
C35 C 0.79126 0.51923 0.94164 0.0
C36 C 0.80181 0.53913 0.11038 0.0
C37 C 0.88915 0.54236 0.0123 0.0
O38 O 0.86732 0.52014 0.01055 0.0
O39 O 0.88115 0.57191 0.02103 0.0
O40 O 0.79876 0.49424 0.96675 0.0
O41 O 0.79672 0.54807 0.9582 0.0
O42 O 0.44997 0.82047 0.60487 0.0
Cd43 Cd 0.42924 0.83604 0.54428 0.0
Cd44 Cd 0.48814 0.81736 0.51191 0.0
O45 O 0.49334 0.79555 0.57579 0.0
O46 O 0.38043 0.83217 0.55188 0.0
O47 O 0.40993 0.80008 0.50656 0.0
C48 C 0.38202 0.80696 0.5251 0.0
C49 C 0.49392 0.79113 0.44105 0.0
C50 C 0.47527 0.80265 0.61005 0.0
C51 C 0.47301 0.8895 0.51124 0.0
O52 O 0.49485 0.86731 0.50962 0.0
O53 O 0.44334 0.882 0.52015 0.0
O54 O 0.51923 0.79827 0.46573 0.0
O55 O 0.46531 0.79703 0.4581 0.0
O56 O 0.19463 0.5668 0.44257 0.0
Cd57 Cd 0.17915 0.58702 0.50355 0.0
Cd58 Cd 0.19699 0.52744 0.53462 0.0
O59 O 0.21888 0.52272 0.47064 0.0
O60 O 0.18385 0.63585 0.49713 0.0
O61 O 0.21518 0.60531 0.54206 0.0
C62 C 0.20888 0.63354 0.5241 0.0
C63 C 0.22289 0.52055 0.60554 0.0
C64 C 0.21212 0.54132 0.43681 0.0
C65 C 0.12505 0.54354 0.5353 0.0
O66 O 0.14694 0.5214 0.53651 0.0
O67 O 0.13295 0.57322 0.52713 0.0
O68 O 0.2156 0.4956 0.58021 0.0
O69 O 0.21735 0.5494 0.58913 0.0
O70 O 0.44888 0.19509 0.94196 0.0
Cd71 Cd 0.42872 0.17962 1.00299 0.0
Cd72 Cd 0.4883 0.19767 0.03392 0.0
O73 O 0.49292 0.21951 0.96992 0.0
O74 O 0.37988 0.18408 0.99649 0.0
O75 O 0.41029 0.21565 0.04135 0.0
C76 C 0.3821 0.20919 0.02337 0.0
C77 C 0.49488 0.22377 0.10477 0.0
C78 C 0.4743 0.21267 0.93614 0.0
C79 C 0.47233 0.1257 0.03486 0.0
O80 O 0.49446 0.14764 0.03594 0.0
O81 O 0.44264 0.13352 0.02673 0.0
O82 O 0.51994 0.21657 0.07959 0.0
O83 O 0.4661 0.218 0.08824 0.0
O84 O 0.82025 0.4487 0.4414 0.0
Cd85 Cd 0.83582 0.42818 0.50213 0.0
Cd86 Cd 0.81762 0.48727 0.53406 0.0
O87 O 0.79556 0.49224 0.47034 0.0
O88 O 0.83178 0.37936 0.4949 0.0
O89 O 0.79987 0.40912 0.54013 0.0
C90 C 0.80664 0.38112 0.52175 0.0
C91 C 0.79153 0.4936 0.60492 0.0
C92 C 0.80247 0.47403 0.43616 0.0
C93 C 0.88962 0.47177 0.53453 0.0
O94 O 0.86761 0.49379 0.53597 0.0
O95 O 0.88187 0.4421 0.52602 0.0
O96 O 0.79869 0.51872 0.57986 0.0
O97 O 0.79738 0.46486 0.5883 0.0
O98 O 0.5661 0.82079 0.94108 0.0
Cd99 Cd 0.58685 0.83625 1.00174 0.0
Cd100 Cd 0.52766 0.81823 0.03396 0.0
O101 O 0.52239 0.7964 0.97008 0.0
O102 O 0.63564 0.8319 0.99444 0.0
O103 O 0.60565 0.80018 0.03966 0.0
C104 C 0.63369 0.80677 0.02129 0.0
C105 C 0.52149 0.79197 0.10472 0.0
C106 C 0.54061 0.80322 0.93586 0.0
C107 C 0.54364 0.89021 0.03458 0.0
O108 O 0.52153 0.86827 0.03621 0.0
O109 O 0.57322 0.88237 0.02574 0.0
O110 O 0.49629 0.79941 0.08002 0.0
O111 O 0.55018 0.79764 0.08778 0.0
H112 H 0.21581 0.43414 0.18616 0.0
H113 H 0.21638 0.58134 0.36195 0.0
H114 H 0.23031 0.53453 0.14407 0.0
H115 H 0.23021 0.48086 0.40401 0.0
H116 H 0.22491 0.56496 0.28223 0.0
H117 H 0.22449 0.45047 0.26586 0.0
C118 C 0.22123 0.45959 0.19365 0.0
C119 C 0.22195 0.48309 0.15845 0.0
C120 C 0.22659 0.54654 0.3089 0.0
C121 C 0.23152 0.50202 0.24981 0.0
C122 C 0.22163 0.55586 0.35445 0.0
C123 C 0.2222 0.53235 0.38965 0.0
C124 C 0.23158 0.51336 0.29826 0.0
C125 C 0.22942 0.49977 0.37795 0.0
C126 C 0.22628 0.46887 0.23919 0.0
C127 C 0.2294 0.51563 0.17012 0.0
N128 N 0.23329 0.49113 0.33315 0.0
N129 N 0.23335 0.52424 0.21492 0.0
H130 H 0.58081 0.21649 0.68505 0.0
H131 H 0.43411 0.21693 0.86149 0.0
H132 H 0.48039 0.23128 0.64345 0.0
H133 H 0.53466 0.23091 0.90312 0.0
H134 H 0.45029 0.22559 0.78172 0.0
H135 H 0.5647 0.22517 0.76484 0.0
C136 C 0.5554 0.22198 0.69266 0.0
C137 C 0.53182 0.22278 0.65758 0.0
C138 C 0.46877 0.22727 0.80831 0.0
C139 C 0.51314 0.23234 0.74904 0.0
C140 C 0.45956 0.22223 0.85389 0.0
C141 C 0.48316 0.22281 0.88897 0.0
C142 C 0.50192 0.23235 0.79754 0.0
C143 C 0.5157 0.23011 0.87715 0.0
C144 C 0.54624 0.22703 0.73825 0.0
C145 C 0.49934 0.23032 0.66942 0.0
N146 N 0.52422 0.23405 0.83232 0.0
N147 N 0.49085 0.23426 0.71426 0.0
H148 H 0.78241 0.5343 0.40513 0.0
H149 H 0.78277 0.47851 0.14146 0.0
H150 H 0.7994 0.43491 0.36018 0.0
H151 H 0.798 0.57822 0.18632 0.0
H152 H 0.77421 0.46224 0.2216 0.0
H153 H 0.77349 0.55042 0.32502 0.0
C154 C 0.7837 0.51577 0.37855 0.0
C155 C 0.79213 0.48332 0.38925 0.0
C156 C 0.779 0.48775 0.21373 0.0
C157 C 0.78192 0.50155 0.2978 0.0
C158 C 0.78373 0.49707 0.16803 0.0
C159 C 0.79158 0.52967 0.15729 0.0
C160 C 0.78179 0.51127 0.24878 0.0
C161 C 0.79249 0.55271 0.19313 0.0
C162 C 0.77875 0.52501 0.33286 0.0
C163 C 0.79343 0.46031 0.3534 0.0
N164 N 0.78791 0.54303 0.23729 0.0
N165 N 0.78863 0.46991 0.30926 0.0
H166 H 0.48013 0.78367 0.90488 0.0
H167 H 0.53574 0.78318 0.64109 0.0
H168 H 0.57963 0.79987 0.85981 0.0
H169 H 0.43625 0.79944 0.68609 0.0
H170 H 0.55199 0.7747 0.72125 0.0
H171 H 0.4639 0.77486 0.82478 0.0
C172 C 0.49866 0.78481 0.87827 0.0
C173 C 0.53119 0.79298 0.88895 0.0
C174 C 0.52653 0.7797 0.71341 0.0
C175 C 0.51282 0.7829 0.7975 0.0
C176 C 0.51722 0.78438 0.66769 0.0
C177 C 0.48468 0.79248 0.65699 0.0
C178 C 0.50307 0.78279 0.74849 0.0
C179 C 0.4617 0.79372 0.69287 0.0
C180 C 0.48935 0.77993 0.83259 0.0
C181 C 0.55418 0.79411 0.85306 0.0
N182 N 0.47137 0.78917 0.73703 0.0
N183 N 0.54452 0.78937 0.80893 0.0
H184 H 0.77922 0.55077 0.65136 0.0
H185 H 0.77991 0.46184 0.89522 0.0
H186 H 0.77955 0.44569 0.6687 0.0
H187 H 0.77851 0.5669 0.87786 0.0
H188 H 0.77117 0.45539 0.81271 0.0
H189 H 0.77034 0.55706 0.73387 0.0
C190 C 0.77689 0.52899 0.67237 0.0
C191 C 0.78053 0.49766 0.65309 0.0
C192 C 0.77232 0.47987 0.827 0.0
C193 C 0.77075 0.5047 0.74783 0.0
C194 C 0.77723 0.48357 0.8742 0.0
C195 C 0.78034 0.51497 0.89348 0.0
C196 C 0.77072 0.50775 0.79874 0.0
C197 C 0.77653 0.54222 0.8645 0.0
C198 C 0.7719 0.5326 0.71958 0.0
C199 C 0.77716 0.47034 0.68207 0.0
N200 N 0.77234 0.53797 0.81855 0.0
N201 N 0.77289 0.4745 0.72802 0.0
H202 H 0.56977 0.77754 0.16688 0.0
H203 H 0.44542 0.77766 0.37875 0.0
H204 H 0.46455 0.78179 0.15275 0.0
H205 H 0.5507 0.78041 0.39291 0.0
H206 H 0.45194 0.76904 0.29623 0.0
H207 H 0.56312 0.76848 0.24929 0.0
C208 C 0.54523 0.77603 0.18095 0.0
C209 C 0.51768 0.78083 0.15288 0.0
C210 C 0.47363 0.77108 0.31745 0.0
C211 C 0.5099 0.77078 0.24744 0.0
C212 C 0.46994 0.7759 0.36466 0.0
C213 C 0.49756 0.78016 0.39279 0.0
C214 C 0.50519 0.77063 0.29809 0.0
C215 C 0.5287 0.77752 0.37254 0.0
C216 C 0.54146 0.77095 0.2281 0.0
C217 C 0.4865 0.77848 0.17308 0.0
N218 N 0.53165 0.77332 0.32639 0.0
N219 N 0.48348 0.77401 0.21917 0.0
H220 H 0.23477 0.55179 0.89615 0.0
H221 H 0.23405 0.46311 0.65191 0.0
H222 H 0.23459 0.44673 0.87854 0.0
H223 H 0.23546 0.56815 0.66957 0.0
H224 H 0.24261 0.45658 0.73445 0.0
H225 H 0.24339 0.55818 0.81359 0.0
C226 C 0.23707 0.53003 0.87506 0.0
C227 C 0.23358 0.49867 0.8943 0.0
C228 C 0.2415 0.48107 0.72022 0.0
C229 C 0.24306 0.50583 0.79949 0.0
C230 C 0.2367 0.48482 0.673 0.0
C231 C 0.23366 0.51623 0.65378 0.0
C232 C 0.24308 0.50892 0.74857 0.0
C233 C 0.2374 0.54345 0.68288 0.0
C234 C 0.24191 0.5337 0.82783 0.0
C235 C 0.23689 0.47139 0.86522 0.0
N236 N 0.24149 0.53917 0.72883 0.0
N237 N 0.24103 0.47561 0.81925 0.0
H238 H 0.46278 0.23589 0.39511 0.0
H239 H 0.55212 0.23548 0.15137 0.0
H240 H 0.56786 0.2363 0.37798 0.0
H241 H 0.44703 0.23622 0.16846 0.0
H242 H 0.55836 0.24429 0.23392 0.0
H243 H 0.45655 0.24453 0.31253 0.0
C244 C 0.48457 0.23834 0.37413 0.0
C245 C 0.51589 0.23498 0.39349 0.0
C246 C 0.53392 0.24298 0.21956 0.0
C247 C 0.50893 0.24448 0.29868 0.0
C248 C 0.53033 0.23803 0.17233 0.0
C249 C 0.499 0.23472 0.15297 0.0
C250 C 0.50598 0.24442 0.24775 0.0
C251 C 0.47168 0.23835 0.18189 0.0
C252 C 0.48099 0.24318 0.32689 0.0
C253 C 0.54322 0.23848 0.36455 0.0
N254 N 0.47581 0.24259 0.22785 0.0
N255 N 0.5391 0.24262 0.31858 0.0
H256 H 0.9437 0.5822 0.01229 0.0
H257 H 0.07037 0.43226 0.01071 0.0
H258 H 0.91436 0.48085 0.99992 0.0
H259 H 0.09982 0.53376 1.00189 0.0
H260 H 0.01299 0.44953 1.00627 0.0
H261 H 1.00112 0.56502 1.008 0.0
C262 C 0.94927 0.55639 1.00838 0.0
C263 C 0.92407 0.53297 1.00663 0.0
C264 C 0.03204 0.46799 1.00501 0.0
C265 C 0.98979 0.51308 1.00205 0.0
C266 C 0.06483 0.45813 1.00755 0.0
C267 C 0.09004 0.48155 1.00684 0.0
C268 C 0.02436 0.50154 1.00208 0.0
C269 C 0.08129 0.51477 1.00266 0.0
C270 C 0.98207 0.54658 1.00593 0.0
C271 C 0.93287 0.49983 1.00152 0.0
N272 N 0.04925 0.52375 1.00075 0.0
N273 N 0.96492 0.49089 0.99971 0.0
H274 H 0.53486 0.91359 0.49769 0.0
H275 H 0.47971 0.1017 0.49928 0.0
H276 H 0.43421 0.94479 0.5116 0.0
H277 H 0.58053 0.07049 0.51037 0.0
H278 H 0.46275 0.04449 0.49477 0.0
H279 H 0.55178 0.97082 0.49329 0.0
C280 C 0.51622 0.93244 0.49952 0.0
C281 C 0.48298 0.92424 0.50526 0.0
C282 C 0.48859 0.05013 0.49801 0.0
C283 C 0.50241 0.99009 0.50027 0.0
C284 C 0.49838 0.08285 0.50047 0.0
C285 C 0.53168 0.09104 0.50545 0.0
C286 C 0.5122 0.02521 0.50033 0.0
C287 C 0.55461 0.06541 0.50671 0.0
C288 C 0.52598 0.96518 0.49712 0.0
C289 C 0.46007 0.94988 0.50733 0.0
N290 N 0.54444 0.03366 0.50429 0.0
N291 N 0.47023 0.98163 0.50495 0.0
H292 H 0.07031 0.58309 0.53602 0.0
H293 H 0.9444 0.43235 0.53564 0.0
H294 H 0.10013 0.48183 0.54686 0.0
H295 H 0.91439 0.53357 0.54608 0.0
H296 H 1.00169 0.44996 0.54019 0.0
H297 H 0.01296 0.56554 0.54017 0.0
C298 C 0.06486 0.55722 0.53957 0.0
C299 C 0.09016 0.53394 0.54092 0.0
C300 C 0.98253 0.46829 0.54178 0.0
C301 C 0.02454 0.51363 0.54534 0.0
C302 C 0.9498 0.45822 0.53918 0.0
C303 C 0.92446 0.48147 0.54032 0.0
C304 C 0.99004 0.50187 0.5452 0.0
C305 C 0.93303 0.51471 0.54497 0.0
C306 C 0.0321 0.54719 0.54193 0.0
C307 C 0.08153 0.50072 0.54557 0.0
N308 N 0.96502 0.5239 0.54694 0.0
N309 N 0.04952 0.49158 0.54731 0.0
H310 H 0.58322 0.94494 0.03492 0.0
H311 H 0.43275 0.07096 0.03646 0.0
H312 H 0.48202 0.91511 0.04708 0.0
H313 H 0.5341 0.10082 0.04583 0.0
H314 H 0.45025 0.01364 0.04085 0.0
H315 H 0.56578 1.00228 0.03942 0.0
C316 C 0.55739 0.95039 0.03883 0.0
C317 C 0.53409 0.92508 0.04045 0.0
C318 C 0.46863 0.03278 0.04224 0.0
C319 C 0.5139 0.99071 0.04526 0.0
C320 C 0.45863 0.06553 0.03973 0.0
C321 C 0.48194 0.09084 0.0406 0.0
C322 C 0.5022 0.02523 0.0453 0.0
C323 C 0.51519 0.08222 0.04492 0.0
C324 C 0.54743 0.98315 0.0414 0.0
C325 C 0.50091 0.93371 0.04558 0.0
N326 N 0.52429 0.05021 0.0468 0.0
N327 N 0.49183 0.96572 0.04749 0.0
H328 H 0.19667 0.31613 0.04116 0.0
H329 H 0.38484 0.27243 0.05277 0.0
H330 H 0.27218 0.38381 0.99876 0.0
H331 H 0.31664 0.19911 1.00474 0.0
H332 H 0.3409 0.31305 0.05096 0.0
H333 H 0.2378 0.27191 0.04233 0.0
C334 C 0.22174 0.32159 0.0316 0.0
C335 C 0.23102 0.35366 0.0197 0.0
C336 C 0.33554 0.28799 0.04118 0.0
C337 C 0.27797 0.30375 0.02256 0.0
C338 C 0.36049 0.2647 0.04261 0.0
C339 C 0.35442 0.23232 0.02876 0.0
C340 C 0.30408 0.27879 0.02669 0.0
C341 C 0.32236 0.22384 0.01558 0.0
C342 C 0.2451 0.29643 0.03237 0.0
C343 C 0.26386 0.35945 1.00784 0.0
N344 N 0.29825 0.24697 0.01498 0.0
N345 N 0.28622 0.33487 0.01025 0.0
H346 H 0.81808 0.3157 0.50473 0.0
H347 H 0.62993 0.2719 0.49359 0.0
H348 H 0.7427 0.38318 0.54797 0.0
H349 H 0.69802 0.19854 0.54153 0.0
H350 H 0.67393 0.31249 0.49537 0.0
H351 H 0.77694 0.27143 0.50356 0.0
C352 C 0.79304 0.32111 0.51448 0.0
C353 C 0.78379 0.35314 0.52661 0.0
C354 C 0.67926 0.28742 0.50514 0.0
C355 C 0.73684 0.30318 0.52375 0.0
C356 C 0.65427 0.26415 0.50372 0.0
C357 C 0.66029 0.23177 0.51756 0.0
C358 C 0.7107 0.27821 0.5196 0.0
C359 C 0.69234 0.22327 0.53071 0.0
C360 C 0.76968 0.29592 0.5137 0.0
C361 C 0.75099 0.35886 0.5387 0.0
N362 N 0.71649 0.24639 0.53129 0.0
N363 N 0.72862 0.33426 0.53628 0.0
H364 H 0.74219 0.62944 0.99439 0.0
H365 H 0.69923 0.81786 1.00462 0.0
H366 H 0.81555 0.69747 0.04274 0.0
H367 H 0.63113 0.74282 0.04733 0.0
H368 H 0.74326 0.7765 1.00383 0.0
H369 H 0.70175 0.67358 0.99561 0.0
C370 C 0.74996 0.65379 1.0045 0.0
C371 C 0.7823 0.65977 0.01861 0.0
C372 C 0.71868 0.76937 0.01375 0.0
C373 C 0.73605 0.71032 0.01999 0.0
C374 C 0.69363 0.79285 0.01431 0.0
C375 C 0.66151 0.78377 0.02621 0.0
C376 C 0.71119 0.73656 0.02378 0.0
C377 C 0.65554 0.75099 0.03824 0.0
C378 C 0.72678 0.67885 1.00559 0.0
C379 C 0.79084 0.69183 0.03172 0.0
N380 N 0.68001 0.7285 0.03604 0.0
N381 N 0.76783 0.71604 0.03198 0.0
H382 H 0.31667 0.81865 0.54233 0.0
H383 H 0.27207 0.6306 0.55362 0.0
H384 H 0.38384 0.74295 0.49922 0.0
H385 H 0.19906 0.69905 0.50564 0.0
H386 H 0.31285 0.67444 0.55196 0.0
H387 H 0.27225 0.77766 0.5437 0.0
C388 C 0.32198 0.79357 0.53267 0.0
C389 C 0.35396 0.78419 0.52049 0.0
C390 C 0.28782 0.67987 0.54216 0.0
C391 C 0.30384 0.73741 0.52358 0.0
C392 C 0.26444 0.65499 0.54351 0.0
C393 C 0.2321 0.66116 0.52961 0.0
C394 C 0.27876 0.71138 0.52772 0.0
C395 C 0.22376 0.69326 0.5165 0.0
C396 C 0.29671 0.7703 0.53356 0.0
C397 C 0.35955 0.75134 0.50851 0.0
N398 N 0.24698 0.71731 0.51598 0.0
N399 N 0.33488 0.72906 0.51104 0.0
loop_
_geom_bond_atom_site_label_1
_geom_bond_atom_site_label_2
_geom_bond_distance
_geom_bond_site_symmetry_2
_ccdc_geom_bond_type
O0 Cd1 2.223 . S
O0 C8 1.315 . S
Cd1 O0 2.223 . S
Cd1 O4 2.297 . S
Cd1 O5 2.439 . S
Cd1 O11 2.240 . S
Cd2 O3 2.240 . S
Cd2 O10 2.223 . S
Cd2 O12 2.297 1_554 S
Cd2 O13 2.439 1_554 S
O3 Cd2 2.240 . S
O3 C8 1.279 . S
O4 Cd1 2.297 . S
O4 C6 1.247 . S
O5 Cd1 2.439 . S
O5 C6 1.208 . S
C6 O4 1.247 . S
C6 O5 1.208 . S
C7 O12 1.247 . S
C7 O13 1.208 . S
C8 O0 1.315 . S
C8 O3 1.279 . S
C9 O10 1.315 . S
C9 O11 1.279 . S
O10 Cd2 2.223 . S
O10 C9 1.315 . S
O11 Cd1 2.240 . S
O11 C9 1.279 . S
O12 Cd2 2.297 1_556 S
O12 C7 1.247 . S
O13 Cd2 2.439 1_556 S
O13 C7 1.208 . S
O14 Cd15 2.223 . S
O14 C22 1.315 . S
Cd15 O14 2.223 . S
Cd15 O18 2.297 . S
Cd15 O19 2.439 . S
Cd15 O25 2.240 . S
Cd16 O17 2.240 . S
Cd16 O24 2.223 . S
Cd16 O26 2.297 . S
Cd16 O27 2.439 . S
O17 Cd16 2.240 . S
O17 C22 1.279 . S
O18 Cd15 2.297 . S
O18 C20 1.247 . S
O19 Cd15 2.439 . S
O19 C20 1.208 . S
C20 O18 1.247 . S
C20 O19 1.208 . S
C21 O26 1.247 . S
C21 O27 1.208 . S
C22 O14 1.315 . S
C22 O17 1.279 . S
C23 O24 1.315 . S
C23 O25 1.279 . S
O24 Cd16 2.223 . S
O24 C23 1.315 . S
O25 Cd15 2.240 . S
O25 C23 1.279 . S
O26 Cd16 2.297 . S
O26 C21 1.247 . S
O27 Cd16 2.439 . S
O27 C21 1.208 . S
O28 Cd29 2.223 . S
O28 C36 1.315 . S
Cd29 O28 2.223 . S
Cd29 O32 2.297 . S
Cd29 O33 2.439 . S
Cd29 O39 2.240 . S
Cd30 O31 2.240 . S
Cd30 O38 2.223 . S
Cd30 O40 2.297 1_554 S
Cd30 O41 2.439 1_554 S
O31 Cd30 2.240 . S
O31 C36 1.279 . S
O32 Cd29 2.297 . S
O32 C34 1.247 . S
O33 Cd29 2.439 . S
O33 C34 1.208 . S
C34 O32 1.247 . S
C34 O33 1.208 . S
C35 O40 1.247 . S
C35 O41 1.208 . S
C36 O28 1.315 . S
C36 O31 1.279 . S
C37 O38 1.315 . S
C37 O39 1.279 . S
O38 Cd30 2.223 . S
O38 C37 1.315 . S
O39 Cd29 2.240 . S
O39 C37 1.279 . S
O40 Cd30 2.297 1_556 S
O40 C35 1.247 . S
O41 Cd30 2.439 1_556 S
O41 C35 1.208 . S
O42 Cd43 2.223 . S
O42 C50 1.315 . S
Cd43 O42 2.223 . S
Cd43 O46 2.297 . S
Cd43 O47 2.439 . S
Cd43 O53 2.240 . S
Cd44 O45 2.240 . S
Cd44 O52 2.223 . S
Cd44 O54 2.297 . S
Cd44 O55 2.439 . S
O45 Cd44 2.240 . S
O45 C50 1.279 . S
O46 Cd43 2.297 . S
O46 C48 1.247 . S
O47 Cd43 2.439 . S
O47 C48 1.208 . S
C48 O46 1.247 . S
C48 O47 1.208 . S
C49 O54 1.247 . S
C49 O55 1.208 . S
C50 O42 1.315 . S
C50 O45 1.279 . S
C51 O52 1.315 . S
C51 O53 1.279 . S
O52 Cd44 2.223 . S
O52 C51 1.315 . S
O53 Cd43 2.240 . S
O53 C51 1.279 . S
O54 Cd44 2.297 . S
O54 C49 1.247 . S
O55 Cd44 2.439 . S
O55 C49 1.208 . S
O56 Cd57 2.223 . S
O56 C64 1.315 . S
Cd57 O56 2.223 . S
Cd57 O60 2.297 . S
Cd57 O61 2.439 . S
Cd57 O67 2.240 . S
Cd58 O59 2.240 . S
Cd58 O66 2.223 . S
Cd58 O68 2.297 . S
Cd58 O69 2.439 . S
O59 Cd58 2.240 . S
O59 C64 1.279 . S
O60 Cd57 2.297 . S
O60 C62 1.247 . S
O61 Cd57 2.439 . S
O61 C62 1.208 . S
C62 O60 1.247 . S
C62 O61 1.208 . S
C63 O68 1.247 . S
C63 O69 1.208 . S
C64 O56 1.315 . S
C64 O59 1.279 . S
C65 O66 1.315 . S
C65 O67 1.279 . S
O66 Cd58 2.223 . S
O66 C65 1.315 . S
O67 Cd57 2.240 . S
O67 C65 1.279 . S
O68 Cd58 2.297 . S
O68 C63 1.247 . S
O69 Cd58 2.439 . S
O69 C63 1.208 . S
O70 Cd71 2.223 . S
O70 C78 1.315 . S
Cd71 O70 2.223 . S
Cd71 O74 2.297 . S
Cd71 O75 2.439 1_556 S
Cd71 O81 2.240 1_556 S
Cd72 O73 2.240 1_554 S
Cd72 O80 2.223 . S
Cd72 O82 2.297 . S
Cd72 O83 2.439 . S
O73 Cd72 2.240 1_556 S
O73 C78 1.279 . S
O74 Cd71 2.297 . S
O74 C76 1.247 . S
O75 Cd71 2.439 1_554 S
O75 C76 1.208 1_554 S
C76 O74 1.247 . S
C76 O75 1.208 1_556 S
C77 O82 1.247 . S
C77 O83 1.208 . S
C78 O70 1.315 . S
C78 O73 1.279 . S
C79 O80 1.315 . S
C79 O81 1.279 . S
O80 Cd72 2.223 . S
O80 C79 1.315 . S
O81 Cd71 2.240 1_554 S
O81 C79 1.279 . S
O82 Cd72 2.297 . S
O82 C77 1.247 . S
O83 Cd72 2.439 . S
O83 C77 1.208 . S
O84 Cd85 2.223 . S
O84 C92 1.315 . S
Cd85 O84 2.223 . S
Cd85 O88 2.297 . S
Cd85 O89 2.439 . S
Cd85 O95 2.240 . S
Cd86 O87 2.240 . S
Cd86 O94 2.223 . S
Cd86 O96 2.297 . S
Cd86 O97 2.439 . S
O87 Cd86 2.240 . S
O87 C92 1.279 . S
O88 Cd85 2.297 . S
O88 C90 1.247 . S
O89 Cd85 2.439 . S
O89 C90 1.208 . S
C90 O88 1.247 . S
C90 O89 1.208 . S
C91 O96 1.247 . S
C91 O97 1.208 . S
C92 O84 1.315 . S
C92 O87 1.279 . S
C93 O94 1.315 . S
C93 O95 1.279 . S
O94 Cd86 2.223 . S
O94 C93 1.315 . S
O95 Cd85 2.240 . S
O95 C93 1.279 . S
O96 Cd86 2.297 . S
O96 C91 1.247 . S
O97 Cd86 2.439 . S
O97 C91 1.208 . S
O98 Cd99 2.223 . S
O98 C106 1.315 . S
Cd99 O98 2.223 . S
Cd99 O102 2.297 . S
Cd99 O103 2.439 1_556 S
Cd99 O109 2.240 1_556 S
Cd100 O101 2.240 1_554 S
Cd100 O108 2.223 . S
Cd100 O110 2.297 . S
Cd100 O111 2.439 . S
O101 Cd100 2.240 1_556 S
O101 C106 1.279 . S
O102 Cd99 2.297 . S
O102 C104 1.247 . S
O103 Cd99 2.439 1_554 S
O103 C104 1.208 1_554 S
C104 O102 1.247 . S
C104 O103 1.208 1_556 S
C105 O110 1.247 . S
C105 O111 1.208 . S
C106 O98 1.315 . S
C106 O101 1.279 . S
C107 O108 1.315 . S
C107 O109 1.279 . S
O108 Cd100 2.223 . S
O108 C107 1.315 . S
O109 Cd99 2.240 1_554 S
O109 C107 1.279 . S
O110 Cd100 2.297 . S
O110 C105 1.247 . S
O111 Cd100 2.439 . S
O111 C105 1.208 . S
H112 C118 0.930 . S
H113 C122 0.930 . S
H114 C127 0.929 . S
H115 C125 0.929 . S
H116 C120 0.929 . S
H117 C126 0.929 . S
C118 H112 0.930 . S
C118 C119 1.367 . S
C118 C126 1.378 . S
C119 C118 1.367 . S
C119 C127 1.433 . S
C120 H116 0.929 . S
C120 C122 1.378 . S
C120 C124 1.350 . S
C121 C124 1.463 . S
C121 C126 1.350 . S
C121 N129 1.427 . S
C122 H113 0.930 . S
C122 C120 1.378 . S
C122 C123 1.367 . S
C123 C122 1.367 . S
C123 C125 1.433 . S
C124 C120 1.350 . S
C124 C121 1.463 . S
C124 N128 1.427 . S
C125 H115 0.929 . S
C125 C123 1.433 . S
C125 N128 1.384 . S
C126 H117 0.929 . S
C126 C118 1.378 . S
C126 C121 1.350 . S
C127 H114 0.929 . S
C127 C119 1.433 . S
C127 N129 1.384 . S
N128 C124 1.427 . S
N128 C125 1.384 . S
N129 C121 1.427 . S
N129 C127 1.384 . S
H130 C136 0.930 . S
H131 C140 0.930 . S
H132 C145 0.929 . S
H133 C143 0.929 . S
H134 C138 0.929 . S
H135 C144 0.929 . S
C136 H130 0.930 . S
C136 C137 1.367 . S
C136 C144 1.378 . S
C137 C136 1.367 . S
C137 C145 1.433 . S
C138 H134 0.929 . S
C138 C140 1.378 . S
C138 C142 1.350 . S
C139 C142 1.463 . S
C139 C144 1.350 . S
C139 N147 1.427 . S
C140 H131 0.930 . S
C140 C138 1.378 . S
C140 C141 1.367 . S
C141 C140 1.367 . S
C141 C143 1.433 . S
C142 C138 1.350 . S
C142 C139 1.463 . S
C142 N146 1.427 . S
C143 H133 0.929 . S
C143 C141 1.433 . S
C143 N146 1.384 . S
C144 H135 0.929 . S
C144 C136 1.378 . S
C144 C139 1.350 . S
C145 H132 0.929 . S
C145 C137 1.433 . S
C145 N147 1.384 . S
N146 C142 1.427 . S
N146 C143 1.384 . S
N147 C139 1.427 . S
N147 C145 1.384 . S
H148 C154 0.930 . S
H149 C158 0.930 . S
H150 C163 0.929 . S
H151 C161 0.929 . S
H152 C156 0.929 . S
H153 C162 0.929 . S
C154 H148 0.930 . S
C154 C155 1.367 . S
C154 C162 1.378 . S
C155 C154 1.367 . S
C155 C163 1.433 . S
C156 H152 0.929 . S
C156 C158 1.378 . S
C156 C160 1.350 . S
C157 C160 1.463 . S
C157 C162 1.350 . S
C157 N165 1.427 . S
C158 H149 0.930 . S
C158 C156 1.378 . S
C158 C159 1.367 . S
C159 C158 1.367 . S
C159 C161 1.433 . S
C160 C156 1.350 . S
C160 C157 1.463 . S
C160 N164 1.427 . S
C161 H151 0.929 . S
C161 C159 1.433 . S
C161 N164 1.384 . S
C162 H153 0.929 . S
C162 C154 1.378 . S
C162 C157 1.350 . S
C163 H150 0.929 . S
C163 C155 1.433 . S
C163 N165 1.384 . S
N164 C160 1.427 . S
N164 C161 1.384 . S
N165 C157 1.427 . S
N165 C163 1.384 . S
H166 C172 0.930 . S
H167 C176 0.930 . S
H168 C181 0.929 . S
H169 C179 0.929 . S
H170 C174 0.929 . S
H171 C180 0.929 . S
C172 H166 0.930 . S
C172 C173 1.367 . S
C172 C180 1.378 . S
C173 C172 1.367 . S
C173 C181 1.433 . S
C174 H170 0.929 . S
C174 C176 1.378 . S
C174 C178 1.350 . S
C175 C178 1.463 . S
C175 C180 1.350 . S
C175 N183 1.427 . S
C176 H167 0.930 . S
C176 C174 1.378 . S
C176 C177 1.367 . S
C177 C176 1.367 . S
C177 C179 1.433 . S
C178 C174 1.350 . S
C178 C175 1.463 . S
C178 N182 1.427 . S
C179 H169 0.929 . S
C179 C177 1.433 . S
C179 N182 1.384 . S
C180 H171 0.929 . S
C180 C172 1.378 . S
C180 C175 1.350 . S
C181 H168 0.929 . S
C181 C173 1.433 . S
C181 N183 1.384 . S
N182 C178 1.427 . S
N182 C179 1.384 . S
N183 C175 1.427 . S
N183 C181 1.384 . S
H184 C190 0.930 . S
H185 C194 0.930 . S
H186 C199 0.929 . S
H187 C197 0.929 . S
H188 C192 0.929 . S
H189 C198 0.929 . S
C190 H184 0.930 . S
C190 C191 1.367 . S
C190 C198 1.378 . S
C191 C190 1.367 . S
C191 C199 1.433 . S
C192 H188 0.929 . S
C192 C194 1.378 . S
C192 C196 1.350 . S
C193 C196 1.463 . S
C193 C198 1.350 . S
C193 N201 1.427 . S
C194 H185 0.930 . S
C194 C192 1.378 . S
C194 C195 1.367 . S
C195 C194 1.367 . S
C195 C197 1.433 . S
C196 C192 1.350 . S
C196 C193 1.463 . S
C196 N200 1.427 . S
C197 H187 0.929 . S
C197 C195 1.433 . S
C197 N200 1.384 . S
C198 H189 0.929 . S
C198 C190 1.378 . S
C198 C193 1.350 . S
C199 H186 0.929 . S
C199 C191 1.433 . S
C199 N201 1.384 . S
N200 C196 1.427 . S
N200 C197 1.384 . S
N201 C193 1.427 . S
N201 C199 1.384 . S
H202 C208 0.930 . S
H203 C212 0.930 . S
H204 C217 0.929 . S
H205 C215 0.929 . S
H206 C210 0.929 . S
H207 C216 0.929 . S
C208 H202 0.930 . S
C208 C209 1.367 . S
C208 C216 1.378 . S
C209 C208 1.367 . S
C209 C217 1.433 . S
C210 H206 0.929 . S
C210 C212 1.378 . S
C210 C214 1.350 . S
C211 C214 1.463 . S
C211 C216 1.350 . S
C211 N219 1.427 . S
C212 H203 0.930 . S
C212 C210 1.378 . S
C212 C213 1.367 . S
C213 C212 1.367 . S
C213 C215 1.433 . S
C214 C210 1.350 . S
C214 C211 1.463 . S
C214 N218 1.427 . S
C215 H205 0.929 . S
C215 C213 1.433 . S
C215 N218 1.384 . S
C216 H207 0.929 . S
C216 C208 1.378 . S
C216 C211 1.350 . S
C217 H204 0.929 . S
C217 C209 1.433 . S
C217 N219 1.384 . S
N218 C214 1.427 . S
N218 C215 1.384 . S
N219 C211 1.427 . S
N219 C217 1.384 . S
H220 C226 0.930 . S
H221 C230 0.930 . S
H222 C235 0.929 . S
H223 C233 0.929 . S
H224 C228 0.929 . S
H225 C234 0.929 . S
C226 H220 0.930 . S
C226 C227 1.367 . S
C226 C234 1.378 . S
C227 C226 1.367 . S
C227 C235 1.433 . S
C228 H224 0.929 . S
C228 C230 1.378 . S
C228 C232 1.350 . S
C229 C232 1.463 . S
C229 C234 1.350 . S
C229 N237 1.427 . S
C230 H221 0.930 . S
C230 C228 1.378 . S
C230 C231 1.367 . S
C231 C230 1.367 . S
C231 C233 1.433 . S
C232 C228 1.350 . S
C232 C229 1.463 . S
C232 N236 1.427 . S
C233 H223 0.929 . S
C233 C231 1.433 . S
C233 N236 1.384 . S
C234 H225 0.929 . S
C234 C226 1.378 . S
C234 C229 1.350 . S
C235 H222 0.929 . S
C235 C227 1.433 . S
C235 N237 1.384 . S
N236 C232 1.427 . S
N236 C233 1.384 . S
N237 C229 1.427 . S
N237 C235 1.384 . S
H238 C244 0.930 . S
H239 C248 0.930 . S
H240 C253 0.929 . S
H241 C251 0.929 . S
H242 C246 0.929 . S
H243 C252 0.929 . S
C244 H238 0.930 . S
C244 C245 1.367 . S
C244 C252 1.378 . S
C245 C244 1.367 . S
C245 C253 1.433 . S
C246 H242 0.929 . S
C246 C248 1.378 . S
C246 C250 1.350 . S
C247 C250 1.463 . S
C247 C252 1.350 . S
C247 N255 1.427 . S
C248 H239 0.930 . S
C248 C246 1.378 . S
C248 C249 1.367 . S
C249 C248 1.367 . S
C249 C251 1.433 . S
C250 C246 1.350 . S
C250 C247 1.463 . S
C250 N254 1.427 . S
C251 H241 0.929 . S
C251 C249 1.433 . S
C251 N254 1.384 . S
C252 H243 0.929 . S
C252 C244 1.378 . S
C252 C247 1.350 . S
C253 H240 0.929 . S
C253 C245 1.433 . S
C253 N255 1.384 . S
N254 C250 1.427 . S
N254 C251 1.384 . S
N255 C247 1.427 . S
N255 C253 1.384 . S
H256 C262 0.930 . S
H257 C266 0.930 . S
H258 C271 0.929 . S
H259 C269 0.929 . S
H260 C264 0.947 . S
H261 C270 0.947 . S
C262 H256 0.930 . S
C262 C263 1.367 . S
C262 C270 1.378 . S
C263 C262 1.367 . S
C263 C271 1.433 . S
C264 H260 0.947 . S
C264 C266 1.378 . S
C264 C268 1.350 . S
C265 C268 1.463 1_655 S
C265 C270 1.350 . S
C265 N273 1.427 . S
C266 H257 0.930 . S
C266 C264 1.378 . S
C266 C267 1.367 . S
C267 C266 1.367 . S
C267 C269 1.433 . S
C268 C264 1.350 . S
C268 C265 1.463 1_455 S
C268 N272 1.427 . S
C269 H259 0.929 . S
C269 C267 1.433 . S
C269 N272 1.384 . S
C270 H261 0.947 . S
C270 C262 1.378 . S
C270 C265 1.350 . S
C271 H258 0.929 . S
C271 C263 1.433 . S
C271 N273 1.384 . S
N272 C268 1.427 . S
N272 C269 1.384 . S
N273 C265 1.427 . S
N273 C271 1.384 . S
H274 C280 0.930 . S
H275 C284 0.930 . S
H276 C289 0.929 . S
H277 C287 0.929 . S
H278 C282 0.929 . S
H279 C288 0.929 . S
C280 H274 0.930 . S
C280 C281 1.367 . S
C280 C288 1.378 . S
C281 C280 1.367 . S
C281 C289 1.433 . S
C282 H278 0.929 . S
C282 C284 1.378 . S
C282 C286 1.350 . S
C283 C286 1.463 1_565 S
C283 C288 1.350 . S
C283 N291 1.427 . S
C284 H275 0.930 . S
C284 C282 1.378 . S
C284 C285 1.367 . S
C285 C284 1.367 . S
C285 C287 1.433 . S
C286 C282 1.350 . S
C286 C283 1.463 1_545 S
C286 N290 1.427 . S
C287 H277 0.929 . S
C287 C285 1.433 . S
C287 N290 1.384 . S
C288 H279 0.929 . S
C288 C280 1.378 . S
C288 C283 1.350 . S
C289 H276 0.929 . S
C289 C281 1.433 . S
C289 N291 1.384 . S
N290 C286 1.427 . S
N290 C287 1.384 . S
N291 C283 1.427 . S
N291 C289 1.384 . S
H292 C298 0.930 . S
H293 C302 0.930 . S
H294 C307 0.929 . S
H295 C305 0.929 . S
H296 C300 0.929 . S
H297 C306 0.929 . S
C298 H292 0.930 . S
C298 C299 1.367 . S
C298 C306 1.378 . S
C299 C298 1.367 . S
C299 C307 1.433 . S
C300 H296 0.929 . S
C300 C302 1.378 . S
C300 C304 1.350 . S
C301 C304 1.463 1_455 S
C301 C306 1.350 . S
C301 N309 1.427 . S
C302 H293 0.930 . S
C302 C300 1.378 . S
C302 C303 1.367 . S
C303 C302 1.367 . S
C303 C305 1.433 . S
C304 C300 1.350 . S
C304 C301 1.463 1_655 S
C304 N308 1.427 . S
C305 H295 0.929 . S
C305 C303 1.433 . S
C305 N308 1.384 . S
C306 H297 0.929 . S
C306 C298 1.378 . S
C306 C301 1.350 . S
C307 H294 0.929 . S
C307 C299 1.433 . S
C307 N309 1.384 . S
N308 C304 1.427 . S
N308 C305 1.384 . S
N309 C301 1.427 . S
N309 C307 1.384 . S
H310 C316 0.930 . S
H311 C320 0.930 . S
H312 C325 0.929 . S
H313 C323 0.929 . S
H314 C318 0.929 . S
H315 C324 0.929 . S
C316 H310 0.930 . S
C316 C317 1.367 . S
C316 C324 1.378 . S
C317 C316 1.367 . S
C317 C325 1.433 1_556 S
C318 H314 0.929 . S
C318 C320 1.378 . S
C318 C322 1.361 . S
C319 C322 1.462 1_566 S
C319 C324 1.350 . S
C319 N327 1.427 1_556 S
C320 H311 0.930 . S
C320 C318 1.378 . S
C320 C321 1.366 . S
C321 C320 1.366 . S
C321 C323 1.434 1_554 S
C322 C318 1.361 . S
C322 C319 1.462 1_544 S
C322 N326 1.416 1_554 S
C323 H313 0.929 . S
C323 C321 1.434 1_556 S
C323 N326 1.384 . S
C324 H315 0.929 . S
C324 C316 1.378 . S
C324 C319 1.350 . S
C325 H312 0.929 . S
C325 C317 1.433 1_554 S
C325 N327 1.384 . S
N326 C322 1.416 1_556 S
N326 C323 1.384 . S
N327 C319 1.427 1_554 S
N327 C325 1.384 . S
H328 C334 0.930 . S
H329 C338 0.930 . S
H330 C343 0.929 . S
H331 C341 0.929 . S
H332 C336 0.929 . S
H333 C342 0.929 . S
C334 H328 0.930 . S
C334 C335 1.367 . S
C334 C342 1.378 . S
C335 C334 1.367 . S
C335 C343 1.433 . S
C336 H332 0.929 . S
C336 C338 1.378 . S
C336 C340 1.350 1_556 S
C337 C340 1.463 . S
C337 C342 1.350 . S
C337 N345 1.427 . S
C338 H329 0.930 . S
C338 C336 1.378 . S
C338 C339 1.367 . S
C339 C338 1.367 . S
C339 C341 1.433 1_556 S
C340 C336 1.350 1_554 S
C340 C337 1.463 . S
C340 N344 1.427 . S
C341 H331 0.929 . S
C341 C339 1.433 1_554 S
C341 N344 1.384 . S
C342 H333 0.929 . S
C342 C334 1.378 . S
C342 C337 1.350 . S
C343 H330 0.929 . S
C343 C335 1.433 . S
C343 N345 1.384 . S
N344 C340 1.427 . S
N344 C341 1.384 . S
N345 C337 1.427 . S
N345 C343 1.384 . S
H346 C352 0.930 . S
H347 C356 0.930 . S
H348 C361 0.929 . S
H349 C359 0.929 . S
H350 C354 0.929 . S
H351 C360 0.929 . S
C352 H346 0.930 . S
C352 C353 1.367 . S
C352 C360 1.378 . S
C353 C352 1.367 . S
C353 C361 1.433 . S
C354 H350 0.929 . S
C354 C356 1.378 . S
C354 C358 1.350 . S
C355 C358 1.463 . S
C355 C360 1.350 . S
C355 N363 1.427 . S
C356 H347 0.930 . S
C356 C354 1.378 . S
C356 C357 1.367 . S
C357 C356 1.367 . S
C357 C359 1.433 . S
C358 C354 1.350 . S
C358 C355 1.463 . S
C358 N362 1.427 . S
C359 H349 0.929 . S
C359 C357 1.433 . S
C359 N362 1.384 . S
C360 H351 0.929 . S
C360 C352 1.378 . S
C360 C355 1.350 . S
C361 H348 0.929 . S
C361 C353 1.433 . S
C361 N363 1.384 . S
N362 C358 1.427 . S
N362 C359 1.384 . S
N363 C355 1.427 . S
N363 C361 1.384 . S
H364 C370 0.927 1_556 S
H365 C374 0.930 . S
H366 C379 0.929 . S
H367 C377 0.929 . S
H368 C372 0.929 . S
H369 C378 0.929 . S
C370 H364 0.927 1_554 S
C370 C371 1.371 . S
C370 C378 1.377 1_554 S
C371 C370 1.371 . S
C371 C379 1.433 . S
C372 H368 0.929 . S
C372 C374 1.378 . S
C372 C376 1.350 . S
C373 C376 1.463 . S
C373 C378 1.350 1_554 S
C373 N381 1.427 . S
C374 H365 0.930 . S
C374 C372 1.378 . S
C374 C375 1.367 1_554 S
C375 C374 1.367 1_556 S
C375 C377 1.433 . S
C376 C372 1.350 . S
C376 C373 1.463 . S
C376 N380 1.427 1_554 S
C377 H367 0.929 . S
C377 C375 1.433 . S
C377 N380 1.384 . S
C378 H369 0.929 . S
C378 C370 1.377 1_556 S
C378 C373 1.350 1_556 S
C379 H366 0.929 . S
C379 C371 1.433 . S
C379 N381 1.384 . S
N380 C376 1.427 1_556 S
N380 C377 1.384 . S
N381 C373 1.427 . S
N381 C379 1.384 . S
H382 C388 0.930 . S
H383 C392 0.930 . S
H384 C397 0.929 . S
H385 C395 0.929 . S
H386 C390 0.929 . S
H387 C396 0.929 . S
C388 H382 0.930 . S
C388 C389 1.367 . S
C388 C396 1.378 . S
C389 C388 1.367 . S
C389 C397 1.433 . S
C390 H386 0.929 . S
C390 C392 1.378 . S
C390 C394 1.350 . S
C391 C394 1.463 . S
C391 C396 1.350 . S
C391 N399 1.427 . S
C392 H383 0.930 . S
C392 C390 1.378 . S
C392 C393 1.367 . S
C393 C392 1.367 . S
C393 C395 1.433 . S
C394 C390 1.350 . S
C394 C391 1.463 . S
C394 N398 1.427 . S
C395 H385 0.929 . S
C395 C393 1.433 . S
C395 N398 1.384 . S
C396 H387 0.929 . S
C396 C388 1.378 . S
C396 C391 1.350 . S
C397 H384 0.929 . S
C397 C389 1.433 . S
C397 N399 1.384 . S
N398 C394 1.427 . S
N398 C395 1.384 . S
N399 C391 1.427 . S
N399 C397 1.384 . S
C119 C8 1.698 . S
C123 C64 1.696 . S
C137 C22 1.697 . S
C141 C78 1.700 . S
C155 C92 1.704 . S
C159 C36 1.706 . S
C173 C106 1.703 . S
C177 C50 1.701 . S
C191 C91 1.050 . S
C195 C35 1.048 . S
C209 C105 1.055 . S
C213 C49 1.052 . S
C227 C7 1.050 . S
C231 C63 1.048 . S
C245 C21 1.049 . S
C249 C77 1.053 . S
C263 C37 1.295 . S
C267 C9 1.297 . S
C281 C51 1.279 . S
C285 C23 1.277 . S
C299 C65 1.296 . S
C303 C93 1.292 . S
C317 C107 1.291 1_556 S
C321 C79 1.284 . S
C335 C6 1.462 . S
C339 C76 1.468 . S
C353 C90 1.462 . S
C357 C20 1.467 . S
C371 C34 1.467 . S
C375 C104 1.462 . S
C389 C48 1.462 . S
C393 C62 1.466 . S
