# Generated by pormake.
# Topology ume, (4)-cn, num edge types: 1
# Building blocks:
#     Node 0, Type 0, BuildingBlock: KOZSID_clean_sbu_0, # of connection points: 4
#     Node 1, Type 0, BuildingBlock: KOZSID_clean_sbu_0, # of connection points: 4
#     Node 2, Type 0, BuildingBlock: KOZSID_clean_sbu_0, # of connection points: 4
#     Node 3, Type 0, BuildingBlock: KOZSID_clean_sbu_0, # of connection points: 4
#     Node 4, Type 0, BuildingBlock: KOZSID_clean_sbu_0, # of connection points: 4
#     Node 5, Type 0, BuildingBlock: KOZSID_clean_sbu_0, # of connection points: 4
#     Node 6, Type 0, BuildingBlock: KOZSID_clean_sbu_0, # of connection points: 4
#     Node 7, Type 0, BuildingBlock: KOZSID_clean_sbu_0, # of connection points: 4
#     Node 8, Type 0, BuildingBlock: KOZSID_clean_sbu_0, # of connection points: 4
#     Node 9, Type 0, BuildingBlock: KOZSID_clean_sbu_0, # of connection points: 4
#     Node 10, Type 0, BuildingBlock: KOZSID_clean_sbu_0, # of connection points: 4
#     Node 11, Type 0, BuildingBlock: KOZSID_clean_sbu_0, # of connection points: 4
#     Node 12, Type 0, BuildingBlock: KOZSID_clean_sbu_0, # of connection points: 4
#     Node 13, Type 0, BuildingBlock: KOZSID_clean_sbu_0, # of connection points: 4
#     Node 14, Type 0, BuildingBlock: KOZSID_clean_sbu_0, # of connection points: 4
#     Node 15, Type 0, BuildingBlock: KOZSID_clean_sbu_0, # of connection points: 4
#     Edge 16, Type (0, 0), BuildingBlock: CIFDUS_clean_linker_0, # of connection points: 2
#     Edge 17, Type (0, 0), BuildingBlock: CIFDUS_clean_linker_0, # of connection points: 2
#     Edge 18, Type (0, 0), BuildingBlock: CIFDUS_clean_linker_0, # of connection points: 2
#     Edge 19, Type (0, 0), BuildingBlock: CIFDUS_clean_linker_0, # of connection points: 2
#     Edge 20, Type (0, 0), BuildingBlock: CIFDUS_clean_linker_0, # of connection points: 2
#     Edge 21, Type (0, 0), BuildingBlock: CIFDUS_clean_linker_0, # of connection points: 2
#     Edge 22, Type (0, 0), BuildingBlock: CIFDUS_clean_linker_0, # of connection points: 2
#     Edge 23, Type (0, 0), BuildingBlock: CIFDUS_clean_linker_0, # of connection points: 2
#     Edge 24, Type (0, 0), BuildingBlock: CIFDUS_clean_linker_0, # of connection points: 2
#     Edge 25, Type (0, 0), BuildingBlock: CIFDUS_clean_linker_0, # of connection points: 2
#     Edge 26, Type (0, 0), BuildingBlock: CIFDUS_clean_linker_0, # of connection points: 2
#     Edge 27, Type (0, 0), BuildingBlock: CIFDUS_clean_linker_0, # of connection points: 2
#     Edge 28, Type (0, 0), BuildingBlock: CIFDUS_clean_linker_0, # of connection points: 2
#     Edge 29, Type (0, 0), BuildingBlock: CIFDUS_clean_linker_0, # of connection points: 2
#     Edge 30, Type (0, 0), BuildingBlock: CIFDUS_clean_linker_0, # of connection points: 2
#     Edge 31, Type (0, 0), BuildingBlock: CIFDUS_clean_linker_0, # of connection points: 2
#     Edge 32, Type (0, 0), BuildingBlock: CIFDUS_clean_linker_0, # of connection points: 2
#     Edge 33, Type (0, 0), BuildingBlock: CIFDUS_clean_linker_0, # of connection points: 2
#     Edge 34, Type (0, 0), BuildingBlock: CIFDUS_clean_linker_0, # of connection points: 2
#     Edge 35, Type (0, 0), BuildingBlock: CIFDUS_clean_linker_0, # of connection points: 2
#     Edge 36, Type (0, 0), BuildingBlock: CIFDUS_clean_linker_0, # of connection points: 2
#     Edge 37, Type (0, 0), BuildingBlock: CIFDUS_clean_linker_0, # of connection points: 2
#     Edge 38, Type (0, 0), BuildingBlock: CIFDUS_clean_linker_0, # of connection points: 2
#     Edge 39, Type (0, 0), BuildingBlock: CIFDUS_clean_linker_0, # of connection points: 2
#     Edge 40, Type (0, 0), BuildingBlock: CIFDUS_clean_linker_0, # of connection points: 2
#     Edge 41, Type (0, 0), BuildingBlock: CIFDUS_clean_linker_0, # of connection points: 2
#     Edge 42, Type (0, 0), BuildingBlock: CIFDUS_clean_linker_0, # of connection points: 2
#     Edge 43, Type (0, 0), BuildingBlock: CIFDUS_clean_linker_0, # of connection points: 2
#     Edge 44, Type (0, 0), BuildingBlock: CIFDUS_clean_linker_0, # of connection points: 2
#     Edge 45, Type (0, 0), BuildingBlock: CIFDUS_clean_linker_0, # of connection points: 2
#     Edge 46, Type (0, 0), BuildingBlock: CIFDUS_clean_linker_0, # of connection points: 2
#     Edge 47, Type (0, 0), BuildingBlock: CIFDUS_clean_linker_0, # of connection points: 2
# Relax obj value: 0.054
# Max RMSD: 0.248
# Mean RMSD: 0.214
data_MOF--net-ume--node1-KOZSID_clean_sbu_0--edge1-CIFDUS_clean_linker_0
_symmetry_space_group_name_H-M    P1
_symmetry_Int_Tables_number       1
_symmetry_cell_setting            triclinic
loop_
_symmetry_equiv_pos_as_xyz
'x, y, z'
_cell_length_a     28.820193
_cell_length_b     34.474373
_cell_length_c     118.99096
_cell_angle_alpha  90.128669
_cell_angle_beta   90.10566
_cell_angle_gamma 90.113769
loop_
_atom_site_label
_atom_site_type_symbol
_atom_site_fract_x
_atom_site_fract_y
_atom_site_fract_z
_atom_type_partial_charge
C0 C 0.34703 0.08324 0.32491 0.0
C1 C 0.3702 0.11795 0.32686 0.0
C2 C 0.34087 0.14718 0.32353 0.0
C3 C 0.30155 0.12883 0.31967 0.0
N4 N 0.30434 0.08998 0.32051 0.0
Co5 Co 0.25679 0.05286 0.31511 0.0
N6 N 0.20763 0.09315 0.31459 0.0
C7 C 0.21494 0.13168 0.31441 0.0
C8 C 0.1742 0.15236 0.31405 0.0
C9 C 0.13928 0.12503 0.31395 0.0
C10 C 0.16065 0.08905 0.31427 0.0
N11 N 0.20934 0.01559 0.30956 0.0
C12 C 0.16246 0.01794 0.30965 0.0
C13 C 0.14249 0.98516 0.30481 0.0
C14 C 0.17816 0.96163 0.30158 0.0
C15 C 0.21776 0.98116 0.30461 0.0
N16 N 0.30441 1.01168 0.31569 0.0
C17 C 0.30163 0.97623 0.31093 0.0
C18 C 0.33599 0.95164 0.31445 0.0
C19 C 0.36233 0.9731 0.32172 0.0
C20 C 0.34337 1.01022 0.32197 0.0
N21 N 0.24075 0.04193 0.33105 0.0
C22 C 0.24506 0.03267 0.35472 0.0
C23 C 0.24574 1.0003 0.34748 0.0
C24 C 0.24329 1.00554 0.33567 0.0
C25 C 0.23765 0.06903 0.34982 0.0
C26 C 0.23544 0.07298 0.33814 0.0
N27 N 0.27562 0.0663 0.29939 0.0
C28 C 0.33826 0.08718 0.28704 0.0
C29 C 0.30724 0.10611 0.2798 0.0
C30 C 0.25956 0.10172 0.28218 0.0
C31 C 0.24455 0.08125 0.29181 0.0
C32 C 0.32198 0.0678 0.2967 0.0
H33 H 0.20777 0.07952 0.29344 0.0
H34 H 0.34761 0.05629 0.30238 0.0
H35 H 0.24631 0.9804 0.3303 0.0
H36 H 0.23288 0.10196 0.3349 0.0
C37 C 0.25959 0.14668 0.31651 0.0
C38 C 0.36781 0.04453 0.3264 0.0
C39 C 0.13587 0.05155 0.31356 0.0
C40 C 0.26157 0.96443 0.30532 0.0
H41 H 0.40484 0.12173 0.33022 0.0
H42 H 0.34719 0.17809 0.32405 0.0
H43 H 0.1702 0.18356 0.31427 0.0
H44 H 0.10241 0.13084 0.31366 0.0
H45 H 0.10596 0.97874 0.30377 0.0
H46 H 0.17544 0.93276 0.29804 0.0
H47 H 0.34006 0.92121 0.31242 0.0
H48 H 0.39298 0.96288 0.32606 0.0
H49 H 0.25088 0.97147 0.35084 0.0
H50 H 0.23578 0.09488 0.35499 0.0
H51 H 0.37531 0.0894 0.28566 0.0
H52 H 0.23386 0.11499 0.27677 0.0
C53 C 0.9584 0.7883 0.55238 0.0
C54 C 0.99352 0.78694 0.54445 0.0
C55 C 0.03098 0.7693 0.54955 0.0
C56 C 0.01683 0.76064 0.5603 0.0
N57 N 0.97285 0.77168 0.56219 0.0
Co58 Co 0.9401 0.76741 0.57676 0.0
N59 N 0.99836 0.76186 0.58555 0.0
C60 C 0.0394 0.75109 0.58118 0.0
C61 C 0.0735 0.74821 0.58924 0.0
C62 C 0.05231 0.75729 0.59927 0.0
C63 C 0.00629 0.7653 0.59681 0.0
N64 N 0.90614 0.76444 0.59126 0.0
C65 C 0.92147 0.76878 0.60199 0.0
C66 C 0.88554 0.76319 0.60959 0.0
C67 C 0.8467 0.75468 0.60339 0.0
C68 C 0.86093 0.75552 0.5924 0.0
N69 N 0.88163 0.77225 0.56797 0.0
C70 C 0.83916 0.7621 0.57164 0.0
C71 C 0.80466 0.77149 0.56418 0.0
C72 C 0.82667 0.78872 0.5553 0.0
C73 C 0.8739 0.78836 0.5577 0.0
N74 N 0.93837 0.70971 0.57537 0.0
C75 C 0.9528 0.62814 0.57383 0.0
C76 C 0.95272 0.64752 0.5842 0.0
C77 C 0.94578 0.68769 0.58478 0.0
C78 C 0.94416 0.65068 0.56419 0.0
C79 C 0.9364 0.69118 0.56515 0.0
N80 N 0.94468 0.82415 0.57821 0.0
C81 C 0.91166 0.88792 0.58068 0.0
C82 C 0.9555 0.90526 0.57919 0.0
C83 C 0.99342 0.88102 0.5773 0.0
C84 C 0.98729 0.84101 0.57676 0.0
C85 C 0.90707 0.84722 0.58028 0.0
H86 H 0.0174 0.82383 0.57495 0.0
H87 H 0.87323 0.83442 0.58151 0.0
H88 H 0.94844 0.70094 0.59294 0.0
H89 H 0.93011 0.70764 0.55758 0.0
C90 C 0.04565 0.75011 0.5694 0.0
C91 C 0.91072 0.80288 0.55013 0.0
C92 C 0.97031 0.77346 0.60534 0.0
C93 C 0.83197 0.7535 0.58298 0.0
H94 H 0.9922 0.79767 0.53592 0.0
H95 H 0.06516 0.76519 0.54599 0.0
H96 H 0.10977 0.74148 0.58795 0.0
H97 H 0.06867 0.75764 0.60747 0.0
H98 H 0.8874 0.76422 0.61867 0.0
H99 H 0.81204 0.74936 0.60653 0.0
H100 H 0.76758 0.76903 0.56544 0.0
H101 H 0.80908 0.80114 0.54816 0.0
H102 H 0.95954 0.63188 0.59191 0.0
H103 H 0.94318 0.63715 0.55597 0.0
H104 H 0.88128 0.90562 0.58216 0.0
H105 H 0.02771 0.89293 0.57586 0.0
C106 C 0.1555 0.44956 0.82534 0.0
C107 C 0.13246 0.41478 0.8272 0.0
C108 C 0.16127 0.38571 0.82348 0.0
C109 C 0.20017 0.40421 0.8195 0.0
N110 N 0.19768 0.443 0.82063 0.0
Co111 Co 0.24476 0.48034 0.81513 0.0
N112 N 0.29346 0.43991 0.81384 0.0
C113 C 0.28578 0.40146 0.81337 0.0
C114 C 0.32627 0.3806 0.81254 0.0
C115 C 0.36141 0.40773 0.81245 0.0
C116 C 0.34043 0.44378 0.81323 0.0
N117 N 0.29179 0.51786 0.80957 0.0
C118 C 0.33867 0.51527 0.80933 0.0
C119 C 0.35827 0.54826 0.80459 0.0
C120 C 0.32237 0.57226 0.8018 0.0
C121 C 0.28302 0.55273 0.80496 0.0
N122 N 0.19745 0.52163 0.81634 0.0
C123 C 0.19995 0.55745 0.81186 0.0
C124 C 0.16598 0.58183 0.81569 0.0
C125 C 0.14013 0.55987 0.82289 0.0
C126 C 0.159 0.52271 0.82278 0.0
N127 N 0.2632 0.48987 0.83103 0.0
C128 C 0.27148 0.49767 0.85477 0.0
C129 C 0.26579 0.53035 0.8478 0.0
C130 C 0.26229 0.52588 0.83597 0.0
C131 C 0.27434 0.46146 0.84943 0.0
C132 C 0.27027 0.45824 0.83775 0.0
N133 N 0.22388 0.46835 0.79943 0.0
C134 C 0.16079 0.44619 0.78736 0.0
C135 C 0.19167 0.43385 0.77899 0.0
C136 C 0.2392 0.44142 0.78088 0.0
C137 C 0.25454 0.45832 0.79112 0.0
C138 C 0.17731 0.46388 0.79729 0.0
H139 H 0.29138 0.4619 0.79247 0.0
H140 H 0.15201 0.47234 0.80346 0.0
H141 H 0.25737 0.55143 0.83088 0.0
H142 H 0.27065 0.42946 0.83427 0.0
C143 C 0.24142 0.38651 0.81579 0.0
C144 C 0.13461 0.4882 0.82702 0.0
C145 C 0.36546 0.48122 0.81277 0.0
C146 C 0.23943 0.56955 0.8061 0.0
H147 H 0.09814 0.41087 0.8307 0.0
H148 H 0.15481 0.35479 0.82379 0.0
H149 H 0.33003 0.34937 0.81251 0.0
H150 H 0.39817 0.4017 0.8119 0.0
H151 H 0.3947 0.55446 0.8033 0.0
H152 H 0.32487 0.60136 0.79846 0.0
H153 H 0.16179 0.6124 0.8139 0.0
H154 H 0.10977 0.56977 0.8274 0.0
H155 H 0.26398 0.55912 0.85143 0.0
H156 H 0.27803 0.43509 0.85427 0.0
H157 H 0.12378 0.44215 0.78626 0.0
H158 H 0.26466 0.433 0.77466 0.0
C159 C 0.54024 0.74072 0.05048 0.0
C160 C 0.50302 0.73833 0.04307 0.0
C161 C 0.46595 0.75614 0.04821 0.0
C162 C 0.48186 0.76802 0.05856 0.0
N163 N 0.52661 0.75859 0.0602 0.0
Co164 Co 0.56095 0.76563 0.07456 0.0
N165 N 0.50358 0.77191 0.08361 0.0
C166 C 0.46182 0.78137 0.07937 0.0
C167 C 0.42851 0.78487 0.08758 0.0
C168 C 0.45099 0.77757 0.09757 0.0
C169 C 0.49689 0.76986 0.09493 0.0
N170 N 0.59637 0.77158 0.08882 0.0
C171 C 0.58231 0.76879 0.09969 0.0
C172 C 0.61914 0.7755 0.10698 0.0
C173 C 0.6571 0.78353 0.10046 0.0
C174 C 0.64159 0.78109 0.08957 0.0
N175 N 0.61847 0.76004 0.06555 0.0
C176 C 0.6608 0.77248 0.06871 0.0
C177 C 0.69413 0.76572 0.06072 0.0
C178 C 0.67137 0.74775 0.05201 0.0
C179 C 0.62525 0.74415 0.05521 0.0
N180 N 0.56161 0.82281 0.07237 0.0
C181 C 0.54298 0.903 0.06923 0.0
C182 C 0.54431 0.88646 0.07999 0.0
C183 C 0.55349 0.84678 0.08136 0.0
C184 C 0.55372 0.87855 0.0601 0.0
C185 C 0.56345 0.83886 0.06185 0.0
N186 N 0.55762 0.70925 0.07675 0.0
C187 C 0.5922 0.64626 0.07949 0.0
C188 C 0.54847 0.62829 0.07847 0.0
C189 C 0.50983 0.65182 0.07671 0.0
C190 C 0.51513 0.69174 0.07581 0.0
C191 C 0.59596 0.68693 0.07873 0.0
H192 H 0.48445 0.70826 0.07406 0.0
H193 H 0.62972 0.70029 0.07956 0.0
H194 H 0.55155 0.83529 0.08975 0.0
H195 H 0.57065 0.82085 0.05462 0.0
C196 C 0.45409 0.77983 0.06768 0.0
C197 C 0.58854 0.72753 0.04799 0.0
C198 C 0.53388 0.76385 0.10336 0.0
C199 C 0.66932 0.78261 0.07992 0.0
H200 H 0.50198 0.72448 0.03493 0.0
H201 H 0.43078 0.75786 0.04505 0.0
H202 H 0.39193 0.79071 0.08642 0.0
H203 H 0.43554 0.77821 0.10585 0.0
H204 H 0.61855 0.77535 0.11607 0.0
H205 H 0.69205 0.78955 0.10332 0.0
H206 H 0.731 0.77139 0.06136 0.0
H207 H 0.68706 0.73833 0.04422 0.0
H208 H 0.53603 0.90361 0.08735 0.0
H209 H 0.55407 0.88985 0.05162 0.0
H210 H 0.6231 0.62908 0.08086 0.0
H211 H 0.47556 0.63936 0.07562 0.0
C212 C 0.34883 0.45022 0.95093 0.0
C213 C 0.37187 0.41586 0.94853 0.0
C214 C 0.34309 0.38611 0.95182 0.0
C215 C 0.30424 0.4038 0.95609 0.0
N216 N 0.30678 0.44274 0.95558 0.0
Co217 Co 0.25965 0.47899 0.96156 0.0
N218 N 0.21079 0.43842 0.96196 0.0
C219 C 0.21821 0.39995 0.96178 0.0
C220 C 0.17754 0.37902 0.96208 0.0
C221 C 0.14256 0.40615 0.96251 0.0
C222 C 0.16383 0.44225 0.96244 0.0
N223 N 0.2126 0.51537 0.96765 0.0
C224 C 0.16572 0.51282 0.96765 0.0
C225 C 0.146 0.5449 0.97286 0.0
C226 C 0.18189 0.56821 0.97623 0.0
C227 C 0.22134 0.54922 0.97291 0.0
N228 N 0.30711 0.52042 0.96114 0.0
C229 C 0.30464 0.55532 0.96624 0.0
C230 C 0.33844 0.58053 0.96275 0.0
C231 C 0.36407 0.56008 0.95513 0.0
C232 C 0.34535 0.52284 0.95466 0.0
N233 N 0.24199 0.49167 0.94584 0.0
C234 C 0.23926 0.50638 0.92239 0.0
C235 C 0.23896 0.53697 0.93027 0.0
C236 C 0.24044 0.52902 0.94193 0.0
C237 C 0.23756 0.46853 0.92663 0.0
C238 C 0.23835 0.46188 0.93824 0.0
N239 N 0.27985 0.46428 0.97709 0.0
C240 C 0.34262 0.442 0.98918 0.0
C241 C 0.31153 0.42923 0.99744 0.0
C242 C 0.26398 0.43628 0.99544 0.0
C243 C 0.2489 0.45341 0.98524 0.0
C244 C 0.32636 0.45989 0.97929 0.0
H245 H 0.2121 0.45678 0.98382 0.0
H246 H 0.35185 0.4689 0.97322 0.0
H247 H 0.24246 0.55305 0.94774 0.0
H248 H 0.23852 0.4322 0.94101 0.0
C249 C 0.26268 0.38541 0.95933 0.0
C250 C 0.36944 0.48923 0.94973 0.0
C251 C 0.13903 0.47956 0.96345 0.0
C252 C 0.26507 0.56624 0.97216 0.0
H253 H 0.40609 0.41261 0.94494 0.0
H254 H 0.34943 0.35531 0.95098 0.0
H255 H 0.17359 0.34784 0.96156 0.0
H256 H 0.10572 0.40011 0.96282 0.0
H257 H 0.10953 0.55101 0.97405 0.0
H258 H 0.17935 0.59667 0.98004 0.0
H259 H 0.34253 0.61078 0.96501 0.0
H260 H 0.39409 0.57104 0.95069 0.0
H261 H 0.2397 0.5668 0.92745 0.0
H262 H 0.23644 0.44388 0.92097 0.0
H263 H 0.37962 0.43829 0.99034 0.0
H264 H 0.23836 0.42745 1.00157 0.0
C265 C 0.5446 0.78849 0.22385 0.0
C266 C 0.50917 0.78713 0.2317 0.0
C267 C 0.47175 0.76962 0.22649 0.0
C268 C 0.48621 0.76104 0.21575 0.0
N269 N 0.53036 0.77198 0.21398 0.0
Co270 Co 0.56358 0.76785 0.19946 0.0
N271 N 0.50561 0.76239 0.19054 0.0
C272 C 0.46441 0.75146 0.19481 0.0
C273 C 0.43062 0.74842 0.18667 0.0
C274 C 0.45219 0.75756 0.17669 0.0
C275 C 0.49811 0.76575 0.17927 0.0
N276 N 0.59805 0.76533 0.18501 0.0
C277 C 0.5831 0.76998 0.17427 0.0
C278 C 0.61932 0.76482 0.16672 0.0
C279 C 0.65793 0.75623 0.17297 0.0
C280 C 0.6433 0.75661 0.18393 0.0
N281 N 0.62178 0.77243 0.20838 0.0
C282 C 0.66433 0.76236 0.20476 0.0
C283 C 0.69864 0.77162 0.2123 0.0
C284 C 0.67646 0.78871 0.22118 0.0
C285 C 0.62929 0.78838 0.21871 0.0
N286 N 0.56462 0.71001 0.20067 0.0
C287 C 0.53978 0.62995 0.20172 0.0
C288 C 0.54683 0.64898 0.19144 0.0
C289 C 0.55856 0.68839 0.19109 0.0
C290 C 0.54999 0.65142 0.21153 0.0
C291 C 0.56277 0.69115 0.21081 0.0
N292 N 0.55928 0.82462 0.19816 0.0
C293 C 0.59224 0.88855 0.1958 0.0
C294 C 0.54824 0.90565 0.19713 0.0
C295 C 0.51033 0.88124 0.19893 0.0
C296 C 0.51657 0.8413 0.1995 0.0
C297 C 0.59695 0.84786 0.19622 0.0
H298 H 0.48641 0.82403 0.20123 0.0
H299 H 0.63088 0.83522 0.1951 0.0
H300 H 0.55958 0.70162 0.18293 0.0
H301 H 0.5686 0.70704 0.21852 0.0
C302 C 0.4577 0.75049 0.20657 0.0
C303 C 0.59233 0.80291 0.22624 0.0
C304 C 0.53434 0.77425 0.17083 0.0
C305 C 0.67189 0.75423 0.1934 0.0
H306 H 0.51028 0.79776 0.24026 0.0
H307 H 0.43743 0.76551 0.22997 0.0
H308 H 0.39431 0.74156 0.18787 0.0
H309 H 0.43613 0.75785 0.16847 0.0
H310 H 0.61777 0.7661 0.15764 0.0
H311 H 0.6927 0.75111 0.16988 0.0
H312 H 0.73575 0.76928 0.21109 0.0
H313 H 0.69395 0.8011 0.22837 0.0
H314 H 0.54156 0.63393 0.18354 0.0
H315 H 0.54595 0.63832 0.21973 0.0
H316 H 0.62263 0.90642 0.19441 0.0
H317 H 0.47592 0.89299 0.20025 0.0
C318 C 0.15812 0.08096 0.45095 0.0
C319 C 0.13784 0.11644 0.44852 0.0
C320 C 0.16875 0.14461 0.45191 0.0
C321 C 0.20604 0.12489 0.45627 0.0
N322 N 0.20056 0.08617 0.45569 0.0
Co323 Co 0.24454 0.0475 0.46181 0.0
N324 N 0.2963 0.08534 0.46241 0.0
C325 C 0.29188 0.12414 0.46228 0.0
C326 C 0.33414 0.14277 0.46249 0.0
C327 C 0.36692 0.11375 0.46277 0.0
C328 C 0.34285 0.0789 0.46266 0.0
N329 N 0.28864 1.00878 0.46802 0.0
C330 C 0.33569 1.0082 0.46773 0.0
C331 C 0.35243 0.97356 0.47213 0.0
C332 C 0.31481 0.95274 0.47564 0.0
C333 C 0.27712 0.97505 0.47299 0.0
N334 N 0.19404 1.00869 0.46117 0.0
C335 C 0.19347 0.97384 0.46627 0.0
C336 C 0.15781 0.95054 0.46269 0.0
C337 C 0.13416 0.97227 0.45499 0.0
C338 C 0.15599 1.00832 0.45456 0.0
N339 N 0.26192 0.03384 0.44614 0.0
C340 C 0.26377 0.01933 0.42262 0.0
C341 C 0.2594 0.98887 0.43044 0.0
C342 C 0.25902 0.99665 0.44212 0.0
C343 C 0.2703 0.05677 0.42701 0.0
C344 C 0.26949 0.06328 0.43865 0.0
N345 N 0.22457 0.06325 0.47727 0.0
C346 C 0.16231 0.08764 0.48913 0.0
C347 C 0.19349 0.09919 0.49756 0.0
C348 C 0.24078 0.09052 0.49575 0.0
C349 C 0.25558 0.07293 0.48557 0.0
C350 C 0.17823 0.06936 0.47928 0.0
H351 H 0.29225 0.0682 0.48429 0.0
H352 H 0.15262 0.06143 0.47309 0.0
H353 H 0.25414 0.97276 0.44784 0.0
H354 H 0.27216 0.09285 0.44149 0.0
C355 C 0.24874 0.14104 0.4597 0.0
C356 C 0.13452 0.0432 0.44971 0.0
C357 C 0.36482 0.04032 0.4636 0.0
C358 C 0.23207 0.9607 0.47217 0.0
H359 H 0.10401 0.12142 0.44484 0.0
H360 H 0.16477 0.17569 0.45111 0.0
H361 H 0.34054 0.17365 0.46196 0.0
H362 H 0.40416 0.11773 0.463 0.0
H363 H 0.38768 0.96317 0.4725 0.0
H364 H 0.31485 0.92335 0.47883 0.0
H365 H 0.1512 0.92062 0.46493 0.0
H366 H 0.10328 0.96309 0.45052 0.0
H367 H 0.25538 0.9592 0.4276 0.0
H368 H 0.27352 0.08159 0.42151 0.0
H369 H 0.12545 0.09261 0.49014 0.0
H370 H 0.26646 0.0984 0.502 0.0
C371 C 0.96605 0.74124 0.72569 0.0
C372 C 0.00325 0.73909 0.73309 0.0
C373 C 0.04032 0.75699 0.72796 0.0
C374 C 0.02442 0.76869 0.71762 0.0
N375 N 0.97967 0.75911 0.71597 0.0
Co376 Co 0.9454 0.76565 0.70161 0.0
N377 N 0.0028 0.77162 0.69255 0.0
C378 C 0.0446 0.78119 0.69677 0.0
C379 C 0.07792 0.78449 0.68857 0.0
C380 C 0.0554 0.77696 0.67858 0.0
C381 C 0.00945 0.76931 0.68123 0.0
N382 N 0.90997 0.77126 0.68736 0.0
C383 C 0.92399 0.76833 0.67648 0.0
C384 C 0.88714 0.77488 0.6692 0.0
C385 C 0.84924 0.783 0.67573 0.0
C386 C 0.86479 0.78075 0.68662 0.0
N387 N 0.88789 0.76022 0.71063 0.0
C388 C 0.84558 0.77253 0.70748 0.0
C389 C 0.81223 0.76565 0.71546 0.0
C390 C 0.83497 0.74773 0.72415 0.0
C391 C 0.88109 0.74427 0.72094 0.0
N392 N 0.94496 0.82298 0.70373 0.0
C393 C 0.9626 0.90362 0.70681 0.0
C394 C 0.9632 0.88642 0.6961 0.0
C395 C 0.95427 0.84662 0.69475 0.0
C396 C 0.95026 0.87948 0.71589 0.0
C397 C 0.94155 0.8395 0.71418 0.0
N398 N 0.94849 0.70914 0.69949 0.0
C399 C 0.91364 0.64603 0.6968 0.0
C400 C 0.95725 0.62803 0.69789 0.0
C401 C 0.99597 0.65164 0.69966 0.0
C402 C 0.99087 0.69163 0.7005 0.0
C403 C 0.91008 0.68675 0.69751 0.0
H404 H 0.02161 0.70821 0.70224 0.0
H405 H 0.8764 0.70009 0.69663 0.0
H406 H 0.95684 0.83485 0.68639 0.0
H407 H 0.93374 0.82168 0.72139 0.0
C408 C 0.05227 0.78015 0.70847 0.0
C409 C 0.91779 0.7277 0.72813 0.0
C410 C 0.97239 0.76334 0.67279 0.0
C411 C 0.83708 0.78245 0.69627 0.0
H412 H 0.00433 0.72527 0.74122 0.0
H413 H 0.07551 0.75877 0.73111 0.0
H414 H 0.11451 0.79043 0.68972 0.0
H415 H 0.07082 0.77746 0.6703 0.0
H416 H 0.88767 0.77456 0.6601 0.0
H417 H 0.8143 0.78895 0.67287 0.0
H418 H 0.77536 0.77116 0.71482 0.0
H419 H 0.81927 0.73818 0.73192 0.0
H420 H 0.97101 0.9035 0.68872 0.0
H421 H 0.94896 0.89098 0.72436 0.0
H422 H 0.88266 0.62884 0.69542 0.0
H423 H 0.03016 0.63923 0.70081 0.0
C424 C 0.84423 0.58455 0.82435 0.0
C425 C 0.86346 0.6209 0.8263 0.0
C426 C 0.83138 0.64772 0.82278 0.0
C427 C 0.79436 0.6264 0.81887 0.0
N428 N 0.80103 0.58792 0.81989 0.0
Co429 Co 0.75746 0.54734 0.81455 0.0
N430 N 0.70471 0.58413 0.81357 0.0
C431 C 0.70836 0.62297 0.81308 0.0
C432 C 0.6658 0.64088 0.8126 0.0
C433 C 0.63357 0.61137 0.81278 0.0
C434 C 0.65824 0.57695 0.81341 0.0
N435 N 0.71362 0.50668 0.80915 0.0
C436 C 0.66656 0.50536 0.80958 0.0
C437 C 0.65029 0.46948 0.8059 0.0
C438 C 0.68812 0.44853 0.80264 0.0
C439 C 0.72545 0.47209 0.80474 0.0
N440 N 0.80904 0.50954 0.81551 0.0
C441 C 0.81021 0.47438 0.81055 0.0
C442 C 0.84939 0.45372 0.81301 0.0
C443 C 0.87491 0.4775 0.81981 0.0
C444 C 0.84988 0.51182 0.82107 0.0
N445 N 0.74135 0.53659 0.83051 0.0
C446 C 0.73386 0.52794 0.85425 0.0
C447 C 0.74244 0.49582 0.84718 0.0
C448 C 0.74568 0.50069 0.83536 0.0
C449 C 0.7282 0.56401 0.84898 0.0
C450 C 0.73181 0.56762 0.83732 0.0
N451 N 0.77605 0.56067 0.7988 0.0
C452 C 0.83745 0.58498 0.78665 0.0
C453 C 0.80572 0.59657 0.7784 0.0
C454 C 0.75858 0.58753 0.78036 0.0
C455 C 0.74448 0.56992 0.79059 0.0
C456 C 0.8222 0.56675 0.79655 0.0
H457 H 0.70791 0.56508 0.79201 0.0
H458 H 0.84821 0.55922 0.80262 0.0
H459 H 0.75294 0.47564 0.8302 0.0
H460 H 0.72885 0.59633 0.83391 0.0
C461 C 0.75119 0.64106 0.81534 0.0
C462 C 0.87 0.54785 0.82563 0.0
C463 C 0.63678 0.53796 0.81304 0.0
C464 C 0.77105 0.45918 0.8053 0.0
H465 H 0.89756 0.62726 0.82966 0.0
H466 H 0.83452 0.67898 0.82315 0.0
H467 H 0.65887 0.67172 0.81264 0.0
H468 H 0.59626 0.61473 0.81247 0.0
H469 H 0.61519 0.45856 0.80581 0.0
H470 H 0.68853 0.41857 0.7999 0.0
H471 H 0.85786 0.42446 0.81042 0.0
H472 H 0.90892 0.47059 0.82307 0.0
H473 H 0.74665 0.46716 0.85073 0.0
H474 H 0.72251 0.59008 0.85387 0.0
H475 H 0.87423 0.59011 0.78552 0.0
H476 H 0.73247 0.59533 0.77422 0.0
C477 C 0.47063 0.28854 0.05151 0.0
C478 C 0.50816 0.28909 0.0442 0.0
C479 C 0.5445 0.27125 0.04965 0.0
C480 C 0.52787 0.2612 0.06006 0.0
N481 N 0.48336 0.27173 0.06146 0.0
Co482 Co 0.4484 0.26788 0.0758 0.0
N483 N 0.50526 0.26179 0.08509 0.0
C484 C 0.54676 0.2506 0.08108 0.0
C485 C 0.5796 0.24714 0.08941 0.0
C486 C 0.55707 0.25626 0.09926 0.0
C487 C 0.5116 0.26496 0.0964 0.0
N488 N 0.41227 0.26562 0.09001 0.0
C489 C 0.42612 0.26994 0.10088 0.0
C490 C 0.38879 0.26567 0.10814 0.0
C491 C 0.35071 0.2576 0.10161 0.0
C492 C 0.36666 0.25758 0.09075 0.0
N493 N 0.39141 0.27301 0.06654 0.0
C494 C 0.34859 0.26206 0.06972 0.0
C495 C 0.31578 0.2681 0.06153 0.0
C496 C 0.33939 0.28407 0.05268 0.0
C497 C 0.38546 0.28731 0.05599 0.0
N498 N 0.44633 0.21021 0.07446 0.0
C499 C 0.46936 0.13006 0.07334 0.0
C500 C 0.46192 0.14896 0.08363 0.0
C501 C 0.45104 0.18846 0.08402 0.0
C502 C 0.46045 0.15169 0.06353 0.0
C503 C 0.44856 0.19152 0.06427 0.0
N504 N 0.45348 0.32451 0.07724 0.0
C505 C 0.42167 0.38859 0.07995 0.0
C506 C 0.46624 0.40539 0.07913 0.0
C507 C 0.50378 0.38038 0.07747 0.0
C508 C 0.49665 0.34071 0.07638 0.0
C509 C 0.41609 0.34804 0.07907 0.0
H510 H 0.52672 0.3232 0.07485 0.0
H511 H 0.38175 0.33572 0.0798 0.0
H512 H 0.4496 0.20161 0.0922 0.0
H513 H 0.44373 0.20758 0.05658 0.0
C514 C 0.55493 0.25018 0.0694 0.0
C515 C 0.42282 0.30244 0.04875 0.0
C516 C 0.47468 0.27321 0.10467 0.0
C517 C 0.33927 0.25459 0.08105 0.0
H518 H 0.50995 0.30179 0.03593 0.0
H519 H 0.57973 0.26839 0.04663 0.0
H520 H 0.61593 0.24004 0.08843 0.0
H521 H 0.57219 0.2562 0.10759 0.0
H522 H 0.3892 0.26718 0.11723 0.0
H523 H 0.31548 0.25295 0.10445 0.0
H524 H 0.27871 0.26345 0.06214 0.0
H525 H 0.32426 0.29259 0.04473 0.0
H526 H 0.46631 0.13371 0.09151 0.0
H527 H 0.46489 0.13862 0.05532 0.0
H528 H 0.39126 0.40647 0.08116 0.0
H529 H 0.53908 0.39106 0.07713 0.0
C530 C 0.65728 0.94777 0.32424 0.0
C531 C 0.63776 0.91185 0.32658 0.0
C532 C 0.67026 0.88441 0.32374 0.0
C533 C 0.70775 0.90498 0.31982 0.0
N534 N 0.7009 0.94358 0.32017 0.0
Co535 Co 0.74493 0.98315 0.3146 0.0
N536 N 0.79795 0.9465 0.31477 0.0
C537 C 0.79464 0.9076 0.31501 0.0
C538 C 0.83735 0.8899 0.31524 0.0
C539 C 0.86933 0.9196 0.31513 0.0
C540 C 0.84437 0.95394 0.31489 0.0
N541 N 0.78912 0.02277 0.30885 0.0
C542 C 0.83605 0.02451 0.30968 0.0
C543 C 0.85248 0.05973 0.30558 0.0
C544 C 0.81499 0.07961 0.30161 0.0
C545 C 0.7776 0.05625 0.30375 0.0
N546 N 0.69325 0.02095 0.31456 0.0
C547 C 0.69234 0.05497 0.30902 0.0
C548 C 0.65305 0.0761 0.311 0.0
C549 C 0.62723 0.05381 0.31811 0.0
C550 C 0.65222 0.01984 0.32002 0.0
N551 N 0.75898 0.99746 0.33046 0.0
C552 C 0.76015 1.01253 0.35401 0.0
C553 C 0.75494 0.0427 0.3461 0.0
C554 C 0.75479 0.03464 0.33442 0.0
C555 C 0.76707 0.97509 0.34967 0.0
C556 C 0.76651 0.9683 0.33805 0.0
N557 N 0.72818 0.96641 0.29893 0.0
C558 C 0.6673 0.94333 0.28628 0.0
C559 C 0.69945 0.92507 0.27922 0.0
C560 C 0.74679 0.93037 0.28191 0.0
C561 C 0.76036 0.9516 0.29161 0.0
C562 C 0.68213 0.96329 0.296 0.0
H563 H 0.79693 0.95432 0.29344 0.0
H564 H 0.65552 0.97414 0.30146 0.0
H565 H 0.7495 0.05829 0.32863 0.0
H566 H 0.76981 0.93872 0.33529 0.0
C567 C 0.75157 0.88977 0.31706 0.0
C568 C 0.63191 0.98476 0.32503 0.0
C569 C 0.86561 0.99288 0.31392 0.0
C570 C 0.7319 0.06911 0.30375 0.0
H571 H 0.60339 0.90613 0.32983 0.0
H572 H 0.66718 0.85328 0.32463 0.0
H573 H 0.84447 0.85917 0.31588 0.0
H574 H 0.90668 0.91639 0.31519 0.0
H575 H 0.88743 0.07101 0.30568 0.0
H576 H 0.81471 0.10898 0.29841 0.0
H577 H 0.64472 0.10479 0.30792 0.0
H578 H 0.59306 0.06128 0.32115 0.0
H579 H 0.75035 0.07236 0.34888 0.0
H580 H 0.77068 0.95043 0.35522 0.0
H581 H 0.63045 0.94024 0.28471 0.0
H582 H 0.77333 0.91748 0.27668 0.0
C583 C 0.03398 0.24235 0.55096 0.0
C584 C 0.99666 0.24087 0.54357 0.0
C585 C 0.96016 0.25929 0.54877 0.0
C586 C 0.9765 0.27061 0.55912 0.0
N587 N 0.02098 0.2603 0.56073 0.0
Co588 Co 0.05556 0.26622 0.57512 0.0
N589 N 0.99847 0.2739 0.58421 0.0
C590 C 0.95702 0.28426 0.57995 0.0
C591 C 0.92396 0.28928 0.58813 0.0
C592 C 0.94625 0.28217 0.59815 0.0
C593 C 0.99189 0.27313 0.59555 0.0
N594 N 0.0913 0.27083 0.58938 0.0
C595 C 0.07727 0.26862 0.60027 0.0
C596 C 0.11451 0.27445 0.60752 0.0
C597 C 0.15269 0.28113 0.60097 0.0
C598 C 0.13692 0.27896 0.5901 0.0
N599 N 0.11282 0.25945 0.56605 0.0
C600 C 0.15558 0.27078 0.56922 0.0
C601 C 0.18862 0.26361 0.56119 0.0
C602 C 0.16522 0.24654 0.55244 0.0
C603 C 0.11903 0.24382 0.55566 0.0
N604 N 0.05805 0.32358 0.57305 0.0
C605 C 0.04035 0.40427 0.57017 0.0
C606 C 0.04151 0.38718 0.58086 0.0
C607 C 0.05044 0.3474 0.58211 0.0
C608 C 0.05138 0.38004 0.56098 0.0
C609 C 0.06024 0.34007 0.56259 0.0
N610 N 0.0502 0.20976 0.5772 0.0
C611 C 0.08208 0.14578 0.58014 0.0
C612 C 0.03753 0.12882 0.57938 0.0
C613 C 0.99993 0.15379 0.5777 0.0
C614 C 0.00701 0.19345 0.57647 0.0
C615 C 0.0876 0.18632 0.57913 0.0
H616 H 0.97691 0.21082 0.57484 0.0
H617 H 0.12198 0.19866 0.57978 0.0
H618 H 0.04891 0.33577 0.59048 0.0
H619 H 0.06692 0.3222 0.55531 0.0
C620 C 0.94921 0.28288 0.56827 0.0
C621 C 0.08183 0.22819 0.54841 0.0
C622 C 0.02864 0.26685 0.60407 0.0
C623 C 0.16455 0.28019 0.58045 0.0
H624 H 0.99516 0.22722 0.5354 0.0
H625 H 0.92503 0.26179 0.54562 0.0
H626 H 0.88766 0.29616 0.58696 0.0
H627 H 0.9308 0.28379 0.60641 0.0
H628 H 0.11393 0.27511 0.61661 0.0
H629 H 0.18784 0.28647 0.6038 0.0
H630 H 0.22566 0.26843 0.56182 0.0
H631 H 0.18054 0.2371 0.5446 0.0
H632 H 0.0349 0.40431 0.58832 0.0
H633 H 0.05143 0.39143 0.55251 0.0
H634 H 0.11258 0.12803 0.58137 0.0
H635 H 0.96463 0.14309 0.57741 0.0
C636 C 0.84659 0.94619 0.45267 0.0
C637 C 0.86821 0.91091 0.45067 0.0
C638 C 0.83712 0.88245 0.45362 0.0
C639 C 0.79833 0.90181 0.45727 0.0
N640 N 0.80301 0.94061 0.45665 0.0
Co641 Co 0.75653 0.97889 0.46178 0.0
N642 N 0.70566 0.93981 0.46197 0.0
C643 C 0.71136 0.9011 0.46206 0.0
C644 C 0.66986 0.88137 0.46226 0.0
C645 C 0.63606 0.90951 0.46234 0.0
C646 C 0.65882 0.94498 0.46219 0.0
N647 N 0.71008 0.01732 0.46707 0.0
C648 C 0.6631 0.01611 0.46678 0.0
C649 C 0.64415 0.04949 0.47146 0.0
C650 C 0.68052 0.07216 0.47485 0.0
C651 C 0.71948 0.05157 0.47205 0.0
N652 N 0.80599 0.01892 0.46156 0.0
C653 C 0.8046 0.05379 0.46669 0.0
C654 C 0.84265 0.07637 0.46454 0.0
C655 C 0.87008 0.05421 0.45775 0.0
C656 C 0.84729 0.01888 0.45621 0.0
N657 N 0.74232 0.99042 0.44574 0.0
C658 C 0.74627 1.00017 0.42206 0.0
C659 C 0.74862 0.0323 0.42938 0.0
C660 C 0.74646 0.02682 0.44119 0.0
C661 C 0.73796 0.96385 0.42691 0.0
C662 C 0.73595 0.95966 0.43859 0.0
N663 N 0.77349 0.96479 0.47763 0.0
C664 C 0.83477 0.94348 0.49035 0.0
C665 C 0.80299 0.92452 0.49736 0.0
C666 C 0.75557 0.929 0.49468 0.0
C667 C 0.74161 0.94972 0.48498 0.0
C668 C 0.81953 0.96303 0.48062 0.0
H669 H 0.70499 0.95164 0.48313 0.0
H670 H 0.8458 0.97453 0.47517 0.0
H671 H 0.75068 0.05173 0.44661 0.0
H672 H 0.73234 0.93068 0.44177 0.0
C673 C 0.75542 0.88502 0.46013 0.0
C674 C 0.86999 0.98408 0.45168 0.0
C675 C 0.63531 0.98291 0.46297 0.0
C676 C 0.76423 0.06675 0.47187 0.0
H677 H 0.90305 0.90633 0.44757 0.0
H678 H 0.84201 0.8514 0.453 0.0
H679 H 0.66466 0.85029 0.46195 0.0
H680 H 0.59898 0.90455 0.46253 0.0
H681 H 0.60784 0.05676 0.47237 0.0
H682 H 0.67875 0.10102 0.47843 0.0
H683 H 0.84917 0.1058 0.46732 0.0
H684 H 0.90392 0.06267 0.45468 0.0
H685 H 0.75472 0.06109 0.42606 0.0
H686 H 0.73503 0.93818 0.42168 0.0
H687 H 0.87168 0.9412 0.49194 0.0
H688 H 0.72927 0.91571 0.4999 0.0
C689 C 0.0347 0.2891 0.72509 0.0
C690 C 0.99696 0.28955 0.73233 0.0
C691 C 0.96105 0.27096 0.72688 0.0
C692 C 0.97814 0.26056 0.71654 0.0
N693 N 0.02255 0.27155 0.71518 0.0
Co694 Co 0.05794 0.26748 0.70089 0.0
N695 N 1.00145 0.25988 0.69151 0.0
C696 C 0.95997 0.24855 0.69554 0.0
C697 C 0.92751 0.24336 0.68719 0.0
C698 C 0.95023 0.25136 0.67731 0.0
C699 C 0.99549 0.26115 0.68015 0.0
N700 N 0.09455 0.26503 0.68674 0.0
C701 C 0.08102 0.26803 0.67581 0.0
C702 C 0.1189 0.26439 0.66867 0.0
C703 C 0.15692 0.25793 0.67532 0.0
C704 C 0.14047 0.2582 0.68613 0.0
N705 N 0.11458 0.2741 0.71025 0.0
C706 C 0.15772 0.26378 0.70717 0.0
C707 C 0.19016 0.27073 0.7154 0.0
C708 C 0.16598 0.28667 0.72417 0.0
C709 C 0.11995 0.28899 0.72076 0.0
N710 N 0.06128 0.20991 0.70244 0.0
C711 C 0.04843 0.12814 0.70396 0.0
C712 C 0.05083 0.14709 0.69356 0.0
C713 C 0.05698 0.18734 0.69299 0.0
C714 C 0.05407 0.15123 0.71365 0.0
C715 C 0.0611 0.19183 0.71271 0.0
N716 N 0.05189 0.32399 0.69925 0.0
C717 C 0.08315 0.38837 0.69659 0.0
C718 C 0.03841 0.40478 0.69728 0.0
C719 C 1.00102 0.37941 0.69884 0.0
C720 C 0.00849 0.33977 0.69996 0.0
C721 C 0.08909 0.34791 0.69751 0.0
H722 H 0.97856 0.32194 0.70142 0.0
H723 H 0.12361 0.33599 0.69689 0.0
H724 H 0.05615 0.20013 0.68477 0.0
H725 H 0.06504 0.20868 0.72032 0.0
C726 C 0.95153 0.24877 0.70719 0.0
C727 C 0.08215 0.3039 0.72789 0.0
C728 C 0.03255 0.2682 0.6718 0.0
C729 C 0.16756 0.25615 0.69588 0.0
H730 H 0.99476 0.3027 0.74056 0.0
H731 H 0.92577 0.26783 0.72985 0.0
H732 H 0.89133 0.23562 0.68817 0.0
H733 H 0.93541 0.24971 0.66896 0.0
H734 H 0.11883 0.26495 0.65958 0.0
H735 H 0.1924 0.25391 0.67259 0.0
H736 H 0.22734 0.26673 0.71487 0.0
H737 H 0.18069 0.29582 0.73212 0.0
H738 H 0.04636 0.13102 0.6858 0.0
H739 H 0.05321 0.13806 0.7219 0.0
H740 H 0.11348 0.4065 0.69547 0.0
H741 H 0.96563 0.38978 0.6991 0.0
C742 C 0.66146 0.58284 0.95103 0.0
C743 C 0.64278 0.61899 0.94864 0.0
C744 C 0.67533 0.64608 0.95181 0.0
C745 C 0.71203 0.62511 0.95596 0.0
N746 N 0.7047 0.58656 0.95543 0.0
Co747 Co 0.74775 0.54645 0.96117 0.0
N748 N 0.80111 0.58285 0.96153 0.0
C749 C 0.79822 0.62176 0.96147 0.0
C750 C 0.84111 0.63931 0.96163 0.0
C751 C 0.87276 0.60949 0.96181 0.0
C752 C 0.84743 0.57525 0.96169 0.0
N753 N 0.79098 0.50634 0.96703 0.0
C754 C 0.83798 0.50446 0.9665 0.0
C755 C 0.85368 0.46902 0.97057 0.0
C756 C 0.81559 0.44907 0.9742 0.0
C757 C 0.77862 0.47266 0.97191 0.0
N758 N 0.69551 0.50904 0.96076 0.0
C759 C 0.69379 0.47473 0.96614 0.0
C760 C 0.6543 0.45399 0.9639 0.0
C761 C 0.62921 0.47686 0.95679 0.0
C762 C 0.65478 0.51074 0.95514 0.0
N763 N 0.76303 0.53271 0.94538 0.0
C764 C 0.76493 0.51771 0.92192 0.0
C765 C 0.76197 0.48725 0.92976 0.0
C766 C 0.76078 0.49536 0.94143 0.0
C767 C 0.76985 0.55539 0.92619 0.0
C768 C 0.76951 0.56213 0.93781 0.0
N769 N 0.7299 0.56234 0.97679 0.0
C770 C 0.66898 0.58725 0.98896 0.0
C771 C 0.70093 0.59871 0.9972 0.0
C772 C 0.74799 0.58966 0.99517 0.0
C773 C 0.76175 0.57184 0.98492 0.0
C774 C 0.68388 0.56884 0.97906 0.0
H775 H 0.79824 0.56678 0.98346 0.0
H776 H 0.6577 0.56118 0.97303 0.0
H777 H 0.75617 0.47159 0.94721 0.0
H778 H 0.77228 0.59174 0.94061 0.0
C779 C 0.75565 0.63991 0.95914 0.0
C780 C 0.63518 0.5462 0.95018 0.0
C781 C 0.86819 0.53617 0.96255 0.0
C782 C 0.73276 0.46007 0.97156 0.0
H783 H 0.60879 0.62508 0.9452 0.0
H784 H 0.67278 0.67727 0.95102 0.0
H785 H 0.84861 0.67004 0.96117 0.0
H786 H 0.91014 0.61254 0.96201 0.0
H787 H 0.88854 0.45768 0.97068 0.0
H788 H 0.81471 0.41957 0.97729 0.0
H789 H 0.64537 0.42522 0.96682 0.0
H790 H 0.59511 0.46977 0.95358 0.0
H791 H 0.75856 0.45755 0.9269 0.0
H792 H 0.77331 0.57982 0.92054 0.0
H793 H 0.63225 0.59245 0.99013 0.0
H794 H 0.77426 0.59744 1.00129 0.0
C795 C 0.46381 0.24215 0.22491 0.0
C796 C 0.49913 0.24332 0.23283 0.0
C797 C 0.53621 0.26187 0.22785 0.0
C798 C 0.52168 0.27123 0.21717 0.0
N799 N 0.47783 0.2597 0.21521 0.0
Co800 Co 0.44452 0.26551 0.20072 0.0
N801 N 0.5024 0.27327 0.19196 0.0
C802 C 0.54334 0.28421 0.19641 0.0
C803 C 0.57718 0.28843 0.18835 0.0
C804 C 0.55588 0.28001 0.17825 0.0
C805 C 0.51009 0.27102 0.18068 0.0
N806 N 0.41016 0.2701 0.18629 0.0
C807 C 0.42528 0.26725 0.17552 0.0
C808 C 0.38915 0.27339 0.168 0.0
C809 C 0.35034 0.28064 0.17429 0.0
C810 C 0.36482 0.27855 0.18527 0.0
N811 N 0.38634 0.25852 0.20947 0.0
C812 C 0.34358 0.26833 0.20591 0.0
C813 C 0.3094 0.25754 0.21326 0.0
C814 C 0.33191 0.23981 0.22199 0.0
C815 C 0.37911 0.24134 0.21961 0.0
N816 N 0.44195 0.32287 0.20284 0.0
C817 C 0.46119 0.40329 0.2059 0.0
C818 C 0.45944 0.38644 0.19516 0.0
C819 C 0.44998 0.3467 0.19383 0.0
C820 C 0.45014 0.37905 0.21505 0.0
C821 C 0.44004 0.33929 0.21334 0.0
N822 N 0.4502 0.20907 0.19859 0.0
C823 C 0.41919 0.14482 0.19535 0.0
C824 C 0.46374 0.12823 0.19646 0.0
C825 C 0.50092 0.15353 0.19843 0.0
C826 C 0.49339 0.19311 0.19965 0.0
C827 C 0.41324 0.18533 0.19635 0.0
H828 H 0.52315 0.21073 0.20153 0.0
H829 H 0.37888 0.1974 0.19544 0.0
H830 H 0.45199 0.33501 0.18545 0.0
H831 H 0.4328 0.32148 0.22058 0.0
C832 C 0.54997 0.2836 0.20818 0.0
C833 C 0.41628 0.22709 0.22714 0.0
C834 C 0.474 0.26297 0.17212 0.0
C835 C 0.336 0.27855 0.19469 0.0
H836 H 0.49812 0.232 0.2413 0.0
H837 H 0.57034 0.26633 0.23144 0.0
H838 H 0.61339 0.29546 0.18968 0.0
H839 H 0.57203 0.28066 0.17005 0.0
H840 H 0.39082 0.27338 0.15891 0.0
H841 H 0.31552 0.28578 0.17122 0.0
H842 H 0.27225 0.25957 0.21204 0.0
H843 H 0.31472 0.22639 0.22902 0.0
H844 H 0.46784 0.40336 0.18778 0.0
H845 H 0.44999 0.39054 0.22352 0.0
H846 H 0.389 0.1268 0.19388 0.0
H847 H 0.53625 0.14316 0.19898 0.0
H848 H 0.92981 0.01791 0.29849 0.0
H849 H 0.91749 0.98083 0.33289 0.0
H850 H 0.99943 0.99732 0.33618 0.0
H851 H 0.07469 0.02415 0.32925 0.0
H852 H 0.08224 0.06915 0.29557 0.0
H853 H 1.00143 0.05023 0.2922 0.0
C854 C 0.94473 1.01418 0.30679 0.0
C855 C 0.917 0.99913 0.31552 0.0
C856 C 0.99077 0.0263 0.30882 0.0
C857 C 0.93777 0.99271 0.32605 0.0
C858 C 0.98451 1.00256 0.32796 0.0
C859 C 0.05803 0.03086 0.32131 0.0
C860 C 0.08407 0.04889 0.31274 0.0
C861 C 0.0112 0.02007 0.31946 0.0
C862 C 0.06254 0.05636 0.30237 0.0
C863 C 0.01658 0.04493 0.30039 0.0
H864 H 0.01053 0.58537 0.55974 0.0
H865 H 0.91451 0.57272 0.58725 0.0
H866 H 0.93216 0.50374 0.5884 0.0
H867 H 0.97619 0.44678 0.58213 0.0
H868 H 0.0739 0.45815 0.55492 0.0
H869 H 0.05376 0.52679 0.55304 0.0
C870 C 0.99304 0.56743 0.56589 0.0
C871 C 0.96126 0.58482 0.57345 0.0
C872 C 0.00381 0.52718 0.56661 0.0
C873 C 0.93943 0.56071 0.5814 0.0
C874 C 0.9495 0.52101 0.58207 0.0
C875 C 0.9936 0.46414 0.57583 0.0
C876 C 0.02706 0.44661 0.56875 0.0
C877 C 0.98209 0.50394 0.57484 0.0
C878 C 0.04788 0.47012 0.56047 0.0
C879 C 0.03648 0.50971 0.55942 0.0
H880 H 0.57291 0.51025 0.79777 0.0
H881 H 0.58427 0.55379 0.83161 0.0
H882 H 0.50205 0.5386 0.83487 0.0
H883 H 0.42676 0.51111 0.82812 0.0
H884 H 0.41921 0.46103 0.79499 0.0
H885 H 0.50052 0.4783 0.79162 0.0
C886 C 0.55766 0.51575 0.80595 0.0
C887 C 0.58524 0.53224 0.81454 0.0
C888 C 0.51122 0.50469 0.80796 0.0
C889 C 0.56411 0.54082 0.82489 0.0
C890 C 0.51718 0.53173 0.82678 0.0
C891 C 0.44347 0.50302 0.8203 0.0
C892 C 0.41732 0.48386 0.81191 0.0
C893 C 0.49053 0.51302 0.81845 0.0
C894 C 0.43894 0.47466 0.80168 0.0
C895 C 0.48523 0.48511 0.7997 0.0
H896 H 0.45169 0.06828 0.05862 0.0
H897 H 0.53404 0.09959 0.08763 0.0
H898 H 0.56375 0.03397 0.0888 0.0
H899 H 0.56585 0.96662 0.08211 0.0
H900 H 0.48627 0.93402 0.05286 0.0
H901 H 0.4575 1.00058 0.05117 0.0
C902 C 0.47638 0.06091 0.06515 0.0
C903 C 0.48925 0.08936 0.0732 0.0
C904 C 0.49432 0.02249 0.06575 0.0
C905 C 0.52177 0.07862 0.08152 0.0
C906 C 0.53936 0.04088 0.08216 0.0
C907 C 0.54217 0.9739 0.07535 0.0
C908 C 0.52831 0.94476 0.06767 0.0
C909 C 0.52554 1.01238 0.07443 0.0
C910 C 0.49813 0.95551 0.05887 0.0
C911 C 0.48129 0.99371 0.05794 0.0
H912 H 0.07824 0.50779 0.94778 0.0
H913 H 0.08485 0.4604 0.98119 0.0
H914 H 0.00358 0.47793 0.98437 0.0
H915 H 0.93175 0.50977 0.97801 0.0
H916 H 0.92081 0.54971 0.94385 0.0
H917 H 0.00302 0.53426 0.94075 0.0
C918 C 0.06132 0.50031 0.95562 0.0
C919 C 0.0872 0.48199 0.96417 0.0
C920 C 0.01423 0.51031 0.95735 0.0
C921 C 0.0653 0.47348 0.97441 0.0
C922 C 0.01905 0.48407 0.97627 0.0
C923 C 0.94701 0.51426 0.96979 0.0
C924 C 0.9196 0.52987 0.96107 0.0
C925 C 0.99334 0.50294 0.96787 0.0
C926 C 0.94084 0.53737 0.95067 0.0
C927 C 0.98775 0.52815 0.94887 0.0
H928 H 0.44003 0.46705 0.19293 0.0
H929 H 0.51836 0.43422 0.22228 0.0
H930 H 0.54862 0.50045 0.22394 0.0
H931 H 0.55607 0.56798 0.21646 0.0
H932 H 0.47456 0.59964 0.1874 0.0
H933 H 0.44366 0.53433 0.18622 0.0
C934 C 0.46376 0.47419 0.19971 0.0
C935 C 0.47677 0.44502 0.20743 0.0
C936 C 0.48123 0.51255 0.20062 0.0
C937 C 0.50707 0.45568 0.21624 0.0
C938 C 0.52478 0.49372 0.21715 0.0
C939 C 0.53131 0.56079 0.20991 0.0
C940 C 0.51913 0.5893 0.20185 0.0
C941 C 0.51254 0.52251 0.20932 0.0
C942 C 0.48646 0.57868 0.19352 0.0
C943 C 0.46813 0.54108 0.19287 0.0
H944 H 0.43045 0.0166 0.47888 0.0
H945 H 0.41507 0.05254 0.44445 0.0
H946 H 0.49684 0.03661 0.44087 0.0
H947 H 0.57274 1.01023 0.44753 0.0
H948 H 0.58342 0.96655 0.48131 0.0
H949 H 0.50291 0.98525 0.48499 0.0
C950 C 0.44469 0.0202 0.47052 0.0
C951 C 0.41615 0.03473 0.46185 0.0
C952 C 0.49067 1.00846 0.46834 0.0
C953 C 0.43602 0.04107 0.45124 0.0
C954 C 0.48265 0.03153 0.44916 0.0
C955 C 0.55684 1.00384 0.45557 0.0
C956 C 0.58365 0.9862 0.46408 0.0
C957 C 0.51015 1.01448 0.4576 0.0
C958 C 0.56311 0.97909 0.47457 0.0
C959 C 0.51732 0.99035 0.47671 0.0
H960 H 0.98834 0.08518 0.71737 0.0
H961 H 0.09045 0.07274 0.69116 0.0
H962 H 0.07379 1.00355 0.68988 0.0
H963 H 0.02887 0.94634 0.69562 0.0
H964 H 0.92545 0.95746 0.72157 0.0
H965 H 0.94447 0.02636 0.72361 0.0
C966 C 0.00738 0.06725 0.71149 0.0
C967 C 0.04055 0.08475 0.70431 0.0
C968 C 0.99724 0.02687 0.71069 0.0
C969 C 0.06441 0.06064 0.69669 0.0
C970 C 0.05492 0.02082 0.69595 0.0
C971 C 0.01003 0.9637 0.70168 0.0
C972 C 0.97528 0.94606 0.70835 0.0
C973 C 0.02095 1.00363 0.70277 0.0
C974 C 0.9525 0.96955 0.71634 0.0
C975 C 0.96326 1.00928 0.71748 0.0
H976 H 0.57411 1.01012 0.34169 0.0
H977 H 0.57617 0.96188 0.30824 0.0
H978 H 0.49689 0.98363 0.30505 0.0
H979 H 0.42973 0.02043 0.31116 0.0
H980 H 0.41907 0.05832 0.34556 0.0
H981 H 0.50039 0.0393 0.34887 0.0
C982 C 0.55626 1.00302 0.33392 0.0
C983 C 0.58054 0.9843 0.32521 0.0
C984 C 0.51036 0.01557 0.33216 0.0
C985 C 0.55775 0.97577 0.31507 0.0
C986 C 0.51287 0.98893 0.31317 0.0
C987 C 0.44527 0.02446 0.31941 0.0
C988 C 0.41872 0.04045 0.32814 0.0
C989 C 0.48955 1.00985 0.32151 0.0
C990 C 0.43912 0.04613 0.33873 0.0
C991 C 0.48515 0.03459 0.34065 0.0
H992 H 0.02344 0.94784 0.58954 0.0
H993 H 0.9037 0.95912 0.568 0.0
H994 H 0.91979 0.02839 0.56578 0.0
H995 H 0.96964 0.0847 0.56919 0.0
H996 H 0.08658 0.07496 0.5918 0.0
H997 H 0.07103 1.00574 0.59388 0.0
C998 C 1.00071 0.96554 0.58441 0.0
C999 C 0.96231 0.94822 0.57895 0.0
C1000 C 0.01023 1.00543 0.58316 0.0
C1001 C 0.93305 0.97167 0.57241 0.0
C1002 C 0.94255 1.01124 0.57105 0.0
C1003 C 0.99141 0.06795 0.57479 0.0
C1004 C 0.02929 0.08582 0.58038 0.0
C1005 C 0.98127 0.02834 0.5763 0.0
C1006 C 0.05767 0.06249 0.58723 0.0
C1007 C 0.04845 0.02279 0.58854 0.0
H1008 H 0.07259 0.51281 0.81181 0.0
H1009 H 0.08327 0.47426 0.8461 0.0
H1010 H 0.00212 0.49363 0.84944 0.0
H1011 H 0.92841 0.52306 0.84231 0.0
H1012 H 0.92581 0.57087 0.80886 0.0
H1013 H 0.00513 0.54939 0.80571 0.0
C1014 C 0.05706 0.50862 0.82003 0.0
C1015 C 0.08362 0.49229 0.82872 0.0
C1016 C 0.01274 0.52322 0.82214 0.0
C1017 C 0.06323 0.4866 0.83929 0.0
C1018 C 0.01729 0.49835 0.84123 0.0
C1019 C 0.94612 0.53013 0.83454 0.0
C1020 C 0.92152 0.54858 0.82582 0.0
C1021 C 0.99203 0.51752 0.83277 0.0
C1022 C 0.94425 0.55706 0.8157 0.0
C1023 C 0.98923 0.54407 0.81382 0.0
H1024 H 0.48249 0.58598 0.08944 0.0
H1025 H 0.59962 0.57425 0.06718 0.0
H1026 H 0.58313 0.50498 0.06504 0.0
H1027 H 0.53316 0.44899 0.06862 0.0
H1028 H 0.41861 0.45929 0.09183 0.0
H1029 H 0.435 0.52843 0.09396 0.0
C1030 C 0.50461 0.56817 0.08418 0.0
C1031 C 0.54231 0.58534 0.07847 0.0
C1032 C 0.49472 0.52837 0.08294 0.0
C1033 C 0.57083 0.56178 0.07178 0.0
C1034 C 0.56106 0.52224 0.07045 0.0
C1035 C 0.51211 0.46588 0.07435 0.0
C1036 C 0.47467 0.44828 0.0801 0.0
C1037 C 0.52277 0.50536 0.07588 0.0
C1038 C 0.44716 0.47166 0.08714 0.0
C1039 C 0.45688 0.51126 0.08848 0.0
H1040 H 0.43308 0.5136 0.96464 0.0
H1041 H 0.41892 0.47565 0.93031 0.0
H1042 H 0.5004 0.49367 0.9267 0.0
H1043 H 0.57555 0.52155 0.93366 0.0
H1044 H 0.5807 0.57054 0.96702 0.0
H1045 H 0.5012 0.55002 0.97044 0.0
C1046 C 0.44775 0.50954 0.95632 0.0
C1047 C 0.42018 0.49373 0.94771 0.0
C1048 C 0.49219 0.52357 0.95405 0.0
C1049 C 0.43968 0.48777 0.93705 0.0
C1050 C 0.48584 0.4987 0.93496 0.0
C1051 C 0.55837 0.52908 0.94147 0.0
C1052 C 0.58375 0.54745 0.9501 0.0
C1053 C 0.51216 0.51741 0.94336 0.0
C1054 C 0.56168 0.55666 0.96026 0.0
C1055 C 0.51657 0.54427 0.9623 0.0
H1056 H 0.4811 0.94731 0.18632 0.0
H1057 H 0.59839 0.96022 0.20859 0.0
H1058 H 0.58117 0.02932 0.21075 0.0
H1059 H 0.53087 0.08493 0.20709 0.0
H1060 H 0.41666 0.07367 0.1837 0.0
H1061 H 0.43329 1.00461 0.18169 0.0
C1062 C 0.50308 0.96535 0.19159 0.0
C1063 C 0.5411 0.94854 0.19728 0.0
C1064 C 0.49291 1.00513 0.1928 0.0
C1065 C 0.56938 0.9724 0.204 0.0
C1066 C 0.55921 1.01185 0.20533 0.0
C1067 C 0.50996 0.0679 0.20133 0.0
C1068 C 0.47252 0.08529 0.19551 0.0
C1069 C 0.52082 0.02843 0.19986 0.0
C1070 C 0.4452 0.06158 0.18846 0.0
C1071 C 0.45506 0.02198 0.18719 0.0
H1072 H 0.92829 1.00737 0.43484 0.0
H1073 H 0.92514 0.96793 0.46919 0.0
H1074 H 0.0037 0.99196 0.47219 0.0
H1075 H 0.07147 0.02654 0.46543 0.0
H1076 H 0.08402 0.05386 0.43029 0.0
H1077 H 0.00232 0.03505 0.42726 0.0
C1078 C 0.94571 1.0028 0.44282 0.0
C1079 C 0.92136 0.98576 0.45179 0.0
C1080 C 0.9914 0.01631 0.44445 0.0
C1081 C 0.94361 0.9805 0.46217 0.0
C1082 C 0.98809 0.99493 0.46394 0.0
C1083 C 0.0561 0.02863 0.45711 0.0
C1084 C 0.08337 0.04139 0.44808 0.0
C1085 C 0.01171 1.0137 0.45524 0.0
C1086 C 0.06338 0.04428 0.43736 0.0
C1087 C 0.01715 0.03277 0.43561 0.0
H1088 H 0.97039 0.44834 0.70745 0.0
H1089 H 0.08673 0.45875 0.68477 0.0
H1090 H 0.07092 0.52787 0.68269 0.0
H1091 H 0.02368 0.58549 0.68715 0.0
H1092 H 0.90504 0.57395 0.70894 0.0
H1093 H 0.92071 0.50458 0.71098 0.0
C1094 C 0.99198 0.46526 0.70185 0.0
C1095 C 0.02982 0.44765 0.69625 0.0
C1096 C 0.98176 0.50484 0.70037 0.0
C1097 C 0.05791 0.47108 0.68936 0.0
C1098 C 0.04854 0.5107 0.68805 0.0
C1099 C 1.00108 0.56773 0.6923 0.0
C1100 C 0.96319 0.58501 0.6979 0.0
C1101 C 0.0105 0.52787 0.69349 0.0
C1102 C 0.93402 0.56144 0.70443 0.0
C1103 C 0.94331 0.52183 0.70569 0.0
H1104 H 0.20855 0.98442 0.37132 0.0
H1105 H 0.30802 0.07621 0.36607 0.0
H1106 H 0.3244 0.0787 0.38614 0.0
H1107 H 0.30874 0.05733 0.40539 0.0
H1108 H 0.20745 0.96734 0.41122 0.0
H1109 H 0.19471 0.96114 0.39096 0.0
C1110 C 0.23412 1.00466 0.37457 0.0
C1111 C 0.25656 0.03042 0.36708 0.0
C1112 C 0.24323 1.00635 0.38633 0.0
C1113 C 0.28958 0.05645 0.37155 0.0
C1114 C 0.29914 0.05786 0.38308 0.0
C1115 C 0.28364 0.03639 0.40231 0.0
C1116 C 0.25903 1.01306 0.41005 0.0
C1117 C 0.27571 0.03344 0.39059 0.0
C1118 C 0.22752 0.98555 0.40563 0.0
C1119 C 0.21983 0.98218 0.39397 0.0
H1120 H 0.9933 0.71838 0.62111 0.0
H1121 H 0.96755 0.84056 0.61728 0.0
H1122 H 0.96965 0.84917 0.63774 0.0
H1123 H 0.97171 0.82091 0.65691 0.0
H1124 H 0.99487 0.69844 0.66085 0.0
H1125 H 1.00146 0.69089 0.64038 0.0
C1126 C 0.98952 0.74701 0.62477 0.0
C1127 C 0.98125 0.779 0.61764 0.0
C1128 C 0.98978 0.75157 0.63664 0.0
C1129 C 0.97492 0.81571 0.62255 0.0
C1130 C 0.97571 0.82054 0.63427 0.0
C1131 C 0.97906 0.79273 0.65326 0.0
C1132 C 0.98294 0.76024 0.66041 0.0
C1133 C 0.98212 0.7886 0.64143 0.0
C1134 C 0.992 0.72386 0.65556 0.0
C1135 C 0.99553 0.71956 0.64383 0.0
H1136 H 0.22105 0.54324 0.86982 0.0
H1137 H 0.32925 0.45693 0.86859 0.0
H1138 H 0.32893 0.45242 0.88897 0.0
H1139 H 0.29591 0.47004 0.9073 0.0
H1140 H 0.19017 0.55791 0.90918 0.0
H1141 H 0.1921 0.56505 0.88865 0.0
C1142 C 0.24507 0.52389 0.874 0.0
C1143 C 0.27452 0.4999 0.86747 0.0
C1144 C 0.24502 0.52147 0.88596 0.0
C1145 C 0.30529 0.47509 0.87322 0.0
C1146 C 0.30532 0.47254 0.88496 0.0
C1147 C 0.27322 0.49082 0.90324 0.0
C1148 C 0.24251 0.51305 0.90987 0.0
C1149 C 0.2748 0.49497 0.89142 0.0
C1150 C 0.21418 0.54037 0.90438 0.0
C1151 C 0.21518 0.54435 0.89259 0.0
H1152 H 0.53406 0.82148 0.11931 0.0
H1153 H 0.51167 0.69882 0.11522 0.0
H1154 H 0.50468 0.6913 0.13567 0.0
H1155 H 0.51215 0.71894 0.15498 0.0
H1156 H 0.5371 0.84133 0.15895 0.0
H1157 H 0.5355 0.84984 0.13851 0.0
C1158 C 0.5268 0.79326 0.12292 0.0
C1159 C 0.52324 0.76071 0.11573 0.0
C1160 C 0.52348 0.78915 0.13474 0.0
C1161 C 0.51429 0.72429 0.12054 0.0
C1162 C 0.51053 0.72 0.13226 0.0
C1163 C 0.51589 0.74759 0.15134 0.0
C1164 C 0.52377 0.77967 0.15852 0.0
C1165 C 0.51592 0.75209 0.13949 0.0
C1166 C 0.53003 0.8164 0.15366 0.0
C1167 C 0.52953 0.82118 0.14194 0.0
H1168 H 0.78502 0.48265 0.86929 0.0
H1169 H 0.67475 0.56721 0.86817 0.0
H1170 H 0.67488 0.57137 0.88854 0.0
H1171 H 0.70824 0.55401 0.90688 0.0
H1172 H 0.8146 0.46674 0.90869 0.0
H1173 H 0.8135 0.46032 0.88811 0.0
C1174 C 0.76051 0.50155 0.87348 0.0
C1175 C 0.73073 0.52533 0.86695 0.0
C1176 C 0.76013 0.50354 0.88545 0.0
C1177 C 0.69922 0.54942 0.87275 0.0
C1178 C 0.69899 0.55172 0.8845 0.0
C1179 C 0.7311 0.53343 0.90278 0.0
C1180 C 0.76181 0.51118 0.9094 0.0
C1181 C 0.72981 0.52955 0.89094 0.0
C1182 C 0.79058 0.48425 0.90388 0.0
C1183 C 0.79004 0.48069 0.89207 0.0
H1184 H 0.49667 0.31817 0.15636 0.0
H1185 H 0.47065 0.19595 0.16018 0.0
H1186 H 0.47197 0.18741 0.13972 0.0
H1187 H 0.4736 0.21572 0.12055 0.0
H1188 H 0.49708 0.33822 0.11663 0.0
H1189 H 0.50415 0.34575 0.13709 0.0
C1190 C 0.49267 0.28955 0.15269 0.0
C1191 C 0.48459 0.25752 0.15982 0.0
C1192 C 0.49246 0.28504 0.14083 0.0
C1193 C 0.47793 0.22083 0.15491 0.0
C1194 C 0.47826 0.21604 0.14319 0.0
C1195 C 0.48111 0.2439 0.1242 0.0
C1196 C 0.48505 0.2764 0.11706 0.0
C1197 C 0.48452 0.24801 0.13603 0.0
C1198 C 0.49422 0.31279 0.12191 0.0
C1199 C 0.49805 0.31708 0.13364 0.0
H1200 H 0.80636 0.97509 0.37119 0.0
H1201 H 0.70452 0.06453 0.36555 0.0
H1202 H 0.69331 0.07108 0.38584 0.0
H1203 H 0.70866 0.04822 0.40551 0.0
H1204 H 0.80837 0.95676 0.41054 0.0
H1205 H 0.82333 0.95405 0.39041 0.0
C1206 C 0.78141 0.99596 0.37431 0.0
C1207 C 0.7562 0.01903 0.3666 0.0
C1208 C 0.77436 0.9991 0.38606 0.0
C1209 C 0.72501 0.0465 0.37109 0.0
C1210 C 0.71821 0.05007 0.38278 0.0
C1211 C 0.73399 0.02803 0.4022 0.0
C1212 C 0.75701 1.00247 0.40965 0.0
C1213 C 0.7422 0.02615 0.3904 0.0
C1214 C 0.78963 0.97645 0.4051 0.0
C1215 C 0.79833 0.97489 0.39353 0.0
H1216 H 0.0139 0.32137 0.65512 0.0
H1217 H 0.03413 0.19927 0.66071 0.0
H1218 H 0.0319 0.1872 0.6404 0.0
H1219 H 0.03017 0.21212 0.62081 0.0
H1220 H 0.00862 0.33402 0.61516 0.0
H1221 H 0.00494 0.34546 0.6355 0.0
C1222 C 0.01684 0.29208 0.65187 0.0
C1223 C 0.02385 0.26118 0.65944 0.0
C1224 C 0.01553 0.28537 0.64009 0.0
C1225 C 0.02823 0.22343 0.65508 0.0
C1226 C 0.02723 0.21658 0.64344 0.0
C1227 C 0.02363 0.24101 0.62406 0.0
C1228 C 0.01901 0.27211 0.61645 0.0
C1229 C 0.02167 0.24736 0.63583 0.0
C1230 C 0.01148 0.30952 0.62081 0.0
C1231 C 0.00973 0.31609 0.63246 0.0
H1232 H 0.37671 0.09447 0.26379 0.0
H1233 H 0.27732 0.17937 0.27504 0.0
H1234 H 0.30503 0.22498 0.26088 0.0
H1235 H 0.35721 0.24155 0.24511 0.0
H1236 H 0.45088 0.15512 0.23227 0.0
H1237 H 0.42764 0.11059 0.24736 0.0
C1238 C 0.36101 0.12292 0.26313 0.0
C1239 C 0.32437 0.13298 0.27057 0.0
C1240 C 0.37668 0.14919 0.25469 0.0
C1241 C 0.30481 0.1702 0.26945 0.0
C1242 C 0.32099 0.1966 0.26135 0.0
C1243 C 0.37207 0.21272 0.24546 0.0
C1244 C 0.4051 0.20161 0.23726 0.0
C1245 C 0.35673 0.18648 0.25388 0.0
C1246 C 0.42526 0.16463 0.23832 0.0
C1247 C 0.41159 0.13895 0.24694 0.0
H1248 H 0.87181 0.93602 0.51361 0.0
H1249 H 0.77195 0.8514 0.50211 0.0
H1250 H 0.79904 0.80567 0.51633 0.0
H1251 H 0.85124 0.78877 0.53212 0.0
H1252 H 0.94532 0.875 0.54516 0.0
H1253 H 0.92231 0.91975 0.53011 0.0
C1254 C 0.85583 0.90762 0.51422 0.0
C1255 C 0.8193 0.89767 0.5067 0.0
C1256 C 0.87116 0.88128 0.52268 0.0
C1257 C 0.79938 0.8605 0.50778 0.0
C1258 C 0.81521 0.83404 0.5159 0.0
C1259 C 0.86613 0.81764 0.53184 0.0
C1260 C 0.8993 0.82859 0.54007 0.0
C1261 C 0.85096 0.84402 0.52344 0.0
C1262 C 0.91962 0.8656 0.53908 0.0
C1263 C 0.90609 0.89141 0.53048 0.0
H1264 H 0.1361 0.36958 0.73011 0.0
H1265 H 0.06136 0.28636 0.7501 0.0
H1266 H 0.08515 0.32015 0.76724 0.0
H1267 H 0.13036 0.37222 0.7769 0.0
H1268 H 0.21354 0.45006 0.75703 0.0
H1269 H 0.18462 0.41938 0.73978 0.0
C1270 C 0.12448 0.35907 0.73821 0.0
C1271 C 0.09458 0.3263 0.7386 0.0
C1272 C 0.14079 0.37749 0.7482 0.0
C1273 C 0.08162 0.31266 0.74931 0.0
C1274 C 0.09621 0.33163 0.75921 0.0
C1275 C 0.14208 0.38262 0.7688 0.0
C1276 C 0.17419 0.41386 0.76839 0.0
C1277 C 0.12601 0.36403 0.75881 0.0
C1278 C 0.18922 0.42619 0.75772 0.0
C1279 C 0.17243 0.40866 0.7478 0.0
H1280 H 0.64005 0.66022 0.99919 0.0
H1281 H 0.72442 0.58379 1.01923 0.0
H1282 H 0.69511 0.61444 0.03642 0.0
H1283 H 0.64503 0.66335 0.04598 0.0
H1284 H 0.56852 0.74472 1.02575 0.0
H1285 H 0.59386 0.71152 1.00869 0.0
C1286 C 0.65206 0.65016 1.00732 0.0
C1287 C 0.68454 0.61929 1.00778 0.0
C1288 C 0.6356 0.66858 1.01726 0.0
C1289 C 0.69989 0.60741 1.01848 0.0
C1290 C 0.68282 0.62489 0.02837 0.0
C1291 C 0.63342 0.67357 0.03784 0.0
C1292 C 0.60252 0.70558 0.03735 0.0
C1293 C 0.6505 0.65547 0.0279 0.0
C1294 C 0.5896 0.71896 0.02661 0.0
C1295 C 0.60503 0.70033 1.01675 0.0
H1296 H 0.36757 0.36712 0.04642 0.0
H1297 H 0.44344 0.28418 0.02656 0.0
H1298 H 0.41909 0.31699 1.00936 0.0
H1299 H 0.37334 0.36824 0.99962 0.0
H1300 H 0.28899 0.44562 1.01936 0.0
H1301 H 0.31821 0.41584 0.03667 0.0
C1302 C 0.37929 0.35645 0.03833 0.0
C1303 C 0.40974 0.32412 0.038 0.0
C1304 C 0.36266 0.37426 0.02831 0.0
C1305 C 0.4228 0.31022 0.02731 0.0
C1306 C 0.40789 0.32862 1.01738 0.0
C1307 C 0.36138 0.3787 1.00771 0.0
C1308 C 0.32888 0.40957 1.00806 0.0
C1309 C 0.37764 0.36063 1.01773 0.0
C1310 C 0.3136 0.42202 1.01871 0.0
C1311 C 0.33056 0.40501 0.02866 0.0
H1312 H 0.63087 0.93623 0.26295 0.0
H1313 H 0.73103 0.85221 0.27434 0.0
H1314 H 0.70401 0.80628 0.26007 0.0
H1315 H 0.65162 0.78901 0.2443 0.0
H1316 H 0.55761 0.87489 0.2313 0.0
H1317 H 0.58051 0.91974 0.24642 0.0
C1318 C 0.64696 0.90792 0.2623 0.0
C1319 C 0.6835 0.89817 0.26981 0.0
C1320 C 0.6317 0.8815 0.2538 0.0
C1321 C 0.70358 0.86114 0.26868 0.0
C1322 C 0.68777 0.83456 0.26053 0.0
C1323 C 0.63676 0.81785 0.24459 0.0
C1324 C 0.60363 0.82864 0.23635 0.0
C1325 C 0.65196 0.84434 0.25301 0.0
C1326 C 0.58329 0.86558 0.23738 0.0
C1327 C 0.59676 0.89146 0.24601 0.0
H1328 H 0.13267 0.16091 0.49953 0.0
H1329 H 0.21536 0.08327 0.51958 0.0
H1330 H 0.18591 0.11376 0.53677 0.0
H1331 H 0.13664 0.16309 0.54633 0.0
H1332 H 0.0621 0.24588 0.52617 0.0
H1333 H 0.08698 0.21257 0.50908 0.0
C1334 C 0.14423 0.15054 0.50766 0.0
C1335 C 0.17633 0.11939 0.50813 0.0
C1336 C 0.12776 0.16893 0.51761 0.0
C1337 C 0.19111 0.10709 0.51883 0.0
C1338 C 0.17398 0.12449 0.52872 0.0
C1339 C 0.12532 0.1736 0.5382 0.0
C1340 C 0.09515 0.20609 0.53774 0.0
C1341 C 0.1422 0.15545 0.52825 0.0
C1342 C 0.08259 0.21979 0.527 0.0
C1343 C 0.09779 0.20109 0.51713 0.0
H1344 H 0.86153 0.66312 0.72988 0.0
H1345 H 0.93765 0.7443 0.75045 0.0
H1346 H 0.91254 0.71031 0.76737 0.0
H1347 H 0.86661 0.65836 0.77665 0.0
H1348 H 0.78257 0.58209 0.7563 0.0
H1349 H 0.81175 0.6135 0.73924 0.0
C1350 C 0.8731 0.67314 0.73807 0.0
C1351 C 0.90385 0.70533 0.73869 0.0
C1352 C 0.85616 0.65455 0.74793 0.0
C1353 C 0.91672 0.71841 0.74948 0.0
C1354 C 0.90141 0.69933 0.75926 0.0
C1355 C 0.85467 0.64848 0.76849 0.0
C1356 C 0.82231 0.61743 0.7679 0.0
C1357 C 0.87103 0.66736 0.75863 0.0
C1358 C 0.80703 0.60581 0.75715 0.0
C1359 C 0.82401 0.62374 0.74733 0.0
loop_
_geom_bond_atom_site_label_1
_geom_bond_atom_site_label_2
_geom_bond_distance
_geom_bond_site_symmetry_2
_ccdc_geom_bond_type
C0 C1 1.443 . S
C0 N4 1.376 . S
C0 C38 1.389 . S
C1 C0 1.443 . S
C1 C2 1.340 . S
C1 H41 0.951 . S
C2 C1 1.340 . S
C2 C3 1.439 . S
C2 H42 0.950 . S
C3 C2 1.439 . S
C3 N4 1.374 . S
C3 C37 1.395 . S
N4 C0 1.376 . S
N4 C3 1.374 . S
N4 Co5 2.008 . S
Co5 N4 2.008 . S
Co5 N6 1.995 . S
Co5 N11 2.008 . S
Co5 N16 1.995 . S
Co5 N21 2.282 . S
Co5 N27 2.282 . S
N6 Co5 1.995 . S
N6 C7 1.376 . S
N6 C10 1.383 . S
C7 N6 1.376 . S
C7 C8 1.446 . S
C7 C37 1.391 . S
C8 C7 1.446 . S
C8 C9 1.339 . S
C8 H43 0.949 . S
C9 C8 1.339 . S
C9 C10 1.439 . S
C9 H44 0.950 . S
C10 N6 1.383 . S
C10 C9 1.439 . S
C10 C39 1.392 . S
N11 Co5 2.008 . S
N11 C12 1.376 . S
N11 C15 1.374 1_545 S
C12 N11 1.376 . S
C12 C13 1.443 1_545 S
C12 C39 1.389 . S
C13 C12 1.443 1_565 S
C13 C14 1.340 . S
C13 H45 0.951 . S
C14 C13 1.340 . S
C14 C15 1.439 . S
C14 H46 0.950 . S
C15 N11 1.374 1_565 S
C15 C14 1.439 . S
C15 C40 1.395 . S
N16 Co5 1.995 . S
N16 C17 1.376 1_545 S
N16 C20 1.383 . S
C17 N16 1.376 1_565 S
C17 C18 1.446 . S
C17 C40 1.391 . S
C18 C17 1.446 . S
C18 C19 1.339 . S
C18 H47 0.949 . S
C19 C18 1.339 . S
C19 C20 1.439 1_565 S
C19 H48 0.950 . S
C20 N16 1.383 . S
C20 C19 1.439 1_545 S
C20 C38 1.392 . S
N21 Co5 2.282 . S
N21 C24 1.332 . S
N21 C26 1.332 . S
C22 C23 1.386 . S
C22 C25 1.388 . S
C23 C22 1.386 . S
C23 C24 1.382 . S
C23 H49 0.950 1_545 S
C24 N21 1.332 . S
C24 C23 1.382 . S
C24 H35 0.952 1_545 S
C25 C22 1.388 . S
C25 C26 1.382 . S
C25 H50 0.950 . S
C26 N21 1.332 . S
C26 C25 1.382 . S
C26 H36 0.948 . S
N27 Co5 2.282 . S
N27 C31 1.332 . S
N27 C32 1.332 . S
C28 C29 1.388 . S
C28 C32 1.382 . S
C28 H51 0.950 . S
C29 C28 1.388 . S
C29 C30 1.386 . S
C30 C29 1.386 . S
C30 C31 1.382 . S
C30 H52 0.950 . S
C31 N27 1.332 . S
C31 C30 1.382 . S
C31 H33 0.952 . S
C32 N27 1.332 . S
C32 C28 1.382 . S
C32 H34 0.948 . S
H33 C31 0.952 . S
H34 C32 0.948 . S
H35 C24 0.952 1_565 S
H36 C26 0.948 . S
C37 C3 1.395 . S
C37 C7 1.391 . S
C38 C0 1.389 . S
C38 C20 1.392 . S
C39 C10 1.392 . S
C39 C12 1.389 . S
C40 C15 1.395 . S
C40 C17 1.391 . S
H41 C1 0.951 . S
H42 C2 0.950 . S
H43 C8 0.949 . S
H44 C9 0.950 . S
H45 C13 0.951 . S
H46 C14 0.950 . S
H47 C18 0.949 . S
H48 C19 0.950 . S
H49 C23 0.950 1_565 S
H50 C25 0.950 . S
H51 C28 0.950 . S
H52 C30 0.950 . S
C53 C54 1.443 1_655 S
C53 N57 1.376 . S
C53 C91 1.389 . S
C54 C53 1.443 1_455 S
C54 C55 1.340 . S
C54 H94 0.951 . S
C55 C54 1.340 . S
C55 C56 1.439 . S
C55 H95 0.950 . S
C56 C55 1.439 . S
C56 N57 1.374 1_455 S
C56 C90 1.395 . S
N57 C53 1.376 . S
N57 C56 1.374 1_655 S
N57 Co58 2.008 . S
Co58 N57 2.008 . S
Co58 N59 1.995 1_655 S
Co58 N64 2.008 . S
Co58 N69 1.995 . S
Co58 N74 2.282 . S
Co58 N80 2.282 . S
N59 Co58 1.995 1_455 S
N59 C60 1.376 . S
N59 C63 1.383 . S
C60 N59 1.376 . S
C60 C61 1.446 . S
C60 C90 1.391 . S
C61 C60 1.446 . S
C61 C62 1.339 . S
C61 H96 0.949 . S
C62 C61 1.339 . S
C62 C63 1.439 . S
C62 H97 0.950 . S
C63 N59 1.383 . S
C63 C62 1.439 . S
C63 C92 1.392 1_455 S
N64 Co58 2.008 . S
N64 C65 1.376 . S
N64 C68 1.374 . S
C65 N64 1.376 . S
C65 C66 1.443 . S
C65 C92 1.389 . S
C66 C65 1.443 . S
C66 C67 1.340 . S
C66 H98 0.951 . S
C67 C66 1.340 . S
C67 C68 1.439 . S
C67 H99 0.950 . S
C68 N64 1.374 . S
C68 C67 1.439 . S
C68 C93 1.395 . S
N69 Co58 1.995 . S
N69 C70 1.376 . S
N69 C73 1.383 . S
C70 N69 1.376 . S
C70 C71 1.446 . S
C70 C93 1.391 . S
C71 C70 1.446 . S
C71 C72 1.339 . S
C71 H100 0.949 . S
C72 C71 1.339 . S
C72 C73 1.439 . S
C72 H101 0.950 . S
C73 N69 1.383 . S
C73 C72 1.439 . S
C73 C91 1.392 . S
N74 Co58 2.282 . S
N74 C77 1.332 . S
N74 C79 1.332 . S
C75 C76 1.386 . S
C75 C78 1.388 . S
C76 C75 1.386 . S
C76 C77 1.382 . S
C76 H102 0.950 . S
C77 N74 1.332 . S
C77 C76 1.382 . S
C77 H88 0.952 . S
C78 C75 1.388 . S
C78 C79 1.382 . S
C78 H103 0.950 1_655 S
C79 N74 1.332 . S
C79 C78 1.382 . S
C79 H89 0.948 1_655 S
N80 Co58 2.282 . S
N80 C84 1.332 . S
N80 C85 1.332 . S
C81 C82 1.388 . S
C81 C85 1.382 . S
C81 H104 0.950 . S
C82 C81 1.388 . S
C82 C83 1.386 . S
C83 C82 1.386 . S
C83 C84 1.382 . S
C83 H105 0.950 1_655 S
C84 N80 1.332 . S
C84 C83 1.382 . S
C84 H86 0.952 1_655 S
C85 N80 1.332 . S
C85 C81 1.382 . S
C85 H87 0.948 . S
H86 C84 0.952 1_455 S
H87 C85 0.948 . S
H88 C77 0.952 . S
H89 C79 0.948 1_455 S
C90 C56 1.395 . S
C90 C60 1.391 . S
C91 C53 1.389 . S
C91 C73 1.392 . S
C92 C63 1.392 1_655 S
C92 C65 1.389 . S
C93 C68 1.395 . S
C93 C70 1.391 . S
H94 C54 0.951 . S
H95 C55 0.950 . S
H96 C61 0.949 . S
H97 C62 0.950 . S
H98 C66 0.951 . S
H99 C67 0.950 . S
H100 C71 0.949 . S
H101 C72 0.950 . S
H102 C76 0.950 . S
H103 C78 0.950 1_455 S
H104 C81 0.950 . S
H105 C83 0.950 1_455 S
C106 C107 1.443 . S
C106 N110 1.376 . S
C106 C144 1.389 . S
C107 C106 1.443 . S
C107 C108 1.340 . S
C107 H147 0.951 . S
C108 C107 1.340 . S
C108 C109 1.439 . S
C108 H148 0.950 . S
C109 C108 1.439 . S
C109 N110 1.374 . S
C109 C143 1.395 . S
N110 C106 1.376 . S
N110 C109 1.374 . S
N110 Co111 2.008 . S
Co111 N110 2.008 . S
Co111 N112 1.995 . S
Co111 N117 2.008 . S
Co111 N122 1.995 . S
Co111 N127 2.282 . S
Co111 N133 2.282 . S
N112 Co111 1.995 . S
N112 C113 1.376 . S
N112 C116 1.383 . S
C113 N112 1.376 . S
C113 C114 1.446 . S
C113 C143 1.391 . S
C114 C113 1.446 . S
C114 C115 1.339 . S
C114 H149 0.949 . S
C115 C114 1.339 . S
C115 C116 1.439 . S
C115 H150 0.950 . S
C116 N112 1.383 . S
C116 C115 1.439 . S
C116 C145 1.392 . S
N117 Co111 2.008 . S
N117 C118 1.376 . S
N117 C121 1.374 . S
C118 N117 1.376 . S
C118 C119 1.443 . S
C118 C145 1.389 . S
C119 C118 1.443 . S
C119 C120 1.340 . S
C119 H151 0.951 . S
C120 C119 1.340 . S
C120 C121 1.439 . S
C120 H152 0.950 . S
C121 N117 1.374 . S
C121 C120 1.439 . S
C121 C146 1.395 . S
N122 Co111 1.995 . S
N122 C123 1.376 . S
N122 C126 1.383 . S
C123 N122 1.376 . S
C123 C124 1.446 . S
C123 C146 1.391 . S
C124 C123 1.446 . S
C124 C125 1.339 . S
C124 H153 0.949 . S
C125 C124 1.339 . S
C125 C126 1.439 . S
C125 H154 0.950 . S
C126 N122 1.383 . S
C126 C125 1.439 . S
C126 C144 1.392 . S
N127 Co111 2.282 . S
N127 C130 1.332 . S
N127 C132 1.332 . S
C128 C129 1.386 . S
C128 C131 1.388 . S
C129 C128 1.386 . S
C129 C130 1.382 . S
C129 H155 0.950 . S
C130 N127 1.332 . S
C130 C129 1.382 . S
C130 H141 0.952 . S
C131 C128 1.388 . S
C131 C132 1.382 . S
C131 H156 0.950 . S
C132 N127 1.332 . S
C132 C131 1.382 . S
C132 H142 0.948 . S
N133 Co111 2.282 . S
N133 C137 1.332 . S
N133 C138 1.332 . S
C134 C135 1.388 . S
C134 C138 1.382 . S
C134 H157 0.950 . S
C135 C134 1.388 . S
C135 C136 1.386 . S
C136 C135 1.386 . S
C136 C137 1.382 . S
C136 H158 0.950 . S
C137 N133 1.332 . S
C137 C136 1.382 . S
C137 H139 0.952 . S
C138 N133 1.332 . S
C138 C134 1.382 . S
C138 H140 0.948 . S
H139 C137 0.952 . S
H140 C138 0.948 . S
H141 C130 0.952 . S
H142 C132 0.948 . S
C143 C109 1.395 . S
C143 C113 1.391 . S
C144 C106 1.389 . S
C144 C126 1.392 . S
C145 C116 1.392 . S
C145 C118 1.389 . S
C146 C121 1.395 . S
C146 C123 1.391 . S
H147 C107 0.951 . S
H148 C108 0.950 . S
H149 C114 0.949 . S
H150 C115 0.950 . S
H151 C119 0.951 . S
H152 C120 0.950 . S
H153 C124 0.949 . S
H154 C125 0.950 . S
H155 C129 0.950 . S
H156 C131 0.950 . S
H157 C134 0.950 . S
H158 C136 0.950 . S
C159 C160 1.443 . S
C159 N163 1.376 . S
C159 C197 1.389 . S
C160 C159 1.443 . S
C160 C161 1.340 . S
C160 H200 0.951 . S
C161 C160 1.340 . S
C161 C162 1.439 . S
C161 H201 0.950 . S
C162 C161 1.439 . S
C162 N163 1.374 . S
C162 C196 1.395 . S
N163 C159 1.376 . S
N163 C162 1.374 . S
N163 Co164 2.008 . S
Co164 N163 2.008 . S
Co164 N165 1.995 . S
Co164 N170 2.008 . S
Co164 N175 1.995 . S
Co164 N180 2.282 . S
Co164 N186 2.282 . S
N165 Co164 1.995 . S
N165 C166 1.376 . S
N165 C169 1.383 . S
C166 N165 1.376 . S
C166 C167 1.446 . S
C166 C196 1.391 . S
C167 C166 1.446 . S
C167 C168 1.339 . S
C167 H202 0.949 . S
C168 C167 1.339 . S
C168 C169 1.439 . S
C168 H203 0.950 . S
C169 N165 1.383 . S
C169 C168 1.439 . S
C169 C198 1.392 . S
N170 Co164 2.008 . S
N170 C171 1.376 . S
N170 C174 1.374 . S
C171 N170 1.376 . S
C171 C172 1.443 . S
C171 C198 1.389 . S
C172 C171 1.443 . S
C172 C173 1.340 . S
C172 H204 0.951 . S
C173 C172 1.340 . S
C173 C174 1.439 . S
C173 H205 0.950 . S
C174 N170 1.374 . S
C174 C173 1.439 . S
C174 C199 1.395 . S
N175 Co164 1.995 . S
N175 C176 1.376 . S
N175 C179 1.383 . S
C176 N175 1.376 . S
C176 C177 1.446 . S
C176 C199 1.391 . S
C177 C176 1.446 . S
C177 C178 1.339 . S
C177 H206 0.949 . S
C178 C177 1.339 . S
C178 C179 1.439 . S
C178 H207 0.950 . S
C179 N175 1.383 . S
C179 C178 1.439 . S
C179 C197 1.392 . S
N180 Co164 2.282 . S
N180 C183 1.332 . S
N180 C185 1.332 . S
C181 C182 1.386 . S
C181 C184 1.388 . S
C182 C181 1.386 . S
C182 C183 1.382 . S
C182 H208 0.950 . S
C183 N180 1.332 . S
C183 C182 1.382 . S
C183 H194 0.952 . S
C184 C181 1.388 . S
C184 C185 1.382 . S
C184 H209 0.950 . S
C185 N180 1.332 . S
C185 C184 1.382 . S
C185 H195 0.948 . S
N186 Co164 2.282 . S
N186 C190 1.332 . S
N186 C191 1.332 . S
C187 C188 1.388 . S
C187 C191 1.382 . S
C187 H210 0.950 . S
C188 C187 1.388 . S
C188 C189 1.386 . S
C189 C188 1.386 . S
C189 C190 1.382 . S
C189 H211 0.950 . S
C190 N186 1.332 . S
C190 C189 1.382 . S
C190 H192 0.952 . S
C191 N186 1.332 . S
C191 C187 1.382 . S
C191 H193 0.948 . S
H192 C190 0.952 . S
H193 C191 0.948 . S
H194 C183 0.952 . S
H195 C185 0.948 . S
C196 C162 1.395 . S
C196 C166 1.391 . S
C197 C159 1.389 . S
C197 C179 1.392 . S
C198 C169 1.392 . S
C198 C171 1.389 . S
C199 C174 1.395 . S
C199 C176 1.391 . S
H200 C160 0.951 . S
H201 C161 0.950 . S
H202 C167 0.949 . S
H203 C168 0.950 . S
H204 C172 0.951 . S
H205 C173 0.950 . S
H206 C177 0.949 . S
H207 C178 0.950 . S
H208 C182 0.950 . S
H209 C184 0.950 . S
H210 C187 0.950 . S
H211 C189 0.950 . S
C212 C213 1.443 . S
C212 N216 1.376 . S
C212 C250 1.389 . S
C213 C212 1.443 . S
C213 C214 1.340 . S
C213 H253 0.951 . S
C214 C213 1.340 . S
C214 C215 1.439 . S
C214 H254 0.950 . S
C215 C214 1.439 . S
C215 N216 1.374 . S
C215 C249 1.395 . S
N216 C212 1.376 . S
N216 C215 1.374 . S
N216 Co217 2.008 . S
Co217 N216 2.008 . S
Co217 N218 1.995 . S
Co217 N223 2.008 . S
Co217 N228 1.995 . S
Co217 N233 2.282 . S
Co217 N239 2.282 . S
N218 Co217 1.995 . S
N218 C219 1.376 . S
N218 C222 1.383 . S
C219 N218 1.376 . S
C219 C220 1.446 . S
C219 C249 1.391 . S
C220 C219 1.446 . S
C220 C221 1.339 . S
C220 H255 0.949 . S
C221 C220 1.339 . S
C221 C222 1.439 . S
C221 H256 0.950 . S
C222 N218 1.383 . S
C222 C221 1.439 . S
C222 C251 1.392 . S
N223 Co217 2.008 . S
N223 C224 1.376 . S
N223 C227 1.374 . S
C224 N223 1.376 . S
C224 C225 1.443 . S
C224 C251 1.389 . S
C225 C224 1.443 . S
C225 C226 1.340 . S
C225 H257 0.951 . S
C226 C225 1.340 . S
C226 C227 1.439 . S
C226 H258 0.950 . S
C227 N223 1.374 . S
C227 C226 1.439 . S
C227 C252 1.395 . S
N228 Co217 1.995 . S
N228 C229 1.376 . S
N228 C232 1.383 . S
C229 N228 1.376 . S
C229 C230 1.446 . S
C229 C252 1.391 . S
C230 C229 1.446 . S
C230 C231 1.339 . S
C230 H259 0.949 . S
C231 C230 1.339 . S
C231 C232 1.439 . S
C231 H260 0.950 . S
C232 N228 1.383 . S
C232 C231 1.439 . S
C232 C250 1.392 . S
N233 Co217 2.282 . S
N233 C236 1.332 . S
N233 C238 1.332 . S
C234 C235 1.386 . S
C234 C237 1.388 . S
C235 C234 1.386 . S
C235 C236 1.382 . S
C235 H261 0.950 . S
C236 N233 1.332 . S
C236 C235 1.382 . S
C236 H247 0.952 . S
C237 C234 1.388 . S
C237 C238 1.382 . S
C237 H262 0.950 . S
C238 N233 1.332 . S
C238 C237 1.382 . S
C238 H248 0.948 . S
N239 Co217 2.282 . S
N239 C243 1.332 . S
N239 C244 1.332 . S
C240 C241 1.388 . S
C240 C244 1.382 . S
C240 H263 0.950 . S
C241 C240 1.388 . S
C241 C242 1.386 . S
C242 C241 1.386 . S
C242 C243 1.382 . S
C242 H264 0.950 . S
C243 N239 1.332 . S
C243 C242 1.382 . S
C243 H245 0.952 . S
C244 N239 1.332 . S
C244 C240 1.382 . S
C244 H246 0.948 . S
H245 C243 0.952 . S
H246 C244 0.948 . S
H247 C236 0.952 . S
H248 C238 0.948 . S
C249 C215 1.395 . S
C249 C219 1.391 . S
C250 C212 1.389 . S
C250 C232 1.392 . S
C251 C222 1.392 . S
C251 C224 1.389 . S
C252 C227 1.395 . S
C252 C229 1.391 . S
H253 C213 0.951 . S
H254 C214 0.950 . S
H255 C220 0.949 . S
H256 C221 0.950 . S
H257 C225 0.951 . S
H258 C226 0.950 . S
H259 C230 0.949 . S
H260 C231 0.950 . S
H261 C235 0.950 . S
H262 C237 0.950 . S
H263 C240 0.950 . S
H264 C242 0.950 . S
C265 C266 1.443 . S
C265 N269 1.376 . S
C265 C303 1.389 . S
C266 C265 1.443 . S
C266 C267 1.340 . S
C266 H306 0.951 . S
C267 C266 1.340 . S
C267 C268 1.439 . S
C267 H307 0.950 . S
C268 C267 1.439 . S
C268 N269 1.374 . S
C268 C302 1.395 . S
N269 C265 1.376 . S
N269 C268 1.374 . S
N269 Co270 2.008 . S
Co270 N269 2.008 . S
Co270 N271 1.995 . S
Co270 N276 2.008 . S
Co270 N281 1.995 . S
Co270 N286 2.282 . S
Co270 N292 2.282 . S
N271 Co270 1.995 . S
N271 C272 1.376 . S
N271 C275 1.383 . S
C272 N271 1.376 . S
C272 C273 1.446 . S
C272 C302 1.391 . S
C273 C272 1.446 . S
C273 C274 1.339 . S
C273 H308 0.949 . S
C274 C273 1.339 . S
C274 C275 1.439 . S
C274 H309 0.950 . S
C275 N271 1.383 . S
C275 C274 1.439 . S
C275 C304 1.392 . S
N276 Co270 2.008 . S
N276 C277 1.376 . S
N276 C280 1.374 . S
C277 N276 1.376 . S
C277 C278 1.443 . S
C277 C304 1.389 . S
C278 C277 1.443 . S
C278 C279 1.340 . S
C278 H310 0.951 . S
C279 C278 1.340 . S
C279 C280 1.439 . S
C279 H311 0.950 . S
C280 N276 1.374 . S
C280 C279 1.439 . S
C280 C305 1.395 . S
N281 Co270 1.995 . S
N281 C282 1.376 . S
N281 C285 1.383 . S
C282 N281 1.376 . S
C282 C283 1.446 . S
C282 C305 1.391 . S
C283 C282 1.446 . S
C283 C284 1.339 . S
C283 H312 0.949 . S
C284 C283 1.339 . S
C284 C285 1.439 . S
C284 H313 0.950 . S
C285 N281 1.383 . S
C285 C284 1.439 . S
C285 C303 1.392 . S
N286 Co270 2.282 . S
N286 C289 1.332 . S
N286 C291 1.332 . S
C287 C288 1.386 . S
C287 C290 1.388 . S
C288 C287 1.386 . S
C288 C289 1.382 . S
C288 H314 0.950 . S
C289 N286 1.332 . S
C289 C288 1.382 . S
C289 H300 0.952 . S
C290 C287 1.388 . S
C290 C291 1.382 . S
C290 H315 0.950 . S
C291 N286 1.332 . S
C291 C290 1.382 . S
C291 H301 0.948 . S
N292 Co270 2.282 . S
N292 C296 1.332 . S
N292 C297 1.332 . S
C293 C294 1.388 . S
C293 C297 1.382 . S
C293 H316 0.950 . S
C294 C293 1.388 . S
C294 C295 1.386 . S
C295 C294 1.386 . S
C295 C296 1.382 . S
C295 H317 0.950 . S
C296 N292 1.332 . S
C296 C295 1.382 . S
C296 H298 0.952 . S
C297 N292 1.332 . S
C297 C293 1.382 . S
C297 H299 0.948 . S
H298 C296 0.952 . S
H299 C297 0.948 . S
H300 C289 0.952 . S
H301 C291 0.948 . S
C302 C268 1.395 . S
C302 C272 1.391 . S
C303 C265 1.389 . S
C303 C285 1.392 . S
C304 C275 1.392 . S
C304 C277 1.389 . S
C305 C280 1.395 . S
C305 C282 1.391 . S
H306 C266 0.951 . S
H307 C267 0.950 . S
H308 C273 0.949 . S
H309 C274 0.950 . S
H310 C278 0.951 . S
H311 C279 0.950 . S
H312 C283 0.949 . S
H313 C284 0.950 . S
H314 C288 0.950 . S
H315 C290 0.950 . S
H316 C293 0.950 . S
H317 C295 0.950 . S
C318 C319 1.443 . S
C318 N322 1.376 . S
C318 C356 1.389 . S
C319 C318 1.443 . S
C319 C320 1.340 . S
C319 H359 0.951 . S
C320 C319 1.340 . S
C320 C321 1.439 . S
C320 H360 0.950 . S
C321 C320 1.439 . S
C321 N322 1.374 . S
C321 C355 1.395 . S
N322 C318 1.376 . S
N322 C321 1.374 . S
N322 Co323 2.008 . S
Co323 N322 2.008 . S
Co323 N324 1.995 . S
Co323 N329 2.008 . S
Co323 N334 1.995 . S
Co323 N339 2.282 . S
Co323 N345 2.282 . S
N324 Co323 1.995 . S
N324 C325 1.376 . S
N324 C328 1.383 . S
C325 N324 1.376 . S
C325 C326 1.446 . S
C325 C355 1.391 . S
C326 C325 1.446 . S
C326 C327 1.339 . S
C326 H361 0.949 . S
C327 C326 1.339 . S
C327 C328 1.439 . S
C327 H362 0.950 . S
C328 N324 1.383 . S
C328 C327 1.439 . S
C328 C357 1.392 . S
N329 Co323 2.008 . S
N329 C330 1.376 . S
N329 C333 1.374 1_545 S
C330 N329 1.376 . S
C330 C331 1.443 1_545 S
C330 C357 1.389 . S
C331 C330 1.443 1_565 S
C331 C332 1.340 . S
C331 H363 0.951 . S
C332 C331 1.340 . S
C332 C333 1.439 . S
C332 H364 0.950 . S
C333 N329 1.374 1_565 S
C333 C332 1.439 . S
C333 C358 1.395 . S
N334 Co323 1.995 . S
N334 C335 1.376 1_545 S
N334 C338 1.383 . S
C335 N334 1.376 1_565 S
C335 C336 1.446 . S
C335 C358 1.391 . S
C336 C335 1.446 . S
C336 C337 1.339 . S
C336 H365 0.949 . S
C337 C336 1.339 . S
C337 C338 1.439 1_565 S
C337 H366 0.950 . S
C338 N334 1.383 . S
C338 C337 1.439 1_545 S
C338 C356 1.392 . S
N339 Co323 2.282 . S
N339 C342 1.332 . S
N339 C344 1.332 . S
C340 C341 1.386 . S
C340 C343 1.388 . S
C341 C340 1.386 . S
C341 C342 1.382 . S
C341 H367 0.950 1_545 S
C342 N339 1.332 . S
C342 C341 1.382 . S
C342 H353 0.952 1_545 S
C343 C340 1.388 . S
C343 C344 1.382 . S
C343 H368 0.950 . S
C344 N339 1.332 . S
C344 C343 1.382 . S
C344 H354 0.948 . S
N345 Co323 2.282 . S
N345 C349 1.332 . S
N345 C350 1.332 . S
C346 C347 1.388 . S
C346 C350 1.382 . S
C346 H369 0.950 . S
C347 C346 1.388 . S
C347 C348 1.386 . S
C348 C347 1.386 . S
C348 C349 1.382 . S
C348 H370 0.950 . S
C349 N345 1.332 . S
C349 C348 1.382 . S
C349 H351 0.952 . S
C350 N345 1.332 . S
C350 C346 1.382 . S
C350 H352 0.948 . S
H351 C349 0.952 . S
H352 C350 0.948 . S
H353 C342 0.952 1_565 S
H354 C344 0.948 . S
C355 C321 1.395 . S
C355 C325 1.391 . S
C356 C318 1.389 . S
C356 C338 1.392 . S
C357 C328 1.392 . S
C357 C330 1.389 . S
C358 C333 1.395 . S
C358 C335 1.391 . S
H359 C319 0.951 . S
H360 C320 0.950 . S
H361 C326 0.949 . S
H362 C327 0.950 . S
H363 C331 0.951 . S
H364 C332 0.950 . S
H365 C336 0.949 . S
H366 C337 0.950 . S
H367 C341 0.950 1_565 S
H368 C343 0.950 . S
H369 C346 0.950 . S
H370 C348 0.950 . S
C371 C372 1.443 1_655 S
C371 N375 1.376 . S
C371 C409 1.389 . S
C372 C371 1.443 1_455 S
C372 C373 1.340 . S
C372 H412 0.951 . S
C373 C372 1.340 . S
C373 C374 1.439 . S
C373 H413 0.950 . S
C374 C373 1.439 . S
C374 N375 1.374 1_455 S
C374 C408 1.395 . S
N375 C371 1.376 . S
N375 C374 1.374 1_655 S
N375 Co376 2.008 . S
Co376 N375 2.008 . S
Co376 N377 1.995 1_655 S
Co376 N382 2.008 . S
Co376 N387 1.995 . S
Co376 N392 2.282 . S
Co376 N398 2.282 . S
N377 Co376 1.995 1_455 S
N377 C378 1.376 . S
N377 C381 1.383 . S
C378 N377 1.376 . S
C378 C379 1.446 . S
C378 C408 1.391 . S
C379 C378 1.446 . S
C379 C380 1.339 . S
C379 H414 0.949 . S
C380 C379 1.339 . S
C380 C381 1.439 . S
C380 H415 0.950 . S
C381 N377 1.383 . S
C381 C380 1.439 . S
C381 C410 1.392 1_455 S
N382 Co376 2.008 . S
N382 C383 1.376 . S
N382 C386 1.374 . S
C383 N382 1.376 . S
C383 C384 1.443 . S
C383 C410 1.389 . S
C384 C383 1.443 . S
C384 C385 1.340 . S
C384 H416 0.951 . S
C385 C384 1.340 . S
C385 C386 1.439 . S
C385 H417 0.950 . S
C386 N382 1.374 . S
C386 C385 1.439 . S
C386 C411 1.395 . S
N387 Co376 1.995 . S
N387 C388 1.376 . S
N387 C391 1.383 . S
C388 N387 1.376 . S
C388 C389 1.446 . S
C388 C411 1.391 . S
C389 C388 1.446 . S
C389 C390 1.339 . S
C389 H418 0.949 . S
C390 C389 1.339 . S
C390 C391 1.439 . S
C390 H419 0.950 . S
C391 N387 1.383 . S
C391 C390 1.439 . S
C391 C409 1.392 . S
N392 Co376 2.282 . S
N392 C395 1.332 . S
N392 C397 1.332 . S
C393 C394 1.386 . S
C393 C396 1.388 . S
C394 C393 1.386 . S
C394 C395 1.382 . S
C394 H420 0.950 . S
C395 N392 1.332 . S
C395 C394 1.382 . S
C395 H406 0.952 . S
C396 C393 1.388 . S
C396 C397 1.382 . S
C396 H421 0.950 1_655 S
C397 N392 1.332 . S
C397 C396 1.382 . S
C397 H407 0.948 1_655 S
N398 Co376 2.282 . S
N398 C402 1.332 . S
N398 C403 1.332 . S
C399 C400 1.388 . S
C399 C403 1.382 . S
C399 H422 0.950 . S
C400 C399 1.388 . S
C400 C401 1.386 . S
C401 C400 1.386 . S
C401 C402 1.382 . S
C401 H423 0.950 1_655 S
C402 N398 1.332 . S
C402 C401 1.382 . S
C402 H404 0.952 1_655 S
C403 N398 1.332 . S
C403 C399 1.382 . S
C403 H405 0.948 . S
H404 C402 0.952 1_455 S
H405 C403 0.948 . S
H406 C395 0.952 . S
H407 C397 0.948 1_455 S
C408 C374 1.395 . S
C408 C378 1.391 . S
C409 C371 1.389 . S
C409 C391 1.392 . S
C410 C381 1.392 1_655 S
C410 C383 1.389 . S
C411 C386 1.395 . S
C411 C388 1.391 . S
H412 C372 0.951 . S
H413 C373 0.950 . S
H414 C379 0.949 . S
H415 C380 0.950 . S
H416 C384 0.951 . S
H417 C385 0.950 . S
H418 C389 0.949 . S
H419 C390 0.950 . S
H420 C394 0.950 . S
H421 C396 0.950 1_455 S
H422 C399 0.950 . S
H423 C401 0.950 1_455 S
C424 C425 1.443 . S
C424 N428 1.376 . S
C424 C462 1.389 . S
C425 C424 1.443 . S
C425 C426 1.340 . S
C425 H465 0.951 . S
C426 C425 1.340 . S
C426 C427 1.439 . S
C426 H466 0.950 . S
C427 C426 1.439 . S
C427 N428 1.374 . S
C427 C461 1.395 . S
N428 C424 1.376 . S
N428 C427 1.374 . S
N428 Co429 2.008 . S
Co429 N428 2.008 . S
Co429 N430 1.995 . S
Co429 N435 2.008 . S
Co429 N440 1.995 . S
Co429 N445 2.282 . S
Co429 N451 2.282 . S
N430 Co429 1.995 . S
N430 C431 1.376 . S
N430 C434 1.383 . S
C431 N430 1.376 . S
C431 C432 1.446 . S
C431 C461 1.391 . S
C432 C431 1.446 . S
C432 C433 1.339 . S
C432 H467 0.949 . S
C433 C432 1.339 . S
C433 C434 1.439 . S
C433 H468 0.950 . S
C434 N430 1.383 . S
C434 C433 1.439 . S
C434 C463 1.392 . S
N435 Co429 2.008 . S
N435 C436 1.376 . S
N435 C439 1.374 . S
C436 N435 1.376 . S
C436 C437 1.443 . S
C436 C463 1.389 . S
C437 C436 1.443 . S
C437 C438 1.340 . S
C437 H469 0.951 . S
C438 C437 1.340 . S
C438 C439 1.439 . S
C438 H470 0.950 . S
C439 N435 1.374 . S
C439 C438 1.439 . S
C439 C464 1.395 . S
N440 Co429 1.995 . S
N440 C441 1.376 . S
N440 C444 1.383 . S
C441 N440 1.376 . S
C441 C442 1.446 . S
C441 C464 1.391 . S
C442 C441 1.446 . S
C442 C443 1.339 . S
C442 H471 0.949 . S
C443 C442 1.339 . S
C443 C444 1.439 . S
C443 H472 0.950 . S
C444 N440 1.383 . S
C444 C443 1.439 . S
C444 C462 1.392 . S
N445 Co429 2.282 . S
N445 C448 1.332 . S
N445 C450 1.332 . S
C446 C447 1.386 . S
C446 C449 1.388 . S
C447 C446 1.386 . S
C447 C448 1.382 . S
C447 H473 0.950 . S
C448 N445 1.332 . S
C448 C447 1.382 . S
C448 H459 0.952 . S
C449 C446 1.388 . S
C449 C450 1.382 . S
C449 H474 0.950 . S
C450 N445 1.332 . S
C450 C449 1.382 . S
C450 H460 0.948 . S
N451 Co429 2.282 . S
N451 C455 1.332 . S
N451 C456 1.332 . S
C452 C453 1.388 . S
C452 C456 1.382 . S
C452 H475 0.950 . S
C453 C452 1.388 . S
C453 C454 1.386 . S
C454 C453 1.386 . S
C454 C455 1.382 . S
C454 H476 0.950 . S
C455 N451 1.332 . S
C455 C454 1.382 . S
C455 H457 0.952 . S
C456 N451 1.332 . S
C456 C452 1.382 . S
C456 H458 0.948 . S
H457 C455 0.952 . S
H458 C456 0.948 . S
H459 C448 0.952 . S
H460 C450 0.948 . S
C461 C427 1.395 . S
C461 C431 1.391 . S
C462 C424 1.389 . S
C462 C444 1.392 . S
C463 C434 1.392 . S
C463 C436 1.389 . S
C464 C439 1.395 . S
C464 C441 1.391 . S
H465 C425 0.951 . S
H466 C426 0.950 . S
H467 C432 0.949 . S
H468 C433 0.950 . S
H469 C437 0.951 . S
H470 C438 0.950 . S
H471 C442 0.949 . S
H472 C443 0.950 . S
H473 C447 0.950 . S
H474 C449 0.950 . S
H475 C452 0.950 . S
H476 C454 0.950 . S
C477 C478 1.443 . S
C477 N481 1.376 . S
C477 C515 1.389 . S
C478 C477 1.443 . S
C478 C479 1.340 . S
C478 H518 0.951 . S
C479 C478 1.340 . S
C479 C480 1.439 . S
C479 H519 0.950 . S
C480 C479 1.439 . S
C480 N481 1.374 . S
C480 C514 1.395 . S
N481 C477 1.376 . S
N481 C480 1.374 . S
N481 Co482 2.008 . S
Co482 N481 2.008 . S
Co482 N483 1.995 . S
Co482 N488 2.008 . S
Co482 N493 1.995 . S
Co482 N498 2.282 . S
Co482 N504 2.282 . S
N483 Co482 1.995 . S
N483 C484 1.376 . S
N483 C487 1.383 . S
C484 N483 1.376 . S
C484 C485 1.446 . S
C484 C514 1.391 . S
C485 C484 1.446 . S
C485 C486 1.339 . S
C485 H520 0.949 . S
C486 C485 1.339 . S
C486 C487 1.439 . S
C486 H521 0.950 . S
C487 N483 1.383 . S
C487 C486 1.439 . S
C487 C516 1.392 . S
N488 Co482 2.008 . S
N488 C489 1.376 . S
N488 C492 1.374 . S
C489 N488 1.376 . S
C489 C490 1.443 . S
C489 C516 1.389 . S
C490 C489 1.443 . S
C490 C491 1.340 . S
C490 H522 0.951 . S
C491 C490 1.340 . S
C491 C492 1.439 . S
C491 H523 0.950 . S
C492 N488 1.374 . S
C492 C491 1.439 . S
C492 C517 1.395 . S
N493 Co482 1.995 . S
N493 C494 1.376 . S
N493 C497 1.383 . S
C494 N493 1.376 . S
C494 C495 1.446 . S
C494 C517 1.391 . S
C495 C494 1.446 . S
C495 C496 1.339 . S
C495 H524 0.949 . S
C496 C495 1.339 . S
C496 C497 1.439 . S
C496 H525 0.950 . S
C497 N493 1.383 . S
C497 C496 1.439 . S
C497 C515 1.392 . S
N498 Co482 2.282 . S
N498 C501 1.332 . S
N498 C503 1.332 . S
C499 C500 1.386 . S
C499 C502 1.388 . S
C500 C499 1.386 . S
C500 C501 1.382 . S
C500 H526 0.950 . S
C501 N498 1.332 . S
C501 C500 1.382 . S
C501 H512 0.952 . S
C502 C499 1.388 . S
C502 C503 1.382 . S
C502 H527 0.950 . S
C503 N498 1.332 . S
C503 C502 1.382 . S
C503 H513 0.948 . S
N504 Co482 2.282 . S
N504 C508 1.332 . S
N504 C509 1.332 . S
C505 C506 1.388 . S
C505 C509 1.382 . S
C505 H528 0.950 . S
C506 C505 1.388 . S
C506 C507 1.386 . S
C507 C506 1.386 . S
C507 C508 1.382 . S
C507 H529 0.950 . S
C508 N504 1.332 . S
C508 C507 1.382 . S
C508 H510 0.952 . S
C509 N504 1.332 . S
C509 C505 1.382 . S
C509 H511 0.948 . S
H510 C508 0.952 . S
H511 C509 0.948 . S
H512 C501 0.952 . S
H513 C503 0.948 . S
C514 C480 1.395 . S
C514 C484 1.391 . S
C515 C477 1.389 . S
C515 C497 1.392 . S
C516 C487 1.392 . S
C516 C489 1.389 . S
C517 C492 1.395 . S
C517 C494 1.391 . S
H518 C478 0.951 . S
H519 C479 0.950 . S
H520 C485 0.949 . S
H521 C486 0.950 . S
H522 C490 0.951 . S
H523 C491 0.950 . S
H524 C495 0.949 . S
H525 C496 0.950 . S
H526 C500 0.950 . S
H527 C502 0.950 . S
H528 C505 0.950 . S
H529 C507 0.950 . S
C530 C531 1.443 . S
C530 N534 1.376 . S
C530 C568 1.389 . S
C531 C530 1.443 . S
C531 C532 1.340 . S
C531 H571 0.951 . S
C532 C531 1.340 . S
C532 C533 1.439 . S
C532 H572 0.950 . S
C533 C532 1.439 . S
C533 N534 1.374 . S
C533 C567 1.395 . S
N534 C530 1.376 . S
N534 C533 1.374 . S
N534 Co535 2.008 . S
Co535 N534 2.008 . S
Co535 N536 1.995 . S
Co535 N541 2.008 . S
Co535 N546 1.995 . S
Co535 N551 2.282 . S
Co535 N557 2.282 . S
N536 Co535 1.995 . S
N536 C537 1.376 . S
N536 C540 1.383 . S
C537 N536 1.376 . S
C537 C538 1.446 . S
C537 C567 1.391 . S
C538 C537 1.446 . S
C538 C539 1.339 . S
C538 H573 0.949 . S
C539 C538 1.339 . S
C539 C540 1.439 . S
C539 H574 0.950 . S
C540 N536 1.383 . S
C540 C539 1.439 . S
C540 C569 1.392 . S
N541 Co535 2.008 . S
N541 C542 1.376 . S
N541 C545 1.374 1_565 S
C542 N541 1.376 . S
C542 C543 1.443 1_565 S
C542 C569 1.389 . S
C543 C542 1.443 1_545 S
C543 C544 1.340 . S
C543 H575 0.951 . S
C544 C543 1.340 . S
C544 C545 1.439 . S
C544 H576 0.950 . S
C545 N541 1.374 1_545 S
C545 C544 1.439 . S
C545 C570 1.395 . S
N546 Co535 1.995 . S
N546 C547 1.376 1_565 S
N546 C550 1.383 . S
C547 N546 1.376 1_545 S
C547 C548 1.446 . S
C547 C570 1.391 . S
C548 C547 1.446 . S
C548 C549 1.339 . S
C548 H577 0.949 . S
C549 C548 1.339 . S
C549 C550 1.439 1_545 S
C549 H578 0.950 . S
C550 N546 1.383 . S
C550 C549 1.439 1_565 S
C550 C568 1.392 . S
N551 Co535 2.282 . S
N551 C554 1.332 . S
N551 C556 1.332 . S
C552 C553 1.386 . S
C552 C555 1.388 . S
C553 C552 1.386 . S
C553 C554 1.382 . S
C553 H579 0.950 1_565 S
C554 N551 1.332 . S
C554 C553 1.382 . S
C554 H565 0.952 1_565 S
C555 C552 1.388 . S
C555 C556 1.382 . S
C555 H580 0.950 . S
C556 N551 1.332 . S
C556 C555 1.382 . S
C556 H566 0.948 . S
N557 Co535 2.282 . S
N557 C561 1.332 . S
N557 C562 1.332 . S
C558 C559 1.388 . S
C558 C562 1.382 . S
C558 H581 0.950 . S
C559 C558 1.388 . S
C559 C560 1.386 . S
C560 C559 1.386 . S
C560 C561 1.382 . S
C560 H582 0.950 . S
C561 N557 1.332 . S
C561 C560 1.382 . S
C561 H563 0.952 . S
C562 N557 1.332 . S
C562 C558 1.382 . S
C562 H564 0.948 . S
H563 C561 0.952 . S
H564 C562 0.948 . S
H565 C554 0.952 1_545 S
H566 C556 0.948 . S
C567 C533 1.395 . S
C567 C537 1.391 . S
C568 C530 1.389 . S
C568 C550 1.392 . S
C569 C540 1.392 . S
C569 C542 1.389 . S
C570 C545 1.395 . S
C570 C547 1.391 . S
H571 C531 0.951 . S
H572 C532 0.950 . S
H573 C538 0.949 . S
H574 C539 0.950 . S
H575 C543 0.951 . S
H576 C544 0.950 . S
H577 C548 0.949 . S
H578 C549 0.950 . S
H579 C553 0.950 1_545 S
H580 C555 0.950 . S
H581 C558 0.950 . S
H582 C560 0.950 . S
C583 C584 1.443 1_455 S
C583 N587 1.376 . S
C583 C621 1.389 . S
C584 C583 1.443 1_655 S
C584 C585 1.340 . S
C584 H624 0.951 . S
C585 C584 1.340 . S
C585 C586 1.439 . S
C585 H625 0.950 . S
C586 C585 1.439 . S
C586 N587 1.374 1_655 S
C586 C620 1.395 . S
N587 C583 1.376 . S
N587 C586 1.374 1_455 S
N587 Co588 2.008 . S
Co588 N587 2.008 . S
Co588 N589 1.995 1_455 S
Co588 N594 2.008 . S
Co588 N599 1.995 . S
Co588 N604 2.282 . S
Co588 N610 2.282 . S
N589 Co588 1.995 1_655 S
N589 C590 1.376 . S
N589 C593 1.383 . S
C590 N589 1.376 . S
C590 C591 1.446 . S
C590 C620 1.391 . S
C591 C590 1.446 . S
C591 C592 1.339 . S
C591 H626 0.949 . S
C592 C591 1.339 . S
C592 C593 1.439 . S
C592 H627 0.950 . S
C593 N589 1.383 . S
C593 C592 1.439 . S
C593 C622 1.392 1_655 S
N594 Co588 2.008 . S
N594 C595 1.376 . S
N594 C598 1.374 . S
C595 N594 1.376 . S
C595 C596 1.443 . S
C595 C622 1.389 . S
C596 C595 1.443 . S
C596 C597 1.340 . S
C596 H628 0.951 . S
C597 C596 1.340 . S
C597 C598 1.439 . S
C597 H629 0.950 . S
C598 N594 1.374 . S
C598 C597 1.439 . S
C598 C623 1.395 . S
N599 Co588 1.995 . S
N599 C600 1.376 . S
N599 C603 1.383 . S
C600 N599 1.376 . S
C600 C601 1.446 . S
C600 C623 1.391 . S
C601 C600 1.446 . S
C601 C602 1.339 . S
C601 H630 0.949 . S
C602 C601 1.339 . S
C602 C603 1.439 . S
C602 H631 0.950 . S
C603 N599 1.383 . S
C603 C602 1.439 . S
C603 C621 1.392 . S
N604 Co588 2.282 . S
N604 C607 1.332 . S
N604 C609 1.332 . S
C605 C606 1.386 . S
C605 C608 1.388 . S
C606 C605 1.386 . S
C606 C607 1.382 . S
C606 H632 0.950 . S
C607 N604 1.332 . S
C607 C606 1.382 . S
C607 H618 0.952 . S
C608 C605 1.388 . S
C608 C609 1.382 . S
C608 H633 0.950 1_455 S
C609 N604 1.332 . S
C609 C608 1.382 . S
C609 H619 0.948 1_455 S
N610 Co588 2.282 . S
N610 C614 1.332 . S
N610 C615 1.332 . S
C611 C612 1.388 . S
C611 C615 1.382 . S
C611 H634 0.950 . S
C612 C611 1.388 . S
C612 C613 1.386 . S
C613 C612 1.386 . S
C613 C614 1.382 . S
C613 H635 0.950 1_455 S
C614 N610 1.332 . S
C614 C613 1.382 . S
C614 H616 0.952 1_455 S
C615 N610 1.332 . S
C615 C611 1.382 . S
C615 H617 0.948 . S
H616 C614 0.952 1_655 S
H617 C615 0.948 . S
H618 C607 0.952 . S
H619 C609 0.948 1_655 S
C620 C586 1.395 . S
C620 C590 1.391 . S
C621 C583 1.389 . S
C621 C603 1.392 . S
C622 C593 1.392 1_455 S
C622 C595 1.389 . S
C623 C598 1.395 . S
C623 C600 1.391 . S
H624 C584 0.951 . S
H625 C585 0.950 . S
H626 C591 0.949 . S
H627 C592 0.950 . S
H628 C596 0.951 . S
H629 C597 0.950 . S
H630 C601 0.949 . S
H631 C602 0.950 . S
H632 C606 0.950 . S
H633 C608 0.950 1_655 S
H634 C611 0.950 . S
H635 C613 0.950 1_655 S
C636 C637 1.443 . S
C636 N640 1.376 . S
C636 C674 1.389 . S
C637 C636 1.443 . S
C637 C638 1.340 . S
C637 H677 0.951 . S
C638 C637 1.340 . S
C638 C639 1.439 . S
C638 H678 0.950 . S
C639 C638 1.439 . S
C639 N640 1.374 . S
C639 C673 1.395 . S
N640 C636 1.376 . S
N640 C639 1.374 . S
N640 Co641 2.008 . S
Co641 N640 2.008 . S
Co641 N642 1.995 . S
Co641 N647 2.008 . S
Co641 N652 1.995 . S
Co641 N657 2.282 . S
Co641 N663 2.282 . S
N642 Co641 1.995 . S
N642 C643 1.376 . S
N642 C646 1.383 . S
C643 N642 1.376 . S
C643 C644 1.446 . S
C643 C673 1.391 . S
C644 C643 1.446 . S
C644 C645 1.339 . S
C644 H679 0.949 . S
C645 C644 1.339 . S
C645 C646 1.439 . S
C645 H680 0.950 . S
C646 N642 1.383 . S
C646 C645 1.439 . S
C646 C675 1.392 . S
N647 Co641 2.008 . S
N647 C648 1.376 . S
N647 C651 1.374 1_565 S
C648 N647 1.376 . S
C648 C649 1.443 1_565 S
C648 C675 1.389 . S
C649 C648 1.443 1_545 S
C649 C650 1.340 . S
C649 H681 0.951 . S
C650 C649 1.340 . S
C650 C651 1.439 . S
C650 H682 0.950 . S
C651 N647 1.374 1_545 S
C651 C650 1.439 . S
C651 C676 1.395 . S
N652 Co641 1.995 . S
N652 C653 1.376 1_565 S
N652 C656 1.383 . S
C653 N652 1.376 1_545 S
C653 C654 1.446 . S
C653 C676 1.391 . S
C654 C653 1.446 . S
C654 C655 1.339 . S
C654 H683 0.949 . S
C655 C654 1.339 . S
C655 C656 1.439 1_545 S
C655 H684 0.950 . S
C656 N652 1.383 . S
C656 C655 1.439 1_565 S
C656 C674 1.392 . S
N657 Co641 2.282 . S
N657 C660 1.332 . S
N657 C662 1.332 . S
C658 C659 1.386 . S
C658 C661 1.388 . S
C659 C658 1.386 . S
C659 C660 1.382 . S
C659 H685 0.950 1_565 S
C660 N657 1.332 . S
C660 C659 1.382 . S
C660 H671 0.952 1_565 S
C661 C658 1.388 . S
C661 C662 1.382 . S
C661 H686 0.950 . S
C662 N657 1.332 . S
C662 C661 1.382 . S
C662 H672 0.948 . S
N663 Co641 2.282 . S
N663 C667 1.332 . S
N663 C668 1.332 . S
C664 C665 1.388 . S
C664 C668 1.382 . S
C664 H687 0.950 . S
C665 C664 1.388 . S
C665 C666 1.386 . S
C666 C665 1.386 . S
C666 C667 1.382 . S
C666 H688 0.950 . S
C667 N663 1.332 . S
C667 C666 1.382 . S
C667 H669 0.952 . S
C668 N663 1.332 . S
C668 C664 1.382 . S
C668 H670 0.948 . S
H669 C667 0.952 . S
H670 C668 0.948 . S
H671 C660 0.952 1_545 S
H672 C662 0.948 . S
C673 C639 1.395 . S
C673 C643 1.391 . S
C674 C636 1.389 . S
C674 C656 1.392 . S
C675 C646 1.392 . S
C675 C648 1.389 . S
C676 C651 1.395 . S
C676 C653 1.391 . S
H677 C637 0.951 . S
H678 C638 0.950 . S
H679 C644 0.949 . S
H680 C645 0.950 . S
H681 C649 0.951 . S
H682 C650 0.950 . S
H683 C654 0.949 . S
H684 C655 0.950 . S
H685 C659 0.950 1_545 S
H686 C661 0.950 . S
H687 C664 0.950 . S
H688 C666 0.950 . S
C689 C690 1.443 1_455 S
C689 N693 1.376 . S
C689 C727 1.389 . S
C690 C689 1.443 1_655 S
C690 C691 1.340 . S
C690 H730 0.951 . S
C691 C690 1.340 . S
C691 C692 1.439 . S
C691 H731 0.950 . S
C692 C691 1.439 . S
C692 N693 1.374 1_655 S
C692 C726 1.395 . S
N693 C689 1.376 . S
N693 C692 1.374 1_455 S
N693 Co694 2.008 . S
Co694 N693 2.008 . S
Co694 N695 1.995 1_455 S
Co694 N700 2.008 . S
Co694 N705 1.995 . S
Co694 N710 2.282 . S
Co694 N716 2.282 . S
N695 Co694 1.995 1_655 S
N695 C696 1.376 . S
N695 C699 1.383 . S
C696 N695 1.376 . S
C696 C697 1.446 . S
C696 C726 1.391 . S
C697 C696 1.446 . S
C697 C698 1.339 . S
C697 H732 0.949 . S
C698 C697 1.339 . S
C698 C699 1.439 . S
C698 H733 0.950 . S
C699 N695 1.383 . S
C699 C698 1.439 . S
C699 C728 1.392 1_655 S
N700 Co694 2.008 . S
N700 C701 1.376 . S
N700 C704 1.374 . S
C701 N700 1.376 . S
C701 C702 1.443 . S
C701 C728 1.389 . S
C702 C701 1.443 . S
C702 C703 1.340 . S
C702 H734 0.951 . S
C703 C702 1.340 . S
C703 C704 1.439 . S
C703 H735 0.950 . S
C704 N700 1.374 . S
C704 C703 1.439 . S
C704 C729 1.395 . S
N705 Co694 1.995 . S
N705 C706 1.376 . S
N705 C709 1.383 . S
C706 N705 1.376 . S
C706 C707 1.446 . S
C706 C729 1.391 . S
C707 C706 1.446 . S
C707 C708 1.339 . S
C707 H736 0.949 . S
C708 C707 1.339 . S
C708 C709 1.439 . S
C708 H737 0.950 . S
C709 N705 1.383 . S
C709 C708 1.439 . S
C709 C727 1.392 . S
N710 Co694 2.282 . S
N710 C713 1.332 . S
N710 C715 1.332 . S
C711 C712 1.386 . S
C711 C714 1.388 . S
C712 C711 1.386 . S
C712 C713 1.382 . S
C712 H738 0.950 . S
C713 N710 1.332 . S
C713 C712 1.382 . S
C713 H724 0.952 . S
C714 C711 1.388 . S
C714 C715 1.382 . S
C714 H739 0.950 1_455 S
C715 N710 1.332 . S
C715 C714 1.382 . S
C715 H725 0.948 1_455 S
N716 Co694 2.282 . S
N716 C720 1.332 . S
N716 C721 1.332 . S
C717 C718 1.388 . S
C717 C721 1.382 . S
C717 H740 0.950 . S
C718 C717 1.388 . S
C718 C719 1.386 . S
C719 C718 1.386 . S
C719 C720 1.382 . S
C719 H741 0.950 1_455 S
C720 N716 1.332 . S
C720 C719 1.382 . S
C720 H722 0.952 1_455 S
C721 N716 1.332 . S
C721 C717 1.382 . S
C721 H723 0.948 . S
H722 C720 0.952 1_655 S
H723 C721 0.948 . S
H724 C713 0.952 . S
H725 C715 0.948 1_655 S
C726 C692 1.395 . S
C726 C696 1.391 . S
C727 C689 1.389 . S
C727 C709 1.392 . S
C728 C699 1.392 1_455 S
C728 C701 1.389 . S
C729 C704 1.395 . S
C729 C706 1.391 . S
H730 C690 0.951 . S
H731 C691 0.950 . S
H732 C697 0.949 . S
H733 C698 0.950 . S
H734 C702 0.951 . S
H735 C703 0.950 . S
H736 C707 0.949 . S
H737 C708 0.950 . S
H738 C712 0.950 . S
H739 C714 0.950 1_655 S
H740 C717 0.950 . S
H741 C719 0.950 1_655 S
C742 C743 1.443 . S
C742 N746 1.376 . S
C742 C780 1.389 . S
C743 C742 1.443 . S
C743 C744 1.340 . S
C743 H783 0.951 . S
C744 C743 1.340 . S
C744 C745 1.439 . S
C744 H784 0.950 . S
C745 C744 1.439 . S
C745 N746 1.374 . S
C745 C779 1.395 . S
N746 C742 1.376 . S
N746 C745 1.374 . S
N746 Co747 2.008 . S
Co747 N746 2.008 . S
Co747 N748 1.995 . S
Co747 N753 2.008 . S
Co747 N758 1.995 . S
Co747 N763 2.282 . S
Co747 N769 2.282 . S
N748 Co747 1.995 . S
N748 C749 1.376 . S
N748 C752 1.383 . S
C749 N748 1.376 . S
C749 C750 1.446 . S
C749 C779 1.391 . S
C750 C749 1.446 . S
C750 C751 1.339 . S
C750 H785 0.949 . S
C751 C750 1.339 . S
C751 C752 1.439 . S
C751 H786 0.950 . S
C752 N748 1.383 . S
C752 C751 1.439 . S
C752 C781 1.392 . S
N753 Co747 2.008 . S
N753 C754 1.376 . S
N753 C757 1.374 . S
C754 N753 1.376 . S
C754 C755 1.443 . S
C754 C781 1.389 . S
C755 C754 1.443 . S
C755 C756 1.340 . S
C755 H787 0.951 . S
C756 C755 1.340 . S
C756 C757 1.439 . S
C756 H788 0.950 . S
C757 N753 1.374 . S
C757 C756 1.439 . S
C757 C782 1.395 . S
N758 Co747 1.995 . S
N758 C759 1.376 . S
N758 C762 1.383 . S
C759 N758 1.376 . S
C759 C760 1.446 . S
C759 C782 1.391 . S
C760 C759 1.446 . S
C760 C761 1.339 . S
C760 H789 0.949 . S
C761 C760 1.339 . S
C761 C762 1.439 . S
C761 H790 0.950 . S
C762 N758 1.383 . S
C762 C761 1.439 . S
C762 C780 1.392 . S
N763 Co747 2.282 . S
N763 C766 1.332 . S
N763 C768 1.332 . S
C764 C765 1.386 . S
C764 C767 1.388 . S
C765 C764 1.386 . S
C765 C766 1.382 . S
C765 H791 0.950 . S
C766 N763 1.332 . S
C766 C765 1.382 . S
C766 H777 0.952 . S
C767 C764 1.388 . S
C767 C768 1.382 . S
C767 H792 0.950 . S
C768 N763 1.332 . S
C768 C767 1.382 . S
C768 H778 0.948 . S
N769 Co747 2.282 . S
N769 C773 1.332 . S
N769 C774 1.332 . S
C770 C771 1.388 . S
C770 C774 1.382 . S
C770 H793 0.950 . S
C771 C770 1.388 . S
C771 C772 1.386 . S
C772 C771 1.386 . S
C772 C773 1.382 . S
C772 H794 0.950 . S
C773 N769 1.332 . S
C773 C772 1.382 . S
C773 H775 0.952 . S
C774 N769 1.332 . S
C774 C770 1.382 . S
C774 H776 0.948 . S
H775 C773 0.952 . S
H776 C774 0.948 . S
H777 C766 0.952 . S
H778 C768 0.948 . S
C779 C745 1.395 . S
C779 C749 1.391 . S
C780 C742 1.389 . S
C780 C762 1.392 . S
C781 C752 1.392 . S
C781 C754 1.389 . S
C782 C757 1.395 . S
C782 C759 1.391 . S
H783 C743 0.951 . S
H784 C744 0.950 . S
H785 C750 0.949 . S
H786 C751 0.950 . S
H787 C755 0.951 . S
H788 C756 0.950 . S
H789 C760 0.949 . S
H790 C761 0.950 . S
H791 C765 0.950 . S
H792 C767 0.950 . S
H793 C770 0.950 . S
H794 C772 0.950 . S
C795 C796 1.443 . S
C795 N799 1.376 . S
C795 C833 1.389 . S
C796 C795 1.443 . S
C796 C797 1.340 . S
C796 H836 0.951 . S
C797 C796 1.340 . S
C797 C798 1.439 . S
C797 H837 0.950 . S
C798 C797 1.439 . S
C798 N799 1.374 . S
C798 C832 1.395 . S
N799 C795 1.376 . S
N799 C798 1.374 . S
N799 Co800 2.008 . S
Co800 N799 2.008 . S
Co800 N801 1.995 . S
Co800 N806 2.008 . S
Co800 N811 1.995 . S
Co800 N816 2.282 . S
Co800 N822 2.282 . S
N801 Co800 1.995 . S
N801 C802 1.376 . S
N801 C805 1.383 . S
C802 N801 1.376 . S
C802 C803 1.446 . S
C802 C832 1.391 . S
C803 C802 1.446 . S
C803 C804 1.339 . S
C803 H838 0.949 . S
C804 C803 1.339 . S
C804 C805 1.439 . S
C804 H839 0.950 . S
C805 N801 1.383 . S
C805 C804 1.439 . S
C805 C834 1.392 . S
N806 Co800 2.008 . S
N806 C807 1.376 . S
N806 C810 1.374 . S
C807 N806 1.376 . S
C807 C808 1.443 . S
C807 C834 1.389 . S
C808 C807 1.443 . S
C808 C809 1.340 . S
C808 H840 0.951 . S
C809 C808 1.340 . S
C809 C810 1.439 . S
C809 H841 0.950 . S
C810 N806 1.374 . S
C810 C809 1.439 . S
C810 C835 1.395 . S
N811 Co800 1.995 . S
N811 C812 1.376 . S
N811 C815 1.383 . S
C812 N811 1.376 . S
C812 C813 1.446 . S
C812 C835 1.391 . S
C813 C812 1.446 . S
C813 C814 1.339 . S
C813 H842 0.949 . S
C814 C813 1.339 . S
C814 C815 1.439 . S
C814 H843 0.950 . S
C815 N811 1.383 . S
C815 C814 1.439 . S
C815 C833 1.392 . S
N816 Co800 2.282 . S
N816 C819 1.332 . S
N816 C821 1.332 . S
C817 C818 1.386 . S
C817 C820 1.388 . S
C818 C817 1.386 . S
C818 C819 1.382 . S
C818 H844 0.950 . S
C819 N816 1.332 . S
C819 C818 1.382 . S
C819 H830 0.952 . S
C820 C817 1.388 . S
C820 C821 1.382 . S
C820 H845 0.950 . S
C821 N816 1.332 . S
C821 C820 1.382 . S
C821 H831 0.948 . S
N822 Co800 2.282 . S
N822 C826 1.332 . S
N822 C827 1.332 . S
C823 C824 1.388 . S
C823 C827 1.382 . S
C823 H846 0.950 . S
C824 C823 1.388 . S
C824 C825 1.386 . S
C825 C824 1.386 . S
C825 C826 1.382 . S
C825 H847 0.950 . S
C826 N822 1.332 . S
C826 C825 1.382 . S
C826 H828 0.952 . S
C827 N822 1.332 . S
C827 C823 1.382 . S
C827 H829 0.948 . S
H828 C826 0.952 . S
H829 C827 0.948 . S
H830 C819 0.952 . S
H831 C821 0.948 . S
C832 C798 1.395 . S
C832 C802 1.391 . S
C833 C795 1.389 . S
C833 C815 1.392 . S
C834 C805 1.392 . S
C834 C807 1.389 . S
C835 C810 1.395 . S
C835 C812 1.391 . S
H836 C796 0.951 . S
H837 C797 0.950 . S
H838 C803 0.949 . S
H839 C804 0.950 . S
H840 C808 0.951 . S
H841 C809 0.950 . S
H842 C813 0.949 . S
H843 C814 0.950 . S
H844 C818 0.950 . S
H845 C820 0.950 . S
H846 C823 0.950 . S
H847 C825 0.950 . S
H848 C854 0.930 1_545 S
H849 C857 0.930 . S
H850 C858 0.942 . S
H851 C859 0.930 1_565 S
H852 C862 0.930 . S
H853 C863 0.944 . S
C854 H848 0.930 1_565 S
C854 C855 1.355 . S
C854 C856 1.415 1_565 S
C855 C854 1.355 . S
C855 C857 1.419 . S
C856 C854 1.415 1_545 S
C856 C861 1.425 1_645 S
C856 C863 1.416 . S
C857 H849 0.930 . S
C857 C855 1.419 . S
C857 C858 1.345 1_655 S
C858 H850 0.942 . S
C858 C857 1.345 1_455 S
C858 C861 1.415 . S
C859 H851 0.930 1_545 S
C859 C860 1.355 . S
C859 C861 1.415 1_545 S
C860 C859 1.355 . S
C860 C862 1.419 . S
C861 C856 1.425 1_465 S
C861 C858 1.415 . S
C861 C859 1.415 1_565 S
C862 H852 0.930 . S
C862 C860 1.419 . S
C862 C863 1.342 1_455 S
C863 H853 0.944 . S
C863 C856 1.416 . S
C863 C862 1.342 1_655 S
H864 C870 0.930 . S
H865 C873 0.930 . S
H866 C874 0.930 . S
H867 C875 0.930 . S
H868 C878 0.930 . S
H869 C879 0.930 . S
C870 H864 0.930 . S
C870 C871 1.355 1_455 S
C870 C872 1.415 . S
C871 C870 1.355 1_655 S
C871 C873 1.419 . S
C872 C870 1.415 . S
C872 C877 1.425 1_455 S
C872 C879 1.409 . S
C873 H865 0.930 . S
C873 C871 1.419 . S
C873 C874 1.362 . S
C874 H866 0.930 . S
C874 C873 1.362 . S
C874 C877 1.409 . S
C875 H867 0.930 . S
C875 C876 1.355 1_655 S
C875 C877 1.415 . S
C876 C875 1.355 1_455 S
C876 C878 1.419 . S
C877 C872 1.425 1_655 S
C877 C874 1.409 . S
C877 C875 1.415 . S
C878 H868 0.930 . S
C878 C876 1.419 . S
C878 C879 1.362 . S
C879 H869 0.930 . S
C879 C872 1.409 . S
C879 C878 1.362 . S
H880 C886 0.930 . S
H881 C889 0.930 . S
H882 C890 0.930 . S
H883 C891 0.930 . S
H884 C894 0.930 . S
H885 C895 0.930 . S
C886 H880 0.930 . S
C886 C887 1.355 . S
C886 C888 1.415 . S
C887 C886 1.355 . S
C887 C889 1.419 . S
C888 C886 1.415 . S
C888 C893 1.425 . S
C888 C895 1.409 . S
C889 H881 0.930 . S
C889 C887 1.419 . S
C889 C890 1.362 . S
C890 H882 0.930 . S
C890 C889 1.362 . S
C890 C893 1.409 . S
C891 H883 0.930 . S
C891 C892 1.355 . S
C891 C893 1.415 . S
C892 C891 1.355 . S
C892 C894 1.419 . S
C893 C888 1.425 . S
C893 C890 1.409 . S
C893 C891 1.415 . S
C894 H884 0.930 . S
C894 C892 1.419 . S
C894 C895 1.362 . S
C895 H885 0.930 . S
C895 C888 1.409 . S
C895 C894 1.362 . S
H896 C902 0.930 . S
H897 C905 0.930 . S
H898 C906 0.930 . S
H899 C907 0.930 . S
H900 C910 0.930 . S
H901 C911 0.930 . S
C902 H896 0.930 . S
C902 C903 1.355 . S
C902 C904 1.419 . S
C903 C902 1.355 . S
C903 C905 1.419 . S
C904 C902 1.419 . S
C904 C909 1.425 1_545 S
C904 C911 1.405 1_545 S
C905 H897 0.930 . S
C905 C903 1.419 . S
C905 C906 1.362 . S
C906 H898 0.930 . S
C906 C905 1.362 . S
C906 C909 1.404 1_545 S
C907 H899 0.930 . S
C907 C908 1.355 . S
C907 C909 1.419 . S
C908 C907 1.355 . S
C908 C910 1.419 . S
C909 C904 1.425 1_565 S
C909 C906 1.404 1_565 S
C909 C907 1.419 . S
C910 H900 0.930 . S
C910 C908 1.419 . S
C910 C911 1.362 . S
C911 H901 0.930 . S
C911 C904 1.405 1_565 S
C911 C910 1.362 . S
H912 C918 0.930 . S
H913 C921 0.930 . S
H914 C922 0.930 . S
H915 C923 0.930 . S
H916 C926 0.930 . S
H917 C927 0.930 . S
C918 H912 0.930 . S
C918 C919 1.355 . S
C918 C920 1.415 1_455 S
C919 C918 1.355 . S
C919 C921 1.419 . S
C920 C918 1.415 1_655 S
C920 C925 1.425 1_655 S
C920 C927 1.409 . S
C921 H913 0.930 . S
C921 C919 1.419 . S
C921 C922 1.362 . S
C922 H914 0.930 . S
C922 C921 1.362 . S
C922 C925 1.409 . S
C923 H915 0.930 . S
C923 C924 1.355 . S
C923 C925 1.415 1_655 S
C924 C923 1.355 . S
C924 C926 1.419 . S
C925 C920 1.425 1_455 S
C925 C922 1.409 . S
C925 C923 1.415 1_455 S
C926 H916 0.930 . S
C926 C924 1.419 . S
C926 C927 1.362 . S
C927 H917 0.930 . S
C927 C920 1.409 . S
C927 C926 1.362 . S
H928 C934 0.930 . S
H929 C937 0.930 . S
H930 C938 0.930 . S
H931 C939 0.930 . S
H932 C942 0.930 . S
H933 C943 0.930 . S
C934 H928 0.930 . S
C934 C935 1.355 . S
C934 C936 1.415 . S
C935 C934 1.355 . S
C935 C937 1.419 . S
C936 C934 1.415 . S
C936 C941 1.425 . S
C936 C943 1.409 . S
C937 H929 0.930 . S
C937 C935 1.419 . S
C937 C938 1.362 . S
C938 H930 0.930 . S
C938 C937 1.362 . S
C938 C941 1.409 . S
C939 H931 0.930 . S
C939 C940 1.355 . S
C939 C941 1.415 . S
C940 C939 1.355 . S
C940 C942 1.419 . S
C941 C936 1.425 . S
C941 C938 1.409 . S
C941 C939 1.415 . S
C942 H932 0.930 . S
C942 C940 1.419 . S
C942 C943 1.362 . S
C943 H933 0.930 . S
C943 C936 1.409 . S
C943 C942 1.362 . S
H944 C950 0.930 1_565 S
H945 C953 0.930 . S
H946 C954 0.930 . S
H947 C955 0.930 1_545 S
H948 C958 0.930 . S
H949 C959 0.930 . S
C950 H944 0.930 1_545 S
C950 C951 1.355 . S
C950 C952 1.415 1_545 S
C951 C950 1.355 . S
C951 C953 1.419 . S
C952 C950 1.415 1_565 S
C952 C957 1.425 1_565 S
C952 C959 1.409 . S
C953 H945 0.930 . S
C953 C951 1.419 . S
C953 C954 1.362 . S
C954 H946 0.930 . S
C954 C953 1.362 . S
C954 C957 1.409 . S
C955 H947 0.930 1_565 S
C955 C956 1.355 . S
C955 C957 1.415 1_565 S
C956 C955 1.355 . S
C956 C958 1.419 . S
C957 C952 1.425 1_545 S
C957 C954 1.409 . S
C957 C955 1.415 1_545 S
C958 H948 0.930 . S
C958 C956 1.419 . S
C958 C959 1.362 . S
C959 H949 0.930 . S
C959 C952 1.409 . S
C959 C958 1.362 . S
H960 C966 0.930 . S
H961 C969 0.930 . S
H962 C970 0.930 . S
H963 C971 0.930 . S
H964 C974 0.930 . S
H965 C975 0.930 . S
C966 H960 0.930 . S
C966 C967 1.355 . S
C966 C968 1.412 1_455 S
C967 C966 1.355 . S
C967 C969 1.419 . S
C968 C966 1.412 1_655 S
C968 C973 1.425 1_645 S
C968 C975 1.412 1_545 S
C969 H961 0.930 . S
C969 C967 1.419 . S
C969 C970 1.362 . S
C970 H962 0.930 . S
C970 C969 1.362 . S
C970 C973 1.411 1_545 S
C971 H963 0.930 . S
C971 C972 1.355 . S
C971 C973 1.413 1_655 S
C972 C971 1.355 . S
C972 C974 1.419 . S
C973 C968 1.425 1_465 S
C973 C970 1.411 1_565 S
C973 C971 1.413 1_455 S
C974 H964 0.930 . S
C974 C972 1.419 . S
C974 C975 1.362 . S
C975 H965 0.930 . S
C975 C968 1.412 1_565 S
C975 C974 1.362 . S
H976 C982 0.930 1_545 S
H977 C985 0.930 . S
H978 C986 0.930 . S
H979 C987 0.930 1_565 S
H980 C990 0.930 . S
H981 C991 0.930 . S
C982 H976 0.930 1_565 S
C982 C983 1.355 . S
C982 C984 1.415 1_565 S
C983 C982 1.355 . S
C983 C985 1.419 . S
C984 C982 1.415 1_545 S
C984 C989 1.425 1_545 S
C984 C991 1.409 . S
C985 H977 0.930 . S
C985 C983 1.419 . S
C985 C986 1.362 . S
C986 H978 0.930 . S
C986 C985 1.362 . S
C986 C989 1.409 . S
C987 H979 0.930 1_545 S
C987 C988 1.355 . S
C987 C989 1.415 1_545 S
C988 C987 1.355 . S
C988 C990 1.419 . S
C989 C984 1.425 1_565 S
C989 C986 1.409 . S
C989 C987 1.415 1_565 S
C990 H980 0.930 . S
C990 C988 1.419 . S
C990 C991 1.362 . S
C991 H981 0.930 . S
C991 C984 1.409 . S
C991 C990 1.362 . S
H992 C998 0.930 . S
H993 C1001 0.930 . S
H994 C1002 0.930 . S
H995 C1003 0.930 . S
H996 C1006 0.930 . S
H997 C1007 0.930 . S
C998 H992 0.930 . S
C998 C999 1.355 . S
C998 C1000 1.415 1_565 S
C999 C998 1.355 . S
C999 C1001 1.419 1_655 S
C1000 C998 1.415 1_545 S
C1000 C1005 1.425 1_645 S
C1000 C1007 1.409 . S
C1001 H993 0.930 . S
C1001 C999 1.419 1_455 S
C1001 C1002 1.362 . S
C1002 H994 0.930 . S
C1002 C1001 1.362 . S
C1002 C1005 1.409 . S
C1003 H995 0.930 . S
C1003 C1004 1.355 . S
C1003 C1005 1.415 1_545 S
C1004 C1003 1.355 . S
C1004 C1006 1.419 1_455 S
C1005 C1000 1.425 1_465 S
C1005 C1002 1.409 . S
C1005 C1003 1.415 1_565 S
C1006 H996 0.930 . S
C1006 C1004 1.419 1_655 S
C1006 C1007 1.362 . S
C1007 H997 0.930 . S
C1007 C1000 1.409 . S
C1007 C1006 1.362 . S
H1008 C1014 0.930 . S
H1009 C1017 0.930 . S
H1010 C1018 0.930 . S
H1011 C1019 0.930 . S
H1012 C1022 0.930 . S
H1013 C1023 0.930 . S
C1014 H1008 0.930 . S
C1014 C1015 1.355 . S
C1014 C1016 1.415 1_455 S
C1015 C1014 1.355 . S
C1015 C1017 1.419 . S
C1016 C1014 1.415 1_655 S
C1016 C1021 1.425 1_655 S
C1016 C1023 1.409 . S
C1017 H1009 0.930 . S
C1017 C1015 1.419 . S
C1017 C1018 1.362 . S
C1018 H1010 0.930 . S
C1018 C1017 1.362 . S
C1018 C1021 1.409 . S
C1019 H1011 0.930 . S
C1019 C1020 1.355 . S
C1019 C1021 1.415 1_655 S
C1020 C1019 1.355 . S
C1020 C1022 1.419 . S
C1021 C1016 1.425 1_455 S
C1021 C1018 1.409 . S
C1021 C1019 1.415 1_455 S
C1022 H1012 0.930 . S
C1022 C1020 1.419 . S
C1022 C1023 1.362 . S
C1023 H1013 0.930 . S
C1023 C1016 1.409 . S
C1023 C1022 1.362 . S
H1024 C1030 0.930 . S
H1025 C1033 0.930 . S
H1026 C1034 0.930 . S
H1027 C1035 0.930 . S
H1028 C1038 0.930 . S
H1029 C1039 0.930 . S
C1030 H1024 0.930 . S
C1030 C1031 1.355 . S
C1030 C1032 1.415 . S
C1031 C1030 1.355 . S
C1031 C1033 1.419 . S
C1032 C1030 1.415 . S
C1032 C1037 1.425 . S
C1032 C1039 1.409 . S
C1033 H1025 0.930 . S
C1033 C1031 1.419 . S
C1033 C1034 1.362 . S
C1034 H1026 0.930 . S
C1034 C1033 1.362 . S
C1034 C1037 1.409 . S
C1035 H1027 0.930 . S
C1035 C1036 1.355 . S
C1035 C1037 1.415 . S
C1036 C1035 1.355 . S
C1036 C1038 1.419 . S
C1037 C1032 1.425 . S
C1037 C1034 1.409 . S
C1037 C1035 1.415 . S
C1038 H1028 0.930 . S
C1038 C1036 1.419 . S
C1038 C1039 1.362 . S
C1039 H1029 0.930 . S
C1039 C1032 1.409 . S
C1039 C1038 1.362 . S
H1040 C1046 0.930 . S
H1041 C1049 0.930 . S
H1042 C1050 0.930 . S
H1043 C1051 0.930 . S
H1044 C1054 0.930 . S
H1045 C1055 0.930 . S
C1046 H1040 0.930 . S
C1046 C1047 1.355 . S
C1046 C1048 1.415 . S
C1047 C1046 1.355 . S
C1047 C1049 1.419 . S
C1048 C1046 1.415 . S
C1048 C1053 1.425 . S
C1048 C1055 1.409 . S
C1049 H1041 0.930 . S
C1049 C1047 1.419 . S
C1049 C1050 1.362 . S
C1050 H1042 0.930 . S
C1050 C1049 1.362 . S
C1050 C1053 1.409 . S
C1051 H1043 0.930 . S
C1051 C1052 1.355 . S
C1051 C1053 1.415 . S
C1052 C1051 1.355 . S
C1052 C1054 1.419 . S
C1053 C1048 1.425 . S
C1053 C1050 1.409 . S
C1053 C1051 1.415 . S
C1054 H1044 0.930 . S
C1054 C1052 1.419 . S
C1054 C1055 1.362 . S
C1055 H1045 0.930 . S
C1055 C1048 1.409 . S
C1055 C1054 1.362 . S
H1056 C1062 0.930 . S
H1057 C1065 0.930 . S
H1058 C1066 0.930 . S
H1059 C1067 0.930 . S
H1060 C1070 0.930 . S
H1061 C1071 0.930 . S
C1062 H1056 0.930 . S
C1062 C1063 1.355 . S
C1062 C1064 1.415 1_565 S
C1063 C1062 1.355 . S
C1063 C1065 1.419 . S
C1064 C1062 1.415 1_545 S
C1064 C1069 1.425 1_545 S
C1064 C1071 1.409 . S
C1065 H1057 0.930 . S
C1065 C1063 1.419 . S
C1065 C1066 1.362 . S
C1066 H1058 0.930 . S
C1066 C1065 1.362 . S
C1066 C1069 1.409 . S
C1067 H1059 0.930 . S
C1067 C1068 1.355 . S
C1067 C1069 1.415 1_545 S
C1068 C1067 1.355 . S
C1068 C1070 1.419 . S
C1069 C1064 1.425 1_565 S
C1069 C1066 1.409 . S
C1069 C1067 1.415 1_565 S
C1070 H1060 0.930 . S
C1070 C1068 1.419 . S
C1070 C1071 1.362 . S
C1071 H1061 0.930 . S
C1071 C1064 1.409 . S
C1071 C1070 1.362 . S
H1072 C1078 0.930 . S
H1073 C1081 0.930 . S
H1074 C1082 0.930 . S
H1075 C1083 0.930 . S
H1076 C1086 0.930 . S
H1077 C1087 0.930 . S
C1078 H1072 0.930 . S
C1078 C1079 1.355 . S
C1078 C1080 1.415 1_565 S
C1079 C1078 1.355 . S
C1079 C1081 1.419 . S
C1080 C1078 1.415 1_545 S
C1080 C1085 1.425 1_645 S
C1080 C1087 1.409 . S
C1081 H1073 0.930 . S
C1081 C1079 1.419 . S
C1081 C1082 1.362 1_655 S
C1082 H1074 0.930 . S
C1082 C1081 1.362 1_455 S
C1082 C1085 1.409 . S
C1083 H1075 0.930 . S
C1083 C1084 1.355 . S
C1083 C1085 1.415 1_545 S
C1084 C1083 1.355 . S
C1084 C1086 1.419 . S
C1085 C1080 1.425 1_465 S
C1085 C1082 1.409 . S
C1085 C1083 1.415 1_565 S
C1086 H1076 0.930 . S
C1086 C1084 1.419 . S
C1086 C1087 1.362 1_455 S
C1087 H1077 0.930 . S
C1087 C1080 1.409 . S
C1087 C1086 1.362 1_655 S
H1088 C1094 0.930 . S
H1089 C1097 0.930 . S
H1090 C1098 0.930 . S
H1091 C1099 0.930 . S
H1092 C1102 0.930 . S
H1093 C1103 0.930 . S
C1094 H1088 0.930 . S
C1094 C1095 1.355 1_655 S
C1094 C1096 1.415 . S
C1095 C1094 1.355 1_455 S
C1095 C1097 1.419 . S
C1096 C1094 1.415 . S
C1096 C1101 1.425 1_655 S
C1096 C1103 1.409 . S
C1097 H1089 0.930 . S
C1097 C1095 1.419 . S
C1097 C1098 1.362 . S
C1098 H1090 0.930 . S
C1098 C1097 1.362 . S
C1098 C1101 1.409 . S
C1099 H1091 0.930 . S
C1099 C1100 1.355 1_455 S
C1099 C1101 1.415 . S
C1100 C1099 1.355 1_655 S
C1100 C1102 1.419 . S
C1101 C1096 1.425 1_455 S
C1101 C1098 1.409 . S
C1101 C1099 1.415 . S
C1102 H1092 0.930 . S
C1102 C1100 1.419 . S
C1102 C1103 1.362 . S
C1103 H1093 0.930 . S
C1103 C1096 1.409 . S
C1103 C1102 1.362 . S
H1104 C1110 0.930 1_565 S
H1105 C1113 0.930 . S
H1106 C1114 0.930 . S
H1107 C1115 0.930 . S
H1108 C1118 0.930 . S
H1109 C1119 0.930 . S
C1110 H1104 0.930 1_545 S
C1110 C1111 1.355 . S
C1110 C1112 1.415 . S
C1111 C1110 1.355 . S
C1111 C1113 1.419 . S
C1112 C1110 1.415 . S
C1112 C1117 1.425 . S
C1112 C1119 1.409 1_545 S
C1113 H1105 0.930 . S
C1113 C1111 1.419 . S
C1113 C1114 1.362 . S
C1114 H1106 0.930 . S
C1114 C1113 1.362 . S
C1114 C1117 1.409 . S
C1115 H1107 0.930 . S
C1115 C1116 1.355 . S
C1115 C1117 1.415 . S
C1116 C1115 1.355 . S
C1116 C1118 1.419 1_545 S
C1117 C1112 1.425 . S
C1117 C1114 1.409 . S
C1117 C1115 1.415 . S
C1118 H1108 0.930 . S
C1118 C1116 1.419 1_565 S
C1118 C1119 1.362 . S
C1119 H1109 0.930 . S
C1119 C1112 1.409 1_565 S
C1119 C1118 1.362 . S
H1120 C1126 0.930 . S
H1121 C1129 0.930 . S
H1122 C1130 0.930 . S
H1123 C1131 0.930 . S
H1124 C1134 0.930 . S
H1125 C1135 0.930 . S
C1126 H1120 0.930 . S
C1126 C1127 1.355 1_455 S
C1126 C1128 1.412 1_455 S
C1127 C1126 1.355 1_655 S
C1127 C1129 1.419 . S
C1128 C1126 1.412 1_655 S
C1128 C1133 1.445 . S
C1128 C1135 1.393 1_655 S
C1129 H1121 0.930 . S
C1129 C1127 1.419 . S
C1129 C1130 1.362 . S
C1130 H1122 0.930 . S
C1130 C1129 1.362 . S
C1130 C1133 1.409 . S
C1131 H1123 0.930 . S
C1131 C1132 1.355 . S
C1131 C1133 1.415 . S
C1132 C1131 1.355 . S
C1132 C1134 1.419 1_655 S
C1133 C1128 1.445 . S
C1133 C1130 1.409 . S
C1133 C1131 1.415 . S
C1134 H1124 0.930 . S
C1134 C1132 1.419 1_455 S
C1134 C1135 1.362 . S
C1135 H1125 0.930 . S
C1135 C1128 1.393 1_455 S
C1135 C1134 1.362 . S
H1136 C1142 0.930 . S
H1137 C1145 0.930 . S
H1138 C1146 0.930 . S
H1139 C1147 0.930 . S
H1140 C1150 0.930 . S
H1141 C1151 0.930 . S
C1142 H1136 0.930 . S
C1142 C1143 1.355 . S
C1142 C1144 1.415 . S
C1143 C1142 1.355 . S
C1143 C1145 1.419 . S
C1144 C1142 1.415 . S
C1144 C1149 1.425 . S
C1144 C1151 1.409 . S
C1145 H1137 0.930 . S
C1145 C1143 1.419 . S
C1145 C1146 1.362 . S
C1146 H1138 0.930 . S
C1146 C1145 1.362 . S
C1146 C1149 1.409 . S
C1147 H1139 0.930 . S
C1147 C1148 1.355 . S
C1147 C1149 1.415 . S
C1148 C1147 1.355 . S
C1148 C1150 1.419 . S
C1149 C1144 1.425 . S
C1149 C1146 1.409 . S
C1149 C1147 1.415 . S
C1150 H1140 0.930 . S
C1150 C1148 1.419 . S
C1150 C1151 1.362 . S
C1151 H1141 0.930 . S
C1151 C1144 1.409 . S
C1151 C1150 1.362 . S
H1152 C1158 0.930 . S
H1153 C1161 0.930 . S
H1154 C1162 0.930 . S
H1155 C1163 0.930 . S
H1156 C1166 0.930 . S
H1157 C1167 0.930 . S
C1158 H1152 0.930 . S
C1158 C1159 1.355 . S
C1158 C1160 1.415 . S
C1159 C1158 1.355 . S
C1159 C1161 1.419 . S
C1160 C1158 1.415 . S
C1160 C1165 1.425 . S
C1160 C1167 1.409 . S
C1161 H1153 0.930 . S
C1161 C1159 1.419 . S
C1161 C1162 1.362 . S
C1162 H1154 0.930 . S
C1162 C1161 1.362 . S
C1162 C1165 1.409 . S
C1163 H1155 0.930 . S
C1163 C1164 1.355 . S
C1163 C1165 1.415 . S
C1164 C1163 1.355 . S
C1164 C1166 1.419 . S
C1165 C1160 1.425 . S
C1165 C1162 1.409 . S
C1165 C1163 1.415 . S
C1166 H1156 0.930 . S
C1166 C1164 1.419 . S
C1166 C1167 1.362 . S
C1167 H1157 0.930 . S
C1167 C1160 1.409 . S
C1167 C1166 1.362 . S
H1168 C1174 0.930 . S
H1169 C1177 0.930 . S
H1170 C1178 0.930 . S
H1171 C1179 0.930 . S
H1172 C1182 0.930 . S
H1173 C1183 0.930 . S
C1174 H1168 0.930 . S
C1174 C1175 1.355 . S
C1174 C1176 1.415 . S
C1175 C1174 1.355 . S
C1175 C1177 1.419 . S
C1176 C1174 1.415 . S
C1176 C1181 1.425 . S
C1176 C1183 1.409 . S
C1177 H1169 0.930 . S
C1177 C1175 1.419 . S
C1177 C1178 1.362 . S
C1178 H1170 0.930 . S
C1178 C1177 1.362 . S
C1178 C1181 1.409 . S
C1179 H1171 0.930 . S
C1179 C1180 1.355 . S
C1179 C1181 1.415 . S
C1180 C1179 1.355 . S
C1180 C1182 1.419 . S
C1181 C1176 1.425 . S
C1181 C1178 1.409 . S
C1181 C1179 1.415 . S
C1182 H1172 0.930 . S
C1182 C1180 1.419 . S
C1182 C1183 1.362 . S
C1183 H1173 0.930 . S
C1183 C1176 1.409 . S
C1183 C1182 1.362 . S
H1184 C1190 0.930 . S
H1185 C1193 0.930 . S
H1186 C1194 0.930 . S
H1187 C1195 0.930 . S
H1188 C1198 0.930 . S
H1189 C1199 0.930 . S
C1190 H1184 0.930 . S
C1190 C1191 1.355 . S
C1190 C1192 1.415 . S
C1191 C1190 1.355 . S
C1191 C1193 1.419 . S
C1192 C1190 1.415 . S
C1192 C1197 1.425 . S
C1192 C1199 1.409 . S
C1193 H1185 0.930 . S
C1193 C1191 1.419 . S
C1193 C1194 1.362 . S
C1194 H1186 0.930 . S
C1194 C1193 1.362 . S
C1194 C1197 1.409 . S
C1195 H1187 0.930 . S
C1195 C1196 1.355 . S
C1195 C1197 1.415 . S
C1196 C1195 1.355 . S
C1196 C1198 1.419 . S
C1197 C1192 1.425 . S
C1197 C1194 1.409 . S
C1197 C1195 1.415 . S
C1198 H1188 0.930 . S
C1198 C1196 1.419 . S
C1198 C1199 1.362 . S
C1199 H1189 0.930 . S
C1199 C1192 1.409 . S
C1199 C1198 1.362 . S
H1200 C1206 0.930 . S
H1201 C1209 0.930 . S
H1202 C1210 0.930 . S
H1203 C1211 0.930 1_545 S
H1204 C1214 0.930 . S
H1205 C1215 0.930 . S
C1206 H1200 0.930 . S
C1206 C1207 1.355 . S
C1206 C1208 1.415 . S
C1207 C1206 1.355 . S
C1207 C1209 1.419 1_565 S
C1208 C1206 1.415 . S
C1208 C1213 1.425 . S
C1208 C1215 1.409 . S
C1209 H1201 0.930 . S
C1209 C1207 1.419 1_545 S
C1209 C1210 1.362 . S
C1210 H1202 0.930 . S
C1210 C1209 1.362 . S
C1210 C1213 1.409 1_545 S
C1211 H1203 0.930 1_565 S
C1211 C1212 1.355 . S
C1211 C1213 1.415 . S
C1212 C1211 1.355 . S
C1212 C1214 1.419 . S
C1213 C1208 1.425 . S
C1213 C1210 1.409 1_565 S
C1213 C1211 1.415 . S
C1214 H1204 0.930 . S
C1214 C1212 1.419 . S
C1214 C1215 1.362 . S
C1215 H1205 0.930 . S
C1215 C1208 1.409 . S
C1215 C1214 1.362 . S
H1216 C1222 0.930 . S
H1217 C1225 0.930 . S
H1218 C1226 0.930 . S
H1219 C1227 0.930 . S
H1220 C1230 0.930 . S
H1221 C1231 0.930 1_655 S
C1222 H1216 0.930 . S
C1222 C1223 1.355 . S
C1222 C1224 1.415 . S
C1223 C1222 1.355 . S
C1223 C1225 1.419 . S
C1224 C1222 1.415 . S
C1224 C1229 1.425 . S
C1224 C1231 1.409 . S
C1225 H1217 0.930 . S
C1225 C1223 1.419 . S
C1225 C1226 1.362 . S
C1226 H1218 0.930 . S
C1226 C1225 1.362 . S
C1226 C1229 1.409 . S
C1227 H1219 0.930 . S
C1227 C1228 1.355 . S
C1227 C1229 1.415 . S
C1228 C1227 1.355 . S
C1228 C1230 1.419 . S
C1229 C1224 1.425 . S
C1229 C1226 1.409 . S
C1229 C1227 1.415 . S
C1230 H1220 0.930 . S
C1230 C1228 1.419 . S
C1230 C1231 1.362 . S
C1231 H1221 0.930 1_455 S
C1231 C1224 1.409 . S
C1231 C1230 1.362 . S
H1232 C1238 0.930 . S
H1233 C1241 0.930 . S
H1234 C1242 0.930 . S
H1235 C1243 0.930 . S
H1236 C1246 0.930 . S
H1237 C1247 0.930 . S
C1238 H1232 0.930 . S
C1238 C1239 1.355 . S
C1238 C1240 1.415 . S
C1239 C1238 1.355 . S
C1239 C1241 1.419 . S
C1240 C1238 1.415 . S
C1240 C1245 1.425 . S
C1240 C1247 1.409 . S
C1241 H1233 0.930 . S
C1241 C1239 1.419 . S
C1241 C1242 1.362 . S
C1242 H1234 0.930 . S
C1242 C1241 1.362 . S
C1242 C1245 1.409 . S
C1243 H1235 0.930 . S
C1243 C1244 1.355 . S
C1243 C1245 1.415 . S
C1244 C1243 1.355 . S
C1244 C1246 1.419 . S
C1245 C1240 1.425 . S
C1245 C1242 1.409 . S
C1245 C1243 1.415 . S
C1246 H1236 0.930 . S
C1246 C1244 1.419 . S
C1246 C1247 1.362 . S
C1247 H1237 0.930 . S
C1247 C1240 1.409 . S
C1247 C1246 1.362 . S
H1248 C1254 0.930 . S
H1249 C1257 0.930 . S
H1250 C1258 0.930 . S
H1251 C1259 0.930 . S
H1252 C1262 0.930 . S
H1253 C1263 0.930 . S
C1254 H1248 0.930 . S
C1254 C1255 1.355 . S
C1254 C1256 1.415 . S
C1255 C1254 1.355 . S
C1255 C1257 1.419 . S
C1256 C1254 1.415 . S
C1256 C1261 1.425 . S
C1256 C1263 1.409 . S
C1257 H1249 0.930 . S
C1257 C1255 1.419 . S
C1257 C1258 1.362 . S
C1258 H1250 0.930 . S
C1258 C1257 1.362 . S
C1258 C1261 1.409 . S
C1259 H1251 0.930 . S
C1259 C1260 1.355 . S
C1259 C1261 1.415 . S
C1260 C1259 1.355 . S
C1260 C1262 1.419 . S
C1261 C1256 1.425 . S
C1261 C1258 1.409 . S
C1261 C1259 1.415 . S
C1262 H1252 0.930 . S
C1262 C1260 1.419 . S
C1262 C1263 1.362 . S
C1263 H1253 0.930 . S
C1263 C1256 1.409 . S
C1263 C1262 1.362 . S
H1264 C1270 0.930 . S
H1265 C1273 0.930 . S
H1266 C1274 0.930 . S
H1267 C1275 0.930 . S
H1268 C1278 0.930 . S
H1269 C1279 0.930 . S
C1270 H1264 0.930 . S
C1270 C1271 1.355 . S
C1270 C1272 1.415 . S
C1271 C1270 1.355 . S
C1271 C1273 1.419 . S
C1272 C1270 1.415 . S
C1272 C1277 1.425 . S
C1272 C1279 1.409 . S
C1273 H1265 0.930 . S
C1273 C1271 1.419 . S
C1273 C1274 1.362 . S
C1274 H1266 0.930 . S
C1274 C1273 1.362 . S
C1274 C1277 1.409 . S
C1275 H1267 0.930 . S
C1275 C1276 1.355 . S
C1275 C1277 1.415 . S
C1276 C1275 1.355 . S
C1276 C1278 1.419 . S
C1277 C1272 1.425 . S
C1277 C1274 1.409 . S
C1277 C1275 1.415 . S
C1278 H1268 0.930 . S
C1278 C1276 1.419 . S
C1278 C1279 1.362 . S
C1279 H1269 0.930 . S
C1279 C1272 1.409 . S
C1279 C1278 1.362 . S
H1280 C1286 0.930 . S
H1281 C1289 0.930 . S
H1282 C1290 0.930 . S
H1283 C1291 0.930 . S
H1284 C1294 0.930 . S
H1285 C1295 0.930 . S
C1286 H1280 0.930 . S
C1286 C1287 1.355 . S
C1286 C1288 1.415 . S
C1287 C1286 1.355 . S
C1287 C1289 1.419 . S
C1288 C1286 1.415 . S
C1288 C1293 1.425 1_556 S
C1288 C1295 1.409 1_556 S
C1289 H1281 0.930 . S
C1289 C1287 1.419 . S
C1289 C1290 1.362 . S
C1290 H1282 0.930 . S
C1290 C1289 1.362 . S
C1290 C1293 1.409 1_556 S
C1291 H1283 0.930 . S
C1291 C1292 1.355 . S
C1291 C1293 1.415 . S
C1292 C1291 1.355 . S
C1292 C1294 1.419 . S
C1293 C1288 1.425 1_554 S
C1293 C1290 1.409 1_554 S
C1293 C1291 1.415 . S
C1294 H1284 0.930 . S
C1294 C1292 1.419 . S
C1294 C1295 1.362 . S
C1295 H1285 0.930 . S
C1295 C1288 1.409 1_554 S
C1295 C1294 1.362 . S
H1296 C1302 0.930 . S
H1297 C1305 0.930 . S
H1298 C1306 0.930 . S
H1299 C1307 0.930 . S
H1300 C1310 0.930 . S
H1301 C1311 0.930 . S
C1302 H1296 0.930 . S
C1302 C1303 1.355 . S
C1302 C1304 1.415 . S
C1303 C1302 1.355 . S
C1303 C1305 1.419 . S
C1304 C1302 1.415 . S
C1304 C1309 1.425 1_554 S
C1304 C1311 1.409 . S
C1305 H1297 0.930 . S
C1305 C1303 1.419 . S
C1305 C1306 1.362 1_554 S
C1306 H1298 0.930 . S
C1306 C1305 1.362 1_556 S
C1306 C1309 1.409 . S
C1307 H1299 0.930 . S
C1307 C1308 1.355 . S
C1307 C1309 1.415 . S
C1308 C1307 1.355 . S
C1308 C1310 1.419 . S
C1309 C1304 1.425 1_556 S
C1309 C1306 1.409 . S
C1309 C1307 1.415 . S
C1310 H1300 0.930 . S
C1310 C1308 1.419 . S
C1310 C1311 1.362 1_556 S
C1311 H1301 0.930 . S
C1311 C1304 1.409 . S
C1311 C1310 1.362 1_554 S
H1312 C1318 0.930 . S
H1313 C1321 0.930 . S
H1314 C1322 0.930 . S
H1315 C1323 0.930 . S
H1316 C1326 0.930 . S
H1317 C1327 0.930 . S
C1318 H1312 0.930 . S
C1318 C1319 1.355 . S
C1318 C1320 1.415 . S
C1319 C1318 1.355 . S
C1319 C1321 1.419 . S
C1320 C1318 1.415 . S
C1320 C1325 1.425 . S
C1320 C1327 1.409 . S
C1321 H1313 0.930 . S
C1321 C1319 1.419 . S
C1321 C1322 1.362 . S
C1322 H1314 0.930 . S
C1322 C1321 1.362 . S
C1322 C1325 1.409 . S
C1323 H1315 0.930 . S
C1323 C1324 1.355 . S
C1323 C1325 1.415 . S
C1324 C1323 1.355 . S
C1324 C1326 1.419 . S
C1325 C1320 1.425 . S
C1325 C1322 1.409 . S
C1325 C1323 1.415 . S
C1326 H1316 0.930 . S
C1326 C1324 1.419 . S
C1326 C1327 1.362 . S
C1327 H1317 0.930 . S
C1327 C1320 1.409 . S
C1327 C1326 1.362 . S
H1328 C1334 0.930 . S
H1329 C1337 0.930 . S
H1330 C1338 0.930 . S
H1331 C1339 0.930 . S
H1332 C1342 0.930 . S
H1333 C1343 0.930 . S
C1334 H1328 0.930 . S
C1334 C1335 1.355 . S
C1334 C1336 1.415 . S
C1335 C1334 1.355 . S
C1335 C1337 1.419 . S
C1336 C1334 1.415 . S
C1336 C1341 1.425 . S
C1336 C1343 1.409 . S
C1337 H1329 0.930 . S
C1337 C1335 1.419 . S
C1337 C1338 1.362 . S
C1338 H1330 0.930 . S
C1338 C1337 1.362 . S
C1338 C1341 1.409 . S
C1339 H1331 0.930 . S
C1339 C1340 1.355 . S
C1339 C1341 1.415 . S
C1340 C1339 1.355 . S
C1340 C1342 1.419 . S
C1341 C1336 1.425 . S
C1341 C1338 1.409 . S
C1341 C1339 1.415 . S
C1342 H1332 0.930 . S
C1342 C1340 1.419 . S
C1342 C1343 1.362 . S
C1343 H1333 0.930 . S
C1343 C1336 1.409 . S
C1343 C1342 1.362 . S
H1344 C1350 0.930 . S
H1345 C1353 0.930 . S
H1346 C1354 0.930 . S
H1347 C1355 0.930 . S
H1348 C1358 0.930 . S
H1349 C1359 0.930 . S
C1350 H1344 0.930 . S
C1350 C1351 1.355 . S
C1350 C1352 1.415 . S
C1351 C1350 1.355 . S
C1351 C1353 1.419 . S
C1352 C1350 1.415 . S
C1352 C1357 1.425 . S
C1352 C1359 1.409 . S
C1353 H1345 0.930 . S
C1353 C1351 1.419 . S
C1353 C1354 1.362 . S
C1354 H1346 0.930 . S
C1354 C1353 1.362 . S
C1354 C1357 1.409 . S
C1355 H1347 0.930 . S
C1355 C1356 1.355 . S
C1355 C1357 1.415 . S
C1356 C1355 1.355 . S
C1356 C1358 1.419 . S
C1357 C1352 1.425 . S
C1357 C1354 1.409 . S
C1357 C1355 1.415 . S
C1358 H1348 0.930 . S
C1358 C1356 1.419 . S
C1358 C1359 1.362 . S
C1359 H1349 0.930 . S
C1359 C1352 1.409 . S
C1359 C1358 1.362 . S
C855 C569 2.361 . S
C860 C39 2.357 . S
C871 C75 2.083 . S
C876 C605 2.082 . S
C887 C463 2.340 . S
C892 C145 2.329 . S
C903 C499 2.056 . S
C908 C181 2.050 . S
C919 C251 2.317 . S
C924 C781 2.321 . S
C935 C817 2.048 . S
C940 C287 2.053 . S
C951 C357 2.362 . S
C956 C675 2.363 . S
C967 C711 2.076 . S
C972 C393 2.069 . S
C983 C568 1.414 . S
C988 C38 1.418 . S
C999 C82 1.042 . S
C1004 C612 1.031 . S
C1015 C144 1.332 . S
C1020 C462 1.341 . S
C1031 C188 1.048 . S
C1036 C506 1.036 . S
C1047 C250 1.333 . S
C1052 C780 1.331 . S
C1063 C294 1.035 . S
C1068 C824 1.028 . S
C1079 C674 1.415 . S
C1084 C356 1.406 . S
C1095 C718 1.094 . S
C1100 C400 1.102 . S
C1111 C22 1.908 . S
C1116 C340 1.927 . S
C1127 C92 1.794 . S
C1132 C410 1.814 . S
C1143 C128 1.936 . S
C1148 C234 1.934 . S
C1159 C198 1.777 . S
C1164 C304 1.782 . S
C1175 C446 1.927 . S
C1180 C764 1.937 . S
C1191 C834 1.780 . S
C1196 C516 1.795 . S
C1207 C552 1.898 . S
C1212 C658 1.883 . S
C1223 C728 1.831 . S
C1228 C622 1.831 . S
C1239 C29 1.872 . S
C1244 C833 1.888 . S
C1255 C665 1.874 . S
C1260 C91 1.890 . S
C1271 C727 1.924 . S
C1276 C135 1.917 . S
C1287 C771 1.905 . S
C1292 C197 1.905 . S
C1303 C515 1.918 . S
C1308 C241 1.915 . S
C1319 C559 1.875 . S
C1324 C303 1.892 . S
C1335 C347 1.911 . S
C1340 C621 1.912 . S
C1351 C409 1.912 . S
C1356 C453 1.911 . S
