# Generated by pormake.
# Topology uol, (4)-cn, num edge types: 1
# Building blocks:
#     Node 0, Type 0, BuildingBlock: ICAMEG_clean_sbu_1, # of connection points: 4
#     Node 1, Type 0, BuildingBlock: ICAMEG_clean_sbu_1, # of connection points: 4
#     Node 2, Type 0, BuildingBlock: ICAMEG_clean_sbu_1, # of connection points: 4
#     Node 3, Type 0, BuildingBlock: ICAMEG_clean_sbu_1, # of connection points: 4
#     Node 4, Type 0, BuildingBlock: ICAMEG_clean_sbu_1, # of connection points: 4
#     Node 5, Type 0, BuildingBlock: ICAMEG_clean_sbu_1, # of connection points: 4
#     Node 6, Type 0, BuildingBlock: ICAMEG_clean_sbu_1, # of connection points: 4
#     Node 7, Type 0, BuildingBlock: ICAMEG_clean_sbu_1, # of connection points: 4
#     Node 8, Type 0, BuildingBlock: ICAMEG_clean_sbu_1, # of connection points: 4
#     Node 9, Type 0, BuildingBlock: ICAMEG_clean_sbu_1, # of connection points: 4
#     Node 10, Type 0, BuildingBlock: ICAMEG_clean_sbu_1, # of connection points: 4
#     Node 11, Type 0, BuildingBlock: ICAMEG_clean_sbu_1, # of connection points: 4
#     Edge 12, Type (0, 0), BuildingBlock: UVAHIK_clean_linker_0, # of connection points: 2
#     Edge 13, Type (0, 0), BuildingBlock: UVAHIK_clean_linker_0, # of connection points: 2
#     Edge 14, Type (0, 0), BuildingBlock: UVAHIK_clean_linker_0, # of connection points: 2
#     Edge 15, Type (0, 0), BuildingBlock: UVAHIK_clean_linker_0, # of connection points: 2
#     Edge 16, Type (0, 0), BuildingBlock: UVAHIK_clean_linker_0, # of connection points: 2
#     Edge 17, Type (0, 0), BuildingBlock: UVAHIK_clean_linker_0, # of connection points: 2
#     Edge 18, Type (0, 0), BuildingBlock: UVAHIK_clean_linker_0, # of connection points: 2
#     Edge 19, Type (0, 0), BuildingBlock: UVAHIK_clean_linker_0, # of connection points: 2
#     Edge 20, Type (0, 0), BuildingBlock: UVAHIK_clean_linker_0, # of connection points: 2
#     Edge 21, Type (0, 0), BuildingBlock: UVAHIK_clean_linker_0, # of connection points: 2
#     Edge 22, Type (0, 0), BuildingBlock: UVAHIK_clean_linker_0, # of connection points: 2
#     Edge 23, Type (0, 0), BuildingBlock: UVAHIK_clean_linker_0, # of connection points: 2
#     Edge 24, Type (0, 0), BuildingBlock: UVAHIK_clean_linker_0, # of connection points: 2
#     Edge 25, Type (0, 0), BuildingBlock: UVAHIK_clean_linker_0, # of connection points: 2
#     Edge 26, Type (0, 0), BuildingBlock: UVAHIK_clean_linker_0, # of connection points: 2
#     Edge 27, Type (0, 0), BuildingBlock: UVAHIK_clean_linker_0, # of connection points: 2
#     Edge 28, Type (0, 0), BuildingBlock: UVAHIK_clean_linker_0, # of connection points: 2
#     Edge 29, Type (0, 0), BuildingBlock: UVAHIK_clean_linker_0, # of connection points: 2
#     Edge 30, Type (0, 0), BuildingBlock: UVAHIK_clean_linker_0, # of connection points: 2
#     Edge 31, Type (0, 0), BuildingBlock: UVAHIK_clean_linker_0, # of connection points: 2
#     Edge 32, Type (0, 0), BuildingBlock: UVAHIK_clean_linker_0, # of connection points: 2
#     Edge 33, Type (0, 0), BuildingBlock: UVAHIK_clean_linker_0, # of connection points: 2
#     Edge 34, Type (0, 0), BuildingBlock: UVAHIK_clean_linker_0, # of connection points: 2
#     Edge 35, Type (0, 0), BuildingBlock: UVAHIK_clean_linker_0, # of connection points: 2
# Relax obj value: 0.052
# Max RMSD: 0.107
# Mean RMSD: 0.107
data_MOF--net-uol--node1-ICAMEG_clean_sbu_1--edge1-UVAHIK_clean_linker_0
_symmetry_space_group_name_H-M    P1
_symmetry_Int_Tables_number       1
_symmetry_cell_setting            triclinic
loop_
_symmetry_equiv_pos_as_xyz
'x, y, z'
_cell_length_a     44.786868
_cell_length_b     44.771508
_cell_length_c     91.413629
_cell_angle_alpha  89.99709
_cell_angle_beta   89.982823
_cell_angle_gamma 119.99763
loop_
_atom_site_label
_atom_site_type_symbol
_atom_site_fract_x
_atom_site_fract_y
_atom_site_fract_z
_atom_type_partial_charge
Co0 Co 0.07126 0.28912 0.10874 0.0
Co1 Co 0.14457 0.36533 0.11816 0.0
O2 O 0.09474 0.33608 0.11633 0.0
C3 C 0.04454 0.28311 0.13856 0.0
O4 O 0.07672 0.30285 0.1426 0.0
C5 C 0.1228 0.4038 0.0991 0.0
O6 O 0.1048 0.37495 0.0918 0.0
O7 O 0.15233 0.35313 0.09812 0.0
O8 O 0.10483 0.30298 0.09228 0.0
H9 H 0.26809 0.394 0.11466 0.0
H10 H 0.03205 0.32504 0.11477 0.0
O11 O 0.03732 0.27466 0.12517 0.0
H12 H 0.01485 0.29618 0.06225 0.0
H13 H 0.96662 0.17546 0.09614 0.0
H14 H 0.09372 0.24225 0.09645 0.0
H15 H 0.04936 0.27918 0.07748 0.0
H16 H -0.00265 0.23527 0.10535 0.0
O17 O 0.141 0.40488 0.11001 0.0
H18 H 0.20506 0.35672 0.11247 0.0
H19 H 0.19025 0.43796 0.12776 0.0
H20 H 0.06405 0.18261 0.08703 0.0
H21 H -0.00291 0.34229 0.09998 0.0
H22 H 4e-05 0.14881 0.08684 0.0
H23 H 0.98843 0.32798 0.07351 0.0
O24 O 0.10056 0.2765 0.12075 0.0
H25 H 0.08734 0.40139 0.15598 0.0
H26 H 0.17512 0.36756 0.1474 0.0
H27 H 0.1649 0.38067 0.17249 0.0
H28 H 0.12074 0.39774 0.1769 0.0
H29 H 0.0982 0.3878 0.13108 0.0
H30 H 0.25314 0.47622 0.13002 0.0
H31 H 0.29251 0.45423 0.12349 0.0
O32 O 0.14866 0.32626 0.12623 0.0
C33 C 0.13499 0.3279 0.08947 0.0
C34 C 0.25121 0.40386 0.11757 0.0
C35 C 0.24281 0.45002 0.12617 0.0
N36 N 0.19402 0.3951 0.12005 0.0
C37 C 0.21549 0.38285 0.11638 0.0
C38 C 0.20723 0.42827 0.12483 0.0
C39 C 0.26489 0.43766 0.12251 0.0
C40 C 0.02814 0.31845 0.10328 0.0
N41 N 0.04271 0.3011 0.09699 0.0
C42 C 0.00842 0.3284 0.09496 0.0
C43 C 0.00361 0.3204 0.0801 0.0
C44 C 0.01846 0.30259 0.07377 0.0
C45 C 0.03806 0.29312 0.08243 0.0
C46 C 0.99452 0.18995 0.09614 0.0
C47 C 0.06585 0.22776 0.09631 0.0
C48 C 0.01205 0.22379 0.10137 0.0
N49 N 0.04727 0.24229 0.10132 0.0
C50 C 0.0492 0.19398 0.09101 0.0
C51 C 0.01328 0.17502 0.09092 0.0
C52 C 0.13034 0.29346 0.12661 0.0
C53 C 0.10672 0.39409 0.15419 0.0
C54 C 0.15585 0.37495 0.14923 0.0
C55 C 0.15021 0.38239 0.16346 0.0
C56 C 0.12544 0.39198 0.16593 0.0
N57 N 0.13741 0.37711 0.13777 0.0
C58 C 0.11309 0.38651 0.1401 0.0
Co59 Co 0.77859 0.0688 0.27607 0.0
Co60 Co 0.77631 0.14317 0.28381 0.0
O61 O 0.75509 0.09314 0.28269 0.0
C62 C 0.75332 0.04259 0.30551 0.0
O63 O 0.76495 0.07483 0.30927 0.0
C64 C 0.71551 0.12096 0.26505 0.0
O65 O 0.72589 0.10255 0.25776 0.0
O66 O 0.79499 0.14868 0.26365 0.0
O67 O 0.80094 0.10233 0.25974 0.0
H68 H 0.87174 0.26578 0.27776 0.0
H69 H 0.70287 0.03025 0.28056 0.0
O70 O 0.75681 0.03502 0.29243 0.0
H71 H 0.72017 0.014 0.22852 0.0
H72 H 0.78625 0.96267 0.26509 0.0
H73 H 0.84903 0.08986 0.26552 0.0
H74 H 0.77001 0.04789 0.24469 0.0
H75 H 0.75731 0.9945 0.27306 0.0
O76 O 0.73311 0.13949 0.2758 0.0
H77 H 0.84515 0.20247 0.27668 0.0
H78 H 0.75091 0.19049 0.29292 0.0
H79 H 0.87889 0.05909 0.25736 0.0
H80 H 0.6523 0.99597 0.2648 0.0
H81 H 0.84744 0.99502 0.25711 0.0
H82 H 0.6608 0.98776 0.23857 0.0
O83 O 0.81905 0.09741 0.2888 0.0
H84 H 0.68455 0.09092 0.32252 0.0
H85 H 0.80636 0.17602 0.31255 0.0
H86 H 0.78419 0.16853 0.33778 0.0
H87 H 0.72286 0.12573 0.34289 0.0
H88 H 0.70786 0.099 0.29748 0.0
H89 H 0.77639 0.25368 0.29407 0.0
H90 H 0.83728 0.29176 0.28651 0.0
O91 O 0.81977 0.14759 0.29181 0.0
C92 C 0.80488 0.1315 0.25592 0.0
C93 C 0.84523 0.24946 0.28113 0.0
C94 C 0.7917 0.24266 0.29027 0.0
N95 N 0.79663 0.19284 0.28486 0.0
C96 C 0.83007 0.2136 0.28059 0.0
C97 C 0.77739 0.20691 0.28957 0.0
C98 C 0.82586 0.26402 0.28603 0.0
C99 C 0.70678 0.02649 0.26919 0.0
N100 N 0.73935 0.04089 0.26357 0.0
C101 C 0.67804 0.00719 0.26031 0.0
C102 C 0.68283 0.00263 0.24559 0.0
C103 C 0.71614 0.01737 0.23994 0.0
C104 C 0.74426 0.03657 0.24914 0.0
C105 C 0.8002 0.99059 0.26512 0.0
C106 C 0.83512 0.06198 0.26535 0.0
C107 C 0.78397 0.00874 0.26965 0.0
N108 N 0.8014 0.04399 0.26963 0.0
C109 C 0.85219 0.0447 0.26076 0.0
C110 C 0.83454 0.00876 0.26064 0.0
C111 C 0.83294 0.1283 0.29353 0.0
C112 C 0.71129 0.10973 0.32042 0.0
C113 C 0.77966 0.1573 0.31469 0.0
C114 C 0.76723 0.15322 0.32899 0.0
C115 C 0.73281 0.12923 0.33185 0.0
N116 N 0.75838 0.13808 0.30354 0.0
C117 C 0.72459 0.11454 0.30625 0.0
Co118 Co 0.7013 0.78361 0.44198 0.0
Co119 Co 0.62555 0.78 0.45275 0.0
O120 O 0.65521 0.75997 0.45043 0.0
C121 C 0.71062 0.76349 0.47139 0.0
O122 O 0.69128 0.77597 0.476 0.0
C123 C 0.58587 0.71836 0.43471 0.0
O124 O 0.61394 0.72956 0.42682 0.0
O125 O 0.63473 0.79796 0.43239 0.0
O126 O 0.68576 0.80327 0.42607 0.0
H127 H 0.59343 0.8724 0.4489 0.0
H128 H 0.66661 0.70853 0.44798 0.0
O129 O 0.71753 0.76435 0.45784 0.0
H130 H 0.6899 0.72021 0.39495 0.0
H131 H 0.81383 0.79327 0.42676 0.0
H132 H 0.74662 0.85301 0.42941 0.0
H133 H 0.70807 0.7717 0.41035 0.0
H134 H 0.75504 0.76396 0.43708 0.0
O135 O 0.58555 0.73571 0.4457 0.0
H136 H 0.63145 0.84762 0.4461 0.0
H137 H 0.55433 0.7528 0.46422 0.0
H138 H 0.8052 0.8832 0.41888 0.0
H139 H 0.64823 0.65634 0.43302 0.0
H140 H 0.83921 0.85328 0.41751 0.0
H141 H 0.65973 0.662 0.40629 0.0
O142 O 0.71468 0.82528 0.45421 0.0
H143 H 0.59616 0.69073 0.49191 0.0
H144 H 0.62698 0.81099 0.48178 0.0
H145 H 0.61776 0.79019 0.50728 0.0
H146 H 0.60222 0.72965 0.51247 0.0
H147 H 0.60588 0.71267 0.46659 0.0
H148 H 0.51532 0.77643 0.46711 0.0
H149 H 0.53489 0.8367 0.45947 0.0
O150 O 0.66518 0.82452 0.45962 0.0
C151 C 0.65977 0.80697 0.42351 0.0
C152 C 0.58466 0.84615 0.45232 0.0
C153 C 0.5408 0.79227 0.46252 0.0
N154 N 0.59524 0.79894 0.45512 0.0
C155 C 0.60612 0.83203 0.45081 0.0
C156 C 0.56297 0.77901 0.46083 0.0
C157 C 0.5518 0.82609 0.45824 0.0
C158 C 0.67199 0.71121 0.43638 0.0
N159 N 0.68843 0.74313 0.43004 0.0
C160 C 0.66141 0.68156 0.42796 0.0
C161 C 0.66782 0.68476 0.41296 0.0
C162 C 0.68472 0.7174 0.40658 0.0
C163 C 0.69486 0.74647 0.41535 0.0
C164 C 0.79924 0.80656 0.42727 0.0
C165 C 0.7612 0.83977 0.42876 0.0
C166 C 0.76599 0.79012 0.43314 0.0
N167 N 0.74736 0.80669 0.43374 0.0
C168 C 0.79438 0.85702 0.42283 0.0
C169 C 0.81346 0.84023 0.42208 0.0
C170 C 0.69797 0.83863 0.45984 0.0
C171 C 0.60281 0.71713 0.48979 0.0
C172 C 0.62024 0.78462 0.48396 0.0
C173 C 0.615 0.77297 0.49841 0.0
C174 C 0.60627 0.739 0.50132 0.0
N175 N 0.61677 0.763 0.47271 0.0
C176 C 0.60819 0.72965 0.47547 0.0
Co177 Co 0.92962 0.71318 0.60727 0.0
Co178 Co 0.85569 0.63541 0.61371 0.0
O179 O 0.90569 0.66507 0.6135 0.0
C180 C 0.95474 0.71354 0.63687 0.0
O181 O 0.92241 0.69254 0.64039 0.0
C182 C 0.88111 0.59805 0.59596 0.0
O183 O 0.89941 0.62693 0.5887 0.0
O184 O 0.85214 0.64841 0.59331 0.0
O185 O 0.89671 0.70235 0.59068 0.0
H186 H 0.7331 0.60521 0.60459 0.0
H187 H 0.96913 0.67698 0.61168 0.0
O188 O 0.96277 0.72491 0.62386 0.0
H189 H 0.98712 0.71309 0.55995 0.0
H190 H 0.03493 0.82844 0.5975 0.0
H191 H 0.90783 0.76218 0.59699 0.0
H192 H 0.95185 0.72738 0.57606 0.0
H193 H 0.00369 0.76727 0.60494 0.0
O194 O 0.86138 0.59656 0.60631 0.0
H195 H 0.79627 0.64313 0.60473 0.0
H196 H 0.80872 0.56246 0.62259 0.0
H197 H 0.93802 0.8232 0.58933 0.0
H198 H 0.0048 0.66235 0.59597 0.0
H199 H 0.00204 0.85675 0.58956 0.0
H200 H 0.01388 0.68035 0.5699 0.0
O201 O 0.89998 0.72355 0.62002 0.0
H202 H 0.90486 0.59724 0.65423 0.0
H203 H 0.81945 0.63193 0.64159 0.0
H204 H 0.82448 0.61747 0.66717 0.0
H205 H 0.86742 0.59994 0.67362 0.0
H206 H 0.89922 0.61226 0.62882 0.0
H207 H 0.74567 0.52355 0.62254 0.0
H208 H 0.70741 0.54493 0.61355 0.0
O209 O 0.84921 0.67387 0.62105 0.0
C210 C 0.86884 0.67642 0.58613 0.0
C211 C 0.74949 0.59563 0.6086 0.0
C212 C 0.75655 0.54979 0.61865 0.0
N213 N 0.80611 0.60514 0.61382 0.0
C214 C 0.78526 0.61703 0.60875 0.0
C215 C 0.79222 0.57192 0.61864 0.0
C216 C 0.7351 0.5618 0.61361 0.0
C217 C 0.97327 0.68521 0.60038 0.0
N218 N 0.95858 0.70316 0.59481 0.0
C219 C 0.99336 0.67672 0.59152 0.0
C220 C -0.0016 0.68678 0.57689 0.0
C221 C 0.98337 0.70513 0.5713 0.0
C222 C 0.96338 0.71309 0.58047 0.0
C223 C 0.00704 0.81408 0.59732 0.0
C224 C 0.93569 0.77656 0.59702 0.0
C225 C 0.98921 0.77947 0.60155 0.0
N226 N 0.95399 0.76113 0.60127 0.0
C227 C 0.95264 0.81112 0.59272 0.0
C228 C 0.98856 0.82994 0.59286 0.0
C229 C 0.8683 0.70603 0.62363 0.0
C230 C 0.88597 0.60472 0.65155 0.0
C231 C 0.83826 0.62441 0.64432 0.0
C232 C 0.84093 0.61617 0.65881 0.0
C233 C 0.865 0.60631 0.66242 0.0
N234 N 0.85893 0.6228 0.63371 0.0
C235 C 0.88254 0.61309 0.63716 0.0
Co236 Co 0.21262 0.91799 0.77529 0.0
Co237 Co 0.21579 0.84499 0.78496 0.0
O238 O 0.23614 0.89481 0.78311 0.0
C239 C 0.23405 0.94635 0.80483 0.0
O240 O 0.22133 0.91435 0.80923 0.0
C241 C 0.27687 0.86716 0.76652 0.0
O242 O 0.26573 0.88455 0.75895 0.0
O243 O 0.19739 0.8373 0.7647 0.0
O244 O 0.19208 0.88343 0.75917 0.0
H245 H 0.12262 0.72094 0.78038 0.0
H246 H 0.28791 0.95748 0.78082 0.0
O247 O 0.23277 0.95286 0.79136 0.0
H248 H 0.27453 0.97142 0.72813 0.0
H249 H 0.20367 0.02216 0.76164 0.0
H250 H 0.14291 0.89507 0.76336 0.0
H251 H 0.22353 0.93791 0.74377 0.0
H252 H 0.23283 0.99177 0.77114 0.0
O253 O 0.2597 0.84917 0.77747 0.0
H254 H 0.14782 0.78393 0.77818 0.0
H255 H 0.24265 0.79995 0.79553 0.0
H256 H 0.11286 0.92439 0.75365 0.0
H257 H 0.33962 0.99147 0.76561 0.0
H258 H 0.1433 0.9884 0.75275 0.0
H259 H 0.33311 -0.00152 0.73906 0.0
O260 O 0.1713 0.88951 0.78769 0.0
H261 H 0.30606 0.90237 0.82393 0.0
H262 H 0.1853 0.81423 0.81392 0.0
H263 H 0.20669 0.82442 0.83933 0.0
H264 H 0.26748 0.86876 0.84446 0.0
H265 H 0.28354 0.89153 0.7987 0.0
H266 H 0.21861 0.73711 0.7978 0.0
H267 H 0.15812 0.69716 0.79025 0.0
O268 O 0.17161 0.84018 0.79225 0.0
C269 C 0.18816 0.85381 0.7562 0.0
C270 C 0.14896 0.73809 0.78376 0.0
C271 C 0.20285 0.74716 0.79352 0.0
N272 N 0.19653 0.79557 0.78686 0.0
C273 C 0.16331 0.77377 0.78259 0.0
C274 C 0.21634 0.78271 0.79218 0.0
C275 C 0.16891 0.72476 0.78928 0.0
C276 C 0.28486 0.96069 0.7693 0.0
N277 N 0.25274 0.94576 0.76319 0.0
C278 C 0.31424 0.97985 0.76073 0.0
C279 C 0.31057 0.98373 0.74583 0.0
C280 C 0.27771 0.96853 0.73969 0.0
C281 C 0.24892 0.9495 0.74859 0.0
C282 C 0.19016 0.99426 0.76195 0.0
C283 C 0.15638 0.92293 0.76291 0.0
C284 C 0.20651 0.97692 0.76735 0.0
N285 N 0.18966 0.94169 0.76769 0.0
C286 C 0.13921 0.93939 0.75745 0.0
C287 C 0.15629 0.9753 0.75696 0.0
C288 C 0.15781 0.8591 0.79298 0.0
C289 C 0.27956 0.8829 0.82183 0.0
C290 C 0.21178 0.83359 0.81607 0.0
C291 C 0.22376 0.8392 0.83048 0.0
C292 C 0.25788 0.86407 0.83334 0.0
N293 N 0.23322 0.85214 0.80483 0.0
C294 C 0.2667 0.87655 0.80756 0.0
Co295 Co 0.2825 0.21348 0.94086 0.0
Co296 Co 0.36076 0.21899 0.94793 0.0
O297 O 0.33036 0.2385 0.94734 0.0
C298 C 0.28013 0.23836 0.97028 0.0
O299 O 0.30146 0.22774 0.97421 0.0
C300 C 0.39761 0.28155 0.93002 0.0
O301 O 0.36884 0.27032 0.92262 0.0
O302 O 0.3486 0.20197 0.92753 0.0
O303 O 0.29441 0.19156 0.92456 0.0
H304 H 0.39361 0.12815 0.93977 0.0
H305 H 0.31733 0.28923 0.94497 0.0
O306 O 0.2696 0.23473 0.95711 0.0
H307 H 0.2829 0.26959 0.89306 0.0
H308 H 0.16661 0.20099 0.93001 0.0
H309 H 0.23485 0.14218 0.93073 0.0
H310 H 0.26898 0.22055 0.90945 0.0
H311 H 0.22752 0.23206 0.93778 0.0
O312 O 0.39925 0.26377 0.94053 0.0
H313 H 0.35472 0.15228 0.93938 0.0
H314 H 0.43362 0.24643 0.95725 0.0
H315 H 0.17412 0.11021 0.92275 0.0
H316 H 0.33156 0.33902 0.929 0.0
H317 H 0.13958 0.13966 0.92236 0.0
H318 H 0.31441 0.32934 0.90283 0.0
O319 O 0.2725 0.1739 0.95383 0.0
H320 H 0.39606 0.30682 0.98814 0.0
H321 H 0.36419 0.18713 0.97607 0.0
H322 H 0.37756 0.20712 0.00163 0.0
H323 H 0.39366 0.26737 0.0078 0.0
H324 H 0.38217 0.28568 0.96275 0.0
H325 H 0.47349 0.22343 0.95773 0.0
H326 H 0.45348 0.16383 0.949 0.0
O327 O 0.32266 0.17385 0.95526 0.0
C328 C 0.32071 0.19002 0.92023 0.0
C329 C 0.40259 0.1541 0.94367 0.0
C330 C 0.44743 0.2076 0.95373 0.0
N331 N 0.39177 0.20056 0.94845 0.0
C332 C 0.38064 0.16785 0.94353 0.0
C333 C 0.42477 0.22049 0.95341 0.0
C334 C 0.43619 0.17415 0.94883 0.0
C335 C 0.30947 0.2848 0.93363 0.0
N336 N 0.2922 0.25203 0.92817 0.0
C337 C 0.31773 0.3131 0.92462 0.0
C338 C 0.30814 0.30765 0.90994 0.0
C339 C 0.29048 0.27414 0.90445 0.0
C340 C 0.28273 0.24647 0.91377 0.0
C341 C 0.18141 0.1879 0.9301 0.0
C342 C 0.22003 0.15522 0.9305 0.0
C343 C 0.21588 0.20534 0.93452 0.0
N344 N 0.23476 0.18901 0.93459 0.0
C345 C 0.18564 0.13696 0.92601 0.0
C346 C 0.16626 0.15349 0.92581 0.0
C347 C 0.29039 0.16029 0.95767 0.0
C348 C 0.38919 0.28054 0.98558 0.0
C349 C 0.37109 0.21336 0.97867 0.0
C350 C 0.37871 0.22456 0.99316 0.0
C351 C 0.38778 0.25838 0.99661 0.0
N352 N 0.37254 0.23526 0.96792 0.0
C353 C 0.38146 0.26848 0.97121 0.0
Co354 Co 0.70392 0.92049 0.71873 0.0
Co355 Co 0.62811 0.84768 0.70859 0.0
O356 O 0.65743 0.89745 0.71069 0.0
C357 C 0.71144 0.94961 0.68932 0.0
O358 O 0.69247 0.9177 0.68477 0.0
C359 C 0.58855 0.86925 0.72693 0.0
O360 O 0.61685 0.8865 0.73465 0.0
O361 O 0.63824 0.83951 0.72887 0.0
O362 O 0.68954 0.88547 0.73469 0.0
H363 H 0.59739 0.72359 0.71275 0.0
H364 H 0.6681 0.96001 0.71324 0.0
O365 O 0.71893 0.95581 0.70283 0.0
H366 H 0.69399 0.97245 0.76605 0.0
H367 H 0.81648 0.02443 0.73308 0.0
H368 H 0.75051 0.89739 0.73073 0.0
H369 H 0.71201 0.93947 0.75034 0.0
H370 H 0.75721 0.99419 0.72329 0.0
O371 O 0.5881 0.85158 0.71592 0.0
H372 H 0.63498 0.78653 0.71526 0.0
H373 H 0.55659 0.80283 0.6976 0.0
H374 H 0.80959 0.92655 0.74073 0.0
H375 H 0.64986 0.99348 0.72851 0.0
H376 H 0.84298 0.99053 0.74195 0.0
H377 H 0.66267 -0.00026 0.75513 0.0
O378 O 0.7172 0.89243 0.70627 0.0
H379 H 0.59631 0.90602 0.66963 0.0
H380 H 0.62881 0.81773 0.67955 0.0
H381 H 0.61841 0.82861 0.65412 0.0
H382 H 0.60202 0.87303 0.64903 0.0
H383 H 0.60721 0.89451 0.69488 0.0
H384 H 0.518 0.74004 0.69501 0.0
H385 H 0.53841 0.69997 0.70256 0.0
O386 O 0.66775 0.84315 0.70145 0.0
C387 C 0.66376 0.85579 0.73749 0.0
C388 C 0.58824 0.74079 0.70936 0.0
C389 C 0.54367 0.75002 0.69943 0.0
N390 N 0.59812 0.79831 0.70645 0.0
C391 C 0.60947 0.77645 0.71071 0.0
C392 C 0.56561 0.78553 0.70095 0.0
C393 C 0.55514 0.72755 0.70366 0.0
C394 C 0.67406 0.9629 0.72479 0.0
N395 N 0.69114 0.94784 0.73089 0.0
C396 C 0.66355 0.98176 0.73339 0.0
C397 C 0.6707 0.98522 0.74833 0.0
C398 C 0.68824 0.96989 0.75447 0.0
C399 C 0.69829 0.95116 0.74553 0.0
C400 C 0.80217 0.99654 0.73263 0.0
C401 C 0.76481 0.92523 0.73132 0.0
C402 C 0.76864 0.97929 0.72707 0.0
N403 N 0.75036 0.94407 0.72655 0.0
C404 C 0.79828 0.9416 0.73695 0.0
C405 C 0.81701 0.9775 0.73761 0.0
C406 C 0.70048 0.86214 0.70087 0.0
C407 C 0.60332 0.88652 0.67171 0.0
C408 C 0.62171 0.83712 0.67742 0.0
C409 C 0.6158 0.84313 0.663 0.0
C410 C 0.60659 0.86804 0.66016 0.0
N411 N 0.61842 0.85533 0.68869 0.0
C412 C 0.60937 0.87978 0.68599 0.0
Co413 Co 0.77853 0.70927 0.88552 0.0
Co414 Co 0.7734 0.63113 0.87844 0.0
O415 O 0.7538 0.66143 0.87897 0.0
C416 C 0.75438 0.71115 0.85597 0.0
O417 O 0.76535 0.68995 0.85231 0.0
C418 C 0.71055 0.59416 0.89615 0.0
O419 O 0.72161 0.62294 0.90353 0.0
O420 O 0.79004 0.64323 0.89887 0.0
O421 O 0.8 0.69728 0.90198 0.0
H422 H 0.86431 0.59856 0.88694 0.0
H423 H 0.70293 0.67432 0.88097 0.0
O424 O 0.75772 0.72213 0.86906 0.0
H425 H 0.72088 0.70839 0.93294 0.0
H426 H 0.79032 0.82499 0.89616 0.0
H427 H 0.8494 0.757 0.89608 0.0
H428 H 0.77043 0.72251 0.91685 0.0
H429 H 0.75969 0.76413 0.88828 0.0
O430 O 0.72856 0.59252 0.88573 0.0
H431 H 0.84003 0.63733 0.88721 0.0
H432 H 0.7463 0.5583 0.8691 0.0
H433 H 0.88092 0.81769 0.90416 0.0
H434 H 0.65264 0.65989 0.89664 0.0
H435 H 0.85134 0.85211 0.90423 0.0
H436 H 0.66146 0.67685 0.92284 0.0
O437 O 0.81853 0.7195 0.87279 0.0
H438 H 0.68622 0.59569 0.83798 0.0
H439 H 0.80579 0.62796 0.85041 0.0
H440 H 0.78624 0.61465 0.82479 0.0
H441 H 0.72605 0.59835 0.81845 0.0
H442 H 0.70693 0.60954 0.86342 0.0
H443 H 0.76946 0.51855 0.86874 0.0
H444 H 0.82893 0.53868 0.87765 0.0
O445 O 0.81863 0.66936 0.87124 0.0
C446 C 0.80159 0.67096 0.90627 0.0
C447 C 0.83843 0.58953 0.88296 0.0
C448 C 0.78517 0.54461 0.87277 0.0
N449 N 0.79196 0.60021 0.87801 0.0
C450 C 0.8246 0.61141 0.88303 0.0
C451 C 0.77218 0.56721 0.87301 0.0
C452 C 0.81854 0.55593 0.87777 0.0
C453 C 0.70699 0.68211 0.89232 0.0
N454 N 0.73957 0.69939 0.89797 0.0
C455 C 0.67841 0.67373 0.90116 0.0
C456 C 0.68338 0.68321 0.91586 0.0
C457 C 0.7167 0.70088 0.92154 0.0
C458 C 0.74466 0.70876 0.91238 0.0
C459 C 0.80346 0.81025 0.8962 0.0
C460 C 0.8363 0.77176 0.89617 0.0
C461 C 0.78628 0.7758 0.89173 0.0
N462 N 0.80267 0.75699 0.89184 0.0
C463 C 0.85431 0.80614 0.90071 0.0
C464 C 0.8377 0.82544 0.90074 0.0
C465 C 0.83222 0.70169 0.86895 0.0
C466 C 0.71247 0.60264 0.84061 0.0
C467 C 0.77958 0.62097 0.84773 0.0
C468 C 0.76864 0.61338 0.83321 0.0
C469 C 0.73485 0.6042 0.82966 0.0
N470 N 0.75748 0.61939 0.85841 0.0
C471 C 0.7243 0.61034 0.85502 0.0
Co472 Co 0.07247 0.78041 0.05091 0.0
Co473 Co 0.14614 0.77716 0.04317 0.0
O474 O 0.09615 0.75646 0.04416 0.0
C475 C 0.04416 0.7555 0.02165 0.0
O476 O 0.07619 0.76832 0.01728 0.0
C477 C 0.12288 0.71543 0.06135 0.0
O478 O 0.10516 0.72634 0.06883 0.0
O479 O 0.1516 0.79461 0.06353 0.0
O480 O 0.10697 0.80357 0.06682 0.0
H481 H 0.26927 0.87052 0.05023 0.0
H482 H 0.03315 0.70448 0.04715 0.0
O483 O 0.03763 0.75785 0.03501 0.0
H484 H 0.02049 0.72466 0.09923 0.0
H485 H 0.9675 0.78933 0.06288 0.0
H486 H 0.09454 0.85156 0.0608 0.0
H487 H 0.05362 0.7736 0.08253 0.0
H488 H -0.00149 0.75968 0.05475 0.0
O489 O 0.14149 0.73304 0.05061 0.0
H490 H 0.20608 0.84487 0.0512 0.0
H491 H 0.1926 0.7513 0.03341 0.0
H492 H 0.0646 0.88214 0.06913 0.0
H493 H -0.00043 0.65479 0.06346 0.0
H494 H 0.00061 0.85097 0.07021 0.0
H495 H 0.99318 0.66474 0.08971 0.0
O496 O 0.10059 0.82007 0.0377 0.0
H497 H 0.09332 0.6884 0.00333 0.0
H498 H 0.17971 0.80898 0.01475 0.0
H499 H 0.17228 0.78863 0.98923 0.0
H500 H 0.12885 0.72792 0.98338 0.0
H501 H 0.10137 0.7099 0.02868 0.0
H502 H 0.25565 0.77582 0.03235 0.0
H503 H 0.29444 0.8359 0.04074 0.0
O504 O 0.15151 0.82165 0.03583 0.0
C505 C 0.1354 0.80617 0.07092 0.0
C506 C 0.25265 0.84437 0.04648 0.0
C507 C 0.245 0.7912 0.03646 0.0
N508 N 0.19572 0.79679 0.04221 0.0
C509 C 0.21686 0.82976 0.04695 0.0
C510 C 0.20933 0.77744 0.0371 0.0
C511 C 0.26675 0.82491 0.04117 0.0
C512 C 0.03017 0.70902 0.05853 0.0
N513 N 0.04517 0.74189 0.06386 0.0
C514 C 0.01126 0.68078 0.06772 0.0
C515 C 0.00773 0.68638 0.08246 0.0
C516 C 0.02306 0.71999 0.08781 0.0
C517 C 0.04185 0.7476 0.0783 0.0
C518 C 0.99539 0.80317 0.06249 0.0
C519 C 0.0667 0.83778 0.06133 0.0
C520 C 0.01308 0.78654 0.05787 0.0
N521 N 0.04829 0.80381 0.05742 0.0
C522 C 0.04989 0.85525 0.06601 0.0
C523 C 0.01398 0.83775 0.0666 0.0
C524 C 0.132 0.8344 0.03362 0.0
C525 C 0.11241 0.71487 0.00574 0.0
C526 C 0.16071 0.78254 0.01229 0.0
C527 C 0.15667 0.77115 -0.00218 0.0
C528 C 0.13231 0.73708 0.99455 0.0
N529 N 0.14111 0.7606 0.02321 0.0
C530 C 0.11719 0.72715 0.02009 0.0
Co531 Co 0.29138 0.07112 0.21717 0.0
Co532 Co 0.36686 0.14762 0.21083 0.0
O533 O 0.33941 0.09745 0.21106 0.0
C534 C 0.29195 0.04822 0.18722 0.0
O535 O 0.31065 0.08105 0.18392 0.0
C536 C 0.4052 0.1251 0.2295 0.0
O537 O 0.37598 0.10578 0.23637 0.0
O538 O 0.35184 0.15074 0.23096 0.0
O539 O 0.30026 0.10287 0.23398 0.0
H540 H 0.38955 0.2683 0.21862 0.0
H541 H 0.33117 0.03535 0.21228 0.0
O542 O 0.28168 0.0391 0.20031 0.0
H543 H 0.29485 0.01359 0.26395 0.0
H544 H 0.1793 0.9615 0.22622 0.0
H545 H 0.23933 0.08858 0.22774 0.0
H546 H 0.27795 0.04741 0.2482 0.0
H547 H 0.24042 0.99598 0.21897 0.0
O548 O 0.4066 0.14451 0.21902 0.0
H549 H 0.35444 0.2048 0.21863 0.0
H550 H 0.43976 0.19744 0.20288 0.0
H551 H 0.17829 0.05513 0.2352 0.0
H552 H 0.34847 0.00121 0.22761 0.0
H553 H 0.14788 0.99111 0.23447 0.0
H554 H 0.33037 0.99024 0.25366 0.0
O555 O 0.27884 0.09987 0.20484 0.0
H556 H 0.4113 0.10125 0.17159 0.0
H557 H 0.37058 0.18278 0.18262 0.0
H558 H 0.38745 0.17835 0.15738 0.0
H559 H 0.40802 0.13738 0.15174 0.0
H560 H 0.39388 0.10626 0.19666 0.0
H561 H 0.47589 0.26087 0.20281 0.0
H562 H 0.45074 0.29674 0.21066 0.0
O563 O 0.32745 0.15122 0.20268 0.0
C564 C 0.32441 0.13217 0.23829 0.0
C565 C 0.40077 0.25296 0.21512 0.0
C566 C 0.44924 0.24879 0.20627 0.0
N567 N 0.39496 0.19748 0.21063 0.0
C568 C 0.38099 0.217 0.21506 0.0
C569 C 0.42868 0.21289 0.20636 0.0
C570 C 0.43511 0.2689 0.21067 0.0
C571 C 0.3229 0.03037 0.22356 0.0
N572 N 0.30342 0.04318 0.22932 0.0
C573 C 0.3329 0.01115 0.23221 0.0
C574 C 0.32278 0.00505 0.24683 0.0
C575 C 0.30286 0.01816 0.25261 0.0
C576 C 0.29342 0.03734 0.24365 0.0
C577 C 0.19229 0.98938 0.22662 0.0
C578 C 0.22632 0.06073 0.22749 0.0
C579 C 0.22687 0.00902 0.2225 0.0
N580 N 0.24348 0.04423 0.22306 0.0
C581 C 0.19174 0.04193 0.23168 0.0
C582 C 0.17468 0.00601 0.23125 0.0
C583 C 0.29522 0.13121 0.2006 0.0
C584 C 0.40248 0.11927 0.17392 0.0
C585 C 0.37944 0.16484 0.18025 0.0
C586 C 0.38903 0.1625 0.16594 0.0
C587 C 0.40058 0.13951 0.16278 0.0
N588 N 0.38141 0.14492 0.19112 0.0
C589 C 0.39273 0.12234 0.18811 0.0
Co590 Co 0.21578 0.292 0.38491 0.0
Co591 Co 0.21672 0.36753 0.37594 0.0
O592 O 0.2383 0.33911 0.37745 0.0
C593 C 0.23551 0.28677 0.35482 0.0
O594 O 0.22277 0.30648 0.35112 0.0
C595 C 0.27655 0.40632 0.39515 0.0
O596 O 0.26642 0.37722 0.40216 0.0
O597 O 0.19678 0.3543 0.39594 0.0
O598 O 0.19608 0.30501 0.40165 0.0
H599 H 0.11993 0.39327 0.38003 0.0
H600 H 0.29068 0.329 0.37839 0.0
O601 O 0.23512 0.27828 0.36815 0.0
H602 H 0.28131 0.29979 0.43084 0.0
H603 H 0.20952 0.17919 0.39672 0.0
H604 H 0.14713 0.24396 0.3975 0.0
H605 H 0.22912 0.28215 0.416 0.0
H606 H 0.23731 0.23912 0.38769 0.0
O607 O 0.25929 0.40738 0.38429 0.0
H608 H 0.14697 0.35707 0.38182 0.0
H609 H 0.24214 0.44024 0.36684 0.0
H610 H 0.11845 0.18419 0.40675 0.0
H611 H 0.34356 0.3469 0.39279 0.0
H612 H 0.14971 0.1514 0.40639 0.0
H613 H 0.33906 0.33241 0.41922 0.0
O614 O 0.17332 0.27883 0.37321 0.0
H615 H 0.31043 0.40713 0.33812 0.0
H616 H 0.18806 0.37002 0.34682 0.0
H617 H 0.21147 0.38461 0.32177 0.0
H618 H 0.27308 0.40335 0.3173 0.0
H619 H 0.2859 0.39202 0.36298 0.0
H620 H 0.21621 0.47745 0.36498 0.0
H621 H 0.15463 0.45394 0.37156 0.0
O622 O 0.17407 0.32816 0.36771 0.0
C623 C 0.18984 0.32924 0.40456 0.0
C624 C 0.14676 0.40379 0.3771 0.0
C625 C 0.20081 0.45105 0.36867 0.0
N626 N 0.19602 0.39647 0.37436 0.0
C627 C 0.16218 0.38339 0.37806 0.0
C628 C 0.21537 0.42989 0.36978 0.0
C629 C 0.16625 0.43784 0.37236 0.0
C630 C 0.28852 0.32233 0.38986 0.0
N631 N 0.25686 0.30451 0.39635 0.0
C632 C 0.31855 0.33265 0.39797 0.0
C633 C 0.316 0.32455 0.4128 0.0
C634 C 0.28361 0.30627 0.41933 0.0
C635 C 0.25415 0.29643 0.41089 0.0
C636 C 0.19566 0.19324 0.39696 0.0
C637 C 0.16097 0.22992 0.3974 0.0
C638 C 0.21123 0.22714 0.39184 0.0
N639 N 0.19394 0.24508 0.39219 0.0
C640 C 0.14456 0.19606 0.40261 0.0
C641 C 0.1621 0.17766 0.40239 0.0
C642 C 0.16002 0.29539 0.36738 0.0
C643 C 0.28357 0.3991 0.33994 0.0
C644 C 0.21489 0.37812 0.34496 0.0
C645 C 0.22801 0.3864 0.33076 0.0
C646 C 0.26259 0.39693 0.32826 0.0
N647 N 0.23565 0.38036 0.35636 0.0
C648 C 0.26958 0.39066 0.354 0.0
Co649 Co 0.92888 0.21637 0.55365 0.0
Co650 Co 0.85596 0.22132 0.54624 0.0
O651 O 0.90589 0.24102 0.54686 0.0
C652 C 0.95608 0.24025 0.52415 0.0
O653 O 0.92413 0.22947 0.52018 0.0
C654 C 0.88143 0.28451 0.56369 0.0
O655 O 0.89907 0.27367 0.57126 0.0
O656 O 0.85118 0.20508 0.56677 0.0
O657 O 0.89506 0.19492 0.56998 0.0
H658 H 0.73244 0.13036 0.55466 0.0
H659 H 0.96956 0.29197 0.54907 0.0
O660 O 0.96303 0.23713 0.53737 0.0
H661 H 0.98437 0.27421 0.60121 0.0
H662 H 0.03251 0.20469 0.5651 0.0
H663 H 0.90547 0.14547 0.56428 0.0
H664 H 0.94944 0.22457 0.58509 0.0
H665 H 0.0025 0.2353 0.5569 0.0
O666 O 0.86203 0.2663 0.55326 0.0
H667 H 0.7955 0.15476 0.55509 0.0
H668 H 0.81026 0.24814 0.53651 0.0
H669 H 0.93441 0.11397 0.57269 0.0
H670 H 0.00493 0.34234 0.56478 0.0
H671 H -0.00161 0.14362 0.57313 0.0
H672 H 0.01241 0.33361 0.59106 0.0
O673 O 0.89947 0.17634 0.54087 0.0
H674 H 0.90812 0.30765 0.50546 0.0
H675 H 0.8207 0.18832 0.51824 0.0
H676 H 0.82721 0.20732 0.49254 0.0
H677 H 0.87116 0.26739 0.48601 0.0
H678 H 0.90098 0.28749 0.531 0.0
H679 H 0.74736 0.22486 0.53597 0.0
H680 H 0.708 0.16551 0.54504 0.0
O681 O 0.84911 0.17599 0.53928 0.0
C682 C 0.86722 0.19347 0.57423 0.0
C683 C 0.74932 0.1562 0.55062 0.0
C684 C 0.7577 0.20926 0.54015 0.0
N685 N 0.80649 0.20267 0.54568 0.0
C686 C 0.78503 0.1701 0.55078 0.0
C687 C 0.79328 0.22231 0.5405 0.0
C688 C 0.73562 0.17595 0.54524 0.0
C689 C 0.973 0.28796 0.56046 0.0
N690 N 0.9576 0.25538 0.56614 0.0
C691 C 0.99293 0.31658 0.56932 0.0
C692 C -0.00293 0.31167 0.58407 0.0
C693 C 0.98132 0.27835 0.58978 0.0
C694 C 0.96152 0.25034 0.5806 0.0
C695 C 0.00462 0.19151 0.56498 0.0
C696 C 0.93332 0.1586 0.56453 0.0
C697 C 0.9875 0.20869 0.56033 0.0
N698 N 0.95229 0.19225 0.56023 0.0
C699 C 0.94956 0.14061 0.56926 0.0
C700 C 0.98546 0.15725 0.56949 0.0
C701 C 0.86796 0.16251 0.53702 0.0
C702 C 0.8888 0.28145 0.50817 0.0
C703 C 0.83994 0.21447 0.51549 0.0
C704 C 0.84345 0.22511 0.50091 0.0
C705 C 0.8681 0.25883 0.49726 0.0
N706 N 0.86035 0.23682 0.52613 0.0
C707 C 0.88452 0.26994 0.52263 0.0
C708 C 0.1406 0.67121 0.05746 0.0
C709 C 0.12082 0.6824 0.06516 0.0
C710 C 0.13868 0.63998 0.061 0.0
C711 C 0.11528 0.57737 0.09094 0.0
H712 H 0.11596 0.51794 0.06022 0.0
C713 C 0.09936 0.43361 0.08368 0.0
C714 C 0.12116 0.43486 0.09501 0.0
C715 C 0.09753 0.46295 0.08 0.0
C716 C 0.11542 0.53409 0.06892 0.0
H717 H 0.08317 0.66941 0.08249 0.0
H718 H 0.07971 0.61472 0.08862 0.0
H719 H 0.11507 0.57035 0.05378 0.0
H720 H 0.15819 0.46785 0.11134 0.0
H721 H 0.15528 0.51901 0.1048 0.0
H722 H 0.1153 0.54095 0.10609 0.0
C723 C 0.09702 0.63035 0.07997 0.0
C724 C 0.1153 0.56429 0.06524 0.0
C725 C 0.09893 0.66162 0.07642 0.0
C726 C 0.14107 0.466 0.10257 0.0
C727 C 0.13924 0.49528 0.0989 0.0
C728 C 0.11544 0.54719 0.09463 0.0
C729 C 0.11692 0.61923 0.0723 0.0
C730 C 0.11552 0.5864 0.07621 0.0
C731 C 0.11743 0.49408 0.08759 0.0
C732 C 0.11581 0.52537 0.08366 0.0
H733 H 0.15776 0.68663 0.04873 0.0
H734 H 0.15471 0.63237 0.05503 0.0
H735 H 0.11574 0.594 0.09965 0.0
H736 H 0.08352 0.40994 0.0777 0.0
H737 H 0.08021 0.46113 0.07134 0.0
C738 C 0.66204 0.09817 0.24979 0.0
C739 C 0.68279 0.11949 0.26119 0.0
C740 C 0.63087 0.0966 0.24636 0.0
C741 C 0.56492 0.11399 0.2618 0.0
H742 H 0.5417 0.11726 0.22119 0.0
C743 C 0.46746 0.14376 0.22601 0.0
C744 C 0.43619 0.12317 0.23338 0.0
C745 C 0.49657 0.14137 0.22936 0.0
C746 C 0.54791 0.11646 0.23259 0.0
H747 H 0.68713 0.15587 0.27793 0.0
H748 H 0.63307 0.15335 0.27184 0.0
H749 H 0.5946 0.11687 0.22715 0.0
H750 H 0.41088 0.0838 0.25004 0.0
H751 H 0.46182 0.07962 0.25588 0.0
H752 H 0.51871 0.11448 0.26725 0.0
C753 C 0.64062 0.13752 0.26568 0.0
C754 C 0.57799 0.11585 0.23599 0.0
C755 C 0.67174 0.13914 0.26909 0.0
C756 C 0.43466 0.10019 0.24423 0.0
C757 C 0.46384 0.09784 0.2476 0.0
C758 C 0.53481 0.11453 0.2584 0.0
C759 C 0.61983 0.11622 0.25429 0.0
C760 C 0.587 0.11499 0.25064 0.0
C761 C 0.49507 0.11835 0.24017 0.0
C762 C 0.52618 0.11613 0.24376 0.0
H763 H 0.66975 0.08257 0.24356 0.0
H764 H 0.61522 0.07972 0.23761 0.0
H765 H 0.57099 0.11291 0.27319 0.0
H766 H 0.46952 0.16176 0.2176 0.0
H767 H 0.52041 0.15789 0.22361 0.0
C768 C 0.55545 0.66506 0.41942 0.0
C769 C 0.55474 0.68544 0.43096 0.0
C770 C 0.52595 0.63405 0.4158 0.0
C771 C 0.44178 0.56752 0.4304 0.0
H772 H 0.41848 0.5462 0.38942 0.0
C773 C 0.31886 0.46921 0.3924 0.0
C774 C 0.30851 0.43776 0.39957 0.0
C775 C 0.34932 0.49886 0.39638 0.0
C776 C 0.42454 0.55188 0.40092 0.0
H777 H 0.52262 0.68916 0.44782 0.0
H778 H 0.47105 0.63524 0.44137 0.0
H779 H 0.47074 0.59918 0.39618 0.0
H780 H 0.32206 0.41273 0.41654 0.0
H781 H 0.37544 0.46456 0.42343 0.0
H782 H 0.3951 0.52058 0.43514 0.0
C783 C 0.49452 0.64303 0.43525 0.0
C784 C 0.45468 0.58203 0.40478 0.0
C785 C 0.52401 0.67403 0.43888 0.0
C786 C 0.32923 0.43661 0.41085 0.0
C787 C 0.35974 0.46632 0.41484 0.0
C788 C 0.41163 0.53733 0.42654 0.0
C789 C 0.49513 0.62276 0.42364 0.0
C790 C 0.46355 0.59026 0.41956 0.0
C791 C 0.37015 0.49774 0.40762 0.0
C792 C 0.40259 0.5293 0.41175 0.0
H793 H 0.5788 0.67299 0.41318 0.0
H794 H 0.52735 0.61876 0.40693 0.0
H795 H 0.44812 0.57298 0.44189 0.0
H796 H 0.30343 0.471 0.38369 0.0
H797 H 0.35638 0.52279 0.39076 0.0
C798 C 0.9068 0.56875 0.58158 0.0
C799 C 0.88405 0.5674 0.59249 0.0
C800 C 0.90968 0.53971 0.57848 0.0
C801 C 0.89319 0.46825 0.5683 0.0
H802 H 0.89188 0.40994 0.59998 0.0
C803 C 0.86537 0.32966 0.55895 0.0
C804 C 0.88454 0.31825 0.56698 0.0
C805 C 0.86827 0.36154 0.56195 0.0
C806 C 0.89266 0.42614 0.59101 0.0
H807 H 0.84651 0.53458 0.60872 0.0
H808 H 0.85127 0.484 0.6032 0.0
H809 H 0.89231 0.46341 0.60555 0.0
H810 H 0.92211 0.33157 0.58436 0.0
H811 H 0.92721 0.38742 0.58957 0.0
H812 H 0.89366 0.43102 0.55376 0.0
C813 C 0.86723 0.50757 0.59717 0.0
C814 C 0.89252 0.45656 0.5942 0.0
C815 C 0.86433 0.53651 0.60026 0.0
C816 C 0.90682 0.33952 0.57804 0.0
C817 C 0.90969 0.37146 0.58105 0.0
C818 C 0.89329 0.43779 0.56511 0.0
C819 C 0.88993 0.50883 0.58626 0.0
C820 C 0.89234 0.47771 0.58288 0.0
C821 C 0.8904 0.38277 0.57304 0.0
C822 C 0.89258 0.4162 0.57643 0.0
H823 H 0.92251 0.59224 0.57546 0.0
H824 H 0.92762 0.54154 0.5701 0.0
H825 H 0.89284 0.48389 0.55933 0.0
H826 H 0.84795 0.31389 0.55035 0.0
H827 H 0.85268 0.36929 0.55573 0.0
C828 C 0.5581 0.89186 0.74237 0.0
C829 C 0.55729 0.87058 0.7309 0.0
C830 C 0.52848 0.89301 0.74615 0.0
C831 C 0.4436 0.87385 0.73188 0.0
H832 H 0.42124 0.87331 0.7729 0.0
C833 C 0.32072 0.84879 0.76999 0.0
C834 C 0.30956 0.8688 0.76246 0.0
C835 C 0.35162 0.8503 0.76616 0.0
C836 C 0.42704 0.87328 0.7614 0.0
H837 H 0.52484 0.83392 0.71435 0.0
H838 H 0.4731 0.83562 0.72107 0.0
H839 H 0.47372 0.87304 0.76607 0.0
H840 H 0.32224 0.90643 0.74514 0.0
H841 H 0.37634 0.90924 0.73855 0.0
H842 H 0.39647 0.87318 0.72721 0.0
C843 C 0.49673 0.85176 0.72702 0.0
C844 C 0.4573 0.87353 0.75749 0.0
C845 C 0.52633 0.85063 0.72323 0.0
C846 C 0.33001 0.89049 0.75108 0.0
C847 C 0.36094 0.89202 0.74727 0.0
C848 C 0.41334 0.8736 0.73579 0.0
C849 C 0.49745 0.87291 0.73853 0.0
C850 C 0.46581 0.87363 0.74269 0.0
C851 C 0.37204 0.8719 0.75475 0.0
C852 C 0.40464 0.87312 0.7506 0.0
H853 H 0.58163 0.90775 0.74843 0.0
H854 H 0.52996 0.9099 0.75495 0.0
H855 H 0.44965 0.87431 0.72038 0.0
H856 H 0.30552 0.83176 0.7788 0.0
H857 H 0.35924 0.83413 0.77201 0.0
C858 C 0.42648 0.33612 0.91534 0.0
C859 C 0.42801 0.31524 0.92646 0.0
C860 C 0.45534 0.36805 0.9121 0.0
C861 C 0.52663 0.42283 0.90171 0.0
H862 H 0.58496 0.48129 0.93305 0.0
C863 C 0.66524 0.53283 0.89184 0.0
C864 C 0.67678 0.56377 0.89961 0.0
C865 C 0.6333 0.50408 0.895 0.0
C866 C 0.56875 0.46546 0.92417 0.0
H867 H 0.46092 0.31154 0.94294 0.0
H868 H 0.51119 0.3669 0.93717 0.0
H869 H 0.53151 0.42853 0.93893 0.0
H870 H 0.66367 0.58897 0.91666 0.0
H871 H 0.60772 0.53864 0.92214 0.0
H872 H 0.56383 0.45982 0.88695 0.0
C873 C 0.48762 0.35887 0.93109 0.0
C874 C 0.53834 0.43506 0.92754 0.0
C875 C 0.45886 0.327 0.93431 0.0
C876 C 0.65561 0.56542 0.91055 0.0
C877 C 0.62361 0.53659 0.91372 0.0
C878 C 0.55707 0.45321 0.89834 0.0
C879 C 0.48621 0.37974 0.91994 0.0
C880 C 0.5172 0.41318 0.91635 0.0
C881 C 0.61215 0.50561 0.90598 0.0
C882 C 0.57868 0.47462 0.90954 0.0
H883 H 0.40301 0.32788 0.90916 0.0
H884 H 0.45339 0.38373 0.90355 0.0
H885 H 0.51101 0.4064 0.89284 0.0
H886 H 0.68094 0.53068 0.88335 0.0
H887 H 0.62545 0.48044 0.88899 0.0
C888 C 0.29222 0.18078 0.18952 0.0
C889 C 0.2759 0.14545 0.19295 0.0
C890 C 0.27398 0.19463 0.18273 0.0
C891 C 0.19864 0.17296 0.15992 0.0
H892 H 0.21093 0.25963 0.17466 0.0
C893 C 0.12506 0.23836 0.13628 0.0
C894 C 0.14454 0.27436 0.13447 0.0
C895 C 0.13878 0.22076 0.14383 0.0
C896 C 0.20744 0.23558 0.17032 0.0
H897 H 0.2276 0.09689 0.19167 0.0
H898 H 0.19582 0.12127 0.17967 0.0
H899 H 0.23934 0.23232 0.18691 0.0
H900 H 0.194 0.31992 0.13905 0.0
H901 H 0.21785 0.28929 0.1519 0.0
H902 H 0.16728 0.17664 0.14312 0.0
C903 C 0.22278 0.1381 0.18228 0.0
C904 C 0.22368 0.21992 0.17736 0.0
C905 C 0.24097 0.12421 0.1892 0.0
C906 C 0.17807 0.29224 0.1403 0.0
C907 C 0.19173 0.27469 0.14778 0.0
C908 C 0.18249 0.18875 0.1528 0.0
C909 C 0.23905 0.17351 0.17911 0.0
C910 C 0.21988 0.18873 0.17211 0.0
C911 C 0.17224 0.23879 0.14972 0.0
C912 C 0.18717 0.22053 0.1578 0.0
H913 H 0.31908 0.19795 0.19219 0.0
H914 H 0.28734 0.22193 0.18021 0.0
H915 H 0.19543 0.149 0.1556 0.0
H916 H 0.09914 0.22377 0.13194 0.0
H917 H 0.12301 0.19311 0.14523 0.0
C918 C 0.88116 0.12242 0.30458 0.0
C919 C 0.86645 0.14297 0.30123 0.0
C920 C 0.91328 0.13679 0.31149 0.0
C921 C 0.99264 0.21962 0.31691 0.0
H922 H 0.00756 0.1761 0.35062 0.0
C923 C 0.11027 0.29315 0.35397 0.0
C924 C 0.12674 0.27584 0.35956 0.0
C925 C 0.07908 0.27515 0.34651 0.0
C926 C 0.00397 0.18831 0.34108 0.0
H927 H 0.87397 0.19475 0.30269 0.0
H928 H 0.92978 0.21959 0.31464 0.0
H929 H 0.95177 0.14756 0.33817 0.0
H930 H 0.12306 0.2258 0.36169 0.0
H931 H 0.06862 0.1944 0.34842 0.0
H932 H 0.04461 0.26028 0.31972 0.0
C933 C 0.91659 0.19245 0.31183 0.0
C934 C 0.97202 0.17199 0.33398 0.0
C935 C 0.88446 0.1781 0.30505 0.0
C936 C 0.11108 0.23996 0.35754 0.0
C937 C 0.07981 0.22192 0.35 0.0
C938 C 0.02455 0.23578 0.32393 0.0
C939 C 0.93143 0.17203 0.31504 0.0
C940 C 0.96589 0.18783 0.32199 0.0
C941 C 0.06355 0.23938 0.34434 0.0
C942 C 0.03041 0.22066 0.33626 0.0
H943 H 0.868 0.09526 0.3018 0.0
H944 H 0.92422 0.12051 0.3138 0.0
H945 H 0.98884 0.23208 0.30751 0.0
H946 H 0.12134 0.32071 0.35539 0.0
H947 H 0.06692 0.28931 0.34257 0.0
C948 C 0.87118 0.12143 0.51947 0.0
C949 C 0.85216 0.12897 0.5295 0.0
C950 C 0.85552 0.0901 0.51189 0.0
C951 C 0.76821 0.01601 0.50286 0.0
H952 H 0.82147 0.97445 0.48985 0.0
C953 C 0.74633 0.88 0.47581 0.0
C954 C 0.71747 0.87226 0.46717 0.0
C955 C 0.76359 0.91134 0.48335 0.0
C956 C 0.80598 0.98531 0.49357 0.0
H957 H 0.80253 0.1094 0.54002 0.0
H958 H 0.77578 0.05404 0.52763 0.0
H959 H 0.8493 0.02728 0.504 0.0
H960 H 0.68489 0.89149 0.45902 0.0
H961 H 0.71605 0.94684 0.47128 0.0
H962 H 0.72441 0.97296 0.49341 0.0
C963 C 0.80221 0.07269 0.52493 0.0
C964 C 0.82219 0.01616 0.5015 0.0
C965 C 0.81759 0.10435 0.53217 0.0
C966 C 0.70679 0.89669 0.4658 0.0
C967 C 0.72457 0.92835 0.47297 0.0
C968 C 0.75186 0.9848 0.49529 0.0
C969 C 0.82073 0.06526 0.51448 0.0
C970 C 0.80357 0.03208 0.5062 0.0
C971 C 0.75286 0.93596 0.48209 0.0
C972 C 0.77051 0.96909 0.4904 0.0
H973 H 0.89786 0.14019 0.51716 0.0
H974 H 0.87058 0.0858 0.50378 0.0
H975 H 0.75293 0.02758 0.50596 0.0
H976 H 0.75487 0.86138 0.47709 0.0
H977 H 0.78481 0.91579 0.49041 0.0
C978 C 0.81802 0.71391 0.62865 0.0
C979 C 0.85261 0.72381 0.63122 0.0
C980 C 0.80285 0.73043 0.63587 0.0
C981 C 0.82354 0.80766 0.65892 0.0
H982 H 0.72595 0.75351 0.6675 0.0
C983 C 0.74838 0.86881 0.68462 0.0
C984 C 0.71986 0.84793 0.69348 0.0
C985 C 0.76545 0.85455 0.67706 0.0
C986 C 0.75336 0.76902 0.66547 0.0
H987 H 0.89854 0.75844 0.6434 0.0
H988 H 0.87163 0.78598 0.65673 0.0
H989 H 0.75405 0.72692 0.65498 0.0
H990 H 0.68776 0.79637 0.70202 0.0
H991 H 0.71856 0.77191 0.68969 0.0
H992 H 0.82321 0.84909 0.67037 0.0
C993 C 0.85639 0.76645 0.64871 0.0
C994 C 0.76945 0.75386 0.65793 0.0
C995 C 0.87183 0.75052 0.64116 0.0
C996 C 0.70937 0.8129 0.69506 0.0
C997 C 0.72694 0.79885 0.68785 0.0
C998 C 0.80759 0.82262 0.66681 0.0
C999 C 0.82162 0.7566 0.64619 0.0
C1000 C 0.80473 0.77297 0.65443 0.0
C1001 C 0.75485 0.81927 0.67851 0.0
C1002 C 0.77221 0.80352 0.67017 0.0
H1003 H 0.80278 0.6937 0.62087 0.0
H1004 H 0.7764 0.72269 0.63324 0.0
H1005 H 0.8506 0.82351 0.65627 0.0
H1006 H 0.75679 0.89591 0.68319 0.0
H1007 H 0.78641 0.8711 0.66983 0.0
C1008 C 0.87379 0.74653 0.8517 0.0
C1009 C 0.86582 0.71938 0.86146 0.0
C1010 C 0.90536 0.76252 0.8443 0.0
C1011 C 0.97967 0.74971 0.83524 0.0
H1012 H 0.02188 0.84544 0.82341 0.0
C1013 C 0.11648 0.86529 0.80934 0.0
C1014 C 0.1242 0.84465 0.80036 0.0
C1015 C 0.08506 0.85084 0.81683 0.0
C1016 C 0.01083 0.81882 0.82681 0.0
H1017 H 0.88485 0.6885 0.87167 0.0
H1018 H 0.94057 0.71759 0.85959 0.0
H1019 H 0.96853 0.81958 0.83724 0.0
H1020 H 0.10485 0.79334 0.79156 0.0
H1021 H 0.04943 0.76858 0.80377 0.0
H1022 H 0.023 0.74949 0.82578 0.0
C1023 C 0.9221 0.72565 0.85696 0.0
C1024 C 0.9797 0.80371 0.83454 0.0
C1025 C 0.8902 0.70907 0.86402 0.0
C1026 C 0.09969 0.80967 0.79862 0.0
C1027 C 0.06798 0.79545 0.80576 0.0
C1028 C 0.01115 0.76503 0.82786 0.0
C1029 C 0.93001 0.7523 0.84682 0.0
C1030 C 0.96353 0.76883 0.83879 0.0
C1031 C 0.06036 0.81562 0.81519 0.0
C1032 C 0.02707 0.79972 0.82339 0.0
H1033 H 0.85524 0.75478 0.84948 0.0
H1034 H 0.91002 0.78242 0.83641 0.0
H1035 H 0.96794 0.72266 0.838 0.0
H1036 H 0.13515 0.89235 0.8109 0.0
H1037 H 0.08057 0.8672 0.82415 0.0
C1038 C 0.18172 0.89262 0.02819 0.0
C1039 C 0.14697 0.86784 0.02603 0.0
C1040 C 0.19622 0.92437 0.02106 0.0
C1041 C 0.17336 0.98113 -0.00057 0.0
H1042 H 0.27032 0.02561 0.98947 0.0
C1043 C 0.28384 0.10276 0.96299 0.0
C1044 C 0.27288 0.12677 0.96524 0.0
C1045 C 0.26744 0.07093 0.97009 0.0
C1046 C 0.24306 0.01343 0.9919 0.0
H1047 H 0.10007 0.85646 0.01464 0.0
H1048 H 0.12577 0.91109 0.00145 0.0
H1049 H 0.24341 0.97032 0.00155 0.0
H1050 H 0.23651 0.1367 0.97678 0.0
H1051 H 0.20907 0.08198 0.98992 0.0
H1052 H 0.17256 0.02323 0.98883 0.0
C1053 C 0.14167 0.90677 0.00909 0.0
C1054 C 0.22768 0.98182 -0.00082 0.0
C1055 C 0.12692 0.8753 0.01656 0.0
C1056 C 0.24527 0.11846 0.97479 0.0
C1057 C 0.2294 0.08694 0.98222 0.0
C1058 C 0.18858 0.0124 0.99181 0.0
C1059 C 0.17658 0.9318 0.01123 0.0
C1060 C 0.19267 0.96529 0.00318 0.0
C1061 C 0.24026 0.06267 0.97998 0.0
C1062 C 0.22372 0.02912 0.98799 0.0
H1063 H 0.19762 0.88769 0.03562 0.0
H1064 H 0.22283 0.94315 0.02339 0.0
H1065 H 0.14649 0.96963 0.00248 0.0
H1066 H 0.30478 0.10835 0.95552 0.0
H1067 H 0.27601 0.05274 0.96769 0.0
C1068 C 0.18691 0.34 0.0748 0.0
C1069 C 0.15113 0.3265 0.07563 0.0
C1070 C 0.20167 0.33489 0.06228 0.0
C1071 C 0.17688 0.27633 0.03024 0.0
H1072 H 0.27088 0.33931 0.01804 0.0
C1073 C 0.23689 0.25438 0.97857 0.0
C1074 C 0.26729 0.25339 0.98122 0.0
C1075 C 0.22358 0.26679 0.98924 0.0
C1076 C 0.24459 0.32158 0.02137 0.0
H1077 H 0.10304 0.29928 0.06369 0.0
H1078 H 0.12882 0.29188 0.04159 0.0
H1079 H 0.24539 0.35586 0.03785 0.0
H1080 H 0.30837 0.26587 0.99682 0.0
H1081 H 0.28527 0.28824 0.01541 0.0
H1082 H 0.17604 0.24243 0.01353 0.0
C1083 C 0.14544 0.30504 0.0508 0.0
C1084 C 0.23 0.3309 0.03275 0.0
C1085 C 0.13063 0.30949 0.06343 0.0
C1086 C 0.28476 0.26612 0.99454 0.0
C1087 C 0.27174 0.27912 0.00511 0.0
C1088 C 0.19124 0.26737 0.01871 0.0
C1089 C 0.18102 0.31675 0.0502 0.0
C1090 C 0.19605 0.30819 0.03745 0.0
C1091 C 0.24076 0.27902 0.00262 0.0
C1092 C 0.2253 0.28972 0.01429 0.0
H1093 H 0.20331 0.35309 0.08409 0.0
H1094 H 0.22906 0.34394 0.06235 0.0
H1095 H 0.15102 0.25773 0.03373 0.0
H1096 H 0.22287 0.24473 0.9684 0.0
H1097 H 0.1997 0.2666 0.98708 0.0
C1098 C 0.82973 0.17957 0.23753 0.0
C1099 C 0.82321 0.1468 0.24204 0.0
C1100 C 0.84952 0.19511 0.22506 0.0
C1101 C 0.88535 0.17732 0.19171 0.0
H1102 H 0.95646 0.27326 0.19555 0.0
C1103 C 0.98204 0.24968 0.14528 0.0
C1104 C 0.01667 0.27015 0.14955 0.0
C1105 C 0.9558 0.23644 0.15574 0.0
C1106 C 0.93679 0.24644 0.19432 0.0
H1107 H 0.83154 0.10425 0.23664 0.0
H1108 H 0.86635 0.13154 0.21512 0.0
H1109 H 0.91454 0.24561 0.21512 0.0
H1110 H 0.05086 0.29339 0.16809 0.0
H1111 H 0.00517 0.26976 0.18633 0.0
H1112 H 0.90856 0.17769 0.17123 0.0
C1113 C 0.85581 0.14506 0.22109 0.0
C1114 C 0.91247 0.23071 0.20545 0.0
C1115 C 0.836 0.1295 0.23352 0.0
C1116 C 0.02445 0.27766 0.16445 0.0
C1117 C -0.00179 0.26434 0.1749 0.0
C1118 C 0.90971 0.19302 0.18061 0.0
C1119 C 0.86323 0.17824 0.21684 0.0
C1120 C 0.88684 0.1958 0.20438 0.0
C1121 C 0.96362 0.24335 0.17068 0.0
C1122 C 0.93606 0.2276 0.1819 0.0
H1123 H 0.82015 0.19359 0.24378 0.0
H1124 H 0.8544 0.2205 0.22195 0.0
H1125 H 0.86564 0.15051 0.19048 0.0
H1126 H 0.97517 0.24363 0.13387 0.0
H1127 H 0.92937 0.22075 0.15212 0.0
C1128 C 0.73653 0.98399 0.31492 0.0
C1129 C 0.73644 0.01511 0.31649 0.0
C1130 C 0.72201 0.9586 0.3257 0.0
C1131 C 0.69604 0.94788 0.36481 0.0
H1132 H 0.65876 0.85099 0.35574 0.0
C1133 C 0.64086 0.84176 0.40889 0.0
C1134 C 0.65967 0.82438 0.40982 0.0
C1135 C 0.64419 0.86189 0.39666 0.0
C1136 C 0.66892 0.87797 0.35836 0.0
H1137 H 0.7197 0.04359 0.33011 0.0
H1138 H 0.69281 -0.00131 0.3486 0.0
H1139 H 0.67503 0.89276 0.33586 0.0
H1140 H 0.69504 0.81279 0.39829 0.0
H1141 H 0.70003 0.84726 0.37675 0.0
H1142 H 0.6893 0.93272 0.38733 0.0
C1143 C 0.7053 0.99427 0.33939 0.0
C1144 C 0.67855 0.90197 0.34702 0.0
C1145 C 0.72054 0.01997 0.32876 0.0
C1146 C 0.68034 0.82598 0.39793 0.0
C1147 C 0.68308 0.84552 0.38558 0.0
C1148 C 0.68572 0.92379 0.3761 0.0
C1149 C 0.70639 0.96347 0.33815 0.0
C1150 C 0.69295 0.93738 0.3501 0.0
C1151 C 0.66572 0.86429 0.38503 0.0
C1152 C 0.67272 0.88879 0.37297 0.0
H1153 H 0.74879 0.9797 0.30557 0.0
H1154 H 0.72401 0.93563 0.32445 0.0
H1155 H 0.70762 0.97486 0.36769 0.0
H1156 H 0.62474 0.84108 0.41786 0.0
H1157 H 0.63056 0.87619 0.39641 0.0
C1158 C 0.82239 0.65278 0.56706 0.0
C1159 C 0.85411 0.67978 0.57215 0.0
C1160 C 0.80682 0.65726 0.55468 0.0
C1161 C 0.8227 0.71386 0.52253 0.0
H1162 H 0.72551 0.68391 0.52658 0.0
C1163 C 0.74657 0.7366 0.47722 0.0
C1164 C 0.725 0.74911 0.48197 0.0
C1165 C 0.76112 0.72411 0.48729 0.0
C1166 C 0.75266 0.69246 0.52529 0.0
H1167 H 0.89498 0.73219 0.5678 0.0
H1168 H 0.86759 0.74007 0.54637 0.0
H1169 H 0.75445 0.66967 0.54557 0.0
H1170 H 0.70122 0.75771 0.50098 0.0
H1171 H 0.72697 0.73639 0.51855 0.0
H1172 H 0.82121 0.73793 0.50255 0.0
C1173 C 0.85493 0.71531 0.55186 0.0
C1174 C 0.76916 0.68393 0.53608 0.0
C1175 C 0.87053 0.71084 0.56423 0.0
C1176 C 0.71777 0.7483 0.49696 0.0
C1177 C 0.73232 0.73583 0.50703 0.0
C1178 C 0.8062 0.72241 0.51174 0.0
C1179 C 0.8226 0.68881 0.54711 0.0
C1180 C 0.80449 0.69501 0.53494 0.0
C1181 C 0.75435 0.72384 0.50231 0.0
C1182 C 0.77113 0.7123 0.51313 0.0
H1183 H 0.80909 0.62841 0.57284 0.0
H1184 H 0.78214 0.63619 0.55115 0.0
H1185 H 0.84986 0.72244 0.52126 0.0
H1186 H 0.75249 0.73671 0.46572 0.0
H1187 H 0.77766 0.71467 0.48332 0.0
C1188 C 0.15295 0.80085 0.74121 0.0
C1189 C 0.17033 0.837 0.74248 0.0
C1190 C 0.13273 0.78468 0.72893 0.0
C1191 C 0.11725 0.79496 0.69084 0.0
H1192 H 0.02021 0.7359 0.69964 0.0
C1193 C 0.01261 0.75596 0.64672 0.0
C1194 C 0.98175 0.72443 0.64809 0.0
C1195 C 0.03755 0.7671 0.6577 0.0
C1196 C 0.04725 0.75158 0.6969 0.0
H1197 H 0.18166 0.88453 0.73151 0.0
H1198 H 0.14706 0.85613 0.70986 0.0
H1199 H 0.06175 0.75946 0.71951 0.0
H1200 H 0.95326 0.67899 0.66159 0.0
H1201 H -0.0026 0.69748 0.68043 0.0
H1202 H 0.10317 0.78673 0.66826 0.0
C1203 C 0.14887 0.84048 0.71848 0.0
C1204 C 0.07098 0.76521 0.70833 0.0
C1205 C 0.1685 0.85666 0.73089 0.0
C1206 C 0.97668 0.70367 0.66038 0.0
C1207 C 0.00194 0.71442 0.67121 0.0
C1208 C 0.09362 0.78073 0.67937 0.0
C1209 C 0.13023 0.80438 0.71758 0.0
C1210 C 0.10602 0.78744 0.70539 0.0
C1211 C 0.03248 0.74657 0.67015 0.0
C1212 C 0.05817 0.75937 0.68226 0.0
H1213 H 0.15379 0.78496 0.74994 0.0
H1214 H 0.11852 0.75676 0.72841 0.0
H1215 H 0.14427 0.81196 0.68837 0.0
H1216 H 0.01705 0.77253 0.63736 0.0
H1217 H 0.06031 0.79227 0.65658 0.0
C1218 C 0.28735 0.15761 0.89809 0.0
C1219 C 0.31791 0.17178 0.90635 0.0
C1220 C 0.28332 0.13761 0.88576 0.0
C1221 C 0.2861 0.10756 0.85649 0.0
H1222 H 0.31375 0.03859 0.86078 0.0
C1223 C 0.26263 0.00918 0.81093 0.0
C1224 C 0.24912 0.97484 0.81554 0.0
C1225 C 0.27558 0.03599 0.82112 0.0
C1226 C 0.30584 0.05768 0.85942 0.0
H1227 H 0.36878 0.17712 0.90771 0.0
H1228 H 0.36177 0.14244 0.88605 0.0
H1229 H 0.32777 0.08141 0.87995 0.0
H1230 H 0.23934 0.94178 0.8344 0.0
H1231 H 0.26141 0.98847 0.85219 0.0
H1232 H 0.26283 0.08289 0.83628 0.0
C1233 C 0.34077 0.14646 0.88929 0.0
C1234 C 0.31426 0.08249 0.87032 0.0
C1235 C 0.34483 0.1665 0.90165 0.0
C1236 C 0.24951 0.96795 0.8305 0.0
C1237 C 0.26242 0.99475 0.84069 0.0
C1238 C 0.27765 0.08273 0.8456 0.0
C1239 C 0.30975 0.13132 0.88136 0.0
C1240 C 0.30395 0.10733 0.86909 0.0
C1241 C 0.27529 0.02904 0.83613 0.0
C1242 C 0.28691 0.05715 0.84707 0.0
H1243 H 0.26605 0.16111 0.90136 0.0
H1244 H 0.25893 0.12598 0.88 0.0
H1245 H 0.27815 0.12661 0.85515 0.0
H1246 H 0.26292 0.01539 0.79946 0.0
H1247 H 0.28575 0.06218 0.81725 0.0
C1248 C 0.68586 0.85794 0.76283 0.0
C1249 C 0.66442 0.83861 0.75117 0.0
C1250 C 0.689 0.84139 0.77519 0.0
C1251 C 0.69084 0.76549 0.78498 0.0
H1252 H 0.68048 0.78645 0.82518 0.0
C1253 C 0.72262 0.70216 0.83253 0.0
C1254 C 0.7385 0.72259 0.84487 0.0
C1255 C 0.70831 0.71339 0.8218 0.0
C1256 C 0.68393 0.7806 0.81403 0.0
H1257 H 0.6287 0.78683 0.74352 0.0
H1258 H 0.63523 0.75799 0.76496 0.0
H1259 H 0.66496 0.8124 0.80522 0.0
H1260 H 0.75182 0.77059 0.85582 0.0
H1261 H 0.72866 0.79117 0.83677 0.0
H1262 H 0.71186 0.73561 0.79348 0.0
C1263 C 0.64913 0.78592 0.76454 0.0
C1264 C 0.67474 0.79524 0.80265 0.0
C1265 C 0.6454 0.80246 0.75232 0.0
C1266 C 0.73954 0.75427 0.84641 0.0
C1267 C 0.72596 0.7659 0.83553 0.0
C1268 C 0.70073 0.75144 0.79632 0.0
C1269 C 0.6713 0.80527 0.77596 0.0
C1270 C 0.67833 0.78792 0.78806 0.0
C1271 C 0.71033 0.74571 0.82301 0.0
C1272 C 0.69769 0.75901 0.81101 0.0
H1273 H 0.70075 0.8858 0.76231 0.0
H1274 H 0.70643 0.85676 0.78386 0.0
H1275 H 0.69424 0.7599 0.77377 0.0
H1276 H 0.72106 0.67737 0.83119 0.0
H1277 H 0.69577 0.6967 0.81253 0.0
C1278 C 0.83399 0.70407 0.92847 0.0
C1279 C 0.81949 0.67349 0.92021 0.0
C1280 C 0.85382 0.70779 0.94082 0.0
C1281 C 0.90786 0.67554 0.95622 0.0
H1282 H 0.90842 0.7273 0.99032 0.0
C1283 C 0.0225 0.73913 0.99602 0.0
C1284 C 0.01565 0.7398 0.01097 0.0
C1285 C 0.99569 0.72624 0.98584 0.0
C1286 C 0.90829 0.71237 0.98098 0.0
H1287 H 0.81325 0.62221 0.9189 0.0
H1288 H 0.84757 0.62868 0.94058 0.0
H1289 H 0.86486 0.71278 0.97146 0.0
H1290 H 0.97517 0.72629 0.02706 0.0
H1291 H 0.92839 0.70349 0.00929 0.0
H1292 H 0.95132 0.67517 0.96573 0.0
C1293 C 0.84401 0.64995 0.93733 0.0
C1294 C 0.88357 0.70439 0.9701 0.0
C1295 C 0.82417 0.64621 0.92495 0.0
C1296 C 0.98134 0.72638 0.01559 0.0
C1297 C 0.95454 0.71345 0.00541 0.0
C1298 C 0.93257 0.68349 0.9671 0.0
C1299 C 0.85956 0.68101 0.94524 0.0
C1300 C 0.88347 0.68642 0.95748 0.0
C1301 C 0.96146 0.71368 0.99041 0.0
C1302 C 0.93342 0.70251 0.97948 0.0
H1303 H 0.83093 0.72563 0.92516 0.0
H1304 H 0.86576 0.73219 0.94658 0.0
H1305 H 0.90868 0.66193 0.94657 0.0
H1306 H 0.04865 0.74923 0.99212 0.0
H1307 H 0.00193 0.72716 0.97435 0.0
C1308 C 0.18396 0.8318 0.08908 0.0
C1309 C 0.15143 0.82578 0.08446 0.0
C1310 C 0.20068 0.85372 0.10089 0.0
C1311 C 0.20517 0.92806 0.11913 0.0
H1312 H 0.25115 0.90887 0.15064 0.0
C1313 C 0.28895 0.03184 0.16091 0.0
C1314 C 0.28109 0.0219 0.17562 0.0
C1315 C 0.27623 0.00712 0.14982 0.0
C1316 C 0.23842 0.9145 0.14188 0.0
H1317 H 0.11024 0.83668 0.08917 0.0
H1318 H 0.1395 0.87482 0.10965 0.0
H1319 H 0.22093 0.86543 0.13158 0.0
H1320 H 0.25518 0.97813 0.19031 0.0
H1321 H 0.23295 0.93496 0.17089 0.0
H1322 H 0.22221 0.97684 0.12939 0.0
C1323 C 0.15217 0.86291 0.10402 0.0
C1324 C 0.22134 0.8898 0.13098 0.0
C1325 C 0.13538 0.84091 0.09231 0.0
C1326 C 0.26152 0.98662 0.17906 0.0
C1327 C 0.24897 0.96188 0.16797 0.0
C1328 C 0.22247 0.9528 0.12991 0.0
C1329 C 0.18526 0.87013 0.1082 0.0
C1330 C 0.20423 0.89626 0.11961 0.0
C1331 C 0.25561 0.97197 0.15324 0.0
C1332 C 0.23905 0.9462 0.14145 0.0
H1333 H 0.19704 0.82052 0.0833 0.0
H1334 H 0.22624 0.85894 0.1039 0.0
H1335 H 0.19256 0.93386 0.11038 0.0
H1336 H 0.30421 0.05879 0.1579 0.0
H1337 H 0.28207 0.01552 0.13855 0.0
C1338 C 0.28796 0.12794 0.25982 0.0
C1339 C 0.31922 0.14619 0.25212 0.0
C1340 C 0.28122 0.14276 0.27186 0.0
C1341 C 0.32034 0.21112 0.29959 0.0
H1342 H 0.23175 0.20703 0.29843 0.0
C1343 C 0.26457 0.25378 0.3473 0.0
C1344 C 0.24887 0.27312 0.34344 0.0
C1345 C 0.27554 0.23937 0.33648 0.0
C1346 C 0.25664 0.20852 0.29886 0.0
H1347 H 0.36863 0.19373 0.25155 0.0
H1348 H 0.35676 0.21947 0.27268 0.0
H1349 H 0.24652 0.17851 0.2794 0.0
H1350 H 0.23324 0.29332 0.32523 0.0
H1351 H 0.25218 0.26792 0.30639 0.0
H1352 H 0.33039 0.24135 0.31908 0.0
C1353 C 0.33755 0.19369 0.26933 0.0
C1354 C 0.26494 0.19189 0.28807 0.0
C1355 C 0.34425 0.17896 0.2572 0.0
C1356 C 0.24507 0.27841 0.32857 0.0
C1357 C 0.25577 0.26377 0.31778 0.0
C1358 C 0.31187 0.22752 0.3105 0.0
C1359 C 0.30563 0.17605 0.27654 0.0
C1360 C 0.29686 0.19306 0.2883 0.0
C1361 C 0.27075 0.24379 0.32163 0.0
C1362 C 0.28001 0.22651 0.31017 0.0
H1363 H 0.26815 0.10256 0.25631 0.0
H1364 H 0.2566 0.1284 0.27738 0.0
H1365 H 0.34508 0.21231 0.30003 0.0
H1366 H 0.26798 0.24936 0.35867 0.0
H1367 H 0.28683 0.22391 0.33975 0.0
C1368 C 0.15021 0.34101 0.41953 0.0
C1369 C 0.17223 0.32723 0.41846 0.0
C1370 C 0.13051 0.33573 0.43212 0.0
C1371 C 0.09663 0.27666 0.464 0.0
H1372 H 0.06699 0.34047 0.47663 0.0
C1373 C 0.01511 0.25546 0.51585 0.0
C1374 C 0.98392 0.25487 0.51319 0.0
C1375 C 0.0408 0.26755 0.50517 0.0
C1376 C 0.07517 0.32252 0.47319 0.0
H1377 H 0.19268 0.29913 0.43004 0.0
H1378 H 0.15975 0.29138 0.45227 0.0
H1379 H 0.10885 0.35684 0.45677 0.0
H1380 H 0.95559 0.26763 0.49756 0.0
H1381 H 0.00103 0.28951 0.47896 0.0
H1382 H 0.06337 0.24273 0.48067 0.0
C1383 C 0.15642 0.30497 0.44319 0.0
C1384 C 0.09896 0.33172 0.46177 0.0
C1385 C 0.17553 0.30962 0.43048 0.0
C1386 C 0.97931 0.26761 0.49985 0.0
C1387 C 0.00531 0.28031 0.48927 0.0
C1388 C 0.07341 0.26781 0.47558 0.0
C1389 C 0.13293 0.31713 0.44404 0.0
C1390 C 0.10965 0.30869 0.45689 0.0
C1391 C 0.03601 0.27987 0.49178 0.0
C1392 C 0.06218 0.29045 0.48013 0.0
H1393 H 0.14701 0.35455 0.41039 0.0
H1394 H 0.11242 0.34508 0.43223 0.0
H1395 H 0.10349 0.25786 0.46039 0.0
H1396 H 0.01934 0.24576 0.52604 0.0
H1397 H 0.06435 0.26709 0.50733 0.0
C1398 C 0.74506 0.01264 0.68351 0.0
C1399 C 0.7247 0.97837 0.67875 0.0
C1400 C 0.75867 0.03973 0.67344 0.0
C1401 C 0.75011 0.06196 0.63521 0.0
H1402 H 0.84639 0.13161 0.63969 0.0
C1403 C 0.8196 0.17041 0.59282 0.0
C1404 C 0.85187 0.17571 0.58821 0.0
C1405 C 0.80368 0.15068 0.60526 0.0
C1406 C 0.81947 0.11237 0.6383 0.0
H1407 H 0.70201 0.94569 0.65973 0.0
H1408 H 0.72624 0.99285 0.64217 0.0
H1409 H 0.81816 0.08765 0.65849 0.0
H1410 H 0.89326 0.16551 0.59344 0.0
H1411 H 0.86534 0.1309 0.61494 0.0
H1412 H 0.75187 0.08569 0.61469 0.0
C1413 C 0.73131 -0.00112 0.65369 0.0
C1414 C 0.80319 0.0874 0.64914 0.0
C1415 C 0.71765 0.9718 0.66375 0.0
C1416 C 0.8684 0.16196 0.59664 0.0
C1417 C 0.85248 0.14227 0.60905 0.0
C1418 C 0.76641 0.0869 0.62436 0.0
C1419 C 0.75223 0.03311 0.65841 0.0
C1420 C 0.7685 0.06152 0.64758 0.0
C1421 C 0.81968 0.13589 0.61336 0.0
C1422 C 0.80146 0.11197 0.62565 0.0
H1423 H 0.75077 0.01859 0.69501 0.0
H1424 H 0.77433 0.06586 0.67743 0.0
H1425 H 0.72323 0.04266 0.63379 0.0
H1426 H 0.80617 0.18072 0.58663 0.0
H1427 H 0.77859 0.14658 0.60842 0.0
loop_
_geom_bond_atom_site_label_1
_geom_bond_atom_site_label_2
_geom_bond_distance
_geom_bond_site_symmetry_2
_ccdc_geom_bond_type
Co0 O2 2.143 . S
Co0 O8 2.074 . S
Co0 O11 2.093 . S
Co0 O24 2.097 . S
Co0 N41 2.151 . S
Co0 N49 2.214 . S
Co1 O2 2.160 . S
Co1 O7 2.058 . S
Co1 O17 2.057 . S
Co1 O32 2.037 . S
Co1 N36 2.145 . S
Co1 N57 2.257 . S
O2 Co0 2.143 . S
O2 Co1 2.160 . S
C3 O4 1.278 . S
C3 O11 1.224 . S
O4 C3 1.278 . S
C5 O6 1.245 . S
C5 O17 1.232 . S
O6 C5 1.245 . S
O7 Co1 2.058 . S
O7 C33 1.269 . S
O8 Co0 2.074 . S
O8 C33 1.257 . S
H9 C34 0.930 . S
H10 C40 0.930 . S
O11 Co0 2.093 . S
O11 C3 1.224 . S
H12 C44 0.929 . S
H13 C46 0.930 . S
H14 C47 0.930 . S
H15 C45 0.929 . S
H16 C48 0.928 . S
O17 Co1 2.057 . S
O17 C5 1.232 . S
H18 C37 0.929 . S
H19 C38 0.929 . S
H20 C50 0.931 . S
H21 C42 0.929 1_655 S
H22 C51 0.930 . S
H23 C43 0.931 1_655 S
O24 Co0 2.097 . S
O24 C52 1.214 . S
H25 C53 0.929 . S
H26 C54 0.929 . S
H27 C55 0.930 . S
H28 C56 0.929 . S
H29 C58 0.930 . S
H30 C35 0.930 . S
H31 C39 0.930 . S
O32 Co1 2.037 . S
O32 C52 1.234 . S
C33 O7 1.269 . S
C33 O8 1.257 . S
C34 H9 0.930 . S
C34 C37 1.388 . S
C34 C39 1.418 . S
C35 H30 0.930 . S
C35 C38 1.404 . S
C35 C39 1.353 . S
N36 Co1 2.145 . S
N36 C37 1.397 . S
N36 C38 1.334 . S
C37 H18 0.929 . S
C37 C34 1.388 . S
C37 N36 1.397 . S
C38 H19 0.929 . S
C38 C35 1.404 . S
C38 N36 1.334 . S
C39 H31 0.930 . S
C39 C34 1.418 . S
C39 C35 1.353 . S
C40 H10 0.930 . S
C40 N41 1.330 . S
C40 C42 1.446 . S
N41 Co0 2.151 . S
N41 C40 1.330 . S
N41 C45 1.418 . S
C42 H21 0.929 1_455 S
C42 C40 1.446 . S
C42 C43 1.332 . S
C43 H23 0.931 1_455 S
C43 C42 1.332 . S
C43 C44 1.267 . S
C44 H12 0.929 . S
C44 C43 1.267 . S
C44 C45 1.251 . S
C45 H15 0.929 . S
C45 N41 1.418 . S
C45 C44 1.251 . S
C46 H13 0.930 . S
C46 C48 1.406 . S
C46 C51 1.261 . S
C47 H14 0.930 . S
C47 N49 1.325 . S
C47 C50 1.357 . S
C48 H16 0.928 . S
C48 C46 1.406 . S
C48 N49 1.261 . S
N49 Co0 2.214 . S
N49 C47 1.325 . S
N49 C48 1.261 . S
C50 H20 0.931 . S
C50 C47 1.357 . S
C50 C51 1.312 . S
C51 H22 0.930 . S
C51 C46 1.261 . S
C51 C50 1.312 . S
C52 O24 1.214 . S
C52 O32 1.234 . S
C53 H25 0.929 . S
C53 C56 1.391 . S
C53 C58 1.391 . S
C54 H26 0.929 . S
C54 C55 1.390 . S
C54 N57 1.391 . S
C55 H27 0.930 . S
C55 C54 1.390 . S
C55 C56 1.392 . S
C56 H28 0.929 . S
C56 C53 1.391 . S
C56 C55 1.392 . S
N57 Co1 2.257 . S
N57 C54 1.391 . S
N57 C58 1.388 . S
C58 H29 0.930 . S
C58 C53 1.391 . S
C58 N57 1.388 . S
Co59 O61 2.143 . S
Co59 O67 2.074 . S
Co59 O70 2.093 . S
Co59 O83 2.097 . S
Co59 N100 2.151 . S
Co59 N108 2.214 . S
Co60 O61 2.160 . S
Co60 O66 2.058 . S
Co60 O76 2.057 . S
Co60 O91 2.037 . S
Co60 N95 2.145 . S
Co60 N116 2.257 . S
O61 Co59 2.143 . S
O61 Co60 2.160 . S
C62 O63 1.278 . S
C62 O70 1.224 . S
O63 C62 1.278 . S
C64 O65 1.245 . S
C64 O76 1.232 . S
O65 C64 1.245 . S
O66 Co60 2.058 . S
O66 C92 1.269 . S
O67 Co59 2.074 . S
O67 C92 1.257 . S
H68 C93 0.930 . S
H69 C99 0.930 . S
O70 Co59 2.093 . S
O70 C62 1.224 . S
H71 C103 0.929 . S
H72 C105 0.930 . S
H73 C106 0.930 . S
H74 C104 0.929 . S
H75 C107 0.928 . S
O76 Co60 2.057 . S
O76 C64 1.232 . S
H77 C96 0.929 . S
H78 C97 0.929 . S
H79 C109 0.931 . S
H80 C101 0.929 1_565 S
H81 C110 0.930 . S
H82 C102 0.931 1_565 S
O83 Co59 2.097 . S
O83 C111 1.214 . S
H84 C112 0.929 . S
H85 C113 0.929 . S
H86 C114 0.930 . S
H87 C115 0.929 . S
H88 C117 0.930 . S
H89 C94 0.930 . S
H90 C98 0.930 . S
O91 Co60 2.037 . S
O91 C111 1.234 . S
C92 O66 1.269 . S
C92 O67 1.257 . S
C93 H68 0.930 . S
C93 C96 1.388 . S
C93 C98 1.418 . S
C94 H89 0.930 . S
C94 C97 1.404 . S
C94 C98 1.353 . S
N95 Co60 2.145 . S
N95 C96 1.397 . S
N95 C97 1.334 . S
C96 H77 0.929 . S
C96 C93 1.388 . S
C96 N95 1.397 . S
C97 H78 0.929 . S
C97 C94 1.404 . S
C97 N95 1.334 . S
C98 H90 0.930 . S
C98 C93 1.418 . S
C98 C94 1.353 . S
C99 H69 0.930 . S
C99 N100 1.330 . S
C99 C101 1.446 . S
N100 Co59 2.151 . S
N100 C99 1.330 . S
N100 C104 1.418 . S
C101 H80 0.929 1_545 S
C101 C99 1.446 . S
C101 C102 1.332 . S
C102 H82 0.931 1_545 S
C102 C101 1.332 . S
C102 C103 1.267 . S
C103 H71 0.929 . S
C103 C102 1.267 . S
C103 C104 1.251 . S
C104 H74 0.929 . S
C104 N100 1.418 . S
C104 C103 1.251 . S
C105 H72 0.930 . S
C105 C107 1.406 . S
C105 C110 1.261 . S
C106 H73 0.930 . S
C106 N108 1.325 . S
C106 C109 1.357 . S
C107 H75 0.928 . S
C107 C105 1.406 . S
C107 N108 1.261 . S
N108 Co59 2.214 . S
N108 C106 1.325 . S
N108 C107 1.261 . S
C109 H79 0.931 . S
C109 C106 1.357 . S
C109 C110 1.312 . S
C110 H81 0.930 . S
C110 C105 1.261 . S
C110 C109 1.312 . S
C111 O83 1.214 . S
C111 O91 1.234 . S
C112 H84 0.929 . S
C112 C115 1.391 . S
C112 C117 1.391 . S
C113 H85 0.929 . S
C113 C114 1.390 . S
C113 N116 1.391 . S
C114 H86 0.930 . S
C114 C113 1.390 . S
C114 C115 1.392 . S
C115 H87 0.929 . S
C115 C112 1.391 . S
C115 C114 1.392 . S
N116 Co60 2.257 . S
N116 C113 1.391 . S
N116 C117 1.388 . S
C117 H88 0.930 . S
C117 C112 1.391 . S
C117 N116 1.388 . S
Co118 O120 2.143 . S
Co118 O126 2.074 . S
Co118 O129 2.093 . S
Co118 O142 2.097 . S
Co118 N159 2.151 . S
Co118 N167 2.214 . S
Co119 O120 2.160 . S
Co119 O125 2.058 . S
Co119 O135 2.057 . S
Co119 O150 2.037 . S
Co119 N154 2.145 . S
Co119 N175 2.257 . S
O120 Co118 2.143 . S
O120 Co119 2.160 . S
C121 O122 1.278 . S
C121 O129 1.224 . S
O122 C121 1.278 . S
C123 O124 1.245 . S
C123 O135 1.232 . S
O124 C123 1.245 . S
O125 Co119 2.058 . S
O125 C151 1.269 . S
O126 Co118 2.074 . S
O126 C151 1.257 . S
H127 C152 0.930 . S
H128 C158 0.930 . S
O129 Co118 2.093 . S
O129 C121 1.224 . S
H130 C162 0.929 . S
H131 C164 0.930 . S
H132 C165 0.930 . S
H133 C163 0.929 . S
H134 C166 0.928 . S
O135 Co119 2.057 . S
O135 C123 1.232 . S
H136 C155 0.929 . S
H137 C156 0.929 . S
H138 C168 0.931 . S
H139 C160 0.929 . S
H140 C169 0.930 . S
H141 C161 0.931 . S
O142 Co118 2.097 . S
O142 C170 1.214 . S
H143 C171 0.929 . S
H144 C172 0.929 . S
H145 C173 0.930 . S
H146 C174 0.929 . S
H147 C176 0.930 . S
H148 C153 0.930 . S
H149 C157 0.930 . S
O150 Co119 2.037 . S
O150 C170 1.234 . S
C151 O125 1.269 . S
C151 O126 1.257 . S
C152 H127 0.930 . S
C152 C155 1.388 . S
C152 C157 1.418 . S
C153 H148 0.930 . S
C153 C156 1.404 . S
C153 C157 1.353 . S
N154 Co119 2.145 . S
N154 C155 1.397 . S
N154 C156 1.334 . S
C155 H136 0.929 . S
C155 C152 1.388 . S
C155 N154 1.397 . S
C156 H137 0.929 . S
C156 C153 1.404 . S
C156 N154 1.334 . S
C157 H149 0.930 . S
C157 C152 1.418 . S
C157 C153 1.353 . S
C158 H128 0.930 . S
C158 N159 1.330 . S
C158 C160 1.446 . S
N159 Co118 2.151 . S
N159 C158 1.330 . S
N159 C163 1.418 . S
C160 H139 0.929 . S
C160 C158 1.446 . S
C160 C161 1.332 . S
C161 H141 0.931 . S
C161 C160 1.332 . S
C161 C162 1.267 . S
C162 H130 0.929 . S
C162 C161 1.267 . S
C162 C163 1.251 . S
C163 H133 0.929 . S
C163 N159 1.418 . S
C163 C162 1.251 . S
C164 H131 0.930 . S
C164 C166 1.406 . S
C164 C169 1.261 . S
C165 H132 0.930 . S
C165 N167 1.325 . S
C165 C168 1.357 . S
C166 H134 0.928 . S
C166 C164 1.406 . S
C166 N167 1.261 . S
N167 Co118 2.214 . S
N167 C165 1.325 . S
N167 C166 1.261 . S
C168 H138 0.931 . S
C168 C165 1.357 . S
C168 C169 1.312 . S
C169 H140 0.930 . S
C169 C164 1.261 . S
C169 C168 1.312 . S
C170 O142 1.214 . S
C170 O150 1.234 . S
C171 H143 0.929 . S
C171 C174 1.391 . S
C171 C176 1.391 . S
C172 H144 0.929 . S
C172 C173 1.390 . S
C172 N175 1.391 . S
C173 H145 0.930 . S
C173 C172 1.390 . S
C173 C174 1.392 . S
C174 H146 0.929 . S
C174 C171 1.391 . S
C174 C173 1.392 . S
N175 Co119 2.257 . S
N175 C172 1.391 . S
N175 C176 1.388 . S
C176 H147 0.930 . S
C176 C171 1.391 . S
C176 N175 1.388 . S
Co177 O179 2.143 . S
Co177 O185 2.074 . S
Co177 O188 2.093 . S
Co177 O201 2.097 . S
Co177 N218 2.151 . S
Co177 N226 2.214 . S
Co178 O179 2.160 . S
Co178 O184 2.058 . S
Co178 O194 2.057 . S
Co178 O209 2.037 . S
Co178 N213 2.145 . S
Co178 N234 2.257 . S
O179 Co177 2.143 . S
O179 Co178 2.160 . S
C180 O181 1.278 . S
C180 O188 1.224 . S
O181 C180 1.278 . S
C182 O183 1.245 . S
C182 O194 1.232 . S
O183 C182 1.245 . S
O184 Co178 2.058 . S
O184 C210 1.269 . S
O185 Co177 2.074 . S
O185 C210 1.257 . S
H186 C211 0.930 . S
H187 C217 0.930 . S
O188 Co177 2.093 . S
O188 C180 1.224 . S
H189 C221 0.929 . S
H190 C223 0.930 . S
H191 C224 0.930 . S
H192 C222 0.929 . S
H193 C225 0.928 . S
O194 Co178 2.057 . S
O194 C182 1.232 . S
H195 C214 0.929 . S
H196 C215 0.929 . S
H197 C227 0.931 . S
H198 C219 0.929 1_455 S
H199 C228 0.930 . S
H200 C220 0.931 1_455 S
O201 Co177 2.097 . S
O201 C229 1.214 . S
H202 C230 0.929 . S
H203 C231 0.929 . S
H204 C232 0.930 . S
H205 C233 0.929 . S
H206 C235 0.930 . S
H207 C212 0.930 . S
H208 C216 0.930 . S
O209 Co178 2.037 . S
O209 C229 1.234 . S
C210 O184 1.269 . S
C210 O185 1.257 . S
C211 H186 0.930 . S
C211 C214 1.388 . S
C211 C216 1.418 . S
C212 H207 0.930 . S
C212 C215 1.404 . S
C212 C216 1.353 . S
N213 Co178 2.145 . S
N213 C214 1.397 . S
N213 C215 1.334 . S
C214 H195 0.929 . S
C214 C211 1.388 . S
C214 N213 1.397 . S
C215 H196 0.929 . S
C215 C212 1.404 . S
C215 N213 1.334 . S
C216 H208 0.930 . S
C216 C211 1.418 . S
C216 C212 1.353 . S
C217 H187 0.930 . S
C217 N218 1.330 . S
C217 C219 1.446 . S
N218 Co177 2.151 . S
N218 C217 1.330 . S
N218 C222 1.418 . S
C219 H198 0.929 1_655 S
C219 C217 1.446 . S
C219 C220 1.332 . S
C220 H200 0.931 1_655 S
C220 C219 1.332 . S
C220 C221 1.267 . S
C221 H189 0.929 . S
C221 C220 1.267 . S
C221 C222 1.251 . S
C222 H192 0.929 . S
C222 N218 1.418 . S
C222 C221 1.251 . S
C223 H190 0.930 . S
C223 C225 1.406 . S
C223 C228 1.261 . S
C224 H191 0.930 . S
C224 N226 1.325 . S
C224 C227 1.357 . S
C225 H193 0.928 . S
C225 C223 1.406 . S
C225 N226 1.261 . S
N226 Co177 2.214 . S
N226 C224 1.325 . S
N226 C225 1.261 . S
C227 H197 0.931 . S
C227 C224 1.357 . S
C227 C228 1.312 . S
C228 H199 0.930 . S
C228 C223 1.261 . S
C228 C227 1.312 . S
C229 O201 1.214 . S
C229 O209 1.234 . S
C230 H202 0.929 . S
C230 C233 1.391 . S
C230 C235 1.391 . S
C231 H203 0.929 . S
C231 C232 1.390 . S
C231 N234 1.391 . S
C232 H204 0.930 . S
C232 C231 1.390 . S
C232 C233 1.392 . S
C233 H205 0.929 . S
C233 C230 1.391 . S
C233 C232 1.392 . S
N234 Co178 2.257 . S
N234 C231 1.391 . S
N234 C235 1.388 . S
C235 H206 0.930 . S
C235 C230 1.391 . S
C235 N234 1.388 . S
Co236 O238 2.143 . S
Co236 O244 2.074 . S
Co236 O247 2.093 . S
Co236 O260 2.097 . S
Co236 N277 2.151 . S
Co236 N285 2.214 . S
Co237 O238 2.160 . S
Co237 O243 2.058 . S
Co237 O253 2.057 . S
Co237 O268 2.037 . S
Co237 N272 2.145 . S
Co237 N293 2.257 . S
O238 Co236 2.143 . S
O238 Co237 2.160 . S
C239 O240 1.278 . S
C239 O247 1.224 . S
O240 C239 1.278 . S
C241 O242 1.245 . S
C241 O253 1.232 . S
O242 C241 1.245 . S
O243 Co237 2.058 . S
O243 C269 1.269 . S
O244 Co236 2.074 . S
O244 C269 1.257 . S
H245 C270 0.930 . S
H246 C276 0.930 . S
O247 Co236 2.093 . S
O247 C239 1.224 . S
H248 C280 0.929 . S
H249 C282 0.930 . S
H250 C283 0.930 . S
H251 C281 0.929 . S
H252 C284 0.928 . S
O253 Co237 2.057 . S
O253 C241 1.232 . S
H254 C273 0.929 . S
H255 C274 0.929 . S
H256 C286 0.931 . S
H257 C278 0.929 1_545 S
H258 C287 0.930 . S
H259 C279 0.931 1_545 S
O260 Co236 2.097 . S
O260 C288 1.214 . S
H261 C289 0.929 . S
H262 C290 0.929 . S
H263 C291 0.930 . S
H264 C292 0.929 . S
H265 C294 0.930 . S
H266 C271 0.930 . S
H267 C275 0.930 . S
O268 Co237 2.037 . S
O268 C288 1.234 . S
C269 O243 1.269 . S
C269 O244 1.257 . S
C270 H245 0.930 . S
C270 C273 1.388 . S
C270 C275 1.418 . S
C271 H266 0.930 . S
C271 C274 1.404 . S
C271 C275 1.353 . S
N272 Co237 2.145 . S
N272 C273 1.397 . S
N272 C274 1.334 . S
C273 H254 0.929 . S
C273 C270 1.388 . S
C273 N272 1.397 . S
C274 H255 0.929 . S
C274 C271 1.404 . S
C274 N272 1.334 . S
C275 H267 0.930 . S
C275 C270 1.418 . S
C275 C271 1.353 . S
C276 H246 0.930 . S
C276 N277 1.330 . S
C276 C278 1.446 . S
N277 Co236 2.151 . S
N277 C276 1.330 . S
N277 C281 1.418 . S
C278 H257 0.929 1_565 S
C278 C276 1.446 . S
C278 C279 1.332 . S
C279 H259 0.931 1_565 S
C279 C278 1.332 . S
C279 C280 1.267 . S
C280 H248 0.929 . S
C280 C279 1.267 . S
C280 C281 1.251 . S
C281 H251 0.929 . S
C281 N277 1.418 . S
C281 C280 1.251 . S
C282 H249 0.930 . S
C282 C284 1.406 . S
C282 C287 1.261 . S
C283 H250 0.930 . S
C283 N285 1.325 . S
C283 C286 1.357 . S
C284 H252 0.928 . S
C284 C282 1.406 . S
C284 N285 1.261 . S
N285 Co236 2.214 . S
N285 C283 1.325 . S
N285 C284 1.261 . S
C286 H256 0.931 . S
C286 C283 1.357 . S
C286 C287 1.312 . S
C287 H258 0.930 . S
C287 C282 1.261 . S
C287 C286 1.312 . S
C288 O260 1.214 . S
C288 O268 1.234 . S
C289 H261 0.929 . S
C289 C292 1.391 . S
C289 C294 1.391 . S
C290 H262 0.929 . S
C290 C291 1.390 . S
C290 N293 1.391 . S
C291 H263 0.930 . S
C291 C290 1.390 . S
C291 C292 1.392 . S
C292 H264 0.929 . S
C292 C289 1.391 . S
C292 C291 1.392 . S
N293 Co237 2.257 . S
N293 C290 1.391 . S
N293 C294 1.388 . S
C294 H265 0.930 . S
C294 C289 1.391 . S
C294 N293 1.388 . S
Co295 O297 2.143 . S
Co295 O303 2.074 . S
Co295 O306 2.093 . S
Co295 O319 2.097 . S
Co295 N336 2.151 . S
Co295 N344 2.214 . S
Co296 O297 2.160 . S
Co296 O302 2.058 . S
Co296 O312 2.057 . S
Co296 O327 2.037 . S
Co296 N331 2.145 . S
Co296 N352 2.257 . S
O297 Co295 2.143 . S
O297 Co296 2.160 . S
C298 O299 1.278 . S
C298 O306 1.224 . S
O299 C298 1.278 . S
C300 O301 1.245 . S
C300 O312 1.232 . S
O301 C300 1.245 . S
O302 Co296 2.058 . S
O302 C328 1.269 . S
O303 Co295 2.074 . S
O303 C328 1.257 . S
H304 C329 0.930 . S
H305 C335 0.930 . S
O306 Co295 2.093 . S
O306 C298 1.224 . S
H307 C339 0.929 . S
H308 C341 0.930 . S
H309 C342 0.930 . S
H310 C340 0.929 . S
H311 C343 0.928 . S
O312 Co296 2.057 . S
O312 C300 1.232 . S
H313 C332 0.929 . S
H314 C333 0.929 . S
H315 C345 0.931 . S
H316 C337 0.929 . S
H317 C346 0.930 . S
H318 C338 0.931 . S
O319 Co295 2.097 . S
O319 C347 1.214 . S
H320 C348 0.929 . S
H321 C349 0.929 . S
H322 C350 0.930 1_554 S
H323 C351 0.929 . S
H324 C353 0.930 . S
H325 C330 0.930 . S
H326 C334 0.930 . S
O327 Co296 2.037 . S
O327 C347 1.234 . S
C328 O302 1.269 . S
C328 O303 1.257 . S
C329 H304 0.930 . S
C329 C332 1.388 . S
C329 C334 1.418 . S
C330 H325 0.930 . S
C330 C333 1.404 . S
C330 C334 1.353 . S
N331 Co296 2.145 . S
N331 C332 1.397 . S
N331 C333 1.334 . S
C332 H313 0.929 . S
C332 C329 1.388 . S
C332 N331 1.397 . S
C333 H314 0.929 . S
C333 C330 1.404 . S
C333 N331 1.334 . S
C334 H326 0.930 . S
C334 C329 1.418 . S
C334 C330 1.353 . S
C335 H305 0.930 . S
C335 N336 1.330 . S
C335 C337 1.446 . S
N336 Co295 2.151 . S
N336 C335 1.330 . S
N336 C340 1.418 . S
C337 H316 0.929 . S
C337 C335 1.446 . S
C337 C338 1.332 . S
C338 H318 0.931 . S
C338 C337 1.332 . S
C338 C339 1.267 . S
C339 H307 0.929 . S
C339 C338 1.267 . S
C339 C340 1.251 . S
C340 H310 0.929 . S
C340 N336 1.418 . S
C340 C339 1.251 . S
C341 H308 0.930 . S
C341 C343 1.406 . S
C341 C346 1.261 . S
C342 H309 0.930 . S
C342 N344 1.325 . S
C342 C345 1.357 . S
C343 H311 0.928 . S
C343 C341 1.406 . S
C343 N344 1.261 . S
N344 Co295 2.214 . S
N344 C342 1.325 . S
N344 C343 1.261 . S
C345 H315 0.931 . S
C345 C342 1.357 . S
C345 C346 1.312 . S
C346 H317 0.930 . S
C346 C341 1.261 . S
C346 C345 1.312 . S
C347 O319 1.214 . S
C347 O327 1.234 . S
C348 H320 0.929 . S
C348 C351 1.391 1_556 S
C348 C353 1.391 . S
C349 H321 0.929 . S
C349 C350 1.390 . S
C349 N352 1.391 . S
C350 H322 0.930 1_556 S
C350 C349 1.390 . S
C350 C351 1.392 1_556 S
C351 H323 0.929 . S
C351 C348 1.391 1_554 S
C351 C350 1.392 1_554 S
N352 Co296 2.257 . S
N352 C349 1.391 . S
N352 C353 1.388 . S
C353 H324 0.930 . S
C353 C348 1.391 . S
C353 N352 1.388 . S
Co354 O356 2.143 . S
Co354 O362 2.074 . S
Co354 O365 2.093 . S
Co354 O378 2.097 . S
Co354 N395 2.151 . S
Co354 N403 2.214 . S
Co355 O356 2.160 . S
Co355 O361 2.058 . S
Co355 O371 2.057 . S
Co355 O386 2.037 . S
Co355 N390 2.145 . S
Co355 N411 2.257 . S
O356 Co354 2.143 . S
O356 Co355 2.160 . S
C357 O358 1.278 . S
C357 O365 1.224 . S
O358 C357 1.278 . S
C359 O360 1.245 . S
C359 O371 1.232 . S
O360 C359 1.245 . S
O361 Co355 2.058 . S
O361 C387 1.269 . S
O362 Co354 2.074 . S
O362 C387 1.257 . S
H363 C388 0.930 . S
H364 C394 0.930 . S
O365 Co354 2.093 . S
O365 C357 1.224 . S
H366 C398 0.929 . S
H367 C400 0.930 . S
H368 C401 0.930 . S
H369 C399 0.929 . S
H370 C402 0.928 . S
O371 Co355 2.057 . S
O371 C359 1.232 . S
H372 C391 0.929 . S
H373 C392 0.929 . S
H374 C404 0.931 . S
H375 C396 0.929 1_545 S
H376 C405 0.930 . S
H377 C397 0.931 1_545 S
O378 Co354 2.097 . S
O378 C406 1.214 . S
H379 C407 0.929 . S
H380 C408 0.929 . S
H381 C409 0.930 . S
H382 C410 0.929 . S
H383 C412 0.930 . S
H384 C389 0.930 . S
H385 C393 0.930 . S
O386 Co355 2.037 . S
O386 C406 1.234 . S
C387 O361 1.269 . S
C387 O362 1.257 . S
C388 H363 0.930 . S
C388 C391 1.388 . S
C388 C393 1.418 . S
C389 H384 0.930 . S
C389 C392 1.404 . S
C389 C393 1.353 . S
N390 Co355 2.145 . S
N390 C391 1.397 . S
N390 C392 1.334 . S
C391 H372 0.929 . S
C391 C388 1.388 . S
C391 N390 1.397 . S
C392 H373 0.929 . S
C392 C389 1.404 . S
C392 N390 1.334 . S
C393 H385 0.930 . S
C393 C388 1.418 . S
C393 C389 1.353 . S
C394 H364 0.930 . S
C394 N395 1.330 . S
C394 C396 1.446 . S
N395 Co354 2.151 . S
N395 C394 1.330 . S
N395 C399 1.418 . S
C396 H375 0.929 1_565 S
C396 C394 1.446 . S
C396 C397 1.332 . S
C397 H377 0.931 1_565 S
C397 C396 1.332 . S
C397 C398 1.267 . S
C398 H366 0.929 . S
C398 C397 1.267 . S
C398 C399 1.251 . S
C399 H369 0.929 . S
C399 N395 1.418 . S
C399 C398 1.251 . S
C400 H367 0.930 . S
C400 C402 1.406 . S
C400 C405 1.261 . S
C401 H368 0.930 . S
C401 N403 1.325 . S
C401 C404 1.357 . S
C402 H370 0.928 . S
C402 C400 1.406 . S
C402 N403 1.261 . S
N403 Co354 2.214 . S
N403 C401 1.325 . S
N403 C402 1.261 . S
C404 H374 0.931 . S
C404 C401 1.357 . S
C404 C405 1.312 . S
C405 H376 0.930 . S
C405 C400 1.261 . S
C405 C404 1.312 . S
C406 O378 1.214 . S
C406 O386 1.234 . S
C407 H379 0.929 . S
C407 C410 1.391 . S
C407 C412 1.391 . S
C408 H380 0.929 . S
C408 C409 1.390 . S
C408 N411 1.391 . S
C409 H381 0.930 . S
C409 C408 1.390 . S
C409 C410 1.392 . S
C410 H382 0.929 . S
C410 C407 1.391 . S
C410 C409 1.392 . S
N411 Co355 2.257 . S
N411 C408 1.391 . S
N411 C412 1.388 . S
C412 H383 0.930 . S
C412 C407 1.391 . S
C412 N411 1.388 . S
Co413 O415 2.143 . S
Co413 O421 2.074 . S
Co413 O424 2.093 . S
Co413 O437 2.097 . S
Co413 N454 2.151 . S
Co413 N462 2.214 . S
Co414 O415 2.160 . S
Co414 O420 2.058 . S
Co414 O430 2.057 . S
Co414 O445 2.037 . S
Co414 N449 2.145 . S
Co414 N470 2.257 . S
O415 Co413 2.143 . S
O415 Co414 2.160 . S
C416 O417 1.278 . S
C416 O424 1.224 . S
O417 C416 1.278 . S
C418 O419 1.245 . S
C418 O430 1.232 . S
O419 C418 1.245 . S
O420 Co414 2.058 . S
O420 C446 1.269 . S
O421 Co413 2.074 . S
O421 C446 1.257 . S
H422 C447 0.930 . S
H423 C453 0.930 . S
O424 Co413 2.093 . S
O424 C416 1.224 . S
H425 C457 0.929 . S
H426 C459 0.930 . S
H427 C460 0.930 . S
H428 C458 0.929 . S
H429 C461 0.928 . S
O430 Co414 2.057 . S
O430 C418 1.232 . S
H431 C450 0.929 . S
H432 C451 0.929 . S
H433 C463 0.931 . S
H434 C455 0.929 . S
H435 C464 0.930 . S
H436 C456 0.931 . S
O437 Co413 2.097 . S
O437 C465 1.214 . S
H438 C466 0.929 . S
H439 C467 0.929 . S
H440 C468 0.930 . S
H441 C469 0.929 . S
H442 C471 0.930 . S
H443 C448 0.930 . S
H444 C452 0.930 . S
O445 Co414 2.037 . S
O445 C465 1.234 . S
C446 O420 1.269 . S
C446 O421 1.257 . S
C447 H422 0.930 . S
C447 C450 1.388 . S
C447 C452 1.418 . S
C448 H443 0.930 . S
C448 C451 1.404 . S
C448 C452 1.353 . S
N449 Co414 2.145 . S
N449 C450 1.397 . S
N449 C451 1.334 . S
C450 H431 0.929 . S
C450 C447 1.388 . S
C450 N449 1.397 . S
C451 H432 0.929 . S
C451 C448 1.404 . S
C451 N449 1.334 . S
C452 H444 0.930 . S
C452 C447 1.418 . S
C452 C448 1.353 . S
C453 H423 0.930 . S
C453 N454 1.330 . S
C453 C455 1.446 . S
N454 Co413 2.151 . S
N454 C453 1.330 . S
N454 C458 1.418 . S
C455 H434 0.929 . S
C455 C453 1.446 . S
C455 C456 1.332 . S
C456 H436 0.931 . S
C456 C455 1.332 . S
C456 C457 1.267 . S
C457 H425 0.929 . S
C457 C456 1.267 . S
C457 C458 1.251 . S
C458 H428 0.929 . S
C458 N454 1.418 . S
C458 C457 1.251 . S
C459 H426 0.930 . S
C459 C461 1.406 . S
C459 C464 1.261 . S
C460 H427 0.930 . S
C460 N462 1.325 . S
C460 C463 1.357 . S
C461 H429 0.928 . S
C461 C459 1.406 . S
C461 N462 1.261 . S
N462 Co413 2.214 . S
N462 C460 1.325 . S
N462 C461 1.261 . S
C463 H433 0.931 . S
C463 C460 1.357 . S
C463 C464 1.312 . S
C464 H435 0.930 . S
C464 C459 1.261 . S
C464 C463 1.312 . S
C465 O437 1.214 . S
C465 O445 1.234 . S
C466 H438 0.929 . S
C466 C469 1.391 . S
C466 C471 1.391 . S
C467 H439 0.929 . S
C467 C468 1.390 . S
C467 N470 1.391 . S
C468 H440 0.930 . S
C468 C467 1.390 . S
C468 C469 1.392 . S
C469 H441 0.929 . S
C469 C466 1.391 . S
C469 C468 1.392 . S
N470 Co414 2.257 . S
N470 C467 1.391 . S
N470 C471 1.388 . S
C471 H442 0.930 . S
C471 C466 1.391 . S
C471 N470 1.388 . S
Co472 O474 2.143 . S
Co472 O480 2.074 . S
Co472 O483 2.093 . S
Co472 O496 2.097 . S
Co472 N513 2.151 . S
Co472 N521 2.214 . S
Co473 O474 2.160 . S
Co473 O479 2.058 . S
Co473 O489 2.057 . S
Co473 O504 2.037 . S
Co473 N508 2.145 . S
Co473 N529 2.257 . S
O474 Co472 2.143 . S
O474 Co473 2.160 . S
C475 O476 1.278 . S
C475 O483 1.224 . S
O476 C475 1.278 . S
C477 O478 1.245 . S
C477 O489 1.232 . S
O478 C477 1.245 . S
O479 Co473 2.058 . S
O479 C505 1.269 . S
O480 Co472 2.074 . S
O480 C505 1.257 . S
H481 C506 0.930 . S
H482 C512 0.930 . S
O483 Co472 2.093 . S
O483 C475 1.224 . S
H484 C516 0.929 . S
H485 C518 0.930 . S
H486 C519 0.930 . S
H487 C517 0.929 . S
H488 C520 0.928 . S
O489 Co473 2.057 . S
O489 C477 1.232 . S
H490 C509 0.929 . S
H491 C510 0.929 . S
H492 C522 0.931 . S
H493 C514 0.929 1_655 S
H494 C523 0.930 . S
H495 C515 0.931 1_655 S
O496 Co472 2.097 . S
O496 C524 1.214 . S
H497 C525 0.929 . S
H498 C526 0.929 . S
H499 C527 0.930 1_556 S
H500 C528 0.929 . S
H501 C530 0.930 . S
H502 C507 0.930 . S
H503 C511 0.930 . S
O504 Co473 2.037 . S
O504 C524 1.234 . S
C505 O479 1.269 . S
C505 O480 1.257 . S
C506 H481 0.930 . S
C506 C509 1.388 . S
C506 C511 1.418 . S
C507 H502 0.930 . S
C507 C510 1.404 . S
C507 C511 1.353 . S
N508 Co473 2.145 . S
N508 C509 1.397 . S
N508 C510 1.334 . S
C509 H490 0.929 . S
C509 C506 1.388 . S
C509 N508 1.397 . S
C510 H491 0.929 . S
C510 C507 1.404 . S
C510 N508 1.334 . S
C511 H503 0.930 . S
C511 C506 1.418 . S
C511 C507 1.353 . S
C512 H482 0.930 . S
C512 N513 1.330 . S
C512 C514 1.446 . S
N513 Co472 2.151 . S
N513 C512 1.330 . S
N513 C517 1.418 . S
C514 H493 0.929 1_455 S
C514 C512 1.446 . S
C514 C515 1.332 . S
C515 H495 0.931 1_455 S
C515 C514 1.332 . S
C515 C516 1.267 . S
C516 H484 0.929 . S
C516 C515 1.267 . S
C516 C517 1.251 . S
C517 H487 0.929 . S
C517 N513 1.418 . S
C517 C516 1.251 . S
C518 H485 0.930 . S
C518 C520 1.406 . S
C518 C523 1.261 . S
C519 H486 0.930 . S
C519 N521 1.325 . S
C519 C522 1.357 . S
C520 H488 0.928 . S
C520 C518 1.406 . S
C520 N521 1.261 . S
N521 Co472 2.214 . S
N521 C519 1.325 . S
N521 C520 1.261 . S
C522 H492 0.931 . S
C522 C519 1.357 . S
C522 C523 1.312 . S
C523 H494 0.930 . S
C523 C518 1.261 . S
C523 C522 1.312 . S
C524 O496 1.214 . S
C524 O504 1.234 . S
C525 H497 0.929 . S
C525 C528 1.391 1_554 S
C525 C530 1.391 . S
C526 H498 0.929 . S
C526 C527 1.390 . S
C526 N529 1.391 . S
C527 H499 0.930 1_554 S
C527 C526 1.390 . S
C527 C528 1.392 1_554 S
C528 H500 0.929 . S
C528 C525 1.391 1_556 S
C528 C527 1.392 1_556 S
N529 Co473 2.257 . S
N529 C526 1.391 . S
N529 C530 1.388 . S
C530 H501 0.930 . S
C530 C525 1.391 . S
C530 N529 1.388 . S
Co531 O533 2.143 . S
Co531 O539 2.074 . S
Co531 O542 2.093 . S
Co531 O555 2.097 . S
Co531 N572 2.151 . S
Co531 N580 2.214 . S
Co532 O533 2.160 . S
Co532 O538 2.058 . S
Co532 O548 2.057 . S
Co532 O563 2.037 . S
Co532 N567 2.145 . S
Co532 N588 2.257 . S
O533 Co531 2.143 . S
O533 Co532 2.160 . S
C534 O535 1.278 . S
C534 O542 1.224 . S
O535 C534 1.278 . S
C536 O537 1.245 . S
C536 O548 1.232 . S
O537 C536 1.245 . S
O538 Co532 2.058 . S
O538 C564 1.269 . S
O539 Co531 2.074 . S
O539 C564 1.257 . S
H540 C565 0.930 . S
H541 C571 0.930 . S
O542 Co531 2.093 . S
O542 C534 1.224 . S
H543 C575 0.929 . S
H544 C577 0.930 . S
H545 C578 0.930 . S
H546 C576 0.929 . S
H547 C579 0.928 . S
O548 Co532 2.057 . S
O548 C536 1.232 . S
H549 C568 0.929 . S
H550 C569 0.929 . S
H551 C581 0.931 . S
H552 C573 0.929 1_565 S
H553 C582 0.930 . S
H554 C574 0.931 1_565 S
O555 Co531 2.097 . S
O555 C583 1.214 . S
H556 C584 0.929 . S
H557 C585 0.929 . S
H558 C586 0.930 . S
H559 C587 0.929 . S
H560 C589 0.930 . S
H561 C566 0.930 . S
H562 C570 0.930 . S
O563 Co532 2.037 . S
O563 C583 1.234 . S
C564 O538 1.269 . S
C564 O539 1.257 . S
C565 H540 0.930 . S
C565 C568 1.388 . S
C565 C570 1.418 . S
C566 H561 0.930 . S
C566 C569 1.404 . S
C566 C570 1.353 . S
N567 Co532 2.145 . S
N567 C568 1.397 . S
N567 C569 1.334 . S
C568 H549 0.929 . S
C568 C565 1.388 . S
C568 N567 1.397 . S
C569 H550 0.929 . S
C569 C566 1.404 . S
C569 N567 1.334 . S
C570 H562 0.930 . S
C570 C565 1.418 . S
C570 C566 1.353 . S
C571 H541 0.930 . S
C571 N572 1.330 . S
C571 C573 1.446 . S
N572 Co531 2.151 . S
N572 C571 1.330 . S
N572 C576 1.418 . S
C573 H552 0.929 1_545 S
C573 C571 1.446 . S
C573 C574 1.332 . S
C574 H554 0.931 1_545 S
C574 C573 1.332 . S
C574 C575 1.267 . S
C575 H543 0.929 . S
C575 C574 1.267 . S
C575 C576 1.251 . S
C576 H546 0.929 . S
C576 N572 1.418 . S
C576 C575 1.251 . S
C577 H544 0.930 . S
C577 C579 1.406 . S
C577 C582 1.261 . S
C578 H545 0.930 . S
C578 N580 1.325 . S
C578 C581 1.357 . S
C579 H547 0.928 . S
C579 C577 1.406 . S
C579 N580 1.261 . S
N580 Co531 2.214 . S
N580 C578 1.325 . S
N580 C579 1.261 . S
C581 H551 0.931 . S
C581 C578 1.357 . S
C581 C582 1.312 . S
C582 H553 0.930 . S
C582 C577 1.261 . S
C582 C581 1.312 . S
C583 O555 1.214 . S
C583 O563 1.234 . S
C584 H556 0.929 . S
C584 C587 1.391 . S
C584 C589 1.391 . S
C585 H557 0.929 . S
C585 C586 1.390 . S
C585 N588 1.391 . S
C586 H558 0.930 . S
C586 C585 1.390 . S
C586 C587 1.392 . S
C587 H559 0.929 . S
C587 C584 1.391 . S
C587 C586 1.392 . S
N588 Co532 2.257 . S
N588 C585 1.391 . S
N588 C589 1.388 . S
C589 H560 0.930 . S
C589 C584 1.391 . S
C589 N588 1.388 . S
Co590 O592 2.143 . S
Co590 O598 2.074 . S
Co590 O601 2.093 . S
Co590 O614 2.097 . S
Co590 N631 2.151 . S
Co590 N639 2.214 . S
Co591 O592 2.160 . S
Co591 O597 2.058 . S
Co591 O607 2.057 . S
Co591 O622 2.037 . S
Co591 N626 2.145 . S
Co591 N647 2.257 . S
O592 Co590 2.143 . S
O592 Co591 2.160 . S
C593 O594 1.278 . S
C593 O601 1.224 . S
O594 C593 1.278 . S
C595 O596 1.245 . S
C595 O607 1.232 . S
O596 C595 1.245 . S
O597 Co591 2.058 . S
O597 C623 1.269 . S
O598 Co590 2.074 . S
O598 C623 1.257 . S
H599 C624 0.930 . S
H600 C630 0.930 . S
O601 Co590 2.093 . S
O601 C593 1.224 . S
H602 C634 0.929 . S
H603 C636 0.930 . S
H604 C637 0.930 . S
H605 C635 0.929 . S
H606 C638 0.928 . S
O607 Co591 2.057 . S
O607 C595 1.232 . S
H608 C627 0.929 . S
H609 C628 0.929 . S
H610 C640 0.931 . S
H611 C632 0.929 . S
H612 C641 0.930 . S
H613 C633 0.931 . S
O614 Co590 2.097 . S
O614 C642 1.214 . S
H615 C643 0.929 . S
H616 C644 0.929 . S
H617 C645 0.930 . S
H618 C646 0.929 . S
H619 C648 0.930 . S
H620 C625 0.930 . S
H621 C629 0.930 . S
O622 Co591 2.037 . S
O622 C642 1.234 . S
C623 O597 1.269 . S
C623 O598 1.257 . S
C624 H599 0.930 . S
C624 C627 1.388 . S
C624 C629 1.418 . S
C625 H620 0.930 . S
C625 C628 1.404 . S
C625 C629 1.353 . S
N626 Co591 2.145 . S
N626 C627 1.397 . S
N626 C628 1.334 . S
C627 H608 0.929 . S
C627 C624 1.388 . S
C627 N626 1.397 . S
C628 H609 0.929 . S
C628 C625 1.404 . S
C628 N626 1.334 . S
C629 H621 0.930 . S
C629 C624 1.418 . S
C629 C625 1.353 . S
C630 H600 0.930 . S
C630 N631 1.330 . S
C630 C632 1.446 . S
N631 Co590 2.151 . S
N631 C630 1.330 . S
N631 C635 1.418 . S
C632 H611 0.929 . S
C632 C630 1.446 . S
C632 C633 1.332 . S
C633 H613 0.931 . S
C633 C632 1.332 . S
C633 C634 1.267 . S
C634 H602 0.929 . S
C634 C633 1.267 . S
C634 C635 1.251 . S
C635 H605 0.929 . S
C635 N631 1.418 . S
C635 C634 1.251 . S
C636 H603 0.930 . S
C636 C638 1.406 . S
C636 C641 1.261 . S
C637 H604 0.930 . S
C637 N639 1.325 . S
C637 C640 1.357 . S
C638 H606 0.928 . S
C638 C636 1.406 . S
C638 N639 1.261 . S
N639 Co590 2.214 . S
N639 C637 1.325 . S
N639 C638 1.261 . S
C640 H610 0.931 . S
C640 C637 1.357 . S
C640 C641 1.312 . S
C641 H612 0.930 . S
C641 C636 1.261 . S
C641 C640 1.312 . S
C642 O614 1.214 . S
C642 O622 1.234 . S
C643 H615 0.929 . S
C643 C646 1.391 . S
C643 C648 1.391 . S
C644 H616 0.929 . S
C644 C645 1.390 . S
C644 N647 1.391 . S
C645 H617 0.930 . S
C645 C644 1.390 . S
C645 C646 1.392 . S
C646 H618 0.929 . S
C646 C643 1.391 . S
C646 C645 1.392 . S
N647 Co591 2.257 . S
N647 C644 1.391 . S
N647 C648 1.388 . S
C648 H619 0.930 . S
C648 C643 1.391 . S
C648 N647 1.388 . S
Co649 O651 2.143 . S
Co649 O657 2.074 . S
Co649 O660 2.093 . S
Co649 O673 2.097 . S
Co649 N690 2.151 . S
Co649 N698 2.214 . S
Co650 O651 2.160 . S
Co650 O656 2.058 . S
Co650 O666 2.057 . S
Co650 O681 2.037 . S
Co650 N685 2.145 . S
Co650 N706 2.257 . S
O651 Co649 2.143 . S
O651 Co650 2.160 . S
C652 O653 1.278 . S
C652 O660 1.224 . S
O653 C652 1.278 . S
C654 O655 1.245 . S
C654 O666 1.232 . S
O655 C654 1.245 . S
O656 Co650 2.058 . S
O656 C682 1.269 . S
O657 Co649 2.074 . S
O657 C682 1.257 . S
H658 C683 0.930 . S
H659 C689 0.930 . S
O660 Co649 2.093 . S
O660 C652 1.224 . S
H661 C693 0.929 . S
H662 C695 0.930 . S
H663 C696 0.930 . S
H664 C694 0.929 . S
H665 C697 0.928 . S
O666 Co650 2.057 . S
O666 C654 1.232 . S
H667 C686 0.929 . S
H668 C687 0.929 . S
H669 C699 0.931 . S
H670 C691 0.929 1_455 S
H671 C700 0.930 . S
H672 C692 0.931 1_455 S
O673 Co649 2.097 . S
O673 C701 1.214 . S
H674 C702 0.929 . S
H675 C703 0.929 . S
H676 C704 0.930 . S
H677 C705 0.929 . S
H678 C707 0.930 . S
H679 C684 0.930 . S
H680 C688 0.930 . S
O681 Co650 2.037 . S
O681 C701 1.234 . S
C682 O656 1.269 . S
C682 O657 1.257 . S
C683 H658 0.930 . S
C683 C686 1.388 . S
C683 C688 1.418 . S
C684 H679 0.930 . S
C684 C687 1.404 . S
C684 C688 1.353 . S
N685 Co650 2.145 . S
N685 C686 1.397 . S
N685 C687 1.334 . S
C686 H667 0.929 . S
C686 C683 1.388 . S
C686 N685 1.397 . S
C687 H668 0.929 . S
C687 C684 1.404 . S
C687 N685 1.334 . S
C688 H680 0.930 . S
C688 C683 1.418 . S
C688 C684 1.353 . S
C689 H659 0.930 . S
C689 N690 1.330 . S
C689 C691 1.446 . S
N690 Co649 2.151 . S
N690 C689 1.330 . S
N690 C694 1.418 . S
C691 H670 0.929 1_655 S
C691 C689 1.446 . S
C691 C692 1.332 . S
C692 H672 0.931 1_655 S
C692 C691 1.332 . S
C692 C693 1.267 . S
C693 H661 0.929 . S
C693 C692 1.267 . S
C693 C694 1.251 . S
C694 H664 0.929 . S
C694 N690 1.418 . S
C694 C693 1.251 . S
C695 H662 0.930 . S
C695 C697 1.406 . S
C695 C700 1.261 . S
C696 H663 0.930 . S
C696 N698 1.325 . S
C696 C699 1.357 . S
C697 H665 0.928 . S
C697 C695 1.406 . S
C697 N698 1.261 . S
N698 Co649 2.214 . S
N698 C696 1.325 . S
N698 C697 1.261 . S
C699 H669 0.931 . S
C699 C696 1.357 . S
C699 C700 1.312 . S
C700 H671 0.930 . S
C700 C695 1.261 . S
C700 C699 1.312 . S
C701 O673 1.214 . S
C701 O681 1.234 . S
C702 H674 0.929 . S
C702 C705 1.391 . S
C702 C707 1.391 . S
C703 H675 0.929 . S
C703 C704 1.390 . S
C703 N706 1.391 . S
C704 H676 0.930 . S
C704 C703 1.390 . S
C704 C705 1.392 . S
C705 H677 0.929 . S
C705 C702 1.391 . S
C705 C704 1.392 . S
N706 Co650 2.257 . S
N706 C703 1.391 . S
N706 C707 1.388 . S
C707 H678 0.930 . S
C707 C702 1.391 . S
C707 N706 1.388 . S
C708 C709 1.349 . S
C708 C710 1.327 . S
C708 H733 0.950 . S
C709 C708 1.349 . S
C709 C725 1.349 . S
C710 C708 1.327 . S
C710 C729 1.429 . S
C710 H734 0.950 . S
C711 C728 1.574 . S
C711 C730 1.368 . S
C711 H735 0.949 . S
H712 C716 0.949 . S
C713 C714 1.349 . S
C713 C715 1.327 . S
C713 H736 0.950 . S
C714 C713 1.349 . S
C714 C726 1.349 . S
C715 C713 1.327 . S
C715 C731 1.429 . S
C715 H737 0.950 . S
C716 H712 0.949 . S
C716 C724 1.574 . S
C716 C732 1.368 . S
H717 C725 0.950 . S
H718 C723 0.950 . S
H719 C724 0.949 . S
H720 C726 0.950 . S
H721 C727 0.950 . S
H722 C728 0.949 . S
C723 H718 0.950 . S
C723 C725 1.327 . S
C723 C729 1.429 . S
C724 C716 1.574 . S
C724 H719 0.949 . S
C724 C730 1.368 . S
C725 C709 1.349 . S
C725 H717 0.950 . S
C725 C723 1.327 . S
C726 C714 1.349 . S
C726 H720 0.950 . S
C726 C727 1.327 . S
C727 H721 0.950 . S
C727 C726 1.327 . S
C727 C731 1.429 . S
C728 C711 1.574 . S
C728 H722 0.949 . S
C728 C732 1.368 . S
C729 C710 1.429 . S
C729 C723 1.429 . S
C729 C730 1.523 . S
C730 C711 1.368 . S
C730 C724 1.368 . S
C730 C729 1.523 . S
C731 C715 1.429 . S
C731 C727 1.429 . S
C731 C732 1.523 . S
C732 C716 1.368 . S
C732 C728 1.368 . S
C732 C731 1.523 . S
H733 C708 0.950 . S
H734 C710 0.950 . S
H735 C711 0.949 . S
H736 C713 0.950 . S
H737 C715 0.950 . S
C738 C739 1.349 . S
C738 C740 1.327 . S
C738 H763 0.950 . S
C739 C738 1.349 . S
C739 C755 1.349 . S
C740 C738 1.327 . S
C740 C759 1.429 . S
C740 H764 0.950 . S
C741 C758 1.574 . S
C741 C760 1.368 . S
C741 H765 0.949 . S
H742 C746 0.949 . S
C743 C744 1.349 . S
C743 C745 1.327 . S
C743 H766 0.950 . S
C744 C743 1.349 . S
C744 C756 1.349 . S
C745 C743 1.327 . S
C745 C761 1.429 . S
C745 H767 0.950 . S
C746 H742 0.949 . S
C746 C754 1.574 . S
C746 C762 1.368 . S
H747 C755 0.950 . S
H748 C753 0.950 . S
H749 C754 0.949 . S
H750 C756 0.950 . S
H751 C757 0.950 . S
H752 C758 0.949 . S
C753 H748 0.950 . S
C753 C755 1.327 . S
C753 C759 1.429 . S
C754 C746 1.574 . S
C754 H749 0.949 . S
C754 C760 1.368 . S
C755 C739 1.349 . S
C755 H747 0.950 . S
C755 C753 1.327 . S
C756 C744 1.349 . S
C756 H750 0.950 . S
C756 C757 1.327 . S
C757 H751 0.950 . S
C757 C756 1.327 . S
C757 C761 1.429 . S
C758 C741 1.574 . S
C758 H752 0.949 . S
C758 C762 1.368 . S
C759 C740 1.429 . S
C759 C753 1.429 . S
C759 C760 1.523 . S
C760 C741 1.368 . S
C760 C754 1.368 . S
C760 C759 1.523 . S
C761 C745 1.429 . S
C761 C757 1.429 . S
C761 C762 1.523 . S
C762 C746 1.368 . S
C762 C758 1.368 . S
C762 C761 1.523 . S
H763 C738 0.950 . S
H764 C740 0.950 . S
H765 C741 0.949 . S
H766 C743 0.950 . S
H767 C745 0.950 . S
C768 C769 1.349 . S
C768 C770 1.327 . S
C768 H793 0.950 . S
C769 C768 1.349 . S
C769 C785 1.349 . S
C770 C768 1.327 . S
C770 C789 1.429 . S
C770 H794 0.950 . S
C771 C788 1.574 . S
C771 C790 1.368 . S
C771 H795 0.949 . S
H772 C776 0.949 . S
C773 C774 1.349 . S
C773 C775 1.327 . S
C773 H796 0.950 . S
C774 C773 1.349 . S
C774 C786 1.349 . S
C775 C773 1.327 . S
C775 C791 1.429 . S
C775 H797 0.950 . S
C776 H772 0.949 . S
C776 C784 1.574 . S
C776 C792 1.368 . S
H777 C785 0.950 . S
H778 C783 0.950 . S
H779 C784 0.949 . S
H780 C786 0.950 . S
H781 C787 0.950 . S
H782 C788 0.949 . S
C783 H778 0.950 . S
C783 C785 1.327 . S
C783 C789 1.429 . S
C784 C776 1.574 . S
C784 H779 0.949 . S
C784 C790 1.368 . S
C785 C769 1.349 . S
C785 H777 0.950 . S
C785 C783 1.327 . S
C786 C774 1.349 . S
C786 H780 0.950 . S
C786 C787 1.327 . S
C787 H781 0.950 . S
C787 C786 1.327 . S
C787 C791 1.429 . S
C788 C771 1.574 . S
C788 H782 0.949 . S
C788 C792 1.368 . S
C789 C770 1.429 . S
C789 C783 1.429 . S
C789 C790 1.523 . S
C790 C771 1.368 . S
C790 C784 1.368 . S
C790 C789 1.523 . S
C791 C775 1.429 . S
C791 C787 1.429 . S
C791 C792 1.523 . S
C792 C776 1.368 . S
C792 C788 1.368 . S
C792 C791 1.523 . S
H793 C768 0.950 . S
H794 C770 0.950 . S
H795 C771 0.949 . S
H796 C773 0.950 . S
H797 C775 0.950 . S
C798 C799 1.349 . S
C798 C800 1.327 . S
C798 H823 0.950 . S
C799 C798 1.349 . S
C799 C815 1.349 . S
C800 C798 1.327 . S
C800 C819 1.429 . S
C800 H824 0.950 . S
C801 C818 1.574 . S
C801 C820 1.368 . S
C801 H825 0.949 . S
H802 C806 0.949 . S
C803 C804 1.349 . S
C803 C805 1.327 . S
C803 H826 0.950 . S
C804 C803 1.349 . S
C804 C816 1.349 . S
C805 C803 1.327 . S
C805 C821 1.429 . S
C805 H827 0.950 . S
C806 H802 0.949 . S
C806 C814 1.574 . S
C806 C822 1.368 . S
H807 C815 0.950 . S
H808 C813 0.950 . S
H809 C814 0.949 . S
H810 C816 0.950 . S
H811 C817 0.950 . S
H812 C818 0.949 . S
C813 H808 0.950 . S
C813 C815 1.327 . S
C813 C819 1.429 . S
C814 C806 1.574 . S
C814 H809 0.949 . S
C814 C820 1.368 . S
C815 C799 1.349 . S
C815 H807 0.950 . S
C815 C813 1.327 . S
C816 C804 1.349 . S
C816 H810 0.950 . S
C816 C817 1.327 . S
C817 H811 0.950 . S
C817 C816 1.327 . S
C817 C821 1.429 . S
C818 C801 1.574 . S
C818 H812 0.949 . S
C818 C822 1.368 . S
C819 C800 1.429 . S
C819 C813 1.429 . S
C819 C820 1.523 . S
C820 C801 1.368 . S
C820 C814 1.368 . S
C820 C819 1.523 . S
C821 C805 1.429 . S
C821 C817 1.429 . S
C821 C822 1.523 . S
C822 C806 1.368 . S
C822 C818 1.368 . S
C822 C821 1.523 . S
H823 C798 0.950 . S
H824 C800 0.950 . S
H825 C801 0.949 . S
H826 C803 0.950 . S
H827 C805 0.950 . S
C828 C829 1.349 . S
C828 C830 1.327 . S
C828 H853 0.950 . S
C829 C828 1.349 . S
C829 C845 1.349 . S
C830 C828 1.327 . S
C830 C849 1.429 . S
C830 H854 0.950 . S
C831 C848 1.574 . S
C831 C850 1.368 . S
C831 H855 0.949 . S
H832 C836 0.949 . S
C833 C834 1.349 . S
C833 C835 1.327 . S
C833 H856 0.950 . S
C834 C833 1.349 . S
C834 C846 1.349 . S
C835 C833 1.327 . S
C835 C851 1.429 . S
C835 H857 0.950 . S
C836 H832 0.949 . S
C836 C844 1.574 . S
C836 C852 1.368 . S
H837 C845 0.950 . S
H838 C843 0.950 . S
H839 C844 0.949 . S
H840 C846 0.950 . S
H841 C847 0.950 . S
H842 C848 0.949 . S
C843 H838 0.950 . S
C843 C845 1.327 . S
C843 C849 1.429 . S
C844 C836 1.574 . S
C844 H839 0.949 . S
C844 C850 1.368 . S
C845 C829 1.349 . S
C845 H837 0.950 . S
C845 C843 1.327 . S
C846 C834 1.349 . S
C846 H840 0.950 . S
C846 C847 1.327 . S
C847 H841 0.950 . S
C847 C846 1.327 . S
C847 C851 1.429 . S
C848 C831 1.574 . S
C848 H842 0.949 . S
C848 C852 1.368 . S
C849 C830 1.429 . S
C849 C843 1.429 . S
C849 C850 1.523 . S
C850 C831 1.368 . S
C850 C844 1.368 . S
C850 C849 1.523 . S
C851 C835 1.429 . S
C851 C847 1.429 . S
C851 C852 1.523 . S
C852 C836 1.368 . S
C852 C848 1.368 . S
C852 C851 1.523 . S
H853 C828 0.950 . S
H854 C830 0.950 . S
H855 C831 0.949 . S
H856 C833 0.950 . S
H857 C835 0.950 . S
C858 C859 1.349 . S
C858 C860 1.327 . S
C858 H883 0.950 . S
C859 C858 1.349 . S
C859 C875 1.349 . S
C860 C858 1.327 . S
C860 C879 1.429 . S
C860 H884 0.950 . S
C861 C878 1.574 . S
C861 C880 1.368 . S
C861 H885 0.949 . S
H862 C866 0.949 . S
C863 C864 1.349 . S
C863 C865 1.327 . S
C863 H886 0.950 . S
C864 C863 1.349 . S
C864 C876 1.349 . S
C865 C863 1.327 . S
C865 C881 1.429 . S
C865 H887 0.950 . S
C866 H862 0.949 . S
C866 C874 1.574 . S
C866 C882 1.368 . S
H867 C875 0.950 . S
H868 C873 0.950 . S
H869 C874 0.949 . S
H870 C876 0.950 . S
H871 C877 0.950 . S
H872 C878 0.949 . S
C873 H868 0.950 . S
C873 C875 1.327 . S
C873 C879 1.429 . S
C874 C866 1.574 . S
C874 H869 0.949 . S
C874 C880 1.368 . S
C875 C859 1.349 . S
C875 H867 0.950 . S
C875 C873 1.327 . S
C876 C864 1.349 . S
C876 H870 0.950 . S
C876 C877 1.327 . S
C877 H871 0.950 . S
C877 C876 1.327 . S
C877 C881 1.429 . S
C878 C861 1.574 . S
C878 H872 0.949 . S
C878 C882 1.368 . S
C879 C860 1.429 . S
C879 C873 1.429 . S
C879 C880 1.523 . S
C880 C861 1.368 . S
C880 C874 1.368 . S
C880 C879 1.523 . S
C881 C865 1.429 . S
C881 C877 1.429 . S
C881 C882 1.523 . S
C882 C866 1.368 . S
C882 C878 1.368 . S
C882 C881 1.523 . S
H883 C858 0.950 . S
H884 C860 0.950 . S
H885 C861 0.949 . S
H886 C863 0.950 . S
H887 C865 0.950 . S
C888 C889 1.349 . S
C888 C890 1.327 . S
C888 H913 0.950 . S
C889 C888 1.349 . S
C889 C905 1.349 . S
C890 C888 1.327 . S
C890 C909 1.429 . S
C890 H914 0.950 . S
C891 C908 1.574 . S
C891 C910 1.368 . S
C891 H915 0.949 . S
H892 C896 0.949 . S
C893 C894 1.349 . S
C893 C895 1.327 . S
C893 H916 0.950 . S
C894 C893 1.349 . S
C894 C906 1.349 . S
C895 C893 1.327 . S
C895 C911 1.429 . S
C895 H917 0.950 . S
C896 H892 0.949 . S
C896 C904 1.574 . S
C896 C912 1.368 . S
H897 C905 0.950 . S
H898 C903 0.950 . S
H899 C904 0.949 . S
H900 C906 0.950 . S
H901 C907 0.950 . S
H902 C908 0.949 . S
C903 H898 0.950 . S
C903 C905 1.327 . S
C903 C909 1.429 . S
C904 C896 1.574 . S
C904 H899 0.949 . S
C904 C910 1.368 . S
C905 C889 1.349 . S
C905 H897 0.950 . S
C905 C903 1.327 . S
C906 C894 1.349 . S
C906 H900 0.950 . S
C906 C907 1.327 . S
C907 H901 0.950 . S
C907 C906 1.327 . S
C907 C911 1.429 . S
C908 C891 1.574 . S
C908 H902 0.949 . S
C908 C912 1.368 . S
C909 C890 1.429 . S
C909 C903 1.429 . S
C909 C910 1.523 . S
C910 C891 1.368 . S
C910 C904 1.368 . S
C910 C909 1.523 . S
C911 C895 1.429 . S
C911 C907 1.429 . S
C911 C912 1.523 . S
C912 C896 1.368 . S
C912 C908 1.368 . S
C912 C911 1.523 . S
H913 C888 0.950 . S
H914 C890 0.950 . S
H915 C891 0.949 . S
H916 C893 0.950 . S
H917 C895 0.950 . S
C918 C919 1.349 . S
C918 C920 1.327 . S
C918 H943 0.950 . S
C919 C918 1.349 . S
C919 C935 1.349 . S
C920 C918 1.327 . S
C920 C939 1.429 . S
C920 H944 0.950 . S
C921 C938 1.574 1_655 S
C921 C940 1.368 . S
C921 H945 0.949 . S
H922 C926 0.949 . S
C923 C924 1.349 . S
C923 C925 1.327 . S
C923 H946 0.950 . S
C924 C923 1.349 . S
C924 C936 1.349 . S
C925 C923 1.327 . S
C925 C941 1.429 . S
C925 H947 0.950 . S
C926 H922 0.949 . S
C926 C934 1.574 1_455 S
C926 C942 1.368 . S
H927 C935 0.950 . S
H928 C933 0.950 . S
H929 C934 0.949 . S
H930 C936 0.950 . S
H931 C937 0.950 . S
H932 C938 0.949 . S
C933 H928 0.950 . S
C933 C935 1.327 . S
C933 C939 1.429 . S
C934 C926 1.574 1_655 S
C934 H929 0.949 . S
C934 C940 1.368 . S
C935 C919 1.349 . S
C935 H927 0.950 . S
C935 C933 1.327 . S
C936 C924 1.349 . S
C936 H930 0.950 . S
C936 C937 1.327 . S
C937 H931 0.950 . S
C937 C936 1.327 . S
C937 C941 1.429 . S
C938 C921 1.574 1_455 S
C938 H932 0.949 . S
C938 C942 1.368 . S
C939 C920 1.429 . S
C939 C933 1.429 . S
C939 C940 1.523 . S
C940 C921 1.368 . S
C940 C934 1.368 . S
C940 C939 1.523 . S
C941 C925 1.429 . S
C941 C937 1.429 . S
C941 C942 1.523 . S
C942 C926 1.368 . S
C942 C938 1.368 . S
C942 C941 1.523 . S
H943 C918 0.950 . S
H944 C920 0.950 . S
H945 C921 0.949 . S
H946 C923 0.950 . S
H947 C925 0.950 . S
C948 C949 1.349 . S
C948 C950 1.327 . S
C948 H973 0.950 . S
C949 C948 1.349 . S
C949 C965 1.349 . S
C950 C948 1.327 . S
C950 C969 1.429 . S
C950 H974 0.950 . S
C951 C968 1.574 1_545 S
C951 C970 1.368 . S
C951 H975 0.949 . S
H952 C956 0.949 . S
C953 C954 1.349 . S
C953 C955 1.327 . S
C953 H976 0.950 . S
C954 C953 1.349 . S
C954 C966 1.349 . S
C955 C953 1.327 . S
C955 C971 1.429 . S
C955 H977 0.950 . S
C956 H952 0.949 . S
C956 C964 1.574 1_565 S
C956 C972 1.368 . S
H957 C965 0.950 . S
H958 C963 0.950 . S
H959 C964 0.949 . S
H960 C966 0.950 . S
H961 C967 0.950 . S
H962 C968 0.949 . S
C963 H958 0.950 . S
C963 C965 1.327 . S
C963 C969 1.429 . S
C964 C956 1.574 1_545 S
C964 H959 0.949 . S
C964 C970 1.368 . S
C965 C949 1.349 . S
C965 H957 0.950 . S
C965 C963 1.327 . S
C966 C954 1.349 . S
C966 H960 0.950 . S
C966 C967 1.327 . S
C967 H961 0.950 . S
C967 C966 1.327 . S
C967 C971 1.429 . S
C968 C951 1.574 1_565 S
C968 H962 0.949 . S
C968 C972 1.368 . S
C969 C950 1.429 . S
C969 C963 1.429 . S
C969 C970 1.523 . S
C970 C951 1.368 . S
C970 C964 1.368 . S
C970 C969 1.523 . S
C971 C955 1.429 . S
C971 C967 1.429 . S
C971 C972 1.523 . S
C972 C956 1.368 . S
C972 C968 1.368 . S
C972 C971 1.523 . S
H973 C948 0.950 . S
H974 C950 0.950 . S
H975 C951 0.949 . S
H976 C953 0.950 . S
H977 C955 0.950 . S
C978 C979 1.349 . S
C978 C980 1.327 . S
C978 H1003 0.950 . S
C979 C978 1.349 . S
C979 C995 1.349 . S
C980 C978 1.327 . S
C980 C999 1.429 . S
C980 H1004 0.950 . S
C981 C998 1.574 . S
C981 C1000 1.368 . S
C981 H1005 0.949 . S
H982 C986 0.949 . S
C983 C984 1.349 . S
C983 C985 1.327 . S
C983 H1006 0.950 . S
C984 C983 1.349 . S
C984 C996 1.349 . S
C985 C983 1.327 . S
C985 C1001 1.429 . S
C985 H1007 0.950 . S
C986 H982 0.949 . S
C986 C994 1.574 . S
C986 C1002 1.368 . S
H987 C995 0.950 . S
H988 C993 0.950 . S
H989 C994 0.949 . S
H990 C996 0.950 . S
H991 C997 0.950 . S
H992 C998 0.949 . S
C993 H988 0.950 . S
C993 C995 1.327 . S
C993 C999 1.429 . S
C994 C986 1.574 . S
C994 H989 0.949 . S
C994 C1000 1.368 . S
C995 C979 1.349 . S
C995 H987 0.950 . S
C995 C993 1.327 . S
C996 C984 1.349 . S
C996 H990 0.950 . S
C996 C997 1.327 . S
C997 H991 0.950 . S
C997 C996 1.327 . S
C997 C1001 1.429 . S
C998 C981 1.574 . S
C998 H992 0.949 . S
C998 C1002 1.368 . S
C999 C980 1.429 . S
C999 C993 1.429 . S
C999 C1000 1.523 . S
C1000 C981 1.368 . S
C1000 C994 1.368 . S
C1000 C999 1.523 . S
C1001 C985 1.429 . S
C1001 C997 1.429 . S
C1001 C1002 1.523 . S
C1002 C986 1.368 . S
C1002 C998 1.368 . S
C1002 C1001 1.523 . S
H1003 C978 0.950 . S
H1004 C980 0.950 . S
H1005 C981 0.949 . S
H1006 C983 0.950 . S
H1007 C985 0.950 . S
C1008 C1009 1.349 . S
C1008 C1010 1.327 . S
C1008 H1033 0.950 . S
C1009 C1008 1.349 . S
C1009 C1025 1.349 . S
C1010 C1008 1.327 . S
C1010 C1029 1.429 . S
C1010 H1034 0.950 . S
C1011 C1028 1.574 1_655 S
C1011 C1030 1.368 . S
C1011 H1035 0.949 . S
H1012 C1016 0.949 . S
C1013 C1014 1.349 . S
C1013 C1015 1.327 . S
C1013 H1036 0.950 . S
C1014 C1013 1.349 . S
C1014 C1026 1.349 . S
C1015 C1013 1.327 . S
C1015 C1031 1.429 . S
C1015 H1037 0.950 . S
C1016 H1012 0.949 . S
C1016 C1024 1.574 1_455 S
C1016 C1032 1.368 . S
H1017 C1025 0.950 . S
H1018 C1023 0.950 . S
H1019 C1024 0.949 . S
H1020 C1026 0.950 . S
H1021 C1027 0.950 . S
H1022 C1028 0.949 . S
C1023 H1018 0.950 . S
C1023 C1025 1.327 . S
C1023 C1029 1.429 . S
C1024 C1016 1.574 1_655 S
C1024 H1019 0.949 . S
C1024 C1030 1.368 . S
C1025 C1009 1.349 . S
C1025 H1017 0.950 . S
C1025 C1023 1.327 . S
C1026 C1014 1.349 . S
C1026 H1020 0.950 . S
C1026 C1027 1.327 . S
C1027 H1021 0.950 . S
C1027 C1026 1.327 . S
C1027 C1031 1.429 . S
C1028 C1011 1.574 1_455 S
C1028 H1022 0.949 . S
C1028 C1032 1.368 . S
C1029 C1010 1.429 . S
C1029 C1023 1.429 . S
C1029 C1030 1.523 . S
C1030 C1011 1.368 . S
C1030 C1024 1.368 . S
C1030 C1029 1.523 . S
C1031 C1015 1.429 . S
C1031 C1027 1.429 . S
C1031 C1032 1.523 . S
C1032 C1016 1.368 . S
C1032 C1028 1.368 . S
C1032 C1031 1.523 . S
H1033 C1008 0.950 . S
H1034 C1010 0.950 . S
H1035 C1011 0.949 . S
H1036 C1013 0.950 . S
H1037 C1015 0.950 . S
C1038 C1039 1.349 . S
C1038 C1040 1.327 . S
C1038 H1063 0.950 . S
C1039 C1038 1.349 . S
C1039 C1055 1.349 . S
C1040 C1038 1.327 . S
C1040 C1059 1.429 . S
C1040 H1064 0.950 . S
C1041 C1058 1.574 1_565 S
C1041 C1060 1.368 1_556 S
C1041 H1065 0.949 . S
H1042 C1046 0.949 . S
C1043 C1044 1.349 . S
C1043 C1045 1.327 . S
C1043 H1066 0.950 . S
C1044 C1043 1.349 . S
C1044 C1056 1.349 . S
C1045 C1043 1.327 . S
C1045 C1061 1.429 . S
C1045 H1067 0.950 . S
C1046 H1042 0.949 . S
C1046 C1054 1.574 1_545 S
C1046 C1062 1.368 1_554 S
H1047 C1055 0.950 . S
H1048 C1053 0.950 1_556 S
H1049 C1054 0.949 . S
H1050 C1056 0.950 . S
H1051 C1057 0.950 1_554 S
H1052 C1058 0.949 . S
C1053 H1048 0.950 1_554 S
C1053 C1055 1.327 . S
C1053 C1059 1.429 . S
C1054 C1046 1.574 1_565 S
C1054 H1049 0.949 . S
C1054 C1060 1.368 . S
C1055 C1039 1.349 . S
C1055 H1047 0.950 . S
C1055 C1053 1.327 . S
C1056 C1044 1.349 . S
C1056 H1050 0.950 . S
C1056 C1057 1.327 . S
C1057 H1051 0.950 1_556 S
C1057 C1056 1.327 . S
C1057 C1061 1.429 . S
C1058 C1041 1.574 1_545 S
C1058 H1052 0.949 . S
C1058 C1062 1.368 . S
C1059 C1040 1.429 . S
C1059 C1053 1.429 . S
C1059 C1060 1.523 . S
C1060 C1041 1.368 1_554 S
C1060 C1054 1.368 . S
C1060 C1059 1.523 . S
C1061 C1045 1.429 . S
C1061 C1057 1.429 . S
C1061 C1062 1.523 . S
C1062 C1046 1.368 1_556 S
C1062 C1058 1.368 . S
C1062 C1061 1.523 . S
H1063 C1038 0.950 . S
H1064 C1040 0.950 . S
H1065 C1041 0.949 . S
H1066 C1043 0.950 . S
H1067 C1045 0.950 . S
C1068 C1069 1.349 . S
C1068 C1070 1.327 . S
C1068 H1093 0.950 . S
C1069 C1068 1.349 . S
C1069 C1085 1.349 . S
C1070 C1068 1.327 . S
C1070 C1089 1.429 . S
C1070 H1094 0.950 . S
C1071 C1088 1.574 . S
C1071 C1090 1.368 . S
C1071 H1095 0.949 . S
H1072 C1076 0.949 . S
C1073 C1074 1.349 . S
C1073 C1075 1.327 1_556 S
C1073 H1096 0.950 . S
C1074 C1073 1.349 . S
C1074 C1086 1.349 . S
C1075 C1073 1.327 1_554 S
C1075 C1091 1.429 . S
C1075 H1097 0.950 . S
C1076 H1072 0.949 . S
C1076 C1084 1.574 . S
C1076 C1092 1.368 . S
H1077 C1085 0.950 . S
H1078 C1083 0.950 . S
H1079 C1084 0.949 . S
H1080 C1086 0.950 . S
H1081 C1087 0.950 . S
H1082 C1088 0.949 . S
C1083 H1078 0.950 . S
C1083 C1085 1.327 . S
C1083 C1089 1.429 . S
C1084 C1076 1.574 . S
C1084 H1079 0.949 . S
C1084 C1090 1.368 . S
C1085 C1069 1.349 . S
C1085 H1077 0.950 . S
C1085 C1083 1.327 . S
C1086 C1074 1.349 . S
C1086 H1080 0.950 . S
C1086 C1087 1.327 1_556 S
C1087 H1081 0.950 . S
C1087 C1086 1.327 1_554 S
C1087 C1091 1.429 . S
C1088 C1071 1.574 . S
C1088 H1082 0.949 . S
C1088 C1092 1.368 . S
C1089 C1070 1.429 . S
C1089 C1083 1.429 . S
C1089 C1090 1.523 . S
C1090 C1071 1.368 . S
C1090 C1084 1.368 . S
C1090 C1089 1.523 . S
C1091 C1075 1.429 . S
C1091 C1087 1.429 . S
C1091 C1092 1.523 . S
C1092 C1076 1.368 . S
C1092 C1088 1.368 . S
C1092 C1091 1.523 . S
H1093 C1068 0.950 . S
H1094 C1070 0.950 . S
H1095 C1071 0.949 . S
H1096 C1073 0.950 . S
H1097 C1075 0.950 . S
C1098 C1099 1.349 . S
C1098 C1100 1.327 . S
C1098 H1123 0.950 . S
C1099 C1098 1.349 . S
C1099 C1115 1.349 . S
C1100 C1098 1.327 . S
C1100 C1119 1.429 . S
C1100 H1124 0.950 . S
C1101 C1118 1.574 . S
C1101 C1120 1.368 . S
C1101 H1125 0.949 . S
H1102 C1106 0.949 . S
C1103 C1104 1.349 . S
C1103 C1105 1.327 1_455 S
C1103 H1126 0.950 . S
C1104 C1103 1.349 . S
C1104 C1116 1.349 . S
C1105 C1103 1.327 1_655 S
C1105 C1121 1.429 . S
C1105 H1127 0.950 . S
C1106 H1102 0.949 . S
C1106 C1114 1.574 . S
C1106 C1122 1.368 . S
H1107 C1115 0.950 . S
H1108 C1113 0.950 . S
H1109 C1114 0.949 . S
H1110 C1116 0.950 . S
H1111 C1117 0.950 . S
H1112 C1118 0.949 . S
C1113 H1108 0.950 . S
C1113 C1115 1.327 . S
C1113 C1119 1.429 . S
C1114 C1106 1.574 . S
C1114 H1109 0.949 . S
C1114 C1120 1.368 . S
C1115 C1099 1.349 . S
C1115 H1107 0.950 . S
C1115 C1113 1.327 . S
C1116 C1104 1.349 . S
C1116 H1110 0.950 . S
C1116 C1117 1.327 . S
C1117 H1111 0.950 . S
C1117 C1116 1.327 . S
C1117 C1121 1.429 1_455 S
C1118 C1101 1.574 . S
C1118 H1112 0.949 . S
C1118 C1122 1.368 . S
C1119 C1100 1.429 . S
C1119 C1113 1.429 . S
C1119 C1120 1.523 . S
C1120 C1101 1.368 . S
C1120 C1114 1.368 . S
C1120 C1119 1.523 . S
C1121 C1105 1.429 . S
C1121 C1117 1.429 1_655 S
C1121 C1122 1.523 . S
C1122 C1106 1.368 . S
C1122 C1118 1.368 . S
C1122 C1121 1.523 . S
H1123 C1098 0.950 . S
H1124 C1100 0.950 . S
H1125 C1101 0.949 . S
H1126 C1103 0.950 . S
H1127 C1105 0.950 . S
C1128 C1129 1.349 . S
C1128 C1130 1.327 1_545 S
C1128 H1153 0.950 . S
C1129 C1128 1.349 . S
C1129 C1145 1.349 . S
C1130 C1128 1.327 1_565 S
C1130 C1149 1.429 . S
C1130 H1154 0.950 . S
C1131 C1148 1.574 . S
C1131 C1150 1.368 . S
C1131 H1155 0.949 . S
H1132 C1136 0.949 . S
C1133 C1134 1.349 . S
C1133 C1135 1.327 . S
C1133 H1156 0.950 . S
C1134 C1133 1.349 . S
C1134 C1146 1.349 . S
C1135 C1133 1.327 . S
C1135 C1151 1.429 . S
C1135 H1157 0.950 . S
C1136 H1132 0.949 . S
C1136 C1144 1.574 . S
C1136 C1152 1.368 . S
H1137 C1145 0.950 . S
H1138 C1143 0.950 . S
H1139 C1144 0.949 . S
H1140 C1146 0.950 . S
H1141 C1147 0.950 . S
H1142 C1148 0.949 . S
C1143 H1138 0.950 . S
C1143 C1145 1.327 . S
C1143 C1149 1.429 1_545 S
C1144 C1136 1.574 . S
C1144 H1139 0.949 . S
C1144 C1150 1.368 . S
C1145 C1129 1.349 . S
C1145 H1137 0.950 . S
C1145 C1143 1.327 . S
C1146 C1134 1.349 . S
C1146 H1140 0.950 . S
C1146 C1147 1.327 . S
C1147 H1141 0.950 . S
C1147 C1146 1.327 . S
C1147 C1151 1.429 . S
C1148 C1131 1.574 . S
C1148 H1142 0.949 . S
C1148 C1152 1.368 . S
C1149 C1130 1.429 . S
C1149 C1143 1.429 1_565 S
C1149 C1150 1.523 . S
C1150 C1131 1.368 . S
C1150 C1144 1.368 . S
C1150 C1149 1.523 . S
C1151 C1135 1.429 . S
C1151 C1147 1.429 . S
C1151 C1152 1.523 . S
C1152 C1136 1.368 . S
C1152 C1148 1.368 . S
C1152 C1151 1.523 . S
H1153 C1128 0.950 . S
H1154 C1130 0.950 . S
H1155 C1131 0.949 . S
H1156 C1133 0.950 . S
H1157 C1135 0.950 . S
C1158 C1159 1.349 . S
C1158 C1160 1.327 . S
C1158 H1183 0.950 . S
C1159 C1158 1.349 . S
C1159 C1175 1.349 . S
C1160 C1158 1.327 . S
C1160 C1179 1.429 . S
C1160 H1184 0.950 . S
C1161 C1178 1.574 . S
C1161 C1180 1.368 . S
C1161 H1185 0.949 . S
H1162 C1166 0.949 . S
C1163 C1164 1.349 . S
C1163 C1165 1.327 . S
C1163 H1186 0.950 . S
C1164 C1163 1.349 . S
C1164 C1176 1.349 . S
C1165 C1163 1.327 . S
C1165 C1181 1.429 . S
C1165 H1187 0.950 . S
C1166 H1162 0.949 . S
C1166 C1174 1.574 . S
C1166 C1182 1.368 . S
H1167 C1175 0.950 . S
H1168 C1173 0.950 . S
H1169 C1174 0.949 . S
H1170 C1176 0.950 . S
H1171 C1177 0.950 . S
H1172 C1178 0.949 . S
C1173 H1168 0.950 . S
C1173 C1175 1.327 . S
C1173 C1179 1.429 . S
C1174 C1166 1.574 . S
C1174 H1169 0.949 . S
C1174 C1180 1.368 . S
C1175 C1159 1.349 . S
C1175 H1167 0.950 . S
C1175 C1173 1.327 . S
C1176 C1164 1.349 . S
C1176 H1170 0.950 . S
C1176 C1177 1.327 . S
C1177 H1171 0.950 . S
C1177 C1176 1.327 . S
C1177 C1181 1.429 . S
C1178 C1161 1.574 . S
C1178 H1172 0.949 . S
C1178 C1182 1.368 . S
C1179 C1160 1.429 . S
C1179 C1173 1.429 . S
C1179 C1180 1.523 . S
C1180 C1161 1.368 . S
C1180 C1174 1.368 . S
C1180 C1179 1.523 . S
C1181 C1165 1.429 . S
C1181 C1177 1.429 . S
C1181 C1182 1.523 . S
C1182 C1166 1.368 . S
C1182 C1178 1.368 . S
C1182 C1181 1.523 . S
H1183 C1158 0.950 . S
H1184 C1160 0.950 . S
H1185 C1161 0.949 . S
H1186 C1163 0.950 . S
H1187 C1165 0.950 . S
C1188 C1189 1.349 . S
C1188 C1190 1.327 . S
C1188 H1213 0.950 . S
C1189 C1188 1.349 . S
C1189 C1205 1.349 . S
C1190 C1188 1.327 . S
C1190 C1209 1.429 . S
C1190 H1214 0.950 . S
C1191 C1208 1.574 . S
C1191 C1210 1.368 . S
C1191 H1215 0.949 . S
H1192 C1196 0.949 . S
C1193 C1194 1.349 . S
C1193 C1195 1.327 1_655 S
C1193 H1216 0.950 . S
C1194 C1193 1.349 . S
C1194 C1206 1.349 . S
C1195 C1193 1.327 1_455 S
C1195 C1211 1.429 . S
C1195 H1217 0.950 . S
C1196 H1192 0.949 . S
C1196 C1204 1.574 . S
C1196 C1212 1.368 . S
H1197 C1205 0.950 . S
H1198 C1203 0.950 . S
H1199 C1204 0.949 . S
H1200 C1206 0.950 . S
H1201 C1207 0.950 . S
H1202 C1208 0.949 . S
C1203 H1198 0.950 . S
C1203 C1205 1.327 . S
C1203 C1209 1.429 . S
C1204 C1196 1.574 . S
C1204 H1199 0.949 . S
C1204 C1210 1.368 . S
C1205 C1189 1.349 . S
C1205 H1197 0.950 . S
C1205 C1203 1.327 . S
C1206 C1194 1.349 . S
C1206 H1200 0.950 . S
C1206 C1207 1.327 . S
C1207 H1201 0.950 . S
C1207 C1206 1.327 . S
C1207 C1211 1.429 1_655 S
C1208 C1191 1.574 . S
C1208 H1202 0.949 . S
C1208 C1212 1.368 . S
C1209 C1190 1.429 . S
C1209 C1203 1.429 . S
C1209 C1210 1.523 . S
C1210 C1191 1.368 . S
C1210 C1204 1.368 . S
C1210 C1209 1.523 . S
C1211 C1195 1.429 . S
C1211 C1207 1.429 1_455 S
C1211 C1212 1.523 . S
C1212 C1196 1.368 . S
C1212 C1208 1.368 . S
C1212 C1211 1.523 . S
H1213 C1188 0.950 . S
H1214 C1190 0.950 . S
H1215 C1191 0.949 . S
H1216 C1193 0.950 . S
H1217 C1195 0.950 . S
C1218 C1219 1.349 . S
C1218 C1220 1.327 . S
C1218 H1243 0.950 . S
C1219 C1218 1.349 . S
C1219 C1235 1.349 . S
C1220 C1218 1.327 . S
C1220 C1239 1.429 . S
C1220 H1244 0.950 . S
C1221 C1238 1.574 . S
C1221 C1240 1.368 . S
C1221 H1245 0.949 . S
H1222 C1226 0.948 1_565 S
C1223 C1224 1.349 . S
C1223 C1225 1.327 1_565 S
C1223 H1246 0.950 . S
C1224 C1223 1.349 . S
C1224 C1236 1.349 . S
C1225 C1223 1.327 1_545 S
C1225 C1241 1.429 . S
C1225 H1247 0.950 . S
C1226 H1222 0.948 1_545 S
C1226 C1234 1.574 . S
C1226 C1242 1.368 . S
H1227 C1235 0.950 . S
H1228 C1233 0.950 . S
H1229 C1234 0.949 . S
H1230 C1236 0.950 . S
H1231 C1237 0.950 . S
H1232 C1238 0.949 . S
C1233 H1228 0.950 . S
C1233 C1235 1.327 . S
C1233 C1239 1.429 . S
C1234 C1226 1.574 . S
C1234 H1229 0.949 . S
C1234 C1240 1.368 . S
C1235 C1219 1.349 . S
C1235 H1227 0.950 . S
C1235 C1233 1.327 . S
C1236 C1224 1.349 . S
C1236 H1230 0.950 . S
C1236 C1237 1.327 . S
C1237 H1231 0.950 . S
C1237 C1236 1.327 . S
C1237 C1241 1.429 1_565 S
C1238 C1221 1.574 . S
C1238 H1232 0.949 . S
C1238 C1242 1.368 . S
C1239 C1220 1.429 . S
C1239 C1233 1.429 . S
C1239 C1240 1.523 . S
C1240 C1221 1.368 . S
C1240 C1234 1.368 . S
C1240 C1239 1.523 . S
C1241 C1225 1.429 . S
C1241 C1237 1.429 1_545 S
C1241 C1242 1.523 . S
C1242 C1226 1.368 . S
C1242 C1238 1.368 . S
C1242 C1241 1.523 . S
H1243 C1218 0.950 . S
H1244 C1220 0.950 . S
H1245 C1221 0.949 . S
H1246 C1223 0.950 . S
H1247 C1225 0.950 . S
C1248 C1249 1.349 . S
C1248 C1250 1.327 . S
C1248 H1273 0.950 . S
C1249 C1248 1.349 . S
C1249 C1265 1.349 . S
C1250 C1248 1.327 . S
C1250 C1269 1.429 . S
C1250 H1274 0.950 . S
C1251 C1268 1.574 . S
C1251 C1270 1.368 . S
C1251 H1275 0.949 . S
H1252 C1256 0.949 . S
C1253 C1254 1.349 . S
C1253 C1255 1.327 . S
C1253 H1276 0.950 . S
C1254 C1253 1.349 . S
C1254 C1266 1.349 . S
C1255 C1253 1.327 . S
C1255 C1271 1.429 . S
C1255 H1277 0.950 . S
C1256 H1252 0.949 . S
C1256 C1264 1.574 . S
C1256 C1272 1.368 . S
H1257 C1265 0.950 . S
H1258 C1263 0.950 . S
H1259 C1264 0.949 . S
H1260 C1266 0.950 . S
H1261 C1267 0.950 . S
H1262 C1268 0.949 . S
C1263 H1258 0.950 . S
C1263 C1265 1.327 . S
C1263 C1269 1.429 . S
C1264 C1256 1.574 . S
C1264 H1259 0.949 . S
C1264 C1270 1.368 . S
C1265 C1249 1.349 . S
C1265 H1257 0.950 . S
C1265 C1263 1.327 . S
C1266 C1254 1.349 . S
C1266 H1260 0.950 . S
C1266 C1267 1.327 . S
C1267 H1261 0.950 . S
C1267 C1266 1.327 . S
C1267 C1271 1.429 . S
C1268 C1251 1.574 . S
C1268 H1262 0.949 . S
C1268 C1272 1.368 . S
C1269 C1250 1.429 . S
C1269 C1263 1.429 . S
C1269 C1270 1.523 . S
C1270 C1251 1.368 . S
C1270 C1264 1.368 . S
C1270 C1269 1.523 . S
C1271 C1255 1.429 . S
C1271 C1267 1.429 . S
C1271 C1272 1.523 . S
C1272 C1256 1.368 . S
C1272 C1268 1.368 . S
C1272 C1271 1.523 . S
H1273 C1248 0.950 . S
H1274 C1250 0.950 . S
H1275 C1251 0.949 . S
H1276 C1253 0.950 . S
H1277 C1255 0.950 . S
C1278 C1279 1.349 . S
C1278 C1280 1.327 . S
C1278 H1303 0.950 . S
C1279 C1278 1.349 . S
C1279 C1295 1.349 . S
C1280 C1278 1.327 . S
C1280 C1299 1.429 . S
C1280 H1304 0.950 . S
C1281 C1298 1.574 . S
C1281 C1300 1.368 . S
C1281 H1305 0.949 . S
H1282 C1286 0.949 . S
C1283 C1284 1.349 . S
C1283 C1285 1.327 1_554 S
C1283 H1306 0.950 . S
C1284 C1283 1.349 . S
C1284 C1296 1.349 . S
C1285 C1283 1.327 1_556 S
C1285 C1301 1.429 1_455 S
C1285 H1307 0.950 1_455 S
C1286 H1282 0.949 . S
C1286 C1294 1.574 . S
C1286 C1302 1.368 . S
H1287 C1295 0.950 . S
H1288 C1293 0.950 . S
H1289 C1294 0.949 . S
H1290 C1296 0.950 . S
H1291 C1297 0.950 1_655 S
H1292 C1298 0.949 . S
C1293 H1288 0.950 . S
C1293 C1295 1.327 . S
C1293 C1299 1.429 . S
C1294 C1286 1.574 . S
C1294 H1289 0.949 . S
C1294 C1300 1.368 . S
C1295 C1279 1.349 . S
C1295 H1287 0.950 . S
C1295 C1293 1.327 . S
C1296 C1284 1.349 . S
C1296 H1290 0.950 . S
C1296 C1297 1.327 1_554 S
C1297 H1291 0.950 1_455 S
C1297 C1296 1.327 1_556 S
C1297 C1301 1.429 1_455 S
C1298 C1281 1.574 . S
C1298 H1292 0.949 . S
C1298 C1302 1.368 . S
C1299 C1280 1.429 . S
C1299 C1293 1.429 . S
C1299 C1300 1.523 . S
C1300 C1281 1.368 . S
C1300 C1294 1.368 . S
C1300 C1299 1.523 . S
C1301 C1285 1.429 1_655 S
C1301 C1297 1.429 1_655 S
C1301 C1302 1.523 . S
C1302 C1286 1.368 . S
C1302 C1298 1.368 . S
C1302 C1301 1.523 . S
H1303 C1278 0.950 . S
H1304 C1280 0.950 . S
H1305 C1281 0.949 . S
H1306 C1283 0.950 . S
H1307 C1285 0.950 1_655 S
C1308 C1309 1.349 . S
C1308 C1310 1.327 . S
C1308 H1333 0.950 . S
C1309 C1308 1.349 . S
C1309 C1325 1.349 . S
C1310 C1308 1.327 . S
C1310 C1329 1.429 . S
C1310 H1334 0.950 . S
C1311 C1328 1.574 . S
C1311 C1330 1.368 . S
C1311 H1335 0.949 . S
H1312 C1316 0.949 . S
C1313 C1314 1.349 . S
C1313 C1315 1.327 . S
C1313 H1336 0.950 . S
C1314 C1313 1.349 . S
C1314 C1326 1.349 . S
C1315 C1313 1.327 . S
C1315 C1331 1.429 1_545 S
C1315 H1337 0.950 . S
C1316 H1312 0.949 . S
C1316 C1324 1.574 . S
C1316 C1332 1.368 . S
H1317 C1325 0.950 . S
H1318 C1323 0.950 . S
H1319 C1324 0.949 . S
H1320 C1326 0.950 1_565 S
H1321 C1327 0.950 . S
H1322 C1328 0.949 1_545 S
C1323 H1318 0.950 . S
C1323 C1325 1.327 . S
C1323 C1329 1.429 . S
C1324 C1316 1.574 . S
C1324 H1319 0.949 . S
C1324 C1330 1.368 . S
C1325 C1309 1.349 . S
C1325 H1317 0.950 . S
C1325 C1323 1.327 . S
C1326 C1314 1.349 . S
C1326 H1320 0.950 1_545 S
C1326 C1327 1.327 1_545 S
C1327 H1321 0.950 . S
C1327 C1326 1.327 1_565 S
C1327 C1331 1.429 . S
C1328 C1311 1.574 . S
C1328 H1322 0.949 1_565 S
C1328 C1332 1.368 . S
C1329 C1310 1.429 . S
C1329 C1323 1.429 . S
C1329 C1330 1.523 . S
C1330 C1311 1.368 . S
C1330 C1324 1.368 . S
C1330 C1329 1.523 . S
C1331 C1315 1.429 1_565 S
C1331 C1327 1.429 . S
C1331 C1332 1.523 . S
C1332 C1316 1.368 . S
C1332 C1328 1.368 . S
C1332 C1331 1.523 . S
H1333 C1308 0.950 . S
H1334 C1310 0.950 . S
H1335 C1311 0.949 . S
H1336 C1313 0.950 . S
H1337 C1315 0.950 . S
C1338 C1339 1.349 . S
C1338 C1340 1.327 . S
C1338 H1363 0.950 . S
C1339 C1338 1.349 . S
C1339 C1355 1.349 . S
C1340 C1338 1.327 . S
C1340 C1359 1.429 . S
C1340 H1364 0.950 . S
C1341 C1358 1.574 . S
C1341 C1360 1.368 . S
C1341 H1365 0.949 . S
H1342 C1346 0.949 . S
C1343 C1344 1.349 . S
C1343 C1345 1.327 . S
C1343 H1366 0.950 . S
C1344 C1343 1.349 . S
C1344 C1356 1.349 . S
C1345 C1343 1.327 . S
C1345 C1361 1.429 . S
C1345 H1367 0.950 . S
C1346 H1342 0.949 . S
C1346 C1354 1.574 . S
C1346 C1362 1.368 . S
H1347 C1355 0.950 . S
H1348 C1353 0.950 . S
H1349 C1354 0.949 . S
H1350 C1356 0.950 . S
H1351 C1357 0.950 . S
H1352 C1358 0.949 . S
C1353 H1348 0.950 . S
C1353 C1355 1.327 . S
C1353 C1359 1.429 . S
C1354 C1346 1.574 . S
C1354 H1349 0.949 . S
C1354 C1360 1.368 . S
C1355 C1339 1.349 . S
C1355 H1347 0.950 . S
C1355 C1353 1.327 . S
C1356 C1344 1.349 . S
C1356 H1350 0.950 . S
C1356 C1357 1.327 . S
C1357 H1351 0.950 . S
C1357 C1356 1.327 . S
C1357 C1361 1.429 . S
C1358 C1341 1.574 . S
C1358 H1352 0.949 . S
C1358 C1362 1.368 . S
C1359 C1340 1.429 . S
C1359 C1353 1.429 . S
C1359 C1360 1.523 . S
C1360 C1341 1.368 . S
C1360 C1354 1.368 . S
C1360 C1359 1.523 . S
C1361 C1345 1.429 . S
C1361 C1357 1.429 . S
C1361 C1362 1.523 . S
C1362 C1346 1.368 . S
C1362 C1358 1.368 . S
C1362 C1361 1.523 . S
H1363 C1338 0.950 . S
H1364 C1340 0.950 . S
H1365 C1341 0.949 . S
H1366 C1343 0.950 . S
H1367 C1345 0.950 . S
C1368 C1369 1.349 . S
C1368 C1370 1.327 . S
C1368 H1393 0.950 . S
C1369 C1368 1.349 . S
C1369 C1385 1.349 . S
C1370 C1368 1.327 . S
C1370 C1389 1.429 . S
C1370 H1394 0.950 . S
C1371 C1388 1.574 . S
C1371 C1390 1.368 . S
C1371 H1395 0.949 . S
H1372 C1376 0.949 . S
C1373 C1374 1.349 . S
C1373 C1375 1.327 . S
C1373 H1396 0.950 . S
C1374 C1373 1.349 . S
C1374 C1386 1.349 . S
C1375 C1373 1.327 . S
C1375 C1391 1.429 1_655 S
C1375 H1397 0.950 . S
C1376 H1372 0.949 . S
C1376 C1384 1.574 . S
C1376 C1392 1.368 . S
H1377 C1385 0.950 . S
H1378 C1383 0.950 . S
H1379 C1384 0.949 . S
H1380 C1386 0.950 . S
H1381 C1387 0.950 . S
H1382 C1388 0.949 . S
C1383 H1378 0.950 . S
C1383 C1385 1.327 . S
C1383 C1389 1.429 . S
C1384 C1376 1.574 . S
C1384 H1379 0.949 . S
C1384 C1390 1.368 . S
C1385 C1369 1.349 . S
C1385 H1377 0.950 . S
C1385 C1383 1.327 . S
C1386 C1374 1.349 . S
C1386 H1380 0.950 . S
C1386 C1387 1.327 1_655 S
C1387 H1381 0.950 . S
C1387 C1386 1.327 1_455 S
C1387 C1391 1.429 . S
C1388 C1371 1.574 . S
C1388 H1382 0.949 . S
C1388 C1392 1.368 . S
C1389 C1370 1.429 . S
C1389 C1383 1.429 . S
C1389 C1390 1.523 . S
C1390 C1371 1.368 . S
C1390 C1384 1.368 . S
C1390 C1389 1.523 . S
C1391 C1375 1.429 1_455 S
C1391 C1387 1.429 . S
C1391 C1392 1.523 . S
C1392 C1376 1.368 . S
C1392 C1388 1.368 . S
C1392 C1391 1.523 . S
H1393 C1368 0.950 . S
H1394 C1370 0.950 . S
H1395 C1371 0.949 . S
H1396 C1373 0.950 . S
H1397 C1375 0.950 . S
C1398 C1399 1.349 . S
C1398 C1400 1.326 . S
C1398 H1423 0.950 . S
C1399 C1398 1.349 . S
C1399 C1415 1.349 . S
C1400 C1398 1.326 . S
C1400 C1419 1.430 1_565 S
C1400 H1424 0.949 1_565 S
C1401 C1418 1.574 . S
C1401 C1420 1.368 . S
C1401 H1425 0.949 . S
H1402 C1406 0.949 . S
C1403 C1404 1.349 . S
C1403 C1405 1.327 . S
C1403 H1426 0.950 . S
C1404 C1403 1.349 . S
C1404 C1416 1.349 . S
C1405 C1403 1.327 . S
C1405 C1421 1.429 . S
C1405 H1427 0.950 . S
C1406 H1402 0.949 . S
C1406 C1414 1.574 . S
C1406 C1422 1.368 . S
H1407 C1415 0.950 . S
H1408 C1413 0.950 . S
H1409 C1414 0.949 . S
H1410 C1416 0.950 . S
H1411 C1417 0.950 . S
H1412 C1418 0.949 . S
C1413 H1408 0.950 . S
C1413 C1415 1.327 . S
C1413 C1419 1.429 1_565 S
C1414 C1406 1.574 . S
C1414 H1409 0.949 . S
C1414 C1420 1.368 . S
C1415 C1399 1.349 . S
C1415 H1407 0.950 . S
C1415 C1413 1.327 . S
C1416 C1404 1.349 . S
C1416 H1410 0.950 . S
C1416 C1417 1.327 . S
C1417 H1411 0.950 . S
C1417 C1416 1.327 . S
C1417 C1421 1.429 . S
C1418 C1401 1.574 . S
C1418 H1412 0.949 . S
C1418 C1422 1.368 . S
C1419 C1400 1.430 1_545 S
C1419 C1413 1.429 1_545 S
C1419 C1420 1.523 . S
C1420 C1401 1.368 . S
C1420 C1414 1.368 . S
C1420 C1419 1.523 . S
C1421 C1405 1.429 . S
C1421 C1417 1.429 . S
C1421 C1422 1.523 . S
C1422 C1406 1.368 . S
C1422 C1418 1.368 . S
C1422 C1421 1.523 . S
H1423 C1398 0.950 . S
H1424 C1400 0.949 1_545 S
H1425 C1401 0.949 . S
H1426 C1403 0.950 . S
H1427 C1405 0.950 . S
C709 C477 1.273 . S
C714 C5 1.273 . S
C739 C64 1.273 . S
C744 C536 1.273 . S
C769 C123 1.273 . S
C774 C595 1.273 . S
C799 C182 1.273 . S
C804 C654 1.273 . S
C829 C359 1.273 . S
C834 C241 1.273 . S
C859 C300 1.272 . S
C864 C418 1.272 . S
C889 C583 0.909 . S
C894 C52 0.909 . S
C919 C111 0.909 . S
C924 C642 0.909 . S
C949 C701 0.909 . S
C954 C170 0.909 . S
C979 C229 0.909 . S
C984 C406 0.909 . S
C1009 C465 0.909 . S
C1014 C288 0.909 . S
C1039 C524 0.909 . S
C1044 C347 0.909 . S
C1069 C33 1.536 . S
C1074 C298 1.509 . S
C1099 C92 1.535 . S
C1104 C3 1.508 . S
C1129 C62 1.509 . S
C1134 C151 1.536 . S
C1159 C210 1.535 . S
C1164 C121 1.508 . S
C1189 C269 1.535 . S
C1194 C180 1.509 . S
C1219 C328 1.536 . S
C1224 C239 1.509 . S
C1249 C387 1.536 . S
C1254 C416 1.509 . S
C1279 C446 1.536 . S
C1284 C475 1.509 . S
C1309 C505 1.535 . S
C1314 C534 1.508 . S
C1339 C564 1.536 . S
C1344 C593 1.509 . S
C1369 C623 1.536 . S
C1374 C652 1.509 . S
C1399 C357 1.508 . S
C1404 C682 1.535 . S
