# Generated by pormake.
# Topology uni, (4)-cn, num edge types: 1
# Building blocks:
#     Node 0, Type 0, BuildingBlock: ICAMEG_clean_sbu_1, # of connection points: 4
#     Node 1, Type 0, BuildingBlock: ICAMEG_clean_sbu_1, # of connection points: 4
#     Node 2, Type 0, BuildingBlock: ICAMEG_clean_sbu_1, # of connection points: 4
#     Node 3, Type 0, BuildingBlock: ICAMEG_clean_sbu_1, # of connection points: 4
#     Node 4, Type 0, BuildingBlock: ICAMEG_clean_sbu_1, # of connection points: 4
#     Node 5, Type 0, BuildingBlock: ICAMEG_clean_sbu_1, # of connection points: 4
#     Edge 6, Type (0, 0), BuildingBlock: EZIPEK_clean_linker_0, # of connection points: 2
#     Edge 7, Type (0, 0), BuildingBlock: EZIPEK_clean_linker_0, # of connection points: 2
#     Edge 8, Type (0, 0), BuildingBlock: EZIPEK_clean_linker_0, # of connection points: 2
#     Edge 9, Type (0, 0), BuildingBlock: EZIPEK_clean_linker_0, # of connection points: 2
#     Edge 10, Type (0, 0), BuildingBlock: EZIPEK_clean_linker_0, # of connection points: 2
#     Edge 11, Type (0, 0), BuildingBlock: EZIPEK_clean_linker_0, # of connection points: 2
#     Edge 12, Type (0, 0), BuildingBlock: EZIPEK_clean_linker_0, # of connection points: 2
#     Edge 13, Type (0, 0), BuildingBlock: EZIPEK_clean_linker_0, # of connection points: 2
#     Edge 14, Type (0, 0), BuildingBlock: EZIPEK_clean_linker_0, # of connection points: 2
#     Edge 15, Type (0, 0), BuildingBlock: EZIPEK_clean_linker_0, # of connection points: 2
#     Edge 16, Type (0, 0), BuildingBlock: EZIPEK_clean_linker_0, # of connection points: 2
#     Edge 17, Type (0, 0), BuildingBlock: EZIPEK_clean_linker_0, # of connection points: 2
# Relax obj value: 0.140
# Max RMSD: 0.183
# Mean RMSD: 0.183
data_MOF--net-uni--node1-ICAMEG_clean_sbu_1--edge1-EZIPEK_clean_linker_0
_symmetry_space_group_name_H-M    P1
_symmetry_Int_Tables_number       1
_symmetry_cell_setting            triclinic
loop_
_symmetry_equiv_pos_as_xyz
'x, y, z'
_cell_length_a     30.263922
_cell_length_b     30.320058
_cell_length_c     18.068835
_cell_angle_alpha  89.964211
_cell_angle_beta   89.85702
_cell_angle_gamma 120.27094
loop_
_atom_site_label
_atom_site_type_symbol
_atom_site_fract_x
_atom_site_fract_y
_atom_site_fract_z
_atom_type_partial_charge
Co0 Co 0.6357 1.0039 0.03276 0.0
Co1 Co 0.72723 0.09669 0.14127 0.0
O2 O 0.69374 0.07324 0.04512 0.0
C3 C 0.61816 0.06916 0.92011 0.0
O4 O 0.66022 0.11069 0.93986 0.0
C5 C 0.82858 0.13807 0.05903 0.0
O6 O 0.82254 0.09242 0.05079 0.0
O7 O 0.74217 0.03893 0.14236 0.0
O8 O 0.66471 0.97665 0.10675 0.0
H9 H 0.78293 0.07613 0.39543 0.0
H10 H 0.71038 0.06663 0.91313 0.0
O11 O 0.60336 0.02695 0.95413 0.0
H12 H 0.70016 0.89943 0.90509 0.0
H13 H 0.49879 0.85364 0.89156 0.0
H14 H 0.57315 0.91919 0.13744 0.0
H15 H 0.64849 0.91525 0.99459 0.0
H16 H 0.57289 0.94035 0.905 0.0
O17 O 0.7943 0.14419 0.09069 0.0
H18 H 0.73957 0.04646 0.27581 0.0
H19 H 0.79383 0.19973 0.20871 0.0
H20 H 0.4998 0.83181 0.12617 0.0
H21 H 0.76302 0.05251 0.82364 0.0
H22 H 0.46188 0.79852 1.0026 0.0
H23 H 0.75794 0.96825 0.81846 0.0
O24 O 0.59823 0.01724 0.11443 0.0
H25 H 0.71747 0.24163 0.02279 0.0
H26 H 0.67781 0.13538 0.24708 0.0
H27 H 0.65368 0.20165 0.24164 0.0
H28 H 0.67371 0.25556 0.12902 0.0
H29 H 0.74016 0.17427 0.02998 0.0
H30 H 0.83695 0.23088 0.32833 0.0
H31 H 0.83172 0.16897 0.42295 0.0
O32 O 0.66127 0.05251 0.19645 0.0
C33 C 0.70868 0.99162 0.1343 0.0
C34 C 0.78499 0.10349 0.35504 0.0
C35 C 0.8151 0.19027 0.31756 0.0
N36 N 0.7621 0.12098 0.23582 0.0
C37 C 0.76032 0.08688 0.28696 0.0
C38 C 0.79 0.17224 0.25005 0.0
C39 C 0.81234 0.15555 0.37046 0.0
C40 C 0.70705 0.0296 0.91109 0.0
N41 N 0.67401 0.9911 0.95707 0.0
C42 C 0.73732 0.0219 0.8602 0.0
C43 C 0.73453 0.97467 0.85739 0.0
C44 C 0.70198 0.93601 0.90574 0.0
C45 C 0.67226 0.94509 0.95583 0.0
C46 C 0.51487 0.86776 0.94575 0.0
C47 C 0.55729 0.90496 0.0833 0.0
C48 C 0.55665 0.91708 0.95381 0.0
N49 N 0.57738 0.93517 0.02202 0.0
C50 C 0.51554 0.85545 0.07735 0.0
C51 C 0.49424 0.83682 1.00803 0.0
C52 C 0.61349 0.02912 0.18155 0.0
C53 C 0.70857 0.21842 0.0722 0.0
C54 C 0.68612 0.15813 0.19744 0.0
C55 C 0.67265 0.1959 0.19491 0.0
C56 C 0.68396 0.22617 0.13177 0.0
N57 N 0.71033 0.15072 0.13877 0.0
C58 C 0.72149 0.1803 0.0767 0.0
Co59 Co 0.68482 0.63553 0.18939 0.0
Co60 Co 0.67284 0.71304 0.31578 0.0
O61 O 0.66777 0.68814 0.21374 0.0
C62 C 0.58573 0.59422 0.10303 0.0
O63 O 0.56097 0.595 0.16228 0.0
C64 C 0.70597 0.8056 0.21629 0.0
O65 O 0.70937 0.78073 0.15936 0.0
O66 O 0.74607 0.73108 0.31991 0.0
O67 O 0.73933 0.66154 0.2665 0.0
H68 H 0.72578 0.73013 0.58242 0.0
H69 H 0.68371 0.69982 0.06618 0.0
O70 O 0.63323 0.60912 0.10678 0.0
H71 H 0.8606 0.73257 0.07388 0.0
H72 H 0.72822 0.5313 1.01825 0.0
H73 H 0.69359 0.55703 0.27638 0.0
H74 H 0.79564 0.6717 0.16072 0.0
H75 H 0.70765 0.59801 0.0492 0.0
O76 O 0.69413 0.78454 0.28008 0.0
H77 H 0.71674 0.69917 0.45419 0.0
H78 H 0.64283 0.78131 0.39384 0.0
H79 H 0.71439 0.49019 0.24799 0.0
H80 H 0.74737 0.76028 0.97728 0.0
H81 H 0.73197 0.47691 0.11805 0.0
H82 H 0.83665 0.77725 0.98103 0.0
O83 O 0.63261 0.58835 0.26459 0.0
H84 H 0.51281 0.68739 0.19114 0.0
H85 H 0.58479 0.6619 0.42071 0.0
H86 H 0.49264 0.63156 0.41419 0.0
H87 H 0.45599 0.64442 0.29888 0.0
H88 H 0.60483 0.71727 0.19993 0.0
H89 H 0.65168 0.81376 0.52107 0.0
H90 H 0.69316 0.78793 0.61661 0.0
O91 O 0.65087 0.64397 0.35731 0.0
C92 C 0.76466 0.70266 0.30355 0.0
C93 C 0.70749 0.74154 0.54136 0.0
C94 C 0.666 0.78854 0.50689 0.0
N95 N 0.67891 0.73804 0.41646 0.0
C96 C 0.70209 0.72398 0.46865 0.0
C97 C 0.66128 0.7702 0.43474 0.0
C98 C 0.68924 0.77401 0.56048 0.0
C99 C 0.72233 0.70656 0.06779 0.0
N100 N 0.73581 0.68235 0.11906 0.0
C101 C 0.75829 0.74104 1.01746 0.0
C102 C 0.80839 0.75062 1.01968 0.0
C103 C 0.82187 0.72564 0.07184 0.0
C104 C 0.78491 0.69145 0.12131 0.0
C105 C 0.7212 0.53705 0.07521 0.0
C106 C 0.70192 0.55218 0.21993 0.0
C107 C 0.70979 0.57502 0.09322 0.0
N108 N 0.70084 0.58261 0.16504 0.0
C109 C 0.71338 0.51395 0.20407 0.0
C110 C 0.72319 0.5065 0.13118 0.0
C111 C 0.6289 0.59849 0.33258 0.0
C112 C 0.52841 0.68208 0.24198 0.0
C113 C 0.5695 0.66858 0.37069 0.0
C114 C 0.5171 0.6509 0.36719 0.0
C115 C 0.49654 0.65795 0.30242 0.0
N116 N 0.60085 0.69321 0.3117 0.0
C117 C 0.5806 0.69901 0.24738 0.0
Co118 Co 0.09562 0.68564 0.38556 0.0
Co119 Co 1.00137 0.68333 0.49456 0.0
O120 O 0.02588 0.67252 0.39948 0.0
C121 C 0.02937 0.59959 0.27774 0.0
O122 O 0.98814 0.60069 0.29668 0.0
C123 C 0.96335 0.74038 0.40042 0.0
O124 O 0.00979 0.7786 0.38884 0.0
O125 O 0.05843 0.7559 0.49454 0.0
O126 O 0.12316 0.74504 0.45623 0.0
H127 H 0.0147 0.74256 0.75858 0.0
H128 H 0.02979 0.69522 0.26982 0.0
O129 O 0.07193 0.62793 0.31049 0.0
H130 H 0.201 0.84604 0.23557 0.0
H131 H 0.24398 0.69419 0.24435 0.0
H132 H 0.18129 0.71137 0.48842 0.0
H133 H 0.18534 0.78453 0.33494 0.0
H134 H 0.1578 0.68259 0.25783 0.0
O135 O 0.95556 0.70161 0.43846 0.0
H136 H 0.04642 0.72634 0.64231 0.0
H137 H 0.89942 0.664 0.54613 0.0
H138 H 0.26821 0.72432 0.47727 0.0
H139 H 0.04336 0.75705 0.17234 0.0
H140 H 0.30009 0.71564 0.35447 0.0
H141 H 0.12973 0.83275 0.15332 0.0
O142 O 0.08307 0.63682 0.46865 0.0
H143 H 0.85856 0.52214 0.3835 0.0
H144 H 0.9582 0.60132 0.60941 0.0
H145 H 0.88942 0.51119 0.61248 0.0
H146 H 0.83903 0.4709 0.49889 0.0
H147 H 0.92768 0.61217 0.38353 0.0
H148 H 0.86583 0.67967 0.6611 0.0
H149 H 0.92355 0.71918 0.7686 0.0
O150 O 0.04532 0.66277 0.55181 0.0
C151 C 0.106 0.77236 0.48367 0.0
C152 C 0.98919 0.72559 0.71202 0.0
C153 C 0.90571 0.69037 0.65733 0.0
N154 N 0.97548 0.69515 0.58675 0.0
C155 C 1.00721 0.71655 0.64583 0.0
C156 C 0.92515 0.68193 0.59206 0.0
C157 C 0.93808 0.71245 0.71763 0.0
C158 C 0.0675 0.72782 0.26278 0.0
N159 N 0.10724 0.73423 0.30628 0.0
C160 C 0.07497 0.76286 0.207 0.0
C161 C 0.1234 0.80529 0.19632 0.0
C162 C 0.16345 0.81258 0.24211 0.0
C163 C 0.15442 0.77699 0.29779 0.0
C164 C 0.23054 0.69807 0.29818 0.0
C165 C 0.19492 0.70784 0.43486 0.0
C166 C 0.18154 0.69117 0.30632 0.0
N167 N 0.16436 0.6964 0.37405 0.0
C168 C 0.24417 0.71507 0.42884 0.0
C169 C 0.26202 0.71014 0.35995 0.0
C170 C 0.06672 0.63706 0.53407 0.0
C171 C 0.88014 0.53923 0.43344 0.0
C172 C 0.93638 0.58423 0.55976 0.0
C173 C 0.89741 0.53311 0.5619 0.0
C174 C 0.8692 0.51052 0.49816 0.0
N175 N 0.94686 0.61223 0.49604 0.0
C176 C 0.91927 0.59028 0.43359 0.0
Co177 Co 0.46536 0.09538 0.53049 0.0
Co178 Co 0.3781 1.00152 0.6466 0.0
O179 O 0.40827 0.02629 0.54832 0.0
C180 C 0.4795 0.02781 0.41826 0.0
O181 O 0.43586 0.98735 0.43619 0.0
C182 C 0.27962 0.96576 0.56245 0.0
O183 O 0.29162 0.01276 0.54726 0.0
O184 O 0.36436 0.05971 0.65556 0.0
O185 O 0.43689 0.12358 0.60512 0.0
H186 H 0.34366 0.01342 0.91714 0.0
H187 H 0.3881 0.0299 0.41484 0.0
O188 O 0.49596 0.06998 0.45293 0.0
H189 H 0.40099 0.19787 0.39731 0.0
H190 H 0.59845 0.23931 0.37424 0.0
H191 H 0.53007 0.18469 0.62614 0.0
H192 H 0.45099 0.18248 0.49 0.0
H193 H 0.52428 0.15365 0.39646 0.0
O194 O 0.30978 0.95651 0.59944 0.0
H195 H 0.38425 0.04643 0.79605 0.0
H196 H 0.30258 0.89815 0.70386 0.0
H197 H 0.6039 0.27096 0.60661 0.0
H198 H 0.33815 0.04383 0.32103 0.0
H199 H 0.63873 0.2988 0.4797 0.0
H200 H 0.34426 0.12841 0.31138 0.0
O201 O 0.506 0.08506 0.60973 0.0
H202 H 0.37977 0.85608 0.51555 0.0
H203 H 0.4261 0.95794 0.74461 0.0
H204 H 0.44524 0.88828 0.73317 0.0
H205 H 0.4221 0.8368 0.61793 0.0
H206 H 0.36129 0.92612 0.52936 0.0
H207 H 0.26078 0.8631 0.82377 0.0
H208 H 0.28119 0.92084 0.93171 0.0
O209 O 0.44586 0.04423 0.69741 0.0
C210 C 0.39492 0.10706 0.6408 0.0
C211 C 0.33433 0.98784 0.87054 0.0
C212 C 0.28789 0.90354 0.81822 0.0
N213 N 0.34593 0.97483 0.74247 0.0
C214 C 0.3573 0.00659 0.80167 0.0
C215 C 0.31169 0.92374 0.75029 0.0
C216 C 0.29932 0.93592 0.87871 0.0
C217 C 0.39279 0.06728 0.40989 0.0
N218 N 0.42533 0.10609 0.45542 0.0
C219 C 0.36357 0.07478 0.35706 0.0
C220 C 0.36687 0.12215 0.35182 0.0
C221 C 0.39879 0.16115 0.39981 0.0
C222 C 0.42745 0.15224 0.45188 0.0
C223 C 0.58381 0.22756 0.42987 0.0
C224 C 0.54502 0.19634 0.57115 0.0
C225 C 0.54201 0.17887 0.44297 0.0
N226 N 0.5231 0.16373 0.51308 0.0
C227 C 0.58684 0.24534 0.56021 0.0
C228 C 0.60635 0.26094 0.48902 0.0
C229 C 0.49251 0.06879 0.67615 0.0
C230 C 0.39019 0.87834 0.56595 0.0
C231 C 0.41615 0.93594 0.69409 0.0
C232 C 0.42689 0.89637 0.68808 0.0
C233 C 0.41391 0.86752 0.62342 0.0
N234 N 0.39302 0.94647 0.63737 0.0
C235 C 0.37989 0.9181 0.57404 0.0
Co236 Co 0.42138 0.46737 0.69094 0.0
Co237 Co 0.41944 0.38082 0.81739 0.0
O238 O 0.43224 0.40999 0.71617 0.0
C239 C 0.50386 0.47698 0.5803 0.0
O240 O 0.50061 0.43438 0.60284 0.0
C241 C 0.3945 0.29188 0.71414 0.0
O242 O 0.40618 0.32151 0.656 0.0
O243 O 0.34818 0.36843 0.81284 0.0
O244 O 0.36487 0.44363 0.76598 0.0
H245 H 0.35566 0.36597 0.07874 0.0
H246 H 0.40982 0.38986 0.57661 0.0
O247 O 0.47778 0.49429 0.61192 0.0
H248 H 0.25021 0.3951 0.56627 0.0
H249 H 0.41751 0.59748 0.5203 0.0
H250 H 0.38889 0.53148 0.77499 0.0
H251 H 0.31881 0.45099 0.65159 0.0
H252 H 0.42752 0.52431 0.5515 0.0
O253 O 0.3946 0.30906 0.77875 0.0
H254 H 0.37676 0.40082 0.95249 0.0
H255 H 0.42725 0.29737 0.898 0.0
H256 H 0.37848 0.60479 0.74655 0.0
H257 H 0.34207 0.3328 0.49151 0.0
H258 H 0.39298 0.63864 0.61815 0.0
H259 H 0.2614 0.33528 0.48526 0.0
O260 O 0.47277 0.50975 0.76936 0.0
H261 H 0.58056 0.3937 0.71348 0.0
H262 H 0.49773 0.41048 0.93808 0.0
H263 H 0.58202 0.41743 0.94749 0.0
H264 H 0.62492 0.41082 0.83445 0.0
H265 H 0.49374 0.38017 0.70815 0.0
H266 H 0.40596 0.26076 0.02291 0.0
H267 H 0.37023 0.29529 0.11493 0.0
O268 O 0.44594 0.45108 0.86093 0.0
C269 C 0.33529 0.40159 0.79885 0.0
C270 C 0.37151 0.35076 0.03933 0.0
C271 C 0.39956 0.29166 1.00795 0.0
N272 N 0.40405 0.35197 0.91729 0.0
C273 C 0.38383 0.37062 0.96762 0.0
C274 C 0.41136 0.31248 0.93673 0.0
C275 C 0.37957 0.31106 0.05956 0.0
C276 C 0.3753 0.39146 0.5748 0.0
N277 N 0.36949 0.42497 0.61837 0.0
C278 C 0.33682 0.35895 0.52608 0.0
C279 C 0.2916 0.36035 0.52259 0.0
C280 C 0.28538 0.39398 0.56782 0.0
C281 C 0.32474 0.42591 0.61577 0.0
C282 C 0.41205 0.58377 0.5768 0.0
C283 C 0.39695 0.54663 0.71991 0.0
C284 C 0.41836 0.54252 0.59519 0.0
N285 N 0.41171 0.52483 0.66646 0.0
C286 C 0.39021 0.5879 0.70365 0.0
C287 C 0.39817 0.60676 0.63162 0.0
C288 C 0.47223 0.49717 0.83749 0.0
C289 C 0.56239 0.39693 0.76322 0.0
C290 C 0.51471 0.40501 0.88887 0.0
C291 C 0.56312 0.41013 0.89445 0.0
C292 C 0.58719 0.40637 0.83104 0.0
N293 N 0.48934 0.39319 0.8227 0.0
C294 C 0.51328 0.39025 0.76021 0.0
Co295 Co 0.99824 0.42123 0.88772 0.0
Co296 Co 0.095 0.43211 0.99931 0.0
O297 O 0.07009 0.43969 0.90155 0.0
C298 C 0.05962 0.50829 0.77811 0.0
O299 O 0.10232 0.51037 0.79708 0.0
C300 C 0.14943 0.39918 0.88995 0.0
O301 O 0.11007 0.38082 0.84527 0.0
O302 O 0.04354 0.35747 0.99601 0.0
O303 O 0.97527 0.36326 0.96091 0.0
H304 H 0.0767 0.36793 0.26142 0.0
H305 H 0.06356 0.41912 0.76384 0.0
O306 O 0.01754 0.4775 0.81074 0.0
H307 H 0.90231 0.25457 0.75024 0.0
H308 H 0.8431 0.39596 0.74733 0.0
H309 H 0.91202 0.39109 0.99195 0.0
H310 H 0.91508 0.31651 0.84752 0.0
H311 H 0.93217 0.41563 0.76014 0.0
O312 O 0.14829 0.41999 0.95068 0.0
H313 H 0.04632 0.38099 0.14181 0.0
H314 H 0.19846 0.46418 0.06103 0.0
H315 H 0.82236 0.37031 0.98173 0.0
H316 H 0.0528 0.35789 0.66684 0.0
H317 H 0.78733 0.37275 0.8586 0.0
H318 H 0.97145 0.27497 0.65882 0.0
O319 O 1.00737 0.47029 0.96845 0.0
H320 H 0.22001 0.60359 0.89008 0.0
H321 H 0.13086 0.51181 0.11751 0.0
H322 H 0.19094 0.60445 0.12254 0.0
H323 H 0.23597 0.65116 1.00816 0.0
H324 H 0.16102 0.51048 0.88857 0.0
H325 H 0.2308 0.45174 0.17937 0.0
H326 H 0.16981 0.40349 0.28089 0.0
O327 O 0.04447 0.44558 0.05328 0.0
C328 C 0.99539 0.33785 0.98571 0.0
C329 C 0.1037 0.389 0.21763 0.0
C330 C 0.19011 0.43592 0.17157 0.0
N331 N 0.12007 0.42297 0.09405 0.0
C332 C 0.08649 0.39643 0.14967 0.0
C333 C 0.17144 0.44253 0.10438 0.0
C334 C 0.15591 0.40891 0.22851 0.0
C335 C 0.02796 0.38353 0.76099 0.0
N336 N 0.98943 0.37271 0.81014 0.0
C337 C 0.02211 0.34878 0.70575 0.0
C338 C 0.9765 0.30228 0.70128 0.0
C339 C 0.93764 0.29091 0.75233 0.0
C340 C 0.94504 0.32647 0.80708 0.0
C341 C 0.85792 0.39484 0.80132 0.0
C342 C 0.89708 0.3921 0.93834 0.0
C343 C 0.90854 0.4063 0.80901 0.0
N344 N 0.92752 0.40463 0.87694 0.0
C345 C 0.84626 0.38036 0.9328 0.0
C346 C 0.82664 0.38177 0.86374 0.0
C347 C 0.02293 0.47084 0.03437 0.0
C348 C 0.20097 0.58368 0.94046 0.0
C349 C 0.15113 0.53147 0.06774 0.0
C350 C 0.1849 0.58411 0.07092 0.0
C351 C 0.20996 0.61032 1.0067 0.0
N352 N 0.14335 0.5053 1.00282 0.0
C353 C 0.16724 0.53097 0.93969 0.0
C354 C 0.59324 0.03149 0.32089 0.0
C355 C 0.57581 0.01927 0.24536 0.0
C356 C 0.49418 0.01211 0.28536 0.0
C357 C 0.51192 0.02396 0.35923 0.0
N358 N 0.57307 0.03242 0.45078 0.0
N359 N 0.49905 0.97493 0.17014 0.0
C360 C 0.56005 0.03044 0.37778 0.0
C361 C 0.5232 1.0029 0.23153 0.0
N362 N 0.64127 0.04295 0.34029 0.0
N363 N 0.44993 0.01067 0.26563 0.0
H364 H 0.51503 0.95957 0.13522 0.0
H365 H 0.46 0.95932 0.16087 0.0
H366 H 0.42737 0.01677 0.30317 0.0
H367 H 0.43834 0.00824 0.21077 0.0
H368 H 0.66034 0.06508 0.38632 0.0
H369 H 0.65995 0.02664 0.31431 0.0
H370 H 0.60487 0.03082 0.46891 0.0
H371 H 0.54969 0.03101 0.4943 0.0
C372 C 0.54471 0.52611 0.3811 0.0
C373 C 0.59851 0.55744 0.38891 0.0
C374 C 0.59054 0.52859 0.51921 0.0
C375 C 0.53648 0.504 0.51411 0.0
N376 N 0.46172 0.48221 0.44068 0.0
N377 N 0.67311 0.58888 0.46667 0.0
C378 C 0.51353 0.50351 0.44512 0.0
C379 C 0.62148 0.55825 0.45827 0.0
N380 N 0.52313 0.51712 0.31246 0.0
N381 N 0.61248 0.52391 0.5826 0.0
H382 H 0.69739 0.60817 0.42259 0.0
H383 H 0.69165 0.59733 0.51754 0.0
H384 H 0.59153 0.5055 0.63003 0.0
H385 H 0.65109 0.53538 0.58697 0.0
H386 H 0.48483 0.49078 0.30218 0.0
H387 H 0.54444 0.53125 0.26424 0.0
H388 H 0.44316 0.48687 0.3955 0.0
H389 H 0.43732 0.46299 0.48452 0.0
C390 C 0.09218 0.59472 0.71972 0.0
C391 C 0.06055 0.54084 0.71518 0.0
C392 C 0.03503 0.54977 0.58896 0.0
C393 C 0.06891 0.60334 0.59235 0.0
N394 N 0.13838 0.67506 0.65344 0.0
N395 N 1.0086 0.46636 0.64029 0.0
C396 C 0.09992 0.6253 0.65572 0.0
C397 C 0.03372 0.51816 0.64839 0.0
N398 N 0.11347 0.6169 0.78602 0.0
N399 N 1.00284 0.5291 0.52987 0.0
H400 H 1.00554 0.44179 0.68253 0.0
H401 H 0.99405 0.44779 0.59017 0.0
H402 H 1.00378 0.55038 0.48393 0.0
H403 H 0.97264 0.49154 0.52846 0.0
H404 H 0.13246 0.65618 0.79481 0.0
H405 H 0.1081 0.5959 0.83435 0.0
H406 H 0.16552 0.69242 0.69504 0.0
H407 H 0.14648 0.69725 0.60589 0.0
C408 C 0.56773 0.10381 0.85638 0.0
C409 C 0.58836 0.07091 0.85505 0.0
C410 C 0.551 0.04067 0.73099 0.0
C411 C 0.53174 0.07472 0.7318 0.0
N412 N 0.53364 0.14791 0.7861 0.0
N413 N 0.60811 0.01531 0.78463 0.0
C414 C 0.54366 0.109 0.7919 0.0
C415 C 0.58233 0.04134 0.79048 0.0
N416 N 0.569 0.12846 0.92039 0.0
N417 N 0.53818 0.00661 0.6742 0.0
H418 H 0.63076 0.01427 0.8268 0.0
H419 H 0.61043 0.99808 0.73613 0.0
H420 H 0.51763 0.00669 0.628 0.0
H421 H 0.54504 0.97624 0.6747 0.0
H422 H 0.54956 0.14838 0.92729 0.0
H423 H 0.58562 0.12523 0.96907 0.0
H424 H 0.54584 0.17743 0.82438 0.0
H425 H 0.51776 0.1534 0.73856 0.0
C426 C 0.57221 0.54535 0.98355 0.0
C427 C 0.55875 0.57454 0.03036 0.0
C428 C 0.49254 0.56221 0.94051 0.0
C429 C 0.50799 0.53509 0.89291 0.0
N430 N 0.57567 0.51996 0.85754 0.0
N431 N 0.51669 0.62416 0.03944 0.0
C432 C 0.55261 0.53358 0.91043 0.0
C433 C 0.52197 0.58703 1.00485 0.0
N434 N 0.59995 0.52481 1.01059 0.0
N435 N 0.44962 0.56406 0.9248 0.0
H436 H 0.53985 0.64563 0.08326 0.0
H437 H 0.49351 0.63771 1.01928 0.0
H438 H 0.43008 0.54972 0.87563 0.0
H439 H 0.43266 0.57759 0.96166 0.0
H440 H 0.61 0.50257 0.97888 0.0
H441 H 0.60691 0.52427 0.06693 0.0
H442 H 0.61102 0.52258 0.86568 0.0
H443 H 0.56171 0.51107 0.80354 0.0
C444 C 0.05041 0.55813 0.08615 0.0
C445 C 0.01903 0.50424 0.09176 0.0
C446 C 0.99664 0.51292 0.22004 0.0
C447 C 0.02691 0.56684 0.21411 0.0
N448 N 0.07668 0.64139 0.13798 0.0
N449 N 0.95266 0.43159 0.15629 0.0
C450 C 0.05211 0.58959 0.14609 0.0
C451 C 0.98944 0.48202 0.15665 0.0
N452 N 0.08025 0.57929 0.02462 0.0
N453 N 0.97619 0.49108 0.28706 0.0
H454 H 0.94474 0.40917 0.10917 0.0
H455 H 0.92643 0.41361 0.19903 0.0
H456 H 0.98066 0.5124 0.33466 0.0
H457 H 0.95853 0.45199 0.29714 0.0
H458 H 0.1087 0.61749 0.02051 0.0
H459 H 0.07927 0.55809 0.97866 0.0
H460 H 0.08977 0.66028 0.08759 0.0
H461 H 0.08136 0.66577 0.18129 0.0
C462 C 0.67456 0.86853 0.23228 0.0
C463 C 0.71194 0.85732 0.20474 0.0
C464 C 0.75168 0.93816 0.13467 0.0
C465 C 0.7163 0.95054 0.16619 0.0
N466 N 0.65085 0.93191 0.25727 0.0
N467 N 0.79396 0.88852 0.14528 0.0
C468 C 0.68049 0.91734 0.21956 0.0
C469 C 0.75306 0.89444 0.16086 0.0
N470 N 0.63071 0.83155 0.26504 0.0
N471 N 0.78156 0.9659 0.07638 0.0
H472 H 0.79719 0.85807 0.16568 0.0
H473 H 0.82694 0.91655 0.119 0.0
H474 H 0.78021 0.99689 0.05421 0.0
H475 H 0.80388 0.95519 0.04586 0.0
H476 H 0.59939 0.83589 0.27668 0.0
H477 H 0.6229 0.79466 0.27397 0.0
H478 H 0.62921 0.91271 0.30378 0.0
H479 H 0.65103 0.96542 0.24529 0.0
C480 C 0.90473 0.77631 0.37296 0.0
C481 C 0.91832 0.73815 0.36385 0.0
C482 C 0.83148 0.67765 0.32838 0.0
C483 C 0.81781 0.71636 0.32762 0.0
N484 N 0.8516 0.80837 0.32578 0.0
N485 N 0.89948 0.66152 0.29876 0.0
C486 C 0.85728 0.76768 0.34313 0.0
C487 C 0.88338 0.69201 0.32957 0.0
N488 N 0.93588 0.81997 0.411 0.0
N489 N 0.79578 0.62715 0.33448 0.0
H490 H 0.93827 0.67302 0.29518 0.0
H491 H 0.87478 0.62828 0.26988 0.0
H492 H 0.75803 0.61466 0.34845 0.0
H493 H 0.80565 0.59883 0.33818 0.0
H494 H 0.92486 0.84642 0.42496 0.0
H495 H 0.97078 0.82767 0.43333 0.0
H496 H 0.88114 0.84603 0.33205 0.0
H497 H 0.82088 0.80528 0.29579 0.0
C498 C 0.16488 0.86513 0.45289 0.0
C499 C 0.14432 0.82526 0.50629 0.0
C500 C 0.20049 0.88586 0.59933 0.0
C501 C 0.22859 0.92184 0.54314 0.0
N502 N 0.23938 0.94402 0.41327 0.0
N503 N 0.14985 0.79643 0.62856 0.0
C504 C 0.21095 0.9115 0.46897 0.0
C505 C 0.16381 0.83532 0.57932 0.0
N506 N 0.14042 0.85885 0.38713 0.0
N507 N 0.2083 0.90026 0.67186 0.0
H508 H 0.12573 0.75856 0.61394 0.0
H509 H 0.16669 0.80146 0.68047 0.0
H510 H 0.23306 0.938 0.68776 0.0
H511 H 0.18601 0.87626 0.71476 0.0
H512 H 0.15099 0.88833 0.34899 0.0
H513 H 0.10687 0.82525 0.37381 0.0
H514 H 0.23103 0.93524 0.35745 0.0
H515 H 0.27351 0.97801 0.42248 0.0
C516 C 0.35234 0.20625 0.65056 0.0
C517 C 0.38705 0.23955 0.70471 0.0
C518 C 0.41214 0.17579 0.73166 0.0
C519 C 0.38431 0.14683 0.66961 0.0
N520 N 0.33214 0.13782 0.56371 0.0
N521 N 0.45774 0.25885 0.78671 0.0
C522 C 0.35504 0.16263 0.62766 0.0
C523 C 0.41835 0.22473 0.74365 0.0
N524 N 0.3165 0.21603 0.62152 0.0
N525 N 0.43415 0.15724 0.77844 0.0
H526 H 0.46604 0.29598 0.79436 0.0
H527 H 0.48561 0.25206 0.80853 0.0
H528 H 0.43409 0.12361 0.76782 0.0
H529 H 0.44916 0.17339 0.82984 0.0
H530 H 0.28722 0.19073 0.58681 0.0
H531 H 0.31301 0.24712 0.63804 0.0
H532 H 0.31523 0.15102 0.52636 0.0
H533 H 0.33393 0.10634 0.54495 0.0
C534 C 0.19303 0.35316 0.83476 0.0
C535 C 0.19663 0.39711 0.86954 0.0
C536 C 0.28974 0.43412 0.87636 0.0
C537 C 0.28686 0.39535 0.82983 0.0
N538 N 0.23518 0.32026 0.75644 0.0
N539 N 0.2526 0.48526 0.90592 0.0
C540 C 0.2383 0.35528 0.80679 0.0
C541 C 0.24611 0.43901 0.88625 0.0
N542 N 0.14713 0.30865 0.83145 0.0
N543 N 0.33435 0.46663 0.91156 0.0
H544 H 0.22289 0.49269 0.90589 0.0
H545 H 0.28839 0.51803 0.91172 0.0
H546 H 0.36736 0.46439 0.90557 0.0
H547 H 0.33679 0.49204 0.95241 0.0
H548 H 0.14347 0.27455 0.81231 0.0
H549 H 0.11383 0.30414 0.85575 0.0
H550 H 0.20092 0.29368 0.73161 0.0
H551 H 0.26735 0.32046 0.73516 0.0
C552 C 0.94482 0.24399 0.95575 0.0
C553 C 0.95976 0.28399 1.00803 0.0
C554 C 0.90226 0.2214 0.09846 0.0
C555 C 0.87863 0.1846 0.04202 0.0
N556 N 0.87652 0.16155 0.9137 0.0
N557 N 0.94477 0.31097 0.12654 0.0
C558 C 0.90005 0.19566 0.96969 0.0
C559 C 0.93652 0.27277 0.07893 0.0
N560 N 0.97333 0.2521 0.89323 0.0
N561 N 0.89318 0.20694 0.17092 0.0
H562 H 0.96709 0.34922 0.11216 0.0
H563 H 0.92499 0.30442 0.17644 0.0
H564 H 0.87123 0.16863 0.18645 0.0
H565 H 0.91249 0.23199 0.21429 0.0
H566 H 0.96671 0.22313 0.85612 0.0
H567 H 1.00635 0.28696 0.88215 0.0
H568 H 0.88748 0.1701 0.85843 0.0
H569 H 0.84376 0.12604 0.92187 0.0
loop_
_geom_bond_atom_site_label_1
_geom_bond_atom_site_label_2
_geom_bond_distance
_geom_bond_site_symmetry_2
_ccdc_geom_bond_type
Co0 O2 2.143 1_565 S
Co0 O8 2.074 . S
Co0 O11 2.093 1_564 S
Co0 O24 2.097 1_565 S
Co0 N41 2.151 1_554 S
Co0 N49 2.214 . S
Co1 O2 2.160 . S
Co1 O7 2.058 . S
Co1 O17 2.057 . S
Co1 O32 2.037 . S
Co1 N36 2.145 . S
Co1 N57 2.257 . S
O2 Co0 2.143 1_545 S
O2 Co1 2.160 . S
C3 O4 1.278 . S
C3 O11 1.224 . S
O4 C3 1.278 . S
C5 O6 1.245 1_554 S
C5 O17 1.232 . S
O6 C5 1.245 1_556 S
O7 Co1 2.058 . S
O7 C33 1.269 1_545 S
O8 Co0 2.074 . S
O8 C33 1.257 . S
H9 C34 0.930 . S
H10 C40 0.930 1_545 S
O11 Co0 2.093 1_546 S
O11 C3 1.224 . S
H12 C44 0.929 . S
H13 C46 0.930 . S
H14 C47 0.930 . S
H15 C45 0.929 . S
H16 C48 0.928 . S
O17 Co1 2.057 . S
O17 C5 1.232 . S
H18 C37 0.929 . S
H19 C38 0.929 . S
H20 C50 0.931 . S
H21 C42 0.929 . S
H22 C51 0.930 . S
H23 C43 0.931 . S
O24 Co0 2.097 1_545 S
O24 C52 1.214 . S
H25 C53 0.929 . S
H26 C54 0.929 . S
H27 C55 0.930 . S
H28 C56 0.929 . S
H29 C58 0.930 . S
H30 C35 0.930 . S
H31 C39 0.930 . S
O32 Co1 2.037 . S
O32 C52 1.234 . S
C33 O7 1.269 1_565 S
C33 O8 1.257 . S
C34 H9 0.930 . S
C34 C37 1.388 . S
C34 C39 1.418 . S
C35 H30 0.930 . S
C35 C38 1.404 . S
C35 C39 1.353 . S
N36 Co1 2.145 . S
N36 C37 1.397 . S
N36 C38 1.334 . S
C37 H18 0.929 . S
C37 C34 1.388 . S
C37 N36 1.397 . S
C38 H19 0.929 . S
C38 C35 1.404 . S
C38 N36 1.334 . S
C39 H31 0.930 . S
C39 C34 1.418 . S
C39 C35 1.353 . S
C40 H10 0.930 1_565 S
C40 N41 1.330 . S
C40 C42 1.446 . S
N41 Co0 2.151 1_556 S
N41 C40 1.330 . S
N41 C45 1.418 . S
C42 H21 0.929 . S
C42 C40 1.446 . S
C42 C43 1.332 . S
C43 H23 0.931 . S
C43 C42 1.332 . S
C43 C44 1.267 . S
C44 H12 0.929 . S
C44 C43 1.267 . S
C44 C45 1.251 . S
C45 H15 0.929 . S
C45 N41 1.418 . S
C45 C44 1.251 . S
C46 H13 0.930 . S
C46 C48 1.406 . S
C46 C51 1.261 1_556 S
C47 H14 0.930 . S
C47 N49 1.325 . S
C47 C50 1.357 . S
C48 H16 0.928 . S
C48 C46 1.406 . S
C48 N49 1.261 1_556 S
N49 Co0 2.214 . S
N49 C47 1.325 . S
N49 C48 1.261 1_554 S
C50 H20 0.931 . S
C50 C47 1.357 . S
C50 C51 1.312 . S
C51 H22 0.930 . S
C51 C46 1.261 1_554 S
C51 C50 1.312 . S
C52 O24 1.214 . S
C52 O32 1.234 . S
C53 H25 0.929 . S
C53 C56 1.391 . S
C53 C58 1.391 . S
C54 H26 0.929 . S
C54 C55 1.390 . S
C54 N57 1.391 . S
C55 H27 0.930 . S
C55 C54 1.390 . S
C55 C56 1.392 . S
C56 H28 0.929 . S
C56 C53 1.391 . S
C56 C55 1.392 . S
N57 Co1 2.257 . S
N57 C54 1.391 . S
N57 C58 1.388 . S
C58 H29 0.930 . S
C58 C53 1.391 . S
C58 N57 1.388 . S
Co59 O61 2.143 . S
Co59 O67 2.074 . S
Co59 O70 2.093 . S
Co59 O83 2.097 . S
Co59 N100 2.151 . S
Co59 N108 2.214 . S
Co60 O61 2.160 . S
Co60 O66 2.058 . S
Co60 O76 2.057 . S
Co60 O91 2.037 . S
Co60 N95 2.145 . S
Co60 N116 2.257 . S
O61 Co59 2.143 . S
O61 Co60 2.160 . S
C62 O63 1.278 . S
C62 O70 1.224 . S
O63 C62 1.278 . S
C64 O65 1.245 . S
C64 O76 1.232 . S
O65 C64 1.245 . S
O66 Co60 2.058 . S
O66 C92 1.269 . S
O67 Co59 2.074 . S
O67 C92 1.257 . S
H68 C93 0.930 . S
H69 C99 0.930 . S
O70 Co59 2.093 . S
O70 C62 1.224 . S
H71 C103 0.929 . S
H72 C105 0.930 . S
H73 C106 0.930 . S
H74 C104 0.929 . S
H75 C107 0.928 . S
O76 Co60 2.057 . S
O76 C64 1.232 . S
H77 C96 0.929 . S
H78 C97 0.929 . S
H79 C109 0.931 . S
H80 C101 0.929 . S
H81 C110 0.930 . S
H82 C102 0.931 . S
O83 Co59 2.097 . S
O83 C111 1.214 . S
H84 C112 0.929 . S
H85 C113 0.929 . S
H86 C114 0.930 . S
H87 C115 0.929 . S
H88 C117 0.930 . S
H89 C94 0.930 . S
H90 C98 0.930 . S
O91 Co60 2.037 . S
O91 C111 1.234 . S
C92 O66 1.269 . S
C92 O67 1.257 . S
C93 H68 0.930 . S
C93 C96 1.388 . S
C93 C98 1.418 . S
C94 H89 0.930 . S
C94 C97 1.404 . S
C94 C98 1.353 . S
N95 Co60 2.145 . S
N95 C96 1.397 . S
N95 C97 1.334 . S
C96 H77 0.929 . S
C96 C93 1.388 . S
C96 N95 1.397 . S
C97 H78 0.929 . S
C97 C94 1.404 . S
C97 N95 1.334 . S
C98 H90 0.930 . S
C98 C93 1.418 . S
C98 C94 1.353 . S
C99 H69 0.930 . S
C99 N100 1.330 . S
C99 C101 1.446 1_554 S
N100 Co59 2.151 . S
N100 C99 1.330 . S
N100 C104 1.418 . S
C101 H80 0.929 . S
C101 C99 1.446 1_556 S
C101 C102 1.332 . S
C102 H82 0.931 . S
C102 C101 1.332 . S
C102 C103 1.267 1_556 S
C103 H71 0.929 . S
C103 C102 1.267 1_554 S
C103 C104 1.251 . S
C104 H74 0.929 . S
C104 N100 1.418 . S
C104 C103 1.251 . S
C105 H72 0.930 . S
C105 C107 1.406 . S
C105 C110 1.261 . S
C106 H73 0.930 . S
C106 N108 1.325 . S
C106 C109 1.357 . S
C107 H75 0.928 . S
C107 C105 1.406 . S
C107 N108 1.261 . S
N108 Co59 2.214 . S
N108 C106 1.325 . S
N108 C107 1.261 . S
C109 H79 0.931 . S
C109 C106 1.357 . S
C109 C110 1.312 . S
C110 H81 0.930 . S
C110 C105 1.261 . S
C110 C109 1.312 . S
C111 O83 1.214 . S
C111 O91 1.234 . S
C112 H84 0.929 . S
C112 C115 1.391 . S
C112 C117 1.391 . S
C113 H85 0.929 . S
C113 C114 1.390 . S
C113 N116 1.391 . S
C114 H86 0.930 . S
C114 C113 1.390 . S
C114 C115 1.392 . S
C115 H87 0.929 . S
C115 C112 1.391 . S
C115 C114 1.392 . S
N116 Co60 2.257 . S
N116 C113 1.391 . S
N116 C117 1.388 . S
C117 H88 0.930 . S
C117 C112 1.391 . S
C117 N116 1.388 . S
Co118 O120 2.143 . S
Co118 O126 2.074 . S
Co118 O129 2.093 . S
Co118 O142 2.097 . S
Co118 N159 2.151 . S
Co118 N167 2.214 . S
Co119 O120 2.160 1_655 S
Co119 O125 2.058 1_655 S
Co119 O135 2.057 . S
Co119 O150 2.037 1_655 S
Co119 N154 2.145 . S
Co119 N175 2.257 . S
O120 Co118 2.143 . S
O120 Co119 2.160 1_455 S
C121 O122 1.278 1_455 S
C121 O129 1.224 . S
O122 C121 1.278 1_655 S
C123 O124 1.245 . S
C123 O135 1.232 . S
O124 C123 1.245 . S
O125 Co119 2.058 1_455 S
O125 C151 1.269 . S
O126 Co118 2.074 . S
O126 C151 1.257 . S
H127 C152 0.930 . S
H128 C158 0.930 . S
O129 Co118 2.093 . S
O129 C121 1.224 . S
H130 C162 0.929 . S
H131 C164 0.930 . S
H132 C165 0.930 . S
H133 C163 0.929 . S
H134 C166 0.928 . S
O135 Co119 2.057 . S
O135 C123 1.232 . S
H136 C155 0.929 1_455 S
H137 C156 0.929 . S
H138 C168 0.931 . S
H139 C160 0.929 . S
H140 C169 0.930 . S
H141 C161 0.931 . S
O142 Co118 2.097 . S
O142 C170 1.214 . S
H143 C171 0.929 . S
H144 C172 0.929 . S
H145 C173 0.930 . S
H146 C174 0.929 . S
H147 C176 0.930 . S
H148 C153 0.930 . S
H149 C157 0.930 . S
O150 Co119 2.037 1_455 S
O150 C170 1.234 . S
C151 O125 1.269 . S
C151 O126 1.257 . S
C152 H127 0.930 . S
C152 C155 1.388 . S
C152 C157 1.418 . S
C153 H148 0.930 . S
C153 C156 1.404 . S
C153 C157 1.353 . S
N154 Co119 2.145 . S
N154 C155 1.397 . S
N154 C156 1.334 . S
C155 H136 0.929 1_655 S
C155 C152 1.388 . S
C155 N154 1.397 . S
C156 H137 0.929 . S
C156 C153 1.404 . S
C156 N154 1.334 . S
C157 H149 0.930 . S
C157 C152 1.418 . S
C157 C153 1.353 . S
C158 H128 0.930 . S
C158 N159 1.330 . S
C158 C160 1.446 . S
N159 Co118 2.151 . S
N159 C158 1.330 . S
N159 C163 1.418 . S
C160 H139 0.929 . S
C160 C158 1.446 . S
C160 C161 1.332 . S
C161 H141 0.931 . S
C161 C160 1.332 . S
C161 C162 1.267 . S
C162 H130 0.929 . S
C162 C161 1.267 . S
C162 C163 1.251 . S
C163 H133 0.929 . S
C163 N159 1.418 . S
C163 C162 1.251 . S
C164 H131 0.930 . S
C164 C166 1.406 . S
C164 C169 1.261 . S
C165 H132 0.930 . S
C165 N167 1.325 . S
C165 C168 1.357 . S
C166 H134 0.928 . S
C166 C164 1.406 . S
C166 N167 1.261 . S
N167 Co118 2.214 . S
N167 C165 1.325 . S
N167 C166 1.261 . S
C168 H138 0.931 . S
C168 C165 1.357 . S
C168 C169 1.312 . S
C169 H140 0.930 . S
C169 C164 1.261 . S
C169 C168 1.312 . S
C170 O142 1.214 . S
C170 O150 1.234 . S
C171 H143 0.929 . S
C171 C174 1.391 . S
C171 C176 1.391 . S
C172 H144 0.929 . S
C172 C173 1.390 . S
C172 N175 1.391 . S
C173 H145 0.930 . S
C173 C172 1.390 . S
C173 C174 1.392 . S
C174 H146 0.929 . S
C174 C171 1.391 . S
C174 C173 1.392 . S
N175 Co119 2.257 . S
N175 C172 1.391 . S
N175 C176 1.388 . S
C176 H147 0.930 . S
C176 C171 1.391 . S
C176 N175 1.388 . S
Co177 O179 2.143 . S
Co177 O185 2.074 . S
Co177 O188 2.093 . S
Co177 O201 2.097 . S
Co177 N218 2.151 . S
Co177 N226 2.214 . S
Co178 O179 2.160 1_565 S
Co178 O184 2.058 1_565 S
Co178 O194 2.057 . S
Co178 O209 2.037 1_565 S
Co178 N213 2.145 . S
Co178 N234 2.257 . S
O179 Co177 2.143 . S
O179 Co178 2.160 1_545 S
C180 O181 1.278 1_545 S
C180 O188 1.224 . S
O181 C180 1.278 1_565 S
C182 O183 1.245 . S
C182 O194 1.232 . S
O183 C182 1.245 . S
O184 Co178 2.058 1_545 S
O184 C210 1.269 . S
O185 Co177 2.074 . S
O185 C210 1.257 . S
H186 C211 0.930 . S
H187 C217 0.930 . S
O188 Co177 2.093 . S
O188 C180 1.224 . S
H189 C221 0.929 . S
H190 C223 0.930 . S
H191 C224 0.930 . S
H192 C222 0.929 . S
H193 C225 0.928 . S
O194 Co178 2.057 . S
O194 C182 1.232 . S
H195 C214 0.929 1_545 S
H196 C215 0.929 . S
H197 C227 0.931 . S
H198 C219 0.929 . S
H199 C228 0.930 . S
H200 C220 0.931 . S
O201 Co177 2.097 . S
O201 C229 1.214 . S
H202 C230 0.929 . S
H203 C231 0.929 . S
H204 C232 0.930 . S
H205 C233 0.929 . S
H206 C235 0.930 . S
H207 C212 0.930 . S
H208 C216 0.930 . S
O209 Co178 2.037 1_545 S
O209 C229 1.234 . S
C210 O184 1.269 . S
C210 O185 1.257 . S
C211 H186 0.930 . S
C211 C214 1.388 . S
C211 C216 1.418 . S
C212 H207 0.930 . S
C212 C215 1.404 . S
C212 C216 1.353 . S
N213 Co178 2.145 . S
N213 C214 1.397 . S
N213 C215 1.334 . S
C214 H195 0.929 1_565 S
C214 C211 1.388 . S
C214 N213 1.397 . S
C215 H196 0.929 . S
C215 C212 1.404 . S
C215 N213 1.334 . S
C216 H208 0.930 . S
C216 C211 1.418 . S
C216 C212 1.353 . S
C217 H187 0.930 . S
C217 N218 1.330 . S
C217 C219 1.446 . S
N218 Co177 2.151 . S
N218 C217 1.330 . S
N218 C222 1.418 . S
C219 H198 0.929 . S
C219 C217 1.446 . S
C219 C220 1.332 . S
C220 H200 0.931 . S
C220 C219 1.332 . S
C220 C221 1.267 . S
C221 H189 0.929 . S
C221 C220 1.267 . S
C221 C222 1.251 . S
C222 H192 0.929 . S
C222 N218 1.418 . S
C222 C221 1.251 . S
C223 H190 0.930 . S
C223 C225 1.406 . S
C223 C228 1.261 . S
C224 H191 0.930 . S
C224 N226 1.325 . S
C224 C227 1.357 . S
C225 H193 0.928 . S
C225 C223 1.406 . S
C225 N226 1.261 . S
N226 Co177 2.214 . S
N226 C224 1.325 . S
N226 C225 1.261 . S
C227 H197 0.931 . S
C227 C224 1.357 . S
C227 C228 1.312 . S
C228 H199 0.930 . S
C228 C223 1.261 . S
C228 C227 1.312 . S
C229 O201 1.214 . S
C229 O209 1.234 . S
C230 H202 0.929 . S
C230 C233 1.391 . S
C230 C235 1.391 . S
C231 H203 0.929 . S
C231 C232 1.390 . S
C231 N234 1.391 . S
C232 H204 0.930 . S
C232 C231 1.390 . S
C232 C233 1.392 . S
C233 H205 0.929 . S
C233 C230 1.391 . S
C233 C232 1.392 . S
N234 Co178 2.257 . S
N234 C231 1.391 . S
N234 C235 1.388 . S
C235 H206 0.930 . S
C235 C230 1.391 . S
C235 N234 1.388 . S
Co236 O238 2.143 . S
Co236 O244 2.074 . S
Co236 O247 2.093 . S
Co236 O260 2.097 . S
Co236 N277 2.151 . S
Co236 N285 2.214 . S
Co237 O238 2.160 . S
Co237 O243 2.058 . S
Co237 O253 2.057 . S
Co237 O268 2.037 . S
Co237 N272 2.145 . S
Co237 N293 2.257 . S
O238 Co236 2.143 . S
O238 Co237 2.160 . S
C239 O240 1.278 . S
C239 O247 1.224 . S
O240 C239 1.278 . S
C241 O242 1.245 . S
C241 O253 1.232 . S
O242 C241 1.245 . S
O243 Co237 2.058 . S
O243 C269 1.269 . S
O244 Co236 2.074 . S
O244 C269 1.257 . S
H245 C270 0.930 . S
H246 C276 0.930 . S
O247 Co236 2.093 . S
O247 C239 1.224 . S
H248 C280 0.929 . S
H249 C282 0.930 . S
H250 C283 0.930 . S
H251 C281 0.929 . S
H252 C284 0.928 . S
O253 Co237 2.057 . S
O253 C241 1.232 . S
H254 C273 0.929 . S
H255 C274 0.929 . S
H256 C286 0.931 . S
H257 C278 0.929 . S
H258 C287 0.930 . S
H259 C279 0.931 . S
O260 Co236 2.097 . S
O260 C288 1.214 . S
H261 C289 0.929 . S
H262 C290 0.929 . S
H263 C291 0.930 . S
H264 C292 0.929 . S
H265 C294 0.930 . S
H266 C271 0.930 . S
H267 C275 0.930 . S
O268 Co237 2.037 . S
O268 C288 1.234 . S
C269 O243 1.269 . S
C269 O244 1.257 . S
C270 H245 0.930 . S
C270 C273 1.388 1_554 S
C270 C275 1.418 . S
C271 H266 0.930 . S
C271 C274 1.404 . S
C271 C275 1.353 1_556 S
N272 Co237 2.145 . S
N272 C273 1.397 . S
N272 C274 1.334 . S
C273 H254 0.929 . S
C273 C270 1.388 1_556 S
C273 N272 1.397 . S
C274 H255 0.929 . S
C274 C271 1.404 . S
C274 N272 1.334 . S
C275 H267 0.930 . S
C275 C270 1.418 . S
C275 C271 1.353 1_554 S
C276 H246 0.930 . S
C276 N277 1.330 . S
C276 C278 1.446 . S
N277 Co236 2.151 . S
N277 C276 1.330 . S
N277 C281 1.418 . S
C278 H257 0.929 . S
C278 C276 1.446 . S
C278 C279 1.332 . S
C279 H259 0.931 . S
C279 C278 1.332 . S
C279 C280 1.267 . S
C280 H248 0.929 . S
C280 C279 1.267 . S
C280 C281 1.251 . S
C281 H251 0.929 . S
C281 N277 1.418 . S
C281 C280 1.251 . S
C282 H249 0.930 . S
C282 C284 1.406 . S
C282 C287 1.261 . S
C283 H250 0.930 . S
C283 N285 1.325 . S
C283 C286 1.357 . S
C284 H252 0.928 . S
C284 C282 1.406 . S
C284 N285 1.261 . S
N285 Co236 2.214 . S
N285 C283 1.325 . S
N285 C284 1.261 . S
C286 H256 0.931 . S
C286 C283 1.357 . S
C286 C287 1.312 . S
C287 H258 0.930 . S
C287 C282 1.261 . S
C287 C286 1.312 . S
C288 O260 1.214 . S
C288 O268 1.234 . S
C289 H261 0.929 . S
C289 C292 1.391 . S
C289 C294 1.391 . S
C290 H262 0.929 . S
C290 C291 1.390 . S
C290 N293 1.391 . S
C291 H263 0.930 . S
C291 C290 1.390 . S
C291 C292 1.392 . S
C292 H264 0.929 . S
C292 C289 1.391 . S
C292 C291 1.392 . S
N293 Co237 2.257 . S
N293 C290 1.391 . S
N293 C294 1.388 . S
C294 H265 0.930 . S
C294 C289 1.391 . S
C294 N293 1.388 . S
Co295 O297 2.143 1_655 S
Co295 O303 2.074 . S
Co295 O306 2.093 1_655 S
Co295 O319 2.097 1_655 S
Co295 N336 2.151 . S
Co295 N344 2.214 . S
Co296 O297 2.160 . S
Co296 O302 2.058 . S
Co296 O312 2.057 . S
Co296 O327 2.037 1_556 S
Co296 N331 2.145 1_556 S
Co296 N352 2.257 . S
O297 Co295 2.143 1_455 S
O297 Co296 2.160 . S
C298 O299 1.278 . S
C298 O306 1.224 . S
O299 C298 1.278 . S
C300 O301 1.245 . S
C300 O312 1.232 . S
O301 C300 1.245 . S
O302 Co296 2.058 . S
O302 C328 1.269 1_455 S
O303 Co295 2.074 . S
O303 C328 1.257 . S
H304 C329 0.930 . S
H305 C335 0.930 1_455 S
O306 Co295 2.093 1_455 S
O306 C298 1.224 . S
H307 C339 0.929 . S
H308 C341 0.930 . S
H309 C342 0.930 . S
H310 C340 0.929 . S
H311 C343 0.928 . S
O312 Co296 2.057 . S
O312 C300 1.232 . S
H313 C332 0.929 . S
H314 C333 0.929 . S
H315 C345 0.931 . S
H316 C337 0.929 . S
H317 C346 0.930 . S
H318 C338 0.931 . S
O319 Co295 2.097 1_455 S
O319 C347 1.209 1_556 S
H320 C348 0.929 . S
H321 C349 0.929 . S
H322 C350 0.930 . S
H323 C351 0.929 . S
H324 C353 0.930 . S
H325 C330 0.930 . S
H326 C334 0.930 . S
O327 Co296 2.037 1_554 S
O327 C347 1.235 . S
C328 O302 1.269 1_655 S
C328 O303 1.257 . S
C329 H304 0.930 . S
C329 C332 1.388 . S
C329 C334 1.418 . S
C330 H325 0.930 . S
C330 C333 1.404 . S
C330 C334 1.353 . S
N331 Co296 2.145 1_554 S
N331 C332 1.397 . S
N331 C333 1.334 . S
C332 H313 0.929 . S
C332 C329 1.388 . S
C332 N331 1.397 . S
C333 H314 0.929 . S
C333 C330 1.404 . S
C333 N331 1.334 . S
C334 H326 0.930 . S
C334 C329 1.418 . S
C334 C330 1.353 . S
C335 H305 0.930 1_655 S
C335 N336 1.330 . S
C335 C337 1.446 . S
N336 Co295 2.151 . S
N336 C335 1.330 . S
N336 C340 1.418 . S
C337 H316 0.929 . S
C337 C335 1.446 . S
C337 C338 1.332 . S
C338 H318 0.931 . S
C338 C337 1.332 . S
C338 C339 1.267 . S
C339 H307 0.929 . S
C339 C338 1.267 . S
C339 C340 1.251 . S
C340 H310 0.929 . S
C340 N336 1.418 . S
C340 C339 1.251 . S
C341 H308 0.930 . S
C341 C343 1.406 . S
C341 C346 1.261 . S
C342 H309 0.930 . S
C342 N344 1.325 . S
C342 C345 1.357 . S
C343 H311 0.928 . S
C343 C341 1.406 . S
C343 N344 1.261 . S
N344 Co295 2.214 . S
N344 C342 1.325 . S
N344 C343 1.261 . S
C345 H315 0.931 . S
C345 C342 1.357 . S
C345 C346 1.312 . S
C346 H317 0.930 . S
C346 C341 1.261 . S
C346 C345 1.312 . S
C347 O319 1.209 1_554 S
C347 O327 1.235 . S
C348 H320 0.929 . S
C348 C351 1.391 . S
C348 C353 1.391 . S
C349 H321 0.929 . S
C349 C350 1.390 . S
C349 N352 1.391 1_554 S
C350 H322 0.930 . S
C350 C349 1.390 . S
C350 C351 1.392 1_554 S
C351 H323 0.929 . S
C351 C348 1.391 . S
C351 C350 1.392 1_556 S
N352 Co296 2.257 . S
N352 C349 1.391 1_556 S
N352 C353 1.388 . S
C353 H324 0.930 . S
C353 C348 1.391 . S
C353 N352 1.388 . S
C354 C355 1.363 . S
C354 C360 1.379 . S
C354 N362 1.356 . S
C355 C354 1.363 . S
C355 C361 1.363 1_545 S
C356 C357 1.363 1_565 S
C356 C361 1.379 . S
C356 N363 1.356 . S
C357 C356 1.363 1_545 S
C357 C360 1.363 . S
N358 C360 1.356 . S
N358 H370 0.984 . S
N358 H371 0.985 . S
N359 C361 1.356 . S
N359 H364 0.984 . S
N359 H365 0.985 . S
C360 C354 1.379 . S
C360 C357 1.363 . S
C360 N358 1.356 . S
C361 C355 1.363 1_565 S
C361 C356 1.379 . S
C361 N359 1.356 . S
N362 C354 1.356 . S
N362 H368 0.984 . S
N362 H369 0.984 . S
N363 C356 1.356 . S
N363 H366 0.984 . S
N363 H367 0.985 . S
H364 N359 0.984 . S
H365 N359 0.985 . S
H366 N363 0.984 . S
H367 N363 0.985 . S
H368 N362 0.984 . S
H369 N362 0.984 . S
H370 N358 0.984 . S
H371 N358 0.985 . S
C372 C373 1.363 . S
C372 C378 1.379 . S
C372 N380 1.356 . S
C373 C372 1.363 . S
C373 C379 1.363 . S
C374 C375 1.363 . S
C374 C379 1.379 . S
C374 N381 1.356 . S
C375 C374 1.363 . S
C375 C378 1.363 . S
N376 C378 1.356 . S
N376 H388 0.984 . S
N376 H389 0.985 . S
N377 C379 1.356 . S
N377 H382 0.984 . S
N377 H383 0.985 . S
C378 C372 1.379 . S
C378 C375 1.363 . S
C378 N376 1.356 . S
C379 C373 1.363 . S
C379 C374 1.379 . S
C379 N377 1.356 . S
N380 C372 1.356 . S
N380 H386 0.984 . S
N380 H387 0.984 . S
N381 C374 1.356 . S
N381 H384 0.984 . S
N381 H385 0.985 . S
H382 N377 0.984 . S
H383 N377 0.985 . S
H384 N381 0.984 . S
H385 N381 0.985 . S
H386 N380 0.984 . S
H387 N380 0.984 . S
H388 N376 0.984 . S
H389 N376 0.985 . S
C390 C391 1.363 . S
C390 C396 1.379 . S
C390 N398 1.356 . S
C391 C390 1.363 . S
C391 C397 1.363 . S
C392 C393 1.363 . S
C392 C397 1.379 . S
C392 N399 1.356 . S
C393 C392 1.363 . S
C393 C396 1.363 . S
N394 C396 1.356 . S
N394 H406 0.984 . S
N394 H407 0.985 . S
N395 C397 1.356 . S
N395 H400 0.984 . S
N395 H401 0.985 . S
C396 C390 1.379 . S
C396 C393 1.363 . S
C396 N394 1.356 . S
C397 C391 1.363 . S
C397 C392 1.379 . S
C397 N395 1.356 . S
N398 C390 1.356 . S
N398 H404 0.984 . S
N398 H405 0.984 . S
N399 C392 1.356 . S
N399 H402 0.984 . S
N399 H403 0.985 . S
H400 N395 0.984 . S
H401 N395 0.985 . S
H402 N399 0.984 . S
H403 N399 0.985 . S
H404 N398 0.984 . S
H405 N398 0.984 . S
H406 N394 0.984 . S
H407 N394 0.985 . S
C408 C409 1.363 . S
C408 C414 1.379 . S
C408 N416 1.356 . S
C409 C408 1.363 . S
C409 C415 1.363 . S
C410 C411 1.363 . S
C410 C415 1.379 . S
C410 N417 1.356 1_545 S
C411 C410 1.363 . S
C411 C414 1.363 . S
N412 C414 1.356 . S
N412 H424 0.984 . S
N412 H425 0.985 . S
N413 C415 1.356 . S
N413 H418 0.984 . S
N413 H419 0.985 1_545 S
C414 C408 1.379 . S
C414 C411 1.363 . S
C414 N412 1.356 . S
C415 C409 1.363 . S
C415 C410 1.379 . S
C415 N413 1.356 . S
N416 C408 1.356 . S
N416 H422 0.984 . S
N416 H423 0.984 . S
N417 C410 1.356 1_565 S
N417 H420 0.984 1_565 S
N417 H421 0.985 . S
H418 N413 0.984 . S
H419 N413 0.985 1_565 S
H420 N417 0.984 1_545 S
H421 N417 0.985 . S
H422 N416 0.984 . S
H423 N416 0.984 . S
H424 N412 0.984 . S
H425 N412 0.985 . S
C426 C427 1.363 . S
C426 C432 1.379 1_554 S
C426 N434 1.356 . S
C427 C426 1.363 . S
C427 C433 1.363 1_554 S
C428 C429 1.363 . S
C428 C433 1.379 . S
C428 N435 1.356 . S
C429 C428 1.363 . S
C429 C432 1.363 . S
N430 C432 1.356 . S
N430 H442 0.984 . S
N430 H443 0.985 . S
N431 C433 1.356 . S
N431 H436 0.984 1_556 S
N431 H437 0.985 . S
C432 C426 1.379 1_556 S
C432 C429 1.363 . S
C432 N430 1.356 . S
C433 C427 1.363 1_556 S
C433 C428 1.379 . S
C433 N431 1.356 . S
N434 C426 1.356 . S
N434 H440 0.984 . S
N434 H441 0.984 . S
N435 C428 1.356 . S
N435 H438 0.984 . S
N435 H439 0.985 . S
H436 N431 0.984 1_554 S
H437 N431 0.985 . S
H438 N435 0.984 . S
H439 N435 0.985 . S
H440 N434 0.984 . S
H441 N434 0.984 . S
H442 N430 0.984 . S
H443 N430 0.985 . S
C444 C445 1.363 . S
C444 C450 1.379 . S
C444 N452 1.356 . S
C445 C444 1.363 . S
C445 C451 1.363 1_455 S
C446 C447 1.363 1_655 S
C446 C451 1.379 . S
C446 N453 1.356 . S
C447 C446 1.363 1_455 S
C447 C450 1.363 . S
N448 C450 1.356 . S
N448 H460 0.984 . S
N448 H461 0.985 . S
N449 C451 1.356 . S
N449 H454 0.984 . S
N449 H455 0.985 . S
C450 C444 1.379 . S
C450 C447 1.363 . S
C450 N448 1.356 . S
C451 C445 1.363 1_655 S
C451 C446 1.379 . S
C451 N449 1.356 . S
N452 C444 1.356 . S
N452 H458 0.984 . S
N452 H459 0.984 . S
N453 C446 1.356 . S
N453 H456 0.984 . S
N453 H457 0.985 . S
H454 N449 0.984 . S
H455 N449 0.985 . S
H456 N453 0.984 . S
H457 N453 0.985 . S
H458 N452 0.984 . S
H459 N452 0.984 . S
H460 N448 0.984 . S
H461 N448 0.985 . S
C462 C463 1.363 . S
C462 C468 1.379 . S
C462 N470 1.356 . S
C463 C462 1.363 . S
C463 C469 1.363 . S
C464 C465 1.363 . S
C464 C469 1.379 . S
C464 N471 1.356 . S
C465 C464 1.363 . S
C465 C468 1.363 . S
N466 C468 1.356 . S
N466 H478 0.984 . S
N466 H479 0.985 . S
N467 C469 1.356 . S
N467 H472 0.984 . S
N467 H473 0.985 . S
C468 C462 1.379 . S
C468 C465 1.363 . S
C468 N466 1.356 . S
C469 C463 1.363 . S
C469 C464 1.379 . S
C469 N467 1.356 . S
N470 C462 1.356 . S
N470 H476 0.984 . S
N470 H477 0.984 . S
N471 C464 1.356 . S
N471 H474 0.984 . S
N471 H475 0.985 1_554 S
H472 N467 0.984 . S
H473 N467 0.985 . S
H474 N471 0.984 . S
H475 N471 0.985 1_556 S
H476 N470 0.984 . S
H477 N470 0.984 . S
H478 N466 0.984 . S
H479 N466 0.985 . S
C480 C481 1.363 . S
C480 C486 1.379 . S
C480 N488 1.356 . S
C481 C480 1.363 . S
C481 C487 1.363 . S
C482 C483 1.363 . S
C482 C487 1.379 . S
C482 N489 1.356 . S
C483 C482 1.363 . S
C483 C486 1.363 . S
N484 C486 1.356 . S
N484 H496 0.984 . S
N484 H497 0.985 . S
N485 C487 1.356 . S
N485 H490 0.984 . S
N485 H491 0.985 . S
C486 C480 1.379 . S
C486 C483 1.363 . S
C486 N484 1.356 . S
C487 C481 1.363 . S
C487 C482 1.379 . S
C487 N485 1.356 . S
N488 C480 1.356 . S
N488 H494 0.984 . S
N488 H495 0.984 . S
N489 C482 1.356 . S
N489 H492 0.984 . S
N489 H493 0.985 . S
H490 N485 0.984 . S
H491 N485 0.985 . S
H492 N489 0.984 . S
H493 N489 0.985 . S
H494 N488 0.984 . S
H495 N488 0.984 . S
H496 N484 0.984 . S
H497 N484 0.985 . S
C498 C499 1.363 . S
C498 C504 1.379 . S
C498 N506 1.356 . S
C499 C498 1.363 . S
C499 C505 1.363 . S
C500 C501 1.363 . S
C500 C505 1.379 . S
C500 N507 1.356 . S
C501 C500 1.363 . S
C501 C504 1.363 . S
N502 C504 1.356 . S
N502 H514 0.984 . S
N502 H515 0.985 . S
N503 C505 1.356 . S
N503 H508 0.984 . S
N503 H509 0.985 . S
C504 C498 1.379 . S
C504 C501 1.363 . S
C504 N502 1.356 . S
C505 C499 1.363 . S
C505 C500 1.379 . S
C505 N503 1.356 . S
N506 C498 1.356 . S
N506 H512 0.984 . S
N506 H513 0.984 . S
N507 C500 1.356 . S
N507 H510 0.984 . S
N507 H511 0.985 . S
H508 N503 0.984 . S
H509 N503 0.985 . S
H510 N507 0.984 . S
H511 N507 0.985 . S
H512 N506 0.984 . S
H513 N506 0.984 . S
H514 N502 0.984 . S
H515 N502 0.985 . S
C516 C517 1.363 . S
C516 C522 1.379 . S
C516 N524 1.356 . S
C517 C516 1.363 . S
C517 C523 1.363 . S
C518 C519 1.363 . S
C518 C523 1.379 . S
C518 N525 1.356 . S
C519 C518 1.363 . S
C519 C522 1.363 . S
N520 C522 1.356 . S
N520 H532 0.984 . S
N520 H533 0.985 . S
N521 C523 1.356 . S
N521 H526 0.984 . S
N521 H527 0.985 . S
C522 C516 1.379 . S
C522 C519 1.363 . S
C522 N520 1.356 . S
C523 C517 1.363 . S
C523 C518 1.379 . S
C523 N521 1.356 . S
N524 C516 1.356 . S
N524 H530 0.984 . S
N524 H531 0.984 . S
N525 C518 1.356 . S
N525 H528 0.984 . S
N525 H529 0.985 . S
H526 N521 0.984 . S
H527 N521 0.985 . S
H528 N525 0.984 . S
H529 N525 0.985 . S
H530 N524 0.984 . S
H531 N524 0.984 . S
H532 N520 0.984 . S
H533 N520 0.985 . S
C534 C535 1.363 . S
C534 C540 1.379 . S
C534 N542 1.356 . S
C535 C534 1.363 . S
C535 C541 1.363 . S
C536 C537 1.363 . S
C536 C541 1.379 . S
C536 N543 1.356 . S
C537 C536 1.363 . S
C537 C540 1.363 . S
N538 C540 1.356 . S
N538 H550 0.984 . S
N538 H551 0.985 . S
N539 C541 1.356 . S
N539 H544 0.984 . S
N539 H545 0.985 . S
C540 C534 1.379 . S
C540 C537 1.363 . S
C540 N538 1.356 . S
C541 C535 1.363 . S
C541 C536 1.379 . S
C541 N539 1.356 . S
N542 C534 1.356 . S
N542 H548 0.984 . S
N542 H549 0.984 . S
N543 C536 1.356 . S
N543 H546 0.984 . S
N543 H547 0.985 . S
H544 N539 0.984 . S
H545 N539 0.985 . S
H546 N543 0.984 . S
H547 N543 0.985 . S
H548 N542 0.984 . S
H549 N542 0.984 . S
H550 N538 0.984 . S
H551 N538 0.985 . S
C552 C553 1.363 . S
C552 C558 1.379 . S
C552 N560 1.356 . S
C553 C552 1.363 . S
C553 C559 1.363 1_556 S
C554 C555 1.363 1_554 S
C554 C559 1.379 . S
C554 N561 1.356 . S
C555 C554 1.363 1_556 S
C555 C558 1.363 . S
N556 C558 1.356 . S
N556 H568 0.984 . S
N556 H569 0.985 . S
N557 C559 1.356 . S
N557 H562 0.984 . S
N557 H563 0.985 . S
C558 C552 1.379 . S
C558 C555 1.363 . S
C558 N556 1.356 . S
C559 C553 1.363 1_554 S
C559 C554 1.379 . S
C559 N557 1.356 . S
N560 C552 1.356 . S
N560 H566 0.984 . S
N560 H567 0.984 . S
N561 C554 1.356 . S
N561 H564 0.984 . S
N561 H565 0.985 . S
H562 N557 0.984 . S
H563 N557 0.985 . S
H564 N561 0.984 . S
H565 N561 0.985 . S
H566 N560 0.984 . S
H567 N560 0.984 . S
H568 N556 0.984 . S
H569 N556 0.985 . S
C355 C52 1.759 . S
C357 C180 1.749 . S
C373 C111 1.759 . S
C375 C239 1.749 . S
C391 C298 1.749 . S
C393 C170 1.759 . S
C409 C3 1.749 . S
C411 C229 1.759 . S
C427 C62 1.749 . S
C429 C288 1.759 . S
C445 C347 1.764 . S
C447 C121 1.749 . S
C463 C64 1.484 . S
C465 C33 1.479 . S
C481 C123 1.484 . S
C483 C92 1.478 . S
C499 C151 1.478 . S
C501 C182 1.484 . S
C517 C241 1.485 . S
C519 C210 1.479 . S
C535 C300 1.484 . S
C537 C269 1.478 . S
C553 C328 1.478 . S
C555 C5 1.484 1_556 S
