# Generated by pormake.
# Topology unh, (4)-cn, num edge types: 1
# Building blocks:
#     Node 0, Type 0, BuildingBlock: KOZSID_clean_sbu_0, # of connection points: 4
#     Node 1, Type 0, BuildingBlock: KOZSID_clean_sbu_0, # of connection points: 4
#     Node 2, Type 0, BuildingBlock: KOZSID_clean_sbu_0, # of connection points: 4
#     Node 3, Type 0, BuildingBlock: KOZSID_clean_sbu_0, # of connection points: 4
#     Node 4, Type 0, BuildingBlock: KOZSID_clean_sbu_0, # of connection points: 4
#     Node 5, Type 0, BuildingBlock: KOZSID_clean_sbu_0, # of connection points: 4
#     Edge 6, Type (0, 0), BuildingBlock: MIFKUJ_clean_linker_0, # of connection points: 2
#     Edge 7, Type (0, 0), BuildingBlock: MIFKUJ_clean_linker_0, # of connection points: 2
#     Edge 8, Type (0, 0), BuildingBlock: MIFKUJ_clean_linker_0, # of connection points: 2
#     Edge 9, Type (0, 0), BuildingBlock: MIFKUJ_clean_linker_0, # of connection points: 2
#     Edge 10, Type (0, 0), BuildingBlock: MIFKUJ_clean_linker_0, # of connection points: 2
#     Edge 11, Type (0, 0), BuildingBlock: MIFKUJ_clean_linker_0, # of connection points: 2
#     Edge 12, Type (0, 0), BuildingBlock: MIFKUJ_clean_linker_0, # of connection points: 2
#     Edge 13, Type (0, 0), BuildingBlock: MIFKUJ_clean_linker_0, # of connection points: 2
#     Edge 14, Type (0, 0), BuildingBlock: MIFKUJ_clean_linker_0, # of connection points: 2
#     Edge 15, Type (0, 0), BuildingBlock: MIFKUJ_clean_linker_0, # of connection points: 2
#     Edge 16, Type (0, 0), BuildingBlock: MIFKUJ_clean_linker_0, # of connection points: 2
#     Edge 17, Type (0, 0), BuildingBlock: MIFKUJ_clean_linker_0, # of connection points: 2
# Relax obj value: 0.012
# Max RMSD: 0.271
# Mean RMSD: 0.251
data_MOF--net-unh--node1-KOZSID_clean_sbu_0--edge1-MIFKUJ_clean_linker_0
_symmetry_space_group_name_H-M    P1
_symmetry_Int_Tables_number       1
_symmetry_cell_setting            triclinic
loop_
_symmetry_equiv_pos_as_xyz
'x, y, z'
_cell_length_a     68.136654
_cell_length_b     73.403167
_cell_length_c     28.674257
_cell_angle_alpha  90.099206
_cell_angle_beta   90.1995
_cell_angle_gamma 120.56753
loop_
_atom_site_label
_atom_site_type_symbol
_atom_site_fract_x
_atom_site_fract_y
_atom_site_fract_z
_atom_type_partial_charge
C0 C 0.21207 0.61108 0.17199 0.0
C1 C 0.22439 0.62951 0.19796 0.0
C2 C 0.2169 0.64284 0.18468 0.0
C3 C 0.2005 0.6319 0.15139 0.0
N4 N 0.19672 0.61225 0.14339 0.0
Co5 Co 0.17618 0.59251 0.09352 0.0
N6 N 0.16145 0.60973 0.0819 0.0
C7 C 0.16909 0.62951 0.09771 0.0
C8 C 0.15584 0.63768 0.08376 0.0
C9 C 0.13879 0.62213 0.05714 0.0
C10 C 0.14258 0.60527 0.05639 0.0
N11 N 0.15629 0.5731 0.04275 0.0
C12 C 0.13775 0.57159 0.0211 0.0
C13 C 0.12797 0.55454 0.9903 0.0
C14 C 0.14121 0.54554 0.99139 0.0
C15 C 0.15803 0.55725 0.02322 0.0
N16 N 0.19028 0.57479 0.10573 0.0
C17 C 0.18721 0.55811 0.08013 0.0
C18 C 0.1981 0.54825 0.09776 0.0
C19 C 0.20922 0.5596 0.13663 0.0
C20 C 0.20466 0.57597 0.14014 0.0
N21 N 0.15233 0.57606 0.14031 0.0
C22 C 0.11605 0.55399 0.20421 0.0
C23 C 0.12074 0.54323 0.16929 0.0
C24 C 0.13898 0.55447 0.13817 0.0
C25 C 0.1306 0.57602 0.20689 0.0
C26 C 0.14821 0.58662 0.17471 0.0
N27 N 0.20011 0.60975 0.04737 0.0
C28 C 0.24033 0.63259 0.03213 0.0
C29 C 0.23572 0.64353 0.99801 0.0
C30 C 0.21284 0.63589 0.98607 0.0
C31 C 0.19536 0.6187 0.01036 0.0
C32 C 0.2224 0.61587 0.05624 0.0
H33 H 0.17799 0.61348 1.00071 0.0
H34 H 0.22686 0.60888 0.08392 0.0
H35 H 0.14191 0.54564 0.11192 0.0
H36 H 0.15823 0.60354 0.17755 0.0
C37 C 0.18753 0.63908 0.12867 0.0
C38 C 0.2175 0.59409 0.1715 0.0
C39 C 0.12938 0.58636 0.02703 0.0
C40 C 0.17277 0.55126 0.04166 0.0
H41 H 0.23794 0.63321 0.22274 0.0
H42 H 0.22286 0.6587 0.19747 0.0
H43 H 0.15814 0.65302 0.09232 0.0
H44 H 0.12539 0.62325 0.03943 0.0
H45 H 0.11266 0.54889 0.96955 0.0
H46 H 0.13817 0.53142 0.9731 0.0
H47 H 0.19798 0.53445 0.084 0.0
H48 H 0.22029 0.55676 0.15873 0.0
H49 H 0.11015 0.52627 0.16506 0.0
H50 H 0.12855 0.58529 0.23371 0.0
H51 H 0.25772 0.63774 0.04232 0.0
H52 H 0.20845 0.64348 0.95897 0.0
C53 C 0.61206 0.18896 0.33962 0.0
C54 C 0.60254 0.19859 0.36522 0.0
C55 C 0.58124 0.19152 0.34715 0.0
C56 C 0.5789 0.17803 0.31159 0.0
N57 N 0.59717 0.17569 0.30664 0.0
Co58 Co 0.60121 0.1592 0.25578 0.0
N59 N 0.56846 0.14508 0.23666 0.0
C60 C 0.55355 0.15102 0.24945 0.0
C61 C 0.53204 0.13807 0.23173 0.0
C62 C 0.53349 0.12304 0.20598 0.0
C63 C 0.5559 0.12774 0.20926 0.0
N64 N 0.60539 0.14313 0.20449 0.0
C65 C 0.58976 0.1263 0.17918 0.0
C66 C 0.60021 0.12031 0.14595 0.0
C67 C 0.62317 0.13372 0.15095 0.0
C68 C 0.62545 0.14714 0.18661 0.0
N69 N 0.63396 0.17291 0.27488 0.0
C70 C 0.65061 0.1723 0.25089 0.0
C71 C 0.67143 0.18266 0.27274 0.0
C72 C 0.66794 0.19079 0.31263 0.0
C73 C 0.64513 0.18512 0.31255 0.0
N74 N 0.5935 0.13573 0.29956 0.0
C75 C 0.58088 0.10156 0.36144 0.0
C76 C 0.60001 0.10887 0.33242 0.0
C77 C 0.60594 0.12584 0.30167 0.0
C78 C 0.56847 0.112 0.35891 0.0
C79 C 0.57504 0.12891 0.32818 0.0
N80 N 0.6084 0.18279 0.21242 0.0
C81 C 0.62591 0.2205 0.20084 0.0
C82 C 0.61295 0.21743 0.16052 0.0
C83 C 0.59853 0.1965 0.1452 0.0
C84 C 0.59677 0.17946 0.17121 0.0
C85 C 0.62338 0.20316 0.22593 0.0
H86 H 0.58537 0.16361 0.15875 0.0
H87 H 0.63291 0.20645 0.25751 0.0
H88 H 0.6205 0.13081 0.27943 0.0
H89 H 0.56496 0.13637 0.32761 0.0
C90 C 0.55953 0.16666 0.28346 0.0
C91 C 0.63626 0.19526 0.34336 0.0
C92 C 0.56499 0.11616 0.1841 0.0
C93 C 0.64582 0.1609 0.20938 0.0
H94 H 0.61049 0.21018 0.39284 0.0
H95 H 0.56904 0.19593 0.35823 0.0
H96 H 0.5169 0.13895 0.2382 0.0
H97 H 0.51963 0.11012 0.18702 0.0
H98 H 0.59212 0.10754 0.12084 0.0
H99 H 0.6366 0.13313 0.1322 0.0
H100 H 0.68731 0.18427 0.2609 0.0
H101 H 0.68097 0.2008 0.33762 0.0
H102 H 0.61012 0.1013 0.33275 0.0
H103 H 0.55382 0.10731 0.38101 0.0
H104 H 0.63719 0.23624 0.21452 0.0
H105 H 0.58845 0.19328 0.11372 0.0
C106 C 0.43968 0.6054 0.3357 0.0
C107 C 0.44842 0.62386 0.30985 0.0
C108 C 0.47014 0.63707 0.32567 0.0
C109 C 0.47349 0.62604 0.36025 0.0
N110 N 0.45545 0.60643 0.36668 0.0
Co111 Co 0.45279 0.58663 0.41756 0.0
N112 N 0.48594 0.6038 0.43356 0.0
C113 C 0.50042 0.62368 0.41933 0.0
C114 C 0.52224 0.6316 0.43578 0.0
C115 C 0.52148 0.61573 0.46227 0.0
C116 C 0.49918 0.59896 0.46042 0.0
N117 N 0.4499 0.56716 0.46912 0.0
C118 C 0.46613 0.56552 0.49317 0.0
C119 C 0.45636 0.54892 0.5248 0.0
C120 C 0.43332 0.54018 0.52117 0.0
C121 C 0.43024 0.55165 0.48733 0.0
N122 N 0.41968 0.56897 0.40112 0.0
C123 C 0.40373 0.55239 0.42555 0.0
C124 C 0.38257 0.54258 0.4051 0.0
C125 C 0.38507 0.55392 0.36565 0.0
C126 C 0.40765 0.57025 0.36464 0.0
N127 N 0.45986 0.57021 0.37296 0.0
C128 C 0.4723 0.54769 0.31125 0.0
C129 C 0.45439 0.53705 0.34316 0.0
C130 C 0.4484 0.54854 0.37341 0.0
C131 C 0.48363 0.56985 0.31097 0.0
C132 C 0.47722 0.58069 0.34181 0.0
N133 N 0.44635 0.60371 0.46174 0.0
C134 C 0.42935 0.62524 0.47457 0.0
C135 C 0.44402 0.63561 0.51216 0.0
C136 C 0.45879 0.62854 0.52616 0.0
C137 C 0.45938 0.61233 0.50106 0.0
C138 C 0.43078 0.60949 0.45013 0.0
H139 H 0.47112 0.60747 0.51243 0.0
H140 H 0.41997 0.60289 0.42036 0.0
H141 H 0.4346 0.53984 0.39735 0.0
H142 H 0.48671 0.59768 0.34072 0.0
C143 C 0.49352 0.63327 0.38627 0.0
C144 C 0.4155 0.58866 0.33405 0.0
C145 C 0.49084 0.57957 0.48803 0.0
C146 C 0.40948 0.54569 0.46594 0.0
H147 H 0.43972 0.62775 0.28357 0.0
H148 H 0.48195 0.65296 0.31385 0.0
H149 H 0.53705 0.64688 0.42852 0.0
H150 H 0.53563 0.6165 0.48131 0.0
H151 H 0.46487 0.54338 0.54765 0.0
H152 H 0.42035 0.52633 0.53916 0.0
H153 H 0.36713 0.52889 0.41752 0.0
H154 H 0.37154 0.55121 0.34163 0.0
H155 H 0.4449 0.51993 0.34456 0.0
H156 H 0.4978 0.57893 0.28771 0.0
H157 H 0.4176 0.63003 0.46227 0.0
H158 H 0.47011 0.63572 0.55575 0.0
C159 C 0.85106 0.43379 0.68817 0.0
C160 C 0.84267 0.41633 0.71724 0.0
C161 C 0.85104 0.40407 0.70105 0.0
C162 C 0.86413 0.41469 0.66323 0.0
N163 N 0.86498 0.43316 0.65504 0.0
Co164 Co 0.88067 0.45225 0.60119 0.0
N165 N 0.89773 0.43758 0.5852 0.0
C166 C 0.89299 0.41853 0.60108 0.0
C167 C 0.90806 0.4127 0.58555 0.0
C168 C 0.92318 0.42904 0.55789 0.0
C169 C 0.91637 0.44393 0.55773 0.0
N170 N 0.89603 0.47107 0.54697 0.0
C171 C 0.91431 0.47419 0.52177 0.0
C172 C 0.91861 0.48818 0.48532 0.0
C173 C 0.90267 0.49418 0.48815 0.0
C174 C 0.88948 0.48348 0.52576 0.0
N175 N 0.8639 0.46726 0.6167 0.0
C176 C 0.86185 0.48092 0.58859 0.0
C177 C 0.84888 0.48849 0.60708 0.0
C178 C 0.84184 0.47874 0.64924 0.0
C179 C 0.85091 0.46561 0.65417 0.0
N180 N 0.90601 0.47157 0.64265 0.0
C181 C 0.94254 0.49805 0.70248 0.0
C182 C 0.93241 0.50642 0.67347 0.0
C183 C 0.91435 0.49294 0.64338 0.0
C184 C 0.93385 0.47623 0.70107 0.0
C185 C 0.91556 0.46336 0.67163 0.0
N186 N 0.85518 0.43224 0.56061 0.0
C187 C 0.81506 0.40643 0.55404 0.0
C188 C 0.81896 0.39654 0.51639 0.0
C189 C 0.84122 0.40617 0.49859 0.0
C190 C 0.85902 0.42409 0.52096 0.0
C191 C 0.8332 0.42411 0.57536 0.0
H192 H 0.87606 0.43066 0.50749 0.0
H193 H 0.82932 0.43038 0.60534 0.0
H194 H 0.90718 0.4998 0.62071 0.0
H195 H 0.90923 0.44665 0.67249 0.0
C196 C 0.87691 0.40852 0.6364 0.0
C197 C 0.84315 0.4491 0.69011 0.0
C198 C 0.92715 0.46334 0.52939 0.0
C199 C 0.87337 0.4872 0.5463 0.0
H200 H 0.83107 0.41253 0.74618 0.0
H201 H 0.84788 0.38914 0.7151 0.0
H202 H 0.90862 0.39869 0.59487 0.0
H203 H 0.93759 0.42987 0.54016 0.0
H204 H 0.93181 0.49344 0.45921 0.0
H205 H 0.90136 0.50554 0.46635 0.0
H206 H 0.8448 0.49961 0.59155 0.0
H207 H 0.83032 0.48036 0.6724 0.0
H208 H 0.93866 0.52325 0.67342 0.0
H209 H 0.94095 0.46906 0.72322 0.0
H210 H 0.79809 0.40019 0.56808 0.0
H211 H 0.84512 0.39936 0.46909 0.0
C212 C 0.44436 0.85425 0.84137 0.0
C213 C 0.4549 0.84623 0.86924 0.0
C214 C 0.47619 0.85351 0.85129 0.0
C215 C 0.47761 0.86572 0.81385 0.0
N216 N 0.45876 0.86707 0.80764 0.0
Co217 Co 0.45389 0.88255 0.75593 0.0
N218 N 0.4867 0.89756 0.73764 0.0
C219 C 0.50215 0.89232 0.75094 0.0
C220 C 0.52347 0.90556 0.73308 0.0
C221 C 0.52132 0.92004 0.70672 0.0
C222 C 0.49876 0.91482 0.71007 0.0
N223 N 0.44902 0.89773 0.70363 0.0
C224 C 0.46423 0.9148 0.67869 0.0
C225 C 0.45331 0.92032 0.64546 0.0
C226 C 0.4305 0.90617 0.64956 0.0
C227 C 0.42877 0.89291 0.68497 0.0
N228 N 0.42102 0.86792 0.77414 0.0
C229 C 0.40407 0.86723 0.74832 0.0
C230 C 0.38299 0.85558 0.76799 0.0
C231 C 0.38662 0.84795 0.80842 0.0
C232 C 0.40991 0.85542 0.81134 0.0
N233 N 0.46063 0.90607 0.79897 0.0
C234 C 0.47113 0.93939 0.86238 0.0
C235 C 0.45245 0.93192 0.83159 0.0
C236 C 0.44748 0.91526 0.80032 0.0
C237 C 0.48448 0.9299 0.85993 0.0
C238 C 0.47899 0.91344 0.82838 0.0
N239 N 0.44761 0.8588 0.71365 0.0
C240 C 0.4314 0.82112 0.70359 0.0
C241 C 0.44483 0.82425 0.6643 0.0
C242 C 0.45874 0.84509 0.64847 0.0
C243 C 0.45958 0.86208 0.67316 0.0
C244 C 0.43306 0.83841 0.72753 0.0
H245 H 0.47059 0.87791 0.66039 0.0
H246 H 0.4232 0.83501 0.75859 0.0
H247 H 0.43296 0.9098 0.77741 0.0
H248 H 0.48982 0.90676 0.82791 0.0
C249 C 0.49681 0.87719 0.7857 0.0
C250 C 0.41984 0.84692 0.84449 0.0
C251 C 0.48905 0.92568 0.68419 0.0
C252 C 0.4086 0.87846 0.70682 0.0
H253 H 0.44758 0.83552 0.89839 0.0
H254 H 0.48905 0.85022 0.86395 0.0
H255 H 0.53892 0.90521 0.73976 0.0
H256 H 0.53476 0.93291 0.68715 0.0
H257 H 0.46098 0.93331 0.62102 0.0
H258 H 0.41677 0.90618 0.63049 0.0
H259 H 0.36683 0.85269 0.75424 0.0
H260 H 0.37325 0.8372 0.83149 0.0
H261 H 0.44151 0.93863 0.83208 0.0
H262 H 0.49939 0.93529 0.88195 0.0
H263 H 0.42045 0.80541 0.71748 0.0
H264 H 0.46914 0.84828 0.61768 0.0
C265 C 0.61997 0.4382 0.83954 0.0
C266 C 0.61069 0.42523 0.80075 0.0
C267 C 0.58857 0.4208 0.79696 0.0
C268 C 0.5856 0.4313 0.8335 0.0
N269 N 0.60444 0.44203 0.85996 0.0
Co270 Co 0.60743 0.45888 0.91679 0.0
N271 N 0.57377 0.4452 0.924 0.0
C272 C 0.55829 0.4342 0.89037 0.0
C273 C 0.53636 0.42783 0.9034 0.0
C274 C 0.53813 0.43564 0.94765 0.0
C275 C 0.56113 0.44641 0.95922 0.0
N276 N 0.61076 0.47557 0.97434 0.0
C277 C 0.59511 0.47334 1.00653 0.0
C278 C 0.60504 0.48879 0.04103 0.0
C279 C 0.62747 0.50139 0.02944 0.0
C280 C 0.63004 0.49296 0.98883 0.0
N281 N 0.64101 0.47296 0.90887 0.0
C282 C 0.65676 0.49109 0.92947 0.0
C283 C 0.6787 0.49652 0.91903 0.0
C284 C 0.67669 0.48082 0.89007 0.0
C285 C 0.65351 0.46672 0.88411 0.0
N286 N 0.60673 0.48073 0.87766 0.0
C287 C 0.59638 0.50431 0.8143 0.0
C288 C 0.58998 0.50223 0.86146 0.0
C289 C 0.59497 0.49026 0.89202 0.0
C290 C 0.60997 0.49577 0.80108 0.0
C291 C 0.61533 0.48453 0.83336 0.0
N292 N 0.60757 0.43655 0.95453 0.0
C293 C 0.62589 0.42454 1.00856 0.0
C294 C 0.6099 0.40324 0.99822 0.0
C295 C 0.59244 0.39923 0.96647 0.0
C296 C 0.59151 0.41592 0.94551 0.0
C297 C 0.62438 0.44092 0.9865 0.0
H298 H 0.57812 0.41197 0.92052 0.0
H299 H 0.6371 0.45708 0.99451 0.0
H300 H 0.58832 0.48805 0.92677 0.0
H301 H 0.62546 0.47796 0.82158 0.0
C302 C 0.5648 0.42869 0.84874 0.0
C303 C 0.64396 0.44787 0.85407 0.0
C304 C 0.57033 0.4593 1.00184 0.0
C305 C 0.6506 0.49983 0.96572 0.0
H306 H 0.61906 0.41966 0.77764 0.0
H307 H 0.57593 0.41047 0.77168 0.0
H308 H 0.52091 0.41854 0.88325 0.0
H309 H 0.52417 0.43408 0.96857 0.0
H310 H 0.59676 0.49123 0.07051 0.0
H311 H 0.64036 0.51503 0.04845 0.0
H312 H 0.6943 0.50957 0.93315 0.0
H313 H 0.69076 0.47975 0.87589 0.0
H314 H 0.58057 0.50928 0.87503 0.0
H315 H 0.61573 0.49683 0.76558 0.0
H316 H 0.63954 0.42859 0.03333 0.0
H317 H 0.57986 0.38323 0.95633 0.0
H318 H 0.08682 0.57902 0.05016 0.0
H319 H 0.05461 0.56967 0.99719 0.0
H320 H 0.09758 0.57762 0.87942 0.0
H321 H 0.12998 0.58887 0.93206 0.0
H322 H 0.07038 0.5869 0.8495 0.0
H323 H 0.05754 0.52652 0.93944 0.0
H324 H 0.05317 0.50655 0.01157 0.0
H325 H 0.99588 0.51242 0.05099 0.0
H326 H 1.00007 0.53263 0.97926 0.0
H327 H 0.98406 0.50101 0.70643 0.0
H328 H 1.01505 0.52078 0.7628 0.0
H329 H 0.97564 0.5444 0.82881 0.0
H330 H 0.94477 0.52511 0.77137 0.0
H331 H 0.99834 0.52083 0.88678 0.0
H332 H 1.01206 0.57948 0.78519 0.0
H333 H 1.01787 0.59612 0.70791 0.0
H334 H 0.07568 0.58872 0.68486 0.0
H335 H 0.06998 0.57173 0.76175 0.0
C336 C 0.08941 0.57929 0.01286 0.0
C337 C 0.11076 0.58425 0.99526 0.0
C338 C 0.07089 0.57358 0.98247 0.0
C339 C 0.07314 0.57195 0.93392 0.0
C340 C 0.095 0.57841 0.91644 0.0
C341 C 0.1136 0.5848 0.94662 0.0
C342 C 0.05286 0.56268 0.90139 0.0
C343 C 0.05475 0.57241 0.85797 0.0
C344 C 0.03209 0.54374 0.91161 0.0
C345 C 0.02927 0.53126 0.95427 0.0
C346 C 0.04406 0.5236 0.96358 0.0
C347 C 0.04162 0.51225 1.00438 0.0
C348 C 1.0243 0.50827 0.0359 0.0
C349 C 1.00931 0.51555 0.02657 0.0
C350 C 1.0117 0.52694 0.98584 0.0
C351 C 0.98212 0.51064 0.7326 0.0
C352 C 0.96203 0.5116 0.73432 0.0
C353 C 0.99982 0.52188 0.76484 0.0
C354 C 0.99767 0.53403 0.80012 0.0
C355 C 0.97768 0.53514 0.80187 0.0
C356 C 0.96013 0.52424 0.76889 0.0
C357 C 1.01618 0.54506 0.83558 0.0
C358 C 1.01396 0.53551 0.87912 0.0
C359 C 0.03687 0.56373 0.82494 0.0
C360 C 0.04045 0.57415 0.779 0.0
C361 C 1.02587 0.58122 0.76345 0.0
C362 C 0.02918 0.59076 0.71976 0.0
C363 C 0.0471 0.59343 0.69144 0.0
C364 C 0.06179 0.58662 0.70681 0.0
C365 C 0.05854 0.57706 0.75046 0.0
H366 H 0.04963 0.60081 0.65762 0.0
H367 H 1.02246 0.49951 0.06752 0.0
H368 H 0.4689 0.97571 0.85108 0.0
H369 H 0.48074 1.00503 0.90634 0.0
H370 H 0.4992 0.97251 1.00655 0.0
H371 H 0.48664 0.94292 0.95243 0.0
H372 H 0.47958 0.99043 0.05041 0.0
H373 H 0.5394 1.01382 0.93675 0.0
H374 H 0.55572 1.0217 0.85766 0.0
H375 H 0.53348 0.06644 0.83848 0.0
H376 H 0.51676 0.05861 0.91729 0.0
H377 H 0.55709 0.07619 0.19618 0.0
H378 H 0.53762 0.04591 0.14278 0.0
H379 H 0.52103 0.08293 0.05169 0.0
H380 H 0.54096 0.11334 0.10486 0.0
H381 H 0.53728 0.06317 1.00215 0.0
H382 H 0.47982 0.04139 0.11911 0.0
H383 H 0.46431 0.03363 0.19886 0.0
H384 H 0.48271 0.98595 0.21259 0.0
H385 H 0.49863 0.99363 0.13312 0.0
C386 C 0.47517 0.97464 0.8851 0.0
C387 C 0.477 0.95692 0.89683 0.0
C388 C 0.48219 0.99157 0.91661 0.0
C389 C 0.49131 0.99129 0.9606 0.0
C390 C 0.4924 0.97331 0.9729 0.0
C391 C 0.48538 0.95641 0.94155 0.0
C392 C 0.50017 1.00977 0.99357 0.0
C393 C 0.49234 1.0063 0.03987 0.0
C394 C 0.51649 0.03067 0.97997 0.0
C395 C 0.52661 0.03545 0.93269 0.0
C396 C 0.53784 0.02522 0.91553 0.0
C397 C 0.54719 0.0297 0.87078 0.0
C398 C 0.54558 0.04451 0.843 0.0
C399 C 0.53468 0.05493 0.86 0.0
C400 C 0.52527 0.05049 0.90471 0.0
C401 C 0.5488 0.07764 0.16528 0.0
C402 C 0.55005 0.09692 0.15521 0.0
C403 C 0.53768 0.06034 0.13467 0.0
C404 C 0.52751 0.0619 0.09319 0.0
C405 C 0.52858 0.08118 0.08342 0.0
C406 C 0.53973 0.09849 0.11406 0.0
C407 C 0.51681 0.04382 0.0591 0.0
C408 C 0.52435 0.04736 0.01261 0.0
C409 C 0.50029 0.02297 0.07259 0.0
C410 C 0.49058 1.01821 0.12027 0.0
C411 C 0.4807 0.02935 0.13924 0.0
C412 C 0.47181 0.02495 0.18439 0.0
C413 C 0.47257 1.00934 0.21081 0.0
C414 C 0.48215 0.99805 0.19209 0.0
C415 C 0.49109 1.0024 0.14698 0.0
H416 H 0.46568 1.00596 0.24576 0.0
H417 H 0.55282 0.04795 0.80837 0.0
H418 H 0.48576 0.55671 0.21973 0.0
H419 H 0.49944 0.53907 0.16819 0.0
H420 H 0.48861 0.49432 0.27659 0.0
H421 H 0.47543 0.5123 0.32899 0.0
H422 H 0.52933 0.50816 0.23528 0.0
H423 H 0.4525 0.48038 0.18126 0.0
H424 H 0.41947 0.48238 0.15269 0.0
H425 H 0.45777 0.51757 0.03331 0.0
H426 H 0.49115 0.51603 0.06149 0.0
H427 H 0.55221 0.44328 0.08768 0.0
H428 H 0.53215 0.45494 0.13998 0.0
H429 H 0.53648 0.49907 0.0355 0.0
H430 H 0.55583 0.48687 0.98298 0.0
H431 H 0.49722 0.48343 0.07677 0.0
H432 H 0.57429 0.51349 0.13096 0.0
H433 H 0.60824 0.51275 0.1582 0.0
H434 H 0.57087 0.47518 0.27596 0.0
H435 H 0.53656 0.47541 0.24899 0.0
C436 C 0.48633 0.54316 0.23285 0.0
C437 C 0.47946 0.53602 0.27881 0.0
C438 C 0.49399 0.53292 0.20303 0.0
C439 C 0.49491 0.51514 0.21808 0.0
C440 C 0.48803 0.50793 0.2639 0.0
C441 C 0.48029 0.51814 0.29378 0.0
C442 C 0.50351 0.50447 0.18634 0.0
C443 C 0.52202 0.50242 0.20095 0.0
C444 C 0.49449 0.49742 0.14089 0.0
C445 C 0.47439 0.49824 0.1237 0.0
C446 C 0.45393 0.48867 0.14908 0.0
C447 C 0.43514 0.4897 0.13293 0.0
C448 C 0.43654 0.50013 0.09127 0.0
C449 C 0.45672 0.50951 0.0656 0.0
C450 C 0.47557 0.50854 0.08162 0.0
C451 C 0.54839 0.45513 0.07572 0.0
C452 C 0.55534 0.46405 0.03125 0.0
C453 C 0.53715 0.46199 0.10575 0.0
C454 C 0.53307 0.47824 0.09227 0.0
C455 C 0.53934 0.48656 0.04701 0.0
C456 C 0.55037 0.47957 0.01692 0.0
C457 C 0.52312 0.48719 0.1256 0.0
C458 C 0.50442 0.48899 0.11125 0.0
C459 C 0.53211 0.49422 0.17112 0.0
C460 C 0.55279 0.49428 0.18771 0.0
C461 C 0.57327 0.50496 0.16251 0.0
C462 C 0.59258 0.50464 0.17791 0.0
C463 C 0.5917 0.49388 0.21873 0.0
C464 C 0.57152 0.48348 0.24431 0.0
C465 C 0.55214 0.4837 0.22899 0.0
H466 H 0.60667 0.49365 0.23059 0.0
H467 H 0.42197 0.50092 0.07883 0.0
H468 H 0.9335 0.44117 0.45913 0.0
H469 H 0.96593 0.45417 0.40535 0.0
H470 H 0.9992 0.51421 0.47691 0.0
H471 H 0.96728 0.50098 0.53192 0.0
H472 H 0.98694 0.50592 0.3594 0.0
H473 H 1.02763 0.50078 0.49841 0.0
H474 H 0.03058 0.47997 0.56264 0.0
H475 H 1.02686 0.43412 0.46426 0.0
H476 H 1.02352 0.45453 0.39952 0.0
H477 H 0.09072 0.56932 0.24578 0.0
H478 H 0.05999 0.55215 0.30133 0.0
H479 H 0.063 0.49503 0.29088 0.0
H480 H 0.09545 0.51283 0.23813 0.0
H481 H 0.05494 0.49829 0.37543 0.0
H482 H 1.01933 0.50238 0.23694 0.0
H483 H 1.01308 0.51864 0.16755 0.0
H484 H 1.00245 0.56028 0.25532 0.0
H485 H 1.00895 0.54447 0.32524 0.0
C486 C 0.94811 0.45686 0.46445 0.0
C487 C 0.9481 0.46986 0.50063 0.0
C488 C 0.96652 0.46436 0.43335 0.0
C489 C 0.9851 0.48513 0.43723 0.0
C490 C 0.98519 0.49807 0.47348 0.0
C491 C 0.967 0.49047 0.50502 0.0
C492 C 1.00374 0.4938 0.40187 0.0
C493 C 1.00197 0.50451 0.36308 0.0
C494 C 1.02281 0.49111 0.40546 0.0
C495 C 1.02502 0.47901 0.44428 0.0
C496 C 1.02717 0.48614 0.49056 0.0
C497 C 0.02899 0.47445 0.52703 0.0
C498 C 1.02883 0.45569 0.51756 0.0
C499 C 1.02693 0.44862 0.47156 0.0
C500 C 1.02509 0.46025 0.43499 0.0
C501 C 0.08535 0.55324 0.25566 0.0
C502 C 0.0961 0.54272 0.23707 0.0
C503 C 0.06722 0.5432 0.28708 0.0
C504 C 0.05854 0.52199 0.3 0.0
C505 C 0.06913 0.51134 0.28159 0.0
C506 C 0.08764 0.52154 0.25073 0.0
C507 C 0.03871 0.51122 0.33306 0.0
C508 C 0.04005 0.49988 0.37134 0.0
C509 C 1.01888 0.51286 0.32828 0.0
C510 C 1.01481 0.52235 0.28634 0.0
C511 C 1.0158 0.5151 0.24144 0.0
C512 C 1.0122 0.52422 0.20201 0.0
C513 C 1.00742 0.54051 0.20703 0.0
C514 C 1.00617 0.54767 0.25149 0.0
C515 C 1.00978 0.53862 0.29104 0.0
H516 H 1.00465 0.54756 0.17646 0.0
H517 H 0.03023 0.44666 0.54583 0.0
H518 H 0.53749 0.06919 0.38014 0.0
H519 H 0.52532 0.04051 0.43628 0.0
H520 H 0.59543 0.06344 0.47375 0.0
H521 H 0.60777 0.09216 0.41696 0.0
H522 H 0.57379 0.02208 0.47223 0.0
H523 H 0.55907 0.07246 0.54392 0.0
H524 H 0.54381 0.09645 0.55028 0.0
H525 H 0.47563 0.04375 0.53512 0.0
H526 H 0.49051 1.01945 0.52801 0.0
H527 H 0.50911 0.96751 0.70777 0.0
H528 H 0.52852 0.9983 0.656 0.0
H529 H 0.51911 0.95674 0.54062 0.0
H530 H 0.50045 0.92618 0.59286 0.0
H531 H 0.514 1.00996 0.58681 0.0
H532 H 0.55802 0.98161 0.45588 0.0
H533 H 0.57657 0.9602 0.45606 0.0
H534 H 0.59215 0.97342 0.60179 0.0
H535 H 0.574 0.99514 0.60234 0.0
C536 C 0.55038 0.06825 0.40041 0.0
C537 C 0.57366 0.08326 0.39417 0.0
C538 C 0.54336 0.05176 0.43269 0.0
C539 C 0.55934 0.04988 0.46032 0.0
C540 C 0.58266 0.06446 0.45319 0.0
C541 C 0.58973 0.08091 0.42054 0.0
C542 C 0.55163 0.03292 0.49681 0.0
C543 C 0.56071 1.01946 0.49724 0.0
C544 C 0.53497 0.02963 0.53059 0.0
C545 C 0.52593 0.04416 0.53503 0.0
C546 C 0.54084 0.066 0.54163 0.0
C547 C 0.53225 0.07965 0.54541 0.0
C548 C 0.50877 0.07164 0.543 0.0
C549 C 0.49382 0.04994 0.53692 0.0
C550 C 0.50232 0.03621 0.53306 0.0
C551 C 0.51176 0.9651 0.67158 0.0
C552 C 0.50362 0.94455 0.65441 0.0
C553 C 0.52266 0.98267 0.64182 0.0
C554 C 0.52558 0.98008 0.59409 0.0
C555 C 0.51766 0.95943 0.57725 0.0
C556 C 0.50696 0.94192 0.6071 0.0
C557 C 0.53573 0.99874 0.56159 0.0
C558 C 0.5271 1.01254 0.56189 0.0
C559 C 0.55321 1.00265 0.52933 0.0
C560 C 0.56445 0.98984 0.52921 0.0
C561 C 0.5655 0.98003 0.48791 0.0
C562 C 0.57593 0.96782 0.48789 0.0
C563 C 0.58547 0.9654 0.52893 0.0
C564 C 0.58468 0.97524 0.57005 0.0
C565 C 0.5743 0.98749 0.57025 0.0
H566 H 0.59352 0.95593 0.52886 0.0
H567 H 0.50216 0.08223 0.54594 0.0
H568 H 0.55782 0.50795 0.81857 0.0
H569 H 0.54404 0.52349 0.76295 0.0
H570 H 0.59962 0.53681 0.67084 0.0
H571 H 0.61531 0.52357 0.72908 0.0
H572 H 0.59244 0.56665 0.6603 0.0
H573 H 0.54076 0.49245 0.65727 0.0
H574 H 0.51465 0.45681 0.68823 0.0
H575 H 0.47065 0.47794 0.74099 0.0
H576 H 0.49665 0.51379 0.71089 0.0
H577 H 0.52198 0.56807 0.46361 0.0
H578 H 0.54354 0.55792 0.51627 0.0
H579 H 0.51562 0.57284 0.63507 0.0
H580 H 0.49485 0.58368 0.5827 0.0
H581 H 0.50954 0.52796 0.62555 0.0
H582 H 0.56489 0.60363 0.6248 0.0
H583 H 0.59102 0.63718 0.58532 0.0
H584 H 0.62799 0.60946 0.52776 0.0
H585 H 0.60182 0.57561 0.56632 0.0
C586 C 0.56773 0.51465 0.78734 0.0
C587 C 0.58798 0.51428 0.7793 0.0
C588 C 0.55935 0.52317 0.7546 0.0
C589 C 0.5702 0.5308 0.71148 0.0
C590 C 0.59061 0.53087 0.70342 0.0
C591 C 0.59945 0.52291 0.73687 0.0
C592 C 0.56018 0.53859 0.67522 0.0
C593 C 0.57435 0.55793 0.65242 0.0
C594 C 0.53652 0.52743 0.66416 0.0
C595 C 0.52076 0.50586 0.68215 0.0
C596 C 0.52558 0.48953 0.67572 0.0
C597 C 0.5108 0.46929 0.69309 0.0
C598 C 0.49103 0.46513 0.71665 0.0
C599 C 0.48598 0.48119 0.72277 0.0
C600 C 0.50072 0.50147 0.70552 0.0
C601 C 0.52094 0.56963 0.50096 0.0
C602 C 0.50663 0.57647 0.51916 0.0
C603 C 0.53314 0.56376 0.53098 0.0
C604 C 0.53104 0.56445 0.57965 0.0
C605 C 0.51744 0.57208 0.59771 0.0
C606 C 0.50565 0.57833 0.56781 0.0
C607 C 0.54172 0.55598 0.6119 0.0
C608 C 0.52763 0.53649 0.6336 0.0
C609 C 0.56544 0.56665 0.6208 0.0
C610 C 0.58124 0.58702 0.59798 0.0
C611 C 0.57844 0.60462 0.60332 0.0
C612 C 0.5933 0.6237 0.58121 0.0
C613 C 0.61111 0.62543 0.55393 0.0
C614 C 0.61416 0.60809 0.54883 0.0
C615 C 0.59933 0.58896 0.57083 0.0
H616 H 0.6226 0.64022 0.53684 0.0
H617 H 0.47961 0.44945 0.73009 0.0
H618 H 0.23109 0.59452 0.26226 0.0
H619 H 0.26681 0.59711 0.28934 0.0
H620 H 0.29004 0.60455 0.14717 0.0
H621 H 0.25468 0.60217 0.12038 0.0
H622 H 0.29448 0.57407 0.19294 0.0
H623 H 0.31361 0.64586 0.22078 0.0
H624 H 0.30797 0.67392 0.25363 0.0
H625 H 0.31012 0.65295 0.39226 0.0
H626 H 0.31542 0.62453 0.3602 0.0
H627 H 0.40549 0.59249 0.24263 0.0
H628 H 0.37441 0.59729 0.21346 0.0
H629 H 0.3542 0.59916 0.35502 0.0
H630 H 0.38554 0.59521 0.38382 0.0
H631 H 0.34878 0.62602 0.30775 0.0
H632 H 0.32715 0.5535 0.28296 0.0
H633 H 0.3314 0.52419 0.25295 0.0
H634 H 0.33199 0.54469 0.11252 0.0
H635 H 0.32809 0.57433 0.14176 0.0
C636 C 0.24405 0.5971 0.23706 0.0
C637 C 0.24014 0.5982 0.18928 0.0
C638 C 0.26442 0.59853 0.25245 0.0
C639 C 0.28119 0.601 0.22029 0.0
C640 C 0.27742 0.60257 0.17268 0.0
C641 C 0.25724 0.60134 0.15742 0.0
C642 C 0.30225 0.60108 0.23569 0.0
C643 C 0.30652 0.58563 0.21755 0.0
C644 C 0.31773 0.61578 0.26872 0.0
C645 C 0.31468 0.63293 0.28806 0.0
C646 C 0.31269 0.64711 0.25826 0.0
C647 C 0.30958 0.66311 0.27674 0.0
C648 C 0.30863 0.66518 0.32499 0.0
C649 C 0.31083 0.6513 0.35488 0.0
C650 C 0.3139 0.63526 0.33657 0.0
C651 C 0.39458 0.59427 0.26734 0.0
C652 C 0.39796 0.59344 0.31546 0.0
C653 C 0.37668 0.59682 0.25074 0.0
C654 C 0.36152 0.59821 0.28195 0.0
C655 C 0.36549 0.59813 0.33003 0.0
C656 C 0.38345 0.59581 0.34653 0.0
C657 C 0.34106 0.59895 0.26504 0.0
C658 C 0.33683 0.6145 0.28296 0.0
C659 C 0.3254 0.58415 0.23225 0.0
C660 C 0.32757 0.56626 0.21456 0.0
C661 C 0.32834 0.55184 0.24569 0.0
C662 C 0.33067 0.53516 0.22883 0.0
C663 C 0.33202 0.53261 0.18086 0.0
C664 C 0.33098 0.5467 0.14966 0.0
C665 C 0.3287 0.56344 0.16636 0.0
H666 H 0.33382 0.51969 0.16786 0.0
H667 H 0.30623 0.67758 0.33924 0.0
H668 H 0.6654 0.23114 0.296 0.0
H669 H 0.69506 0.26506 0.32706 0.0
H670 H 0.67552 0.24166 0.46713 0.0
H671 H 0.64541 0.20732 0.43573 0.0
H672 H 0.68564 0.28408 0.45595 0.0
H673 H 0.72012 0.24267 0.42162 0.0
H674 H 0.72861 0.22015 0.37182 0.0
H675 H 0.76185 0.27066 0.27307 0.0
H676 H 0.75317 0.29338 0.32188 0.0
H677 H 0.78627 0.36329 0.56646 0.0
H678 H 0.75486 0.32977 0.53787 0.0
H679 H 0.77726 0.3486 0.39649 0.0
H680 H 0.80896 0.38244 0.42505 0.0
H681 H 0.76524 0.30816 0.40927 0.0
H682 H 0.73068 0.34943 0.441 0.0
H683 H 0.72132 0.37214 0.48797 0.0
H684 H 0.68779 0.32257 0.58873 0.0
H685 H 0.69726 0.29965 0.5427 0.0
C686 C 0.66715 0.23323 0.33343 0.0
C687 C 0.65304 0.21652 0.36346 0.0
C688 C 0.68424 0.25265 0.35117 0.0
C689 C 0.68778 0.2559 0.39945 0.0
C690 C 0.67316 0.23953 0.42973 0.0
C691 C 0.656 0.21994 0.41186 0.0
C692 C 0.70735 0.27611 0.41765 0.0
C693 C 0.70308 0.2892 0.44639 0.0
C694 C 0.7301 0.28312 0.40413 0.0
C695 C 0.73583 0.26967 0.37525 0.0
C696 C 0.72912 0.24894 0.38915 0.0
C697 C 0.73397 0.23614 0.3611 0.0
C698 C 0.74572 0.24395 0.31926 0.0
C699 C 0.75273 0.26462 0.30547 0.0
C700 C 0.74786 0.27748 0.33333 0.0
C701 C 0.78444 0.3605 0.52917 0.0
C702 C 0.80006 0.37584 0.49806 0.0
C703 C 0.76641 0.34121 0.51285 0.0
C704 C 0.76331 0.33668 0.46489 0.0
C705 C 0.77917 0.3517 0.43367 0.0
C706 C 0.79734 0.37106 0.45005 0.0
C707 C 0.7436 0.31624 0.44766 0.0
C708 C 0.74784 0.30308 0.41902 0.0
C709 C 0.72081 0.30924 0.46105 0.0
C710 C 0.71488 0.32289 0.48862 0.0
C711 C 0.72145 0.34342 0.47335 0.0
C712 C 0.71611 0.35633 0.49978 0.0
C713 C 0.70403 0.34882 0.54137 0.0
C714 C 0.69719 0.32837 0.55654 0.0
C715 C 0.70252 0.31541 0.53027 0.0
H716 H 0.69992 0.35885 0.5618 0.0
H717 H 0.74944 0.23401 0.29757 0.0
H718 H 0.40841 0.78481 0.64481 0.0
H719 H 0.40909 0.75337 0.61923 0.0
H720 H 0.48241 0.79007 0.61039 0.0
H721 H 0.48178 0.82173 0.63536 0.0
H722 H 0.46606 0.76267 0.54043 0.0
H723 H 0.45426 0.75793 0.70541 0.0
H724 H 0.43531 0.7581 0.77838 0.0
H725 H 0.37301 0.70394 0.7312 0.0
H726 H 0.39145 0.7037 0.65749 0.0
H727 H 0.4815 0.67365 0.53663 0.0
H728 H 0.48247 0.70583 0.56353 0.0
H729 H 0.40901 0.67269 0.56264 0.0
H730 H 0.40793 0.64045 0.53625 0.0
H731 H 0.42668 0.69858 0.6393 0.0
H732 H 0.43835 0.70434 0.4734 0.0
H733 H 0.4573 0.70447 0.40019 0.0
H734 H 0.52034 0.75681 0.45043 0.0
H735 H 0.50183 0.75678 0.52428 0.0
C736 C 0.42469 0.78626 0.63708 0.0
C737 C 0.44506 0.80582 0.64252 0.0
C738 C 0.42507 0.7682 0.62261 0.0
C739 C 0.44585 0.76911 0.6139 0.0
C740 C 0.46615 0.78884 0.61711 0.0
C741 C 0.46576 0.80699 0.63121 0.0
C742 C 0.44639 0.74941 0.60281 0.0
C743 C 0.45772 0.74879 0.5625 0.0
C744 C 0.43523 0.73104 0.63104 0.0
C745 C 0.42419 0.73092 0.67571 0.0
C746 C 0.43647 0.74613 0.71045 0.0
C747 C 0.42582 0.74625 0.75195 0.0
C748 C 0.40295 0.73107 0.75937 0.0
C749 C 0.39071 0.7157 0.72537 0.0
C750 C 0.40125 0.71557 0.68371 0.0
C751 C 0.46555 0.67309 0.54301 0.0
C752 C 0.44464 0.65443 0.53407 0.0
C753 C 0.46612 0.69158 0.55798 0.0
C754 C 0.44581 0.69184 0.56454 0.0
C755 C 0.42492 0.67298 0.55767 0.0
C756 C 0.42434 0.65455 0.54236 0.0
C757 C 0.44625 0.71186 0.5769 0.0
C758 C 0.4351 0.71252 0.61743 0.0
C759 C 0.45764 0.73028 0.54901 0.0
C760 C 0.46877 0.7304 0.50456 0.0
C761 C 0.4563 0.71576 0.46899 0.0
C762 C 0.46696 0.71584 0.42735 0.0
C763 C 0.49003 0.7306 0.42071 0.0
C764 C 0.50248 0.74536 0.45566 0.0
C765 C 0.49192 0.74533 0.4974 0.0
H766 H 0.49825 0.73064 0.38845 0.0
H767 H 0.39472 0.73121 0.79148 0.0
H768 H 0.65022 0.41463 0.87299 0.0
H769 H 0.68087 0.40923 0.84434 0.0
H770 H 0.70515 0.46438 0.75704 0.0
H771 H 0.6738 0.4689 0.78377 0.0
H772 H 0.71266 0.43835 0.71352 0.0
H773 H 0.72739 0.46446 0.8727 0.0
H774 H 0.71733 0.46254 0.95584 0.0
H775 H 0.71437 0.40288 0.96778 0.0
H776 H 0.7241 0.40432 0.88449 0.0
H777 H 0.83722 0.46978 0.76369 0.0
H778 H 0.80097 0.46475 0.79337 0.0
H779 H 0.76413 0.41103 0.70175 0.0
H780 H 0.80028 0.41636 0.67155 0.0
H781 H 0.76231 0.4345 0.83541 0.0
H782 H 0.71937 0.41254 0.6543 0.0
H783 H 0.7306 0.41682 0.57149 0.0
H784 H 0.79319 0.47395 0.60472 0.0
H785 H 0.78216 0.47018 0.68751 0.0
C786 C 0.6618 0.4252 0.84676 0.0
C787 C 0.65981 0.44226 0.83078 0.0
C788 C 0.67952 0.42231 0.83078 0.0
C789 C 0.69595 0.43678 0.79942 0.0
C790 C 0.69296 0.45303 0.78136 0.0
C791 C 0.67502 0.45564 0.79663 0.0
C792 C 0.71694 0.43594 0.78734 0.0
C793 C 0.72335 0.43734 0.7403 0.0
C794 C 0.73134 0.43495 0.82196 0.0
C795 C 0.72635 0.43445 0.87237 0.0
C796 C 0.72459 0.45094 0.89308 0.0
C797 C 0.7189 0.44991 0.94019 0.0
C798 C 0.71517 0.43257 0.96704 0.0
C799 C 0.71723 0.41628 0.9469 0.0
C800 C 0.72286 0.4172 0.89977 0.0
C801 C 0.82134 0.4566 0.75087 0.0
C802 C 0.82155 0.44347 0.71536 0.0
C803 C 0.80062 0.45372 0.76775 0.0
C804 C 0.77969 0.4377 0.74934 0.0
C805 C 0.77996 0.4237 0.7161 0.0
C806 C 0.80064 0.42664 0.69909 0.0
C807 C 0.75786 0.43682 0.76171 0.0
C808 C 0.7514 0.43521 0.80871 0.0
C809 C 0.74363 0.43806 0.72715 0.0
C810 C 0.75001 0.44095 0.67714 0.0
C811 C 0.73545 0.42609 0.64385 0.0
C812 C 0.74179 0.42842 0.59693 0.0
C813 C 0.76262 0.44562 0.58288 0.0
C814 C 0.77708 0.46061 0.61565 0.0
C815 C 0.77079 0.45839 0.66257 0.0
H816 H 0.76753 0.44734 0.54657 0.0
H817 H 0.71071 0.43177 1.00347 0.0
H818 H 0.41584 0.80849 0.82717 0.0
H819 H 0.38716 0.77383 0.85646 0.0
H820 H 0.3578 0.80323 0.93881 0.0
H821 H 0.3881 0.83815 0.91307 0.0
H822 H 0.35123 0.77176 0.98371 0.0
H823 H 0.33789 0.77866 0.82224 0.0
H824 H 0.34836 0.78583 0.73926 0.0
H825 H 0.35917 0.73313 0.73385 0.0
H826 H 0.34926 0.72591 0.81714 0.0
H827 H 0.23797 0.68166 0.9901 0.0
H828 H 0.27044 0.71558 0.9651 0.0
H829 H 0.30883 0.68498 0.93608 0.0
H830 H 0.27654 0.65104 0.96206 0.0
H831 H 0.31058 0.71585 0.86399 0.0
H832 H 0.32193 0.70952 0.02866 0.0
H833 H 0.30983 0.70342 0.11088 0.0
H834 H 0.29931 0.75633 0.10712 0.0
H835 H 0.311 0.76253 0.02459 0.0
C836 C 0.40364 0.8076 0.85253 0.0
C837 C 0.40409 0.82608 0.86743 0.0
C838 C 0.3869 0.78767 0.86869 0.0
C839 C 0.36947 0.78556 0.89848 0.0
C840 C 0.37072 0.80416 0.91543 0.0
C841 C 0.38802 0.82417 0.9006 0.0
C842 C 0.34961 0.76412 0.9106 0.0
C843 C 0.34228 0.75973 0.95721 0.0
C844 C 0.33774 0.748 0.87651 0.0
C845 C 0.34301 0.75185 0.82605 0.0
C846 C 0.34257 0.76863 0.8034 0.0
C847 C 0.34847 0.77274 0.75634 0.0
C848 C 0.35453 0.75999 0.73137 0.0
C849 C 0.35458 0.74303 0.75333 0.0
C850 C 0.34881 0.73892 0.80046 0.0
C851 C 0.25319 0.68208 0.97773 0.0
C852 C 0.25462 0.66361 0.97795 0.0
C853 C 0.27179 0.70151 0.96368 0.0
C854 C 0.29213 0.70288 0.9488 0.0
C855 C 0.29333 0.68433 0.94735 0.0
C856 C 0.27489 0.66496 0.96231 0.0
C857 C 0.31239 0.7238 0.93668 0.0
C858 C 0.31968 0.72801 0.89018 0.0
C859 C 0.32388 0.73991 0.97057 0.0
C860 C 0.31712 0.73635 0.02032 0.0
C861 C 0.31685 0.71974 0.04524 0.0
C862 C 0.31009 0.71628 0.09192 0.0
C863 C 0.30374 0.72944 0.11418 0.0
C864 C 0.3042 0.74613 0.08982 0.0
C865 C 0.3109 0.74963 0.04311 0.0
H866 H 0.29852 0.72674 0.15032 0.0
H867 H 0.35913 0.76321 0.69496 0.0
H868 H 0.64843 0.40137 0.02019 0.0
H869 H 0.65047 0.37097 0.04851 0.0
H870 H 0.57706 0.33326 0.04836 0.0
H871 H 0.57486 0.36384 0.02344 0.0
H872 H 0.59144 0.32304 0.12008 0.0
H873 H 0.6135 0.33213 0.95799 0.0
H874 H 0.6369 0.35257 0.89094 0.0
H875 H 0.697 0.36069 0.95939 0.0
H876 H 0.67401 0.3406 0.02722 0.0
H877 H 0.57723 0.22066 0.12544 0.0
H878 H 0.57801 0.25237 0.09628 0.0
H879 H 0.65094 0.28832 0.1148 0.0
H880 H 0.65034 0.2566 0.14312 0.0
H881 H 0.63844 0.30003 0.03495 0.0
H882 H 0.61647 0.29065 0.19583 0.0
H883 H 0.59351 0.27114 0.26408 0.0
H884 H 0.53336 0.26393 0.19769 0.0
H885 H 0.55592 0.28314 0.12871 0.0
C886 C 0.63268 0.38675 0.02702 0.0
C887 C 0.61146 0.38518 0.01878 0.0
C888 C 0.63388 0.36919 0.04259 0.0
C889 C 0.61392 0.34947 0.04954 0.0
C890 C 0.59277 0.34811 0.04294 0.0
C891 C 0.59155 0.36568 0.02806 0.0
C892 C 0.6148 0.33014 0.06319 0.0
C893 C 0.6015 0.31793 0.10092 0.0
C894 C 0.62834 0.32353 0.03924 0.0
C895 C 0.64206 0.33503 0.99786 0.0
C896 C 0.63172 0.33834 0.95881 0.0
C897 C 0.64491 0.34988 0.92069 0.0
C898 C 0.66843 0.35799 0.92098 0.0
C899 C 0.67879 0.35445 0.95927 0.0
C900 C 0.66569 0.34298 0.99755 0.0
C901 C 0.5935 0.23518 0.12241 0.0
C902 C 0.61369 0.23602 0.13702 0.0
C903 C 0.59391 0.25341 0.10612 0.0
C904 C 0.6145 0.27293 0.10398 0.0
C905 C 0.63481 0.27356 0.1163 0.0
C906 C 0.63441 0.25538 0.13279 0.0
C907 C 0.61475 0.29284 0.09116 0.0
C908 C 0.62832 0.30516 0.05384 0.0
C909 C 0.60143 0.29957 0.11537 0.0
C910 C 0.58785 0.28815 0.15692 0.0
C911 C 0.59832 0.28477 0.19564 0.0
C912 C 0.58538 0.27378 0.23448 0.0
C913 C 0.56198 0.26626 0.23517 0.0
C914 C 0.55148 0.26975 0.19707 0.0
C915 C 0.56434 0.28069 0.15811 0.0
H916 H 0.55199 0.25776 0.26527 0.0
H917 H 0.67863 0.36698 0.89152 0.0
loop_
_geom_bond_atom_site_label_1
_geom_bond_atom_site_label_2
_geom_bond_distance
_geom_bond_site_symmetry_2
_ccdc_geom_bond_type
C0 C1 1.443 . S
C0 N4 1.376 . S
C0 C38 1.389 . S
C1 C0 1.443 . S
C1 C2 1.340 . S
C1 H41 0.951 . S
C2 C1 1.340 . S
C2 C3 1.439 . S
C2 H42 0.950 . S
C3 C2 1.439 . S
C3 N4 1.374 . S
C3 C37 1.395 . S
N4 C0 1.376 . S
N4 C3 1.374 . S
N4 Co5 2.008 . S
Co5 N4 2.008 . S
Co5 N6 1.995 . S
Co5 N11 2.008 . S
Co5 N16 1.995 . S
Co5 N21 2.282 . S
Co5 N27 2.282 . S
N6 Co5 1.995 . S
N6 C7 1.376 . S
N6 C10 1.383 . S
C7 N6 1.376 . S
C7 C8 1.446 . S
C7 C37 1.391 . S
C8 C7 1.446 . S
C8 C9 1.339 . S
C8 H43 0.949 . S
C9 C8 1.339 . S
C9 C10 1.439 . S
C9 H44 0.950 . S
C10 N6 1.383 . S
C10 C9 1.439 . S
C10 C39 1.392 . S
N11 Co5 2.008 . S
N11 C12 1.376 . S
N11 C15 1.374 . S
C12 N11 1.376 . S
C12 C13 1.443 . S
C12 C39 1.389 . S
C13 C12 1.443 . S
C13 C14 1.340 . S
C13 H45 0.951 1_554 S
C14 C13 1.340 . S
C14 C15 1.439 . S
C14 H46 0.951 . S
C15 N11 1.374 . S
C15 C14 1.439 . S
C15 C40 1.395 . S
N16 Co5 1.995 . S
N16 C17 1.376 . S
N16 C20 1.383 . S
C17 N16 1.376 . S
C17 C18 1.446 . S
C17 C40 1.391 . S
C18 C17 1.446 . S
C18 C19 1.339 . S
C18 H47 0.949 . S
C19 C18 1.339 . S
C19 C20 1.439 . S
C19 H48 0.950 . S
C20 N16 1.383 . S
C20 C19 1.439 . S
C20 C38 1.392 . S
N21 Co5 2.282 . S
N21 C24 1.332 . S
N21 C26 1.332 . S
C22 C23 1.386 . S
C22 C25 1.388 . S
C23 C22 1.386 . S
C23 C24 1.382 . S
C23 H49 0.950 . S
C24 N21 1.332 . S
C24 C23 1.382 . S
C24 H35 0.952 . S
C25 C22 1.388 . S
C25 C26 1.382 . S
C25 H50 0.950 . S
C26 N21 1.332 . S
C26 C25 1.382 . S
C26 H36 0.948 . S
N27 Co5 2.282 . S
N27 C31 1.332 . S
N27 C32 1.332 . S
C28 C29 1.388 . S
C28 C32 1.382 . S
C28 H51 0.950 1_554 S
C29 C28 1.388 . S
C29 C30 1.386 . S
C30 C29 1.386 . S
C30 C31 1.382 . S
C30 H52 0.950 . S
C31 N27 1.332 . S
C31 C30 1.382 . S
C31 H33 0.952 . S
C32 N27 1.332 . S
C32 C28 1.382 . S
C32 H34 0.948 . S
H33 C31 0.952 . S
H34 C32 0.948 . S
H35 C24 0.952 . S
H36 C26 0.948 . S
C37 C3 1.395 . S
C37 C7 1.391 . S
C38 C0 1.389 . S
C38 C20 1.392 . S
C39 C10 1.392 . S
C39 C12 1.389 . S
C40 C15 1.395 . S
C40 C17 1.391 . S
H41 C1 0.951 . S
H42 C2 0.950 . S
H43 C8 0.949 . S
H44 C9 0.950 . S
H45 C13 0.951 1_556 S
H46 C14 0.951 . S
H47 C18 0.949 . S
H48 C19 0.950 . S
H49 C23 0.950 . S
H50 C25 0.950 . S
H51 C28 0.950 1_556 S
H52 C30 0.950 . S
C53 C54 1.443 . S
C53 N57 1.376 . S
C53 C91 1.389 . S
C54 C53 1.443 . S
C54 C55 1.340 . S
C54 H94 0.951 . S
C55 C54 1.340 . S
C55 C56 1.439 . S
C55 H95 0.950 . S
C56 C55 1.439 . S
C56 N57 1.374 . S
C56 C90 1.395 . S
N57 C53 1.376 . S
N57 C56 1.374 . S
N57 Co58 2.008 . S
Co58 N57 2.008 . S
Co58 N59 1.995 . S
Co58 N64 2.008 . S
Co58 N69 1.995 . S
Co58 N74 2.282 . S
Co58 N80 2.282 . S
N59 Co58 1.995 . S
N59 C60 1.376 . S
N59 C63 1.383 . S
C60 N59 1.376 . S
C60 C61 1.446 . S
C60 C90 1.391 . S
C61 C60 1.446 . S
C61 C62 1.339 . S
C61 H96 0.949 . S
C62 C61 1.339 . S
C62 C63 1.439 . S
C62 H97 0.950 . S
C63 N59 1.383 . S
C63 C62 1.439 . S
C63 C92 1.392 . S
N64 Co58 2.008 . S
N64 C65 1.376 . S
N64 C68 1.374 . S
C65 N64 1.376 . S
C65 C66 1.443 . S
C65 C92 1.389 . S
C66 C65 1.443 . S
C66 C67 1.340 . S
C66 H98 0.951 . S
C67 C66 1.340 . S
C67 C68 1.439 . S
C67 H99 0.950 . S
C68 N64 1.374 . S
C68 C67 1.439 . S
C68 C93 1.395 . S
N69 Co58 1.995 . S
N69 C70 1.376 . S
N69 C73 1.383 . S
C70 N69 1.376 . S
C70 C71 1.446 . S
C70 C93 1.391 . S
C71 C70 1.446 . S
C71 C72 1.339 . S
C71 H100 0.949 . S
C72 C71 1.339 . S
C72 C73 1.439 . S
C72 H101 0.950 . S
C73 N69 1.383 . S
C73 C72 1.439 . S
C73 C91 1.392 . S
N74 Co58 2.282 . S
N74 C77 1.332 . S
N74 C79 1.332 . S
C75 C76 1.386 . S
C75 C78 1.388 . S
C76 C75 1.386 . S
C76 C77 1.382 . S
C76 H102 0.950 . S
C77 N74 1.332 . S
C77 C76 1.382 . S
C77 H88 0.952 . S
C78 C75 1.388 . S
C78 C79 1.382 . S
C78 H103 0.950 . S
C79 N74 1.332 . S
C79 C78 1.382 . S
C79 H89 0.948 . S
N80 Co58 2.282 . S
N80 C84 1.332 . S
N80 C85 1.332 . S
C81 C82 1.388 . S
C81 C85 1.382 . S
C81 H104 0.950 . S
C82 C81 1.388 . S
C82 C83 1.386 . S
C83 C82 1.386 . S
C83 C84 1.382 . S
C83 H105 0.950 . S
C84 N80 1.332 . S
C84 C83 1.382 . S
C84 H86 0.952 . S
C85 N80 1.332 . S
C85 C81 1.382 . S
C85 H87 0.948 . S
H86 C84 0.952 . S
H87 C85 0.948 . S
H88 C77 0.952 . S
H89 C79 0.948 . S
C90 C56 1.395 . S
C90 C60 1.391 . S
C91 C53 1.389 . S
C91 C73 1.392 . S
C92 C63 1.392 . S
C92 C65 1.389 . S
C93 C68 1.395 . S
C93 C70 1.391 . S
H94 C54 0.951 . S
H95 C55 0.950 . S
H96 C61 0.949 . S
H97 C62 0.950 . S
H98 C66 0.951 . S
H99 C67 0.950 . S
H100 C71 0.949 . S
H101 C72 0.950 . S
H102 C76 0.950 . S
H103 C78 0.950 . S
H104 C81 0.950 . S
H105 C83 0.950 . S
C106 C107 1.443 . S
C106 N110 1.376 . S
C106 C144 1.389 . S
C107 C106 1.443 . S
C107 C108 1.340 . S
C107 H147 0.951 . S
C108 C107 1.340 . S
C108 C109 1.439 . S
C108 H148 0.950 . S
C109 C108 1.439 . S
C109 N110 1.374 . S
C109 C143 1.395 . S
N110 C106 1.376 . S
N110 C109 1.374 . S
N110 Co111 2.008 . S
Co111 N110 2.008 . S
Co111 N112 1.995 . S
Co111 N117 2.008 . S
Co111 N122 1.995 . S
Co111 N127 2.282 . S
Co111 N133 2.282 . S
N112 Co111 1.995 . S
N112 C113 1.376 . S
N112 C116 1.383 . S
C113 N112 1.376 . S
C113 C114 1.446 . S
C113 C143 1.391 . S
C114 C113 1.446 . S
C114 C115 1.339 . S
C114 H149 0.949 . S
C115 C114 1.339 . S
C115 C116 1.439 . S
C115 H150 0.950 . S
C116 N112 1.383 . S
C116 C115 1.439 . S
C116 C145 1.392 . S
N117 Co111 2.008 . S
N117 C118 1.376 . S
N117 C121 1.374 . S
C118 N117 1.376 . S
C118 C119 1.443 . S
C118 C145 1.389 . S
C119 C118 1.443 . S
C119 C120 1.340 . S
C119 H151 0.951 . S
C120 C119 1.340 . S
C120 C121 1.439 . S
C120 H152 0.950 . S
C121 N117 1.374 . S
C121 C120 1.439 . S
C121 C146 1.395 . S
N122 Co111 1.995 . S
N122 C123 1.376 . S
N122 C126 1.383 . S
C123 N122 1.376 . S
C123 C124 1.446 . S
C123 C146 1.391 . S
C124 C123 1.446 . S
C124 C125 1.339 . S
C124 H153 0.949 . S
C125 C124 1.339 . S
C125 C126 1.439 . S
C125 H154 0.950 . S
C126 N122 1.383 . S
C126 C125 1.439 . S
C126 C144 1.392 . S
N127 Co111 2.282 . S
N127 C130 1.332 . S
N127 C132 1.332 . S
C128 C129 1.386 . S
C128 C131 1.388 . S
C129 C128 1.386 . S
C129 C130 1.382 . S
C129 H155 0.950 . S
C130 N127 1.332 . S
C130 C129 1.382 . S
C130 H141 0.952 . S
C131 C128 1.388 . S
C131 C132 1.382 . S
C131 H156 0.950 . S
C132 N127 1.332 . S
C132 C131 1.382 . S
C132 H142 0.948 . S
N133 Co111 2.282 . S
N133 C137 1.332 . S
N133 C138 1.332 . S
C134 C135 1.388 . S
C134 C138 1.382 . S
C134 H157 0.950 . S
C135 C134 1.388 . S
C135 C136 1.386 . S
C136 C135 1.386 . S
C136 C137 1.382 . S
C136 H158 0.950 . S
C137 N133 1.332 . S
C137 C136 1.382 . S
C137 H139 0.952 . S
C138 N133 1.332 . S
C138 C134 1.382 . S
C138 H140 0.948 . S
H139 C137 0.952 . S
H140 C138 0.948 . S
H141 C130 0.952 . S
H142 C132 0.948 . S
C143 C109 1.395 . S
C143 C113 1.391 . S
C144 C106 1.389 . S
C144 C126 1.392 . S
C145 C116 1.392 . S
C145 C118 1.389 . S
C146 C121 1.395 . S
C146 C123 1.391 . S
H147 C107 0.951 . S
H148 C108 0.950 . S
H149 C114 0.949 . S
H150 C115 0.950 . S
H151 C119 0.951 . S
H152 C120 0.950 . S
H153 C124 0.949 . S
H154 C125 0.950 . S
H155 C129 0.950 . S
H156 C131 0.950 . S
H157 C134 0.950 . S
H158 C136 0.950 . S
C159 C160 1.443 . S
C159 N163 1.376 . S
C159 C197 1.389 . S
C160 C159 1.443 . S
C160 C161 1.340 . S
C160 H200 0.951 . S
C161 C160 1.340 . S
C161 C162 1.439 . S
C161 H201 0.950 . S
C162 C161 1.439 . S
C162 N163 1.374 . S
C162 C196 1.395 . S
N163 C159 1.376 . S
N163 C162 1.374 . S
N163 Co164 2.008 . S
Co164 N163 2.008 . S
Co164 N165 1.995 . S
Co164 N170 2.008 . S
Co164 N175 1.995 . S
Co164 N180 2.282 . S
Co164 N186 2.282 . S
N165 Co164 1.995 . S
N165 C166 1.376 . S
N165 C169 1.383 . S
C166 N165 1.376 . S
C166 C167 1.446 . S
C166 C196 1.391 . S
C167 C166 1.446 . S
C167 C168 1.339 . S
C167 H202 0.949 . S
C168 C167 1.339 . S
C168 C169 1.439 . S
C168 H203 0.950 . S
C169 N165 1.383 . S
C169 C168 1.439 . S
C169 C198 1.392 . S
N170 Co164 2.008 . S
N170 C171 1.376 . S
N170 C174 1.374 . S
C171 N170 1.376 . S
C171 C172 1.443 . S
C171 C198 1.389 . S
C172 C171 1.443 . S
C172 C173 1.340 . S
C172 H204 0.951 . S
C173 C172 1.340 . S
C173 C174 1.439 . S
C173 H205 0.950 . S
C174 N170 1.374 . S
C174 C173 1.439 . S
C174 C199 1.395 . S
N175 Co164 1.995 . S
N175 C176 1.376 . S
N175 C179 1.383 . S
C176 N175 1.376 . S
C176 C177 1.446 . S
C176 C199 1.391 . S
C177 C176 1.446 . S
C177 C178 1.339 . S
C177 H206 0.949 . S
C178 C177 1.339 . S
C178 C179 1.439 . S
C178 H207 0.950 . S
C179 N175 1.383 . S
C179 C178 1.439 . S
C179 C197 1.392 . S
N180 Co164 2.282 . S
N180 C183 1.332 . S
N180 C185 1.332 . S
C181 C182 1.386 . S
C181 C184 1.388 . S
C182 C181 1.386 . S
C182 C183 1.382 . S
C182 H208 0.950 . S
C183 N180 1.332 . S
C183 C182 1.382 . S
C183 H194 0.952 . S
C184 C181 1.388 . S
C184 C185 1.382 . S
C184 H209 0.950 . S
C185 N180 1.332 . S
C185 C184 1.382 . S
C185 H195 0.948 . S
N186 Co164 2.282 . S
N186 C190 1.332 . S
N186 C191 1.332 . S
C187 C188 1.388 . S
C187 C191 1.382 . S
C187 H210 0.950 . S
C188 C187 1.388 . S
C188 C189 1.386 . S
C189 C188 1.386 . S
C189 C190 1.382 . S
C189 H211 0.950 . S
C190 N186 1.332 . S
C190 C189 1.382 . S
C190 H192 0.952 . S
C191 N186 1.332 . S
C191 C187 1.382 . S
C191 H193 0.948 . S
H192 C190 0.952 . S
H193 C191 0.948 . S
H194 C183 0.952 . S
H195 C185 0.948 . S
C196 C162 1.395 . S
C196 C166 1.391 . S
C197 C159 1.389 . S
C197 C179 1.392 . S
C198 C169 1.392 . S
C198 C171 1.389 . S
C199 C174 1.395 . S
C199 C176 1.391 . S
H200 C160 0.951 . S
H201 C161 0.950 . S
H202 C167 0.949 . S
H203 C168 0.950 . S
H204 C172 0.951 . S
H205 C173 0.950 . S
H206 C177 0.949 . S
H207 C178 0.950 . S
H208 C182 0.950 . S
H209 C184 0.950 . S
H210 C187 0.950 . S
H211 C189 0.950 . S
C212 C213 1.443 . S
C212 N216 1.376 . S
C212 C250 1.389 . S
C213 C212 1.443 . S
C213 C214 1.340 . S
C213 H253 0.951 . S
C214 C213 1.340 . S
C214 C215 1.439 . S
C214 H254 0.950 . S
C215 C214 1.439 . S
C215 N216 1.374 . S
C215 C249 1.395 . S
N216 C212 1.376 . S
N216 C215 1.374 . S
N216 Co217 2.008 . S
Co217 N216 2.008 . S
Co217 N218 1.995 . S
Co217 N223 2.008 . S
Co217 N228 1.995 . S
Co217 N233 2.282 . S
Co217 N239 2.282 . S
N218 Co217 1.995 . S
N218 C219 1.376 . S
N218 C222 1.383 . S
C219 N218 1.376 . S
C219 C220 1.446 . S
C219 C249 1.391 . S
C220 C219 1.446 . S
C220 C221 1.339 . S
C220 H255 0.949 . S
C221 C220 1.339 . S
C221 C222 1.439 . S
C221 H256 0.950 . S
C222 N218 1.383 . S
C222 C221 1.439 . S
C222 C251 1.392 . S
N223 Co217 2.008 . S
N223 C224 1.376 . S
N223 C227 1.374 . S
C224 N223 1.376 . S
C224 C225 1.443 . S
C224 C251 1.389 . S
C225 C224 1.443 . S
C225 C226 1.340 . S
C225 H257 0.951 . S
C226 C225 1.340 . S
C226 C227 1.439 . S
C226 H258 0.950 . S
C227 N223 1.374 . S
C227 C226 1.439 . S
C227 C252 1.395 . S
N228 Co217 1.995 . S
N228 C229 1.376 . S
N228 C232 1.383 . S
C229 N228 1.376 . S
C229 C230 1.446 . S
C229 C252 1.391 . S
C230 C229 1.446 . S
C230 C231 1.339 . S
C230 H259 0.949 . S
C231 C230 1.339 . S
C231 C232 1.439 . S
C231 H260 0.950 . S
C232 N228 1.383 . S
C232 C231 1.439 . S
C232 C250 1.392 . S
N233 Co217 2.282 . S
N233 C236 1.332 . S
N233 C238 1.332 . S
C234 C235 1.386 . S
C234 C237 1.388 . S
C235 C234 1.386 . S
C235 C236 1.382 . S
C235 H261 0.950 . S
C236 N233 1.332 . S
C236 C235 1.382 . S
C236 H247 0.952 . S
C237 C234 1.388 . S
C237 C238 1.382 . S
C237 H262 0.950 . S
C238 N233 1.332 . S
C238 C237 1.382 . S
C238 H248 0.948 . S
N239 Co217 2.282 . S
N239 C243 1.332 . S
N239 C244 1.332 . S
C240 C241 1.388 . S
C240 C244 1.382 . S
C240 H263 0.950 . S
C241 C240 1.388 . S
C241 C242 1.386 . S
C242 C241 1.386 . S
C242 C243 1.382 . S
C242 H264 0.950 . S
C243 N239 1.332 . S
C243 C242 1.382 . S
C243 H245 0.952 . S
C244 N239 1.332 . S
C244 C240 1.382 . S
C244 H246 0.948 . S
H245 C243 0.952 . S
H246 C244 0.948 . S
H247 C236 0.952 . S
H248 C238 0.948 . S
C249 C215 1.395 . S
C249 C219 1.391 . S
C250 C212 1.389 . S
C250 C232 1.392 . S
C251 C222 1.392 . S
C251 C224 1.389 . S
C252 C227 1.395 . S
C252 C229 1.391 . S
H253 C213 0.951 . S
H254 C214 0.950 . S
H255 C220 0.949 . S
H256 C221 0.950 . S
H257 C225 0.951 . S
H258 C226 0.950 . S
H259 C230 0.949 . S
H260 C231 0.950 . S
H261 C235 0.950 . S
H262 C237 0.950 . S
H263 C240 0.950 . S
H264 C242 0.950 . S
C265 C266 1.443 . S
C265 N269 1.376 . S
C265 C303 1.389 . S
C266 C265 1.443 . S
C266 C267 1.340 . S
C266 H306 0.951 . S
C267 C266 1.340 . S
C267 C268 1.439 . S
C267 H307 0.950 . S
C268 C267 1.439 . S
C268 N269 1.374 . S
C268 C302 1.395 . S
N269 C265 1.376 . S
N269 C268 1.374 . S
N269 Co270 2.008 . S
Co270 N269 2.008 . S
Co270 N271 1.995 . S
Co270 N276 2.008 . S
Co270 N281 1.995 . S
Co270 N286 2.282 . S
Co270 N292 2.282 . S
N271 Co270 1.995 . S
N271 C272 1.376 . S
N271 C275 1.383 . S
C272 N271 1.376 . S
C272 C273 1.446 . S
C272 C302 1.391 . S
C273 C272 1.446 . S
C273 C274 1.339 . S
C273 H308 0.949 . S
C274 C273 1.339 . S
C274 C275 1.439 . S
C274 H309 0.950 . S
C275 N271 1.383 . S
C275 C274 1.439 . S
C275 C304 1.392 . S
N276 Co270 2.008 . S
N276 C277 1.376 . S
N276 C280 1.374 . S
C277 N276 1.376 . S
C277 C278 1.443 . S
C277 C304 1.389 . S
C278 C277 1.443 . S
C278 C279 1.340 . S
C278 H310 0.951 . S
C279 C278 1.340 . S
C279 C280 1.439 . S
C279 H311 0.950 . S
C280 N276 1.374 . S
C280 C279 1.439 . S
C280 C305 1.395 . S
N281 Co270 1.995 . S
N281 C282 1.376 . S
N281 C285 1.383 . S
C282 N281 1.376 . S
C282 C283 1.446 . S
C282 C305 1.391 . S
C283 C282 1.446 . S
C283 C284 1.339 . S
C283 H312 0.949 . S
C284 C283 1.339 . S
C284 C285 1.439 . S
C284 H313 0.950 . S
C285 N281 1.383 . S
C285 C284 1.439 . S
C285 C303 1.392 . S
N286 Co270 2.282 . S
N286 C289 1.332 . S
N286 C291 1.332 . S
C287 C288 1.386 . S
C287 C290 1.388 . S
C288 C287 1.386 . S
C288 C289 1.382 . S
C288 H314 0.950 . S
C289 N286 1.332 . S
C289 C288 1.382 . S
C289 H300 0.952 . S
C290 C287 1.388 . S
C290 C291 1.382 . S
C290 H315 0.950 . S
C291 N286 1.332 . S
C291 C290 1.382 . S
C291 H301 0.948 . S
N292 Co270 2.282 . S
N292 C296 1.332 . S
N292 C297 1.332 . S
C293 C294 1.388 . S
C293 C297 1.382 . S
C293 H316 0.950 . S
C294 C293 1.388 . S
C294 C295 1.386 . S
C295 C294 1.386 . S
C295 C296 1.382 . S
C295 H317 0.950 . S
C296 N292 1.332 . S
C296 C295 1.382 . S
C296 H298 0.952 . S
C297 N292 1.332 . S
C297 C293 1.382 . S
C297 H299 0.948 . S
H298 C296 0.952 . S
H299 C297 0.948 . S
H300 C289 0.952 . S
H301 C291 0.948 . S
C302 C268 1.395 . S
C302 C272 1.391 . S
C303 C265 1.389 . S
C303 C285 1.392 . S
C304 C275 1.392 . S
C304 C277 1.389 . S
C305 C280 1.395 . S
C305 C282 1.391 . S
H306 C266 0.951 . S
H307 C267 0.950 . S
H308 C273 0.949 . S
H309 C274 0.950 . S
H310 C278 0.951 . S
H311 C279 0.950 . S
H312 C283 0.949 . S
H313 C284 0.950 . S
H314 C288 0.950 . S
H315 C290 0.950 . S
H316 C293 0.950 . S
H317 C295 0.950 . S
H318 C336 0.951 1_554 S
H319 C338 0.951 . S
H320 C340 0.950 . S
H321 C341 0.950 . S
H322 C343 0.950 . S
H323 C346 0.950 . S
H324 C347 0.950 . S
H325 C349 0.950 . S
H326 C350 0.950 . S
H327 C351 0.951 . S
H328 C353 0.951 . S
H329 C355 0.950 . S
H330 C356 0.950 . S
H331 C358 0.950 . S
H332 C361 0.950 . S
H333 C362 0.950 . S
H334 C364 0.950 . S
H335 C365 0.950 . S
C336 H318 0.951 1_556 S
C336 C337 1.366 . S
C336 C338 1.388 . S
C337 C336 1.366 . S
C337 C341 1.385 . S
C338 H319 0.951 . S
C338 C336 1.388 . S
C338 C339 1.366 . S
C339 C338 1.366 . S
C339 C340 1.414 . S
C339 C342 1.499 . S
C340 H320 0.950 . S
C340 C339 1.414 . S
C340 C341 1.374 . S
C341 H321 0.950 . S
C341 C337 1.385 . S
C341 C340 1.374 . S
C342 C339 1.499 . S
C342 C343 1.373 . S
C342 C344 1.389 . S
C343 H322 0.950 . S
C343 C342 1.373 . S
C343 C359 1.377 . S
C344 C342 1.389 . S
C344 C345 1.524 1_455 S
C344 C358 1.377 1_455 S
C345 C344 1.524 1_655 S
C345 C346 1.397 1_655 S
C345 C350 1.363 . S
C346 H323 0.950 . S
C346 C345 1.397 1_455 S
C346 C347 1.334 1_456 S
C347 H324 0.950 . S
C347 C346 1.334 1_654 S
C347 C348 1.287 . S
C348 C347 1.287 . S
C348 C349 1.524 . S
C348 H367 0.913 . S
C349 H325 0.950 . S
C349 C348 1.524 . S
C349 C350 1.415 1_554 S
C350 H326 0.950 . S
C350 C345 1.363 . S
C350 C349 1.415 1_556 S
C351 H327 0.951 . S
C351 C352 1.366 . S
C351 C353 1.388 . S
C352 C351 1.366 . S
C352 C356 1.385 . S
C353 H328 0.951 . S
C353 C351 1.388 . S
C353 C354 1.366 . S
C354 C353 1.366 . S
C354 C355 1.414 . S
C354 C357 1.499 . S
C355 H329 0.950 . S
C355 C354 1.414 . S
C355 C356 1.374 . S
C356 H330 0.950 . S
C356 C352 1.385 . S
C356 C355 1.374 . S
C357 C354 1.499 . S
C357 C358 1.373 . S
C357 C359 1.389 1_655 S
C358 H331 0.950 . S
C358 C344 1.377 1_655 S
C358 C357 1.373 . S
C359 C343 1.377 . S
C359 C357 1.389 1_455 S
C359 C360 1.524 . S
C360 C359 1.524 . S
C360 C361 1.397 . S
C360 C365 1.363 . S
C361 H332 0.950 . S
C361 C360 1.397 . S
C361 C362 1.334 . S
C362 H333 0.950 . S
C362 C361 1.334 . S
C362 C363 1.287 . S
C363 C362 1.287 . S
C363 C364 1.524 . S
C363 H366 0.999 . S
C364 H334 0.950 . S
C364 C363 1.524 . S
C364 C365 1.415 . S
C365 H335 0.950 . S
C365 C360 1.363 . S
C365 C364 1.415 . S
H366 C363 0.999 . S
H367 C348 0.913 . S
H368 C386 0.951 . S
H369 C388 0.951 . S
H370 C390 0.950 1_554 S
H371 C391 0.950 . S
H372 C393 0.950 . S
H373 C396 0.950 1_565 S
H374 C397 0.950 . S
H375 C399 0.950 . S
H376 C400 0.950 . S
H377 C401 0.951 . S
H378 C403 0.951 . S
H379 C405 0.950 . S
H380 C406 0.950 . S
H381 C408 0.950 . S
H382 C411 0.950 . S
H383 C412 0.950 . S
H384 C414 0.950 . S
H385 C415 0.950 . S
C386 H368 0.951 . S
C386 C387 1.366 . S
C386 C388 1.388 . S
C387 C386 1.366 . S
C387 C391 1.385 . S
C388 H369 0.951 . S
C388 C386 1.388 . S
C388 C389 1.366 . S
C389 C388 1.366 . S
C389 C390 1.414 . S
C389 C392 1.499 1_556 S
C390 H370 0.950 1_556 S
C390 C389 1.414 . S
C390 C391 1.374 . S
C391 H371 0.950 . S
C391 C387 1.385 . S
C391 C390 1.374 . S
C392 C389 1.499 1_554 S
C392 C393 1.373 . S
C392 C394 1.389 1_564 S
C393 H372 0.950 . S
C393 C392 1.373 . S
C393 C409 1.377 1_565 S
C394 C392 1.389 1_546 S
C394 C395 1.524 . S
C394 C408 1.377 1_556 S
C395 C394 1.524 . S
C395 C396 1.397 . S
C395 C400 1.363 . S
C396 H373 0.950 1_545 S
C396 C395 1.397 . S
C396 C397 1.334 . S
C397 H374 0.950 . S
C397 C396 1.334 . S
C397 C398 1.287 . S
C398 C397 1.287 . S
C398 C399 1.524 . S
C398 H417 0.913 . S
C399 H375 0.950 . S
C399 C398 1.524 . S
C399 C400 1.415 . S
C400 H376 0.950 . S
C400 C395 1.363 . S
C400 C399 1.415 . S
C401 H377 0.951 . S
C401 C402 1.366 . S
C401 C403 1.388 . S
C402 C401 1.366 . S
C402 C406 1.385 . S
C403 H378 0.951 . S
C403 C401 1.388 . S
C403 C404 1.366 . S
C404 C403 1.366 . S
C404 C405 1.414 . S
C404 C407 1.499 . S
C405 H379 0.950 . S
C405 C404 1.414 . S
C405 C406 1.374 . S
C406 H380 0.950 . S
C406 C402 1.385 . S
C406 C405 1.374 . S
C407 C404 1.499 . S
C407 C408 1.373 . S
C407 C409 1.389 . S
C408 H381 0.950 . S
C408 C394 1.377 1_554 S
C408 C407 1.373 . S
C409 C393 1.377 1_545 S
C409 C407 1.389 . S
C409 C410 1.525 1_545 S
C410 C409 1.525 1_565 S
C410 C411 1.362 1_565 S
C410 C415 1.397 . S
C411 H382 0.950 . S
C411 C410 1.362 1_545 S
C411 C412 1.334 . S
C412 H383 0.950 . S
C412 C411 1.334 . S
C412 C413 1.287 1_545 S
C413 C412 1.287 1_565 S
C413 C414 1.524 . S
C413 H416 0.999 . S
C414 H384 0.950 . S
C414 C413 1.524 . S
C414 C415 1.415 . S
C415 H385 0.950 . S
C415 C410 1.397 . S
C415 C414 1.415 . S
H416 C413 0.999 . S
H417 C398 0.913 . S
H418 C436 0.951 . S
H419 C438 0.951 . S
H420 C440 0.950 . S
H421 C441 0.950 . S
H422 C443 0.950 . S
H423 C446 0.950 . S
H424 C447 0.950 . S
H425 C449 0.950 . S
H426 C450 0.950 . S
H427 C451 0.951 . S
H428 C453 0.951 . S
H429 C455 0.950 . S
H430 C456 0.950 . S
H431 C458 0.950 . S
H432 C461 0.950 . S
H433 C462 0.950 . S
H434 C464 0.950 . S
H435 C465 0.950 . S
C436 H418 0.951 . S
C436 C437 1.366 . S
C436 C438 1.388 . S
C437 C436 1.366 . S
C437 C441 1.385 . S
C438 H419 0.951 . S
C438 C436 1.388 . S
C438 C439 1.366 . S
C439 C438 1.366 . S
C439 C440 1.414 . S
C439 C442 1.499 . S
C440 H420 0.950 . S
C440 C439 1.414 . S
C440 C441 1.374 . S
C441 H421 0.950 . S
C441 C437 1.385 . S
C441 C440 1.374 . S
C442 C439 1.499 . S
C442 C443 1.373 . S
C442 C444 1.389 . S
C443 H422 0.950 . S
C443 C442 1.373 . S
C443 C459 1.377 . S
C444 C442 1.389 . S
C444 C445 1.524 . S
C444 C458 1.377 . S
C445 C444 1.524 . S
C445 C446 1.397 . S
C445 C450 1.363 . S
C446 H423 0.950 . S
C446 C445 1.397 . S
C446 C447 1.334 . S
C447 H424 0.950 . S
C447 C446 1.334 . S
C447 C448 1.287 . S
C448 C447 1.287 . S
C448 C449 1.524 . S
C448 H467 0.913 . S
C449 H425 0.950 . S
C449 C448 1.524 . S
C449 C450 1.415 . S
C450 H426 0.950 . S
C450 C445 1.363 . S
C450 C449 1.415 . S
C451 H427 0.951 . S
C451 C452 1.366 1_554 S
C451 C453 1.388 . S
C452 C451 1.366 1_556 S
C452 C456 1.385 . S
C453 H428 0.951 . S
C453 C451 1.388 . S
C453 C454 1.366 . S
C454 C453 1.366 . S
C454 C455 1.414 . S
C454 C457 1.499 . S
C455 H429 0.950 . S
C455 C454 1.414 . S
C455 C456 1.374 1_554 S
C456 H430 0.950 . S
C456 C452 1.385 . S
C456 C455 1.374 1_556 S
C457 C454 1.499 . S
C457 C458 1.373 . S
C457 C459 1.389 . S
C458 H431 0.950 . S
C458 C444 1.377 . S
C458 C457 1.373 . S
C459 C443 1.377 . S
C459 C457 1.389 . S
C459 C460 1.524 . S
C460 C459 1.524 . S
C460 C461 1.397 . S
C460 C465 1.363 . S
C461 H432 0.950 . S
C461 C460 1.397 . S
C461 C462 1.334 . S
C462 H433 0.950 . S
C462 C461 1.334 . S
C462 C463 1.287 . S
C463 C462 1.287 . S
C463 C464 1.524 . S
C463 H466 0.999 . S
C464 H434 0.950 . S
C464 C463 1.524 . S
C464 C465 1.415 . S
C465 H435 0.950 . S
C465 C460 1.363 . S
C465 C464 1.415 . S
H466 C463 0.999 . S
H467 C448 0.913 . S
H468 C486 0.951 . S
H469 C488 0.951 . S
H470 C490 0.950 . S
H471 C491 0.950 . S
H472 C493 0.950 . S
H473 C496 0.950 . S
H474 C497 0.950 . S
H475 C499 0.950 . S
H476 C500 0.950 . S
H477 C501 0.951 . S
H478 C503 0.951 . S
H479 C505 0.950 . S
H480 C506 0.950 . S
H481 C508 0.950 . S
H482 C511 0.950 . S
H483 C512 0.950 . S
H484 C514 0.950 . S
H485 C515 0.950 . S
C486 H468 0.951 . S
C486 C487 1.366 . S
C486 C488 1.388 . S
C487 C486 1.366 . S
C487 C491 1.385 . S
C488 H469 0.951 . S
C488 C486 1.388 . S
C488 C489 1.366 . S
C489 C488 1.366 . S
C489 C490 1.414 . S
C489 C492 1.499 . S
C490 H470 0.950 . S
C490 C489 1.414 . S
C490 C491 1.374 . S
C491 H471 0.950 . S
C491 C487 1.385 . S
C491 C490 1.374 . S
C492 C489 1.499 . S
C492 C493 1.373 . S
C492 C494 1.389 . S
C493 H472 0.950 . S
C493 C492 1.373 . S
C493 C509 1.377 . S
C494 C492 1.389 . S
C494 C495 1.524 . S
C494 C508 1.377 1_655 S
C495 C494 1.524 . S
C495 C496 1.397 . S
C495 C500 1.363 . S
C496 H473 0.950 . S
C496 C495 1.397 . S
C496 C497 1.334 . S
C497 H474 0.950 . S
C497 C496 1.334 . S
C497 C498 1.287 . S
C498 C497 1.287 . S
C498 C499 1.524 . S
C498 H517 0.913 . S
C499 H475 0.950 . S
C499 C498 1.524 . S
C499 C500 1.415 . S
C500 H476 0.950 . S
C500 C495 1.363 . S
C500 C499 1.415 . S
C501 H477 0.951 . S
C501 C502 1.366 . S
C501 C503 1.388 . S
C502 C501 1.366 . S
C502 C506 1.385 . S
C503 H478 0.951 . S
C503 C501 1.388 . S
C503 C504 1.366 . S
C504 C503 1.366 . S
C504 C505 1.414 . S
C504 C507 1.499 . S
C505 H479 0.950 . S
C505 C504 1.414 . S
C505 C506 1.374 . S
C506 H480 0.950 . S
C506 C502 1.385 . S
C506 C505 1.374 . S
C507 C504 1.499 . S
C507 C508 1.373 . S
C507 C509 1.389 1_455 S
C508 H481 0.950 . S
C508 C494 1.377 1_455 S
C508 C507 1.373 . S
C509 C493 1.377 . S
C509 C507 1.389 1_655 S
C509 C510 1.524 . S
C510 C509 1.524 . S
C510 C511 1.397 . S
C510 C515 1.363 . S
C511 H482 0.950 . S
C511 C510 1.397 . S
C511 C512 1.334 . S
C512 H483 0.950 . S
C512 C511 1.334 . S
C512 C513 1.287 . S
C513 C512 1.287 . S
C513 C514 1.524 . S
C513 H516 0.999 . S
C514 H484 0.950 . S
C514 C513 1.524 . S
C514 C515 1.415 . S
C515 H485 0.950 . S
C515 C510 1.363 . S
C515 C514 1.415 . S
H516 C513 0.999 . S
H517 C498 0.913 . S
H518 C536 0.951 . S
H519 C538 0.951 . S
H520 C540 0.950 . S
H521 C541 0.950 . S
H522 C543 0.951 . S
H523 C546 0.950 . S
H524 C547 0.950 . S
H525 C549 0.950 . S
H526 C550 0.950 1_565 S
H527 C551 0.951 . S
H528 C553 0.951 . S
H529 C555 0.950 . S
H530 C556 0.950 . S
H531 C558 0.950 . S
H532 C561 0.950 . S
H533 C562 0.950 . S
H534 C564 0.950 . S
H535 C565 0.950 . S
C536 H518 0.951 . S
C536 C537 1.366 . S
C536 C538 1.388 . S
C537 C536 1.366 . S
C537 C541 1.385 . S
C538 H519 0.951 . S
C538 C536 1.388 . S
C538 C539 1.366 . S
C539 C538 1.366 . S
C539 C540 1.414 . S
C539 C542 1.499 . S
C540 H520 0.950 . S
C540 C539 1.414 . S
C540 C541 1.374 . S
C541 H521 0.950 . S
C541 C537 1.385 . S
C541 C540 1.374 . S
C542 C539 1.499 . S
C542 C543 1.373 1_545 S
C542 C544 1.389 . S
C543 H522 0.951 . S
C543 C542 1.373 1_565 S
C543 C559 1.377 . S
C544 C542 1.389 . S
C544 C545 1.524 . S
C544 C558 1.377 1_545 S
C545 C544 1.524 . S
C545 C546 1.397 . S
C545 C550 1.363 . S
C546 H523 0.950 . S
C546 C545 1.397 . S
C546 C547 1.334 . S
C547 H524 0.950 . S
C547 C546 1.334 . S
C547 C548 1.287 . S
C548 C547 1.287 . S
C548 C549 1.524 . S
C548 H567 0.913 . S
C549 H525 0.950 . S
C549 C548 1.524 . S
C549 C550 1.415 . S
C550 H526 0.950 1_545 S
C550 C545 1.363 . S
C550 C549 1.415 . S
C551 H527 0.951 . S
C551 C552 1.366 . S
C551 C553 1.388 . S
C552 C551 1.366 . S
C552 C556 1.385 . S
C553 H528 0.951 . S
C553 C551 1.388 . S
C553 C554 1.366 . S
C554 C553 1.366 . S
C554 C555 1.414 . S
C554 C557 1.499 . S
C555 H529 0.950 . S
C555 C554 1.414 . S
C555 C556 1.374 . S
C556 H530 0.950 . S
C556 C552 1.385 . S
C556 C555 1.374 . S
C557 C554 1.499 . S
C557 C558 1.373 . S
C557 C559 1.389 . S
C558 H531 0.950 . S
C558 C544 1.377 1_565 S
C558 C557 1.373 . S
C559 C543 1.377 . S
C559 C557 1.389 . S
C559 C560 1.524 . S
C560 C559 1.524 . S
C560 C561 1.397 . S
C560 C565 1.363 . S
C561 H532 0.950 . S
C561 C560 1.397 . S
C561 C562 1.334 . S
C562 H533 0.950 . S
C562 C561 1.334 . S
C562 C563 1.287 . S
C563 C562 1.287 . S
C563 C564 1.524 . S
C563 H566 0.999 . S
C564 H534 0.950 . S
C564 C563 1.524 . S
C564 C565 1.415 . S
C565 H535 0.950 . S
C565 C560 1.363 . S
C565 C564 1.415 . S
H566 C563 0.999 . S
H567 C548 0.913 . S
H568 C586 0.951 . S
H569 C588 0.951 . S
H570 C590 0.950 . S
H571 C591 0.950 . S
H572 C593 0.950 . S
H573 C596 0.950 . S
H574 C597 0.950 . S
H575 C599 0.950 . S
H576 C600 0.950 . S
H577 C601 0.951 . S
H578 C603 0.951 . S
H579 C605 0.950 . S
H580 C606 0.950 . S
H581 C608 0.950 . S
H582 C611 0.950 . S
H583 C612 0.950 . S
H584 C614 0.950 . S
H585 C615 0.950 . S
C586 H568 0.951 . S
C586 C587 1.366 . S
C586 C588 1.388 . S
C587 C586 1.366 . S
C587 C591 1.385 . S
C588 H569 0.951 . S
C588 C586 1.388 . S
C588 C589 1.366 . S
C589 C588 1.366 . S
C589 C590 1.414 . S
C589 C592 1.499 . S
C590 H570 0.950 . S
C590 C589 1.414 . S
C590 C591 1.374 . S
C591 H571 0.950 . S
C591 C587 1.385 . S
C591 C590 1.374 . S
C592 C589 1.499 . S
C592 C593 1.373 . S
C592 C594 1.389 . S
C593 H572 0.950 . S
C593 C592 1.373 . S
C593 C609 1.377 . S
C594 C592 1.389 . S
C594 C595 1.524 . S
C594 C608 1.377 . S
C595 C594 1.524 . S
C595 C596 1.397 . S
C595 C600 1.363 . S
C596 H573 0.950 . S
C596 C595 1.397 . S
C596 C597 1.334 . S
C597 H574 0.950 . S
C597 C596 1.334 . S
C597 C598 1.287 . S
C598 C597 1.287 . S
C598 C599 1.524 . S
C598 H617 0.913 . S
C599 H575 0.950 . S
C599 C598 1.524 . S
C599 C600 1.415 . S
C600 H576 0.950 . S
C600 C595 1.363 . S
C600 C599 1.415 . S
C601 H577 0.951 . S
C601 C602 1.366 . S
C601 C603 1.388 . S
C602 C601 1.366 . S
C602 C606 1.385 . S
C603 H578 0.951 . S
C603 C601 1.388 . S
C603 C604 1.366 . S
C604 C603 1.366 . S
C604 C605 1.414 . S
C604 C607 1.499 . S
C605 H579 0.950 . S
C605 C604 1.414 . S
C605 C606 1.374 . S
C606 H580 0.950 . S
C606 C602 1.385 . S
C606 C605 1.374 . S
C607 C604 1.499 . S
C607 C608 1.373 . S
C607 C609 1.389 . S
C608 H581 0.950 . S
C608 C594 1.377 . S
C608 C607 1.373 . S
C609 C593 1.377 . S
C609 C607 1.389 . S
C609 C610 1.524 . S
C610 C609 1.524 . S
C610 C611 1.397 . S
C610 C615 1.363 . S
C611 H582 0.950 . S
C611 C610 1.397 . S
C611 C612 1.334 . S
C612 H583 0.950 . S
C612 C611 1.334 . S
C612 C613 1.287 . S
C613 C612 1.287 . S
C613 C614 1.524 . S
C613 H616 0.999 . S
C614 H584 0.950 . S
C614 C613 1.524 . S
C614 C615 1.415 . S
C615 H585 0.950 . S
C615 C610 1.363 . S
C615 C614 1.415 . S
H616 C613 0.999 . S
H617 C598 0.913 . S
H618 C636 0.951 . S
H619 C638 0.951 . S
H620 C640 0.950 . S
H621 C641 0.950 . S
H622 C643 0.950 . S
H623 C646 0.950 . S
H624 C647 0.950 . S
H625 C649 0.950 . S
H626 C650 0.950 . S
H627 C651 0.951 . S
H628 C653 0.951 . S
H629 C655 0.950 . S
H630 C656 0.950 . S
H631 C658 0.950 . S
H632 C661 0.950 . S
H633 C662 0.950 . S
H634 C664 0.950 . S
H635 C665 0.950 . S
C636 H618 0.951 . S
C636 C637 1.366 . S
C636 C638 1.388 . S
C637 C636 1.366 . S
C637 C641 1.385 . S
C638 H619 0.951 . S
C638 C636 1.388 . S
C638 C639 1.366 . S
C639 C638 1.366 . S
C639 C640 1.414 . S
C639 C642 1.499 . S
C640 H620 0.950 . S
C640 C639 1.414 . S
C640 C641 1.374 . S
C641 H621 0.950 . S
C641 C637 1.385 . S
C641 C640 1.374 . S
C642 C639 1.499 . S
C642 C643 1.373 . S
C642 C644 1.389 . S
C643 H622 0.950 . S
C643 C642 1.373 . S
C643 C659 1.377 . S
C644 C642 1.389 . S
C644 C645 1.524 . S
C644 C658 1.377 . S
C645 C644 1.524 . S
C645 C646 1.397 . S
C645 C650 1.363 . S
C646 H623 0.950 . S
C646 C645 1.397 . S
C646 C647 1.334 . S
C647 H624 0.950 . S
C647 C646 1.334 . S
C647 C648 1.287 . S
C648 C647 1.287 . S
C648 C649 1.524 . S
C648 H667 0.913 . S
C649 H625 0.950 . S
C649 C648 1.524 . S
C649 C650 1.415 . S
C650 H626 0.950 . S
C650 C645 1.363 . S
C650 C649 1.415 . S
C651 H627 0.951 . S
C651 C652 1.366 . S
C651 C653 1.388 . S
C652 C651 1.366 . S
C652 C656 1.385 . S
C653 H628 0.951 . S
C653 C651 1.388 . S
C653 C654 1.366 . S
C654 C653 1.366 . S
C654 C655 1.414 . S
C654 C657 1.499 . S
C655 H629 0.950 . S
C655 C654 1.414 . S
C655 C656 1.374 . S
C656 H630 0.950 . S
C656 C652 1.385 . S
C656 C655 1.374 . S
C657 C654 1.499 . S
C657 C658 1.373 . S
C657 C659 1.389 . S
C658 H631 0.950 . S
C658 C644 1.377 . S
C658 C657 1.373 . S
C659 C643 1.377 . S
C659 C657 1.389 . S
C659 C660 1.524 . S
C660 C659 1.524 . S
C660 C661 1.397 . S
C660 C665 1.363 . S
C661 H632 0.950 . S
C661 C660 1.397 . S
C661 C662 1.334 . S
C662 H633 0.950 . S
C662 C661 1.334 . S
C662 C663 1.287 . S
C663 C662 1.287 . S
C663 C664 1.524 . S
C663 H666 0.999 . S
C664 H634 0.950 . S
C664 C663 1.524 . S
C664 C665 1.415 . S
C665 H635 0.950 . S
C665 C660 1.363 . S
C665 C664 1.415 . S
H666 C663 0.999 . S
H667 C648 0.913 . S
H668 C686 0.951 . S
H669 C688 0.951 . S
H670 C690 0.950 . S
H671 C691 0.950 . S
H672 C693 0.950 . S
H673 C696 0.950 . S
H674 C697 0.950 . S
H675 C699 0.950 . S
H676 C700 0.950 . S
H677 C701 0.951 . S
H678 C703 0.951 . S
H679 C705 0.950 . S
H680 C706 0.950 . S
H681 C708 0.950 . S
H682 C711 0.950 . S
H683 C712 0.950 . S
H684 C714 0.950 . S
H685 C715 0.950 . S
C686 H668 0.951 . S
C686 C687 1.366 . S
C686 C688 1.388 . S
C687 C686 1.366 . S
C687 C691 1.385 . S
C688 H669 0.951 . S
C688 C686 1.388 . S
C688 C689 1.366 . S
C689 C688 1.366 . S
C689 C690 1.414 . S
C689 C692 1.499 . S
C690 H670 0.950 . S
C690 C689 1.414 . S
C690 C691 1.374 . S
C691 H671 0.950 . S
C691 C687 1.385 . S
C691 C690 1.374 . S
C692 C689 1.499 . S
C692 C693 1.373 . S
C692 C694 1.389 . S
C693 H672 0.950 . S
C693 C692 1.373 . S
C693 C709 1.377 . S
C694 C692 1.389 . S
C694 C695 1.524 . S
C694 C708 1.377 . S
C695 C694 1.524 . S
C695 C696 1.397 . S
C695 C700 1.363 . S
C696 H673 0.950 . S
C696 C695 1.397 . S
C696 C697 1.334 . S
C697 H674 0.950 . S
C697 C696 1.334 . S
C697 C698 1.287 . S
C698 C697 1.287 . S
C698 C699 1.524 . S
C698 H717 0.913 . S
C699 H675 0.950 . S
C699 C698 1.524 . S
C699 C700 1.415 . S
C700 H676 0.950 . S
C700 C695 1.363 . S
C700 C699 1.415 . S
C701 H677 0.951 . S
C701 C702 1.366 . S
C701 C703 1.388 . S
C702 C701 1.366 . S
C702 C706 1.385 . S
C703 H678 0.951 . S
C703 C701 1.388 . S
C703 C704 1.366 . S
C704 C703 1.366 . S
C704 C705 1.414 . S
C704 C707 1.499 . S
C705 H679 0.950 . S
C705 C704 1.414 . S
C705 C706 1.374 . S
C706 H680 0.950 . S
C706 C702 1.385 . S
C706 C705 1.374 . S
C707 C704 1.499 . S
C707 C708 1.373 . S
C707 C709 1.389 . S
C708 H681 0.950 . S
C708 C694 1.377 . S
C708 C707 1.373 . S
C709 C693 1.377 . S
C709 C707 1.389 . S
C709 C710 1.524 . S
C710 C709 1.524 . S
C710 C711 1.397 . S
C710 C715 1.363 . S
C711 H682 0.950 . S
C711 C710 1.397 . S
C711 C712 1.334 . S
C712 H683 0.950 . S
C712 C711 1.334 . S
C712 C713 1.287 . S
C713 C712 1.287 . S
C713 C714 1.524 . S
C713 H716 0.999 . S
C714 H684 0.950 . S
C714 C713 1.524 . S
C714 C715 1.415 . S
C715 H685 0.950 . S
C715 C710 1.363 . S
C715 C714 1.415 . S
H716 C713 0.999 . S
H717 C698 0.913 . S
H718 C736 0.951 . S
H719 C738 0.951 . S
H720 C740 0.950 . S
H721 C741 0.950 . S
H722 C743 0.950 . S
H723 C746 0.950 . S
H724 C747 0.950 . S
H725 C749 0.950 . S
H726 C750 0.950 . S
H727 C751 0.951 . S
H728 C753 0.951 . S
H729 C755 0.950 . S
H730 C756 0.950 . S
H731 C758 0.950 . S
H732 C761 0.950 . S
H733 C762 0.950 . S
H734 C764 0.950 . S
H735 C765 0.950 . S
C736 H718 0.951 . S
C736 C737 1.366 . S
C736 C738 1.388 . S
C737 C736 1.366 . S
C737 C741 1.385 . S
C738 H719 0.951 . S
C738 C736 1.388 . S
C738 C739 1.366 . S
C739 C738 1.366 . S
C739 C740 1.414 . S
C739 C742 1.499 . S
C740 H720 0.950 . S
C740 C739 1.414 . S
C740 C741 1.374 . S
C741 H721 0.950 . S
C741 C737 1.385 . S
C741 C740 1.374 . S
C742 C739 1.499 . S
C742 C743 1.373 . S
C742 C744 1.389 . S
C743 H722 0.950 . S
C743 C742 1.373 . S
C743 C759 1.377 . S
C744 C742 1.389 . S
C744 C745 1.524 . S
C744 C758 1.377 . S
C745 C744 1.524 . S
C745 C746 1.397 . S
C745 C750 1.363 . S
C746 H723 0.950 . S
C746 C745 1.397 . S
C746 C747 1.334 . S
C747 H724 0.950 . S
C747 C746 1.334 . S
C747 C748 1.287 . S
C748 C747 1.287 . S
C748 C749 1.524 . S
C748 H767 0.913 . S
C749 H725 0.950 . S
C749 C748 1.524 . S
C749 C750 1.415 . S
C750 H726 0.950 . S
C750 C745 1.363 . S
C750 C749 1.415 . S
C751 H727 0.951 . S
C751 C752 1.366 . S
C751 C753 1.388 . S
C752 C751 1.366 . S
C752 C756 1.385 . S
C753 H728 0.951 . S
C753 C751 1.388 . S
C753 C754 1.366 . S
C754 C753 1.366 . S
C754 C755 1.414 . S
C754 C757 1.499 . S
C755 H729 0.950 . S
C755 C754 1.414 . S
C755 C756 1.374 . S
C756 H730 0.950 . S
C756 C752 1.385 . S
C756 C755 1.374 . S
C757 C754 1.499 . S
C757 C758 1.373 . S
C757 C759 1.389 . S
C758 H731 0.950 . S
C758 C744 1.377 . S
C758 C757 1.373 . S
C759 C743 1.377 . S
C759 C757 1.389 . S
C759 C760 1.524 . S
C760 C759 1.524 . S
C760 C761 1.397 . S
C760 C765 1.363 . S
C761 H732 0.950 . S
C761 C760 1.397 . S
C761 C762 1.334 . S
C762 H733 0.950 . S
C762 C761 1.334 . S
C762 C763 1.287 . S
C763 C762 1.287 . S
C763 C764 1.524 . S
C763 H766 0.999 . S
C764 H734 0.950 . S
C764 C763 1.524 . S
C764 C765 1.415 . S
C765 H735 0.950 . S
C765 C760 1.363 . S
C765 C764 1.415 . S
H766 C763 0.999 . S
H767 C748 0.913 . S
H768 C786 0.951 . S
H769 C788 0.951 . S
H770 C790 0.950 . S
H771 C791 0.950 . S
H772 C793 0.950 . S
H773 C796 0.950 . S
H774 C797 0.950 . S
H775 C799 0.950 . S
H776 C800 0.950 . S
H777 C801 0.951 . S
H778 C803 0.951 . S
H779 C805 0.950 . S
H780 C806 0.950 . S
H781 C808 0.950 . S
H782 C811 0.950 . S
H783 C812 0.950 . S
H784 C814 0.950 . S
H785 C815 0.950 . S
C786 H768 0.951 . S
C786 C787 1.366 . S
C786 C788 1.388 . S
C787 C786 1.366 . S
C787 C791 1.385 . S
C788 H769 0.951 . S
C788 C786 1.388 . S
C788 C789 1.366 . S
C789 C788 1.366 . S
C789 C790 1.414 . S
C789 C792 1.499 . S
C790 H770 0.950 . S
C790 C789 1.414 . S
C790 C791 1.374 . S
C791 H771 0.950 . S
C791 C787 1.385 . S
C791 C790 1.374 . S
C792 C789 1.499 . S
C792 C793 1.373 . S
C792 C794 1.389 . S
C793 H772 0.950 . S
C793 C792 1.373 . S
C793 C809 1.377 . S
C794 C792 1.389 . S
C794 C795 1.524 . S
C794 C808 1.377 . S
C795 C794 1.524 . S
C795 C796 1.397 . S
C795 C800 1.363 . S
C796 H773 0.950 . S
C796 C795 1.397 . S
C796 C797 1.334 . S
C797 H774 0.950 . S
C797 C796 1.334 . S
C797 C798 1.287 . S
C798 C797 1.287 . S
C798 C799 1.524 . S
C798 H817 0.913 . S
C799 H775 0.950 . S
C799 C798 1.524 . S
C799 C800 1.415 . S
C800 H776 0.950 . S
C800 C795 1.363 . S
C800 C799 1.415 . S
C801 H777 0.951 . S
C801 C802 1.366 . S
C801 C803 1.388 . S
C802 C801 1.366 . S
C802 C806 1.385 . S
C803 H778 0.951 . S
C803 C801 1.388 . S
C803 C804 1.366 . S
C804 C803 1.366 . S
C804 C805 1.414 . S
C804 C807 1.499 . S
C805 H779 0.950 . S
C805 C804 1.414 . S
C805 C806 1.374 . S
C806 H780 0.950 . S
C806 C802 1.385 . S
C806 C805 1.374 . S
C807 C804 1.499 . S
C807 C808 1.373 . S
C807 C809 1.389 . S
C808 H781 0.950 . S
C808 C794 1.377 . S
C808 C807 1.373 . S
C809 C793 1.377 . S
C809 C807 1.389 . S
C809 C810 1.524 . S
C810 C809 1.524 . S
C810 C811 1.397 . S
C810 C815 1.363 . S
C811 H782 0.950 . S
C811 C810 1.397 . S
C811 C812 1.334 . S
C812 H783 0.950 . S
C812 C811 1.334 . S
C812 C813 1.287 . S
C813 C812 1.287 . S
C813 C814 1.524 . S
C813 H816 0.999 . S
C814 H784 0.950 . S
C814 C813 1.524 . S
C814 C815 1.415 . S
C815 H785 0.950 . S
C815 C810 1.363 . S
C815 C814 1.415 . S
H816 C813 0.999 . S
H817 C798 0.913 . S
H818 C836 0.951 . S
H819 C838 0.951 . S
H820 C840 0.950 . S
H821 C841 0.950 . S
H822 C843 0.950 . S
H823 C846 0.950 . S
H824 C847 0.950 . S
H825 C849 0.950 . S
H826 C850 0.950 . S
H827 C851 0.951 . S
H828 C853 0.951 . S
H829 C855 0.950 . S
H830 C856 0.950 . S
H831 C858 0.950 . S
H832 C861 0.950 . S
H833 C862 0.950 . S
H834 C864 0.950 . S
H835 C865 0.950 . S
C836 H818 0.951 . S
C836 C837 1.366 . S
C836 C838 1.388 . S
C837 C836 1.366 . S
C837 C841 1.385 . S
C838 H819 0.951 . S
C838 C836 1.388 . S
C838 C839 1.366 . S
C839 C838 1.366 . S
C839 C840 1.414 . S
C839 C842 1.499 . S
C840 H820 0.950 . S
C840 C839 1.414 . S
C840 C841 1.374 . S
C841 H821 0.950 . S
C841 C837 1.385 . S
C841 C840 1.374 . S
C842 C839 1.499 . S
C842 C843 1.373 . S
C842 C844 1.389 . S
C843 H822 0.950 . S
C843 C842 1.373 . S
C843 C859 1.377 . S
C844 C842 1.389 . S
C844 C845 1.524 . S
C844 C858 1.377 . S
C845 C844 1.524 . S
C845 C846 1.397 . S
C845 C850 1.363 . S
C846 H823 0.950 . S
C846 C845 1.397 . S
C846 C847 1.334 . S
C847 H824 0.950 . S
C847 C846 1.334 . S
C847 C848 1.287 . S
C848 C847 1.287 . S
C848 C849 1.524 . S
C848 H867 0.913 . S
C849 H825 0.950 . S
C849 C848 1.524 . S
C849 C850 1.415 . S
C850 H826 0.950 . S
C850 C845 1.363 . S
C850 C849 1.415 . S
C851 H827 0.951 . S
C851 C852 1.366 . S
C851 C853 1.388 . S
C852 C851 1.366 . S
C852 C856 1.385 . S
C853 H828 0.951 . S
C853 C851 1.388 . S
C853 C854 1.366 . S
C854 C853 1.366 . S
C854 C855 1.414 . S
C854 C857 1.499 . S
C855 H829 0.950 . S
C855 C854 1.414 . S
C855 C856 1.374 . S
C856 H830 0.950 . S
C856 C852 1.385 . S
C856 C855 1.374 . S
C857 C854 1.499 . S
C857 C858 1.373 . S
C857 C859 1.389 . S
C858 H831 0.950 . S
C858 C844 1.377 . S
C858 C857 1.373 . S
C859 C843 1.377 . S
C859 C857 1.389 . S
C859 C860 1.524 1_556 S
C860 C859 1.524 1_554 S
C860 C861 1.397 . S
C860 C865 1.363 . S
C861 H832 0.950 . S
C861 C860 1.397 . S
C861 C862 1.334 . S
C862 H833 0.950 . S
C862 C861 1.334 . S
C862 C863 1.287 . S
C863 C862 1.287 . S
C863 C864 1.524 . S
C863 H866 0.999 . S
C864 H834 0.950 . S
C864 C863 1.524 . S
C864 C865 1.415 . S
C865 H835 0.950 . S
C865 C860 1.363 . S
C865 C864 1.415 . S
H866 C863 0.999 . S
H867 C848 0.913 . S
H868 C886 0.951 1_556 S
H869 C888 0.951 . S
H870 C890 0.950 . S
H871 C891 0.950 . S
H872 C893 0.950 . S
H873 C896 0.950 . S
H874 C897 0.950 . S
H875 C899 0.950 . S
H876 C900 0.950 . S
H877 C901 0.951 . S
H878 C903 0.951 . S
H879 C905 0.950 . S
H880 C906 0.950 . S
H881 C908 0.950 . S
H882 C911 0.950 . S
H883 C912 0.950 . S
H884 C914 0.950 . S
H885 C915 0.950 . S
C886 H868 0.951 1_554 S
C886 C887 1.366 . S
C886 C888 1.388 . S
C887 C886 1.366 . S
C887 C891 1.385 . S
C888 H869 0.951 . S
C888 C886 1.388 . S
C888 C889 1.366 . S
C889 C888 1.366 . S
C889 C890 1.414 . S
C889 C892 1.499 . S
C890 H870 0.950 . S
C890 C889 1.414 . S
C890 C891 1.374 . S
C891 H871 0.950 . S
C891 C887 1.385 . S
C891 C890 1.374 . S
C892 C889 1.499 . S
C892 C893 1.373 . S
C892 C894 1.389 . S
C893 H872 0.950 . S
C893 C892 1.373 . S
C893 C909 1.377 . S
C894 C892 1.389 . S
C894 C895 1.524 1_554 S
C894 C908 1.377 . S
C895 C894 1.524 1_556 S
C895 C896 1.397 . S
C895 C900 1.363 . S
C896 H873 0.950 . S
C896 C895 1.397 . S
C896 C897 1.334 . S
C897 H874 0.950 . S
C897 C896 1.334 . S
C897 C898 1.287 . S
C898 C897 1.287 . S
C898 C899 1.524 . S
C898 H917 0.913 . S
C899 H875 0.950 . S
C899 C898 1.524 . S
C899 C900 1.415 . S
C900 H876 0.950 . S
C900 C895 1.363 . S
C900 C899 1.415 . S
C901 H877 0.951 . S
C901 C902 1.366 . S
C901 C903 1.388 . S
C902 C901 1.366 . S
C902 C906 1.385 . S
C903 H878 0.951 . S
C903 C901 1.388 . S
C903 C904 1.366 . S
C904 C903 1.366 . S
C904 C905 1.414 . S
C904 C907 1.499 . S
C905 H879 0.950 . S
C905 C904 1.414 . S
C905 C906 1.374 . S
C906 H880 0.950 . S
C906 C902 1.385 . S
C906 C905 1.374 . S
C907 C904 1.499 . S
C907 C908 1.373 . S
C907 C909 1.389 . S
C908 H881 0.950 . S
C908 C894 1.377 . S
C908 C907 1.373 . S
C909 C893 1.377 . S
C909 C907 1.389 . S
C909 C910 1.524 . S
C910 C909 1.524 . S
C910 C911 1.397 . S
C910 C915 1.363 . S
C911 H882 0.950 . S
C911 C910 1.397 . S
C911 C912 1.334 . S
C912 H883 0.950 . S
C912 C911 1.334 . S
C912 C913 1.287 . S
C913 C912 1.287 . S
C913 C914 1.524 . S
C913 H916 0.999 . S
C914 H884 0.950 . S
C914 C913 1.524 . S
C914 C915 1.415 . S
C915 H885 0.950 . S
C915 C910 1.363 . S
C915 C914 1.415 . S
H916 C913 0.999 . S
H917 C898 0.913 . S
C337 C39 1.945 1_556 S
C352 C181 1.944 . S
C387 C234 1.884 . S
C402 C92 1.882 . S
C437 C128 1.914 . S
C452 C304 1.908 . S
C487 C198 1.945 . S
C502 C22 1.944 . S
C537 C75 1.884 . S
C552 C251 1.882 . S
C587 C287 1.914 . S
C602 C145 1.908 . S
C637 C38 1.930 . S
C652 C144 1.932 . S
C687 C91 1.831 . S
C702 C188 1.822 . S
C737 C241 1.699 . S
C752 C135 1.698 . S
C787 C303 1.932 . S
C802 C197 1.930 . S
C837 C250 1.831 . S
C852 C29 1.823 1_556 S
C887 C294 1.698 1_554 S
C902 C82 1.699 . S
