# Generated by pormake.
# Topology ukr, (4)-cn, num edge types: 1
# Building blocks:
#     Node 0, Type 0, BuildingBlock: TATPOV_clean_sbu_0, # of connection points: 4
#     Node 1, Type 0, BuildingBlock: TATPOV_clean_sbu_0, # of connection points: 4
#     Node 2, Type 0, BuildingBlock: TATPOV_clean_sbu_0, # of connection points: 4
#     Node 3, Type 0, BuildingBlock: TATPOV_clean_sbu_0, # of connection points: 4
#     Node 4, Type 0, BuildingBlock: TATPOV_clean_sbu_0, # of connection points: 4
#     Node 5, Type 0, BuildingBlock: TATPOV_clean_sbu_0, # of connection points: 4
#     Node 6, Type 0, BuildingBlock: TATPOV_clean_sbu_0, # of connection points: 4
#     Node 7, Type 0, BuildingBlock: TATPOV_clean_sbu_0, # of connection points: 4
#     Node 8, Type 0, BuildingBlock: TATPOV_clean_sbu_0, # of connection points: 4
#     Node 9, Type 0, BuildingBlock: TATPOV_clean_sbu_0, # of connection points: 4
#     Node 10, Type 0, BuildingBlock: TATPOV_clean_sbu_0, # of connection points: 4
#     Node 11, Type 0, BuildingBlock: TATPOV_clean_sbu_0, # of connection points: 4
#     Node 12, Type 0, BuildingBlock: TATPOV_clean_sbu_0, # of connection points: 4
#     Node 13, Type 0, BuildingBlock: TATPOV_clean_sbu_0, # of connection points: 4
#     Node 14, Type 0, BuildingBlock: TATPOV_clean_sbu_0, # of connection points: 4
#     Node 15, Type 0, BuildingBlock: TATPOV_clean_sbu_0, # of connection points: 4
#     Node 16, Type 0, BuildingBlock: TATPOV_clean_sbu_0, # of connection points: 4
#     Node 17, Type 0, BuildingBlock: TATPOV_clean_sbu_0, # of connection points: 4
#     Node 18, Type 0, BuildingBlock: TATPOV_clean_sbu_0, # of connection points: 4
#     Node 19, Type 0, BuildingBlock: TATPOV_clean_sbu_0, # of connection points: 4
#     Node 20, Type 0, BuildingBlock: TATPOV_clean_sbu_0, # of connection points: 4
#     Node 21, Type 0, BuildingBlock: TATPOV_clean_sbu_0, # of connection points: 4
#     Node 22, Type 0, BuildingBlock: TATPOV_clean_sbu_0, # of connection points: 4
#     Node 23, Type 0, BuildingBlock: TATPOV_clean_sbu_0, # of connection points: 4
#     Node 24, Type 0, BuildingBlock: TATPOV_clean_sbu_0, # of connection points: 4
#     Node 25, Type 0, BuildingBlock: TATPOV_clean_sbu_0, # of connection points: 4
#     Node 26, Type 0, BuildingBlock: TATPOV_clean_sbu_0, # of connection points: 4
#     Node 27, Type 0, BuildingBlock: TATPOV_clean_sbu_0, # of connection points: 4
#     Node 28, Type 0, BuildingBlock: TATPOV_clean_sbu_0, # of connection points: 4
#     Node 29, Type 0, BuildingBlock: TATPOV_clean_sbu_0, # of connection points: 4
#     Node 30, Type 0, BuildingBlock: TATPOV_clean_sbu_0, # of connection points: 4
#     Node 31, Type 0, BuildingBlock: TATPOV_clean_sbu_0, # of connection points: 4
#     Node 32, Type 0, BuildingBlock: TATPOV_clean_sbu_0, # of connection points: 4
#     Node 33, Type 0, BuildingBlock: TATPOV_clean_sbu_0, # of connection points: 4
#     Node 34, Type 0, BuildingBlock: TATPOV_clean_sbu_0, # of connection points: 4
#     Node 35, Type 0, BuildingBlock: TATPOV_clean_sbu_0, # of connection points: 4
#     Node 36, Type 0, BuildingBlock: TATPOV_clean_sbu_0, # of connection points: 4
#     Node 37, Type 0, BuildingBlock: TATPOV_clean_sbu_0, # of connection points: 4
#     Node 38, Type 0, BuildingBlock: TATPOV_clean_sbu_0, # of connection points: 4
#     Node 39, Type 0, BuildingBlock: TATPOV_clean_sbu_0, # of connection points: 4
#     Node 40, Type 0, BuildingBlock: TATPOV_clean_sbu_0, # of connection points: 4
#     Node 41, Type 0, BuildingBlock: TATPOV_clean_sbu_0, # of connection points: 4
#     Node 42, Type 0, BuildingBlock: TATPOV_clean_sbu_0, # of connection points: 4
#     Node 43, Type 0, BuildingBlock: TATPOV_clean_sbu_0, # of connection points: 4
#     Node 44, Type 0, BuildingBlock: TATPOV_clean_sbu_0, # of connection points: 4
#     Node 45, Type 0, BuildingBlock: TATPOV_clean_sbu_0, # of connection points: 4
#     Node 46, Type 0, BuildingBlock: TATPOV_clean_sbu_0, # of connection points: 4
#     Node 47, Type 0, BuildingBlock: TATPOV_clean_sbu_0, # of connection points: 4
#     Edge 48, Type (0, 0), BuildingBlock: AJUNOK_clean_linker_0, # of connection points: 2
#     Edge 49, Type (0, 0), BuildingBlock: AJUNOK_clean_linker_0, # of connection points: 2
#     Edge 50, Type (0, 0), BuildingBlock: AJUNOK_clean_linker_0, # of connection points: 2
#     Edge 51, Type (0, 0), BuildingBlock: AJUNOK_clean_linker_0, # of connection points: 2
#     Edge 52, Type (0, 0), BuildingBlock: AJUNOK_clean_linker_0, # of connection points: 2
#     Edge 53, Type (0, 0), BuildingBlock: AJUNOK_clean_linker_0, # of connection points: 2
#     Edge 54, Type (0, 0), BuildingBlock: AJUNOK_clean_linker_0, # of connection points: 2
#     Edge 55, Type (0, 0), BuildingBlock: AJUNOK_clean_linker_0, # of connection points: 2
#     Edge 56, Type (0, 0), BuildingBlock: AJUNOK_clean_linker_0, # of connection points: 2
#     Edge 57, Type (0, 0), BuildingBlock: AJUNOK_clean_linker_0, # of connection points: 2
#     Edge 58, Type (0, 0), BuildingBlock: AJUNOK_clean_linker_0, # of connection points: 2
#     Edge 59, Type (0, 0), BuildingBlock: AJUNOK_clean_linker_0, # of connection points: 2
#     Edge 60, Type (0, 0), BuildingBlock: AJUNOK_clean_linker_0, # of connection points: 2
#     Edge 61, Type (0, 0), BuildingBlock: AJUNOK_clean_linker_0, # of connection points: 2
#     Edge 62, Type (0, 0), BuildingBlock: AJUNOK_clean_linker_0, # of connection points: 2
#     Edge 63, Type (0, 0), BuildingBlock: AJUNOK_clean_linker_0, # of connection points: 2
#     Edge 64, Type (0, 0), BuildingBlock: AJUNOK_clean_linker_0, # of connection points: 2
#     Edge 65, Type (0, 0), BuildingBlock: AJUNOK_clean_linker_0, # of connection points: 2
#     Edge 66, Type (0, 0), BuildingBlock: AJUNOK_clean_linker_0, # of connection points: 2
#     Edge 67, Type (0, 0), BuildingBlock: AJUNOK_clean_linker_0, # of connection points: 2
#     Edge 68, Type (0, 0), BuildingBlock: AJUNOK_clean_linker_0, # of connection points: 2
#     Edge 69, Type (0, 0), BuildingBlock: AJUNOK_clean_linker_0, # of connection points: 2
#     Edge 70, Type (0, 0), BuildingBlock: AJUNOK_clean_linker_0, # of connection points: 2
#     Edge 71, Type (0, 0), BuildingBlock: AJUNOK_clean_linker_0, # of connection points: 2
#     Edge 72, Type (0, 0), BuildingBlock: AJUNOK_clean_linker_0, # of connection points: 2
#     Edge 73, Type (0, 0), BuildingBlock: AJUNOK_clean_linker_0, # of connection points: 2
#     Edge 74, Type (0, 0), BuildingBlock: AJUNOK_clean_linker_0, # of connection points: 2
#     Edge 75, Type (0, 0), BuildingBlock: AJUNOK_clean_linker_0, # of connection points: 2
#     Edge 76, Type (0, 0), BuildingBlock: AJUNOK_clean_linker_0, # of connection points: 2
#     Edge 77, Type (0, 0), BuildingBlock: AJUNOK_clean_linker_0, # of connection points: 2
#     Edge 78, Type (0, 0), BuildingBlock: AJUNOK_clean_linker_0, # of connection points: 2
#     Edge 79, Type (0, 0), BuildingBlock: AJUNOK_clean_linker_0, # of connection points: 2
#     Edge 80, Type (0, 0), BuildingBlock: AJUNOK_clean_linker_0, # of connection points: 2
#     Edge 81, Type (0, 0), BuildingBlock: AJUNOK_clean_linker_0, # of connection points: 2
#     Edge 82, Type (0, 0), BuildingBlock: AJUNOK_clean_linker_0, # of connection points: 2
#     Edge 83, Type (0, 0), BuildingBlock: AJUNOK_clean_linker_0, # of connection points: 2
#     Edge 84, Type (0, 0), BuildingBlock: AJUNOK_clean_linker_0, # of connection points: 2
#     Edge 85, Type (0, 0), BuildingBlock: AJUNOK_clean_linker_0, # of connection points: 2
#     Edge 86, Type (0, 0), BuildingBlock: AJUNOK_clean_linker_0, # of connection points: 2
#     Edge 87, Type (0, 0), BuildingBlock: AJUNOK_clean_linker_0, # of connection points: 2
#     Edge 88, Type (0, 0), BuildingBlock: AJUNOK_clean_linker_0, # of connection points: 2
#     Edge 89, Type (0, 0), BuildingBlock: AJUNOK_clean_linker_0, # of connection points: 2
#     Edge 90, Type (0, 0), BuildingBlock: AJUNOK_clean_linker_0, # of connection points: 2
#     Edge 91, Type (0, 0), BuildingBlock: AJUNOK_clean_linker_0, # of connection points: 2
#     Edge 92, Type (0, 0), BuildingBlock: AJUNOK_clean_linker_0, # of connection points: 2
#     Edge 93, Type (0, 0), BuildingBlock: AJUNOK_clean_linker_0, # of connection points: 2
#     Edge 94, Type (0, 0), BuildingBlock: AJUNOK_clean_linker_0, # of connection points: 2
#     Edge 95, Type (0, 0), BuildingBlock: AJUNOK_clean_linker_0, # of connection points: 2
#     Edge 96, Type (0, 0), BuildingBlock: AJUNOK_clean_linker_0, # of connection points: 2
#     Edge 97, Type (0, 0), BuildingBlock: AJUNOK_clean_linker_0, # of connection points: 2
#     Edge 98, Type (0, 0), BuildingBlock: AJUNOK_clean_linker_0, # of connection points: 2
#     Edge 99, Type (0, 0), BuildingBlock: AJUNOK_clean_linker_0, # of connection points: 2
#     Edge 100, Type (0, 0), BuildingBlock: AJUNOK_clean_linker_0, # of connection points: 2
#     Edge 101, Type (0, 0), BuildingBlock: AJUNOK_clean_linker_0, # of connection points: 2
#     Edge 102, Type (0, 0), BuildingBlock: AJUNOK_clean_linker_0, # of connection points: 2
#     Edge 103, Type (0, 0), BuildingBlock: AJUNOK_clean_linker_0, # of connection points: 2
#     Edge 104, Type (0, 0), BuildingBlock: AJUNOK_clean_linker_0, # of connection points: 2
#     Edge 105, Type (0, 0), BuildingBlock: AJUNOK_clean_linker_0, # of connection points: 2
#     Edge 106, Type (0, 0), BuildingBlock: AJUNOK_clean_linker_0, # of connection points: 2
#     Edge 107, Type (0, 0), BuildingBlock: AJUNOK_clean_linker_0, # of connection points: 2
#     Edge 108, Type (0, 0), BuildingBlock: AJUNOK_clean_linker_0, # of connection points: 2
#     Edge 109, Type (0, 0), BuildingBlock: AJUNOK_clean_linker_0, # of connection points: 2
#     Edge 110, Type (0, 0), BuildingBlock: AJUNOK_clean_linker_0, # of connection points: 2
#     Edge 111, Type (0, 0), BuildingBlock: AJUNOK_clean_linker_0, # of connection points: 2
#     Edge 112, Type (0, 0), BuildingBlock: AJUNOK_clean_linker_0, # of connection points: 2
#     Edge 113, Type (0, 0), BuildingBlock: AJUNOK_clean_linker_0, # of connection points: 2
#     Edge 114, Type (0, 0), BuildingBlock: AJUNOK_clean_linker_0, # of connection points: 2
#     Edge 115, Type (0, 0), BuildingBlock: AJUNOK_clean_linker_0, # of connection points: 2
#     Edge 116, Type (0, 0), BuildingBlock: AJUNOK_clean_linker_0, # of connection points: 2
#     Edge 117, Type (0, 0), BuildingBlock: AJUNOK_clean_linker_0, # of connection points: 2
#     Edge 118, Type (0, 0), BuildingBlock: AJUNOK_clean_linker_0, # of connection points: 2
#     Edge 119, Type (0, 0), BuildingBlock: AJUNOK_clean_linker_0, # of connection points: 2
#     Edge 120, Type (0, 0), BuildingBlock: AJUNOK_clean_linker_0, # of connection points: 2
#     Edge 121, Type (0, 0), BuildingBlock: AJUNOK_clean_linker_0, # of connection points: 2
#     Edge 122, Type (0, 0), BuildingBlock: AJUNOK_clean_linker_0, # of connection points: 2
#     Edge 123, Type (0, 0), BuildingBlock: AJUNOK_clean_linker_0, # of connection points: 2
#     Edge 124, Type (0, 0), BuildingBlock: AJUNOK_clean_linker_0, # of connection points: 2
#     Edge 125, Type (0, 0), BuildingBlock: AJUNOK_clean_linker_0, # of connection points: 2
#     Edge 126, Type (0, 0), BuildingBlock: AJUNOK_clean_linker_0, # of connection points: 2
#     Edge 127, Type (0, 0), BuildingBlock: AJUNOK_clean_linker_0, # of connection points: 2
#     Edge 128, Type (0, 0), BuildingBlock: AJUNOK_clean_linker_0, # of connection points: 2
#     Edge 129, Type (0, 0), BuildingBlock: AJUNOK_clean_linker_0, # of connection points: 2
#     Edge 130, Type (0, 0), BuildingBlock: AJUNOK_clean_linker_0, # of connection points: 2
#     Edge 131, Type (0, 0), BuildingBlock: AJUNOK_clean_linker_0, # of connection points: 2
#     Edge 132, Type (0, 0), BuildingBlock: AJUNOK_clean_linker_0, # of connection points: 2
#     Edge 133, Type (0, 0), BuildingBlock: AJUNOK_clean_linker_0, # of connection points: 2
#     Edge 134, Type (0, 0), BuildingBlock: AJUNOK_clean_linker_0, # of connection points: 2
#     Edge 135, Type (0, 0), BuildingBlock: AJUNOK_clean_linker_0, # of connection points: 2
#     Edge 136, Type (0, 0), BuildingBlock: AJUNOK_clean_linker_0, # of connection points: 2
#     Edge 137, Type (0, 0), BuildingBlock: AJUNOK_clean_linker_0, # of connection points: 2
#     Edge 138, Type (0, 0), BuildingBlock: AJUNOK_clean_linker_0, # of connection points: 2
#     Edge 139, Type (0, 0), BuildingBlock: AJUNOK_clean_linker_0, # of connection points: 2
#     Edge 140, Type (0, 0), BuildingBlock: AJUNOK_clean_linker_0, # of connection points: 2
#     Edge 141, Type (0, 0), BuildingBlock: AJUNOK_clean_linker_0, # of connection points: 2
#     Edge 142, Type (0, 0), BuildingBlock: AJUNOK_clean_linker_0, # of connection points: 2
#     Edge 143, Type (0, 0), BuildingBlock: AJUNOK_clean_linker_0, # of connection points: 2
# Relax obj value: 0.361
# Max RMSD: 0.169
# Mean RMSD: 0.169
data_MOF--net-ukr--node1-TATPOV_clean_sbu_0--edge1-AJUNOK_clean_linker_0
_symmetry_space_group_name_H-M    P1
_symmetry_Int_Tables_number       1
_symmetry_cell_setting            triclinic
loop_
_symmetry_equiv_pos_as_xyz
'x, y, z'
_cell_length_a     51.194688
_cell_length_b     51.091231
_cell_length_c     51.124832
_cell_angle_alpha  90.100013
_cell_angle_beta   90.003959
_cell_angle_gamma 89.872783
loop_
_atom_site_label
_atom_site_type_symbol
_atom_site_fract_x
_atom_site_fract_y
_atom_site_fract_z
_atom_type_partial_charge
Zn0 Zn 0.13071 0.23409 0.20866 0.0
Zn1 Zn 0.08628 0.24574 0.19074 0.0
O2 O 0.08056 0.21145 0.21309 0.0
O3 O 0.12068 0.20026 0.2238 0.0
O4 O 0.0496 0.25492 0.18048 0.0
O5 O 0.13354 0.26625 0.23094 0.0
O6 O 0.09902 0.27978 0.20929 0.0
C7 C 0.09653 0.19544 0.22369 0.0
C8 C 0.13039 0.23761 0.15266 0.0
O9 O 0.10596 0.24147 0.1555 0.0
O10 O 0.14498 0.23459 0.17239 0.0
C11 C 0.03403 0.23778 0.17152 0.0
O12 O 0.04254 0.21374 0.16807 0.0
C13 C 0.11764 0.28432 0.22523 0.0
Zn14 Zn 0.22409 0.61916 0.74822 0.0
Zn15 Zn 0.2205 0.59633 0.70388 0.0
O16 O 0.25414 0.58246 0.72185 0.0
O17 O 0.25497 0.59883 0.7614 0.0
O18 O 0.21449 0.56985 0.67577 0.0
O19 O 0.18787 0.61159 0.76092 0.0
O20 O 0.18374 0.59844 0.72043 0.0
C21 C 0.26549 0.5848 0.74393 0.0
C22 C 0.23212 0.65229 0.70048 0.0
O23 O 0.22895 0.63131 0.6874 0.0
O24 O 0.23049 0.65182 0.72531 0.0
C25 C 0.23224 0.56114 0.66075 0.0
O26 O 0.25528 0.57239 0.66106 0.0
C27 C 0.17337 0.60409 0.74237 0.0
Zn28 Zn 0.87462 0.74059 0.25659 0.0
Zn29 Zn 0.89976 0.73963 0.21459 0.0
O30 O 0.91096 0.77139 0.23762 0.0
O31 O 0.89394 0.76827 0.27663 0.0
O32 O 0.93101 0.73508 0.19094 0.0
O33 O 0.87644 0.70269 0.26629 0.0
O34 O 0.89132 0.7015 0.22619 0.0
C35 C 0.90812 0.78062 0.26065 0.0
C36 C 0.84619 0.75562 0.20675 0.0
O37 O 0.86765 0.75169 0.19466 0.0
O38 O 0.84516 0.75225 0.2314 0.0
C39 C 0.94395 0.75453 0.18247 0.0
O40 O 0.93463 0.77821 0.18621 0.0
C41 C 0.88279 0.68952 0.24632 0.0
Zn42 Zn 0.75741 0.36683 0.7678 0.0
Zn43 Zn 0.75696 0.39194 0.72669 0.0
O44 O 0.72257 0.39855 0.74787 0.0
O45 O 0.72711 0.38237 0.7871 0.0
O46 O 0.76071 0.42531 0.70551 0.0
O47 O 0.79412 0.37139 0.78036 0.0
O48 O 0.79526 0.38556 0.74004 0.0
C49 C 0.71319 0.39439 0.7706 0.0
C50 C 0.74659 0.33774 0.71685 0.0
O51 O 0.7485 0.35964 0.70499 0.0
O52 O 0.74964 0.33685 0.74155 0.0
C53 C 0.7415 0.43849 0.69673 0.0
O54 O 0.71794 0.42852 0.6982 0.0
C55 C 0.80731 0.37837 0.76071 0.0
Zn56 Zn 0.11548 0.72555 0.74212 0.0
Zn57 Zn 0.09116 0.72489 0.78457 0.0
O58 O 0.0816 0.7599 0.76597 0.0
O59 O 0.10031 0.75846 0.7275 0.0
O60 O 0.06202 0.71984 0.81003 0.0
O61 O 0.10544 0.69068 0.72757 0.0
O62 O 0.09344 0.68765 0.76843 0.0
C63 C 0.08655 0.77068 0.74404 0.0
C64 C 0.14691 0.7307 0.79159 0.0
O65 O 0.12517 0.73115 0.80369 0.0
O66 O 0.14742 0.72793 0.76686 0.0
C67 C 0.05246 0.73738 0.82478 0.0
O68 O 0.06377 0.76043 0.82573 0.0
C69 C 0.09828 0.67665 0.74657 0.0
Zn70 Zn 0.75283 0.62464 0.22937 0.0
Zn71 Zn 0.75539 0.59941 0.27158 0.0
O72 O 0.7228 0.58753 0.25026 0.0
O73 O 0.72451 0.6044 0.21108 0.0
O74 O 0.76125 0.56925 0.29612 0.0
O75 O 0.79044 0.62264 0.21846 0.0
O76 O 0.79291 0.60688 0.2581 0.0
C77 C 0.71277 0.59025 0.22757 0.0
C78 C 0.73969 0.65332 0.27951 0.0
O79 O 0.74429 0.6319 0.29141 0.0
O80 O 0.74197 0.65435 0.25473 0.0
C81 C 0.74306 0.55741 0.30813 0.0
O82 O 0.71924 0.56691 0.30705 0.0
C83 C 0.80425 0.61556 0.2377 0.0
Zn84 Zn 0.87047 0.25803 0.76029 0.0
Zn85 Zn 0.90677 0.25808 0.79089 0.0
O86 O 0.90992 0.22324 0.76858 0.0
O87 O 0.87579 0.22426 0.74259 0.0
O88 O 0.94307 0.2622 0.80552 0.0
O89 O 0.87664 0.29075 0.74035 0.0
O90 O 0.8976 0.29608 0.77714 0.0
C91 C 0.89603 0.21276 0.75068 0.0
C92 C 0.85725 0.25651 0.81698 0.0
O93 O 0.88143 0.25238 0.82105 0.0
O94 O 0.84887 0.26029 0.79391 0.0
C95 C 0.95687 0.24274 0.81258 0.0
O96 O 0.94642 0.21928 0.81224 0.0
C97 C 0.88664 0.306 0.75698 0.0
Zn98 Zn 0.2364 0.36203 0.23761 0.0
Zn99 Zn 0.2321 0.38564 0.27847 0.0
O100 O 0.26694 0.39529 0.2591 0.0
O101 O 0.26575 0.37971 0.21937 0.0
O102 O 0.22417 0.41864 0.29908 0.0
O103 O 0.20077 0.36358 0.22233 0.0
O104 O 0.19551 0.37396 0.26351 0.0
C105 C 0.2777 0.39251 0.23676 0.0
C106 C 0.24681 0.33335 0.28907 0.0
O107 O 0.24274 0.35495 0.30096 0.0
O108 O 0.24502 0.33237 0.26422 0.0
C109 C 0.2422 0.43286 0.30861 0.0
O110 O 0.26629 0.42395 0.30835 0.0
C111 C 0.18576 0.36678 0.24164 0.0
Zn112 Zn 0.17491 0.13509 0.30841 0.0
Zn113 Zn 0.18062 0.09242 0.28707 0.0
O114 O 0.20101 0.10958 0.25784 0.0
O115 O 0.19706 0.14797 0.27703 0.0
O116 O 0.1799 0.05333 0.28041 0.0
O117 O 0.19247 0.13017 0.34263 0.0
O118 O 0.20504 0.09616 0.31987 0.0
C119 C 0.20566 0.13406 0.25821 0.0
C120 C 0.12742 0.12404 0.29007 0.0
O121 O 0.14216 0.10573 0.28143 0.0
O122 O 0.13646 0.13963 0.30695 0.0
C123 C 0.1664 0.0422 0.26272 0.0
O124 O 0.15193 0.05666 0.24718 0.0
C125 C 0.20773 0.11093 0.33988 0.0
Zn126 Zn 0.36131 0.67271 0.75926 0.0
Zn127 Zn 0.40451 0.65836 0.76277 0.0
O128 O 0.40552 0.68084 0.72857 0.0
O129 O 0.37078 0.70413 0.73817 0.0
O130 O 0.44192 0.64733 0.76645 0.0
O131 O 0.3559 0.6767 0.79802 0.0
O132 O 0.39812 0.68211 0.79542 0.0
C133 C 0.39096 0.70066 0.72441 0.0
C134 C 0.36119 0.62076 0.7489 0.0
O135 O 0.38245 0.62368 0.76158 0.0
O136 O 0.34915 0.64073 0.74082 0.0
C137 C 0.45408 0.6371 0.74732 0.0
O138 O 0.44109 0.63169 0.72581 0.0
C139 C 0.37683 0.68508 0.80806 0.0
Zn140 Zn 0.81404 0.86454 0.2487 0.0
Zn141 Zn 0.8223 0.91179 0.26229 0.0
O142 O 0.80432 0.91443 0.22547 0.0
O143 O 0.79791 0.8733 0.21459 0.0
O144 O 0.82863 0.94997 0.26989 0.0
O145 O 0.79245 0.85865 0.281 0.0
O146 O 0.79614 0.90039 0.29118 0.0
C147 C 0.79612 0.89735 0.20922 0.0
C148 C 0.86707 0.87113 0.25855 0.0
O149 O 0.85936 0.89383 0.26576 0.0
O150 O 0.85105 0.85495 0.24909 0.0
C151 C 0.84008 0.96395 0.25284 0.0
O152 O 0.84926 0.95254 0.23169 0.0
C153 C 0.7871 0.87766 0.29598 0.0
Zn154 Zn 0.60655 0.3019 0.76382 0.0
Zn155 Zn 0.56738 0.32124 0.77206 0.0
O156 O 0.5637 0.29788 0.73848 0.0
O157 O 0.60365 0.30266 0.72471 0.0
O158 O 0.53045 0.33349 0.77701 0.0
O159 O 0.59674 0.26946 0.7841 0.0
O160 O 0.57616 0.30002 0.80561 0.0
C161 C 0.58049 0.29558 0.72024 0.0
C162 C 0.61539 0.35274 0.7782 0.0
O163 O 0.59207 0.35395 0.76937 0.0
O164 O 0.62562 0.33059 0.78219 0.0
C165 C 0.51786 0.34163 0.75718 0.0
O166 O 0.5305 0.34506 0.73509 0.0
C167 C 0.58652 0.27732 0.80521 0.0
Zn168 Zn 0.18192 0.86492 0.71753 0.0
Zn169 Zn 0.16766 0.90799 0.71993 0.0
O170 O 0.18977 0.90528 0.75396 0.0
O171 O 0.21422 0.87385 0.73806 0.0
O172 O 0.15793 0.94608 0.71915 0.0
O173 O 0.18423 0.86249 0.67846 0.0
O174 O 0.19225 0.9034 0.68737 0.0
C175 C 0.21049 0.89149 0.75502 0.0
C176 C 0.13063 0.8638 0.73129 0.0
O177 O 0.13263 0.88651 0.72114 0.0
O178 O 0.15099 0.85063 0.73588 0.0
C179 C 0.14987 0.95763 0.73967 0.0
O180 O 0.14533 0.94361 0.76069 0.0
C181 C 0.19497 0.88377 0.67212 0.0
Zn182 Zn 0.62766 0.68241 0.24442 0.0
Zn183 Zn 0.58147 0.67562 0.22928 0.0
O184 O 0.57807 0.69374 0.26618 0.0
O185 O 0.61896 0.70008 0.27764 0.0
O186 O 0.5435 0.66901 0.22083 0.0
O187 O 0.63548 0.70295 0.21168 0.0
O188 O 0.5938 0.70202 0.20108 0.0
C189 C 0.59489 0.70218 0.28256 0.0
C190 C 0.6214 0.62996 0.23426 0.0
O191 O 0.59981 0.63863 0.22512 0.0
O192 O 0.63676 0.64523 0.24602 0.0
C193 C 0.52982 0.65593 0.23692 0.0
O194 O 0.54138 0.64579 0.25751 0.0
C195 C 0.61707 0.70964 0.19656 0.0
Zn196 Zn 0.8083 0.12993 0.68491 0.0
Zn197 Zn 0.80935 0.0899 0.7097 0.0
O198 O 0.7882 0.10535 0.73883 0.0
O199 O 0.78156 0.13998 0.71408 0.0
O200 O 0.81344 0.05138 0.71731 0.0
O201 O 0.79514 0.11917 0.64986 0.0
O202 O 0.78195 0.09114 0.67898 0.0
C203 C 0.77689 0.12717 0.7349 0.0
C204 C 0.85721 0.12816 0.70383 0.0
O205 O 0.84643 0.10789 0.71373 0.0
O206 O 0.84458 0.14183 0.68767 0.0
C207 C 0.81677 0.042 0.74009 0.0
O208 O 0.81891 0.05809 0.76004 0.0
C209 C 0.7785 0.10248 0.65699 0.0
Zn210 Zn 0.37974 0.29994 0.24051 0.0
Zn211 Zn 0.41975 0.31764 0.23023 0.0
O212 O 0.42508 0.29358 0.26319 0.0
O213 O 0.38559 0.29687 0.27896 0.0
O214 O 0.45646 0.3291 0.22283 0.0
O215 O 0.38392 0.26875 0.21676 0.0
O216 O 0.40735 0.29812 0.19658 0.0
C217 C 0.40912 0.29018 0.28202 0.0
C218 C 0.37354 0.35244 0.22954 0.0
O219 O 0.39772 0.35177 0.23552 0.0
O220 O 0.36117 0.33127 0.22671 0.0
C221 C 0.46906 0.34088 0.24075 0.0
O222 O 0.45672 0.34717 0.26241 0.0
C223 C 0.39422 0.27694 0.19586 0.0
Zn224 Zn 0.26152 0.24349 0.14666 0.0
Zn225 Zn 0.27048 0.20323 0.1191 0.0
O226 O 0.23566 0.22074 0.10719 0.0
O227 O 0.23183 0.25872 0.12655 0.0
O228 O 0.27719 0.17915 0.08866 0.0
O229 O 0.29676 0.25931 0.14366 0.0
O230 O 0.30645 0.22206 0.12447 0.0
C231 C 0.22281 0.24182 0.11096 0.0
C232 C 0.25415 0.19171 0.17289 0.0
O233 O 0.2614 0.18163 0.15124 0.0
O234 O 0.25327 0.21648 0.17534 0.0
C235 C 0.25883 0.16512 0.07956 0.0
O236 O 0.23674 0.16392 0.0926 0.0
C237 C 0.31355 0.24417 0.13367 0.0
Zn238 Zn 0.29309 0.79487 0.81627 0.0
Zn239 Zn 0.28015 0.80094 0.86302 0.0
O240 O 0.24865 0.77875 0.85303 0.0
O241 O 0.26187 0.77013 0.81296 0.0
O242 O 0.27606 0.80816 0.90146 0.0
O243 O 0.32872 0.78097 0.82143 0.0
O244 O 0.31449 0.77819 0.86176 0.0
C245 C 0.24524 0.76733 0.83115 0.0
C246 C 0.27847 0.84636 0.82248 0.0
O247 O 0.27464 0.83751 0.8455 0.0
O248 O 0.28856 0.83166 0.80535 0.0
C249 C 0.25744 0.82196 0.91048 0.0
O250 O 0.24021 0.83176 0.89415 0.0
C251 C 0.33179 0.77291 0.84453 0.0
Zn252 Zn 0.66821 0.79666 0.3279 0.0
Zn253 Zn 0.67981 0.78087 0.37208 0.0
O254 O 0.69953 0.75076 0.35556 0.0
O255 O 0.68836 0.76357 0.31603 0.0
O256 O 0.6824 0.77651 0.4114 0.0
O257 O 0.68592 0.83103 0.32711 0.0
O258 O 0.70135 0.81497 0.36372 0.0
C259 C 0.69977 0.74721 0.33091 0.0
C260 C 0.62356 0.77836 0.34608 0.0
O261 O 0.64088 0.7721 0.36298 0.0
O262 O 0.62943 0.79488 0.32873 0.0
C263 C 0.6757 0.75533 0.42256 0.0
O264 O 0.6673 0.73584 0.40804 0.0
C265 C 0.70173 0.83258 0.34598 0.0
Zn266 Zn 0.71473 0.23918 0.83274 0.0
Zn267 Zn 0.71611 0.20524 0.86833 0.0
O268 O 0.75043 0.22704 0.87197 0.0
O269 O 0.74662 0.25828 0.84287 0.0
O270 O 0.71578 0.18458 0.90177 0.0
O271 O 0.68047 0.2545 0.84125 0.0
O272 O 0.67816 0.22114 0.86816 0.0
C273 C 0.75974 0.24717 0.86058 0.0
C274 C 0.72223 0.1856 0.81393 0.0
O275 O 0.72206 0.17971 0.83815 0.0
O276 O 0.71844 0.2091 0.80688 0.0
C277 C 0.73604 0.17378 0.91125 0.0
O278 O 0.75783 0.17423 0.89768 0.0
C279 C 0.66762 0.24103 0.85737 0.0
Zn280 Zn 0.32672 0.19456 0.33055 0.0
Zn281 Zn 0.3232 0.21219 0.37703 0.0
O282 O 0.29978 0.24046 0.36125 0.0
O283 O 0.30158 0.22461 0.3212 0.0
O284 O 0.32391 0.21814 0.41587 0.0
O285 O 0.3127 0.15868 0.33674 0.0
O286 O 0.30477 0.17584 0.37518 0.0
C287 C 0.29322 0.2417 0.33725 0.0
C288 C 0.37475 0.21485 0.34467 0.0
O289 O 0.361 0.22023 0.3648 0.0
O290 O 0.36506 0.2008 0.32677 0.0
C291 C 0.32859 0.23952 0.42765 0.0
O292 O 0.33327 0.2607 0.41388 0.0
C293 C 0.30227 0.15692 0.35906 0.0
Zn294 Zn 0.70199 0.82734 0.16198 0.0
Zn295 Zn 0.71622 0.81509 0.11765 0.0
O296 O 0.74688 0.79515 0.13283 0.0
O297 O 0.7356 0.80734 0.17259 0.0
O298 O 0.71828 0.81227 0.07808 0.0
O299 O 0.66775 0.80976 0.16481 0.0
O300 O 0.6824 0.79379 0.12778 0.0
C301 C 0.75136 0.79551 0.15734 0.0
C302 C 0.72031 0.87148 0.14352 0.0
O303 O 0.72612 0.85385 0.12672 0.0
O304 O 0.70351 0.8662 0.16077 0.0
C305 C 0.73602 0.82336 0.06467 0.0
O306 O 0.75396 0.83707 0.0769 0.0
C307 C 0.66545 0.79374 0.14616 0.0
Zn308 Zn 0.66639 0.19934 0.67676 0.0
Zn309 Zn 0.67107 0.21543 0.62924 0.0
O310 O 0.69527 0.2429 0.64562 0.0
O311 O 0.69181 0.22891 0.68616 0.0
O312 O 0.67183 0.22186 0.59058 0.0
O313 O 0.67933 0.16297 0.67053 0.0
O314 O 0.68633 0.17759 0.6309 0.0
C315 C 0.70113 0.24501 0.66975 0.0
C316 C 0.61889 0.22015 0.65972 0.0
O317 O 0.63316 0.2247 0.63981 0.0
O318 O 0.62805 0.20685 0.67844 0.0
C319 C 0.66291 0.24207 0.57923 0.0
O320 O 0.65301 0.26115 0.59338 0.0
C321 C 0.68806 0.15924 0.64772 0.0
Zn322 Zn 0.30628 0.7957 0.6713 0.0
Zn323 Zn 0.30691 0.78116 0.624 0.0
O324 O 0.28284 0.75223 0.6366 0.0
O325 O 0.28125 0.76503 0.67767 0.0
O326 O 0.31069 0.77513 0.58529 0.0
O327 O 0.29274 0.83171 0.66586 0.0
O328 O 0.28778 0.8175 0.62568 0.0
C329 C 0.27474 0.74892 0.65989 0.0
C330 C 0.35544 0.77666 0.66089 0.0
O331 O 0.34372 0.77227 0.63929 0.0
O332 O 0.34397 0.7898 0.67843 0.0
C333 C 0.32084 0.75436 0.57605 0.0
O334 O 0.32922 0.73633 0.59233 0.0
C335 C 0.28426 0.83525 0.64295 0.0
Zn336 Zn 0.84544 0.74614 0.81964 0.0
Zn337 Zn 0.89201 0.72679 0.82658 0.0
O338 O 0.89807 0.76446 0.8124 0.0
O339 O 0.85865 0.78121 0.80913 0.0
O340 O 0.92928 0.71643 0.83265 0.0
O341 O 0.83821 0.71743 0.79321 0.0
O342 O 0.87789 0.70137 0.7982 0.0
C343 C 0.88312 0.78372 0.80727 0.0
C344 C 0.85261 0.72934 0.87184 0.0
O345 O 0.87477 0.72179 0.86329 0.0
O346 O 0.83663 0.74076 0.85686 0.0
C347 C 0.94245 0.73158 0.84734 0.0
O348 O 0.93042 0.7511 0.85904 0.0
C349 C 0.85543 0.70055 0.78737 0.0
Zn350 Zn 0.80986 0.35502 0.3156 0.0
Zn351 Zn 0.78869 0.3988 0.31702 0.0
O352 O 0.75958 0.38372 0.29483 0.0
O353 O 0.78042 0.34635 0.28924 0.0
O354 O 0.78134 0.43726 0.32126 0.0
O355 O 0.84512 0.36398 0.30202 0.0
O356 O 0.82186 0.3987 0.29308 0.0
C357 C 0.76107 0.36118 0.2843 0.0
C358 C 0.79112 0.36141 0.36535 0.0
O359 O 0.78396 0.38259 0.3542 0.0
O360 O 0.80524 0.34536 0.35291 0.0
C361 C 0.75969 0.44716 0.3284 0.0
O362 O 0.74004 0.43158 0.33381 0.0
C363 C 0.84238 0.38495 0.28931 0.0
Zn364 Zn 0.16557 0.29767 0.8208 0.0
Zn365 Zn 0.11986 0.27911 0.81553 0.0
O366 O 0.13597 0.25157 0.79188 0.0
O367 O 0.17553 0.26817 0.79505 0.0
O368 O 0.0811 0.27304 0.81639 0.0
O369 O 0.15899 0.33385 0.80699 0.0
O370 O 0.12196 0.31516 0.79669 0.0
C371 C 0.16011 0.25097 0.7859 0.0
C372 C 0.15227 0.27458 0.86741 0.0
O373 O 0.13257 0.26971 0.85292 0.0
O374 O 0.16967 0.29001 0.8591 0.0
C375 C 0.06976 0.2521 0.82335 0.0
O376 O 0.08393 0.23175 0.83013 0.0
C377 C 0.13741 0.33464 0.79501 0.0
Zn378 Zn 0.183 0.63925 0.31982 0.0
Zn379 Zn 0.20303 0.59603 0.31336 0.0
O380 O 0.23224 0.61267 0.29227 0.0
O381 O 0.21406 0.65147 0.29703 0.0
O382 O 0.20867 0.55679 0.3137 0.0
O383 O 0.14826 0.63539 0.30324 0.0
O384 O 0.16919 0.60032 0.29034 0.0
C385 C 0.23226 0.63719 0.28779 0.0
C386 C 0.20205 0.6272 0.3669 0.0
O387 O 0.2099 0.60876 0.35187 0.0
O388 O 0.18547 0.64333 0.35828 0.0
C389 C 0.22798 0.54509 0.32413 0.0
O390 O 0.24642 0.55904 0.3353 0.0
C391 C 0.14955 0.6157 0.28838 0.0
Zn392 Zn 0.8285 0.30799 0.17206 0.0
Zn393 Zn 0.87543 0.28995 0.17229 0.0
O394 O 0.86042 0.26246 0.19678 0.0
O395 O 0.82079 0.27913 0.199 0.0
O396 O 0.91362 0.28184 0.16988 0.0
O397 O 0.83725 0.34412 0.1844 0.0
O398 O 0.87577 0.32642 0.19026 0.0
C399 C 0.83728 0.26183 0.20583 0.0
C400 C 0.84011 0.2867 0.123 0.0
O401 O 0.8614 0.28222 0.13515 0.0
O402 O 0.8224 0.29997 0.13412 0.0
C403 C 0.92267 0.25958 0.16352 0.0
O404 O 0.90635 0.24049 0.15817 0.0
C405 C 0.86019 0.34567 0.19343 0.0
Zn406 Zn 0.20674 0.36205 0.6837 0.0
Zn407 Zn 0.20513 0.40441 0.6675 0.0
O408 O 0.24117 0.40493 0.6861 0.0
O409 O 0.22973 0.37392 0.71326 0.0
O410 O 0.20204 0.44142 0.65509 0.0
O411 O 0.16841 0.35813 0.69023 0.0
O412 O 0.1755 0.39986 0.69565 0.0
C413 C 0.24495 0.39239 0.70724 0.0
C414 C 0.21539 0.35897 0.6314 0.0
O415 O 0.20422 0.38121 0.63358 0.0
O416 O 0.22263 0.34694 0.65168 0.0
C417 C 0.22068 0.45121 0.64191 0.0
O418 O 0.24006 0.43592 0.63472 0.0
C419 C 0.16187 0.37957 0.70068 0.0
Zn420 Zn 0.14901 0.69315 0.16456 0.0
Zn421 Zn 0.10404 0.71192 0.17069 0.0
O422 O 0.12141 0.74042 0.19257 0.0
O423 O 0.16096 0.72455 0.18679 0.0
O424 O 0.06536 0.71951 0.17117 0.0
O425 O 0.14408 0.65845 0.18129 0.0
O426 O 0.10633 0.67626 0.19081 0.0
C427 C 0.14596 0.74199 0.19632 0.0
C428 C 0.13425 0.71189 0.11718 0.0
O429 O 0.1156 0.71901 0.13223 0.0
O430 O 0.15123 0.69614 0.12581 0.0
C431 C 0.05481 0.73992 0.16162 0.0
O432 O 0.0697 0.75768 0.15062 0.0
C433 C 0.12256 0.6574 0.19329 0.0
Zn434 Zn 0.80352 0.66943 0.67702 0.0
Zn435 Zn 0.78167 0.60048 0.68459 0.0
O436 O 0.75217 0.62534 0.69704 0.0
O437 O 0.76654 0.66675 0.69339 0.0
O438 O 0.77228 0.56231 0.68998 0.0
O439 O 0.82733 0.637 0.68229 0.0
O440 O 0.81217 0.60834 0.70934 0.0
C441 C 0.74898 0.65015 0.69983 0.0
C442 C 0.79509 0.62847 0.63997 0.0
O443 O 0.78549 0.60629 0.64511 0.0
O444 O 0.8124 0.63647 0.65585 0.0
C445 C 0.75501 0.55018 0.67682 0.0
O446 O 0.74134 0.56309 0.65931 0.0
C447 C 0.82789 0.62698 0.70501 0.0
Zn448 Zn 0.82142 0.83159 0.71642 0.0
Zn449 Zn 0.80734 0.87554 0.73135 0.0
O450 O 0.78694 0.85883 0.76104 0.0
O451 O 0.80125 0.81979 0.74955 0.0
O452 O 0.80444 0.91485 0.73379 0.0
O453 O 0.80453 0.82988 0.68174 0.0
O454 O 0.78813 0.86687 0.69609 0.0
C455 C 0.78828 0.83426 0.76518 0.0
C456 C 0.86447 0.85209 0.73542 0.0
O457 O 0.84601 0.86781 0.74145 0.0
O458 O 0.86013 0.83498 0.71813 0.0
C459 C 0.8145 0.92839 0.75207 0.0
O460 O 0.82621 0.91633 0.77148 0.0
C461 C 0.78904 0.84886 0.67875 0.0
Zn462 Zn 0.65393 0.25297 0.23082 0.0
Zn463 Zn 0.62161 0.29026 0.22629 0.0
O464 O 0.61236 0.27142 0.26128 0.0
O465 O 0.63886 0.23774 0.26318 0.0
O466 O 0.59005 0.31304 0.22135 0.0
O467 O 0.64684 0.23584 0.19679 0.0
O468 O 0.62475 0.27197 0.18961 0.0
C469 C 0.6208 0.25126 0.27329 0.0
C470 C 0.6764 0.3059 0.23571 0.0
O471 O 0.65288 0.3138 0.23357 0.0
O472 O 0.68167 0.28165 0.23412 0.0
C473 C 0.58103 0.32708 0.2398 0.0
O474 O 0.5945 0.32898 0.26159 0.0
C475 C 0.63416 0.25033 0.18135 0.0
Zn476 Zn 0.25997 0.12953 0.73229 0.0
Zn477 Zn 0.21753 0.10345 0.73116 0.0
O478 O 0.23754 0.09223 0.76479 0.0
O479 O 0.27587 0.111 0.7629 0.0
O480 O 0.19061 0.07517 0.72771 0.0
O481 O 0.27177 0.12206 0.69575 0.0
O482 O 0.23289 0.10449 0.6935 0.0
C483 C 0.25993 0.09642 0.77487 0.0
C484 C 0.2108 0.15982 0.74129 0.0
O485 O 0.19912 0.13795 0.73888 0.0
O486 O 0.2355 0.16083 0.73918 0.0
C487 C 0.17688 0.06699 0.74669 0.0
O488 O 0.17815 0.07937 0.76918 0.0
C489 C 0.25386 0.11179 0.6822 0.0
Zn490 Zn 0.34784 0.74396 0.23431 0.0
Zn491 Zn 0.37362 0.70345 0.2273 0.0
O492 O 0.38433 0.72157 0.26249 0.0
O493 O 0.36637 0.76035 0.2643 0.0
O494 O 0.40553 0.68134 0.21995 0.0
O495 O 0.35046 0.76012 0.19918 0.0
O496 O 0.36589 0.72094 0.19087 0.0
C497 C 0.38086 0.74319 0.27455 0.0
C498 C 0.32034 0.69224 0.24201 0.0
O499 O 0.34203 0.68122 0.23648 0.0
O500 O 0.31869 0.7171 0.24197 0.0
C501 C 0.41725 0.6693 0.23826 0.0
O502 O 0.40603 0.66812 0.26134 0.0
C503 C 0.35781 0.74316 0.18278 0.0
Zn504 Zn 0.73999 0.14206 0.26095 0.0
Zn505 Zn 0.78098 0.11606 0.26408 0.0
O506 O 0.76179 0.1058 0.22936 0.0
O507 O 0.72363 0.1251 0.22995 0.0
O508 O 0.80495 0.08528 0.26957 0.0
O509 O 0.72525 0.13646 0.29648 0.0
O510 O 0.76505 0.12159 0.30151 0.0
C511 C 0.73989 0.11048 0.2184 0.0
C512 C 0.79042 0.17083 0.25289 0.0
O513 O 0.8017 0.14871 0.25545 0.0
O514 O 0.76571 0.1725 0.25489 0.0
C515 C 0.8183 0.07521 0.25118 0.0
O516 O 0.8189 0.08711 0.22843 0.0
C517 C 0.74329 0.12876 0.31144 0.0
Zn518 Zn 0.30858 0.29618 0.78131 0.0
Zn519 Zn 0.35682 0.30567 0.77406 0.0
O520 O 0.34945 0.28165 0.74228 0.0
O521 O 0.30893 0.27045 0.75132 0.0
O522 O 0.39517 0.31377 0.77217 0.0
O523 O 0.31182 0.28437 0.81759 0.0
O524 O 0.35415 0.28767 0.81109 0.0
C525 C 0.32888 0.26874 0.73676 0.0
C526 C 0.31568 0.34917 0.76865 0.0
O527 O 0.33946 0.34188 0.76732 0.0
O528 O 0.2982 0.33297 0.77501 0.0
C529 C 0.40495 0.32976 0.75588 0.0
O530 O 0.38959 0.34115 0.73873 0.0
C531 C 0.3349 0.28156 0.82573 0.0
Zn532 Zn 0.25125 0.85787 0.25433 0.0
Zn533 Zn 0.21117 0.88326 0.2601 0.0
O534 O 0.23036 0.89263 0.22512 0.0
O535 O 0.26981 0.87646 0.22558 0.0
O536 O 0.19105 0.91661 0.2676 0.0
O537 O 0.26619 0.85782 0.2902 0.0
O538 O 0.22649 0.87239 0.29681 0.0
C539 C 0.25245 0.88961 0.21395 0.0
C540 C 0.19897 0.83152 0.2432 0.0
O541 O 0.18794 0.85305 0.24946 0.0
O542 O 0.22379 0.82969 0.24414 0.0
C543 C 0.17998 0.92956 0.24947 0.0
O544 O 0.1785 0.91913 0.22602 0.0
C545 C 0.24805 0.86362 0.30588 0.0
Zn546 Zn 0.62249 0.74728 0.75005 0.0
Zn547 Zn 0.59889 0.70411 0.75427 0.0
O548 O 0.58712 0.72267 0.72007 0.0
O549 O 0.60163 0.76283 0.72064 0.0
O550 O 0.5709 0.67733 0.7596 0.0
O551 O 0.61859 0.75988 0.78695 0.0
O552 O 0.60241 0.72052 0.7914 0.0
C553 C 0.58908 0.74496 0.70904 0.0
C554 C 0.65347 0.69816 0.73966 0.0
O555 O 0.63272 0.68566 0.74522 0.0
O556 O 0.65349 0.72305 0.74056 0.0
C557 C 0.5633 0.66166 0.74188 0.0
O558 O 0.57575 0.66117 0.71941 0.0
C559 C 0.61001 0.74199 0.80163 0.0
Zn560 Zn 0.72668 0.73056 0.8817 0.0
Zn561 Zn 0.72424 0.77109 0.90821 0.0
O562 O 0.75545 0.74716 0.91914 0.0
O563 O 0.75237 0.70855 0.90117 0.0
O564 O 0.71963 0.79299 0.94098 0.0
O565 O 0.68923 0.72068 0.88073 0.0
O566 O 0.68637 0.76018 0.8971 0.0
C567 C 0.76452 0.72407 0.91603 0.0
C568 C 0.74365 0.78126 0.85609 0.0
O569 O 0.73805 0.79257 0.87766 0.0
O570 O 0.7405 0.75663 0.85393 0.0
C571 C 0.73958 0.80239 0.95247 0.0
O572 O 0.76239 0.80059 0.94085 0.0
C573 C 0.67537 0.7402 0.88692 0.0
Zn574 Zn 0.73671 0.2001 0.11359 0.0
Zn575 Zn 0.72872 0.18106 0.07406 0.0
O576 O 0.76013 0.20714 0.0692 0.0
O577 O 0.77527 0.20377 0.10894 0.0
O578 O 0.72228 0.16875 0.03725 0.0
O579 O 0.71245 0.23054 0.10722 0.0
O580 O 0.69386 0.19871 0.08578 0.0
C581 C 0.77853 0.21089 0.08557 0.0
C582 C 0.72831 0.14762 0.12111 0.0
O583 O 0.73587 0.14798 0.09731 0.0
O584 O 0.72288 0.16894 0.13242 0.0
C585 C 0.74135 0.16068 0.02349 0.0
O586 O 0.76439 0.1583 0.03458 0.0
C587 C 0.69196 0.22057 0.09774 0.0
Zn588 Zn 0.23995 0.22167 0.61097 0.0
Zn589 Zn 0.27937 0.22618 0.58426 0.0
O590 O 0.25523 0.25872 0.57834 0.0
O591 O 0.21882 0.25232 0.5997 0.0
O592 O 0.30118 0.22501 0.5515 0.0
O593 O 0.2281 0.18571 0.60192 0.0
O594 O 0.26918 0.18696 0.59065 0.0
C595 C 0.23258 0.26667 0.58514 0.0
C596 C 0.29142 0.23221 0.63834 0.0
O597 O 0.30144 0.23522 0.61574 0.0
O598 O 0.26742 0.22613 0.6406 0.0
C599 C 0.30782 0.24555 0.53921 0.0
O600 O 0.30266 0.26852 0.54963 0.0
C601 C 0.24898 0.17363 0.59663 0.0
Zn602 Zn 0.24317 0.79301 0.11694 0.0
Zn603 Zn 0.25482 0.80931 0.07521 0.0
O604 O 0.22048 0.78719 0.07002 0.0
O605 O 0.20544 0.78754 0.11009 0.0
O606 O 0.26352 0.81824 0.03798 0.0
O607 O 0.26862 0.763 0.11652 0.0
O608 O 0.2877 0.78935 0.08881 0.0
C609 C 0.20196 0.78286 0.08612 0.0
C610 C 0.2543 0.84663 0.11996 0.0
O611 O 0.25134 0.84486 0.09525 0.0
O612 O 0.25418 0.82622 0.13387 0.0
C613 C 0.24596 0.82842 0.02363 0.0
O614 O 0.22346 0.83475 0.0343 0.0
C615 C 0.28897 0.7699 0.10439 0.0
Zn616 Zn 0.69207 0.74784 0.63781 0.0
Zn617 Zn 0.68938 0.75392 0.59083 0.0
O618 O 0.71127 0.71928 0.59498 0.0
O619 O 0.72132 0.72233 0.63673 0.0
O620 O 0.68686 0.75928 0.55163 0.0
O621 O 0.69967 0.78576 0.64475 0.0
O622 O 0.71053 0.7863 0.60328 0.0
C623 C 0.72407 0.7112 0.61486 0.0
C624 C 0.64084 0.74292 0.62411 0.0
O625 O 0.65026 0.75398 0.60384 0.0
O626 O 0.6561 0.7343 0.64147 0.0
C627 C 0.6799 0.74116 0.53606 0.0
O628 O 0.67381 0.71817 0.54577 0.0
C629 C 0.71041 0.79725 0.62572 0.0
Zn630 Zn 0.25264 0.18507 0.87619 0.0
Zn631 Zn 0.26517 0.17057 0.9167 0.0
O632 O 0.23116 0.19378 0.92037 0.0
O633 O 0.214 0.18503 0.88233 0.0
O634 O 0.27266 0.16021 0.95391 0.0
O635 O 0.27315 0.21817 0.8807 0.0
O636 O 0.29713 0.19334 0.90603 0.0
C637 C 0.21164 0.19482 0.90487 0.0
C638 C 0.26839 0.13469 0.87031 0.0
O639 O 0.26296 0.13566 0.89468 0.0
O640 O 0.26915 0.15561 0.85728 0.0
C641 C 0.25528 0.14919 0.96776 0.0
O642 O 0.23296 0.14286 0.95676 0.0
C643 C 0.29431 0.21428 0.89283 0.0
Zn644 Zn 0.28357 0.73849 0.36779 0.0
Zn645 Zn 0.30028 0.74881 0.41117 0.0
O646 O 0.27751 0.71458 0.41559 0.0
O647 O 0.27236 0.70233 0.37474 0.0
O648 O 0.30919 0.7569 0.44869 0.0
O649 O 0.25773 0.76789 0.36607 0.0
O650 O 0.28237 0.78314 0.39765 0.0
C651 C 0.27001 0.69765 0.39882 0.0
C652 C 0.33869 0.74419 0.36733 0.0
O653 O 0.33598 0.74406 0.39213 0.0
O654 O 0.31888 0.74377 0.3526 0.0
C655 C 0.31891 0.73901 0.46297 0.0
O656 O 0.32431 0.71623 0.45228 0.0
C657 C 0.26485 0.78685 0.38026 0.0
Zn658 Zn 0.71408 0.24543 0.37455 0.0
Zn659 Zn 0.69353 0.2408 0.41526 0.0
O660 O 0.71846 0.27332 0.41942 0.0
O661 O 0.72314 0.28294 0.37792 0.0
O662 O 0.68138 0.23487 0.45208 0.0
O663 O 0.74138 0.21768 0.37931 0.0
O664 O 0.70944 0.20457 0.4043 0.0
C665 C 0.72592 0.28912 0.40165 0.0
C666 C 0.65953 0.24088 0.36891 0.0
O667 O 0.66024 0.24767 0.39291 0.0
O668 O 0.68054 0.23563 0.35701 0.0
C669 C 0.6738 0.25375 0.46642 0.0
O670 O 0.6724 0.27732 0.45627 0.0
C671 C 0.72983 0.19924 0.39093 0.0
C672 C 0.96109 0.22925 0.16102 0.0
C673 C 0.95129 0.25488 0.16364 0.0
C674 C 0.98792 0.22403 0.16285 0.0
C675 C 0.00605 0.24422 0.16736 0.0
H676 H 0.94793 0.21293 0.15814 0.0
H677 H 0.99436 0.20388 0.16134 0.0
S678 S 0.99078 0.31512 0.17306 0.0
N679 N 0.96211 0.30097 0.16913 0.0
N680 N 0.01242 0.29115 0.17254 0.0
C681 C -0.00338 0.27007 0.16902 0.0
C682 C 0.9693 0.2754 0.16717 0.0
C683 C 0.20407 0.52262 0.65094 0.0
C684 C 0.22859 0.5349 0.64883 0.0
C685 C 0.20129 0.49575 0.64661 0.0
C686 C 0.22284 0.48006 0.6398 0.0
H687 H 0.18714 0.53345 0.65769 0.0
H688 H 0.18235 0.487 0.65014 0.0
S689 S 0.29007 0.50361 0.62612 0.0
N690 N 0.27393 0.53008 0.63531 0.0
N691 N 0.26866 0.47951 0.62695 0.0
C692 C 0.24684 0.49255 0.63476 0.0
C693 C 0.24971 0.52 0.63931 0.0
C694 C 0.01036 0.72291 0.17258 0.0
C695 C 0.0261 0.74376 0.164 0.0
C696 C 0.98357 0.72626 0.17709 0.0
C697 C 0.97132 0.75068 0.17345 0.0
H698 H 0.01884 0.70386 0.17641 0.0
H699 H 0.97265 0.70971 0.18447 0.0
S700 S 0.00315 0.81106 0.14877 0.0
N701 N 0.027 0.78931 0.15014 0.0
N702 N 0.97668 0.79564 0.15879 0.0
C703 C 0.98655 0.77144 0.16372 0.0
C704 C 0.01389 0.76797 0.15896 0.0
C705 C 0.76786 0.47976 0.69735 0.0
C706 C 0.74518 0.46641 0.68932 0.0
C707 C 0.77076 0.50673 0.69323 0.0
C708 C 0.75129 0.52153 0.68056 0.0
H709 H 0.78328 0.46949 0.70761 0.0
H710 H 0.78848 0.51603 0.70011 0.0
S711 S 0.68867 0.49581 0.65447 0.0
N712 N 0.7032 0.46997 0.66731 0.0
N713 N 0.70882 0.52056 0.65923 0.0
C714 C 0.72881 0.50833 0.67176 0.0
C715 C 0.72572 0.48085 0.67623 0.0
C716 C 0.98565 0.75363 0.85207 0.0
C717 C 0.97134 0.73073 0.84676 0.0
C718 C 0.01243 0.75507 0.84664 0.0
C719 C 0.02594 0.73361 0.83587 0.0
H720 H 0.97586 0.77116 0.85894 0.0
H721 H 0.02219 0.77364 0.84957 0.0
S722 S -0.00158 0.6674 0.8237 0.0
N723 N 0.9733 0.68498 0.83388 0.0
N724 N 0.0237 0.6874 0.82405 0.0
C725 C 0.01232 0.70982 0.83286 0.0
C726 C 0.98499 0.70846 0.83817 0.0
C727 C 0.72659 0.51342 0.32196 0.0
C728 C 0.74776 0.53055 0.31815 0.0
C729 C 0.73061 0.48665 0.32659 0.0
C730 C 0.75596 0.47597 0.32756 0.0
H731 H 0.70669 0.52041 0.32001 0.0
H732 H 0.71367 0.47409 0.32815 0.0
S733 S 0.81804 0.51325 0.3236 0.0
N734 N 0.79502 0.53547 0.31915 0.0
N735 N 0.80258 0.48527 0.3278 0.0
C736 C 0.7773 0.49322 0.32574 0.0
C737 C 0.7732 0.52046 0.32107 0.0
C738 C 0.02837 0.22597 0.82399 0.0
C739 C 0.0408 0.25046 0.8227 0.0
C740 C 0.00117 0.22377 0.8216 0.0
C741 C 0.98524 0.24598 0.81791 0.0
H742 H 0.03976 0.20821 0.82617 0.0
H743 H 0.9927 0.20436 0.82198 0.0
S744 S 0.00786 0.31501 0.81606 0.0
N745 N 0.03485 0.29765 0.81954 0.0
N746 N 0.98385 0.29353 0.81513 0.0
C747 C -0.00268 0.27072 0.81773 0.0
C748 C 0.02503 0.27295 0.82008 0.0
C749 C 0.2578 0.4768 0.32391 0.0
C750 C 0.23704 0.46072 0.31563 0.0
C751 C 0.25449 0.50387 0.32734 0.0
C752 C 0.23032 0.51609 0.32248 0.0
H753 H 0.27707 0.4686 0.32707 0.0
H754 H 0.2713 0.51537 0.33305 0.0
S755 S 0.16888 0.48261 0.30323 0.0
N756 N 0.19077 0.4589 0.30475 0.0
N757 N 0.18463 0.50966 0.31103 0.0
C758 C 0.20907 0.50012 0.31532 0.0
C759 C 0.21239 0.47251 0.31199 0.0
C760 C 0.18264 0.97075 0.27602 0.0
C761 C 0.17341 0.95767 0.25359 0.0
C762 C 0.17987 -0.0021 0.27891 0.0
C763 C 0.16753 0.01323 0.25963 0.0
H764 H 0.19292 0.96011 0.29117 0.0
H765 H 0.18787 0.00697 0.29631 0.0
S766 S 0.13789 0.98831 0.19812 0.0
N767 N 0.14997 0.96198 0.21241 0.0
N768 N 0.14459 0.01295 0.21792 0.0
C769 C 0.15722 0.00028 0.23758 0.0
C770 C 0.16019 0.97257 0.23455 0.0
C771 C 0.52329 0.64201 0.72194 0.0
C772 C 0.53737 0.6491 0.7445 0.0
C773 C 0.49661 0.63607 0.72329 0.0
C774 C 0.48304 0.63702 0.74723 0.0
H775 H 0.53242 0.64278 0.70285 0.0
H776 H 0.48626 0.63245 0.70516 0.0
S777 S 0.51238 0.64843 0.81266 0.0
N778 N 0.53684 0.65227 0.79199 0.0
N779 N 0.48672 0.64114 0.79451 0.0
C780 C 0.4975 0.64144 0.77022 0.0
C781 C 0.52466 0.64747 0.76885 0.0
C782 C 0.83829 0.03498 0.23151 0.0
C783 C 0.82843 0.04801 0.2537 0.0
C784 C 0.84349 0.00803 0.23191 0.0
C785 C 0.83894 0.99296 0.25448 0.0
H786 H 0.84088 0.04534 0.21324 0.0
H787 H 0.84986 -0.0012 0.21392 0.0
S788 S 0.81767 0.01837 0.31915 0.0
N789 N 0.81764 0.04432 0.29996 0.0
N790 N 0.82724 0.99369 0.30059 0.0
C791 C 0.83098 0.00606 0.27738 0.0
C792 C 0.8258 0.03356 0.27702 0.0
C793 C 0.47554 0.32998 0.77848 0.0
C794 C 0.48887 0.342 0.75765 0.0
C795 C 0.44844 0.32655 0.77783 0.0
C796 C 0.43341 0.3352 0.75645 0.0
H797 H 0.48617 0.32224 0.79508 0.0
H798 H 0.43928 0.31663 0.79413 0.0
S799 S 0.45848 0.37013 0.69799 0.0
N800 N 0.48475 0.36419 0.71577 0.0
N801 N 0.43373 0.3579 0.71464 0.0
C802 C 0.4463 0.34834 0.73601 0.0
C803 C 0.47401 0.35169 0.73659 0.0
C804 C 0.16478 0.02752 0.72052 0.0
C805 C 0.16426 0.04091 0.74461 0.0
C806 C 0.15827 0.00099 0.71881 0.0
C807 C 0.15093 0.98667 0.74112 0.0
H808 H 0.17159 0.03719 0.70296 0.0
H809 H 0.16035 0.99137 0.70002 0.0
S810 S 0.14169 0.01371 0.808 0.0
N811 N 0.15226 0.03874 0.79063 0.0
N812 N 0.13995 0.98884 0.78742 0.0
C813 C 0.148 0.00037 0.76489 0.0
C814 C 0.15467 0.02749 0.76663 0.0
C815 C 0.4586 0.65081 0.25679 0.0
C816 C 0.44519 0.66167 0.23534 0.0
C817 C 0.48581 0.64774 0.25652 0.0
C818 C 0.50085 0.65552 0.23484 0.0
H819 H 0.44818 0.64562 0.27447 0.0
H820 H 0.49516 0.64031 0.27401 0.0
S821 S 0.47502 0.68126 0.17206 0.0
N822 N 0.44887 0.67737 0.19052 0.0
N823 N 0.49999 0.67174 0.19014 0.0
C824 C 0.48757 0.66472 0.21255 0.0
C825 C 0.45978 0.66773 0.21275 0.0
C826 C 0.80801 -0.00326 0.72361 0.0
C827 C 0.81655 0.01317 0.74401 0.0
C828 C 0.80703 0.96953 0.72664 0.0
C829 C 0.81477 0.95743 0.75013 0.0
H830 H 0.80181 0.00492 0.70508 0.0
H831 H 0.80038 0.9579 0.71022 0.0
S832 S 0.83876 0.99152 0.80968 0.0
N833 N 0.83286 0.01531 0.78867 0.0
N834 N 0.8312 0.96412 0.79431 0.0
C835 C 0.82336 0.97359 0.77075 0.0
C836 C 0.82419 0.00142 0.76771 0.0
C837 C 0.5381 0.32965 0.21665 0.0
C838 C 0.55345 0.33611 0.23858 0.0
C839 C 0.51095 0.33289 0.21691 0.0
C840 C 0.49796 0.3428 0.23909 0.0
H841 H 0.54688 0.32069 0.19956 0.0
H842 H 0.50001 0.32632 0.20001 0.0
S843 S 0.5296 0.36744 0.29971 0.0
N844 N 0.55401 0.35638 0.2817 0.0
N845 N 0.50296 0.36256 0.28218 0.0
C846 C 0.51327 0.35155 0.26026 0.0
C847 C 0.54101 0.34819 0.26001 0.0
C848 C 0.23702 0.14728 0.03956 0.0
C849 C 0.26004 0.15565 0.05208 0.0
C850 C 0.23612 0.14356 0.01241 0.0
C851 C 0.25819 0.14808 -0.00335 0.0
H852 H 0.21908 0.14498 0.05053 0.0
H853 H 0.21754 0.13852 0.00364 0.0
S854 S 0.32464 0.16493 0.02039 0.0
N855 N 0.30648 0.16447 0.04706 0.0
N856 N 0.30477 0.15752 0.99606 0.0
C857 C 0.28192 0.15417 0.00917 0.0
C858 C 0.28285 0.15793 0.03686 0.0
C859 C 0.27126 0.81716 0.9833 0.0
C860 C 0.24955 0.82957 0.99482 0.0
C861 C 0.27382 0.81531 0.95609 0.0
C862 C 0.25485 0.82588 0.93917 0.0
H863 H 0.28613 0.80807 0.99533 0.0
H864 H 0.29067 0.80504 0.94834 0.0
S865 S 0.19541 0.86256 0.95935 0.0
N866 N 0.20952 0.85419 0.98714 0.0
N867 N 0.21437 0.85078 0.936 0.0
C868 C 0.23354 0.8393 0.95039 0.0
C869 C 0.23089 0.84112 0.97818 0.0
C870 C 0.6717 0.72504 0.49043 0.0
C871 C 0.67896 0.74562 0.50726 0.0
C872 C 0.67076 0.72842 0.46322 0.0
C873 C 0.67706 0.75253 0.45154 0.0
H874 H 0.66669 0.70601 0.49826 0.0
H875 H 0.66505 0.71185 0.45129 0.0
S876 S 0.69711 0.81293 0.48676 0.0
N877 N 0.69244 0.7912 0.51014 0.0
N878 N 0.6907 0.79753 0.4591 0.0
C879 C 0.68433 0.77336 0.46811 0.0
C880 C 0.68527 0.76992 0.49589 0.0
C881 C 0.7615 0.15776 0.97899 0.0
C882 C 0.73885 0.15896 0.99458 0.0
C883 C 0.76023 0.16093 0.9518 0.0
C884 C 0.73626 0.16542 0.93907 0.0
H885 H 0.78058 0.15571 0.98791 0.0
H886 H 0.77838 0.1612 0.94092 0.0
S887 S 0.67076 0.1653 0.97033 0.0
N888 N 0.69137 0.16132 0.99484 0.0
N889 N 0.68897 0.16722 0.94377 0.0
C890 C 0.71326 0.16451 0.95416 0.0
C891 C 0.71456 0.1613 0.98189 0.0
C892 C 0.31867 0.26646 0.49625 0.0
C893 C 0.31697 0.24369 0.51167 0.0
C894 C 0.32347 0.26503 0.46927 0.0
C895 C 0.32666 0.24077 0.4566 0.0
H896 H 0.3153 0.28557 0.50483 0.0
H897 H 0.32365 0.28305 0.45814 0.0
S898 S 0.32776 0.17553 0.48857 0.0
N899 N 0.32167 0.19627 0.5126 0.0
N900 N 0.33055 0.19359 0.462 0.0
C901 C 0.32652 0.21794 0.47201 0.0
C902 C 0.32174 0.2194 0.49949 0.0
C903 C 0.71564 0.8081 0.02267 0.0
C904 C 0.73665 0.82024 0.03568 0.0
C905 C 0.71622 0.80358 0.99559 0.0
C906 C 0.73794 0.81077 0.98033 0.0
H907 H 0.69869 0.80162 0.03352 0.0
H908 H 0.69983 0.79351 0.98677 0.0
S909 S 0.79722 0.84502 0.00432 0.0
N910 N 0.77921 0.84085 0.03075 0.0
N911 N 0.78033 0.83216 0.98 0.0
C912 C 0.75869 0.82376 0.99288 0.0
C913 C 0.75804 0.82853 0.02047 0.0
C914 C 0.66037 0.26853 0.53809 0.0
C915 C 0.66424 0.24418 0.55031 0.0
C916 C 0.66284 0.27127 0.51091 0.0
C917 C 0.66914 0.24976 0.49482 0.0
H918 H 0.65596 0.28579 0.54962 0.0
H919 H 0.66025 0.29058 0.50258 0.0
S920 S 0.67896 0.18118 0.51693 0.0
N921 N 0.67311 0.19775 0.54404 0.0
N922 N 0.67764 0.20286 0.49309 0.0
C923 C 0.67216 0.22509 0.50672 0.0
C924 C 0.66976 0.22232 0.5344 0.0
C925 C 0.31212 0.76621 0.50319 0.0
C926 C 0.32157 0.74302 0.49166 0.0
C927 C 0.31239 0.76979 0.53036 0.0
C928 C 0.32217 0.75036 0.54726 0.0
H929 H 0.3039 0.78164 0.49121 0.0
H930 H 0.30447 0.78787 0.53813 0.0
S931 S 0.35089 0.68663 0.52698 0.0
N932 N 0.34224 0.70074 0.49928 0.0
N933 N 0.34275 0.70747 0.55031 0.0
C934 C 0.33241 0.72734 0.53599 0.0
C935 C 0.33211 0.72368 0.50824 0.0
C936 C 0.15284 0.33728 0.26135 0.0
C937 C 0.15988 0.35395 0.24063 0.0
C938 C 0.136 0.31605 0.25715 0.0
C939 C 0.12505 0.31133 0.23237 0.0
H940 H 0.16287 0.33852 0.27997 0.0
H941 H 0.13359 0.30184 0.27267 0.0
S942 S 0.13222 0.35311 0.17364 0.0
N943 N 0.15102 0.36711 0.19588 0.0
N944 N 0.11862 0.32776 0.18826 0.0
C945 C 0.12884 0.33011 0.21269 0.0
C946 C 0.14646 0.35136 0.21677 0.0
C947 C 0.11462 0.63698 0.76909 0.0
C948 C 0.105 0.64844 0.74597 0.0
C949 C 0.13453 0.61815 0.76803 0.0
C950 C 0.14502 0.61011 0.74386 0.0
H951 H 0.10983 0.64528 0.78801 0.0
H952 H 0.1441 0.61274 0.78615 0.0
S953 S 0.11712 0.62484 0.67851 0.0
N954 N 0.10055 0.6437 0.6989 0.0
N955 N 0.13753 0.60778 0.69683 0.0
C956 C 0.13108 0.61673 0.72104 0.0
C957 C 0.11105 0.63615 0.72212 0.0
C958 C 0.84342 0.63567 0.21673 0.0
C959 C 0.83184 0.62462 0.23912 0.0
C960 C 0.86345 0.65422 0.21893 0.0
C961 C 0.87237 0.66255 0.24364 0.0
H962 H 0.8351 0.63217 0.19755 0.0
H963 H 0.86956 0.6643 0.20135 0.0
S964 S 0.85522 0.63281 0.30743 0.0
N965 N 0.83599 0.61799 0.28614 0.0
N966 N 0.87322 0.6533 0.29021 0.0
C967 C 0.86418 0.64838 0.26569 0.0
C968 C 0.844 0.62923 0.26345 0.0
C969 C 0.86579 0.34355 0.73409 0.0
C970 C 0.87698 0.33348 0.75717 0.0
C971 C 0.84529 0.36179 0.7351 0.0
C972 C 0.83523 0.37043 0.75925 0.0
H973 H 0.87061 0.33493 0.71532 0.0
H974 H 0.83526 0.36642 0.71702 0.0
S975 S 0.86468 0.3582 0.82436 0.0
N976 N 0.88179 0.33962 0.80416 0.0
N977 N 0.84302 0.37363 0.80603 0.0
C978 C 0.84945 0.36428 0.78197 0.0
C979 C 0.87053 0.3459 0.78093 0.0
C980 C 0.27977 0.11609 0.34474 0.0
C981 C 0.28207 0.13647 0.3632 0.0
C982 C 0.25571 0.10383 0.34023 0.0
C983 C 0.23314 0.11185 0.35381 0.0
H984 H 0.2958 0.11164 0.33162 0.0
H985 H 0.25423 0.09072 0.32362 0.0
S986 S 0.23125 0.15656 0.41098 0.0
N987 N 0.26169 0.15819 0.40043 0.0
N988 N 0.21639 0.13539 0.39162 0.0
C989 C 0.23643 0.12836 0.37562 0.0
C990 C 0.26098 0.1407 0.38038 0.0
C991 C 0.37443 0.75257 0.83401 0.0
C992 C 0.35096 0.75161 0.84832 0.0
C993 C 0.38617 0.72958 0.82457 0.0
C994 C 0.37439 0.70511 0.82879 0.0
H995 H 0.3818 0.7712 0.82714 0.0
H996 H 0.40213 0.73145 0.81079 0.0
S997 S 0.31783 0.69174 0.87186 0.0
N998 N 0.32041 0.72396 0.87184 0.0
N999 N 0.34205 0.6808 0.85346 0.0
C1000 C 0.35374 0.7037 0.84683 0.0
C1001 C 0.3421 0.72706 0.85685 0.0
C1002 C 0.72154 0.87312 0.32767 0.0
C1003 C 0.72439 0.85031 0.34291 0.0
C1004 C 0.74305 0.88448 0.31502 0.0
C1005 C 0.76797 0.87314 0.31699 0.0
H1006 H 0.70223 0.88072 0.32341 0.0
H1007 H 0.73963 0.90034 0.3014 0.0
S1008 S 0.78688 0.8169 0.35851 0.0
N1009 N 0.75502 0.81974 0.36278 0.0
N1010 N 0.79518 0.84067 0.33832 0.0
C1011 C 0.7716 0.85235 0.33452 0.0
C1012 C 0.74985 0.84109 0.3478 0.0
C1013 C 0.63049 0.27139 0.8616 0.0
C1014 C 0.63926 0.24554 0.85801 0.0
C1015 C 0.60879 0.28089 0.84779 0.0
C1016 C 0.59589 0.26487 0.8295 0.0
H1017 H 0.64255 0.28528 0.87213 0.0
H1018 H 0.60499 0.30175 0.84831 0.0
S1019 S 0.60635 0.19384 0.81955 0.0
N1020 N 0.62937 0.20254 0.84047 0.0
N1021 N 0.58909 0.22057 0.81376 0.0
C1022 C 0.60152 0.23795 0.82957 0.0
C1023 C 0.62324 0.22819 0.84407 0.0
C1024 C 0.2406 0.84939 0.62742 0.0
C1025 C 0.26451 0.85608 0.6392 0.0
C1026 C 0.2174 0.86204 0.63488 0.0
C1027 C 0.21753 0.88188 0.65406 0.0
H1028 H 0.23916 0.83201 0.61533 0.0
H1029 H 0.19902 0.85389 0.62825 0.0
S1030 S 0.27636 0.91231 0.68343 0.0
N1031 N 0.28785 0.88798 0.66547 0.0
N1032 N 0.2444 0.91217 0.67906 0.0
C1033 C 0.24186 0.89199 0.66189 0.0
C1034 C 0.26541 0.87886 0.6546 0.0
C1035 C 0.62454 0.77514 0.16483 0.0
C1036 C 0.64737 0.77145 0.14984 0.0
C1037 C 0.61238 0.75404 0.17748 0.0
C1038 C 0.62298 0.72872 0.17584 0.0
H1039 H 0.61741 0.79474 0.16875 0.0
H1040 H 0.59637 0.75805 0.19076 0.0
S1041 S 0.67939 0.70784 0.13549 0.0
N1042 N 0.67746 0.73978 0.13086 0.0
N1043 N 0.65509 0.70038 0.15535 0.0
C1044 C 0.644 0.72434 0.15876 0.0
C1045 C 0.65604 0.74568 0.14544 0.0
C1046 C 0.74751 0.1226 0.62529 0.0
C1047 C 0.75152 0.10551 0.64657 0.0
C1048 C 0.72478 0.13787 0.62353 0.0
C1049 C 0.70526 0.1363 0.64283 0.0
H1050 H 0.76337 0.12684 0.61193 0.0
H1051 H 0.72404 0.15305 0.60877 0.0
S1052 S 0.70157 0.08677 0.69567 0.0
N1053 N 0.73049 0.082 0.68219 0.0
N1054 N 0.68785 0.1107 0.67889 0.0
C1055 C 0.70679 0.11563 0.66094 0.0
C1056 C 0.72989 0.10003 0.66267 0.0
C1057 C 0.35594 0.23183 0.15338 0.0
C1058 C 0.34127 0.25001 0.13887 0.0
C1059 C 0.37651 0.24018 0.16949 0.0
C1060 C 0.38333 0.26682 0.17107 0.0
H1061 H 0.34937 0.21175 0.15505 0.0
H1062 H 0.38509 0.22624 0.18295 0.0
S1063 S 0.35525 0.32069 0.13147 0.0
N1064 N 0.33803 0.29466 0.12315 0.0
N1065 N 0.37727 0.31026 0.15266 0.0
C1066 C 0.37156 0.28431 0.1534 0.0
C1067 C 0.35027 0.2759 0.13748 0.0
C1068 C 0.86059 0.65461 0.72884 0.0
C1069 C 0.83534 0.64388 0.72736 0.0
C1070 C 0.86745 0.6721 0.74901 0.0
C1071 C 0.84898 0.68009 0.76782 0.0
H1072 H 0.87506 0.64958 0.7142 0.0
H1073 H 0.887 0.68016 0.7493 0.0
S1074 S 0.78019 0.65776 0.77244 0.0
N1075 N 0.79202 0.64214 0.74673 0.0
N1076 N 0.80451 0.67562 0.78385 0.0
C1077 C 0.82373 0.66936 0.76657 0.0
C1078 C 0.81699 0.65112 0.74653 0.0
C1079 C 0.84726 0.38613 0.21744 0.0
C1080 C 0.86559 0.36586 0.21367 0.0
C1081 C 0.84301 0.39683 0.24234 0.0
C1082 C 0.85673 0.38723 0.26421 0.0
H1083 H 0.83379 0.39132 0.20193 0.0
H1084 H 0.82627 0.40959 0.24491 0.0
S1085 S 0.91449 0.34344 0.26235 0.0
N1086 N 0.90352 0.34358 0.23197 0.0
N1087 N 0.8951 0.36337 0.27888 0.0
C1088 C 0.8788 0.37148 0.25952 0.0
C1089 C 0.88332 0.36076 0.23411 0.0
C1090 C 0.12124 0.34606 0.75053 0.0
C1091 C 0.13402 0.35398 0.77361 0.0
C1092 C 0.12719 0.35769 0.72644 0.0
C1093 C 0.14579 0.37787 0.7247 0.0
H1094 H 0.10914 0.32869 0.7504 0.0
H1095 H 0.11961 0.34874 0.70878 0.0
S1096 S 0.17735 0.41159 0.78064 0.0
N1097 N 0.16072 0.38747 0.79415 0.0
N1098 N 0.17156 0.40968 0.74892 0.0
C1099 C 0.1549 0.38902 0.74817 0.0
C1100 C 0.14915 0.37691 0.77268 0.0
C1101 C 0.14497 0.60661 0.24083 0.0
C1102 C 0.13365 0.61604 0.2641 0.0
C1103 C 0.1383 0.61757 0.21661 0.0
C1104 C 0.11997 0.63812 0.21487 0.0
H1105 H 0.16145 0.59329 0.24151 0.0
H1106 H 0.14977 0.612 0.19967 0.0
S1107 S 0.07765 0.66197 0.26884 0.0
N1108 N 0.09799 0.64124 0.28299 0.0
N1109 N 0.08528 0.66173 0.23745 0.0
C1110 C 0.105 0.64388 0.23725 0.0
C1111 C 0.11191 0.63281 0.26195 0.0
C1112 C 0.77369 0.83155 0.63601 0.0
C1113 C 0.76832 0.8461 0.65881 0.0
C1114 C 0.75371 0.81858 0.62247 0.0
C1115 C 0.72786 0.81941 0.63168 0.0
H1116 H 0.79373 0.82791 0.63019 0.0
H1117 H 0.75908 0.80531 0.60679 0.0
S1118 S 0.70272 0.86008 0.68625 0.0
N1119 N 0.7346 0.865 0.68657 0.0
N1120 N 0.69715 0.84001 0.66151 0.0
C1121 C 0.72179 0.83681 0.65211 0.0
C1122 C 0.74205 0.85041 0.6656 0.0
C1123 C 0.64884 0.26361 0.13733 0.0
C1124 C 0.63669 0.24476 0.15316 0.0
C1125 C 0.66396 0.25595 0.11572 0.0
C1126 C 0.66689 0.22933 0.10913 0.0
H1127 H 0.64982 0.28382 0.14371 0.0
H1128 H 0.67598 0.27056 0.10622 0.0
S1129 S 0.63239 0.17363 0.13997 0.0
N1130 N 0.62375 0.19935 0.15759 0.0
N1131 N 0.65139 0.18498 0.11649 0.0
C1132 C 0.65098 0.21102 0.12201 0.0
C1133 C 0.63606 0.21875 0.14429 0.0
C1134 C 0.27642 0.14062 0.61922 0.0
C1135 C 0.25222 0.14701 0.60777 0.0
C1136 C 0.27756 0.12514 0.6418 0.0
C1137 C 0.2546 0.11533 0.65334 0.0
H1138 H 0.29407 0.15061 0.61323 0.0
H1139 H 0.29607 0.1237 0.65198 0.0
S1140 S 0.18845 0.11677 0.62368 0.0
N1141 N 0.20639 0.13528 0.60429 0.0
N1142 N 0.2085 0.10579 0.6465 0.0
C1143 C 0.23135 0.11678 0.63868 0.0
C1144 C 0.23019 0.13273 0.6158 0.0
C1145 C 0.31632 0.73464 0.1237 0.0
C1146 C 0.31427 0.7606 0.11477 0.0
C1147 C 0.33414 0.72784 0.14343 0.0
C1148 C 0.34991 0.74701 0.15528 0.0
H1149 H 0.30224 0.72014 0.11738 0.0
H1150 H 0.33306 0.70835 0.15168 0.0
S1151 S 0.35598 0.81629 0.13502 0.0
N1152 N 0.33302 0.80428 0.11578 0.0
N1153 N 0.36576 0.79169 0.15355 0.0
C1154 C 0.35045 0.77211 0.14415 0.0
C1155 C 0.33278 0.77888 0.12364 0.0
C1156 C 0.75981 0.16615 0.37166 0.0
C1157 C 0.73471 0.17242 0.38106 0.0
C1158 C 0.7632 0.14798 0.35132 0.0
C1159 C 0.7415 0.13596 0.33945 0.0
H1160 H 0.77652 0.17757 0.37785 0.0
H1161 H 0.78243 0.14617 0.34265 0.0
S1162 S 0.67285 0.13986 0.36208 0.0
N1163 N 0.68875 0.16043 0.38125 0.0
N1164 N 0.69509 0.12684 0.34258 0.0
C1165 C 0.717 0.13886 0.35153 0.0
C1166 C 0.71361 0.15699 0.37254 0.0
C1167 C 0.31185 0.25878 0.88948 0.0
C1168 C 0.31618 0.23177 0.88664 0.0
C1169 C 0.32278 0.27657 0.87182 0.0
C1170 C 0.33811 0.26778 0.85074 0.0
H1171 H 0.29713 0.26582 0.90302 0.0
H1172 H 0.31605 0.29669 0.8724 0.0
S1173 S 0.36058 0.19987 0.83915 0.0
N1174 N 0.34119 0.19772 0.86489 0.0
N1175 N 0.36159 0.23125 0.83143 0.0
C1176 C 0.34616 0.2415 0.85051 0.0
C1177 C 0.33512 0.22336 0.86861 0.0
C1178 C 0.23301 0.8179 0.36058 0.0
C1179 C 0.25802 0.81344 0.37113 0.0
C1180 C 0.22879 0.83758 0.34192 0.0
C1181 C 0.24963 0.85293 0.33272 0.0
H1182 H 0.21727 0.8044 0.36475 0.0
H1183 H 0.20991 0.83846 0.33237 0.0
S1184 S 0.31735 0.85283 0.35828 0.0
N1185 N 0.30263 0.82925 0.37466 0.0
N1186 N 0.29489 0.86559 0.3389 0.0
C1187 C 0.27383 0.85089 0.34556 0.0
C1188 C 0.27797 0.83128 0.365 0.0
C1189 C 0.62056 0.71977 0.84368 0.0
C1190 C 0.61587 0.74325 0.83007 0.0
C1191 C 0.63704 0.71932 0.86558 0.0
C1192 C 0.64915 0.74232 0.87469 0.0
H1193 H 0.61427 0.70121 0.83561 0.0
H1194 H 0.64277 0.70045 0.87339 0.0
S1195 S 0.63499 0.80978 0.85186 0.0
N1196 N 0.61851 0.79073 0.83164 0.0
N1197 N 0.64927 0.78993 0.87296 0.0
C1198 C 0.64052 0.76635 0.86434 0.0
C1199 C 0.62393 0.76679 0.84187 0.0
C1200 C 0.09791 0.14778 0.22902 0.0
C1201 C 0.08806 0.17193 0.23785 0.0
C1202 C 0.106 0.12855 0.24684 0.0
C1203 C 0.10512 0.13342 0.27396 0.0
H1204 H 0.103 0.14529 0.20859 0.0
H1205 H 0.11685 0.11197 0.23923 0.0
S1206 S 0.07151 0.18918 0.30612 0.0
N1207 N 0.0706 0.19628 0.27462 0.0
N1208 N 0.08588 0.16028 0.30829 0.0
C1209 C 0.09015 0.15495 0.28259 0.0
C1210 C 0.08173 0.17438 0.26439 0.0
C1211 C 0.33195 0.59131 0.77228 0.0
C1212 C 0.34615 0.59632 0.74932 0.0
C1213 C 0.30598 0.58266 0.7709 0.0
C1214 C 0.29377 0.57855 0.74652 0.0
H1215 H 0.33921 0.59826 0.79095 0.0
H1216 H 0.2945 0.58281 0.78871 0.0
S1217 S 0.32688 0.57825 0.68197 0.0
N1218 N 0.34923 0.58906 0.70261 0.0
N1219 N 0.30088 0.57164 0.69989 0.0
C1220 C 0.30984 0.57774 0.72416 0.0
C1221 C 0.33608 0.58698 0.7256 0.0
C1222 C 0.90728 0.85083 0.24322 0.0
C1223 C 0.89307 0.86058 0.26467 0.0
C1224 C 0.91735 0.82526 0.24355 0.0
C1225 C 0.91332 0.80891 0.26538 0.0
H1226 H 0.90643 0.86097 0.22464 0.0
H1227 H 0.92445 0.81719 0.22527 0.0
S1228 S 0.88902 0.83049 0.33024 0.0
N1229 N 0.88435 0.85602 0.31099 0.0
N1230 N 0.90323 0.80793 0.31189 0.0
C1231 C 0.90518 0.82094 0.28881 0.0
C1232 C 0.89519 0.84706 0.28842 0.0
C1233 C 0.64932 0.37751 0.80159 0.0
C1234 C 0.63302 0.37546 0.77956 0.0
C1235 C 0.67454 0.38791 0.79954 0.0
C1236 C 0.68448 0.39615 0.77521 0.0
H1237 H 0.64379 0.3681 0.81975 0.0
H1238 H 0.68727 0.38642 0.81639 0.0
S1239 S 0.64636 0.40207 0.71366 0.0
N1240 N 0.62605 0.388 0.7344 0.0
N1241 N 0.67345 0.40763 0.73028 0.0
C1242 C 0.6667 0.39831 0.7542 0.0
C1243 C 0.6409 0.38784 0.75643 0.0
C1244 C 0.08678 0.81009 0.71549 0.0
C1245 C 0.08357 0.7994 0.74068 0.0
C1246 C 0.09762 0.83507 0.71212 0.0
C1247 C 0.1057 0.84988 0.73382 0.0
H1248 H 0.0842 0.79787 0.69835 0.0
H1249 H 0.10339 0.84091 0.69259 0.0
S1250 S 0.09359 0.83453 0.80344 0.0
N1251 N 0.08274 0.80864 0.78742 0.0
N1252 N 0.1039 0.85515 0.78086 0.0
C1253 C 0.09814 0.84148 0.75878 0.0
C1254 C 0.08678 0.81623 0.76229 0.0
C1255 C 0.64623 0.60464 0.20264 0.0
C1256 C 0.63265 0.60461 0.22654 0.0
C1257 C 0.67196 0.59509 0.20126 0.0
C1258 C 0.6844 0.58488 0.22367 0.0
H1259 H 0.63908 0.6164 0.18652 0.0
H1260 H 0.68318 0.59938 0.18383 0.0
S1261 S 0.65161 0.56844 0.28618 0.0
N1262 N 0.6295 0.58512 0.26954 0.0
N1263 N 0.67729 0.56595 0.26677 0.0
C1264 C 0.66841 0.57864 0.24519 0.0
C1265 C 0.64243 0.58873 0.24663 0.0
C1266 C 0.89061 0.16515 0.75603 0.0
C1267 C 0.90065 0.18596 0.74116 0.0
C1268 C 0.88057 0.14268 0.74372 0.0
C1269 C 0.88011 0.14074 0.71624 0.0
H1270 H 0.88708 0.16778 0.77677 0.0
H1271 H 0.86964 0.12892 0.75551 0.0
S1272 S 0.91176 0.18621 0.66969 0.0
N1273 N 0.91529 0.20042 0.69852 0.0
N1274 N 0.8968 0.15817 0.67537 0.0
C1275 C 0.8945 0.15918 0.70183 0.0
C1276 C 0.90455 0.18199 0.71433 0.0
C1277 C 0.34291 0.38137 0.20685 0.0
C1278 C 0.35793 0.37658 0.22934 0.0
C1279 C 0.31751 0.39142 0.20888 0.0
C1280 C 0.30629 0.39655 0.23353 0.0
H1281 H 0.34929 0.37381 0.18808 0.0
H1282 H 0.30552 0.39165 0.19141 0.0
S1283 S 0.34132 0.39575 0.2971 0.0
N1284 N 0.36274 0.38414 0.27587 0.0
N1285 N 0.31499 0.40315 0.27994 0.0
C1286 C 0.32303 0.39668 0.25544 0.0
C1287 C 0.34898 0.38654 0.25327 0.0
C1288 C 0.2403 0.18686 0.21942 0.0
C1289 C 0.24475 0.17517 0.19487 0.0
C1290 C 0.2284 0.17312 0.23982 0.0
C1291 C 0.22037 0.14696 0.2367 0.0
H1292 H 0.2455 0.2071 0.22282 0.0
H1293 H 0.22505 0.18339 0.25807 0.0
S1294 S 0.22898 0.10655 0.17684 0.0
N1295 N 0.24135 0.1353 0.16898 0.0
N1296 N 0.21899 0.10936 0.20743 0.0
C1297 C 0.22566 0.13457 0.21262 0.0
C1298 C 0.23784 0.14867 0.19171 0.0
C1299 C 0.37694 0.73306 0.66131 0.0
C1300 C 0.3772 0.75946 0.66943 0.0
C1301 C 0.38583 0.71314 0.67804 0.0
C1302 C 0.39564 0.71919 0.70298 0.0
H1303 H 0.3664 0.72735 0.64384 0.0
H1304 H 0.3818 0.69297 0.67286 0.0
S1305 S 0.40837 0.78534 0.72953 0.0
N1306 N 0.39421 0.7907 0.70099 0.0
N1307 N 0.41073 0.75322 0.73234 0.0
C1308 C 0.4002 0.74551 0.70918 0.0
C1309 C 0.3912 0.76575 0.69225 0.0
C1310 C 0.78641 0.89148 0.16233 0.0
C1311 C 0.7808 0.90448 0.18591 0.0
C1312 C 0.76651 0.88559 0.14445 0.0
C1313 C 0.74024 0.89148 0.15037 0.0
H1314 H 0.80555 0.8829 0.15926 0.0
H1315 H 0.7713 0.87264 0.12834 0.0
S1316 S 0.71738 0.93373 0.20481 0.0
N1317 N 0.74892 0.92969 0.21044 0.0
N1318 N 0.71122 0.91801 0.17722 0.0
C1319 C 0.73547 0.90905 0.17112 0.0
C1320 C 0.75588 0.91547 0.18906 0.0
C1321 C 0.58888 0.28389 0.67413 0.0
C1322 C 0.57633 0.27793 0.69783 0.0
C1323 C 0.59842 0.26391 0.6579 0.0
C1324 C 0.59644 0.23751 0.66554 0.0
H1325 H 0.5944 0.3039 0.66988 0.0
H1326 H 0.61097 0.26946 0.64178 0.0
S1327 S 0.55734 0.21199 0.72082 0.0
N1328 N 0.5559 0.24413 0.72412 0.0
N1329 N 0.57459 0.20651 0.69405 0.0
C1330 C 0.57954 0.23145 0.68633 0.0
C1331 C 0.56935 0.25181 0.70255 0.0
C1332 C 0.25565 0.89207 0.77161 0.0
C1333 C 0.2288 0.89273 0.77716 0.0
C1334 C 0.27337 0.88115 0.78937 0.0
C1335 C 0.26461 0.86994 0.81292 0.0
H1336 H 0.2626 0.89721 0.75226 0.0
H1337 H 0.29335 0.87817 0.783 0.0
S1338 S 0.19718 0.87345 0.83925 0.0
N1339 N 0.19507 0.88681 0.80992 0.0
N1340 N 0.22828 0.86579 0.84333 0.0
C1341 C 0.23854 0.87457 0.82047 0.0
C1342 C 0.22051 0.88597 0.8024 0.0
C1343 C 0.59991 0.71269 0.32932 0.0
C1344 C 0.58759 0.71821 0.30539 0.0
C1345 C 0.60686 0.7329 0.34654 0.0
C1346 C 0.6026 0.75928 0.33965 0.0
H1347 H 0.60738 0.69319 0.33308 0.0
H1348 H 0.61936 0.72795 0.36291 0.0
S1349 S 0.56225 0.7826 0.28412 0.0
N1350 N 0.56452 0.75065 0.2796 0.0
N1351 N 0.57801 0.78885 0.31163 0.0
C1352 C 0.58551 0.76431 0.31863 0.0
C1353 C 0.57808 0.74364 0.30133 0.0
C1354 C 0.76361 0.13349 0.7816 0.0
C1355 C 0.75929 0.13845 0.75488 0.0
C1356 C 0.74981 0.14733 0.80093 0.0
C1357 C 0.73123 0.1665 0.79411 0.0
H1358 H 0.7788 0.12 0.78764 0.0
H1359 H 0.75504 0.14425 0.82122 0.0
S1360 S 0.70852 0.18209 0.72704 0.0
N1361 N 0.73212 0.16047 0.72269 0.0
N1362 N 0.70625 0.1865 0.75896 0.0
C1363 C 0.72511 0.16981 0.76752 0.0
C1364 C 0.73915 0.15579 0.7479 0.0
C1365 C 0.40389 0.27851 0.32853 0.0
C1366 C 0.41489 0.27253 0.30404 0.0
C1367 C 0.39535 0.25858 0.34526 0.0
C1368 C 0.39681 0.23216 0.33744 0.0
H1369 H 0.39866 0.29855 0.3332 0.0
H1370 H 0.38389 0.26421 0.36218 0.0
S1371 S 0.43248 0.20653 0.27973 0.0
N1372 N 0.43361 0.23866 0.27641 0.0
N1373 N 0.41694 0.2011 0.30751 0.0
C1374 C 0.4124 0.22605 0.31559 0.0
C1375 C 0.42153 0.24638 0.2988 0.0
C1376 C 0.18074 0.21842 0.10643 0.0
C1377 C 0.19434 0.24237 0.10557 0.0
C1378 C 0.15572 0.21712 0.11754 0.0
C1379 C 0.1435 0.23976 0.12725 0.0
H1380 H 0.19085 0.20014 0.10268 0.0
H1381 H 0.14781 0.19802 0.12217 0.0
S1382 S 0.16636 0.30789 0.11933 0.0
N1383 N 0.19046 0.28976 0.10764 0.0
N1384 N 0.14322 0.28719 0.12806 0.0
C1385 C 0.15439 0.2641 0.12093 0.0
C1386 C 0.17999 0.26546 0.11005 0.0
C1387 C 0.19678 0.76314 0.8356 0.0
C1388 C 0.22051 0.75361 0.82539 0.0
C1389 C 0.17271 0.75427 0.82584 0.0
C1390 C 0.17169 0.73565 0.80557 0.0
H1391 H 0.19677 0.77879 0.84994 0.0
H1392 H 0.15492 0.76331 0.83299 0.0
S1393 S 0.22812 0.70018 0.77687 0.0
N1394 N 0.24138 0.72144 0.79724 0.0
N1395 N 0.19624 0.70482 0.77885 0.0
C1396 C 0.19521 0.72433 0.79694 0.0
C1397 C 0.21961 0.7333 0.80688 0.0
C1398 C 0.71639 0.72278 0.29204 0.0
C1399 C 0.71201 0.72355 0.31918 0.0
C1400 C 0.72577 0.7002 0.27971 0.0
C1401 C 0.73112 0.67719 0.2939 0.0
H1402 H 0.71223 0.73972 0.28 0.0
H1403 H 0.72842 0.70081 0.2587 0.0
S1404 S 0.72385 0.66907 0.36572 0.0
N1405 N 0.71448 0.6995 0.36016 0.0
N1406 N 0.7321 0.65689 0.33694 0.0
C1407 C 0.72744 0.6778 0.32121 0.0
C1408 C 0.71794 0.70098 0.33385 0.0
C1409 C 0.8059 0.23206 0.86266 0.0
C1410 C 0.78798 0.25306 0.86171 0.0
C1411 C 0.83066 0.23418 0.85095 0.0
C1412 C 0.83808 0.25739 0.83834 0.0
H1413 H 0.79965 0.21296 0.86933 0.0
H1414 H 0.84267 0.21678 0.84914 0.0
S1415 S 0.80124 0.31979 0.83683 0.0
N1416 N 0.78175 0.29925 0.85226 0.0
N1417 N 0.82799 0.303 0.83001 0.0
C1418 C 0.82195 0.27947 0.84075 0.0
C1419 C 0.79696 0.2774 0.85271 0.0
C1420 C 0.27949 0.28894 0.33916 0.0
C1421 C 0.2777 0.26413 0.32723 0.0
C1422 C 0.26833 0.31123 0.32743 0.0
C1423 C 0.25498 0.30942 0.30341 0.0
H1424 H 0.2907 0.29142 0.35696 0.0
H1425 H 0.27127 0.33012 0.33661 0.0
S1426 S 0.24069 0.2482 0.26689 0.0
N1427 N 0.25866 0.23861 0.29192 0.0
N1428 N 0.23763 0.2802 0.27006 0.0
C1429 C 0.25151 0.28441 0.29235 0.0
C1430 C 0.26288 0.26185 0.3042 0.0
C1431 C 0.77668 0.77915 0.19565 0.0
C1432 C 0.77532 0.78342 0.16852 0.0
C1433 C 0.79949 0.76985 0.20749 0.0
C1434 C 0.82219 0.76448 0.19282 0.0
H1435 H 0.76001 0.78328 0.20806 0.0
H1436 H 0.79929 0.76724 0.2285 0.0
S1437 S 0.82882 0.77166 0.12084 0.0
N1438 N 0.79853 0.78097 0.12705 0.0
N1439 N 0.84159 0.7635 0.14936 0.0
C1440 C 0.82103 0.76816 0.16553 0.0
C1441 C 0.79759 0.77756 0.15338 0.0
C1442 C 0.72635 0.31452 0.67831 0.0
C1443 C 0.73899 0.31336 0.70277 0.0
C1444 C 0.71547 0.29197 0.66682 0.0
C1445 C 0.71675 0.2675 0.67944 0.0
H1446 H 0.72372 0.33314 0.66855 0.0
H1447 H 0.70476 0.29401 0.64866 0.0
S1448 S 0.75159 0.25301 0.74142 0.0
N1449 N 0.75506 0.28487 0.73744 0.0
N1450 N 0.73446 0.24291 0.71601 0.0
C1451 C 0.73086 0.26579 0.70295 0.0
C1452 C 0.74202 0.28859 0.71456 0.0
C1453 C 0.23657 0.70091 0.70107 0.0
C1454 C 0.23936 0.67716 0.68738 0.0
C1455 C 0.24682 0.72428 0.6913 0.0
C1456 C 0.2601 0.725 0.66724 0.0
H1457 H 0.22701 0.70137 0.71991 0.0
H1458 H 0.24502 0.74178 0.70317 0.0
S1459 S 0.27028 0.66875 0.62222 0.0
N1460 N 0.25456 0.65616 0.64742 0.0
N1461 N 0.27362 0.70021 0.62882 0.0
C1462 C 0.2615 0.70175 0.65242 0.0
C1463 C 0.25115 0.67781 0.66252 0.0
C1464 C 0.90095 0.82399 0.75051 0.0
C1465 C 0.88453 0.84567 0.75547 0.0
C1466 C 0.90484 0.80479 0.76975 0.0
C1467 C 0.89302 0.80742 0.7944 0.0
H1468 H 0.90672 0.81936 0.73064 0.0
H1469 H 0.91351 0.7863 0.76399 0.0
S1470 S 0.86075 0.86672 0.8207 0.0
N1471 N 0.86621 0.87352 0.78961 0.0
N1472 N 0.87281 0.8371 0.82546 0.0
C1473 C 0.88248 0.83182 0.80126 0.0
C1474 C 0.87887 0.85143 0.78183 0.0
C1475 C 0.69262 0.34325 0.26274 0.0
C1476 C 0.69738 0.3241 0.2435 0.0
C1477 C 0.71336 0.35656 0.27483 0.0
C1478 C 0.73945 0.35106 0.26804 0.0
H1479 H 0.67294 0.3467 0.26975 0.0
H1480 H 0.70902 0.36997 0.29068 0.0
S1481 S 0.76155 0.30755 0.21427 0.0
N1482 N 0.72955 0.30366 0.21512 0.0
N1483 N 0.76852 0.32867 0.23775 0.0
C1484 C 0.74422 0.33369 0.24723 0.0
C1485 C 0.72316 0.32021 0.23497 0.0
C1486 C 0.17143 0.18196 0.76065 0.0
C1487 C 0.19612 0.18384 0.74866 0.0
C1488 C 0.15907 0.20411 0.77135 0.0
C1489 C 0.171 0.22889 0.77051 0.0
H1490 H 0.16212 0.16309 0.76294 0.0
H1491 H 0.14071 0.2015 0.78155 0.0
S1492 S 0.23328 0.24516 0.73718 0.0
N1493 N 0.23026 0.21322 0.73348 0.0
N1494 N 0.20726 0.25458 0.75382 0.0
C1495 C 0.19479 0.23133 0.757 0.0
C1496 C 0.20728 0.20888 0.74602 0.0
C1497 C 0.30019 0.65146 0.26088 0.0
C1498 C 0.29722 0.6767 0.2502 0.0
C1499 C 0.27887 0.63817 0.27204 0.0
C1500 C 0.25385 0.64968 0.27295 0.0
H1501 H 0.31931 0.64237 0.26167 0.0
H1502 H 0.28228 0.61928 0.281 0.0
S1503 S 0.23488 0.7135 0.2439 0.0
N1504 N 0.26658 0.71124 0.23853 0.0
N1505 N 0.22681 0.68644 0.25945 0.0
C1506 C 0.25036 0.67418 0.2609 0.0
C1507 C 0.27195 0.68762 0.24955 0.0
C1508 C 0.82761 0.19214 0.22927 0.0
C1509 C 0.80534 0.19441 0.24526 0.0
C1510 C 0.83901 0.21434 0.21782 0.0
C1511 C 0.82853 0.23951 0.22204 0.0
H1512 H 0.83534 0.17301 0.22429 0.0
H1513 H 0.85515 0.21158 0.20437 0.0
S1514 S 0.774 0.25636 0.26682 0.0
N1515 N 0.77571 0.22411 0.2678 0.0
N1516 N 0.79735 0.26569 0.24662 0.0
C1517 C 0.8077 0.24216 0.23974 0.0
C1518 C 0.79605 0.21964 0.25127 0.0
C1519 C 0.29264 0.38783 0.71312 0.0
C1520 C 0.26844 0.39589 0.72334 0.0
C1521 C 0.31172 0.37691 0.7296 0.0
C1522 C 0.30669 0.37362 0.75647 0.0
H1523 H 0.29535 0.38638 0.69214 0.0
H1524 H 0.32837 0.36728 0.72067 0.0
S1525 S 0.25007 0.39965 0.79321 0.0
N1526 N 0.24339 0.40616 0.76228 0.0
N1527 N 0.27914 0.38555 0.7932 0.0
C1528 C 0.28482 0.38621 0.76724 0.0
C1529 C 0.26553 0.39728 0.75057 0.0
C1530 C 0.19693 0.78486 0.22877 0.0
C1531 C 0.18374 0.8086 0.23361 0.0
C1532 C 0.18425 0.76344 0.21748 0.0
C1533 C 0.15768 0.76452 0.2106 0.0
H1534 H 0.21753 0.78282 0.2332 0.0
H1535 H 0.19566 0.746 0.21363 0.0
S1536 S 0.11358 0.82155 0.22026 0.0
N1537 N 0.14211 0.8316 0.23148 0.0
N1538 N 0.11816 0.79109 0.21038 0.0
C1539 C 0.14386 0.78778 0.21613 0.0
C1540 C 0.1569 0.80983 0.22759 0.0
C1541 C 0.72397 0.68683 0.72019 0.0
C1542 C 0.72443 0.66073 0.71132 0.0
C1543 C 0.70115 0.69832 0.72986 0.0
C1544 C 0.67759 0.68427 0.73121 0.0
H1545 H 0.74143 0.6988 0.71953 0.0
H1546 H 0.70202 0.71856 0.73608 0.0
S1547 S 0.66816 0.61502 0.71118 0.0
N1548 N 0.69928 0.62084 0.70509 0.0
N1549 N 0.65618 0.64249 0.72338 0.0
C1550 C 0.67778 0.65791 0.72306 0.0
C1551 C 0.70119 0.64613 0.71311 0.0
C1552 C 0.76187 0.78206 0.81072 0.0
C1553 C 0.75417 0.79602 0.83324 0.0
C1554 C 0.77236 0.79472 0.7889 0.0
C1555 C 0.77557 0.82205 0.78834 0.0
H1556 H 0.76006 0.76095 0.80988 0.0
H1557 H 0.7781 0.78281 0.77231 0.0
S1558 S 0.75846 0.86808 0.84199 0.0
N1559 N 0.75039 0.83901 0.85351 0.0
N1560 N 0.7701 0.86288 0.8123 0.0
C1561 C 0.7677 0.83646 0.81052 0.0
C1562 C 0.75707 0.82346 0.83298 0.0
C1563 C 0.62029 0.22248 0.31216 0.0
C1564 C 0.61565 0.24745 0.30152 0.0
C1565 C 0.63023 0.21975 0.33752 0.0
C1566 C 0.63567 0.24186 0.35296 0.0
H1567 H 0.61982 0.20534 0.29966 0.0
H1568 H 0.63726 0.20065 0.34352 0.0
S1569 S 0.61876 0.3105 0.33739 0.0
N1570 N 0.61068 0.29392 0.31084 0.0
N1571 N 0.62964 0.28861 0.35852 0.0
C1572 C 0.62639 0.26625 0.34447 0.0
C1573 C 0.61619 0.26909 0.31861 0.0
C1574 C 0.28936 0.09747 0.81359 0.0
C1575 C 0.26464 0.09136 0.80315 0.0
C1576 C 0.29183 0.10687 0.83924 0.0
C1577 C 0.26972 0.11024 0.85519 0.0
H1578 H 0.30628 0.09858 0.80091 0.0
H1579 H 0.31034 0.11534 0.84507 0.0
S1580 S 0.20278 0.08725 0.84075 0.0
N1581 N 0.21925 0.08159 0.81353 0.0
N1582 N 0.22407 0.09964 0.86164 0.0
C1583 C 0.24616 0.09897 0.84693 0.0
C1584 C 0.24356 0.08938 0.82078 0.0
C1585 C 0.37326 0.72172 0.34311 0.0
C1586 C 0.3642 0.74517 0.35431 0.0
C1587 C 0.38406 0.72151 0.31786 0.0
C1588 C 0.38558 0.74477 0.30315 0.0
H1589 H 0.36821 0.70316 0.35198 0.0
H1590 H 0.38722 0.7027 0.30857 0.0
S1591 S 0.37382 0.81188 0.32813 0.0
N1592 N 0.36461 0.79253 0.35228 0.0
N1593 N 0.38484 0.79233 0.30483 0.0
C1594 C 0.38177 0.76862 0.31642 0.0
C1595 C 0.371 0.76876 0.34215 0.0
C1596 C 0.70797 0.11901 0.15367 0.0
C1597 C 0.72979 0.12429 0.13787 0.0
C1598 C 0.71107 0.10979 0.17928 0.0
C1599 C 0.73614 0.10583 0.18993 0.0
H1600 H 0.68874 0.12551 0.14759 0.0
H1601 H 0.69399 0.10916 0.19177 0.0
S1602 S 0.7987 0.10889 0.15339 0.0
N1603 N 0.77648 0.11886 0.13218 0.0
N1604 N 0.78253 0.10135 0.1803 0.0
C1605 C 0.7576 0.10636 0.17266 0.0
C1606 C 0.75436 0.11573 0.14651 0.0
C1607 C 0.33285 0.268 0.68814 0.0
C1608 C 0.32608 0.25508 0.71147 0.0
C1609 C 0.32325 0.25927 0.66387 0.0
C1610 C 0.30663 0.23742 0.66234 0.0
H1611 H 0.34376 0.28613 0.68883 0.0
H1612 H 0.32722 0.27082 0.64658 0.0
S1613 S 0.289 0.19316 0.71691 0.0
N1614 N 0.30584 0.21688 0.73095 0.0
N1615 N 0.288 0.20036 0.68544 0.0
C1616 C 0.30207 0.22289 0.68519 0.0
C1617 C 0.31176 0.23176 0.70976 0.0
C1618 C 0.27892 0.88675 0.17319 0.0
C1619 C 0.25497 0.89327 0.18517 0.0
C1620 C 0.27954 0.87593 0.14798 0.0
C1621 C 0.25633 0.87165 0.13397 0.0
H1622 H 0.29677 0.88643 0.18457 0.0
H1623 H 0.29767 0.86727 0.14119 0.0
S1624 S 0.19033 0.89476 0.1523 0.0
N1625 N 0.20875 0.9021 0.17779 0.0
N1626 N 0.21016 0.88139 0.13054 0.0
C1627 C 0.2333 0.88307 0.14345 0.0
C1628 C 0.23256 0.8941 0.16914 0.0
C1629 C 0.60689 0.76989 0.64386 0.0
C1630 C 0.61338 0.74589 0.63202 0.0
C1631 C 0.59339 0.77042 0.66777 0.0
C1632 C 0.58595 0.74692 0.68013 0.0
H1633 H 0.61634 0.78772 0.63741 0.0
H1634 H 0.59266 0.78876 0.67841 0.0
S1635 S 0.5868 0.68104 0.64958 0.0
N1636 N 0.60319 0.69973 0.62902 0.0
N1637 N 0.57673 0.70065 0.67325 0.0
C1638 C 0.58623 0.72396 0.66481 0.0
C1639 C 0.60034 0.72345 0.64074 0.0
C1640 C 0.83354 0.74258 0.91351 0.0
C1641 C 0.84268 0.72197 0.89771 0.0
C1642 C 0.80888 0.74115 0.92534 0.0
C1643 C 0.79273 0.71923 0.92105 0.0
H1644 H 0.84322 0.76141 0.91292 0.0
H1645 H 0.80093 0.75892 0.93379 0.0
S1646 S 0.81387 0.65591 0.8925 0.0
N1647 N 0.83853 0.67597 0.88698 0.0
N1648 N 0.79206 0.67309 0.90909 0.0
C1649 C 0.80468 0.69637 0.91126 0.0
C1650 C 0.8299 0.69782 0.89948 0.0
C1651 C 0.80907 0.27587 0.08712 0.0
C1652 C 0.83229 0.2698 0.10068 0.0
C1653 C 0.79304 0.25596 0.07715 0.0
C1654 C 0.79979 0.22953 0.08063 0.0
H1655 H 0.80149 0.29569 0.08737 0.0
H1656 H 0.77367 0.26117 0.07033 0.0
S1657 S 0.86246 0.20391 0.10603 0.0
N1658 N 0.86456 0.23593 0.10995 0.0
N1659 N 0.83384 0.19864 0.0921 0.0
C1660 C 0.82498 0.2236 0.0896 0.0
C1661 C 0.84153 0.24382 0.09932 0.0
C1662 C 0.24167 0.33763 0.59736 0.0
C1663 C 0.21675 0.34445 0.60667 0.0
C1664 C 0.24612 0.31325 0.5855 0.0
C1665 C 0.22581 0.29481 0.58334 0.0
H1666 H 0.2584 0.34957 0.60246 0.0
H1667 H 0.26616 0.30756 0.58167 0.0
S1668 S 0.1558 0.30684 0.59741 0.0
N1669 N 0.17064 0.33384 0.60712 0.0
N1670 N 0.17891 0.28775 0.58527 0.0
C1671 C 0.20016 0.30334 0.58838 0.0
C1672 C 0.19564 0.32833 0.60004 0.0
C1673 C 0.15467 0.77485 0.09 0.0
C1674 C 0.17876 0.76738 0.07908 0.0
C1675 C 0.13632 0.75599 0.09752 0.0
C1676 C 0.14216 0.72912 0.09523 0.0
H1677 H 0.15152 0.79496 0.09603 0.0
H1678 H 0.11978 0.76249 0.10907 0.0
S1679 S 0.19795 0.70053 0.05879 0.0
N1680 N 0.20384 0.73231 0.05912 0.0
N1681 N 0.16966 0.69666 0.07383 0.0
C1682 C 0.16353 0.72196 0.07938 0.0
C1683 C 0.18199 0.74124 0.07132 0.0
C1684 C 0.7507 0.64343 0.62472 0.0
C1685 C 0.77773 0.64821 0.62747 0.0
C1686 C 0.73332 0.66362 0.61797 0.0
C1687 C 0.7424 0.68909 0.61335 0.0
H1688 H 0.74262 0.62446 0.62952 0.0
H1689 H 0.71253 0.6597 0.61814 0.0
S1690 S 0.8112 0.71118 0.61441 0.0
N1691 N 0.81276 0.67982 0.62208 0.0
N1692 N 0.77992 0.71768 0.60975 0.0
C1693 C 0.76935 0.69371 0.61415 0.0
C1694 C 0.78708 0.67325 0.621 0.0
C1695 C 0.18226 0.26103 0.90348 0.0
C1696 C 0.15951 0.25608 0.88873 0.0
C1697 C 0.19751 0.24038 0.91331 0.0
C1698 C 0.19052 0.21422 0.90849 0.0
H1699 H 0.19011 0.28068 0.9046 0.0
H1700 H 0.21656 0.24494 0.92134 0.0
S1701 S 0.12851 0.19108 0.87938 0.0
N1702 N 0.12717 0.22326 0.87664 0.0
N1703 N 0.15642 0.18462 0.89426 0.0
C1704 C 0.16568 0.20925 0.89805 0.0
C1705 C 0.14991 0.23022 0.88845 0.0
C1706 C 0.26387 0.65009 0.39514 0.0
C1707 C 0.25543 0.67395 0.40601 0.0
C1708 C 0.24581 0.63112 0.3871 0.0
C1709 C 0.21878 0.63601 0.38895 0.0
H1710 H 0.28413 0.64764 0.38947 0.0
H1711 H 0.25304 0.61481 0.3756 0.0
S1712 S 0.18778 0.691 0.42486 0.0
N1713 N 0.21928 0.69796 0.42514 0.0
N1714 N 0.18513 0.66251 0.40976 0.0
C1715 C 0.21065 0.6572 0.40467 0.0
C1716 C 0.22912 0.67634 0.41313 0.0
C1717 C 0.74909 0.35587 0.38846 0.0
C1718 C 0.7762 0.3511 0.3879 0.0
C1719 C 0.73184 0.33668 0.39764 0.0
C1720 C 0.74125 0.31272 0.4073 0.0
H1721 H 0.74089 0.37244 0.37808 0.0
H1722 H 0.71114 0.33919 0.39394 0.0
S1723 S 0.81041 0.29499 0.41851 0.0
N1724 N 0.81165 0.32386 0.40406 0.0
N1725 N 0.77906 0.28813 0.42187 0.0
C1726 C 0.76816 0.31008 0.41156 0.0
C1727 C 0.78576 0.32936 0.40182 0.0
loop_
_geom_bond_atom_site_label_1
_geom_bond_atom_site_label_2
_geom_bond_distance
_geom_bond_site_symmetry_2
_ccdc_geom_bond_type
Zn0 O3 2.031 . S
Zn0 O5 2.049 . S
Zn0 O10 2.067 . S
Zn1 O2 1.962 . S
Zn1 O4 1.986 . S
Zn1 O6 1.996 . S
Zn1 O9 1.943 . S
O2 Zn1 1.962 . S
O2 C7 1.254 . S
O3 Zn0 2.031 . S
O3 C7 1.269 . S
O4 Zn1 1.986 . S
O4 C11 1.262 . S
O5 Zn0 2.049 . S
O5 C13 1.260 . S
O6 Zn1 1.996 . S
O6 C13 1.257 . S
C7 O2 1.254 . S
C7 O3 1.269 . S
C8 O9 1.249 . S
C8 O10 1.270 . S
O9 Zn1 1.943 . S
O9 C8 1.249 . S
O10 Zn0 2.067 . S
O10 C8 1.270 . S
C11 O4 1.262 . S
C11 O12 1.232 . S
O12 C11 1.232 . S
C13 O5 1.260 . S
C13 O6 1.257 . S
Zn14 O17 2.031 . S
Zn14 O19 2.049 . S
Zn14 O24 2.067 . S
Zn15 O16 1.962 . S
Zn15 O18 1.986 . S
Zn15 O20 1.996 . S
Zn15 O23 1.943 . S
O16 Zn15 1.962 . S
O16 C21 1.254 . S
O17 Zn14 2.031 . S
O17 C21 1.269 . S
O18 Zn15 1.986 . S
O18 C25 1.262 . S
O19 Zn14 2.049 . S
O19 C27 1.260 . S
O20 Zn15 1.996 . S
O20 C27 1.257 . S
C21 O16 1.254 . S
C21 O17 1.269 . S
C22 O23 1.249 . S
C22 O24 1.270 . S
O23 Zn15 1.943 . S
O23 C22 1.249 . S
O24 Zn14 2.067 . S
O24 C22 1.270 . S
C25 O18 1.262 . S
C25 O26 1.232 . S
O26 C25 1.232 . S
C27 O19 1.260 . S
C27 O20 1.257 . S
Zn28 O31 2.031 . S
Zn28 O33 2.049 . S
Zn28 O38 2.067 . S
Zn29 O30 1.962 . S
Zn29 O32 1.986 . S
Zn29 O34 1.996 . S
Zn29 O37 1.943 . S
O30 Zn29 1.962 . S
O30 C35 1.254 . S
O31 Zn28 2.031 . S
O31 C35 1.269 . S
O32 Zn29 1.986 . S
O32 C39 1.262 . S
O33 Zn28 2.049 . S
O33 C41 1.260 . S
O34 Zn29 1.996 . S
O34 C41 1.257 . S
C35 O30 1.254 . S
C35 O31 1.269 . S
C36 O37 1.249 . S
C36 O38 1.270 . S
O37 Zn29 1.943 . S
O37 C36 1.249 . S
O38 Zn28 2.067 . S
O38 C36 1.270 . S
C39 O32 1.262 . S
C39 O40 1.232 . S
O40 C39 1.232 . S
C41 O33 1.260 . S
C41 O34 1.257 . S
Zn42 O45 2.031 . S
Zn42 O47 2.049 . S
Zn42 O52 2.067 . S
Zn43 O44 1.962 . S
Zn43 O46 1.986 . S
Zn43 O48 1.996 . S
Zn43 O51 1.943 . S
O44 Zn43 1.962 . S
O44 C49 1.254 . S
O45 Zn42 2.031 . S
O45 C49 1.269 . S
O46 Zn43 1.986 . S
O46 C53 1.262 . S
O47 Zn42 2.049 . S
O47 C55 1.260 . S
O48 Zn43 1.996 . S
O48 C55 1.257 . S
C49 O44 1.254 . S
C49 O45 1.269 . S
C50 O51 1.249 . S
C50 O52 1.270 . S
O51 Zn43 1.943 . S
O51 C50 1.249 . S
O52 Zn42 2.067 . S
O52 C50 1.270 . S
C53 O46 1.262 . S
C53 O54 1.232 . S
O54 C53 1.232 . S
C55 O47 1.260 . S
C55 O48 1.257 . S
Zn56 O59 2.031 . S
Zn56 O61 2.049 . S
Zn56 O66 2.067 . S
Zn57 O58 1.962 . S
Zn57 O60 1.986 . S
Zn57 O62 1.996 . S
Zn57 O65 1.943 . S
O58 Zn57 1.962 . S
O58 C63 1.254 . S
O59 Zn56 2.031 . S
O59 C63 1.269 . S
O60 Zn57 1.986 . S
O60 C67 1.262 . S
O61 Zn56 2.049 . S
O61 C69 1.260 . S
O62 Zn57 1.996 . S
O62 C69 1.257 . S
C63 O58 1.254 . S
C63 O59 1.269 . S
C64 O65 1.249 . S
C64 O66 1.270 . S
O65 Zn57 1.943 . S
O65 C64 1.249 . S
O66 Zn56 2.067 . S
O66 C64 1.270 . S
C67 O60 1.262 . S
C67 O68 1.232 . S
O68 C67 1.232 . S
C69 O61 1.260 . S
C69 O62 1.257 . S
Zn70 O73 2.031 . S
Zn70 O75 2.049 . S
Zn70 O80 2.067 . S
Zn71 O72 1.962 . S
Zn71 O74 1.986 . S
Zn71 O76 1.996 . S
Zn71 O79 1.943 . S
O72 Zn71 1.962 . S
O72 C77 1.254 . S
O73 Zn70 2.031 . S
O73 C77 1.269 . S
O74 Zn71 1.986 . S
O74 C81 1.262 . S
O75 Zn70 2.049 . S
O75 C83 1.260 . S
O76 Zn71 1.996 . S
O76 C83 1.257 . S
C77 O72 1.254 . S
C77 O73 1.269 . S
C78 O79 1.249 . S
C78 O80 1.270 . S
O79 Zn71 1.943 . S
O79 C78 1.249 . S
O80 Zn70 2.067 . S
O80 C78 1.270 . S
C81 O74 1.262 . S
C81 O82 1.232 . S
O82 C81 1.232 . S
C83 O75 1.260 . S
C83 O76 1.257 . S
Zn84 O87 2.031 . S
Zn84 O89 2.049 . S
Zn84 O94 2.067 . S
Zn85 O86 1.962 . S
Zn85 O88 1.986 . S
Zn85 O90 1.996 . S
Zn85 O93 1.943 . S
O86 Zn85 1.962 . S
O86 C91 1.254 . S
O87 Zn84 2.031 . S
O87 C91 1.269 . S
O88 Zn85 1.986 . S
O88 C95 1.262 . S
O89 Zn84 2.049 . S
O89 C97 1.260 . S
O90 Zn85 1.996 . S
O90 C97 1.257 . S
C91 O86 1.254 . S
C91 O87 1.269 . S
C92 O93 1.249 . S
C92 O94 1.270 . S
O93 Zn85 1.943 . S
O93 C92 1.249 . S
O94 Zn84 2.067 . S
O94 C92 1.270 . S
C95 O88 1.262 . S
C95 O96 1.232 . S
O96 C95 1.232 . S
C97 O89 1.260 . S
C97 O90 1.257 . S
Zn98 O101 2.031 . S
Zn98 O103 2.049 . S
Zn98 O108 2.067 . S
Zn99 O100 1.962 . S
Zn99 O102 1.986 . S
Zn99 O104 1.996 . S
Zn99 O107 1.943 . S
O100 Zn99 1.962 . S
O100 C105 1.254 . S
O101 Zn98 2.031 . S
O101 C105 1.269 . S
O102 Zn99 1.986 . S
O102 C109 1.262 . S
O103 Zn98 2.049 . S
O103 C111 1.260 . S
O104 Zn99 1.996 . S
O104 C111 1.257 . S
C105 O100 1.254 . S
C105 O101 1.269 . S
C106 O107 1.249 . S
C106 O108 1.270 . S
O107 Zn99 1.943 . S
O107 C106 1.249 . S
O108 Zn98 2.067 . S
O108 C106 1.270 . S
C109 O102 1.262 . S
C109 O110 1.232 . S
O110 C109 1.232 . S
C111 O103 1.260 . S
C111 O104 1.257 . S
Zn112 O115 2.031 . S
Zn112 O117 2.049 . S
Zn112 O122 2.067 . S
Zn113 O114 1.962 . S
Zn113 O116 1.986 . S
Zn113 O118 1.996 . S
Zn113 O121 1.943 . S
O114 Zn113 1.962 . S
O114 C119 1.254 . S
O115 Zn112 2.031 . S
O115 C119 1.269 . S
O116 Zn113 1.986 . S
O116 C123 1.262 . S
O117 Zn112 2.049 . S
O117 C125 1.260 . S
O118 Zn113 1.996 . S
O118 C125 1.257 . S
C119 O114 1.254 . S
C119 O115 1.269 . S
C120 O121 1.249 . S
C120 O122 1.270 . S
O121 Zn113 1.943 . S
O121 C120 1.249 . S
O122 Zn112 2.067 . S
O122 C120 1.270 . S
C123 O116 1.262 . S
C123 O124 1.232 . S
O124 C123 1.232 . S
C125 O117 1.260 . S
C125 O118 1.257 . S
Zn126 O129 2.031 . S
Zn126 O131 2.049 . S
Zn126 O136 2.067 . S
Zn127 O128 1.962 . S
Zn127 O130 1.986 . S
Zn127 O132 1.996 . S
Zn127 O135 1.943 . S
O128 Zn127 1.962 . S
O128 C133 1.254 . S
O129 Zn126 2.031 . S
O129 C133 1.269 . S
O130 Zn127 1.986 . S
O130 C137 1.262 . S
O131 Zn126 2.049 . S
O131 C139 1.260 . S
O132 Zn127 1.996 . S
O132 C139 1.257 . S
C133 O128 1.254 . S
C133 O129 1.269 . S
C134 O135 1.249 . S
C134 O136 1.270 . S
O135 Zn127 1.943 . S
O135 C134 1.249 . S
O136 Zn126 2.067 . S
O136 C134 1.270 . S
C137 O130 1.262 . S
C137 O138 1.232 . S
O138 C137 1.232 . S
C139 O131 1.260 . S
C139 O132 1.257 . S
Zn140 O143 2.031 . S
Zn140 O145 2.049 . S
Zn140 O150 2.067 . S
Zn141 O142 1.962 . S
Zn141 O144 1.986 . S
Zn141 O146 1.996 . S
Zn141 O149 1.943 . S
O142 Zn141 1.962 . S
O142 C147 1.254 . S
O143 Zn140 2.031 . S
O143 C147 1.269 . S
O144 Zn141 1.986 . S
O144 C151 1.262 . S
O145 Zn140 2.049 . S
O145 C153 1.260 . S
O146 Zn141 1.996 . S
O146 C153 1.257 . S
C147 O142 1.254 . S
C147 O143 1.269 . S
C148 O149 1.249 . S
C148 O150 1.270 . S
O149 Zn141 1.943 . S
O149 C148 1.249 . S
O150 Zn140 2.067 . S
O150 C148 1.270 . S
C151 O144 1.262 . S
C151 O152 1.232 . S
O152 C151 1.232 . S
C153 O145 1.260 . S
C153 O146 1.257 . S
Zn154 O157 2.031 . S
Zn154 O159 2.049 . S
Zn154 O164 2.067 . S
Zn155 O156 1.962 . S
Zn155 O158 1.986 . S
Zn155 O160 1.996 . S
Zn155 O163 1.943 . S
O156 Zn155 1.962 . S
O156 C161 1.254 . S
O157 Zn154 2.031 . S
O157 C161 1.269 . S
O158 Zn155 1.986 . S
O158 C165 1.262 . S
O159 Zn154 2.049 . S
O159 C167 1.260 . S
O160 Zn155 1.996 . S
O160 C167 1.257 . S
C161 O156 1.254 . S
C161 O157 1.269 . S
C162 O163 1.249 . S
C162 O164 1.270 . S
O163 Zn155 1.943 . S
O163 C162 1.249 . S
O164 Zn154 2.067 . S
O164 C162 1.270 . S
C165 O158 1.262 . S
C165 O166 1.232 . S
O166 C165 1.232 . S
C167 O159 1.260 . S
C167 O160 1.257 . S
Zn168 O171 2.031 . S
Zn168 O173 2.049 . S
Zn168 O178 2.067 . S
Zn169 O170 1.962 . S
Zn169 O172 1.986 . S
Zn169 O174 1.996 . S
Zn169 O177 1.943 . S
O170 Zn169 1.962 . S
O170 C175 1.254 . S
O171 Zn168 2.031 . S
O171 C175 1.269 . S
O172 Zn169 1.986 . S
O172 C179 1.262 . S
O173 Zn168 2.049 . S
O173 C181 1.260 . S
O174 Zn169 1.996 . S
O174 C181 1.257 . S
C175 O170 1.254 . S
C175 O171 1.269 . S
C176 O177 1.249 . S
C176 O178 1.270 . S
O177 Zn169 1.943 . S
O177 C176 1.249 . S
O178 Zn168 2.067 . S
O178 C176 1.270 . S
C179 O172 1.262 . S
C179 O180 1.232 . S
O180 C179 1.232 . S
C181 O173 1.260 . S
C181 O174 1.257 . S
Zn182 O185 2.031 . S
Zn182 O187 2.049 . S
Zn182 O192 2.067 . S
Zn183 O184 1.962 . S
Zn183 O186 1.986 . S
Zn183 O188 1.996 . S
Zn183 O191 1.943 . S
O184 Zn183 1.962 . S
O184 C189 1.254 . S
O185 Zn182 2.031 . S
O185 C189 1.269 . S
O186 Zn183 1.986 . S
O186 C193 1.262 . S
O187 Zn182 2.049 . S
O187 C195 1.260 . S
O188 Zn183 1.996 . S
O188 C195 1.257 . S
C189 O184 1.254 . S
C189 O185 1.269 . S
C190 O191 1.249 . S
C190 O192 1.270 . S
O191 Zn183 1.943 . S
O191 C190 1.249 . S
O192 Zn182 2.067 . S
O192 C190 1.270 . S
C193 O186 1.262 . S
C193 O194 1.232 . S
O194 C193 1.232 . S
C195 O187 1.260 . S
C195 O188 1.257 . S
Zn196 O199 2.031 . S
Zn196 O201 2.049 . S
Zn196 O206 2.067 . S
Zn197 O198 1.962 . S
Zn197 O200 1.986 . S
Zn197 O202 1.996 . S
Zn197 O205 1.943 . S
O198 Zn197 1.962 . S
O198 C203 1.254 . S
O199 Zn196 2.031 . S
O199 C203 1.269 . S
O200 Zn197 1.986 . S
O200 C207 1.262 . S
O201 Zn196 2.049 . S
O201 C209 1.260 . S
O202 Zn197 1.996 . S
O202 C209 1.257 . S
C203 O198 1.254 . S
C203 O199 1.269 . S
C204 O205 1.249 . S
C204 O206 1.270 . S
O205 Zn197 1.943 . S
O205 C204 1.249 . S
O206 Zn196 2.067 . S
O206 C204 1.270 . S
C207 O200 1.262 . S
C207 O208 1.232 . S
O208 C207 1.232 . S
C209 O201 1.260 . S
C209 O202 1.257 . S
Zn210 O213 2.031 . S
Zn210 O215 2.049 . S
Zn210 O220 2.067 . S
Zn211 O212 1.962 . S
Zn211 O214 1.986 . S
Zn211 O216 1.996 . S
Zn211 O219 1.943 . S
O212 Zn211 1.962 . S
O212 C217 1.254 . S
O213 Zn210 2.031 . S
O213 C217 1.269 . S
O214 Zn211 1.986 . S
O214 C221 1.262 . S
O215 Zn210 2.049 . S
O215 C223 1.260 . S
O216 Zn211 1.996 . S
O216 C223 1.257 . S
C217 O212 1.254 . S
C217 O213 1.269 . S
C218 O219 1.249 . S
C218 O220 1.270 . S
O219 Zn211 1.943 . S
O219 C218 1.249 . S
O220 Zn210 2.067 . S
O220 C218 1.270 . S
C221 O214 1.262 . S
C221 O222 1.232 . S
O222 C221 1.232 . S
C223 O215 1.260 . S
C223 O216 1.257 . S
Zn224 O227 2.031 . S
Zn224 O229 2.049 . S
Zn224 O234 2.067 . S
Zn225 O226 1.962 . S
Zn225 O228 1.986 . S
Zn225 O230 1.996 . S
Zn225 O233 1.943 . S
O226 Zn225 1.962 . S
O226 C231 1.254 . S
O227 Zn224 2.031 . S
O227 C231 1.269 . S
O228 Zn225 1.986 . S
O228 C235 1.262 . S
O229 Zn224 2.049 . S
O229 C237 1.260 . S
O230 Zn225 1.996 . S
O230 C237 1.257 . S
C231 O226 1.254 . S
C231 O227 1.269 . S
C232 O233 1.249 . S
C232 O234 1.270 . S
O233 Zn225 1.943 . S
O233 C232 1.249 . S
O234 Zn224 2.067 . S
O234 C232 1.270 . S
C235 O228 1.262 . S
C235 O236 1.232 . S
O236 C235 1.232 . S
C237 O229 1.260 . S
C237 O230 1.257 . S
Zn238 O241 2.031 . S
Zn238 O243 2.049 . S
Zn238 O248 2.067 . S
Zn239 O240 1.962 . S
Zn239 O242 1.986 . S
Zn239 O244 1.996 . S
Zn239 O247 1.943 . S
O240 Zn239 1.962 . S
O240 C245 1.254 . S
O241 Zn238 2.031 . S
O241 C245 1.269 . S
O242 Zn239 1.986 . S
O242 C249 1.262 . S
O243 Zn238 2.049 . S
O243 C251 1.260 . S
O244 Zn239 1.996 . S
O244 C251 1.257 . S
C245 O240 1.254 . S
C245 O241 1.269 . S
C246 O247 1.249 . S
C246 O248 1.270 . S
O247 Zn239 1.943 . S
O247 C246 1.249 . S
O248 Zn238 2.067 . S
O248 C246 1.270 . S
C249 O242 1.262 . S
C249 O250 1.232 . S
O250 C249 1.232 . S
C251 O243 1.260 . S
C251 O244 1.257 . S
Zn252 O255 2.031 . S
Zn252 O257 2.049 . S
Zn252 O262 2.067 . S
Zn253 O254 1.962 . S
Zn253 O256 1.986 . S
Zn253 O258 1.996 . S
Zn253 O261 1.943 . S
O254 Zn253 1.962 . S
O254 C259 1.254 . S
O255 Zn252 2.031 . S
O255 C259 1.269 . S
O256 Zn253 1.986 . S
O256 C263 1.262 . S
O257 Zn252 2.049 . S
O257 C265 1.260 . S
O258 Zn253 1.996 . S
O258 C265 1.257 . S
C259 O254 1.254 . S
C259 O255 1.269 . S
C260 O261 1.249 . S
C260 O262 1.270 . S
O261 Zn253 1.943 . S
O261 C260 1.249 . S
O262 Zn252 2.067 . S
O262 C260 1.270 . S
C263 O256 1.262 . S
C263 O264 1.232 . S
O264 C263 1.232 . S
C265 O257 1.260 . S
C265 O258 1.257 . S
Zn266 O269 2.031 . S
Zn266 O271 2.049 . S
Zn266 O276 2.067 . S
Zn267 O268 1.962 . S
Zn267 O270 1.986 . S
Zn267 O272 1.996 . S
Zn267 O275 1.943 . S
O268 Zn267 1.962 . S
O268 C273 1.254 . S
O269 Zn266 2.031 . S
O269 C273 1.269 . S
O270 Zn267 1.986 . S
O270 C277 1.262 . S
O271 Zn266 2.049 . S
O271 C279 1.260 . S
O272 Zn267 1.996 . S
O272 C279 1.257 . S
C273 O268 1.254 . S
C273 O269 1.269 . S
C274 O275 1.249 . S
C274 O276 1.270 . S
O275 Zn267 1.943 . S
O275 C274 1.249 . S
O276 Zn266 2.067 . S
O276 C274 1.270 . S
C277 O270 1.262 . S
C277 O278 1.232 . S
O278 C277 1.232 . S
C279 O271 1.260 . S
C279 O272 1.257 . S
Zn280 O283 2.031 . S
Zn280 O285 2.049 . S
Zn280 O290 2.067 . S
Zn281 O282 1.962 . S
Zn281 O284 1.986 . S
Zn281 O286 1.996 . S
Zn281 O289 1.943 . S
O282 Zn281 1.962 . S
O282 C287 1.254 . S
O283 Zn280 2.031 . S
O283 C287 1.269 . S
O284 Zn281 1.986 . S
O284 C291 1.262 . S
O285 Zn280 2.049 . S
O285 C293 1.260 . S
O286 Zn281 1.996 . S
O286 C293 1.257 . S
C287 O282 1.254 . S
C287 O283 1.269 . S
C288 O289 1.249 . S
C288 O290 1.270 . S
O289 Zn281 1.943 . S
O289 C288 1.249 . S
O290 Zn280 2.067 . S
O290 C288 1.270 . S
C291 O284 1.262 . S
C291 O292 1.232 . S
O292 C291 1.232 . S
C293 O285 1.260 . S
C293 O286 1.257 . S
Zn294 O297 2.031 . S
Zn294 O299 2.049 . S
Zn294 O304 2.067 . S
Zn295 O296 1.962 . S
Zn295 O298 1.986 . S
Zn295 O300 1.996 . S
Zn295 O303 1.943 . S
O296 Zn295 1.962 . S
O296 C301 1.254 . S
O297 Zn294 2.031 . S
O297 C301 1.269 . S
O298 Zn295 1.986 . S
O298 C305 1.262 . S
O299 Zn294 2.049 . S
O299 C307 1.260 . S
O300 Zn295 1.996 . S
O300 C307 1.257 . S
C301 O296 1.254 . S
C301 O297 1.269 . S
C302 O303 1.249 . S
C302 O304 1.270 . S
O303 Zn295 1.943 . S
O303 C302 1.249 . S
O304 Zn294 2.067 . S
O304 C302 1.270 . S
C305 O298 1.262 . S
C305 O306 1.232 . S
O306 C305 1.232 . S
C307 O299 1.260 . S
C307 O300 1.257 . S
Zn308 O311 2.031 . S
Zn308 O313 2.049 . S
Zn308 O318 2.067 . S
Zn309 O310 1.962 . S
Zn309 O312 1.986 . S
Zn309 O314 1.996 . S
Zn309 O317 1.943 . S
O310 Zn309 1.962 . S
O310 C315 1.254 . S
O311 Zn308 2.031 . S
O311 C315 1.269 . S
O312 Zn309 1.986 . S
O312 C319 1.262 . S
O313 Zn308 2.049 . S
O313 C321 1.260 . S
O314 Zn309 1.996 . S
O314 C321 1.257 . S
C315 O310 1.254 . S
C315 O311 1.269 . S
C316 O317 1.249 . S
C316 O318 1.270 . S
O317 Zn309 1.943 . S
O317 C316 1.249 . S
O318 Zn308 2.067 . S
O318 C316 1.270 . S
C319 O312 1.262 . S
C319 O320 1.232 . S
O320 C319 1.232 . S
C321 O313 1.260 . S
C321 O314 1.257 . S
Zn322 O325 2.031 . S
Zn322 O327 2.049 . S
Zn322 O332 2.067 . S
Zn323 O324 1.962 . S
Zn323 O326 1.986 . S
Zn323 O328 1.996 . S
Zn323 O331 1.943 . S
O324 Zn323 1.962 . S
O324 C329 1.254 . S
O325 Zn322 2.031 . S
O325 C329 1.269 . S
O326 Zn323 1.986 . S
O326 C333 1.262 . S
O327 Zn322 2.049 . S
O327 C335 1.260 . S
O328 Zn323 1.996 . S
O328 C335 1.257 . S
C329 O324 1.254 . S
C329 O325 1.269 . S
C330 O331 1.249 . S
C330 O332 1.270 . S
O331 Zn323 1.943 . S
O331 C330 1.249 . S
O332 Zn322 2.067 . S
O332 C330 1.270 . S
C333 O326 1.262 . S
C333 O334 1.232 . S
O334 C333 1.232 . S
C335 O327 1.260 . S
C335 O328 1.257 . S
Zn336 O339 2.031 . S
Zn336 O341 2.049 . S
Zn336 O346 2.067 . S
Zn337 O338 1.962 . S
Zn337 O340 1.986 . S
Zn337 O342 1.996 . S
Zn337 O345 1.943 . S
O338 Zn337 1.962 . S
O338 C343 1.254 . S
O339 Zn336 2.031 . S
O339 C343 1.269 . S
O340 Zn337 1.986 . S
O340 C347 1.262 . S
O341 Zn336 2.049 . S
O341 C349 1.260 . S
O342 Zn337 1.996 . S
O342 C349 1.257 . S
C343 O338 1.254 . S
C343 O339 1.269 . S
C344 O345 1.249 . S
C344 O346 1.270 . S
O345 Zn337 1.943 . S
O345 C344 1.249 . S
O346 Zn336 2.067 . S
O346 C344 1.270 . S
C347 O340 1.262 . S
C347 O348 1.232 . S
O348 C347 1.232 . S
C349 O341 1.260 . S
C349 O342 1.257 . S
Zn350 O353 2.031 . S
Zn350 O355 2.049 . S
Zn350 O360 2.067 . S
Zn351 O352 1.962 . S
Zn351 O354 1.986 . S
Zn351 O356 1.996 . S
Zn351 O359 1.943 . S
O352 Zn351 1.962 . S
O352 C357 1.254 . S
O353 Zn350 2.031 . S
O353 C357 1.269 . S
O354 Zn351 1.986 . S
O354 C361 1.262 . S
O355 Zn350 2.049 . S
O355 C363 1.260 . S
O356 Zn351 1.996 . S
O356 C363 1.257 . S
C357 O352 1.254 . S
C357 O353 1.269 . S
C358 O359 1.249 . S
C358 O360 1.270 . S
O359 Zn351 1.943 . S
O359 C358 1.249 . S
O360 Zn350 2.067 . S
O360 C358 1.270 . S
C361 O354 1.262 . S
C361 O362 1.232 . S
O362 C361 1.232 . S
C363 O355 1.260 . S
C363 O356 1.257 . S
Zn364 O367 2.031 . S
Zn364 O369 2.049 . S
Zn364 O374 2.067 . S
Zn365 O366 1.962 . S
Zn365 O368 1.986 . S
Zn365 O370 1.996 . S
Zn365 O373 1.943 . S
O366 Zn365 1.962 . S
O366 C371 1.254 . S
O367 Zn364 2.031 . S
O367 C371 1.269 . S
O368 Zn365 1.986 . S
O368 C375 1.262 . S
O369 Zn364 2.049 . S
O369 C377 1.260 . S
O370 Zn365 1.996 . S
O370 C377 1.257 . S
C371 O366 1.254 . S
C371 O367 1.269 . S
C372 O373 1.249 . S
C372 O374 1.270 . S
O373 Zn365 1.943 . S
O373 C372 1.249 . S
O374 Zn364 2.067 . S
O374 C372 1.270 . S
C375 O368 1.262 . S
C375 O376 1.232 . S
O376 C375 1.232 . S
C377 O369 1.260 . S
C377 O370 1.257 . S
Zn378 O381 2.031 . S
Zn378 O383 2.049 . S
Zn378 O388 2.067 . S
Zn379 O380 1.962 . S
Zn379 O382 1.986 . S
Zn379 O384 1.996 . S
Zn379 O387 1.943 . S
O380 Zn379 1.962 . S
O380 C385 1.254 . S
O381 Zn378 2.031 . S
O381 C385 1.269 . S
O382 Zn379 1.986 . S
O382 C389 1.262 . S
O383 Zn378 2.049 . S
O383 C391 1.260 . S
O384 Zn379 1.996 . S
O384 C391 1.257 . S
C385 O380 1.254 . S
C385 O381 1.269 . S
C386 O387 1.249 . S
C386 O388 1.270 . S
O387 Zn379 1.943 . S
O387 C386 1.249 . S
O388 Zn378 2.067 . S
O388 C386 1.270 . S
C389 O382 1.262 . S
C389 O390 1.232 . S
O390 C389 1.232 . S
C391 O383 1.260 . S
C391 O384 1.257 . S
Zn392 O395 2.031 . S
Zn392 O397 2.049 . S
Zn392 O402 2.067 . S
Zn393 O394 1.962 . S
Zn393 O396 1.986 . S
Zn393 O398 1.996 . S
Zn393 O401 1.943 . S
O394 Zn393 1.962 . S
O394 C399 1.254 . S
O395 Zn392 2.031 . S
O395 C399 1.269 . S
O396 Zn393 1.986 . S
O396 C403 1.262 . S
O397 Zn392 2.049 . S
O397 C405 1.260 . S
O398 Zn393 1.996 . S
O398 C405 1.257 . S
C399 O394 1.254 . S
C399 O395 1.269 . S
C400 O401 1.249 . S
C400 O402 1.270 . S
O401 Zn393 1.943 . S
O401 C400 1.249 . S
O402 Zn392 2.067 . S
O402 C400 1.270 . S
C403 O396 1.262 . S
C403 O404 1.232 . S
O404 C403 1.232 . S
C405 O397 1.260 . S
C405 O398 1.257 . S
Zn406 O409 2.031 . S
Zn406 O411 2.049 . S
Zn406 O416 2.067 . S
Zn407 O408 1.962 . S
Zn407 O410 1.986 . S
Zn407 O412 1.996 . S
Zn407 O415 1.943 . S
O408 Zn407 1.962 . S
O408 C413 1.254 . S
O409 Zn406 2.031 . S
O409 C413 1.269 . S
O410 Zn407 1.986 . S
O410 C417 1.262 . S
O411 Zn406 2.049 . S
O411 C419 1.260 . S
O412 Zn407 1.996 . S
O412 C419 1.257 . S
C413 O408 1.254 . S
C413 O409 1.269 . S
C414 O415 1.249 . S
C414 O416 1.270 . S
O415 Zn407 1.943 . S
O415 C414 1.249 . S
O416 Zn406 2.067 . S
O416 C414 1.270 . S
C417 O410 1.262 . S
C417 O418 1.232 . S
O418 C417 1.232 . S
C419 O411 1.260 . S
C419 O412 1.257 . S
Zn420 O423 2.031 . S
Zn420 O425 2.049 . S
Zn420 O430 2.067 . S
Zn421 O422 1.962 . S
Zn421 O424 1.986 . S
Zn421 O426 1.996 . S
Zn421 O429 1.943 . S
O422 Zn421 1.962 . S
O422 C427 1.254 . S
O423 Zn420 2.031 . S
O423 C427 1.269 . S
O424 Zn421 1.986 . S
O424 C431 1.262 . S
O425 Zn420 2.049 . S
O425 C433 1.260 . S
O426 Zn421 1.996 . S
O426 C433 1.257 . S
C427 O422 1.254 . S
C427 O423 1.269 . S
C428 O429 1.249 . S
C428 O430 1.270 . S
O429 Zn421 1.943 . S
O429 C428 1.249 . S
O430 Zn420 2.067 . S
O430 C428 1.270 . S
C431 O424 1.262 . S
C431 O432 1.232 . S
O432 C431 1.232 . S
C433 O425 1.260 . S
C433 O426 1.257 . S
Zn434 O437 2.031 . S
Zn434 O439 2.049 . S
Zn434 O444 2.067 . S
Zn435 O436 1.962 . S
Zn435 O438 1.986 . S
Zn435 O440 1.996 . S
Zn435 O443 1.943 . S
O436 Zn435 1.962 . S
O436 C441 1.254 . S
O437 Zn434 2.031 . S
O437 C441 1.269 . S
O438 Zn435 1.986 . S
O438 C445 1.262 . S
O439 Zn434 2.049 . S
O439 C447 1.260 . S
O440 Zn435 1.996 . S
O440 C447 1.257 . S
C441 O436 1.254 . S
C441 O437 1.269 . S
C442 O443 1.249 . S
C442 O444 1.270 . S
O443 Zn435 1.943 . S
O443 C442 1.249 . S
O444 Zn434 2.067 . S
O444 C442 1.270 . S
C445 O438 1.262 . S
C445 O446 1.232 . S
O446 C445 1.232 . S
C447 O439 1.260 . S
C447 O440 1.257 . S
Zn448 O451 2.031 . S
Zn448 O453 2.049 . S
Zn448 O458 2.067 . S
Zn449 O450 1.962 . S
Zn449 O452 1.986 . S
Zn449 O454 1.996 . S
Zn449 O457 1.943 . S
O450 Zn449 1.962 . S
O450 C455 1.254 . S
O451 Zn448 2.031 . S
O451 C455 1.269 . S
O452 Zn449 1.986 . S
O452 C459 1.262 . S
O453 Zn448 2.049 . S
O453 C461 1.260 . S
O454 Zn449 1.996 . S
O454 C461 1.257 . S
C455 O450 1.254 . S
C455 O451 1.269 . S
C456 O457 1.249 . S
C456 O458 1.270 . S
O457 Zn449 1.943 . S
O457 C456 1.249 . S
O458 Zn448 2.067 . S
O458 C456 1.270 . S
C459 O452 1.262 . S
C459 O460 1.232 . S
O460 C459 1.232 . S
C461 O453 1.260 . S
C461 O454 1.257 . S
Zn462 O465 2.031 . S
Zn462 O467 2.049 . S
Zn462 O472 2.067 . S
Zn463 O464 1.962 . S
Zn463 O466 1.986 . S
Zn463 O468 1.996 . S
Zn463 O471 1.943 . S
O464 Zn463 1.962 . S
O464 C469 1.254 . S
O465 Zn462 2.031 . S
O465 C469 1.269 . S
O466 Zn463 1.986 . S
O466 C473 1.262 . S
O467 Zn462 2.049 . S
O467 C475 1.260 . S
O468 Zn463 1.996 . S
O468 C475 1.257 . S
C469 O464 1.254 . S
C469 O465 1.269 . S
C470 O471 1.249 . S
C470 O472 1.270 . S
O471 Zn463 1.943 . S
O471 C470 1.249 . S
O472 Zn462 2.067 . S
O472 C470 1.270 . S
C473 O466 1.262 . S
C473 O474 1.232 . S
O474 C473 1.232 . S
C475 O467 1.260 . S
C475 O468 1.257 . S
Zn476 O479 2.031 . S
Zn476 O481 2.049 . S
Zn476 O486 2.067 . S
Zn477 O478 1.962 . S
Zn477 O480 1.986 . S
Zn477 O482 1.996 . S
Zn477 O485 1.943 . S
O478 Zn477 1.962 . S
O478 C483 1.254 . S
O479 Zn476 2.031 . S
O479 C483 1.269 . S
O480 Zn477 1.986 . S
O480 C487 1.262 . S
O481 Zn476 2.049 . S
O481 C489 1.260 . S
O482 Zn477 1.996 . S
O482 C489 1.257 . S
C483 O478 1.254 . S
C483 O479 1.269 . S
C484 O485 1.249 . S
C484 O486 1.270 . S
O485 Zn477 1.943 . S
O485 C484 1.249 . S
O486 Zn476 2.067 . S
O486 C484 1.270 . S
C487 O480 1.262 . S
C487 O488 1.232 . S
O488 C487 1.232 . S
C489 O481 1.260 . S
C489 O482 1.257 . S
Zn490 O493 2.031 . S
Zn490 O495 2.049 . S
Zn490 O500 2.067 . S
Zn491 O492 1.962 . S
Zn491 O494 1.986 . S
Zn491 O496 1.996 . S
Zn491 O499 1.943 . S
O492 Zn491 1.962 . S
O492 C497 1.254 . S
O493 Zn490 2.031 . S
O493 C497 1.269 . S
O494 Zn491 1.986 . S
O494 C501 1.262 . S
O495 Zn490 2.049 . S
O495 C503 1.260 . S
O496 Zn491 1.996 . S
O496 C503 1.257 . S
C497 O492 1.254 . S
C497 O493 1.269 . S
C498 O499 1.249 . S
C498 O500 1.270 . S
O499 Zn491 1.943 . S
O499 C498 1.249 . S
O500 Zn490 2.067 . S
O500 C498 1.270 . S
C501 O494 1.262 . S
C501 O502 1.232 . S
O502 C501 1.232 . S
C503 O495 1.260 . S
C503 O496 1.257 . S
Zn504 O507 2.031 . S
Zn504 O509 2.049 . S
Zn504 O514 2.067 . S
Zn505 O506 1.962 . S
Zn505 O508 1.986 . S
Zn505 O510 1.996 . S
Zn505 O513 1.943 . S
O506 Zn505 1.962 . S
O506 C511 1.254 . S
O507 Zn504 2.031 . S
O507 C511 1.269 . S
O508 Zn505 1.986 . S
O508 C515 1.262 . S
O509 Zn504 2.049 . S
O509 C517 1.260 . S
O510 Zn505 1.996 . S
O510 C517 1.257 . S
C511 O506 1.254 . S
C511 O507 1.269 . S
C512 O513 1.249 . S
C512 O514 1.270 . S
O513 Zn505 1.943 . S
O513 C512 1.249 . S
O514 Zn504 2.067 . S
O514 C512 1.270 . S
C515 O508 1.262 . S
C515 O516 1.232 . S
O516 C515 1.232 . S
C517 O509 1.260 . S
C517 O510 1.257 . S
Zn518 O521 2.031 . S
Zn518 O523 2.049 . S
Zn518 O528 2.067 . S
Zn519 O520 1.962 . S
Zn519 O522 1.986 . S
Zn519 O524 1.996 . S
Zn519 O527 1.943 . S
O520 Zn519 1.962 . S
O520 C525 1.254 . S
O521 Zn518 2.031 . S
O521 C525 1.269 . S
O522 Zn519 1.986 . S
O522 C529 1.262 . S
O523 Zn518 2.049 . S
O523 C531 1.260 . S
O524 Zn519 1.996 . S
O524 C531 1.257 . S
C525 O520 1.254 . S
C525 O521 1.269 . S
C526 O527 1.249 . S
C526 O528 1.270 . S
O527 Zn519 1.943 . S
O527 C526 1.249 . S
O528 Zn518 2.067 . S
O528 C526 1.270 . S
C529 O522 1.262 . S
C529 O530 1.232 . S
O530 C529 1.232 . S
C531 O523 1.260 . S
C531 O524 1.257 . S
Zn532 O535 2.031 . S
Zn532 O537 2.049 . S
Zn532 O542 2.067 . S
Zn533 O534 1.962 . S
Zn533 O536 1.986 . S
Zn533 O538 1.996 . S
Zn533 O541 1.943 . S
O534 Zn533 1.962 . S
O534 C539 1.254 . S
O535 Zn532 2.031 . S
O535 C539 1.269 . S
O536 Zn533 1.986 . S
O536 C543 1.262 . S
O537 Zn532 2.049 . S
O537 C545 1.260 . S
O538 Zn533 1.996 . S
O538 C545 1.257 . S
C539 O534 1.254 . S
C539 O535 1.269 . S
C540 O541 1.249 . S
C540 O542 1.270 . S
O541 Zn533 1.943 . S
O541 C540 1.249 . S
O542 Zn532 2.067 . S
O542 C540 1.270 . S
C543 O536 1.262 . S
C543 O544 1.232 . S
O544 C543 1.232 . S
C545 O537 1.260 . S
C545 O538 1.257 . S
Zn546 O549 2.031 . S
Zn546 O551 2.049 . S
Zn546 O556 2.067 . S
Zn547 O548 1.962 . S
Zn547 O550 1.986 . S
Zn547 O552 1.996 . S
Zn547 O555 1.943 . S
O548 Zn547 1.962 . S
O548 C553 1.254 . S
O549 Zn546 2.031 . S
O549 C553 1.269 . S
O550 Zn547 1.986 . S
O550 C557 1.262 . S
O551 Zn546 2.049 . S
O551 C559 1.260 . S
O552 Zn547 1.996 . S
O552 C559 1.257 . S
C553 O548 1.254 . S
C553 O549 1.269 . S
C554 O555 1.249 . S
C554 O556 1.270 . S
O555 Zn547 1.943 . S
O555 C554 1.249 . S
O556 Zn546 2.067 . S
O556 C554 1.270 . S
C557 O550 1.262 . S
C557 O558 1.232 . S
O558 C557 1.232 . S
C559 O551 1.260 . S
C559 O552 1.257 . S
Zn560 O563 2.031 . S
Zn560 O565 2.049 . S
Zn560 O570 2.067 . S
Zn561 O562 1.962 . S
Zn561 O564 1.986 . S
Zn561 O566 1.996 . S
Zn561 O569 1.943 . S
O562 Zn561 1.962 . S
O562 C567 1.254 . S
O563 Zn560 2.031 . S
O563 C567 1.269 . S
O564 Zn561 1.986 . S
O564 C571 1.262 . S
O565 Zn560 2.049 . S
O565 C573 1.260 . S
O566 Zn561 1.996 . S
O566 C573 1.257 . S
C567 O562 1.254 . S
C567 O563 1.269 . S
C568 O569 1.249 . S
C568 O570 1.270 . S
O569 Zn561 1.943 . S
O569 C568 1.249 . S
O570 Zn560 2.067 . S
O570 C568 1.270 . S
C571 O564 1.262 . S
C571 O572 1.232 . S
O572 C571 1.232 . S
C573 O565 1.260 . S
C573 O566 1.257 . S
Zn574 O577 2.031 . S
Zn574 O579 2.049 . S
Zn574 O584 2.067 . S
Zn575 O576 1.962 . S
Zn575 O578 1.986 . S
Zn575 O580 1.996 . S
Zn575 O583 1.943 . S
O576 Zn575 1.962 . S
O576 C581 1.254 . S
O577 Zn574 2.031 . S
O577 C581 1.269 . S
O578 Zn575 1.986 . S
O578 C585 1.262 . S
O579 Zn574 2.049 . S
O579 C587 1.260 . S
O580 Zn575 1.996 . S
O580 C587 1.257 . S
C581 O576 1.254 . S
C581 O577 1.269 . S
C582 O583 1.249 . S
C582 O584 1.270 . S
O583 Zn575 1.943 . S
O583 C582 1.249 . S
O584 Zn574 2.067 . S
O584 C582 1.270 . S
C585 O578 1.262 . S
C585 O586 1.232 . S
O586 C585 1.232 . S
C587 O579 1.260 . S
C587 O580 1.257 . S
Zn588 O591 2.031 . S
Zn588 O593 2.049 . S
Zn588 O598 2.067 . S
Zn589 O590 1.962 . S
Zn589 O592 1.986 . S
Zn589 O594 1.996 . S
Zn589 O597 1.943 . S
O590 Zn589 1.962 . S
O590 C595 1.254 . S
O591 Zn588 2.031 . S
O591 C595 1.269 . S
O592 Zn589 1.986 . S
O592 C599 1.262 . S
O593 Zn588 2.049 . S
O593 C601 1.260 . S
O594 Zn589 1.996 . S
O594 C601 1.257 . S
C595 O590 1.254 . S
C595 O591 1.269 . S
C596 O597 1.249 . S
C596 O598 1.270 . S
O597 Zn589 1.943 . S
O597 C596 1.249 . S
O598 Zn588 2.067 . S
O598 C596 1.270 . S
C599 O592 1.262 . S
C599 O600 1.232 . S
O600 C599 1.232 . S
C601 O593 1.260 . S
C601 O594 1.257 . S
Zn602 O605 2.031 . S
Zn602 O607 2.049 . S
Zn602 O612 2.067 . S
Zn603 O604 1.962 . S
Zn603 O606 1.986 . S
Zn603 O608 1.996 . S
Zn603 O611 1.943 . S
O604 Zn603 1.962 . S
O604 C609 1.254 . S
O605 Zn602 2.031 . S
O605 C609 1.269 . S
O606 Zn603 1.986 . S
O606 C613 1.262 . S
O607 Zn602 2.049 . S
O607 C615 1.260 . S
O608 Zn603 1.996 . S
O608 C615 1.257 . S
C609 O604 1.254 . S
C609 O605 1.269 . S
C610 O611 1.249 . S
C610 O612 1.270 . S
O611 Zn603 1.943 . S
O611 C610 1.249 . S
O612 Zn602 2.067 . S
O612 C610 1.270 . S
C613 O606 1.262 . S
C613 O614 1.232 . S
O614 C613 1.232 . S
C615 O607 1.260 . S
C615 O608 1.257 . S
Zn616 O619 2.031 . S
Zn616 O621 2.049 . S
Zn616 O626 2.067 . S
Zn617 O618 1.962 . S
Zn617 O620 1.986 . S
Zn617 O622 1.996 . S
Zn617 O625 1.943 . S
O618 Zn617 1.962 . S
O618 C623 1.254 . S
O619 Zn616 2.031 . S
O619 C623 1.269 . S
O620 Zn617 1.986 . S
O620 C627 1.262 . S
O621 Zn616 2.049 . S
O621 C629 1.260 . S
O622 Zn617 1.996 . S
O622 C629 1.257 . S
C623 O618 1.254 . S
C623 O619 1.269 . S
C624 O625 1.249 . S
C624 O626 1.270 . S
O625 Zn617 1.943 . S
O625 C624 1.249 . S
O626 Zn616 2.067 . S
O626 C624 1.270 . S
C627 O620 1.262 . S
C627 O628 1.232 . S
O628 C627 1.232 . S
C629 O621 1.260 . S
C629 O622 1.257 . S
Zn630 O633 2.031 . S
Zn630 O635 2.049 . S
Zn630 O640 2.067 . S
Zn631 O632 1.962 . S
Zn631 O634 1.986 . S
Zn631 O636 1.996 . S
Zn631 O639 1.943 . S
O632 Zn631 1.962 . S
O632 C637 1.254 . S
O633 Zn630 2.031 . S
O633 C637 1.269 . S
O634 Zn631 1.986 . S
O634 C641 1.262 . S
O635 Zn630 2.049 . S
O635 C643 1.260 . S
O636 Zn631 1.996 . S
O636 C643 1.257 . S
C637 O632 1.254 . S
C637 O633 1.269 . S
C638 O639 1.249 . S
C638 O640 1.270 . S
O639 Zn631 1.943 . S
O639 C638 1.249 . S
O640 Zn630 2.067 . S
O640 C638 1.270 . S
C641 O634 1.262 . S
C641 O642 1.232 . S
O642 C641 1.232 . S
C643 O635 1.260 . S
C643 O636 1.257 . S
Zn644 O647 2.031 . S
Zn644 O649 2.049 . S
Zn644 O654 2.067 . S
Zn645 O646 1.962 . S
Zn645 O648 1.986 . S
Zn645 O650 1.996 . S
Zn645 O653 1.943 . S
O646 Zn645 1.962 . S
O646 C651 1.254 . S
O647 Zn644 2.031 . S
O647 C651 1.269 . S
O648 Zn645 1.986 . S
O648 C655 1.262 . S
O649 Zn644 2.049 . S
O649 C657 1.260 . S
O650 Zn645 1.996 . S
O650 C657 1.257 . S
C651 O646 1.254 . S
C651 O647 1.269 . S
C652 O653 1.249 . S
C652 O654 1.270 . S
O653 Zn645 1.943 . S
O653 C652 1.249 . S
O654 Zn644 2.067 . S
O654 C652 1.270 . S
C655 O648 1.262 . S
C655 O656 1.232 . S
O656 C655 1.232 . S
C657 O649 1.260 . S
C657 O650 1.257 . S
Zn658 O661 2.031 . S
Zn658 O663 2.049 . S
Zn658 O668 2.067 . S
Zn659 O660 1.962 . S
Zn659 O662 1.986 . S
Zn659 O664 1.996 . S
Zn659 O667 1.943 . S
O660 Zn659 1.962 . S
O660 C665 1.254 . S
O661 Zn658 2.031 . S
O661 C665 1.269 . S
O662 Zn659 1.986 . S
O662 C669 1.262 . S
O663 Zn658 2.049 . S
O663 C671 1.260 . S
O664 Zn659 1.996 . S
O664 C671 1.257 . S
C665 O660 1.254 . S
C665 O661 1.269 . S
C666 O667 1.249 . S
C666 O668 1.270 . S
O667 Zn659 1.943 . S
O667 C666 1.249 . S
O668 Zn658 2.067 . S
O668 C666 1.270 . S
C669 O662 1.262 . S
C669 O670 1.232 . S
O670 C669 1.232 . S
C671 O663 1.260 . S
C671 O664 1.257 . S
C672 C673 1.369 . S
C672 C674 1.419 1_655 S
C672 H676 0.930 . S
C673 C672 1.369 . S
C673 C682 1.429 . S
C674 C672 1.419 1_455 S
C674 C675 1.363 . S
C674 H677 0.929 . S
C675 C674 1.363 . S
C675 C681 1.428 . S
H676 C672 0.930 . S
H677 C674 0.929 . S
S678 N679 1.616 1_455 S
S678 N680 1.607 . S
N679 S678 1.616 1_655 S
N679 C682 1.350 . S
N680 S678 1.607 . S
N680 C681 1.351 . S
C681 C675 1.428 . S
C681 N680 1.351 . S
C681 C682 1.434 1_455 S
C682 C673 1.429 . S
C682 N679 1.350 . S
C682 C681 1.434 1_655 S
C683 C684 1.369 . S
C683 C685 1.419 . S
C683 H687 0.930 . S
C684 C683 1.369 . S
C684 C693 1.429 . S
C685 C683 1.419 . S
C685 C686 1.363 . S
C685 H688 0.929 . S
C686 C685 1.363 . S
C686 C692 1.428 . S
H687 C683 0.930 . S
H688 C685 0.929 . S
S689 N690 1.613 . S
S689 N691 1.610 . S
N690 S689 1.613 . S
N690 C693 1.350 . S
N691 S689 1.610 . S
N691 C692 1.351 . S
C692 C686 1.428 . S
C692 N691 1.351 . S
C692 C693 1.434 . S
C693 C684 1.429 . S
C693 N690 1.350 . S
C693 C692 1.434 . S
C694 C695 1.369 . S
C694 C696 1.419 1_455 S
C694 H698 0.930 . S
C695 C694 1.369 . S
C695 C704 1.429 . S
C696 C694 1.419 1_655 S
C696 C697 1.363 . S
C696 H699 0.929 . S
C697 C696 1.363 . S
C697 C703 1.428 . S
H698 C694 0.930 . S
H699 C696 0.929 . S
S700 N701 1.616 1_655 S
S700 N702 1.607 . S
N701 S700 1.616 1_455 S
N701 C704 1.350 . S
N702 S700 1.607 . S
N702 C703 1.351 . S
C703 C697 1.428 . S
C703 N702 1.351 . S
C703 C704 1.434 1_655 S
C704 C695 1.429 . S
C704 N701 1.350 . S
C704 C703 1.434 1_455 S
C705 C706 1.369 . S
C705 C707 1.419 . S
C705 H709 0.930 . S
C706 C705 1.369 . S
C706 C715 1.429 . S
C707 C705 1.419 . S
C707 C708 1.363 . S
C707 H710 0.929 . S
C708 C707 1.363 . S
C708 C714 1.428 . S
H709 C705 0.930 . S
H710 C707 0.929 . S
S711 N712 1.613 . S
S711 N713 1.610 . S
N712 S711 1.613 . S
N712 C715 1.350 . S
N713 S711 1.610 . S
N713 C714 1.351 . S
C714 C708 1.428 . S
C714 N713 1.351 . S
C714 C715 1.434 . S
C715 C706 1.429 . S
C715 N712 1.350 . S
C715 C714 1.434 . S
C716 C717 1.369 . S
C716 C718 1.419 1_655 S
C716 H720 0.930 . S
C717 C716 1.369 . S
C717 C726 1.429 . S
C718 C716 1.419 1_455 S
C718 C719 1.363 . S
C718 H721 0.929 . S
C719 C718 1.363 . S
C719 C725 1.428 . S
H720 C716 0.930 . S
H721 C718 0.929 . S
S722 N723 1.616 1_455 S
S722 N724 1.607 . S
N723 S722 1.616 1_655 S
N723 C726 1.350 . S
N724 S722 1.607 . S
N724 C725 1.351 . S
C725 C719 1.428 . S
C725 N724 1.351 . S
C725 C726 1.434 1_455 S
C726 C717 1.429 . S
C726 N723 1.350 . S
C726 C725 1.434 1_655 S
C727 C728 1.369 . S
C727 C729 1.419 . S
C727 H731 0.930 . S
C728 C727 1.369 . S
C728 C737 1.429 . S
C729 C727 1.419 . S
C729 C730 1.363 . S
C729 H732 0.929 . S
C730 C729 1.363 . S
C730 C736 1.428 . S
H731 C727 0.930 . S
H732 C729 0.929 . S
S733 N734 1.613 . S
S733 N735 1.610 . S
N734 S733 1.613 . S
N734 C737 1.350 . S
N735 S733 1.610 . S
N735 C736 1.351 . S
C736 C730 1.428 . S
C736 N735 1.351 . S
C736 C737 1.434 . S
C737 C728 1.429 . S
C737 N734 1.350 . S
C737 C736 1.434 . S
C738 C739 1.369 . S
C738 C740 1.419 1_455 S
C738 H742 0.930 . S
C739 C738 1.369 . S
C739 C748 1.429 . S
C740 C738 1.419 1_655 S
C740 C741 1.363 . S
C740 H743 0.929 . S
C741 C740 1.363 . S
C741 C747 1.428 . S
H742 C738 0.930 . S
H743 C740 0.929 . S
S744 N745 1.616 1_655 S
S744 N746 1.607 . S
N745 S744 1.616 1_455 S
N745 C748 1.350 . S
N746 S744 1.607 . S
N746 C747 1.351 . S
C747 C741 1.428 . S
C747 N746 1.351 . S
C747 C748 1.434 1_655 S
C748 C739 1.429 . S
C748 N745 1.350 . S
C748 C747 1.434 1_455 S
C749 C750 1.369 . S
C749 C751 1.419 . S
C749 H753 0.930 . S
C750 C749 1.369 . S
C750 C759 1.429 . S
C751 C749 1.419 . S
C751 C752 1.363 . S
C751 H754 0.929 . S
C752 C751 1.363 . S
C752 C758 1.428 . S
H753 C749 0.930 . S
H754 C751 0.929 . S
S755 N756 1.613 . S
S755 N757 1.610 . S
N756 S755 1.613 . S
N756 C759 1.350 . S
N757 S755 1.610 . S
N757 C758 1.351 . S
C758 C752 1.428 . S
C758 N757 1.351 . S
C758 C759 1.434 . S
C759 C750 1.429 . S
C759 N756 1.350 . S
C759 C758 1.434 . S
C760 C761 1.369 . S
C760 C762 1.419 1_565 S
C760 H764 0.930 . S
C761 C760 1.369 . S
C761 C770 1.429 . S
C762 C760 1.419 1_545 S
C762 C763 1.363 . S
C762 H765 0.929 . S
C763 C762 1.363 . S
C763 C769 1.428 . S
H764 C760 0.930 . S
H765 C762 0.929 . S
S766 N767 1.616 1_545 S
S766 N768 1.607 . S
N767 S766 1.616 1_565 S
N767 C770 1.350 . S
N768 S766 1.607 . S
N768 C769 1.351 . S
C769 C763 1.428 . S
C769 N768 1.351 . S
C769 C770 1.434 1_545 S
C770 C761 1.429 . S
C770 N767 1.350 . S
C770 C769 1.434 1_565 S
C771 C772 1.369 . S
C771 C773 1.419 . S
C771 H775 0.930 . S
C772 C771 1.369 . S
C772 C781 1.429 . S
C773 C771 1.419 . S
C773 C774 1.363 . S
C773 H776 0.929 . S
C774 C773 1.363 . S
C774 C780 1.428 . S
H775 C771 0.930 . S
H776 C773 0.929 . S
S777 N778 1.613 . S
S777 N779 1.610 . S
N778 S777 1.613 . S
N778 C781 1.350 . S
N779 S777 1.610 . S
N779 C780 1.351 . S
C780 C774 1.428 . S
C780 N779 1.351 . S
C780 C781 1.434 . S
C781 C772 1.429 . S
C781 N778 1.350 . S
C781 C780 1.434 . S
C782 C783 1.369 . S
C782 C784 1.419 1_545 S
C782 H786 0.930 . S
C783 C782 1.369 . S
C783 C792 1.429 . S
C784 C782 1.419 1_565 S
C784 C785 1.363 . S
C784 H787 0.929 . S
C785 C784 1.363 . S
C785 C791 1.428 . S
H786 C782 0.930 . S
H787 C784 0.929 . S
S788 N789 1.616 1_565 S
S788 N790 1.607 . S
N789 S788 1.616 1_545 S
N789 C792 1.350 . S
N790 S788 1.607 . S
N790 C791 1.351 . S
C791 C785 1.428 . S
C791 N790 1.351 . S
C791 C792 1.434 1_565 S
C792 C783 1.429 . S
C792 N789 1.350 . S
C792 C791 1.434 1_545 S
C793 C794 1.369 . S
C793 C795 1.419 . S
C793 H797 0.930 . S
C794 C793 1.369 . S
C794 C803 1.429 . S
C795 C793 1.419 . S
C795 C796 1.363 . S
C795 H798 0.929 . S
C796 C795 1.363 . S
C796 C802 1.428 . S
H797 C793 0.930 . S
H798 C795 0.929 . S
S799 N800 1.613 . S
S799 N801 1.610 . S
N800 S799 1.613 . S
N800 C803 1.350 . S
N801 S799 1.610 . S
N801 C802 1.351 . S
C802 C796 1.428 . S
C802 N801 1.351 . S
C802 C803 1.434 . S
C803 C794 1.429 . S
C803 N800 1.350 . S
C803 C802 1.434 . S
C804 C805 1.369 . S
C804 C806 1.419 1_545 S
C804 H808 0.930 . S
C805 C804 1.369 . S
C805 C814 1.429 . S
C806 C804 1.419 1_565 S
C806 C807 1.363 . S
C806 H809 0.929 . S
C807 C806 1.363 . S
C807 C813 1.428 . S
H808 C804 0.930 . S
H809 C806 0.929 . S
S810 N811 1.616 1_565 S
S810 N812 1.607 . S
N811 S810 1.616 1_545 S
N811 C814 1.350 . S
N812 S810 1.607 . S
N812 C813 1.351 . S
C813 C807 1.428 . S
C813 N812 1.351 . S
C813 C814 1.434 1_565 S
C814 C805 1.429 . S
C814 N811 1.350 . S
C814 C813 1.434 1_545 S
C815 C816 1.369 . S
C815 C817 1.419 . S
C815 H819 0.930 . S
C816 C815 1.369 . S
C816 C825 1.429 . S
C817 C815 1.419 . S
C817 C818 1.363 . S
C817 H820 0.929 . S
C818 C817 1.363 . S
C818 C824 1.428 . S
H819 C815 0.930 . S
H820 C817 0.929 . S
S821 N822 1.613 . S
S821 N823 1.610 . S
N822 S821 1.613 . S
N822 C825 1.350 . S
N823 S821 1.610 . S
N823 C824 1.351 . S
C824 C818 1.428 . S
C824 N823 1.351 . S
C824 C825 1.434 . S
C825 C816 1.429 . S
C825 N822 1.350 . S
C825 C824 1.434 . S
C826 C827 1.369 . S
C826 C828 1.419 1_545 S
C826 H830 0.930 . S
C827 C826 1.369 . S
C827 C836 1.429 . S
C828 C826 1.419 1_565 S
C828 C829 1.363 . S
C828 H831 0.929 . S
C829 C828 1.363 . S
C829 C835 1.428 . S
H830 C826 0.930 . S
H831 C828 0.929 . S
S832 N833 1.616 1_565 S
S832 N834 1.607 . S
N833 S832 1.616 1_545 S
N833 C836 1.350 . S
N834 S832 1.607 . S
N834 C835 1.351 . S
C835 C829 1.428 . S
C835 N834 1.351 . S
C835 C836 1.434 1_565 S
C836 C827 1.429 . S
C836 N833 1.350 . S
C836 C835 1.434 1_545 S
C837 C838 1.369 . S
C837 C839 1.419 . S
C837 H841 0.930 . S
C838 C837 1.369 . S
C838 C847 1.429 . S
C839 C837 1.419 . S
C839 C840 1.363 . S
C839 H842 0.929 . S
C840 C839 1.363 . S
C840 C846 1.428 . S
H841 C837 0.930 . S
H842 C839 0.929 . S
S843 N844 1.613 . S
S843 N845 1.610 . S
N844 S843 1.613 . S
N844 C847 1.350 . S
N845 S843 1.610 . S
N845 C846 1.351 . S
C846 C840 1.428 . S
C846 N845 1.351 . S
C846 C847 1.434 . S
C847 C838 1.429 . S
C847 N844 1.350 . S
C847 C846 1.434 . S
C848 C849 1.369 . S
C848 C850 1.419 1_554 S
C848 H852 0.930 . S
C849 C848 1.369 . S
C849 C858 1.429 . S
C850 C848 1.419 1_556 S
C850 C851 1.363 . S
C850 H853 0.929 . S
C851 C850 1.363 . S
C851 C857 1.428 . S
H852 C848 0.930 . S
H853 C850 0.929 . S
S854 N855 1.616 1_556 S
S854 N856 1.607 . S
N855 S854 1.616 1_554 S
N855 C858 1.350 . S
N856 S854 1.607 . S
N856 C857 1.351 . S
C857 C851 1.428 . S
C857 N856 1.351 . S
C857 C858 1.434 1_556 S
C858 C849 1.429 . S
C858 N855 1.350 . S
C858 C857 1.434 1_554 S
C859 C860 1.369 . S
C859 C861 1.419 1_554 S
C859 H863 0.930 . S
C860 C859 1.369 . S
C860 C869 1.429 . S
C861 C859 1.419 1_556 S
C861 C862 1.363 . S
C861 H864 0.929 . S
C862 C861 1.363 . S
C862 C868 1.428 . S
H863 C859 0.930 . S
H864 C861 0.929 . S
S865 N866 1.616 1_556 S
S865 N867 1.607 . S
N866 S865 1.616 1_554 S
N866 C869 1.350 . S
N867 S865 1.607 . S
N867 C868 1.351 . S
C868 C862 1.428 . S
C868 N867 1.351 . S
C868 C869 1.434 1_556 S
C869 C860 1.429 . S
C869 N866 1.350 . S
C869 C868 1.434 1_554 S
C870 C871 1.369 . S
C870 C872 1.419 . S
C870 H874 0.930 . S
C871 C870 1.369 . S
C871 C880 1.429 . S
C872 C870 1.419 . S
C872 C873 1.363 . S
C872 H875 0.929 . S
C873 C872 1.363 . S
C873 C879 1.428 . S
H874 C870 0.930 . S
H875 C872 0.929 . S
S876 N877 1.613 . S
S876 N878 1.610 . S
N877 S876 1.613 . S
N877 C880 1.350 . S
N878 S876 1.610 . S
N878 C879 1.351 . S
C879 C873 1.428 . S
C879 N878 1.351 . S
C879 C880 1.434 . S
C880 C871 1.429 . S
C880 N877 1.350 . S
C880 C879 1.434 . S
C881 C882 1.369 . S
C881 C883 1.419 1_554 S
C881 H885 0.930 . S
C882 C881 1.369 . S
C882 C891 1.429 . S
C883 C881 1.419 1_556 S
C883 C884 1.363 . S
C883 H886 0.929 . S
C884 C883 1.363 . S
C884 C890 1.428 . S
H885 C881 0.930 . S
H886 C883 0.929 . S
S887 N888 1.616 1_556 S
S887 N889 1.607 . S
N888 S887 1.616 1_554 S
N888 C891 1.350 . S
N889 S887 1.607 . S
N889 C890 1.351 . S
C890 C884 1.428 . S
C890 N889 1.351 . S
C890 C891 1.434 1_556 S
C891 C882 1.429 . S
C891 N888 1.350 . S
C891 C890 1.434 1_554 S
C892 C893 1.369 . S
C892 C894 1.419 . S
C892 H896 0.930 . S
C893 C892 1.369 . S
C893 C902 1.429 . S
C894 C892 1.419 . S
C894 C895 1.363 . S
C894 H897 0.929 . S
C895 C894 1.363 . S
C895 C901 1.428 . S
H896 C892 0.930 . S
H897 C894 0.929 . S
S898 N899 1.613 . S
S898 N900 1.610 . S
N899 S898 1.613 . S
N899 C902 1.350 . S
N900 S898 1.610 . S
N900 C901 1.351 . S
C901 C895 1.428 . S
C901 N900 1.351 . S
C901 C902 1.434 . S
C902 C893 1.429 . S
C902 N899 1.350 . S
C902 C901 1.434 . S
C903 C904 1.369 . S
C903 C905 1.419 1_554 S
C903 H907 0.930 . S
C904 C903 1.369 . S
C904 C913 1.429 . S
C905 C903 1.419 1_556 S
C905 C906 1.363 . S
C905 H908 0.929 . S
C906 C905 1.363 . S
C906 C912 1.428 . S
H907 C903 0.930 . S
H908 C905 0.929 . S
S909 N910 1.616 1_556 S
S909 N911 1.607 . S
N910 S909 1.616 1_554 S
N910 C913 1.350 . S
N911 S909 1.607 . S
N911 C912 1.351 . S
C912 C906 1.428 . S
C912 N911 1.351 . S
C912 C913 1.434 1_556 S
C913 C904 1.429 . S
C913 N910 1.350 . S
C913 C912 1.434 1_554 S
C914 C915 1.369 . S
C914 C916 1.419 . S
C914 H918 0.930 . S
C915 C914 1.369 . S
C915 C924 1.429 . S
C916 C914 1.419 . S
C916 C917 1.363 . S
C916 H919 0.929 . S
C917 C916 1.363 . S
C917 C923 1.428 . S
H918 C914 0.930 . S
H919 C916 0.929 . S
S920 N921 1.613 . S
S920 N922 1.610 . S
N921 S920 1.613 . S
N921 C924 1.350 . S
N922 S920 1.610 . S
N922 C923 1.351 . S
C923 C917 1.428 . S
C923 N922 1.351 . S
C923 C924 1.434 . S
C924 C915 1.429 . S
C924 N921 1.350 . S
C924 C923 1.434 . S
C925 C926 1.369 . S
C925 C927 1.419 . S
C925 H929 0.930 . S
C926 C925 1.369 . S
C926 C935 1.429 . S
C927 C925 1.419 . S
C927 C928 1.363 . S
C927 H930 0.929 . S
C928 C927 1.363 . S
C928 C934 1.428 . S
H929 C925 0.930 . S
H930 C927 0.929 . S
S931 N932 1.613 . S
S931 N933 1.610 . S
N932 S931 1.613 . S
N932 C935 1.350 . S
N933 S931 1.610 . S
N933 C934 1.351 . S
C934 C928 1.428 . S
C934 N933 1.351 . S
C934 C935 1.434 . S
C935 C926 1.429 . S
C935 N932 1.350 . S
C935 C934 1.434 . S
C936 C937 1.369 . S
C936 C938 1.419 . S
C936 H940 0.930 . S
C937 C936 1.369 . S
C937 C946 1.429 . S
C938 C936 1.419 . S
C938 C939 1.363 . S
C938 H941 0.929 . S
C939 C938 1.363 . S
C939 C945 1.428 . S
H940 C936 0.930 . S
H941 C938 0.929 . S
S942 N943 1.613 . S
S942 N944 1.610 . S
N943 S942 1.613 . S
N943 C946 1.350 . S
N944 S942 1.610 . S
N944 C945 1.351 . S
C945 C939 1.428 . S
C945 N944 1.351 . S
C945 C946 1.434 . S
C946 C937 1.429 . S
C946 N943 1.350 . S
C946 C945 1.434 . S
C947 C948 1.369 . S
C947 C949 1.419 . S
C947 H951 0.930 . S
C948 C947 1.369 . S
C948 C957 1.429 . S
C949 C947 1.419 . S
C949 C950 1.363 . S
C949 H952 0.929 . S
C950 C949 1.363 . S
C950 C956 1.428 . S
H951 C947 0.930 . S
H952 C949 0.929 . S
S953 N954 1.613 . S
S953 N955 1.610 . S
N954 S953 1.613 . S
N954 C957 1.350 . S
N955 S953 1.610 . S
N955 C956 1.351 . S
C956 C950 1.428 . S
C956 N955 1.351 . S
C956 C957 1.434 . S
C957 C948 1.429 . S
C957 N954 1.350 . S
C957 C956 1.434 . S
C958 C959 1.369 . S
C958 C960 1.419 . S
C958 H962 0.930 . S
C959 C958 1.369 . S
C959 C968 1.429 . S
C960 C958 1.419 . S
C960 C961 1.363 . S
C960 H963 0.929 . S
C961 C960 1.363 . S
C961 C967 1.428 . S
H962 C958 0.930 . S
H963 C960 0.929 . S
S964 N965 1.613 . S
S964 N966 1.610 . S
N965 S964 1.613 . S
N965 C968 1.350 . S
N966 S964 1.610 . S
N966 C967 1.351 . S
C967 C961 1.428 . S
C967 N966 1.351 . S
C967 C968 1.434 . S
C968 C959 1.429 . S
C968 N965 1.350 . S
C968 C967 1.434 . S
C969 C970 1.369 . S
C969 C971 1.419 . S
C969 H973 0.930 . S
C970 C969 1.369 . S
C970 C979 1.429 . S
C971 C969 1.419 . S
C971 C972 1.363 . S
C971 H974 0.929 . S
C972 C971 1.363 . S
C972 C978 1.428 . S
H973 C969 0.930 . S
H974 C971 0.929 . S
S975 N976 1.613 . S
S975 N977 1.610 . S
N976 S975 1.613 . S
N976 C979 1.350 . S
N977 S975 1.610 . S
N977 C978 1.351 . S
C978 C972 1.428 . S
C978 N977 1.351 . S
C978 C979 1.434 . S
C979 C970 1.429 . S
C979 N976 1.350 . S
C979 C978 1.434 . S
C980 C981 1.369 . S
C980 C982 1.419 . S
C980 H984 0.930 . S
C981 C980 1.369 . S
C981 C990 1.429 . S
C982 C980 1.419 . S
C982 C983 1.363 . S
C982 H985 0.929 . S
C983 C982 1.363 . S
C983 C989 1.428 . S
H984 C980 0.930 . S
H985 C982 0.929 . S
S986 N987 1.613 . S
S986 N988 1.610 . S
N987 S986 1.613 . S
N987 C990 1.350 . S
N988 S986 1.610 . S
N988 C989 1.351 . S
C989 C983 1.428 . S
C989 N988 1.351 . S
C989 C990 1.434 . S
C990 C981 1.429 . S
C990 N987 1.350 . S
C990 C989 1.434 . S
C991 C992 1.369 . S
C991 C993 1.419 . S
C991 H995 0.930 . S
C992 C991 1.369 . S
C992 C1001 1.429 . S
C993 C991 1.419 . S
C993 C994 1.363 . S
C993 H996 0.929 . S
C994 C993 1.363 . S
C994 C1000 1.428 . S
H995 C991 0.930 . S
H996 C993 0.929 . S
S997 N998 1.613 . S
S997 N999 1.610 . S
N998 S997 1.613 . S
N998 C1001 1.350 . S
N999 S997 1.610 . S
N999 C1000 1.351 . S
C1000 C994 1.428 . S
C1000 N999 1.351 . S
C1000 C1001 1.434 . S
C1001 C992 1.429 . S
C1001 N998 1.350 . S
C1001 C1000 1.434 . S
C1002 C1003 1.369 . S
C1002 C1004 1.419 . S
C1002 H1006 0.930 . S
C1003 C1002 1.369 . S
C1003 C1012 1.429 . S
C1004 C1002 1.419 . S
C1004 C1005 1.363 . S
C1004 H1007 0.929 . S
C1005 C1004 1.363 . S
C1005 C1011 1.428 . S
H1006 C1002 0.930 . S
H1007 C1004 0.929 . S
S1008 N1009 1.613 . S
S1008 N1010 1.610 . S
N1009 S1008 1.613 . S
N1009 C1012 1.350 . S
N1010 S1008 1.610 . S
N1010 C1011 1.351 . S
C1011 C1005 1.428 . S
C1011 N1010 1.351 . S
C1011 C1012 1.434 . S
C1012 C1003 1.429 . S
C1012 N1009 1.350 . S
C1012 C1011 1.434 . S
C1013 C1014 1.369 . S
C1013 C1015 1.419 . S
C1013 H1017 0.930 . S
C1014 C1013 1.369 . S
C1014 C1023 1.429 . S
C1015 C1013 1.419 . S
C1015 C1016 1.363 . S
C1015 H1018 0.929 . S
C1016 C1015 1.363 . S
C1016 C1022 1.428 . S
H1017 C1013 0.930 . S
H1018 C1015 0.929 . S
S1019 N1020 1.613 . S
S1019 N1021 1.610 . S
N1020 S1019 1.613 . S
N1020 C1023 1.350 . S
N1021 S1019 1.610 . S
N1021 C1022 1.351 . S
C1022 C1016 1.428 . S
C1022 N1021 1.351 . S
C1022 C1023 1.434 . S
C1023 C1014 1.429 . S
C1023 N1020 1.350 . S
C1023 C1022 1.434 . S
C1024 C1025 1.369 . S
C1024 C1026 1.419 . S
C1024 H1028 0.930 . S
C1025 C1024 1.369 . S
C1025 C1034 1.429 . S
C1026 C1024 1.419 . S
C1026 C1027 1.363 . S
C1026 H1029 0.929 . S
C1027 C1026 1.363 . S
C1027 C1033 1.428 . S
H1028 C1024 0.930 . S
H1029 C1026 0.929 . S
S1030 N1031 1.613 . S
S1030 N1032 1.610 . S
N1031 S1030 1.613 . S
N1031 C1034 1.350 . S
N1032 S1030 1.610 . S
N1032 C1033 1.351 . S
C1033 C1027 1.428 . S
C1033 N1032 1.351 . S
C1033 C1034 1.434 . S
C1034 C1025 1.429 . S
C1034 N1031 1.350 . S
C1034 C1033 1.434 . S
C1035 C1036 1.369 . S
C1035 C1037 1.419 . S
C1035 H1039 0.930 . S
C1036 C1035 1.369 . S
C1036 C1045 1.429 . S
C1037 C1035 1.419 . S
C1037 C1038 1.363 . S
C1037 H1040 0.929 . S
C1038 C1037 1.363 . S
C1038 C1044 1.428 . S
H1039 C1035 0.930 . S
H1040 C1037 0.929 . S
S1041 N1042 1.613 . S
S1041 N1043 1.610 . S
N1042 S1041 1.613 . S
N1042 C1045 1.350 . S
N1043 S1041 1.610 . S
N1043 C1044 1.351 . S
C1044 C1038 1.428 . S
C1044 N1043 1.351 . S
C1044 C1045 1.434 . S
C1045 C1036 1.429 . S
C1045 N1042 1.350 . S
C1045 C1044 1.434 . S
C1046 C1047 1.369 . S
C1046 C1048 1.419 . S
C1046 H1050 0.930 . S
C1047 C1046 1.369 . S
C1047 C1056 1.429 . S
C1048 C1046 1.419 . S
C1048 C1049 1.363 . S
C1048 H1051 0.929 . S
C1049 C1048 1.363 . S
C1049 C1055 1.428 . S
H1050 C1046 0.930 . S
H1051 C1048 0.929 . S
S1052 N1053 1.613 . S
S1052 N1054 1.610 . S
N1053 S1052 1.613 . S
N1053 C1056 1.350 . S
N1054 S1052 1.610 . S
N1054 C1055 1.351 . S
C1055 C1049 1.428 . S
C1055 N1054 1.351 . S
C1055 C1056 1.434 . S
C1056 C1047 1.429 . S
C1056 N1053 1.350 . S
C1056 C1055 1.434 . S
C1057 C1058 1.369 . S
C1057 C1059 1.419 . S
C1057 H1061 0.930 . S
C1058 C1057 1.369 . S
C1058 C1067 1.429 . S
C1059 C1057 1.419 . S
C1059 C1060 1.363 . S
C1059 H1062 0.929 . S
C1060 C1059 1.363 . S
C1060 C1066 1.428 . S
H1061 C1057 0.930 . S
H1062 C1059 0.929 . S
S1063 N1064 1.613 . S
S1063 N1065 1.610 . S
N1064 S1063 1.613 . S
N1064 C1067 1.350 . S
N1065 S1063 1.610 . S
N1065 C1066 1.351 . S
C1066 C1060 1.428 . S
C1066 N1065 1.351 . S
C1066 C1067 1.434 . S
C1067 C1058 1.429 . S
C1067 N1064 1.350 . S
C1067 C1066 1.434 . S
C1068 C1069 1.369 . S
C1068 C1070 1.419 . S
C1068 H1072 0.930 . S
C1069 C1068 1.369 . S
C1069 C1078 1.429 . S
C1070 C1068 1.419 . S
C1070 C1071 1.363 . S
C1070 H1073 0.929 . S
C1071 C1070 1.363 . S
C1071 C1077 1.428 . S
H1072 C1068 0.930 . S
H1073 C1070 0.929 . S
S1074 N1075 1.613 . S
S1074 N1076 1.610 . S
N1075 S1074 1.613 . S
N1075 C1078 1.350 . S
N1076 S1074 1.610 . S
N1076 C1077 1.351 . S
C1077 C1071 1.428 . S
C1077 N1076 1.351 . S
C1077 C1078 1.434 . S
C1078 C1069 1.429 . S
C1078 N1075 1.350 . S
C1078 C1077 1.434 . S
C1079 C1080 1.369 . S
C1079 C1081 1.419 . S
C1079 H1083 0.930 . S
C1080 C1079 1.369 . S
C1080 C1089 1.429 . S
C1081 C1079 1.419 . S
C1081 C1082 1.363 . S
C1081 H1084 0.929 . S
C1082 C1081 1.363 . S
C1082 C1088 1.428 . S
H1083 C1079 0.930 . S
H1084 C1081 0.929 . S
S1085 N1086 1.613 . S
S1085 N1087 1.610 . S
N1086 S1085 1.613 . S
N1086 C1089 1.350 . S
N1087 S1085 1.610 . S
N1087 C1088 1.351 . S
C1088 C1082 1.428 . S
C1088 N1087 1.351 . S
C1088 C1089 1.434 . S
C1089 C1080 1.429 . S
C1089 N1086 1.350 . S
C1089 C1088 1.434 . S
C1090 C1091 1.369 . S
C1090 C1092 1.419 . S
C1090 H1094 0.930 . S
C1091 C1090 1.369 . S
C1091 C1100 1.429 . S
C1092 C1090 1.419 . S
C1092 C1093 1.363 . S
C1092 H1095 0.929 . S
C1093 C1092 1.363 . S
C1093 C1099 1.428 . S
H1094 C1090 0.930 . S
H1095 C1092 0.929 . S
S1096 N1097 1.613 . S
S1096 N1098 1.610 . S
N1097 S1096 1.613 . S
N1097 C1100 1.350 . S
N1098 S1096 1.610 . S
N1098 C1099 1.351 . S
C1099 C1093 1.428 . S
C1099 N1098 1.351 . S
C1099 C1100 1.434 . S
C1100 C1091 1.429 . S
C1100 N1097 1.350 . S
C1100 C1099 1.434 . S
C1101 C1102 1.369 . S
C1101 C1103 1.419 . S
C1101 H1105 0.930 . S
C1102 C1101 1.369 . S
C1102 C1111 1.429 . S
C1103 C1101 1.419 . S
C1103 C1104 1.363 . S
C1103 H1106 0.929 . S
C1104 C1103 1.363 . S
C1104 C1110 1.428 . S
H1105 C1101 0.930 . S
H1106 C1103 0.929 . S
S1107 N1108 1.613 . S
S1107 N1109 1.610 . S
N1108 S1107 1.613 . S
N1108 C1111 1.350 . S
N1109 S1107 1.610 . S
N1109 C1110 1.351 . S
C1110 C1104 1.428 . S
C1110 N1109 1.351 . S
C1110 C1111 1.434 . S
C1111 C1102 1.429 . S
C1111 N1108 1.350 . S
C1111 C1110 1.434 . S
C1112 C1113 1.369 . S
C1112 C1114 1.419 . S
C1112 H1116 0.930 . S
C1113 C1112 1.369 . S
C1113 C1122 1.429 . S
C1114 C1112 1.419 . S
C1114 C1115 1.363 . S
C1114 H1117 0.929 . S
C1115 C1114 1.363 . S
C1115 C1121 1.428 . S
H1116 C1112 0.930 . S
H1117 C1114 0.929 . S
S1118 N1119 1.613 . S
S1118 N1120 1.610 . S
N1119 S1118 1.613 . S
N1119 C1122 1.350 . S
N1120 S1118 1.610 . S
N1120 C1121 1.351 . S
C1121 C1115 1.428 . S
C1121 N1120 1.351 . S
C1121 C1122 1.434 . S
C1122 C1113 1.429 . S
C1122 N1119 1.350 . S
C1122 C1121 1.434 . S
C1123 C1124 1.369 . S
C1123 C1125 1.419 . S
C1123 H1127 0.930 . S
C1124 C1123 1.369 . S
C1124 C1133 1.429 . S
C1125 C1123 1.419 . S
C1125 C1126 1.363 . S
C1125 H1128 0.929 . S
C1126 C1125 1.363 . S
C1126 C1132 1.428 . S
H1127 C1123 0.930 . S
H1128 C1125 0.929 . S
S1129 N1130 1.613 . S
S1129 N1131 1.610 . S
N1130 S1129 1.613 . S
N1130 C1133 1.350 . S
N1131 S1129 1.610 . S
N1131 C1132 1.351 . S
C1132 C1126 1.428 . S
C1132 N1131 1.351 . S
C1132 C1133 1.434 . S
C1133 C1124 1.429 . S
C1133 N1130 1.350 . S
C1133 C1132 1.434 . S
C1134 C1135 1.369 . S
C1134 C1136 1.419 . S
C1134 H1138 0.930 . S
C1135 C1134 1.369 . S
C1135 C1144 1.429 . S
C1136 C1134 1.419 . S
C1136 C1137 1.363 . S
C1136 H1139 0.929 . S
C1137 C1136 1.363 . S
C1137 C1143 1.428 . S
H1138 C1134 0.930 . S
H1139 C1136 0.929 . S
S1140 N1141 1.613 . S
S1140 N1142 1.610 . S
N1141 S1140 1.613 . S
N1141 C1144 1.350 . S
N1142 S1140 1.610 . S
N1142 C1143 1.351 . S
C1143 C1137 1.428 . S
C1143 N1142 1.351 . S
C1143 C1144 1.434 . S
C1144 C1135 1.429 . S
C1144 N1141 1.350 . S
C1144 C1143 1.434 . S
C1145 C1146 1.369 . S
C1145 C1147 1.419 . S
C1145 H1149 0.930 . S
C1146 C1145 1.369 . S
C1146 C1155 1.429 . S
C1147 C1145 1.419 . S
C1147 C1148 1.363 . S
C1147 H1150 0.929 . S
C1148 C1147 1.363 . S
C1148 C1154 1.428 . S
H1149 C1145 0.930 . S
H1150 C1147 0.929 . S
S1151 N1152 1.613 . S
S1151 N1153 1.610 . S
N1152 S1151 1.613 . S
N1152 C1155 1.350 . S
N1153 S1151 1.610 . S
N1153 C1154 1.351 . S
C1154 C1148 1.428 . S
C1154 N1153 1.351 . S
C1154 C1155 1.434 . S
C1155 C1146 1.429 . S
C1155 N1152 1.350 . S
C1155 C1154 1.434 . S
C1156 C1157 1.369 . S
C1156 C1158 1.419 . S
C1156 H1160 0.930 . S
C1157 C1156 1.369 . S
C1157 C1166 1.429 . S
C1158 C1156 1.419 . S
C1158 C1159 1.363 . S
C1158 H1161 0.929 . S
C1159 C1158 1.363 . S
C1159 C1165 1.428 . S
H1160 C1156 0.930 . S
H1161 C1158 0.929 . S
S1162 N1163 1.613 . S
S1162 N1164 1.610 . S
N1163 S1162 1.613 . S
N1163 C1166 1.350 . S
N1164 S1162 1.610 . S
N1164 C1165 1.351 . S
C1165 C1159 1.428 . S
C1165 N1164 1.351 . S
C1165 C1166 1.434 . S
C1166 C1157 1.429 . S
C1166 N1163 1.350 . S
C1166 C1165 1.434 . S
C1167 C1168 1.369 . S
C1167 C1169 1.419 . S
C1167 H1171 0.930 . S
C1168 C1167 1.369 . S
C1168 C1177 1.429 . S
C1169 C1167 1.419 . S
C1169 C1170 1.363 . S
C1169 H1172 0.929 . S
C1170 C1169 1.363 . S
C1170 C1176 1.428 . S
H1171 C1167 0.930 . S
H1172 C1169 0.929 . S
S1173 N1174 1.613 . S
S1173 N1175 1.610 . S
N1174 S1173 1.613 . S
N1174 C1177 1.350 . S
N1175 S1173 1.610 . S
N1175 C1176 1.351 . S
C1176 C1170 1.428 . S
C1176 N1175 1.351 . S
C1176 C1177 1.434 . S
C1177 C1168 1.429 . S
C1177 N1174 1.350 . S
C1177 C1176 1.434 . S
C1178 C1179 1.369 . S
C1178 C1180 1.419 . S
C1178 H1182 0.930 . S
C1179 C1178 1.369 . S
C1179 C1188 1.429 . S
C1180 C1178 1.419 . S
C1180 C1181 1.363 . S
C1180 H1183 0.929 . S
C1181 C1180 1.363 . S
C1181 C1187 1.428 . S
H1182 C1178 0.930 . S
H1183 C1180 0.929 . S
S1184 N1185 1.613 . S
S1184 N1186 1.610 . S
N1185 S1184 1.613 . S
N1185 C1188 1.350 . S
N1186 S1184 1.610 . S
N1186 C1187 1.351 . S
C1187 C1181 1.428 . S
C1187 N1186 1.351 . S
C1187 C1188 1.434 . S
C1188 C1179 1.429 . S
C1188 N1185 1.350 . S
C1188 C1187 1.434 . S
C1189 C1190 1.369 . S
C1189 C1191 1.419 . S
C1189 H1193 0.930 . S
C1190 C1189 1.369 . S
C1190 C1199 1.429 . S
C1191 C1189 1.419 . S
C1191 C1192 1.363 . S
C1191 H1194 0.929 . S
C1192 C1191 1.363 . S
C1192 C1198 1.428 . S
H1193 C1189 0.930 . S
H1194 C1191 0.929 . S
S1195 N1196 1.613 . S
S1195 N1197 1.610 . S
N1196 S1195 1.613 . S
N1196 C1199 1.350 . S
N1197 S1195 1.610 . S
N1197 C1198 1.351 . S
C1198 C1192 1.428 . S
C1198 N1197 1.351 . S
C1198 C1199 1.434 . S
C1199 C1190 1.429 . S
C1199 N1196 1.350 . S
C1199 C1198 1.434 . S
C1200 C1201 1.369 . S
C1200 C1202 1.419 . S
C1200 H1204 0.930 . S
C1201 C1200 1.369 . S
C1201 C1210 1.429 . S
C1202 C1200 1.419 . S
C1202 C1203 1.363 . S
C1202 H1205 0.929 . S
C1203 C1202 1.363 . S
C1203 C1209 1.428 . S
H1204 C1200 0.930 . S
H1205 C1202 0.929 . S
S1206 N1207 1.613 . S
S1206 N1208 1.610 . S
N1207 S1206 1.613 . S
N1207 C1210 1.350 . S
N1208 S1206 1.610 . S
N1208 C1209 1.351 . S
C1209 C1203 1.428 . S
C1209 N1208 1.351 . S
C1209 C1210 1.434 . S
C1210 C1201 1.429 . S
C1210 N1207 1.350 . S
C1210 C1209 1.434 . S
C1211 C1212 1.369 . S
C1211 C1213 1.419 . S
C1211 H1215 0.930 . S
C1212 C1211 1.369 . S
C1212 C1221 1.429 . S
C1213 C1211 1.419 . S
C1213 C1214 1.363 . S
C1213 H1216 0.929 . S
C1214 C1213 1.363 . S
C1214 C1220 1.428 . S
H1215 C1211 0.930 . S
H1216 C1213 0.929 . S
S1217 N1218 1.613 . S
S1217 N1219 1.610 . S
N1218 S1217 1.613 . S
N1218 C1221 1.350 . S
N1219 S1217 1.610 . S
N1219 C1220 1.351 . S
C1220 C1214 1.428 . S
C1220 N1219 1.351 . S
C1220 C1221 1.434 . S
C1221 C1212 1.429 . S
C1221 N1218 1.350 . S
C1221 C1220 1.434 . S
C1222 C1223 1.369 . S
C1222 C1224 1.419 . S
C1222 H1226 0.930 . S
C1223 C1222 1.369 . S
C1223 C1232 1.429 . S
C1224 C1222 1.419 . S
C1224 C1225 1.363 . S
C1224 H1227 0.929 . S
C1225 C1224 1.363 . S
C1225 C1231 1.428 . S
H1226 C1222 0.930 . S
H1227 C1224 0.929 . S
S1228 N1229 1.613 . S
S1228 N1230 1.610 . S
N1229 S1228 1.613 . S
N1229 C1232 1.350 . S
N1230 S1228 1.610 . S
N1230 C1231 1.351 . S
C1231 C1225 1.428 . S
C1231 N1230 1.351 . S
C1231 C1232 1.434 . S
C1232 C1223 1.429 . S
C1232 N1229 1.350 . S
C1232 C1231 1.434 . S
C1233 C1234 1.369 . S
C1233 C1235 1.419 . S
C1233 H1237 0.930 . S
C1234 C1233 1.369 . S
C1234 C1243 1.429 . S
C1235 C1233 1.419 . S
C1235 C1236 1.363 . S
C1235 H1238 0.929 . S
C1236 C1235 1.363 . S
C1236 C1242 1.428 . S
H1237 C1233 0.930 . S
H1238 C1235 0.929 . S
S1239 N1240 1.613 . S
S1239 N1241 1.610 . S
N1240 S1239 1.613 . S
N1240 C1243 1.350 . S
N1241 S1239 1.610 . S
N1241 C1242 1.351 . S
C1242 C1236 1.428 . S
C1242 N1241 1.351 . S
C1242 C1243 1.434 . S
C1243 C1234 1.429 . S
C1243 N1240 1.350 . S
C1243 C1242 1.434 . S
C1244 C1245 1.369 . S
C1244 C1246 1.419 . S
C1244 H1248 0.930 . S
C1245 C1244 1.369 . S
C1245 C1254 1.429 . S
C1246 C1244 1.419 . S
C1246 C1247 1.363 . S
C1246 H1249 0.929 . S
C1247 C1246 1.363 . S
C1247 C1253 1.428 . S
H1248 C1244 0.930 . S
H1249 C1246 0.929 . S
S1250 N1251 1.613 . S
S1250 N1252 1.610 . S
N1251 S1250 1.613 . S
N1251 C1254 1.350 . S
N1252 S1250 1.610 . S
N1252 C1253 1.351 . S
C1253 C1247 1.428 . S
C1253 N1252 1.351 . S
C1253 C1254 1.434 . S
C1254 C1245 1.429 . S
C1254 N1251 1.350 . S
C1254 C1253 1.434 . S
C1255 C1256 1.369 . S
C1255 C1257 1.419 . S
C1255 H1259 0.930 . S
C1256 C1255 1.369 . S
C1256 C1265 1.429 . S
C1257 C1255 1.419 . S
C1257 C1258 1.363 . S
C1257 H1260 0.929 . S
C1258 C1257 1.363 . S
C1258 C1264 1.428 . S
H1259 C1255 0.930 . S
H1260 C1257 0.929 . S
S1261 N1262 1.613 . S
S1261 N1263 1.610 . S
N1262 S1261 1.613 . S
N1262 C1265 1.350 . S
N1263 S1261 1.610 . S
N1263 C1264 1.351 . S
C1264 C1258 1.428 . S
C1264 N1263 1.351 . S
C1264 C1265 1.434 . S
C1265 C1256 1.429 . S
C1265 N1262 1.350 . S
C1265 C1264 1.434 . S
C1266 C1267 1.369 . S
C1266 C1268 1.419 . S
C1266 H1270 0.930 . S
C1267 C1266 1.369 . S
C1267 C1276 1.429 . S
C1268 C1266 1.419 . S
C1268 C1269 1.363 . S
C1268 H1271 0.929 . S
C1269 C1268 1.363 . S
C1269 C1275 1.428 . S
H1270 C1266 0.930 . S
H1271 C1268 0.929 . S
S1272 N1273 1.613 . S
S1272 N1274 1.610 . S
N1273 S1272 1.613 . S
N1273 C1276 1.350 . S
N1274 S1272 1.610 . S
N1274 C1275 1.351 . S
C1275 C1269 1.428 . S
C1275 N1274 1.351 . S
C1275 C1276 1.434 . S
C1276 C1267 1.429 . S
C1276 N1273 1.350 . S
C1276 C1275 1.434 . S
C1277 C1278 1.369 . S
C1277 C1279 1.419 . S
C1277 H1281 0.930 . S
C1278 C1277 1.369 . S
C1278 C1287 1.429 . S
C1279 C1277 1.419 . S
C1279 C1280 1.363 . S
C1279 H1282 0.929 . S
C1280 C1279 1.363 . S
C1280 C1286 1.428 . S
H1281 C1277 0.930 . S
H1282 C1279 0.929 . S
S1283 N1284 1.613 . S
S1283 N1285 1.610 . S
N1284 S1283 1.613 . S
N1284 C1287 1.350 . S
N1285 S1283 1.610 . S
N1285 C1286 1.351 . S
C1286 C1280 1.428 . S
C1286 N1285 1.351 . S
C1286 C1287 1.434 . S
C1287 C1278 1.429 . S
C1287 N1284 1.350 . S
C1287 C1286 1.434 . S
C1288 C1289 1.369 . S
C1288 C1290 1.419 . S
C1288 H1292 0.930 . S
C1289 C1288 1.369 . S
C1289 C1298 1.429 . S
C1290 C1288 1.419 . S
C1290 C1291 1.363 . S
C1290 H1293 0.929 . S
C1291 C1290 1.363 . S
C1291 C1297 1.428 . S
H1292 C1288 0.930 . S
H1293 C1290 0.929 . S
S1294 N1295 1.613 . S
S1294 N1296 1.610 . S
N1295 S1294 1.613 . S
N1295 C1298 1.350 . S
N1296 S1294 1.610 . S
N1296 C1297 1.351 . S
C1297 C1291 1.428 . S
C1297 N1296 1.351 . S
C1297 C1298 1.434 . S
C1298 C1289 1.429 . S
C1298 N1295 1.350 . S
C1298 C1297 1.434 . S
C1299 C1300 1.369 . S
C1299 C1301 1.419 . S
C1299 H1303 0.930 . S
C1300 C1299 1.369 . S
C1300 C1309 1.429 . S
C1301 C1299 1.419 . S
C1301 C1302 1.363 . S
C1301 H1304 0.929 . S
C1302 C1301 1.363 . S
C1302 C1308 1.428 . S
H1303 C1299 0.930 . S
H1304 C1301 0.929 . S
S1305 N1306 1.613 . S
S1305 N1307 1.610 . S
N1306 S1305 1.613 . S
N1306 C1309 1.350 . S
N1307 S1305 1.610 . S
N1307 C1308 1.351 . S
C1308 C1302 1.428 . S
C1308 N1307 1.351 . S
C1308 C1309 1.434 . S
C1309 C1300 1.429 . S
C1309 N1306 1.350 . S
C1309 C1308 1.434 . S
C1310 C1311 1.369 . S
C1310 C1312 1.419 . S
C1310 H1314 0.930 . S
C1311 C1310 1.369 . S
C1311 C1320 1.429 . S
C1312 C1310 1.419 . S
C1312 C1313 1.363 . S
C1312 H1315 0.929 . S
C1313 C1312 1.363 . S
C1313 C1319 1.428 . S
H1314 C1310 0.930 . S
H1315 C1312 0.929 . S
S1316 N1317 1.613 . S
S1316 N1318 1.610 . S
N1317 S1316 1.613 . S
N1317 C1320 1.350 . S
N1318 S1316 1.610 . S
N1318 C1319 1.351 . S
C1319 C1313 1.428 . S
C1319 N1318 1.351 . S
C1319 C1320 1.434 . S
C1320 C1311 1.429 . S
C1320 N1317 1.350 . S
C1320 C1319 1.434 . S
C1321 C1322 1.369 . S
C1321 C1323 1.419 . S
C1321 H1325 0.930 . S
C1322 C1321 1.369 . S
C1322 C1331 1.429 . S
C1323 C1321 1.419 . S
C1323 C1324 1.363 . S
C1323 H1326 0.929 . S
C1324 C1323 1.363 . S
C1324 C1330 1.428 . S
H1325 C1321 0.930 . S
H1326 C1323 0.929 . S
S1327 N1328 1.613 . S
S1327 N1329 1.610 . S
N1328 S1327 1.613 . S
N1328 C1331 1.350 . S
N1329 S1327 1.610 . S
N1329 C1330 1.351 . S
C1330 C1324 1.428 . S
C1330 N1329 1.351 . S
C1330 C1331 1.434 . S
C1331 C1322 1.429 . S
C1331 N1328 1.350 . S
C1331 C1330 1.434 . S
C1332 C1333 1.369 . S
C1332 C1334 1.419 . S
C1332 H1336 0.930 . S
C1333 C1332 1.369 . S
C1333 C1342 1.429 . S
C1334 C1332 1.419 . S
C1334 C1335 1.363 . S
C1334 H1337 0.929 . S
C1335 C1334 1.363 . S
C1335 C1341 1.428 . S
H1336 C1332 0.930 . S
H1337 C1334 0.929 . S
S1338 N1339 1.613 . S
S1338 N1340 1.610 . S
N1339 S1338 1.613 . S
N1339 C1342 1.350 . S
N1340 S1338 1.610 . S
N1340 C1341 1.351 . S
C1341 C1335 1.428 . S
C1341 N1340 1.351 . S
C1341 C1342 1.434 . S
C1342 C1333 1.429 . S
C1342 N1339 1.350 . S
C1342 C1341 1.434 . S
C1343 C1344 1.369 . S
C1343 C1345 1.419 . S
C1343 H1347 0.930 . S
C1344 C1343 1.369 . S
C1344 C1353 1.429 . S
C1345 C1343 1.419 . S
C1345 C1346 1.363 . S
C1345 H1348 0.929 . S
C1346 C1345 1.363 . S
C1346 C1352 1.428 . S
H1347 C1343 0.930 . S
H1348 C1345 0.929 . S
S1349 N1350 1.613 . S
S1349 N1351 1.610 . S
N1350 S1349 1.613 . S
N1350 C1353 1.350 . S
N1351 S1349 1.610 . S
N1351 C1352 1.351 . S
C1352 C1346 1.428 . S
C1352 N1351 1.351 . S
C1352 C1353 1.434 . S
C1353 C1344 1.429 . S
C1353 N1350 1.350 . S
C1353 C1352 1.434 . S
C1354 C1355 1.369 . S
C1354 C1356 1.419 . S
C1354 H1358 0.930 . S
C1355 C1354 1.369 . S
C1355 C1364 1.429 . S
C1356 C1354 1.419 . S
C1356 C1357 1.363 . S
C1356 H1359 0.929 . S
C1357 C1356 1.363 . S
C1357 C1363 1.428 . S
H1358 C1354 0.930 . S
H1359 C1356 0.929 . S
S1360 N1361 1.613 . S
S1360 N1362 1.610 . S
N1361 S1360 1.613 . S
N1361 C1364 1.350 . S
N1362 S1360 1.610 . S
N1362 C1363 1.351 . S
C1363 C1357 1.428 . S
C1363 N1362 1.351 . S
C1363 C1364 1.434 . S
C1364 C1355 1.429 . S
C1364 N1361 1.350 . S
C1364 C1363 1.434 . S
C1365 C1366 1.369 . S
C1365 C1367 1.419 . S
C1365 H1369 0.930 . S
C1366 C1365 1.369 . S
C1366 C1375 1.429 . S
C1367 C1365 1.419 . S
C1367 C1368 1.363 . S
C1367 H1370 0.929 . S
C1368 C1367 1.363 . S
C1368 C1374 1.428 . S
H1369 C1365 0.930 . S
H1370 C1367 0.929 . S
S1371 N1372 1.613 . S
S1371 N1373 1.610 . S
N1372 S1371 1.613 . S
N1372 C1375 1.350 . S
N1373 S1371 1.610 . S
N1373 C1374 1.351 . S
C1374 C1368 1.428 . S
C1374 N1373 1.351 . S
C1374 C1375 1.434 . S
C1375 C1366 1.429 . S
C1375 N1372 1.350 . S
C1375 C1374 1.434 . S
C1376 C1377 1.369 . S
C1376 C1378 1.419 . S
C1376 H1380 0.930 . S
C1377 C1376 1.369 . S
C1377 C1386 1.429 . S
C1378 C1376 1.419 . S
C1378 C1379 1.363 . S
C1378 H1381 0.929 . S
C1379 C1378 1.363 . S
C1379 C1385 1.428 . S
H1380 C1376 0.930 . S
H1381 C1378 0.929 . S
S1382 N1383 1.613 . S
S1382 N1384 1.610 . S
N1383 S1382 1.613 . S
N1383 C1386 1.350 . S
N1384 S1382 1.610 . S
N1384 C1385 1.351 . S
C1385 C1379 1.428 . S
C1385 N1384 1.351 . S
C1385 C1386 1.434 . S
C1386 C1377 1.429 . S
C1386 N1383 1.350 . S
C1386 C1385 1.434 . S
C1387 C1388 1.369 . S
C1387 C1389 1.419 . S
C1387 H1391 0.930 . S
C1388 C1387 1.369 . S
C1388 C1397 1.429 . S
C1389 C1387 1.419 . S
C1389 C1390 1.363 . S
C1389 H1392 0.929 . S
C1390 C1389 1.363 . S
C1390 C1396 1.428 . S
H1391 C1387 0.930 . S
H1392 C1389 0.929 . S
S1393 N1394 1.613 . S
S1393 N1395 1.610 . S
N1394 S1393 1.613 . S
N1394 C1397 1.350 . S
N1395 S1393 1.610 . S
N1395 C1396 1.351 . S
C1396 C1390 1.428 . S
C1396 N1395 1.351 . S
C1396 C1397 1.434 . S
C1397 C1388 1.429 . S
C1397 N1394 1.350 . S
C1397 C1396 1.434 . S
C1398 C1399 1.369 . S
C1398 C1400 1.419 . S
C1398 H1402 0.930 . S
C1399 C1398 1.369 . S
C1399 C1408 1.429 . S
C1400 C1398 1.419 . S
C1400 C1401 1.363 . S
C1400 H1403 0.929 . S
C1401 C1400 1.363 . S
C1401 C1407 1.428 . S
H1402 C1398 0.930 . S
H1403 C1400 0.929 . S
S1404 N1405 1.613 . S
S1404 N1406 1.610 . S
N1405 S1404 1.613 . S
N1405 C1408 1.350 . S
N1406 S1404 1.610 . S
N1406 C1407 1.351 . S
C1407 C1401 1.428 . S
C1407 N1406 1.351 . S
C1407 C1408 1.434 . S
C1408 C1399 1.429 . S
C1408 N1405 1.350 . S
C1408 C1407 1.434 . S
C1409 C1410 1.369 . S
C1409 C1411 1.419 . S
C1409 H1413 0.930 . S
C1410 C1409 1.369 . S
C1410 C1419 1.429 . S
C1411 C1409 1.419 . S
C1411 C1412 1.363 . S
C1411 H1414 0.929 . S
C1412 C1411 1.363 . S
C1412 C1418 1.428 . S
H1413 C1409 0.930 . S
H1414 C1411 0.929 . S
S1415 N1416 1.613 . S
S1415 N1417 1.610 . S
N1416 S1415 1.613 . S
N1416 C1419 1.350 . S
N1417 S1415 1.610 . S
N1417 C1418 1.351 . S
C1418 C1412 1.428 . S
C1418 N1417 1.351 . S
C1418 C1419 1.434 . S
C1419 C1410 1.429 . S
C1419 N1416 1.350 . S
C1419 C1418 1.434 . S
C1420 C1421 1.369 . S
C1420 C1422 1.419 . S
C1420 H1424 0.930 . S
C1421 C1420 1.369 . S
C1421 C1430 1.429 . S
C1422 C1420 1.419 . S
C1422 C1423 1.363 . S
C1422 H1425 0.929 . S
C1423 C1422 1.363 . S
C1423 C1429 1.428 . S
H1424 C1420 0.930 . S
H1425 C1422 0.929 . S
S1426 N1427 1.613 . S
S1426 N1428 1.610 . S
N1427 S1426 1.613 . S
N1427 C1430 1.350 . S
N1428 S1426 1.610 . S
N1428 C1429 1.351 . S
C1429 C1423 1.428 . S
C1429 N1428 1.351 . S
C1429 C1430 1.434 . S
C1430 C1421 1.429 . S
C1430 N1427 1.350 . S
C1430 C1429 1.434 . S
C1431 C1432 1.369 . S
C1431 C1433 1.419 . S
C1431 H1435 0.930 . S
C1432 C1431 1.369 . S
C1432 C1441 1.429 . S
C1433 C1431 1.419 . S
C1433 C1434 1.363 . S
C1433 H1436 0.929 . S
C1434 C1433 1.363 . S
C1434 C1440 1.428 . S
H1435 C1431 0.930 . S
H1436 C1433 0.929 . S
S1437 N1438 1.613 . S
S1437 N1439 1.610 . S
N1438 S1437 1.613 . S
N1438 C1441 1.350 . S
N1439 S1437 1.610 . S
N1439 C1440 1.351 . S
C1440 C1434 1.428 . S
C1440 N1439 1.351 . S
C1440 C1441 1.434 . S
C1441 C1432 1.429 . S
C1441 N1438 1.350 . S
C1441 C1440 1.434 . S
C1442 C1443 1.369 . S
C1442 C1444 1.419 . S
C1442 H1446 0.930 . S
C1443 C1442 1.369 . S
C1443 C1452 1.429 . S
C1444 C1442 1.419 . S
C1444 C1445 1.363 . S
C1444 H1447 0.929 . S
C1445 C1444 1.363 . S
C1445 C1451 1.428 . S
H1446 C1442 0.930 . S
H1447 C1444 0.929 . S
S1448 N1449 1.613 . S
S1448 N1450 1.610 . S
N1449 S1448 1.613 . S
N1449 C1452 1.350 . S
N1450 S1448 1.610 . S
N1450 C1451 1.351 . S
C1451 C1445 1.428 . S
C1451 N1450 1.351 . S
C1451 C1452 1.434 . S
C1452 C1443 1.429 . S
C1452 N1449 1.350 . S
C1452 C1451 1.434 . S
C1453 C1454 1.369 . S
C1453 C1455 1.419 . S
C1453 H1457 0.930 . S
C1454 C1453 1.369 . S
C1454 C1463 1.429 . S
C1455 C1453 1.419 . S
C1455 C1456 1.363 . S
C1455 H1458 0.929 . S
C1456 C1455 1.363 . S
C1456 C1462 1.428 . S
H1457 C1453 0.930 . S
H1458 C1455 0.929 . S
S1459 N1460 1.613 . S
S1459 N1461 1.610 . S
N1460 S1459 1.613 . S
N1460 C1463 1.350 . S
N1461 S1459 1.610 . S
N1461 C1462 1.351 . S
C1462 C1456 1.428 . S
C1462 N1461 1.351 . S
C1462 C1463 1.434 . S
C1463 C1454 1.429 . S
C1463 N1460 1.350 . S
C1463 C1462 1.434 . S
C1464 C1465 1.369 . S
C1464 C1466 1.419 . S
C1464 H1468 0.930 . S
C1465 C1464 1.369 . S
C1465 C1474 1.429 . S
C1466 C1464 1.419 . S
C1466 C1467 1.363 . S
C1466 H1469 0.929 . S
C1467 C1466 1.363 . S
C1467 C1473 1.428 . S
H1468 C1464 0.930 . S
H1469 C1466 0.929 . S
S1470 N1471 1.613 . S
S1470 N1472 1.610 . S
N1471 S1470 1.613 . S
N1471 C1474 1.350 . S
N1472 S1470 1.610 . S
N1472 C1473 1.351 . S
C1473 C1467 1.428 . S
C1473 N1472 1.351 . S
C1473 C1474 1.434 . S
C1474 C1465 1.429 . S
C1474 N1471 1.350 . S
C1474 C1473 1.434 . S
C1475 C1476 1.369 . S
C1475 C1477 1.419 . S
C1475 H1479 0.930 . S
C1476 C1475 1.369 . S
C1476 C1485 1.429 . S
C1477 C1475 1.419 . S
C1477 C1478 1.363 . S
C1477 H1480 0.929 . S
C1478 C1477 1.363 . S
C1478 C1484 1.428 . S
H1479 C1475 0.930 . S
H1480 C1477 0.929 . S
S1481 N1482 1.613 . S
S1481 N1483 1.610 . S
N1482 S1481 1.613 . S
N1482 C1485 1.350 . S
N1483 S1481 1.610 . S
N1483 C1484 1.351 . S
C1484 C1478 1.428 . S
C1484 N1483 1.351 . S
C1484 C1485 1.434 . S
C1485 C1476 1.429 . S
C1485 N1482 1.350 . S
C1485 C1484 1.434 . S
C1486 C1487 1.369 . S
C1486 C1488 1.419 . S
C1486 H1490 0.930 . S
C1487 C1486 1.369 . S
C1487 C1496 1.429 . S
C1488 C1486 1.419 . S
C1488 C1489 1.363 . S
C1488 H1491 0.929 . S
C1489 C1488 1.363 . S
C1489 C1495 1.428 . S
H1490 C1486 0.930 . S
H1491 C1488 0.929 . S
S1492 N1493 1.613 . S
S1492 N1494 1.610 . S
N1493 S1492 1.613 . S
N1493 C1496 1.350 . S
N1494 S1492 1.610 . S
N1494 C1495 1.351 . S
C1495 C1489 1.428 . S
C1495 N1494 1.351 . S
C1495 C1496 1.434 . S
C1496 C1487 1.429 . S
C1496 N1493 1.350 . S
C1496 C1495 1.434 . S
C1497 C1498 1.369 . S
C1497 C1499 1.419 . S
C1497 H1501 0.930 . S
C1498 C1497 1.369 . S
C1498 C1507 1.429 . S
C1499 C1497 1.419 . S
C1499 C1500 1.363 . S
C1499 H1502 0.929 . S
C1500 C1499 1.363 . S
C1500 C1506 1.428 . S
H1501 C1497 0.930 . S
H1502 C1499 0.929 . S
S1503 N1504 1.613 . S
S1503 N1505 1.610 . S
N1504 S1503 1.613 . S
N1504 C1507 1.350 . S
N1505 S1503 1.610 . S
N1505 C1506 1.351 . S
C1506 C1500 1.428 . S
C1506 N1505 1.351 . S
C1506 C1507 1.434 . S
C1507 C1498 1.429 . S
C1507 N1504 1.350 . S
C1507 C1506 1.434 . S
C1508 C1509 1.369 . S
C1508 C1510 1.419 . S
C1508 H1512 0.930 . S
C1509 C1508 1.369 . S
C1509 C1518 1.429 . S
C1510 C1508 1.419 . S
C1510 C1511 1.363 . S
C1510 H1513 0.929 . S
C1511 C1510 1.363 . S
C1511 C1517 1.428 . S
H1512 C1508 0.930 . S
H1513 C1510 0.929 . S
S1514 N1515 1.613 . S
S1514 N1516 1.610 . S
N1515 S1514 1.613 . S
N1515 C1518 1.350 . S
N1516 S1514 1.610 . S
N1516 C1517 1.351 . S
C1517 C1511 1.428 . S
C1517 N1516 1.351 . S
C1517 C1518 1.434 . S
C1518 C1509 1.429 . S
C1518 N1515 1.350 . S
C1518 C1517 1.434 . S
C1519 C1520 1.369 . S
C1519 C1521 1.419 . S
C1519 H1523 0.930 . S
C1520 C1519 1.369 . S
C1520 C1529 1.429 . S
C1521 C1519 1.419 . S
C1521 C1522 1.363 . S
C1521 H1524 0.929 . S
C1522 C1521 1.363 . S
C1522 C1528 1.428 . S
H1523 C1519 0.930 . S
H1524 C1521 0.929 . S
S1525 N1526 1.613 . S
S1525 N1527 1.610 . S
N1526 S1525 1.613 . S
N1526 C1529 1.350 . S
N1527 S1525 1.610 . S
N1527 C1528 1.351 . S
C1528 C1522 1.428 . S
C1528 N1527 1.351 . S
C1528 C1529 1.434 . S
C1529 C1520 1.429 . S
C1529 N1526 1.350 . S
C1529 C1528 1.434 . S
C1530 C1531 1.369 . S
C1530 C1532 1.419 . S
C1530 H1534 0.930 . S
C1531 C1530 1.369 . S
C1531 C1540 1.429 . S
C1532 C1530 1.419 . S
C1532 C1533 1.363 . S
C1532 H1535 0.929 . S
C1533 C1532 1.363 . S
C1533 C1539 1.428 . S
H1534 C1530 0.930 . S
H1535 C1532 0.929 . S
S1536 N1537 1.613 . S
S1536 N1538 1.610 . S
N1537 S1536 1.613 . S
N1537 C1540 1.350 . S
N1538 S1536 1.610 . S
N1538 C1539 1.351 . S
C1539 C1533 1.428 . S
C1539 N1538 1.351 . S
C1539 C1540 1.434 . S
C1540 C1531 1.429 . S
C1540 N1537 1.350 . S
C1540 C1539 1.434 . S
C1541 C1542 1.369 . S
C1541 C1543 1.419 . S
C1541 H1545 0.930 . S
C1542 C1541 1.369 . S
C1542 C1551 1.429 . S
C1543 C1541 1.419 . S
C1543 C1544 1.363 . S
C1543 H1546 0.929 . S
C1544 C1543 1.363 . S
C1544 C1550 1.428 . S
H1545 C1541 0.930 . S
H1546 C1543 0.929 . S
S1547 N1548 1.613 . S
S1547 N1549 1.610 . S
N1548 S1547 1.613 . S
N1548 C1551 1.350 . S
N1549 S1547 1.610 . S
N1549 C1550 1.351 . S
C1550 C1544 1.428 . S
C1550 N1549 1.351 . S
C1550 C1551 1.434 . S
C1551 C1542 1.429 . S
C1551 N1548 1.350 . S
C1551 C1550 1.434 . S
C1552 C1553 1.369 . S
C1552 C1554 1.419 . S
C1552 H1556 0.930 . S
C1553 C1552 1.369 . S
C1553 C1562 1.429 . S
C1554 C1552 1.419 . S
C1554 C1555 1.363 . S
C1554 H1557 0.929 . S
C1555 C1554 1.363 . S
C1555 C1561 1.428 . S
H1556 C1552 0.930 . S
H1557 C1554 0.929 . S
S1558 N1559 1.613 . S
S1558 N1560 1.610 . S
N1559 S1558 1.613 . S
N1559 C1562 1.350 . S
N1560 S1558 1.610 . S
N1560 C1561 1.351 . S
C1561 C1555 1.428 . S
C1561 N1560 1.351 . S
C1561 C1562 1.434 . S
C1562 C1553 1.429 . S
C1562 N1559 1.350 . S
C1562 C1561 1.434 . S
C1563 C1564 1.369 . S
C1563 C1565 1.419 . S
C1563 H1567 0.930 . S
C1564 C1563 1.369 . S
C1564 C1573 1.429 . S
C1565 C1563 1.419 . S
C1565 C1566 1.363 . S
C1565 H1568 0.929 . S
C1566 C1565 1.363 . S
C1566 C1572 1.428 . S
H1567 C1563 0.930 . S
H1568 C1565 0.929 . S
S1569 N1570 1.613 . S
S1569 N1571 1.610 . S
N1570 S1569 1.613 . S
N1570 C1573 1.350 . S
N1571 S1569 1.610 . S
N1571 C1572 1.351 . S
C1572 C1566 1.428 . S
C1572 N1571 1.351 . S
C1572 C1573 1.434 . S
C1573 C1564 1.429 . S
C1573 N1570 1.350 . S
C1573 C1572 1.434 . S
C1574 C1575 1.369 . S
C1574 C1576 1.419 . S
C1574 H1578 0.930 . S
C1575 C1574 1.369 . S
C1575 C1584 1.429 . S
C1576 C1574 1.419 . S
C1576 C1577 1.363 . S
C1576 H1579 0.929 . S
C1577 C1576 1.363 . S
C1577 C1583 1.428 . S
H1578 C1574 0.930 . S
H1579 C1576 0.929 . S
S1580 N1581 1.613 . S
S1580 N1582 1.610 . S
N1581 S1580 1.613 . S
N1581 C1584 1.350 . S
N1582 S1580 1.610 . S
N1582 C1583 1.351 . S
C1583 C1577 1.428 . S
C1583 N1582 1.351 . S
C1583 C1584 1.434 . S
C1584 C1575 1.429 . S
C1584 N1581 1.350 . S
C1584 C1583 1.434 . S
C1585 C1586 1.369 . S
C1585 C1587 1.419 . S
C1585 H1589 0.930 . S
C1586 C1585 1.369 . S
C1586 C1595 1.429 . S
C1587 C1585 1.419 . S
C1587 C1588 1.363 . S
C1587 H1590 0.929 . S
C1588 C1587 1.363 . S
C1588 C1594 1.428 . S
H1589 C1585 0.930 . S
H1590 C1587 0.929 . S
S1591 N1592 1.613 . S
S1591 N1593 1.610 . S
N1592 S1591 1.613 . S
N1592 C1595 1.350 . S
N1593 S1591 1.610 . S
N1593 C1594 1.351 . S
C1594 C1588 1.428 . S
C1594 N1593 1.351 . S
C1594 C1595 1.434 . S
C1595 C1586 1.429 . S
C1595 N1592 1.350 . S
C1595 C1594 1.434 . S
C1596 C1597 1.369 . S
C1596 C1598 1.419 . S
C1596 H1600 0.930 . S
C1597 C1596 1.369 . S
C1597 C1606 1.429 . S
C1598 C1596 1.419 . S
C1598 C1599 1.363 . S
C1598 H1601 0.929 . S
C1599 C1598 1.363 . S
C1599 C1605 1.428 . S
H1600 C1596 0.930 . S
H1601 C1598 0.929 . S
S1602 N1603 1.613 . S
S1602 N1604 1.610 . S
N1603 S1602 1.613 . S
N1603 C1606 1.350 . S
N1604 S1602 1.610 . S
N1604 C1605 1.351 . S
C1605 C1599 1.428 . S
C1605 N1604 1.351 . S
C1605 C1606 1.434 . S
C1606 C1597 1.429 . S
C1606 N1603 1.350 . S
C1606 C1605 1.434 . S
C1607 C1608 1.369 . S
C1607 C1609 1.419 . S
C1607 H1611 0.930 . S
C1608 C1607 1.369 . S
C1608 C1617 1.429 . S
C1609 C1607 1.419 . S
C1609 C1610 1.363 . S
C1609 H1612 0.929 . S
C1610 C1609 1.363 . S
C1610 C1616 1.428 . S
H1611 C1607 0.930 . S
H1612 C1609 0.929 . S
S1613 N1614 1.613 . S
S1613 N1615 1.610 . S
N1614 S1613 1.613 . S
N1614 C1617 1.350 . S
N1615 S1613 1.610 . S
N1615 C1616 1.351 . S
C1616 C1610 1.428 . S
C1616 N1615 1.351 . S
C1616 C1617 1.434 . S
C1617 C1608 1.429 . S
C1617 N1614 1.350 . S
C1617 C1616 1.434 . S
C1618 C1619 1.369 . S
C1618 C1620 1.419 . S
C1618 H1622 0.930 . S
C1619 C1618 1.369 . S
C1619 C1628 1.429 . S
C1620 C1618 1.419 . S
C1620 C1621 1.363 . S
C1620 H1623 0.929 . S
C1621 C1620 1.363 . S
C1621 C1627 1.428 . S
H1622 C1618 0.930 . S
H1623 C1620 0.929 . S
S1624 N1625 1.613 . S
S1624 N1626 1.610 . S
N1625 S1624 1.613 . S
N1625 C1628 1.350 . S
N1626 S1624 1.610 . S
N1626 C1627 1.351 . S
C1627 C1621 1.428 . S
C1627 N1626 1.351 . S
C1627 C1628 1.434 . S
C1628 C1619 1.429 . S
C1628 N1625 1.350 . S
C1628 C1627 1.434 . S
C1629 C1630 1.369 . S
C1629 C1631 1.419 . S
C1629 H1633 0.930 . S
C1630 C1629 1.369 . S
C1630 C1639 1.429 . S
C1631 C1629 1.419 . S
C1631 C1632 1.363 . S
C1631 H1634 0.929 . S
C1632 C1631 1.363 . S
C1632 C1638 1.428 . S
H1633 C1629 0.930 . S
H1634 C1631 0.929 . S
S1635 N1636 1.613 . S
S1635 N1637 1.610 . S
N1636 S1635 1.613 . S
N1636 C1639 1.350 . S
N1637 S1635 1.610 . S
N1637 C1638 1.351 . S
C1638 C1632 1.428 . S
C1638 N1637 1.351 . S
C1638 C1639 1.434 . S
C1639 C1630 1.429 . S
C1639 N1636 1.350 . S
C1639 C1638 1.434 . S
C1640 C1641 1.369 . S
C1640 C1642 1.419 . S
C1640 H1644 0.930 . S
C1641 C1640 1.369 . S
C1641 C1650 1.429 . S
C1642 C1640 1.419 . S
C1642 C1643 1.363 . S
C1642 H1645 0.929 . S
C1643 C1642 1.363 . S
C1643 C1649 1.428 . S
H1644 C1640 0.930 . S
H1645 C1642 0.929 . S
S1646 N1647 1.613 . S
S1646 N1648 1.610 . S
N1647 S1646 1.613 . S
N1647 C1650 1.350 . S
N1648 S1646 1.610 . S
N1648 C1649 1.351 . S
C1649 C1643 1.428 . S
C1649 N1648 1.351 . S
C1649 C1650 1.434 . S
C1650 C1641 1.429 . S
C1650 N1647 1.350 . S
C1650 C1649 1.434 . S
C1651 C1652 1.369 . S
C1651 C1653 1.419 . S
C1651 H1655 0.930 . S
C1652 C1651 1.369 . S
C1652 C1661 1.429 . S
C1653 C1651 1.419 . S
C1653 C1654 1.363 . S
C1653 H1656 0.929 . S
C1654 C1653 1.363 . S
C1654 C1660 1.428 . S
H1655 C1651 0.930 . S
H1656 C1653 0.929 . S
S1657 N1658 1.613 . S
S1657 N1659 1.610 . S
N1658 S1657 1.613 . S
N1658 C1661 1.350 . S
N1659 S1657 1.610 . S
N1659 C1660 1.351 . S
C1660 C1654 1.428 . S
C1660 N1659 1.351 . S
C1660 C1661 1.434 . S
C1661 C1652 1.429 . S
C1661 N1658 1.350 . S
C1661 C1660 1.434 . S
C1662 C1663 1.369 . S
C1662 C1664 1.419 . S
C1662 H1666 0.930 . S
C1663 C1662 1.369 . S
C1663 C1672 1.429 . S
C1664 C1662 1.419 . S
C1664 C1665 1.363 . S
C1664 H1667 0.929 . S
C1665 C1664 1.363 . S
C1665 C1671 1.428 . S
H1666 C1662 0.930 . S
H1667 C1664 0.929 . S
S1668 N1669 1.613 . S
S1668 N1670 1.610 . S
N1669 S1668 1.613 . S
N1669 C1672 1.350 . S
N1670 S1668 1.610 . S
N1670 C1671 1.351 . S
C1671 C1665 1.428 . S
C1671 N1670 1.351 . S
C1671 C1672 1.434 . S
C1672 C1663 1.429 . S
C1672 N1669 1.350 . S
C1672 C1671 1.434 . S
C1673 C1674 1.369 . S
C1673 C1675 1.419 . S
C1673 H1677 0.930 . S
C1674 C1673 1.369 . S
C1674 C1683 1.429 . S
C1675 C1673 1.419 . S
C1675 C1676 1.363 . S
C1675 H1678 0.929 . S
C1676 C1675 1.363 . S
C1676 C1682 1.428 . S
H1677 C1673 0.930 . S
H1678 C1675 0.929 . S
S1679 N1680 1.613 . S
S1679 N1681 1.610 . S
N1680 S1679 1.613 . S
N1680 C1683 1.350 . S
N1681 S1679 1.610 . S
N1681 C1682 1.351 . S
C1682 C1676 1.428 . S
C1682 N1681 1.351 . S
C1682 C1683 1.434 . S
C1683 C1674 1.429 . S
C1683 N1680 1.350 . S
C1683 C1682 1.434 . S
C1684 C1685 1.369 . S
C1684 C1686 1.419 . S
C1684 H1688 0.930 . S
C1685 C1684 1.369 . S
C1685 C1694 1.429 . S
C1686 C1684 1.419 . S
C1686 C1687 1.363 . S
C1686 H1689 0.929 . S
C1687 C1686 1.363 . S
C1687 C1693 1.428 . S
H1688 C1684 0.930 . S
H1689 C1686 0.929 . S
S1690 N1691 1.613 . S
S1690 N1692 1.610 . S
N1691 S1690 1.613 . S
N1691 C1694 1.350 . S
N1692 S1690 1.610 . S
N1692 C1693 1.351 . S
C1693 C1687 1.428 . S
C1693 N1692 1.351 . S
C1693 C1694 1.434 . S
C1694 C1685 1.429 . S
C1694 N1691 1.350 . S
C1694 C1693 1.434 . S
C1695 C1696 1.369 . S
C1695 C1697 1.419 . S
C1695 H1699 0.930 . S
C1696 C1695 1.369 . S
C1696 C1705 1.429 . S
C1697 C1695 1.419 . S
C1697 C1698 1.363 . S
C1697 H1700 0.929 . S
C1698 C1697 1.363 . S
C1698 C1704 1.428 . S
H1699 C1695 0.930 . S
H1700 C1697 0.929 . S
S1701 N1702 1.613 . S
S1701 N1703 1.610 . S
N1702 S1701 1.613 . S
N1702 C1705 1.350 . S
N1703 S1701 1.610 . S
N1703 C1704 1.351 . S
C1704 C1698 1.428 . S
C1704 N1703 1.351 . S
C1704 C1705 1.434 . S
C1705 C1696 1.429 . S
C1705 N1702 1.350 . S
C1705 C1704 1.434 . S
C1706 C1707 1.369 . S
C1706 C1708 1.419 . S
C1706 H1710 0.930 . S
C1707 C1706 1.369 . S
C1707 C1716 1.429 . S
C1708 C1706 1.419 . S
C1708 C1709 1.363 . S
C1708 H1711 0.929 . S
C1709 C1708 1.363 . S
C1709 C1715 1.428 . S
H1710 C1706 0.930 . S
H1711 C1708 0.929 . S
S1712 N1713 1.613 . S
S1712 N1714 1.610 . S
N1713 S1712 1.613 . S
N1713 C1716 1.350 . S
N1714 S1712 1.610 . S
N1714 C1715 1.351 . S
C1715 C1709 1.428 . S
C1715 N1714 1.351 . S
C1715 C1716 1.434 . S
C1716 C1707 1.429 . S
C1716 N1713 1.350 . S
C1716 C1715 1.434 . S
C1717 C1718 1.369 . S
C1717 C1719 1.419 . S
C1717 H1721 0.930 . S
C1718 C1717 1.369 . S
C1718 C1727 1.429 . S
C1719 C1717 1.419 . S
C1719 C1720 1.363 . S
C1719 H1722 0.929 . S
C1720 C1719 1.363 . S
C1720 C1726 1.428 . S
H1721 C1717 0.930 . S
H1722 C1719 0.929 . S
S1723 N1724 1.613 . S
S1723 N1725 1.610 . S
N1724 S1723 1.613 . S
N1724 C1727 1.350 . S
N1725 S1723 1.610 . S
N1725 C1726 1.351 . S
C1726 C1720 1.428 . S
C1726 N1725 1.351 . S
C1726 C1727 1.434 . S
C1727 C1718 1.429 . S
C1727 N1724 1.350 . S
C1727 C1726 1.434 . S
C673 C403 1.184 . S
C675 C11 1.183 . S
C684 C25 1.182 . S
C686 C417 1.181 . S
C695 C431 1.176 . S
C697 C39 1.177 . S
C706 C53 1.176 . S
C708 C445 1.177 . S
C717 C347 1.177 . S
C719 C67 1.177 . S
C728 C81 1.176 . S
C730 C361 1.177 . S
C739 C375 1.184 . S
C741 C95 1.183 . S
C750 C109 1.180 . S
C752 C389 1.181 . S
C761 C543 1.177 . S
C763 C123 1.178 . S
C772 C557 1.182 . S
C774 C137 1.182 . S
C783 C515 1.182 . S
C785 C151 1.181 . S
C794 C165 1.176 . S
C796 C529 1.177 . S
C805 C487 1.177 . S
C807 C179 1.178 . S
C816 C501 1.184 . S
C818 C193 1.183 . S
C827 C207 1.181 . S
C829 C459 1.180 . S
C838 C473 1.179 . S
C840 C221 1.180 . S
C849 C235 1.177 . S
C851 C641 1.178 . S
C860 C613 1.178 . S
C862 C249 1.178 . S
C871 C627 1.184 . S
C873 C263 1.183 . S
C882 C585 1.183 . S
C884 C277 1.182 . S
C893 C599 1.179 . S
C895 C291 1.179 . S
C904 C305 1.183 . S
C906 C571 1.182 . S
C915 C319 1.184 . S
C917 C669 1.183 . S
C926 C655 1.176 . S
C928 C333 1.177 . S
C937 C111 1.323 . S
C939 C13 1.324 . S
C948 C69 1.328 . S
C950 C27 1.327 . S
C959 C83 1.313 . S
C961 C41 1.314 . S
C970 C97 1.319 . S
C972 C55 1.317 . S
C981 C293 1.314 . S
C983 C125 1.318 . S
C992 C251 1.312 . S
C994 C139 1.315 . S
C1003 C265 1.329 . S
C1005 C153 1.328 . S
C1014 C279 1.316 . S
C1016 C167 1.316 . S
C1025 C335 1.312 . S
C1027 C181 1.315 . S
C1036 C307 1.312 . S
C1038 C195 1.315 . S
C1047 C209 1.318 . S
C1049 C321 1.321 . S
C1058 C237 1.313 . S
C1060 C223 1.317 . S
C1069 C447 1.312 . S
C1071 C349 1.315 . S
C1080 C405 1.325 . S
C1082 C363 1.326 . S
C1091 C377 1.319 . S
C1093 C419 1.317 . S
C1102 C391 1.329 . S
C1104 C433 1.327 . S
C1113 C461 1.325 . S
C1115 C629 1.327 . S
C1124 C475 1.312 . S
C1126 C587 1.314 . S
C1135 C601 1.313 . S
C1137 C489 1.317 . S
C1146 C615 1.325 . S
C1148 C503 1.321 . S
C1157 C671 1.322 . S
C1159 C517 1.319 . S
C1168 C643 1.323 . S
C1170 C531 1.320 . S
C1179 C657 1.329 . S
C1181 C545 1.325 . S
C1190 C559 1.326 . S
C1192 C573 1.327 . S
C1201 C7 1.230 . S
C1203 C120 1.119 . S
C1212 C134 1.117 . S
C1214 C21 1.232 . S
C1223 C148 1.121 . S
C1225 C35 1.231 . S
C1234 C162 1.120 . S
C1236 C49 1.233 . S
C1245 C63 1.236 . S
C1247 C176 1.128 . S
C1256 C190 1.111 . S
C1258 C77 1.230 . S
C1267 C91 1.229 . S
C1269 C204 1.114 . S
C1278 C218 1.122 . S
C1280 C105 1.234 . S
C1289 C232 1.130 . S
C1291 C119 1.235 . S
C1300 C330 1.115 . S
C1302 C133 1.230 . S
C1311 C147 1.233 . S
C1313 C302 1.125 . S
C1322 C161 1.231 . S
C1324 C316 1.123 . S
C1333 C175 1.235 . S
C1335 C246 1.128 . S
C1344 C189 1.231 . S
C1346 C260 1.123 . S
C1355 C203 1.230 . S
C1357 C274 1.119 . S
C1366 C217 1.231 . S
C1368 C288 1.122 . S
C1377 C231 1.232 . S
C1379 C8 1.123 . S
C1388 C245 1.231 . S
C1390 C64 1.122 . S
C1399 C259 1.235 . S
C1401 C78 1.128 . S
C1410 C273 1.229 . S
C1412 C92 1.114 . S
C1421 C287 1.229 . S
C1423 C106 1.117 . S
C1432 C301 1.233 . S
C1434 C36 1.120 . S
C1443 C50 1.112 . S
C1445 C315 1.230 . S
C1454 C22 1.114 . S
C1456 C329 1.231 . S
C1465 C456 1.125 . S
C1467 C343 1.234 . S
C1476 C470 1.113 . S
C1478 C357 1.230 . S
C1487 C484 1.114 . S
C1489 C371 1.231 . S
C1498 C498 1.112 . S
C1500 C385 1.230 . S
C1509 C512 1.122 . S
C1511 C399 1.232 . S
C1520 C413 1.234 . S
C1522 C526 1.126 . S
C1531 C540 1.123 . S
C1533 C427 1.233 . S
C1542 C441 1.235 . S
C1544 C554 1.125 . S
C1553 C568 1.114 . S
C1555 C455 1.231 . S
C1564 C469 1.236 . S
C1566 C666 1.127 . S
C1575 C483 1.236 . S
C1577 C638 1.128 . S
C1586 C652 1.118 . S
C1588 C497 1.231 . S
C1597 C582 1.129 . S
C1599 C511 1.235 . S
C1608 C525 1.231 . S
C1610 C596 1.121 . S
C1619 C539 1.233 . S
C1621 C610 1.121 . S
C1630 C624 1.118 . S
C1632 C553 1.232 . S
C1641 C344 1.117 . S
C1643 C567 1.230 . S
C1652 C400 1.114 . S
C1654 C581 1.231 . S
C1663 C414 1.111 . S
C1665 C595 1.230 . S
C1674 C609 1.236 . S
C1676 C428 1.128 . S
C1685 C442 1.128 . S
C1687 C623 1.234 . S
C1696 C372 1.123 . S
C1698 C637 1.234 . S
C1707 C651 1.234 . S
C1709 C386 1.125 . S
C1718 C358 1.128 . S
C1720 C665 1.234 . S
