# Generated by pormake.
# Topology bcs, (6)-cn, num edge types: 1
# Building blocks:
#     Node 0, Type 0, BuildingBlock: BETDEL_clean_sbu_0, # of connection points: 6
#     Node 1, Type 0, BuildingBlock: BETDEL_clean_sbu_0, # of connection points: 6
#     Node 2, Type 0, BuildingBlock: BETDEL_clean_sbu_0, # of connection points: 6
#     Node 3, Type 0, BuildingBlock: BETDEL_clean_sbu_0, # of connection points: 6
#     Node 4, Type 0, BuildingBlock: BETDEL_clean_sbu_0, # of connection points: 6
#     Node 5, Type 0, BuildingBlock: BETDEL_clean_sbu_0, # of connection points: 6
#     Node 6, Type 0, BuildingBlock: BETDEL_clean_sbu_0, # of connection points: 6
#     Node 7, Type 0, BuildingBlock: BETDEL_clean_sbu_0, # of connection points: 6
#     Node 8, Type 0, BuildingBlock: BETDEL_clean_sbu_0, # of connection points: 6
#     Node 9, Type 0, BuildingBlock: BETDEL_clean_sbu_0, # of connection points: 6
#     Node 10, Type 0, BuildingBlock: BETDEL_clean_sbu_0, # of connection points: 6
#     Node 11, Type 0, BuildingBlock: BETDEL_clean_sbu_0, # of connection points: 6
#     Node 12, Type 0, BuildingBlock: BETDEL_clean_sbu_0, # of connection points: 6
#     Node 13, Type 0, BuildingBlock: BETDEL_clean_sbu_0, # of connection points: 6
#     Node 14, Type 0, BuildingBlock: BETDEL_clean_sbu_0, # of connection points: 6
#     Node 15, Type 0, BuildingBlock: BETDEL_clean_sbu_0, # of connection points: 6
#     Edge 16, Type (0, 0), BuildingBlock: XIVTED_clean_linker_0, # of connection points: 2
#     Edge 17, Type (0, 0), BuildingBlock: XIVTED_clean_linker_0, # of connection points: 2
#     Edge 18, Type (0, 0), BuildingBlock: XIVTED_clean_linker_0, # of connection points: 2
#     Edge 19, Type (0, 0), BuildingBlock: XIVTED_clean_linker_0, # of connection points: 2
#     Edge 20, Type (0, 0), BuildingBlock: XIVTED_clean_linker_0, # of connection points: 2
#     Edge 21, Type (0, 0), BuildingBlock: XIVTED_clean_linker_0, # of connection points: 2
#     Edge 22, Type (0, 0), BuildingBlock: XIVTED_clean_linker_0, # of connection points: 2
#     Edge 23, Type (0, 0), BuildingBlock: XIVTED_clean_linker_0, # of connection points: 2
#     Edge 24, Type (0, 0), BuildingBlock: XIVTED_clean_linker_0, # of connection points: 2
#     Edge 25, Type (0, 0), BuildingBlock: XIVTED_clean_linker_0, # of connection points: 2
#     Edge 26, Type (0, 0), BuildingBlock: XIVTED_clean_linker_0, # of connection points: 2
#     Edge 27, Type (0, 0), BuildingBlock: XIVTED_clean_linker_0, # of connection points: 2
#     Edge 28, Type (0, 0), BuildingBlock: XIVTED_clean_linker_0, # of connection points: 2
#     Edge 29, Type (0, 0), BuildingBlock: XIVTED_clean_linker_0, # of connection points: 2
#     Edge 30, Type (0, 0), BuildingBlock: XIVTED_clean_linker_0, # of connection points: 2
#     Edge 31, Type (0, 0), BuildingBlock: XIVTED_clean_linker_0, # of connection points: 2
#     Edge 32, Type (0, 0), BuildingBlock: XIVTED_clean_linker_0, # of connection points: 2
#     Edge 33, Type (0, 0), BuildingBlock: XIVTED_clean_linker_0, # of connection points: 2
#     Edge 34, Type (0, 0), BuildingBlock: XIVTED_clean_linker_0, # of connection points: 2
#     Edge 35, Type (0, 0), BuildingBlock: XIVTED_clean_linker_0, # of connection points: 2
#     Edge 36, Type (0, 0), BuildingBlock: XIVTED_clean_linker_0, # of connection points: 2
#     Edge 37, Type (0, 0), BuildingBlock: XIVTED_clean_linker_0, # of connection points: 2
#     Edge 38, Type (0, 0), BuildingBlock: XIVTED_clean_linker_0, # of connection points: 2
#     Edge 39, Type (0, 0), BuildingBlock: XIVTED_clean_linker_0, # of connection points: 2
#     Edge 40, Type (0, 0), BuildingBlock: XIVTED_clean_linker_0, # of connection points: 2
#     Edge 41, Type (0, 0), BuildingBlock: XIVTED_clean_linker_0, # of connection points: 2
#     Edge 42, Type (0, 0), BuildingBlock: XIVTED_clean_linker_0, # of connection points: 2
#     Edge 43, Type (0, 0), BuildingBlock: XIVTED_clean_linker_0, # of connection points: 2
#     Edge 44, Type (0, 0), BuildingBlock: XIVTED_clean_linker_0, # of connection points: 2
#     Edge 45, Type (0, 0), BuildingBlock: XIVTED_clean_linker_0, # of connection points: 2
#     Edge 46, Type (0, 0), BuildingBlock: XIVTED_clean_linker_0, # of connection points: 2
#     Edge 47, Type (0, 0), BuildingBlock: XIVTED_clean_linker_0, # of connection points: 2
#     Edge 48, Type (0, 0), BuildingBlock: XIVTED_clean_linker_0, # of connection points: 2
#     Edge 49, Type (0, 0), BuildingBlock: XIVTED_clean_linker_0, # of connection points: 2
#     Edge 50, Type (0, 0), BuildingBlock: XIVTED_clean_linker_0, # of connection points: 2
#     Edge 51, Type (0, 0), BuildingBlock: XIVTED_clean_linker_0, # of connection points: 2
#     Edge 52, Type (0, 0), BuildingBlock: XIVTED_clean_linker_0, # of connection points: 2
#     Edge 53, Type (0, 0), BuildingBlock: XIVTED_clean_linker_0, # of connection points: 2
#     Edge 54, Type (0, 0), BuildingBlock: XIVTED_clean_linker_0, # of connection points: 2
#     Edge 55, Type (0, 0), BuildingBlock: XIVTED_clean_linker_0, # of connection points: 2
#     Edge 56, Type (0, 0), BuildingBlock: XIVTED_clean_linker_0, # of connection points: 2
#     Edge 57, Type (0, 0), BuildingBlock: XIVTED_clean_linker_0, # of connection points: 2
#     Edge 58, Type (0, 0), BuildingBlock: XIVTED_clean_linker_0, # of connection points: 2
#     Edge 59, Type (0, 0), BuildingBlock: XIVTED_clean_linker_0, # of connection points: 2
#     Edge 60, Type (0, 0), BuildingBlock: XIVTED_clean_linker_0, # of connection points: 2
#     Edge 61, Type (0, 0), BuildingBlock: XIVTED_clean_linker_0, # of connection points: 2
#     Edge 62, Type (0, 0), BuildingBlock: XIVTED_clean_linker_0, # of connection points: 2
#     Edge 63, Type (0, 0), BuildingBlock: XIVTED_clean_linker_0, # of connection points: 2
# Relax obj value: 0.150
# Max RMSD: 0.236
# Mean RMSD: 0.194
data_MOF--net-bcs--node1-BETDEL_clean_sbu_0--edge1-XIVTED_clean_linker_0
_symmetry_space_group_name_H-M    P1
_symmetry_Int_Tables_number       1
_symmetry_cell_setting            triclinic
loop_
_symmetry_equiv_pos_as_xyz
'x, y, z'
_cell_length_a     36.590555
_cell_length_b     37.783036
_cell_length_c     34.499231
_cell_angle_alpha  91.475268
_cell_angle_beta   94.008993
_cell_angle_gamma 104.93455
loop_
_atom_site_label
_atom_site_type_symbol
_atom_site_fract_x
_atom_site_fract_y
_atom_site_fract_z
_atom_type_partial_charge
Dy0 Dy 0.00941 0.96546 0.95079 0.0
C1 C 0.93096 0.04638 0.04284 0.0
C2 C 0.05819 0.93578 0.91335 0.0
Dy3 Dy 0.97642 0.01354 0.00327 0.0
O4 O 0.06577 0.96951 0.92669 0.0
O5 O 0.02363 0.91865 0.91941 0.0
O6 O 0.95687 0.91915 0.95183 0.0
O7 O 0.97488 0.95575 0.00045 0.0
C8 C 0.94861 0.92942 0.98561 0.0
C9 C 0.03597 0.04959 0.96537 0.0
O10 O 0.00989 0.99081 0.04857 0.0
O11 O 0.04908 0.97511 0.00504 0.0
O12 O 0.96719 0.05946 0.04082 0.0
O13 O 0.91955 0.0149 0.02382 0.0
O14 O 0.029 0.06003 -0.00042 0.0
O15 O 0.00943 0.02281 0.95251 0.0
O16 O 0.97381 0.98485 0.90536 0.0
O17 O 0.93611 0.00317 0.9492 0.0
C18 C 0.04104 0.98098 0.0411 0.0
C19 C 0.94299 0.99509 0.91316 0.0
Dy20 Dy 0.27105 0.73952 0.25747 0.0
C21 C 0.18513 0.83781 0.195 0.0
C22 C 0.31493 0.69921 0.29241 0.0
Dy23 Dy 0.22357 0.79288 0.23007 0.0
O24 O 0.32609 0.73426 0.28746 0.0
O25 O 0.2797 0.68663 0.27928 0.0
O26 O 0.25357 0.70542 0.20262 0.0
O27 O 0.21614 0.73366 0.22478 0.0
C28 C 0.22199 0.7147 0.19644 0.0
C29 C 0.27401 0.81606 0.29094 0.0
O30 O 0.18499 0.76015 0.26993 0.0
O31 O 0.23146 0.73898 0.30457 0.0
O32 O 0.22155 0.84578 0.20313 0.0
O33 O 0.16949 0.80488 0.20548 0.0
O34 O 0.24212 0.82503 0.28697 0.0
O35 O 0.2784 0.79809 0.2614 0.0
O36 O 0.30576 0.76759 0.21135 0.0
O37 O 0.2576 0.78853 0.17979 0.0
C38 C 0.19696 0.74438 0.3003 0.0
C39 C 0.2911 0.78109 0.18071 0.0
Dy40 Dy 0.4897 0.00076 0.54006 0.0
C41 C 0.56119 0.98176 0.40035 0.0
C42 C 0.46443 0.02671 0.60451 0.0
Dy43 Dy 0.5267 0.99707 0.4636 0.0
O44 O 0.45016 0.99436 0.58802 0.0
O45 O 0.49263 0.04441 0.58602 0.0
O46 O 0.4589 0.94144 0.53424 0.0
O47 O 0.47173 0.97151 0.48413 0.0
C48 C 0.4597 0.93984 0.49665 0.0
C49 C 0.55481 0.05768 0.50822 0.0
O50 O 0.48095 0.02229 0.44087 0.0
O51 O 0.46398 0.03742 0.50165 0.0
O52 O 0.57763 0.00346 0.42969 0.0
O53 O 0.52549 0.96825 0.40536 0.0
O54 O 0.55245 0.05764 0.47053 0.0
O55 O 0.54463 0.02553 0.51976 0.0
O56 O 0.53428 0.97352 0.56139 0.0
O57 O 0.54725 0.95587 0.49981 0.0
C58 C 0.46231 0.0396 0.46316 0.0
C59 C 0.5502 0.95414 0.53832 0.0
Dy60 Dy 0.26882 0.22277 0.73118 0.0
C61 C 0.19331 0.33523 0.76149 0.0
C62 C 0.29954 0.16996 0.70342 0.0
Dy63 Dy 0.23185 0.28553 0.74278 0.0
O64 O 0.28694 0.17063 0.73753 0.0
O65 O 0.29467 0.19767 0.68423 0.0
O66 O 0.29322 0.22835 0.79279 0.0
O67 O 0.28456 0.27438 0.76521 0.0
C68 C 0.29292 0.2624 0.79732 0.0
C69 C 0.21259 0.2468 0.67554 0.0
O70 O 0.28285 0.31686 0.71501 0.0
O71 O 0.30063 0.26563 0.69257 0.0
O72 O 0.1786 0.30369 0.74362 0.0
O73 O 0.22942 0.3396 0.77038 0.0
O74 O 0.21447 0.28145 0.67886 0.0
O75 O 0.21724 0.23432 0.70831 0.0
O76 O 0.21411 0.19355 0.75397 0.0
O77 O 0.20746 0.24508 0.78721 0.0
C78 C 0.30357 0.30146 0.69331 0.0
C79 C 0.19936 0.2089 0.7818 0.0
Dy80 Dy 0.03702 0.97681 0.50911 0.0
C81 C 0.91508 0.03762 0.44492 0.0
C82 C 0.09251 0.94984 0.54468 0.0
Dy83 Dy 0.97143 0.0121 0.48108 0.0
O84 O 0.07288 0.93693 0.51233 0.0
O85 O 0.08199 0.97794 0.55796 0.0
O86 O 0.02641 0.94293 0.45369 0.0
O87 O 0.98125 0.95821 0.47816 0.0
C88 C 0.99115 0.94361 0.44894 0.0
C89 C 0.02197 0.04997 0.53696 0.0
O90 O 0.94145 0.97004 0.52045 0.0
O91 O 0.99541 0.96175 0.55492 0.0
O92 O 0.92634 0.04262 0.48158 0.0
O93 O 0.93437 0.01815 0.42774 0.0
O94 O 0.98709 0.05197 0.53282 0.0
O95 O 0.02815 0.03109 0.50917 0.0
O96 O 0.06717 0.01766 0.46852 0.0
O97 O 0.01321 0.02762 0.43506 0.0
C98 C 0.95825 0.95823 0.551 0.0
C99 C 0.0503 0.03002 0.43825 0.0
Dy100 Dy 0.26778 0.7706 0.76543 0.0
C101 C 0.32364 0.70983 0.63686 0.0
C102 C 0.24334 0.80745 0.82285 0.0
Dy103 Dy 0.3009 0.74927 0.69321 0.0
O104 O 0.23082 0.77265 0.81402 0.0
O105 O 0.27026 0.82205 0.80103 0.0
O106 O 0.22672 0.71489 0.76316 0.0
O107 O 0.24378 0.73977 0.71135 0.0
C108 C 0.22518 0.71103 0.7256 0.0
C109 C 0.34335 0.80878 0.73301 0.0
O110 O 0.26266 0.77995 0.6644 0.0
O111 O 0.2547 0.80979 0.72151 0.0
O112 O 0.33664 0.74493 0.6438 0.0
O113 O 0.29732 0.69663 0.65982 0.0
O114 O 0.3421 0.80506 0.69543 0.0
O115 O 0.32481 0.77993 0.7471 0.0
O116 O 0.30514 0.73978 0.79471 0.0
O117 O 0.31367 0.71004 0.73779 0.0
C118 C 0.25163 0.80612 0.68296 0.0
C119 C 0.31581 0.71333 0.7764 0.0
Dy120 Dy 0.53646 0.97126 0.98805 0.0
C121 C 0.43215 0.05482 0.04596 0.0
C122 C 0.58215 0.93642 0.94962 0.0
Dy123 Dy 0.47715 0.01933 0.00718 0.0
O124 O 0.57588 0.93376 0.98626 0.0
O125 O 0.56358 0.95833 0.93409 0.0
O126 O 0.552 0.96926 0.05234 0.0
O127 O 0.53118 0.01197 0.03096 0.0
C128 C 0.53959 0.99753 0.0615 0.0
C129 C 0.47427 0.99282 0.9338 0.0
O130 O 0.52849 0.06387 -0.00264 0.0
O131 O 0.56537 0.02802 0.971 0.0
O132 O 0.43618 0.05537 0.00874 0.0
O133 O 0.45257 0.03464 0.06184 0.0
O134 O 0.46152 0.02098 0.94259 0.0
O135 O 0.48263 0.97873 0.96453 0.0
O136 O 0.48492 0.92678 -0.00281 0.0
O137 O 0.44842 0.96249 0.02455 0.0
C138 C 0.55847 0.06013 0.97971 0.0
C139 C 0.45525 0.93039 0.01546 0.0
Dy140 Dy 0.27901 0.23734 0.28085 0.0
C141 C 0.19001 0.28407 0.15584 0.0
C142 C 0.31053 0.19686 0.33195 0.0
Dy143 Dy 0.2275 0.24997 0.2085 0.0
O144 O 0.319 0.23261 0.33276 0.0
O145 O 0.28423 0.18377 0.30427 0.0
O146 O 0.31939 0.29327 0.2761 0.0
O147 O 0.28752 0.26485 0.22691 0.0
C148 C 0.3091 0.29508 0.23941 0.0
C149 C 0.19908 0.19154 0.2495 0.0
O150 O 0.26073 0.21726 0.17663 0.0
O151 O 0.29079 0.20055 0.23254 0.0
O152 O 0.17412 0.25694 0.17651 0.0
O153 O 0.22662 0.29163 0.16276 0.0
O154 O 0.19062 0.19257 0.21228 0.0
O155 O 0.21901 0.22236 0.26269 0.0
O156 O 0.2421 0.26749 0.31115 0.0
O157 O 0.22154 0.29147 0.25476 0.0
C158 C 0.28281 0.19829 0.19406 0.0
C159 C 0.22461 0.29026 0.29336 0.0
Dy160 Dy 0.53749 0.48028 0.01632 0.0
C161 C 0.42249 0.54316 0.94044 0.0
C162 C 0.58911 0.45383 0.05977 0.0
Dy163 Dy 0.47307 0.51549 0.984 0.0
O164 O 0.58254 0.44966 0.02226 0.0
O165 O 0.56807 0.47334 0.07361 0.0
O166 O 0.52444 0.43991 0.96482 0.0
O167 O 0.48206 0.46137 0.98528 0.0
C168 C 0.49003 0.44277 0.95829 0.0
C169 C 0.51676 0.54969 0.04507 0.0
O170 O 0.44033 0.47414 0.02285 0.0
O171 O 0.4933 0.46628 0.05991 0.0
O172 O 0.43224 0.5506 0.97722 0.0
O173 O 0.43958 0.51957 0.92747 0.0
O174 O 0.48202 0.55145 0.03804 0.0
O175 O 0.52755 0.53421 0.01709 0.0
O176 O 0.5705 0.52192 0.97828 0.0
O177 O 0.51803 0.53073 0.94139 0.0
C178 C 0.45618 0.46301 0.05463 0.0
C179 C 0.55508 0.53394 0.94695 0.0
Dy180 Dy 0.71198 0.24569 0.29987 0.0
C181 C 0.77557 0.19068 0.17054 0.0
C182 C 0.68114 0.28065 0.35418 0.0
Dy183 Dy 0.74886 0.22616 0.22776 0.0
O184 O 0.66246 0.25474 0.32955 0.0
O185 O 0.71734 0.28688 0.35017 0.0
O186 O 0.67402 0.18861 0.29665 0.0
O187 O 0.69133 0.2149 0.24519 0.0
C188 C 0.67354 0.18545 0.25902 0.0
C189 C 0.7884 0.28585 0.26951 0.0
O190 O 0.71226 0.25789 0.19878 0.0
O191 O 0.70514 0.28776 0.25625 0.0
O192 O 0.79017 0.22436 0.18314 0.0
O193 O 0.74549 0.17651 0.18847 0.0
O194 O 0.78897 0.28243 0.23204 0.0
O195 O 0.76958 0.25657 0.28263 0.0
O196 O 0.74653 0.21179 0.32955 0.0
O197 O 0.7614 0.18715 0.27195 0.0
C198 C 0.70253 0.28463 0.21762 0.0
C199 C 0.76075 0.18806 0.31043 0.0
Dy200 Dy 0.03658 0.47804 0.4786 0.0
C201 C 0.93885 0.56001 0.55195 0.0
C202 C 0.07702 0.43895 0.43748 0.0
Dy203 Dy 0.98089 0.52217 0.51149 0.0
O204 O 0.08179 0.44709 0.47462 0.0
O205 O 0.04999 0.45236 0.42255 0.0
O206 O 0.07149 0.48912 0.53618 0.0
O207 O 0.04139 0.52614 0.51694 0.0
C208 C 0.06066 0.51818 0.54529 0.0
C209 C 0.95689 0.48182 0.44482 0.0
O210 O 0.0211 0.56581 0.48246 0.0
O211 O 0.04477 0.52773 0.44204 0.0
O212 O 0.9347 0.55197 0.51481 0.0
O213 O 0.96627 0.54735 0.56725 0.0
O214 O 0.94667 0.51127 0.4536 0.0
O215 O 0.97594 0.47385 0.47335 0.0
O216 O 0.99676 0.43466 0.50848 0.0
O217 O 0.97344 0.47316 0.54867 0.0
C218 C 0.03907 0.56011 0.45179 0.0
C219 C 0.97917 0.44075 0.53931 0.0
Dy220 Dy 0.7785 0.72448 0.23073 0.0
C221 C 0.70453 0.8365 0.26835 0.0
C222 C 0.81011 0.66994 0.20969 0.0
Dy223 Dy 0.73479 0.78132 0.24656 0.0
O224 O 0.82362 0.69453 0.23741 0.0
O225 O 0.77908 0.67509 0.19282 0.0
O226 O 0.82407 0.75258 0.27559 0.0
O227 O 0.79412 0.78362 0.24315 0.0
C228 C 0.81853 0.78472 0.27078 0.0
C229 C 0.69474 0.7208 0.20681 0.0
O230 O 0.76513 0.80459 0.19524 0.0
O231 O 0.78046 0.75207 0.17335 0.0
O232 O 0.69124 0.81311 0.23949 0.0
O233 O 0.73445 0.8297 0.28591 0.0
O234 O 0.6888 0.75281 0.20201 0.0
O235 O 0.71935 0.72243 0.23431 0.0
O236 O 0.74788 0.70094 0.28185 0.0
O237 O 0.73163 0.75301 0.30367 0.0
C238 C 0.77716 0.78585 0.16802 0.0
C239 C 0.7351 0.71925 0.30891 0.0
Dy240 Dy 0.78437 0.20959 0.75738 0.0
C241 C 0.70781 0.32314 0.73158 0.0
C242 C 0.81446 0.15274 0.77458 0.0
Dy243 Dy 0.74667 0.27327 0.75181 0.0
O244 O 0.77852 0.15035 0.76855 0.0
O245 O 0.83417 0.1864 0.7718 0.0
O246 O 0.76288 0.1927 0.69554 0.0
O247 O 0.73072 0.21638 0.73137 0.0
C248 C 0.73325 0.20528 0.69732 0.0
C249 C 0.79767 0.27917 0.81196 0.0
O250 O 0.70962 0.23864 0.79202 0.0
O251 O 0.75278 0.20559 0.81087 0.0
O252 O 0.74316 0.33125 0.745 0.0
O253 O 0.6939 0.28781 0.72851 0.0
O254 O 0.76875 0.29309 0.81264 0.0
O255 O 0.80014 0.26662 0.77841 0.0
O256 O 0.82612 0.24726 0.72436 0.0
O257 O 0.78427 0.28075 0.70219 0.0
C258 C 0.72186 0.21667 0.81595 0.0
C259 C 0.81637 0.27074 0.70067 0.0
Dy260 Dy 0.78361 0.74139 0.7855 0.0
C261 C 0.69189 0.78443 0.66039 0.0
C262 C 0.8187 0.70635 0.83926 0.0
Dy263 Dy 0.73065 0.75172 0.7136 0.0
O264 O 0.83476 0.7369 0.82372 0.0
O265 O 0.78321 0.6958 0.82647 0.0
O266 O 0.82077 0.79839 0.78 0.0
O267 O 0.791 0.76774 0.73061 0.0
C268 C 0.81146 0.79869 0.74284 0.0
C269 C 0.70334 0.69449 0.75674 0.0
O270 O 0.76438 0.71878 0.68248 0.0
O271 O 0.79228 0.70125 0.73915 0.0
O272 O 0.67669 0.75707 0.68113 0.0
O273 O 0.72851 0.79295 0.66756 0.0
O274 O 0.69449 0.69424 0.71944 0.0
O275 O 0.72331 0.72571 0.76863 0.0
O276 O 0.74999 0.77402 0.8164 0.0
O277 O 0.72479 0.79385 0.75959 0.0
C278 C 0.78555 0.69927 0.70057 0.0
C279 C 0.7306 0.79499 0.79827 0.0
Dy280 Dy 0.54388 0.51161 0.54341 0.0
C281 C 0.47231 0.53974 0.39932 0.0
C282 C 0.56875 0.48636 0.61069 0.0
Dy283 Dy 0.50168 0.51265 0.46349 0.0
O284 O 0.58648 0.51608 0.59475 0.0
O285 O 0.53732 0.47098 0.59015 0.0
O286 O 0.58125 0.56773 0.53518 0.0
O287 O 0.56052 0.53089 0.48691 0.0
C288 C 0.57871 0.56322 0.49745 0.0
C289 C 0.46662 0.46195 0.51085 0.0
O290 O 0.53747 0.47663 0.44523 0.0
O291 O 0.55855 0.46642 0.5083 0.0
O292 O 0.45627 0.5093 0.41503 0.0
O293 O 0.50526 0.55422 0.41755 0.0
O294 O 0.46336 0.45685 0.47318 0.0
O295 O 0.48532 0.49423 0.52022 0.0
O296 O 0.5059 0.54574 0.56091 0.0
O297 O 0.4898 0.55946 0.49782 0.0
C298 C 0.55527 0.45924 0.47006 0.0
C299 C 0.49041 0.56484 0.53601 0.0
Dy300 Dy 0.98658 0.49406 0.03034 0.0
C301 C 0.04112 0.4751 0.88062 0.0
C302 C 0.95294 0.51331 0.09224 0.0
Dy303 Dy 0.02189 0.48843 0.95344 0.0
O304 O 0.9358 0.49135 0.06328 0.0
O305 O 0.98914 0.52461 0.08785 0.0
O306 O 0.96781 0.4334 0.03363 0.0
O307 O 0.97125 0.45699 0.97881 0.0
C308 C 0.96637 0.4273 -0.00363 0.0
C309 C 0.06177 0.5415 0.00312 0.0
O310 O 0.98127 0.52074 0.93342 0.0
O311 O 0.95448 0.52504 0.992 0.0
O312 O 0.05565 0.50485 0.90187 0.0
O313 O 0.01562 0.45294 0.89899 0.0
O314 O 0.07719 0.52306 0.97991 0.0
O315 O 0.02618 0.53211 -0.00271 0.0
O316 O 0.03824 0.47569 0.05056 0.0
O317 O 0.04707 0.45133 0.99034 0.0
C318 C 0.95754 0.53233 0.95477 0.0
C319 C 0.05373 0.45479 0.02876 0.0
H320 H 0.16769 0.13479 0.77355 0.0
H321 H 0.08206 0.11875 0.98167 0.0
H322 H 0.17564 0.22852 0.85099 0.0
H323 H 0.05016 0.0327 0.89161 0.0
H324 H 0.1223 0.15781 0.93712 0.0
H325 H 0.12963 0.09554 0.8191 0.0
C326 C 0.16137 0.14717 0.80008 0.0
C327 C 0.17482 0.18508 0.80837 0.0
C328 C 0.10658 0.13033 0.92718 0.0
C329 C 0.13152 0.14012 0.86091 0.0
C330 C 0.08381 0.10799 0.95265 0.0
C331 C 0.06277 0.0725 0.94025 0.0
C332 C 0.10854 0.11691 0.88921 0.0
C333 C 0.06595 0.05991 0.90233 0.0
C334 C 0.13961 0.12471 0.82608 0.0
C335 C 0.16569 0.1995 0.84326 0.0
N336 N 0.08838 0.08208 0.87816 0.0
N337 N 0.14477 0.17699 0.86832 0.0
H338 H 0.01715 0.94712 0.1073 0.0
H339 H 0.21592 0.90243 0.16261 0.0
H340 H 0.11671 0.98678 0.04491 0.0
H341 H 0.10858 0.83081 0.18758 0.0
H342 H 0.18222 0.94387 0.13195 0.0
H343 H 0.05332 0.91547 0.15056 0.0
C344 C 0.04691 0.95007 0.10349 0.0
C345 C 0.06408 0.96943 0.07255 0.0
C346 C 0.16608 0.91919 0.14434 0.0
C347 C 0.1052 0.9333 0.12134 0.0
C348 C 0.18523 0.89554 0.16175 0.0
C349 C 0.16487 0.86305 0.17719 0.0
C350 C 0.12632 0.91048 0.14281 0.0
C351 C 0.12521 0.85546 0.17559 0.0
C352 C 0.06734 0.93169 0.12781 0.0
C353 C 0.10248 0.97196 0.06839 0.0
N354 N 0.10712 0.87905 0.15862 0.0
N355 N 0.12174 0.95393 0.09239 0.0
H356 H 0.47474 0.91522 0.42682 0.0
H357 H 0.26103 0.83837 0.36302 0.0
H358 H 0.39076 0.89634 0.51068 0.0
H359 H 0.34718 0.81213 0.29697 0.0
H360 H 0.30778 0.85696 0.41892 0.0
H361 H 0.42935 0.874 0.37987 0.0
C362 C 0.44685 0.9019 0.43534 0.0
C363 C 0.43596 0.90953 0.47196 0.0
C364 C 0.31626 0.8465 0.39242 0.0
C365 C 0.38394 0.86303 0.41891 0.0
C366 C 0.28976 0.83629 0.36052 0.0
C367 C 0.3007 0.82441 0.32547 0.0
C368 C 0.35395 0.84547 0.38869 0.0
C369 C 0.33793 0.82154 0.32358 0.0
C370 C 0.42106 0.87821 0.4088 0.0
C371 C 0.39991 0.89114 0.4824 0.0
N372 N 0.36353 0.83267 0.35464 0.0
N373 N 0.37468 0.86929 0.45555 0.0
H374 H 0.3476 0.18119 0.64635 0.0
H375 H 0.40053 0.99599 0.64109 0.0
H376 H 0.30481 0.10522 0.734 0.0
H377 H 0.4839 0.09829 0.62838 0.0
H378 H 0.3603 0.03018 0.67134 0.0
H379 H 0.39172 0.14512 0.63105 0.0
C380 C 0.34722 0.15662 0.66201 0.0
C381 C 0.3227 0.14597 0.69138 0.0
C382 C 0.38784 0.04485 0.66272 0.0
C383 C 0.37291 0.10494 0.67422 0.0
C384 C 0.41076 0.02548 0.64565 0.0
C385 C 0.44514 0.04456 0.63177 0.0
C386 C 0.39933 0.08327 0.66483 0.0
C387 C 0.45731 0.08266 0.6383 0.0
C388 C 0.37264 0.1364 0.65364 0.0
C389 C 0.32343 0.11412 0.71111 0.0
N390 N 0.43395 0.10093 0.65354 0.0
N391 N 0.34809 0.09433 0.70193 0.0
H392 H 0.13048 0.96744 0.61688 0.0
H393 H 0.22983 0.80175 0.60482 0.0
H394 H 0.11804 0.89369 0.51646 0.0
H395 H 0.23043 0.86591 0.7104 0.0
H396 H 0.19509 0.83994 0.56986 0.0
H397 H 0.17345 0.93528 0.64963 0.0
C398 C 0.13707 0.94469 0.60167 0.0
C399 C 0.12061 0.93301 0.56409 0.0
C400 C 0.20299 0.84577 0.60065 0.0
C401 C 0.16944 0.89615 0.60114 0.0
C402 C 0.22292 0.824 0.62062 0.0
C403 C 0.23283 0.8304 0.66068 0.0
C404 C 0.19297 0.87424 0.62084 0.0
C405 C 0.22312 0.85972 0.67958 0.0
C406 C 0.16147 0.9263 0.62034 0.0
C407 C 0.13001 0.90343 0.54557 0.0
N408 N 0.20362 0.88043 0.65954 0.0
N409 N 0.15367 0.88595 0.56431 0.0
H410 H 0.36885 0.88062 0.71457 0.0
H411 H 0.49249 0.92976 0.91664 0.0
H412 H 0.37542 0.80521 0.80499 0.0
H413 H 0.43715 0.0077 0.86638 0.0
H414 H 0.46846 0.8882 0.86055 0.0
H415 H 0.40966 0.93092 0.75747 0.0
C416 C 0.37926 0.87472 0.74321 0.0
C417 C 0.36884 0.83906 0.75662 0.0
C418 C 0.46219 0.91471 0.8614 0.0
C419 C 0.41559 0.89531 0.80452 0.0
C420 C 0.47618 0.93863 0.89324 0.0
C421 C 0.46648 0.97205 0.89626 0.0
C422 C 0.43793 0.92402 0.83254 0.0
C423 C 0.44489 0.98193 0.86516 0.0
C424 C 0.40232 0.90322 0.76746 0.0
C425 C 0.38266 0.83245 0.79379 0.0
N426 N 0.43062 0.95758 0.83461 0.0
N427 N 0.40547 0.86032 0.81639 0.0
H428 H 0.42319 0.05693 0.1241 0.0
H429 H 0.28482 0.19222 0.11381 0.0
H430 H 0.38759 0.09824 0.01656 0.0
H431 H 0.32516 0.15209 0.22015 0.0
H432 H 0.31977 0.15677 0.07707 0.0
H433 H 0.3855 0.09033 0.15903 0.0
C434 C 0.40736 0.07298 0.10778 0.0
C435 C 0.40865 0.07471 0.06727 0.0
C436 C 0.32084 0.15567 0.10845 0.0
C437 C 0.36509 0.11338 0.1073 0.0
C438 C 0.30073 0.17585 0.12949 0.0
C439 C 0.30188 0.1754 0.17035 0.0
C440 C 0.3423 0.13469 0.12826 0.0
C441 C 0.3233 0.15363 0.18882 0.0
C442 C 0.38578 0.09213 0.12778 0.0
C443 C 0.38748 0.09608 0.04778 0.0
N444 N 0.34252 0.13438 0.16778 0.0
N445 N 0.36667 0.11454 0.0679 0.0
H446 H 0.12676 0.06098 0.44531 0.0
H447 H 0.1384 0.1327 0.22957 0.0
H448 H 0.02803 0.04361 0.36385 0.0
H449 H 0.21542 0.18572 0.32673 0.0
H450 H 0.10306 0.0892 0.2741 0.0
H451 H 0.16519 0.09621 0.39722 0.0
C452 C 0.11321 0.0643 0.41719 0.0
C453 C 0.07408 0.04964 0.40865 0.0
C454 C 0.12796 0.11017 0.28545 0.0
C455 C 0.11796 0.08961 0.35353 0.0
C456 C 0.14818 0.1348 0.26012 0.0
C457 C 0.17982 0.16274 0.27459 0.0
C458 C 0.13996 0.11329 0.32524 0.0
C459 C 0.19127 0.16446 0.31439 0.0
C460 C 0.13515 0.08449 0.38986 0.0
C461 C 0.05804 0.05484 0.37175 0.0
N462 N 0.17136 0.14006 0.33835 0.0
N463 N 0.08008 0.07443 0.34547 0.0
H464 H 0.84184 0.21683 0.13751 0.0
H465 H 0.85503 0.0217 0.05262 0.0
H466 H 0.75356 0.11763 0.14798 0.0
H467 H 0.9506 0.11641 0.07299 0.0
H468 H 0.81428 0.05697 0.07999 0.0
H469 H 0.87837 0.18131 0.10439 0.0
C470 C 0.82993 0.18758 0.13234 0.0
C471 C 0.79477 0.17005 0.14562 0.0
C472 C 0.84418 0.06993 0.07849 0.0
C473 C 0.83661 0.12911 0.10814 0.0
C474 C 0.8674 0.04985 0.06299 0.0
C475 C 0.90618 0.06622 0.06075 0.0
C476 C 0.85991 0.10667 0.09132 0.0
C477 C 0.92085 0.10273 0.07437 0.0
C478 C 0.85091 0.16727 0.11367 0.0
C479 C 0.78064 0.13211 0.13818 0.0
N480 N 0.89769 0.12176 0.08893 0.0
N481 N 0.80173 0.11278 0.12006 0.0
H482 H 0.04403 0.56351 0.37384 0.0
H483 H 0.21031 0.73208 0.37689 0.0
H484 H 0.07444 0.62824 0.48173 0.0
H485 H 0.12125 0.71713 0.28428 0.0
H486 H 0.1653 0.69236 0.41694 0.0
H487 H 0.07704 0.61682 0.3391 0.0
C488 C 0.05753 0.58904 0.39001 0.0
C489 C 0.05689 0.59186 0.4304 0.0
C490 C 0.15558 0.69865 0.38818 0.0
C491 C 0.09455 0.65191 0.39154 0.0
C492 C 0.18112 0.72103 0.3654 0.0
C493 C 0.16935 0.72737 0.32731 0.0
C494 C 0.11877 0.68188 0.37202 0.0
C495 C 0.13132 0.71274 0.31357 0.0
C496 C 0.07589 0.61934 0.37032 0.0
C497 C 0.07443 0.62535 0.45041 0.0
N498 N 0.10747 0.68973 0.33562 0.0
N499 N 0.09338 0.65412 0.43079 0.0
H500 H 0.54106 0.92126 0.60814 0.0
H501 H 0.71772 0.83576 0.607 0.0
H502 H 0.60713 0.92934 0.50843 0.0
H503 H 0.61789 0.78501 0.66469 0.0
H504 H 0.68303 0.87665 0.57578 0.0
H505 H 0.57476 0.87819 0.63565 0.0
C506 C 0.56282 0.91418 0.59215 0.0
C507 C 0.57126 0.92895 0.55591 0.0
C508 C 0.6687 0.85632 0.59503 0.0
C509 C 0.61018 0.87994 0.58745 0.0
C510 C 0.68842 0.833 0.61277 0.0
C511 C 0.67055 0.80681 0.63824 0.0
C512 C 0.63123 0.8541 0.6037 0.0
C513 C 0.63264 0.8046 0.64499 0.0
C514 C 0.58184 0.88942 0.60775 0.0
C515 C 0.59959 0.91852 0.53637 0.0
N516 N 0.61441 0.82821 0.62825 0.0
N517 N 0.61827 0.89493 0.55252 0.0
H518 H 0.4192 0.44895 0.94025 0.0
H519 H 0.34436 0.24646 0.85015 0.0
H520 H 0.4936 0.37919 0.92149 0.0
H521 H 0.29427 0.33309 0.81363 0.0
H522 H 0.39241 0.29129 0.8915 0.0
H523 H 0.36695 0.40322 0.90549 0.0
C524 C 0.42459 0.42422 0.92819 0.0
C525 C 0.46058 0.41775 0.93313 0.0
C526 C 0.37054 0.30023 0.87473 0.0
C527 C 0.40112 0.36523 0.89511 0.0
C528 C 0.343 0.27477 0.85158 0.0
C529 C 0.31591 0.28653 0.82831 0.0
C530 C 0.37023 0.33721 0.87479 0.0
C531 C 0.3151 0.3233 0.83104 0.0
C532 C 0.3948 0.39814 0.90879 0.0
C533 C 0.46619 0.38513 0.91779 0.0
N534 N 0.34222 0.34761 0.8538 0.0
N535 N 0.43646 0.35969 0.89959 0.0
H536 H 0.89392 0.79332 0.28296 0.0
H537 H 0.91675 0.94203 0.43417 0.0
H538 H 0.80748 0.85205 0.28556 0.0
H539 H 0.01435 0.92577 0.38002 0.0
H540 H 0.87718 0.91742 0.3747 0.0
H541 H 0.94043 0.84733 0.31147 0.0
C542 C 0.8849 0.81783 0.28947 0.0
C543 C 0.84687 0.81821 0.28367 0.0
C544 C 0.90746 0.92031 0.3754 0.0
C545 C 0.89939 0.87965 0.3164 0.0
C546 C 0.92987 0.93392 0.40941 0.0
C547 C 0.96831 0.93442 0.4121 0.0
C548 C 0.92374 0.90641 0.34476 0.0
C549 C 0.98439 0.92443 0.3793 0.0
C550 C 0.91146 0.84882 0.30512 0.0
C551 C 0.83653 0.85073 0.29104 0.0
N552 N 0.96177 0.90992 0.34708 0.0
N553 N 0.86256 0.8801 0.30837 0.0
H554 H 0.47519 0.62401 0.5011 0.0
H555 H 0.31506 0.6365 0.64028 0.0
H556 H 0.45418 0.5598 0.60276 0.0
H557 H 0.37753 0.7324 0.58544 0.0
H558 H 0.35655 0.60168 0.61453 0.0
H559 H 0.43175 0.65935 0.52184 0.0
C560 C 0.46171 0.61764 0.52796 0.0
C561 C 0.46835 0.58917 0.55045 0.0
C562 C 0.36085 0.63025 0.60782 0.0
C563 C 0.41811 0.62844 0.5734 0.0
C564 C 0.33698 0.64999 0.62207 0.0
C565 C 0.34312 0.68733 0.61501 0.0
C566 C 0.39057 0.64789 0.5859 0.0
C567 C 0.37205 0.70361 0.59152 0.0
C568 C 0.43696 0.63768 0.53963 0.0
C569 C 0.45014 0.58182 0.58486 0.0
N570 N 0.39489 0.68375 0.57777 0.0
N571 N 0.42544 0.60109 0.59509 0.0
H572 H 0.63458 0.07084 0.98221 0.0
H573 H 0.65178 0.22358 0.83229 0.0
H574 H 0.54542 0.12419 0.9558 0.0
H575 H 0.74624 0.18454 0.87876 0.0
H576 H 0.61582 0.19693 0.88621 0.0
H577 H 0.6795 0.1213 0.955 0.0
C578 C 0.62468 0.09356 0.97101 0.0
C579 C 0.58634 0.09318 0.97004 0.0
C580 C 0.64467 0.1948 0.88496 0.0
C581 C 0.63705 0.15045 0.93819 0.0
C582 C 0.66508 0.20978 0.85407 0.0
C583 C 0.70142 0.20498 0.85037 0.0
C584 C 0.66077 0.17478 0.91189 0.0
C585 C 0.71773 0.18769 0.87976 0.0
C586 C 0.65029 0.12247 0.95569 0.0
C587 C 0.57484 0.12347 0.95633 0.0
N588 N 0.69702 0.17266 0.90898 0.0
N589 N 0.60002 0.15063 0.93989 0.0
H590 H 0.11089 0.43053 -0.00076 0.0
H591 H 0.11679 0.28646 0.16099 0.0
H592 H 0.04804 0.42647 0.10097 0.0
H593 H 0.21685 0.3353 0.10268 0.0
H594 H 0.08491 0.32958 0.13059 0.0
H595 H 0.14487 0.38859 0.02907 0.0
C596 C 0.10442 0.421 0.02795 0.0
C597 C 0.07674 0.43214 0.04778 0.0
C598 C 0.11377 0.3307 0.12432 0.0
C599 C 0.11468 0.38349 0.08142 0.0
C600 C 0.13185 0.30592 0.14132 0.0
C601 C 0.16946 0.30729 0.13419 0.0
C602 C 0.13313 0.35654 0.09935 0.0
C603 C 0.18779 0.33333 0.10882 0.0
C604 C 0.12382 0.39713 0.04489 0.0
C605 C 0.06942 0.41888 0.08485 0.0
N606 N 0.16936 0.35683 0.09206 0.0
N607 N 0.08792 0.39488 0.10027 0.0
H608 H 0.63045 0.57028 0.95758 0.0
H609 H 0.64922 0.63008 0.73784 0.0
H610 H 0.53593 0.54187 0.87039 0.0
H611 H 0.71366 0.69615 0.83571 0.0
H612 H 0.61496 0.58692 0.78336 0.0
H613 H 0.66943 0.60598 0.90981 0.0
C614 C 0.61804 0.57123 0.92831 0.0
C615 C 0.57984 0.55341 0.91799 0.0
C616 C 0.637 0.61067 0.79467 0.0
C617 C 0.62424 0.59366 0.86334 0.0
C618 C 0.65656 0.63518 0.7688 0.0
C619 C 0.68454 0.66651 0.78306 0.0
C620 C 0.64599 0.61738 0.8349 0.0
C621 C 0.69281 0.672 0.82345 0.0
C622 C 0.64021 0.59167 0.90118 0.0
C623 C 0.56515 0.55557 0.87966 0.0
N624 N 0.67369 0.64765 0.84796 0.0
N625 N 0.58739 0.57533 0.85366 0.0
H626 H 0.67664 0.34164 0.24543 0.0
H627 H 0.62993 0.40851 0.03358 0.0
H628 H 0.69697 0.29057 0.13846 0.0
H629 H 0.59928 0.45326 0.1391 0.0
H630 H 0.66075 0.36953 0.07228 0.0
H631 H 0.65345 0.38636 0.20768 0.0
C632 C 0.6763 0.33981 0.21402 0.0
C633 C 0.68862 0.31209 0.19512 0.0
C634 C 0.64757 0.38805 0.08706 0.0
C635 C 0.6622 0.36344 0.15172 0.0
C636 C 0.63013 0.41044 0.06498 0.0
C637 C 0.61194 0.43398 0.08322 0.0
C638 C 0.64675 0.38915 0.12772 0.0
C639 C 0.61298 0.43541 0.12395 0.0
C640 C 0.66306 0.36542 0.19249 0.0
C641 C 0.68759 0.31126 0.15434 0.0
N642 N 0.62987 0.41308 0.14486 0.0
N643 N 0.67456 0.33649 0.13404 0.0
H644 H 0.91411 0.49318 0.38058 0.0
H645 H 0.81154 0.28428 0.3457 0.0
H646 H 0.95454 0.40941 0.43926 0.0
H647 H 0.82275 0.35484 0.24844 0.0
H648 H 0.8565 0.33317 0.38531 0.0
H649 H 0.8742 0.44565 0.3346 0.0
C650 C 0.9149 0.4649 0.38342 0.0
C651 C 0.93724 0.455 0.41381 0.0
C652 C 0.84914 0.33787 0.35526 0.0
C653 C 0.89151 0.40109 0.36248 0.0
C654 C 0.82336 0.31019 0.33281 0.0
C655 C 0.81375 0.31573 0.29386 0.0
C656 C 0.86466 0.37147 0.33884 0.0
C657 C 0.82978 0.34968 0.27841 0.0
C658 C 0.89225 0.43796 0.35731 0.0
C659 C 0.93752 0.41812 0.41636 0.0
N660 N 0.85439 0.37659 0.30112 0.0
N661 N 0.91442 0.39234 0.39139 0.0
H662 H 0.61467 0.63602 0.51173 0.0
H663 H 0.72801 0.64712 0.32238 0.0
H664 H 0.5961 0.54778 0.42476 0.0
H665 H 0.7019 0.74376 0.37018 0.0
H666 H 0.69108 0.61074 0.37016 0.0
H667 H 0.65615 0.67649 0.46872 0.0
C668 C 0.61929 0.62526 0.48361 0.0
C669 C 0.60209 0.5886 0.47168 0.0
C670 C 0.69363 0.63996 0.37034 0.0
C671 C 0.64971 0.63409 0.42323 0.0
C672 C 0.71495 0.6609 0.34322 0.0
C673 C 0.71776 0.69862 0.34186 0.0
C674 C 0.67524 0.65673 0.39678 0.0
C675 C 0.70028 0.71475 0.36996 0.0
C676 C 0.64283 0.64828 0.45921 0.0
C677 C 0.60881 0.57589 0.43503 0.0
N678 N 0.67957 0.69364 0.3963 0.0
N679 N 0.63237 0.59851 0.41227 0.0
H680 H 0.87225 0.27967 0.81002 0.0
H681 H 0.90946 0.37356 0.02115 0.0
H682 H 0.78661 0.28508 0.88808 0.0
H683 H 0.9863 0.39785 0.93083 0.0
H684 H 0.87316 0.31861 0.98311 0.0
H685 H 0.9211 0.29993 0.86417 0.0
C686 C 0.86377 0.28417 0.83883 0.0
C687 C 0.82588 0.28225 0.84475 0.0
C688 C 0.89842 0.33563 0.97192 0.0
C689 C 0.88081 0.3048 0.90609 0.0
C690 C 0.91899 0.36695 0.99348 0.0
C691 C 0.94944 0.3911 0.97766 0.0
C692 C 0.90865 0.32877 0.93452 0.0
C693 C 0.96143 0.38108 0.94245 0.0
C694 C 0.89151 0.29561 0.8696 0.0
C695 C 0.81589 0.2876 0.8824 0.0
N696 N 0.94053 0.35092 0.92151 0.0
N697 N 0.84335 0.29931 0.91167 0.0
H698 H 0.78619 0.85831 0.15437 0.0
H699 H 0.90298 0.86052 0.9675 0.0
H700 H 0.80638 0.75935 0.10525 0.0
H701 H 0.92459 0.94996 0.05341 0.0
H702 H 0.85465 0.82433 0.00708 0.0
H703 H 0.82289 0.89329 0.10537 0.0
C704 C 0.7978 0.84375 0.13295 0.0
C705 C 0.79367 0.80581 0.13437 0.0
C706 C 0.86979 0.85201 0.01692 0.0
C707 C 0.8357 0.84597 0.07812 0.0
C708 C 0.89721 0.87265 0.99442 0.0
C709 C 0.91774 0.90819 0.00738 0.0
C710 C 0.86249 0.86744 0.05204 0.0
C711 C 0.90933 0.92268 0.04242 0.0
C712 C 0.8189 0.86386 0.1051 0.0
C713 C 0.8092 0.78859 0.10552 0.0
N714 N 0.88227 0.90226 0.06353 0.0
N715 N 0.82983 0.80887 0.07864 0.0
H716 H 0.77626 0.08582 0.79714 0.0
H717 H 0.96495 0.02104 0.8432 0.0
H718 H 0.88814 0.14983 0.77511 0.0
H719 H 0.86798 0.99288 0.91148 0.0
H720 H 0.92996 0.05247 0.79873 0.0
H721 H 0.80383 0.03689 0.8205 0.0
C722 C 0.80656 0.08929 0.79673 0.0
C723 C 0.8302 0.12197 0.7849 0.0
C724 C 0.91611 0.03856 0.82292 0.0
C725 C 0.86151 0.06623 0.8107 0.0
C726 C 0.93586 0.02041 0.84807 0.0
C727 C 0.91936 0.00491 0.88123 0.0
C728 C 0.87962 0.0406 0.83088 0.0
C729 C 0.88176 0.00502 0.88644 0.0
C730 C 0.82216 0.06143 0.80993 0.0
C731 C 0.86915 0.12517 0.7846 0.0
N732 N 0.8632 0.02302 0.86171 0.0
N733 N 0.88372 0.09765 0.7976 0.0
H734 H 0.65831 0.19781 0.70518 0.0
H735 H 0.59106 0.12626 0.48711 0.0
H736 H 0.73918 0.19891 0.61971 0.0
H737 H 0.56342 0.06094 0.58701 0.0
H738 H 0.62977 0.17661 0.53087 0.0
H739 H 0.6066 0.17298 0.65479 0.0
C740 C 0.66506 0.19395 0.67553 0.0
C741 C 0.70271 0.1992 0.66641 0.0
C742 C 0.61391 0.15161 0.54294 0.0
C743 C 0.64443 0.1723 0.60932 0.0
C744 C 0.59214 0.12296 0.51823 0.0
C745 C 0.57384 0.08964 0.5337 0.0
C746 C 0.61611 0.14693 0.58308 0.0
C747 C 0.57627 0.08646 0.57405 0.0
C748 C 0.63569 0.18002 0.64698 0.0
C749 C 0.71028 0.1942 0.62774 0.0
N750 N 0.59713 0.1148 0.59743 0.0
N751 N 0.68122 0.18042 0.60046 0.0
H752 H 0.5328 0.93085 0.34082 0.0
H753 H 0.73194 0.89226 0.32299 0.0
H754 H 0.63679 0.00347 0.39265 0.0
H755 H 0.63604 0.84484 0.24113 0.0
H756 H 0.6982 0.93565 0.34661 0.0
H757 H 0.57005 0.90157 0.30032 0.0
C758 C 0.56342 0.94109 0.34301 0.0
C759 C 0.58192 0.96907 0.37039 0.0
C760 C 0.68475 0.91609 0.32308 0.0
C761 C 0.6245 0.93557 0.32507 0.0
C762 C 0.70392 0.89128 0.30982 0.0
C763 C 0.68643 0.86485 0.28055 0.0
C764 C 0.64768 0.91384 0.30733 0.0
C765 C 0.65028 0.86474 0.26406 0.0
C766 C 0.58467 0.92441 0.32 0.0
C767 C 0.62156 0.98156 0.37216 0.0
N768 N 0.63178 0.88854 0.2781 0.0
N769 N 0.64164 0.96424 0.35031 0.0
H770 H 0.77541 0.18532 0.38967 0.0
H771 H 0.89025 0.03243 0.36779 0.0
H772 H 0.78663 0.13236 0.28032 0.0
H773 H 0.87739 0.08255 0.47799 0.0
H774 H 0.84838 0.06591 0.33577 0.0
H775 H 0.8089 0.14513 0.42335 0.0
C776 C 0.78462 0.16513 0.37277 0.0
C777 C 0.77844 0.16252 0.33207 0.0
C778 C 0.85448 0.06942 0.36701 0.0
C779 C 0.81687 0.11653 0.37034 0.0
C780 C 0.87832 0.05025 0.38523 0.0
C781 C 0.88736 0.05492 0.42547 0.0
C782 C 0.83977 0.09354 0.38921 0.0
C783 C 0.87117 0.0783 0.44681 0.0
C784 C 0.80379 0.14221 0.39199 0.0
C785 C 0.79101 0.13574 0.3117 0.0
N786 N 0.84837 0.09694 0.4284 0.0
N787 N 0.80974 0.11401 0.331 0.0
H788 H 0.64418 0.1154 0.28107 0.0
H789 H 0.57518 0.97985 0.1282 0.0
H790 H 0.64992 0.18467 0.18296 0.0
H791 H 0.52751 0.06353 0.07897 0.0
H792 H 0.60395 0.0225 0.18363 0.0
H793 H 0.60445 0.06376 0.2395 0.0
C794 C 0.63704 0.11963 0.25084 0.0
C795 C 0.65031 0.15404 0.23513 0.0
C796 C 0.58615 0.03094 0.16122 0.0
C797 C 0.60513 0.09605 0.18827 0.0
C798 C 0.56987 0.00674 0.12965 0.0
C799 C 0.54939 0.01845 0.09889 0.0
C800 C 0.58203 0.06688 0.16134 0.0
C801 C 0.54331 0.0535 0.10194 0.0
C802 C 0.61463 0.09029 0.22728 0.0
C803 C 0.64042 0.15845 0.19601 0.0
N804 N 0.56031 0.07678 0.13217 0.0
N805 N 0.61812 0.12981 0.17398 0.0
H806 H 0.69271 0.84469 0.77148 0.0
H807 H 0.62341 0.8903 0.97886 0.0
H808 H 0.7252 0.79924 0.87794 0.0
H809 H 0.59531 0.93778 0.87224 0.0
H810 H 0.66161 0.85762 0.94324 0.0
H811 H 0.65843 0.87984 0.80841 0.0
C812 C 0.69292 0.84218 0.80269 0.0
C813 C 0.71209 0.81872 0.82143 0.0
C814 C 0.64719 0.87525 0.92761 0.0
C815 C 0.67213 0.85918 0.86428 0.0
C816 C 0.62533 0.89393 0.94796 0.0
C817 C 0.60605 0.91687 0.92856 0.0
C818 C 0.64984 0.87936 0.88738 0.0
C819 C 0.60964 0.92045 0.88846 0.0
C820 C 0.67316 0.86234 0.82384 0.0
C821 C 0.71105 0.81692 0.86208 0.0
N822 N 0.63093 0.90192 0.8693 0.0
N823 N 0.69134 0.83666 0.88202 0.0
H824 H 0.88245 0.92402 0.54304 0.0
H825 H 0.86804 0.86142 0.76181 0.0
H826 H 0.98015 0.9479 0.62645 0.0
H827 H 0.79959 0.79842 0.66423 0.0
H828 H 0.90279 0.90422 0.7162 0.0
H829 H 0.84449 0.88879 0.59158 0.0
C830 C 0.89584 0.92213 0.57166 0.0
C831 C 0.93458 0.93859 0.58065 0.0
C832 C 0.87978 0.88122 0.70502 0.0
C833 C 0.89126 0.8988 0.63624 0.0
C834 C 0.85992 0.85695 0.73092 0.0
C835 C 0.83064 0.82661 0.71672 0.0
C836 C 0.86973 0.87528 0.66489 0.0
C837 C 0.82141 0.82185 0.67645 0.0
C838 C 0.8742 0.90197 0.59923 0.0
C839 C 0.95046 0.93525 0.6182 0.0
N840 N 0.84081 0.84597 0.65194 0.0
N841 N 0.9287 0.91573 0.64472 0.0
H842 H 0.25669 0.8819 0.83251 0.0
H843 H 0.04861 0.86314 0.89742 0.0
H844 H 0.18177 0.7799 0.86273 0.0
H845 H 0.132 0.96754 0.90021 0.0
H846 H 0.09719 0.83264 0.88156 0.0
H847 H 0.21271 0.91476 0.85707 0.0
C848 C 0.23144 0.86656 0.84516 0.0
C849 C 0.22255 0.82819 0.84538 0.0
C850 C 0.10496 0.86223 0.88565 0.0
C851 C 0.172 0.86523 0.87242 0.0
C852 C 0.07715 0.87964 0.8943 0.0
C853 C 0.08643 0.91782 0.89994 0.0
C854 C 0.14224 0.8832 0.88228 0.0
C855 C 0.12381 0.93798 0.89589 0.0
C856 C 0.20627 0.88525 0.85889 0.0
C857 C 0.1895 0.80951 0.86185 0.0
N858 N 0.15047 0.92039 0.88717 0.0
N859 N 0.16513 0.82818 0.87422 0.0
H860 H 0.94343 0.37217 0.51051 0.0
H861 H 0.79985 0.28695 0.62641 0.0
H862 H 0.97392 0.43883 0.61718 0.0
H863 H 0.8928 0.29321 0.71273 0.0
H864 H 0.84504 0.32122 0.5827 0.0
H865 H 0.90618 0.32212 0.54691 0.0
C866 C 0.94284 0.37588 0.54169 0.0
C867 C 0.96111 0.40946 0.56115 0.0
C868 C 0.85545 0.31423 0.61089 0.0
C869 C 0.91975 0.35302 0.60219 0.0
C870 C 0.82983 0.29521 0.6358 0.0
C871 C 0.84297 0.28772 0.67294 0.0
C872 C 0.89392 0.32649 0.62398 0.0
C873 C 0.8819 0.2986 0.6841 0.0
C874 C 0.92164 0.34757 0.56218 0.0
C875 C 0.95962 0.41333 0.60136 0.0
N876 N 0.90612 0.31845 0.65997 0.0
N877 N 0.93914 0.38524 0.62076 0.0
H878 H 0.43068 0.03383 0.38808 0.0
H879 H 0.36085 0.21669 0.39707 0.0
H880 H 0.44079 0.09748 0.49575 0.0
H881 H 0.30765 0.12513 0.31747 0.0
H882 H 0.3971 0.17812 0.43057 0.0
H883 H 0.39262 0.07194 0.35788 0.0
C884 C 0.42497 0.05585 0.40537 0.0
C885 C 0.43887 0.06233 0.44457 0.0
C886 C 0.37728 0.16652 0.40591 0.0
C887 C 0.3957 0.10647 0.40995 0.0
C888 C 0.35665 0.18848 0.38682 0.0
C889 C 0.33111 0.17405 0.35455 0.0
C890 C 0.37296 0.13022 0.39198 0.0
C891 C 0.32687 0.13735 0.34235 0.0
C892 C 0.4031 0.0775 0.38815 0.0
C893 C 0.43043 0.0913 0.46553 0.0
N894 N 0.34782 0.11689 0.36076 0.0
N895 N 0.40969 0.11249 0.4479 0.0
H896 H 0.49375 0.57631 0.11006 0.0
H897 H 0.70515 0.65236 0.2004 0.0
H898 H 0.5898 0.54841 0.06367 0.0
H899 H 0.61979 0.71257 0.18969 0.0
H900 H 0.65709 0.59638 0.17619 0.0
H901 H 0.53476 0.60624 0.1669 0.0
C902 C 0.52332 0.57591 0.11229 0.0
C903 C 0.53909 0.56142 0.08183 0.0
C904 C 0.64896 0.62178 0.18013 0.0
C905 C 0.58534 0.59473 0.14616 0.0
C906 C 0.67624 0.65358 0.19325 0.0
C907 C 0.66637 0.68695 0.19519 0.0
C908 C 0.61179 0.62377 0.17011 0.0
C909 C 0.62858 0.68741 0.18707 0.0
C910 C 0.54645 0.59252 0.14476 0.0
C911 C 0.57707 0.56036 0.08631 0.0
N912 N 0.60257 0.65619 0.17451 0.0
N913 N 0.59934 0.57768 0.11771 0.0
H914 H 0.16056 0.25933 0.62107 0.0
H915 H 0.09563 0.04991 0.54778 0.0
H916 H 0.22087 0.17994 0.65685 0.0
H917 H 0.0179 0.11624 0.56658 0.0
H918 H 0.14857 0.10185 0.57045 0.0
H919 H 0.11575 0.21137 0.57973 0.0
C920 C 0.1651 0.23214 0.61903 0.0
C921 C 0.19371 0.22298 0.64253 0.0
C922 C 0.11988 0.10489 0.56959 0.0
C923 C 0.14325 0.16889 0.59634 0.0
C924 C 0.08977 0.07528 0.5573 0.0
C925 C 0.05258 0.07887 0.55612 0.0
C926 C 0.11253 0.13824 0.58016 0.0
C927 C 0.04626 0.11238 0.56779 0.0
C928 C 0.13946 0.20488 0.59592 0.0
C929 C 0.19872 0.18762 0.63926 0.0
N930 N 0.07615 0.14104 0.57931 0.0
N931 N 0.17326 0.1615 0.61688 0.0
H932 H 0.71433 0.33562 0.40927 0.0
H933 H 0.53624 0.41837 0.40171 0.0
H934 H 0.6066 0.27932 0.34965 0.0
H935 H 0.61559 0.43745 0.5034 0.0
H936 H 0.56666 0.37278 0.37673 0.0
H937 H 0.68319 0.37835 0.4402 0.0
C938 C 0.68413 0.33201 0.40311 0.0
C939 C 0.66296 0.30397 0.37695 0.0
C940 C 0.5773 0.3869 0.40458 0.0
C941 C 0.62768 0.35294 0.41111 0.0
C942 C 0.56011 0.41302 0.41871 0.0
C943 C 0.57337 0.43163 0.45468 0.0
C944 C 0.6085 0.3799 0.42613 0.0
C945 C 0.60434 0.42352 0.47562 0.0
C946 C 0.66645 0.35634 0.42065 0.0
C947 C 0.62396 0.30054 0.36971 0.0
N948 N 0.62114 0.39847 0.46087 0.0
N949 N 0.60768 0.32502 0.38627 0.0
H950 H 0.37895 0.91835 0.01317 0.0
H951 H 0.36491 0.78019 0.173 0.0
H952 H 0.46981 0.86741 0.04052 0.0
H953 H 0.26568 0.79783 0.10926 0.0
H954 H 0.40234 0.80362 0.1189 0.0
H955 H 0.33493 0.86743 0.04092 0.0
C956 C 0.38939 0.89603 0.0246 0.0
C957 C 0.42791 0.89718 0.02564 0.0
C958 C 0.37218 0.8015 0.1164 0.0
C959 C 0.37828 0.83943 0.05798 0.0
C960 C 0.35088 0.78839 0.14738 0.0
C961 C 0.31258 0.78858 0.14619 0.0
C962 C 0.35495 0.81519 0.08456 0.0
C963 C 0.29554 0.79861 0.112 0.0
C964 C 0.3643 0.86683 0.04013 0.0
C965 C 0.4402 0.86747 0.03985 0.0
N966 N 0.31706 0.81229 0.08282 0.0
N967 N 0.41554 0.84009 0.05658 0.0
H968 H 0.97402 0.57527 0.89238 0.0
H969 H 0.78861 0.64765 0.88228 0.0
H970 H 0.8922 0.5464 0.97813 0.0
H971 H 0.89467 0.7115 0.84481 0.0
H972 H 0.82201 0.60502 0.91172 0.0
H973 H 0.94066 0.61933 0.86707 0.0
C974 C 0.94881 0.57788 0.90563 0.0
C975 C 0.93585 0.55702 0.9374 0.0
C976 C 0.83797 0.62859 0.89739 0.0
C977 C 0.89756 0.60742 0.90847 0.0
C978 C 0.81899 0.65291 0.8807 0.0
C979 C 0.839 0.6832 0.86132 0.0
C980 C 0.877 0.63411 0.89372 0.0
C981 C 0.87826 0.68864 0.85978 0.0
C982 C 0.93002 0.60328 0.89139 0.0
C983 C 0.90322 0.56194 0.95364 0.0
N984 N 0.89591 0.66406 0.8753 0.0
N985 N 0.88502 0.58644 0.93883 0.0
H986 H 0.47636 0.4564 0.13114 0.0
H987 H 0.2972 0.2953 0.16086 0.0
H988 H 0.3811 0.42548 0.04498 0.0
H989 H 0.36395 0.35905 0.25888 0.0
H990 H 0.32927 0.34094 0.11742 0.0
H991 H 0.43778 0.41951 0.17815 0.0
C992 C 0.44722 0.44203 0.12221 0.0
C993 C 0.43194 0.44371 0.08403 0.0
C994 C 0.33653 0.34529 0.14846 0.0
C995 C 0.38793 0.40127 0.13749 0.0
C996 C 0.31806 0.31934 0.17334 0.0
C997 C 0.32744 0.32375 0.2136 0.0
C998 C 0.36542 0.37543 0.1638 0.0
C999 C 0.35576 0.35477 0.22801 0.0
C1000 C 0.42521 0.42117 0.14911 0.0
C1001 C 0.39397 0.42489 0.0741 0.0
N1002 N 0.37413 0.37931 0.20304 0.0
N1003 N 0.3734 0.40397 0.10053 0.0
H1004 H 0.3879 0.59436 0.96492 0.0
H1005 H 0.34035 0.65473 0.75024 0.0
H1006 H 0.40942 0.53965 0.86101 0.0
H1007 H 0.32374 0.71067 0.85571 0.0
H1008 H 0.36256 0.61029 0.78959 0.0
H1009 H 0.35991 0.63429 0.92472 0.0
C1010 C 0.38626 0.59046 0.93357 0.0
C1011 C 0.40103 0.56375 0.91621 0.0
C1012 C 0.35402 0.63228 0.80408 0.0
C1013 C 0.3695 0.60975 0.86988 0.0
C1014 C 0.34144 0.65777 0.78164 0.0
C1015 C 0.33028 0.68665 0.79965 0.0
C1016 C 0.35542 0.63564 0.84484 0.0
C1017 C 0.33215 0.68901 0.84046 0.0
C1018 C 0.37044 0.6134 0.91059 0.0
C1019 C 0.39828 0.55992 0.87548 0.0
N1020 N 0.34448 0.6639 0.8616 0.0
N1021 N 0.38306 0.58287 0.85364 0.0
H1022 H 0.05568 0.58822 0.55546 0.0
H1023 H 0.19479 0.64113 0.74693 0.0
H1024 H 0.10631 0.50787 0.60792 0.0
H1025 H 0.1953 0.71332 0.65195 0.0
H1026 H 0.14984 0.59165 0.70678 0.0
H1027 H 0.09308 0.63457 0.60323 0.0
C1028 C 0.07427 0.58022 0.57739 0.0
C1029 C 0.07854 0.54442 0.57747 0.0
C1030 C 0.15984 0.61843 0.69503 0.0
C1031 C 0.12089 0.59707 0.63211 0.0
C1032 C 0.18527 0.64649 0.71774 0.0
C1033 C 0.19863 0.68104 0.70246 0.0
C1034 C 0.14718 0.62565 0.65748 0.0
C1035 C 0.18575 0.6869 0.66461 0.0
C1036 C 0.09563 0.60667 0.60447 0.0
C1037 C 0.1027 0.53538 0.60675 0.0
N1038 N 0.16045 0.6595 0.64346 0.0
N1039 N 0.12328 0.56172 0.63299 0.0
H1040 H 0.33135 0.37616 0.69859 0.0
H1041 H 0.42824 0.38967 0.49774 0.0
H1042 H 0.33618 0.28016 0.63062 0.0
H1043 H 0.45578 0.47732 0.58609 0.0
H1044 H 0.39046 0.34954 0.54341 0.0
H1045 H 0.37306 0.4145 0.65503 0.0
C1046 C 0.34125 0.36312 0.67457 0.0
C1047 C 0.33023 0.32488 0.66826 0.0
C1048 C 0.40498 0.37751 0.55281 0.0
C1049 C 0.37769 0.36867 0.61803 0.0
C1050 C 0.4264 0.40038 0.52677 0.0
C1051 C 0.44503 0.4368 0.53818 0.0
C1052 C 0.40175 0.39143 0.59024 0.0
C1053 C 0.44186 0.44938 0.57612 0.0
C1054 C 0.36516 0.38502 0.64979 0.0
C1055 C 0.34408 0.30952 0.6367 0.0
N1056 N 0.42039 0.42683 0.60068 0.0
N1057 N 0.36682 0.33148 0.61256 0.0
H1058 H 0.14454 0.70204 0.18962 0.0
H1059 H 0.13641 0.57457 0.00196 0.0
H1060 H 0.24067 0.69739 0.12603 0.0
H1061 H 0.0357 0.58298 0.0555 0.0
H1062 H 0.1732 0.62718 0.04185 0.0
H1063 H 0.10208 0.6671 0.13551 0.0
C1064 C 0.15651 0.69438 0.16383 0.0
C1065 C 0.19584 0.70146 0.16226 0.0
C1066 C 0.14301 0.61782 0.04488 0.0
C1067 C 0.14826 0.66195 0.10113 0.0
C1068 C 0.12207 0.5876 0.02224 0.0
C1069 C 0.08326 0.57414 0.0262 0.0
C1070 C 0.12515 0.63424 0.07232 0.0
C1071 C 0.06583 0.59232 0.0523 0.0
C1072 C 0.13244 0.67443 0.13312 0.0
C1073 C 0.21035 0.69146 0.12849 0.0
N1074 N 0.08709 0.62127 0.07498 0.0
N1075 N 0.18655 0.67177 0.09942 0.0
H1076 H 0.73435 0.39758 0.73197 0.0
H1077 H 0.5356 0.42272 0.64356 0.0
H1078 H 0.63249 0.30961 0.70983 0.0
H1079 H 0.64059 0.50742 0.6461 0.0
H1080 H 0.56809 0.38508 0.68217 0.0
H1081 H 0.69817 0.44156 0.71308 0.0
C1082 C 0.70432 0.38762 0.72332 0.0
C1083 C 0.68634 0.35002 0.72188 0.0
C1084 C 0.58394 0.41212 0.67482 0.0
C1085 C 0.64491 0.39988 0.70072 0.0
C1086 C 0.56536 0.43368 0.65301 0.0
C1087 C 0.5857 0.46786 0.64122 0.0
C1088 C 0.62315 0.42483 0.68462 0.0
C1089 C 0.62406 0.48099 0.65438 0.0
C1090 C 0.68371 0.41267 0.71268 0.0
C1091 C 0.64742 0.3384 0.71085 0.0
N1092 N 0.64179 0.45915 0.67493 0.0
N1093 N 0.62801 0.36325 0.70046 0.0
H1094 H 0.78292 0.61171 0.1577 0.0
H1095 H 0.98197 0.56839 0.14774 0.0
H1096 H 0.87964 0.66413 0.23657 0.0
H1097 H 0.87722 0.49455 0.09932 0.0
H1098 H 0.94524 0.6023 0.1835 0.0
H1099 H 0.81684 0.56723 0.13716 0.0
C1100 C 0.81119 0.61364 0.1708 0.0
C1101 C 0.82875 0.64163 0.19848 0.0
C1102 C 0.93034 0.57824 0.16563 0.0
C1103 C 0.86767 0.59135 0.17525 0.0
C1104 C 0.95129 0.55887 0.14539 0.0
C1105 C 0.93249 0.52904 0.1203 0.0
C1106 C 0.89049 0.56784 0.16011 0.0
C1107 C 0.89274 0.51772 0.11811 0.0
C1108 C 0.83046 0.58822 0.1593 0.0
C1109 C 0.86528 0.64297 0.21489 0.0
N1110 N 0.87301 0.53753 0.13722 0.0
N1111 N 0.88377 0.61842 0.20267 0.0
H1112 H 0.88403 0.59137 0.52135 0.0
H1113 H 0.83173 0.65746 0.72889 0.0
H1114 H 0.94 0.57463 0.6308 0.0
H1115 H 0.78608 0.68901 0.62031 0.0
H1116 H 0.86799 0.62384 0.693 0.0
H1117 H 0.84543 0.62408 0.55626 0.0
C1118 C 0.88823 0.59455 0.55276 0.0
C1119 C 0.91544 0.58017 0.57311 0.0
C1120 C 0.85001 0.63798 0.67687 0.0
C1121 C 0.87091 0.6176 0.6135 0.0
C1122 C 0.829 0.65725 0.69742 0.0
C1123 C 0.8055 0.67642 0.67782 0.0
C1124 C 0.84779 0.6374 0.63605 0.0
C1125 C 0.8036 0.67474 0.63687 0.0
C1126 C 0.86613 0.61329 0.57269 0.0
C1127 C 0.91949 0.58522 0.61383 0.0
N1128 N 0.82442 0.65569 0.61744 0.0
N1129 N 0.89751 0.60335 0.63257 0.0
H1130 H 0.39971 0.51671 0.3663 0.0
H1131 H 0.391 0.72 0.31469 0.0
H1132 H 0.49752 0.60994 0.37671 0.0
H1133 H 0.29457 0.62554 0.30106 0.0
H1134 H 0.43139 0.67987 0.33447 0.0
H1135 H 0.36193 0.55532 0.33704 0.0
C1136 C 0.4134 0.54514 0.36163 0.0
C1137 C 0.4517 0.56023 0.37404 0.0
C1138 C 0.4014 0.66792 0.32711 0.0
C1139 C 0.40853 0.60483 0.34151 0.0
C1140 C 0.37835 0.69084 0.31608 0.0
C1141 C 0.33944 0.67602 0.30649 0.0
C1142 C 0.38533 0.62996 0.32857 0.0
C1143 C 0.32445 0.63807 0.30843 0.0
C1144 C 0.39177 0.56728 0.34523 0.0
C1145 C 0.46802 0.59726 0.36753 0.0
N1146 N 0.34739 0.61636 0.3193 0.0
N1147 N 0.44624 0.61843 0.35212 0.0
H1148 H 0.21891 0.40402 0.7964 0.0
H1149 H 0.01277 0.41544 0.83155 0.0
H1150 H 0.11826 0.32672 0.74401 0.0
H1151 H 0.1107 0.50716 0.85641 0.0
H1152 H 0.04995 0.38645 0.79114 0.0
H1153 H 0.18008 0.44561 0.81262 0.0
C1154 C 0.18871 0.396 0.78812 0.0
C1155 C 0.17152 0.36178 0.76958 0.0
C1156 C 0.06316 0.41332 0.80464 0.0
C1157 C 0.12717 0.40885 0.78767 0.0
C1158 C 0.04184 0.42991 0.82752 0.0
C1159 C 0.05901 0.4633 0.84771 0.0
C1160 C 0.10204 0.42997 0.80285 0.0
C1161 C 0.09663 0.48113 0.84153 0.0
C1162 C 0.16662 0.41977 0.79705 0.0
C1163 C 0.13246 0.35271 0.75891 0.0
N1164 N 0.11729 0.46377 0.82038 0.0
N1165 N 0.1115 0.3759 0.76856 0.0
H1166 H 0.22306 0.29907 0.3735 0.0
H1167 H 0.07438 0.42394 0.35863 0.0
H1168 H 0.1805 0.33425 0.26537 0.0
H1169 H 0.12998 0.4049 0.46739 0.0
H1170 H 0.11108 0.38875 0.32434 0.0
H1171 H 0.18787 0.33535 0.40878 0.0
C1172 C 0.20656 0.31446 0.35711 0.0
C1173 C 0.20506 0.31343 0.31621 0.0
C1174 C 0.11535 0.39225 0.35572 0.0
C1175 C 0.16413 0.35492 0.35662 0.0
C1176 C 0.09429 0.41235 0.37533 0.0
C1177 C 0.09904 0.41751 0.416 0.0
C1178 C 0.14134 0.37678 0.37682 0.0
C1179 C 0.12536 0.40173 0.43602 0.0
C1180 C 0.18638 0.33519 0.37732 0.0
C1181 C 0.18287 0.33404 0.2968 0.0
N1182 N 0.14534 0.38209 0.41635 0.0
N1183 N 0.16335 0.35361 0.31704 0.0
loop_
_geom_bond_atom_site_label_1
_geom_bond_atom_site_label_2
_geom_bond_distance
_geom_bond_site_symmetry_2
_ccdc_geom_bond_type
Dy0 O4 2.398 1_655 S
Dy0 O5 2.491 1_655 S
Dy0 O6 2.403 . S
Dy0 O7 2.664 1_556 S
Dy0 O11 2.326 1_656 S
Dy0 O15 2.310 1_665 S
Dy0 O16 2.351 . S
C1 O12 1.185 . S
C1 O13 1.355 . S
C2 O4 1.185 . S
C2 O5 1.355 . S
Dy3 O7 2.310 1_445 S
Dy3 O10 2.351 . S
Dy3 O12 2.398 1_455 S
Dy3 O13 2.491 1_455 S
Dy3 O14 2.403 . S
Dy3 O15 2.664 1_554 S
Dy3 O17 2.326 1_454 S
O4 Dy0 2.398 1_455 S
O4 C2 1.185 . S
O5 Dy0 2.491 1_455 S
O5 C2 1.355 . S
O6 Dy0 2.403 . S
O6 C8 1.254 1_556 S
O7 Dy0 2.664 1_554 S
O7 Dy3 2.310 1_665 S
O7 C8 1.268 . S
C8 O6 1.254 1_554 S
C8 O7 1.268 . S
C9 O14 1.254 1_556 S
C9 O15 1.268 . S
O10 Dy3 2.351 . S
O10 C18 1.249 1_545 S
O11 Dy0 2.326 1_454 S
O11 C18 1.267 . S
O12 C1 1.185 . S
O12 Dy3 2.398 1_655 S
O13 C1 1.355 . S
O13 Dy3 2.491 1_655 S
O14 Dy3 2.403 . S
O14 C9 1.254 1_554 S
O15 Dy0 2.310 1_445 S
O15 Dy3 2.664 1_556 S
O15 C9 1.268 . S
O16 Dy0 2.351 . S
O16 C19 1.249 1_565 S
O17 Dy3 2.326 1_656 S
O17 C19 1.267 . S
C18 O10 1.249 1_565 S
C18 O11 1.267 . S
C19 O16 1.249 1_545 S
C19 O17 1.267 . S
Dy20 O24 2.398 . S
Dy20 O25 2.491 . S
Dy20 O26 2.403 . S
Dy20 O27 2.664 . S
Dy20 O31 2.326 . S
Dy20 O35 2.310 . S
Dy20 O36 2.351 . S
C21 O32 1.185 . S
C21 O33 1.355 . S
C22 O24 1.185 . S
C22 O25 1.355 . S
Dy23 O27 2.310 . S
Dy23 O30 2.351 . S
Dy23 O32 2.398 . S
Dy23 O33 2.491 . S
Dy23 O34 2.403 . S
Dy23 O35 2.664 . S
Dy23 O37 2.326 . S
O24 Dy20 2.398 . S
O24 C22 1.185 . S
O25 Dy20 2.491 . S
O25 C22 1.355 . S
O26 Dy20 2.403 . S
O26 C28 1.254 . S
O27 Dy20 2.664 . S
O27 Dy23 2.310 . S
O27 C28 1.268 . S
C28 O26 1.254 . S
C28 O27 1.268 . S
C29 O34 1.254 . S
C29 O35 1.268 . S
O30 Dy23 2.351 . S
O30 C38 1.249 . S
O31 Dy20 2.326 . S
O31 C38 1.267 . S
O32 C21 1.185 . S
O32 Dy23 2.398 . S
O33 C21 1.355 . S
O33 Dy23 2.491 . S
O34 Dy23 2.403 . S
O34 C29 1.254 . S
O35 Dy20 2.310 . S
O35 Dy23 2.664 . S
O35 C29 1.268 . S
O36 Dy20 2.351 . S
O36 C39 1.249 . S
O37 Dy23 2.326 . S
O37 C39 1.267 . S
C38 O30 1.249 . S
C38 O31 1.267 . S
C39 O36 1.249 . S
C39 O37 1.267 . S
Dy40 O44 2.398 1_565 S
Dy40 O45 2.491 1_565 S
Dy40 O46 2.403 . S
Dy40 O47 2.664 . S
Dy40 O51 2.326 1_565 S
Dy40 O55 2.310 1_565 S
Dy40 O56 2.351 . S
C41 O52 1.185 . S
C41 O53 1.355 . S
C42 O44 1.185 . S
C42 O45 1.355 . S
Dy43 O47 2.310 1_545 S
Dy43 O50 2.351 . S
Dy43 O52 2.398 1_545 S
Dy43 O53 2.491 1_545 S
Dy43 O54 2.403 . S
Dy43 O55 2.664 . S
Dy43 O57 2.326 1_545 S
O44 Dy40 2.398 1_545 S
O44 C42 1.185 . S
O45 Dy40 2.491 1_545 S
O45 C42 1.355 . S
O46 Dy40 2.403 . S
O46 C48 1.254 . S
O47 Dy40 2.664 . S
O47 Dy43 2.310 1_565 S
O47 C48 1.268 . S
C48 O46 1.254 . S
C48 O47 1.268 . S
C49 O54 1.254 . S
C49 O55 1.268 . S
O50 Dy43 2.351 . S
O50 C58 1.249 . S
O51 Dy40 2.326 1_545 S
O51 C58 1.267 . S
O52 C41 1.185 . S
O52 Dy43 2.398 1_565 S
O53 C41 1.355 . S
O53 Dy43 2.491 1_565 S
O54 Dy43 2.403 . S
O54 C49 1.254 . S
O55 Dy40 2.310 1_545 S
O55 Dy43 2.664 . S
O55 C49 1.268 . S
O56 Dy40 2.351 . S
O56 C59 1.249 . S
O57 Dy43 2.326 1_565 S
O57 C59 1.267 . S
C58 O50 1.249 . S
C58 O51 1.267 . S
C59 O56 1.249 . S
C59 O57 1.267 . S
Dy60 O64 2.398 . S
Dy60 O65 2.491 . S
Dy60 O66 2.403 . S
Dy60 O67 2.664 . S
Dy60 O71 2.326 . S
Dy60 O75 2.310 . S
Dy60 O76 2.351 . S
C61 O72 1.185 . S
C61 O73 1.355 . S
C62 O64 1.185 . S
C62 O65 1.355 . S
Dy63 O67 2.310 . S
Dy63 O70 2.351 . S
Dy63 O72 2.398 . S
Dy63 O73 2.491 . S
Dy63 O74 2.403 . S
Dy63 O75 2.664 . S
Dy63 O77 2.326 . S
O64 Dy60 2.398 . S
O64 C62 1.185 . S
O65 Dy60 2.491 . S
O65 C62 1.355 . S
O66 Dy60 2.403 . S
O66 C68 1.254 . S
O67 Dy60 2.664 . S
O67 Dy63 2.310 . S
O67 C68 1.268 . S
C68 O66 1.254 . S
C68 O67 1.268 . S
C69 O74 1.254 . S
C69 O75 1.268 . S
O70 Dy63 2.351 . S
O70 C78 1.249 . S
O71 Dy60 2.326 . S
O71 C78 1.267 . S
O72 C61 1.185 . S
O72 Dy63 2.398 . S
O73 C61 1.355 . S
O73 Dy63 2.491 . S
O74 Dy63 2.403 . S
O74 C69 1.254 . S
O75 Dy60 2.310 . S
O75 Dy63 2.664 . S
O75 C69 1.268 . S
O76 Dy60 2.351 . S
O76 C79 1.249 . S
O77 Dy63 2.326 . S
O77 C79 1.267 . S
C78 O70 1.249 . S
C78 O71 1.267 . S
C79 O76 1.249 . S
C79 O77 1.267 . S
Dy80 O84 2.398 . S
Dy80 O85 2.491 . S
Dy80 O86 2.403 1_455 S
Dy80 O87 2.664 1_455 S
Dy80 O91 2.326 1_455 S
Dy80 O95 2.310 1_565 S
Dy80 O96 2.351 1_565 S
C81 O92 1.185 . S
C81 O93 1.355 . S
C82 O84 1.185 . S
C82 O85 1.355 . S
Dy83 O87 2.310 1_545 S
Dy83 O90 2.351 1_545 S
Dy83 O92 2.398 . S
Dy83 O93 2.491 . S
Dy83 O94 2.403 1_655 S
Dy83 O95 2.664 1_655 S
Dy83 O97 2.326 1_655 S
O84 Dy80 2.398 . S
O84 C82 1.185 . S
O85 Dy80 2.491 . S
O85 C82 1.355 . S
O86 Dy80 2.403 1_655 S
O86 C88 1.254 . S
O87 Dy80 2.664 1_655 S
O87 Dy83 2.310 1_565 S
O87 C88 1.268 . S
C88 O86 1.254 . S
C88 O87 1.268 . S
C89 O94 1.254 . S
C89 O95 1.268 . S
O90 Dy83 2.351 1_565 S
O90 C98 1.249 . S
O91 Dy80 2.326 1_655 S
O91 C98 1.267 . S
O92 C81 1.185 . S
O92 Dy83 2.398 . S
O93 C81 1.355 . S
O93 Dy83 2.491 . S
O94 Dy83 2.403 1_455 S
O94 C89 1.254 . S
O95 Dy80 2.310 1_545 S
O95 Dy83 2.664 1_455 S
O95 C89 1.268 . S
O96 Dy80 2.351 1_545 S
O96 C99 1.249 . S
O97 Dy83 2.326 1_455 S
O97 C99 1.267 . S
C98 O90 1.249 . S
C98 O91 1.267 . S
C99 O96 1.249 . S
C99 O97 1.267 . S
Dy100 O104 2.398 . S
Dy100 O105 2.491 . S
Dy100 O106 2.403 . S
Dy100 O107 2.664 . S
Dy100 O111 2.326 . S
Dy100 O115 2.310 . S
Dy100 O116 2.351 . S
C101 O112 1.185 . S
C101 O113 1.355 . S
C102 O104 1.185 . S
C102 O105 1.355 . S
Dy103 O107 2.310 . S
Dy103 O110 2.351 . S
Dy103 O112 2.398 . S
Dy103 O113 2.491 . S
Dy103 O114 2.403 . S
Dy103 O115 2.664 . S
Dy103 O117 2.326 . S
O104 Dy100 2.398 . S
O104 C102 1.185 . S
O105 Dy100 2.491 . S
O105 C102 1.355 . S
O106 Dy100 2.403 . S
O106 C108 1.254 . S
O107 Dy100 2.664 . S
O107 Dy103 2.310 . S
O107 C108 1.268 . S
C108 O106 1.254 . S
C108 O107 1.268 . S
C109 O114 1.254 . S
C109 O115 1.268 . S
O110 Dy103 2.351 . S
O110 C118 1.249 . S
O111 Dy100 2.326 . S
O111 C118 1.267 . S
O112 C101 1.185 . S
O112 Dy103 2.398 . S
O113 C101 1.355 . S
O113 Dy103 2.491 . S
O114 Dy103 2.403 . S
O114 C109 1.254 . S
O115 Dy100 2.310 . S
O115 Dy103 2.664 . S
O115 C109 1.268 . S
O116 Dy100 2.351 . S
O116 C119 1.249 . S
O117 Dy103 2.326 . S
O117 C119 1.267 . S
C118 O110 1.249 . S
C118 O111 1.267 . S
C119 O116 1.249 . S
C119 O117 1.267 . S
Dy120 O124 2.398 1_554 S
Dy120 O125 2.491 1_554 S
Dy120 O126 2.403 1_565 S
Dy120 O127 2.664 1_565 S
Dy120 O131 2.326 1_564 S
Dy120 O135 2.310 1_554 S
Dy120 O136 2.351 . S
C121 O132 1.185 . S
C121 O133 1.355 . S
C122 O124 1.185 . S
C122 O125 1.355 . S
Dy123 O127 2.310 1_556 S
Dy123 O130 2.351 . S
Dy123 O132 2.398 1_556 S
Dy123 O133 2.491 1_556 S
Dy123 O134 2.403 1_545 S
Dy123 O135 2.664 1_545 S
Dy123 O137 2.326 1_546 S
O124 Dy120 2.398 1_556 S
O124 C122 1.185 . S
O125 Dy120 2.491 1_556 S
O125 C122 1.355 . S
O126 Dy120 2.403 1_545 S
O126 C128 1.254 . S
O127 Dy120 2.664 1_545 S
O127 Dy123 2.310 1_554 S
O127 C128 1.268 . S
C128 O126 1.254 . S
C128 O127 1.268 . S
C129 O134 1.254 . S
C129 O135 1.268 . S
O130 Dy123 2.351 . S
O130 C138 1.249 . S
O131 Dy120 2.326 1_546 S
O131 C138 1.267 . S
O132 C121 1.185 . S
O132 Dy123 2.398 1_554 S
O133 C121 1.355 . S
O133 Dy123 2.491 1_554 S
O134 Dy123 2.403 1_565 S
O134 C129 1.254 . S
O135 Dy120 2.310 1_556 S
O135 Dy123 2.664 1_565 S
O135 C129 1.268 . S
O136 Dy120 2.351 . S
O136 C139 1.249 . S
O137 Dy123 2.326 1_564 S
O137 C139 1.267 . S
C138 O130 1.249 . S
C138 O131 1.267 . S
C139 O136 1.249 . S
C139 O137 1.267 . S
Dy140 O144 2.398 . S
Dy140 O145 2.491 . S
Dy140 O146 2.403 . S
Dy140 O147 2.664 . S
Dy140 O151 2.326 . S
Dy140 O155 2.310 . S
Dy140 O156 2.351 . S
C141 O152 1.185 . S
C141 O153 1.355 . S
C142 O144 1.185 . S
C142 O145 1.355 . S
Dy143 O147 2.310 . S
Dy143 O150 2.351 . S
Dy143 O152 2.398 . S
Dy143 O153 2.491 . S
Dy143 O154 2.403 . S
Dy143 O155 2.664 . S
Dy143 O157 2.326 . S
O144 Dy140 2.398 . S
O144 C142 1.185 . S
O145 Dy140 2.491 . S
O145 C142 1.355 . S
O146 Dy140 2.403 . S
O146 C148 1.254 . S
O147 Dy140 2.664 . S
O147 Dy143 2.310 . S
O147 C148 1.268 . S
C148 O146 1.254 . S
C148 O147 1.268 . S
C149 O154 1.254 . S
C149 O155 1.268 . S
O150 Dy143 2.351 . S
O150 C158 1.249 . S
O151 Dy140 2.326 . S
O151 C158 1.267 . S
O152 C141 1.185 . S
O152 Dy143 2.398 . S
O153 C141 1.355 . S
O153 Dy143 2.491 . S
O154 Dy143 2.403 . S
O154 C149 1.254 . S
O155 Dy140 2.310 . S
O155 Dy143 2.664 . S
O155 C149 1.268 . S
O156 Dy140 2.351 . S
O156 C159 1.249 . S
O157 Dy143 2.326 . S
O157 C159 1.267 . S
C158 O150 1.249 . S
C158 O151 1.267 . S
C159 O156 1.249 . S
C159 O157 1.267 . S
Dy160 O164 2.398 . S
Dy160 O165 2.491 . S
Dy160 O166 2.403 1_554 S
Dy160 O167 2.664 1_554 S
Dy160 O171 2.326 . S
Dy160 O175 2.310 . S
Dy160 O176 2.351 1_554 S
C161 O172 1.185 . S
C161 O173 1.355 . S
C162 O164 1.185 . S
C162 O165 1.355 . S
Dy163 O167 2.310 . S
Dy163 O170 2.351 1_556 S
Dy163 O172 2.398 . S
Dy163 O173 2.491 . S
Dy163 O174 2.403 1_556 S
Dy163 O175 2.664 1_556 S
Dy163 O177 2.326 . S
O164 Dy160 2.398 . S
O164 C162 1.185 . S
O165 Dy160 2.491 . S
O165 C162 1.355 . S
O166 Dy160 2.403 1_556 S
O166 C168 1.254 . S
O167 Dy160 2.664 1_556 S
O167 Dy163 2.310 . S
O167 C168 1.268 . S
C168 O166 1.254 . S
C168 O167 1.268 . S
C169 O174 1.254 . S
C169 O175 1.268 . S
O170 Dy163 2.351 1_554 S
O170 C178 1.249 . S
O171 Dy160 2.326 . S
O171 C178 1.267 . S
O172 C161 1.185 . S
O172 Dy163 2.398 . S
O173 C161 1.355 . S
O173 Dy163 2.491 . S
O174 Dy163 2.403 1_554 S
O174 C169 1.254 . S
O175 Dy160 2.310 . S
O175 Dy163 2.664 1_554 S
O175 C169 1.268 . S
O176 Dy160 2.351 1_556 S
O176 C179 1.249 . S
O177 Dy163 2.326 . S
O177 C179 1.267 . S
C178 O170 1.249 . S
C178 O171 1.267 . S
C179 O176 1.249 . S
C179 O177 1.267 . S
Dy180 O184 2.398 . S
Dy180 O185 2.491 . S
Dy180 O186 2.403 . S
Dy180 O187 2.664 . S
Dy180 O191 2.326 . S
Dy180 O195 2.310 . S
Dy180 O196 2.351 . S
C181 O192 1.185 . S
C181 O193 1.355 . S
C182 O184 1.185 . S
C182 O185 1.355 . S
Dy183 O187 2.310 . S
Dy183 O190 2.351 . S
Dy183 O192 2.398 . S
Dy183 O193 2.491 . S
Dy183 O194 2.403 . S
Dy183 O195 2.664 . S
Dy183 O197 2.326 . S
O184 Dy180 2.398 . S
O184 C182 1.185 . S
O185 Dy180 2.491 . S
O185 C182 1.355 . S
O186 Dy180 2.403 . S
O186 C188 1.254 . S
O187 Dy180 2.664 . S
O187 Dy183 2.310 . S
O187 C188 1.268 . S
C188 O186 1.254 . S
C188 O187 1.268 . S
C189 O194 1.254 . S
C189 O195 1.268 . S
O190 Dy183 2.351 . S
O190 C198 1.249 . S
O191 Dy180 2.326 . S
O191 C198 1.267 . S
O192 C181 1.185 . S
O192 Dy183 2.398 . S
O193 C181 1.355 . S
O193 Dy183 2.491 . S
O194 Dy183 2.403 . S
O194 C189 1.254 . S
O195 Dy180 2.310 . S
O195 Dy183 2.664 . S
O195 C189 1.268 . S
O196 Dy180 2.351 . S
O196 C199 1.249 . S
O197 Dy183 2.326 . S
O197 C199 1.267 . S
C198 O190 1.249 . S
C198 O191 1.267 . S
C199 O196 1.249 . S
C199 O197 1.267 . S
Dy200 O204 2.398 . S
Dy200 O205 2.491 . S
Dy200 O206 2.403 . S
Dy200 O207 2.664 . S
Dy200 O211 2.326 . S
Dy200 O215 2.310 1_455 S
Dy200 O216 2.351 1_455 S
C201 O212 1.185 . S
C201 O213 1.355 . S
C202 O204 1.185 . S
C202 O205 1.355 . S
Dy203 O207 2.310 1_655 S
Dy203 O210 2.351 1_655 S
Dy203 O212 2.398 . S
Dy203 O213 2.491 . S
Dy203 O214 2.403 . S
Dy203 O215 2.664 . S
Dy203 O217 2.326 . S
O204 Dy200 2.398 . S
O204 C202 1.185 . S
O205 Dy200 2.491 . S
O205 C202 1.355 . S
O206 Dy200 2.403 . S
O206 C208 1.254 . S
O207 Dy200 2.664 . S
O207 Dy203 2.310 1_455 S
O207 C208 1.268 . S
C208 O206 1.254 . S
C208 O207 1.268 . S
C209 O214 1.254 . S
C209 O215 1.268 . S
O210 Dy203 2.351 1_455 S
O210 C218 1.249 . S
O211 Dy200 2.326 . S
O211 C218 1.267 . S
O212 C201 1.185 . S
O212 Dy203 2.398 . S
O213 C201 1.355 . S
O213 Dy203 2.491 . S
O214 Dy203 2.403 . S
O214 C209 1.254 . S
O215 Dy200 2.310 1_655 S
O215 Dy203 2.664 . S
O215 C209 1.268 . S
O216 Dy200 2.351 1_655 S
O216 C219 1.249 . S
O217 Dy203 2.326 . S
O217 C219 1.267 . S
C218 O210 1.249 . S
C218 O211 1.267 . S
C219 O216 1.249 . S
C219 O217 1.267 . S
Dy220 O224 2.398 . S
Dy220 O225 2.491 . S
Dy220 O226 2.403 . S
Dy220 O227 2.664 . S
Dy220 O231 2.326 . S
Dy220 O235 2.310 . S
Dy220 O236 2.351 . S
C221 O232 1.185 . S
C221 O233 1.355 . S
C222 O224 1.185 . S
C222 O225 1.355 . S
Dy223 O227 2.310 . S
Dy223 O230 2.351 . S
Dy223 O232 2.398 . S
Dy223 O233 2.491 . S
Dy223 O234 2.403 . S
Dy223 O235 2.664 . S
Dy223 O237 2.326 . S
O224 Dy220 2.398 . S
O224 C222 1.185 . S
O225 Dy220 2.491 . S
O225 C222 1.355 . S
O226 Dy220 2.403 . S
O226 C228 1.254 . S
O227 Dy220 2.664 . S
O227 Dy223 2.310 . S
O227 C228 1.268 . S
C228 O226 1.254 . S
C228 O227 1.268 . S
C229 O234 1.254 . S
C229 O235 1.268 . S
O230 Dy223 2.351 . S
O230 C238 1.249 . S
O231 Dy220 2.326 . S
O231 C238 1.267 . S
O232 C221 1.185 . S
O232 Dy223 2.398 . S
O233 C221 1.355 . S
O233 Dy223 2.491 . S
O234 Dy223 2.403 . S
O234 C229 1.254 . S
O235 Dy220 2.310 . S
O235 Dy223 2.664 . S
O235 C229 1.268 . S
O236 Dy220 2.351 . S
O236 C239 1.249 . S
O237 Dy223 2.326 . S
O237 C239 1.267 . S
C238 O230 1.249 . S
C238 O231 1.267 . S
C239 O236 1.249 . S
C239 O237 1.267 . S
Dy240 O244 2.398 . S
Dy240 O245 2.491 . S
Dy240 O246 2.403 . S
Dy240 O247 2.664 . S
Dy240 O251 2.326 . S
Dy240 O255 2.310 . S
Dy240 O256 2.351 . S
C241 O252 1.185 . S
C241 O253 1.355 . S
C242 O244 1.185 . S
C242 O245 1.355 . S
Dy243 O247 2.310 . S
Dy243 O250 2.351 . S
Dy243 O252 2.398 . S
Dy243 O253 2.491 . S
Dy243 O254 2.403 . S
Dy243 O255 2.664 . S
Dy243 O257 2.326 . S
O244 Dy240 2.398 . S
O244 C242 1.185 . S
O245 Dy240 2.491 . S
O245 C242 1.355 . S
O246 Dy240 2.403 . S
O246 C248 1.254 . S
O247 Dy240 2.664 . S
O247 Dy243 2.310 . S
O247 C248 1.268 . S
C248 O246 1.254 . S
C248 O247 1.268 . S
C249 O254 1.254 . S
C249 O255 1.268 . S
O250 Dy243 2.351 . S
O250 C258 1.249 . S
O251 Dy240 2.326 . S
O251 C258 1.267 . S
O252 C241 1.185 . S
O252 Dy243 2.398 . S
O253 C241 1.355 . S
O253 Dy243 2.491 . S
O254 Dy243 2.403 . S
O254 C249 1.254 . S
O255 Dy240 2.310 . S
O255 Dy243 2.664 . S
O255 C249 1.268 . S
O256 Dy240 2.351 . S
O256 C259 1.249 . S
O257 Dy243 2.326 . S
O257 C259 1.267 . S
C258 O250 1.249 . S
C258 O251 1.267 . S
C259 O256 1.249 . S
C259 O257 1.267 . S
Dy260 O264 2.398 . S
Dy260 O265 2.491 . S
Dy260 O266 2.403 . S
Dy260 O267 2.664 . S
Dy260 O271 2.326 . S
Dy260 O275 2.310 . S
Dy260 O276 2.351 . S
C261 O272 1.185 . S
C261 O273 1.355 . S
C262 O264 1.185 . S
C262 O265 1.355 . S
Dy263 O267 2.310 . S
Dy263 O270 2.351 . S
Dy263 O272 2.398 . S
Dy263 O273 2.491 . S
Dy263 O274 2.403 . S
Dy263 O275 2.664 . S
Dy263 O277 2.326 . S
O264 Dy260 2.398 . S
O264 C262 1.185 . S
O265 Dy260 2.491 . S
O265 C262 1.355 . S
O266 Dy260 2.403 . S
O266 C268 1.254 . S
O267 Dy260 2.664 . S
O267 Dy263 2.310 . S
O267 C268 1.268 . S
C268 O266 1.254 . S
C268 O267 1.268 . S
C269 O274 1.254 . S
C269 O275 1.268 . S
O270 Dy263 2.351 . S
O270 C278 1.249 . S
O271 Dy260 2.326 . S
O271 C278 1.267 . S
O272 C261 1.185 . S
O272 Dy263 2.398 . S
O273 C261 1.355 . S
O273 Dy263 2.491 . S
O274 Dy263 2.403 . S
O274 C269 1.254 . S
O275 Dy260 2.310 . S
O275 Dy263 2.664 . S
O275 C269 1.268 . S
O276 Dy260 2.351 . S
O276 C279 1.249 . S
O277 Dy263 2.326 . S
O277 C279 1.267 . S
C278 O270 1.249 . S
C278 O271 1.267 . S
C279 O276 1.249 . S
C279 O277 1.267 . S
Dy280 O284 2.398 . S
Dy280 O285 2.491 . S
Dy280 O286 2.403 . S
Dy280 O287 2.664 . S
Dy280 O291 2.326 . S
Dy280 O295 2.310 . S
Dy280 O296 2.351 . S
C281 O292 1.185 . S
C281 O293 1.355 . S
C282 O284 1.185 . S
C282 O285 1.355 . S
Dy283 O287 2.310 . S
Dy283 O290 2.351 . S
Dy283 O292 2.398 . S
Dy283 O293 2.491 . S
Dy283 O294 2.403 . S
Dy283 O295 2.664 . S
Dy283 O297 2.326 . S
O284 Dy280 2.398 . S
O284 C282 1.185 . S
O285 Dy280 2.491 . S
O285 C282 1.355 . S
O286 Dy280 2.403 . S
O286 C288 1.254 . S
O287 Dy280 2.664 . S
O287 Dy283 2.310 . S
O287 C288 1.268 . S
C288 O286 1.254 . S
C288 O287 1.268 . S
C289 O294 1.254 . S
C289 O295 1.268 . S
O290 Dy283 2.351 . S
O290 C298 1.249 . S
O291 Dy280 2.326 . S
O291 C298 1.267 . S
O292 C281 1.185 . S
O292 Dy283 2.398 . S
O293 C281 1.355 . S
O293 Dy283 2.491 . S
O294 Dy283 2.403 . S
O294 C289 1.254 . S
O295 Dy280 2.310 . S
O295 Dy283 2.664 . S
O295 C289 1.268 . S
O296 Dy280 2.351 . S
O296 C299 1.249 . S
O297 Dy283 2.326 . S
O297 C299 1.267 . S
C298 O290 1.249 . S
C298 O291 1.267 . S
C299 O296 1.249 . S
C299 O297 1.267 . S
Dy300 O304 2.398 . S
Dy300 O305 2.491 . S
Dy300 O306 2.403 1_554 S
Dy300 O307 2.664 1_554 S
Dy300 O311 2.326 1_554 S
Dy300 O315 2.310 1_655 S
Dy300 O316 2.351 1_655 S
C301 O312 1.185 . S
C301 O313 1.355 . S
C302 O304 1.185 . S
C302 O305 1.355 . S
Dy303 O307 2.310 1_455 S
Dy303 O310 2.351 1_455 S
Dy303 O312 2.398 . S
Dy303 O313 2.491 . S
Dy303 O314 2.403 1_556 S
Dy303 O315 2.664 1_556 S
Dy303 O317 2.326 1_556 S
O304 Dy300 2.398 . S
O304 C302 1.185 . S
O305 Dy300 2.491 . S
O305 C302 1.355 . S
O306 Dy300 2.403 1_556 S
O306 C308 1.254 . S
O307 Dy300 2.664 1_556 S
O307 Dy303 2.310 1_655 S
O307 C308 1.268 . S
C308 O306 1.254 . S
C308 O307 1.268 . S
C309 O314 1.254 . S
C309 O315 1.268 . S
O310 Dy303 2.351 1_655 S
O310 C318 1.249 . S
O311 Dy300 2.326 1_556 S
O311 C318 1.267 . S
O312 C301 1.185 . S
O312 Dy303 2.398 . S
O313 C301 1.355 . S
O313 Dy303 2.491 . S
O314 Dy303 2.403 1_554 S
O314 C309 1.254 . S
O315 Dy300 2.310 1_455 S
O315 Dy303 2.664 1_554 S
O315 C309 1.268 . S
O316 Dy300 2.351 1_455 S
O316 C319 1.249 . S
O317 Dy303 2.326 1_554 S
O317 C319 1.267 . S
C318 O310 1.249 . S
C318 O311 1.267 . S
C319 O316 1.249 . S
C319 O317 1.267 . S
H320 C326 0.930 . S
H321 C330 0.930 . S
H322 C335 0.929 . S
H323 C333 0.929 . S
H324 C328 0.929 . S
H325 C334 0.929 . S
C326 H320 0.930 . S
C326 C327 1.367 . S
C326 C334 1.378 . S
C327 C326 1.367 . S
C327 C335 1.433 . S
C328 H324 0.929 . S
C328 C330 1.378 . S
C328 C332 1.350 . S
C329 C332 1.463 . S
C329 C334 1.350 . S
C329 N337 1.427 . S
C330 H321 0.930 . S
C330 C328 1.378 . S
C330 C331 1.367 . S
C331 C330 1.367 . S
C331 C333 1.433 . S
C332 C328 1.350 . S
C332 C329 1.463 . S
C332 N336 1.427 . S
C333 H323 0.929 . S
C333 C331 1.433 . S
C333 N336 1.384 . S
C334 H325 0.929 . S
C334 C326 1.378 . S
C334 C329 1.350 . S
C335 H322 0.929 . S
C335 C327 1.433 . S
C335 N337 1.384 . S
N336 C332 1.427 . S
N336 C333 1.384 . S
N337 C329 1.427 . S
N337 C335 1.384 . S
H338 C344 0.930 . S
H339 C348 0.930 . S
H340 C353 0.929 1_545 S
H341 C351 0.929 . S
H342 C346 0.929 . S
H343 C352 0.929 . S
C344 H338 0.930 . S
C344 C345 1.367 . S
C344 C352 1.378 . S
C345 C344 1.367 . S
C345 C353 1.433 . S
C346 H342 0.929 . S
C346 C348 1.378 . S
C346 C350 1.350 . S
C347 C350 1.463 . S
C347 C352 1.350 . S
C347 N355 1.427 . S
C348 H339 0.930 . S
C348 C346 1.378 . S
C348 C349 1.367 . S
C349 C348 1.367 . S
C349 C351 1.433 . S
C350 C346 1.350 . S
C350 C347 1.463 . S
C350 N354 1.427 . S
C351 H341 0.929 . S
C351 C349 1.433 . S
C351 N354 1.384 . S
C352 H343 0.929 . S
C352 C344 1.378 . S
C352 C347 1.350 . S
C353 H340 0.929 1_565 S
C353 C345 1.433 . S
C353 N355 1.384 . S
N354 C350 1.427 . S
N354 C351 1.384 . S
N355 C347 1.427 . S
N355 C353 1.384 . S
H356 C362 0.930 . S
H357 C366 0.930 . S
H358 C371 0.929 . S
H359 C369 0.929 . S
H360 C364 0.929 . S
H361 C370 0.929 . S
C362 H356 0.930 . S
C362 C363 1.367 . S
C362 C370 1.378 . S
C363 C362 1.367 . S
C363 C371 1.433 . S
C364 H360 0.929 . S
C364 C366 1.378 . S
C364 C368 1.350 . S
C365 C368 1.463 . S
C365 C370 1.350 . S
C365 N373 1.427 . S
C366 H357 0.930 . S
C366 C364 1.378 . S
C366 C367 1.367 . S
C367 C366 1.367 . S
C367 C369 1.433 . S
C368 C364 1.350 . S
C368 C365 1.463 . S
C368 N372 1.427 . S
C369 H359 0.929 . S
C369 C367 1.433 . S
C369 N372 1.384 . S
C370 H361 0.929 . S
C370 C362 1.378 . S
C370 C365 1.350 . S
C371 H358 0.929 . S
C371 C363 1.433 . S
C371 N373 1.384 . S
N372 C368 1.427 . S
N372 C369 1.384 . S
N373 C365 1.427 . S
N373 C371 1.384 . S
H374 C380 0.930 . S
H375 C384 0.930 . S
H376 C389 0.929 . S
H377 C387 0.929 . S
H378 C382 0.929 . S
H379 C388 0.929 . S
C380 H374 0.930 . S
C380 C381 1.367 . S
C380 C388 1.378 . S
C381 C380 1.367 . S
C381 C389 1.433 . S
C382 H378 0.929 . S
C382 C384 1.378 . S
C382 C386 1.350 . S
C383 C386 1.463 . S
C383 C388 1.350 . S
C383 N391 1.427 . S
C384 H375 0.930 . S
C384 C382 1.378 . S
C384 C385 1.367 . S
C385 C384 1.367 . S
C385 C387 1.433 . S
C386 C382 1.350 . S
C386 C383 1.463 . S
C386 N390 1.427 . S
C387 H377 0.929 . S
C387 C385 1.433 . S
C387 N390 1.384 . S
C388 H379 0.929 . S
C388 C380 1.378 . S
C388 C383 1.350 . S
C389 H376 0.929 . S
C389 C381 1.433 . S
C389 N391 1.384 . S
N390 C386 1.427 . S
N390 C387 1.384 . S
N391 C383 1.427 . S
N391 C389 1.384 . S
H392 C398 0.930 . S
H393 C402 0.930 . S
H394 C407 0.929 . S
H395 C405 0.929 . S
H396 C400 0.929 . S
H397 C406 0.929 . S
C398 H392 0.930 . S
C398 C399 1.367 . S
C398 C406 1.378 . S
C399 C398 1.367 . S
C399 C407 1.433 . S
C400 H396 0.929 . S
C400 C402 1.378 . S
C400 C404 1.350 . S
C401 C404 1.463 . S
C401 C406 1.350 . S
C401 N409 1.427 . S
C402 H393 0.930 . S
C402 C400 1.378 . S
C402 C403 1.367 . S
C403 C402 1.367 . S
C403 C405 1.433 . S
C404 C400 1.350 . S
C404 C401 1.463 . S
C404 N408 1.427 . S
C405 H395 0.929 . S
C405 C403 1.433 . S
C405 N408 1.384 . S
C406 H397 0.929 . S
C406 C398 1.378 . S
C406 C401 1.350 . S
C407 H394 0.929 . S
C407 C399 1.433 . S
C407 N409 1.384 . S
N408 C404 1.427 . S
N408 C405 1.384 . S
N409 C401 1.427 . S
N409 C407 1.384 . S
H410 C416 0.930 . S
H411 C420 0.930 . S
H412 C425 0.929 . S
H413 C423 0.929 . S
H414 C418 0.929 . S
H415 C424 0.929 . S
C416 H410 0.930 . S
C416 C417 1.367 . S
C416 C424 1.378 . S
C417 C416 1.367 . S
C417 C425 1.433 . S
C418 H414 0.929 . S
C418 C420 1.378 . S
C418 C422 1.350 . S
C419 C422 1.463 . S
C419 C424 1.350 . S
C419 N427 1.427 . S
C420 H411 0.930 . S
C420 C418 1.378 . S
C420 C421 1.367 . S
C421 C420 1.367 . S
C421 C423 1.433 . S
C422 C418 1.350 . S
C422 C419 1.463 . S
C422 N426 1.427 . S
C423 H413 0.929 . S
C423 C421 1.433 . S
C423 N426 1.384 . S
C424 H415 0.929 . S
C424 C416 1.378 . S
C424 C419 1.350 . S
C425 H412 0.929 . S
C425 C417 1.433 . S
C425 N427 1.384 . S
N426 C422 1.427 . S
N426 C423 1.384 . S
N427 C419 1.427 . S
N427 C425 1.384 . S
H428 C434 0.930 . S
H429 C438 0.930 . S
H430 C443 0.929 . S
H431 C441 0.929 . S
H432 C436 0.929 . S
H433 C442 0.929 . S
C434 H428 0.930 . S
C434 C435 1.367 . S
C434 C442 1.378 . S
C435 C434 1.367 . S
C435 C443 1.433 . S
C436 H432 0.929 . S
C436 C438 1.378 . S
C436 C440 1.350 . S
C437 C440 1.463 . S
C437 C442 1.350 . S
C437 N445 1.427 . S
C438 H429 0.930 . S
C438 C436 1.378 . S
C438 C439 1.367 . S
C439 C438 1.367 . S
C439 C441 1.433 . S
C440 C436 1.350 . S
C440 C437 1.463 . S
C440 N444 1.427 . S
C441 H431 0.929 . S
C441 C439 1.433 . S
C441 N444 1.384 . S
C442 H433 0.929 . S
C442 C434 1.378 . S
C442 C437 1.350 . S
C443 H430 0.929 . S
C443 C435 1.433 . S
C443 N445 1.384 . S
N444 C440 1.427 . S
N444 C441 1.384 . S
N445 C437 1.427 . S
N445 C443 1.384 . S
H446 C452 0.930 . S
H447 C456 0.930 . S
H448 C461 0.929 . S
H449 C459 0.929 . S
H450 C454 0.929 . S
H451 C460 0.929 . S
C452 H446 0.930 . S
C452 C453 1.367 . S
C452 C460 1.378 . S
C453 C452 1.367 . S
C453 C461 1.433 . S
C454 H450 0.929 . S
C454 C456 1.378 . S
C454 C458 1.350 . S
C455 C458 1.463 . S
C455 C460 1.350 . S
C455 N463 1.427 . S
C456 H447 0.930 . S
C456 C454 1.378 . S
C456 C457 1.367 . S
C457 C456 1.367 . S
C457 C459 1.433 . S
C458 C454 1.350 . S
C458 C455 1.463 . S
C458 N462 1.427 . S
C459 H449 0.929 . S
C459 C457 1.433 . S
C459 N462 1.384 . S
C460 H451 0.929 . S
C460 C452 1.378 . S
C460 C455 1.350 . S
C461 H448 0.929 . S
C461 C453 1.433 . S
C461 N463 1.384 . S
N462 C458 1.427 . S
N462 C459 1.384 . S
N463 C455 1.427 . S
N463 C461 1.384 . S
H464 C470 0.930 . S
H465 C474 0.930 . S
H466 C479 0.929 . S
H467 C477 0.929 . S
H468 C472 0.929 . S
H469 C478 0.929 . S
C470 H464 0.930 . S
C470 C471 1.367 . S
C470 C478 1.378 . S
C471 C470 1.367 . S
C471 C479 1.433 . S
C472 H468 0.929 . S
C472 C474 1.378 . S
C472 C476 1.350 . S
C473 C476 1.463 . S
C473 C478 1.350 . S
C473 N481 1.427 . S
C474 H465 0.930 . S
C474 C472 1.378 . S
C474 C475 1.367 . S
C475 C474 1.367 . S
C475 C477 1.433 . S
C476 C472 1.350 . S
C476 C473 1.463 . S
C476 N480 1.427 . S
C477 H467 0.929 . S
C477 C475 1.433 . S
C477 N480 1.384 . S
C478 H469 0.929 . S
C478 C470 1.378 . S
C478 C473 1.350 . S
C479 H466 0.929 . S
C479 C471 1.433 . S
C479 N481 1.384 . S
N480 C476 1.427 . S
N480 C477 1.384 . S
N481 C473 1.427 . S
N481 C479 1.384 . S
H482 C488 0.930 . S
H483 C492 0.930 . S
H484 C497 0.929 . S
H485 C495 0.929 . S
H486 C490 0.929 . S
H487 C496 0.929 . S
C488 H482 0.930 . S
C488 C489 1.367 . S
C488 C496 1.378 . S
C489 C488 1.367 . S
C489 C497 1.433 . S
C490 H486 0.929 . S
C490 C492 1.378 . S
C490 C494 1.350 . S
C491 C494 1.463 . S
C491 C496 1.350 . S
C491 N499 1.427 . S
C492 H483 0.930 . S
C492 C490 1.378 . S
C492 C493 1.367 . S
C493 C492 1.367 . S
C493 C495 1.433 . S
C494 C490 1.350 . S
C494 C491 1.463 . S
C494 N498 1.427 . S
C495 H485 0.929 . S
C495 C493 1.433 . S
C495 N498 1.384 . S
C496 H487 0.929 . S
C496 C488 1.378 . S
C496 C491 1.350 . S
C497 H484 0.929 . S
C497 C489 1.433 . S
C497 N499 1.384 . S
N498 C494 1.427 . S
N498 C495 1.384 . S
N499 C491 1.427 . S
N499 C497 1.384 . S
H500 C506 0.930 . S
H501 C510 0.930 . S
H502 C515 0.929 . S
H503 C513 0.929 . S
H504 C508 0.929 . S
H505 C514 0.929 . S
C506 H500 0.930 . S
C506 C507 1.367 . S
C506 C514 1.378 . S
C507 C506 1.367 . S
C507 C515 1.433 . S
C508 H504 0.929 . S
C508 C510 1.378 . S
C508 C512 1.350 . S
C509 C512 1.463 . S
C509 C514 1.350 . S
C509 N517 1.427 . S
C510 H501 0.930 . S
C510 C508 1.378 . S
C510 C511 1.367 . S
C511 C510 1.367 . S
C511 C513 1.433 . S
C512 C508 1.350 . S
C512 C509 1.463 . S
C512 N516 1.427 . S
C513 H503 0.929 . S
C513 C511 1.433 . S
C513 N516 1.384 . S
C514 H505 0.929 . S
C514 C506 1.378 . S
C514 C509 1.350 . S
C515 H502 0.929 . S
C515 C507 1.433 . S
C515 N517 1.384 . S
N516 C512 1.427 . S
N516 C513 1.384 . S
N517 C509 1.427 . S
N517 C515 1.384 . S
H518 C524 0.930 . S
H519 C528 0.930 . S
H520 C533 0.929 . S
H521 C531 0.929 . S
H522 C526 0.929 . S
H523 C532 0.929 . S
C524 H518 0.930 . S
C524 C525 1.367 . S
C524 C532 1.378 . S
C525 C524 1.367 . S
C525 C533 1.433 . S
C526 H522 0.929 . S
C526 C528 1.378 . S
C526 C530 1.350 . S
C527 C530 1.463 . S
C527 C532 1.350 . S
C527 N535 1.427 . S
C528 H519 0.930 . S
C528 C526 1.378 . S
C528 C529 1.367 . S
C529 C528 1.367 . S
C529 C531 1.433 . S
C530 C526 1.350 . S
C530 C527 1.463 . S
C530 N534 1.427 . S
C531 H521 0.929 . S
C531 C529 1.433 . S
C531 N534 1.384 . S
C532 H523 0.929 . S
C532 C524 1.378 . S
C532 C527 1.350 . S
C533 H520 0.929 . S
C533 C525 1.433 . S
C533 N535 1.384 . S
N534 C530 1.427 . S
N534 C531 1.384 . S
N535 C527 1.427 . S
N535 C533 1.384 . S
H536 C542 0.930 . S
H537 C546 0.930 . S
H538 C551 0.929 . S
H539 C549 0.929 . S
H540 C544 0.929 . S
H541 C550 0.929 . S
C542 H536 0.930 . S
C542 C543 1.367 . S
C542 C550 1.378 . S
C543 C542 1.367 . S
C543 C551 1.433 . S
C544 H540 0.929 . S
C544 C546 1.378 . S
C544 C548 1.350 . S
C545 C548 1.463 . S
C545 C550 1.350 . S
C545 N553 1.427 . S
C546 H537 0.930 . S
C546 C544 1.378 . S
C546 C547 1.367 . S
C547 C546 1.367 . S
C547 C549 1.433 . S
C548 C544 1.350 . S
C548 C545 1.463 . S
C548 N552 1.427 . S
C549 H539 0.929 . S
C549 C547 1.433 . S
C549 N552 1.384 . S
C550 H541 0.929 . S
C550 C542 1.378 . S
C550 C545 1.350 . S
C551 H538 0.929 . S
C551 C543 1.433 . S
C551 N553 1.384 . S
N552 C548 1.427 . S
N552 C549 1.384 . S
N553 C545 1.427 . S
N553 C551 1.384 . S
H554 C560 0.930 . S
H555 C564 0.930 . S
H556 C569 0.929 . S
H557 C567 0.929 . S
H558 C562 0.929 . S
H559 C568 0.929 . S
C560 H554 0.930 . S
C560 C561 1.367 . S
C560 C568 1.378 . S
C561 C560 1.367 . S
C561 C569 1.433 . S
C562 H558 0.929 . S
C562 C564 1.378 . S
C562 C566 1.350 . S
C563 C566 1.463 . S
C563 C568 1.350 . S
C563 N571 1.427 . S
C564 H555 0.930 . S
C564 C562 1.378 . S
C564 C565 1.367 . S
C565 C564 1.367 . S
C565 C567 1.433 . S
C566 C562 1.350 . S
C566 C563 1.463 . S
C566 N570 1.427 . S
C567 H557 0.929 . S
C567 C565 1.433 . S
C567 N570 1.384 . S
C568 H559 0.929 . S
C568 C560 1.378 . S
C568 C563 1.350 . S
C569 H556 0.929 . S
C569 C561 1.433 . S
C569 N571 1.384 . S
N570 C566 1.427 . S
N570 C567 1.384 . S
N571 C563 1.427 . S
N571 C569 1.384 . S
H572 C578 0.930 . S
H573 C582 0.930 . S
H574 C587 0.929 . S
H575 C585 0.929 . S
H576 C580 0.929 . S
H577 C586 0.929 . S
C578 H572 0.930 . S
C578 C579 1.367 . S
C578 C586 1.378 . S
C579 C578 1.367 . S
C579 C587 1.433 . S
C580 H576 0.929 . S
C580 C582 1.378 . S
C580 C584 1.350 . S
C581 C584 1.463 . S
C581 C586 1.350 . S
C581 N589 1.427 . S
C582 H573 0.930 . S
C582 C580 1.378 . S
C582 C583 1.367 . S
C583 C582 1.367 . S
C583 C585 1.433 . S
C584 C580 1.350 . S
C584 C581 1.463 . S
C584 N588 1.427 . S
C585 H575 0.929 . S
C585 C583 1.433 . S
C585 N588 1.384 . S
C586 H577 0.929 . S
C586 C578 1.378 . S
C586 C581 1.350 . S
C587 H574 0.929 . S
C587 C579 1.433 . S
C587 N589 1.384 . S
N588 C584 1.427 . S
N588 C585 1.384 . S
N589 C581 1.427 . S
N589 C587 1.384 . S
H590 C596 0.930 . S
H591 C600 0.930 . S
H592 C605 0.929 . S
H593 C603 0.929 . S
H594 C598 0.929 . S
H595 C604 0.929 . S
C596 H590 0.930 . S
C596 C597 1.367 . S
C596 C604 1.378 . S
C597 C596 1.367 . S
C597 C605 1.433 . S
C598 H594 0.929 . S
C598 C600 1.378 . S
C598 C602 1.350 . S
C599 C602 1.463 . S
C599 C604 1.350 . S
C599 N607 1.427 . S
C600 H591 0.930 . S
C600 C598 1.378 . S
C600 C601 1.367 . S
C601 C600 1.367 . S
C601 C603 1.433 . S
C602 C598 1.350 . S
C602 C599 1.463 . S
C602 N606 1.427 . S
C603 H593 0.929 . S
C603 C601 1.433 . S
C603 N606 1.384 . S
C604 H595 0.929 . S
C604 C596 1.378 . S
C604 C599 1.350 . S
C605 H592 0.929 . S
C605 C597 1.433 . S
C605 N607 1.384 . S
N606 C602 1.427 . S
N606 C603 1.384 . S
N607 C599 1.427 . S
N607 C605 1.384 . S
H608 C614 0.930 . S
H609 C618 0.930 . S
H610 C623 0.929 . S
H611 C621 0.929 . S
H612 C616 0.929 . S
H613 C622 0.929 . S
C614 H608 0.930 . S
C614 C615 1.367 . S
C614 C622 1.378 . S
C615 C614 1.367 . S
C615 C623 1.433 . S
C616 H612 0.929 . S
C616 C618 1.378 . S
C616 C620 1.350 . S
C617 C620 1.463 . S
C617 C622 1.350 . S
C617 N625 1.427 . S
C618 H609 0.930 . S
C618 C616 1.378 . S
C618 C619 1.367 . S
C619 C618 1.367 . S
C619 C621 1.433 . S
C620 C616 1.350 . S
C620 C617 1.463 . S
C620 N624 1.427 . S
C621 H611 0.929 . S
C621 C619 1.433 . S
C621 N624 1.384 . S
C622 H613 0.929 . S
C622 C614 1.378 . S
C622 C617 1.350 . S
C623 H610 0.929 . S
C623 C615 1.433 . S
C623 N625 1.384 . S
N624 C620 1.427 . S
N624 C621 1.384 . S
N625 C617 1.427 . S
N625 C623 1.384 . S
H626 C632 0.930 . S
H627 C636 0.930 . S
H628 C641 0.929 . S
H629 C639 0.929 . S
H630 C634 0.929 . S
H631 C640 0.929 . S
C632 H626 0.930 . S
C632 C633 1.367 . S
C632 C640 1.378 . S
C633 C632 1.367 . S
C633 C641 1.433 . S
C634 H630 0.929 . S
C634 C636 1.378 . S
C634 C638 1.350 . S
C635 C638 1.463 . S
C635 C640 1.350 . S
C635 N643 1.427 . S
C636 H627 0.930 . S
C636 C634 1.378 . S
C636 C637 1.367 . S
C637 C636 1.367 . S
C637 C639 1.433 . S
C638 C634 1.350 . S
C638 C635 1.463 . S
C638 N642 1.427 . S
C639 H629 0.929 . S
C639 C637 1.433 . S
C639 N642 1.384 . S
C640 H631 0.929 . S
C640 C632 1.378 . S
C640 C635 1.350 . S
C641 H628 0.929 . S
C641 C633 1.433 . S
C641 N643 1.384 . S
N642 C638 1.427 . S
N642 C639 1.384 . S
N643 C635 1.427 . S
N643 C641 1.384 . S
H644 C650 0.930 . S
H645 C654 0.930 . S
H646 C659 0.929 . S
H647 C657 0.929 . S
H648 C652 0.929 . S
H649 C658 0.929 . S
C650 H644 0.930 . S
C650 C651 1.367 . S
C650 C658 1.378 . S
C651 C650 1.367 . S
C651 C659 1.433 . S
C652 H648 0.929 . S
C652 C654 1.378 . S
C652 C656 1.350 . S
C653 C656 1.463 . S
C653 C658 1.350 . S
C653 N661 1.427 . S
C654 H645 0.930 . S
C654 C652 1.378 . S
C654 C655 1.367 . S
C655 C654 1.367 . S
C655 C657 1.433 . S
C656 C652 1.350 . S
C656 C653 1.463 . S
C656 N660 1.427 . S
C657 H647 0.929 . S
C657 C655 1.433 . S
C657 N660 1.384 . S
C658 H649 0.929 . S
C658 C650 1.378 . S
C658 C653 1.350 . S
C659 H646 0.929 . S
C659 C651 1.433 . S
C659 N661 1.384 . S
N660 C656 1.427 . S
N660 C657 1.384 . S
N661 C653 1.427 . S
N661 C659 1.384 . S
H662 C668 0.930 . S
H663 C672 0.930 . S
H664 C677 0.929 . S
H665 C675 0.929 . S
H666 C670 0.929 . S
H667 C676 0.929 . S
C668 H662 0.930 . S
C668 C669 1.367 . S
C668 C676 1.378 . S
C669 C668 1.367 . S
C669 C677 1.433 . S
C670 H666 0.929 . S
C670 C672 1.378 . S
C670 C674 1.350 . S
C671 C674 1.463 . S
C671 C676 1.350 . S
C671 N679 1.427 . S
C672 H663 0.930 . S
C672 C670 1.378 . S
C672 C673 1.367 . S
C673 C672 1.367 . S
C673 C675 1.433 . S
C674 C670 1.350 . S
C674 C671 1.463 . S
C674 N678 1.427 . S
C675 H665 0.929 . S
C675 C673 1.433 . S
C675 N678 1.384 . S
C676 H667 0.929 . S
C676 C668 1.378 . S
C676 C671 1.350 . S
C677 H664 0.929 . S
C677 C669 1.433 . S
C677 N679 1.384 . S
N678 C674 1.427 . S
N678 C675 1.384 . S
N679 C671 1.427 . S
N679 C677 1.384 . S
H680 C686 0.930 . S
H681 C690 0.930 . S
H682 C695 0.929 . S
H683 C693 0.929 . S
H684 C688 0.929 . S
H685 C694 0.929 . S
C686 H680 0.930 . S
C686 C687 1.367 . S
C686 C694 1.378 . S
C687 C686 1.367 . S
C687 C695 1.433 . S
C688 H684 0.929 . S
C688 C690 1.378 . S
C688 C692 1.350 . S
C689 C692 1.463 . S
C689 C694 1.350 . S
C689 N697 1.427 . S
C690 H681 0.930 . S
C690 C688 1.378 . S
C690 C691 1.367 . S
C691 C690 1.367 . S
C691 C693 1.433 . S
C692 C688 1.350 . S
C692 C689 1.463 . S
C692 N696 1.427 . S
C693 H683 0.929 . S
C693 C691 1.433 . S
C693 N696 1.384 . S
C694 H685 0.929 . S
C694 C686 1.378 . S
C694 C689 1.350 . S
C695 H682 0.929 . S
C695 C687 1.433 . S
C695 N697 1.384 . S
N696 C692 1.427 . S
N696 C693 1.384 . S
N697 C689 1.427 . S
N697 C695 1.384 . S
H698 C704 0.930 . S
H699 C708 0.930 . S
H700 C713 0.929 . S
H701 C711 0.929 . S
H702 C706 0.929 . S
H703 C712 0.929 . S
C704 H698 0.930 . S
C704 C705 1.367 . S
C704 C712 1.378 . S
C705 C704 1.367 . S
C705 C713 1.433 . S
C706 H702 0.929 . S
C706 C708 1.378 . S
C706 C710 1.350 . S
C707 C710 1.463 . S
C707 C712 1.350 . S
C707 N715 1.427 . S
C708 H699 0.930 . S
C708 C706 1.378 . S
C708 C709 1.367 . S
C709 C708 1.367 . S
C709 C711 1.433 . S
C710 C706 1.350 . S
C710 C707 1.463 . S
C710 N714 1.427 . S
C711 H701 0.929 . S
C711 C709 1.433 . S
C711 N714 1.384 . S
C712 H703 0.929 . S
C712 C704 1.378 . S
C712 C707 1.350 . S
C713 H700 0.929 . S
C713 C705 1.433 . S
C713 N715 1.384 . S
N714 C710 1.427 . S
N714 C711 1.384 . S
N715 C707 1.427 . S
N715 C713 1.384 . S
H716 C722 0.930 . S
H717 C726 0.930 . S
H718 C731 0.929 . S
H719 C729 0.929 . S
H720 C724 0.929 . S
H721 C730 0.929 . S
C722 H716 0.930 . S
C722 C723 1.367 . S
C722 C730 1.378 . S
C723 C722 1.367 . S
C723 C731 1.433 . S
C724 H720 0.929 . S
C724 C726 1.378 . S
C724 C728 1.350 . S
C725 C728 1.463 . S
C725 C730 1.350 . S
C725 N733 1.427 . S
C726 H717 0.930 . S
C726 C724 1.378 . S
C726 C727 1.367 . S
C727 C726 1.367 . S
C727 C729 1.433 . S
C728 C724 1.350 . S
C728 C725 1.463 . S
C728 N732 1.427 . S
C729 H719 0.929 . S
C729 C727 1.433 . S
C729 N732 1.384 . S
C730 H721 0.929 . S
C730 C722 1.378 . S
C730 C725 1.350 . S
C731 H718 0.929 . S
C731 C723 1.433 . S
C731 N733 1.384 . S
N732 C728 1.427 . S
N732 C729 1.384 . S
N733 C725 1.427 . S
N733 C731 1.384 . S
H734 C740 0.930 . S
H735 C744 0.930 . S
H736 C749 0.929 . S
H737 C747 0.929 . S
H738 C742 0.929 . S
H739 C748 0.929 . S
C740 H734 0.930 . S
C740 C741 1.367 . S
C740 C748 1.378 . S
C741 C740 1.367 . S
C741 C749 1.433 . S
C742 H738 0.929 . S
C742 C744 1.378 . S
C742 C746 1.350 . S
C743 C746 1.463 . S
C743 C748 1.350 . S
C743 N751 1.427 . S
C744 H735 0.930 . S
C744 C742 1.378 . S
C744 C745 1.367 . S
C745 C744 1.367 . S
C745 C747 1.433 . S
C746 C742 1.350 . S
C746 C743 1.463 . S
C746 N750 1.427 . S
C747 H737 0.929 . S
C747 C745 1.433 . S
C747 N750 1.384 . S
C748 H739 0.929 . S
C748 C740 1.378 . S
C748 C743 1.350 . S
C749 H736 0.929 . S
C749 C741 1.433 . S
C749 N751 1.384 . S
N750 C746 1.427 . S
N750 C747 1.384 . S
N751 C743 1.427 . S
N751 C749 1.384 . S
H752 C758 0.930 . S
H753 C762 0.930 . S
H754 C767 0.929 . S
H755 C765 0.929 . S
H756 C760 0.929 . S
H757 C766 0.929 . S
C758 H752 0.930 . S
C758 C759 1.367 . S
C758 C766 1.378 . S
C759 C758 1.367 . S
C759 C767 1.433 . S
C760 H756 0.929 . S
C760 C762 1.378 . S
C760 C764 1.350 . S
C761 C764 1.463 . S
C761 C766 1.350 . S
C761 N769 1.427 . S
C762 H753 0.930 . S
C762 C760 1.378 . S
C762 C763 1.367 . S
C763 C762 1.367 . S
C763 C765 1.433 . S
C764 C760 1.350 . S
C764 C761 1.463 . S
C764 N768 1.427 . S
C765 H755 0.929 . S
C765 C763 1.433 . S
C765 N768 1.384 . S
C766 H757 0.929 . S
C766 C758 1.378 . S
C766 C761 1.350 . S
C767 H754 0.929 . S
C767 C759 1.433 . S
C767 N769 1.384 . S
N768 C764 1.427 . S
N768 C765 1.384 . S
N769 C761 1.427 . S
N769 C767 1.384 . S
H770 C776 0.930 . S
H771 C780 0.930 . S
H772 C785 0.929 . S
H773 C783 0.929 . S
H774 C778 0.929 . S
H775 C784 0.929 . S
C776 H770 0.930 . S
C776 C777 1.367 . S
C776 C784 1.378 . S
C777 C776 1.367 . S
C777 C785 1.433 . S
C778 H774 0.929 . S
C778 C780 1.378 . S
C778 C782 1.350 . S
C779 C782 1.463 . S
C779 C784 1.350 . S
C779 N787 1.427 . S
C780 H771 0.930 . S
C780 C778 1.378 . S
C780 C781 1.367 . S
C781 C780 1.367 . S
C781 C783 1.433 . S
C782 C778 1.350 . S
C782 C779 1.463 . S
C782 N786 1.427 . S
C783 H773 0.929 . S
C783 C781 1.433 . S
C783 N786 1.384 . S
C784 H775 0.929 . S
C784 C776 1.378 . S
C784 C779 1.350 . S
C785 H772 0.929 . S
C785 C777 1.433 . S
C785 N787 1.384 . S
N786 C782 1.427 . S
N786 C783 1.384 . S
N787 C779 1.427 . S
N787 C785 1.384 . S
H788 C794 0.930 . S
H789 C798 0.930 . S
H790 C803 0.929 . S
H791 C801 0.929 . S
H792 C796 0.929 . S
H793 C802 0.929 . S
C794 H788 0.930 . S
C794 C795 1.367 . S
C794 C802 1.378 . S
C795 C794 1.367 . S
C795 C803 1.433 . S
C796 H792 0.929 . S
C796 C798 1.378 . S
C796 C800 1.350 . S
C797 C800 1.463 . S
C797 C802 1.350 . S
C797 N805 1.427 . S
C798 H789 0.930 . S
C798 C796 1.378 . S
C798 C799 1.367 . S
C799 C798 1.367 . S
C799 C801 1.433 . S
C800 C796 1.350 . S
C800 C797 1.463 . S
C800 N804 1.427 . S
C801 H791 0.929 . S
C801 C799 1.433 . S
C801 N804 1.384 . S
C802 H793 0.929 . S
C802 C794 1.378 . S
C802 C797 1.350 . S
C803 H790 0.929 . S
C803 C795 1.433 . S
C803 N805 1.384 . S
N804 C800 1.427 . S
N804 C801 1.384 . S
N805 C797 1.427 . S
N805 C803 1.384 . S
H806 C812 0.930 . S
H807 C816 0.930 . S
H808 C821 0.929 . S
H809 C819 0.929 . S
H810 C814 0.929 . S
H811 C820 0.929 . S
C812 H806 0.930 . S
C812 C813 1.367 . S
C812 C820 1.378 . S
C813 C812 1.367 . S
C813 C821 1.433 . S
C814 H810 0.929 . S
C814 C816 1.378 . S
C814 C818 1.350 . S
C815 C818 1.463 . S
C815 C820 1.350 . S
C815 N823 1.427 . S
C816 H807 0.930 . S
C816 C814 1.378 . S
C816 C817 1.367 . S
C817 C816 1.367 . S
C817 C819 1.433 . S
C818 C814 1.350 . S
C818 C815 1.463 . S
C818 N822 1.427 . S
C819 H809 0.929 . S
C819 C817 1.433 . S
C819 N822 1.384 . S
C820 H811 0.929 . S
C820 C812 1.378 . S
C820 C815 1.350 . S
C821 H808 0.929 . S
C821 C813 1.433 . S
C821 N823 1.384 . S
N822 C818 1.427 . S
N822 C819 1.384 . S
N823 C815 1.427 . S
N823 C821 1.384 . S
H824 C830 0.930 . S
H825 C834 0.930 . S
H826 C839 0.929 . S
H827 C837 0.929 . S
H828 C832 0.929 . S
H829 C838 0.929 . S
C830 H824 0.930 . S
C830 C831 1.367 . S
C830 C838 1.378 . S
C831 C830 1.367 . S
C831 C839 1.433 . S
C832 H828 0.929 . S
C832 C834 1.378 . S
C832 C836 1.350 . S
C833 C836 1.463 . S
C833 C838 1.350 . S
C833 N841 1.427 . S
C834 H825 0.930 . S
C834 C832 1.378 . S
C834 C835 1.367 . S
C835 C834 1.367 . S
C835 C837 1.433 . S
C836 C832 1.350 . S
C836 C833 1.463 . S
C836 N840 1.427 . S
C837 H827 0.929 . S
C837 C835 1.433 . S
C837 N840 1.384 . S
C838 H829 0.929 . S
C838 C830 1.378 . S
C838 C833 1.350 . S
C839 H826 0.929 . S
C839 C831 1.433 . S
C839 N841 1.384 . S
N840 C836 1.427 . S
N840 C837 1.384 . S
N841 C833 1.427 . S
N841 C839 1.384 . S
H842 C848 0.930 . S
H843 C852 0.930 . S
H844 C857 0.929 . S
H845 C855 0.929 . S
H846 C850 0.929 . S
H847 C856 0.929 . S
C848 H842 0.930 . S
C848 C849 1.367 . S
C848 C856 1.378 . S
C849 C848 1.367 . S
C849 C857 1.433 . S
C850 H846 0.929 . S
C850 C852 1.378 . S
C850 C854 1.350 . S
C851 C854 1.463 . S
C851 C856 1.350 . S
C851 N859 1.427 . S
C852 H843 0.930 . S
C852 C850 1.378 . S
C852 C853 1.367 . S
C853 C852 1.367 . S
C853 C855 1.433 . S
C854 C850 1.350 . S
C854 C851 1.463 . S
C854 N858 1.427 . S
C855 H845 0.929 . S
C855 C853 1.433 . S
C855 N858 1.384 . S
C856 H847 0.929 . S
C856 C848 1.378 . S
C856 C851 1.350 . S
C857 H844 0.929 . S
C857 C849 1.433 . S
C857 N859 1.384 . S
N858 C854 1.427 . S
N858 C855 1.384 . S
N859 C851 1.427 . S
N859 C857 1.384 . S
H860 C866 0.930 . S
H861 C870 0.930 . S
H862 C875 0.929 . S
H863 C873 0.929 . S
H864 C868 0.929 . S
H865 C874 0.929 . S
C866 H860 0.930 . S
C866 C867 1.367 . S
C866 C874 1.378 . S
C867 C866 1.367 . S
C867 C875 1.433 . S
C868 H864 0.929 . S
C868 C870 1.378 . S
C868 C872 1.350 . S
C869 C872 1.463 . S
C869 C874 1.350 . S
C869 N877 1.427 . S
C870 H861 0.930 . S
C870 C868 1.378 . S
C870 C871 1.367 . S
C871 C870 1.367 . S
C871 C873 1.433 . S
C872 C868 1.350 . S
C872 C869 1.463 . S
C872 N876 1.427 . S
C873 H863 0.929 . S
C873 C871 1.433 . S
C873 N876 1.384 . S
C874 H865 0.929 . S
C874 C866 1.378 . S
C874 C869 1.350 . S
C875 H862 0.929 . S
C875 C867 1.433 . S
C875 N877 1.384 . S
N876 C872 1.427 . S
N876 C873 1.384 . S
N877 C869 1.427 . S
N877 C875 1.384 . S
H878 C884 0.930 . S
H879 C888 0.930 . S
H880 C893 0.929 . S
H881 C891 0.929 . S
H882 C886 0.929 . S
H883 C892 0.929 . S
C884 H878 0.930 . S
C884 C885 1.367 . S
C884 C892 1.378 . S
C885 C884 1.367 . S
C885 C893 1.433 . S
C886 H882 0.929 . S
C886 C888 1.378 . S
C886 C890 1.350 . S
C887 C890 1.463 . S
C887 C892 1.350 . S
C887 N895 1.427 . S
C888 H879 0.930 . S
C888 C886 1.378 . S
C888 C889 1.367 . S
C889 C888 1.367 . S
C889 C891 1.433 . S
C890 C886 1.350 . S
C890 C887 1.463 . S
C890 N894 1.427 . S
C891 H881 0.929 . S
C891 C889 1.433 . S
C891 N894 1.384 . S
C892 H883 0.929 . S
C892 C884 1.378 . S
C892 C887 1.350 . S
C893 H880 0.929 . S
C893 C885 1.433 . S
C893 N895 1.384 . S
N894 C890 1.427 . S
N894 C891 1.384 . S
N895 C887 1.427 . S
N895 C893 1.384 . S
H896 C902 0.930 . S
H897 C906 0.930 . S
H898 C911 0.929 . S
H899 C909 0.929 . S
H900 C904 0.929 . S
H901 C910 0.929 . S
C902 H896 0.930 . S
C902 C903 1.367 . S
C902 C910 1.378 . S
C903 C902 1.367 . S
C903 C911 1.433 . S
C904 H900 0.929 . S
C904 C906 1.378 . S
C904 C908 1.350 . S
C905 C908 1.463 . S
C905 C910 1.350 . S
C905 N913 1.427 . S
C906 H897 0.930 . S
C906 C904 1.378 . S
C906 C907 1.367 . S
C907 C906 1.367 . S
C907 C909 1.433 . S
C908 C904 1.350 . S
C908 C905 1.463 . S
C908 N912 1.427 . S
C909 H899 0.929 . S
C909 C907 1.433 . S
C909 N912 1.384 . S
C910 H901 0.929 . S
C910 C902 1.378 . S
C910 C905 1.350 . S
C911 H898 0.929 . S
C911 C903 1.433 . S
C911 N913 1.384 . S
N912 C908 1.427 . S
N912 C909 1.384 . S
N913 C905 1.427 . S
N913 C911 1.384 . S
H914 C920 0.930 . S
H915 C924 0.930 . S
H916 C929 0.929 . S
H917 C927 0.929 . S
H918 C922 0.929 . S
H919 C928 0.929 . S
C920 H914 0.930 . S
C920 C921 1.367 . S
C920 C928 1.378 . S
C921 C920 1.367 . S
C921 C929 1.433 . S
C922 H918 0.929 . S
C922 C924 1.378 . S
C922 C926 1.350 . S
C923 C926 1.463 . S
C923 C928 1.350 . S
C923 N931 1.427 . S
C924 H915 0.930 . S
C924 C922 1.378 . S
C924 C925 1.367 . S
C925 C924 1.367 . S
C925 C927 1.433 . S
C926 C922 1.350 . S
C926 C923 1.463 . S
C926 N930 1.427 . S
C927 H917 0.929 . S
C927 C925 1.433 . S
C927 N930 1.384 . S
C928 H919 0.929 . S
C928 C920 1.378 . S
C928 C923 1.350 . S
C929 H916 0.929 . S
C929 C921 1.433 . S
C929 N931 1.384 . S
N930 C926 1.427 . S
N930 C927 1.384 . S
N931 C923 1.427 . S
N931 C929 1.384 . S
H932 C938 0.930 . S
H933 C942 0.930 . S
H934 C947 0.929 . S
H935 C945 0.929 . S
H936 C940 0.929 . S
H937 C946 0.929 . S
C938 H932 0.930 . S
C938 C939 1.367 . S
C938 C946 1.378 . S
C939 C938 1.367 . S
C939 C947 1.433 . S
C940 H936 0.929 . S
C940 C942 1.378 . S
C940 C944 1.350 . S
C941 C944 1.463 . S
C941 C946 1.350 . S
C941 N949 1.427 . S
C942 H933 0.930 . S
C942 C940 1.378 . S
C942 C943 1.367 . S
C943 C942 1.367 . S
C943 C945 1.433 . S
C944 C940 1.350 . S
C944 C941 1.463 . S
C944 N948 1.427 . S
C945 H935 0.929 . S
C945 C943 1.433 . S
C945 N948 1.384 . S
C946 H937 0.929 . S
C946 C938 1.378 . S
C946 C941 1.350 . S
C947 H934 0.929 . S
C947 C939 1.433 . S
C947 N949 1.384 . S
N948 C944 1.427 . S
N948 C945 1.384 . S
N949 C941 1.427 . S
N949 C947 1.384 . S
H950 C956 0.930 . S
H951 C960 0.930 . S
H952 C965 0.929 . S
H953 C963 0.929 . S
H954 C958 0.929 . S
H955 C964 0.929 . S
C956 H950 0.930 . S
C956 C957 1.367 . S
C956 C964 1.378 . S
C957 C956 1.367 . S
C957 C965 1.433 . S
C958 H954 0.929 . S
C958 C960 1.378 . S
C958 C962 1.350 . S
C959 C962 1.463 . S
C959 C964 1.350 . S
C959 N967 1.427 . S
C960 H951 0.930 . S
C960 C958 1.378 . S
C960 C961 1.367 . S
C961 C960 1.367 . S
C961 C963 1.433 . S
C962 C958 1.350 . S
C962 C959 1.463 . S
C962 N966 1.427 . S
C963 H953 0.929 . S
C963 C961 1.433 . S
C963 N966 1.384 . S
C964 H955 0.929 . S
C964 C956 1.378 . S
C964 C959 1.350 . S
C965 H952 0.929 . S
C965 C957 1.433 . S
C965 N967 1.384 . S
N966 C962 1.427 . S
N966 C963 1.384 . S
N967 C959 1.427 . S
N967 C965 1.384 . S
H968 C974 0.930 . S
H969 C978 0.930 . S
H970 C983 0.929 . S
H971 C981 0.929 . S
H972 C976 0.929 . S
H973 C982 0.929 . S
C974 H968 0.930 . S
C974 C975 1.367 . S
C974 C982 1.378 . S
C975 C974 1.367 . S
C975 C983 1.433 . S
C976 H972 0.929 . S
C976 C978 1.378 . S
C976 C980 1.350 . S
C977 C980 1.463 . S
C977 C982 1.350 . S
C977 N985 1.427 . S
C978 H969 0.930 . S
C978 C976 1.378 . S
C978 C979 1.367 . S
C979 C978 1.367 . S
C979 C981 1.433 . S
C980 C976 1.350 . S
C980 C977 1.463 . S
C980 N984 1.427 . S
C981 H971 0.929 . S
C981 C979 1.433 . S
C981 N984 1.384 . S
C982 H973 0.929 . S
C982 C974 1.378 . S
C982 C977 1.350 . S
C983 H970 0.929 . S
C983 C975 1.433 . S
C983 N985 1.384 . S
N984 C980 1.427 . S
N984 C981 1.384 . S
N985 C977 1.427 . S
N985 C983 1.384 . S
H986 C992 0.930 . S
H987 C996 0.930 . S
H988 C1001 0.929 . S
H989 C999 0.929 . S
H990 C994 0.929 . S
H991 C1000 0.929 . S
C992 H986 0.930 . S
C992 C993 1.367 . S
C992 C1000 1.378 . S
C993 C992 1.367 . S
C993 C1001 1.433 . S
C994 H990 0.929 . S
C994 C996 1.378 . S
C994 C998 1.350 . S
C995 C998 1.463 . S
C995 C1000 1.350 . S
C995 N1003 1.427 . S
C996 H987 0.930 . S
C996 C994 1.378 . S
C996 C997 1.367 . S
C997 C996 1.367 . S
C997 C999 1.433 . S
C998 C994 1.350 . S
C998 C995 1.463 . S
C998 N1002 1.427 . S
C999 H989 0.929 . S
C999 C997 1.433 . S
C999 N1002 1.384 . S
C1000 H991 0.929 . S
C1000 C992 1.378 . S
C1000 C995 1.350 . S
C1001 H988 0.929 . S
C1001 C993 1.433 . S
C1001 N1003 1.384 . S
N1002 C998 1.427 . S
N1002 C999 1.384 . S
N1003 C995 1.427 . S
N1003 C1001 1.384 . S
H1004 C1010 0.930 . S
H1005 C1014 0.930 . S
H1006 C1019 0.929 . S
H1007 C1017 0.929 . S
H1008 C1012 0.929 . S
H1009 C1018 0.929 . S
C1010 H1004 0.930 . S
C1010 C1011 1.367 . S
C1010 C1018 1.378 . S
C1011 C1010 1.367 . S
C1011 C1019 1.433 . S
C1012 H1008 0.929 . S
C1012 C1014 1.378 . S
C1012 C1016 1.350 . S
C1013 C1016 1.463 . S
C1013 C1018 1.350 . S
C1013 N1021 1.427 . S
C1014 H1005 0.930 . S
C1014 C1012 1.378 . S
C1014 C1015 1.367 . S
C1015 C1014 1.367 . S
C1015 C1017 1.433 . S
C1016 C1012 1.350 . S
C1016 C1013 1.463 . S
C1016 N1020 1.427 . S
C1017 H1007 0.929 . S
C1017 C1015 1.433 . S
C1017 N1020 1.384 . S
C1018 H1009 0.929 . S
C1018 C1010 1.378 . S
C1018 C1013 1.350 . S
C1019 H1006 0.929 . S
C1019 C1011 1.433 . S
C1019 N1021 1.384 . S
N1020 C1016 1.427 . S
N1020 C1017 1.384 . S
N1021 C1013 1.427 . S
N1021 C1019 1.384 . S
H1022 C1028 0.930 . S
H1023 C1032 0.930 . S
H1024 C1037 0.929 . S
H1025 C1035 0.929 . S
H1026 C1030 0.929 . S
H1027 C1036 0.929 . S
C1028 H1022 0.930 . S
C1028 C1029 1.367 . S
C1028 C1036 1.378 . S
C1029 C1028 1.367 . S
C1029 C1037 1.433 . S
C1030 H1026 0.929 . S
C1030 C1032 1.378 . S
C1030 C1034 1.350 . S
C1031 C1034 1.463 . S
C1031 C1036 1.350 . S
C1031 N1039 1.427 . S
C1032 H1023 0.930 . S
C1032 C1030 1.378 . S
C1032 C1033 1.367 . S
C1033 C1032 1.367 . S
C1033 C1035 1.433 . S
C1034 C1030 1.350 . S
C1034 C1031 1.463 . S
C1034 N1038 1.427 . S
C1035 H1025 0.929 . S
C1035 C1033 1.433 . S
C1035 N1038 1.384 . S
C1036 H1027 0.929 . S
C1036 C1028 1.378 . S
C1036 C1031 1.350 . S
C1037 H1024 0.929 . S
C1037 C1029 1.433 . S
C1037 N1039 1.384 . S
N1038 C1034 1.427 . S
N1038 C1035 1.384 . S
N1039 C1031 1.427 . S
N1039 C1037 1.384 . S
H1040 C1046 0.930 . S
H1041 C1050 0.930 . S
H1042 C1055 0.929 . S
H1043 C1053 0.929 . S
H1044 C1048 0.929 . S
H1045 C1054 0.929 . S
C1046 H1040 0.930 . S
C1046 C1047 1.367 . S
C1046 C1054 1.378 . S
C1047 C1046 1.367 . S
C1047 C1055 1.433 . S
C1048 H1044 0.929 . S
C1048 C1050 1.378 . S
C1048 C1052 1.350 . S
C1049 C1052 1.463 . S
C1049 C1054 1.350 . S
C1049 N1057 1.427 . S
C1050 H1041 0.930 . S
C1050 C1048 1.378 . S
C1050 C1051 1.367 . S
C1051 C1050 1.367 . S
C1051 C1053 1.433 . S
C1052 C1048 1.350 . S
C1052 C1049 1.463 . S
C1052 N1056 1.427 . S
C1053 H1043 0.929 . S
C1053 C1051 1.433 . S
C1053 N1056 1.384 . S
C1054 H1045 0.929 . S
C1054 C1046 1.378 . S
C1054 C1049 1.350 . S
C1055 H1042 0.929 . S
C1055 C1047 1.433 . S
C1055 N1057 1.384 . S
N1056 C1052 1.427 . S
N1056 C1053 1.384 . S
N1057 C1049 1.427 . S
N1057 C1055 1.384 . S
H1058 C1064 0.930 . S
H1059 C1068 0.930 . S
H1060 C1073 0.929 . S
H1061 C1071 0.929 . S
H1062 C1066 0.929 . S
H1063 C1072 0.929 . S
C1064 H1058 0.930 . S
C1064 C1065 1.367 . S
C1064 C1072 1.378 . S
C1065 C1064 1.367 . S
C1065 C1073 1.433 . S
C1066 H1062 0.929 . S
C1066 C1068 1.378 . S
C1066 C1070 1.350 . S
C1067 C1070 1.463 . S
C1067 C1072 1.350 . S
C1067 N1075 1.427 . S
C1068 H1059 0.930 . S
C1068 C1066 1.378 . S
C1068 C1069 1.367 . S
C1069 C1068 1.367 . S
C1069 C1071 1.433 . S
C1070 C1066 1.350 . S
C1070 C1067 1.463 . S
C1070 N1074 1.427 . S
C1071 H1061 0.929 . S
C1071 C1069 1.433 . S
C1071 N1074 1.384 . S
C1072 H1063 0.929 . S
C1072 C1064 1.378 . S
C1072 C1067 1.350 . S
C1073 H1060 0.929 . S
C1073 C1065 1.433 . S
C1073 N1075 1.384 . S
N1074 C1070 1.427 . S
N1074 C1071 1.384 . S
N1075 C1067 1.427 . S
N1075 C1073 1.384 . S
H1076 C1082 0.930 . S
H1077 C1086 0.930 . S
H1078 C1091 0.929 . S
H1079 C1089 0.929 . S
H1080 C1084 0.929 . S
H1081 C1090 0.929 . S
C1082 H1076 0.930 . S
C1082 C1083 1.367 . S
C1082 C1090 1.378 . S
C1083 C1082 1.367 . S
C1083 C1091 1.433 . S
C1084 H1080 0.929 . S
C1084 C1086 1.378 . S
C1084 C1088 1.350 . S
C1085 C1088 1.463 . S
C1085 C1090 1.350 . S
C1085 N1093 1.427 . S
C1086 H1077 0.930 . S
C1086 C1084 1.378 . S
C1086 C1087 1.367 . S
C1087 C1086 1.367 . S
C1087 C1089 1.433 . S
C1088 C1084 1.350 . S
C1088 C1085 1.463 . S
C1088 N1092 1.427 . S
C1089 H1079 0.929 . S
C1089 C1087 1.433 . S
C1089 N1092 1.384 . S
C1090 H1081 0.929 . S
C1090 C1082 1.378 . S
C1090 C1085 1.350 . S
C1091 H1078 0.929 . S
C1091 C1083 1.433 . S
C1091 N1093 1.384 . S
N1092 C1088 1.427 . S
N1092 C1089 1.384 . S
N1093 C1085 1.427 . S
N1093 C1091 1.384 . S
H1094 C1100 0.930 . S
H1095 C1104 0.930 . S
H1096 C1109 0.929 . S
H1097 C1107 0.929 . S
H1098 C1102 0.929 . S
H1099 C1108 0.929 . S
C1100 H1094 0.930 . S
C1100 C1101 1.367 . S
C1100 C1108 1.378 . S
C1101 C1100 1.367 . S
C1101 C1109 1.433 . S
C1102 H1098 0.929 . S
C1102 C1104 1.378 . S
C1102 C1106 1.350 . S
C1103 C1106 1.463 . S
C1103 C1108 1.350 . S
C1103 N1111 1.427 . S
C1104 H1095 0.930 . S
C1104 C1102 1.378 . S
C1104 C1105 1.367 . S
C1105 C1104 1.367 . S
C1105 C1107 1.433 . S
C1106 C1102 1.350 . S
C1106 C1103 1.463 . S
C1106 N1110 1.427 . S
C1107 H1097 0.929 . S
C1107 C1105 1.433 . S
C1107 N1110 1.384 . S
C1108 H1099 0.929 . S
C1108 C1100 1.378 . S
C1108 C1103 1.350 . S
C1109 H1096 0.929 . S
C1109 C1101 1.433 . S
C1109 N1111 1.384 . S
N1110 C1106 1.427 . S
N1110 C1107 1.384 . S
N1111 C1103 1.427 . S
N1111 C1109 1.384 . S
H1112 C1118 0.930 . S
H1113 C1122 0.930 . S
H1114 C1127 0.929 . S
H1115 C1125 0.929 . S
H1116 C1120 0.929 . S
H1117 C1126 0.929 . S
C1118 H1112 0.930 . S
C1118 C1119 1.367 . S
C1118 C1126 1.378 . S
C1119 C1118 1.367 . S
C1119 C1127 1.433 . S
C1120 H1116 0.929 . S
C1120 C1122 1.378 . S
C1120 C1124 1.350 . S
C1121 C1124 1.463 . S
C1121 C1126 1.350 . S
C1121 N1129 1.427 . S
C1122 H1113 0.930 . S
C1122 C1120 1.378 . S
C1122 C1123 1.367 . S
C1123 C1122 1.367 . S
C1123 C1125 1.433 . S
C1124 C1120 1.350 . S
C1124 C1121 1.463 . S
C1124 N1128 1.427 . S
C1125 H1115 0.929 . S
C1125 C1123 1.433 . S
C1125 N1128 1.384 . S
C1126 H1117 0.929 . S
C1126 C1118 1.378 . S
C1126 C1121 1.350 . S
C1127 H1114 0.929 . S
C1127 C1119 1.433 . S
C1127 N1129 1.384 . S
N1128 C1124 1.427 . S
N1128 C1125 1.384 . S
N1129 C1121 1.427 . S
N1129 C1127 1.384 . S
H1130 C1136 0.930 . S
H1131 C1140 0.930 . S
H1132 C1145 0.929 . S
H1133 C1143 0.929 . S
H1134 C1138 0.929 . S
H1135 C1144 0.929 . S
C1136 H1130 0.930 . S
C1136 C1137 1.367 . S
C1136 C1144 1.378 . S
C1137 C1136 1.367 . S
C1137 C1145 1.433 . S
C1138 H1134 0.929 . S
C1138 C1140 1.378 . S
C1138 C1142 1.350 . S
C1139 C1142 1.463 . S
C1139 C1144 1.350 . S
C1139 N1147 1.427 . S
C1140 H1131 0.930 . S
C1140 C1138 1.378 . S
C1140 C1141 1.367 . S
C1141 C1140 1.367 . S
C1141 C1143 1.433 . S
C1142 C1138 1.350 . S
C1142 C1139 1.463 . S
C1142 N1146 1.427 . S
C1143 H1133 0.929 . S
C1143 C1141 1.433 . S
C1143 N1146 1.384 . S
C1144 H1135 0.929 . S
C1144 C1136 1.378 . S
C1144 C1139 1.350 . S
C1145 H1132 0.929 . S
C1145 C1137 1.433 . S
C1145 N1147 1.384 . S
N1146 C1142 1.427 . S
N1146 C1143 1.384 . S
N1147 C1139 1.427 . S
N1147 C1145 1.384 . S
H1148 C1154 0.930 . S
H1149 C1158 0.930 . S
H1150 C1163 0.929 . S
H1151 C1161 0.929 . S
H1152 C1156 0.929 . S
H1153 C1162 0.929 . S
C1154 H1148 0.930 . S
C1154 C1155 1.367 . S
C1154 C1162 1.378 . S
C1155 C1154 1.367 . S
C1155 C1163 1.433 . S
C1156 H1152 0.929 . S
C1156 C1158 1.378 . S
C1156 C1160 1.350 . S
C1157 C1160 1.463 . S
C1157 C1162 1.350 . S
C1157 N1165 1.427 . S
C1158 H1149 0.930 . S
C1158 C1156 1.378 . S
C1158 C1159 1.367 . S
C1159 C1158 1.367 . S
C1159 C1161 1.433 . S
C1160 C1156 1.350 . S
C1160 C1157 1.463 . S
C1160 N1164 1.427 . S
C1161 H1151 0.929 . S
C1161 C1159 1.433 . S
C1161 N1164 1.384 . S
C1162 H1153 0.929 . S
C1162 C1154 1.378 . S
C1162 C1157 1.350 . S
C1163 H1150 0.929 . S
C1163 C1155 1.433 . S
C1163 N1165 1.384 . S
N1164 C1160 1.427 . S
N1164 C1161 1.384 . S
N1165 C1157 1.427 . S
N1165 C1163 1.384 . S
H1166 C1172 0.930 . S
H1167 C1176 0.930 . S
H1168 C1181 0.929 . S
H1169 C1179 0.929 . S
H1170 C1174 0.929 . S
H1171 C1180 0.929 . S
C1172 H1166 0.930 . S
C1172 C1173 1.367 . S
C1172 C1180 1.378 . S
C1173 C1172 1.367 . S
C1173 C1181 1.433 . S
C1174 H1170 0.929 . S
C1174 C1176 1.378 . S
C1174 C1178 1.350 . S
C1175 C1178 1.463 . S
C1175 C1180 1.350 . S
C1175 N1183 1.427 . S
C1176 H1167 0.930 . S
C1176 C1174 1.378 . S
C1176 C1177 1.367 . S
C1177 C1176 1.367 . S
C1177 C1179 1.433 . S
C1178 C1174 1.350 . S
C1178 C1175 1.463 . S
C1178 N1182 1.427 . S
C1179 H1169 0.929 . S
C1179 C1177 1.433 . S
C1179 N1182 1.384 . S
C1180 H1171 0.929 . S
C1180 C1172 1.378 . S
C1180 C1175 1.350 . S
C1181 H1168 0.929 . S
C1181 C1173 1.433 . S
C1181 N1183 1.384 . S
N1182 C1178 1.427 . S
N1182 C1179 1.384 . S
N1183 C1175 1.427 . S
N1183 C1181 1.384 . S
C327 C79 1.371 . S
C331 C9 1.387 . S
C345 C18 1.396 . S
C349 C21 1.425 . S
C363 C48 0.869 . S
C367 C29 0.870 . S
C381 C62 1.126 . S
C385 C42 1.136 . S
C399 C82 1.764 . S
C403 C118 1.748 . S
C417 C109 0.847 . S
C421 C129 0.852 . S
C435 C121 1.980 . S
C439 C158 1.963 . S
C453 C99 1.415 . S
C457 C149 1.427 . S
C471 C181 1.364 . S
C475 C1 1.365 . S
C489 C218 1.430 . S
C493 C38 1.439 . S
C507 C59 1.736 . S
C511 C261 1.748 . S
C525 C168 0.772 . S
C529 C68 0.755 . S
C543 C228 0.813 . S
C547 C88 0.821 . S
C561 C299 1.683 . S
C565 C101 1.703 . S
C579 C138 1.208 . S
C583 C258 1.203 . S
C597 C319 1.682 . S
C601 C141 1.688 . S
C615 C179 1.374 . S
C619 C269 1.386 . S
C633 C198 1.633 . S
C637 C162 1.646 . S
C651 C209 0.749 . S
C655 C189 0.756 . S
C669 C288 1.436 . S
C673 C239 1.415 . S
C687 C249 0.714 . S
C691 C308 0.699 . S
C705 C238 1.371 . S
C709 C8 1.385 . S
C723 C242 1.428 . S
C727 C19 1.397 . S
C741 C248 0.868 . S
C745 C49 0.859 . S
C759 C41 1.135 . S
C763 C221 1.119 . S
C777 C199 1.752 . S
C781 C81 1.767 . S
C795 C188 0.839 . S
C799 C128 0.838 . S
C813 C279 1.966 . S
C817 C122 1.983 . S
C831 C98 1.412 . S
C835 C268 1.428 . S
C849 C102 1.363 . S
C853 C2 1.366 . S
C867 C219 1.420 . S
C871 C259 1.433 . S
C885 C58 1.730 . S
C889 C142 1.747 . S
C903 C169 0.754 . S
C907 C229 0.769 . S
C921 C69 0.813 . S
C925 C89 0.826 . S
C939 C182 1.698 . S
C943 C298 1.680 . S
C957 C139 1.210 . S
C961 C39 1.201 . S
C975 C318 1.684 . S
C979 C262 1.690 . S
C993 C178 1.379 . S
C997 C148 1.390 . S
C1011 C161 1.653 . S
C1015 C119 1.637 . S
C1029 C208 0.754 . S
C1033 C108 0.747 . S
C1047 C78 1.415 . S
C1051 C289 1.435 . S
C1065 C28 0.706 . S
C1069 C309 0.696 . S
C1083 C241 1.099 . S
C1087 C282 1.108 . S
C1101 C222 1.179 . S
C1105 C302 1.211 . S
C1119 C201 1.940 . S
C1123 C278 1.931 . S
C1137 C281 1.108 . S
C1141 C22 1.098 . S
C1155 C61 1.188 . S
C1159 C301 1.207 . S
C1173 C159 1.923 . S
C1177 C202 1.943 . S
