# Generated by pormake.
# Topology wgt, (5)-cn, num edge types: 1
# Building blocks:
#     Node 0, Type 0, BuildingBlock: BEQFEK_clean_sbu_0, # of connection points: 5
#     Node 1, Type 0, BuildingBlock: BEQFEK_clean_sbu_0, # of connection points: 5
#     Node 2, Type 0, BuildingBlock: BEQFEK_clean_sbu_0, # of connection points: 5
#     Node 3, Type 0, BuildingBlock: BEQFEK_clean_sbu_0, # of connection points: 5
#     Node 4, Type 0, BuildingBlock: BEQFEK_clean_sbu_0, # of connection points: 5
#     Node 5, Type 0, BuildingBlock: BEQFEK_clean_sbu_0, # of connection points: 5
#     Node 6, Type 0, BuildingBlock: BEQFEK_clean_sbu_0, # of connection points: 5
#     Node 7, Type 0, BuildingBlock: BEQFEK_clean_sbu_0, # of connection points: 5
#     Node 8, Type 0, BuildingBlock: BEQFEK_clean_sbu_0, # of connection points: 5
#     Node 9, Type 0, BuildingBlock: BEQFEK_clean_sbu_0, # of connection points: 5
#     Node 10, Type 0, BuildingBlock: BEQFEK_clean_sbu_0, # of connection points: 5
#     Node 11, Type 0, BuildingBlock: BEQFEK_clean_sbu_0, # of connection points: 5
#     Node 12, Type 0, BuildingBlock: BEQFEK_clean_sbu_0, # of connection points: 5
#     Node 13, Type 0, BuildingBlock: BEQFEK_clean_sbu_0, # of connection points: 5
#     Node 14, Type 0, BuildingBlock: BEQFEK_clean_sbu_0, # of connection points: 5
#     Node 15, Type 0, BuildingBlock: BEQFEK_clean_sbu_0, # of connection points: 5
#     Edge 16, Type (0, 0), BuildingBlock: ZUJKAS_clean_linker_0, # of connection points: 2
#     Edge 17, Type (0, 0), BuildingBlock: ZUJKAS_clean_linker_0, # of connection points: 2
#     Edge 18, Type (0, 0), BuildingBlock: ZUJKAS_clean_linker_0, # of connection points: 2
#     Edge 19, Type (0, 0), BuildingBlock: ZUJKAS_clean_linker_0, # of connection points: 2
#     Edge 20, Type (0, 0), BuildingBlock: ZUJKAS_clean_linker_0, # of connection points: 2
#     Edge 21, Type (0, 0), BuildingBlock: ZUJKAS_clean_linker_0, # of connection points: 2
#     Edge 22, Type (0, 0), BuildingBlock: ZUJKAS_clean_linker_0, # of connection points: 2
#     Edge 23, Type (0, 0), BuildingBlock: ZUJKAS_clean_linker_0, # of connection points: 2
#     Edge 24, Type (0, 0), BuildingBlock: ZUJKAS_clean_linker_0, # of connection points: 2
#     Edge 25, Type (0, 0), BuildingBlock: ZUJKAS_clean_linker_0, # of connection points: 2
#     Edge 26, Type (0, 0), BuildingBlock: ZUJKAS_clean_linker_0, # of connection points: 2
#     Edge 27, Type (0, 0), BuildingBlock: ZUJKAS_clean_linker_0, # of connection points: 2
#     Edge 28, Type (0, 0), BuildingBlock: ZUJKAS_clean_linker_0, # of connection points: 2
#     Edge 29, Type (0, 0), BuildingBlock: ZUJKAS_clean_linker_0, # of connection points: 2
#     Edge 30, Type (0, 0), BuildingBlock: ZUJKAS_clean_linker_0, # of connection points: 2
#     Edge 31, Type (0, 0), BuildingBlock: ZUJKAS_clean_linker_0, # of connection points: 2
#     Edge 32, Type (0, 0), BuildingBlock: ZUJKAS_clean_linker_0, # of connection points: 2
#     Edge 33, Type (0, 0), BuildingBlock: ZUJKAS_clean_linker_0, # of connection points: 2
#     Edge 34, Type (0, 0), BuildingBlock: ZUJKAS_clean_linker_0, # of connection points: 2
#     Edge 35, Type (0, 0), BuildingBlock: ZUJKAS_clean_linker_0, # of connection points: 2
#     Edge 36, Type (0, 0), BuildingBlock: ZUJKAS_clean_linker_0, # of connection points: 2
#     Edge 37, Type (0, 0), BuildingBlock: ZUJKAS_clean_linker_0, # of connection points: 2
#     Edge 38, Type (0, 0), BuildingBlock: ZUJKAS_clean_linker_0, # of connection points: 2
#     Edge 39, Type (0, 0), BuildingBlock: ZUJKAS_clean_linker_0, # of connection points: 2
#     Edge 40, Type (0, 0), BuildingBlock: ZUJKAS_clean_linker_0, # of connection points: 2
#     Edge 41, Type (0, 0), BuildingBlock: ZUJKAS_clean_linker_0, # of connection points: 2
#     Edge 42, Type (0, 0), BuildingBlock: ZUJKAS_clean_linker_0, # of connection points: 2
#     Edge 43, Type (0, 0), BuildingBlock: ZUJKAS_clean_linker_0, # of connection points: 2
#     Edge 44, Type (0, 0), BuildingBlock: ZUJKAS_clean_linker_0, # of connection points: 2
#     Edge 45, Type (0, 0), BuildingBlock: ZUJKAS_clean_linker_0, # of connection points: 2
#     Edge 46, Type (0, 0), BuildingBlock: ZUJKAS_clean_linker_0, # of connection points: 2
#     Edge 47, Type (0, 0), BuildingBlock: ZUJKAS_clean_linker_0, # of connection points: 2
#     Edge 48, Type (0, 0), BuildingBlock: ZUJKAS_clean_linker_0, # of connection points: 2
#     Edge 49, Type (0, 0), BuildingBlock: ZUJKAS_clean_linker_0, # of connection points: 2
#     Edge 50, Type (0, 0), BuildingBlock: ZUJKAS_clean_linker_0, # of connection points: 2
#     Edge 51, Type (0, 0), BuildingBlock: ZUJKAS_clean_linker_0, # of connection points: 2
#     Edge 52, Type (0, 0), BuildingBlock: ZUJKAS_clean_linker_0, # of connection points: 2
#     Edge 53, Type (0, 0), BuildingBlock: ZUJKAS_clean_linker_0, # of connection points: 2
#     Edge 54, Type (0, 0), BuildingBlock: ZUJKAS_clean_linker_0, # of connection points: 2
#     Edge 55, Type (0, 0), BuildingBlock: ZUJKAS_clean_linker_0, # of connection points: 2
# Relax obj value: 0.140
# Max RMSD: 0.186
# Mean RMSD: 0.186
data_MOF--net-wgt--node1-BEQFEK_clean_sbu_0--edge1-ZUJKAS_clean_linker_0
_symmetry_space_group_name_H-M    P1
_symmetry_Int_Tables_number       1
_symmetry_cell_setting            triclinic
loop_
_symmetry_equiv_pos_as_xyz
'x, y, z'
_cell_length_a     37.370061
_cell_length_b     37.394043
_cell_length_c     93.711348
_cell_angle_alpha  89.97839
_cell_angle_beta   89.999664
_cell_angle_gamma 89.992173
loop_
_atom_site_label
_atom_site_type_symbol
_atom_site_fract_x
_atom_site_fract_y
_atom_site_fract_z
_atom_type_partial_charge
Co0 Co 0.19202 0.31775 0.02877 0.0
Co1 Co 0.19051 0.32258 0.99523 0.0
C2 C 0.15215 0.26425 0.01091 0.0
O3 O 0.16247 0.27601 0.023 0.0
O4 O 0.16169 0.27937 0.99933 0.0
C5 C 0.18261 0.29949 0.05864 0.0
O6 O 0.15251 0.28461 0.05449 0.0
C7 C 0.19745 0.30188 0.96507 0.0
C8 C 0.2053 0.3543 0.95464 0.0
C9 C 0.2028 0.31798 0.95188 0.0
N10 N 0.19668 0.32754 0.97511 0.0
N11 N 0.20125 0.35881 0.96879 0.0
C12 C 0.19599 0.26274 0.96832 0.0
H13 H 0.2065 0.25751 0.9792 0.0
H14 H 0.2117 0.24721 0.96041 0.0
H15 H 0.16774 0.25369 0.96791 0.0
C16 C 0.26993 0.3203 0.02317 0.0
N17 N 0.23577 0.31974 0.01859 0.0
N18 N 0.23537 0.32137 0.00458 0.0
C19 C 0.26933 0.32287 0.99976 0.0
C20 C 0.29235 0.3224 0.01139 0.0
C21 C 0.28055 0.32071 0.03857 0.0
H22 H 0.26573 0.34226 0.04416 0.0
H23 H 0.273 0.29487 0.04356 0.0
H24 H 0.30967 0.32524 0.03995 0.0
O25 O 0.16307 0.36127 0.02536 0.0
O26 O 0.1621 0.36422 0.00169 0.0
H27 H 0.27142 0.34876 0.97945 0.0
H28 H 0.3086 0.31896 0.98276 0.0
C29 C 0.27945 0.32292 0.98431 0.0
H30 H 0.26498 0.3012 0.97872 0.0
H31 H 0.20189 0.38323 0.97418 0.0
O32 O 0.20252 0.3147 0.04947 0.0
C33 C 0.15289 0.37632 0.01385 0.0
Co34 Co 0.6805 0.68541 0.27752 0.0
Co35 Co 0.67382 0.68466 0.24403 0.0
C36 C 0.73342 0.64654 0.25925 0.0
O37 O 0.72233 0.65661 0.27147 0.0
O38 O 0.71746 0.65604 0.24784 0.0
C39 C 0.70151 0.67716 0.30719 0.0
O40 O 0.72058 0.64994 0.30265 0.0
C41 C 0.69478 0.69576 0.21415 0.0
C42 C 0.64243 0.69523 0.2032 0.0
C43 C 0.67888 0.69854 0.20077 0.0
N44 N 0.6689 0.6909 0.22392 0.0
N45 N 0.63769 0.69051 0.21731 0.0
C46 C 0.73349 0.69985 0.21786 0.0
H47 H 0.73637 0.70974 0.22896 0.0
H48 H 0.7469 0.71857 0.21038 0.0
H49 H 0.74678 0.67337 0.21713 0.0
C50 C 0.6777 0.76326 0.27228 0.0
N51 N 0.67795 0.7293 0.26753 0.0
N52 N 0.67491 0.72931 0.25355 0.0
C53 C 0.67241 0.76339 0.24894 0.0
C54 C 0.67398 0.78601 0.26068 0.0
C55 C 0.68273 0.77348 0.2876 0.0
H56 H 0.70587 0.7587 0.29209 0.0
H57 H 0.68748 0.80258 0.28887 0.0
H58 H 0.65856 0.76572 0.29374 0.0
O59 O 0.63711 0.65623 0.27414 0.0
O60 O 0.63249 0.65589 0.25051 0.0
H61 H 0.64436 0.75813 0.22916 0.0
H62 H 0.66048 0.80274 0.23261 0.0
C63 C 0.66675 0.77388 0.23369 0.0
H64 H 0.69125 0.7677 0.22749 0.0
H65 H 0.61314 0.68713 0.22244 0.0
O66 O 0.68303 0.69507 0.29832 0.0
C67 C 0.62128 0.64631 0.26277 0.0
Co68 Co 0.31403 0.18143 0.53009 0.0
Co69 Co 0.31622 0.17766 0.49646 0.0
C70 C 0.35468 0.23507 0.51284 0.0
O71 O 0.34402 0.22322 0.52486 0.0
O72 O 0.34546 0.22007 0.50122 0.0
C73 C 0.30255 0.21212 0.55792 0.0
O74 O 0.30844 0.24257 0.55133 0.0
C75 C 0.30645 0.20052 0.46638 0.0
C76 C 0.31197 0.14886 0.45517 0.0
C77 C 0.30685 0.1851 0.45287 0.0
N78 N 0.31098 0.17447 0.47616 0.0
N79 N 0.31402 0.14368 0.46935 0.0
C80 C 0.30376 0.23949 0.4699 0.0
H81 H 0.3118 0.24475 0.48105 0.0
H82 H 0.27561 0.24833 0.46868 0.0
H83 H 0.32058 0.25544 0.46249 0.0
C84 C 0.23613 0.17913 0.52416 0.0
N85 N 0.27041 0.18013 0.51974 0.0
N86 N 0.27118 0.17842 0.50572 0.0
C87 C 0.2374 0.17615 0.50077 0.0
C88 C 0.21408 0.17651 0.5123 0.0
C89 C 0.22498 0.17867 0.53951 0.0
H90 H 0.24067 0.15819 0.54535 0.0
H91 H 0.2308 0.2051 0.54435 0.0
H92 H 0.19607 0.17267 0.54072 0.0
O93 O 0.34269 0.13788 0.52634 0.0
O94 O 0.34406 0.13534 0.50266 0.0
H95 H 0.24014 0.15104 0.4803 0.0
H96 H 0.19847 0.17437 0.48355 0.0
C97 C 0.2278 0.17497 0.48527 0.0
H98 H 0.23877 0.19897 0.4799 0.0
H99 H 0.31825 0.11915 0.4744 0.0
O100 O 0.30394 0.1831 0.55087 0.0
C101 C 0.35289 0.12292 0.51482 0.0
Co102 Co 0.81346 0.81449 0.77851 0.0
Co103 Co 0.81612 0.81699 0.74481 0.0
C104 C 0.75834 0.854 0.76159 0.0
O105 O 0.77083 0.84348 0.77353 0.0
O106 O 0.77312 0.84519 0.74986 0.0
C107 C 0.7858 0.80599 0.80719 0.0
O108 O 0.7552 0.8157 0.80148 0.0
C109 C 0.79267 0.80575 0.7149 0.0
C110 C 0.84324 0.81552 0.70333 0.0
C111 C 0.80737 0.80765 0.70127 0.0
N112 N 0.81875 0.81218 0.72449 0.0
N113 N 0.84891 0.81774 0.71747 0.0
C114 C 0.75422 0.80014 0.71877 0.0
H115 H 0.74905 0.80792 0.72997 0.0
H116 H 0.74753 0.77139 0.71766 0.0
H117 H 0.73661 0.81562 0.7115 0.0
C118 C 0.81651 0.7369 0.77246 0.0
N119 N 0.81521 0.77114 0.76805 0.0
N120 N 0.81676 0.77198 0.75402 0.0
C121 C 0.81944 0.73827 0.74906 0.0
C122 C 0.8194 0.71493 0.76058 0.0
C123 C 0.81307 0.72569 0.78774 0.0
H124 H 0.78912 0.73855 0.79247 0.0
H125 H 0.81044 0.6963 0.78888 0.0
H126 H 0.83687 0.73499 0.79377 0.0
O127 O 0.85616 0.84427 0.77446 0.0
O128 O 0.85789 0.84568 0.75077 0.0
H129 H 0.8444 0.74639 0.72874 0.0
H130 H 0.83231 0.70052 0.73228 0.0
C131 C 0.82397 0.72878 0.73365 0.0
H132 H 0.79825 0.73309 0.72801 0.0
H133 H 0.87328 0.8238 0.72235 0.0
O134 O 0.81351 0.80403 0.79935 0.0
C135 C 0.87049 0.85482 0.76285 0.0
Co136 Co 0.81386 0.31437 0.53043 0.0
Co137 Co 0.81715 0.32138 0.49699 0.0
C138 C 0.85341 0.26119 0.51235 0.0
O139 O 0.8429 0.27245 0.52449 0.0
O140 O 0.84464 0.27721 0.50086 0.0
C141 C 0.82175 0.29554 0.56036 0.0
O142 O 0.85278 0.28201 0.55659 0.0
C143 C 0.81055 0.30275 0.4666 0.0
C144 C 0.80788 0.35613 0.45655 0.0
C145 C 0.8077 0.31987 0.45347 0.0
N146 N 0.81247 0.32779 0.47687 0.0
N147 N 0.81096 0.35962 0.47079 0.0
C148 C 0.80876 0.26348 0.46959 0.0
H149 H 0.79794 0.25867 0.48045 0.0
H150 H 0.79173 0.24971 0.4616 0.0
H151 H 0.83615 0.2521 0.46908 0.0
C152 C 0.73637 0.3188 0.52423 0.0
N153 N 0.77072 0.31794 0.51991 0.0
N154 N 0.77184 0.32069 0.50593 0.0
C155 C 0.73817 0.32336 0.50087 0.0
C156 C 0.7146 0.32233 0.51232 0.0
C157 C 0.72498 0.31809 0.53954 0.0
H158 H 0.7396 0.33914 0.54549 0.0
H159 H 0.73217 0.29185 0.54427 0.0
H160 H 0.69581 0.32265 0.54074 0.0
O161 O 0.84381 0.35754 0.52778 0.0
O162 O 0.8461 0.36182 0.50416 0.0
H163 H 0.73917 0.35054 0.48082 0.0
H164 H 0.69959 0.32355 0.48354 0.0
C165 C 0.72886 0.32516 0.48536 0.0
H166 H 0.74194 0.30273 0.47966 0.0
H167 H 0.8119 0.38374 0.47637 0.0
O168 O 0.80202 0.31012 0.55097 0.0
C169 C 0.85489 0.37303 0.5165 0.0
Co170 Co 0.67424 0.31501 0.78 0.0
Co171 Co 0.67292 0.31671 0.74631 0.0
C172 C 0.72971 0.35452 0.76318 0.0
O173 O 0.71687 0.34389 0.77503 0.0
O174 O 0.71536 0.34567 0.75138 0.0
C175 C 0.70456 0.30194 0.80759 0.0
O176 O 0.73495 0.3053 0.80067 0.0
C177 C 0.69669 0.30636 0.71627 0.0
C178 C 0.64477 0.30836 0.70504 0.0
C179 C 0.68121 0.30453 0.70278 0.0
N180 N 0.67047 0.31074 0.726 0.0
N181 N 0.63955 0.31182 0.71917 0.0
C182 C 0.73578 0.3055 0.71979 0.0
H183 H 0.74104 0.31699 0.73043 0.0
H184 H 0.74513 0.27735 0.7199 0.0
H185 H 0.75136 0.32032 0.71162 0.0
C186 C 0.67094 0.23723 0.77432 0.0
N187 N 0.67273 0.27136 0.76979 0.0
N188 N 0.67251 0.27184 0.75575 0.0
C189 C 0.67068 0.23796 0.75089 0.0
C190 C 0.66959 0.21493 0.76251 0.0
C191 C 0.66873 0.2264 0.78968 0.0
H192 H 0.64893 0.24343 0.79528 0.0
H193 H 0.69521 0.23046 0.79478 0.0
H194 H 0.66079 0.19797 0.79087 0.0
O195 O 0.63153 0.34443 0.77575 0.0
O196 O 0.63061 0.34532 0.75204 0.0
H197 H 0.64769 0.23902 0.73001 0.0
H198 H 0.6726 0.19863 0.73384 0.0
C199 C 0.67165 0.22798 0.73543 0.0
H200 H 0.69567 0.23994 0.73043 0.0
H201 H 0.61484 0.3153 0.72417 0.0
O202 O 0.67528 0.30541 0.80083 0.0
C203 C 0.61754 0.35466 0.76403 0.0
Co204 Co 0.69181 0.17922 0.02928 0.0
Co205 Co 0.68923 0.17277 0.99583 0.0
C206 C 0.65257 0.23268 0.01125 0.0
O207 O 0.66299 0.22134 0.02339 0.0
O208 O 0.66146 0.21677 0.99977 0.0
C209 C 0.68242 0.19751 0.05905 0.0
O210 O 0.65223 0.21208 0.05482 0.0
C211 C 0.69624 0.1925 0.9656 0.0
C212 C 0.69967 0.13954 0.95524 0.0
C213 C 0.69948 0.17592 0.95238 0.0
N214 N 0.69442 0.16707 0.97571 0.0
N215 N 0.69639 0.13548 0.96945 0.0
C216 C 0.69757 0.23168 0.9688 0.0
H217 H 0.7083 0.23622 0.97969 0.0
H218 H 0.71446 0.24594 0.96089 0.0
H219 H 0.67005 0.24277 0.96833 0.0
C220 C 0.76952 0.17558 0.02335 0.0
N221 N 0.73524 0.17599 0.01894 0.0
N222 N 0.73441 0.17344 0.00495 0.0
C223 C 0.76821 0.17137 0.99999 0.0
C224 C 0.79159 0.17257 0.0115 0.0
C225 C 0.78061 0.17655 0.0387 0.0
H226 H 0.77299 0.20274 0.04337 0.0
H227 H 0.80981 0.17235 0.04 0.0
H228 H 0.76612 0.15539 0.04465 0.0
O229 O 0.66183 0.13622 0.02632 0.0
O230 O 0.66008 0.13206 0.00269 0.0
H231 H 0.76787 0.14494 0.97977 0.0
H232 H 0.80707 0.17231 0.98275 0.0
C233 C 0.7778 0.17027 0.98448 0.0
H234 H 0.76455 0.19275 0.97889 0.0
H235 H 0.69562 0.11114 0.9749 0.0
O236 O 0.70266 0.18258 0.04992 0.0
C237 C 0.65096 0.12082 0.015 0.0
Co238 Co 0.82214 0.18569 0.28011 0.0
Co239 Co 0.82221 0.18264 0.24644 0.0
C240 C 0.76644 0.14486 0.26385 0.0
O241 O 0.77959 0.15608 0.27556 0.0
O242 O 0.78022 0.15349 0.2519 0.0
C243 C 0.79347 0.1994 0.30803 0.0
O244 O 0.76251 0.1961 0.30152 0.0
C245 C 0.79832 0.19068 0.21627 0.0
C246 C 0.85048 0.18964 0.20518 0.0
C247 C 0.81397 0.19216 0.20281 0.0
N248 N 0.82452 0.18772 0.2261 0.0
N249 N 0.85556 0.18724 0.21935 0.0
C250 C 0.75917 0.19049 0.21968 0.0
H251 H 0.7541 0.1794 0.23041 0.0
H252 H 0.74895 0.21833 0.21951 0.0
H253 H 0.74421 0.17476 0.2116 0.0
C254 C 0.82417 0.26338 0.27385 0.0
N255 N 0.82275 0.22901 0.2696 0.0
N256 N 0.82234 0.22789 0.25556 0.0
C257 C 0.82332 0.26156 0.25043 0.0
C258 C 0.82458 0.28517 0.26186 0.0
C259 C 0.82684 0.27493 0.2891 0.0
H260 H 0.84699 0.25832 0.29472 0.0
H261 H 0.80058 0.27085 0.29439 0.0
H262 H 0.83456 0.30348 0.29003 0.0
O263 O 0.86501 0.15654 0.27583 0.0
O264 O 0.86491 0.15473 0.25214 0.0
H265 H 0.84544 0.2607 0.2294 0.0
H266 H 0.81867 0.29994 0.23311 0.0
C267 C 0.82117 0.27076 0.23491 0.0
H268 H 0.79758 0.25737 0.23016 0.0
H269 H 0.88029 0.18483 0.22444 0.0
O270 O 0.82216 0.19586 0.30088 0.0
C271 C 0.87859 0.14599 0.26409 0.0
Co272 Co 0.68016 0.80942 0.52798 0.0
Co273 Co 0.6762 0.81497 0.49444 0.0
C274 C 0.64068 0.75524 0.51082 0.0
O275 O 0.65219 0.76629 0.52283 0.0
O276 O 0.64824 0.77163 0.49929 0.0
C277 C 0.67322 0.79155 0.5579 0.0
O278 O 0.64458 0.77395 0.55381 0.0
C279 C 0.68744 0.79263 0.46449 0.0
C280 C 0.67548 0.84285 0.45303 0.0
C281 C 0.68472 0.80735 0.45089 0.0
N282 N 0.6802 0.81834 0.47413 0.0
N283 N 0.67332 0.84831 0.46718 0.0
C284 C 0.69452 0.7544 0.4683 0.0
H285 H 0.68722 0.7489 0.47953 0.0
H286 H 0.72346 0.7487 0.46705 0.0
H287 H 0.67945 0.73632 0.46108 0.0
C288 C 0.75752 0.8134 0.52151 0.0
N289 N 0.7231 0.81247 0.51729 0.0
N290 N 0.72169 0.81528 0.50331 0.0
C291 C 0.75523 0.81858 0.49818 0.0
C292 C 0.77905 0.81749 0.50955 0.0
C293 C 0.76935 0.80857 0.53665 0.0
H294 H 0.75483 0.78569 0.54148 0.0
H295 H 0.79853 0.80357 0.53744 0.0
H296 H 0.76251 0.83294 0.54283 0.0
O297 O 0.64926 0.85185 0.52458 0.0
O298 O 0.6476 0.85619 0.50094 0.0
H299 H 0.74548 0.84473 0.4782 0.0
H300 H 0.79197 0.83452 0.48147 0.0
C301 C 0.76413 0.82478 0.48281 0.0
H302 H 0.76099 0.79936 0.47686 0.0
H303 H 0.66642 0.87237 0.47211 0.0
O304 O 0.6917 0.80825 0.54866 0.0
C305 C 0.63842 0.86733 0.51325 0.0
Co306 Co 0.17974 0.18243 0.77973 0.0
Co307 Co 0.17568 0.18412 0.74622 0.0
C308 C 0.23433 0.14539 0.76121 0.0
O309 O 0.22193 0.15422 0.77338 0.0
O310 O 0.21946 0.15589 0.74973 0.0
C311 C 0.21215 0.20008 0.80647 0.0
O312 O 0.24004 0.20713 0.7984 0.0
C313 C 0.19558 0.19389 0.71605 0.0
C314 C 0.14265 0.20123 0.70595 0.0
C315 C 0.17895 0.19966 0.70297 0.0
N316 N 0.17021 0.19199 0.7262 0.0
N317 N 0.13865 0.1963 0.72009 0.0
C318 C 0.23485 0.19304 0.71913 0.0
H319 H 0.24011 0.20264 0.73014 0.0
H320 H 0.24982 0.20986 0.71141 0.0
H321 H 0.24457 0.16508 0.71828 0.0
C322 C 0.17301 0.26094 0.77533 0.0
N323 N 0.17623 0.22729 0.77034 0.0
N324 N 0.17591 0.22808 0.7563 0.0
C325 C 0.17333 0.26231 0.75191 0.0
C326 C 0.17116 0.28428 0.76383 0.0
C327 C 0.16894 0.27027 0.79078 0.0
H328 H 0.15299 0.24949 0.79632 0.0
H329 H 0.1958 0.27159 0.79579 0.0
H330 H 0.15557 0.29655 0.79213 0.0
O331 O 0.13685 0.15326 0.77592 0.0
O332 O 0.13456 0.1541 0.75224 0.0
H333 H 0.14882 0.26719 0.7314 0.0
H334 H 0.17992 0.30276 0.73552 0.0
C335 C 0.17467 0.27371 0.7366 0.0
H336 H 0.19619 0.25894 0.73102 0.0
H337 H 0.11437 0.19602 0.72559 0.0
O338 O 0.18347 0.18907 0.80066 0.0
C339 C 0.12229 0.14374 0.76424 0.0
Co340 Co 0.81774 0.67713 0.02868 0.0
Co341 Co 0.81817 0.67295 0.99507 0.0
C342 C 0.85597 0.73161 0.01064 0.0
O343 O 0.84619 0.71934 0.02271 0.0
O344 O 0.84646 0.71658 0.99904 0.0
C345 C 0.80543 0.70931 0.05616 0.0
O346 O 0.80816 0.73947 0.04905 0.0
C347 C 0.80972 0.6938 0.9649 0.0
C348 C 0.80275 0.64124 0.95451 0.0
C349 C 0.80435 0.67762 0.95171 0.0
N350 N 0.81133 0.66812 0.97494 0.0
N351 N 0.80728 0.63679 0.96864 0.0
C352 C 0.81048 0.73295 0.96818 0.0
H353 H 0.80039 0.73786 0.97915 0.0
H354 H 0.79404 0.74818 0.96042 0.0
H355 H 0.83851 0.74263 0.96759 0.0
C356 C 0.73968 0.67321 0.02355 0.0
N357 N 0.77367 0.67435 0.0188 0.0
N358 N 0.7736 0.67326 0.00476 0.0
C359 C 0.73948 0.67175 1.00013 0.0
C360 C 0.71687 0.67156 0.01189 0.0
C361 C 0.72945 0.67218 0.03899 0.0
H362 H 0.73336 0.69911 0.0437 0.0
H363 H 0.70114 0.66402 0.04044 0.0
H364 H 0.74692 0.65306 0.04477 0.0
O365 O 0.84726 0.63431 0.02496 0.0
O366 O 0.84776 0.63174 0.00128 0.0
H367 H 0.73676 0.64718 0.97958 0.0
H368 H 0.69966 0.67673 0.98337 0.0
C369 C 0.72885 0.67268 0.98473 0.0
H370 H 0.74313 0.69476 0.97929 0.0
H371 H 0.80736 0.61235 0.97402 0.0
O372 O 0.80902 0.67985 0.04955 0.0
C373 C 0.8575 0.61966 0.01339 0.0
Co374 Co 0.31659 0.31407 0.27985 0.0
Co375 Co 0.31948 0.31621 0.24617 0.0
C376 C 0.26129 0.35296 0.26269 0.0
O377 O 0.27372 0.34256 0.27465 0.0
O378 O 0.27624 0.34419 0.25099 0.0
C379 C 0.29927 0.3223 0.30982 0.0
O380 O 0.28267 0.35154 0.30576 0.0
C381 C 0.2981 0.3064 0.21581 0.0
C382 C 0.35085 0.30965 0.20525 0.0
C383 C 0.31467 0.30542 0.20251 0.0
N384 N 0.32347 0.31077 0.22589 0.0
N385 N 0.35489 0.31255 0.21946 0.0
C386 C 0.25879 0.30482 0.21884 0.0
H387 H 0.25262 0.31541 0.22956 0.0
H388 H 0.2498 0.27657 0.2185 0.0
H389 H 0.24364 0.32008 0.21066 0.0
C390 C 0.32125 0.23657 0.274 0.0
N391 N 0.3192 0.27069 0.26949 0.0
N392 N 0.32018 0.2713 0.25546 0.0
C393 C 0.32286 0.23751 0.25058 0.0
C394 C 0.32369 0.21439 0.26218 0.0
C395 C 0.32285 0.22585 0.28938 0.0
H396 H 0.34422 0.24129 0.29481 0.0
H397 H 0.29704 0.23252 0.2946 0.0
H398 H 0.32841 0.1969 0.29069 0.0
O399 O 0.35911 0.34415 0.27607 0.0
O400 O 0.36088 0.34542 0.25237 0.0
H401 H 0.34717 0.23898 0.22994 0.0
H402 H 0.32237 0.19835 0.23346 0.0
C403 C 0.32296 0.22769 0.2351 0.0
H404 H 0.29918 0.23953 0.22987 0.0
H405 H 0.37914 0.31621 0.22479 0.0
O406 O 0.31516 0.30321 0.30056 0.0
C407 C 0.37335 0.35477 0.26446 0.0
Co408 Co 0.31476 0.81898 0.02865 0.0
Co409 Co 0.32049 0.82425 0.99521 0.0
C410 C 0.35608 0.7653 0.01198 0.0
O411 O 0.3442 0.77656 0.0239 0.0
O412 O 0.3485 0.78121 1.00035 0.0
C413 C 0.32171 0.80321 0.05864 0.0
O414 O 0.3525 0.78909 0.0549 0.0
C415 C 0.31054 0.80048 0.96552 0.0
C416 C 0.32548 0.84914 0.95354 0.0
C417 C 0.31508 0.81383 0.9518 0.0
N418 N 0.31787 0.82675 0.97489 0.0
N419 N 0.32651 0.85582 0.96764 0.0
C420 C 0.30205 0.7628 0.96973 0.0
H421 H 0.30714 0.75839 0.98123 0.0
H422 H 0.27334 0.75736 0.9677 0.0
H423 H 0.31807 0.74377 0.96326 0.0
C424 C 0.23766 0.82123 0.02145 0.0
N425 N 0.27234 0.82101 0.01756 0.0
N426 N 0.2745 0.82402 0.0036 0.0
C427 C 0.24123 0.82686 0.99816 0.0
C428 C 0.21676 0.82513 0.00929 0.0
C429 C 0.22503 0.81589 0.03646 0.0
H430 H 0.23998 0.79347 0.04142 0.0
H431 H 0.196 0.8099 0.03694 0.0
H432 H 0.23062 0.84043 0.04273 0.0
O433 O 0.34484 0.86208 0.02551 0.0
O434 O 0.34811 0.86597 0.00189 0.0
H435 H 0.2056 0.84383 0.98126 0.0
H436 H 0.2356 0.80776 0.97682 0.0
C437 C 0.23311 0.83329 0.98274 0.0
H438 H 0.25249 0.85265 0.97822 0.0
H439 H 0.33399 0.87999 0.97234 0.0
O440 O 0.30194 0.81738 0.04916 0.0
C441 C 0.3562 0.87752 0.01426 0.0
Co442 Co 0.18553 0.81497 0.27944 0.0
Co443 Co 0.18205 0.81617 0.24575 0.0
C444 C 0.24068 0.85314 0.26196 0.0
O445 O 0.22845 0.84305 0.274 0.0
O446 O 0.22546 0.8442 0.25034 0.0
C447 C 0.20699 0.82046 0.30917 0.0
O448 O 0.2289 0.84558 0.30475 0.0
C449 C 0.20282 0.80598 0.21534 0.0
C450 C 0.1498 0.80884 0.20497 0.0
C451 C 0.18595 0.80489 0.2021 0.0
N452 N 0.17764 0.81018 0.22551 0.0
N453 N 0.14606 0.81169 0.2192 0.0
C454 C 0.2422 0.8047 0.21823 0.0
H455 H 0.24852 0.81496 0.22898 0.0
H456 H 0.25146 0.77655 0.21771 0.0
H457 H 0.25701 0.82038 0.21008 0.0
C458 C 0.18081 0.73732 0.27396 0.0
N459 N 0.18266 0.77131 0.2693 0.0
N460 N 0.18145 0.77153 0.25527 0.0
C461 C 0.17884 0.73759 0.25054 0.0
C462 C 0.17829 0.71479 0.26224 0.0
C463 C 0.17962 0.72702 0.2894 0.0
H464 H 0.1583 0.74252 0.29483 0.0
H465 H 0.20551 0.73396 0.29449 0.0
H466 H 0.17423 0.69809 0.29085 0.0
O467 O 0.14315 0.84515 0.27558 0.0
O468 O 0.14082 0.8457 0.25189 0.0
H469 H 0.15427 0.73821 0.22994 0.0
H470 H 0.17959 0.69796 0.23359 0.0
C471 C 0.17868 0.72734 0.2351 0.0
H472 H 0.20225 0.73933 0.22977 0.0
H473 H 0.12191 0.81522 0.22461 0.0
O474 O 0.18676 0.80484 0.30023 0.0
C475 C 0.12867 0.85547 0.26398 0.0
Co476 Co 0.18432 0.68223 0.52866 0.0
Co477 Co 0.17972 0.67507 0.49529 0.0
C478 C 0.14249 0.73426 0.51148 0.0
O479 O 0.15471 0.72402 0.52349 0.0
O480 O 0.15043 0.71781 0.5 0.0
C481 C 0.17407 0.69515 0.55864 0.0
O482 O 0.142 0.70567 0.55472 0.0
C483 C 0.19151 0.69727 0.46547 0.0
C484 C 0.17819 0.64768 0.45383 0.0
C485 C 0.18851 0.68294 0.45182 0.0
N486 N 0.18344 0.67159 0.47501 0.0
N487 N 0.17571 0.64198 0.46797 0.0
C488 C 0.19963 0.73517 0.46946 0.0
H489 H 0.19185 0.74064 0.48064 0.0
H490 H 0.22883 0.73989 0.4685 0.0
H491 H 0.1856 0.7539 0.46217 0.0
C492 C 0.26149 0.67888 0.52208 0.0
N493 N 0.22708 0.68008 0.51789 0.0
N494 N 0.22547 0.67604 0.50396 0.0
C495 C 0.25888 0.67136 0.49885 0.0
C496 C 0.28284 0.67299 0.51018 0.0
C497 C 0.27348 0.6843 0.53717 0.0
H498 H 0.25836 0.70675 0.54201 0.0
H499 H 0.3025 0.69034 0.5378 0.0
H500 H 0.26772 0.65976 0.54342 0.0
O501 O 0.15494 0.63868 0.52565 0.0
O502 O 0.15256 0.63314 0.50207 0.0
H503 H 0.29443 0.65047 0.48261 0.0
H504 H 0.26577 0.68676 0.47708 0.0
C505 C 0.26729 0.66217 0.48367 0.0
H506 H 0.24739 0.64278 0.47956 0.0
H507 H 0.16808 0.61803 0.47281 0.0
O508 O 0.19602 0.68439 0.54923 0.0
C509 C 0.14425 0.62229 0.51452 0.0
Co510 Co 0.31174 0.6856 0.77962 0.0
Co511 Co 0.31129 0.68147 0.74609 0.0
C512 C 0.25539 0.64475 0.76346 0.0
O513 O 0.26968 0.65545 0.77504 0.0
O514 O 0.26806 0.65372 0.75136 0.0
C515 C 0.30968 0.67345 0.80985 0.0
O516 O 0.31138 0.63958 0.80619 0.0
C517 C 0.28893 0.68329 0.71587 0.0
C518 C 0.34018 0.69535 0.70512 0.0
C519 C 0.30421 0.68916 0.70255 0.0
N520 N 0.31468 0.6864 0.72583 0.0
N521 N 0.34523 0.69351 0.71931 0.0
C522 C 0.25151 0.67168 0.71916 0.0
H523 H 0.25251 0.6452 0.72447 0.0
H524 H 0.23915 0.69087 0.72673 0.0
H525 H 0.23473 0.66914 0.70948 0.0
C526 C 0.31434 0.76289 0.77307 0.0
N527 N 0.31245 0.72848 0.76892 0.0
N528 N 0.31158 0.72704 0.75491 0.0
C529 C 0.31247 0.76062 0.74967 0.0
C530 C 0.31448 0.78443 0.76101 0.0
C531 C 0.318 0.77453 0.78828 0.0
H532 H 0.33894 0.75829 0.79362 0.0
H533 H 0.29233 0.76977 0.79392 0.0
H534 H 0.32522 0.80322 0.78914 0.0
O535 O 0.35493 0.65666 0.77585 0.0
O536 O 0.35347 0.65305 0.75219 0.0
H537 H 0.33562 0.76407 0.72888 0.0
H538 H 0.30282 0.79831 0.73253 0.0
C539 C 0.30966 0.76973 0.73416 0.0
H540 H 0.28879 0.75298 0.72908 0.0
H541 H 0.36957 0.69706 0.72459 0.0
O542 O 0.30963 0.69725 0.80018 0.0
C543 C 0.36778 0.64513 0.76413 0.0
H544 H 0.2468 0.33738 0.93016 0.0
H545 H 0.2493 0.31223 0.90602 0.0
H546 H 0.16667 0.23674 0.9171 0.0
H547 H 0.16372 0.26196 0.9412 0.0
H548 H 0.25949 0.23328 0.8978 0.0
H549 H 0.13128 0.29635 0.88081 0.0
H550 H 0.15722 0.31321 0.89562 0.0
H551 H 0.13184 0.27282 0.89758 0.0
C552 C 0.22934 0.31526 0.92747 0.0
C553 C 0.20545 0.30127 0.93762 0.0
C554 C 0.2309 0.30089 0.91372 0.0
C555 C 0.20817 0.27271 0.90984 0.0
C556 C 0.18445 0.25848 0.91995 0.0
H557 H 0.16238 0.18144 0.82649 0.0
H558 H 0.16269 0.19576 0.85194 0.0
C559 C 0.18307 0.27267 0.93374 0.0
C560 C 0.20851 0.2591 0.89504 0.0
H561 H 0.16107 0.26057 0.86396 0.0
C562 C 0.23799 0.23908 0.89037 0.0
C563 C 0.18029 0.26667 0.88548 0.0
C564 C 0.14835 0.2886 0.89001 0.0
C565 C 0.23994 0.22623 0.87631 0.0
C566 C 0.21208 0.23453 0.86661 0.0
C567 C 0.18241 0.25423 0.87139 0.0
C568 C 0.21334 0.2238 0.85137 0.0
C569 C 0.2715 0.20341 0.87207 0.0
C570 C 0.2417 0.2348 0.84258 0.0
C571 C 0.24176 0.22637 0.82804 0.0
C572 C 0.21315 0.20727 0.82199 0.0
C573 C 0.18482 0.1962 0.83083 0.0
C574 C 0.18495 0.20437 0.84537 0.0
H575 H 0.28398 0.19041 0.8815 0.0
H576 H 0.26355 0.18234 0.86435 0.0
H577 H 0.29209 0.22057 0.86698 0.0
H578 H 0.26342 0.25066 0.84687 0.0
H579 H 0.26381 0.23559 0.8215 0.0
H580 H 0.7424 0.67071 0.19088 0.0
H581 H 0.76714 0.67591 0.16683 0.0
H582 H 0.67687 0.7404 0.15419 0.0
H583 H 0.65208 0.73553 0.17827 0.0
H584 H 0.69005 0.68429 0.1359 0.0
H585 H 0.81484 0.76041 0.1464 0.0
H586 H 0.80943 0.72113 0.15723 0.0
H587 H 0.77869 0.75779 0.15915 0.0
C588 C 0.72836 0.68694 0.18314 0.0
C589 C 0.69565 0.70339 0.18658 0.0
C590 C 0.74248 0.68974 0.16935 0.0
C591 C 0.72415 0.70904 0.15878 0.0
C592 C 0.69157 0.72559 0.16222 0.0
H593 H 0.79498 0.76728 0.07352 0.0
H594 H 0.77606 0.76722 0.09854 0.0
C595 C 0.67745 0.72275 0.17597 0.0
C596 C 0.73754 0.71001 0.14389 0.0
H597 H 0.80818 0.73572 0.12315 0.0
C598 C 0.71583 0.69564 0.1331 0.0
C599 C 0.77104 0.7251 0.14027 0.0
C600 C 0.79477 0.7423 0.15133 0.0
C601 C 0.72687 0.69554 0.1188 0.0
C602 C 0.7608 0.70969 0.11522 0.0
C603 C 0.78233 0.72457 0.12596 0.0
C604 C 0.77407 0.70959 0.10033 0.0
C605 C 0.70189 0.68076 0.1076 0.0
C606 C 0.7799 0.67719 0.09316 0.0
C607 C 0.79064 0.6771 0.07887 0.0
C608 C 0.79593 0.70946 0.07151 0.0
C609 C 0.79101 0.7419 0.07886 0.0
C610 C 0.78028 0.74193 0.09316 0.0
H611 H 0.67389 0.67913 0.11154 0.0
H612 H 0.70236 0.69752 0.09782 0.0
H613 H 0.71062 0.65338 0.10466 0.0
H614 H 0.77583 0.65193 0.09858 0.0
H615 H 0.79435 0.65164 0.07357 0.0
H616 H 0.33319 0.26482 0.3217 0.0
H617 H 0.33286 0.24618 0.34669 0.0
H618 H 0.2656 0.33594 0.35737 0.0
H619 H 0.26557 0.35484 0.33233 0.0
H620 H 0.35545 0.28746 0.37111 0.0
H621 H 0.21215 0.24737 0.37381 0.0
H622 H 0.23551 0.25296 0.35709 0.0
H623 H 0.22137 0.29143 0.36705 0.0
C624 C 0.31825 0.28063 0.32933 0.0
C625 C 0.2993 0.31128 0.325 0.0
C626 C 0.31815 0.26994 0.34361 0.0
C627 C 0.29892 0.28948 0.35382 0.0
C628 C 0.28019 0.32023 0.3496 0.0
H629 H 0.26603 0.24279 0.44435 0.0
H630 H 0.26525 0.27129 0.42087 0.0
C631 C 0.28034 0.33105 0.3353 0.0
C632 C 0.29897 0.27766 0.36889 0.0
H633 H 0.24594 0.24205 0.39494 0.0
C634 C 0.33151 0.27764 0.37635 0.0
C635 C 0.26762 0.26512 0.3757 0.0
C636 C 0.23215 0.26389 0.36803 0.0
C637 C 0.33363 0.26514 0.39045 0.0
C638 C 0.3025 0.25155 0.39712 0.0
C639 C 0.26976 0.25239 0.38978 0.0
C640 C 0.30367 0.23497 0.41148 0.0
C641 C 0.36914 0.26682 0.39809 0.0
C642 C 0.32507 0.20476 0.41394 0.0
C643 C 0.32596 0.18875 0.4274 0.0
C644 C 0.30544 0.20261 0.43868 0.0
C645 C 0.28331 0.23234 0.43611 0.0
C646 C 0.28246 0.24839 0.42262 0.0
H647 H 0.38705 0.28727 0.3933 0.0
H648 H 0.36552 0.27305 0.40958 0.0
H649 H 0.38267 0.2405 0.39721 0.0
H650 H 0.34091 0.19335 0.4054 0.0
H651 H 0.34296 0.16563 0.42899 0.0
H652 H 0.72922 0.82761 0.56994 0.0
H653 H 0.74707 0.8284 0.59502 0.0
H654 H 0.65974 0.75775 0.60545 0.0
H655 H 0.64162 0.75665 0.58033 0.0
H656 H 0.7033 0.84968 0.61917 0.0
H657 H 0.75025 0.70863 0.62264 0.0
H658 H 0.74457 0.73146 0.6058 0.0
H659 H 0.70619 0.71573 0.61544 0.0
C660 C 0.71379 0.81215 0.57754 0.0
C661 C 0.68401 0.79199 0.57311 0.0
C662 C 0.72403 0.81269 0.59187 0.0
C663 C 0.70493 0.79287 0.60204 0.0
C664 C 0.67511 0.77283 0.59771 0.0
H665 H 0.75143 0.76399 0.69297 0.0
H666 H 0.72292 0.76134 0.6695 0.0
C667 C 0.66473 0.77237 0.58337 0.0
C668 C 0.71609 0.79379 0.6172 0.0
H669 H 0.75325 0.7431 0.64364 0.0
C670 C 0.7141 0.82638 0.62456 0.0
C671 C 0.72986 0.76323 0.62419 0.0
C672 C 0.73316 0.72776 0.61664 0.0
C673 C 0.72586 0.82935 0.63873 0.0
C674 C 0.74078 0.79911 0.64559 0.0
C675 C 0.74188 0.76626 0.63835 0.0
C676 C 0.7571 0.80149 0.65998 0.0
C677 C 0.72203 0.86484 0.64624 0.0
C678 C 0.7861 0.82453 0.66237 0.0
C679 C 0.80209 0.82646 0.67581 0.0
C680 C 0.7895 0.80533 0.68716 0.0
C681 C 0.76091 0.78168 0.68467 0.0
C682 C 0.74486 0.77979 0.67119 0.0
H683 H 0.70063 0.88142 0.64134 0.0
H684 H 0.71585 0.86113 0.65773 0.0
H685 H 0.74754 0.87985 0.64535 0.0
H686 H 0.79665 0.84081 0.65379 0.0
H687 H 0.8243 0.84468 0.67732 0.0
H688 H 0.84023 0.25924 0.44299 0.0
H689 H 0.83739 0.23598 0.41863 0.0
H690 H 0.76827 0.32322 0.40655 0.0
H691 H 0.77052 0.34638 0.43095 0.0
H692 H 0.7769 0.21565 0.40156 0.0
H693 H 0.85295 0.3291 0.37826 0.0
H694 H 0.85193 0.32011 0.39719 0.0
H695 H 0.81478 0.34204 0.38871 0.0
C696 C 0.8237 0.27301 0.43527 0.0
C697 C 0.80506 0.30434 0.43897 0.0
C698 C 0.82242 0.25986 0.42131 0.0
C699 C 0.80289 0.27807 0.41078 0.0
C700 C 0.7839 0.30905 0.41448 0.0
H701 H 0.73746 0.20881 0.32648 0.0
H702 H 0.74025 0.22594 0.35164 0.0
C703 C 0.78515 0.32219 0.42842 0.0
C704 C 0.8028 0.26505 0.39587 0.0
H705 H 0.82621 0.28862 0.36194 0.0
C706 C 0.78777 0.23149 0.39288 0.0
C707 C 0.81747 0.28561 0.38463 0.0
C708 C 0.83551 0.32108 0.38732 0.0
C709 C 0.78629 0.21827 0.37887 0.0
C710 C 0.79984 0.23941 0.36757 0.0
C711 C 0.81557 0.27261 0.37061 0.0
C712 C 0.79809 0.22766 0.35249 0.0
C713 C 0.77064 0.18165 0.37628 0.0
C714 C 0.82967 0.22355 0.34456 0.0
C715 C 0.82818 0.21398 0.33016 0.0
C716 C 0.79503 0.20855 0.32339 0.0
C717 C 0.76342 0.21263 0.33138 0.0
C718 C 0.76496 0.2222 0.34579 0.0
H719 H 0.77006 0.16538 0.38621 0.0
H720 H 0.74272 0.18455 0.37242 0.0
H721 H 0.78612 0.16698 0.36804 0.0
H722 H 0.8555 0.22786 0.34952 0.0
H723 H 0.85303 0.21116 0.32432 0.0
H724 H 0.85571 0.26468 0.58323 0.0
H725 H 0.8344 0.26148 0.60795 0.0
H726 H 0.73931 0.31975 0.59615 0.0
H727 H 0.75996 0.32265 0.57151 0.0
H728 H 0.81774 0.31672 0.62677 0.0
H729 H 0.69859 0.2325 0.6165 0.0
H730 H 0.73415 0.23777 0.60363 0.0
H731 H 0.70009 0.27152 0.60537 0.0
C732 C 0.83019 0.27668 0.5859 0.0
C733 C 0.80943 0.29372 0.57537 0.0
C734 C 0.81808 0.27483 0.60002 0.0
C735 C 0.78498 0.28979 0.60382 0.0
C736 C 0.76453 0.30727 0.59338 0.0
H737 H 0.65949 0.33473 0.67792 0.0
H738 H 0.68679 0.32922 0.65431 0.0
C739 C 0.77652 0.30908 0.5793 0.0
C740 C 0.77198 0.2881 0.61875 0.0
H741 H 0.70036 0.26279 0.63899 0.0
C742 C 0.79232 0.30452 0.6295 0.0
C743 C 0.73886 0.27201 0.62227 0.0
C744 C 0.71682 0.25213 0.61136 0.0
C745 C 0.77963 0.30667 0.64359 0.0
C746 C 0.74593 0.29174 0.64697 0.0
C747 C 0.72609 0.27443 0.63631 0.0
C748 C 0.73002 0.29507 0.66137 0.0
C749 C 0.80165 0.32603 0.65465 0.0
C750 C 0.74506 0.27727 0.6731 0.0
C751 C 0.72938 0.2802 0.68661 0.0
C752 C 0.69857 0.30123 0.68862 0.0
C753 C 0.68335 0.31854 0.67676 0.0
C754 C 0.69893 0.31549 0.66327 0.0
H755 H 0.82416 0.34116 0.64979 0.0
H756 H 0.78466 0.34488 0.6608 0.0
H757 H 0.81295 0.3063 0.66226 0.0
H758 H 0.76857 0.26067 0.67176 0.0
H759 H 0.74094 0.26523 0.69533 0.0
H760 H 0.73748 0.15094 0.9298 0.0
H761 H 0.73996 0.1753 0.90559 0.0
H762 H 0.6688 0.26058 0.918 0.0
H763 H 0.66586 0.23617 0.94216 0.0
H764 H 0.68234 0.1848 0.88715 0.0
H765 H 0.75109 0.3137 0.89789 0.0
H766 H 0.75089 0.2772 0.91052 0.0
H767 H 0.71228 0.30548 0.90873 0.0
C768 C 0.72263 0.17508 0.92741 0.0
C769 C 0.70217 0.1921 0.938 0.0
C770 C 0.7241 0.18897 0.91358 0.0
C771 C 0.70509 0.2201 0.91007 0.0
C772 C 0.68447 0.23709 0.92059 0.0
H773 H 0.64657 0.28812 0.82454 0.0
H774 H 0.64659 0.26931 0.84953 0.0
C775 C 0.68299 0.2232 0.93444 0.0
C776 C 0.70535 0.23356 0.89521 0.0
H777 H 0.72769 0.30545 0.87456 0.0
C778 C 0.69231 0.21115 0.88439 0.0
C779 C 0.71867 0.26782 0.89164 0.0
C780 C 0.73434 0.2924 0.90277 0.0
C781 C 0.69186 0.22221 0.87008 0.0
C782 C 0.70435 0.25679 0.86656 0.0
C783 C 0.71782 0.27908 0.87734 0.0
C784 C 0.70424 0.26995 0.85166 0.0
C785 C 0.67859 0.19657 0.85883 0.0
C786 C 0.73661 0.27749 0.84471 0.0
C787 C 0.73672 0.28835 0.83044 0.0
C788 C 0.70439 0.29208 0.82289 0.0
C789 C 0.67195 0.28537 0.83001 0.0
C790 C 0.67189 0.27446 0.84428 0.0
H791 H 0.67791 0.16857 0.8628 0.0
H792 H 0.65101 0.20417 0.85567 0.0
H793 H 0.69577 0.19766 0.84917 0.0
H794 H 0.76184 0.27428 0.85026 0.0
H795 H 0.76216 0.29344 0.82529 0.0
H796 H 0.83638 0.15982 0.17852 0.0
H797 H 0.80938 0.16272 0.15479 0.0
H798 H 0.72587 0.23101 0.17111 0.0
H799 H 0.75355 0.22945 0.19473 0.0
H800 H 0.74087 0.14162 0.14646 0.0
H801 H 0.76279 0.28663 0.13654 0.0
H802 H 0.78503 0.26279 0.15075 0.0
H803 H 0.73908 0.27604 0.15268 0.0
C804 C 0.81233 0.17558 0.17705 0.0
C805 C 0.79675 0.19384 0.18859 0.0
C806 C 0.79687 0.17709 0.1635 0.0
C807 C 0.76575 0.19723 0.16117 0.0
C808 C 0.75009 0.21558 0.17265 0.0
H809 H 0.64748 0.22968 0.08135 0.0
H810 H 0.66488 0.22956 0.10658 0.0
C811 C 0.76561 0.21412 0.18622 0.0
C812 C 0.74974 0.19852 0.14672 0.0
H813 H 0.73153 0.25443 0.11881 0.0
C814 C 0.73872 0.1663 0.14043 0.0
C815 C 0.74681 0.2308 0.13891 0.0
C816 C 0.75929 0.26603 0.14498 0.0
C817 C 0.72522 0.1654 0.12647 0.0
C818 C 0.72315 0.19751 0.11854 0.0
C819 C 0.7332 0.22989 0.12495 0.0
C820 C 0.71247 0.19766 0.10334 0.0
C821 C 0.71331 0.1301 0.12029 0.0
C822 C 0.73379 0.18022 0.09319 0.0
C823 C 0.72405 0.18031 0.07881 0.0
C824 C 0.69278 0.19793 0.07429 0.0
C825 C 0.67164 0.21574 0.08449 0.0
C826 C 0.68152 0.21574 0.09889 0.0
H827 H 0.70774 0.11009 0.12877 0.0
H828 H 0.68891 0.13346 0.11366 0.0
H829 H 0.73486 0.1193 0.11337 0.0
H830 H 0.75812 0.16665 0.09639 0.0
H831 H 0.74105 0.16648 0.07125 0.0
H832 H 0.66314 0.7304 0.31999 0.0
H833 H 0.66283 0.74699 0.34519 0.0
H834 H 0.7388 0.66327 0.35431 0.0
H835 H 0.73945 0.64643 0.32904 0.0
H836 H 0.6453 0.70115 0.36914 0.0
H837 H 0.78389 0.75552 0.37173 0.0
H838 H 0.7605 0.74931 0.35505 0.0
H839 H 0.77865 0.71145 0.36433 0.0
C840 C 0.67987 0.7155 0.32732 0.0
C841 C 0.7014 0.68711 0.32248 0.0
C842 C 0.67961 0.72501 0.34172 0.0
C843 C 0.70103 0.70657 0.35156 0.0
C844 C 0.72245 0.67813 0.34683 0.0
H845 H 0.73091 0.75375 0.44243 0.0
H846 H 0.7343 0.7253 0.41896 0.0
C847 C 0.72266 0.66847 0.3324 0.0
C848 C 0.70034 0.71704 0.36679 0.0
H849 H 0.75009 0.75666 0.39293 0.0
C850 C 0.66824 0.71312 0.37439 0.0
C851 C 0.73043 0.73235 0.37359 0.0
C852 C 0.76533 0.73771 0.36579 0.0
C853 C 0.66524 0.72457 0.38859 0.0
C854 C 0.69492 0.74113 0.39525 0.0
C855 C 0.72737 0.74405 0.38779 0.0
C856 C 0.69218 0.75738 0.40963 0.0
C857 C 0.63033 0.71878 0.39634 0.0
C858 C 0.66777 0.78519 0.41211 0.0
C859 C 0.66546 0.80114 0.42554 0.0
C860 C 0.68753 0.78966 0.43678 0.0
C861 C 0.71252 0.76229 0.43421 0.0
C862 C 0.71482 0.74629 0.42073 0.0
H863 H 0.61472 0.69654 0.39154 0.0
H864 H 0.63487 0.71277 0.40781 0.0
H865 H 0.6139 0.74343 0.39558 0.0
H866 H 0.65071 0.79484 0.40359 0.0
H867 H 0.64619 0.82241 0.42713 0.0
H868 H 0.28445 0.15416 0.57419 0.0
H869 H 0.26588 0.15364 0.5992 0.0
H870 H 0.27918 0.26805 0.60129 0.0
H871 H 0.29814 0.26888 0.57628 0.0
H872 H 0.30818 0.22982 0.62508 0.0
H873 H 0.16786 0.19094 0.61319 0.0
H874 H 0.20122 0.16213 0.60555 0.0
H875 H 0.19794 0.20777 0.59969 0.0
C876 C 0.28356 0.17924 0.57996 0.0
C877 C 0.29259 0.21161 0.57321 0.0
C878 C 0.27279 0.17888 0.59423 0.0
C879 C 0.2707 0.21086 0.60201 0.0
C880 C 0.28049 0.24311 0.59543 0.0
H881 H 0.1556 0.24198 0.68135 0.0
H882 H 0.17952 0.24638 0.65711 0.0
C883 C 0.29123 0.24352 0.58113 0.0
C884 C 0.25783 0.21067 0.61695 0.0
H885 H 0.18505 0.1912 0.63753 0.0
C886 C 0.28125 0.22147 0.62783 0.0
C887 C 0.22255 0.20018 0.62044 0.0
C888 C 0.19576 0.18989 0.60911 0.0
C889 C 0.27046 0.22146 0.6422 0.0
C890 C 0.23549 0.20999 0.64572 0.0
C891 C 0.21193 0.19974 0.6348 0.0
C892 C 0.22251 0.20865 0.66065 0.0
C893 C 0.29635 0.23421 0.65345 0.0
C894 C 0.23864 0.18581 0.67065 0.0
C895 C 0.225 0.18324 0.68451 0.0
C896 C 0.19502 0.20351 0.68861 0.0
C897 C 0.17889 0.22622 0.67854 0.0
C898 C 0.19253 0.2288 0.6647 0.0
H899 H 0.3184 0.25033 0.64876 0.0
H900 H 0.28245 0.25055 0.66164 0.0
H901 H 0.3084 0.2107 0.65885 0.0
H902 H 0.26118 0.16926 0.66763 0.0
H903 H 0.23722 0.16446 0.69182 0.0
H904 H 0.83995 0.73595 0.94083 0.0
H905 H 0.8353 0.76067 0.91673 0.0
H906 H 0.75734 0.6801 0.90591 0.0
H907 H 0.76181 0.6553 0.93 0.0
H908 H 0.81067 0.68558 0.88609 0.0
H909 H 0.75572 0.81991 0.8985 0.0
H910 H 0.7959 0.80906 0.90808 0.0
H911 H 0.75578 0.7838 0.91129 0.0
C912 C 0.82109 0.7241 0.93346 0.0
C913 C 0.80062 0.69415 0.93742 0.0
C914 C 0.81857 0.73819 0.91966 0.0
C915 C 0.79549 0.72264 0.90959 0.0
C916 C 0.77514 0.69268 0.91353 0.0
H917 H 0.73139 0.80485 0.82675 0.0
H918 H 0.7342 0.78506 0.85162 0.0
C919 C 0.77774 0.67854 0.92729 0.0
C920 C 0.7939 0.73624 0.89473 0.0
H921 H 0.77491 0.81008 0.87462 0.0
C922 C 0.80277 0.71278 0.88358 0.0
C923 C 0.78324 0.77163 0.89147 0.0
C924 C 0.77178 0.79751 0.90294 0.0
C925 C 0.80161 0.7238 0.86928 0.0
C926 C 0.79195 0.75948 0.86604 0.0
C927 C 0.78266 0.78285 0.87716 0.0
C928 C 0.79075 0.77275 0.85113 0.0
C929 C 0.81006 0.69693 0.85774 0.0
C930 C 0.82176 0.773 0.84268 0.0
C931 C 0.82024 0.78416 0.82846 0.0
C932 C 0.78769 0.79555 0.82243 0.0
C933 C 0.75685 0.79613 0.83104 0.0
C934 C 0.7584 0.7849 0.84526 0.0
H935 H 0.80785 0.669 0.86171 0.0
H936 H 0.79185 0.70021 0.84847 0.0
H937 H 0.83791 0.7011 0.854 0.0
H938 H 0.84714 0.7644 0.84708 0.0
H939 H 0.84454 0.78358 0.82217 0.0
H940 H 0.25592 0.26604 0.19392 0.0
H941 H 0.23052 0.26233 0.16992 0.0
H942 H 0.31287 0.33285 0.15424 0.0
H943 H 0.33793 0.33745 0.17826 0.0
H944 H 0.20621 0.32068 0.15158 0.0
H945 H 0.31841 0.24302 0.12821 0.0
H946 H 0.31105 0.24628 0.14722 0.0
H947 H 0.33182 0.28252 0.13772 0.0
C948 C 0.26817 0.28145 0.18548 0.0
C949 C 0.29854 0.3027 0.18809 0.0
C950 C 0.25383 0.27894 0.17172 0.0
C951 C 0.26999 0.29711 0.16032 0.0
C952 C 0.30028 0.31825 0.16288 0.0
H953 H 0.24202 0.3296 0.07061 0.0
H954 H 0.26067 0.32759 0.09555 0.0
C955 C 0.31452 0.32088 0.17661 0.0
C956 C 0.25521 0.29429 0.14571 0.0
H957 H 0.27652 0.26795 0.1119 0.0
C958 C 0.22133 0.30884 0.1429 0.0
C959 C 0.27508 0.27877 0.13447 0.0
C960 C 0.31099 0.26145 0.13702 0.0
C961 C 0.20736 0.3096 0.12898 0.0
C962 C 0.22762 0.29478 0.11768 0.0
C963 C 0.26111 0.27942 0.12058 0.0
C964 C 0.21539 0.29623 0.10264 0.0
C965 C 0.17174 0.32748 0.12642 0.0
C966 C 0.1838 0.27904 0.09832 0.0
C967 C 0.17293 0.28024 0.08404 0.0
C968 C 0.19364 0.29842 0.07381 0.0
C969 C 0.22538 0.3154 0.07819 0.0
C970 C 0.23613 0.31426 0.09245 0.0
H971 H 0.16365 0.34463 0.13554 0.0
H972 H 0.17254 0.34414 0.11661 0.0
H973 H 0.15088 0.30668 0.12495 0.0
H974 H 0.16776 0.26436 0.10597 0.0
H975 H 0.14847 0.2667 0.081 0.0
H976 H 0.31144 0.62999 0.8334 0.0
H977 H 0.30868 0.64809 0.85852 0.0
H978 H 0.30148 0.75866 0.84575 0.0
H979 H 0.30394 0.74096 0.82071 0.0
H980 H 0.35584 0.69378 0.87319 0.0
H981 H 0.21738 0.7469 0.87364 0.0
H982 H 0.234 0.7182 0.85962 0.0
H983 H 0.24449 0.76514 0.85959 0.0
C984 C 0.30907 0.65815 0.83594 0.0
C985 C 0.30778 0.68402 0.82505 0.0
C986 C 0.3075 0.66841 0.85029 0.0
C987 C 0.30429 0.70464 0.85396 0.0
C988 C 0.30319 0.7305 0.84313 0.0
H989 H 0.35843 0.8227 0.92887 0.0
H990 H 0.35516 0.79251 0.90577 0.0
C991 C 0.30483 0.72031 0.82882 0.0
C992 C 0.30357 0.71579 0.86912 0.0
H993 H 0.25474 0.76351 0.8933 0.0
C994 C 0.33358 0.70866 0.87765 0.0
C995 C 0.27428 0.73473 0.87496 0.0
C996 C 0.24054 0.74142 0.86653 0.0
C997 C 0.33575 0.72141 0.89171 0.0
C998 C 0.30735 0.74219 0.89726 0.0
C999 C 0.27665 0.74791 0.88895 0.0
C1000 C 0.30968 0.75962 0.91141 0.0
C1001 C 0.36851 0.71276 0.90046 0.0
C1002 C 0.28458 0.75182 0.92211 0.0
C1003 C 0.28627 0.7692 0.93531 0.0
C1004 C 0.31303 0.79474 0.93799 0.0
C1005 C 0.3377 0.80291 0.92715 0.0
C1006 C 0.33607 0.78547 0.914 0.0
H1007 H 0.38257 0.68872 0.89632 0.0
H1008 H 0.38741 0.73561 0.89996 0.0
H1009 H 0.3614 0.70814 0.91182 0.0
H1010 H 0.26361 0.73238 0.92022 0.0
H1011 H 0.26607 0.76327 0.94322 0.0
H1012 H 0.26078 0.83206 0.06992 0.0
H1013 H 0.24075 0.83019 0.09471 0.0
H1014 H 0.33467 0.76964 0.1062 0.0
H1015 H 0.35533 0.77193 0.08143 0.0
H1016 H 0.22534 0.77107 0.1112 0.0
H1017 H 0.33547 0.85019 0.13549 0.0
H1018 H 0.32772 0.84894 0.11649 0.0
H1019 H 0.34987 0.8123 0.12522 0.0
C1020 C 0.27734 0.81852 0.07772 0.0
C1021 C 0.30977 0.80229 0.0737 0.0
C1022 C 0.26581 0.81744 0.09189 0.0
C1023 C 0.28646 0.80022 0.10233 0.0
C1024 C 0.31871 0.78374 0.09837 0.0
H1025 H 0.24505 0.76651 0.19318 0.0
H1026 H 0.27039 0.76421 0.16914 0.0
C1027 C 0.33036 0.78491 0.08419 0.0
C1028 C 0.27352 0.79875 0.11728 0.0
H1029 H 0.29351 0.82429 0.15136 0.0
C1030 C 0.24024 0.78271 0.11998 0.0
C1031 C 0.29311 0.81383 0.12872 0.0
C1032 C 0.32838 0.83257 0.12638 0.0
C1033 C 0.22594 0.78143 0.13381 0.0
C1034 C 0.24526 0.79697 0.14519 0.0
C1035 C 0.27884 0.81239 0.14257 0.0
C1036 C 0.23031 0.79873 0.1598 0.0
C1037 C 0.19034 0.76333 0.13616 0.0
C1038 C 0.19963 0.81921 0.16251 0.0
C1039 C 0.18543 0.82105 0.17626 0.0
C1040 C 0.20182 0.80272 0.18762 0.0
C1041 C 0.23249 0.78204 0.18485 0.0
C1042 C 0.24679 0.78033 0.17106 0.0
H1043 H 0.18329 0.74527 0.12718 0.0
H1044 H 0.19051 0.74759 0.14621 0.0
H1045 H 0.16913 0.78398 0.13704 0.0
H1046 H 0.18678 0.83396 0.15397 0.0
H1047 H 0.16178 0.8372 0.17804 0.0
H1048 H 0.14997 0.66963 0.4279 0.0
H1049 H 0.15569 0.69774 0.40448 0.0
H1050 H 0.24073 0.76463 0.42043 0.0
H1051 H 0.23615 0.73564 0.44375 0.0
H1052 H 0.14789 0.77014 0.39732 0.0
H1053 H 0.28432 0.72006 0.38447 0.0
H1054 H 0.25781 0.70172 0.39882 0.0
H1055 H 0.28023 0.74383 0.40105 0.0
C1056 C 0.17 0.69024 0.42642 0.0
C1057 C 0.19217 0.70081 0.43778 0.0
C1058 C 0.17313 0.70637 0.41305 0.0
C1059 C 0.19874 0.73313 0.4107 0.0
C1060 C 0.22098 0.7438 0.42199 0.0
H1061 H 0.24815 0.84619 0.3311 0.0
H1062 H 0.24637 0.82814 0.35624 0.0
C1063 C 0.21789 0.72761 0.4354 0.0
C1064 C 0.20175 0.74979 0.39641 0.0
H1065 H 0.2571 0.7582 0.3676 0.0
C1066 C 0.17181 0.76766 0.39084 0.0
C1067 C 0.23307 0.74665 0.38801 0.0
C1068 C 0.26565 0.7268 0.3933 0.0
C1069 C 0.17218 0.78212 0.37703 0.0
C1070 C 0.20312 0.77811 0.36849 0.0
C1071 C 0.23343 0.76116 0.37419 0.0
C1072 C 0.20383 0.78959 0.35338 0.0
C1073 C 0.13944 0.80156 0.37167 0.0
C1074 C 0.18081 0.77354 0.34345 0.0
C1075 C 0.18177 0.78368 0.32911 0.0
C1076 C 0.20592 0.81002 0.32441 0.0
C1077 C 0.22914 0.82593 0.33438 0.0
C1078 C 0.2282 0.81565 0.34874 0.0
H1079 H 0.12229 0.81092 0.38061 0.0
H1080 H 0.14701 0.82495 0.36502 0.0
H1081 H 0.12331 0.78311 0.36499 0.0
H1082 H 0.16229 0.75286 0.34677 0.0
H1083 H 0.16366 0.77074 0.32172 0.0
H1084 H 0.24078 0.71992 0.69453 0.0
H1085 H 0.21353 0.71957 0.67073 0.0
H1086 H 0.30399 0.66069 0.65444 0.0
H1087 H 0.33061 0.65981 0.6783 0.0
H1088 H 0.24026 0.74778 0.64583 0.0
H1089 H 0.22007 0.60177 0.6399 0.0
H1090 H 0.22966 0.62242 0.65688 0.0
H1091 H 0.26525 0.61326 0.64447 0.0
C1092 C 0.25429 0.70601 0.68595 0.0
C1093 C 0.28718 0.6888 0.68833 0.0
C1094 C 0.23893 0.7062 0.67234 0.0
C1095 C 0.25632 0.68934 0.6609 0.0
C1096 C 0.28961 0.67294 0.6632 0.0
H1097 H 0.23688 0.67163 0.57021 0.0
H1098 H 0.25419 0.67128 0.59534 0.0
C1099 C 0.30491 0.67269 0.67679 0.0
C1100 C 0.24057 0.6902 0.64639 0.0
H1101 H 0.21575 0.63671 0.61858 0.0
C1102 C 0.23446 0.72352 0.63992 0.0
C1103 C 0.23292 0.6585 0.63874 0.0
C1104 C 0.23696 0.62197 0.6454 0.0
C1105 C 0.22226 0.72597 0.62578 0.0
C1106 C 0.21574 0.69425 0.61801 0.0
C1107 C 0.221 0.66096 0.62458 0.0
C1108 C 0.20486 0.69498 0.60284 0.0
C1109 C 0.21763 0.76237 0.61908 0.0
C1110 C 0.17126 0.70825 0.59877 0.0
C1111 C 0.16118 0.70843 0.58439 0.0
C1112 C 0.18459 0.69531 0.57387 0.0
C1113 C 0.21822 0.682 0.57803 0.0
C1114 C 0.22817 0.68171 0.59239 0.0
H1115 H 0.22978 0.7839 0.62566 0.0
H1116 H 0.22986 0.76299 0.60828 0.0
H1117 H 0.18866 0.76817 0.61789 0.0
H1118 H 0.15274 0.71818 0.60673 0.0
H1119 H 0.13507 0.71877 0.58155 0.0
H1120 H 0.12339 0.4132 0.99157 0.0
H1121 H 0.0742 0.45595 0.99249 0.0
H1122 H 0.07333 0.44938 0.03843 0.0
H1123 H 0.12231 0.40604 0.03765 0.0
H1124 H 0.00662 0.43862 0.0262 0.0
H1125 H 0.07019 0.5607 0.00418 0.0
H1126 H 0.07615 0.522 0.99311 0.0
H1127 H 0.09586 0.5231 0.01062 0.0
C1128 C 0.11324 0.42126 0.0019 0.0
C1129 C 0.12679 0.40608 0.01454 0.0
C1130 C 0.08518 0.44586 0.0024 0.0
C1131 C 0.07035 0.45605 0.01553 0.0
C1132 C 0.08453 0.4419 0.02819 0.0
H1133 H 0.88692 0.58859 0.03713 0.0
H1134 H 0.93724 0.54694 0.03799 0.0
C1135 C 0.1126 0.41724 0.02772 0.0
C1136 C 0.03832 0.4793 0.01594 0.0
H1137 H 0.00639 0.56055 0.00534 0.0
C1138 C 0.00661 0.46543 0.02177 0.0
C1139 C 0.03843 0.51416 0.0101 0.0
C1140 C 0.07206 0.53104 0.00427 0.0
C1141 C 0.97469 0.48519 0.02158 0.0
C1142 C 0.9747 0.5198 0.01554 0.0
C1143 C 0.00649 0.53385 0.00986 0.0
C1144 C 0.94211 0.54218 0.01506 0.0
C1145 C 0.94101 0.46857 0.02749 0.0
C1146 C 0.92807 0.55306 0.00188 0.0
C1147 C 0.89932 0.57687 0.00134 0.0
C1148 C 0.88432 0.59052 0.01399 0.0
C1149 C 0.89772 0.57855 0.02719 0.0
C1150 C 0.92644 0.55466 0.02771 0.0
H1151 H 0.94361 0.43912 0.0287 0.0
H1152 H 0.93539 0.48009 0.03817 0.0
H1153 H 0.91776 0.47438 0.02049 0.0
H1154 H 0.93988 0.54369 0.99201 0.0
H1155 H 0.88973 0.58552 0.99099 0.0
H1156 H 0.40774 0.38625 0.24196 0.0
H1157 H 0.45023 0.43581 0.2428 0.0
H1158 H 0.44696 0.43425 0.28878 0.0
H1159 H 0.40458 0.3845 0.28812 0.0
H1160 H 0.43439 0.50291 0.25598 0.0
H1161 H 0.55508 0.4383 0.27926 0.0
H1162 H 0.51933 0.41299 0.27113 0.0
H1163 H 0.51391 0.43102 0.28875 0.0
C1164 C 0.41647 0.39597 0.25228 0.0
C1165 C 0.40264 0.38141 0.26498 0.0
C1166 C 0.44068 0.42437 0.25272 0.0
C1167 C 0.45177 0.43852 0.26584 0.0
C1168 C 0.43905 0.42335 0.27855 0.0
H1169 H 0.59219 0.61658 0.28685 0.0
H1170 H 0.54817 0.56832 0.28812 0.0
C1171 C 0.41476 0.39496 0.27814 0.0
C1172 C 0.47475 0.47067 0.26617 0.0
H1173 H 0.55701 0.50105 0.27624 0.0
C1174 C 0.46123 0.50256 0.26039 0.0
C1175 C 0.50955 0.47007 0.27205 0.0
C1176 C 0.52558 0.43624 0.27806 0.0
C1177 C 0.48165 0.53402 0.26034 0.0
C1178 C 0.51672 0.53329 0.26599 0.0
C1179 C 0.53005 0.50151 0.27195 0.0
C1180 C 0.54068 0.56474 0.26528 0.0
C1181 C 0.46533 0.56782 0.25441 0.0
C1182 C 0.5507 0.57895 0.25201 0.0
C1183 C 0.57571 0.60661 0.25124 0.0
C1184 C 0.59145 0.62036 0.26372 0.0
C1185 C 0.58058 0.6067 0.27703 0.0
C1186 C 0.5555 0.57904 0.27778 0.0
H1187 H 0.43562 0.56663 0.2545 0.0
H1188 H 0.47403 0.59163 0.26058 0.0
H1189 H 0.47409 0.57131 0.24319 0.0
H1190 H 0.5401 0.56784 0.24222 0.0
H1191 H 0.58356 0.61634 0.24081 0.0
H1192 H 0.6084 0.89575 0.53744 0.0
H1193 H 0.55887 0.93849 0.53878 0.0
H1194 H 0.55834 0.94743 0.49292 0.0
H1195 H 0.60761 0.90476 0.4914 0.0
H1196 H 0.55216 0.01056 0.52749 0.0
H1197 H 0.45514 0.91518 0.50365 0.0
H1198 H 0.49774 0.90119 0.51085 0.0
H1199 H 0.49546 0.92166 0.49352 0.0
C1200 C 0.59805 0.90709 0.52764 0.0
C1201 C 0.61179 0.89654 0.5143 0.0
C1202 C 0.56972 0.93144 0.52844 0.0
C1203 C 0.55459 0.94544 0.51594 0.0
C1204 C 0.56927 0.9363 0.50267 0.0
H1205 H 0.38375 0.08697 0.49257 0.0
H1206 H 0.43157 0.0426 0.49377 0.0
C1207 C 0.59758 0.91207 0.50184 0.0
C1208 C 0.52294 0.96905 0.51669 0.0
H1209 H 0.43535 0.97504 0.50664 0.0
C1210 C 0.5265 0.00278 0.52305 0.0
C1211 C 0.48959 0.95863 0.51089 0.0
C1212 C 0.48399 0.92208 0.50444 0.0
C1213 C 0.4978 0.02698 0.52334 0.0
C1214 C 0.46455 0.01673 0.51736 0.0
C1215 C 0.46087 0.98275 0.51121 0.0
C1216 C 0.43372 0.04152 0.51684 0.0
C1217 C 0.50366 0.06372 0.52958 0.0
C1218 C 0.41829 0.05467 0.52943 0.0
C1219 C 0.39093 0.0801 0.5288 0.0
C1220 C 0.37841 0.09266 0.51555 0.0
C1221 C 0.3928 0.07804 0.50296 0.0
C1222 C 0.42018 0.05269 0.50361 0.0
H1223 H 0.53256 0.0701 0.53069 0.0
H1224 H 0.4909 0.08456 0.52284 0.0
H1225 H 0.49134 0.06493 0.54034 0.0
H1226 H 0.42785 0.04574 0.53974 0.0
H1227 H 0.38031 0.09059 0.5387 0.0
H1228 H 0.09037 0.11372 0.78767 0.0
H1229 H 0.04695 0.06486 0.78803 0.0
H1230 H 0.0447 0.06431 0.74203 0.0
H1231 H 0.08772 0.11347 0.7415 0.0
H1232 H 0.97684 0.05789 0.75484 0.0
H1233 H 0.07462 0.96158 0.7777 0.0
H1234 H 0.06871 0.00193 0.78783 0.0
H1235 H 0.08791 0.00409 0.77026 0.0
C1236 C 0.08039 0.10351 0.77761 0.0
C1237 C 0.09281 0.11731 0.76455 0.0
C1238 C 0.05578 0.07541 0.77785 0.0
C1239 C 0.04332 0.06052 0.76505 0.0
C1240 C 0.0543 0.07529 0.75202 0.0
H1241 H 0.90586 0.88515 0.74034 0.0
H1242 H 0.94881 0.93432 0.74111 0.0
C1243 C 0.07886 0.10342 0.75175 0.0
C1244 C 0.01938 0.02905 0.76521 0.0
H1245 H 0.01508 0.94111 0.77492 0.0
C1246 C 0.98517 0.03234 0.75921 0.0
C1247 C 0.03047 0.99578 0.7709 0.0
C1248 C 0.06753 0.99038 0.77693 0.0
C1249 C 0.96149 0.00326 0.75889 0.0
C1250 C 0.97264 0.96998 0.76452 0.0
C1251 C 0.00674 0.96672 0.77061 0.0
C1252 C 0.94914 0.93823 0.76414 0.0
C1253 C 0.92454 0.00851 0.75273 0.0
C1254 C 0.93643 0.9232 0.77687 0.0
C1255 C 0.91198 0.89494 0.7765 0.0
C1256 C 0.9 0.88119 0.76337 0.0
C1257 C 0.91429 0.89522 0.75065 0.0
C1258 C 0.93867 0.92347 0.75104 0.0
H1259 H 0.91731 0.03727 0.75198 0.0
H1260 H 0.92367 0.99701 0.74182 0.0
H1261 H 0.9041 0.99461 0.75931 0.0
H1262 H 0.94451 0.93412 0.78708 0.0
H1263 H 0.90163 0.88471 0.7865 0.0
H1264 H 0.88471 0.40109 0.5408 0.0
H1265 H 0.93462 0.44329 0.54228 0.0
H1266 H 0.93579 0.45256 0.49643 0.0
H1267 H 0.8861 0.41045 0.49477 0.0
H1268 H 0.00328 0.43358 0.50982 0.0
H1269 H 0.93895 0.55313 0.53425 0.0
H1270 H 0.93075 0.51074 0.54273 0.0
H1271 H 0.91354 0.51892 0.52516 0.0
C1272 C 0.89512 0.41258 0.53103 0.0
C1273 C 0.88146 0.40224 0.51766 0.0
C1274 C 0.9236 0.43672 0.53192 0.0
C1275 C 0.93873 0.45099 0.51947 0.0
C1276 C 0.9244 0.44175 0.50615 0.0
H1277 H 0.11345 0.58299 0.49322 0.0
H1278 H 0.06588 0.53879 0.49551 0.0
C1279 C 0.89593 0.41774 0.50524 0.0
C1280 C 0.97104 0.47366 0.52016 0.0
H1281 H 0.00118 0.55592 0.53025 0.0
C1282 C 0.00292 0.46031 0.51432 0.0
C1283 C 0.97041 0.50826 0.52618 0.0
C1284 C 0.93659 0.52389 0.53237 0.0
C1285 C 0.03426 0.48089 0.51418 0.0
C1286 C 0.0334 0.51598 0.51979 0.0
C1287 C 0.00172 0.52898 0.52597 0.0
C1288 C 0.06436 0.54043 0.51859 0.0
C1289 C 0.06802 0.46482 0.50811 0.0
C1290 C 0.07921 0.55616 0.53082 0.0
C1291 C 0.10634 0.58168 0.52956 0.0
C1292 C 0.11888 0.59211 0.51602 0.0
C1293 C 0.10459 0.5755 0.50382 0.0
C1294 C 0.07747 0.55006 0.5051 0.0
H1295 H 0.06728 0.43512 0.50847 0.0
H1296 H 0.07072 0.47296 0.49677 0.0
H1297 H 0.09205 0.4742 0.51398 0.0
H1298 H 0.06932 0.54916 0.54132 0.0
H1299 H 0.11667 0.59399 0.53917 0.0
H1300 H 0.58578 0.38482 0.78746 0.0
H1301 H 0.54283 0.43403 0.78782 0.0
H1302 H 0.53957 0.43383 0.74183 0.0
H1303 H 0.58282 0.38486 0.7413 0.0
H1304 H 0.55351 0.50118 0.75392 0.0
H1305 H 0.4353 0.43685 0.77907 0.0
H1306 H 0.47647 0.43121 0.7887 0.0
H1307 H 0.47153 0.41142 0.77134 0.0
C1308 C 0.57549 0.39476 0.77741 0.0
C1309 C 0.58786 0.3809 0.76435 0.0
C1310 C 0.55084 0.42284 0.77765 0.0
C1311 C 0.53789 0.43738 0.76485 0.0
C1312 C 0.54925 0.4229 0.75182 0.0
H1313 H 0.40146 0.6141 0.74136 0.0
H1314 H 0.44495 0.56546 0.74187 0.0
C1315 C 0.57389 0.39483 0.75155 0.0
C1316 C 0.51445 0.46926 0.76503 0.0
H1317 H 0.43325 0.49988 0.77631 0.0
C1318 C 0.52714 0.50091 0.75876 0.0
C1319 C 0.48024 0.46879 0.77145 0.0
C1320 C 0.46485 0.43519 0.77792 0.0
C1321 C 0.5066 0.5323 0.75884 0.0
C1322 C 0.47228 0.53178 0.76517 0.0
C1323 C 0.45967 0.50019 0.77152 0.0
C1324 C 0.44839 0.56333 0.76491 0.0
C1325 C 0.52202 0.56587 0.75236 0.0
C1326 C 0.43591 0.57826 0.7777 0.0
C1327 C 0.4109 0.60604 0.77747 0.0
C1328 C 0.39769 0.61915 0.76441 0.0
C1329 C 0.41111 0.60477 0.75161 0.0
C1330 C 0.43612 0.57704 0.75187 0.0
H1331 H 0.55166 0.56453 0.75159 0.0
H1332 H 0.51123 0.56926 0.74141 0.0
H1333 H 0.51455 0.58982 0.75869 0.0
H1334 H 0.44502 0.56793 0.78788 0.0
H1335 H 0.40108 0.61638 0.78753 0.0
H1336 H 0.62112 0.09246 0.03922 0.0
H1337 H 0.57055 0.05111 0.04066 0.0
H1338 H 0.56866 0.04294 0.99478 0.0
H1339 H 0.61903 0.08429 0.99317 0.0
H1340 H 0.50185 0.06253 0.00809 0.0
H1341 H 0.56367 0.94188 0.03265 0.0
H1342 H 0.57251 0.98388 0.04131 0.0
H1343 H 0.58979 0.97584 0.02373 0.0
C1344 C 0.61042 0.08137 0.02944 0.0
C1345 C 0.62408 0.09184 0.01607 0.0
C1346 C 0.58156 0.05769 0.0303 0.0
C1347 C 0.56602 0.04398 0.01783 0.0
C1348 C 0.58036 0.0533 0.00452 0.0
H1349 H 0.38743 0.91542 0.99265 0.0
H1350 H 0.43615 0.95844 0.99452 0.0
C1351 C 0.60923 0.07687 0.00364 0.0
C1352 C 0.53324 0.02195 0.01854 0.0
H1353 H 0.50115 0.94077 0.0291 0.0
C1354 C 0.50162 0.03591 0.01269 0.0
C1355 C 0.53308 0.98748 0.0247 0.0
C1356 C 0.56657 0.97112 0.03088 0.0
C1357 C 0.46975 0.01614 0.01274 0.0
C1358 C 0.46978 0.98123 0.01854 0.0
C1359 C 0.50123 0.96758 0.02468 0.0
C1360 C 0.43811 0.95759 0.0176 0.0
C1361 C 0.43632 0.0329 0.00667 0.0
C1362 C 0.42309 0.94271 0.02997 0.0
C1363 C 0.39526 0.91785 0.02895 0.0
C1364 C 0.3822 0.90724 0.01552 0.0
C1365 C 0.39668 0.92306 0.00317 0.0
C1366 C 0.42447 0.94783 0.00421 0.0
H1367 H 0.43787 0.06258 0.00684 0.0
H1368 H 0.43315 0.02441 0.9954 0.0
H1369 H 0.41217 0.0244 0.01268 0.0
H1370 H 0.43338 0.94982 0.04039 0.0
H1371 H 0.38483 0.90614 0.03867 0.0
H1372 H 0.09324 0.8859 0.24149 0.0
H1373 H 0.05084 0.93556 0.24225 0.0
H1374 H 0.05549 0.93553 0.28823 0.0
H1375 H 0.0983 0.88613 0.28762 0.0
H1376 H 0.9837 0.94275 0.25565 0.0
H1377 H 0.0836 0.03849 0.27737 0.0
H1378 H 0.0961 0.99577 0.26991 0.0
H1379 H 0.07787 0.99828 0.28762 0.0
C1380 C 0.08505 0.89617 0.25179 0.0
C1381 C 0.09948 0.88223 0.26449 0.0
C1382 C 0.06084 0.92459 0.25219 0.0
C1383 C 0.0507 0.93964 0.26528 0.0
C1384 C 0.06366 0.92475 0.27801 0.0
H1385 H 0.91174 0.11689 0.28746 0.0
H1386 H 0.95464 0.0675 0.28774 0.0
C1387 C 0.0879 0.89633 0.27763 0.0
C1388 C 0.02708 0.97136 0.26554 0.0
H1389 H 0.02417 0.05955 0.27495 0.0
C1390 C 0.99252 0.96831 0.25985 0.0
C1391 C 0.03879 0.00463 0.27101 0.0
C1392 C 0.07621 0.00975 0.27672 0.0
C1393 C 0.96911 0.99761 0.25962 0.0
C1394 C 0.98089 0.03092 0.26502 0.0
C1395 C 0.01535 0.03394 0.2708 0.0
C1396 C 0.95761 0.06286 0.26477 0.0
C1397 C 0.93177 0.99258 0.25382 0.0
C1398 C 0.94623 0.07737 0.25175 0.0
C1399 C 0.9218 0.10561 0.25152 0.0
C1400 C 0.90839 0.11989 0.26434 0.0
C1401 C 0.92139 0.10647 0.27739 0.0
C1402 C 0.94586 0.07821 0.27758 0.0
H1403 H 0.92423 0.96387 0.25326 0.0
H1404 H 0.91184 0.00684 0.26052 0.0
H1405 H 0.93038 0.00381 0.24287 0.0
H1406 H 0.95562 0.06629 0.24174 0.0
H1407 H 0.91259 0.11544 0.24128 0.0
H1408 H 0.62532 0.26562 0.98752 0.0
H1409 H 0.56865 0.29784 0.986 0.0
H1410 H 0.55822 0.2933 0.0318 0.0
H1411 H 0.6151 0.26189 0.03346 0.0
H1412 H 0.50986 0.26274 0.994 0.0
H1413 H 0.51539 0.39021 0.02371 0.0
H1414 H 0.55522 0.36707 0.01785 0.0
H1415 H 0.53296 0.35392 0.03408 0.0
C1416 C 0.61165 0.27261 0.99732 0.0
C1417 C 0.62448 0.2606 0.0106 0.0
C1418 C 0.57922 0.29106 0.99643 0.0
C1419 C 0.55912 0.29794 0.00878 0.0
C1420 C 0.57348 0.28889 0.02214 0.0
H1421 H 0.33685 0.27407 0.02367 0.0
H1422 H 0.40238 0.27234 0.02236 0.0
C1423 C 0.60602 0.27064 0.02306 0.0
C1424 C 0.52085 0.30797 0.00758 0.0
H1425 H 0.45658 0.36307 0.02133 0.0
C1426 C 0.49839 0.28516 0.99974 0.0
C1427 C 0.50579 0.33721 0.01505 0.0
C1428 C 0.5287 0.3637 0.02303 0.0
C1429 C 0.46121 0.28969 0.99975 0.0
C1430 C 0.44603 0.31745 0.00797 0.0
C1431 C 0.46841 0.34149 0.01521 0.0
C1432 C 0.40686 0.32045 0.00965 0.0
C1433 C 0.4383 0.26416 0.99126 0.0
C1434 C 0.38798 0.3485 0.00317 0.0
C1435 C 0.35061 0.34947 0.0039 0.0
C1436 C 0.33183 0.32257 0.01121 0.0
C1437 C 0.35087 0.29514 0.01802 0.0
C1438 C 0.38814 0.29408 0.01725 0.0
H1439 H 0.4541 0.24976 0.98302 0.0
H1440 H 0.42652 0.24401 0.99858 0.0
H1441 H 0.41599 0.27858 0.98595 0.0
H1442 H 0.40207 0.36905 0.99727 0.0
H1443 H 0.33633 0.371 0.99866 0.0
H1444 H 0.71656 0.83147 0.2458 0.0
H1445 H 0.71811 0.89697 0.24743 0.0
H1446 H 0.6312 0.89456 0.27768 0.0
H1447 H 0.62946 0.82891 0.27603 0.0
H1448 H 0.63328 0.95164 0.25142 0.0
H1449 H 0.74865 0.94389 0.2889 0.0
H1450 H 0.74985 0.91521 0.27347 0.0
H1451 H 0.71665 0.90798 0.28698 0.0
C1452 C 0.69745 0.84503 0.25261 0.0
C1453 C 0.67299 0.82543 0.26083 0.0
C1454 C 0.69836 0.88227 0.25354 0.0
C1455 C 0.67475 0.90034 0.26267 0.0
C1456 C 0.64949 0.88093 0.27055 0.0
H1457 H 0.73313 0.11617 0.28726 0.0
H1458 H 0.7002 0.05981 0.28812 0.0
C1459 C 0.64867 0.84362 0.26966 0.0
C1460 C 0.67857 0.93923 0.26472 0.0
H1461 H 0.73455 0.00073 0.27949 0.0
C1462 C 0.65507 0.96257 0.2577 0.0
C1463 C 0.70667 0.95313 0.2731 0.0
C1464 C 0.73188 0.92889 0.28115 0.0
C1465 C 0.66011 -0.0002 0.25831 0.0
C1466 C 0.68957 0.01365 0.26602 0.0
C1467 C 0.71191 0.99016 0.2736 0.0
C1468 C 0.70043 0.05172 0.26526 0.0
C1469 C 0.63416 0.02384 0.25058 0.0
C1470 C 0.71004 0.06668 0.25207 0.0
C1471 C 0.72875 0.09898 0.25153 0.0
C1472 C 0.73866 0.11661 0.26419 0.0
C1473 C 0.72623 0.10315 0.27731 0.0
C1474 C 0.70737 0.07092 0.27783 0.0
H1475 H 0.60738 0.01113 0.24967 0.0
H1476 H 0.63124 0.04998 0.25607 0.0
H1477 H 0.64418 0.02879 0.23961 0.0
H1478 H 0.70558 0.05211 0.24225 0.0
H1479 H 0.73773 0.10862 0.24123 0.0
H1480 H 0.88008 0.22772 0.48864 0.0
H1481 H 0.9369 0.19578 0.48702 0.0
H1482 H 0.9485 0.20154 0.53275 0.0
H1483 H 0.89148 0.23262 0.53452 0.0
H1484 H 0.99544 0.23145 0.49448 0.0
H1485 H 0.99236 0.10512 0.52501 0.0
H1486 H 0.95205 0.12764 0.51928 0.0
H1487 H 0.97473 0.14147 0.53532 0.0
C1488 C 0.89405 0.22103 0.49841 0.0
C1489 C 0.88152 0.2333 0.51169 0.0
C1490 C 0.92656 0.20273 0.49746 0.0
C1491 C 0.94704 0.19631 0.50975 0.0
C1492 C 0.93296 0.20558 0.52313 0.0
H1493 H 0.16869 0.22497 0.52387 0.0
H1494 H 0.10315 0.22546 0.5225 0.0
C1495 C 0.90033 0.22364 0.52411 0.0
C1496 C 0.98539 0.18667 0.50844 0.0
H1497 H 0.05076 0.13324 0.52242 0.0
C1498 C 0.00735 0.20945 0.50035 0.0
C1499 C 0.00104 0.15799 0.51607 0.0
C1500 C 0.97871 0.13146 0.52428 0.0
C1501 C 0.04459 0.20553 0.5003 0.0
C1502 C 0.06036 0.17843 0.5087 0.0
C1503 C 0.03849 0.15433 0.51616 0.0
C1504 C 0.09958 0.17631 0.51039 0.0
C1505 C 0.06694 0.23102 0.49154 0.0
C1506 C 0.11899 0.14808 0.5043 0.0
C1507 C 0.15638 0.14782 0.50507 0.0
C1508 C 0.17463 0.17567 0.51201 0.0
C1509 C 0.15508 0.20327 0.51846 0.0
C1510 C 0.1178 0.2036 0.51765 0.0
H1511 H 0.05082 0.24447 0.48315 0.0
H1512 H 0.07817 0.25194 0.49864 0.0
H1513 H 0.08962 0.21681 0.48639 0.0
H1514 H 0.10529 0.12678 0.49869 0.0
H1515 H 0.17107 0.1261 0.50016 0.0
H1516 H 0.7643 0.38346 0.78624 0.0
H1517 H 0.79546 0.44088 0.78675 0.0
H1518 H 0.78815 0.44781 0.74093 0.0
H1519 H 0.7575 0.39027 0.74022 0.0
H1520 H 0.8521 0.48107 0.75366 0.0
H1521 H 0.7224 0.5226 0.7779 0.0
H1522 H 0.7464 0.48778 0.78702 0.0
H1523 H 0.72842 0.47957 0.76955 0.0
C1524 C 0.77034 0.39656 0.77621 0.0
C1525 C 0.75747 0.38277 0.76322 0.0
C1526 C 0.78816 0.42939 0.77654 0.0
C1527 C 0.79324 0.44884 0.76391 0.0
C1528 C 0.78423 0.43323 0.7508 0.0
H1529 H 0.77569 0.67088 0.74567 0.0
H1530 H 0.7742 0.60537 0.74634 0.0
C1531 C 0.76656 0.40035 0.75044 0.0
C1532 C 0.80164 0.48742 0.76445 0.0
H1533 H 0.76422 0.56769 0.77322 0.0
C1534 C 0.8332 0.50007 0.75809 0.0
C1535 C 0.77648 0.51203 0.77002 0.0
C1536 C 0.74137 0.50002 0.77642 0.0
C1537 C 0.84009 0.53695 0.75706 0.0
C1538 C 0.81474 0.56141 0.76253 0.0
C1539 C 0.78356 0.54869 0.76908 0.0
C1540 C 0.81876 0.60048 0.76097 0.0
C1541 C 0.87367 0.54967 0.74973 0.0
C1542 C 0.84448 0.61919 0.7689 0.0
C1543 C 0.8453 0.65656 0.76852 0.0
C1544 C 0.82035 0.67553 0.76025 0.0
C1545 C 0.79529 0.65672 0.75205 0.0
C1546 C 0.79441 0.61944 0.75244 0.0
H1547 H 0.88818 0.52749 0.74437 0.0
H1548 H 0.8671 0.57048 0.74168 0.0
H1549 H 0.8918 0.56194 0.75772 0.0
H1550 H 0.86314 0.60497 0.77568 0.0
H1551 H 0.86498 0.67068 0.77487 0.0
H1552 H 0.6694 0.27287 0.52329 0.0
H1553 H 0.60389 0.27225 0.52192 0.0
H1554 H 0.60566 0.37219 0.49894 0.0
H1555 H 0.67147 0.37297 0.50038 0.0
H1556 H 0.55158 0.36343 0.52333 0.0
H1557 H 0.55087 0.25664 0.48214 0.0
H1558 H 0.57925 0.2481 0.49727 0.0
H1559 H 0.58941 0.2846 0.48548 0.0
C1560 C 0.65572 0.29481 0.51807 0.0
C1561 C 0.67517 0.32288 0.51189 0.0
C1562 C 0.61846 0.29441 0.51726 0.0
C1563 C 0.60016 0.32208 0.51026 0.0
C1564 C 0.61946 0.35064 0.50436 0.0
H1565 H 0.37997 0.27095 0.48948 0.0
H1566 H 0.43643 0.30354 0.48786 0.0
C1567 C 0.65684 0.35096 0.50512 0.0
C1568 C 0.56092 0.32003 0.5087 0.0
H1569 H 0.4959 0.26791 0.49408 0.0
C1570 C 0.5392 0.34298 0.51677 0.0
C1571 C 0.54505 0.29376 0.49994 0.0
C1572 C 0.56726 0.26951 0.4906 0.0
C1573 C 0.50181 0.33887 0.51693 0.0
C1574 C 0.48611 0.31087 0.50894 0.0
C1575 C 0.50787 0.28937 0.50024 0.0
C1576 C 0.44801 0.30052 0.51045 0.0
C1577 C 0.47962 0.3641 0.52582 0.0
C1578 C 0.43492 0.28952 0.52379 0.0
C1579 C 0.40251 0.27107 0.52478 0.0
C1580 C 0.38296 0.26276 0.51239 0.0
C1581 C 0.39457 0.27658 0.49921 0.0
C1582 C 0.42683 0.29527 0.49826 0.0
H1583 H 0.49296 0.39052 0.52689 0.0
H1584 H 0.45262 0.36811 0.52114 0.0
H1585 H 0.47645 0.35279 0.5367 0.0
H1586 H 0.45104 0.29262 0.53331 0.0
H1587 H 0.39436 0.26085 0.53509 0.0
H1588 H 0.62231 0.17076 0.74902 0.0
H1589 H 0.62417 0.10503 0.74802 0.0
H1590 H 0.71783 0.10526 0.77494 0.0
H1591 H 0.71635 0.17072 0.77575 0.0
H1592 H 0.72358 0.06629 0.74852 0.0
H1593 H 0.60289 0.02917 0.7801 0.0
H1594 H 0.59771 0.06248 0.76636 0.0
H1595 H 0.62434 0.07228 0.78178 0.0
C1596 C 0.64314 0.15659 0.75474 0.0
C1597 C 0.6693 0.17549 0.76241 0.0
C1598 C 0.64398 0.11921 0.75428 0.0
C1599 C 0.67093 0.10042 0.76152 0.0
C1600 C 0.6967 0.11935 0.76936 0.0
H1601 H 0.73161 0.89166 0.78425 0.0
H1602 H 0.7012 0.94929 0.78296 0.0
C1603 C 0.69583 0.15661 0.76983 0.0
C1604 C 0.67425 0.06122 0.76015 0.0
H1605 H 0.63749 0.98186 0.77069 0.0
C1606 C 0.70459 0.04776 0.75322 0.0
C1607 C 0.64939 0.03736 0.76636 0.0
C1608 C 0.61677 0.05083 0.77416 0.0
C1609 C 0.71142 0.011 0.75266 0.0
C1610 C 0.68679 0.98699 0.759 0.0
C1611 C 0.65597 0.00037 0.76569 0.0
C1612 C 0.69514 0.94843 0.76001 0.0
C1613 C 0.74585 0.9983 0.74589 0.0
C1614 C 0.69954 0.92786 0.74762 0.0
C1615 C 0.71724 0.895 0.74829 0.0
C1616 C 0.73055 0.88221 0.76138 0.0
C1617 C 0.72208 0.90089 0.77397 0.0
C1618 C 0.70461 0.93385 0.77327 0.0
H1619 H 0.76478 0.02065 0.74388 0.0
H1620 H 0.75934 0.97828 0.7528 0.0
H1621 H 0.73978 0.98538 0.73551 0.0
H1622 H 0.6918 0.93848 0.73732 0.0
H1623 H 0.72279 0.881 0.73841 0.0
H1624 H 0.11388 0.23652 0.03322 0.0
H1625 H 0.05691 0.20526 0.03164 0.0
H1626 H 0.06804 0.19865 0.98591 0.0
H1627 H 0.12481 0.23071 0.98734 0.0
H1628 H 0.00884 0.23363 0.99346 0.0
H1629 H 0.01492 0.10769 0.02422 0.0
H1630 H 0.03204 0.14461 0.03434 0.0
H1631 H 0.05466 0.13086 0.01827 0.0
C1632 C 0.10491 0.22738 0.02285 0.0
C1633 C 0.12365 0.23673 0.01037 0.0
C1634 C 0.07231 0.20922 0.02198 0.0
C1635 C 0.05816 0.19955 0.00866 0.0
C1636 C 0.07845 0.20589 0.9963 0.0
H1637 H 0.83605 0.12337 0.9994 0.0
H1638 H 0.90177 0.12603 0.99785 0.0
C1639 C 0.11093 0.22425 0.99715 0.0
C1640 C 0.01998 0.1892 0.00745 0.0
H1641 H 0.95596 0.13425 0.02149 0.0
C1642 C 0.99746 0.21141 0.99936 0.0
C1643 C 0.00504 0.1602 0.01512 0.0
C1644 C 0.02803 0.13427 0.02335 0.0
C1645 C 0.96031 0.20657 0.99931 0.0
C1646 C 0.94523 0.17911 0.00772 0.0
C1647 C 0.9677 0.15562 0.01521 0.0
C1648 C 0.90605 0.17594 0.00939 0.0
C1649 C 0.93735 0.23145 0.99053 0.0
C1650 C 0.88704 0.20281 0.01658 0.0
C1651 C 0.8498 0.20135 0.01744 0.0
C1652 C 0.83105 0.17298 0.01114 0.0
C1653 C 0.85011 0.14562 0.00424 0.0
C1654 C 0.88746 0.14701 0.00341 0.0
H1655 H 0.95313 0.24522 0.98211 0.0
H1656 H 0.91502 0.21666 0.9854 0.0
H1657 H 0.92562 0.25215 0.99761 0.0
H1658 H 0.90104 0.22521 0.02133 0.0
H1659 H 0.83557 0.22276 0.02278 0.0
H1660 H 0.86997 0.32918 0.24729 0.0
H1661 H 0.86688 0.39473 0.24555 0.0
H1662 H 0.77578 0.39496 0.27383 0.0
H1663 H 0.77838 0.32961 0.27534 0.0
H1664 H 0.76619 0.43235 0.24774 0.0
H1665 H 0.89102 0.47291 0.27581 0.0
H1666 H 0.8952 0.43951 0.26208 0.0
H1667 H 0.87101 0.4293 0.2781 0.0
C1668 C 0.84944 0.34341 0.25316 0.0
C1669 C 0.82431 0.32461 0.2614 0.0
C1670 C 0.84791 0.38072 0.25227 0.0
C1671 C 0.82133 0.39961 0.25968 0.0
C1672 C 0.79662 0.38081 0.2681 0.0
H1673 H 0.76485 0.61048 0.28137 0.0
H1674 H 0.7946 0.5526 0.27985 0.0
C1675 C 0.79815 0.34361 0.26899 0.0
C1676 C 0.81733 0.4387 0.25794 0.0
H1677 H 0.85513 0.51918 0.26631 0.0
C1678 C 0.78576 0.45139 0.25166 0.0
C1679 C 0.84296 0.46327 0.26313 0.0
C1680 C 0.87692 0.45077 0.27026 0.0
C1681 C 0.77854 0.48805 0.25077 0.0
C1682 C 0.804 0.51277 0.25606 0.0
C1683 C 0.83598 0.50014 0.26209 0.0
C1684 C 0.79556 0.55138 0.25678 0.0
C1685 C 0.74291 0.49992 0.24479 0.0
C1686 C 0.78848 0.57089 0.24431 0.0
C1687 C 0.77113 0.60394 0.24512 0.0
C1688 C 0.76084 0.61798 0.25844 0.0
C1689 C 0.77194 0.60029 0.27093 0.0
C1690 C 0.78907 0.56716 0.2701 0.0
H1691 H 0.72382 0.47731 0.24369 0.0
H1692 H 0.73053 0.52057 0.25173 0.0
H1693 H 0.74703 0.51179 0.23407 0.0
H1694 H 0.79396 0.55937 0.23393 0.0
H1695 H 0.7635 0.61711 0.23528 0.0
H1696 H 0.11205 0.76931 0.53411 0.0
H1697 H 0.05351 0.79836 0.53421 0.0
H1698 H 0.04746 0.78814 0.48848 0.0
H1699 H 0.10607 0.75933 0.48817 0.0
H1700 H 0.01243 0.85325 0.50156 0.0
H1701 H 0.97387 0.72146 0.52472 0.0
H1702 H 0.00862 0.74571 0.5338 0.0
H1703 H 0.01651 0.72868 0.51618 0.0
C1704 C 0.09891 0.77431 0.524 0.0
C1705 C 0.11335 0.76112 0.51116 0.0
C1706 C 0.06544 0.79093 0.5241 0.0
C1707 C 0.04602 0.79466 0.51139 0.0
C1708 C 0.06206 0.7853 0.4984 0.0
H1709 H 0.82283 0.77614 0.49342 0.0
H1710 H 0.88843 0.77509 0.49359 0.0
C1711 C 0.09555 0.76871 0.49827 0.0
C1712 C 0.00719 0.802 0.51181 0.0
H1713 H 0.92773 0.7625 0.52039 0.0
C1714 C 0.99384 0.83369 0.5058 0.0
C1715 C 0.98314 0.77601 0.51715 0.0
C1716 C 0.99604 0.7409 0.52325 0.0
C1717 C 0.95679 0.83998 0.50499 0.0
C1718 C 0.93288 0.81387 0.51027 0.0
C1719 C 0.9463 0.78243 0.51638 0.0
C1720 C 0.89366 0.81763 0.5091 0.0
C1721 C 0.94329 0.87387 0.49813 0.0
C1722 C 0.8751 0.84202 0.51773 0.0
C1723 C 0.83768 0.84255 0.51766 0.0
C1724 C 0.81849 0.81868 0.50899 0.0
C1725 C 0.83715 0.79493 0.50011 0.0
C1726 C 0.87448 0.7943 0.50022 0.0
H1727 H 0.96511 0.88924 0.49291 0.0
H1728 H 0.92248 0.86754 0.49005 0.0
H1729 H 0.93075 0.89106 0.50638 0.0
H1730 H 0.8895 0.85987 0.52479 0.0
H1731 H 0.82371 0.8612 0.52453 0.0
H1732 H 0.21106 0.33034 0.77961 0.0
H1733 H 0.20889 0.39585 0.77932 0.0
H1734 H 0.12361 0.39257 0.74837 0.0
H1735 H 0.12498 0.32682 0.74891 0.0
H1736 H 0.20592 0.43419 0.74543 0.0
H1737 H 0.10954 0.46783 0.78873 0.0
H1738 H 0.13897 0.42988 0.79081 0.0
H1739 H 0.10414 0.42851 0.7777 0.0
C1740 C 0.19139 0.3436 0.77296 0.0
C1741 C 0.16832 0.32369 0.76422 0.0
C1742 C 0.19021 0.38089 0.7728 0.0
C1743 C 0.16596 0.39878 0.76389 0.0
C1744 C 0.14231 0.37906 0.75537 0.0
H1745 H 0.21017 0.62218 0.7422 0.0
H1746 H 0.17803 0.56518 0.7415 0.0
C1747 C 0.14334 0.34168 0.7556 0.0
C1748 C 0.16803 0.43798 0.76259 0.0
H1749 H 0.14315 0.51556 0.77894 0.0
C1750 C 0.19177 0.45221 0.75254 0.0
C1751 C 0.14963 0.46093 0.772 0.0
C1752 C 0.12397 0.44628 0.78295 0.0
C1753 C 0.19909 0.48894 0.7521 0.0
C1754 C 0.1813 0.51212 0.76175 0.0
C1755 C 0.15642 0.49786 0.77146 0.0
C1756 C 0.1919 0.55017 0.76311 0.0
C1757 C 0.22759 0.50211 0.74193 0.0
C1758 C 0.20752 0.56198 0.77588 0.0
C1759 C 0.2253 0.59476 0.77639 0.0
C1760 C 0.2281 0.61611 0.76408 0.0
C1761 C 0.20919 0.60595 0.75176 0.0
C1762 C 0.19092 0.57333 0.75132 0.0
H1763 H 0.24366 0.47982 0.73742 0.0
H1764 H 0.21471 0.51641 0.73292 0.0
H1765 H 0.24607 0.52095 0.74737 0.0
H1766 H 0.20831 0.54468 0.78516 0.0
H1767 H 0.23933 0.60185 0.7861 0.0
H1768 H 0.67404 0.7191 0.02544 0.0
H1769 H 0.60858 0.7219 0.02501 0.0
H1770 H 0.60545 0.62873 0.99791 0.0
H1771 H 0.67119 0.6255 0.99854 0.0
H1772 H 0.56874 0.72905 0.999 0.0
H1773 H 0.53023 0.6083 0.03023 0.0
H1774 H 0.57392 0.62869 0.03169 0.0
H1775 H 0.56281 0.60264 0.01625 0.0
C1776 C 0.65931 0.69893 0.01958 0.0
C1777 C 0.6774 0.67211 0.01202 0.0
C1778 C 0.62204 0.70057 0.01932 0.0
C1779 C 0.60228 0.67532 0.01155 0.0
C1780 C 0.62026 0.64812 0.00414 0.0
H1781 H 0.38337 0.73018 0.98879 0.0
H1782 H 0.44077 0.69898 0.98775 0.0
C1783 C 0.65766 0.6465 0.00439 0.0
C1784 C 0.56307 0.67946 0.0104 0.0
H1785 H 0.48324 0.64368 0.02097 0.0
C1786 C 0.54998 0.71023 0.00367 0.0
C1787 C 0.5389 0.65484 0.01658 0.0
C1788 C 0.55196 0.62179 0.02419 0.0
C1789 C 0.51329 0.71766 0.00324 0.0
C1790 C 0.48898 0.69321 0.00949 0.0
C1791 C 0.50198 0.66203 0.01603 0.0
C1792 C 0.45046 0.70192 0.01046 0.0
C1793 C 0.50102 0.75243 0.99664 0.0
C1794 C 0.43579 0.7113 0.02371 0.0
C1795 C 0.40285 0.72889 0.02439 0.0
C1796 C 0.38433 0.73756 0.01178 0.0
C1797 C 0.39726 0.72444 0.99868 0.0
C1798 C 0.43007 0.70662 0.99805 0.0
H1799 H 0.52361 0.77115 0.99473 0.0
H1800 H 0.48806 0.74686 0.98622 0.0
H1801 H 0.48111 0.76592 0.00359 0.0
H1802 H 0.4511 0.70768 0.03343 0.0
H1803 H 0.39353 0.73834 0.03466 0.0
H1804 H 0.2769 0.16901 0.27474 0.0
H1805 H 0.27695 0.10355 0.2738 0.0
H1806 H 0.37249 0.10572 0.24797 0.0
H1807 H 0.37283 0.17146 0.24913 0.0
H1808 H 0.27366 0.0646 0.24755 0.0
H1809 H 0.39373 0.0302 0.27998 0.0
H1810 H 0.37143 0.07294 0.2814 0.0
H1811 H 0.39893 0.06336 0.2662 0.0
C1812 C 0.29816 0.15543 0.26905 0.0
C1813 C 0.32483 0.17498 0.262 0.0
C1814 C 0.29815 0.11817 0.26849 0.0
C1815 C 0.3249 0.09991 0.26092 0.0
C1816 C 0.35194 0.11937 0.25403 0.0
H1817 H 0.27605 0.87917 0.23854 0.0
H1818 H 0.30685 0.9367 0.23705 0.0
C1819 C 0.35193 0.15676 0.25459 0.0
C1820 C 0.32261 0.06063 0.2595 0.0
H1821 H 0.36051 0.98215 0.27043 0.0
C1822 C 0.29285 0.0465 0.25239 0.0
C1823 C 0.34771 0.03734 0.26589 0.0
C1824 C 0.37972 0.05151 0.27389 0.0
C1825 C 0.28673 0.0096 0.25189 0.0
C1826 C 0.31154 0.98615 0.25844 0.0
C1827 C 0.34188 0.00022 0.26526 0.0
C1828 C 0.30367 0.94752 0.25968 0.0
C1829 C 0.25271 0.99622 0.24499 0.0
C1830 C 0.29451 0.93336 0.27304 0.0
C1831 C 0.27722 0.90034 0.27398 0.0
C1832 C 0.26859 0.88121 0.26152 0.0
C1833 C 0.28171 0.89354 0.24832 0.0
C1834 C 0.29929 0.92644 0.24743 0.0
H1835 H 0.23348 0.01821 0.24281 0.0
H1836 H 0.2593 0.98319 0.23469 0.0
H1837 H 0.23932 0.97613 0.2519 0.0
H1838 H 0.29794 0.94916 0.28264 0.0
H1839 H 0.26787 0.89149 0.28433 0.0
H1840 H 0.89042 0.75838 0.98713 0.0
H1841 H 0.94818 0.78886 0.9871 0.0
H1842 H 0.94419 0.79759 0.03292 0.0
H1843 H 0.88648 0.76696 0.03315 0.0
H1844 H 0.98233 0.8552 0.00096 0.0
H1845 H 0.02493 0.72198 0.02156 0.0
H1846 H 0.98194 0.729 0.01326 0.0
H1847 H 0.9897 0.7443 0.03114 0.0
C1848 C 0.90114 0.76783 0.99719 0.0
C1849 C 0.88425 0.75935 0.01019 0.0
C1850 C 0.93414 0.78537 0.99712 0.0
C1851 C 0.95057 0.79481 0.01002 0.0
C1852 C 0.93193 0.79017 0.02287 0.0
H1853 H 0.17009 0.86698 0.02417 0.0
H1854 H 0.10439 0.86373 0.02388 0.0
C1855 C 0.89896 0.7726 0.02297 0.0
C1856 C 0.98922 0.80298 0.01022 0.0
H1857 H 0.06986 0.76473 0.01786 0.0
C1858 C 0.00155 0.83566 0.00475 0.0
C1859 C 0.01407 0.77704 0.01497 0.0
C1860 C 0.00222 0.74097 0.02048 0.0
C1861 C 0.0384 0.84308 0.00396 0.0
C1862 C 0.06313 0.81709 0.00873 0.0
C1863 C 0.0507 0.78455 0.01424 0.0
C1864 C 0.10223 0.82228 0.0078 0.0
C1865 C 0.05079 0.87812 0.99772 0.0
C1866 C 0.12255 0.80003 0.99887 0.0
C1867 C 0.15984 0.80171 0.99909 0.0
C1868 C 0.17735 0.82543 0.00834 0.0
C1869 C 0.15703 0.84833 0.01702 0.0
C1870 C 0.11965 0.84674 0.01677 0.0
H1871 H 0.02861 0.89297 0.9925 0.0
H1872 H 0.06198 0.89508 0.00635 0.0
H1873 H 0.07236 0.8735 0.98978 0.0
H1874 H 0.10951 0.78077 0.99198 0.0
H1875 H 0.17502 0.78364 0.99238 0.0
H1876 H 0.12923 0.67122 0.2495 0.0
H1877 H 0.12984 0.60546 0.24868 0.0
H1878 H 0.22574 0.60452 0.2743 0.0
H1879 H 0.22551 0.67001 0.27491 0.0
H1880 H 0.22881 0.56463 0.24827 0.0
H1881 H 0.10934 0.53098 0.28116 0.0
H1882 H 0.10377 0.56367 0.26722 0.0
H1883 H 0.13152 0.57382 0.28229 0.0
C1884 C 0.15028 0.65679 0.25498 0.0
C1885 C 0.17738 0.67537 0.26224 0.0
C1886 C 0.15042 0.61939 0.25462 0.0
C1887 C 0.17762 0.60025 0.26156 0.0
C1888 C 0.20441 0.61888 0.26897 0.0
H1889 H 0.23522 0.39156 0.28521 0.0
H1890 H 0.20544 0.44945 0.28367 0.0
C1891 C 0.20424 0.65615 0.26933 0.0
C1892 C 0.18003 0.56094 0.26035 0.0
H1893 H 0.14233 0.48268 0.27165 0.0
C1894 C 0.20971 0.54664 0.25323 0.0
C1895 C 0.15506 0.53778 0.2669 0.0
C1896 C 0.12316 0.55213 0.27492 0.0
C1897 C 0.21582 0.50974 0.25284 0.0
C1898 C 0.19109 0.48642 0.25952 0.0
C1899 C 0.16089 0.50065 0.26638 0.0
C1900 C 0.19883 0.44776 0.26075 0.0
C1901 C 0.24969 0.49618 0.24588 0.0
C1902 C 0.20264 0.42662 0.24848 0.0
C1903 C 0.22002 0.39361 0.24929 0.0
C1904 C 0.23354 0.38121 0.26241 0.0
C1905 C 0.22552 0.40045 0.27491 0.0
C1906 C 0.20841 0.43359 0.27406 0.0
H1907 H 0.26894 0.51809 0.24361 0.0
H1908 H 0.26314 0.47613 0.25279 0.0
H1909 H 0.24289 0.48304 0.23562 0.0
H1910 H 0.19477 0.43691 0.23814 0.0
H1911 H 0.22522 0.37917 0.23949 0.0
H1912 H 0.61663 0.71384 0.53301 0.0
H1913 H 0.56106 0.67948 0.53358 0.0
H1914 H 0.54536 0.7002 0.48872 0.0
H1915 H 0.60121 0.73323 0.48792 0.0
H1916 H 0.50097 0.7129 0.52944 0.0
H1917 H 0.50497 0.6021 0.49076 0.0
H1918 H 0.54516 0.62407 0.49691 0.0
H1919 H 0.51958 0.64251 0.48233 0.0
C1920 C 0.60203 0.70994 0.52315 0.0
C1921 C 0.61308 0.72683 0.51048 0.0
C1922 C 0.57023 0.69027 0.5235 0.0
C1923 C 0.54893 0.68719 0.5112 0.0
C1924 C 0.56154 0.70145 0.49829 0.0
H1925 H 0.33009 0.70642 0.4926 0.0
H1926 H 0.39564 0.70261 0.49322 0.0
C1927 C 0.59349 0.72073 0.49789 0.0
C1928 C 0.51107 0.67559 0.51235 0.0
H1929 H 0.4458 0.62849 0.49506 0.0
C1930 C 0.48916 0.69365 0.52218 0.0
C1931 C 0.49546 0.65061 0.50286 0.0
C1932 C 0.5177 0.62849 0.49274 0.0
C1933 C 0.45197 0.6891 0.52217 0.0
C1934 C 0.4363 0.666 0.51205 0.0
C1935 C 0.45808 0.64648 0.5027 0.0
C1936 C 0.3971 0.66423 0.51049 0.0
C1937 C 0.42935 0.71036 0.53247 0.0
C1938 C 0.37656 0.64345 0.51985 0.0
C1939 C 0.33924 0.6455 0.51947 0.0
C1940 C 0.3221 0.66854 0.50979 0.0
C1941 C 0.34274 0.68835 0.5001 0.0
C1942 C 0.38004 0.68618 0.50044 0.0
H1943 H 0.44572 0.72757 0.53959 0.0
H1944 H 0.41037 0.72755 0.52645 0.0
H1945 H 0.41326 0.69188 0.53916 0.0
H1946 H 0.38942 0.62648 0.52769 0.0
H1947 H 0.32379 0.62959 0.5269 0.0
H1948 H 0.26313 0.10666 0.78317 0.0
H1949 H 0.29368 0.04945 0.78111 0.0
H1950 H 0.2986 0.06194 0.7354 0.0
H1951 H 0.26728 0.11902 0.73731 0.0
H1952 H 0.26199 0.00353 0.74305 0.0
H1953 H 0.38975 0.00493 0.77271 0.0
H1954 H 0.35395 0.02304 0.7832 0.0
H1955 H 0.36756 0.04549 0.76708 0.0
C1956 C 0.2718 0.09796 0.7727 0.0
C1957 C 0.26206 0.11713 0.76038 0.0
C1958 C 0.28957 0.06522 0.77156 0.0
C1959 C 0.29843 0.05135 0.7581 0.0
C1960 C 0.29196 0.07214 0.74589 0.0
H1961 H 0.36093 0.82589 0.74588 0.0
H1962 H 0.36145 0.89158 0.74419 0.0
C1963 C 0.27403 0.1048 0.74702 0.0
C1964 C 0.3076 0.01295 0.75665 0.0
H1965 H 0.36092 0.94691 0.77019 0.0
C1966 C 0.28415 0.99132 0.74873 0.0
C1967 C 0.33645 0.99694 0.76406 0.0
C1968 C 0.36356 0.01891 0.77212 0.0
C1969 C 0.28759 0.95404 0.74866 0.0
C1970 C 0.31498 0.93798 0.75679 0.0
C1971 C 0.33968 0.95948 0.7641 0.0
C1972 C 0.31659 0.89879 0.75848 0.0
C1973 C 0.26119 0.9319 0.74028 0.0
C1974 C 0.2914 0.88148 0.76716 0.0
C1975 C 0.29105 0.84424 0.76812 0.0
C1976 C 0.31584 0.82384 0.76038 0.0
C1977 C 0.34143 0.84121 0.75186 0.0
C1978 C 0.3419 0.87855 0.75096 0.0
H1979 H 0.24585 0.94834 0.73252 0.0
H1980 H 0.27518 0.91019 0.73442 0.0
H1981 H 0.24194 0.91924 0.74775 0.0
H1982 H 0.27165 0.89681 0.77301 0.0
H1983 H 0.27096 0.83134 0.77468 0.0
loop_
_geom_bond_atom_site_label_1
_geom_bond_atom_site_label_2
_geom_bond_distance
_geom_bond_site_symmetry_2
_ccdc_geom_bond_type
Co0 O3 1.970 . S
Co0 N17 1.989 . S
Co0 O25 1.967 . S
Co0 O32 1.920 . S
Co1 O4 1.966 1_556 S
Co1 N10 2.022 . S
Co1 N18 1.993 1_556 S
Co1 O26 1.941 . S
C2 O3 1.258 . S
C2 O4 1.263 . S
O3 Co0 1.970 . S
O3 C2 1.258 . S
O4 Co1 1.966 1_554 S
O4 C2 1.263 . S
C5 O6 1.235 . S
C5 O32 1.289 . S
O6 C5 1.235 . S
C7 C9 1.400 . S
C7 N10 1.351 . S
C7 C12 1.501 . S
C8 C9 1.387 . S
C8 N11 1.341 . S
C9 C7 1.400 . S
C9 C8 1.387 . S
N10 Co1 2.022 . S
N10 C7 1.351 . S
N10 N11 1.365 . S
N11 C8 1.341 . S
N11 N10 1.365 . S
N11 H31 0.862 . S
C12 C7 1.501 . S
C12 H13 0.961 . S
C12 H14 0.961 . S
C12 H15 0.960 . S
H13 C12 0.961 . S
H14 C12 0.961 . S
H15 C12 0.960 . S
C16 N17 1.342 . S
C16 C20 1.401 . S
C16 C21 1.499 . S
N17 Co0 1.989 . S
N17 C16 1.342 . S
N17 N18 1.388 . S
N18 Co1 1.993 1_554 S
N18 N17 1.388 . S
N18 C19 1.341 1_554 S
C19 N18 1.341 1_556 S
C19 C20 1.384 1_556 S
C19 C29 1.525 . S
C20 C16 1.401 . S
C20 C19 1.384 1_554 S
C21 C16 1.499 . S
C21 H22 0.959 . S
C21 H23 0.960 . S
C21 H24 0.961 . S
H22 C21 0.959 . S
H23 C21 0.960 . S
H24 C21 0.961 . S
O25 Co0 1.967 . S
O25 C33 1.258 . S
O26 Co1 1.941 . S
O26 C33 1.266 1_556 S
H27 C29 0.959 . S
H28 C29 0.961 . S
C29 C19 1.525 . S
C29 H27 0.959 . S
C29 H28 0.961 . S
C29 H30 0.960 . S
H30 C29 0.960 . S
H31 N11 0.862 . S
O32 Co0 1.920 . S
O32 C5 1.289 . S
C33 O25 1.258 . S
C33 O26 1.266 1_554 S
Co34 O37 1.970 . S
Co34 N51 1.989 . S
Co34 O59 1.967 . S
Co34 O66 1.920 . S
Co35 O38 1.966 . S
Co35 N44 2.022 . S
Co35 N52 1.993 . S
Co35 O60 1.941 . S
C36 O37 1.258 . S
C36 O38 1.263 . S
O37 Co34 1.970 . S
O37 C36 1.258 . S
O38 Co35 1.966 . S
O38 C36 1.263 . S
C39 O40 1.235 . S
C39 O66 1.289 . S
O40 C39 1.235 . S
C41 C43 1.400 . S
C41 N44 1.351 . S
C41 C46 1.501 . S
C42 C43 1.387 . S
C42 N45 1.341 . S
C43 C41 1.400 . S
C43 C42 1.387 . S
N44 Co35 2.022 . S
N44 C41 1.351 . S
N44 N45 1.365 . S
N45 C42 1.341 . S
N45 N44 1.365 . S
N45 H65 0.862 . S
C46 C41 1.501 . S
C46 H47 0.961 . S
C46 H48 0.961 . S
C46 H49 0.960 . S
H47 C46 0.961 . S
H48 C46 0.961 . S
H49 C46 0.960 . S
C50 N51 1.342 . S
C50 C54 1.401 . S
C50 C55 1.499 . S
N51 Co34 1.989 . S
N51 C50 1.342 . S
N51 N52 1.388 . S
N52 Co35 1.993 . S
N52 N51 1.388 . S
N52 C53 1.346 . S
C53 N52 1.346 . S
C53 C54 1.396 . S
C53 C63 1.510 . S
C54 C50 1.401 . S
C54 C53 1.396 . S
C55 C50 1.499 . S
C55 H56 0.959 . S
C55 H57 0.960 . S
C55 H58 0.961 . S
H56 C55 0.959 . S
H57 C55 0.960 . S
H58 C55 0.961 . S
O59 Co34 1.967 . S
O59 C67 1.258 . S
O60 Co35 1.941 . S
O60 C67 1.266 . S
H61 C63 0.959 . S
H62 C63 0.961 . S
C63 C53 1.510 . S
C63 H61 0.959 . S
C63 H62 0.961 . S
C63 H64 0.960 . S
H64 C63 0.960 . S
H65 N45 0.862 . S
O66 Co34 1.920 . S
O66 C39 1.289 . S
C67 O59 1.258 . S
C67 O60 1.266 . S
Co68 O71 1.970 . S
Co68 N85 1.989 . S
Co68 O93 1.967 . S
Co68 O100 1.920 . S
Co69 O72 1.966 . S
Co69 N78 2.022 . S
Co69 N86 1.993 . S
Co69 O94 1.941 . S
C70 O71 1.258 . S
C70 O72 1.263 . S
O71 Co68 1.970 . S
O71 C70 1.258 . S
O72 Co69 1.966 . S
O72 C70 1.263 . S
C73 O74 1.235 . S
C73 O100 1.289 . S
O74 C73 1.235 . S
C75 C77 1.400 . S
C75 N78 1.351 . S
C75 C80 1.501 . S
C76 C77 1.387 . S
C76 N79 1.341 . S
C77 C75 1.400 . S
C77 C76 1.387 . S
N78 Co69 2.022 . S
N78 C75 1.351 . S
N78 N79 1.365 . S
N79 C76 1.341 . S
N79 N78 1.365 . S
N79 H99 0.862 . S
C80 C75 1.501 . S
C80 H81 0.961 . S
C80 H82 0.961 . S
C80 H83 0.960 . S
H81 C80 0.961 . S
H82 C80 0.961 . S
H83 C80 0.960 . S
C84 N85 1.342 . S
C84 C88 1.401 . S
C84 C89 1.499 . S
N85 Co68 1.989 . S
N85 C84 1.342 . S
N85 N86 1.388 . S
N86 Co69 1.993 . S
N86 N85 1.388 . S
N86 C87 1.346 . S
C87 N86 1.346 . S
C87 C88 1.396 . S
C87 C97 1.510 . S
C88 C84 1.401 . S
C88 C87 1.396 . S
C89 C84 1.499 . S
C89 H90 0.959 . S
C89 H91 0.960 . S
C89 H92 0.961 . S
H90 C89 0.959 . S
H91 C89 0.960 . S
H92 C89 0.961 . S
O93 Co68 1.967 . S
O93 C101 1.258 . S
O94 Co69 1.941 . S
O94 C101 1.266 . S
H95 C97 0.959 . S
H96 C97 0.961 . S
C97 C87 1.510 . S
C97 H95 0.959 . S
C97 H96 0.961 . S
C97 H98 0.960 . S
H98 C97 0.960 . S
H99 N79 0.862 . S
O100 Co68 1.920 . S
O100 C73 1.289 . S
C101 O93 1.258 . S
C101 O94 1.266 . S
Co102 O105 1.970 . S
Co102 N119 1.989 . S
Co102 O127 1.967 . S
Co102 O134 1.920 . S
Co103 O106 1.966 . S
Co103 N112 2.022 . S
Co103 N120 1.993 . S
Co103 O128 1.941 . S
C104 O105 1.258 . S
C104 O106 1.263 . S
O105 Co102 1.970 . S
O105 C104 1.258 . S
O106 Co103 1.966 . S
O106 C104 1.263 . S
C107 O108 1.235 . S
C107 O134 1.289 . S
O108 C107 1.235 . S
C109 C111 1.400 . S
C109 N112 1.351 . S
C109 C114 1.501 . S
C110 C111 1.387 . S
C110 N113 1.341 . S
C111 C109 1.400 . S
C111 C110 1.387 . S
N112 Co103 2.022 . S
N112 C109 1.351 . S
N112 N113 1.365 . S
N113 C110 1.341 . S
N113 N112 1.365 . S
N113 H133 0.862 . S
C114 C109 1.501 . S
C114 H115 0.961 . S
C114 H116 0.961 . S
C114 H117 0.960 . S
H115 C114 0.961 . S
H116 C114 0.961 . S
H117 C114 0.960 . S
C118 N119 1.342 . S
C118 C122 1.401 . S
C118 C123 1.499 . S
N119 Co102 1.989 . S
N119 C118 1.342 . S
N119 N120 1.388 . S
N120 Co103 1.993 . S
N120 N119 1.388 . S
N120 C121 1.346 . S
C121 N120 1.346 . S
C121 C122 1.396 . S
C121 C131 1.510 . S
C122 C118 1.401 . S
C122 C121 1.396 . S
C123 C118 1.499 . S
C123 H124 0.959 . S
C123 H125 0.960 . S
C123 H126 0.961 . S
H124 C123 0.959 . S
H125 C123 0.960 . S
H126 C123 0.961 . S
O127 Co102 1.967 . S
O127 C135 1.258 . S
O128 Co103 1.941 . S
O128 C135 1.266 . S
H129 C131 0.959 . S
H130 C131 0.961 . S
C131 C121 1.510 . S
C131 H129 0.959 . S
C131 H130 0.961 . S
C131 H132 0.960 . S
H132 C131 0.960 . S
H133 N113 0.862 . S
O134 Co102 1.920 . S
O134 C107 1.289 . S
C135 O127 1.258 . S
C135 O128 1.266 . S
Co136 O139 1.970 . S
Co136 N153 1.989 . S
Co136 O161 1.967 . S
Co136 O168 1.920 . S
Co137 O140 1.966 . S
Co137 N146 2.022 . S
Co137 N154 1.993 . S
Co137 O162 1.941 . S
C138 O139 1.258 . S
C138 O140 1.263 . S
O139 Co136 1.970 . S
O139 C138 1.258 . S
O140 Co137 1.966 . S
O140 C138 1.263 . S
C141 O142 1.235 . S
C141 O168 1.289 . S
O142 C141 1.235 . S
C143 C145 1.400 . S
C143 N146 1.351 . S
C143 C148 1.501 . S
C144 C145 1.387 . S
C144 N147 1.341 . S
C145 C143 1.400 . S
C145 C144 1.387 . S
N146 Co137 2.022 . S
N146 C143 1.351 . S
N146 N147 1.365 . S
N147 C144 1.341 . S
N147 N146 1.365 . S
N147 H167 0.862 . S
C148 C143 1.501 . S
C148 H149 0.961 . S
C148 H150 0.961 . S
C148 H151 0.960 . S
H149 C148 0.961 . S
H150 C148 0.961 . S
H151 C148 0.960 . S
C152 N153 1.342 . S
C152 C156 1.401 . S
C152 C157 1.499 . S
N153 Co136 1.989 . S
N153 C152 1.342 . S
N153 N154 1.388 . S
N154 Co137 1.993 . S
N154 N153 1.388 . S
N154 C155 1.346 . S
C155 N154 1.346 . S
C155 C156 1.396 . S
C155 C165 1.510 . S
C156 C152 1.401 . S
C156 C155 1.396 . S
C157 C152 1.499 . S
C157 H158 0.959 . S
C157 H159 0.960 . S
C157 H160 0.961 . S
H158 C157 0.959 . S
H159 C157 0.960 . S
H160 C157 0.961 . S
O161 Co136 1.967 . S
O161 C169 1.258 . S
O162 Co137 1.941 . S
O162 C169 1.266 . S
H163 C165 0.959 . S
H164 C165 0.961 . S
C165 C155 1.510 . S
C165 H163 0.959 . S
C165 H164 0.961 . S
C165 H166 0.960 . S
H166 C165 0.960 . S
H167 N147 0.862 . S
O168 Co136 1.920 . S
O168 C141 1.289 . S
C169 O161 1.258 . S
C169 O162 1.266 . S
Co170 O173 1.970 . S
Co170 N187 1.989 . S
Co170 O195 1.967 . S
Co170 O202 1.920 . S
Co171 O174 1.966 . S
Co171 N180 2.022 . S
Co171 N188 1.993 . S
Co171 O196 1.941 . S
C172 O173 1.258 . S
C172 O174 1.263 . S
O173 Co170 1.970 . S
O173 C172 1.258 . S
O174 Co171 1.966 . S
O174 C172 1.263 . S
C175 O176 1.235 . S
C175 O202 1.289 . S
O176 C175 1.235 . S
C177 C179 1.400 . S
C177 N180 1.351 . S
C177 C182 1.501 . S
C178 C179 1.387 . S
C178 N181 1.341 . S
C179 C177 1.400 . S
C179 C178 1.387 . S
N180 Co171 2.022 . S
N180 C177 1.351 . S
N180 N181 1.365 . S
N181 C178 1.341 . S
N181 N180 1.365 . S
N181 H201 0.862 . S
C182 C177 1.501 . S
C182 H183 0.961 . S
C182 H184 0.961 . S
C182 H185 0.960 . S
H183 C182 0.961 . S
H184 C182 0.961 . S
H185 C182 0.960 . S
C186 N187 1.342 . S
C186 C190 1.401 . S
C186 C191 1.499 . S
N187 Co170 1.989 . S
N187 C186 1.342 . S
N187 N188 1.388 . S
N188 Co171 1.993 . S
N188 N187 1.388 . S
N188 C189 1.346 . S
C189 N188 1.346 . S
C189 C190 1.396 . S
C189 C199 1.510 . S
C190 C186 1.401 . S
C190 C189 1.396 . S
C191 C186 1.499 . S
C191 H192 0.959 . S
C191 H193 0.960 . S
C191 H194 0.961 . S
H192 C191 0.959 . S
H193 C191 0.960 . S
H194 C191 0.961 . S
O195 Co170 1.967 . S
O195 C203 1.258 . S
O196 Co171 1.941 . S
O196 C203 1.266 . S
H197 C199 0.959 . S
H198 C199 0.961 . S
C199 C189 1.510 . S
C199 H197 0.959 . S
C199 H198 0.961 . S
C199 H200 0.960 . S
H200 C199 0.960 . S
H201 N181 0.862 . S
O202 Co170 1.920 . S
O202 C175 1.289 . S
C203 O195 1.258 . S
C203 O196 1.266 . S
Co204 O207 1.970 . S
Co204 N221 1.989 . S
Co204 O229 1.967 . S
Co204 O236 1.920 . S
Co205 O208 1.966 1_556 S
Co205 N214 2.022 . S
Co205 N222 1.993 1_556 S
Co205 O230 1.941 . S
C206 O207 1.258 . S
C206 O208 1.263 . S
O207 Co204 1.970 . S
O207 C206 1.258 . S
O208 Co205 1.966 1_554 S
O208 C206 1.263 . S
C209 O210 1.235 . S
C209 O236 1.289 . S
O210 C209 1.235 . S
C211 C213 1.400 . S
C211 N214 1.351 . S
C211 C216 1.501 . S
C212 C213 1.387 . S
C212 N215 1.341 . S
C213 C211 1.400 . S
C213 C212 1.387 . S
N214 Co205 2.022 . S
N214 C211 1.351 . S
N214 N215 1.365 . S
N215 C212 1.341 . S
N215 N214 1.365 . S
N215 H235 0.862 . S
C216 C211 1.501 . S
C216 H217 0.961 . S
C216 H218 0.961 . S
C216 H219 0.960 . S
H217 C216 0.961 . S
H218 C216 0.961 . S
H219 C216 0.960 . S
C220 N221 1.342 . S
C220 C224 1.401 . S
C220 C225 1.499 . S
N221 Co204 1.989 . S
N221 C220 1.342 . S
N221 N222 1.388 . S
N222 Co205 1.993 1_554 S
N222 N221 1.388 . S
N222 C223 1.341 1_554 S
C223 N222 1.341 1_556 S
C223 C224 1.384 1_556 S
C223 C233 1.525 . S
C224 C220 1.401 . S
C224 C223 1.384 1_554 S
C225 C220 1.499 . S
C225 H226 0.959 . S
C225 H227 0.960 . S
C225 H228 0.961 . S
H226 C225 0.959 . S
H227 C225 0.960 . S
H228 C225 0.961 . S
O229 Co204 1.967 . S
O229 C237 1.258 . S
O230 Co205 1.941 . S
O230 C237 1.266 1_556 S
H231 C233 0.959 . S
H232 C233 0.961 . S
C233 C223 1.525 . S
C233 H231 0.959 . S
C233 H232 0.961 . S
C233 H234 0.960 . S
H234 C233 0.960 . S
H235 N215 0.862 . S
O236 Co204 1.920 . S
O236 C209 1.289 . S
C237 O229 1.258 . S
C237 O230 1.266 1_554 S
Co238 O241 1.970 . S
Co238 N255 1.989 . S
Co238 O263 1.967 . S
Co238 O270 1.920 . S
Co239 O242 1.966 . S
Co239 N248 2.022 . S
Co239 N256 1.993 . S
Co239 O264 1.941 . S
C240 O241 1.258 . S
C240 O242 1.263 . S
O241 Co238 1.970 . S
O241 C240 1.258 . S
O242 Co239 1.966 . S
O242 C240 1.263 . S
C243 O244 1.235 . S
C243 O270 1.289 . S
O244 C243 1.235 . S
C245 C247 1.400 . S
C245 N248 1.351 . S
C245 C250 1.501 . S
C246 C247 1.387 . S
C246 N249 1.341 . S
C247 C245 1.400 . S
C247 C246 1.387 . S
N248 Co239 2.022 . S
N248 C245 1.351 . S
N248 N249 1.365 . S
N249 C246 1.341 . S
N249 N248 1.365 . S
N249 H269 0.862 . S
C250 C245 1.501 . S
C250 H251 0.961 . S
C250 H252 0.961 . S
C250 H253 0.960 . S
H251 C250 0.961 . S
H252 C250 0.961 . S
H253 C250 0.960 . S
C254 N255 1.342 . S
C254 C258 1.401 . S
C254 C259 1.499 . S
N255 Co238 1.989 . S
N255 C254 1.342 . S
N255 N256 1.388 . S
N256 Co239 1.993 . S
N256 N255 1.388 . S
N256 C257 1.346 . S
C257 N256 1.346 . S
C257 C258 1.396 . S
C257 C267 1.510 . S
C258 C254 1.401 . S
C258 C257 1.396 . S
C259 C254 1.499 . S
C259 H260 0.959 . S
C259 H261 0.960 . S
C259 H262 0.961 . S
H260 C259 0.959 . S
H261 C259 0.960 . S
H262 C259 0.961 . S
O263 Co238 1.967 . S
O263 C271 1.258 . S
O264 Co239 1.941 . S
O264 C271 1.266 . S
H265 C267 0.959 . S
H266 C267 0.961 . S
C267 C257 1.510 . S
C267 H265 0.959 . S
C267 H266 0.961 . S
C267 H268 0.960 . S
H268 C267 0.960 . S
H269 N249 0.862 . S
O270 Co238 1.920 . S
O270 C243 1.289 . S
C271 O263 1.258 . S
C271 O264 1.266 . S
Co272 O275 1.970 . S
Co272 N289 1.989 . S
Co272 O297 1.967 . S
Co272 O304 1.920 . S
Co273 O276 1.966 . S
Co273 N282 2.022 . S
Co273 N290 1.993 . S
Co273 O298 1.941 . S
C274 O275 1.258 . S
C274 O276 1.263 . S
O275 Co272 1.970 . S
O275 C274 1.258 . S
O276 Co273 1.966 . S
O276 C274 1.263 . S
C277 O278 1.235 . S
C277 O304 1.289 . S
O278 C277 1.235 . S
C279 C281 1.400 . S
C279 N282 1.351 . S
C279 C284 1.501 . S
C280 C281 1.387 . S
C280 N283 1.341 . S
C281 C279 1.400 . S
C281 C280 1.387 . S
N282 Co273 2.022 . S
N282 C279 1.351 . S
N282 N283 1.365 . S
N283 C280 1.341 . S
N283 N282 1.365 . S
N283 H303 0.862 . S
C284 C279 1.501 . S
C284 H285 0.961 . S
C284 H286 0.961 . S
C284 H287 0.960 . S
H285 C284 0.961 . S
H286 C284 0.961 . S
H287 C284 0.960 . S
C288 N289 1.342 . S
C288 C292 1.401 . S
C288 C293 1.499 . S
N289 Co272 1.989 . S
N289 C288 1.342 . S
N289 N290 1.388 . S
N290 Co273 1.993 . S
N290 N289 1.388 . S
N290 C291 1.346 . S
C291 N290 1.346 . S
C291 C292 1.396 . S
C291 C301 1.510 . S
C292 C288 1.401 . S
C292 C291 1.396 . S
C293 C288 1.499 . S
C293 H294 0.959 . S
C293 H295 0.960 . S
C293 H296 0.961 . S
H294 C293 0.959 . S
H295 C293 0.960 . S
H296 C293 0.961 . S
O297 Co272 1.967 . S
O297 C305 1.258 . S
O298 Co273 1.941 . S
O298 C305 1.266 . S
H299 C301 0.959 . S
H300 C301 0.961 . S
C301 C291 1.510 . S
C301 H299 0.959 . S
C301 H300 0.961 . S
C301 H302 0.960 . S
H302 C301 0.960 . S
H303 N283 0.862 . S
O304 Co272 1.920 . S
O304 C277 1.289 . S
C305 O297 1.258 . S
C305 O298 1.266 . S
Co306 O309 1.970 . S
Co306 N323 1.989 . S
Co306 O331 1.967 . S
Co306 O338 1.920 . S
Co307 O310 1.966 . S
Co307 N316 2.022 . S
Co307 N324 1.993 . S
Co307 O332 1.941 . S
C308 O309 1.258 . S
C308 O310 1.263 . S
O309 Co306 1.970 . S
O309 C308 1.258 . S
O310 Co307 1.966 . S
O310 C308 1.263 . S
C311 O312 1.235 . S
C311 O338 1.289 . S
O312 C311 1.235 . S
C313 C315 1.400 . S
C313 N316 1.351 . S
C313 C318 1.501 . S
C314 C315 1.387 . S
C314 N317 1.341 . S
C315 C313 1.400 . S
C315 C314 1.387 . S
N316 Co307 2.022 . S
N316 C313 1.351 . S
N316 N317 1.365 . S
N317 C314 1.341 . S
N317 N316 1.365 . S
N317 H337 0.862 . S
C318 C313 1.501 . S
C318 H319 0.961 . S
C318 H320 0.961 . S
C318 H321 0.960 . S
H319 C318 0.961 . S
H320 C318 0.961 . S
H321 C318 0.960 . S
C322 N323 1.342 . S
C322 C326 1.401 . S
C322 C327 1.499 . S
N323 Co306 1.989 . S
N323 C322 1.342 . S
N323 N324 1.388 . S
N324 Co307 1.993 . S
N324 N323 1.388 . S
N324 C325 1.346 . S
C325 N324 1.346 . S
C325 C326 1.396 . S
C325 C335 1.510 . S
C326 C322 1.401 . S
C326 C325 1.396 . S
C327 C322 1.499 . S
C327 H328 0.959 . S
C327 H329 0.960 . S
C327 H330 0.961 . S
H328 C327 0.959 . S
H329 C327 0.960 . S
H330 C327 0.961 . S
O331 Co306 1.967 . S
O331 C339 1.258 . S
O332 Co307 1.941 . S
O332 C339 1.266 . S
H333 C335 0.959 . S
H334 C335 0.961 . S
C335 C325 1.510 . S
C335 H333 0.959 . S
C335 H334 0.961 . S
C335 H336 0.960 . S
H336 C335 0.960 . S
H337 N317 0.862 . S
O338 Co306 1.920 . S
O338 C311 1.289 . S
C339 O331 1.258 . S
C339 O332 1.266 . S
Co340 O343 1.970 . S
Co340 N357 1.989 . S
Co340 O365 1.967 . S
Co340 O372 1.920 . S
Co341 O344 1.966 1_556 S
Co341 N350 2.022 . S
Co341 N358 1.993 1_556 S
Co341 O366 1.941 . S
C342 O343 1.258 . S
C342 O344 1.263 . S
O343 Co340 1.970 . S
O343 C342 1.258 . S
O344 Co341 1.966 1_554 S
O344 C342 1.263 . S
C345 O346 1.235 . S
C345 O372 1.289 . S
O346 C345 1.235 . S
C347 C349 1.400 . S
C347 N350 1.351 . S
C347 C352 1.501 . S
C348 C349 1.387 . S
C348 N351 1.341 . S
C349 C347 1.400 . S
C349 C348 1.387 . S
N350 Co341 2.022 . S
N350 C347 1.351 . S
N350 N351 1.365 . S
N351 C348 1.341 . S
N351 N350 1.365 . S
N351 H371 0.862 . S
C352 C347 1.501 . S
C352 H353 0.961 . S
C352 H354 0.961 . S
C352 H355 0.960 . S
H353 C352 0.961 . S
H354 C352 0.961 . S
H355 C352 0.960 . S
C356 N357 1.342 . S
C356 C360 1.401 . S
C356 C361 1.499 . S
N357 Co340 1.989 . S
N357 C356 1.342 . S
N357 N358 1.388 . S
N358 Co341 1.993 1_554 S
N358 N357 1.388 . S
N358 C359 1.341 1_554 S
C359 N358 1.341 1_556 S
C359 C360 1.384 1_556 S
C359 C369 1.525 . S
C360 C356 1.401 . S
C360 C359 1.384 1_554 S
C361 C356 1.499 . S
C361 H362 0.959 . S
C361 H363 0.960 . S
C361 H364 0.961 . S
H362 C361 0.959 . S
H363 C361 0.960 . S
H364 C361 0.961 . S
O365 Co340 1.967 . S
O365 C373 1.258 . S
O366 Co341 1.941 . S
O366 C373 1.266 1_556 S
H367 C369 0.959 . S
H368 C369 0.961 . S
C369 C359 1.525 . S
C369 H367 0.959 . S
C369 H368 0.961 . S
C369 H370 0.960 . S
H370 C369 0.960 . S
H371 N351 0.862 . S
O372 Co340 1.920 . S
O372 C345 1.289 . S
C373 O365 1.258 . S
C373 O366 1.266 1_554 S
Co374 O377 1.970 . S
Co374 N391 1.989 . S
Co374 O399 1.967 . S
Co374 O406 1.920 . S
Co375 O378 1.966 . S
Co375 N384 2.022 . S
Co375 N392 1.993 . S
Co375 O400 1.941 . S
C376 O377 1.258 . S
C376 O378 1.263 . S
O377 Co374 1.970 . S
O377 C376 1.258 . S
O378 Co375 1.966 . S
O378 C376 1.263 . S
C379 O380 1.235 . S
C379 O406 1.289 . S
O380 C379 1.235 . S
C381 C383 1.400 . S
C381 N384 1.351 . S
C381 C386 1.501 . S
C382 C383 1.387 . S
C382 N385 1.341 . S
C383 C381 1.400 . S
C383 C382 1.387 . S
N384 Co375 2.022 . S
N384 C381 1.351 . S
N384 N385 1.365 . S
N385 C382 1.341 . S
N385 N384 1.365 . S
N385 H405 0.862 . S
C386 C381 1.501 . S
C386 H387 0.961 . S
C386 H388 0.961 . S
C386 H389 0.960 . S
H387 C386 0.961 . S
H388 C386 0.961 . S
H389 C386 0.960 . S
C390 N391 1.342 . S
C390 C394 1.401 . S
C390 C395 1.499 . S
N391 Co374 1.989 . S
N391 C390 1.342 . S
N391 N392 1.388 . S
N392 Co375 1.993 . S
N392 N391 1.388 . S
N392 C393 1.346 . S
C393 N392 1.346 . S
C393 C394 1.396 . S
C393 C403 1.510 . S
C394 C390 1.401 . S
C394 C393 1.396 . S
C395 C390 1.499 . S
C395 H396 0.959 . S
C395 H397 0.960 . S
C395 H398 0.961 . S
H396 C395 0.959 . S
H397 C395 0.960 . S
H398 C395 0.961 . S
O399 Co374 1.967 . S
O399 C407 1.258 . S
O400 Co375 1.941 . S
O400 C407 1.266 . S
H401 C403 0.959 . S
H402 C403 0.961 . S
C403 C393 1.510 . S
C403 H401 0.959 . S
C403 H402 0.961 . S
C403 H404 0.960 . S
H404 C403 0.960 . S
H405 N385 0.862 . S
O406 Co374 1.920 . S
O406 C379 1.289 . S
C407 O399 1.258 . S
C407 O400 1.266 . S
Co408 O411 1.970 . S
Co408 N425 1.989 . S
Co408 O433 1.967 . S
Co408 O440 1.920 . S
Co409 O412 1.966 1_556 S
Co409 N418 2.022 . S
Co409 N426 1.993 1_556 S
Co409 O434 1.941 . S
C410 O411 1.258 . S
C410 O412 1.263 . S
O411 Co408 1.970 . S
O411 C410 1.258 . S
O412 Co409 1.966 1_554 S
O412 C410 1.263 . S
C413 O414 1.235 . S
C413 O440 1.289 . S
O414 C413 1.235 . S
C415 C417 1.400 . S
C415 N418 1.351 . S
C415 C420 1.501 . S
C416 C417 1.387 . S
C416 N419 1.341 . S
C417 C415 1.400 . S
C417 C416 1.387 . S
N418 Co409 2.022 . S
N418 C415 1.351 . S
N418 N419 1.365 . S
N419 C416 1.341 . S
N419 N418 1.365 . S
N419 H439 0.862 . S
C420 C415 1.501 . S
C420 H421 0.961 . S
C420 H422 0.961 . S
C420 H423 0.960 . S
H421 C420 0.961 . S
H422 C420 0.961 . S
H423 C420 0.960 . S
C424 N425 1.342 . S
C424 C428 1.401 . S
C424 C429 1.499 . S
N425 Co408 1.989 . S
N425 C424 1.342 . S
N425 N426 1.388 . S
N426 Co409 1.993 1_554 S
N426 N425 1.388 . S
N426 C427 1.341 1_554 S
C427 N426 1.341 1_556 S
C427 C428 1.384 1_556 S
C427 C437 1.525 . S
C428 C424 1.401 . S
C428 C427 1.384 1_554 S
C429 C424 1.499 . S
C429 H430 0.959 . S
C429 H431 0.960 . S
C429 H432 0.961 . S
H430 C429 0.959 . S
H431 C429 0.960 . S
H432 C429 0.961 . S
O433 Co408 1.967 . S
O433 C441 1.258 . S
O434 Co409 1.941 . S
O434 C441 1.266 1_556 S
H435 C437 0.959 . S
H436 C437 0.961 . S
C437 C427 1.525 . S
C437 H435 0.959 . S
C437 H436 0.961 . S
C437 H438 0.960 . S
H438 C437 0.960 . S
H439 N419 0.862 . S
O440 Co408 1.920 . S
O440 C413 1.289 . S
C441 O433 1.258 . S
C441 O434 1.266 1_554 S
Co442 O445 1.970 . S
Co442 N459 1.989 . S
Co442 O467 1.967 . S
Co442 O474 1.920 . S
Co443 O446 1.966 . S
Co443 N452 2.022 . S
Co443 N460 1.993 . S
Co443 O468 1.941 . S
C444 O445 1.258 . S
C444 O446 1.263 . S
O445 Co442 1.970 . S
O445 C444 1.258 . S
O446 Co443 1.966 . S
O446 C444 1.263 . S
C447 O448 1.235 . S
C447 O474 1.289 . S
O448 C447 1.235 . S
C449 C451 1.400 . S
C449 N452 1.351 . S
C449 C454 1.501 . S
C450 C451 1.387 . S
C450 N453 1.341 . S
C451 C449 1.400 . S
C451 C450 1.387 . S
N452 Co443 2.022 . S
N452 C449 1.351 . S
N452 N453 1.365 . S
N453 C450 1.341 . S
N453 N452 1.365 . S
N453 H473 0.862 . S
C454 C449 1.501 . S
C454 H455 0.961 . S
C454 H456 0.961 . S
C454 H457 0.960 . S
H455 C454 0.961 . S
H456 C454 0.961 . S
H457 C454 0.960 . S
C458 N459 1.342 . S
C458 C462 1.401 . S
C458 C463 1.499 . S
N459 Co442 1.989 . S
N459 C458 1.342 . S
N459 N460 1.388 . S
N460 Co443 1.993 . S
N460 N459 1.388 . S
N460 C461 1.346 . S
C461 N460 1.346 . S
C461 C462 1.396 . S
C461 C471 1.510 . S
C462 C458 1.401 . S
C462 C461 1.396 . S
C463 C458 1.499 . S
C463 H464 0.959 . S
C463 H465 0.960 . S
C463 H466 0.961 . S
H464 C463 0.959 . S
H465 C463 0.960 . S
H466 C463 0.961 . S
O467 Co442 1.967 . S
O467 C475 1.258 . S
O468 Co443 1.941 . S
O468 C475 1.266 . S
H469 C471 0.959 . S
H470 C471 0.961 . S
C471 C461 1.510 . S
C471 H469 0.959 . S
C471 H470 0.961 . S
C471 H472 0.960 . S
H472 C471 0.960 . S
H473 N453 0.862 . S
O474 Co442 1.920 . S
O474 C447 1.289 . S
C475 O467 1.258 . S
C475 O468 1.266 . S
Co476 O479 1.970 . S
Co476 N493 1.989 . S
Co476 O501 1.967 . S
Co476 O508 1.920 . S
Co477 O480 1.966 . S
Co477 N486 2.022 . S
Co477 N494 1.993 . S
Co477 O502 1.941 . S
C478 O479 1.258 . S
C478 O480 1.263 . S
O479 Co476 1.970 . S
O479 C478 1.258 . S
O480 Co477 1.966 . S
O480 C478 1.263 . S
C481 O482 1.235 . S
C481 O508 1.289 . S
O482 C481 1.235 . S
C483 C485 1.400 . S
C483 N486 1.351 . S
C483 C488 1.501 . S
C484 C485 1.387 . S
C484 N487 1.341 . S
C485 C483 1.400 . S
C485 C484 1.387 . S
N486 Co477 2.022 . S
N486 C483 1.351 . S
N486 N487 1.365 . S
N487 C484 1.341 . S
N487 N486 1.365 . S
N487 H507 0.862 . S
C488 C483 1.501 . S
C488 H489 0.961 . S
C488 H490 0.961 . S
C488 H491 0.960 . S
H489 C488 0.961 . S
H490 C488 0.961 . S
H491 C488 0.960 . S
C492 N493 1.342 . S
C492 C496 1.401 . S
C492 C497 1.499 . S
N493 Co476 1.989 . S
N493 C492 1.342 . S
N493 N494 1.388 . S
N494 Co477 1.993 . S
N494 N493 1.388 . S
N494 C495 1.346 . S
C495 N494 1.346 . S
C495 C496 1.396 . S
C495 C505 1.510 . S
C496 C492 1.401 . S
C496 C495 1.396 . S
C497 C492 1.499 . S
C497 H498 0.959 . S
C497 H499 0.960 . S
C497 H500 0.961 . S
H498 C497 0.959 . S
H499 C497 0.960 . S
H500 C497 0.961 . S
O501 Co476 1.967 . S
O501 C509 1.258 . S
O502 Co477 1.941 . S
O502 C509 1.266 . S
H503 C505 0.959 . S
H504 C505 0.961 . S
C505 C495 1.510 . S
C505 H503 0.959 . S
C505 H504 0.961 . S
C505 H506 0.960 . S
H506 C505 0.960 . S
H507 N487 0.862 . S
O508 Co476 1.920 . S
O508 C481 1.289 . S
C509 O501 1.258 . S
C509 O502 1.266 . S
Co510 O513 1.970 . S
Co510 N527 1.989 . S
Co510 O535 1.967 . S
Co510 O542 1.920 . S
Co511 O514 1.966 . S
Co511 N520 2.022 . S
Co511 N528 1.993 . S
Co511 O536 1.941 . S
C512 O513 1.258 . S
C512 O514 1.263 . S
O513 Co510 1.970 . S
O513 C512 1.258 . S
O514 Co511 1.966 . S
O514 C512 1.263 . S
C515 O516 1.235 . S
C515 O542 1.289 . S
O516 C515 1.235 . S
C517 C519 1.400 . S
C517 N520 1.351 . S
C517 C522 1.501 . S
C518 C519 1.387 . S
C518 N521 1.341 . S
C519 C517 1.400 . S
C519 C518 1.387 . S
N520 Co511 2.022 . S
N520 C517 1.351 . S
N520 N521 1.365 . S
N521 C518 1.341 . S
N521 N520 1.365 . S
N521 H541 0.862 . S
C522 C517 1.501 . S
C522 H523 0.961 . S
C522 H524 0.961 . S
C522 H525 0.960 . S
H523 C522 0.961 . S
H524 C522 0.961 . S
H525 C522 0.960 . S
C526 N527 1.342 . S
C526 C530 1.401 . S
C526 C531 1.499 . S
N527 Co510 1.989 . S
N527 C526 1.342 . S
N527 N528 1.388 . S
N528 Co511 1.993 . S
N528 N527 1.388 . S
N528 C529 1.346 . S
C529 N528 1.346 . S
C529 C530 1.396 . S
C529 C539 1.510 . S
C530 C526 1.401 . S
C530 C529 1.396 . S
C531 C526 1.499 . S
C531 H532 0.959 . S
C531 H533 0.960 . S
C531 H534 0.961 . S
H532 C531 0.959 . S
H533 C531 0.960 . S
H534 C531 0.961 . S
O535 Co510 1.967 . S
O535 C543 1.258 . S
O536 Co511 1.941 . S
O536 C543 1.266 . S
H537 C539 0.959 . S
H538 C539 0.961 . S
C539 C529 1.510 . S
C539 H537 0.959 . S
C539 H538 0.961 . S
C539 H540 0.960 . S
H540 C539 0.960 . S
H541 N521 0.862 . S
O542 Co510 1.920 . S
O542 C515 1.289 . S
C543 O535 1.258 . S
C543 O536 1.266 . S
H544 C552 0.929 . S
H545 C554 0.930 . S
H546 C556 0.930 . S
H547 C559 0.929 . S
H548 C562 0.930 . S
H549 C564 0.960 . S
H550 C564 0.960 . S
H551 C564 0.960 . S
C552 H544 0.929 . S
C552 C553 1.377 . S
C552 C554 1.384 . S
C553 C552 1.377 . S
C553 C559 1.390 . S
C554 H545 0.930 . S
C554 C552 1.384 . S
C554 C555 1.372 . S
C555 C554 1.372 . S
C555 C556 1.400 . S
C555 C560 1.490 . S
C556 H546 0.930 . S
C556 C555 1.400 . S
C556 C559 1.386 . S
H557 C573 0.930 . S
H558 C574 0.931 . S
C559 H547 0.929 . S
C559 C553 1.390 . S
C559 C556 1.386 . S
C560 C555 1.490 . S
C560 C562 1.395 . S
C560 C563 1.403 . S
H561 C567 0.930 . S
C562 H548 0.930 . S
C562 C560 1.395 . S
C562 C565 1.403 . S
C563 C560 1.403 . S
C563 C564 1.524 . S
C563 C567 1.400 . S
C564 H549 0.960 . S
C564 H550 0.960 . S
C564 H551 0.960 . S
C564 C563 1.524 . S
C565 C562 1.403 . S
C565 C566 1.392 . S
C565 C569 1.495 . S
C566 C565 1.392 . S
C566 C567 1.385 . S
C566 C568 1.478 . S
C567 H561 0.930 . S
C567 C563 1.400 . S
C567 C566 1.385 . S
C568 C566 1.478 . S
C568 C570 1.381 . S
C568 C574 1.383 . S
C569 C565 1.495 . S
C569 H575 0.959 . S
C569 H576 0.961 . S
C569 H577 0.960 . S
C570 C568 1.381 . S
C570 C571 1.394 . S
C570 H578 0.930 . S
C571 C570 1.394 . S
C571 C572 1.383 . S
C571 H579 0.929 . S
C572 C571 1.383 . S
C572 C573 1.377 . S
C573 H557 0.930 . S
C573 C572 1.377 . S
C573 C574 1.379 . S
C574 H558 0.931 . S
C574 C568 1.383 . S
C574 C573 1.379 . S
H575 C569 0.959 . S
H576 C569 0.961 . S
H577 C569 0.960 . S
H578 C570 0.930 . S
H579 C571 0.929 . S
H580 C588 0.929 . S
H581 C590 0.930 . S
H582 C592 0.930 . S
H583 C595 0.929 . S
H584 C598 0.930 . S
H585 C600 0.960 . S
H586 C600 0.960 . S
H587 C600 0.960 . S
C588 H580 0.929 . S
C588 C589 1.377 . S
C588 C590 1.384 . S
C589 C588 1.377 . S
C589 C595 1.390 . S
C590 H581 0.930 . S
C590 C588 1.384 . S
C590 C591 1.372 . S
C591 C590 1.372 . S
C591 C592 1.400 . S
C591 C596 1.490 . S
C592 H582 0.930 . S
C592 C591 1.400 . S
C592 C595 1.386 . S
H593 C609 0.930 . S
H594 C610 0.931 . S
C595 H583 0.929 . S
C595 C589 1.390 . S
C595 C592 1.386 . S
C596 C591 1.490 . S
C596 C598 1.395 . S
C596 C599 1.403 . S
H597 C603 0.930 . S
C598 H584 0.930 . S
C598 C596 1.395 . S
C598 C601 1.403 . S
C599 C596 1.403 . S
C599 C600 1.524 . S
C599 C603 1.400 . S
C600 H585 0.960 . S
C600 H586 0.960 . S
C600 H587 0.960 . S
C600 C599 1.524 . S
C601 C598 1.403 . S
C601 C602 1.392 . S
C601 C605 1.495 . S
C602 C601 1.392 . S
C602 C603 1.385 . S
C602 C604 1.478 . S
C603 H597 0.930 . S
C603 C599 1.400 . S
C603 C602 1.385 . S
C604 C602 1.478 . S
C604 C606 1.381 . S
C604 C610 1.383 . S
C605 C601 1.495 . S
C605 H611 0.959 . S
C605 H612 0.961 . S
C605 H613 0.960 . S
C606 C604 1.381 . S
C606 C607 1.394 . S
C606 H614 0.930 . S
C607 C606 1.394 . S
C607 C608 1.383 . S
C607 H615 0.929 . S
C608 C607 1.383 . S
C608 C609 1.377 . S
C609 H593 0.930 . S
C609 C608 1.377 . S
C609 C610 1.379 . S
C610 H594 0.931 . S
C610 C604 1.383 . S
C610 C609 1.379 . S
H611 C605 0.959 . S
H612 C605 0.961 . S
H613 C605 0.960 . S
H614 C606 0.930 . S
H615 C607 0.929 . S
H616 C624 0.929 . S
H617 C626 0.930 . S
H618 C628 0.930 . S
H619 C631 0.929 . S
H620 C634 0.930 . S
H621 C636 0.960 . S
H622 C636 0.960 . S
H623 C636 0.960 . S
C624 H616 0.929 . S
C624 C625 1.377 . S
C624 C626 1.384 . S
C625 C624 1.377 . S
C625 C631 1.390 . S
C626 H617 0.930 . S
C626 C624 1.384 . S
C626 C627 1.372 . S
C627 C626 1.372 . S
C627 C628 1.400 . S
C627 C632 1.490 . S
C628 H618 0.930 . S
C628 C627 1.400 . S
C628 C631 1.386 . S
H629 C645 0.930 . S
H630 C646 0.931 . S
C631 H619 0.929 . S
C631 C625 1.390 . S
C631 C628 1.386 . S
C632 C627 1.490 . S
C632 C634 1.395 . S
C632 C635 1.403 . S
H633 C639 0.930 . S
C634 H620 0.930 . S
C634 C632 1.395 . S
C634 C637 1.403 . S
C635 C632 1.403 . S
C635 C636 1.524 . S
C635 C639 1.400 . S
C636 H621 0.960 . S
C636 H622 0.960 . S
C636 H623 0.960 . S
C636 C635 1.524 . S
C637 C634 1.403 . S
C637 C638 1.392 . S
C637 C641 1.495 . S
C638 C637 1.392 . S
C638 C639 1.385 . S
C638 C640 1.478 . S
C639 H633 0.930 . S
C639 C635 1.400 . S
C639 C638 1.385 . S
C640 C638 1.478 . S
C640 C642 1.381 . S
C640 C646 1.383 . S
C641 C637 1.495 . S
C641 H647 0.959 . S
C641 H648 0.961 . S
C641 H649 0.960 . S
C642 C640 1.381 . S
C642 C643 1.394 . S
C642 H650 0.930 . S
C643 C642 1.394 . S
C643 C644 1.383 . S
C643 H651 0.929 . S
C644 C643 1.383 . S
C644 C645 1.377 . S
C645 H629 0.930 . S
C645 C644 1.377 . S
C645 C646 1.379 . S
C646 H630 0.931 . S
C646 C640 1.383 . S
C646 C645 1.379 . S
H647 C641 0.959 . S
H648 C641 0.961 . S
H649 C641 0.960 . S
H650 C642 0.930 . S
H651 C643 0.929 . S
H652 C660 0.929 . S
H653 C662 0.930 . S
H654 C664 0.930 . S
H655 C667 0.929 . S
H656 C670 0.930 . S
H657 C672 0.960 . S
H658 C672 0.960 . S
H659 C672 0.960 . S
C660 H652 0.929 . S
C660 C661 1.377 . S
C660 C662 1.384 . S
C661 C660 1.377 . S
C661 C667 1.390 . S
C662 H653 0.930 . S
C662 C660 1.384 . S
C662 C663 1.372 . S
C663 C662 1.372 . S
C663 C664 1.400 . S
C663 C668 1.490 . S
C664 H654 0.930 . S
C664 C663 1.400 . S
C664 C667 1.386 . S
H665 C681 0.930 . S
H666 C682 0.931 . S
C667 H655 0.929 . S
C667 C661 1.390 . S
C667 C664 1.386 . S
C668 C663 1.490 . S
C668 C670 1.395 . S
C668 C671 1.403 . S
H669 C675 0.930 . S
C670 H656 0.930 . S
C670 C668 1.395 . S
C670 C673 1.403 . S
C671 C668 1.403 . S
C671 C672 1.524 . S
C671 C675 1.400 . S
C672 H657 0.960 . S
C672 H658 0.960 . S
C672 H659 0.960 . S
C672 C671 1.524 . S
C673 C670 1.403 . S
C673 C674 1.392 . S
C673 C677 1.495 . S
C674 C673 1.392 . S
C674 C675 1.385 . S
C674 C676 1.478 . S
C675 H669 0.930 . S
C675 C671 1.400 . S
C675 C674 1.385 . S
C676 C674 1.478 . S
C676 C678 1.381 . S
C676 C682 1.383 . S
C677 C673 1.495 . S
C677 H683 0.959 . S
C677 H684 0.961 . S
C677 H685 0.960 . S
C678 C676 1.381 . S
C678 C679 1.394 . S
C678 H686 0.930 . S
C679 C678 1.394 . S
C679 C680 1.383 . S
C679 H687 0.929 . S
C680 C679 1.383 . S
C680 C681 1.377 . S
C681 H665 0.930 . S
C681 C680 1.377 . S
C681 C682 1.379 . S
C682 H666 0.931 . S
C682 C676 1.383 . S
C682 C681 1.379 . S
H683 C677 0.959 . S
H684 C677 0.961 . S
H685 C677 0.960 . S
H686 C678 0.930 . S
H687 C679 0.929 . S
H688 C696 0.929 . S
H689 C698 0.930 . S
H690 C700 0.930 . S
H691 C703 0.929 . S
H692 C706 0.930 . S
H693 C708 0.960 . S
H694 C708 0.960 . S
H695 C708 0.960 . S
C696 H688 0.929 . S
C696 C697 1.377 . S
C696 C698 1.384 . S
C697 C696 1.377 . S
C697 C703 1.390 . S
C698 H689 0.930 . S
C698 C696 1.384 . S
C698 C699 1.372 . S
C699 C698 1.372 . S
C699 C700 1.400 . S
C699 C704 1.490 . S
C700 H690 0.930 . S
C700 C699 1.400 . S
C700 C703 1.386 . S
H701 C717 0.930 . S
H702 C718 0.931 . S
C703 H691 0.929 . S
C703 C697 1.390 . S
C703 C700 1.386 . S
C704 C699 1.490 . S
C704 C706 1.395 . S
C704 C707 1.403 . S
H705 C711 0.930 . S
C706 H692 0.930 . S
C706 C704 1.395 . S
C706 C709 1.403 . S
C707 C704 1.403 . S
C707 C708 1.524 . S
C707 C711 1.400 . S
C708 H693 0.960 . S
C708 H694 0.960 . S
C708 H695 0.960 . S
C708 C707 1.524 . S
C709 C706 1.403 . S
C709 C710 1.392 . S
C709 C713 1.495 . S
C710 C709 1.392 . S
C710 C711 1.385 . S
C710 C712 1.478 . S
C711 H705 0.930 . S
C711 C707 1.400 . S
C711 C710 1.385 . S
C712 C710 1.478 . S
C712 C714 1.381 . S
C712 C718 1.383 . S
C713 C709 1.495 . S
C713 H719 0.959 . S
C713 H720 0.961 . S
C713 H721 0.960 . S
C714 C712 1.381 . S
C714 C715 1.394 . S
C714 H722 0.930 . S
C715 C714 1.394 . S
C715 C716 1.383 . S
C715 H723 0.929 . S
C716 C715 1.383 . S
C716 C717 1.377 . S
C717 H701 0.930 . S
C717 C716 1.377 . S
C717 C718 1.379 . S
C718 H702 0.931 . S
C718 C712 1.383 . S
C718 C717 1.379 . S
H719 C713 0.959 . S
H720 C713 0.961 . S
H721 C713 0.960 . S
H722 C714 0.930 . S
H723 C715 0.929 . S
H724 C732 0.929 . S
H725 C734 0.930 . S
H726 C736 0.930 . S
H727 C739 0.929 . S
H728 C742 0.930 . S
H729 C744 0.960 . S
H730 C744 0.960 . S
H731 C744 0.960 . S
C732 H724 0.929 . S
C732 C733 1.377 . S
C732 C734 1.384 . S
C733 C732 1.377 . S
C733 C739 1.390 . S
C734 H725 0.930 . S
C734 C732 1.384 . S
C734 C735 1.372 . S
C735 C734 1.372 . S
C735 C736 1.400 . S
C735 C740 1.490 . S
C736 H726 0.930 . S
C736 C735 1.400 . S
C736 C739 1.386 . S
H737 C753 0.930 . S
H738 C754 0.931 . S
C739 H727 0.929 . S
C739 C733 1.390 . S
C739 C736 1.386 . S
C740 C735 1.490 . S
C740 C742 1.395 . S
C740 C743 1.403 . S
H741 C747 0.930 . S
C742 H728 0.930 . S
C742 C740 1.395 . S
C742 C745 1.403 . S
C743 C740 1.403 . S
C743 C744 1.524 . S
C743 C747 1.400 . S
C744 H729 0.960 . S
C744 H730 0.960 . S
C744 H731 0.960 . S
C744 C743 1.524 . S
C745 C742 1.403 . S
C745 C746 1.392 . S
C745 C749 1.495 . S
C746 C745 1.392 . S
C746 C747 1.385 . S
C746 C748 1.478 . S
C747 H741 0.930 . S
C747 C743 1.400 . S
C747 C746 1.385 . S
C748 C746 1.478 . S
C748 C750 1.381 . S
C748 C754 1.383 . S
C749 C745 1.495 . S
C749 H755 0.959 . S
C749 H756 0.961 . S
C749 H757 0.960 . S
C750 C748 1.381 . S
C750 C751 1.394 . S
C750 H758 0.930 . S
C751 C750 1.394 . S
C751 C752 1.383 . S
C751 H759 0.929 . S
C752 C751 1.383 . S
C752 C753 1.377 . S
C753 H737 0.930 . S
C753 C752 1.377 . S
C753 C754 1.379 . S
C754 H738 0.931 . S
C754 C748 1.383 . S
C754 C753 1.379 . S
H755 C749 0.959 . S
H756 C749 0.961 . S
H757 C749 0.960 . S
H758 C750 0.930 . S
H759 C751 0.929 . S
H760 C768 0.929 . S
H761 C770 0.930 . S
H762 C772 0.930 . S
H763 C775 0.929 . S
H764 C778 0.930 . S
H765 C780 0.960 . S
H766 C780 0.960 . S
H767 C780 0.960 . S
C768 H760 0.929 . S
C768 C769 1.377 . S
C768 C770 1.384 . S
C769 C768 1.377 . S
C769 C775 1.390 . S
C770 H761 0.930 . S
C770 C768 1.384 . S
C770 C771 1.372 . S
C771 C770 1.372 . S
C771 C772 1.400 . S
C771 C776 1.490 . S
C772 H762 0.930 . S
C772 C771 1.400 . S
C772 C775 1.386 . S
H773 C789 0.930 . S
H774 C790 0.931 . S
C775 H763 0.929 . S
C775 C769 1.390 . S
C775 C772 1.386 . S
C776 C771 1.490 . S
C776 C778 1.395 . S
C776 C779 1.403 . S
H777 C783 0.930 . S
C778 H764 0.930 . S
C778 C776 1.395 . S
C778 C781 1.403 . S
C779 C776 1.403 . S
C779 C780 1.524 . S
C779 C783 1.400 . S
C780 H765 0.960 . S
C780 H766 0.960 . S
C780 H767 0.960 . S
C780 C779 1.524 . S
C781 C778 1.403 . S
C781 C782 1.392 . S
C781 C785 1.495 . S
C782 C781 1.392 . S
C782 C783 1.385 . S
C782 C784 1.478 . S
C783 H777 0.930 . S
C783 C779 1.400 . S
C783 C782 1.385 . S
C784 C782 1.478 . S
C784 C786 1.381 . S
C784 C790 1.383 . S
C785 C781 1.495 . S
C785 H791 0.959 . S
C785 H792 0.961 . S
C785 H793 0.960 . S
C786 C784 1.381 . S
C786 C787 1.394 . S
C786 H794 0.930 . S
C787 C786 1.394 . S
C787 C788 1.383 . S
C787 H795 0.929 . S
C788 C787 1.383 . S
C788 C789 1.377 . S
C789 H773 0.930 . S
C789 C788 1.377 . S
C789 C790 1.379 . S
C790 H774 0.931 . S
C790 C784 1.383 . S
C790 C789 1.379 . S
H791 C785 0.959 . S
H792 C785 0.961 . S
H793 C785 0.960 . S
H794 C786 0.930 . S
H795 C787 0.929 . S
H796 C804 0.929 . S
H797 C806 0.930 . S
H798 C808 0.930 . S
H799 C811 0.929 . S
H800 C814 0.930 . S
H801 C816 0.960 . S
H802 C816 0.960 . S
H803 C816 0.960 . S
C804 H796 0.929 . S
C804 C805 1.377 . S
C804 C806 1.384 . S
C805 C804 1.377 . S
C805 C811 1.390 . S
C806 H797 0.930 . S
C806 C804 1.384 . S
C806 C807 1.372 . S
C807 C806 1.372 . S
C807 C808 1.400 . S
C807 C812 1.490 . S
C808 H798 0.930 . S
C808 C807 1.400 . S
C808 C811 1.386 . S
H809 C825 0.930 . S
H810 C826 0.931 . S
C811 H799 0.929 . S
C811 C805 1.390 . S
C811 C808 1.386 . S
C812 C807 1.490 . S
C812 C814 1.395 . S
C812 C815 1.403 . S
H813 C819 0.930 . S
C814 H800 0.930 . S
C814 C812 1.395 . S
C814 C817 1.403 . S
C815 C812 1.403 . S
C815 C816 1.524 . S
C815 C819 1.400 . S
C816 H801 0.960 . S
C816 H802 0.960 . S
C816 H803 0.960 . S
C816 C815 1.524 . S
C817 C814 1.403 . S
C817 C818 1.392 . S
C817 C821 1.495 . S
C818 C817 1.392 . S
C818 C819 1.385 . S
C818 C820 1.478 . S
C819 H813 0.930 . S
C819 C815 1.400 . S
C819 C818 1.385 . S
C820 C818 1.478 . S
C820 C822 1.381 . S
C820 C826 1.383 . S
C821 C817 1.495 . S
C821 H827 0.959 . S
C821 H828 0.961 . S
C821 H829 0.960 . S
C822 C820 1.381 . S
C822 C823 1.394 . S
C822 H830 0.930 . S
C823 C822 1.394 . S
C823 C824 1.383 . S
C823 H831 0.929 . S
C824 C823 1.383 . S
C824 C825 1.377 . S
C825 H809 0.930 . S
C825 C824 1.377 . S
C825 C826 1.379 . S
C826 H810 0.931 . S
C826 C820 1.383 . S
C826 C825 1.379 . S
H827 C821 0.959 . S
H828 C821 0.961 . S
H829 C821 0.960 . S
H830 C822 0.930 . S
H831 C823 0.929 . S
H832 C840 0.929 . S
H833 C842 0.930 . S
H834 C844 0.930 . S
H835 C847 0.929 . S
H836 C850 0.930 . S
H837 C852 0.960 . S
H838 C852 0.960 . S
H839 C852 0.960 . S
C840 H832 0.929 . S
C840 C841 1.377 . S
C840 C842 1.384 . S
C841 C840 1.377 . S
C841 C847 1.390 . S
C842 H833 0.930 . S
C842 C840 1.384 . S
C842 C843 1.372 . S
C843 C842 1.372 . S
C843 C844 1.400 . S
C843 C848 1.490 . S
C844 H834 0.930 . S
C844 C843 1.400 . S
C844 C847 1.386 . S
H845 C861 0.930 . S
H846 C862 0.931 . S
C847 H835 0.929 . S
C847 C841 1.390 . S
C847 C844 1.386 . S
C848 C843 1.490 . S
C848 C850 1.395 . S
C848 C851 1.403 . S
H849 C855 0.930 . S
C850 H836 0.930 . S
C850 C848 1.395 . S
C850 C853 1.403 . S
C851 C848 1.403 . S
C851 C852 1.524 . S
C851 C855 1.400 . S
C852 H837 0.960 . S
C852 H838 0.960 . S
C852 H839 0.960 . S
C852 C851 1.524 . S
C853 C850 1.403 . S
C853 C854 1.392 . S
C853 C857 1.495 . S
C854 C853 1.392 . S
C854 C855 1.385 . S
C854 C856 1.478 . S
C855 H849 0.930 . S
C855 C851 1.400 . S
C855 C854 1.385 . S
C856 C854 1.478 . S
C856 C858 1.381 . S
C856 C862 1.383 . S
C857 C853 1.495 . S
C857 H863 0.959 . S
C857 H864 0.961 . S
C857 H865 0.960 . S
C858 C856 1.381 . S
C858 C859 1.394 . S
C858 H866 0.930 . S
C859 C858 1.394 . S
C859 C860 1.383 . S
C859 H867 0.929 . S
C860 C859 1.383 . S
C860 C861 1.377 . S
C861 H845 0.930 . S
C861 C860 1.377 . S
C861 C862 1.379 . S
C862 H846 0.931 . S
C862 C856 1.383 . S
C862 C861 1.379 . S
H863 C857 0.959 . S
H864 C857 0.961 . S
H865 C857 0.960 . S
H866 C858 0.930 . S
H867 C859 0.929 . S
H868 C876 0.929 . S
H869 C878 0.930 . S
H870 C880 0.930 . S
H871 C883 0.929 . S
H872 C886 0.930 . S
H873 C888 0.960 . S
H874 C888 0.960 . S
H875 C888 0.960 . S
C876 H868 0.929 . S
C876 C877 1.377 . S
C876 C878 1.384 . S
C877 C876 1.377 . S
C877 C883 1.390 . S
C878 H869 0.930 . S
C878 C876 1.384 . S
C878 C879 1.372 . S
C879 C878 1.372 . S
C879 C880 1.400 . S
C879 C884 1.490 . S
C880 H870 0.930 . S
C880 C879 1.400 . S
C880 C883 1.386 . S
H881 C897 0.930 . S
H882 C898 0.931 . S
C883 H871 0.929 . S
C883 C877 1.390 . S
C883 C880 1.386 . S
C884 C879 1.490 . S
C884 C886 1.395 . S
C884 C887 1.403 . S
H885 C891 0.930 . S
C886 H872 0.930 . S
C886 C884 1.395 . S
C886 C889 1.403 . S
C887 C884 1.403 . S
C887 C888 1.524 . S
C887 C891 1.400 . S
C888 H873 0.960 . S
C888 H874 0.960 . S
C888 H875 0.960 . S
C888 C887 1.524 . S
C889 C886 1.403 . S
C889 C890 1.392 . S
C889 C893 1.495 . S
C890 C889 1.392 . S
C890 C891 1.385 . S
C890 C892 1.478 . S
C891 H885 0.930 . S
C891 C887 1.400 . S
C891 C890 1.385 . S
C892 C890 1.478 . S
C892 C894 1.381 . S
C892 C898 1.383 . S
C893 C889 1.495 . S
C893 H899 0.959 . S
C893 H900 0.961 . S
C893 H901 0.960 . S
C894 C892 1.381 . S
C894 C895 1.394 . S
C894 H902 0.930 . S
C895 C894 1.394 . S
C895 C896 1.383 . S
C895 H903 0.929 . S
C896 C895 1.383 . S
C896 C897 1.377 . S
C897 H881 0.930 . S
C897 C896 1.377 . S
C897 C898 1.379 . S
C898 H882 0.931 . S
C898 C892 1.383 . S
C898 C897 1.379 . S
H899 C893 0.959 . S
H900 C893 0.961 . S
H901 C893 0.960 . S
H902 C894 0.930 . S
H903 C895 0.929 . S
H904 C912 0.929 . S
H905 C914 0.930 . S
H906 C916 0.930 . S
H907 C919 0.929 . S
H908 C922 0.930 . S
H909 C924 0.960 . S
H910 C924 0.960 . S
H911 C924 0.960 . S
C912 H904 0.929 . S
C912 C913 1.377 . S
C912 C914 1.384 . S
C913 C912 1.377 . S
C913 C919 1.390 . S
C914 H905 0.930 . S
C914 C912 1.384 . S
C914 C915 1.372 . S
C915 C914 1.372 . S
C915 C916 1.400 . S
C915 C920 1.490 . S
C916 H906 0.930 . S
C916 C915 1.400 . S
C916 C919 1.386 . S
H917 C933 0.930 . S
H918 C934 0.931 . S
C919 H907 0.929 . S
C919 C913 1.390 . S
C919 C916 1.386 . S
C920 C915 1.490 . S
C920 C922 1.395 . S
C920 C923 1.403 . S
H921 C927 0.930 . S
C922 H908 0.930 . S
C922 C920 1.395 . S
C922 C925 1.403 . S
C923 C920 1.403 . S
C923 C924 1.524 . S
C923 C927 1.400 . S
C924 H909 0.960 . S
C924 H910 0.960 . S
C924 H911 0.960 . S
C924 C923 1.524 . S
C925 C922 1.403 . S
C925 C926 1.392 . S
C925 C929 1.495 . S
C926 C925 1.392 . S
C926 C927 1.385 . S
C926 C928 1.478 . S
C927 H921 0.930 . S
C927 C923 1.400 . S
C927 C926 1.385 . S
C928 C926 1.478 . S
C928 C930 1.381 . S
C928 C934 1.383 . S
C929 C925 1.495 . S
C929 H935 0.959 . S
C929 H936 0.961 . S
C929 H937 0.960 . S
C930 C928 1.381 . S
C930 C931 1.394 . S
C930 H938 0.930 . S
C931 C930 1.394 . S
C931 C932 1.383 . S
C931 H939 0.929 . S
C932 C931 1.383 . S
C932 C933 1.377 . S
C933 H917 0.930 . S
C933 C932 1.377 . S
C933 C934 1.379 . S
C934 H918 0.931 . S
C934 C928 1.383 . S
C934 C933 1.379 . S
H935 C929 0.959 . S
H936 C929 0.961 . S
H937 C929 0.960 . S
H938 C930 0.930 . S
H939 C931 0.929 . S
H940 C948 0.929 . S
H941 C950 0.930 . S
H942 C952 0.930 . S
H943 C955 0.929 . S
H944 C958 0.930 . S
H945 C960 0.960 . S
H946 C960 0.960 . S
H947 C960 0.960 . S
C948 H940 0.929 . S
C948 C949 1.377 . S
C948 C950 1.384 . S
C949 C948 1.377 . S
C949 C955 1.390 . S
C950 H941 0.930 . S
C950 C948 1.384 . S
C950 C951 1.372 . S
C951 C950 1.372 . S
C951 C952 1.400 . S
C951 C956 1.490 . S
C952 H942 0.930 . S
C952 C951 1.400 . S
C952 C955 1.386 . S
H953 C969 0.930 . S
H954 C970 0.931 . S
C955 H943 0.929 . S
C955 C949 1.390 . S
C955 C952 1.386 . S
C956 C951 1.490 . S
C956 C958 1.395 . S
C956 C959 1.403 . S
H957 C963 0.930 . S
C958 H944 0.930 . S
C958 C956 1.395 . S
C958 C961 1.403 . S
C959 C956 1.403 . S
C959 C960 1.524 . S
C959 C963 1.400 . S
C960 H945 0.960 . S
C960 H946 0.960 . S
C960 H947 0.960 . S
C960 C959 1.524 . S
C961 C958 1.403 . S
C961 C962 1.392 . S
C961 C965 1.495 . S
C962 C961 1.392 . S
C962 C963 1.385 . S
C962 C964 1.478 . S
C963 H957 0.930 . S
C963 C959 1.400 . S
C963 C962 1.385 . S
C964 C962 1.478 . S
C964 C966 1.381 . S
C964 C970 1.383 . S
C965 C961 1.495 . S
C965 H971 0.959 . S
C965 H972 0.961 . S
C965 H973 0.960 . S
C966 C964 1.381 . S
C966 C967 1.394 . S
C966 H974 0.930 . S
C967 C966 1.394 . S
C967 C968 1.383 . S
C967 H975 0.929 . S
C968 C967 1.383 . S
C968 C969 1.377 . S
C969 H953 0.930 . S
C969 C968 1.377 . S
C969 C970 1.379 . S
C970 H954 0.931 . S
C970 C964 1.383 . S
C970 C969 1.379 . S
H971 C965 0.959 . S
H972 C965 0.961 . S
H973 C965 0.960 . S
H974 C966 0.930 . S
H975 C967 0.929 . S
H976 C984 0.929 . S
H977 C986 0.930 . S
H978 C988 0.930 . S
H979 C991 0.929 . S
H980 C994 0.930 . S
H981 C996 0.960 . S
H982 C996 0.960 . S
H983 C996 0.960 . S
C984 H976 0.929 . S
C984 C985 1.377 . S
C984 C986 1.384 . S
C985 C984 1.377 . S
C985 C991 1.390 . S
C986 H977 0.930 . S
C986 C984 1.384 . S
C986 C987 1.372 . S
C987 C986 1.372 . S
C987 C988 1.400 . S
C987 C992 1.490 . S
C988 H978 0.930 . S
C988 C987 1.400 . S
C988 C991 1.386 . S
H989 C1005 0.930 . S
H990 C1006 0.931 . S
C991 H979 0.929 . S
C991 C985 1.390 . S
C991 C988 1.386 . S
C992 C987 1.490 . S
C992 C994 1.395 . S
C992 C995 1.403 . S
H993 C999 0.930 . S
C994 H980 0.930 . S
C994 C992 1.395 . S
C994 C997 1.403 . S
C995 C992 1.403 . S
C995 C996 1.524 . S
C995 C999 1.400 . S
C996 H981 0.960 . S
C996 H982 0.960 . S
C996 H983 0.960 . S
C996 C995 1.524 . S
C997 C994 1.403 . S
C997 C998 1.392 . S
C997 C1001 1.495 . S
C998 C997 1.392 . S
C998 C999 1.385 . S
C998 C1000 1.478 . S
C999 H993 0.930 . S
C999 C995 1.400 . S
C999 C998 1.385 . S
C1000 C998 1.478 . S
C1000 C1002 1.381 . S
C1000 C1006 1.383 . S
C1001 C997 1.495 . S
C1001 H1007 0.959 . S
C1001 H1008 0.961 . S
C1001 H1009 0.960 . S
C1002 C1000 1.381 . S
C1002 C1003 1.394 . S
C1002 H1010 0.930 . S
C1003 C1002 1.394 . S
C1003 C1004 1.383 . S
C1003 H1011 0.929 . S
C1004 C1003 1.383 . S
C1004 C1005 1.377 . S
C1005 H989 0.930 . S
C1005 C1004 1.377 . S
C1005 C1006 1.379 . S
C1006 H990 0.931 . S
C1006 C1000 1.383 . S
C1006 C1005 1.379 . S
H1007 C1001 0.959 . S
H1008 C1001 0.961 . S
H1009 C1001 0.960 . S
H1010 C1002 0.930 . S
H1011 C1003 0.929 . S
H1012 C1020 0.929 . S
H1013 C1022 0.930 . S
H1014 C1024 0.930 . S
H1015 C1027 0.929 . S
H1016 C1030 0.930 . S
H1017 C1032 0.960 . S
H1018 C1032 0.960 . S
H1019 C1032 0.960 . S
C1020 H1012 0.929 . S
C1020 C1021 1.377 . S
C1020 C1022 1.384 . S
C1021 C1020 1.377 . S
C1021 C1027 1.390 . S
C1022 H1013 0.930 . S
C1022 C1020 1.384 . S
C1022 C1023 1.372 . S
C1023 C1022 1.372 . S
C1023 C1024 1.400 . S
C1023 C1028 1.490 . S
C1024 H1014 0.930 . S
C1024 C1023 1.400 . S
C1024 C1027 1.386 . S
H1025 C1041 0.930 . S
H1026 C1042 0.931 . S
C1027 H1015 0.929 . S
C1027 C1021 1.390 . S
C1027 C1024 1.386 . S
C1028 C1023 1.490 . S
C1028 C1030 1.395 . S
C1028 C1031 1.403 . S
H1029 C1035 0.930 . S
C1030 H1016 0.930 . S
C1030 C1028 1.395 . S
C1030 C1033 1.403 . S
C1031 C1028 1.403 . S
C1031 C1032 1.524 . S
C1031 C1035 1.400 . S
C1032 H1017 0.960 . S
C1032 H1018 0.960 . S
C1032 H1019 0.960 . S
C1032 C1031 1.524 . S
C1033 C1030 1.403 . S
C1033 C1034 1.392 . S
C1033 C1037 1.495 . S
C1034 C1033 1.392 . S
C1034 C1035 1.385 . S
C1034 C1036 1.478 . S
C1035 H1029 0.930 . S
C1035 C1031 1.400 . S
C1035 C1034 1.385 . S
C1036 C1034 1.478 . S
C1036 C1038 1.381 . S
C1036 C1042 1.383 . S
C1037 C1033 1.495 . S
C1037 H1043 0.959 . S
C1037 H1044 0.961 . S
C1037 H1045 0.960 . S
C1038 C1036 1.381 . S
C1038 C1039 1.394 . S
C1038 H1046 0.930 . S
C1039 C1038 1.394 . S
C1039 C1040 1.383 . S
C1039 H1047 0.929 . S
C1040 C1039 1.383 . S
C1040 C1041 1.377 . S
C1041 H1025 0.930 . S
C1041 C1040 1.377 . S
C1041 C1042 1.379 . S
C1042 H1026 0.931 . S
C1042 C1036 1.383 . S
C1042 C1041 1.379 . S
H1043 C1037 0.959 . S
H1044 C1037 0.961 . S
H1045 C1037 0.960 . S
H1046 C1038 0.930 . S
H1047 C1039 0.929 . S
H1048 C1056 0.929 . S
H1049 C1058 0.930 . S
H1050 C1060 0.930 . S
H1051 C1063 0.929 . S
H1052 C1066 0.930 . S
H1053 C1068 0.960 . S
H1054 C1068 0.960 . S
H1055 C1068 0.960 . S
C1056 H1048 0.929 . S
C1056 C1057 1.377 . S
C1056 C1058 1.384 . S
C1057 C1056 1.377 . S
C1057 C1063 1.390 . S
C1058 H1049 0.930 . S
C1058 C1056 1.384 . S
C1058 C1059 1.372 . S
C1059 C1058 1.372 . S
C1059 C1060 1.400 . S
C1059 C1064 1.490 . S
C1060 H1050 0.930 . S
C1060 C1059 1.400 . S
C1060 C1063 1.386 . S
H1061 C1077 0.930 . S
H1062 C1078 0.931 . S
C1063 H1051 0.929 . S
C1063 C1057 1.390 . S
C1063 C1060 1.386 . S
C1064 C1059 1.490 . S
C1064 C1066 1.395 . S
C1064 C1067 1.403 . S
H1065 C1071 0.930 . S
C1066 H1052 0.930 . S
C1066 C1064 1.395 . S
C1066 C1069 1.403 . S
C1067 C1064 1.403 . S
C1067 C1068 1.524 . S
C1067 C1071 1.400 . S
C1068 H1053 0.960 . S
C1068 H1054 0.960 . S
C1068 H1055 0.960 . S
C1068 C1067 1.524 . S
C1069 C1066 1.403 . S
C1069 C1070 1.392 . S
C1069 C1073 1.495 . S
C1070 C1069 1.392 . S
C1070 C1071 1.385 . S
C1070 C1072 1.478 . S
C1071 H1065 0.930 . S
C1071 C1067 1.400 . S
C1071 C1070 1.385 . S
C1072 C1070 1.478 . S
C1072 C1074 1.381 . S
C1072 C1078 1.383 . S
C1073 C1069 1.495 . S
C1073 H1079 0.959 . S
C1073 H1080 0.961 . S
C1073 H1081 0.960 . S
C1074 C1072 1.381 . S
C1074 C1075 1.394 . S
C1074 H1082 0.930 . S
C1075 C1074 1.394 . S
C1075 C1076 1.383 . S
C1075 H1083 0.929 . S
C1076 C1075 1.383 . S
C1076 C1077 1.377 . S
C1077 H1061 0.930 . S
C1077 C1076 1.377 . S
C1077 C1078 1.379 . S
C1078 H1062 0.931 . S
C1078 C1072 1.383 . S
C1078 C1077 1.379 . S
H1079 C1073 0.959 . S
H1080 C1073 0.961 . S
H1081 C1073 0.960 . S
H1082 C1074 0.930 . S
H1083 C1075 0.929 . S
H1084 C1092 0.929 . S
H1085 C1094 0.930 . S
H1086 C1096 0.930 . S
H1087 C1099 0.929 . S
H1088 C1102 0.930 . S
H1089 C1104 0.960 . S
H1090 C1104 0.960 . S
H1091 C1104 0.960 . S
C1092 H1084 0.929 . S
C1092 C1093 1.377 . S
C1092 C1094 1.384 . S
C1093 C1092 1.377 . S
C1093 C1099 1.390 . S
C1094 H1085 0.930 . S
C1094 C1092 1.384 . S
C1094 C1095 1.372 . S
C1095 C1094 1.372 . S
C1095 C1096 1.400 . S
C1095 C1100 1.490 . S
C1096 H1086 0.930 . S
C1096 C1095 1.400 . S
C1096 C1099 1.386 . S
H1097 C1113 0.930 . S
H1098 C1114 0.931 . S
C1099 H1087 0.929 . S
C1099 C1093 1.390 . S
C1099 C1096 1.386 . S
C1100 C1095 1.490 . S
C1100 C1102 1.395 . S
C1100 C1103 1.403 . S
H1101 C1107 0.930 . S
C1102 H1088 0.930 . S
C1102 C1100 1.395 . S
C1102 C1105 1.403 . S
C1103 C1100 1.403 . S
C1103 C1104 1.524 . S
C1103 C1107 1.400 . S
C1104 H1089 0.960 . S
C1104 H1090 0.960 . S
C1104 H1091 0.960 . S
C1104 C1103 1.524 . S
C1105 C1102 1.403 . S
C1105 C1106 1.392 . S
C1105 C1109 1.495 . S
C1106 C1105 1.392 . S
C1106 C1107 1.385 . S
C1106 C1108 1.478 . S
C1107 H1101 0.930 . S
C1107 C1103 1.400 . S
C1107 C1106 1.385 . S
C1108 C1106 1.478 . S
C1108 C1110 1.381 . S
C1108 C1114 1.383 . S
C1109 C1105 1.495 . S
C1109 H1115 0.959 . S
C1109 H1116 0.961 . S
C1109 H1117 0.960 . S
C1110 C1108 1.381 . S
C1110 C1111 1.394 . S
C1110 H1118 0.930 . S
C1111 C1110 1.394 . S
C1111 C1112 1.383 . S
C1111 H1119 0.929 . S
C1112 C1111 1.383 . S
C1112 C1113 1.377 . S
C1113 H1097 0.930 . S
C1113 C1112 1.377 . S
C1113 C1114 1.379 . S
C1114 H1098 0.931 . S
C1114 C1108 1.383 . S
C1114 C1113 1.379 . S
H1115 C1109 0.959 . S
H1116 C1109 0.961 . S
H1117 C1109 0.960 . S
H1118 C1110 0.930 . S
H1119 C1111 0.929 . S
H1120 C1128 0.929 1_556 S
H1121 C1130 0.930 1_556 S
H1122 C1132 0.930 . S
H1123 C1135 0.929 . S
H1124 C1138 0.930 . S
H1125 C1140 0.960 . S
H1126 C1140 0.960 . S
H1127 C1140 0.960 1_554 S
C1128 H1120 0.929 1_554 S
C1128 C1129 1.377 . S
C1128 C1130 1.384 . S
C1129 C1128 1.377 . S
C1129 C1135 1.390 . S
C1130 H1121 0.930 1_554 S
C1130 C1128 1.384 . S
C1130 C1131 1.372 . S
C1131 C1130 1.372 . S
C1131 C1132 1.400 . S
C1131 C1136 1.490 . S
C1132 H1122 0.930 . S
C1132 C1131 1.400 . S
C1132 C1135 1.386 . S
H1133 C1149 0.930 . S
H1134 C1150 0.931 . S
C1135 H1123 0.929 . S
C1135 C1129 1.390 . S
C1135 C1132 1.386 . S
C1136 C1131 1.490 . S
C1136 C1138 1.395 1_455 S
C1136 C1139 1.403 . S
H1137 C1143 0.930 . S
C1138 H1124 0.930 . S
C1138 C1136 1.395 1_655 S
C1138 C1141 1.403 . S
C1139 C1136 1.403 . S
C1139 C1140 1.524 1_554 S
C1139 C1143 1.400 . S
C1140 H1125 0.960 . S
C1140 H1126 0.960 . S
C1140 H1127 0.960 1_556 S
C1140 C1139 1.524 1_556 S
C1141 C1138 1.403 . S
C1141 C1142 1.392 . S
C1141 C1145 1.495 . S
C1142 C1141 1.392 . S
C1142 C1143 1.385 1_655 S
C1142 C1144 1.478 . S
C1143 H1137 0.930 . S
C1143 C1139 1.400 . S
C1143 C1142 1.385 1_455 S
C1144 C1142 1.478 . S
C1144 C1146 1.381 . S
C1144 C1150 1.383 . S
C1145 C1141 1.495 . S
C1145 H1151 0.959 . S
C1145 H1152 0.961 . S
C1145 H1153 0.960 . S
C1146 C1144 1.381 . S
C1146 C1147 1.394 . S
C1146 H1154 0.930 1_554 S
C1147 C1146 1.394 . S
C1147 C1148 1.383 . S
C1147 H1155 0.929 1_554 S
C1148 C1147 1.383 . S
C1148 C1149 1.377 . S
C1149 H1133 0.930 . S
C1149 C1148 1.377 . S
C1149 C1150 1.379 . S
C1150 H1134 0.931 . S
C1150 C1144 1.383 . S
C1150 C1149 1.379 . S
H1151 C1145 0.959 . S
H1152 C1145 0.961 . S
H1153 C1145 0.960 . S
H1154 C1146 0.930 1_556 S
H1155 C1147 0.929 1_556 S
H1156 C1164 0.929 . S
H1157 C1166 0.930 . S
H1158 C1168 0.930 . S
H1159 C1171 0.929 . S
H1160 C1174 0.930 . S
H1161 C1176 0.960 . S
H1162 C1176 0.960 . S
H1163 C1176 0.960 . S
C1164 H1156 0.929 . S
C1164 C1165 1.377 . S
C1164 C1166 1.384 . S
C1165 C1164 1.377 . S
C1165 C1171 1.390 . S
C1166 H1157 0.930 . S
C1166 C1164 1.384 . S
C1166 C1167 1.372 . S
C1167 C1166 1.372 . S
C1167 C1168 1.400 . S
C1167 C1172 1.490 . S
C1168 H1158 0.930 . S
C1168 C1167 1.400 . S
C1168 C1171 1.386 . S
H1169 C1185 0.930 . S
H1170 C1186 0.931 . S
C1171 H1159 0.929 . S
C1171 C1165 1.390 . S
C1171 C1168 1.386 . S
C1172 C1167 1.490 . S
C1172 C1174 1.395 . S
C1172 C1175 1.403 . S
H1173 C1179 0.930 . S
C1174 H1160 0.930 . S
C1174 C1172 1.395 . S
C1174 C1177 1.403 . S
C1175 C1172 1.403 . S
C1175 C1176 1.524 . S
C1175 C1179 1.400 . S
C1176 H1161 0.960 . S
C1176 H1162 0.960 . S
C1176 H1163 0.960 . S
C1176 C1175 1.524 . S
C1177 C1174 1.403 . S
C1177 C1178 1.392 . S
C1177 C1181 1.495 . S
C1178 C1177 1.392 . S
C1178 C1179 1.385 . S
C1178 C1180 1.478 . S
C1179 H1173 0.930 . S
C1179 C1175 1.400 . S
C1179 C1178 1.385 . S
C1180 C1178 1.478 . S
C1180 C1182 1.381 . S
C1180 C1186 1.383 . S
C1181 C1177 1.495 . S
C1181 H1187 0.959 . S
C1181 H1188 0.961 . S
C1181 H1189 0.960 . S
C1182 C1180 1.381 . S
C1182 C1183 1.394 . S
C1182 H1190 0.930 . S
C1183 C1182 1.394 . S
C1183 C1184 1.383 . S
C1183 H1191 0.929 . S
C1184 C1183 1.383 . S
C1184 C1185 1.377 . S
C1185 H1169 0.930 . S
C1185 C1184 1.377 . S
C1185 C1186 1.379 . S
C1186 H1170 0.931 . S
C1186 C1180 1.383 . S
C1186 C1185 1.379 . S
H1187 C1181 0.959 . S
H1188 C1181 0.961 . S
H1189 C1181 0.960 . S
H1190 C1182 0.930 . S
H1191 C1183 0.929 . S
H1192 C1200 0.929 . S
H1193 C1202 0.930 . S
H1194 C1204 0.930 . S
H1195 C1207 0.929 . S
H1196 C1210 0.930 . S
H1197 C1212 0.960 . S
H1198 C1212 0.960 . S
H1199 C1212 0.960 . S
C1200 H1192 0.929 . S
C1200 C1201 1.377 . S
C1200 C1202 1.384 . S
C1201 C1200 1.377 . S
C1201 C1207 1.390 . S
C1202 H1193 0.930 . S
C1202 C1200 1.384 . S
C1202 C1203 1.372 . S
C1203 C1202 1.372 . S
C1203 C1204 1.400 . S
C1203 C1208 1.490 . S
C1204 H1194 0.930 . S
C1204 C1203 1.400 . S
C1204 C1207 1.386 . S
H1205 C1221 0.930 . S
H1206 C1222 0.931 . S
C1207 H1195 0.929 . S
C1207 C1201 1.390 . S
C1207 C1204 1.386 . S
C1208 C1203 1.490 . S
C1208 C1210 1.395 . S
C1208 C1211 1.403 . S
H1209 C1215 0.930 . S
C1210 H1196 0.930 . S
C1210 C1208 1.395 . S
C1210 C1213 1.403 1_565 S
C1211 C1208 1.403 . S
C1211 C1212 1.524 . S
C1211 C1215 1.400 1_565 S
C1212 H1197 0.960 . S
C1212 H1198 0.960 . S
C1212 H1199 0.960 . S
C1212 C1211 1.524 . S
C1213 C1210 1.403 1_545 S
C1213 C1214 1.392 . S
C1213 C1217 1.495 . S
C1214 C1213 1.392 . S
C1214 C1215 1.385 . S
C1214 C1216 1.478 . S
C1215 H1209 0.930 . S
C1215 C1211 1.400 1_545 S
C1215 C1214 1.385 . S
C1216 C1214 1.478 . S
C1216 C1218 1.381 . S
C1216 C1222 1.383 . S
C1217 C1213 1.495 . S
C1217 H1223 0.959 . S
C1217 H1224 0.961 . S
C1217 H1225 0.960 . S
C1218 C1216 1.381 . S
C1218 C1219 1.394 . S
C1218 H1226 0.930 . S
C1219 C1218 1.394 . S
C1219 C1220 1.383 . S
C1219 H1227 0.929 . S
C1220 C1219 1.383 . S
C1220 C1221 1.377 . S
C1221 H1205 0.930 . S
C1221 C1220 1.377 . S
C1221 C1222 1.379 . S
C1222 H1206 0.931 . S
C1222 C1216 1.383 . S
C1222 C1221 1.379 . S
H1223 C1217 0.959 . S
H1224 C1217 0.961 . S
H1225 C1217 0.960 . S
H1226 C1218 0.930 . S
H1227 C1219 0.929 . S
H1228 C1236 0.929 . S
H1229 C1238 0.930 . S
H1230 C1240 0.930 . S
H1231 C1243 0.929 . S
H1232 C1246 0.930 . S
H1233 C1248 0.960 . S
H1234 C1248 0.960 . S
H1235 C1248 0.960 . S
C1236 H1228 0.929 . S
C1236 C1237 1.377 . S
C1236 C1238 1.384 . S
C1237 C1236 1.377 . S
C1237 C1243 1.390 . S
C1238 H1229 0.930 . S
C1238 C1236 1.384 . S
C1238 C1239 1.372 . S
C1239 C1238 1.372 . S
C1239 C1240 1.400 . S
C1239 C1244 1.490 . S
C1240 H1230 0.930 . S
C1240 C1239 1.400 . S
C1240 C1243 1.386 . S
H1241 C1257 0.930 . S
H1242 C1258 0.931 . S
C1243 H1231 0.929 . S
C1243 C1237 1.390 . S
C1243 C1240 1.386 . S
C1244 C1239 1.490 . S
C1244 C1246 1.395 1_455 S
C1244 C1247 1.403 1_545 S
H1245 C1251 0.930 . S
C1246 H1232 0.930 . S
C1246 C1244 1.395 1_655 S
C1246 C1249 1.403 . S
C1247 C1244 1.403 1_565 S
C1247 C1248 1.524 . S
C1247 C1251 1.400 1_455 S
C1248 H1233 0.960 . S
C1248 H1234 0.960 . S
C1248 H1235 0.960 . S
C1248 C1247 1.524 . S
C1249 C1246 1.403 . S
C1249 C1250 1.392 1_545 S
C1249 C1253 1.495 . S
C1250 C1249 1.392 1_565 S
C1250 C1251 1.385 . S
C1250 C1252 1.478 . S
C1251 H1245 0.930 . S
C1251 C1247 1.400 1_655 S
C1251 C1250 1.385 . S
C1252 C1250 1.478 . S
C1252 C1254 1.381 . S
C1252 C1258 1.383 . S
C1253 C1249 1.495 . S
C1253 H1259 0.959 . S
C1253 H1260 0.961 . S
C1253 H1261 0.960 . S
C1254 C1252 1.381 . S
C1254 C1255 1.394 . S
C1254 H1262 0.930 . S
C1255 C1254 1.394 . S
C1255 C1256 1.383 . S
C1255 H1263 0.929 . S
C1256 C1255 1.383 . S
C1256 C1257 1.377 . S
C1257 H1241 0.930 . S
C1257 C1256 1.377 . S
C1257 C1258 1.379 . S
C1258 H1242 0.931 . S
C1258 C1252 1.383 . S
C1258 C1257 1.379 . S
H1259 C1253 0.959 . S
H1260 C1253 0.961 . S
H1261 C1253 0.960 . S
H1262 C1254 0.930 . S
H1263 C1255 0.929 . S
H1264 C1272 0.929 . S
H1265 C1274 0.930 . S
H1266 C1276 0.930 . S
H1267 C1279 0.929 . S
H1268 C1282 0.930 . S
H1269 C1284 0.960 . S
H1270 C1284 0.960 . S
H1271 C1284 0.960 . S
C1272 H1264 0.929 . S
C1272 C1273 1.377 . S
C1272 C1274 1.384 . S
C1273 C1272 1.377 . S
C1273 C1279 1.390 . S
C1274 H1265 0.930 . S
C1274 C1272 1.384 . S
C1274 C1275 1.372 . S
C1275 C1274 1.372 . S
C1275 C1276 1.400 . S
C1275 C1280 1.490 . S
C1276 H1266 0.930 . S
C1276 C1275 1.400 . S
C1276 C1279 1.386 . S
H1277 C1293 0.930 . S
H1278 C1294 0.931 . S
C1279 H1267 0.929 . S
C1279 C1273 1.390 . S
C1279 C1276 1.386 . S
C1280 C1275 1.490 . S
C1280 C1282 1.395 1_655 S
C1280 C1283 1.403 . S
H1281 C1287 0.930 . S
C1282 H1268 0.930 . S
C1282 C1280 1.395 1_455 S
C1282 C1285 1.403 . S
C1283 C1280 1.403 . S
C1283 C1284 1.524 . S
C1283 C1287 1.400 . S
C1284 H1269 0.960 . S
C1284 H1270 0.960 . S
C1284 H1271 0.960 . S
C1284 C1283 1.524 . S
C1285 C1282 1.403 . S
C1285 C1286 1.392 . S
C1285 C1289 1.495 . S
C1286 C1285 1.392 . S
C1286 C1287 1.385 1_455 S
C1286 C1288 1.478 . S
C1287 H1281 0.930 . S
C1287 C1283 1.400 . S
C1287 C1286 1.385 1_655 S
C1288 C1286 1.478 . S
C1288 C1290 1.381 . S
C1288 C1294 1.383 . S
C1289 C1285 1.495 . S
C1289 H1295 0.959 . S
C1289 H1296 0.961 . S
C1289 H1297 0.960 . S
C1290 C1288 1.381 . S
C1290 C1291 1.394 . S
C1290 H1298 0.930 . S
C1291 C1290 1.394 . S
C1291 C1292 1.383 . S
C1291 H1299 0.929 . S
C1292 C1291 1.383 . S
C1292 C1293 1.377 . S
C1293 H1277 0.930 . S
C1293 C1292 1.377 . S
C1293 C1294 1.379 . S
C1294 H1278 0.931 . S
C1294 C1288 1.383 . S
C1294 C1293 1.379 . S
H1295 C1289 0.959 . S
H1296 C1289 0.961 . S
H1297 C1289 0.960 . S
H1298 C1290 0.930 . S
H1299 C1291 0.929 . S
H1300 C1308 0.929 . S
H1301 C1310 0.930 . S
H1302 C1312 0.930 . S
H1303 C1315 0.929 . S
H1304 C1318 0.930 . S
H1305 C1320 0.960 . S
H1306 C1320 0.960 . S
H1307 C1320 0.960 . S
C1308 H1300 0.929 . S
C1308 C1309 1.377 . S
C1308 C1310 1.384 . S
C1309 C1308 1.377 . S
C1309 C1315 1.390 . S
C1310 H1301 0.930 . S
C1310 C1308 1.384 . S
C1310 C1311 1.372 . S
C1311 C1310 1.372 . S
C1311 C1312 1.400 . S
C1311 C1316 1.490 . S
C1312 H1302 0.930 . S
C1312 C1311 1.400 . S
C1312 C1315 1.386 . S
H1313 C1329 0.930 . S
H1314 C1330 0.931 . S
C1315 H1303 0.929 . S
C1315 C1309 1.390 . S
C1315 C1312 1.386 . S
C1316 C1311 1.490 . S
C1316 C1318 1.395 . S
C1316 C1319 1.403 . S
H1317 C1323 0.930 . S
C1318 H1304 0.930 . S
C1318 C1316 1.395 . S
C1318 C1321 1.403 . S
C1319 C1316 1.403 . S
C1319 C1320 1.524 . S
C1319 C1323 1.400 . S
C1320 H1305 0.960 . S
C1320 H1306 0.960 . S
C1320 H1307 0.960 . S
C1320 C1319 1.524 . S
C1321 C1318 1.403 . S
C1321 C1322 1.392 . S
C1321 C1325 1.495 . S
C1322 C1321 1.392 . S
C1322 C1323 1.385 . S
C1322 C1324 1.478 . S
C1323 H1317 0.930 . S
C1323 C1319 1.400 . S
C1323 C1322 1.385 . S
C1324 C1322 1.478 . S
C1324 C1326 1.381 . S
C1324 C1330 1.383 . S
C1325 C1321 1.495 . S
C1325 H1331 0.959 . S
C1325 H1332 0.961 . S
C1325 H1333 0.960 . S
C1326 C1324 1.381 . S
C1326 C1327 1.394 . S
C1326 H1334 0.930 . S
C1327 C1326 1.394 . S
C1327 C1328 1.383 . S
C1327 H1335 0.929 . S
C1328 C1327 1.383 . S
C1328 C1329 1.377 . S
C1329 H1313 0.930 . S
C1329 C1328 1.377 . S
C1329 C1330 1.379 . S
C1330 H1314 0.931 . S
C1330 C1324 1.383 . S
C1330 C1329 1.379 . S
H1331 C1325 0.959 . S
H1332 C1325 0.961 . S
H1333 C1325 0.960 . S
H1334 C1326 0.930 . S
H1335 C1327 0.929 . S
H1336 C1344 0.929 . S
H1337 C1346 0.930 . S
H1338 C1348 0.930 1_556 S
H1339 C1351 0.929 1_556 S
H1340 C1354 0.930 . S
H1341 C1356 0.960 . S
H1342 C1356 0.960 1_545 S
H1343 C1356 0.960 . S
C1344 H1336 0.929 . S
C1344 C1345 1.377 . S
C1344 C1346 1.384 . S
C1345 C1344 1.377 . S
C1345 C1351 1.390 . S
C1346 H1337 0.930 . S
C1346 C1344 1.384 . S
C1346 C1347 1.372 . S
C1347 C1346 1.372 . S
C1347 C1348 1.400 . S
C1347 C1352 1.490 . S
C1348 H1338 0.930 1_554 S
C1348 C1347 1.400 . S
C1348 C1351 1.386 . S
H1349 C1365 0.948 . S
H1350 C1366 0.970 . S
C1351 H1339 0.929 1_554 S
C1351 C1345 1.390 . S
C1351 C1348 1.386 . S
C1352 C1347 1.490 . S
C1352 C1354 1.395 . S
C1352 C1355 1.403 1_545 S
H1353 C1359 0.930 . S
C1354 H1340 0.930 . S
C1354 C1352 1.395 . S
C1354 C1357 1.403 . S
C1355 C1352 1.403 1_565 S
C1355 C1356 1.524 . S
C1355 C1359 1.400 . S
C1356 H1341 0.960 . S
C1356 H1342 0.960 1_565 S
C1356 H1343 0.960 . S
C1356 C1355 1.524 . S
C1357 C1354 1.403 . S
C1357 C1358 1.392 1_545 S
C1357 C1361 1.474 1_554 S
C1358 C1357 1.392 1_565 S
C1358 C1359 1.385 . S
C1358 C1360 1.478 . S
C1359 H1353 0.930 . S
C1359 C1355 1.400 . S
C1359 C1358 1.385 . S
C1360 C1358 1.478 . S
C1360 C1362 1.381 . S
C1360 C1366 1.347 1_554 S
C1361 C1357 1.474 1_556 S
C1361 H1367 0.977 . S
C1361 H1368 1.017 . S
C1361 H1369 0.913 1_556 S
C1362 C1360 1.381 . S
C1362 C1363 1.394 . S
C1362 H1370 0.930 . S
C1363 C1362 1.394 . S
C1363 C1364 1.383 . S
C1363 H1371 0.929 . S
C1364 C1363 1.383 . S
C1364 C1365 1.358 1_554 S
C1365 H1349 0.948 . S
C1365 C1364 1.358 1_556 S
C1365 C1366 1.379 . S
C1366 H1350 0.970 . S
C1366 C1360 1.347 1_556 S
C1366 C1365 1.379 . S
H1367 C1361 0.977 . S
H1368 C1361 1.017 . S
H1369 C1361 0.913 1_554 S
H1370 C1362 0.930 . S
H1371 C1363 0.929 . S
H1372 C1380 0.929 . S
H1373 C1382 0.930 . S
H1374 C1384 0.930 . S
H1375 C1387 0.929 . S
H1376 C1390 0.930 . S
H1377 C1392 0.960 . S
H1378 C1392 0.960 . S
H1379 C1392 0.960 . S
C1380 H1372 0.929 . S
C1380 C1381 1.377 . S
C1380 C1382 1.384 . S
C1381 C1380 1.377 . S
C1381 C1387 1.390 . S
C1382 H1373 0.930 . S
C1382 C1380 1.384 . S
C1382 C1383 1.372 . S
C1383 C1382 1.372 . S
C1383 C1384 1.400 . S
C1383 C1388 1.490 . S
C1384 H1374 0.930 . S
C1384 C1383 1.400 . S
C1384 C1387 1.386 . S
H1385 C1401 0.930 . S
H1386 C1402 0.931 . S
C1387 H1375 0.929 . S
C1387 C1381 1.390 . S
C1387 C1384 1.386 . S
C1388 C1383 1.490 . S
C1388 C1390 1.395 1_455 S
C1388 C1391 1.403 1_565 S
H1389 C1395 0.929 1_455 S
C1390 H1376 0.930 . S
C1390 C1388 1.395 1_655 S
C1390 C1393 1.403 . S
C1391 C1388 1.403 1_545 S
C1391 C1392 1.524 . S
C1391 C1395 1.378 1_455 S
C1392 H1377 0.960 . S
C1392 H1378 0.960 . S
C1392 H1379 0.960 . S
C1392 C1391 1.524 . S
C1393 C1390 1.403 . S
C1393 C1394 1.392 1_565 S
C1393 C1397 1.495 . S
C1394 C1393 1.392 1_545 S
C1394 C1395 1.409 . S
C1394 C1396 1.478 . S
C1395 H1389 0.929 1_655 S
C1395 C1391 1.378 1_655 S
C1395 C1394 1.409 . S
C1396 C1394 1.478 . S
C1396 C1398 1.381 . S
C1396 C1402 1.383 . S
C1397 C1393 1.495 . S
C1397 H1403 0.959 . S
C1397 H1404 0.961 . S
C1397 H1405 0.960 . S
C1398 C1396 1.381 . S
C1398 C1399 1.394 . S
C1398 H1406 0.930 . S
C1399 C1398 1.394 . S
C1399 C1400 1.383 . S
C1399 H1407 0.929 . S
C1400 C1399 1.383 . S
C1400 C1401 1.377 . S
C1401 H1385 0.930 . S
C1401 C1400 1.377 . S
C1401 C1402 1.379 . S
C1402 H1386 0.931 . S
C1402 C1396 1.383 . S
C1402 C1401 1.379 . S
H1403 C1397 0.959 . S
H1404 C1397 0.961 . S
H1405 C1397 0.960 . S
H1406 C1398 0.930 . S
H1407 C1399 0.929 . S
H1408 C1416 0.929 1_556 S
H1409 C1418 0.930 1_556 S
H1410 C1420 0.930 . S
H1411 C1423 0.929 . S
H1412 C1426 0.935 . S
H1413 C1428 0.960 . S
H1414 C1428 0.960 . S
H1415 C1428 0.960 . S
C1416 H1408 0.929 1_554 S
C1416 C1417 1.377 . S
C1416 C1418 1.384 . S
C1417 C1416 1.377 . S
C1417 C1423 1.390 . S
C1418 H1409 0.930 1_554 S
C1418 C1416 1.384 . S
C1418 C1419 1.372 . S
C1419 C1418 1.372 . S
C1419 C1420 1.400 . S
C1419 C1424 1.490 . S
C1420 H1410 0.930 . S
C1420 C1419 1.400 . S
C1420 C1423 1.386 . S
H1421 C1437 0.930 . S
H1422 C1438 0.931 . S
C1423 H1411 0.929 . S
C1423 C1417 1.390 . S
C1423 C1420 1.386 . S
C1424 C1419 1.490 . S
C1424 C1426 1.389 1_554 S
C1424 C1427 1.403 . S
H1425 C1431 0.930 . S
C1426 H1412 0.935 . S
C1426 C1424 1.389 1_556 S
C1426 C1429 1.404 . S
C1427 C1424 1.403 . S
C1427 C1428 1.524 . S
C1427 C1431 1.400 . S
C1428 H1413 0.960 . S
C1428 H1414 0.960 . S
C1428 H1415 0.960 . S
C1428 C1427 1.524 . S
C1429 C1426 1.404 . S
C1429 C1430 1.392 1_556 S
C1429 C1433 1.495 . S
C1430 C1429 1.392 1_554 S
C1430 C1431 1.385 . S
C1430 C1432 1.478 . S
C1431 H1425 0.930 . S
C1431 C1427 1.400 . S
C1431 C1430 1.385 . S
C1432 C1430 1.478 . S
C1432 C1434 1.337 1_554 S
C1432 C1438 1.383 . S
C1433 C1429 1.495 . S
C1433 H1439 0.959 . S
C1433 H1440 0.961 . S
C1433 H1441 0.960 . S
C1434 C1432 1.337 1_556 S
C1434 C1435 1.394 . S
C1434 H1442 0.980 . S
C1435 C1434 1.394 . S
C1435 C1436 1.367 1_556 S
C1435 H1443 0.945 . S
C1436 C1435 1.367 1_554 S
C1436 C1437 1.377 . S
C1437 H1421 0.930 . S
C1437 C1436 1.377 . S
C1437 C1438 1.379 . S
C1438 H1422 0.931 . S
C1438 C1432 1.383 . S
C1438 C1437 1.379 . S
H1439 C1433 0.959 . S
H1440 C1433 0.961 . S
H1441 C1433 0.960 . S
H1442 C1434 0.980 . S
H1443 C1435 0.945 . S
H1444 C1452 0.929 . S
H1445 C1454 0.930 . S
H1446 C1456 0.930 . S
H1447 C1459 0.929 . S
H1448 C1462 0.930 . S
H1449 C1464 0.960 . S
H1450 C1464 0.960 . S
H1451 C1464 0.960 . S
C1452 H1444 0.929 . S
C1452 C1453 1.377 . S
C1452 C1454 1.384 . S
C1453 C1452 1.377 . S
C1453 C1459 1.390 . S
C1454 H1445 0.930 . S
C1454 C1452 1.384 . S
C1454 C1455 1.372 . S
C1455 C1454 1.372 . S
C1455 C1456 1.400 . S
C1455 C1460 1.490 . S
C1456 H1446 0.930 . S
C1456 C1455 1.400 . S
C1456 C1459 1.386 . S
H1457 C1473 0.930 . S
H1458 C1474 0.931 . S
C1459 H1447 0.929 . S
C1459 C1453 1.390 . S
C1459 C1456 1.386 . S
C1460 C1455 1.490 . S
C1460 C1462 1.395 . S
C1460 C1463 1.403 . S
H1461 C1467 0.930 . S
C1462 H1448 0.930 . S
C1462 C1460 1.395 . S
C1462 C1465 1.403 . S
C1463 C1460 1.403 . S
C1463 C1464 1.524 . S
C1463 C1467 1.400 . S
C1464 H1449 0.960 . S
C1464 H1450 0.960 . S
C1464 H1451 0.960 . S
C1464 C1463 1.524 . S
C1465 C1462 1.403 . S
C1465 C1466 1.392 . S
C1465 C1469 1.495 . S
C1466 C1465 1.392 . S
C1466 C1467 1.385 . S
C1466 C1468 1.478 . S
C1467 H1461 0.930 . S
C1467 C1463 1.400 . S
C1467 C1466 1.385 . S
C1468 C1466 1.478 . S
C1468 C1470 1.395 . S
C1468 C1474 1.383 . S
C1469 C1465 1.495 . S
C1469 H1475 0.959 . S
C1469 H1476 0.961 . S
C1469 H1477 0.960 . S
C1470 C1468 1.395 . S
C1470 C1471 1.369 1_565 S
C1470 H1478 0.942 . S
C1471 C1470 1.369 1_545 S
C1471 C1472 1.383 . S
C1471 H1479 0.929 . S
C1472 C1471 1.383 . S
C1472 C1473 1.377 . S
C1473 H1457 0.930 . S
C1473 C1472 1.377 . S
C1473 C1474 1.379 1_545 S
C1474 H1458 0.931 . S
C1474 C1468 1.383 . S
C1474 C1473 1.379 1_565 S
H1475 C1469 0.959 . S
H1476 C1469 0.961 . S
H1477 C1469 0.960 . S
H1478 C1470 0.942 . S
H1479 C1471 0.929 . S
H1480 C1488 0.929 . S
H1481 C1490 0.930 . S
H1482 C1492 0.930 . S
H1483 C1495 0.929 . S
H1484 C1498 0.930 . S
H1485 C1500 0.960 . S
H1486 C1500 0.960 . S
H1487 C1500 0.960 . S
C1488 H1480 0.929 . S
C1488 C1489 1.377 . S
C1488 C1490 1.384 1_655 S
C1489 C1488 1.377 . S
C1489 C1495 1.390 . S
C1490 H1481 0.930 . S
C1490 C1488 1.384 1_455 S
C1490 C1491 1.372 . S
C1491 C1490 1.372 . S
C1491 C1492 1.400 . S
C1491 C1496 1.490 . S
C1492 H1482 0.930 . S
C1492 C1491 1.400 . S
C1492 C1495 1.386 1_455 S
H1493 C1509 0.930 . S
H1494 C1510 0.931 . S
C1495 H1483 0.929 . S
C1495 C1489 1.390 . S
C1495 C1492 1.386 1_655 S
C1496 C1491 1.490 . S
C1496 C1498 1.395 . S
C1496 C1499 1.403 . S
H1497 C1503 0.930 . S
C1498 H1484 0.930 . S
C1498 C1496 1.395 . S
C1498 C1501 1.403 . S
C1499 C1496 1.403 . S
C1499 C1500 1.524 . S
C1499 C1503 1.400 . S
C1500 H1485 0.960 . S
C1500 H1486 0.960 . S
C1500 H1487 0.960 . S
C1500 C1499 1.524 . S
C1501 C1498 1.403 . S
C1501 C1502 1.392 . S
C1501 C1505 1.495 . S
C1502 C1501 1.392 . S
C1502 C1503 1.385 . S
C1502 C1504 1.478 . S
C1503 H1497 0.930 . S
C1503 C1499 1.400 . S
C1503 C1502 1.385 . S
C1504 C1502 1.478 . S
C1504 C1506 1.381 . S
C1504 C1510 1.383 . S
C1505 C1501 1.495 . S
C1505 H1511 0.959 . S
C1505 H1512 0.961 . S
C1505 H1513 0.960 . S
C1506 C1504 1.381 . S
C1506 C1507 1.394 . S
C1506 H1514 0.930 . S
C1507 C1506 1.394 . S
C1507 C1508 1.383 . S
C1507 H1515 0.929 . S
C1508 C1507 1.383 . S
C1508 C1509 1.377 . S
C1509 H1493 0.930 . S
C1509 C1508 1.377 . S
C1509 C1510 1.379 . S
C1510 H1494 0.931 . S
C1510 C1504 1.383 . S
C1510 C1509 1.379 . S
H1511 C1505 0.959 . S
H1512 C1505 0.961 . S
H1513 C1505 0.960 . S
H1514 C1506 0.930 . S
H1515 C1507 0.929 . S
H1516 C1524 0.929 . S
H1517 C1526 0.930 . S
H1518 C1528 0.930 . S
H1519 C1531 0.929 . S
H1520 C1534 0.930 . S
H1521 C1536 0.960 . S
H1522 C1536 0.960 . S
H1523 C1536 0.960 . S
C1524 H1516 0.929 . S
C1524 C1525 1.377 . S
C1524 C1526 1.384 . S
C1525 C1524 1.377 . S
C1525 C1531 1.390 . S
C1526 H1517 0.930 . S
C1526 C1524 1.384 . S
C1526 C1527 1.372 . S
C1527 C1526 1.372 . S
C1527 C1528 1.400 . S
C1527 C1532 1.490 . S
C1528 H1518 0.930 . S
C1528 C1527 1.400 . S
C1528 C1531 1.386 . S
H1529 C1545 0.930 . S
H1530 C1546 0.931 . S
C1531 H1519 0.929 . S
C1531 C1525 1.390 . S
C1531 C1528 1.386 . S
C1532 C1527 1.490 . S
C1532 C1534 1.395 . S
C1532 C1535 1.403 . S
H1533 C1539 0.930 . S
C1534 H1520 0.930 . S
C1534 C1532 1.395 . S
C1534 C1537 1.403 . S
C1535 C1532 1.403 . S
C1535 C1536 1.524 . S
C1535 C1539 1.400 . S
C1536 H1521 0.960 . S
C1536 H1522 0.960 . S
C1536 H1523 0.960 . S
C1536 C1535 1.524 . S
C1537 C1534 1.403 . S
C1537 C1538 1.392 . S
C1537 C1541 1.495 . S
C1538 C1537 1.392 . S
C1538 C1539 1.385 . S
C1538 C1540 1.478 . S
C1539 H1533 0.930 . S
C1539 C1535 1.400 . S
C1539 C1538 1.385 . S
C1540 C1538 1.478 . S
C1540 C1542 1.381 . S
C1540 C1546 1.383 . S
C1541 C1537 1.495 . S
C1541 H1547 0.959 . S
C1541 H1548 0.961 . S
C1541 H1549 0.960 . S
C1542 C1540 1.381 . S
C1542 C1543 1.394 . S
C1542 H1550 0.930 . S
C1543 C1542 1.394 . S
C1543 C1544 1.383 . S
C1543 H1551 0.929 . S
C1544 C1543 1.383 . S
C1544 C1545 1.377 . S
C1545 H1529 0.930 . S
C1545 C1544 1.377 . S
C1545 C1546 1.379 . S
C1546 H1530 0.931 . S
C1546 C1540 1.383 . S
C1546 C1545 1.379 . S
H1547 C1541 0.959 . S
H1548 C1541 0.961 . S
H1549 C1541 0.960 . S
H1550 C1542 0.930 . S
H1551 C1543 0.929 . S
H1552 C1560 0.929 . S
H1553 C1562 0.930 . S
H1554 C1564 0.930 . S
H1555 C1567 0.929 . S
H1556 C1570 0.930 . S
H1557 C1572 0.960 . S
H1558 C1572 0.960 . S
H1559 C1572 0.960 . S
C1560 H1552 0.929 . S
C1560 C1561 1.377 . S
C1560 C1562 1.384 . S
C1561 C1560 1.377 . S
C1561 C1567 1.390 . S
C1562 H1553 0.930 . S
C1562 C1560 1.384 . S
C1562 C1563 1.372 . S
C1563 C1562 1.372 . S
C1563 C1564 1.400 . S
C1563 C1568 1.490 . S
C1564 H1554 0.930 . S
C1564 C1563 1.400 . S
C1564 C1567 1.386 . S
H1565 C1581 0.930 . S
H1566 C1582 0.931 . S
C1567 H1555 0.929 . S
C1567 C1561 1.390 . S
C1567 C1564 1.386 . S
C1568 C1563 1.490 . S
C1568 C1570 1.395 . S
C1568 C1571 1.403 . S
H1569 C1575 0.930 . S
C1570 H1556 0.930 . S
C1570 C1568 1.395 . S
C1570 C1573 1.403 . S
C1571 C1568 1.403 . S
C1571 C1572 1.524 . S
C1571 C1575 1.400 . S
C1572 H1557 0.960 . S
C1572 H1558 0.960 . S
C1572 H1559 0.960 . S
C1572 C1571 1.524 . S
C1573 C1570 1.403 . S
C1573 C1574 1.392 . S
C1573 C1577 1.495 . S
C1574 C1573 1.392 . S
C1574 C1575 1.385 . S
C1574 C1576 1.478 . S
C1575 H1569 0.930 . S
C1575 C1571 1.400 . S
C1575 C1574 1.385 . S
C1576 C1574 1.478 . S
C1576 C1578 1.381 . S
C1576 C1582 1.383 . S
C1577 C1573 1.495 . S
C1577 H1583 0.959 . S
C1577 H1584 0.961 . S
C1577 H1585 0.960 . S
C1578 C1576 1.381 . S
C1578 C1579 1.394 . S
C1578 H1586 0.930 . S
C1579 C1578 1.394 . S
C1579 C1580 1.383 . S
C1579 H1587 0.929 . S
C1580 C1579 1.383 . S
C1580 C1581 1.377 . S
C1581 H1565 0.930 . S
C1581 C1580 1.377 . S
C1581 C1582 1.379 . S
C1582 H1566 0.931 . S
C1582 C1576 1.383 . S
C1582 C1581 1.379 . S
H1583 C1577 0.959 . S
H1584 C1577 0.961 . S
H1585 C1577 0.960 . S
H1586 C1578 0.930 . S
H1587 C1579 0.929 . S
H1588 C1596 0.929 . S
H1589 C1598 0.930 . S
H1590 C1600 0.930 . S
H1591 C1603 0.929 . S
H1592 C1606 0.930 . S
H1593 C1608 0.960 . S
H1594 C1608 0.960 . S
H1595 C1608 0.960 . S
C1596 H1588 0.929 . S
C1596 C1597 1.377 . S
C1596 C1598 1.384 . S
C1597 C1596 1.377 . S
C1597 C1603 1.390 . S
C1598 H1589 0.930 . S
C1598 C1596 1.384 . S
C1598 C1599 1.372 . S
C1599 C1598 1.372 . S
C1599 C1600 1.400 . S
C1599 C1604 1.490 . S
C1600 H1590 0.930 . S
C1600 C1599 1.400 . S
C1600 C1603 1.386 . S
H1601 C1617 0.930 . S
H1602 C1618 0.931 . S
C1603 H1591 0.929 . S
C1603 C1597 1.390 . S
C1603 C1600 1.386 . S
C1604 C1599 1.490 . S
C1604 C1606 1.395 . S
C1604 C1607 1.403 . S
H1605 C1611 0.930 . S
C1606 H1592 0.930 . S
C1606 C1604 1.395 . S
C1606 C1609 1.403 . S
C1607 C1604 1.403 . S
C1607 C1608 1.524 . S
C1607 C1611 1.400 . S
C1608 H1593 0.960 . S
C1608 H1594 0.960 . S
C1608 H1595 0.960 . S
C1608 C1607 1.524 . S
C1609 C1606 1.403 . S
C1609 C1610 1.392 . S
C1609 C1613 1.495 . S
C1610 C1609 1.392 . S
C1610 C1611 1.385 . S
C1610 C1612 1.478 . S
C1611 H1605 0.930 . S
C1611 C1607 1.400 . S
C1611 C1610 1.385 . S
C1612 C1610 1.478 . S
C1612 C1614 1.381 . S
C1612 C1618 1.383 . S
C1613 C1609 1.495 . S
C1613 H1619 0.959 . S
C1613 H1620 0.961 . S
C1613 H1621 0.960 . S
C1614 C1612 1.381 . S
C1614 C1615 1.394 1_545 S
C1614 H1622 0.930 . S
C1615 C1614 1.394 1_565 S
C1615 C1616 1.383 . S
C1615 H1623 0.929 . S
C1616 C1615 1.383 . S
C1616 C1617 1.377 . S
C1617 H1601 0.930 . S
C1617 C1616 1.377 . S
C1617 C1618 1.379 1_565 S
C1618 H1602 0.931 . S
C1618 C1612 1.383 . S
C1618 C1617 1.379 1_545 S
H1619 C1613 0.959 . S
H1620 C1613 0.961 . S
H1621 C1613 0.960 . S
H1622 C1614 0.930 . S
H1623 C1615 0.929 . S
H1624 C1632 0.929 . S
H1625 C1634 0.930 . S
H1626 C1636 0.930 . S
H1627 C1639 0.929 . S
H1628 C1642 0.930 . S
H1629 C1644 0.960 . S
H1630 C1644 0.960 . S
H1631 C1644 0.960 . S
C1632 H1624 0.929 . S
C1632 C1633 1.377 . S
C1632 C1634 1.384 1_455 S
C1633 C1632 1.377 . S
C1633 C1639 1.390 . S
C1634 H1625 0.930 . S
C1634 C1632 1.384 1_655 S
C1634 C1635 1.372 . S
C1635 C1634 1.372 . S
C1635 C1636 1.400 . S
C1635 C1640 1.490 . S
C1636 H1626 0.930 . S
C1636 C1635 1.400 . S
C1636 C1639 1.386 1_655 S
H1637 C1653 0.930 . S
H1638 C1654 0.931 . S
C1639 H1627 0.929 . S
C1639 C1633 1.390 . S
C1639 C1636 1.386 1_455 S
C1640 C1635 1.490 . S
C1640 C1642 1.395 1_554 S
C1640 C1643 1.403 . S
H1641 C1647 0.930 . S
C1642 H1628 0.930 . S
C1642 C1640 1.395 1_556 S
C1642 C1645 1.403 . S
C1643 C1640 1.403 . S
C1643 C1644 1.524 . S
C1643 C1647 1.400 . S
C1644 H1629 0.960 . S
C1644 H1630 0.960 . S
C1644 H1631 0.960 . S
C1644 C1643 1.524 . S
C1645 C1642 1.403 . S
C1645 C1646 1.392 1_556 S
C1645 C1649 1.495 . S
C1646 C1645 1.392 1_554 S
C1646 C1647 1.385 . S
C1646 C1648 1.478 . S
C1647 H1641 0.930 . S
C1647 C1643 1.400 . S
C1647 C1646 1.385 . S
C1648 C1646 1.478 . S
C1648 C1650 1.381 . S
C1648 C1654 1.383 . S
C1649 C1645 1.495 . S
C1649 H1655 0.959 . S
C1649 H1656 0.961 . S
C1649 H1657 0.960 . S
C1650 C1648 1.381 . S
C1650 C1651 1.394 . S
C1650 H1658 0.930 . S
C1651 C1650 1.394 . S
C1651 C1652 1.383 . S
C1651 H1659 0.929 . S
C1652 C1651 1.383 . S
C1652 C1653 1.377 . S
C1653 H1637 0.930 . S
C1653 C1652 1.377 . S
C1653 C1654 1.379 . S
C1654 H1638 0.931 . S
C1654 C1648 1.383 . S
C1654 C1653 1.379 . S
H1655 C1649 0.959 . S
H1656 C1649 0.961 . S
H1657 C1649 0.960 . S
H1658 C1650 0.930 . S
H1659 C1651 0.929 . S
H1660 C1668 0.929 . S
H1661 C1670 0.930 . S
H1662 C1672 0.930 . S
H1663 C1675 0.929 . S
H1664 C1678 0.930 . S
H1665 C1680 0.960 . S
H1666 C1680 0.960 . S
H1667 C1680 0.960 . S
C1668 H1660 0.929 . S
C1668 C1669 1.377 . S
C1668 C1670 1.384 . S
C1669 C1668 1.377 . S
C1669 C1675 1.390 . S
C1670 H1661 0.930 . S
C1670 C1668 1.384 . S
C1670 C1671 1.372 . S
C1671 C1670 1.372 . S
C1671 C1672 1.400 . S
C1671 C1676 1.490 . S
C1672 H1662 0.930 . S
C1672 C1671 1.400 . S
C1672 C1675 1.386 . S
H1673 C1689 0.930 . S
H1674 C1690 0.931 . S
C1675 H1663 0.929 . S
C1675 C1669 1.390 . S
C1675 C1672 1.386 . S
C1676 C1671 1.490 . S
C1676 C1678 1.395 . S
C1676 C1679 1.403 . S
H1677 C1683 0.930 . S
C1678 H1664 0.930 . S
C1678 C1676 1.395 . S
C1678 C1681 1.403 . S
C1679 C1676 1.403 . S
C1679 C1680 1.524 . S
C1679 C1683 1.400 . S
C1680 H1665 0.960 . S
C1680 H1666 0.960 . S
C1680 H1667 0.960 . S
C1680 C1679 1.524 . S
C1681 C1678 1.403 . S
C1681 C1682 1.392 . S
C1681 C1685 1.495 . S
C1682 C1681 1.392 . S
C1682 C1683 1.385 . S
C1682 C1684 1.478 . S
C1683 H1677 0.930 . S
C1683 C1679 1.400 . S
C1683 C1682 1.385 . S
C1684 C1682 1.478 . S
C1684 C1686 1.381 . S
C1684 C1690 1.383 . S
C1685 C1681 1.495 . S
C1685 H1691 0.959 . S
C1685 H1692 0.961 . S
C1685 H1693 0.960 . S
C1686 C1684 1.381 . S
C1686 C1687 1.394 . S
C1686 H1694 0.930 . S
C1687 C1686 1.394 . S
C1687 C1688 1.383 . S
C1687 H1695 0.929 . S
C1688 C1687 1.383 . S
C1688 C1689 1.377 . S
C1689 H1673 0.930 . S
C1689 C1688 1.377 . S
C1689 C1690 1.379 . S
C1690 H1674 0.931 . S
C1690 C1684 1.383 . S
C1690 C1689 1.379 . S
H1691 C1685 0.959 . S
H1692 C1685 0.961 . S
H1693 C1685 0.960 . S
H1694 C1686 0.930 . S
H1695 C1687 0.929 . S
H1696 C1704 0.929 . S
H1697 C1706 0.930 . S
H1698 C1708 0.930 . S
H1699 C1711 0.929 . S
H1700 C1714 0.930 . S
H1701 C1716 0.960 . S
H1702 C1716 0.960 . S
H1703 C1716 0.960 . S
C1704 H1696 0.929 . S
C1704 C1705 1.377 . S
C1704 C1706 1.384 1_455 S
C1705 C1704 1.377 . S
C1705 C1711 1.390 . S
C1706 H1697 0.930 . S
C1706 C1704 1.384 1_655 S
C1706 C1707 1.372 . S
C1707 C1706 1.372 . S
C1707 C1708 1.400 . S
C1707 C1712 1.490 . S
C1708 H1698 0.930 . S
C1708 C1707 1.400 . S
C1708 C1711 1.386 1_655 S
H1709 C1725 0.930 . S
H1710 C1726 0.931 . S
C1711 H1699 0.929 . S
C1711 C1705 1.390 . S
C1711 C1708 1.386 1_455 S
C1712 C1707 1.490 . S
C1712 C1714 1.395 . S
C1712 C1715 1.403 . S
H1713 C1719 0.930 . S
C1714 H1700 0.930 . S
C1714 C1712 1.395 . S
C1714 C1717 1.403 . S
C1715 C1712 1.403 . S
C1715 C1716 1.524 . S
C1715 C1719 1.400 . S
C1716 H1701 0.960 . S
C1716 H1702 0.960 . S
C1716 H1703 0.960 . S
C1716 C1715 1.524 . S
C1717 C1714 1.403 . S
C1717 C1718 1.392 . S
C1717 C1721 1.495 . S
C1718 C1717 1.392 . S
C1718 C1719 1.385 . S
C1718 C1720 1.478 . S
C1719 H1713 0.930 . S
C1719 C1715 1.400 . S
C1719 C1718 1.385 . S
C1720 C1718 1.478 . S
C1720 C1722 1.381 . S
C1720 C1726 1.383 . S
C1721 C1717 1.495 . S
C1721 H1727 0.959 . S
C1721 H1728 0.961 . S
C1721 H1729 0.960 . S
C1722 C1720 1.381 . S
C1722 C1723 1.394 . S
C1722 H1730 0.930 . S
C1723 C1722 1.394 . S
C1723 C1724 1.383 . S
C1723 H1731 0.929 . S
C1724 C1723 1.383 . S
C1724 C1725 1.377 . S
C1725 H1709 0.930 . S
C1725 C1724 1.377 . S
C1725 C1726 1.379 . S
C1726 H1710 0.931 . S
C1726 C1720 1.383 . S
C1726 C1725 1.379 . S
H1727 C1721 0.959 . S
H1728 C1721 0.961 . S
H1729 C1721 0.960 . S
H1730 C1722 0.930 . S
H1731 C1723 0.929 . S
H1732 C1740 0.929 . S
H1733 C1742 0.930 . S
H1734 C1744 0.930 . S
H1735 C1747 0.929 . S
H1736 C1750 0.930 . S
H1737 C1752 0.960 . S
H1738 C1752 0.960 . S
H1739 C1752 0.960 . S
C1740 H1732 0.929 . S
C1740 C1741 1.377 . S
C1740 C1742 1.384 . S
C1741 C1740 1.377 . S
C1741 C1747 1.390 . S
C1742 H1733 0.930 . S
C1742 C1740 1.384 . S
C1742 C1743 1.372 . S
C1743 C1742 1.372 . S
C1743 C1744 1.400 . S
C1743 C1748 1.490 . S
C1744 H1734 0.930 . S
C1744 C1743 1.400 . S
C1744 C1747 1.386 . S
H1745 C1761 0.930 . S
H1746 C1762 0.931 . S
C1747 H1735 0.929 . S
C1747 C1741 1.390 . S
C1747 C1744 1.386 . S
C1748 C1743 1.490 . S
C1748 C1750 1.395 . S
C1748 C1751 1.403 . S
H1749 C1755 0.930 . S
C1750 H1736 0.930 . S
C1750 C1748 1.395 . S
C1750 C1753 1.403 . S
C1751 C1748 1.403 . S
C1751 C1752 1.524 . S
C1751 C1755 1.400 . S
C1752 H1737 0.960 . S
C1752 H1738 0.960 . S
C1752 H1739 0.960 . S
C1752 C1751 1.524 . S
C1753 C1750 1.403 . S
C1753 C1754 1.392 . S
C1753 C1757 1.495 . S
C1754 C1753 1.392 . S
C1754 C1755 1.385 . S
C1754 C1756 1.478 . S
C1755 H1749 0.930 . S
C1755 C1751 1.400 . S
C1755 C1754 1.385 . S
C1756 C1754 1.478 . S
C1756 C1758 1.381 . S
C1756 C1762 1.383 . S
C1757 C1753 1.495 . S
C1757 H1763 0.959 . S
C1757 H1764 0.961 . S
C1757 H1765 0.960 . S
C1758 C1756 1.381 . S
C1758 C1759 1.394 . S
C1758 H1766 0.930 . S
C1759 C1758 1.394 . S
C1759 C1760 1.383 . S
C1759 H1767 0.929 . S
C1760 C1759 1.383 . S
C1760 C1761 1.377 . S
C1761 H1745 0.930 . S
C1761 C1760 1.377 . S
C1761 C1762 1.379 . S
C1762 H1746 0.931 . S
C1762 C1756 1.383 . S
C1762 C1761 1.379 . S
H1763 C1757 0.959 . S
H1764 C1757 0.961 . S
H1765 C1757 0.960 . S
H1766 C1758 0.930 . S
H1767 C1759 0.929 . S
H1768 C1776 0.929 . S
H1769 C1778 0.930 . S
H1770 C1780 0.930 . S
H1771 C1783 0.929 . S
H1772 C1786 0.930 . S
H1773 C1788 0.960 . S
H1774 C1788 0.960 . S
H1775 C1788 0.960 . S
C1776 H1768 0.929 . S
C1776 C1777 1.377 . S
C1776 C1778 1.384 . S
C1777 C1776 1.377 . S
C1777 C1783 1.390 . S
C1778 H1769 0.930 . S
C1778 C1776 1.384 . S
C1778 C1779 1.372 . S
C1779 C1778 1.372 . S
C1779 C1780 1.400 . S
C1779 C1784 1.490 . S
C1780 H1770 0.930 . S
C1780 C1779 1.400 . S
C1780 C1783 1.386 . S
H1781 C1797 0.930 . S
H1782 C1798 0.931 . S
C1783 H1771 0.929 . S
C1783 C1777 1.390 . S
C1783 C1780 1.386 . S
C1784 C1779 1.490 . S
C1784 C1786 1.395 1_554 S
C1784 C1787 1.403 . S
H1785 C1791 0.930 . S
C1786 H1772 0.930 . S
C1786 C1784 1.395 1_556 S
C1786 C1789 1.403 . S
C1787 C1784 1.403 . S
C1787 C1788 1.524 . S
C1787 C1791 1.400 . S
C1788 H1773 0.960 . S
C1788 H1774 0.960 . S
C1788 H1775 0.960 . S
C1788 C1787 1.524 . S
C1789 C1786 1.403 . S
C1789 C1790 1.392 1_556 S
C1789 C1793 1.495 . S
C1790 C1789 1.392 1_554 S
C1790 C1791 1.385 . S
C1790 C1792 1.478 . S
C1791 H1785 0.930 . S
C1791 C1787 1.400 . S
C1791 C1790 1.385 . S
C1792 C1790 1.478 . S
C1792 C1794 1.381 . S
C1792 C1798 1.383 . S
C1793 C1789 1.495 . S
C1793 H1799 0.959 . S
C1793 H1800 0.961 . S
C1793 H1801 0.960 . S
C1794 C1792 1.381 . S
C1794 C1795 1.394 . S
C1794 H1802 0.930 . S
C1795 C1794 1.394 . S
C1795 C1796 1.383 . S
C1795 H1803 0.929 . S
C1796 C1795 1.383 . S
C1796 C1797 1.377 . S
C1797 H1781 0.930 . S
C1797 C1796 1.377 . S
C1797 C1798 1.379 . S
C1798 H1782 0.931 . S
C1798 C1792 1.383 . S
C1798 C1797 1.379 . S
H1799 C1793 0.959 . S
H1800 C1793 0.961 . S
H1801 C1793 0.960 . S
H1802 C1794 0.930 . S
H1803 C1795 0.929 . S
H1804 C1812 0.929 . S
H1805 C1814 0.930 . S
H1806 C1816 0.930 . S
H1807 C1819 0.929 . S
H1808 C1822 0.930 . S
H1809 C1824 0.960 . S
H1810 C1824 0.960 . S
H1811 C1824 0.960 . S
C1812 H1804 0.929 . S
C1812 C1813 1.377 . S
C1812 C1814 1.384 . S
C1813 C1812 1.377 . S
C1813 C1819 1.390 . S
C1814 H1805 0.930 . S
C1814 C1812 1.384 . S
C1814 C1815 1.372 . S
C1815 C1814 1.372 . S
C1815 C1816 1.400 . S
C1815 C1820 1.490 . S
C1816 H1806 0.930 . S
C1816 C1815 1.400 . S
C1816 C1819 1.386 . S
H1817 C1833 0.930 . S
H1818 C1834 0.931 . S
C1819 H1807 0.929 . S
C1819 C1813 1.390 . S
C1819 C1816 1.386 . S
C1820 C1815 1.490 . S
C1820 C1822 1.395 . S
C1820 C1823 1.403 . S
H1821 C1827 0.930 . S
C1822 H1808 0.930 . S
C1822 C1820 1.395 . S
C1822 C1825 1.403 . S
C1823 C1820 1.403 . S
C1823 C1824 1.524 . S
C1823 C1827 1.400 . S
C1824 H1809 0.960 . S
C1824 H1810 0.960 . S
C1824 H1811 0.960 . S
C1824 C1823 1.524 . S
C1825 C1822 1.403 . S
C1825 C1826 1.392 . S
C1825 C1829 1.495 . S
C1826 C1825 1.392 . S
C1826 C1827 1.385 . S
C1826 C1828 1.478 . S
C1827 H1821 0.930 . S
C1827 C1823 1.400 . S
C1827 C1826 1.385 . S
C1828 C1826 1.478 . S
C1828 C1830 1.381 . S
C1828 C1834 1.383 . S
C1829 C1825 1.495 . S
C1829 H1835 0.959 . S
C1829 H1836 0.961 . S
C1829 H1837 0.960 . S
C1830 C1828 1.381 . S
C1830 C1831 1.394 1_545 S
C1830 H1838 0.930 . S
C1831 C1830 1.394 1_565 S
C1831 C1832 1.383 . S
C1831 H1839 0.929 . S
C1832 C1831 1.383 . S
C1832 C1833 1.377 . S
C1833 H1817 0.930 . S
C1833 C1832 1.377 . S
C1833 C1834 1.379 1_565 S
C1834 H1818 0.931 . S
C1834 C1828 1.383 . S
C1834 C1833 1.379 1_545 S
H1835 C1829 0.959 . S
H1836 C1829 0.961 . S
H1837 C1829 0.960 . S
H1838 C1830 0.930 . S
H1839 C1831 0.929 . S
H1840 C1848 0.929 1_556 S
H1841 C1850 0.868 1_556 S
H1842 C1852 0.930 . S
H1843 C1855 0.929 . S
H1844 C1858 0.930 1_556 S
H1845 C1860 0.960 . S
H1846 C1860 0.960 . S
H1847 C1860 0.960 . S
C1848 H1840 0.929 1_554 S
C1848 C1849 1.377 . S
C1848 C1850 1.389 1_655 S
C1849 C1848 1.377 . S
C1849 C1855 1.390 . S
C1850 H1841 0.868 1_554 S
C1850 C1848 1.389 1_455 S
C1850 C1851 1.431 . S
C1851 C1850 1.431 . S
C1851 C1852 1.400 . S
C1851 C1856 1.490 . S
C1852 H1842 0.930 . S
C1852 C1851 1.400 . S
C1852 C1855 1.386 1_455 S
H1853 C1869 0.930 . S
H1854 C1870 0.931 . S
C1855 H1843 0.929 . S
C1855 C1849 1.390 . S
C1855 C1852 1.386 1_655 S
C1856 C1851 1.490 . S
C1856 C1858 1.395 . S
C1856 C1859 1.403 . S
H1857 C1863 0.930 . S
C1858 H1844 0.930 1_554 S
C1858 C1856 1.395 . S
C1858 C1861 1.404 . S
C1859 C1856 1.403 . S
C1859 C1860 1.524 . S
C1859 C1863 1.400 . S
C1860 H1845 0.960 . S
C1860 H1846 0.960 . S
C1860 H1847 0.960 . S
C1860 C1859 1.524 . S
C1861 C1858 1.404 . S
C1861 C1862 1.399 . S
C1861 C1865 1.487 1_554 S
C1862 C1861 1.399 . S
C1862 C1863 1.385 . S
C1862 C1864 1.478 . S
C1863 H1857 0.930 . S
C1863 C1859 1.400 . S
C1863 C1862 1.385 . S
C1864 C1862 1.478 . S
C1864 C1866 1.381 1_554 S
C1864 C1870 1.383 . S
C1865 C1861 1.487 1_556 S
C1865 H1871 0.959 . S
C1865 H1872 0.961 . S
C1865 H1873 0.960 . S
C1866 C1864 1.381 1_556 S
C1866 C1867 1.394 . S
C1866 H1874 0.930 . S
C1867 C1866 1.394 . S
C1867 C1868 1.383 1_556 S
C1867 H1875 0.929 . S
C1868 C1867 1.383 1_554 S
C1868 C1869 1.377 . S
C1869 H1853 0.930 . S
C1869 C1868 1.377 . S
C1869 C1870 1.379 . S
C1870 H1854 0.931 . S
C1870 C1864 1.383 . S
C1870 C1869 1.379 . S
H1871 C1865 0.959 . S
H1872 C1865 0.961 . S
H1873 C1865 0.960 . S
H1874 C1866 0.930 . S
H1875 C1867 0.929 . S
H1876 C1884 0.929 . S
H1877 C1886 0.930 . S
H1878 C1888 0.930 . S
H1879 C1891 0.929 . S
H1880 C1894 0.930 . S
H1881 C1896 0.960 . S
H1882 C1896 0.960 . S
H1883 C1896 0.960 . S
C1884 H1876 0.929 . S
C1884 C1885 1.377 . S
C1884 C1886 1.384 . S
C1885 C1884 1.377 . S
C1885 C1891 1.390 . S
C1886 H1877 0.930 . S
C1886 C1884 1.384 . S
C1886 C1887 1.372 . S
C1887 C1886 1.372 . S
C1887 C1888 1.400 . S
C1887 C1892 1.490 . S
C1888 H1878 0.930 . S
C1888 C1887 1.400 . S
C1888 C1891 1.386 . S
H1889 C1905 0.930 . S
H1890 C1906 0.931 . S
C1891 H1879 0.929 . S
C1891 C1885 1.390 . S
C1891 C1888 1.386 . S
C1892 C1887 1.490 . S
C1892 C1894 1.395 . S
C1892 C1895 1.403 . S
H1893 C1899 0.930 . S
C1894 H1880 0.930 . S
C1894 C1892 1.395 . S
C1894 C1897 1.403 . S
C1895 C1892 1.403 . S
C1895 C1896 1.524 . S
C1895 C1899 1.400 . S
C1896 H1881 0.960 . S
C1896 H1882 0.960 . S
C1896 H1883 0.960 . S
C1896 C1895 1.524 . S
C1897 C1894 1.403 . S
C1897 C1898 1.392 . S
C1897 C1901 1.495 . S
C1898 C1897 1.392 . S
C1898 C1899 1.385 . S
C1898 C1900 1.478 . S
C1899 H1893 0.930 . S
C1899 C1895 1.400 . S
C1899 C1898 1.385 . S
C1900 C1898 1.478 . S
C1900 C1902 1.381 . S
C1900 C1906 1.383 . S
C1901 C1897 1.495 . S
C1901 H1907 0.959 . S
C1901 H1908 0.961 . S
C1901 H1909 0.960 . S
C1902 C1900 1.381 . S
C1902 C1903 1.394 . S
C1902 H1910 0.930 . S
C1903 C1902 1.394 . S
C1903 C1904 1.383 . S
C1903 H1911 0.929 . S
C1904 C1903 1.383 . S
C1904 C1905 1.377 . S
C1905 H1889 0.930 . S
C1905 C1904 1.377 . S
C1905 C1906 1.379 . S
C1906 H1890 0.931 . S
C1906 C1900 1.383 . S
C1906 C1905 1.379 . S
H1907 C1901 0.959 . S
H1908 C1901 0.961 . S
H1909 C1901 0.960 . S
H1910 C1902 0.930 . S
H1911 C1903 0.929 . S
H1912 C1920 0.929 . S
H1913 C1922 0.930 . S
H1914 C1924 0.930 . S
H1915 C1927 0.929 . S
H1916 C1930 0.930 . S
H1917 C1932 0.960 . S
H1918 C1932 0.960 . S
H1919 C1932 0.960 . S
C1920 H1912 0.929 . S
C1920 C1921 1.377 . S
C1920 C1922 1.384 . S
C1921 C1920 1.377 . S
C1921 C1927 1.390 . S
C1922 H1913 0.930 . S
C1922 C1920 1.384 . S
C1922 C1923 1.372 . S
C1923 C1922 1.372 . S
C1923 C1924 1.400 . S
C1923 C1928 1.490 . S
C1924 H1914 0.930 . S
C1924 C1923 1.400 . S
C1924 C1927 1.386 . S
H1925 C1941 0.930 . S
H1926 C1942 0.931 . S
C1927 H1915 0.929 . S
C1927 C1921 1.390 . S
C1927 C1924 1.386 . S
C1928 C1923 1.490 . S
C1928 C1930 1.395 . S
C1928 C1931 1.403 . S
H1929 C1935 0.930 . S
C1930 H1916 0.930 . S
C1930 C1928 1.395 . S
C1930 C1933 1.403 . S
C1931 C1928 1.403 . S
C1931 C1932 1.524 . S
C1931 C1935 1.400 . S
C1932 H1917 0.960 . S
C1932 H1918 0.960 . S
C1932 H1919 0.960 . S
C1932 C1931 1.524 . S
C1933 C1930 1.403 . S
C1933 C1934 1.392 . S
C1933 C1937 1.495 . S
C1934 C1933 1.392 . S
C1934 C1935 1.385 . S
C1934 C1936 1.478 . S
C1935 H1929 0.930 . S
C1935 C1931 1.400 . S
C1935 C1934 1.385 . S
C1936 C1934 1.478 . S
C1936 C1938 1.381 . S
C1936 C1942 1.383 . S
C1937 C1933 1.495 . S
C1937 H1943 0.959 . S
C1937 H1944 0.961 . S
C1937 H1945 0.960 . S
C1938 C1936 1.381 . S
C1938 C1939 1.394 . S
C1938 H1946 0.930 . S
C1939 C1938 1.394 . S
C1939 C1940 1.383 . S
C1939 H1947 0.929 . S
C1940 C1939 1.383 . S
C1940 C1941 1.377 . S
C1941 H1925 0.930 . S
C1941 C1940 1.377 . S
C1941 C1942 1.379 . S
C1942 H1926 0.931 . S
C1942 C1936 1.383 . S
C1942 C1941 1.379 . S
H1943 C1937 0.959 . S
H1944 C1937 0.961 . S
H1945 C1937 0.960 . S
H1946 C1938 0.930 . S
H1947 C1939 0.929 . S
H1948 C1956 0.929 . S
H1949 C1958 0.930 . S
H1950 C1960 0.930 . S
H1951 C1963 0.929 . S
H1952 C1966 0.930 . S
H1953 C1968 0.960 . S
H1954 C1968 0.960 . S
H1955 C1968 0.960 . S
C1956 H1948 0.929 . S
C1956 C1957 1.377 . S
C1956 C1958 1.384 1_545 S
C1957 C1956 1.377 . S
C1957 C1963 1.390 . S
C1958 H1949 0.930 . S
C1958 C1956 1.384 1_565 S
C1958 C1959 1.372 . S
C1959 C1958 1.372 . S
C1959 C1960 1.400 . S
C1959 C1964 1.490 . S
C1960 H1950 0.930 . S
C1960 C1959 1.400 . S
C1960 C1963 1.386 1_565 S
H1961 C1977 0.930 . S
H1962 C1978 0.931 . S
C1963 H1951 0.929 . S
C1963 C1957 1.390 . S
C1963 C1960 1.386 1_545 S
C1964 C1959 1.490 . S
C1964 C1966 1.395 . S
C1964 C1967 1.403 . S
H1965 C1971 0.930 . S
C1966 H1952 0.930 . S
C1966 C1964 1.395 . S
C1966 C1969 1.403 . S
C1967 C1964 1.403 . S
C1967 C1968 1.524 . S
C1967 C1971 1.400 . S
C1968 H1953 0.960 . S
C1968 H1954 0.960 . S
C1968 H1955 0.960 . S
C1968 C1967 1.524 . S
C1969 C1966 1.403 . S
C1969 C1970 1.392 . S
C1969 C1973 1.495 . S
C1970 C1969 1.392 . S
C1970 C1971 1.385 . S
C1970 C1972 1.478 . S
C1971 H1965 0.930 . S
C1971 C1967 1.400 . S
C1971 C1970 1.385 . S
C1972 C1970 1.478 . S
C1972 C1974 1.381 . S
C1972 C1978 1.383 . S
C1973 C1969 1.495 . S
C1973 H1979 0.959 . S
C1973 H1980 0.961 . S
C1973 H1981 0.960 . S
C1974 C1972 1.381 . S
C1974 C1975 1.394 . S
C1974 H1982 0.930 . S
C1975 C1974 1.394 . S
C1975 C1976 1.383 . S
C1975 H1983 0.929 . S
C1976 C1975 1.383 . S
C1976 C1977 1.377 . S
C1977 H1961 0.930 . S
C1977 C1976 1.377 . S
C1977 C1978 1.379 . S
C1978 H1962 0.931 . S
C1978 C1972 1.383 . S
C1978 C1977 1.379 . S
H1979 C1973 0.959 . S
H1980 C1973 0.961 . S
H1981 C1973 0.960 . S
H1982 C1974 0.930 . S
H1983 C1975 0.929 . S
C553 C9 1.613 . S
C572 C311 1.684 . S
C589 C43 1.623 . S
C608 C345 1.675 . S
C625 C379 1.685 . S
C644 C77 1.633 . S
C661 C277 1.686 . S
C680 C111 1.641 . S
C697 C145 1.620 . S
C716 C243 1.691 . S
C733 C141 1.687 . S
C752 C179 1.641 . S
C769 C213 1.618 . S
C788 C175 1.674 . S
C805 C247 1.613 . S
C824 C209 1.693 . S
C841 C39 1.686 . S
C860 C281 1.613 . S
C877 C73 1.688 . S
C896 C315 1.631 . S
C913 C349 1.623 . S
C932 C107 1.681 . S
C949 C383 1.614 . S
C968 C5 1.694 . S
C985 C515 1.687 . S
C1004 C417 1.641 . S
C1021 C413 1.687 . S
C1040 C451 1.589 . S
C1057 C485 1.612 . S
C1076 C447 1.688 . S
C1093 C519 1.622 . S
C1112 C481 1.688 . S
C1129 C33 1.199 . S
C1148 C373 1.217 . S
C1165 C407 1.204 . S
C1184 C67 1.209 . S
C1201 C305 1.195 . S
C1220 C101 1.199 . S
C1237 C339 1.200 . S
C1256 C135 1.177 . S
C1273 C169 1.201 . S
C1292 C509 1.218 . S
C1309 C203 1.200 . S
C1328 C543 1.215 . S
C1345 C237 1.200 . S
C1364 C441 1.216 . S
C1381 C475 1.197 . S
C1400 C271 1.175 . S
C1417 C206 0.791 . S
C1436 C20 0.796 . S
C1453 C54 0.787 . S
C1472 C240 0.789 . S
C1489 C138 0.790 . S
C1508 C88 0.793 . S
C1525 C172 0.786 . S
C1544 C122 0.786 . S
C1561 C156 0.786 . S
C1580 C70 0.819 . S
C1597 C190 0.785 . S
C1616 C104 0.744 . S
C1633 C2 0.774 . S
C1652 C224 0.792 . S
C1669 C258 0.785 . S
C1688 C36 0.744 . S
C1705 C478 0.783 . S
C1724 C292 0.782 . S
C1741 C326 0.785 . S
C1760 C512 0.751 . S
C1777 C360 0.786 . S
C1796 C410 0.775 . S
C1813 C394 0.784 . S
C1832 C444 0.748 . S
C1849 C342 0.773 . S
C1868 C428 0.784 . S
C1885 C462 0.784 . S
C1904 C376 0.765 . S
C1921 C274 0.791 . S
C1940 C496 0.784 . S
C1957 C308 0.778 . S
C1976 C530 0.796 . S
