# Generated by pormake.
# Topology loh, (5)-cn, num edge types: 1
# Building blocks:
#     Node 0, Type 0, BuildingBlock: BEQFEK_clean_sbu_0, # of connection points: 5
#     Node 1, Type 0, BuildingBlock: BEQFEK_clean_sbu_0, # of connection points: 5
#     Node 2, Type 0, BuildingBlock: BEQFEK_clean_sbu_0, # of connection points: 5
#     Node 3, Type 0, BuildingBlock: BEQFEK_clean_sbu_0, # of connection points: 5
#     Node 4, Type 0, BuildingBlock: BEQFEK_clean_sbu_0, # of connection points: 5
#     Node 5, Type 0, BuildingBlock: BEQFEK_clean_sbu_0, # of connection points: 5
#     Node 6, Type 0, BuildingBlock: BEQFEK_clean_sbu_0, # of connection points: 5
#     Node 7, Type 0, BuildingBlock: BEQFEK_clean_sbu_0, # of connection points: 5
#     Edge 8, Type (0, 0), BuildingBlock: UVAHIK_clean_linker_0, # of connection points: 2
#     Edge 9, Type (0, 0), BuildingBlock: UVAHIK_clean_linker_0, # of connection points: 2
#     Edge 10, Type (0, 0), BuildingBlock: UVAHIK_clean_linker_0, # of connection points: 2
#     Edge 11, Type (0, 0), BuildingBlock: UVAHIK_clean_linker_0, # of connection points: 2
#     Edge 12, Type (0, 0), BuildingBlock: UVAHIK_clean_linker_0, # of connection points: 2
#     Edge 13, Type (0, 0), BuildingBlock: UVAHIK_clean_linker_0, # of connection points: 2
#     Edge 14, Type (0, 0), BuildingBlock: UVAHIK_clean_linker_0, # of connection points: 2
#     Edge 15, Type (0, 0), BuildingBlock: UVAHIK_clean_linker_0, # of connection points: 2
#     Edge 16, Type (0, 0), BuildingBlock: UVAHIK_clean_linker_0, # of connection points: 2
#     Edge 17, Type (0, 0), BuildingBlock: UVAHIK_clean_linker_0, # of connection points: 2
#     Edge 18, Type (0, 0), BuildingBlock: UVAHIK_clean_linker_0, # of connection points: 2
#     Edge 19, Type (0, 0), BuildingBlock: UVAHIK_clean_linker_0, # of connection points: 2
#     Edge 20, Type (0, 0), BuildingBlock: UVAHIK_clean_linker_0, # of connection points: 2
#     Edge 21, Type (0, 0), BuildingBlock: UVAHIK_clean_linker_0, # of connection points: 2
#     Edge 22, Type (0, 0), BuildingBlock: UVAHIK_clean_linker_0, # of connection points: 2
#     Edge 23, Type (0, 0), BuildingBlock: UVAHIK_clean_linker_0, # of connection points: 2
#     Edge 24, Type (0, 0), BuildingBlock: UVAHIK_clean_linker_0, # of connection points: 2
#     Edge 25, Type (0, 0), BuildingBlock: UVAHIK_clean_linker_0, # of connection points: 2
#     Edge 26, Type (0, 0), BuildingBlock: UVAHIK_clean_linker_0, # of connection points: 2
#     Edge 27, Type (0, 0), BuildingBlock: UVAHIK_clean_linker_0, # of connection points: 2
# Relax obj value: 0.176
# Max RMSD: 0.140
# Mean RMSD: 0.140
data_MOF--net-loh--node1-BEQFEK_clean_sbu_0--edge1-UVAHIK_clean_linker_0
_symmetry_space_group_name_H-M    P1
_symmetry_Int_Tables_number       1
_symmetry_cell_setting            triclinic
loop_
_symmetry_equiv_pos_as_xyz
'x, y, z'
_cell_length_a     28.192718
_cell_length_b     35.390174
_cell_length_c     55.461074
_cell_angle_alpha  89.993546
_cell_angle_beta   90.018505
_cell_angle_gamma 90.022221
loop_
_atom_site_label
_atom_site_type_symbol
_atom_site_fract_x
_atom_site_fract_y
_atom_site_fract_z
_atom_type_partial_charge
Co0 Co 0.02997 0.34665 0.12133 0.0
Co1 Co 0.0514 0.26677 0.1433 0.0
C2 C 0.96905 0.27766 0.11092 0.0
O3 O 0.98217 0.31178 0.10907 0.0
O4 O 0.99171 0.25461 0.12434 0.0
C5 C 0.96115 0.40144 0.11362 0.0
O6 O 0.93584 0.37614 0.12523 0.0
C7 C 0.04403 0.19463 0.17067 0.0
C8 C 0.11836 0.18626 0.18202 0.0
C9 C 0.0735 0.17045 0.18364 0.0
N10 N 0.07042 0.22318 0.16177 0.0
N11 N 0.11486 0.21777 0.16853 0.0
C12 C 0.99126 0.19243 0.16833 0.0
H13 H 0.98227 0.1771 0.15148 0.0
H14 H 0.97598 0.22127 0.1672 0.0
H15 H 0.97544 0.17709 0.18382 0.0
C16 C 0.03603 0.37009 0.1716 0.0
N17 N 0.03606 0.34293 0.15471 0.0
N18 N 0.04363 0.30979 0.16477 0.0
C19 C 0.04793 0.31511 0.18888 0.0
C20 C 0.04358 0.35361 0.1939 0.0
C21 C 0.02861 0.41117 0.16624 0.0
H22 H 0.05052 0.41954 0.15051 0.0
H23 H 0.99084 0.41579 0.16155 0.0
H24 H 0.03732 0.42949 0.18181 0.0
O25 O 0.09034 0.3356 0.10539 0.0
O26 O 0.10377 0.27739 0.11896 0.0
H27 H 0.09519 0.27403 0.20351 0.0
H28 H 0.05543 0.29463 0.22541 0.0
C29 C 0.05856 0.28439 0.20656 0.0
H30 H 0.0339 0.2604 0.20364 0.0
H31 H 0.14273 0.23599 0.16426 0.0
O32 O 1.00558 0.39637 0.11132 0.0
C33 C 0.11519 0.30558 0.10567 0.0
Co34 Co 0.54148 0.68168 0.6205 0.0
Co35 Co 0.51952 0.7619 0.64163 0.0
C36 C 0.60262 0.75063 0.60998 0.0
O37 O 0.58917 0.71658 0.60814 0.0
O38 O 0.58012 0.77379 0.62339 0.0
C39 C 0.6105 0.62675 0.61255 0.0
O40 O 0.63656 0.65233 0.62347 0.0
C41 C 0.52435 0.8324 0.67105 0.0
C42 C 0.44852 0.84752 0.67303 0.0
C43 C 0.49316 0.85944 0.68034 0.0
N44 N 0.49904 0.80624 0.65889 0.0
N45 N 0.45378 0.81562 0.66014 0.0
C46 C 0.5768 0.8298 0.67468 0.0
H47 H 0.59483 0.84862 0.66156 0.0
H48 H 0.58919 0.80044 0.67151 0.0
H49 H 0.58649 0.83885 0.69319 0.0
C50 C 0.5347 0.65918 0.67088 0.0
N51 N 0.53473 0.68608 0.65382 0.0
N52 N 0.52626 0.7193 0.66359 0.0
C53 C 0.52095 0.71424 0.68768 0.0
C54 C 0.526 0.67588 0.69298 0.0
C55 C 0.54289 0.61811 0.66585 0.0
H56 H 0.52072 0.6091 0.65035 0.0
H57 H 0.58061 0.61391 0.6609 0.0
H58 H 0.53497 0.60004 0.68166 0.0
O59 O 0.4813 0.6919 0.60416 0.0
O60 O 0.4684 0.7507 0.61669 0.0
H61 H 0.47609 0.75963 0.69889 0.0
H62 H 0.50331 0.73382 0.72351 0.0
C63 C 0.50875 0.74505 0.70503 0.0
H64 H 0.53784 0.76614 0.70529 0.0
H65 H 0.42638 0.8001 0.65226 0.0
O66 O 0.56595 0.63178 0.61089 0.0
C67 C 0.45691 0.72213 0.60378 0.0
Co68 Co 0.02454 0.67995 0.91235 0.0
Co69 Co 0.04631 0.76055 0.89135 0.0
C70 C 0.96326 0.74822 0.92338 0.0
O71 O 0.97633 0.71406 0.92494 0.0
O72 O 0.98617 0.77156 0.91028 0.0
C73 C 0.95614 0.6244 0.91944 0.0
O74 O 0.93035 0.64992 0.90831 0.0
C75 C 0.04053 0.83229 0.86264 0.0
C76 C 0.1163 0.84777 0.86097 0.0
C77 C 0.07159 0.86004 0.85409 0.0
N78 N 0.06599 0.80526 0.87396 0.0
N79 N 0.11124 0.81475 0.8727 0.0
C80 C 0.98755 0.83218 0.86112 0.0
H81 H 0.97204 0.81215 0.87424 0.0
H82 H 0.97669 0.82301 0.8428 0.0
H83 H 0.97336 0.86098 0.86436 0.0
C84 C 0.03184 0.65795 0.86188 0.0
N85 N 0.03106 0.68476 0.879 0.0
N86 N 0.03974 0.71804 0.86936 0.0
C87 C 0.04616 0.7131 0.84533 0.0
C88 C 0.04133 0.67476 0.8399 0.0
C89 C 0.025 0.61668 0.86682 0.0
H90 H 0.04709 0.60812 0.88245 0.0
H91 H 0.98732 0.61157 0.87149 0.0
H92 H 0.034 0.59889 0.85102 0.0
O93 O 0.08463 0.69078 0.92882 0.0
O94 O 0.09784 0.74943 0.91603 0.0
H95 H 0.09372 0.75673 0.83422 0.0
H96 H 0.06356 0.73315 0.80957 0.0
C97 C 0.05975 0.74393 0.82827 0.0
H98 H 0.03231 0.76637 0.82871 0.0
H99 H 0.13874 0.79889 0.8802 0.0
O100 O 1.00056 0.62973 0.92164 0.0
C101 C 0.10916 0.72099 0.92909 0.0
Co102 Co 0.53598 0.34212 0.41273 0.0
Co103 Co 0.51694 0.26164 0.39113 0.0
C104 C 0.59831 0.27405 0.42382 0.0
O105 O 0.58408 0.30791 0.42549 0.0
O106 O 0.57674 0.25048 0.41027 0.0
C107 C 0.60369 0.39805 0.41998 0.0
O108 O 0.62959 0.37284 0.40864 0.0
C109 C 0.52447 0.1892 0.36376 0.0
C110 C 0.44947 0.1796 0.35408 0.0
C111 C 0.49445 0.16424 0.35165 0.0
N112 N 0.49822 0.21765 0.37292 0.0
N113 N 0.45343 0.21155 0.36708 0.0
C114 C 0.5774 0.18775 0.36521 0.0
H115 H 0.5921 0.21669 0.36711 0.0
H116 H 0.5925 0.17405 0.34893 0.0
H117 H 0.58785 0.1711 0.38131 0.0
C118 C 0.53382 0.3644 0.36217 0.0
N119 N 0.53114 0.33778 0.37935 0.0
N120 N 0.5246 0.30439 0.36942 0.0
C121 C 0.52347 0.30908 0.34515 0.0
C122 C 0.52951 0.34735 0.33989 0.0
C123 C 0.53912 0.40581 0.36704 0.0
H124 H 0.51893 0.41371 0.38343 0.0
H125 H 0.57714 0.41235 0.37003 0.0
H126 H 0.52633 0.42295 0.35158 0.0
O127 O 0.4755 0.33084 0.42832 0.0
O128 O 0.46416 0.272 0.41541 0.0
H129 H 0.48181 0.26484 0.32981 0.0
H130 H 0.52115 0.2879 0.30861 0.0
C131 C 0.51743 0.27764 0.32743 0.0
H132 H 0.54419 0.25538 0.33104 0.0
H133 H 0.42554 0.22945 0.3718 0.0
O134 O 0.55944 0.39224 0.42249 0.0
C135 C 0.45164 0.30031 0.42831 0.0
Co136 Co 0.52486 0.84382 0.1235 0.0
Co137 Co 0.54621 0.76308 0.14396 0.0
C138 C 0.46237 0.7758 0.11281 0.0
O139 O 0.47598 0.80985 0.11115 0.0
O140 O 0.4851 0.75226 0.12587 0.0
C141 C 0.45754 0.90062 0.11619 0.0
O142 O 0.43032 0.87525 0.12656 0.0
C143 C 0.54107 0.69216 0.17298 0.0
C144 C 0.61663 0.67595 0.17391 0.0
C145 C 0.5721 0.66453 0.1817 0.0
N146 N 0.56636 0.71817 0.16069 0.0
N147 N 0.61145 0.70814 0.16132 0.0
C148 C 0.48887 0.69541 0.17724 0.0
H149 H 0.47692 0.72494 0.17427 0.0
H150 H 0.47988 0.68639 0.19585 0.0
H151 H 0.46983 0.67688 0.16432 0.0
C152 C 0.53337 0.86534 0.17405 0.0
N153 N 0.53244 0.83875 0.15679 0.0
N154 N 0.54076 0.80529 0.16627 0.0
C155 C 0.54692 0.80987 0.19035 0.0
C156 C 0.5426 0.84819 0.19597 0.0
C157 C 0.52528 0.90654 0.16938 0.0
H158 H 0.54764 0.91589 0.15404 0.0
H159 H 0.48763 0.91088 0.16435 0.0
H160 H 0.53299 0.92427 0.18537 0.0
O161 O 0.5844 0.83307 0.10664 0.0
O162 O 0.59699 0.77412 0.11891 0.0
H163 H 0.59127 0.76366 0.20072 0.0
H164 H 0.56598 0.78955 0.22583 0.0
C165 C 0.5593 0.77865 0.20737 0.0
H166 H 0.52974 0.758 0.20792 0.0
H167 H 0.6388 0.72341 0.15321 0.0
O168 O 0.50184 0.89443 0.11448 0.0
C169 C 0.60847 0.80268 0.10601 0.0
Co170 Co 0.03671 0.18086 0.62323 0.0
Co171 Co 0.01751 0.26124 0.64504 0.0
C172 C 0.09938 0.24884 0.6126 0.0
O173 O 0.08529 0.21494 0.61083 0.0
O174 O 0.07745 0.27233 0.62603 0.0
C175 C 0.10392 0.1247 0.61568 0.0
O176 O 0.13006 0.14967 0.62712 0.0
C177 C 0.02602 0.33393 0.67199 0.0
C178 C 0.95231 0.34189 0.68442 0.0
C179 C 0.99707 0.358 0.68534 0.0
N180 N 0.99942 0.30513 0.66355 0.0
N181 N 0.95535 0.31032 0.67096 0.0
C182 C 0.0786 0.33651 0.66886 0.0
H183 H 0.08641 0.35115 0.65162 0.0
H184 H 0.09422 0.30776 0.66802 0.0
H185 H 0.09509 0.35264 0.68384 0.0
C186 C 0.03081 0.15779 0.67356 0.0
N187 N 0.03097 0.18484 0.65659 0.0
N188 N 0.02454 0.21817 0.66659 0.0
C189 C 0.02099 0.21307 0.69077 0.0
C190 C 0.02451 0.17454 0.69585 0.0
C191 C 0.03696 0.11655 0.66829 0.0
H192 H 0.0151 0.10857 0.65245 0.0
H193 H 0.07467 0.1111 0.66386 0.0
H194 H 0.02726 0.09851 0.68384 0.0
O195 O 0.97656 0.1927 0.60741 0.0
O196 O 0.96472 0.25131 0.62067 0.0
H197 H 0.97542 0.25463 0.70618 0.0
H198 H 0.01678 0.23405 0.7273 0.0
C199 C 0.01219 0.24409 0.70848 0.0
H200 H 0.03681 0.26789 0.7049 0.0
H201 H 0.92744 0.29188 0.66717 0.0
O202 O 0.05967 0.13066 0.61332 0.0
C203 C 0.9525 0.22313 0.60756 0.0
Co204 Co 0.53377 0.18231 0.912 0.0
Co205 Co 0.5517 0.26272 0.88975 0.0
C206 C 0.47262 0.25056 0.92399 0.0
O207 O 0.48699 0.21675 0.92557 0.0
O208 O 0.49316 0.27388 0.90989 0.0
C209 C 0.46579 0.1275 0.92116 0.0
O210 O 0.43971 0.15264 0.90985 0.0
C211 C 0.54372 0.33442 0.86086 0.0
C212 C 0.61951 0.34859 0.85665 0.0
C213 C 0.57436 0.36154 0.85121 0.0
N214 N 0.56984 0.30702 0.87145 0.0
N215 N 0.61507 0.31575 0.86865 0.0
C216 C 0.49067 0.33544 0.86113 0.0
H217 H 0.47624 0.31599 0.8749 0.0
H218 H 0.4771 0.3263 0.84329 0.0
H219 H 0.47794 0.36461 0.86461 0.0
C220 C 0.53252 0.15964 0.86155 0.0
N221 N 0.53629 0.18649 0.87853 0.0
N222 N 0.54288 0.21968 0.86833 0.0
C223 C 0.54324 0.21459 0.84408 0.0
C224 C 0.5363 0.1763 0.83912 0.0
C225 C 0.5272 0.11834 0.8668 0.0
H226 H 0.54838 0.11063 0.88291 0.0
H227 H 0.48935 0.11209 0.87051 0.0
H228 H 0.53882 0.10084 0.85128 0.0
O229 O 0.59529 0.19344 0.9265 0.0
O230 O 0.60559 0.25232 0.91343 0.0
H231 H 0.5837 0.26032 0.82964 0.0
H232 H 0.54919 0.23468 0.8074 0.0
C233 C 0.54959 0.24567 0.82614 0.0
H234 H 0.52073 0.26665 0.82842 0.0
H235 H 0.64304 0.29949 0.8753 0.0
O236 O 0.51038 0.13255 0.92258 0.0
C237 C 0.61897 0.22403 0.92614 0.0
Co238 Co 0.04325 0.84598 0.41157 0.0
Co239 Co 0.01983 0.76673 0.38929 0.0
C240 C 0.1036 0.77648 0.42102 0.0
O241 O 0.09108 0.81069 0.42326 0.0
O242 O 0.0801 0.75391 0.40762 0.0
C243 C 0.11205 0.90087 0.42041 0.0
O244 O 0.1383 0.87586 0.40911 0.0
C245 C 0.02532 0.69509 0.36131 0.0
C246 C 0.94984 0.68561 0.35258 0.0
C247 C 0.99468 0.67027 0.34952 0.0
N248 N 0.99958 0.72342 0.37093 0.0
N249 N 0.9545 0.71743 0.36566 0.0
C250 C 0.0783 0.6936 0.36206 0.0
H251 H 0.09311 0.72258 0.36348 0.0
H252 H 0.09257 0.6795 0.34572 0.0
H253 H 0.08957 0.67735 0.37819 0.0
C254 C 0.03622 0.87031 0.36152 0.0
N255 N 0.03645 0.84283 0.3782 0.0
N256 N 0.02726 0.81004 0.36802 0.0
C257 C 0.02121 0.81597 0.34406 0.0
C258 C 0.02656 0.85445 0.33926 0.0
C259 C 0.04414 0.91124 0.36713 0.0
H260 H 0.02153 0.91971 0.38258 0.0
H261 H 0.0817 0.91538 0.37243 0.0
H262 H 0.03662 0.92976 0.35147 0.0
O263 O 0.98304 0.83509 0.4278 0.0
O264 O 0.96842 0.77717 0.41411 0.0
H265 H 0.97125 0.77582 0.33068 0.0
H266 H 0.00833 0.79674 0.30765 0.0
C267 C 0.00755 0.78594 0.32644 0.0
H268 H 0.03209 0.76161 0.3282 0.0
H269 H 0.92687 0.73527 0.37087 0.0
O270 O 0.06753 0.89558 0.42193 0.0
C271 C 0.95776 0.8053 0.42758 0.0
C272 C 0.4207 0.29924 0.9449 0.0
C273 C 0.4319 0.26144 0.93957 0.0
C274 C 0.38483 0.30774 0.96173 0.0
C275 C 0.282 0.26358 0.99379 0.0
H276 H 0.30532 0.33944 0.04278 0.0
C277 C 0.17441 0.26748 0.08199 0.0
C278 C 0.15582 0.30279 0.08869 0.0
C279 C 0.20849 0.26483 0.06369 0.0
C280 C 0.2982 0.31832 0.02911 0.0
H281 H 0.41287 0.2031 0.94724 0.0
H282 H 0.35204 0.21771 0.97613 0.0
H283 H 0.36136 0.33207 1.00938 0.0
H284 H 0.16039 0.36319 0.08219 0.0
H285 H 0.22025 0.35848 0.05058 0.0
H286 H 0.21966 0.24913 1.01379 0.0
C287 C 0.37005 0.241 0.96737 0.0
C288 C 0.33012 0.31427 1.00988 0.0
C289 C 0.40551 0.2326 0.9508 0.0
C290 C 0.17377 0.33549 0.07743 0.0
C291 C 0.20823 0.33286 0.05935 0.0
C292 C 0.25051 0.26736 1.01307 0.0
C293 C 0.35932 0.27859 0.9733 0.0
C294 C 0.32285 0.28636 0.99218 0.0
C295 C 0.2252 0.29745 0.05189 0.0
C296 C 0.25855 0.29436 0.03116 0.0
H297 H 0.4404 0.3221 0.93663 0.0
H298 H 0.37724 0.33706 0.96576 0.0
H299 H 0.27456 0.24238 0.98022 0.0
H300 H 0.16139 0.24175 0.09025 0.0
H301 H 0.22139 0.23716 0.05854 0.0
C302 C 0.40097 0.75985 0.57795 0.0
C303 C 0.4168 0.72465 0.58648 0.0
C304 C 0.3676 0.76184 0.55927 0.0
C305 C 0.27384 0.70991 0.52719 0.0
H306 H 0.30703 0.77541 0.47378 0.0
C307 C 0.15158 0.7265 0.44293 0.0
C308 C 0.14529 0.76409 0.43538 0.0
C309 C 0.18739 0.71738 0.45966 0.0
C310 C 0.29689 0.75719 0.48859 0.0
H311 H 0.40804 0.66397 0.58291 0.0
H312 H 0.34901 0.66761 0.55073 0.0
H313 H 0.36061 0.76984 0.50801 0.0
H314 H 0.17331 0.82105 0.43857 0.0
H315 H 0.23411 0.80553 0.46734 0.0
H316 H 0.2092 0.69831 0.50815 0.0
C317 C 0.36284 0.69359 0.55831 0.0
C318 C 0.32768 0.75406 0.50823 0.0
C319 C 0.39676 0.69156 0.5767 0.0
C320 C 0.17686 0.79179 0.44397 0.0
C321 C 0.21227 0.78278 0.46046 0.0
C322 C 0.24257 0.71345 0.50762 0.0
C323 C 0.34874 0.72872 0.549 0.0
C324 C 0.31621 0.73087 0.52792 0.0
C325 C 0.21771 0.74564 0.46892 0.0
C326 C 0.2533 0.73772 0.48826 0.0
H327 H 0.41574 0.78585 0.58502 0.0
H328 H 0.35696 0.78935 0.55262 0.0
H329 H 0.26415 0.69174 0.54211 0.0
H330 H 0.12773 0.70456 0.43673 0.0
H331 H 0.19086 0.68837 0.46561 0.0
C332 C 0.41186 0.72689 0.09132 0.0
C333 C 0.42073 0.76459 0.09795 0.0
C334 C 0.37611 0.71834 0.07444 0.0
C335 C 0.27073 0.76108 0.04336 0.0
H336 H 0.299 0.68914 0.99267 0.0
C337 C 0.16639 0.75915 0.95398 0.0
C338 C 0.14912 0.72377 0.9465 0.0
C339 C 0.19971 0.7617 0.97266 0.0
C340 C 0.29052 0.70915 1.0068 0.0
H341 H 0.39735 0.82254 0.09279 0.0
H342 H 0.33672 0.80793 0.06369 0.0
H343 H 0.35397 0.69639 0.02653 0.0
H344 H 0.15525 0.66325 0.95204 0.0
H345 H 0.21402 0.66781 0.98426 0.0
H346 H 0.20816 0.77469 0.02326 0.0
C347 C 0.35647 0.78469 0.07147 0.0
C348 C 0.32183 0.71312 0.02632 0.0
C349 C 0.39181 0.79314 0.08816 0.0
C350 C 0.16764 0.69098 0.9574 0.0
C351 C 0.20144 0.69353 0.97582 0.0
C352 C 0.23989 0.75745 0.02376 0.0
C353 C 0.34841 0.74731 0.06404 0.0
C354 C 0.31273 0.73962 0.04468 0.0
C355 C 0.21706 0.72894 0.98405 0.0
C356 C 0.2497 0.73185 1.00508 0.0
H357 H 0.43358 0.70426 0.09845 0.0
H358 H 0.37056 0.68915 0.06932 0.0
H359 H 0.2618 0.78111 0.0574 0.0
H360 H 0.15287 0.78496 0.94605 0.0
H361 H 0.21155 0.7894 0.97842 0.0
C362 C 0.39519 0.26177 0.45343 0.0
C363 C 0.41109 0.29719 0.4453 0.0
C364 C 0.36165 0.25928 0.47201 0.0
C365 C 0.2688 0.31169 0.50499 0.0
H366 H 0.29985 0.2431 0.55713 0.0
C367 C 0.14916 0.29724 0.59028 0.0
C368 C 0.14087 0.2598 0.59762 0.0
C369 C 0.18463 0.3053 0.57316 0.0
C370 C 0.2903 0.26219 0.54267 0.0
H371 H 0.4022 0.35777 0.44948 0.0
H372 H 0.34318 0.3533 0.4815 0.0
H373 H 0.35299 0.24844 0.52273 0.0
H374 H 0.16508 0.20185 0.59361 0.0
H375 H 0.22533 0.21561 0.56414 0.0
H376 H 0.20534 0.32464 0.52464 0.0
C377 C 0.35693 0.32749 0.47367 0.0
C378 C 0.32081 0.26516 0.5229 0.0
C379 C 0.39089 0.33 0.45536 0.0
C380 C 0.17018 0.23106 0.58838 0.0
C381 C 0.20527 0.23902 0.57149 0.0
C382 C 0.23787 0.30839 0.52469 0.0
C383 C 0.34276 0.29214 0.48262 0.0
C384 C 0.31018 0.28957 0.50369 0.0
C385 C 0.21265 0.27609 0.56328 0.0
C386 C 0.24786 0.28313 0.54364 0.0
H387 H 0.41007 0.23597 0.44614 0.0
H388 H 0.35095 0.2316 0.47834 0.0
H389 H 0.25966 0.33077 0.49045 0.0
H390 H 0.12712 0.31998 0.59699 0.0
H391 H 0.18968 0.33427 0.56744 0.0
C392 C 0.66735 0.83291 0.07804 0.0
C393 C 0.64827 0.8 0.08853 0.0
C394 C 0.70129 0.83055 0.05968 0.0
C395 C 0.7394 0.76763 1.0112 0.0
H396 H 0.85482 0.82727 1.00977 0.0
C397 C 0.8922 0.7313 0.94772 0.0
C398 C 0.92176 0.75968 0.93821 0.0
C399 C 0.85666 0.7399 0.96423 0.0
C400 C 0.82232 0.81097 1.00962 0.0
H401 H 0.65109 0.73878 0.08834 0.0
H402 H 0.70997 0.73468 0.05606 0.0
H403 H 0.79928 0.83432 0.0434 0.0
H404 H 0.93565 0.81988 0.93808 0.0
H405 H 0.87233 0.83526 0.96697 0.0
H406 H 0.76157 0.74457 0.97746 0.0
C407 C 0.69849 0.76232 0.06209 0.0
C408 C 0.79068 0.81481 0.02899 0.0
C409 C 0.66504 0.76467 0.0807 0.0
C410 C 0.91343 0.79738 0.94499 0.0
C411 C 0.87749 0.80608 0.96173 0.0
C412 C 0.77058 0.76413 0.99176 0.0
C413 C 0.71646 0.79522 0.05113 0.0
C414 C 0.74938 0.79258 0.03022 0.0
C415 C 0.84907 0.77727 0.97179 0.0
C416 C 0.81307 0.78505 0.99094 0.0
H417 H 0.65536 0.8606 0.08368 0.0
H418 H 0.71437 0.85637 0.05157 0.0
H419 H 0.7073 0.75079 1.01134 0.0
H420 H 0.89731 0.7019 0.94295 0.0
H421 H 0.83633 0.71678 0.97177 0.0
C422 C 0.89194 0.19342 0.58038 0.0
C423 C 0.91192 0.22623 0.59056 0.0
C424 C 0.85778 0.19592 0.56214 0.0
C425 C 0.82033 0.25864 0.51333 0.0
H426 H 0.70563 0.19813 0.5116 0.0
C427 C 0.66861 0.29219 0.44835 0.0
C428 C 0.63975 0.26329 0.43892 0.0
C429 C 0.70385 0.28436 0.4652 0.0
C430 C 0.73794 0.21469 0.51154 0.0
H431 H 0.91038 0.28745 0.58999 0.0
H432 H 0.85092 0.29182 0.55794 0.0
H433 H 0.76047 0.19204 0.54559 0.0
H434 H 0.62687 0.20297 0.43924 0.0
H435 H 0.68967 0.18891 0.46873 0.0
H436 H 0.79863 0.28098 0.47929 0.0
C437 C 0.86193 0.26413 0.5641 0.0
C438 C 0.76917 0.21141 0.53113 0.0
C439 C 0.89567 0.26165 0.58261 0.0
C440 C 0.64855 0.22584 0.44609 0.0
C441 C 0.68417 0.21791 0.46317 0.0
C442 C 0.78952 0.26161 0.49368 0.0
C443 C 0.84319 0.23128 0.55339 0.0
C444 C 0.81028 0.23388 0.53244 0.0
C445 C 0.71182 0.24725 0.47318 0.0
C446 C 0.74735 0.24029 0.49271 0.0
H447 H 0.90351 0.16565 0.58612 0.0
H448 H 0.84418 0.17011 0.55423 0.0
H449 H 0.85229 0.27565 0.5135 0.0
H450 H 0.66313 0.32142 0.44327 0.0
H451 H 0.7236 0.30786 0.47266 0.0
C452 C 0.92146 0.22858 0.08802 0.0
C453 C 0.92782 0.26593 0.096 0.0
C454 C 0.88641 0.22011 0.07075 0.0
C455 C 0.77881 0.26116 0.04077 0.0
H456 H 0.81334 0.19611 0.98736 0.0
C457 C 0.67497 0.26286 0.95129 0.0
C458 C 0.66009 0.2274 0.94275 0.0
C459 C 0.70858 0.26541 0.96985 0.0
C460 C 0.80315 0.21421 1.00224 0.0
H461 H 0.90063 0.32316 0.09304 0.0
H462 H 0.84105 0.30874 0.06332 0.0
H463 H 0.86699 0.20229 0.02186 0.0
H464 H 0.67098 0.16691 0.94605 0.0
H465 H 0.73025 0.17151 0.978 0.0
H466 H 0.71576 0.27395 0.02085 0.0
C467 C 0.8623 0.28569 0.07026 0.0
C468 C 0.83368 0.21751 0.02211 0.0
C469 C 0.89699 0.29406 0.0873 0.0
C470 C 0.68152 0.19469 0.95226 0.0
C471 C 0.71559 0.19727 0.97054 0.0
C472 C 0.74872 0.25822 0.02084 0.0
C473 C 0.85691 0.2488 0.06136 0.0
C474 C 0.82225 0.24153 0.04149 0.0
C475 C 0.72856 0.2326 0.97999 0.0
C476 C 0.76078 0.23512 1.0012 0.0
H477 H 0.94475 0.20632 0.09429 0.0
H478 H 0.8829 0.19126 0.06448 0.0
H479 H 0.76816 0.27923 0.05556 0.0
H480 H 0.6591 0.28858 0.94443 0.0
H481 H 0.71835 0.29307 0.97658 0.0
C482 C 0.6731 0.73368 0.58526 0.0
C483 C 0.64414 0.76211 0.59514 0.0
C484 C 0.70856 0.7423 0.56871 0.0
C485 C 0.74379 0.81402 0.52391 0.0
H486 H 0.85751 0.75244 0.52134 0.0
C487 C 0.89915 0.83558 0.45562 0.0
C488 C 0.91751 0.80269 0.44479 0.0
C489 C 0.86503 0.83321 0.47388 0.0
C490 C 0.82577 0.76968 0.52171 0.0
H491 H 0.63124 0.82243 0.59589 0.0
H492 H 0.6945 0.83787 0.56693 0.0
H493 H 0.80351 0.74619 0.55532 0.0
H494 H 0.91315 0.74154 0.44424 0.0
H495 H 0.85393 0.7374 0.47637 0.0
H496 H 0.767 0.83783 0.49028 0.0
C497 C 0.6889 0.80862 0.57192 0.0
C498 C 0.79474 0.76617 0.54122 0.0
C499 C 0.65301 0.79988 0.58869 0.0
C500 C 0.89975 0.76741 0.45214 0.0
C501 C 0.86612 0.76503 0.47067 0.0
C502 C 0.77531 0.81789 0.50448 0.0
C503 C 0.71673 0.77977 0.5615 0.0
C504 C 0.75269 0.78759 0.54234 0.0
C505 C 0.84895 0.79788 0.482 0.0
C506 C 0.81612 0.79515 0.50294 0.0
H507 H 0.66756 0.70422 0.58973 0.0
H508 H 0.72837 0.71915 0.56088 0.0
H509 H 0.71163 0.83073 0.524 0.0
H510 H 0.91191 0.86324 0.45034 0.0
H511 H 0.85258 0.85899 0.48229 0.0
C512 C 0.01126 0.37287 0.23406 0.0
C513 C 0.04796 0.37417 0.21704 0.0
C514 C 0.00926 0.39962 0.2527 0.0
C515 C 0.07658 0.47931 0.282 0.0
H516 H 0.95045 0.52013 0.29142 0.0
C517 C 0.03983 0.6092 0.34393 0.0
C518 C 1.0051 0.6349 0.33605 0.0
C519 C 0.04673 0.57481 0.33182 0.0
C520 C 0.98603 0.50934 0.2889 0.0
H521 H 0.11291 0.40242 0.20687 0.0
H522 H 0.10947 0.44927 0.23897 0.0
H523 H 0.96083 0.46357 0.26731 0.0
H524 H 0.95071 0.64474 0.30919 0.0
H525 H 0.96345 0.58567 0.28776 0.0
H526 H 0.1019 0.52641 0.30259 0.0
C527 C 0.08238 0.4276 0.23842 0.0
C528 C 0.99194 0.47631 0.27536 0.0
C529 C 0.08445 0.40075 0.21995 0.0
C530 C 0.97771 0.62553 0.31576 0.0
C531 C 0.98479 0.59142 0.30357 0.0
C532 C 0.07069 0.51256 0.29543 0.0
C533 C 0.0438 0.42837 0.25453 0.0
C534 C 0.03737 0.46107 0.27136 0.0
C535 C 0.01903 0.5653 0.31155 0.0
C536 C 0.02538 0.52844 0.2987 0.0
H537 H 0.9826 0.3527 0.23206 0.0
H538 H 0.97958 0.39869 0.26506 0.0
H539 H 0.11208 0.46824 0.27964 0.0
H540 H 0.06063 0.61501 0.3599 0.0
H541 H 0.07297 0.55528 0.33873 0.0
C542 C 0.55893 0.65616 0.73289 0.0
C543 C 0.52161 0.6555 0.71619 0.0
C544 C 0.56102 0.62924 0.75143 0.0
C545 C 0.49275 0.55147 0.78189 0.0
H546 H 0.61769 0.50749 0.78978 0.0
C547 C 0.52431 0.40268 0.82366 0.0
C548 C 0.56398 0.39801 0.83877 0.0
C549 C 0.51697 0.43674 0.81124 0.0
C550 C 0.58261 0.51969 0.7881 0.0
H551 H 0.45595 0.62797 0.70637 0.0
H552 H 0.45932 0.58102 0.73851 0.0
H553 H 0.60804 0.56366 0.76506 0.0
H554 H 0.6269 0.42586 0.8526 0.0
H555 H 0.61413 0.48491 0.83106 0.0
H556 H 0.46732 0.50659 0.80448 0.0
C557 C 0.48684 0.60232 0.73772 0.0
C558 C 0.57706 0.55213 0.77395 0.0
C559 C 0.48476 0.62928 0.71929 0.0
C560 C 0.59598 0.42833 0.84111 0.0
C561 C 0.58874 0.46224 0.82868 0.0
C562 C 0.4983 0.51885 0.79598 0.0
C563 C 0.52591 0.601 0.75352 0.0
C564 C 0.53201 0.56838 0.77045 0.0
C565 C 0.54936 0.46686 0.81342 0.0
C566 C 0.54328 0.50236 0.79914 0.0
H567 H 0.58796 0.67593 0.73069 0.0
H568 H 0.59115 0.62964 0.76354 0.0
H569 H 0.45758 0.56335 0.77989 0.0
H570 H 0.49975 0.37973 0.82065 0.0
H571 H 0.4867 0.43902 0.7993 0.0
C572 C 0.9898 0.39879 0.72191 0.0
C573 C 0.00954 0.39273 0.69898 0.0
C574 C 0.99945 0.43196 0.73471 0.0
C575 C 0.02967 0.53143 0.72793 0.0
H576 H 0.06816 0.52436 0.79492 0.0
C577 C 0.01258 0.65127 0.79996 0.0
C578 C 0.04919 0.65416 0.81701 0.0
C579 C 0.01399 0.6231 0.78215 0.0
C580 C 0.05789 0.52691 0.77616 0.0
H581 H 0.05371 0.41728 0.67112 0.0
H582 H 0.06998 0.4759 0.69344 0.0
H583 H 0.05831 0.46686 0.77114 0.0
H584 H 0.11706 0.63173 0.82814 0.0
H585 H 0.11981 0.58272 0.79704 0.0
H586 H 0.02767 0.59161 0.73332 0.0
C587 C 0.04765 0.45453 0.7016 0.0
C588 C 0.05192 0.49392 0.76261 0.0
C589 C 0.03874 0.42087 0.68895 0.0
C590 C 0.08873 0.6303 0.81496 0.0
C591 C 0.08997 0.602 0.79737 0.0
C592 C 0.03484 0.56453 0.74166 0.0
C593 C 0.02823 0.46032 0.72467 0.0
C594 C 0.03742 0.49574 0.7384 0.0
C595 C 0.05178 0.59711 0.78135 0.0
C596 C 0.04889 0.56261 0.76598 0.0
H597 H 0.96696 0.3777 0.73002 0.0
H598 H 0.98364 0.43575 0.75234 0.0
H599 H 0.01818 0.53366 0.70935 0.0
H600 H 0.98137 0.66895 0.8015 0.0
H601 H 0.98392 0.61996 0.77015 0.0
C602 C 0.49328 0.37751 0.30344 0.0
C603 C 0.53391 0.36734 0.31657 0.0
C604 C 0.4956 0.4063 0.28602 0.0
C605 C 0.56393 0.49269 0.27579 0.0
H606 H 0.5038 0.49705 0.213 0.0
C607 C 0.6 0.61624 0.21136 0.0
C608 C 0.56322 0.63025 0.19675 0.0
C609 C 0.59405 0.58334 0.22493 0.0
C610 C 0.52024 0.49651 0.23064 0.0
H611 H 0.609 0.37743 0.32107 0.0
H612 H 0.61346 0.42689 0.29046 0.0
H613 H 0.49856 0.43907 0.2371 0.0
H614 H 0.49158 0.61897 0.18434 0.0
H615 H 0.48044 0.56238 0.20883 0.0
H616 H 0.5848 0.54994 0.26992 0.0
C617 C 0.57971 0.41311 0.29363 0.0
C618 C 0.51741 0.46318 0.24438 0.0
C619 C 0.57738 0.38443 0.3109 0.0
C620 C 0.52023 0.61003 0.19595 0.0
C621 C 0.51414 0.577 0.20969 0.0
C622 C 0.56638 0.52592 0.26226 0.0
C623 C 0.53852 0.42553 0.28172 0.0
C624 C 0.53995 0.46074 0.26695 0.0
C625 C 0.55099 0.56326 0.22444 0.0
C626 C 0.54529 0.52822 0.23931 0.0
H627 H 0.45918 0.36527 0.30793 0.0
H628 H 0.46323 0.41528 0.2772 0.0
H629 H 0.58057 0.49216 0.2934 0.0
H630 H 0.63381 0.63072 0.21234 0.0
H631 H 0.62373 0.57336 0.23556 0.0
C632 C 0.58443 0.89481 0.22202 0.0
C633 C 0.54802 0.8681 0.2193 0.0
C634 C 0.58278 0.9215 0.24061 0.0
C635 C 0.49288 0.96977 0.27807 0.0
H636 H 0.60291 0.02043 0.3048 0.0
C637 C 0.47831 0.11927 0.31789 0.0
C638 C 0.50543 0.12884 0.33826 0.0
C639 C 0.48564 0.08511 0.30581 0.0
C640 C 0.5717 1.00642 0.29777 0.0
H641 H 0.48329 0.84625 0.23478 0.0
H642 H 0.48099 0.89197 0.26795 0.0
H643 H 0.61313 0.96223 0.28182 0.0
H644 H 0.5609 0.10924 0.36225 0.0
H645 H 0.57378 0.04945 0.34117 0.0
H646 H 0.45137 0.01352 0.29419 0.0
C647 C 0.51031 0.89309 0.25537 0.0
C648 C 0.5776 0.97315 0.28433 0.0
C649 C 0.51192 0.86648 0.23663 0.0
C650 C 0.54027 0.10331 0.34624 0.0
C651 C 0.54747 0.06886 0.33419 0.0
C652 C 0.48698 1.00284 0.29156 0.0
C653 C 0.54466 0.92201 0.25701 0.0
C654 C 0.53833 0.9547 0.27388 0.0
C655 C 0.51991 0.05913 0.31391 0.0
C656 C 0.52634 0.02216 0.30117 0.0
H657 H 0.61238 0.89679 0.20867 0.0
H658 H 0.60971 0.9433 0.24101 0.0
H659 H 0.46172 0.95688 0.27016 0.0
H660 H 0.45127 0.13833 0.31121 0.0
H661 H 0.46442 0.07919 0.28998 0.0
C662 C 0.02312 0.90109 0.82572 0.0
C663 C 0.06188 0.89647 0.84144 0.0
C664 C 0.01618 0.93526 0.81338 0.0
C665 C 0.0819 0.01818 0.79097 0.0
H666 H 0.95728 0.06279 0.78323 0.0
C667 C 0.05907 0.15433 0.73532 0.0
C668 C 0.02094 0.15418 0.7191 0.0
C669 C 0.06133 0.12752 0.75392 0.0
C670 C 0.99233 0.05063 0.78506 0.0
H671 H 0.12384 0.92451 0.85626 0.0
H672 H 0.11195 0.98363 0.83464 0.0
H673 H 0.96664 1.00578 0.8076 0.0
H674 H 0.95404 0.12779 0.71024 0.0
H675 H 0.95783 0.0809 0.74234 0.0
H676 H 0.10757 0.06194 0.76786 0.0
C677 C 0.08683 0.96087 0.83189 0.0
C678 C 0.99765 0.0179 0.79905 0.0
C679 C 0.09356 0.9269 0.84433 0.0
C680 C 0.98356 0.12864 0.72275 0.0
C681 C 0.98586 0.10173 0.74119 0.0
C682 C 0.07656 0.05067 0.77684 0.0
C683 C 0.04819 0.96547 0.81616 0.0
C684 C 0.04246 1.00109 0.80203 0.0
C685 C 0.02562 0.09985 0.75652 0.0
C686 C 0.03164 0.06725 0.77347 0.0
H687 H 0.99892 0.8781 0.8222 0.0
H688 H 0.98653 0.93759 0.80104 0.0
H689 H 0.11684 1.00572 0.7926 0.0
H690 H 0.08847 0.17362 0.73272 0.0
H691 H 0.092 0.12757 0.76568 0.0
C692 C 0.46594 0.90673 0.7108 0.0
C693 C 0.5021 0.89359 0.69549 0.0
C694 C 0.47192 0.93951 0.72449 0.0
C695 C 0.54366 0.02755 0.72947 0.0
H696 H 0.48744 0.03003 0.79323 0.0
C697 C 0.57142 0.14669 0.80217 0.0
C698 C 0.53129 0.15592 0.81595 0.0
C699 C 0.56902 0.11785 0.78477 0.0
C700 C 0.50292 0.03001 0.77535 0.0
H701 H 0.57258 0.90626 0.68199 0.0
H702 H 0.58382 0.96266 0.70666 0.0
H703 H 0.48331 0.97247 0.76953 0.0
H704 H 0.4569 0.14412 0.82162 0.0
H705 H 0.45229 0.09458 0.79109 0.0
H706 H 0.56406 0.0853 0.73585 0.0
C707 C 0.5506 0.94745 0.70798 0.0
C708 C 0.50053 0.99691 0.7617 0.0
C709 C 0.54448 0.91454 0.69412 0.0
C710 C 0.48813 0.13782 0.81097 0.0
C711 C 0.48572 0.1091 0.79374 0.0
C712 C 0.54644 0.06075 0.74332 0.0
C713 C 0.51438 0.96034 0.72342 0.0
C714 C 0.52011 0.99528 0.73839 0.0
C715 C 0.52655 0.09764 0.78115 0.0
C716 C 0.52535 0.06252 0.76627 0.0
H717 H 0.4326 0.89166 0.71222 0.0
H718 H 0.4427 0.94882 0.73568 0.0
H719 H 0.55891 0.02752 0.71156 0.0
H720 H 0.60531 0.15975 0.80608 0.0
H721 H 0.6011 0.10964 0.7754 0.0
C722 C 0.03078 0.10819 0.18805 0.0
C723 C 0.0614 0.13587 0.19749 0.0
C724 C 0.02185 0.07477 0.20093 0.0
C725 C 0.02077 0.03601 0.26212 0.0
H726 H 0.03831 0.93757 0.23265 0.0
C727 C 0.98065 0.90113 0.31526 0.0
C728 C 0.01893 0.8759 0.31668 0.0
C729 C 0.97984 0.92945 0.29769 0.0
C730 C 0.03305 0.96487 0.24105 0.0
H731 H 0.10665 0.15027 0.22769 0.0
H732 H 0.09006 0.09259 0.25041 0.0
H733 H 0.04867 0.9951 0.20836 0.0
H734 H 0.08477 0.85865 0.30005 0.0
H735 H 0.083 0.90782 0.26877 0.0
H736 H 1.00555 1.00621 0.29478 0.0
C737 C 0.07309 0.09659 0.23306 0.0
C738 C 0.03871 0.99774 0.22714 0.0
C739 C 0.08269 0.12954 0.22003 0.0
C740 C 0.05456 0.87749 0.29905 0.0
C741 C 0.0536 0.90573 0.28127 0.0
C742 C 0.01433 1.00329 0.27586 0.0
C743 C 0.04276 0.06874 0.22364 0.0
C744 C 0.03332 0.03366 0.23766 0.0
C745 C 0.01722 0.933 0.28106 0.0
C746 C 0.02088 0.96732 0.26559 0.0
H747 H 0.01461 0.11197 0.17051 0.0
H748 H 0.99831 0.05378 0.19324 0.0
H749 H 0.01618 0.06328 0.27069 0.0
H750 H 0.95302 0.9006 0.32884 0.0
H751 H 0.95106 0.94972 0.29782 0.0
C752 C 0.95824 0.56296 0.94126 0.0
C753 C 0.93298 0.59523 0.93418 0.0
C754 C 0.94046 0.53961 0.95939 0.0
C755 C 0.88414 0.55158 1.01516 0.0
H756 H 0.88695 0.44218 0.01869 0.0
C757 C 0.96212 0.46234 0.09116 0.0
C758 C 0.93737 0.43007 0.09871 0.0
C759 C 0.94347 0.4853 0.07305 0.0
C760 C 0.8849 0.47273 0.01792 0.0
H761 H 0.86804 0.6272 0.93922 0.0
H762 H 0.8379 0.58696 0.97163 0.0
H763 H 0.88639 0.47332 0.97926 0.0
H764 H 0.87255 0.39761 0.09445 0.0
H765 H 0.84087 0.43715 0.06207 0.0
H766 H 0.88743 0.55102 0.05379 0.0
C767 C 0.87088 0.57948 0.96282 0.0
C768 C 0.88474 0.49043 0.99544 0.0
C769 C 0.88812 0.60234 0.94428 0.0
C770 C 0.89225 0.42249 0.08903 0.0
C771 C 0.87413 0.44495 0.07051 0.0
C772 C 0.88534 0.53389 0.03763 0.0
C773 C 0.89768 0.54868 0.97099 0.0
C774 C 0.88595 0.52996 0.99394 0.0
C775 C 0.90031 0.47582 0.06193 0.0
C776 C 0.88731 0.49438 0.03911 0.0
H777 H 0.99284 0.55692 0.93369 0.0
H778 H 0.96192 0.51615 0.96561 0.0
H779 H 0.88564 0.58215 1.01437 0.0
H780 H 0.99691 0.46874 0.09839 0.0
H781 H 0.96445 0.50882 0.06651 0.0
C782 C 0.67711 0.60574 0.58642 0.0
C783 C 0.63322 0.59794 0.59738 0.0
C784 C 0.69358 0.58304 0.56762 0.0
C785 C 0.67751 0.55366 0.51565 0.0
H786 H 0.68003 0.44416 0.5135 0.0
C787 C 0.60097 0.45973 0.44151 0.0
C788 C 0.62676 0.4278 0.43428 0.0
C789 C 0.61923 0.48386 0.4591 0.0
C790 C 0.68056 0.47477 0.51386 0.0
H791 H 0.57432 0.55873 0.59901 0.0
H792 H 0.60403 0.5182 0.56668 0.0
H793 H 0.68113 0.47653 0.55251 0.0
H794 H 0.69297 0.39722 0.43849 0.0
H795 H 0.72406 0.43885 0.46995 0.0
H796 H 0.67226 0.55179 0.47709 0.0
C797 C 0.62528 0.54208 0.57242 0.0
C798 C 0.68102 0.49316 0.53611 0.0
C799 C 0.60821 0.56527 0.5908 0.0
C800 C 0.67245 0.42178 0.44368 0.0
C801 C 0.69023 0.44544 0.46168 0.0
C802 C 0.67601 0.53524 0.49342 0.0
C803 C 0.66703 0.55171 0.56006 0.0
C804 C 0.67799 0.53266 0.53714 0.0
C805 C 0.66307 0.47594 0.47001 0.0
C806 C 0.67601 0.49566 0.49244 0.0
H807 H 0.69693 0.63094 0.59106 0.0
H808 H 0.72576 0.59096 0.55821 0.0
H809 H 0.67459 0.58418 0.5161 0.0
H810 H 0.56573 0.46496 0.43446 0.0
H811 H 0.59751 0.50707 0.46544 0.0
C812 C 0.46809 0.06731 0.9444 0.0
C813 C 0.44307 0.09952 0.93698 0.0
C814 C 0.4506 0.04491 0.96309 0.0
C815 C 0.392 0.99691 0.99899 0.0
H816 H 0.39856 0.05608 0.05786 0.0
C817 C 0.39114 0.92597 0.09147 0.0
C818 C 0.43621 0.93111 0.10182 0.0
C819 C 0.37552 0.95006 0.07319 0.0
C820 C 0.39546 0.03941 0.04155 0.0
H821 H 0.37906 0.13259 0.94227 0.0
H822 H 0.34951 0.09403 0.97565 0.0
H823 H 0.39988 0.08803 0.01865 0.0
H824 H 0.49814 0.96729 0.1031 0.0
H825 H 0.47015 1.01012 0.0716 0.0
H826 H 0.38978 0.94819 0.02182 0.0
C827 C 0.38203 0.08585 0.96665 0.0
C828 C 0.39607 0.05757 0.01921 0.0
C829 C 0.39892 0.10773 0.94755 0.0
C830 C 0.46336 0.96272 0.09531 0.0
C831 C 0.44725 0.98727 0.07742 0.0
C832 C 0.39033 0.97879 0.02131 0.0
C833 C 0.40841 0.05491 0.97492 0.0
C834 C 0.39624 0.03632 0.99783 0.0
C835 C 0.40423 0.98009 0.0655 0.0
C836 C 0.39397 0.99984 0.04271 0.0
H837 H 0.50219 0.06047 0.93652 0.0
H838 H 0.47168 0.02129 0.96939 0.0
H839 H 0.39235 0.98009 0.98267 0.0
H840 H 0.36957 0.90169 0.0961 0.0
H841 H 0.34226 0.94407 0.06417 0.0
C842 C 0.17812 0.92088 0.44723 0.0
C843 C 0.13452 0.92913 0.4361 0.0
C844 C 0.19425 0.94294 0.46642 0.0
C845 C 0.17697 0.97089 0.51867 0.0
H846 H 0.18095 0.08029 0.522 0.0
C847 C 0.10058 0.06356 0.59352 0.0
C848 C 0.12672 0.09509 0.60116 0.0
C849 C 0.11872 0.03972 0.57574 0.0
C850 C 0.18105 0.04969 0.52132 0.0
H851 H 0.07579 0.96848 0.43462 0.0
H852 H 0.10495 1.00793 0.46766 0.0
H853 H 0.18245 0.04893 0.48266 0.0
H854 H 0.19345 0.12518 0.5975 0.0
H855 H 0.22433 0.08408 0.56574 0.0
H856 H 0.17093 0.9718 0.55721 0.0
C857 C 0.12622 0.98418 0.46173 0.0
C858 C 0.18174 0.03188 0.49888 0.0
C859 C 0.10948 0.96162 0.44296 0.0
C860 C 0.17262 0.10094 0.59198 0.0
C861 C 0.1903 0.07758 0.57381 0.0
C862 C 0.17524 0.98873 0.54108 0.0
C863 C 0.16766 0.97407 0.47422 0.0
C864 C 0.17824 0.99244 0.49741 0.0
C865 C 0.16281 0.04754 0.56507 0.0
C866 C 0.17578 0.02829 0.54248 0.0
H867 H 0.19794 0.89578 0.44238 0.0
H868 H 0.22618 0.93466 0.47593 0.0
H869 H 0.17368 0.94041 0.51787 0.0
H870 H 0.06518 0.05845 0.60039 0.0
H871 H 0.09674 0.01686 0.56909 0.0
loop_
_geom_bond_atom_site_label_1
_geom_bond_atom_site_label_2
_geom_bond_distance
_geom_bond_site_symmetry_2
_ccdc_geom_bond_type
Co0 O3 1.970 1_455 S
Co0 N17 1.989 . S
Co0 O25 1.967 . S
Co0 O32 1.920 . S
Co1 O4 1.966 1_455 S
Co1 N10 2.022 . S
Co1 N18 1.993 . S
Co1 O26 1.941 . S
C2 O3 1.258 . S
C2 O4 1.263 . S
O3 Co0 1.970 1_655 S
O3 C2 1.258 . S
O4 Co1 1.966 1_655 S
O4 C2 1.263 . S
C5 O6 1.235 . S
C5 O32 1.289 1_655 S
O6 C5 1.235 . S
C7 C9 1.400 1_655 S
C7 N10 1.351 1_655 S
C7 C12 1.501 . S
C8 C9 1.387 . S
C8 N11 1.341 . S
C9 C7 1.400 1_455 S
C9 C8 1.387 . S
N10 Co1 2.022 . S
N10 C7 1.351 1_455 S
N10 N11 1.365 . S
N11 C8 1.341 . S
N11 N10 1.365 . S
N11 H31 0.862 . S
C12 C7 1.501 . S
C12 H13 0.961 . S
C12 H14 0.961 . S
C12 H15 0.960 . S
H13 C12 0.961 . S
H14 C12 0.961 . S
H15 C12 0.960 . S
C16 N17 1.342 . S
C16 C20 1.401 . S
C16 C21 1.499 . S
N17 Co0 1.989 . S
N17 C16 1.342 . S
N17 N18 1.388 . S
N18 Co1 1.993 . S
N18 N17 1.388 . S
N18 C19 1.346 . S
C19 N18 1.346 . S
C19 C20 1.396 . S
C19 C29 1.510 . S
C20 C16 1.401 . S
C20 C19 1.396 . S
C21 C16 1.499 . S
C21 H22 0.959 . S
C21 H23 0.960 . S
C21 H24 0.961 . S
H22 C21 0.959 . S
H23 C21 0.960 . S
H24 C21 0.961 . S
O25 Co0 1.967 . S
O25 C33 1.258 . S
O26 Co1 1.941 . S
O26 C33 1.266 . S
H27 C29 0.959 . S
H28 C29 0.978 . S
C29 C19 1.510 . S
C29 H27 0.959 . S
C29 H28 0.978 . S
C29 H30 0.960 . S
H30 C29 0.960 . S
H31 N11 0.862 . S
O32 Co0 1.920 . S
O32 C5 1.289 1_455 S
C33 O25 1.258 . S
C33 O26 1.266 . S
Co34 O37 1.970 . S
Co34 N51 1.989 . S
Co34 O59 1.967 . S
Co34 O66 1.920 . S
Co35 O38 1.966 . S
Co35 N44 2.022 . S
Co35 N52 1.993 . S
Co35 O60 1.941 . S
C36 O37 1.258 . S
C36 O38 1.263 . S
O37 Co34 1.970 . S
O37 C36 1.258 . S
O38 Co35 1.966 . S
O38 C36 1.263 . S
C39 O40 1.235 . S
C39 O66 1.289 . S
O40 C39 1.235 . S
C41 C43 1.400 . S
C41 N44 1.351 . S
C41 C46 1.501 . S
C42 C43 1.387 . S
C42 N45 1.341 . S
C43 C41 1.400 . S
C43 C42 1.387 . S
N44 Co35 2.022 . S
N44 C41 1.351 . S
N44 N45 1.365 . S
N45 C42 1.341 . S
N45 N44 1.365 . S
N45 H65 0.862 . S
C46 C41 1.501 . S
C46 H47 0.961 . S
C46 H48 0.961 . S
C46 H49 0.960 . S
H47 C46 0.961 . S
H48 C46 0.961 . S
H49 C46 0.960 . S
C50 N51 1.342 . S
C50 C54 1.401 . S
C50 C55 1.499 . S
N51 Co34 1.989 . S
N51 C50 1.342 . S
N51 N52 1.388 . S
N52 Co35 1.993 . S
N52 N51 1.388 . S
N52 C53 1.346 . S
C53 N52 1.346 . S
C53 C54 1.396 . S
C53 C63 1.510 . S
C54 C50 1.401 . S
C54 C53 1.396 . S
C55 C50 1.499 . S
C55 H56 0.959 . S
C55 H57 0.960 . S
C55 H58 0.961 . S
H56 C55 0.959 . S
H57 C55 0.960 . S
H58 C55 0.961 . S
O59 Co34 1.967 . S
O59 C67 1.258 . S
O60 Co35 1.941 . S
O60 C67 1.266 . S
H61 C63 0.959 . S
H62 C63 0.961 . S
C63 C53 1.510 . S
C63 H61 0.959 . S
C63 H62 0.961 . S
C63 H64 0.960 . S
H64 C63 0.960 . S
H65 N45 0.862 . S
O66 Co34 1.920 . S
O66 C39 1.289 . S
C67 O59 1.258 . S
C67 O60 1.266 . S
Co68 O71 1.970 1_455 S
Co68 N85 1.989 . S
Co68 O93 1.967 . S
Co68 O100 1.920 . S
Co69 O72 1.966 1_455 S
Co69 N78 2.022 . S
Co69 N86 1.993 . S
Co69 O94 1.941 . S
C70 O71 1.258 . S
C70 O72 1.263 . S
O71 Co68 1.970 1_655 S
O71 C70 1.258 . S
O72 Co69 1.966 1_655 S
O72 C70 1.263 . S
C73 O74 1.235 . S
C73 O100 1.289 1_655 S
O74 C73 1.235 . S
C75 C77 1.400 1_655 S
C75 N78 1.351 1_655 S
C75 C80 1.501 . S
C76 C77 1.387 . S
C76 N79 1.341 . S
C77 C75 1.400 1_455 S
C77 C76 1.387 . S
N78 Co69 2.022 . S
N78 C75 1.351 1_455 S
N78 N79 1.365 . S
N79 C76 1.341 . S
N79 N78 1.365 . S
N79 H99 0.862 . S
C80 C75 1.501 . S
C80 H81 0.961 . S
C80 H82 0.961 . S
C80 H83 0.960 . S
H81 C80 0.961 . S
H82 C80 0.961 . S
H83 C80 0.960 . S
C84 N85 1.342 . S
C84 C88 1.401 . S
C84 C89 1.499 . S
N85 Co68 1.989 . S
N85 C84 1.342 . S
N85 N86 1.388 . S
N86 Co69 1.993 . S
N86 N85 1.388 . S
N86 C87 1.346 . S
C87 N86 1.346 . S
C87 C88 1.396 . S
C87 C97 1.510 . S
C88 C84 1.401 . S
C88 C87 1.396 . S
C89 C84 1.499 . S
C89 H90 0.959 . S
C89 H91 0.960 . S
C89 H92 0.961 . S
H90 C89 0.959 . S
H91 C89 0.960 . S
H92 C89 0.961 . S
O93 Co68 1.967 . S
O93 C101 1.258 . S
O94 Co69 1.941 . S
O94 C101 1.266 . S
H95 C97 0.959 . S
H96 C97 0.978 . S
C97 C87 1.510 . S
C97 H95 0.959 . S
C97 H96 0.978 . S
C97 H98 0.960 . S
H98 C97 0.960 . S
H99 N79 0.862 . S
O100 Co68 1.920 . S
O100 C73 1.289 1_455 S
C101 O93 1.258 . S
C101 O94 1.266 . S
Co102 O105 1.970 . S
Co102 N119 1.989 . S
Co102 O127 1.967 . S
Co102 O134 1.920 . S
Co103 O106 1.966 . S
Co103 N112 2.022 . S
Co103 N120 1.993 . S
Co103 O128 1.941 . S
C104 O105 1.258 . S
C104 O106 1.263 . S
O105 Co102 1.970 . S
O105 C104 1.258 . S
O106 Co103 1.966 . S
O106 C104 1.263 . S
C107 O108 1.235 . S
C107 O134 1.289 . S
O108 C107 1.235 . S
C109 C111 1.400 . S
C109 N112 1.351 . S
C109 C114 1.501 . S
C110 C111 1.387 . S
C110 N113 1.341 . S
C111 C109 1.400 . S
C111 C110 1.387 . S
N112 Co103 2.022 . S
N112 C109 1.351 . S
N112 N113 1.365 . S
N113 C110 1.341 . S
N113 N112 1.365 . S
N113 H133 0.862 . S
C114 C109 1.501 . S
C114 H115 0.961 . S
C114 H116 0.961 . S
C114 H117 0.960 . S
H115 C114 0.961 . S
H116 C114 0.961 . S
H117 C114 0.960 . S
C118 N119 1.342 . S
C118 C122 1.401 . S
C118 C123 1.499 . S
N119 Co102 1.989 . S
N119 C118 1.342 . S
N119 N120 1.388 . S
N120 Co103 1.993 . S
N120 N119 1.388 . S
N120 C121 1.346 . S
C121 N120 1.346 . S
C121 C122 1.396 . S
C121 C131 1.510 . S
C122 C118 1.401 . S
C122 C121 1.396 . S
C123 C118 1.499 . S
C123 H124 0.959 . S
C123 H125 0.960 . S
C123 H126 0.961 . S
H124 C123 0.959 . S
H125 C123 0.960 . S
H126 C123 0.961 . S
O127 Co102 1.967 . S
O127 C135 1.258 . S
O128 Co103 1.941 . S
O128 C135 1.266 . S
H129 C131 0.959 . S
H130 C131 0.961 . S
C131 C121 1.510 . S
C131 H129 0.959 . S
C131 H130 0.961 . S
C131 H132 0.960 . S
H132 C131 0.960 . S
H133 N113 0.862 . S
O134 Co102 1.920 . S
O134 C107 1.289 . S
C135 O127 1.258 . S
C135 O128 1.266 . S
Co136 O139 1.970 . S
Co136 N153 1.989 . S
Co136 O161 1.967 . S
Co136 O168 1.920 . S
Co137 O140 1.966 . S
Co137 N146 2.022 . S
Co137 N154 1.993 . S
Co137 O162 1.941 . S
C138 O139 1.258 . S
C138 O140 1.263 . S
O139 Co136 1.970 . S
O139 C138 1.258 . S
O140 Co137 1.966 . S
O140 C138 1.263 . S
C141 O142 1.235 . S
C141 O168 1.289 . S
O142 C141 1.235 . S
C143 C145 1.400 . S
C143 N146 1.351 . S
C143 C148 1.501 . S
C144 C145 1.387 . S
C144 N147 1.341 . S
C145 C143 1.400 . S
C145 C144 1.387 . S
N146 Co137 2.022 . S
N146 C143 1.351 . S
N146 N147 1.365 . S
N147 C144 1.341 . S
N147 N146 1.365 . S
N147 H167 0.862 . S
C148 C143 1.501 . S
C148 H149 0.961 . S
C148 H150 0.961 . S
C148 H151 0.960 . S
H149 C148 0.961 . S
H150 C148 0.961 . S
H151 C148 0.960 . S
C152 N153 1.342 . S
C152 C156 1.401 . S
C152 C157 1.499 . S
N153 Co136 1.989 . S
N153 C152 1.342 . S
N153 N154 1.388 . S
N154 Co137 1.993 . S
N154 N153 1.388 . S
N154 C155 1.346 . S
C155 N154 1.346 . S
C155 C156 1.396 . S
C155 C165 1.510 . S
C156 C152 1.401 . S
C156 C155 1.396 . S
C157 C152 1.499 . S
C157 H158 0.959 . S
C157 H159 0.960 . S
C157 H160 0.961 . S
H158 C157 0.959 . S
H159 C157 0.960 . S
H160 C157 0.961 . S
O161 Co136 1.967 . S
O161 C169 1.258 . S
O162 Co137 1.941 . S
O162 C169 1.266 . S
H163 C165 0.959 . S
H164 C165 0.961 . S
C165 C155 1.510 . S
C165 H163 0.959 . S
C165 H164 0.961 . S
C165 H166 0.960 . S
H166 C165 0.960 . S
H167 N147 0.862 . S
O168 Co136 1.920 . S
O168 C141 1.289 . S
C169 O161 1.258 . S
C169 O162 1.266 . S
Co170 O173 1.970 . S
Co170 N187 1.989 . S
Co170 O195 1.967 1_455 S
Co170 O202 1.920 . S
Co171 O174 1.966 . S
Co171 N180 2.022 . S
Co171 N188 1.993 . S
Co171 O196 1.941 1_455 S
C172 O173 1.258 . S
C172 O174 1.263 . S
O173 Co170 1.970 . S
O173 C172 1.258 . S
O174 Co171 1.966 . S
O174 C172 1.263 . S
C175 O176 1.235 . S
C175 O202 1.289 . S
O176 C175 1.235 . S
C177 C179 1.400 . S
C177 N180 1.351 . S
C177 C182 1.501 . S
C178 C179 1.387 . S
C178 N181 1.341 1_455 S
C179 C177 1.400 . S
C179 C178 1.387 . S
N180 Co171 2.022 . S
N180 C177 1.351 . S
N180 N181 1.365 1_455 S
N181 C178 1.341 1_655 S
N181 N180 1.365 1_655 S
N181 H201 0.862 . S
C182 C177 1.501 . S
C182 H183 0.961 . S
C182 H184 0.961 . S
C182 H185 0.960 . S
H183 C182 0.961 . S
H184 C182 0.961 . S
H185 C182 0.960 . S
C186 N187 1.342 . S
C186 C190 1.401 . S
C186 C191 1.499 . S
N187 Co170 1.989 . S
N187 C186 1.342 . S
N187 N188 1.388 . S
N188 Co171 1.993 . S
N188 N187 1.388 . S
N188 C189 1.346 . S
C189 N188 1.346 . S
C189 C190 1.396 . S
C189 C199 1.510 . S
C190 C186 1.401 . S
C190 C189 1.396 . S
C191 C186 1.499 . S
C191 H192 0.959 . S
C191 H193 0.960 . S
C191 H194 0.961 1_455 S
H192 C191 0.959 . S
H193 C191 0.960 . S
H194 C191 0.961 1_655 S
O195 Co170 1.967 1_655 S
O195 C203 1.258 . S
O196 Co171 1.941 1_655 S
O196 C203 1.266 . S
H197 C199 0.963 . S
H198 C199 0.961 . S
C199 C189 1.510 . S
C199 H197 0.963 . S
C199 H198 0.961 . S
C199 H200 0.960 . S
H200 C199 0.960 . S
H201 N181 0.862 . S
O202 Co170 1.920 . S
O202 C175 1.289 . S
C203 O195 1.258 . S
C203 O196 1.266 . S
Co204 O207 1.970 . S
Co204 N221 1.989 . S
Co204 O229 1.967 . S
Co204 O236 1.920 . S
Co205 O208 1.966 . S
Co205 N214 2.022 . S
Co205 N222 1.993 . S
Co205 O230 1.941 . S
C206 O207 1.258 . S
C206 O208 1.263 . S
O207 Co204 1.970 . S
O207 C206 1.258 . S
O208 Co205 1.966 . S
O208 C206 1.263 . S
C209 O210 1.235 . S
C209 O236 1.289 . S
O210 C209 1.235 . S
C211 C213 1.400 . S
C211 N214 1.351 . S
C211 C216 1.501 . S
C212 C213 1.387 . S
C212 N215 1.341 . S
C213 C211 1.400 . S
C213 C212 1.387 . S
N214 Co205 2.022 . S
N214 C211 1.351 . S
N214 N215 1.365 . S
N215 C212 1.341 . S
N215 N214 1.365 . S
N215 H235 0.862 . S
C216 C211 1.501 . S
C216 H217 0.961 . S
C216 H218 0.961 . S
C216 H219 0.960 . S
H217 C216 0.961 . S
H218 C216 0.961 . S
H219 C216 0.960 . S
C220 N221 1.342 . S
C220 C224 1.401 . S
C220 C225 1.499 . S
N221 Co204 1.989 . S
N221 C220 1.342 . S
N221 N222 1.388 . S
N222 Co205 1.993 . S
N222 N221 1.388 . S
N222 C223 1.346 . S
C223 N222 1.346 . S
C223 C224 1.396 . S
C223 C233 1.510 . S
C224 C220 1.401 . S
C224 C223 1.396 . S
C225 C220 1.499 . S
C225 H226 0.959 . S
C225 H227 0.960 . S
C225 H228 0.961 . S
H226 C225 0.959 . S
H227 C225 0.960 . S
H228 C225 0.961 . S
O229 Co204 1.967 . S
O229 C237 1.258 . S
O230 Co205 1.941 . S
O230 C237 1.266 . S
H231 C233 0.959 . S
H232 C233 0.961 . S
C233 C223 1.510 . S
C233 H231 0.959 . S
C233 H232 0.961 . S
C233 H234 0.960 . S
H234 C233 0.960 . S
H235 N215 0.862 . S
O236 Co204 1.920 . S
O236 C209 1.289 . S
C237 O229 1.258 . S
C237 O230 1.266 . S
Co238 O241 1.970 . S
Co238 N255 1.989 . S
Co238 O263 1.967 1_455 S
Co238 O270 1.920 . S
Co239 O242 1.966 . S
Co239 N248 2.022 . S
Co239 N256 1.993 . S
Co239 O264 1.941 1_455 S
C240 O241 1.258 . S
C240 O242 1.263 . S
O241 Co238 1.970 . S
O241 C240 1.258 . S
O242 Co239 1.966 . S
O242 C240 1.263 . S
C243 O244 1.235 . S
C243 O270 1.289 . S
O244 C243 1.235 . S
C245 C247 1.400 . S
C245 N248 1.351 . S
C245 C250 1.501 . S
C246 C247 1.387 . S
C246 N249 1.341 1_455 S
C247 C245 1.400 . S
C247 C246 1.387 . S
N248 Co239 2.022 . S
N248 C245 1.351 . S
N248 N249 1.365 1_455 S
N249 C246 1.341 1_655 S
N249 N248 1.365 1_655 S
N249 H269 0.862 . S
C250 C245 1.501 . S
C250 H251 0.961 . S
C250 H252 0.961 . S
C250 H253 0.960 . S
H251 C250 0.961 . S
H252 C250 0.961 . S
H253 C250 0.960 . S
C254 N255 1.342 . S
C254 C258 1.401 . S
C254 C259 1.499 . S
N255 Co238 1.989 . S
N255 C254 1.342 . S
N255 N256 1.388 . S
N256 Co239 1.993 . S
N256 N255 1.388 . S
N256 C257 1.346 . S
C257 N256 1.346 . S
C257 C258 1.396 . S
C257 C267 1.510 . S
C258 C254 1.401 . S
C258 C257 1.396 . S
C259 C254 1.499 . S
C259 H260 0.959 . S
C259 H261 0.960 . S
C259 H262 0.961 1_455 S
H260 C259 0.959 . S
H261 C259 0.960 . S
H262 C259 0.961 1_655 S
O263 Co238 1.967 1_655 S
O263 C271 1.258 . S
O264 Co239 1.941 1_655 S
O264 C271 1.266 . S
H265 C267 0.963 . S
H266 C267 0.961 . S
C267 C257 1.510 . S
C267 H265 0.963 . S
C267 H266 0.961 . S
C267 H268 0.960 . S
H268 C267 0.960 . S
H269 N249 0.862 . S
O270 Co238 1.920 . S
O270 C243 1.289 . S
C271 O263 1.258 . S
C271 O264 1.266 . S
C272 C273 1.349 . S
C272 C274 1.327 . S
C272 H297 0.950 . S
C273 C272 1.349 . S
C273 C289 1.349 . S
C274 C272 1.327 . S
C274 C293 1.429 . S
C274 H298 0.950 . S
C275 C292 1.574 . S
C275 C294 1.368 1_554 S
C275 H299 0.949 . S
H276 C280 0.949 . S
C277 C278 1.349 . S
C277 C279 1.327 . S
C277 H300 0.950 . S
C278 C277 1.349 . S
C278 C290 1.349 . S
C279 C277 1.327 . S
C279 C295 1.429 . S
C279 H301 0.950 . S
C280 H276 0.949 . S
C280 C288 1.574 . S
C280 C296 1.368 1_556 S
H281 C289 0.950 . S
H282 C287 0.950 . S
H283 C288 0.949 . S
H284 C290 0.950 . S
H285 C291 0.950 . S
H286 C292 0.949 . S
C287 H282 0.950 . S
C287 C289 1.327 . S
C287 C293 1.429 . S
C288 C280 1.574 . S
C288 H283 0.949 . S
C288 C294 1.368 . S
C289 C273 1.349 . S
C289 H281 0.950 . S
C289 C287 1.327 . S
C290 C278 1.349 . S
C290 H284 0.950 . S
C290 C291 1.327 . S
C291 H285 0.950 . S
C291 C290 1.327 . S
C291 C295 1.429 . S
C292 C275 1.574 . S
C292 H286 0.949 . S
C292 C296 1.368 . S
C293 C274 1.429 . S
C293 C287 1.429 . S
C293 C294 1.523 . S
C294 C275 1.368 1_556 S
C294 C288 1.368 . S
C294 C293 1.523 . S
C295 C279 1.429 . S
C295 C291 1.429 . S
C295 C296 1.523 . S
C296 C280 1.368 1_554 S
C296 C292 1.368 . S
C296 C295 1.523 . S
H297 C272 0.950 . S
H298 C274 0.950 . S
H299 C275 0.949 . S
H300 C277 0.950 . S
H301 C279 0.950 . S
C302 C303 1.349 . S
C302 C304 1.327 . S
C302 H327 0.950 . S
C303 C302 1.349 . S
C303 C319 1.349 . S
C304 C302 1.327 . S
C304 C323 1.429 . S
C304 H328 0.950 . S
C305 C322 1.574 . S
C305 C324 1.368 . S
C305 H329 0.949 . S
H306 C310 0.949 . S
C307 C308 1.349 . S
C307 C309 1.327 . S
C307 H330 0.950 . S
C308 C307 1.349 . S
C308 C320 1.349 . S
C309 C307 1.327 . S
C309 C325 1.429 . S
C309 H331 0.950 . S
C310 H306 0.949 . S
C310 C318 1.574 . S
C310 C326 1.368 . S
H311 C319 0.950 . S
H312 C317 0.950 . S
H313 C318 0.949 . S
H314 C320 0.950 . S
H315 C321 0.950 . S
H316 C322 0.949 . S
C317 H312 0.950 . S
C317 C319 1.327 . S
C317 C323 1.429 . S
C318 C310 1.574 . S
C318 H313 0.949 . S
C318 C324 1.368 . S
C319 C303 1.349 . S
C319 H311 0.950 . S
C319 C317 1.327 . S
C320 C308 1.349 . S
C320 H314 0.950 . S
C320 C321 1.327 . S
C321 H315 0.950 . S
C321 C320 1.327 . S
C321 C325 1.429 . S
C322 C305 1.574 . S
C322 H316 0.949 . S
C322 C326 1.368 . S
C323 C304 1.429 . S
C323 C317 1.429 . S
C323 C324 1.523 . S
C324 C305 1.368 . S
C324 C318 1.368 . S
C324 C323 1.523 . S
C325 C309 1.429 . S
C325 C321 1.429 . S
C325 C326 1.523 . S
C326 C310 1.368 . S
C326 C322 1.368 . S
C326 C325 1.523 . S
H327 C302 0.950 . S
H328 C304 0.950 . S
H329 C305 0.949 . S
H330 C307 0.950 . S
H331 C309 0.950 . S
C332 C333 1.349 . S
C332 C334 1.327 . S
C332 H357 0.950 . S
C333 C332 1.349 . S
C333 C349 1.349 . S
C334 C332 1.327 . S
C334 C353 1.429 . S
C334 H358 0.950 . S
C335 C352 1.574 . S
C335 C354 1.368 1_556 S
C335 H359 0.949 . S
H336 C340 0.949 . S
C337 C338 1.349 . S
C337 C339 1.327 . S
C337 H360 0.950 . S
C338 C337 1.349 . S
C338 C350 1.349 . S
C339 C337 1.327 . S
C339 C355 1.429 . S
C339 H361 0.950 . S
C340 H336 0.949 . S
C340 C348 1.574 . S
C340 C356 1.368 1_554 S
H341 C349 0.950 . S
H342 C347 0.950 . S
H343 C348 0.949 . S
H344 C350 0.950 . S
H345 C351 0.950 . S
H346 C352 0.949 . S
C347 H342 0.950 . S
C347 C349 1.327 . S
C347 C353 1.429 . S
C348 C340 1.574 . S
C348 H343 0.949 . S
C348 C354 1.368 . S
C349 C333 1.349 . S
C349 H341 0.950 . S
C349 C347 1.327 . S
C350 C338 1.349 . S
C350 H344 0.950 . S
C350 C351 1.327 . S
C351 H345 0.950 . S
C351 C350 1.327 . S
C351 C355 1.429 . S
C352 C335 1.574 . S
C352 H346 0.949 . S
C352 C356 1.368 . S
C353 C334 1.429 . S
C353 C347 1.429 . S
C353 C354 1.523 . S
C354 C335 1.368 1_554 S
C354 C348 1.368 . S
C354 C353 1.523 . S
C355 C339 1.429 . S
C355 C351 1.429 . S
C355 C356 1.523 . S
C356 C340 1.368 1_556 S
C356 C352 1.368 . S
C356 C355 1.523 . S
H357 C332 0.950 . S
H358 C334 0.950 . S
H359 C335 0.949 . S
H360 C337 0.950 . S
H361 C339 0.950 . S
C362 C363 1.349 . S
C362 C364 1.327 . S
C362 H387 0.950 . S
C363 C362 1.349 . S
C363 C379 1.349 . S
C364 C362 1.327 . S
C364 C383 1.429 . S
C364 H388 0.950 . S
C365 C382 1.574 . S
C365 C384 1.368 . S
C365 H389 0.949 . S
H366 C370 0.949 . S
C367 C368 1.349 . S
C367 C369 1.327 . S
C367 H390 0.950 . S
C368 C367 1.349 . S
C368 C380 1.349 . S
C369 C367 1.327 . S
C369 C385 1.429 . S
C369 H391 0.950 . S
C370 H366 0.949 . S
C370 C378 1.574 . S
C370 C386 1.368 . S
H371 C379 0.950 . S
H372 C377 0.950 . S
H373 C378 0.949 . S
H374 C380 0.950 . S
H375 C381 0.950 . S
H376 C382 0.949 . S
C377 H372 0.950 . S
C377 C379 1.327 . S
C377 C383 1.429 . S
C378 C370 1.574 . S
C378 H373 0.949 . S
C378 C384 1.368 . S
C379 C363 1.349 . S
C379 H371 0.950 . S
C379 C377 1.327 . S
C380 C368 1.349 . S
C380 H374 0.950 . S
C380 C381 1.327 . S
C381 H375 0.950 . S
C381 C380 1.327 . S
C381 C385 1.429 . S
C382 C365 1.574 . S
C382 H376 0.949 . S
C382 C386 1.368 . S
C383 C364 1.429 . S
C383 C377 1.429 . S
C383 C384 1.523 . S
C384 C365 1.368 . S
C384 C378 1.368 . S
C384 C383 1.523 . S
C385 C369 1.429 . S
C385 C381 1.429 . S
C385 C386 1.523 . S
C386 C370 1.368 . S
C386 C382 1.368 . S
C386 C385 1.523 . S
H387 C362 0.950 . S
H388 C364 0.950 . S
H389 C365 0.949 . S
H390 C367 0.950 . S
H391 C369 0.950 . S
C392 C393 1.349 . S
C392 C394 1.327 . S
C392 H417 0.950 . S
C393 C392 1.349 . S
C393 C409 1.349 . S
C394 C392 1.327 . S
C394 C413 1.429 . S
C394 H418 0.950 . S
C395 C412 1.574 1_554 S
C395 C414 1.368 . S
C395 H419 0.949 . S
H396 C400 0.949 . S
C397 C398 1.349 . S
C397 C399 1.327 . S
C397 H420 0.950 . S
C398 C397 1.349 . S
C398 C410 1.349 . S
C399 C397 1.327 . S
C399 C415 1.429 . S
C399 H421 0.950 . S
C400 H396 0.949 . S
C400 C408 1.574 1_556 S
C400 C416 1.368 . S
H401 C409 0.950 . S
H402 C407 0.950 . S
H403 C408 0.949 . S
H404 C410 0.950 . S
H405 C411 0.950 . S
H406 C412 0.949 . S
C407 H402 0.950 . S
C407 C409 1.327 . S
C407 C413 1.429 . S
C408 C400 1.574 1_554 S
C408 H403 0.949 . S
C408 C414 1.368 . S
C409 C393 1.349 . S
C409 H401 0.950 . S
C409 C407 1.327 . S
C410 C398 1.349 . S
C410 H404 0.950 . S
C410 C411 1.327 . S
C411 H405 0.950 . S
C411 C410 1.327 . S
C411 C415 1.429 . S
C412 C395 1.574 1_556 S
C412 H406 0.949 . S
C412 C416 1.368 . S
C413 C394 1.429 . S
C413 C407 1.429 . S
C413 C414 1.523 . S
C414 C395 1.368 . S
C414 C408 1.368 . S
C414 C413 1.523 . S
C415 C399 1.429 . S
C415 C411 1.429 . S
C415 C416 1.523 . S
C416 C400 1.368 . S
C416 C412 1.368 . S
C416 C415 1.523 . S
H417 C392 0.950 . S
H418 C394 0.950 . S
H419 C395 0.949 . S
H420 C397 0.950 . S
H421 C399 0.950 . S
C422 C423 1.349 . S
C422 C424 1.327 . S
C422 H447 0.950 . S
C423 C422 1.349 . S
C423 C439 1.349 . S
C424 C422 1.327 . S
C424 C443 1.429 . S
C424 H448 0.950 . S
C425 C442 1.574 . S
C425 C444 1.368 . S
C425 H449 0.949 . S
H426 C430 0.949 . S
C427 C428 1.349 . S
C427 C429 1.327 . S
C427 H450 0.950 . S
C428 C427 1.349 . S
C428 C440 1.349 . S
C429 C427 1.327 . S
C429 C445 1.429 . S
C429 H451 0.950 . S
C430 H426 0.949 . S
C430 C438 1.574 . S
C430 C446 1.368 . S
H431 C439 0.950 . S
H432 C437 0.950 . S
H433 C438 0.949 . S
H434 C440 0.950 . S
H435 C441 0.950 . S
H436 C442 0.949 . S
C437 H432 0.950 . S
C437 C439 1.327 . S
C437 C443 1.429 . S
C438 C430 1.574 . S
C438 H433 0.949 . S
C438 C444 1.368 . S
C439 C423 1.349 . S
C439 H431 0.950 . S
C439 C437 1.327 . S
C440 C428 1.349 . S
C440 H434 0.950 . S
C440 C441 1.327 . S
C441 H435 0.950 . S
C441 C440 1.327 . S
C441 C445 1.429 . S
C442 C425 1.574 . S
C442 H436 0.949 . S
C442 C446 1.368 . S
C443 C424 1.429 . S
C443 C437 1.429 . S
C443 C444 1.523 . S
C444 C425 1.368 . S
C444 C438 1.368 . S
C444 C443 1.523 . S
C445 C429 1.429 . S
C445 C441 1.429 . S
C445 C446 1.523 . S
C446 C430 1.368 . S
C446 C442 1.368 . S
C446 C445 1.523 . S
H447 C422 0.950 . S
H448 C424 0.950 . S
H449 C425 0.949 . S
H450 C427 0.950 . S
H451 C429 0.950 . S
C452 C453 1.349 . S
C452 C454 1.327 . S
C452 H477 0.950 . S
C453 C452 1.349 . S
C453 C469 1.349 . S
C454 C452 1.327 . S
C454 C473 1.429 . S
C454 H478 0.950 . S
C455 C472 1.565 1_554 S
C455 C474 1.377 . S
C455 H479 0.949 . S
H456 C460 0.949 . S
C457 C458 1.349 . S
C457 C459 1.327 . S
C457 H480 0.950 . S
C458 C457 1.349 . S
C458 C470 1.349 . S
C459 C457 1.327 . S
C459 C475 1.429 . S
C459 H481 0.950 . S
C460 H456 0.949 . S
C460 C468 1.574 . S
C460 C476 1.368 1_554 S
H461 C469 0.950 . S
H462 C467 0.950 . S
H463 C468 0.949 . S
H464 C470 0.950 . S
H465 C471 0.950 . S
H466 C472 0.949 . S
C467 H462 0.950 . S
C467 C469 1.327 . S
C467 C473 1.429 . S
C468 C460 1.574 . S
C468 H463 0.949 . S
C468 C474 1.368 . S
C469 C453 1.349 . S
C469 H461 0.950 . S
C469 C467 1.327 . S
C470 C458 1.349 . S
C470 H464 0.950 . S
C470 C471 1.327 . S
C471 H465 0.950 . S
C471 C470 1.327 . S
C471 C475 1.429 . S
C472 C455 1.565 1_556 S
C472 H466 0.949 . S
C472 C476 1.368 . S
C473 C454 1.429 . S
C473 C467 1.429 . S
C473 C474 1.523 . S
C474 C455 1.377 . S
C474 C468 1.368 . S
C474 C473 1.523 . S
C475 C459 1.429 . S
C475 C471 1.429 . S
C475 C476 1.523 . S
C476 C460 1.368 1_556 S
C476 C472 1.368 . S
C476 C475 1.523 . S
H477 C452 0.950 . S
H478 C454 0.950 . S
H479 C455 0.949 . S
H480 C457 0.950 . S
H481 C459 0.950 . S
C482 C483 1.349 . S
C482 C484 1.327 . S
C482 H507 0.950 . S
C483 C482 1.349 . S
C483 C499 1.349 . S
C484 C482 1.327 . S
C484 C503 1.429 . S
C484 H508 0.950 . S
C485 C502 1.574 . S
C485 C504 1.368 . S
C485 H509 0.949 . S
H486 C490 0.949 . S
C487 C488 1.349 . S
C487 C489 1.327 . S
C487 H510 0.950 . S
C488 C487 1.349 . S
C488 C500 1.349 . S
C489 C487 1.327 . S
C489 C505 1.429 . S
C489 H511 0.950 . S
C490 H486 0.949 . S
C490 C498 1.574 . S
C490 C506 1.368 . S
H491 C499 0.950 . S
H492 C497 0.950 . S
H493 C498 0.949 . S
H494 C500 0.950 . S
H495 C501 0.950 . S
H496 C502 0.949 . S
C497 H492 0.950 . S
C497 C499 1.327 . S
C497 C503 1.429 . S
C498 C490 1.574 . S
C498 H493 0.949 . S
C498 C504 1.368 . S
C499 C483 1.349 . S
C499 H491 0.950 . S
C499 C497 1.327 . S
C500 C488 1.349 . S
C500 H494 0.950 . S
C500 C501 1.327 . S
C501 H495 0.950 . S
C501 C500 1.327 . S
C501 C505 1.429 . S
C502 C485 1.574 . S
C502 H496 0.949 . S
C502 C506 1.368 . S
C503 C484 1.429 . S
C503 C497 1.429 . S
C503 C504 1.523 . S
C504 C485 1.368 . S
C504 C498 1.368 . S
C504 C503 1.523 . S
C505 C489 1.429 . S
C505 C501 1.429 . S
C505 C506 1.523 . S
C506 C490 1.368 . S
C506 C502 1.368 . S
C506 C505 1.523 . S
H507 C482 0.950 . S
H508 C484 0.950 . S
H509 C485 0.949 . S
H510 C487 0.950 . S
H511 C489 0.950 . S
C512 C513 1.349 . S
C512 C514 1.327 . S
C512 H537 0.950 1_455 S
C513 C512 1.349 . S
C513 C529 1.349 . S
C514 C512 1.327 . S
C514 C533 1.429 . S
C514 H538 0.950 1_455 S
C515 C532 1.574 . S
C515 C534 1.368 . S
C515 H539 0.949 . S
H516 C520 0.949 . S
C517 C518 1.349 . S
C517 C519 1.327 . S
C517 H540 0.950 . S
C518 C517 1.349 . S
C518 C530 1.349 . S
C519 C517 1.327 . S
C519 C535 1.429 . S
C519 H541 0.950 . S
C520 H516 0.949 . S
C520 C528 1.574 . S
C520 C536 1.368 . S
H521 C529 0.950 . S
H522 C527 0.950 . S
H523 C528 0.949 1_655 S
H524 C530 0.950 . S
H525 C531 0.950 . S
H526 C532 0.949 . S
C527 H522 0.950 . S
C527 C529 1.327 . S
C527 C533 1.429 . S
C528 C520 1.574 . S
C528 H523 0.949 1_455 S
C528 C534 1.368 . S
C529 C513 1.349 . S
C529 H521 0.950 . S
C529 C527 1.327 . S
C530 C518 1.349 . S
C530 H524 0.950 . S
C530 C531 1.327 . S
C531 H525 0.950 . S
C531 C530 1.327 . S
C531 C535 1.429 . S
C532 C515 1.574 . S
C532 H526 0.949 . S
C532 C536 1.368 . S
C533 C514 1.429 . S
C533 C527 1.429 . S
C533 C534 1.523 . S
C534 C515 1.368 . S
C534 C528 1.368 . S
C534 C533 1.523 . S
C535 C519 1.429 . S
C535 C531 1.429 . S
C535 C536 1.523 . S
C536 C520 1.368 . S
C536 C532 1.368 . S
C536 C535 1.523 . S
H537 C512 0.950 1_655 S
H538 C514 0.950 1_655 S
H539 C515 0.949 . S
H540 C517 0.950 . S
H541 C519 0.950 . S
C542 C543 1.349 . S
C542 C544 1.327 . S
C542 H567 0.950 . S
C543 C542 1.349 . S
C543 C559 1.349 . S
C544 C542 1.327 . S
C544 C563 1.429 . S
C544 H568 0.950 . S
C545 C562 1.574 . S
C545 C564 1.368 . S
C545 H569 0.949 . S
H546 C550 0.949 . S
C547 C548 1.349 . S
C547 C549 1.327 . S
C547 H570 0.950 . S
C548 C547 1.349 . S
C548 C560 1.349 . S
C549 C547 1.327 . S
C549 C565 1.429 . S
C549 H571 0.950 . S
C550 H546 0.949 . S
C550 C558 1.574 . S
C550 C566 1.368 . S
H551 C559 0.950 . S
H552 C557 0.950 . S
H553 C558 0.949 . S
H554 C560 0.950 . S
H555 C561 0.950 . S
H556 C562 0.949 . S
C557 H552 0.950 . S
C557 C559 1.327 . S
C557 C563 1.429 . S
C558 C550 1.574 . S
C558 H553 0.949 . S
C558 C564 1.368 . S
C559 C543 1.349 . S
C559 H551 0.950 . S
C559 C557 1.327 . S
C560 C548 1.349 . S
C560 H554 0.950 . S
C560 C561 1.327 . S
C561 H555 0.950 . S
C561 C560 1.327 . S
C561 C565 1.429 . S
C562 C545 1.574 . S
C562 H556 0.949 . S
C562 C566 1.368 . S
C563 C544 1.429 . S
C563 C557 1.429 . S
C563 C564 1.523 . S
C564 C545 1.368 . S
C564 C558 1.368 . S
C564 C563 1.523 . S
C565 C549 1.429 . S
C565 C561 1.429 . S
C565 C566 1.523 . S
C566 C550 1.368 . S
C566 C562 1.368 . S
C566 C565 1.523 . S
H567 C542 0.950 . S
H568 C544 0.950 . S
H569 C545 0.949 . S
H570 C547 0.950 . S
H571 C549 0.950 . S
C572 C573 1.349 . S
C572 C574 1.327 . S
C572 H597 0.950 . S
C573 C572 1.349 . S
C573 C589 1.349 . S
C574 C572 1.327 . S
C574 C593 1.429 . S
C574 H598 0.950 . S
C575 C592 1.574 . S
C575 C594 1.368 . S
C575 H599 0.949 . S
H576 C580 0.949 . S
C577 C578 1.349 . S
C577 C579 1.327 . S
C577 H600 0.950 . S
C578 C577 1.349 . S
C578 C590 1.349 . S
C579 C577 1.327 . S
C579 C595 1.429 . S
C579 H601 0.950 . S
C580 H576 0.949 . S
C580 C588 1.574 . S
C580 C596 1.368 . S
H581 C589 0.950 . S
H582 C587 0.950 . S
H583 C588 0.949 . S
H584 C590 0.950 . S
H585 C591 0.950 . S
H586 C592 0.949 . S
C587 H582 0.950 . S
C587 C589 1.327 . S
C587 C593 1.429 . S
C588 C580 1.574 . S
C588 H583 0.949 . S
C588 C594 1.368 . S
C589 C573 1.349 . S
C589 H581 0.950 . S
C589 C587 1.327 . S
C590 C578 1.349 . S
C590 H584 0.950 . S
C590 C591 1.327 . S
C591 H585 0.950 . S
C591 C590 1.327 . S
C591 C595 1.429 . S
C592 C575 1.574 . S
C592 H586 0.949 . S
C592 C596 1.368 . S
C593 C574 1.429 . S
C593 C587 1.429 . S
C593 C594 1.523 . S
C594 C575 1.368 . S
C594 C588 1.368 . S
C594 C593 1.523 . S
C595 C579 1.429 . S
C595 C591 1.429 . S
C595 C596 1.523 . S
C596 C580 1.368 . S
C596 C592 1.368 . S
C596 C595 1.523 . S
H597 C572 0.950 . S
H598 C574 0.950 . S
H599 C575 0.949 . S
H600 C577 0.950 . S
H601 C579 0.950 . S
C602 C603 1.349 . S
C602 C604 1.327 . S
C602 H627 0.950 . S
C603 C602 1.349 . S
C603 C619 1.349 . S
C604 C602 1.327 . S
C604 C623 1.429 . S
C604 H628 0.950 . S
C605 C622 1.574 . S
C605 C624 1.368 . S
C605 H629 0.949 . S
H606 C610 0.949 . S
C607 C608 1.349 . S
C607 C609 1.327 . S
C607 H630 0.950 . S
C608 C607 1.349 . S
C608 C620 1.349 . S
C609 C607 1.327 . S
C609 C625 1.429 . S
C609 H631 0.950 . S
C610 H606 0.949 . S
C610 C618 1.574 . S
C610 C626 1.368 . S
H611 C619 0.950 . S
H612 C617 0.950 . S
H613 C618 0.949 . S
H614 C620 0.950 . S
H615 C621 0.950 . S
H616 C622 0.949 . S
C617 H612 0.950 . S
C617 C619 1.327 . S
C617 C623 1.429 . S
C618 C610 1.574 . S
C618 H613 0.949 . S
C618 C624 1.368 . S
C619 C603 1.349 . S
C619 H611 0.950 . S
C619 C617 1.327 . S
C620 C608 1.349 . S
C620 H614 0.950 . S
C620 C621 1.327 . S
C621 H615 0.950 . S
C621 C620 1.327 . S
C621 C625 1.429 . S
C622 C605 1.574 . S
C622 H616 0.949 . S
C622 C626 1.368 . S
C623 C604 1.429 . S
C623 C617 1.429 . S
C623 C624 1.523 . S
C624 C605 1.368 . S
C624 C618 1.368 . S
C624 C623 1.523 . S
C625 C609 1.429 . S
C625 C621 1.429 . S
C625 C626 1.523 . S
C626 C610 1.368 . S
C626 C622 1.368 . S
C626 C625 1.523 . S
H627 C602 0.950 . S
H628 C604 0.950 . S
H629 C605 0.949 . S
H630 C607 0.950 . S
H631 C609 0.950 . S
C632 C633 1.349 . S
C632 C634 1.327 . S
C632 H657 0.950 . S
C633 C632 1.349 . S
C633 C649 1.349 . S
C634 C632 1.327 . S
C634 C653 1.429 . S
C634 H658 0.950 . S
C635 C652 1.574 . S
C635 C654 1.368 . S
C635 H659 0.949 . S
H636 C640 0.949 . S
C637 C638 1.349 . S
C637 C639 1.327 . S
C637 H660 0.950 . S
C638 C637 1.349 . S
C638 C650 1.349 . S
C639 C637 1.327 . S
C639 C655 1.429 . S
C639 H661 0.950 . S
C640 H636 0.949 . S
C640 C648 1.574 1_545 S
C640 C656 1.368 . S
H641 C649 0.950 . S
H642 C647 0.950 . S
H643 C648 0.949 . S
H644 C650 0.950 . S
H645 C651 0.950 . S
H646 C652 0.949 . S
C647 H642 0.950 . S
C647 C649 1.327 . S
C647 C653 1.429 . S
C648 C640 1.574 1_565 S
C648 H643 0.949 . S
C648 C654 1.368 1_565 S
C649 C633 1.349 . S
C649 H641 0.950 . S
C649 C647 1.327 . S
C650 C638 1.349 . S
C650 H644 0.950 . S
C650 C651 1.327 . S
C651 H645 0.950 . S
C651 C650 1.327 . S
C651 C655 1.429 . S
C652 C635 1.574 . S
C652 H646 0.949 . S
C652 C656 1.368 . S
C653 C634 1.429 . S
C653 C647 1.429 . S
C653 C654 1.523 1_565 S
C654 C635 1.368 . S
C654 C648 1.368 1_545 S
C654 C653 1.523 1_545 S
C655 C639 1.429 . S
C655 C651 1.429 . S
C655 C656 1.523 . S
C656 C640 1.368 . S
C656 C652 1.368 . S
C656 C655 1.523 . S
H657 C632 0.950 . S
H658 C634 0.950 . S
H659 C635 0.949 . S
H660 C637 0.950 . S
H661 C639 0.950 . S
C662 C663 1.349 . S
C662 C664 1.327 . S
C662 H687 0.950 . S
C663 C662 1.349 . S
C663 C679 1.349 1_655 S
C664 C662 1.327 . S
C664 C683 1.429 . S
C664 H688 0.950 . S
C665 C682 1.574 . S
C665 C684 1.369 1_455 S
C665 H689 0.949 . S
H666 C670 0.949 . S
C667 C668 1.349 . S
C667 C669 1.327 . S
C667 H690 0.950 . S
C668 C667 1.349 . S
C668 C680 1.349 1_455 S
C669 C667 1.327 . S
C669 C685 1.429 . S
C669 H691 0.950 . S
C670 H666 0.949 . S
C670 C678 1.574 . S
C670 C686 1.368 1_655 S
H671 C679 0.950 . S
H672 C677 0.950 . S
H673 C678 0.949 . S
H674 C680 0.950 . S
H675 C681 0.950 . S
H676 C682 0.949 1_545 S
C677 H672 0.950 . S
C677 C679 1.327 . S
C677 C683 1.429 1_455 S
C678 C670 1.574 . S
C678 H673 0.949 . S
C678 C684 1.368 . S
C679 C663 1.349 1_455 S
C679 H671 0.950 . S
C679 C677 1.327 . S
C680 C668 1.349 1_655 S
C680 H674 0.950 . S
C680 C681 1.327 . S
C681 H675 0.950 . S
C681 C680 1.327 . S
C681 C685 1.429 1_655 S
C682 C665 1.574 . S
C682 H676 0.949 1_565 S
C682 C686 1.368 . S
C683 C664 1.429 . S
C683 C677 1.429 1_655 S
C683 C684 1.523 . S
C684 C665 1.369 1_655 S
C684 C678 1.368 . S
C684 C683 1.523 . S
C685 C669 1.429 . S
C685 C681 1.429 1_455 S
C685 C686 1.523 1_545 S
C686 C670 1.368 1_455 S
C686 C682 1.368 . S
C686 C685 1.523 1_565 S
H687 C662 0.950 . S
H688 C664 0.950 . S
H689 C665 0.949 . S
H690 C667 0.950 . S
H691 C669 0.950 . S
C692 C693 1.349 . S
C692 C694 1.327 . S
C692 H717 0.950 . S
C693 C692 1.349 . S
C693 C709 1.349 . S
C694 C692 1.327 . S
C694 C713 1.429 . S
C694 H718 0.950 . S
C695 C712 1.574 1_565 S
C695 C714 1.368 . S
C695 H719 0.949 . S
H696 C700 0.949 . S
C697 C698 1.349 . S
C697 C699 1.327 . S
C697 H720 0.950 . S
C698 C697 1.349 . S
C698 C710 1.349 . S
C699 C697 1.327 . S
C699 C715 1.429 . S
C699 H721 0.950 . S
C700 H696 0.949 . S
C700 C708 1.574 . S
C700 C716 1.368 . S
H701 C709 0.950 . S
H702 C707 0.950 . S
H703 C708 0.949 . S
H704 C710 0.950 . S
H705 C711 0.950 . S
H706 C712 0.949 . S
C707 H702 0.950 . S
C707 C709 1.327 . S
C707 C713 1.429 . S
C708 C700 1.574 . S
C708 H703 0.949 . S
C708 C714 1.368 . S
C709 C693 1.349 . S
C709 H701 0.950 . S
C709 C707 1.327 . S
C710 C698 1.349 . S
C710 H704 0.950 . S
C710 C711 1.327 . S
C711 H705 0.950 . S
C711 C710 1.327 . S
C711 C715 1.429 . S
C712 C695 1.574 1_545 S
C712 H706 0.949 . S
C712 C716 1.368 1_545 S
C713 C694 1.429 . S
C713 C707 1.429 . S
C713 C714 1.523 . S
C714 C695 1.368 . S
C714 C708 1.368 . S
C714 C713 1.523 . S
C715 C699 1.429 . S
C715 C711 1.429 . S
C715 C716 1.523 1_545 S
C716 C700 1.368 . S
C716 C712 1.368 1_565 S
C716 C715 1.523 1_565 S
H717 C692 0.950 . S
H718 C694 0.950 . S
H719 C695 0.949 . S
H720 C697 0.950 . S
H721 C699 0.950 . S
C722 C723 1.349 1_455 S
C722 C724 1.327 . S
C722 H747 0.950 . S
C723 C722 1.349 1_655 S
C723 C739 1.349 . S
C724 C722 1.327 . S
C724 C743 1.429 1_455 S
C724 H748 0.950 . S
C725 C742 1.574 . S
C725 C744 1.368 . S
C725 H749 0.949 . S
H726 C730 0.949 1_565 S
C727 C728 1.349 1_655 S
C727 C729 1.327 . S
C727 H750 0.950 . S
C728 C727 1.349 1_455 S
C728 C740 1.349 . S
C729 C727 1.327 . S
C729 C745 1.429 1_655 S
C729 H751 0.950 . S
C730 H726 0.949 1_545 S
C730 C738 1.574 . S
C730 C746 1.368 . S
H731 C739 0.950 . S
H732 C737 0.950 . S
H733 C738 0.949 . S
H734 C740 0.950 . S
H735 C741 0.950 . S
H736 C742 0.949 . S
C737 H732 0.950 . S
C737 C739 1.327 . S
C737 C743 1.429 . S
C738 C730 1.574 . S
C738 H733 0.949 . S
C738 C744 1.369 1_455 S
C739 C723 1.349 . S
C739 H731 0.950 . S
C739 C737 1.327 . S
C740 C728 1.349 . S
C740 H734 0.950 . S
C740 C741 1.327 . S
C741 H735 0.950 . S
C741 C740 1.327 . S
C741 C745 1.429 . S
C742 C725 1.574 . S
C742 H736 0.949 . S
C742 C746 1.368 1_655 S
C743 C724 1.429 1_655 S
C743 C737 1.429 . S
C743 C744 1.523 . S
C744 C725 1.368 . S
C744 C738 1.369 1_655 S
C744 C743 1.523 . S
C745 C729 1.429 1_455 S
C745 C741 1.429 . S
C745 C746 1.523 1_565 S
C746 C730 1.368 . S
C746 C742 1.368 1_455 S
C746 C745 1.523 1_545 S
H747 C722 0.950 . S
H748 C724 0.950 . S
H749 C725 0.949 . S
H750 C727 0.950 . S
H751 C729 0.950 . S
C752 C753 1.349 . S
C752 C754 1.327 . S
C752 H777 0.950 . S
C753 C752 1.349 . S
C753 C769 1.349 . S
C754 C752 1.327 . S
C754 C773 1.429 . S
C754 H778 0.950 . S
C755 C772 1.574 . S
C755 C774 1.368 1_554 S
C755 H779 0.949 . S
H756 C760 0.949 . S
C757 C758 1.349 . S
C757 C759 1.327 . S
C757 H780 0.950 . S
C758 C757 1.349 . S
C758 C770 1.349 . S
C759 C757 1.327 . S
C759 C775 1.429 . S
C759 H781 0.950 . S
C760 H756 0.949 . S
C760 C768 1.574 . S
C760 C776 1.368 1_556 S
H761 C769 0.950 . S
H762 C767 0.950 . S
H763 C768 0.949 . S
H764 C770 0.950 . S
H765 C771 0.950 . S
H766 C772 0.949 . S
C767 H762 0.950 . S
C767 C769 1.327 . S
C767 C773 1.429 . S
C768 C760 1.574 . S
C768 H763 0.949 . S
C768 C774 1.368 . S
C769 C753 1.349 . S
C769 H761 0.950 . S
C769 C767 1.327 . S
C770 C758 1.349 . S
C770 H764 0.950 . S
C770 C771 1.327 . S
C771 H765 0.950 . S
C771 C770 1.327 . S
C771 C775 1.429 . S
C772 C755 1.574 . S
C772 H766 0.949 . S
C772 C776 1.368 . S
C773 C754 1.429 . S
C773 C767 1.429 . S
C773 C774 1.523 . S
C774 C755 1.368 1_556 S
C774 C768 1.368 . S
C774 C773 1.523 . S
C775 C759 1.429 . S
C775 C771 1.429 . S
C775 C776 1.523 . S
C776 C760 1.368 1_554 S
C776 C772 1.368 . S
C776 C775 1.523 . S
H777 C752 0.950 . S
H778 C754 0.950 . S
H779 C755 0.949 . S
H780 C757 0.950 . S
H781 C759 0.950 . S
C782 C783 1.349 . S
C782 C784 1.327 . S
C782 H807 0.950 . S
C783 C782 1.349 . S
C783 C799 1.349 . S
C784 C782 1.327 . S
C784 C803 1.429 . S
C784 H808 0.950 . S
C785 C802 1.574 . S
C785 C804 1.368 . S
C785 H809 0.949 . S
H786 C790 0.949 . S
C787 C788 1.349 . S
C787 C789 1.327 . S
C787 H810 0.950 . S
C788 C787 1.349 . S
C788 C800 1.349 . S
C789 C787 1.327 . S
C789 C805 1.429 . S
C789 H811 0.950 . S
C790 H786 0.949 . S
C790 C798 1.574 . S
C790 C806 1.368 . S
H791 C799 0.950 . S
H792 C797 0.950 . S
H793 C798 0.949 . S
H794 C800 0.950 . S
H795 C801 0.950 . S
H796 C802 0.949 . S
C797 H792 0.950 . S
C797 C799 1.327 . S
C797 C803 1.429 . S
C798 C790 1.574 . S
C798 H793 0.949 . S
C798 C804 1.368 . S
C799 C783 1.349 . S
C799 H791 0.950 . S
C799 C797 1.327 . S
C800 C788 1.349 . S
C800 H794 0.950 . S
C800 C801 1.327 . S
C801 H795 0.950 . S
C801 C800 1.327 . S
C801 C805 1.429 . S
C802 C785 1.574 . S
C802 H796 0.949 . S
C802 C806 1.368 . S
C803 C784 1.429 . S
C803 C797 1.429 . S
C803 C804 1.523 . S
C804 C785 1.368 . S
C804 C798 1.368 . S
C804 C803 1.523 . S
C805 C789 1.429 . S
C805 C801 1.429 . S
C805 C806 1.523 . S
C806 C790 1.368 . S
C806 C802 1.368 . S
C806 C805 1.523 . S
H807 C782 0.950 . S
H808 C784 0.950 . S
H809 C785 0.949 . S
H810 C787 0.950 . S
H811 C789 0.950 . S
C812 C813 1.349 . S
C812 C814 1.327 . S
C812 H837 0.950 . S
C813 C812 1.349 . S
C813 C829 1.349 . S
C814 C812 1.327 . S
C814 C833 1.429 . S
C814 H838 0.950 . S
C815 C832 1.560 1_556 S
C815 C834 1.381 . S
C815 H839 0.950 . S
H816 C820 0.950 . S
C817 C818 1.349 . S
C817 C819 1.327 . S
C817 H840 0.950 . S
C818 C817 1.349 . S
C818 C830 1.349 . S
C819 C817 1.327 . S
C819 C835 1.429 . S
C819 H841 0.950 . S
C820 H816 0.950 . S
C820 C828 1.560 1_554 S
C820 C836 1.381 . S
H821 C829 0.950 . S
H822 C827 0.950 . S
H823 C828 0.949 . S
H824 C830 0.950 . S
H825 C831 0.950 . S
H826 C832 0.949 . S
C827 H822 0.950 . S
C827 C829 1.327 . S
C827 C833 1.429 . S
C828 C820 1.560 1_556 S
C828 H823 0.949 . S
C828 C834 1.368 1_565 S
C829 C813 1.349 . S
C829 H821 0.950 . S
C829 C827 1.327 . S
C830 C818 1.349 . S
C830 H824 0.950 . S
C830 C831 1.327 . S
C831 H825 0.950 . S
C831 C830 1.327 . S
C831 C835 1.429 . S
C832 C815 1.560 1_554 S
C832 H826 0.949 . S
C832 C836 1.368 1_545 S
C833 C814 1.429 . S
C833 C827 1.429 . S
C833 C834 1.523 . S
C834 C815 1.381 . S
C834 C828 1.368 1_545 S
C834 C833 1.523 . S
C835 C819 1.429 . S
C835 C831 1.429 . S
C835 C836 1.523 . S
C836 C820 1.381 . S
C836 C832 1.368 1_565 S
C836 C835 1.523 . S
H837 C812 0.950 . S
H838 C814 0.950 . S
H839 C815 0.950 . S
H840 C817 0.950 . S
H841 C819 0.950 . S
C842 C843 1.349 . S
C842 C844 1.327 . S
C842 H867 0.950 . S
C843 C842 1.349 . S
C843 C859 1.349 . S
C844 C842 1.327 . S
C844 C863 1.429 . S
C844 H868 0.950 . S
C845 C862 1.574 . S
C845 C864 1.368 1_545 S
C845 H869 0.949 . S
H846 C850 0.949 . S
C847 C848 1.349 . S
C847 C849 1.327 . S
C847 H870 0.950 . S
C848 C847 1.349 . S
C848 C860 1.349 . S
C849 C847 1.327 . S
C849 C865 1.429 . S
C849 H871 0.950 . S
C850 H846 0.949 . S
C850 C858 1.574 . S
C850 C866 1.368 1_565 S
H851 C859 0.950 . S
H852 C857 0.950 . S
H853 C858 0.949 . S
H854 C860 0.950 . S
H855 C861 0.950 . S
H856 C862 0.949 . S
C857 H852 0.950 . S
C857 C859 1.327 . S
C857 C863 1.429 . S
C858 C850 1.574 . S
C858 H853 0.949 . S
C858 C864 1.368 . S
C859 C843 1.349 . S
C859 H851 0.950 . S
C859 C857 1.327 . S
C860 C848 1.349 . S
C860 H854 0.950 . S
C860 C861 1.327 . S
C861 H855 0.950 . S
C861 C860 1.327 . S
C861 C865 1.429 . S
C862 C845 1.574 . S
C862 H856 0.949 . S
C862 C866 1.368 . S
C863 C844 1.429 . S
C863 C857 1.429 . S
C863 C864 1.523 . S
C864 C845 1.368 1_565 S
C864 C858 1.368 . S
C864 C863 1.523 . S
C865 C849 1.429 . S
C865 C861 1.429 . S
C865 C866 1.523 . S
C866 C850 1.368 1_545 S
C866 C862 1.368 . S
C866 C865 1.523 . S
H867 C842 0.950 . S
H868 C844 0.950 . S
H869 C845 0.949 . S
H870 C847 0.950 . S
H871 C849 0.950 . S
C273 C206 1.542 . S
C278 C33 1.571 . S
C303 C67 1.571 . S
C308 C240 1.542 . S
C333 C138 1.542 . S
C338 C101 1.571 . S
C363 C135 1.571 . S
C368 C172 1.542 . S
C393 C169 1.571 . S
C398 C70 1.542 . S
C423 C203 1.571 . S
C428 C104 1.542 . S
C453 C2 1.542 . S
C458 C237 1.571 . S
C483 C36 1.542 . S
C488 C271 1.571 . S
C513 C20 2.079 . S
C518 C247 1.976 . S
C543 C54 2.079 . S
C548 C213 1.976 . S
C573 C179 1.976 . S
C578 C88 2.079 . S
C603 C122 2.079 . S
C608 C145 1.976 . S
C633 C156 2.079 . S
C638 C111 1.976 . S
C663 C77 1.976 1_655 S
C668 C190 2.079 . S
C693 C43 1.976 . S
C698 C224 2.079 . S
C723 C9 1.976 1_655 S
C728 C258 2.079 . S
C753 C73 0.430 . S
C758 C5 0.430 . S
C783 C39 0.430 . S
C788 C107 0.430 . S
C813 C209 0.430 . S
C818 C141 0.430 . S
C843 C243 0.430 . S
C848 C175 0.430 . S
