# Generated by pormake.
# Topology usf, (4)-cn, num edge types: 1
# Building blocks:
#     Node 0, Type 0, BuildingBlock: ESEHIV_clean_sbu_0, # of connection points: 4
#     Node 1, Type 0, BuildingBlock: ESEHIV_clean_sbu_0, # of connection points: 4
#     Node 2, Type 0, BuildingBlock: ESEHIV_clean_sbu_0, # of connection points: 4
#     Node 3, Type 0, BuildingBlock: ESEHIV_clean_sbu_0, # of connection points: 4
#     Node 4, Type 0, BuildingBlock: ESEHIV_clean_sbu_0, # of connection points: 4
#     Node 5, Type 0, BuildingBlock: ESEHIV_clean_sbu_0, # of connection points: 4
#     Node 6, Type 0, BuildingBlock: ESEHIV_clean_sbu_0, # of connection points: 4
#     Node 7, Type 0, BuildingBlock: ESEHIV_clean_sbu_0, # of connection points: 4
#     Node 8, Type 0, BuildingBlock: ESEHIV_clean_sbu_0, # of connection points: 4
#     Node 9, Type 0, BuildingBlock: ESEHIV_clean_sbu_0, # of connection points: 4
#     Node 10, Type 0, BuildingBlock: ESEHIV_clean_sbu_0, # of connection points: 4
#     Node 11, Type 0, BuildingBlock: ESEHIV_clean_sbu_0, # of connection points: 4
#     Node 12, Type 0, BuildingBlock: ESEHIV_clean_sbu_0, # of connection points: 4
#     Node 13, Type 0, BuildingBlock: ESEHIV_clean_sbu_0, # of connection points: 4
#     Node 14, Type 0, BuildingBlock: ESEHIV_clean_sbu_0, # of connection points: 4
#     Node 15, Type 0, BuildingBlock: ESEHIV_clean_sbu_0, # of connection points: 4
#     Node 16, Type 0, BuildingBlock: ESEHIV_clean_sbu_0, # of connection points: 4
#     Node 17, Type 0, BuildingBlock: ESEHIV_clean_sbu_0, # of connection points: 4
#     Edge 18, Type (0, 0), BuildingBlock: XIVTED_clean_linker_0, # of connection points: 2
#     Edge 19, Type (0, 0), BuildingBlock: XIVTED_clean_linker_0, # of connection points: 2
#     Edge 20, Type (0, 0), BuildingBlock: XIVTED_clean_linker_0, # of connection points: 2
#     Edge 21, Type (0, 0), BuildingBlock: XIVTED_clean_linker_0, # of connection points: 2
#     Edge 22, Type (0, 0), BuildingBlock: XIVTED_clean_linker_0, # of connection points: 2
#     Edge 23, Type (0, 0), BuildingBlock: XIVTED_clean_linker_0, # of connection points: 2
#     Edge 24, Type (0, 0), BuildingBlock: XIVTED_clean_linker_0, # of connection points: 2
#     Edge 25, Type (0, 0), BuildingBlock: XIVTED_clean_linker_0, # of connection points: 2
#     Edge 26, Type (0, 0), BuildingBlock: XIVTED_clean_linker_0, # of connection points: 2
#     Edge 27, Type (0, 0), BuildingBlock: XIVTED_clean_linker_0, # of connection points: 2
#     Edge 28, Type (0, 0), BuildingBlock: XIVTED_clean_linker_0, # of connection points: 2
#     Edge 29, Type (0, 0), BuildingBlock: XIVTED_clean_linker_0, # of connection points: 2
#     Edge 30, Type (0, 0), BuildingBlock: XIVTED_clean_linker_0, # of connection points: 2
#     Edge 31, Type (0, 0), BuildingBlock: XIVTED_clean_linker_0, # of connection points: 2
#     Edge 32, Type (0, 0), BuildingBlock: XIVTED_clean_linker_0, # of connection points: 2
#     Edge 33, Type (0, 0), BuildingBlock: XIVTED_clean_linker_0, # of connection points: 2
#     Edge 34, Type (0, 0), BuildingBlock: XIVTED_clean_linker_0, # of connection points: 2
#     Edge 35, Type (0, 0), BuildingBlock: XIVTED_clean_linker_0, # of connection points: 2
#     Edge 36, Type (0, 0), BuildingBlock: XIVTED_clean_linker_0, # of connection points: 2
#     Edge 37, Type (0, 0), BuildingBlock: XIVTED_clean_linker_0, # of connection points: 2
#     Edge 38, Type (0, 0), BuildingBlock: XIVTED_clean_linker_0, # of connection points: 2
#     Edge 39, Type (0, 0), BuildingBlock: XIVTED_clean_linker_0, # of connection points: 2
#     Edge 40, Type (0, 0), BuildingBlock: XIVTED_clean_linker_0, # of connection points: 2
#     Edge 41, Type (0, 0), BuildingBlock: XIVTED_clean_linker_0, # of connection points: 2
#     Edge 42, Type (0, 0), BuildingBlock: XIVTED_clean_linker_0, # of connection points: 2
#     Edge 43, Type (0, 0), BuildingBlock: XIVTED_clean_linker_0, # of connection points: 2
#     Edge 44, Type (0, 0), BuildingBlock: XIVTED_clean_linker_0, # of connection points: 2
#     Edge 45, Type (0, 0), BuildingBlock: XIVTED_clean_linker_0, # of connection points: 2
#     Edge 46, Type (0, 0), BuildingBlock: XIVTED_clean_linker_0, # of connection points: 2
#     Edge 47, Type (0, 0), BuildingBlock: XIVTED_clean_linker_0, # of connection points: 2
#     Edge 48, Type (0, 0), BuildingBlock: XIVTED_clean_linker_0, # of connection points: 2
#     Edge 49, Type (0, 0), BuildingBlock: XIVTED_clean_linker_0, # of connection points: 2
#     Edge 50, Type (0, 0), BuildingBlock: XIVTED_clean_linker_0, # of connection points: 2
#     Edge 51, Type (0, 0), BuildingBlock: XIVTED_clean_linker_0, # of connection points: 2
#     Edge 52, Type (0, 0), BuildingBlock: XIVTED_clean_linker_0, # of connection points: 2
#     Edge 53, Type (0, 0), BuildingBlock: XIVTED_clean_linker_0, # of connection points: 2
# Relax obj value: 0.024
# Max RMSD: 0.177
# Mean RMSD: 0.118
data_MOF--net-usf--node1-ESEHIV_clean_sbu_0--edge1-XIVTED_clean_linker_0
_symmetry_space_group_name_H-M    P1
_symmetry_Int_Tables_number       1
_symmetry_cell_setting            triclinic
loop_
_symmetry_equiv_pos_as_xyz
'x, y, z'
_cell_length_a     46.441843
_cell_length_b     49.434175
_cell_length_c     33.607311
_cell_angle_alpha  90.044607
_cell_angle_beta   90.464876
_cell_angle_gamma 117.98661
loop_
_atom_site_label
_atom_site_type_symbol
_atom_site_fract_x
_atom_site_fract_y
_atom_site_fract_z
_atom_type_partial_charge
Cu0 Cu 0.07533 0.55205 0.03255 0.0
N1 N 0.04236 0.53495 0.99456 0.0
N2 N 0.02165 0.52714 0.93311 0.0
C3 C 0.04742 0.53156 0.956 0.0
C4 C 0.99937 0.52761 0.95817 0.0
C5 C 1.01219 0.53227 0.99626 0.0
O6 O 0.11332 0.54928 1.01066 0.0
C7 C 0.06009 0.59502 0.06969 0.0
O8 O 0.04014 0.5704 0.08918 0.0
H9 H 0.07081 0.53565 0.94442 0.0
H10 H 1.00151 0.53621 0.02268 0.0
N11 N 0.06342 0.52904 0.07918 0.0
N12 N 0.06279 0.51772 0.14345 0.0
C13 C 0.07773 0.53878 0.11497 0.0
C14 C 0.03868 0.50073 0.08508 0.0
C15 C 0.03834 0.4936 0.12482 0.0
C16 C 0.10991 0.52207 1.00845 0.0
O17 O 0.08259 0.49918 0.02071 0.0
H18 H 0.09811 0.56127 0.12016 0.0
H19 H 0.0217 0.48661 0.06226 0.0
O20 O 0.07923 0.59302 0.04393 0.0
H21 H 0.97652 0.52679 0.94923 0.0
H22 H 0.02063 0.47295 0.13923 0.0
Cu23 Cu 0.48795 0.49153 1.01085 0.0
N24 N 0.4934 0.45628 0.01581 0.0
N25 N 0.48441 0.4094 0.03453 0.0
C26 C 0.47944 0.43364 0.04281 0.0
C27 C 0.50233 0.41715 1.00104 0.0
C28 C 0.50755 0.44585 0.98942 0.0
O29 O 0.47644 0.49822 0.06744 0.0
C30 C 0.46855 0.50276 0.92942 0.0
O31 O 0.48468 0.53202 0.93808 0.0
H32 H 0.4653 0.43452 0.06761 0.0
H33 H 0.51955 0.4577 0.96259 0.0
N34 N 0.52871 0.52606 1.00147 0.0
N35 N 0.56634 0.57409 0.98671 0.0
C36 C 0.53501 0.55555 0.997 0.0
C37 C 0.55731 0.5262 0.99479 0.0
C38 C 0.58042 0.55561 0.98571 0.0
C39 C 0.45286 0.48158 0.09083 0.0
O40 O 0.42691 0.45831 0.07559 0.0
H41 H 0.51677 0.56314 1.00043 0.0
H42 H 0.56102 0.50621 0.99546 0.0
O43 O 0.46317 0.48325 0.95766 0.0
H44 H 0.50982 0.40255 0.98497 0.0
H45 H 0.60539 0.56256 0.97745 0.0
Cu46 Cu 0.48474 0.93191 0.03119 0.0
N47 N 0.50095 0.91851 0.98898 0.0
N48 N 0.51217 0.91309 0.92571 0.0
C49 C 0.49062 0.915 0.9508 0.0
C50 C 0.53686 0.91508 0.9491 0.0
C51 C 0.52988 0.91846 0.98805 0.0
O52 O 0.44112 0.92535 0.01587 0.0
C53 C 0.51772 0.9912 0.06972 0.0
O54 O 0.49003 0.98403 0.08756 0.0
H55 H 0.46911 0.91641 0.94115 0.0
H56 H 0.54591 0.92291 1.0135 0.0
N57 N 0.48139 0.90989 0.07774 0.0
N58 N 0.47763 0.90053 0.14324 0.0
C59 C 0.47122 0.915 0.11305 0.0
C60 C 0.49417 0.89102 0.08564 0.0
C61 C 0.4919 0.88522 0.12601 0.0
C62 C 0.4355 0.93929 0.98745 0.0
O63 O 0.46022 0.96242 0.97056 0.0
H64 H 0.46127 0.93067 0.1169 0.0
H65 H 0.50594 0.88339 0.06402 0.0
O66 O 0.51854 0.97369 0.04247 0.0
H67 H 0.55911 0.91564 0.93864 0.0
H68 H 0.50118 0.87172 0.14157 0.0
Cu69 Cu 0.52084 0.99072 0.53364 0.0
N70 N 0.49281 0.97339 0.49006 0.0
N71 N 0.47482 0.95417 0.42914 0.0
C72 C 0.5006 0.96605 0.45454 0.0
C73 C 0.44987 0.95404 0.4497 0.0
C74 C 0.46103 0.96585 0.48722 0.0
O75 O 0.5646 1.00106 0.51358 0.0
C76 C 0.49137 0.01996 0.57745 0.0
O77 O 0.47287 0.99167 0.589 0.0
H78 H 0.52489 0.96988 0.44735 0.0
H79 H 0.44698 0.96876 0.51078 0.0
N80 N 0.50892 0.96069 0.57323 0.0
N81 N 0.50173 0.9378 0.63241 0.0
C82 C 0.51653 0.96453 0.61239 0.0
C83 C 0.48883 0.93055 0.56836 0.0
C84 C 0.48429 0.91639 0.60476 0.0
C85 C 0.58384 0.99247 0.53004 0.0
O86 O 0.57692 0.98018 0.56557 0.0
H87 H 0.53176 0.98661 0.62605 0.0
H88 H 0.47782 0.91973 0.54033 0.0
O89 O 0.51461 0.02541 0.5533 0.0
H90 H 0.4252 0.94573 0.43866 0.0
H91 H 0.4693 0.8922 0.61044 0.0
Cu92 Cu 0.02591 0.54183 0.53133 0.0
N93 N 0.04751 0.5593 0.57889 0.0
N94 N 0.05669 0.56535 0.6442 0.0
C95 C 0.03707 0.54732 0.61505 0.0
C96 C 0.0804 0.58986 0.62593 0.0
C97 C 0.07482 0.58591 0.58535 0.0
O98 O 0.99254 0.49965 0.54384 0.0
C99 C 1.01421 0.59375 0.52085 0.0
O100 O 0.01935 0.59798 0.55937 0.0
H101 H 0.01503 0.52612 0.62005 0.0
H102 H 0.08922 0.60151 0.56225 0.0
N103 N 0.05502 0.53947 0.49548 0.0
N104 N 0.07541 0.53693 0.43669 0.0
C105 C 0.05156 0.53969 0.45581 0.0
C106 C 0.08233 0.53691 0.50178 0.0
C107 C 0.0948 0.53494 0.46532 0.0
C108 C 1.0042 0.48275 0.55795 0.0
O109 O 0.03601 0.4946 0.56129 0.0
H110 H 0.03156 0.54131 0.44121 0.0
H111 H 0.09238 0.53636 0.53074 0.0
O112 O 1.01173 0.56921 0.50512 0.0
H113 H 0.10029 0.60902 0.64083 0.0
H114 H 0.11652 0.53262 0.46021 0.0
Cu115 Cu 0.46737 0.50216 0.51233 0.0
N116 N 0.47284 0.4859 0.46168 0.0
N117 N 0.47652 0.48137 0.39428 0.0
C118 C 0.4611 0.48762 0.42465 0.0
C119 C 0.49844 0.47503 0.41317 0.0
C120 C 0.49621 0.47786 0.45393 0.0
O121 O 0.42605 0.50363 0.50709 0.0
C122 C 0.51809 0.55413 0.55344 0.0
O123 O 0.49684 0.54771 0.58201 0.0
H124 H 0.4429 0.49502 0.41967 0.0
H125 H 0.51209 0.47603 0.47628 0.0
N126 N 0.46401 0.47978 0.56113 0.0
N127 N 0.4615 0.47071 0.62814 0.0
C128 C 0.45424 0.48474 0.59753 0.0
C129 C 0.47741 0.46143 0.56922 0.0
C130 C 0.47574 0.45573 0.60981 0.0
C131 C 0.41905 0.51774 0.4801 0.0
O132 O 0.44271 0.5386 0.45895 0.0
H133 H 0.44336 0.49968 0.60168 0.0
H134 H 0.48944 0.45415 0.54749 0.0
O135 O 0.50844 0.5407 0.51978 0.0
H136 H 0.51577 0.46957 0.39857 0.0
H137 H 0.48614 0.44294 0.62483 0.0
Cu138 Cu 0.75262 0.89204 0.36038 0.0
N139 N 0.72523 0.87723 0.31646 0.0
N140 N 0.71129 0.86878 0.25237 0.0
C141 C 0.73535 0.88445 0.27887 0.0
C142 C 0.68489 0.85087 0.27425 0.0
C143 C 0.69361 0.85622 0.31401 0.0
O144 O 0.79616 0.90342 0.33942 0.0
C145 C 0.72993 0.93657 0.37104 0.0
O146 O 0.72333 0.93263 0.33276 0.0
H147 H 0.76032 0.9 0.2712 0.0
H148 H 0.67831 0.84507 0.33924 0.0
N149 N 0.74133 0.86007 0.39601 0.0
N150 N 0.73211 0.83591 0.45409 0.0
C151 C 0.73765 0.86195 0.43528 0.0
C152 C 0.73779 0.83179 0.38947 0.0
C153 C 0.73226 0.81681 0.42548 0.0
C154 C 0.81547 0.8944 0.35456 0.0
O155 O 0.81019 0.8834 0.39086 0.0
H156 H 0.74038 0.88253 0.44996 0.0
H157 H 0.74005 0.8231 0.36075 0.0
O158 O 0.74524 0.92364 0.38725 0.0
H159 H 0.66119 0.83484 0.26243 0.0
H160 H 0.72897 0.79389 0.43032 0.0
Cu161 Cu 0.15175 0.84526 0.34667 0.0
N162 N 0.16331 0.83409 0.29907 0.0
N163 N 0.16693 0.83103 0.23326 0.0
C164 C 0.15226 0.83758 0.26343 0.0
C165 C 0.18817 0.82309 0.25072 0.0
C166 C 0.18586 0.825 0.2915 0.0
O167 O 0.14643 0.88107 0.33209 0.0
C168 C 0.10101 0.78327 0.35523 0.0
O169 O 0.109 0.77975 0.31893 0.0
H170 H 0.13487 0.84622 0.2598 0.0
H171 H 0.20027 0.82103 0.31393 0.0
N172 N 0.18621 0.85774 0.38275 0.0
N173 N 0.2104 0.8676 0.44234 0.0
C174 C 0.18276 0.85064 0.42155 0.0
C175 C 0.21728 0.8797 0.37856 0.0
C176 C 0.23226 0.88604 0.41556 0.0
C177 C 0.15985 0.90652 0.35093 0.0
O178 O 0.17041 0.90717 0.38746 0.0
H179 H 0.15964 0.83523 0.43482 0.0
H180 H 0.22749 0.89174 0.35117 0.0
O181 O 0.11435 0.81004 0.37081 0.0
H182 H 0.20454 0.81685 0.23519 0.0
H183 H 0.25668 0.90377 0.42254 0.0
Cu184 Cu 0.14422 0.32901 0.35656 0.0
N185 N 0.16438 0.31827 0.31638 0.0
N186 N 0.17872 0.31164 0.25546 0.0
C187 C 0.16094 0.32127 0.27714 0.0
C188 C 0.19391 0.30213 0.28208 0.0
C189 C 0.18516 0.30647 0.31975 0.0
O190 O 0.1019 0.32314 0.3358 0.0
C191 C 0.19964 0.38929 0.35786 0.0
O192 O 0.20143 0.38496 0.31959 0.0
H193 H 0.1455 0.33017 0.26478 0.0
H194 H 0.1935 0.30155 0.34763 0.0
N195 N 0.1361 0.30273 0.39949 0.0
N196 N 0.1306 0.28764 0.46273 0.0
C197 C 0.13364 0.30995 0.43742 0.0
C198 C 0.13434 0.27477 0.40069 0.0
C199 C 0.13109 0.26544 0.43982 0.0
C200 C 0.0824 0.29601 0.3237 0.0
O201 O 0.0921 0.27501 0.32606 0.0
H202 H 0.13552 0.33176 0.4464 0.0
H203 H 0.1361 0.26239 0.37509 0.0
O204 O 0.17525 0.36971 0.37725 0.0
H205 H 0.21058 0.29327 0.27484 0.0
H206 H 0.12963 0.24421 0.45062 0.0
Cu207 Cu 0.20653 0.34917 0.85328 0.0
N208 N 0.174 0.3363 0.81407 0.0
N209 N 0.14953 0.32249 0.75465 0.0
C210 C 0.17808 0.33405 0.77484 0.0
C211 C 0.1266 0.31753 0.78212 0.0
C212 C 0.14177 0.32593 0.81882 0.0
O213 O 0.2431 0.34364 0.83206 0.0
C214 C 0.1928 0.39216 0.89064 0.0
O215 O 0.16607 0.36681 0.89812 0.0
H216 H 0.20152 0.34048 0.76145 0.0
H217 H 0.12996 0.32382 0.84708 0.0
N218 N 0.19057 0.32325 0.89701 0.0
N219 N 0.18253 0.30745 0.96 0.0
C220 C 0.19924 0.33107 0.93525 0.0
C221 C 0.16763 0.29366 0.89753 0.0
C222 C 0.16272 0.28379 0.93642 0.0
C223 C 0.23507 0.31677 0.81856 0.0
O224 O 0.20423 0.29612 0.81987 0.0
H225 H 0.21719 0.35376 0.9447 0.0
H226 H 0.15488 0.28039 0.87156 0.0
O227 O 0.21547 0.39063 0.87092 0.0
H228 H 0.10066 0.3076 0.77628 0.0
H229 H 0.14517 0.26132 0.94666 0.0
Cu230 Cu 0.70519 0.84739 0.85348 0.0
N231 N 0.72708 0.84056 0.81188 0.0
N232 N 0.73731 0.83369 0.74903 0.0
C233 C 0.71677 0.8373 0.77396 0.0
C234 C 0.76149 0.83445 0.77236 0.0
C235 C 0.75516 0.83883 0.81128 0.0
O236 O 0.6938 0.87857 0.8329 0.0
C237 C 0.68228 0.78944 0.88294 0.0
O238 O 0.71401 0.79999 0.88158 0.0
H239 H 0.69457 0.83774 0.76499 0.0
H240 H 0.77015 0.84105 0.83713 0.0
N241 N 0.73291 0.86385 0.89704 0.0
N242 N 0.74725 0.87319 0.96096 0.0
C243 C 0.7231 0.85705 0.9348 0.0
C244 C 0.76445 0.88517 0.89905 0.0
C245 C 0.7734 0.89108 0.93871 0.0
C246 C 0.69913 0.9028 0.8522 0.0
O247 O 0.70555 0.90425 0.8905 0.0
H248 H 0.69826 0.84135 0.94282 0.0
H249 H 0.77957 0.89603 0.8736 0.0
O250 O 0.67067 0.80686 0.87048 0.0
H251 H 0.78268 0.83293 0.76197 0.0
H252 H 0.79713 0.90736 0.9502 0.0
Cu253 Cu 0.15032 0.83051 0.83711 0.0
N254 N 0.15753 0.85442 0.7917 0.0
N255 N 0.17355 0.87101 0.73003 0.0
C256 C 0.17318 0.8523 0.75938 0.0
C257 C 0.158 0.88599 0.74478 0.0
C258 C 0.14809 0.87565 0.78295 0.0
O259 O 0.11095 0.7912 0.82752 0.0
C260 C 0.21586 0.85865 0.85324 0.0
O261 O 0.21044 0.88154 0.84311 0.0
H262 H 0.18359 0.83682 0.75728 0.0
H263 H 0.13436 0.8826 0.8025 0.0
N264 N 0.14074 0.84802 0.88061 0.0
N265 N 0.13916 0.85845 0.94493 0.0
C266 C 0.15377 0.84976 0.91693 0.0
C267 C 0.11688 0.85585 0.88555 0.0
C268 C 0.11586 0.86235 0.92538 0.0
C269 C 0.10186 0.7781 0.79359 0.0
O270 O 0.1227 0.7872 0.7642 0.0
H271 H 0.17198 0.84249 0.92314 0.0
H272 H 0.10026 0.85517 0.86238 0.0
O273 O 0.19196 0.83146 0.85185 0.0
H274 H 0.15292 0.90221 0.72858 0.0
H275 H 0.09854 0.86829 0.93903 0.0
Cu276 Cu 0.3901 0.18014 0.68901 0.0
N277 N 0.41866 0.1989 0.64741 0.0
N278 N 0.43491 0.20743 0.58428 0.0
C279 C 0.40934 0.19442 0.60904 0.0
C280 C 0.4615 0.22085 0.60815 0.0
C281 C 0.45135 0.21564 0.64724 0.0
O282 O 0.35771 0.14022 0.66965 0.0
C283 C 0.37947 0.2285 0.72328 0.0
O284 O 0.41018 0.24064 0.73455 0.0
H285 H 0.38431 0.18034 0.59956 0.0
H286 H 0.46675 0.2227 0.67354 0.0
N287 N 0.41082 0.17477 0.7336 0.0
N288 N 0.418 0.16488 0.79669 0.0
C289 C 0.39904 0.1704 0.77075 0.0
C290 C 0.43817 0.17187 0.73584 0.0
C291 C 0.44269 0.16577 0.7748 0.0
C292 C 0.36063 0.11891 0.65154 0.0
O293 O 0.33399 0.09475 0.63958 0.0
H294 H 0.37634 0.17026 0.77819 0.0
H295 H 0.45328 0.17329 0.71079 0.0
O296 O 0.36706 0.20344 0.70349 0.0
H297 H 0.48646 0.23308 0.59813 0.0
H298 H 0.46253 0.16216 0.78599 0.0
Cu299 Cu 0.7989 0.19291 0.69476 0.0
N300 N 0.7983 0.15443 0.69819 0.0
N301 N 0.78322 0.10531 0.7138 0.0
C302 C 0.78091 0.13093 0.72315 0.0
C303 C 0.8028 0.11315 0.68173 0.0
C304 C 0.81181 0.14316 0.67212 0.0
O305 O 0.78417 0.19943 0.74937 0.0
C306 C 0.78083 0.21277 0.61788 0.0
O307 O 0.79163 0.24003 0.63396 0.0
H308 H 0.76579 0.13222 0.74665 0.0
H309 H 0.82638 0.15562 0.64699 0.0
N310 N 0.84185 0.22463 0.68844 0.0
N311 N 0.88225 0.27076 0.67148 0.0
C312 C 0.85082 0.25462 0.68285 0.0
C313 C 0.86887 0.22192 0.68156 0.0
C314 C 0.89374 0.25021 0.67116 0.0
C315 C 0.80102 0.19761 0.77913 0.0
O316 O 0.82583 0.19277 0.77084 0.0
H317 H 0.83436 0.26427 0.6861 0.0
H318 H 0.8701 0.20064 0.68213 0.0
O319 O 0.77775 0.19048 0.64037 0.0
H320 H 0.80994 0.09819 0.66593 0.0
H321 H 0.91786 0.25481 0.66186 0.0
Cu322 Cu 0.8162 0.69518 0.66998 0.0
N323 N 0.81073 0.7159 0.71353 0.0
N324 N 0.81289 0.72977 0.77733 0.0
C325 C 0.81779 0.71169 0.75117 0.0
C326 C 0.80167 0.74575 0.75529 0.0
C327 C 0.80043 0.73716 0.7158 0.0
O328 O 0.8505 0.68464 0.68701 0.0
C329 C 0.75481 0.67029 0.63375 0.0
O330 O 0.76641 0.69932 0.62452 0.0
H331 H 0.82649 0.69556 0.75913 0.0
H332 H 0.79297 0.74606 0.69058 0.0
N333 N 0.83286 0.72001 0.6253 0.0
N334 N 0.8468 0.73157 0.56167 0.0
C335 C 0.83396 0.70911 0.58899 0.0
C336 C 0.84556 0.75053 0.62111 0.0
C337 C 0.8543 0.75775 0.58179 0.0
C338 C 0.87687 0.70807 0.69809 0.0
O339 O 0.8784 0.73523 0.69598 0.0
H340 H 0.82564 0.68507 0.58296 0.0
H341 H 0.8482 0.76633 0.64485 0.0
O342 O 0.77261 0.6621 0.65459 0.0
H343 H 0.79563 0.76293 0.76668 0.0
H344 H 0.86484 0.78043 0.56898 0.0
Cu345 Cu 0.91507 0.74482 0.16631 0.0
N346 N 0.88286 0.73368 0.12657 0.0
N347 N 0.85801 0.72978 0.06792 0.0
C348 C 0.88686 0.73948 0.08723 0.0
C349 C 0.83506 0.71746 0.09624 0.0
C350 C 0.85045 0.71989 0.13231 0.0
O351 O 0.95198 0.73847 0.14843 0.0
C352 C 0.91373 0.80235 0.17252 0.0
O353 O 0.89968 0.79558 0.13727 0.0
H354 H 0.9105 0.75124 0.07331 0.0
H355 H 0.83886 0.71252 0.16089 0.0
N356 N 0.89704 0.71996 0.21051 0.0
N357 N 0.88223 0.70775 0.27384 0.0
C358 C 0.89719 0.73058 0.24741 0.0
C359 C 0.88141 0.68925 0.21339 0.0
C360 C 0.87216 0.68162 0.2525 0.0
C361 C 0.94702 0.71684 0.12394 0.0
O362 O 0.91747 0.69997 0.10968 0.0
H363 H 0.90765 0.75469 0.2545 0.0
H364 H 0.877 0.6736 0.18883 0.0
O365 O 0.92583 0.78589 0.18675 0.0
H366 H 0.80899 0.7072 0.09125 0.0
H367 H 0.85932 0.65864 0.26427 0.0
Cu368 Cu 0.35923 0.14552 0.19241 0.0
N369 N 0.38847 0.15018 0.2334 0.0
N370 N 0.41101 0.16091 0.29418 0.0
C371 C 0.38702 0.15993 0.27028 0.0
C372 C 0.42834 0.15147 0.27115 0.0
C373 C 0.41433 0.14484 0.23364 0.0
O374 O 0.31585 0.11928 0.2143 0.0
C375 C 0.3981 0.20338 0.16451 0.0
O376 O 0.41827 0.19169 0.16708 0.0
H377 H 0.36874 0.16641 0.27908 0.0
H378 H 0.42243 0.13669 0.20842 0.0
N379 N 0.36681 0.12653 0.14864 0.0
N380 N 0.3758 0.11878 0.08547 0.0
C381 C 0.36872 0.13597 0.1108 0.0
C382 C 0.3726 0.10231 0.14739 0.0
C383 C 0.37829 0.09752 0.10838 0.0
C384 C 0.29415 0.09543 0.19673 0.0
O385 O 0.29832 0.09055 0.15931 0.0
H386 H 0.36587 0.15568 0.10229 0.0
H387 H 0.37298 0.08929 0.17306 0.0
O388 O 0.36862 0.18682 0.17531 0.0
H389 H 0.44926 0.14899 0.28078 0.0
H390 H 0.38376 0.07978 0.09779 0.0
Cu391 Cu 0.79043 0.19762 0.19782 0.0
N392 N 0.78127 0.21268 0.24692 0.0
N393 N 0.7763 0.21927 0.31337 0.0
C394 C 0.78404 0.20407 0.28487 0.0
C395 C 0.76822 0.23799 0.29201 0.0
C396 C 0.77129 0.23397 0.25177 0.0
O397 O 0.83439 0.20246 0.20719 0.0
C398 C 0.72693 0.15491 0.18836 0.0
O399 O 0.72514 0.18015 0.19592 0.0
H400 H 0.79205 0.18722 0.29141 0.0
H401 H 0.76635 0.24575 0.22772 0.0
N402 N 0.79077 0.21673 0.14732 0.0
N403 N 0.78916 0.22246 0.07997 0.0
C404 C 0.79012 0.20465 0.11051 0.0
C405 C 0.79036 0.24326 0.13962 0.0
C406 C 0.78935 0.24678 0.09872 0.0
C407 C 0.85601 0.23027 0.21293 0.0
O408 O 0.84715 0.25179 0.20904 0.0
H409 H 0.78978 0.1828 0.10632 0.0
H410 H 0.79073 0.25907 0.16209 0.0
O411 O 0.75497 0.15599 0.1895 0.0
H412 H 0.76015 0.25348 0.30434 0.0
H413 H 0.78916 0.26618 0.08407 0.0
H414 H 0.09135 0.49908 0.39496 0.0
H415 H 0.08119 0.56993 0.18543 0.0
H416 H 0.06622 0.5722 0.38245 0.0
H417 H 0.05786 0.47501 0.19729 0.0
H418 H 0.08865 0.57619 0.25758 0.0
H419 H 0.09176 0.49499 0.32188 0.0
C420 C 0.08639 0.5145 0.37672 0.0
C421 C 0.0786 0.5359 0.39437 0.0
C422 C 0.08212 0.55405 0.24435 0.0
C423 C 0.07926 0.5316 0.31168 0.0
C424 C 0.07809 0.55052 0.20324 0.0
C425 C 0.06889 0.5219 0.18555 0.0
C426 C 0.07737 0.5289 0.26788 0.0
C427 C 0.06469 0.49735 0.21 0.0
C428 C 0.08639 0.51203 0.33528 0.0
C429 C 0.07204 0.55525 0.36976 0.0
N430 N 0.06905 0.5014 0.25006 0.0
N431 N 0.0726 0.55271 0.32962 0.0
H432 H 0.52378 0.497 0.33769 0.0
H433 H 0.40426 0.4592 0.14746 0.0
H434 H 0.42195 0.47136 0.35007 0.0
H435 H 0.5087 0.51131 0.13868 0.0
H436 H 0.40956 0.46073 0.22037 0.0
H437 H 0.51817 0.49927 0.26536 0.0
C438 C 0.50009 0.49168 0.3254 0.0
C439 C 0.47328 0.48376 0.35088 0.0
C440 C 0.43136 0.47207 0.20264 0.0
C441 C 0.46661 0.48626 0.26626 0.0
C442 C 0.42839 0.47127 0.16067 0.0
C443 C 0.45602 0.48538 0.13603 0.0
C444 C 0.46235 0.48653 0.22107 0.0
C445 C 0.48653 0.50037 0.15581 0.0
C446 C 0.49698 0.49319 0.28372 0.0
C447 C 0.44344 0.47766 0.33223 0.0
N448 N 0.48882 0.50025 0.19665 0.0
N449 N 0.44089 0.47873 0.29145 0.0
H450 H 0.43403 0.91481 0.1785 0.0
H451 H 0.51538 0.93521 0.39509 0.0
H452 H 0.51435 0.89648 0.20432 0.0
H453 H 0.43292 0.95049 0.36969 0.0
H454 H 0.51466 0.91984 0.32584 0.0
H455 H 0.43218 0.92637 0.24884 0.0
C456 C 0.45124 0.91314 0.19894 0.0
C457 C 0.47448 0.90478 0.18526 0.0
C458 C 0.49665 0.92646 0.33545 0.0
C459 C 0.47249 0.91799 0.26617 0.0
C460 C 0.49717 0.93545 0.37502 0.0
C461 C 0.47424 0.94432 0.38846 0.0
C462 C 0.4731 0.92639 0.30887 0.0
C463 C 0.45089 0.9436 0.36099 0.0
C464 C 0.45011 0.91966 0.23919 0.0
C465 C 0.49583 0.90255 0.21339 0.0
N466 N 0.45102 0.93494 0.32258 0.0
N467 N 0.49445 0.9093 0.25238 0.0
H468 H 0.04063 0.51167 0.68031 0.0
H469 H 1.00503 0.56357 0.88936 0.0
H470 H 0.0617 0.60501 0.70259 0.0
H471 H 0.0412 0.49794 0.88088 0.0
H472 H 1.01357 0.57303 0.81752 0.0
H473 H 0.02969 0.50055 0.75142 0.0
C474 C 0.04299 0.52977 0.70037 0.0
C475 C 0.05219 0.55929 0.686 0.0
C476 C 0.01932 0.55636 0.83142 0.0
C477 C 0.03904 0.54667 0.76653 0.0
C478 C 1.01409 0.55071 0.87209 0.0
C479 C 0.02225 0.52981 0.89062 0.0
C480 C 0.03213 0.5405 0.80925 0.0
C481 C 0.03457 0.51413 0.86735 0.0
C482 C 0.03681 0.52347 0.74071 0.0
C483 C 0.05498 0.58209 0.71287 0.0
N484 N 0.03902 0.51967 0.82771 0.0
N485 N 0.04808 0.57523 0.75196 0.0
H486 H 0.45594 0.51623 0.66938 0.0
H487 H 0.45715 0.44862 0.88936 0.0
H488 H 0.46076 0.43216 0.6877 0.0
H489 H 0.46448 0.53754 0.86802 0.0
H490 H 0.4533 0.43955 0.81666 0.0
H491 H 0.45416 0.52184 0.7418 0.0
C492 C 0.45632 0.49872 0.68833 0.0
C493 C 0.45859 0.47365 0.67144 0.0
C494 C 0.45543 0.46094 0.82791 0.0
C495 C 0.45668 0.48013 0.75604 0.0
C496 C 0.45731 0.46603 0.86969 0.0
C497 C 0.46097 0.49389 0.88563 0.0
C498 C 0.45698 0.48374 0.80129 0.0
C499 C 0.46164 0.51564 0.8578 0.0
C500 C 0.45549 0.50205 0.73007 0.0
C501 C 0.45938 0.45209 0.69861 0.0
N502 N 0.45973 0.51016 0.81764 0.0
N503 N 0.45842 0.45581 0.73903 0.0
H504 H 0.5638 0.94124 0.87623 0.0
H505 H 0.45405 0.89557 0.67823 0.0
H506 H 0.45893 0.8888 0.87726 0.0
H507 H 0.5526 0.9693 0.68298 0.0
H508 H 0.45687 0.88787 0.74979 0.0
H509 H 0.56166 0.94648 0.804 0.0
C510 C 0.54035 0.93047 0.86122 0.0
C511 C 0.51147 0.9145 0.88284 0.0
C512 C 0.47789 0.90573 0.73518 0.0
C513 C 0.50885 0.92064 0.80016 0.0
C514 C 0.47636 0.91002 0.6943 0.0
C515 C 0.50315 0.93312 0.6746 0.0
C516 C 0.50656 0.92441 0.75656 0.0
C517 C 0.53131 0.95144 0.69706 0.0
C518 C 0.53913 0.93373 0.82002 0.0
C519 C 0.48173 0.90147 0.86179 0.0
N520 N 0.53234 0.94661 0.7368 0.0
N521 N 0.48118 0.90477 0.82165 0.0
H522 H 0.70686 0.85668 0.70147 0.0
H523 H 0.75255 0.80208 0.49845 0.0
H524 H 0.76191 0.80655 0.69877 0.0
H525 H 0.70529 0.85897 0.50601 0.0
H526 H 0.75195 0.79871 0.57138 0.0
H527 H 0.70215 0.85331 0.62959 0.0
C528 C 0.71771 0.84465 0.6858 0.0
C529 C 0.73467 0.83172 0.70631 0.0
C530 C 0.74157 0.81177 0.55699 0.0
C531 C 0.72983 0.82823 0.62333 0.0
C532 C 0.74169 0.8135 0.51545 0.0
C533 C 0.72922 0.83108 0.49633 0.0
C534 C 0.72868 0.82757 0.57928 0.0
C535 C 0.71566 0.84564 0.51964 0.0
C536 C 0.7152 0.84291 0.64457 0.0
C537 C 0.74887 0.81706 0.6841 0.0
N538 N 0.71586 0.84365 0.55983 0.0
N539 N 0.74616 0.81572 0.6437 0.0
H540 H 0.17475 0.82425 0.68939 0.0
H541 H 0.23965 0.91881 0.48803 0.0
H542 H 0.19695 0.91903 0.67887 0.0
H543 H 0.1859 0.82036 0.49335 0.0
H544 H 0.23583 0.92116 0.56077 0.0
H545 H 0.19039 0.82462 0.62033 0.0
C546 C 0.18338 0.84531 0.67273 0.0
C547 C 0.18449 0.87167 0.68992 0.0
C548 C 0.22527 0.89906 0.546 0.0
C549 C 0.20216 0.87211 0.61055 0.0
C550 C 0.22772 0.89771 0.50469 0.0
C551 C 0.21297 0.86933 0.48495 0.0
C552 C 0.20834 0.87179 0.56749 0.0
C553 C 0.19736 0.84263 0.50764 0.0
C554 C 0.19209 0.84542 0.63319 0.0
C555 C 0.19538 0.89814 0.66658 0.0
N556 N 0.19536 0.8445 0.5477 0.0
N557 N 0.20376 0.8977 0.62796 0.0
H558 H 0.15722 0.26389 0.51517 0.0
H559 H 0.10406 0.32543 0.70651 0.0
H560 H 0.10318 0.31471 0.50758 0.0
H561 H 0.18328 0.30301 0.7077 0.0
H562 H 0.0965 0.31392 0.63503 0.0
H563 H 0.15975 0.27002 0.58768 0.0
C564 C 0.14554 0.27599 0.52885 0.0
C565 C 0.13011 0.28896 0.50545 0.0
C566 C 0.11551 0.31151 0.65099 0.0
C567 C 0.13299 0.29616 0.58808 0.0
C568 C 0.11971 0.31793 0.69171 0.0
C569 C 0.14448 0.31539 0.71286 0.0
C570 C 0.13592 0.30206 0.63148 0.0
C571 C 0.16426 0.30573 0.69231 0.0
C572 C 0.14721 0.2797 0.57012 0.0
C573 C 0.11566 0.30472 0.52459 0.0
N574 N 0.15951 0.29934 0.65276 0.0
N575 N 0.11743 0.30789 0.56482 0.0
H576 H 0.6774 0.82275 0.19971 0.0
H577 H 0.78088 0.91957 1.01329 0.0
H578 H 0.75319 0.9165 0.20792 0.0
H579 H 0.70641 0.82525 1.00582 0.0
H580 H 0.77171 0.91882 0.08496 0.0
H581 H 0.68686 0.82355 0.12816 0.0
C582 C 0.69578 0.84358 0.1864 0.0
C583 C 0.71467 0.86952 0.20983 0.0
C584 C 0.75742 0.89826 0.06762 0.0
C585 C 0.726 0.87053 0.1282 0.0
C586 C 0.76286 0.89864 0.02679 0.0
C587 C 0.7442 0.87253 1.00354 0.0
C588 C 0.7332 0.87156 0.08524 0.0
C589 C 0.7209 0.84607 0.0225 0.0
C590 C 0.70139 0.84397 0.14563 0.0
C591 C 0.73846 0.89582 0.19109 0.0
N592 N 0.71599 0.8463 0.06219 0.0
N593 N 0.7435 0.89563 0.15141 0.0
H594 H 0.1955 0.8701 0.98278 0.0
H595 H 0.11226 0.82568 0.19673 0.0
H596 H 0.09486 0.8462 1.00371 0.0
H597 H 0.21136 0.84481 0.17436 0.0
H598 H 0.106 0.83504 0.12672 0.0
H599 H 0.20259 0.8637 0.05356 0.0
C600 C 0.17491 0.86362 1.00233 0.0
C601 C 0.14445 0.8584 0.98722 0.0
C602 C 0.12912 0.83719 0.13708 0.0
C603 C 0.15239 0.85104 0.0684 0.0
C604 C 0.13275 0.83192 0.17709 0.0
C605 C 0.16244 0.83459 0.1915 0.0
C606 C 0.1554 0.84527 0.11115 0.0
C607 C 0.18796 0.84221 0.16451 0.0
C608 C 0.17898 0.85998 0.04275 0.0
C609 C 0.11879 0.85062 0.01404 0.0
N610 N 0.18389 0.84738 0.12566 0.0
N611 N 0.12328 0.84697 0.05331 0.0
H612 H 0.17329 0.26075 1.00925 0.0
H613 H 0.17635 0.35312 0.20502 0.0
H614 H 0.19432 0.35549 1.00825 0.0
H615 H 0.1865 0.27083 0.20878 0.0
H616 H 0.1787 0.35249 0.13243 0.0
H617 H 0.1739 0.26198 0.08221 0.0
C618 C 0.17803 0.28177 0.02443 0.0
C619 C 0.18381 0.30806 1.00278 0.0
C620 C 0.18055 0.33462 0.14911 0.0
C621 C 0.18443 0.30964 0.0859 0.0
C622 C 0.17898 0.33487 0.19048 0.0
C623 C 0.1811 0.31192 0.21282 0.0
C624 C 0.18383 0.31101 0.12987 0.0
C625 C 0.185 0.28903 0.19258 0.0
C626 C 0.17857 0.28253 0.06597 0.0
C627 C 0.19013 0.33483 0.02382 0.0
N628 N 0.18599 0.289 0.15216 0.0
N629 N 0.19004 0.33487 0.06421 0.0
H630 H 0.41248 0.10231 0.03829 0.0
H631 H 0.38298 0.1817 0.84575 0.0
H632 H 0.35091 0.14596 0.03576 0.0
H633 H 0.4395 0.13298 0.84362 0.0
H634 H 0.37166 0.16902 0.91576 0.0
H635 H 0.42284 0.11294 0.96723 0.0
C636 C 0.40093 0.11389 0.02281 0.0
C637 C 0.38096 0.12343 0.04321 0.0
C638 C 0.38653 0.16104 0.90004 0.0
C639 C 0.39302 0.13599 0.962 0.0
C640 C 0.3929 0.16818 0.85989 0.0
C641 C 0.4121 0.15828 0.83853 0.0
C642 C 0.39948 0.14388 0.91925 0.0
C643 C 0.42483 0.14136 0.85889 0.0
C644 C 0.40703 0.12013 0.98228 0.0
C645 C 0.36695 0.13867 0.02159 0.0
N646 N 0.41825 0.13465 0.89809 0.0
N647 N 0.37331 0.14452 0.9823 0.0
H648 H 0.76836 0.22629 0.81777 0.0
H649 H 0.80683 0.18436 0.03908 0.0
H650 H 0.81861 0.17361 0.84199 0.0
H651 H 0.76952 0.24845 0.02002 0.0
H652 H 0.80671 0.17725 0.96685 0.0
H653 H 0.76381 0.2317 0.89055 0.0
C654 C 0.77807 0.21554 0.83808 0.0
C655 C 0.79399 0.19948 0.82299 0.0
C656 C 0.79847 0.19288 0.97836 0.0
C657 C 0.78893 0.20568 0.90708 0.0
C658 C 0.7984 0.19687 0.02001 0.0
C659 C 0.78833 0.21722 0.03665 0.0
C660 C 0.78814 0.20906 0.95221 0.0
C661 C 0.77796 0.2328 1.00931 0.0
C662 C 0.77568 0.21882 0.87983 0.0
C663 C 0.80629 0.18641 0.85151 0.0
N664 N 0.77811 0.2284 0.96894 0.0
N665 N 0.80352 0.18975 0.89147 0.0
H666 H 0.89639 0.73029 1.00723 0.0
H667 H 0.7833 0.74532 0.83626 0.0
H668 H 0.80751 0.7342 0.03251 0.0
H669 H 0.85872 0.71968 0.81497 0.0
H670 H 0.79501 0.74734 0.908 0.0
H671 H 0.88633 0.73259 0.93616 0.0
C672 C 0.87489 0.73188 0.99785 0.0
C673 C 0.85273 0.73194 0.02592 0.0
C674 C 0.80898 0.74132 0.8875 0.0
C675 C 0.84088 0.73443 0.94441 0.0
C676 C 0.80243 0.74033 0.84659 0.0
C677 C 0.81992 0.73213 0.81951 0.0
C678 C 0.83349 0.73445 0.9013 0.0
C679 C 0.84431 0.72569 0.83463 0.0
C680 C 0.86902 0.73299 0.95724 0.0
C681 C 0.82502 0.73367 1.01192 0.0
N682 N 0.85037 0.72703 0.87435 0.0
N683 N 0.81989 0.73488 0.97217 0.0
H684 H 0.46724 0.18026 0.33757 0.0
H685 H 0.38523 0.20088 0.53594 0.0
H686 H 0.36673 0.16115 0.34638 0.0
H687 H 0.48113 0.20735 0.53495 0.0
H688 H 0.38054 0.19119 0.46458 0.0
H689 H 0.47496 0.19425 0.40819 0.0
C690 C 0.44677 0.17891 0.35421 0.0
C691 C 0.41626 0.16952 0.33571 0.0
C692 C 0.40269 0.19481 0.47984 0.0
C693 C 0.42512 0.18591 0.41646 0.0
C694 C 0.40534 0.20027 0.52067 0.0
C695 C 0.43347 0.20462 0.54155 0.0
C696 C 0.42836 0.19363 0.45948 0.0
C697 C 0.45908 0.20427 0.52 0.0
C698 C 0.45128 0.18707 0.39451 0.0
C699 C 0.39081 0.16867 0.35887 0.0
N700 N 0.45584 0.19865 0.48011 0.0
N701 N 0.39583 0.17673 0.39789 0.0
H702 H 0.77828 0.261 0.36852 0.0
H703 H 0.77381 0.16527 0.56589 0.0
H704 H 0.77554 0.17277 0.36033 0.0
H705 H 0.77865 0.25448 0.56565 0.0
H706 H 0.77252 0.16541 0.49219 0.0
H707 H 0.7771 0.2571 0.4406 0.0
C708 C 0.77719 0.24057 0.38154 0.0
C709 C 0.7767 0.21709 0.35714 0.0
C710 C 0.77365 0.18485 0.50833 0.0
C711 C 0.77566 0.21257 0.44216 0.0
C712 C 0.77414 0.18469 0.55064 0.0
C713 C 0.77617 0.20983 0.57282 0.0
C714 C 0.77515 0.21032 0.48754 0.0
C715 C 0.77702 0.23443 0.55059 0.0
C716 C 0.77668 0.23843 0.42331 0.0
C717 C 0.77604 0.19162 0.37722 0.0
N718 N 0.77655 0.23402 0.50988 0.0
N719 N 0.77546 0.19003 0.41818 0.0
H720 H 0.81216 0.68131 0.51533 0.0
H721 H 0.91859 0.75682 0.32151 0.0
H722 H 0.89164 0.77347 0.51222 0.0
H723 H 0.83588 0.66635 0.32258 0.0
H724 H 0.90964 0.76288 0.39149 0.0
H725 H 0.82111 0.675 0.44527 0.0
C726 C 0.83164 0.7002 0.50002 0.0
C727 C 0.85131 0.72794 0.51991 0.0
C728 C 0.89342 0.74169 0.37645 0.0
C729 C 0.86151 0.72091 0.43926 0.0
C730 C 0.89841 0.73823 0.33629 0.0
C731 C 0.87782 0.71106 0.31576 0.0
C732 C 0.86767 0.71781 0.39655 0.0
C733 C 0.85254 0.68759 0.33707 0.0
C734 C 0.83661 0.69662 0.45987 0.0
C735 C 0.87572 0.75179 0.49813 0.0
N736 N 0.84814 0.69154 0.37623 0.0
N737 N 0.88019 0.74769 0.45906 0.0
H738 H 0.13859 0.53422 0.93443 0.0
H739 H 0.19713 0.40697 0.96848 0.0
H740 H 0.13608 0.49049 0.04602 0.0
H741 H 0.19156 0.44077 0.85223 0.0
H742 H 0.18636 0.44632 0.99847 0.0
H743 H 0.16858 0.50907 0.90511 0.0
C744 C 0.14542 0.52026 0.9531 0.0
C745 C 0.13521 0.51469 0.99284 0.0
C746 C 0.18816 0.44573 0.96641 0.0
C747 C 0.16876 0.48536 0.95948 0.0
C748 C 0.19469 0.42343 0.94933 0.0
C749 C 0.19584 0.42099 0.9079 0.0
C750 C 0.18185 0.46547 0.94193 0.0
C751 C 0.19156 0.44234 0.88437 0.0
C752 C 0.16218 0.50561 0.93627 0.0
C753 C 0.14376 0.49562 0.01538 0.0
N754 N 0.1843 0.46344 0.90166 0.0
N755 N 0.15977 0.4816 0.99841 0.0
H756 H 0.61447 0.75312 0.88439 0.0
H757 H 0.63017 0.61561 0.9935 0.0
H758 H 0.70442 0.75467 0.92154 0.0
H759 H 0.53722 0.60614 0.95442 0.0
H760 H 0.65639 0.66823 0.97018 0.0
H761 H 0.58427 0.70096 0.91227 0.0
C762 C 0.62784 0.74267 0.89844 0.0
C763 C 0.66212 0.7584 0.90027 0.0
C764 C 0.63022 0.65482 0.96668 0.0
C765 C 0.62787 0.69898 0.93226 0.0
C766 C 0.61521 0.6246 0.97998 0.0
C767 C 0.58142 0.60616 0.97572 0.0
C768 C 0.61152 0.66713 0.94862 0.0
C769 C 0.56331 0.6195 0.95855 0.0
C770 C 0.61063 0.71291 0.9143 0.0
C771 C 0.6781 0.74363 0.91892 0.0
N772 N 0.57858 0.64908 0.94537 0.0
N773 N 0.66096 0.71504 0.93396 0.0
H774 H 0.27303 0.90653 0.83222 0.0
H775 H 0.37948 0.88721 1.00828 0.0
H776 H 0.23353 0.82918 0.91141 0.0
H777 H 0.41562 0.96174 0.92443 0.0
H778 H 0.32634 0.86479 0.97397 0.0
H779 H 0.32591 0.92524 0.86481 0.0
C780 C 0.27563 0.8932 0.85623 0.0
C781 C 0.24877 0.86619 0.86901 0.0
C782 C 0.3459 0.88607 0.96319 0.0
C783 C 0.30965 0.888 0.90745 0.0
C784 C 0.37624 0.89903 0.9829 0.0
C785 C 0.40221 0.92656 0.96938 0.0
C786 C 0.34141 0.9007 0.92965 0.0
C787 C 0.39647 0.9406 0.93614 0.0
C788 C 0.30591 0.90402 0.87504 0.0
C789 C 0.25368 0.84993 0.90032 0.0
N790 N 0.36686 0.92755 0.91753 0.0
N791 N 0.28348 0.86125 0.91877 0.0
H792 H 0.47047 0.02487 0.65082 0.0
H793 H 0.39265 0.12857 0.58127 0.0
H794 H 0.49229 0.06887 0.53637 0.0
H795 H 0.39739 0.10609 0.70398 0.0
H796 H 0.43341 0.11199 0.56494 0.0
H797 H 0.44778 0.05818 0.67181 0.0
C798 C 0.47098 0.04198 0.63029 0.0
C799 C 0.48331 0.04407 0.59177 0.0
C800 C 0.42636 0.11154 0.59566 0.0
C801 C 0.45639 0.082 0.61533 0.0
C802 C 0.40333 0.12131 0.60505 0.0
C803 C 0.39222 0.11935 0.64421 0.0
C804 C 0.43755 0.0987 0.62546 0.0
C805 C 0.40589 0.10867 0.67362 0.0
C806 C 0.458 0.06105 0.64231 0.0
C807 C 0.48326 0.06664 0.56642 0.0
N808 N 0.42739 0.09831 0.66357 0.0
N809 N 0.46941 0.08434 0.57836 0.0
H810 H 0.94755 0.30834 0.66997 0.0
H811 H 0.93655 0.44948 0.56497 0.0
H812 H 0.85543 0.30519 0.64049 0.0
H813 H 0.02531 0.44383 0.58673 0.0
H814 H 0.90548 0.39793 0.594 0.0
H815 H 0.97571 0.35956 0.64202 0.0
C816 C 0.93317 0.31837 0.65762 0.0
C817 C 0.89899 0.30213 0.65755 0.0
C818 C 0.93177 0.4081 0.59226 0.0
C819 C 0.93132 0.36144 0.62524 0.0
C820 C 0.94948 0.43747 0.5756 0.0
C821 C 0.98366 0.45118 0.57333 0.0
C822 C 0.94842 0.39249 0.60682 0.0
C823 C 0.99907 0.43448 0.58778 0.0
C824 C 0.94931 0.34779 0.64165 0.0
C825 C 0.88179 0.31681 0.64161 0.0
N826 N 0.98145 0.4063 0.60382 0.0
N827 N 0.89811 0.34554 0.62597 0.0
H828 H 0.70653 0.621 0.6732 0.0
H829 H 0.57044 0.58127 0.50247 0.0
H830 H 0.72629 0.67141 0.56347 0.0
H831 H 0.54693 0.56578 0.62709 0.0
H832 H 0.62875 0.6068 0.52062 0.0
H833 H 0.64877 0.59172 0.65266 0.0
C834 C 0.69888 0.62543 0.64449 0.0
C835 C 0.72121 0.64866 0.62002 0.0
C836 C 0.61073 0.59784 0.54392 0.0
C837 C 0.65542 0.61542 0.59636 0.0
C838 C 0.57747 0.58337 0.53358 0.0
C839 C 0.55361 0.57167 0.56325 0.0
C840 C 0.6203 0.59996 0.58414 0.0
C841 C 0.56431 0.57481 0.60314 0.0
C842 C 0.66591 0.60898 0.63295 0.0
C843 C 0.70985 0.65376 0.58331 0.0
N844 N 0.59672 0.58839 0.61236 0.0
N845 N 0.67788 0.63731 0.57258 0.0
H846 H 0.99798 0.72055 0.17051 0.0
H847 H 0.05157 0.63048 1.01263 0.0
H848 H 0.95403 0.69256 0.05417 0.0
H849 H 0.05685 0.62108 0.1395 0.0
H850 H 0.03045 0.6672 0.02391 0.0
H851 H 0.03388 0.69773 0.15569 0.0
C852 C 0.99643 0.7103 0.14154 0.0
C853 C 0.97285 0.70832 0.11362 0.0
C854 C 0.03703 0.65765 0.04925 0.0
C855 C 1.01393 0.68241 0.09638 0.0
C856 C 0.04946 0.63702 0.0428 0.0
C857 C 0.05622 0.62294 0.07519 0.0
C858 C 0.03181 0.66457 0.08835 0.0
C859 C 0.05213 0.63159 0.11373 0.0
C860 C 0.01674 0.69711 0.1332 0.0
C861 C 0.9717 0.69442 0.07668 0.0
N862 N 0.04013 0.65171 0.11925 0.0
N863 N 0.9918 0.68199 0.06918 0.0
H864 H 0.45809 0.23949 0.13408 0.0
H865 H 0.42841 0.38176 0.07767 0.0
H866 H 0.36592 0.23838 0.15479 0.0
H867 H 0.51031 0.37042 0.03843 0.0
H868 H 0.40639 0.33184 0.11079 0.0
H869 H 0.47855 0.28959 0.10401 0.0
C870 C 0.44203 0.24978 0.13244 0.0
C871 C 0.41008 0.23446 0.14707 0.0
C872 C 0.42917 0.34032 0.09492 0.0
C873 C 0.43377 0.29258 0.11218 0.0
C874 C 0.44192 0.36894 0.07624 0.0
C875 C 0.47135 0.38041 0.05514 0.0
C876 C 0.44612 0.32315 0.09288 0.0
C877 C 0.48745 0.36247 0.0539 0.0
C878 C 0.45383 0.27853 0.11505 0.0
C879 C 0.39067 0.24926 0.14389 0.0
N880 N 0.4747 0.33491 0.07252 0.0
N881 N 0.40283 0.27756 0.12681 0.0
H882 H 0.72083 0.10669 0.14074 0.0
H883 H 0.52557 0.03381 0.12685 0.0
H884 H 0.66443 0.14162 0.2034 0.0
H885 H 0.58074 1.0054 0.05033 0.0
H886 H 0.57646 0.07155 0.15769 0.0
H887 H 0.66995 0.06652 0.11109 0.0
C888 C 0.69777 0.10559 0.1488 0.0
C889 C 0.6969 0.12757 0.17456 0.0
C890 C 0.57752 0.05718 0.13402 0.0
C891 C 0.63879 0.08209 0.14046 0.0
C892 C 0.54839 0.03566 0.11623 0.0
C893 C 0.54873 0.0164 0.08575 0.0
C894 C 0.60743 0.05947 0.12158 0.0
C895 C 0.57921 0.01986 0.07352 0.0
C896 C 0.66878 0.08288 0.13158 0.0
C897 C 0.66634 0.12528 0.18355 0.0
N898 N 0.60727 0.04084 0.09155 0.0
N899 N 0.63868 0.10312 0.16653 0.0
H900 H 0.59865 1.00472 0.45054 0.0
H901 H 0.7288 0.94066 0.45284 0.0
H902 H 0.63014 0.97722 0.55718 0.0
H903 H 0.69563 0.96599 0.34575 0.0
H904 H 0.69747 0.9593 0.49219 0.0
H905 H 0.63846 0.99612 0.41251 0.0
C906 C 0.61424 0.99734 0.46612 0.0
C907 C 0.61082 0.99159 0.50721 0.0
C908 C 0.69731 0.96108 0.46009 0.0
C909 C 0.65637 0.98132 0.46362 0.0
C910 C 0.71536 0.95054 0.43756 0.0
C911 C 0.71484 0.95157 0.39579 0.0
C912 C 0.67846 0.97273 0.44083 0.0
C913 C 0.69674 0.96455 0.37781 0.0
C914 C 0.6369 0.99227 0.44431 0.0
C915 C 0.63168 0.98185 0.52558 0.0
N916 N 0.67916 0.97436 0.40034 0.0
N917 N 0.6533 0.97683 0.50369 0.0
H918 H 1.01314 0.59663 0.43897 0.0
H919 H 0.08767 0.7794 0.43562 0.0
H920 H 0.02603 0.65132 0.54428 0.0
H921 H 0.06889 0.72351 0.3302 0.0
H922 H 0.06066 0.73264 0.47542 0.0
H923 H 0.02868 0.64233 0.39825 0.0
C924 C 0.01869 0.6181 0.45357 0.0
C925 C 0.01836 0.61999 0.49527 0.0
C926 C 0.06213 0.73062 0.44351 0.0
C927 C 0.03678 0.67279 0.44862 0.0
C928 C 0.07746 0.75737 0.42071 0.0
C929 C 0.0808 0.75554 0.37941 0.0
C930 C 0.05011 0.70173 0.42498 0.0
C931 C 0.06714 0.7262 0.36191 0.0
C932 C 0.02774 0.64429 0.43025 0.0
C933 C 0.026 0.64863 0.51232 0.0
N934 N 0.05273 0.7006 0.38474 0.0
N935 N 0.03518 0.67386 0.48904 0.0
H936 H 0.21315 0.39532 0.43835 0.0
H937 H 0.39585 0.53091 0.4113 0.0
H938 H 0.25288 0.43804 0.32591 0.0
H939 H 0.3633 0.47492 0.5165 0.0
H940 H 0.3405 0.5037 0.38382 0.0
H941 H 0.26464 0.43067 0.47108 0.0
C942 C 0.23243 0.41246 0.4206 0.0
C943 C 0.2286 0.41352 0.37917 0.0
C944 C 0.34536 0.49761 0.41313 0.0
C945 C 0.28785 0.45406 0.41658 0.0
C946 C 0.37699 0.51332 0.42903 0.0
C947 C 0.38448 0.50518 0.4663 0.0
C948 C 0.32078 0.4736 0.43462 0.0
C949 C 0.35883 0.48197 0.48762 0.0
C950 C 0.26194 0.43253 0.43931 0.0
C951 C 0.25467 0.43619 0.35783 0.0
N952 N 0.32828 0.46691 0.47141 0.0
N953 N 0.28312 0.45537 0.37668 0.0
H954 H 0.88991 0.84163 0.15134 0.0
H955 H 0.85868 0.87352 0.37609 0.0
H956 H 0.92484 0.8123 0.25338 0.0
H957 H 0.82433 0.903 0.27365 0.0
H958 H 0.88914 0.85705 0.33198 0.0
H959 H 0.87226 0.87011 0.19555 0.0
C960 C 0.89439 0.84154 0.183 0.0
C961 C 0.90871 0.82422 0.19853 0.0
C962 C 0.87532 0.8675 0.31914 0.0
C963 C 0.88799 0.85668 0.2497 0.0
C964 C 0.85795 0.87705 0.34438 0.0
C965 C 0.83864 0.88956 0.32869 0.0
C966 C 0.87336 0.87028 0.27771 0.0
C967 C 0.83878 0.89349 0.28724 0.0
C968 C 0.88415 0.85779 0.20831 0.0
C969 C 0.91386 0.82518 0.23993 0.0
N970 N 0.8555 0.88359 0.26326 0.0
N971 N 0.90317 0.84076 0.26403 0.0
H972 H 0.28349 0.0927 0.27754 0.0
H973 H 0.1526 0.9147 0.27111 0.0
H974 H 0.2448 0.04101 0.16904 0.0
H975 H 0.19368 0.96534 0.37975 0.0
H976 H 0.17999 0.96245 0.23374 0.0
H977 H 0.24504 0.04835 0.31555 0.0
C978 C 0.26659 0.07224 0.2616 0.0
C979 C 0.26768 0.07063 0.21992 0.0
C980 C 0.18267 0.96321 0.26582 0.0
C981 C 0.22364 0.01947 0.26348 0.0
C982 C 0.16684 0.9359 0.28727 0.0
C983 C 0.17096 0.93581 0.32875 0.0
C984 C 0.20292 0.99077 0.28584 0.0
C985 C 0.18987 0.96414 0.34785 0.0
C986 C 0.24468 0.04682 0.2834 0.0
C987 C 0.24511 0.04336 0.20109 0.0
N988 N 0.20539 0.99032 0.32626 0.0
N989 N 0.22431 0.01886 0.22296 0.0
H990 H 0.05332 0.33276 0.30833 0.0
H991 H 0.88426 0.19307 0.23017 0.0
H992 H 0.03576 0.23909 0.30069 0.0
H993 H 0.90515 0.28783 0.22816 0.0
H994 H 0.93948 0.20927 0.25663 0.0
H995 H 0.99866 0.31665 0.28009 0.0
C996 C 0.03804 0.30886 0.30081 0.0
C997 C 0.04931 0.28734 0.30698 0.0
C998 C 0.93196 0.2265 0.25024 0.0
C999 C 0.98661 0.26862 0.27459 0.0
C1000 C 0.90042 0.21723 0.23504 0.0
C1001 C 0.88987 0.23903 0.22686 0.0
C1002 C 0.95312 0.2578 0.25751 0.0
C1003 C 0.91202 0.27008 0.23397 0.0
C1004 C 1.00683 0.29964 0.2846 0.0
C1005 C 0.0283 0.25661 0.29651 0.0
N1006 N 0.94237 0.27846 0.24893 0.0
N1007 N 0.99812 0.24823 0.28098 0.0
H1008 H 0.31469 0.20909 0.70676 0.0
H1009 H 0.30288 0.34521 0.82543 0.0
H1010 H 0.39769 0.28189 0.76598 0.0
H1011 H 0.2212 0.26678 0.7729 0.0
H1012 H 0.33934 0.32546 0.80042 0.0
H1013 H 0.28134 0.23271 0.72735 0.0
C1014 C 0.32599 0.23011 0.72401 0.0
C1015 C 0.35913 0.24336 0.73468 0.0
C1016 C 0.31343 0.31273 0.79429 0.0
C1017 C 0.32077 0.27079 0.75865 0.0
C1018 C 0.29264 0.32408 0.80842 0.0
C1019 C 0.25883 0.30759 0.80157 0.0
C1020 C 0.30028 0.28483 0.77296 0.0
C1021 C 0.24699 0.28024 0.77938 0.0
C1022 C 0.30687 0.24365 0.73584 0.0
C1023 C 0.37226 0.27074 0.75709 0.0
N1024 N 0.26754 0.26981 0.76608 0.0
N1025 N 0.35309 0.28348 0.76839 0.0
H1026 H 0.76695 0.04979 0.68 0.0
H1027 H 0.70777 0.95718 0.88434 0.0
H1028 H 0.76269 0.09197 0.79065 0.0
H1029 H 0.70459 0.91422 0.77145 0.0
H1030 H 0.72512 1.00601 0.85028 0.0
H1031 H 0.74246 0.99996 0.71257 0.0
C1032 C 0.76099 0.04869 0.71121 0.0
C1033 C 0.7673 0.07543 0.73258 0.0
C1034 C 0.72031 0.98588 0.83285 0.0
C1035 C 0.73871 0.01782 0.77028 0.0
C1036 C 0.71025 0.95785 0.85229 0.0
C1037 C 0.70468 0.93135 0.83086 0.0
C1038 C 0.72519 0.98772 0.79152 0.0
C1039 C 0.70844 0.93388 0.78932 0.0
C1040 C 0.74673 0.02005 0.72977 0.0
C1041 C 0.75824 0.07213 0.77285 0.0
N1042 N 0.71872 0.96154 0.77115 0.0
N1043 N 0.74468 0.04398 0.79038 0.0
H1044 H 0.04928 0.76481 0.84174 0.0
H1045 H 0.91593 0.68493 0.66751 0.0
H1046 H 0.07355 0.74568 0.725 0.0
H1047 H 0.90272 0.72962 0.77048 0.0
H1048 H 0.96967 0.69476 0.69435 0.0
H1049 H 0.99166 0.73942 0.82231 0.0
C1050 C 0.04253 0.75477 0.81228 0.0
C1051 C 0.06654 0.75776 0.78489 0.0
C1052 C 0.95459 0.70171 0.71149 0.0
C1053 C 1.00024 0.72871 0.76226 0.0
C1054 C 0.92381 0.69577 0.6964 0.0
C1055 C 0.90471 0.70611 0.71715 0.0
C1056 C 0.96606 0.71784 0.74768 0.0
C1057 C 0.91648 0.72089 0.75388 0.0
C1058 C 1.00955 0.74039 0.8011 0.0
C1059 C 0.05603 0.74421 0.74706 0.0
N1060 N 0.9463 0.72639 0.76785 0.0
N1061 N 0.02377 0.73056 0.73676 0.0
loop_
_geom_bond_atom_site_label_1
_geom_bond_atom_site_label_2
_geom_bond_distance
_geom_bond_site_symmetry_2
_ccdc_geom_bond_type
Cu0 N1 1.999 1_554 S
Cu0 O6 1.974 1_554 S
Cu0 N11 1.985 . S
Cu0 O20 1.959 . S
N1 Cu0 1.999 1_556 S
N1 C3 1.263 . S
N1 C5 1.389 . S
N2 C3 1.358 . S
N2 C4 1.400 . S
C3 N1 1.263 . S
C3 N2 1.358 . S
C3 H9 0.930 . S
C4 N2 1.400 . S
C4 C5 1.351 . S
C4 H21 0.930 . S
C5 N1 1.389 . S
C5 C4 1.351 . S
C5 H10 0.930 . S
O6 Cu0 1.974 1_556 S
O6 C16 1.282 . S
C7 O8 1.261 . S
C7 O20 1.251 1_655 S
O8 C7 1.261 . S
H9 C3 0.930 . S
H10 C5 0.930 . S
N11 Cu0 1.985 . S
N11 C13 1.335 . S
N11 C14 1.390 . S
N12 C13 1.345 . S
N12 C15 1.336 . S
C13 N11 1.335 . S
C13 N12 1.345 . S
C13 H18 0.930 . S
C14 N11 1.390 . S
C14 C15 1.346 . S
C14 H19 0.930 . S
C15 N12 1.336 . S
C15 C14 1.346 . S
C15 H22 0.929 . S
C16 O6 1.282 . S
C16 O17 1.216 . S
O17 C16 1.216 . S
H18 C13 0.930 . S
H19 C14 0.930 . S
O20 Cu0 1.959 . S
O20 C7 1.251 1_455 S
H21 C4 0.930 . S
H22 C15 0.929 . S
Cu23 N24 1.999 . S
Cu23 O29 1.974 . S
Cu23 N34 1.985 . S
Cu23 O43 1.959 1_554 S
N24 Cu23 1.999 . S
N24 C26 1.263 . S
N24 C28 1.389 1_554 S
N25 C26 1.358 . S
N25 C27 1.400 . S
C26 N24 1.263 . S
C26 N25 1.358 . S
C26 H32 0.930 . S
C27 N25 1.400 . S
C27 C28 1.351 1_554 S
C27 H44 0.930 1_554 S
C28 N24 1.389 1_556 S
C28 C27 1.351 1_556 S
C28 H33 0.930 . S
O29 Cu23 1.974 . S
O29 C39 1.282 . S
C30 O31 1.261 . S
C30 O43 1.251 . S
O31 C30 1.261 . S
H32 C26 0.930 . S
H33 C28 0.930 . S
N34 Cu23 1.985 . S
N34 C36 1.335 1_554 S
N34 C37 1.390 . S
N35 C36 1.345 . S
N35 C38 1.336 1_556 S
C36 N34 1.335 1_556 S
C36 N35 1.345 . S
C36 H41 0.930 . S
C37 N34 1.390 . S
C37 C38 1.346 . S
C37 H42 0.930 . S
C38 N35 1.336 1_554 S
C38 C37 1.346 . S
C38 H45 0.929 . S
C39 O29 1.282 . S
C39 O40 1.216 . S
O40 C39 1.216 . S
H41 C36 0.930 . S
H42 C37 0.930 . S
O43 Cu23 1.959 1_556 S
O43 C30 1.251 . S
H44 C27 0.930 1_556 S
H45 C38 0.929 . S
Cu46 N47 1.999 1_554 S
Cu46 O52 1.974 1_544 S
Cu46 N57 1.985 . S
Cu46 O66 1.959 . S
N47 Cu46 1.999 1_556 S
N47 C49 1.263 . S
N47 C51 1.389 . S
N48 C49 1.358 . S
N48 C50 1.400 . S
C49 N47 1.263 . S
C49 N48 1.358 . S
C49 H55 0.930 . S
C50 N48 1.400 . S
C50 C51 1.351 . S
C50 H67 0.930 . S
C51 N47 1.389 . S
C51 C50 1.351 . S
C51 H56 0.930 . S
O52 Cu46 1.974 1_566 S
O52 C62 1.282 . S
C53 O54 1.261 . S
C53 O66 1.251 . S
O54 C53 1.261 . S
H55 C49 0.930 . S
H56 C51 0.930 . S
N57 Cu46 1.985 . S
N57 C59 1.335 . S
N57 C60 1.390 1_545 S
N58 C59 1.345 . S
N58 C61 1.336 1_545 S
C59 N57 1.335 . S
C59 N58 1.345 . S
C59 H64 0.930 . S
C60 N57 1.390 1_565 S
C60 C61 1.346 . S
C60 H65 0.930 . S
C61 N58 1.336 1_565 S
C61 C60 1.346 . S
C61 H68 0.929 . S
C62 O52 1.282 . S
C62 O63 1.216 1_565 S
O63 C62 1.216 1_545 S
H64 C59 0.930 . S
H65 C60 0.930 . S
O66 Cu46 1.959 . S
O66 C53 1.251 . S
H67 C50 0.930 . S
H68 C61 0.929 . S
Cu69 N70 1.999 . S
Cu69 O75 1.974 . S
Cu69 N80 1.985 . S
Cu69 O89 1.959 . S
N70 Cu69 1.999 . S
N70 C72 1.263 . S
N70 C74 1.389 . S
N71 C72 1.358 . S
N71 C73 1.400 . S
C72 N70 1.263 . S
C72 N71 1.358 . S
C72 H78 0.941 . S
C73 N71 1.400 . S
C73 C74 1.351 . S
C73 H90 0.930 . S
C74 N70 1.389 . S
C74 C73 1.351 . S
C74 H79 0.930 . S
O75 Cu69 1.974 . S
O75 C85 1.282 1_545 S
C76 O77 1.261 . S
C76 O89 1.251 . S
O77 C76 1.261 . S
H78 C72 0.941 . S
H79 C74 0.930 . S
N80 Cu69 1.985 . S
N80 C82 1.335 . S
N80 C83 1.390 1_545 S
N81 C82 1.345 . S
N81 C84 1.336 1_545 S
C82 N80 1.335 . S
C82 N81 1.345 . S
C82 H87 0.930 . S
C83 N80 1.390 1_565 S
C83 C84 1.346 . S
C83 H88 0.930 . S
C84 N81 1.336 1_565 S
C84 C83 1.346 . S
C84 H91 0.929 . S
C85 O75 1.282 1_565 S
C85 O86 1.216 . S
O86 C85 1.216 . S
H87 C82 0.930 . S
H88 C83 0.930 . S
O89 Cu69 1.959 . S
O89 C76 1.251 . S
H90 C73 0.930 . S
H91 C84 0.929 . S
Cu92 N93 1.999 . S
Cu92 O98 1.974 . S
Cu92 N103 1.985 . S
Cu92 O112 1.959 1_655 S
N93 Cu92 1.999 . S
N93 C95 1.272 . S
N93 C97 1.389 . S
N94 C95 1.358 . S
N94 C96 1.413 . S
C95 N93 1.272 . S
C95 N94 1.358 . S
C95 H101 0.917 1_655 S
C96 N94 1.413 . S
C96 C97 1.351 . S
C96 H113 0.930 . S
C97 N93 1.389 . S
C97 C96 1.351 . S
C97 H102 0.930 . S
O98 Cu92 1.974 . S
O98 C108 1.282 . S
C99 O100 1.261 . S
C99 O112 1.251 . S
O100 C99 1.261 . S
H101 C95 0.917 1_455 S
H102 C97 0.930 . S
N103 Cu92 1.985 . S
N103 C105 1.335 . S
N103 C106 1.390 . S
N104 C105 1.345 . S
N104 C107 1.336 . S
C105 N103 1.335 . S
C105 N104 1.345 . S
C105 H110 0.930 . S
C106 N103 1.390 . S
C106 C107 1.346 . S
C106 H111 0.930 . S
C107 N104 1.336 . S
C107 C106 1.346 . S
C107 H114 0.929 . S
C108 O98 1.282 . S
C108 O109 1.216 1_655 S
O109 C108 1.216 1_455 S
H110 C105 0.930 . S
H111 C106 0.930 . S
O112 Cu92 1.959 1_455 S
O112 C99 1.251 . S
H113 C96 0.930 . S
H114 C107 0.929 . S
Cu115 N116 1.999 . S
Cu115 O121 1.974 . S
Cu115 N126 1.985 . S
Cu115 O135 1.959 . S
N116 Cu115 1.999 . S
N116 C118 1.263 . S
N116 C120 1.389 . S
N117 C118 1.358 . S
N117 C119 1.400 . S
C118 N116 1.263 . S
C118 N117 1.358 . S
C118 H124 0.930 . S
C119 N117 1.400 . S
C119 C120 1.351 . S
C119 H136 0.930 . S
C120 N116 1.389 . S
C120 C119 1.351 . S
C120 H125 0.930 . S
O121 Cu115 1.974 . S
O121 C131 1.282 . S
C122 O123 1.261 . S
C122 O135 1.251 . S
O123 C122 1.261 . S
H124 C118 0.930 . S
H125 C120 0.930 . S
N126 Cu115 1.985 . S
N126 C128 1.335 . S
N126 C129 1.390 . S
N127 C128 1.345 . S
N127 C130 1.336 . S
C128 N126 1.335 . S
C128 N127 1.345 . S
C128 H133 0.930 . S
C129 N126 1.390 . S
C129 C130 1.346 . S
C129 H134 0.930 . S
C130 N127 1.336 . S
C130 C129 1.346 . S
C130 H137 0.929 . S
C131 O121 1.282 . S
C131 O132 1.216 . S
O132 C131 1.216 . S
H133 C128 0.930 . S
H134 C129 0.930 . S
O135 Cu115 1.959 . S
O135 C122 1.251 . S
H136 C119 0.930 . S
H137 C130 0.929 . S
Cu138 N139 1.999 . S
Cu138 O144 1.974 . S
Cu138 N149 1.985 . S
Cu138 O158 1.959 . S
N139 Cu138 1.999 . S
N139 C141 1.263 . S
N139 C143 1.389 . S
N140 C141 1.358 . S
N140 C142 1.400 . S
C141 N139 1.263 . S
C141 N140 1.358 . S
C141 H147 0.930 . S
C142 N140 1.400 . S
C142 C143 1.351 . S
C142 H159 0.930 . S
C143 N139 1.389 . S
C143 C142 1.351 . S
C143 H148 0.930 . S
O144 Cu138 1.974 . S
O144 C154 1.282 . S
C145 O146 1.261 . S
C145 O158 1.251 . S
O146 C145 1.261 . S
H147 C141 0.930 . S
H148 C143 0.930 . S
N149 Cu138 1.985 . S
N149 C151 1.335 . S
N149 C152 1.390 . S
N150 C151 1.345 . S
N150 C153 1.336 . S
C151 N149 1.335 . S
C151 N150 1.345 . S
C151 H156 0.930 . S
C152 N149 1.390 . S
C152 C153 1.346 . S
C152 H157 0.930 . S
C153 N150 1.336 . S
C153 C152 1.346 . S
C153 H160 0.929 . S
C154 O144 1.282 . S
C154 O155 1.216 . S
O155 C154 1.216 . S
H156 C151 0.930 . S
H157 C152 0.930 . S
O158 Cu138 1.959 . S
O158 C145 1.251 . S
H159 C142 0.930 . S
H160 C153 0.929 . S
Cu161 N162 1.999 . S
Cu161 O167 1.974 . S
Cu161 N172 1.985 . S
Cu161 O181 1.959 . S
N162 Cu161 1.999 . S
N162 C164 1.263 . S
N162 C166 1.389 . S
N163 C164 1.358 . S
N163 C165 1.400 . S
C164 N162 1.263 . S
C164 N163 1.358 . S
C164 H170 0.930 . S
C165 N163 1.400 . S
C165 C166 1.351 . S
C165 H182 0.930 . S
C166 N162 1.389 . S
C166 C165 1.351 . S
C166 H171 0.930 . S
O167 Cu161 1.974 . S
O167 C177 1.282 . S
C168 O169 1.261 . S
C168 O181 1.251 . S
O169 C168 1.261 . S
H170 C164 0.930 . S
H171 C166 0.930 . S
N172 Cu161 1.985 . S
N172 C174 1.335 . S
N172 C175 1.390 . S
N173 C174 1.345 . S
N173 C176 1.336 . S
C174 N172 1.335 . S
C174 N173 1.345 . S
C174 H179 0.930 . S
C175 N172 1.390 . S
C175 C176 1.346 . S
C175 H180 0.930 . S
C176 N173 1.336 . S
C176 C175 1.346 . S
C176 H183 0.929 . S
C177 O167 1.282 . S
C177 O178 1.216 . S
O178 C177 1.216 . S
H179 C174 0.930 . S
H180 C175 0.930 . S
O181 Cu161 1.959 . S
O181 C168 1.251 . S
H182 C165 0.930 . S
H183 C176 0.929 . S
Cu184 N185 1.999 . S
Cu184 O190 1.974 . S
Cu184 N195 1.985 . S
Cu184 O204 1.959 . S
N185 Cu184 1.999 . S
N185 C187 1.263 . S
N185 C189 1.389 . S
N186 C187 1.358 . S
N186 C188 1.400 . S
C187 N185 1.263 . S
C187 N186 1.358 . S
C187 H193 0.930 . S
C188 N186 1.400 . S
C188 C189 1.351 . S
C188 H205 0.930 . S
C189 N185 1.389 . S
C189 C188 1.351 . S
C189 H194 0.930 . S
O190 Cu184 1.974 . S
O190 C200 1.282 . S
C191 O192 1.261 . S
C191 O204 1.251 . S
O192 C191 1.261 . S
H193 C187 0.930 . S
H194 C189 0.930 . S
N195 Cu184 1.985 . S
N195 C197 1.335 . S
N195 C198 1.390 . S
N196 C197 1.345 . S
N196 C199 1.336 . S
C197 N195 1.335 . S
C197 N196 1.345 . S
C197 H202 0.930 . S
C198 N195 1.390 . S
C198 C199 1.346 . S
C198 H203 0.930 . S
C199 N196 1.336 . S
C199 C198 1.346 . S
C199 H206 0.929 . S
C200 O190 1.282 . S
C200 O201 1.216 . S
O201 C200 1.216 . S
H202 C197 0.930 . S
H203 C198 0.930 . S
O204 Cu184 1.959 . S
O204 C191 1.251 . S
H205 C188 0.930 . S
H206 C199 0.929 . S
Cu207 N208 1.999 . S
Cu207 O213 1.974 . S
Cu207 N218 1.985 . S
Cu207 O227 1.959 . S
N208 Cu207 1.999 . S
N208 C210 1.263 . S
N208 C212 1.389 . S
N209 C210 1.358 . S
N209 C211 1.400 . S
C210 N208 1.263 . S
C210 N209 1.358 . S
C210 H216 0.930 . S
C211 N209 1.400 . S
C211 C212 1.351 . S
C211 H228 0.930 . S
C212 N208 1.389 . S
C212 C211 1.351 . S
C212 H217 0.930 . S
O213 Cu207 1.974 . S
O213 C223 1.282 . S
C214 O215 1.261 . S
C214 O227 1.251 . S
O215 C214 1.261 . S
H216 C210 0.930 . S
H217 C212 0.930 . S
N218 Cu207 1.985 . S
N218 C220 1.335 . S
N218 C221 1.390 . S
N219 C220 1.345 . S
N219 C222 1.336 . S
C220 N218 1.335 . S
C220 N219 1.345 . S
C220 H225 0.930 . S
C221 N218 1.390 . S
C221 C222 1.346 . S
C221 H226 0.930 . S
C222 N219 1.336 . S
C222 C221 1.346 . S
C222 H229 0.929 . S
C223 O213 1.282 . S
C223 O224 1.216 . S
O224 C223 1.216 . S
H225 C220 0.930 . S
H226 C221 0.930 . S
O227 Cu207 1.959 . S
O227 C214 1.251 . S
H228 C211 0.930 . S
H229 C222 0.929 . S
Cu230 N231 1.999 . S
Cu230 O236 1.974 . S
Cu230 N241 1.985 . S
Cu230 O250 1.959 . S
N231 Cu230 1.999 . S
N231 C233 1.263 . S
N231 C235 1.389 . S
N232 C233 1.358 . S
N232 C234 1.400 . S
C233 N231 1.263 . S
C233 N232 1.358 . S
C233 H239 0.930 . S
C234 N232 1.400 . S
C234 C235 1.351 . S
C234 H251 0.930 . S
C235 N231 1.389 . S
C235 C234 1.351 . S
C235 H240 0.930 . S
O236 Cu230 1.974 . S
O236 C246 1.282 . S
C237 O238 1.261 . S
C237 O250 1.251 . S
O238 C237 1.261 . S
H239 C233 0.930 . S
H240 C235 0.930 . S
N241 Cu230 1.985 . S
N241 C243 1.335 . S
N241 C244 1.390 . S
N242 C243 1.345 . S
N242 C245 1.336 . S
C243 N241 1.335 . S
C243 N242 1.345 . S
C243 H248 0.930 . S
C244 N241 1.390 . S
C244 C245 1.346 . S
C244 H249 0.930 . S
C245 N242 1.336 . S
C245 C244 1.346 . S
C245 H252 0.929 . S
C246 O236 1.282 . S
C246 O247 1.216 . S
O247 C246 1.216 . S
H248 C243 0.930 . S
H249 C244 0.930 . S
O250 Cu230 1.959 . S
O250 C237 1.251 . S
H251 C234 0.930 . S
H252 C245 0.929 . S
Cu253 N254 1.999 . S
Cu253 O259 1.974 . S
Cu253 N264 1.985 . S
Cu253 O273 1.959 . S
N254 Cu253 1.999 . S
N254 C256 1.263 . S
N254 C258 1.389 . S
N255 C256 1.358 . S
N255 C257 1.400 . S
C256 N254 1.263 . S
C256 N255 1.358 . S
C256 H262 0.930 . S
C257 N255 1.400 . S
C257 C258 1.351 . S
C257 H274 0.930 . S
C258 N254 1.389 . S
C258 C257 1.351 . S
C258 H263 0.930 . S
O259 Cu253 1.974 . S
O259 C269 1.282 . S
C260 O261 1.261 . S
C260 O273 1.251 . S
O261 C260 1.261 . S
H262 C256 0.930 . S
H263 C258 0.930 . S
N264 Cu253 1.985 . S
N264 C266 1.335 . S
N264 C267 1.390 . S
N265 C266 1.345 . S
N265 C268 1.336 . S
C266 N264 1.335 . S
C266 N265 1.345 . S
C266 H271 0.930 . S
C267 N264 1.390 . S
C267 C268 1.346 . S
C267 H272 0.930 . S
C268 N265 1.336 . S
C268 C267 1.346 . S
C268 H275 0.929 . S
C269 O259 1.282 . S
C269 O270 1.216 . S
O270 C269 1.216 . S
H271 C266 0.930 . S
H272 C267 0.930 . S
O273 Cu253 1.959 . S
O273 C260 1.251 . S
H274 C257 0.930 . S
H275 C268 0.929 . S
Cu276 N277 1.999 . S
Cu276 O282 1.974 . S
Cu276 N287 1.985 . S
Cu276 O296 1.959 . S
N277 Cu276 1.999 . S
N277 C279 1.263 . S
N277 C281 1.389 . S
N278 C279 1.358 . S
N278 C280 1.400 . S
C279 N277 1.263 . S
C279 N278 1.358 . S
C279 H285 0.930 . S
C280 N278 1.400 . S
C280 C281 1.351 . S
C280 H297 0.930 . S
C281 N277 1.389 . S
C281 C280 1.351 . S
C281 H286 0.930 . S
O282 Cu276 1.974 . S
O282 C292 1.282 . S
C283 O284 1.261 . S
C283 O296 1.251 . S
O284 C283 1.261 . S
H285 C279 0.930 . S
H286 C281 0.930 . S
N287 Cu276 1.985 . S
N287 C289 1.335 . S
N287 C290 1.390 . S
N288 C289 1.345 . S
N288 C291 1.336 . S
C289 N287 1.335 . S
C289 N288 1.345 . S
C289 H294 0.930 . S
C290 N287 1.390 . S
C290 C291 1.346 . S
C290 H295 0.930 . S
C291 N288 1.336 . S
C291 C290 1.346 . S
C291 H298 0.929 . S
C292 O282 1.282 . S
C292 O293 1.216 . S
O293 C292 1.216 . S
H294 C289 0.930 . S
H295 C290 0.930 . S
O296 Cu276 1.959 . S
O296 C283 1.251 . S
H297 C280 0.930 . S
H298 C291 0.929 . S
Cu299 N300 1.999 . S
Cu299 O305 1.974 . S
Cu299 N310 1.985 . S
Cu299 O319 1.959 . S
N300 Cu299 1.999 . S
N300 C302 1.263 . S
N300 C304 1.389 . S
N301 C302 1.358 . S
N301 C303 1.400 . S
C302 N300 1.263 . S
C302 N301 1.358 . S
C302 H308 0.930 . S
C303 N301 1.400 . S
C303 C304 1.351 . S
C303 H320 0.930 . S
C304 N300 1.389 . S
C304 C303 1.351 . S
C304 H309 0.930 . S
O305 Cu299 1.974 . S
O305 C315 1.282 . S
C306 O307 1.261 . S
C306 O319 1.251 . S
O307 C306 1.261 . S
H308 C302 0.930 . S
H309 C304 0.930 . S
N310 Cu299 1.985 . S
N310 C312 1.335 . S
N310 C313 1.390 . S
N311 C312 1.345 . S
N311 C314 1.336 . S
C312 N310 1.335 . S
C312 N311 1.345 . S
C312 H317 0.930 . S
C313 N310 1.390 . S
C313 C314 1.346 . S
C313 H318 0.930 . S
C314 N311 1.336 . S
C314 C313 1.346 . S
C314 H321 0.929 . S
C315 O305 1.282 . S
C315 O316 1.216 . S
O316 C315 1.216 . S
H317 C312 0.930 . S
H318 C313 0.930 . S
O319 Cu299 1.959 . S
O319 C306 1.251 . S
H320 C303 0.930 . S
H321 C314 0.929 . S
Cu322 N323 1.999 . S
Cu322 O328 1.974 . S
Cu322 N333 1.985 . S
Cu322 O342 1.959 . S
N323 Cu322 1.999 . S
N323 C325 1.263 . S
N323 C327 1.389 . S
N324 C325 1.358 . S
N324 C326 1.400 . S
C325 N323 1.263 . S
C325 N324 1.358 . S
C325 H331 0.930 . S
C326 N324 1.400 . S
C326 C327 1.351 . S
C326 H343 0.930 . S
C327 N323 1.389 . S
C327 C326 1.351 . S
C327 H332 0.930 . S
O328 Cu322 1.974 . S
O328 C338 1.282 . S
C329 O330 1.261 . S
C329 O342 1.251 . S
O330 C329 1.261 . S
H331 C325 0.930 . S
H332 C327 0.930 . S
N333 Cu322 1.985 . S
N333 C335 1.335 . S
N333 C336 1.390 . S
N334 C335 1.345 . S
N334 C337 1.336 . S
C335 N333 1.335 . S
C335 N334 1.345 . S
C335 H340 0.930 . S
C336 N333 1.390 . S
C336 C337 1.346 . S
C336 H341 0.930 . S
C337 N334 1.336 . S
C337 C336 1.346 . S
C337 H344 0.929 . S
C338 O328 1.282 . S
C338 O339 1.216 . S
O339 C338 1.216 . S
H340 C335 0.930 . S
H341 C336 0.930 . S
O342 Cu322 1.959 . S
O342 C329 1.251 . S
H343 C326 0.930 . S
H344 C337 0.929 . S
Cu345 N346 1.999 . S
Cu345 O351 1.974 . S
Cu345 N356 1.985 . S
Cu345 O365 1.959 . S
N346 Cu345 1.999 . S
N346 C348 1.263 . S
N346 C350 1.389 . S
N347 C348 1.358 . S
N347 C349 1.400 . S
C348 N346 1.263 . S
C348 N347 1.358 . S
C348 H354 0.930 . S
C349 N347 1.400 . S
C349 C350 1.351 . S
C349 H366 0.930 . S
C350 N346 1.389 . S
C350 C349 1.351 . S
C350 H355 0.930 . S
O351 Cu345 1.974 . S
O351 C361 1.282 . S
C352 O353 1.261 . S
C352 O365 1.251 . S
O353 C352 1.261 . S
H354 C348 0.930 . S
H355 C350 0.930 . S
N356 Cu345 1.985 . S
N356 C358 1.335 . S
N356 C359 1.390 . S
N357 C358 1.345 . S
N357 C360 1.336 . S
C358 N356 1.335 . S
C358 N357 1.345 . S
C358 H363 0.930 . S
C359 N356 1.390 . S
C359 C360 1.346 . S
C359 H364 0.930 . S
C360 N357 1.336 . S
C360 C359 1.346 . S
C360 H367 0.929 . S
C361 O351 1.282 . S
C361 O362 1.216 . S
O362 C361 1.216 . S
H363 C358 0.930 . S
H364 C359 0.930 . S
O365 Cu345 1.959 . S
O365 C352 1.251 . S
H366 C349 0.930 . S
H367 C360 0.929 . S
Cu368 N369 1.999 . S
Cu368 O374 1.974 . S
Cu368 N379 1.985 . S
Cu368 O388 1.959 . S
N369 Cu368 1.999 . S
N369 C371 1.263 . S
N369 C373 1.389 . S
N370 C371 1.358 . S
N370 C372 1.400 . S
C371 N369 1.263 . S
C371 N370 1.358 . S
C371 H377 0.930 . S
C372 N370 1.400 . S
C372 C373 1.351 . S
C372 H389 0.930 . S
C373 N369 1.389 . S
C373 C372 1.351 . S
C373 H378 0.930 . S
O374 Cu368 1.974 . S
O374 C384 1.282 . S
C375 O376 1.261 . S
C375 O388 1.251 . S
O376 C375 1.261 . S
H377 C371 0.930 . S
H378 C373 0.930 . S
N379 Cu368 1.985 . S
N379 C381 1.335 . S
N379 C382 1.390 . S
N380 C381 1.345 . S
N380 C383 1.336 . S
C381 N379 1.335 . S
C381 N380 1.345 . S
C381 H386 0.930 . S
C382 N379 1.390 . S
C382 C383 1.346 . S
C382 H387 0.930 . S
C383 N380 1.336 . S
C383 C382 1.346 . S
C383 H390 0.929 . S
C384 O374 1.282 . S
C384 O385 1.216 . S
O385 C384 1.216 . S
H386 C381 0.930 . S
H387 C382 0.930 . S
O388 Cu368 1.959 . S
O388 C375 1.251 . S
H389 C372 0.930 . S
H390 C383 0.929 . S
Cu391 N392 1.999 . S
Cu391 O397 1.974 . S
Cu391 N402 1.985 . S
Cu391 O411 1.959 . S
N392 Cu391 1.999 . S
N392 C394 1.263 . S
N392 C396 1.389 . S
N393 C394 1.358 . S
N393 C395 1.400 . S
C394 N392 1.263 . S
C394 N393 1.358 . S
C394 H400 0.930 . S
C395 N393 1.400 . S
C395 C396 1.351 . S
C395 H412 0.930 . S
C396 N392 1.389 . S
C396 C395 1.351 . S
C396 H401 0.930 . S
O397 Cu391 1.974 . S
O397 C407 1.282 . S
C398 O399 1.261 . S
C398 O411 1.251 . S
O399 C398 1.261 . S
H400 C394 0.930 . S
H401 C396 0.930 . S
N402 Cu391 1.985 . S
N402 C404 1.335 . S
N402 C405 1.390 . S
N403 C404 1.345 . S
N403 C406 1.336 . S
C404 N402 1.335 . S
C404 N403 1.345 . S
C404 H409 0.930 . S
C405 N402 1.390 . S
C405 C406 1.346 . S
C405 H410 0.930 . S
C406 N403 1.336 . S
C406 C405 1.346 . S
C406 H413 0.929 . S
C407 O397 1.282 . S
C407 O408 1.216 . S
O408 C407 1.216 . S
H409 C404 0.930 . S
H410 C405 0.930 . S
O411 Cu391 1.959 . S
O411 C398 1.251 . S
H412 C395 0.930 . S
H413 C406 0.929 . S
H414 C420 0.930 . S
H415 C424 0.930 . S
H416 C429 0.929 . S
H417 C427 0.925 1_655 S
H418 C422 0.929 . S
H419 C428 0.929 . S
C420 H414 0.930 . S
C420 C421 1.367 . S
C420 C428 1.378 . S
C421 C420 1.367 . S
C421 C429 1.433 1_655 S
C422 H418 0.929 . S
C422 C424 1.378 . S
C422 C426 1.350 . S
C423 C426 1.463 . S
C423 C428 1.350 1_455 S
C423 N431 1.427 . S
C424 H415 0.930 . S
C424 C422 1.378 . S
C424 C425 1.367 . S
C425 C424 1.367 . S
C425 C427 1.441 . S
C426 C422 1.350 . S
C426 C423 1.463 . S
C426 N430 1.427 1_455 S
C427 H417 0.925 1_455 S
C427 C425 1.441 . S
C427 N430 1.381 1_455 S
C428 H419 0.929 . S
C428 C420 1.378 . S
C428 C423 1.350 1_655 S
C429 H416 0.929 . S
C429 C421 1.433 1_455 S
C429 N431 1.384 . S
N430 C426 1.427 1_655 S
N430 C427 1.381 1_655 S
N431 C423 1.427 . S
N431 C429 1.384 . S
H432 C438 0.930 . S
H433 C442 0.930 . S
H434 C447 0.929 . S
H435 C445 0.929 . S
H436 C440 0.929 . S
H437 C446 0.929 . S
C438 H432 0.930 . S
C438 C439 1.367 . S
C438 C446 1.378 . S
C439 C438 1.367 . S
C439 C447 1.433 . S
C440 H436 0.929 . S
C440 C442 1.378 . S
C440 C444 1.350 . S
C441 C444 1.463 . S
C441 C446 1.350 . S
C441 N449 1.427 . S
C442 H433 0.930 . S
C442 C440 1.378 . S
C442 C443 1.367 . S
C443 C442 1.367 . S
C443 C445 1.433 . S
C444 C440 1.350 . S
C444 C441 1.463 . S
C444 N448 1.427 . S
C445 H435 0.929 . S
C445 C443 1.433 . S
C445 N448 1.384 . S
C446 H437 0.929 . S
C446 C438 1.378 . S
C446 C441 1.350 . S
C447 H434 0.929 . S
C447 C439 1.433 . S
C447 N449 1.384 . S
N448 C444 1.427 . S
N448 C445 1.384 . S
N449 C441 1.427 . S
N449 C447 1.384 . S
H450 C456 0.930 . S
H451 C460 0.930 1_565 S
H452 C465 0.929 . S
H453 C463 0.929 . S
H454 C458 0.929 . S
H455 C464 0.929 . S
C456 H450 0.930 . S
C456 C457 1.367 . S
C456 C464 1.378 . S
C457 C456 1.367 . S
C457 C465 1.433 1_545 S
C458 H454 0.929 . S
C458 C460 1.378 1_565 S
C458 C462 1.350 1_565 S
C459 C462 1.463 . S
C459 C464 1.350 . S
C459 N467 1.427 1_545 S
C460 H451 0.930 1_545 S
C460 C458 1.378 1_545 S
C460 C461 1.367 . S
C461 C460 1.367 . S
C461 C463 1.433 . S
C462 C458 1.350 1_545 S
C462 C459 1.463 . S
C462 N466 1.427 . S
C463 H453 0.929 . S
C463 C461 1.433 . S
C463 N466 1.384 . S
C464 H455 0.929 . S
C464 C456 1.378 . S
C464 C459 1.350 . S
C465 H452 0.929 . S
C465 C457 1.433 1_565 S
C465 N467 1.384 . S
N466 C462 1.427 . S
N466 C463 1.384 . S
N467 C459 1.427 1_565 S
N467 C465 1.384 . S
H468 C474 0.930 . S
H469 C478 0.930 . S
H470 C483 0.929 . S
H471 C481 0.929 . S
H472 C476 0.929 . S
H473 C482 0.929 . S
C474 H468 0.930 . S
C474 C475 1.367 . S
C474 C482 1.378 . S
C475 C474 1.367 . S
C475 C483 1.433 . S
C476 H472 0.929 . S
C476 C478 1.378 . S
C476 C480 1.350 . S
C477 C480 1.463 . S
C477 C482 1.350 . S
C477 N485 1.427 . S
C478 H469 0.930 . S
C478 C476 1.378 . S
C478 C479 1.367 . S
C479 C478 1.367 . S
C479 C481 1.433 . S
C480 C476 1.350 . S
C480 C477 1.463 . S
C480 N484 1.427 . S
C481 H471 0.929 . S
C481 C479 1.433 . S
C481 N484 1.384 . S
C482 H473 0.929 . S
C482 C474 1.378 . S
C482 C477 1.350 . S
C483 H470 0.929 . S
C483 C475 1.433 . S
C483 N485 1.384 . S
N484 C480 1.427 . S
N484 C481 1.384 . S
N485 C477 1.427 . S
N485 C483 1.384 . S
H486 C492 0.930 . S
H487 C496 0.930 . S
H488 C501 0.929 . S
H489 C499 0.929 . S
H490 C494 0.929 . S
H491 C500 0.929 . S
C492 H486 0.930 . S
C492 C493 1.367 . S
C492 C500 1.378 . S
C493 C492 1.367 . S
C493 C501 1.433 . S
C494 H490 0.929 . S
C494 C496 1.378 . S
C494 C498 1.350 . S
C495 C498 1.463 . S
C495 C500 1.350 . S
C495 N503 1.427 . S
C496 H487 0.930 . S
C496 C494 1.378 . S
C496 C497 1.367 . S
C497 C496 1.367 . S
C497 C499 1.433 . S
C498 C494 1.350 . S
C498 C495 1.463 . S
C498 N502 1.427 . S
C499 H489 0.929 . S
C499 C497 1.433 . S
C499 N502 1.384 . S
C500 H491 0.929 . S
C500 C492 1.378 . S
C500 C495 1.350 . S
C501 H488 0.929 . S
C501 C493 1.433 . S
C501 N503 1.384 . S
N502 C498 1.427 . S
N502 C499 1.384 . S
N503 C495 1.427 . S
N503 C501 1.384 . S
H504 C510 0.930 . S
H505 C514 0.930 . S
H506 C519 0.929 . S
H507 C517 0.929 . S
H508 C512 0.929 . S
H509 C518 0.929 . S
C510 H504 0.930 . S
C510 C511 1.367 . S
C510 C518 1.378 . S
C511 C510 1.367 . S
C511 C519 1.433 1_545 S
C512 H508 0.929 . S
C512 C514 1.378 . S
C512 C516 1.350 1_565 S
C513 C516 1.463 . S
C513 C518 1.350 . S
C513 N521 1.427 1_545 S
C514 H505 0.930 . S
C514 C512 1.378 . S
C514 C515 1.367 1_565 S
C515 C514 1.367 1_545 S
C515 C517 1.433 . S
C516 C512 1.350 1_545 S
C516 C513 1.463 . S
C516 N520 1.427 . S
C517 H507 0.929 . S
C517 C515 1.433 . S
C517 N520 1.384 . S
C518 H509 0.929 . S
C518 C510 1.378 . S
C518 C513 1.350 . S
C519 H506 0.929 . S
C519 C511 1.433 1_565 S
C519 N521 1.384 . S
N520 C516 1.427 . S
N520 C517 1.384 . S
N521 C513 1.427 1_565 S
N521 C519 1.384 . S
H522 C528 0.930 . S
H523 C532 0.930 . S
H524 C537 0.929 . S
H525 C535 0.929 . S
H526 C530 0.929 . S
H527 C536 0.929 . S
C528 H522 0.930 . S
C528 C529 1.367 . S
C528 C536 1.378 . S
C529 C528 1.367 . S
C529 C537 1.433 . S
C530 H526 0.929 . S
C530 C532 1.378 . S
C530 C534 1.350 . S
C531 C534 1.463 . S
C531 C536 1.350 . S
C531 N539 1.427 . S
C532 H523 0.930 . S
C532 C530 1.378 . S
C532 C533 1.367 . S
C533 C532 1.367 . S
C533 C535 1.433 . S
C534 C530 1.350 . S
C534 C531 1.463 . S
C534 N538 1.427 . S
C535 H525 0.929 . S
C535 C533 1.433 . S
C535 N538 1.384 . S
C536 H527 0.929 . S
C536 C528 1.378 . S
C536 C531 1.350 . S
C537 H524 0.929 . S
C537 C529 1.433 . S
C537 N539 1.384 . S
N538 C534 1.427 . S
N538 C535 1.384 . S
N539 C531 1.427 . S
N539 C537 1.384 . S
H540 C546 0.930 . S
H541 C550 0.930 . S
H542 C555 0.929 . S
H543 C553 0.929 . S
H544 C548 0.929 . S
H545 C554 0.929 . S
C546 H540 0.930 . S
C546 C547 1.367 . S
C546 C554 1.378 . S
C547 C546 1.367 . S
C547 C555 1.433 . S
C548 H544 0.929 . S
C548 C550 1.378 . S
C548 C552 1.350 . S
C549 C552 1.463 . S
C549 C554 1.350 . S
C549 N557 1.427 . S
C550 H541 0.930 . S
C550 C548 1.378 . S
C550 C551 1.367 . S
C551 C550 1.367 . S
C551 C553 1.433 . S
C552 C548 1.350 . S
C552 C549 1.463 . S
C552 N556 1.427 . S
C553 H543 0.929 . S
C553 C551 1.433 . S
C553 N556 1.384 . S
C554 H545 0.929 . S
C554 C546 1.378 . S
C554 C549 1.350 . S
C555 H542 0.929 . S
C555 C547 1.433 . S
C555 N557 1.384 . S
N556 C552 1.427 . S
N556 C553 1.384 . S
N557 C549 1.427 . S
N557 C555 1.384 . S
H558 C564 0.930 . S
H559 C568 0.930 . S
H560 C573 0.929 . S
H561 C571 0.929 . S
H562 C566 0.929 . S
H563 C572 0.929 . S
C564 H558 0.930 . S
C564 C565 1.367 . S
C564 C572 1.378 . S
C565 C564 1.367 . S
C565 C573 1.433 . S
C566 H562 0.929 . S
C566 C568 1.378 . S
C566 C570 1.350 . S
C567 C570 1.463 . S
C567 C572 1.350 . S
C567 N575 1.427 . S
C568 H559 0.930 . S
C568 C566 1.378 . S
C568 C569 1.367 . S
C569 C568 1.367 . S
C569 C571 1.433 . S
C570 C566 1.350 . S
C570 C567 1.463 . S
C570 N574 1.427 . S
C571 H561 0.929 . S
C571 C569 1.433 . S
C571 N574 1.384 . S
C572 H563 0.929 . S
C572 C564 1.378 . S
C572 C567 1.350 . S
C573 H560 0.929 . S
C573 C565 1.433 . S
C573 N575 1.384 . S
N574 C570 1.427 . S
N574 C571 1.384 . S
N575 C567 1.427 . S
N575 C573 1.384 . S
H576 C582 0.930 . S
H577 C586 0.930 1_556 S
H578 C591 0.929 . S
H579 C589 0.929 1_556 S
H580 C584 0.929 . S
H581 C590 0.929 . S
C582 H576 0.930 . S
C582 C583 1.367 . S
C582 C590 1.378 . S
C583 C582 1.367 . S
C583 C591 1.433 . S
C584 H580 0.929 . S
C584 C586 1.378 . S
C584 C588 1.350 . S
C585 C588 1.463 . S
C585 C590 1.350 . S
C585 N593 1.427 . S
C586 H577 0.930 1_554 S
C586 C584 1.378 . S
C586 C587 1.367 1_554 S
C587 C586 1.367 1_556 S
C587 C589 1.433 1_556 S
C588 C584 1.350 . S
C588 C585 1.463 . S
C588 N592 1.427 . S
C589 H579 0.929 1_554 S
C589 C587 1.433 1_554 S
C589 N592 1.384 . S
C590 H581 0.929 . S
C590 C582 1.378 . S
C590 C585 1.350 . S
C591 H578 0.929 . S
C591 C583 1.433 . S
C591 N593 1.384 . S
N592 C588 1.427 . S
N592 C589 1.384 . S
N593 C585 1.427 . S
N593 C591 1.384 . S
H594 C600 0.930 . S
H595 C604 0.930 . S
H596 C609 0.929 1_556 S
H597 C607 0.929 . S
H598 C602 0.929 . S
H599 C608 0.929 . S
C600 H594 0.930 . S
C600 C601 1.367 1_554 S
C600 C608 1.378 . S
C601 C600 1.367 1_556 S
C601 C609 1.433 1_556 S
C602 H598 0.929 . S
C602 C604 1.378 . S
C602 C606 1.350 . S
C603 C606 1.463 . S
C603 C608 1.350 . S
C603 N611 1.427 . S
C604 H595 0.930 . S
C604 C602 1.378 . S
C604 C605 1.367 . S
C605 C604 1.367 . S
C605 C607 1.433 . S
C606 C602 1.350 . S
C606 C603 1.463 . S
C606 N610 1.427 . S
C607 H597 0.929 . S
C607 C605 1.433 . S
C607 N610 1.384 . S
C608 H599 0.929 . S
C608 C600 1.378 . S
C608 C603 1.350 . S
C609 H596 0.929 1_554 S
C609 C601 1.433 1_554 S
C609 N611 1.384 . S
N610 C606 1.427 . S
N610 C607 1.384 . S
N611 C603 1.427 . S
N611 C609 1.384 . S
H612 C618 0.930 1_556 S
H613 C622 0.930 . S
H614 C627 0.930 1_556 S
H615 C625 0.929 . S
H616 C620 0.929 . S
H617 C626 0.929 . S
C618 H612 0.930 1_554 S
C618 C619 1.367 1_554 S
C618 C626 1.378 . S
C619 C618 1.367 1_556 S
C619 C627 1.433 1_556 S
C620 H616 0.929 . S
C620 C622 1.378 . S
C620 C624 1.350 . S
C621 C624 1.463 . S
C621 C626 1.350 . S
C621 N629 1.427 . S
C622 H613 0.930 . S
C622 C620 1.378 . S
C622 C623 1.367 . S
C623 C622 1.367 . S
C623 C625 1.433 . S
C624 C620 1.350 . S
C624 C621 1.463 . S
C624 N628 1.427 . S
C625 H615 0.929 . S
C625 C623 1.433 . S
C625 N628 1.384 . S
C626 H617 0.929 . S
C626 C618 1.378 . S
C626 C621 1.350 . S
C627 H614 0.930 1_554 S
C627 C619 1.433 1_554 S
C627 N629 1.384 . S
N628 C624 1.427 . S
N628 C625 1.384 . S
N629 C621 1.427 . S
N629 C627 1.384 . S
H630 C636 0.930 . S
H631 C640 0.930 . S
H632 C645 0.929 1_554 S
H633 C643 0.929 . S
H634 C638 0.929 . S
H635 C644 0.929 . S
C636 H630 0.930 . S
C636 C637 1.367 . S
C636 C644 1.378 1_554 S
C637 C636 1.367 . S
C637 C645 1.433 1_554 S
C638 H634 0.929 . S
C638 C640 1.378 . S
C638 C642 1.350 . S
C639 C642 1.463 . S
C639 C644 1.350 . S
C639 N647 1.427 . S
C640 H631 0.930 . S
C640 C638 1.378 . S
C640 C641 1.367 . S
C641 C640 1.367 . S
C641 C643 1.433 . S
C642 C638 1.350 . S
C642 C639 1.463 . S
C642 N646 1.427 . S
C643 H633 0.929 . S
C643 C641 1.433 . S
C643 N646 1.384 . S
C644 H635 0.929 . S
C644 C636 1.378 1_556 S
C644 C639 1.350 . S
C645 H632 0.929 1_556 S
C645 C637 1.433 1_556 S
C645 N647 1.384 . S
N646 C642 1.427 . S
N646 C643 1.384 . S
N647 C639 1.427 . S
N647 C645 1.384 . S
H648 C654 0.930 . S
H649 C658 0.930 . S
H650 C663 0.929 . S
H651 C661 0.929 1_554 S
H652 C656 0.929 . S
H653 C662 0.929 . S
C654 H648 0.930 . S
C654 C655 1.367 . S
C654 C662 1.378 . S
C655 C654 1.367 . S
C655 C663 1.433 . S
C656 H652 0.929 . S
C656 C658 1.378 . S
C656 C660 1.350 . S
C657 C660 1.463 . S
C657 C662 1.350 . S
C657 N665 1.427 . S
C658 H649 0.930 . S
C658 C656 1.378 . S
C658 C659 1.367 1_556 S
C659 C658 1.367 1_554 S
C659 C661 1.433 1_554 S
C660 C656 1.350 . S
C660 C657 1.463 . S
C660 N664 1.427 . S
C661 H651 0.929 1_556 S
C661 C659 1.433 1_556 S
C661 N664 1.384 . S
C662 H653 0.929 . S
C662 C654 1.378 . S
C662 C657 1.350 . S
C663 H650 0.929 . S
C663 C655 1.433 . S
C663 N665 1.384 . S
N664 C660 1.427 . S
N664 C661 1.384 . S
N665 C657 1.427 . S
N665 C663 1.384 . S
H666 C672 0.930 1_554 S
H667 C676 0.930 . S
H668 C681 0.929 . S
H669 C679 0.929 . S
H670 C674 0.929 . S
H671 C680 0.929 . S
C672 H666 0.930 1_556 S
C672 C673 1.367 1_556 S
C672 C680 1.378 . S
C673 C672 1.367 1_554 S
C673 C681 1.433 . S
C674 H670 0.929 . S
C674 C676 1.378 . S
C674 C678 1.350 . S
C675 C678 1.463 . S
C675 C680 1.350 . S
C675 N683 1.427 . S
C676 H667 0.930 . S
C676 C674 1.378 . S
C676 C677 1.367 . S
C677 C676 1.367 . S
C677 C679 1.433 . S
C678 C674 1.350 . S
C678 C675 1.463 . S
C678 N682 1.427 . S
C679 H669 0.929 . S
C679 C677 1.433 . S
C679 N682 1.384 . S
C680 H671 0.929 . S
C680 C672 1.378 . S
C680 C675 1.350 . S
C681 H668 0.929 . S
C681 C673 1.433 . S
C681 N683 1.384 1_554 S
N682 C678 1.427 . S
N682 C679 1.384 . S
N683 C675 1.427 . S
N683 C681 1.384 1_556 S
H684 C690 0.930 . S
H685 C694 0.930 . S
H686 C699 0.929 . S
H687 C697 0.929 . S
H688 C692 0.929 . S
H689 C698 0.929 . S
C690 H684 0.930 . S
C690 C691 1.367 . S
C690 C698 1.378 . S
C691 C690 1.367 . S
C691 C699 1.433 . S
C692 H688 0.929 . S
C692 C694 1.378 . S
C692 C696 1.350 . S
C693 C696 1.463 . S
C693 C698 1.350 . S
C693 N701 1.427 . S
C694 H685 0.930 . S
C694 C692 1.378 . S
C694 C695 1.367 . S
C695 C694 1.367 . S
C695 C697 1.433 . S
C696 C692 1.350 . S
C696 C693 1.463 . S
C696 N700 1.427 . S
C697 H687 0.929 . S
C697 C695 1.433 . S
C697 N700 1.384 . S
C698 H689 0.929 . S
C698 C690 1.378 . S
C698 C693 1.350 . S
C699 H686 0.929 . S
C699 C691 1.433 . S
C699 N701 1.384 . S
N700 C696 1.427 . S
N700 C697 1.384 . S
N701 C693 1.427 . S
N701 C699 1.384 . S
H702 C708 0.930 . S
H703 C712 0.930 . S
H704 C717 0.929 . S
H705 C715 0.929 . S
H706 C710 0.929 . S
H707 C716 0.929 . S
C708 H702 0.930 . S
C708 C709 1.367 . S
C708 C716 1.378 . S
C709 C708 1.367 . S
C709 C717 1.433 . S
C710 H706 0.929 . S
C710 C712 1.378 . S
C710 C714 1.350 . S
C711 C714 1.463 . S
C711 C716 1.350 . S
C711 N719 1.427 . S
C712 H703 0.930 . S
C712 C710 1.378 . S
C712 C713 1.367 . S
C713 C712 1.367 . S
C713 C715 1.433 . S
C714 C710 1.350 . S
C714 C711 1.463 . S
C714 N718 1.427 . S
C715 H705 0.929 . S
C715 C713 1.433 . S
C715 N718 1.384 . S
C716 H707 0.929 . S
C716 C708 1.378 . S
C716 C711 1.350 . S
C717 H704 0.929 . S
C717 C709 1.433 . S
C717 N719 1.384 . S
N718 C714 1.427 . S
N718 C715 1.384 . S
N719 C711 1.427 . S
N719 C717 1.384 . S
H720 C726 0.930 . S
H721 C730 0.930 . S
H722 C735 0.929 . S
H723 C733 0.929 . S
H724 C728 0.929 . S
H725 C734 0.929 . S
C726 H720 0.930 . S
C726 C727 1.367 . S
C726 C734 1.378 . S
C727 C726 1.367 . S
C727 C735 1.433 . S
C728 H724 0.929 . S
C728 C730 1.378 . S
C728 C732 1.350 . S
C729 C732 1.463 . S
C729 C734 1.350 . S
C729 N737 1.427 . S
C730 H721 0.930 . S
C730 C728 1.378 . S
C730 C731 1.367 . S
C731 C730 1.367 . S
C731 C733 1.433 . S
C732 C728 1.350 . S
C732 C729 1.463 . S
C732 N736 1.427 . S
C733 H723 0.929 . S
C733 C731 1.433 . S
C733 N736 1.384 . S
C734 H725 0.929 . S
C734 C726 1.378 . S
C734 C729 1.350 . S
C735 H722 0.929 . S
C735 C727 1.433 . S
C735 N737 1.384 . S
N736 C732 1.427 . S
N736 C733 1.384 . S
N737 C729 1.427 . S
N737 C735 1.384 . S
H738 C744 0.930 . S
H739 C748 0.930 . S
H740 C753 0.929 . S
H741 C751 0.929 . S
H742 C746 0.929 . S
H743 C752 0.929 . S
C744 H738 0.930 . S
C744 C745 1.367 . S
C744 C752 1.378 . S
C745 C744 1.367 . S
C745 C753 1.433 . S
C746 H742 0.929 . S
C746 C748 1.378 . S
C746 C750 1.350 . S
C747 C750 1.463 . S
C747 C752 1.350 . S
C747 N755 1.427 . S
C748 H739 0.930 . S
C748 C746 1.378 . S
C748 C749 1.367 . S
C749 C748 1.367 . S
C749 C751 1.433 . S
C750 C746 1.350 . S
C750 C747 1.463 . S
C750 N754 1.427 . S
C751 H741 0.929 . S
C751 C749 1.433 . S
C751 N754 1.384 . S
C752 H743 0.929 . S
C752 C744 1.378 . S
C752 C747 1.350 . S
C753 H740 0.929 . S
C753 C745 1.433 . S
C753 N755 1.384 . S
N754 C750 1.427 . S
N754 C751 1.384 . S
N755 C747 1.427 . S
N755 C753 1.384 . S
H756 C762 0.930 . S
H757 C766 0.930 . S
H758 C771 0.929 . S
H759 C769 0.929 . S
H760 C764 0.929 . S
H761 C770 0.929 . S
C762 H756 0.930 . S
C762 C763 1.367 . S
C762 C770 1.378 . S
C763 C762 1.367 . S
C763 C771 1.433 . S
C764 H760 0.929 . S
C764 C766 1.378 . S
C764 C768 1.350 . S
C765 C768 1.463 . S
C765 C770 1.350 . S
C765 N773 1.427 . S
C766 H757 0.930 . S
C766 C764 1.378 . S
C766 C767 1.367 . S
C767 C766 1.367 . S
C767 C769 1.433 . S
C768 C764 1.350 . S
C768 C765 1.463 . S
C768 N772 1.427 . S
C769 H759 0.929 . S
C769 C767 1.433 . S
C769 N772 1.384 . S
C770 H761 0.929 . S
C770 C762 1.378 . S
C770 C765 1.350 . S
C771 H758 0.929 . S
C771 C763 1.433 . S
C771 N773 1.384 . S
N772 C768 1.427 . S
N772 C769 1.384 . S
N773 C765 1.427 . S
N773 C771 1.384 . S
H774 C780 0.930 . S
H775 C784 0.930 1_554 S
H776 C789 0.929 . S
H777 C787 0.929 . S
H778 C782 0.929 . S
H779 C788 0.929 . S
C780 H774 0.930 . S
C780 C781 1.367 . S
C780 C788 1.378 . S
C781 C780 1.367 . S
C781 C789 1.433 . S
C782 H778 0.929 . S
C782 C784 1.378 . S
C782 C786 1.350 . S
C783 C786 1.463 . S
C783 C788 1.350 . S
C783 N791 1.427 . S
C784 H775 0.930 1_556 S
C784 C782 1.378 . S
C784 C785 1.367 . S
C785 C784 1.367 . S
C785 C787 1.433 . S
C786 C782 1.350 . S
C786 C783 1.463 . S
C786 N790 1.427 . S
C787 H777 0.929 . S
C787 C785 1.433 . S
C787 N790 1.384 . S
C788 H779 0.929 . S
C788 C780 1.378 . S
C788 C783 1.350 . S
C789 H776 0.929 . S
C789 C781 1.433 . S
C789 N791 1.384 . S
N790 C786 1.427 . S
N790 C787 1.384 . S
N791 C783 1.427 . S
N791 C789 1.384 . S
H792 C798 0.930 . S
H793 C802 0.930 . S
H794 C807 0.929 . S
H795 C805 0.929 . S
H796 C800 0.929 . S
H797 C806 0.929 . S
C798 H792 0.930 . S
C798 C799 1.367 . S
C798 C806 1.378 . S
C799 C798 1.367 . S
C799 C807 1.433 . S
C800 H796 0.929 . S
C800 C802 1.378 . S
C800 C804 1.350 . S
C801 C804 1.463 . S
C801 C806 1.350 . S
C801 N809 1.427 . S
C802 H793 0.930 . S
C802 C800 1.378 . S
C802 C803 1.367 . S
C803 C802 1.367 . S
C803 C805 1.433 . S
C804 C800 1.350 . S
C804 C801 1.463 . S
C804 N808 1.427 . S
C805 H795 0.929 . S
C805 C803 1.433 . S
C805 N808 1.384 . S
C806 H797 0.929 . S
C806 C798 1.378 . S
C806 C801 1.350 . S
C807 H794 0.929 . S
C807 C799 1.433 . S
C807 N809 1.384 . S
N808 C804 1.427 . S
N808 C805 1.384 . S
N809 C801 1.427 . S
N809 C807 1.384 . S
H810 C816 0.930 . S
H811 C820 0.930 . S
H812 C825 0.929 . S
H813 C823 0.929 1_455 S
H814 C818 0.929 . S
H815 C824 0.929 . S
C816 H810 0.930 . S
C816 C817 1.367 . S
C816 C824 1.378 . S
C817 C816 1.367 . S
C817 C825 1.433 . S
C818 H814 0.929 . S
C818 C820 1.378 . S
C818 C822 1.350 . S
C819 C822 1.463 . S
C819 C824 1.350 . S
C819 N827 1.427 . S
C820 H811 0.930 . S
C820 C818 1.378 . S
C820 C821 1.367 . S
C821 C820 1.367 . S
C821 C823 1.433 . S
C822 C818 1.350 . S
C822 C819 1.463 . S
C822 N826 1.427 . S
C823 H813 0.929 1_655 S
C823 C821 1.433 . S
C823 N826 1.384 . S
C824 H815 0.929 . S
C824 C816 1.378 . S
C824 C819 1.350 . S
C825 H812 0.929 . S
C825 C817 1.433 . S
C825 N827 1.384 . S
N826 C822 1.427 . S
N826 C823 1.384 . S
N827 C819 1.427 . S
N827 C825 1.384 . S
H828 C834 0.930 . S
H829 C838 0.930 . S
H830 C843 0.929 . S
H831 C841 0.929 . S
H832 C836 0.929 . S
H833 C842 0.929 . S
C834 H828 0.930 . S
C834 C835 1.367 . S
C834 C842 1.378 . S
C835 C834 1.367 . S
C835 C843 1.433 . S
C836 H832 0.929 . S
C836 C838 1.378 . S
C836 C840 1.350 . S
C837 C840 1.463 . S
C837 C842 1.350 . S
C837 N845 1.427 . S
C838 H829 0.930 . S
C838 C836 1.378 . S
C838 C839 1.367 . S
C839 C838 1.367 . S
C839 C841 1.433 . S
C840 C836 1.350 . S
C840 C837 1.463 . S
C840 N844 1.427 . S
C841 H831 0.929 . S
C841 C839 1.433 . S
C841 N844 1.384 . S
C842 H833 0.929 . S
C842 C834 1.378 . S
C842 C837 1.350 . S
C843 H830 0.929 . S
C843 C835 1.433 . S
C843 N845 1.384 . S
N844 C840 1.427 . S
N844 C841 1.384 . S
N845 C837 1.427 . S
N845 C843 1.384 . S
H846 C852 0.930 . S
H847 C856 0.930 . S
H848 C861 0.929 . S
H849 C859 0.929 . S
H850 C854 0.929 . S
H851 C860 0.929 . S
C852 H846 0.930 . S
C852 C853 1.367 . S
C852 C860 1.378 . S
C853 C852 1.367 . S
C853 C861 1.433 . S
C854 H850 0.929 . S
C854 C856 1.378 . S
C854 C858 1.350 . S
C855 C858 1.463 . S
C855 C860 1.350 . S
C855 N863 1.427 . S
C856 H847 0.930 . S
C856 C854 1.378 . S
C856 C857 1.367 . S
C857 C856 1.367 . S
C857 C859 1.433 . S
C858 C854 1.350 . S
C858 C855 1.463 . S
C858 N862 1.427 . S
C859 H849 0.929 . S
C859 C857 1.433 . S
C859 N862 1.384 . S
C860 H851 0.929 . S
C860 C852 1.378 . S
C860 C855 1.350 . S
C861 H848 0.929 . S
C861 C853 1.433 . S
C861 N863 1.384 . S
N862 C858 1.427 . S
N862 C859 1.384 . S
N863 C855 1.427 . S
N863 C861 1.384 . S
H864 C870 0.930 . S
H865 C874 0.930 . S
H866 C879 0.929 . S
H867 C877 0.929 . S
H868 C872 0.929 . S
H869 C878 0.929 . S
C870 H864 0.930 . S
C870 C871 1.367 . S
C870 C878 1.378 . S
C871 C870 1.367 . S
C871 C879 1.433 . S
C872 H868 0.929 . S
C872 C874 1.378 . S
C872 C876 1.350 . S
C873 C876 1.463 . S
C873 C878 1.350 . S
C873 N881 1.427 . S
C874 H865 0.930 . S
C874 C872 1.378 . S
C874 C875 1.367 . S
C875 C874 1.367 . S
C875 C877 1.433 . S
C876 C872 1.350 . S
C876 C873 1.463 . S
C876 N880 1.427 . S
C877 H867 0.929 . S
C877 C875 1.433 . S
C877 N880 1.384 . S
C878 H869 0.929 . S
C878 C870 1.378 . S
C878 C873 1.350 . S
C879 H866 0.929 . S
C879 C871 1.433 . S
C879 N881 1.384 . S
N880 C876 1.427 . S
N880 C877 1.384 . S
N881 C873 1.427 . S
N881 C879 1.384 . S
H882 C888 0.930 . S
H883 C892 0.930 . S
H884 C897 0.929 . S
H885 C895 0.929 . S
H886 C890 0.929 . S
H887 C896 0.929 . S
C888 H882 0.930 . S
C888 C889 1.367 . S
C888 C896 1.378 . S
C889 C888 1.367 . S
C889 C897 1.433 . S
C890 H886 0.929 . S
C890 C892 1.378 . S
C890 C894 1.350 . S
C891 C894 1.463 . S
C891 C896 1.350 . S
C891 N899 1.427 . S
C892 H883 0.930 . S
C892 C890 1.378 . S
C892 C893 1.367 . S
C893 C892 1.367 . S
C893 C895 1.433 . S
C894 C890 1.350 . S
C894 C891 1.463 . S
C894 N898 1.427 . S
C895 H885 0.929 . S
C895 C893 1.433 . S
C895 N898 1.384 . S
C896 H887 0.929 . S
C896 C888 1.378 . S
C896 C891 1.350 . S
C897 H884 0.929 . S
C897 C889 1.433 . S
C897 N899 1.384 . S
N898 C894 1.427 . S
N898 C895 1.384 . S
N899 C891 1.427 . S
N899 C897 1.384 . S
H900 C906 0.930 . S
H901 C910 0.930 . S
H902 C915 0.929 . S
H903 C913 0.929 . S
H904 C908 0.929 . S
H905 C914 0.929 . S
C906 H900 0.930 . S
C906 C907 1.367 . S
C906 C914 1.378 . S
C907 C906 1.367 . S
C907 C915 1.433 . S
C908 H904 0.929 . S
C908 C910 1.378 . S
C908 C912 1.350 . S
C909 C912 1.463 . S
C909 C914 1.350 . S
C909 N917 1.427 . S
C910 H901 0.930 . S
C910 C908 1.378 . S
C910 C911 1.367 . S
C911 C910 1.367 . S
C911 C913 1.433 . S
C912 C908 1.350 . S
C912 C909 1.463 . S
C912 N916 1.427 . S
C913 H903 0.929 . S
C913 C911 1.433 . S
C913 N916 1.384 . S
C914 H905 0.929 . S
C914 C906 1.378 . S
C914 C909 1.350 . S
C915 H902 0.929 . S
C915 C907 1.433 . S
C915 N917 1.384 . S
N916 C912 1.427 . S
N916 C913 1.384 . S
N917 C909 1.427 . S
N917 C915 1.384 . S
H918 C924 0.930 . S
H919 C928 0.930 . S
H920 C933 0.929 . S
H921 C931 0.929 . S
H922 C926 0.929 . S
H923 C932 0.929 . S
C924 H918 0.930 . S
C924 C925 1.367 . S
C924 C932 1.378 . S
C925 C924 1.367 . S
C925 C933 1.433 . S
C926 H922 0.929 . S
C926 C928 1.378 . S
C926 C930 1.350 . S
C927 C930 1.463 . S
C927 C932 1.350 . S
C927 N935 1.427 . S
C928 H919 0.930 . S
C928 C926 1.378 . S
C928 C929 1.367 . S
C929 C928 1.367 . S
C929 C931 1.433 . S
C930 C926 1.350 . S
C930 C927 1.463 . S
C930 N934 1.427 . S
C931 H921 0.929 . S
C931 C929 1.433 . S
C931 N934 1.384 . S
C932 H923 0.929 . S
C932 C924 1.378 . S
C932 C927 1.350 . S
C933 H920 0.929 . S
C933 C925 1.433 . S
C933 N935 1.384 . S
N934 C930 1.427 . S
N934 C931 1.384 . S
N935 C927 1.427 . S
N935 C933 1.384 . S
H936 C942 0.930 . S
H937 C946 0.930 . S
H938 C951 0.929 . S
H939 C949 0.929 . S
H940 C944 0.929 . S
H941 C950 0.929 . S
C942 H936 0.930 . S
C942 C943 1.367 . S
C942 C950 1.378 . S
C943 C942 1.367 . S
C943 C951 1.433 . S
C944 H940 0.929 . S
C944 C946 1.378 . S
C944 C948 1.350 . S
C945 C948 1.463 . S
C945 C950 1.350 . S
C945 N953 1.427 . S
C946 H937 0.930 . S
C946 C944 1.378 . S
C946 C947 1.367 . S
C947 C946 1.367 . S
C947 C949 1.433 . S
C948 C944 1.350 . S
C948 C945 1.463 . S
C948 N952 1.427 . S
C949 H939 0.929 . S
C949 C947 1.433 . S
C949 N952 1.384 . S
C950 H941 0.929 . S
C950 C942 1.378 . S
C950 C945 1.350 . S
C951 H938 0.929 . S
C951 C943 1.433 . S
C951 N953 1.384 . S
N952 C948 1.427 . S
N952 C949 1.384 . S
N953 C945 1.427 . S
N953 C951 1.384 . S
H954 C960 0.930 . S
H955 C964 0.930 . S
H956 C969 0.929 . S
H957 C967 0.929 . S
H958 C962 0.929 . S
H959 C968 0.929 . S
C960 H954 0.930 . S
C960 C961 1.367 . S
C960 C968 1.378 . S
C961 C960 1.367 . S
C961 C969 1.433 . S
C962 H958 0.929 . S
C962 C964 1.378 . S
C962 C966 1.350 . S
C963 C966 1.463 . S
C963 C968 1.350 . S
C963 N971 1.427 . S
C964 H955 0.930 . S
C964 C962 1.378 . S
C964 C965 1.367 . S
C965 C964 1.367 . S
C965 C967 1.433 . S
C966 C962 1.350 . S
C966 C963 1.463 . S
C966 N970 1.427 . S
C967 H957 0.929 . S
C967 C965 1.433 . S
C967 N970 1.384 . S
C968 H959 0.929 . S
C968 C960 1.378 . S
C968 C963 1.350 . S
C969 H956 0.929 . S
C969 C961 1.433 . S
C969 N971 1.384 . S
N970 C966 1.427 . S
N970 C967 1.384 . S
N971 C963 1.427 . S
N971 C969 1.384 . S
H972 C978 0.930 . S
H973 C982 0.930 . S
H974 C987 0.929 . S
H975 C985 0.929 . S
H976 C980 0.929 . S
H977 C986 0.929 . S
C978 H972 0.930 . S
C978 C979 1.367 . S
C978 C986 1.378 . S
C979 C978 1.367 . S
C979 C987 1.433 . S
C980 H976 0.929 . S
C980 C982 1.378 . S
C980 C984 1.350 . S
C981 C984 1.466 . S
C981 C986 1.347 1_565 S
C981 N989 1.428 . S
C982 H973 0.930 . S
C982 C980 1.378 . S
C982 C983 1.367 . S
C983 C982 1.367 . S
C983 C985 1.433 . S
C984 C980 1.350 . S
C984 C981 1.466 . S
C984 N988 1.427 . S
C985 H975 0.929 . S
C985 C983 1.433 . S
C985 N988 1.384 . S
C986 H977 0.929 . S
C986 C978 1.378 . S
C986 C981 1.347 1_545 S
C987 H974 0.929 . S
C987 C979 1.433 . S
C987 N989 1.373 1_545 S
N988 C984 1.427 . S
N988 C985 1.384 . S
N989 C981 1.428 . S
N989 C987 1.373 1_565 S
H990 C996 0.930 . S
H991 C1000 0.930 . S
H992 C1005 0.929 . S
H993 C1003 0.929 . S
H994 C998 0.929 . S
H995 C1004 0.929 . S
C996 H990 0.930 . S
C996 C997 1.367 . S
C996 C1004 1.378 . S
C997 C996 1.367 . S
C997 C1005 1.433 . S
C998 H994 0.929 . S
C998 C1000 1.378 . S
C998 C1002 1.350 . S
C999 C1002 1.463 1_455 S
C999 C1004 1.350 . S
C999 N1007 1.427 . S
C1000 H991 0.930 . S
C1000 C998 1.378 . S
C1000 C1001 1.367 . S
C1001 C1000 1.367 . S
C1001 C1003 1.433 . S
C1002 C998 1.350 . S
C1002 C999 1.463 1_655 S
C1002 N1006 1.427 . S
C1003 H993 0.929 . S
C1003 C1001 1.433 . S
C1003 N1006 1.384 . S
C1004 H995 0.929 . S
C1004 C996 1.378 . S
C1004 C999 1.350 . S
C1005 H992 0.929 . S
C1005 C997 1.433 . S
C1005 N1007 1.384 . S
N1006 C1002 1.427 . S
N1006 C1003 1.384 . S
N1007 C999 1.427 . S
N1007 C1005 1.384 . S
H1008 C1014 0.930 . S
H1009 C1018 0.930 . S
H1010 C1023 0.929 . S
H1011 C1021 0.929 . S
H1012 C1016 0.929 . S
H1013 C1022 0.929 . S
C1014 H1008 0.930 . S
C1014 C1015 1.367 . S
C1014 C1022 1.378 . S
C1015 C1014 1.367 . S
C1015 C1023 1.433 . S
C1016 H1012 0.929 . S
C1016 C1018 1.378 . S
C1016 C1020 1.350 . S
C1017 C1020 1.463 . S
C1017 C1022 1.350 . S
C1017 N1025 1.427 . S
C1018 H1009 0.930 . S
C1018 C1016 1.378 . S
C1018 C1019 1.367 . S
C1019 C1018 1.367 . S
C1019 C1021 1.433 . S
C1020 C1016 1.350 . S
C1020 C1017 1.463 . S
C1020 N1024 1.427 . S
C1021 H1011 0.929 . S
C1021 C1019 1.433 . S
C1021 N1024 1.384 . S
C1022 H1013 0.929 . S
C1022 C1014 1.378 . S
C1022 C1017 1.350 . S
C1023 H1010 0.929 . S
C1023 C1015 1.433 . S
C1023 N1025 1.384 . S
N1024 C1020 1.427 . S
N1024 C1021 1.384 . S
N1025 C1017 1.427 . S
N1025 C1023 1.384 . S
H1026 C1032 0.930 . S
H1027 C1036 0.930 . S
H1028 C1041 0.929 . S
H1029 C1039 0.929 . S
H1030 C1034 0.929 . S
H1031 C1040 0.929 1_565 S
C1032 H1026 0.930 . S
C1032 C1033 1.367 . S
C1032 C1040 1.378 . S
C1033 C1032 1.367 . S
C1033 C1041 1.433 . S
C1034 H1030 0.929 . S
C1034 C1036 1.378 . S
C1034 C1038 1.350 . S
C1035 C1038 1.463 . S
C1035 C1040 1.350 1_565 S
C1035 N1043 1.427 1_565 S
C1036 H1027 0.930 . S
C1036 C1034 1.378 . S
C1036 C1037 1.367 . S
C1037 C1036 1.367 . S
C1037 C1039 1.433 . S
C1038 C1034 1.350 . S
C1038 C1035 1.463 . S
C1038 N1042 1.427 . S
C1039 H1029 0.929 . S
C1039 C1037 1.433 . S
C1039 N1042 1.384 . S
C1040 H1031 0.929 1_545 S
C1040 C1032 1.378 . S
C1040 C1035 1.350 1_545 S
C1041 H1028 0.929 . S
C1041 C1033 1.433 . S
C1041 N1043 1.384 . S
N1042 C1038 1.427 . S
N1042 C1039 1.384 . S
N1043 C1035 1.427 1_545 S
N1043 C1041 1.384 . S
H1044 C1050 0.930 . S
H1045 C1054 0.930 . S
H1046 C1059 0.929 . S
H1047 C1057 0.929 . S
H1048 C1052 0.929 1_455 S
H1049 C1058 0.929 . S
C1050 H1044 0.930 . S
C1050 C1051 1.367 . S
C1050 C1058 1.378 . S
C1051 C1050 1.367 . S
C1051 C1059 1.433 . S
C1052 H1048 0.929 1_655 S
C1052 C1054 1.378 . S
C1052 C1056 1.350 . S
C1053 C1056 1.463 1_455 S
C1053 C1058 1.350 . S
C1053 N1061 1.427 . S
C1054 H1045 0.930 . S
C1054 C1052 1.378 . S
C1054 C1055 1.367 . S
C1055 C1054 1.367 . S
C1055 C1057 1.433 . S
C1056 C1052 1.350 . S
C1056 C1053 1.463 1_655 S
C1056 N1060 1.427 . S
C1057 H1047 0.929 . S
C1057 C1055 1.433 . S
C1057 N1060 1.384 . S
C1058 H1049 0.929 . S
C1058 C1050 1.378 . S
C1058 C1053 1.350 . S
C1059 H1046 0.929 . S
C1059 C1051 1.433 . S
C1059 N1061 1.384 . S
N1060 C1056 1.427 . S
N1060 C1057 1.384 . S
N1061 C1053 1.427 . S
N1061 C1059 1.384 . S
C421 N104 1.170 . S
C425 N12 1.178 . S
C439 N117 1.856 . S
C443 C39 1.877 . S
C457 N58 1.147 . S
C461 N71 1.162 . S
C475 N94 1.186 1_455 S
C479 N2 1.179 . S
C493 N127 1.841 . S
C497 C30 1.877 . S
C511 N48 1.156 . S
C515 N81 1.156 . S
C529 N232 1.183 . S
C533 N150 1.170 . S
C547 N255 1.178 . S
C551 N173 1.164 . S
C565 N196 1.159 . S
C569 N209 1.155 . S
C583 N140 1.142 . S
C587 N242 1.128 . S
C601 N265 1.152 . S
C605 N163 1.141 . S
C619 N219 1.153 . S
C623 N186 1.163 . S
C637 N380 1.182 . S
C641 N288 1.176 . S
C655 C315 1.878 . S
C659 N403 1.851 . S
C673 N347 1.166 . S
C677 N324 1.165 . S
C691 N370 1.156 . S
C695 N278 1.170 . S
C709 N393 1.868 . S
C713 C306 1.893 . S
C727 N334 1.129 . S
C731 N357 1.122 . S
C745 C16 1.482 . S
C749 C214 1.493 . S
C763 C237 1.566 . S
C767 N35 1.526 . S
C781 C260 1.529 . S
C785 C62 1.533 . S
C799 C76 1.570 . S
C803 C292 1.580 . S
C817 N311 1.483 . S
C821 C108 1.501 . S
C835 C329 1.571 . S
C839 C122 1.570 . S
C853 C361 1.495 . S
C857 C7 1.498 . S
C871 C375 1.592 . S
C875 N25 1.595 . S
C889 C398 1.523 . S
C893 C53 1.522 . S
C907 C85 1.520 . S
C911 C145 1.541 . S
C925 C99 1.535 . S
C929 C168 1.533 . S
C943 C191 1.545 . S
C947 C131 1.521 . S
C961 C352 1.536 . S
C965 C154 1.534 . S
C979 C384 1.540 . S
C983 C177 1.572 . S
C997 C200 1.527 . S
C1001 C407 1.509 . S
C1015 C283 1.564 . S
C1019 C223 1.555 . S
C1033 N301 1.490 . S
C1037 C246 1.494 . S
C1051 C269 1.540 . S
C1055 C338 1.562 . S
