# Generated by pormake.
# Topology upb, (4)-cn, num edge types: 1
# Building blocks:
#     Node 0, Type 0, BuildingBlock: GALJAG_clean_sbu_0, # of connection points: 4
#     Node 1, Type 0, BuildingBlock: GALJAG_clean_sbu_0, # of connection points: 4
#     Node 2, Type 0, BuildingBlock: GALJAG_clean_sbu_0, # of connection points: 4
#     Node 3, Type 0, BuildingBlock: GALJAG_clean_sbu_0, # of connection points: 4
#     Node 4, Type 0, BuildingBlock: GALJAG_clean_sbu_0, # of connection points: 4
#     Node 5, Type 0, BuildingBlock: GALJAG_clean_sbu_0, # of connection points: 4
#     Node 6, Type 0, BuildingBlock: GALJAG_clean_sbu_0, # of connection points: 4
#     Node 7, Type 0, BuildingBlock: GALJAG_clean_sbu_0, # of connection points: 4
#     Node 8, Type 0, BuildingBlock: GALJAG_clean_sbu_0, # of connection points: 4
#     Node 9, Type 0, BuildingBlock: GALJAG_clean_sbu_0, # of connection points: 4
#     Node 10, Type 0, BuildingBlock: GALJAG_clean_sbu_0, # of connection points: 4
#     Node 11, Type 0, BuildingBlock: GALJAG_clean_sbu_0, # of connection points: 4
#     Node 12, Type 0, BuildingBlock: GALJAG_clean_sbu_0, # of connection points: 4
#     Node 13, Type 0, BuildingBlock: GALJAG_clean_sbu_0, # of connection points: 4
#     Node 14, Type 0, BuildingBlock: GALJAG_clean_sbu_0, # of connection points: 4
#     Node 15, Type 0, BuildingBlock: GALJAG_clean_sbu_0, # of connection points: 4
#     Edge 16, Type (0, 0), BuildingBlock: MIFKUJ_clean_linker_0, # of connection points: 2
#     Edge 17, Type (0, 0), BuildingBlock: MIFKUJ_clean_linker_0, # of connection points: 2
#     Edge 18, Type (0, 0), BuildingBlock: MIFKUJ_clean_linker_0, # of connection points: 2
#     Edge 19, Type (0, 0), BuildingBlock: MIFKUJ_clean_linker_0, # of connection points: 2
#     Edge 20, Type (0, 0), BuildingBlock: MIFKUJ_clean_linker_0, # of connection points: 2
#     Edge 21, Type (0, 0), BuildingBlock: MIFKUJ_clean_linker_0, # of connection points: 2
#     Edge 22, Type (0, 0), BuildingBlock: MIFKUJ_clean_linker_0, # of connection points: 2
#     Edge 23, Type (0, 0), BuildingBlock: MIFKUJ_clean_linker_0, # of connection points: 2
#     Edge 24, Type (0, 0), BuildingBlock: MIFKUJ_clean_linker_0, # of connection points: 2
#     Edge 25, Type (0, 0), BuildingBlock: MIFKUJ_clean_linker_0, # of connection points: 2
#     Edge 26, Type (0, 0), BuildingBlock: MIFKUJ_clean_linker_0, # of connection points: 2
#     Edge 27, Type (0, 0), BuildingBlock: MIFKUJ_clean_linker_0, # of connection points: 2
#     Edge 28, Type (0, 0), BuildingBlock: MIFKUJ_clean_linker_0, # of connection points: 2
#     Edge 29, Type (0, 0), BuildingBlock: MIFKUJ_clean_linker_0, # of connection points: 2
#     Edge 30, Type (0, 0), BuildingBlock: MIFKUJ_clean_linker_0, # of connection points: 2
#     Edge 31, Type (0, 0), BuildingBlock: MIFKUJ_clean_linker_0, # of connection points: 2
#     Edge 32, Type (0, 0), BuildingBlock: MIFKUJ_clean_linker_0, # of connection points: 2
#     Edge 33, Type (0, 0), BuildingBlock: MIFKUJ_clean_linker_0, # of connection points: 2
#     Edge 34, Type (0, 0), BuildingBlock: MIFKUJ_clean_linker_0, # of connection points: 2
#     Edge 35, Type (0, 0), BuildingBlock: MIFKUJ_clean_linker_0, # of connection points: 2
#     Edge 36, Type (0, 0), BuildingBlock: MIFKUJ_clean_linker_0, # of connection points: 2
#     Edge 37, Type (0, 0), BuildingBlock: MIFKUJ_clean_linker_0, # of connection points: 2
#     Edge 38, Type (0, 0), BuildingBlock: MIFKUJ_clean_linker_0, # of connection points: 2
#     Edge 39, Type (0, 0), BuildingBlock: MIFKUJ_clean_linker_0, # of connection points: 2
#     Edge 40, Type (0, 0), BuildingBlock: MIFKUJ_clean_linker_0, # of connection points: 2
#     Edge 41, Type (0, 0), BuildingBlock: MIFKUJ_clean_linker_0, # of connection points: 2
#     Edge 42, Type (0, 0), BuildingBlock: MIFKUJ_clean_linker_0, # of connection points: 2
#     Edge 43, Type (0, 0), BuildingBlock: MIFKUJ_clean_linker_0, # of connection points: 2
#     Edge 44, Type (0, 0), BuildingBlock: MIFKUJ_clean_linker_0, # of connection points: 2
#     Edge 45, Type (0, 0), BuildingBlock: MIFKUJ_clean_linker_0, # of connection points: 2
#     Edge 46, Type (0, 0), BuildingBlock: MIFKUJ_clean_linker_0, # of connection points: 2
#     Edge 47, Type (0, 0), BuildingBlock: MIFKUJ_clean_linker_0, # of connection points: 2
# Relax obj value: 0.253
# Max RMSD: 0.089
# Mean RMSD: 0.089
data_MOF--net-upb--node1-GALJAG_clean_sbu_0--edge1-MIFKUJ_clean_linker_0
_symmetry_space_group_name_H-M    P1
_symmetry_Int_Tables_number       1
_symmetry_cell_setting            triclinic
loop_
_symmetry_equiv_pos_as_xyz
'x, y, z'
_cell_length_a     57.185484
_cell_length_b     57.184131
_cell_length_c     47.040205
_cell_angle_alpha  90.018746
_cell_angle_beta   89.986925
_cell_angle_gamma 89.999546
loop_
_atom_site_label
_atom_site_type_symbol
_atom_site_fract_x
_atom_site_fract_y
_atom_site_fract_z
_atom_type_partial_charge
In0 In 0.03571 0.23241 0.28738 0.0
O1 O 0.06649 0.21033 0.30241 0.0
O2 O 0.05963 0.21127 0.25806 0.0
C3 C 0.02713 0.23437 0.34369 0.0
C4 C 0.04806 0.27536 0.26801 0.0
C5 C 0.99691 0.21226 0.26577 0.0
O6 O 0.04753 0.23574 0.33352 0.0
O7 O 0.01112 0.23202 0.32546 0.0
O8 O 0.99939 0.23418 0.2668 0.0
O9 O 0.01408 0.20076 0.27505 0.0
C10 C 0.07227 0.20349 0.27789 0.0
O11 O 0.03833 0.27223 0.29168 0.0
O12 O 0.05076 0.25699 0.25367 0.0
In13 In 0.7629 0.03691 0.28758 0.0
O14 O 0.79923 0.04736 0.27235 0.0
O15 O 0.77587 0.07467 0.28354 0.0
C16 C 0.76678 0.03778 0.34477 0.0
C17 C 0.72212 0.04969 0.26321 0.0
C18 C 0.76874 0.99179 0.27193 0.0
O19 O 0.78207 0.02874 0.32889 0.0
O20 O 0.7497 0.04675 0.33179 0.0
O21 O 0.75695 0.99777 0.29337 0.0
O22 O 0.77659 0.00864 0.25753 0.0
C23 C 0.79592 0.06906 0.27471 0.0
O24 O 0.74117 0.04928 0.24968 0.0
O25 O 0.72356 0.04287 0.2886 0.0
In26 In 0.95929 0.774 0.30664 0.0
O27 O 0.95373 0.74326 0.27564 0.0
O28 O 0.93865 0.74144 0.31679 0.0
C29 C 0.00029 0.7879 0.28367 0.0
C30 C 0.92175 0.8006 0.29405 0.0
C31 C 0.97191 0.77781 0.36162 0.0
O32 O 0.99766 0.7679 0.29455 0.0
O33 O 0.98207 0.80028 0.28334 0.0
O34 O 0.96598 0.7953 0.34694 0.0
O35 O 0.9716 0.75857 0.34852 0.0
C36 C 0.9414 0.73177 0.29301 0.0
O37 O 0.9258 0.793 0.31872 0.0
O38 O 0.93669 0.79485 0.27558 0.0
In39 In 0.23358 0.96537 0.30438 0.0
O40 O 0.2733 0.96034 0.30213 0.0
O41 O 0.25276 0.94548 0.26935 0.0
C42 C 0.22124 0.00916 0.2879 0.0
C43 C 0.19984 0.93319 0.29532 0.0
C44 C 0.23877 0.96778 0.36121 0.0
O45 O 0.22855 0.99418 0.27033 0.0
O46 O 0.22057 0.00211 0.31315 0.0
O47 O 0.22053 0.95975 0.34963 0.0
O48 O 0.25459 0.97404 0.3441 0.0
C49 C 0.27283 0.94802 0.27994 0.0
O50 O 0.21859 0.92856 0.30832 0.0
O51 O 0.19795 0.95415 0.28723 0.0
In52 In 0.04025 0.77505 0.71388 0.0
O53 O 0.07424 0.79423 0.70454 0.0
O54 O 0.06115 0.7957 0.74681 0.0
C55 C 0.02742 0.77915 0.65898 0.0
C56 C 0.05859 0.73258 0.72517 0.0
C57 C 0.99899 0.78894 0.73611 0.0
O58 O 0.03801 0.79524 0.67208 0.0
O59 O 0.02341 0.76108 0.67354 0.0
O60 O 0.00334 0.76773 0.73092 0.0
O61 O 0.01572 0.80269 0.73125 0.0
C62 C 0.07692 0.80178 0.72953 0.0
O63 O 0.04866 0.74467 0.74414 0.0
O64 O 0.05889 0.74181 0.70088 0.0
In65 In 0.23792 0.03532 0.7132 0.0
O66 O 0.21828 0.0694 0.70525 0.0
O67 O 0.20411 0.04582 0.73564 0.0
C68 C 0.23798 0.03152 0.65601 0.0
C69 C 0.27792 0.05306 0.73533 0.0
C70 C 0.22957 0.99199 0.73392 0.0
O71 O 0.22009 0.02763 0.67097 0.0
O72 O 0.25577 0.03793 0.66983 0.0
O73 O 0.22771 0.01008 0.74913 0.0
O74 O 0.2365 0.99579 0.70896 0.0
C75 C 0.20224 0.06517 0.72295 0.0
O76 O 0.27737 0.03377 0.72242 0.0
O77 O 0.25832 0.06285 0.73781 0.0
In78 In 0.96662 0.23328 0.69867 0.0
O79 O 0.95941 0.25988 0.73424 0.0
O80 O 0.95242 0.27001 0.69179 0.0
C81 C 0.00497 0.21571 0.72477 0.0
C82 C 0.93253 0.20096 0.70409 0.0
C83 C 0.97622 0.23627 0.64261 0.0
O84 O 0.00549 0.23428 0.71032 0.0
O85 O 0.98497 0.20671 0.72716 0.0
O86 O 0.95585 0.23272 0.65197 0.0
O87 O 0.9917 0.23846 0.66152 0.0
C88 C 0.95189 0.2755 0.71768 0.0
O89 O 0.95021 0.19809 0.68842 0.0
O90 O 0.93193 0.22026 0.71709 0.0
In91 In 0.76925 0.96088 0.69282 0.0
O92 O 0.78763 0.92692 0.68087 0.0
O93 O 0.79043 0.9386 0.72365 0.0
C94 C 0.76791 0.97647 0.63886 0.0
C95 C 0.72721 0.94395 0.70859 0.0
C96 C 0.78972 0.99952 0.7142 0.0
O97 O 0.78257 0.96151 0.64728 0.0
O98 O 0.75358 0.98325 0.65755 0.0
O99 O 0.76785 0.99653 0.71533 0.0
O100 O 0.80093 0.9828 0.70334 0.0
C101 C 0.79583 0.92335 0.70539 0.0
O102 O 0.74056 0.95436 0.72582 0.0
O103 O 0.73486 0.94266 0.68353 0.0
In104 In 0.54704 0.72487 0.79766 0.0
O105 O 0.55302 0.75566 0.76706 0.0
O106 O 0.56882 0.75673 0.80791 0.0
C107 C 0.50768 0.70492 0.77751 0.0
C108 C 0.58237 0.69631 0.782 0.0
C109 C 0.53213 0.72946 0.85165 0.0
O110 O 0.51235 0.72621 0.77298 0.0
O111 O 0.52296 0.69401 0.79153 0.0
O112 O 0.54704 0.71431 0.84434 0.0
O113 O 0.52478 0.74227 0.83172 0.0
C114 C 0.5658 0.76674 0.78437 0.0
O115 O 0.57967 0.70335 0.80721 0.0
O116 O 0.56737 0.70382 0.76459 0.0
In117 In 0.26954 0.53934 0.80092 0.0
O118 O 0.30543 0.55559 0.80663 0.0
O119 O 0.28334 0.5705 0.77515 0.0
C120 C 0.26715 0.52858 0.85674 0.0
C121 C 0.22838 0.55959 0.78766 0.0
C122 C 0.28275 0.49941 0.7745 0.0
O123 O 0.27564 0.54754 0.84776 0.0
O124 O 0.25972 0.51506 0.83758 0.0
O125 O 0.26166 0.50354 0.7806 0.0
O126 O 0.29671 0.51555 0.78099 0.0
C127 C 0.30292 0.57085 0.78753 0.0
O128 O 0.24024 0.54832 0.76961 0.0
O129 O 0.23724 0.56045 0.81217 0.0
In130 In 0.45375 0.27155 0.78441 0.0
O131 O 0.45694 0.23183 0.78842 0.0
O132 O 0.43937 0.2452 0.75232 0.0
C133 C 0.4918 0.29404 0.76382 0.0
C134 C 0.41576 0.29809 0.77344 0.0
C135 C 0.45948 0.2699 0.84123 0.0
O136 O 0.49047 0.27201 0.76421 0.0
O137 O 0.47378 0.30436 0.77269 0.0
O138 O 0.44053 0.26405 0.82938 0.0
O139 O 0.47539 0.27639 0.82441 0.0
C140 C 0.44569 0.22739 0.76606 0.0
O141 O 0.4232 0.29435 0.79825 0.0
O142 O 0.42735 0.28823 0.75399 0.0
In143 In 0.73537 0.45894 0.80013 0.0
O144 O 0.76553 0.45 0.76951 0.0
O145 O 0.76961 0.44186 0.81311 0.0
C146 C 0.72856 0.50048 0.77405 0.0
C147 C 0.69902 0.43078 0.78681 0.0
C148 C 0.73178 0.4654 0.8568 0.0
O149 O 0.74206 0.49802 0.79503 0.0
O150 O 0.71949 0.48173 0.76521 0.0
O151 O 0.73043 0.44541 0.84555 0.0
O152 O 0.7347 0.48197 0.83949 0.0
C153 C 0.77833 0.44129 0.78859 0.0
O154 O 0.69667 0.44985 0.79995 0.0
O155 O 0.71983 0.42573 0.78035 0.0
In156 In 0.54368 0.27015 0.18624 0.0
O157 O 0.56937 0.29863 0.17421 0.0
O158 O 0.57365 0.28271 0.21474 0.0
C159 C 0.52517 0.26835 0.13362 0.0
C160 C 0.56065 0.22676 0.19502 0.0
C161 C 0.50876 0.29207 0.21413 0.0
O162 O 0.54519 0.27662 0.13867 0.0
O163 O 0.51448 0.26064 0.15513 0.0
O164 O 0.51016 0.27003 0.21333 0.0
O165 O 0.52521 0.30261 0.20181 0.0
C166 C 0.58074 0.29784 0.19716 0.0
O167 O 0.54946 0.23766 0.21404 0.0
O168 O 0.56297 0.23769 0.17196 0.0
In169 In 0.73416 0.53691 0.20761 0.0
O170 O 0.70027 0.55425 0.19402 0.0
O171 O 0.71639 0.56703 0.23161 0.0
C172 C 0.73739 0.5233 0.15293 0.0
C173 C 0.77528 0.55673 0.22249 0.0
C174 C 0.72044 0.49738 0.23418 0.0
O175 O 0.73323 0.54419 0.16001 0.0
O176 O 0.74018 0.50937 0.17343 0.0
O177 O 0.74117 0.50045 0.2258 0.0
O178 O 0.70714 0.51468 0.2305 0.0
C179 C 0.69947 0.56849 0.21446 0.0
O180 O 0.76138 0.54828 0.24061 0.0
O181 O 0.76855 0.55491 0.19713 0.0
In182 In 0.44961 0.72324 0.19753 0.0
O183 O 0.41809 0.69923 0.19382 0.0
O184 O 0.43474 0.70148 0.23413 0.0
C185 C 0.45846 0.73087 0.14212 0.0
C186 C 0.42953 0.7639 0.21305 0.0
C187 C 0.49092 0.70331 0.21045 0.0
O188 O 0.44548 0.71446 0.15066 0.0
O189 O 0.46685 0.74359 0.16155 0.0
O190 O 0.48421 0.72192 0.22255 0.0
O191 O 0.47675 0.69505 0.19254 0.0
C192 C 0.41851 0.6927 0.21942 0.0
O193 O 0.44893 0.75751 0.22339 0.0
O194 O 0.42077 0.74988 0.19537 0.0
In195 In 0.2682 0.46154 0.21039 0.0
O196 O 0.30471 0.44846 0.19921 0.0
O197 O 0.28839 0.43405 0.23576 0.0
C198 C 0.26698 0.47179 0.15425 0.0
C199 C 0.22816 0.4387 0.22266 0.0
C200 C 0.27368 0.50102 0.24109 0.0
O201 O 0.25519 0.45542 0.16499 0.0
O202 O 0.27939 0.48293 0.17174 0.0
O203 O 0.26052 0.49987 0.21961 0.0
O204 O 0.28295 0.48185 0.24813 0.0
C205 C 0.30604 0.43432 0.21969 0.0
O206 O 0.23116 0.45986 0.22945 0.0
O207 O 0.24527 0.42939 0.21015 0.0
H208 H 0.08663 0.18446 0.22745 0.0
H209 H 0.11743 0.15523 0.22022 0.0
H210 H 0.13235 0.15596 0.31012 0.0
H211 H 0.10188 0.18527 0.31742 0.0
H212 H 0.17226 0.15431 0.27885 0.0
H213 H 0.09721 0.11434 0.28103 0.0
H214 H 0.05708 0.10652 0.26431 0.0
H215 H 0.08335 0.08997 0.18117 0.0
H216 H 0.12363 0.098 0.19734 0.0
H217 H 0.2118 0.04518 0.32342 0.0
H218 H 0.19252 0.08193 0.31212 0.0
H219 H 0.19089 0.06292 0.22336 0.0
H220 H 0.21025 0.02566 0.23471 0.0
H221 H 0.14833 0.07644 0.24254 0.0
H222 H 0.22466 0.10851 0.24458 0.0
H223 H 0.2645 0.11536 0.26276 0.0
H224 H 0.23625 0.14617 0.3386 0.0
H225 H 0.19621 0.13922 0.32109 0.0
C226 C 0.09664 0.17852 0.24561 0.0
C227 C 0.09174 0.187 0.27304 0.0
C228 C 0.11419 0.16182 0.24145 0.0
C229 C 0.12704 0.15328 0.26467 0.0
C230 C 0.12269 0.16234 0.29189 0.0
C231 C 0.10518 0.179 0.29606 0.0
C232 C 0.14412 0.13397 0.2612 0.0
C233 C 0.16708 0.13727 0.27092 0.0
C234 C 0.13754 0.11197 0.24994 0.0
C235 C 0.11337 0.10706 0.24028 0.0
C236 C 0.0944 0.10922 0.25912 0.0
C237 C 0.07164 0.10472 0.24977 0.0
C238 C 0.06766 0.09784 0.22167 0.0
C239 C 0.08645 0.09536 0.20291 0.0
C240 C 0.10925 0.09988 0.21215 0.0
C241 C 0.20772 0.04894 0.3014 0.0
C242 C 0.21246 0.03253 0.27994 0.0
C243 C 0.19682 0.07006 0.29494 0.0
C244 C 0.19047 0.07531 0.26685 0.0
C245 C 0.19578 0.05926 0.24516 0.0
C246 C 0.20688 0.03806 0.25163 0.0
C247 C 0.17631 0.09653 0.26111 0.0
C248 C 0.15382 0.09362 0.24971 0.0
C249 C 0.18332 0.11886 0.27092 0.0
C250 C 0.20739 0.12326 0.28153 0.0
C251 C 0.22692 0.11662 0.26522 0.0
C252 C 0.24955 0.12054 0.2754 0.0
C253 C 0.2529 0.13117 0.30183 0.0
C254 C 0.23362 0.13795 0.31811 0.0
C255 C 0.21095 0.13407 0.30804 0.0
H256 H 0.27044 0.13418 0.30968 0.0
H257 H 0.05003 0.09435 0.21447 0.0
H258 H 0.95398 0.2324 0.25798 0.0
H259 H 0.91658 0.21206 0.25147 0.0
H260 H 0.95281 0.14593 0.24883 0.0
H261 H 0.99009 0.16605 0.25534 0.0
H262 H 0.91599 0.14831 0.2101 0.0
H263 H 0.93144 0.16464 0.30982 0.0
H264 H 0.93976 0.1908 0.35028 0.0
H265 H 0.87589 0.22813 0.33462 0.0
H266 H 0.86739 0.20239 0.29376 0.0
H267 H 0.84111 0.06041 0.26 0.0
H268 H 0.87206 0.08882 0.25112 0.0
H269 H 0.82332 0.14525 0.26537 0.0
H270 H 0.7923 0.11676 0.27502 0.0
H271 H 0.86251 0.15316 0.29299 0.0
H272 H 0.84385 0.13241 0.19779 0.0
H273 H 0.83567 0.10611 0.15746 0.0
H274 H 0.90484 0.07735 0.16377 0.0
H275 H 0.91334 0.10324 0.20441 0.0
C276 C 0.95397 0.21357 0.25541 0.0
C277 C 0.97488 0.20075 0.25741 0.0
C278 C 0.93263 0.202 0.25178 0.0
C279 C 0.93196 0.17749 0.24997 0.0
C280 C 0.95297 0.16484 0.25017 0.0
C281 C 0.97423 0.17635 0.25402 0.0
C282 C 0.90948 0.16468 0.25052 0.0
C283 C 0.90425 0.14932 0.22817 0.0
C284 C 0.89394 0.1665 0.27382 0.0
C285 C 0.89893 0.1818 0.29854 0.0
C286 C 0.91927 0.17855 0.31487 0.0
C287 C 0.92401 0.19328 0.33789 0.0
C288 C 0.9084 0.21116 0.34496 0.0
C289 C 0.88799 0.21431 0.32907 0.0
C290 C 0.8832 0.19966 0.30599 0.0
C291 C 0.83693 0.07887 0.26105 0.0
C292 C 0.81429 0.08638 0.26818 0.0
C293 C 0.8546 0.09511 0.25576 0.0
C294 C 0.84994 0.1192 0.25709 0.0
C295 C 0.82729 0.12676 0.26408 0.0
C296 C 0.80959 0.11048 0.26956 0.0
C297 C 0.86913 0.13631 0.25278 0.0
C298 C 0.87384 0.15247 0.27451 0.0
C299 C 0.88415 0.13523 0.22885 0.0
C300 C 0.87918 0.1197 0.20428 0.0
C301 C 0.85727 0.12037 0.19071 0.0
C302 C 0.85258 0.10555 0.16777 0.0
C303 C 0.86971 0.09005 0.15808 0.0
C304 C 0.89158 0.08937 0.17129 0.0
C305 C 0.89636 0.10415 0.19425 0.0
H306 H 0.86604 0.07858 0.14033 0.0
H307 H 0.9121 0.22255 0.36279 0.0
H308 H 0.79712 0.97514 0.22983 0.0
H309 H 0.8168 0.93718 0.22891 0.0
H310 H 0.7778 0.91567 0.30292 0.0
H311 H 0.75812 0.95359 0.30403 0.0
H312 H 0.82493 0.91403 0.31089 0.0
H313 H 0.77027 0.8875 0.2408 0.0
H314 H 0.74792 0.88938 0.19606 0.0
H315 H 0.81187 0.88898 0.14822 0.0
H316 H 0.83464 0.88744 0.1927 0.0
H317 H 0.88306 0.80741 0.32663 0.0
H318 H 0.85117 0.83498 0.31828 0.0
H319 H 0.88343 0.85631 0.23949 0.0
H320 H 0.91496 0.82801 0.24724 0.0
H321 H 0.83719 0.85613 0.23375 0.0
H322 H 0.89175 0.88738 0.30132 0.0
H323 H 0.91576 0.88735 0.34487 0.0
H324 H 0.85377 0.88162 0.39593 0.0
H325 H 0.8294 0.8813 0.35263 0.0
C326 C 0.79222 0.96207 0.24539 0.0
C327 C 0.77628 0.96741 0.26719 0.0
C328 C 0.80344 0.94035 0.24479 0.0
C329 C 0.79881 0.92366 0.26593 0.0
C330 C 0.78163 0.92835 0.28646 0.0
C331 C 0.77037 0.95 0.28701 0.0
C332 C 0.81419 0.90297 0.2691 0.0
C333 C 0.8272 0.90107 0.29426 0.0
C334 C 0.81783 0.88665 0.24693 0.0
C335 C 0.80418 0.88755 0.22013 0.0
C336 C 0.77959 0.88802 0.22076 0.0
C337 C 0.76684 0.88898 0.19543 0.0
C338 C 0.77847 0.88935 0.16931 0.0
C339 C 0.80288 0.88871 0.16847 0.0
C340 C 0.81572 0.88776 0.19373 0.0
C341 C 0.88321 0.8178 0.30738 0.0
C342 C 0.9016 0.81582 0.28775 0.0
C343 C 0.86501 0.83356 0.30264 0.0
C344 C 0.86518 0.84808 0.27856 0.0
C345 C 0.88298 0.84535 0.25826 0.0
C346 C 0.90102 0.82927 0.26277 0.0
C347 C 0.84776 0.86716 0.27563 0.0
C348 C 0.83459 0.86891 0.25051 0.0
C349 C 0.84418 0.88367 0.29764 0.0
C350 C 0.85878 0.88406 0.32373 0.0
C351 C 0.88325 0.88596 0.32183 0.0
C352 C 0.89692 0.88602 0.34647 0.0
C353 C 0.8863 0.88441 0.37315 0.0
C354 C 0.86197 0.88282 0.37525 0.0
C355 C 0.84823 0.88271 0.35067 0.0
H356 H 0.89691 0.88445 0.3922 0.0
H357 H 0.76856 0.89009 0.14973 0.0
H358 H 0.00923 0.82914 0.25699 0.0
H359 H 0.04699 0.8486 0.25227 0.0
H360 H 0.08129 0.78838 0.28849 0.0
H361 H 0.04339 0.7688 0.29345 0.0
H362 H 0.09208 0.82789 0.31658 0.0
H363 H 0.09176 0.80369 0.2199 0.0
H364 H 0.07574 0.79777 0.17178 0.0
H365 H 0.06848 0.872 0.16134 0.0
H366 H 0.08414 0.87838 0.20957 0.0
H367 H 0.20118 0.88673 0.30849 0.0
H368 H 0.17061 0.85752 0.30053 0.0
H369 H 0.12672 0.91032 0.26253 0.0
H370 H 0.1574 0.93952 0.26995 0.0
H371 H 0.12437 0.86987 0.23307 0.0
H372 H 0.11907 0.89347 0.33142 0.0
H373 H 0.13404 0.9 0.37995 0.0
H374 H 0.15078 0.82704 0.38727 0.0
H375 H 0.13619 0.82015 0.3386 0.0
C376 C 0.02487 0.8198 0.26332 0.0
C377 C 0.02336 0.79751 0.27575 0.0
C378 C 0.04647 0.83091 0.26049 0.0
C379 C 0.06699 0.81993 0.26997 0.0
C380 C 0.06567 0.79715 0.28102 0.0
C381 C 0.04403 0.78595 0.28373 0.0
C382 C 0.08915 0.83336 0.2714 0.0
C383 C 0.09949 0.83659 0.29817 0.0
C384 C 0.09842 0.84522 0.24753 0.0
C385 C 0.08899 0.8415 0.21847 0.0
C386 C 0.08657 0.81875 0.20744 0.0
C387 C 0.07759 0.81531 0.18012 0.0
C388 C 0.07106 0.83449 0.16353 0.0
C389 C 0.07354 0.85716 0.17422 0.0
C390 C 0.08251 0.8607 0.20154 0.0
C391 C 0.18504 0.89209 0.29836 0.0
C392 C 0.18158 0.91544 0.29005 0.0
C393 C 0.16759 0.87539 0.29385 0.0
C394 C 0.14629 0.88179 0.28121 0.0
C395 C 0.14303 0.90499 0.27229 0.0
C396 C 0.16051 0.92168 0.27669 0.0
C397 C 0.127 0.8646 0.27829 0.0
C398 C 0.11719 0.86077 0.25132 0.0
C399 C 0.11808 0.85225 0.30199 0.0
C400 C 0.1268 0.85635 0.33127 0.0
C401 C 0.12612 0.87886 0.3433 0.0
C402 C 0.1345 0.88262 0.37084 0.0
C403 C 0.14343 0.86396 0.38665 0.0
C404 C 0.14391 0.84149 0.37497 0.0
C405 C 0.13558 0.83764 0.34742 0.0
H406 H 0.1499 0.8669 0.40797 0.0
H407 H 0.06411 0.83179 0.14239 0.0
H408 H 0.11456 0.8138 0.69724 0.0
H409 H 0.14503 0.84222 0.70863 0.0
H410 H 0.11365 0.85392 0.79082 0.0
H411 H 0.08299 0.82541 0.77951 0.0
H412 H 0.12175 0.89454 0.76173 0.0
H413 H 0.16549 0.82678 0.78724 0.0
H414 H 0.18168 0.78715 0.78104 0.0
H415 H 0.21989 0.81006 0.70757 0.0
H416 H 0.20366 0.84976 0.71306 0.0
H417 H 0.20832 0.98009 0.78407 0.0
H418 H 0.18728 0.94369 0.79418 0.0
H419 H 0.20948 0.91566 0.71339 0.0
H420 H 0.23087 0.9516 0.7035 0.0
H421 H 0.20719 0.88158 0.75219 0.0
H422 H 0.15779 0.94513 0.71998 0.0
H423 H 0.14082 0.98473 0.72254 0.0
H424 H 0.11248 0.96941 0.805 0.0
H425 H 0.12958 0.92979 0.80307 0.0
C426 C 0.1143 0.8222 0.71788 0.0
C427 C 0.09637 0.81746 0.73746 0.0
C428 C 0.13181 0.83832 0.72444 0.0
C429 C 0.13172 0.85001 0.75068 0.0
C430 C 0.11408 0.84499 0.77051 0.0
C431 C 0.09662 0.82871 0.76403 0.0
C432 C 0.14892 0.86886 0.75618 0.0
C433 C 0.14047 0.89162 0.76042 0.0
C434 C 0.1733 0.86509 0.75379 0.0
C435 C 0.18324 0.84125 0.75049 0.0
C436 C 0.17721 0.82334 0.76964 0.0
C437 C 0.18642 0.80086 0.76627 0.0
C438 C 0.20178 0.79608 0.74391 0.0
C439 C 0.208 0.81379 0.72489 0.0
C440 C 0.19883 0.8363 0.72815 0.0
C441 C 0.20922 0.96591 0.76885 0.0
C442 C 0.22096 0.96878 0.74284 0.0
C443 C 0.19712 0.94517 0.77458 0.0
C444 C 0.19643 0.92715 0.75427 0.0
C445 C 0.2097 0.92933 0.72933 0.0
C446 C 0.22186 0.94995 0.72366 0.0
C447 C 0.17995 0.90726 0.75717 0.0
C448 C 0.18851 0.88437 0.75433 0.0
C449 C 0.1556 0.91089 0.76043 0.0
C450 C 0.14521 0.93463 0.76155 0.0
C451 C 0.14808 0.95028 0.73874 0.0
C452 C 0.13843 0.97271 0.74006 0.0
C453 C 0.12565 0.97961 0.76396 0.0
C454 C 0.12244 0.96406 0.78654 0.0
C455 C 0.1321 0.94162 0.78535 0.0
H456 H 0.11818 0.99699 0.76494 0.0
H457 H 0.20888 0.77867 0.74134 0.0
H458 H 0.16421 0.0585 0.75714 0.0
H459 H 0.13147 0.08536 0.7649 0.0
H460 H 0.16357 0.13563 0.70877 0.0
H461 H 0.1964 0.10892 0.701 0.0
H462 H 0.14513 0.1561 0.75756 0.0
H463 H 0.1209 0.10167 0.68434 0.0
H464 H 0.1138 0.0623 0.66472 0.0
H465 H 0.06532 0.04789 0.73221 0.0
H466 H 0.07238 0.08709 0.75243 0.0
H467 H 0.05022 0.22641 0.71179 0.0
H468 H 0.0846 0.20197 0.71969 0.0
H469 H 0.04246 0.15282 0.76687 0.0
H470 H 0.00786 0.17691 0.75828 0.0
H471 H 0.06579 0.13075 0.7281 0.0
H472 H 0.0864 0.18636 0.79897 0.0
H473 H 0.09358 0.22532 0.81966 0.0
H474 H 0.14846 0.2374 0.75911 0.0
H475 H 0.1414 0.19863 0.73778 0.0
C476 C 0.16434 0.07532 0.74655 0.0
C477 C 0.18278 0.08157 0.72831 0.0
C478 C 0.14563 0.09063 0.751 0.0
C479 C 0.14505 0.11241 0.73726 0.0
C480 C 0.16372 0.11892 0.71961 0.0
C481 C 0.18238 0.10359 0.71507 0.0
C482 C 0.12451 0.12803 0.74023 0.0
C483 C 0.12778 0.1507 0.75097 0.0
C484 C 0.10181 0.12066 0.7324 0.0
C485 C 0.09735 0.0972 0.72006 0.0
C486 C 0.10885 0.09004 0.6951 0.0
C487 C 0.10482 0.06777 0.68385 0.0
C488 C 0.08917 0.05257 0.69726 0.0
C489 C 0.07747 0.05966 0.72188 0.0
C490 C 0.08146 0.08191 0.73323 0.0
C491 C 0.04839 0.21068 0.72443 0.0
C492 C 0.02634 0.20351 0.7343 0.0
C493 C 0.06809 0.19673 0.72903 0.0
C494 C 0.06618 0.17554 0.74398 0.0
C495 C 0.04437 0.16904 0.7552 0.0
C496 C 0.02463 0.18287 0.75038 0.0
C497 C 0.0863 0.1591 0.74527 0.0
C498 C 0.08301 0.13621 0.73517 0.0
C499 C 0.10892 0.16628 0.75389 0.0
C500 C 0.11324 0.18963 0.76663 0.0
C501 C 0.09988 0.19739 0.78991 0.0
C502 C 0.10395 0.21943 0.80178 0.0
C503 C 0.12143 0.23385 0.79067 0.0
C504 C 0.13491 0.22622 0.76769 0.0
C505 C 0.1309 0.2042 0.75572 0.0
H506 H 0.12455 0.2509 0.79989 0.0
H507 H 0.08609 0.03533 0.68853 0.0
H508 H 0.89179 0.20351 0.73457 0.0
H509 H 0.86216 0.17284 0.74019 0.0
H510 H 0.90303 0.12687 0.68699 0.0
H511 H 0.93227 0.15747 0.68083 0.0
H512 H 0.85863 0.12416 0.67289 0.0
H513 H 0.90291 0.12284 0.76061 0.0
H514 H 0.91905 0.1397 0.80471 0.0
H515 H 0.84964 0.15517 0.83408 0.0
H516 H 0.83311 0.13866 0.78995 0.0
H517 H 0.83595 0.00937 0.71016 0.0
H518 H 0.85453 0.04759 0.71371 0.0
H519 H 0.78873 0.07854 0.73787 0.0
H520 H 0.76967 0.04009 0.7339 0.0
H521 H 0.83795 0.09319 0.76823 0.0
H522 H 0.7943 0.08955 0.67994 0.0
H523 H 0.78072 0.06902 0.63688 0.0
H524 H 0.85177 0.06051 0.60921 0.0
H525 H 0.86579 0.0806 0.65241 0.0
C526 C 0.89436 0.18687 0.72402 0.0
C527 C 0.91435 0.18284 0.70731 0.0
C528 C 0.87748 0.16935 0.72732 0.0
C529 C 0.88047 0.14749 0.71419 0.0
C530 C 0.90031 0.14362 0.69725 0.0
C531 C 0.91706 0.1611 0.69382 0.0
C532 C 0.86326 0.12834 0.71811 0.0
C533 C 0.85406 0.11751 0.69377 0.0
C534 C 0.85688 0.11989 0.74535 0.0
C535 C 0.8668 0.12981 0.77184 0.0
C536 C 0.89111 0.13003 0.77637 0.0
C537 C 0.90032 0.13948 0.80138 0.0
C538 C 0.88538 0.14858 0.82214 0.0
C539 C 0.86119 0.14817 0.81795 0.0
C540 C 0.85189 0.13876 0.79295 0.0
C541 C 0.82544 0.02416 0.71677 0.0
C542 C 0.8013 0.02179 0.72148 0.0
C543 C 0.83612 0.04597 0.71883 0.0
C544 C 0.82292 0.06577 0.72585 0.0
C545 C 0.79913 0.06334 0.73247 0.0
C546 C 0.78831 0.04144 0.73015 0.0
C547 C 0.83385 0.08901 0.72306 0.0
C548 C 0.84198 0.10043 0.74748 0.0
C549 C 0.83947 0.09794 0.69591 0.0
C550 C 0.83109 0.08641 0.66953 0.0
C551 C 0.80703 0.08314 0.66478 0.0
C552 C 0.79926 0.0716 0.64034 0.0
C553 C 0.81537 0.06342 0.62035 0.0
C554 C 0.8393 0.06684 0.62472 0.0
C555 C 0.84717 0.07832 0.64917 0.0
H556 H 0.80932 0.05446 0.60145 0.0
H557 H 0.89255 0.15588 0.84149 0.0
H558 H 0.80877 0.88778 0.67007 0.0
H559 H 0.83823 0.85765 0.679 0.0
H560 H 0.84904 0.88516 0.76343 0.0
H561 H 0.81926 0.91494 0.75484 0.0
H562 H 0.88254 0.86459 0.68758 0.0
H563 H 0.86907 0.84313 0.80783 0.0
H564 H 0.83637 0.83904 0.84164 0.0
H565 H 0.7897 0.82295 0.77287 0.0
H566 H 0.82218 0.82652 0.73869 0.0
H567 H 0.98667 0.83359 0.74871 0.0
H568 H 0.9473 0.84996 0.74841 0.0
H569 H 0.91829 0.78096 0.73749 0.0
H570 H 0.95787 0.76429 0.73765 0.0
H571 H 0.89046 0.81483 0.77353 0.0
H572 H 0.92489 0.80485 0.68126 0.0
H573 H 0.95723 0.80723 0.64668 0.0
H574 H 0.95876 0.88193 0.65578 0.0
H575 H 0.92675 0.87994 0.69089 0.0
C576 C 0.81716 0.88714 0.6907 0.0
C577 C 0.81182 0.90376 0.71172 0.0
C578 C 0.834 0.86994 0.69576 0.0
C579 C 0.84577 0.86904 0.72193 0.0
C580 C 0.83992 0.88521 0.74326 0.0
C581 C 0.82299 0.90233 0.73826 0.0
C582 C 0.8657 0.85275 0.726 0.0
C583 C 0.88406 0.85353 0.70622 0.0
C584 C 0.86763 0.83802 0.75013 0.0
C585 C 0.84808 0.83528 0.77066 0.0
C586 C 0.85188 0.83855 0.79992 0.0
C587 C 0.83336 0.83635 0.81916 0.0
C588 C 0.81096 0.8308 0.8094 0.0
C589 C 0.80705 0.82732 0.7804 0.0
C590 C 0.82551 0.82945 0.76108 0.0
C591 C 0.97192 0.82178 0.74704 0.0
C592 C 0.97534 0.7977 0.74278 0.0
C593 C 0.94945 0.83116 0.74693 0.0
C594 C 0.93001 0.81666 0.74258 0.0
C595 C 0.93314 0.79237 0.7409 0.0
C596 C 0.95573 0.78292 0.74093 0.0
C597 C 0.90723 0.82741 0.73556 0.0
C598 C 0.88855 0.82563 0.75472 0.0
C599 C 0.90468 0.84086 0.71054 0.0
C600 C 0.92354 0.84222 0.68888 0.0
C601 C 0.93224 0.82177 0.67604 0.0
C602 C 0.9505 0.82304 0.65634 0.0
C603 C 0.96007 0.84471 0.64907 0.0
C604 C 0.95134 0.86515 0.66144 0.0
C605 C 0.93313 0.86396 0.68124 0.0
H606 H 0.97422 0.84566 0.63383 0.0
H607 H 0.79664 0.82916 0.82432 0.0
H608 H 0.62083 0.68397 0.81272 0.0
H609 H 0.64985 0.65402 0.80094 0.0
H610 H 0.61442 0.64048 0.72171 0.0
H611 H 0.58548 0.67071 0.73317 0.0
H612 H 0.62236 0.60046 0.75588 0.0
H613 H 0.66519 0.66496 0.7177 0.0
H614 H 0.68275 0.70433 0.71809 0.0
H615 H 0.72663 0.68475 0.78821 0.0
H616 H 0.70908 0.64535 0.78854 0.0
H617 H 0.70172 0.51062 0.72759 0.0
H618 H 0.68136 0.54744 0.7181 0.0
H619 H 0.71566 0.57901 0.79025 0.0
H620 H 0.7367 0.54263 0.79908 0.0
H621 H 0.7084 0.61117 0.75133 0.0
H622 H 0.66196 0.55109 0.79616 0.0
H623 H 0.644 0.512 0.80001 0.0
H624 H 0.60624 0.52377 0.72242 0.0
H625 H 0.62427 0.56282 0.71791 0.0
C626 C 0.61941 0.67483 0.79262 0.0
C627 C 0.60089 0.6796 0.77389 0.0
C628 C 0.63604 0.65782 0.78587 0.0
C629 C 0.63432 0.64517 0.76039 0.0
C630 C 0.61608 0.65017 0.7414 0.0
C631 C 0.59961 0.66742 0.74797 0.0
C632 C 0.65048 0.62546 0.75485 0.0
C633 C 0.64114 0.60281 0.75417 0.0
C634 C 0.67499 0.62858 0.75347 0.0
C635 C 0.68569 0.65223 0.75326 0.0
C636 C 0.67845 0.6691 0.73336 0.0
C637 C 0.68843 0.69141 0.73342 0.0
C638 C 0.70577 0.69705 0.75319 0.0
C639 C 0.71319 0.68036 0.77291 0.0
C640 C 0.70326 0.65802 0.77295 0.0
C641 C 0.70542 0.52563 0.74089 0.0
C642 C 0.72053 0.52368 0.76431 0.0
C643 C 0.69369 0.54663 0.73555 0.0
C644 C 0.69647 0.56579 0.75396 0.0
C645 C 0.7131 0.56445 0.77585 0.0
C646 C 0.72511 0.54359 0.78091 0.0
C647 C 0.68029 0.5861 0.75271 0.0
C648 C 0.68959 0.60883 0.75234 0.0
C649 C 0.65569 0.5831 0.7537 0.0
C650 C 0.64467 0.55973 0.75651 0.0
C651 C 0.64994 0.54527 0.77983 0.0
C652 C 0.63975 0.52313 0.78214 0.0
C653 C 0.62405 0.51537 0.76142 0.0
C654 C 0.61845 0.52978 0.73841 0.0
C655 C 0.62865 0.55191 0.73596 0.0
H656 H 0.61617 0.49823 0.76324 0.0
H657 H 0.71347 0.71434 0.7532 0.0
H658 H 0.49616 0.65926 0.78357 0.0
H659 H 0.45883 0.64069 0.77379 0.0
H660 H 0.43152 0.70604 0.74212 0.0
H661 H 0.46916 0.72504 0.75248 0.0
H662 H 0.40147 0.68635 0.77822 0.0
H663 H 0.44079 0.66046 0.69615 0.0
H664 H 0.47295 0.64462 0.66706 0.0
H665 H 0.46895 0.57943 0.71205 0.0
H666 H 0.437 0.59497 0.74173 0.0
H667 H 0.29994 0.61096 0.75576 0.0
H668 H 0.33202 0.63783 0.74354 0.0
H669 H 0.3805 0.5939 0.78911 0.0
H670 H 0.34871 0.5674 0.80178 0.0
H671 H 0.39539 0.60828 0.73275 0.0
H672 H 0.36193 0.63975 0.82094 0.0
H673 H 0.32953 0.65624 0.84918 0.0
H674 H 0.32185 0.71204 0.78882 0.0
H675 H 0.35404 0.69567 0.76003 0.0
C676 C 0.48236 0.66969 0.77419 0.0
C677 C 0.48559 0.69362 0.76879 0.0
C678 C 0.46102 0.65898 0.7684 0.0
C679 C 0.44244 0.67186 0.75679 0.0
C680 C 0.44568 0.69573 0.7509 0.0
C681 C 0.46716 0.70653 0.75674 0.0
C682 C 0.41936 0.66038 0.75305 0.0
C683 C 0.39997 0.6696 0.76755 0.0
C684 C 0.41732 0.63851 0.73913 0.0
C685 C 0.4365 0.62894 0.72125 0.0
C686 C 0.44685 0.64279 0.69997 0.0
C687 C 0.46504 0.63385 0.68335 0.0
C688 C 0.473 0.61104 0.68771 0.0
C689 C 0.46276 0.5971 0.70868 0.0
C690 C 0.44456 0.60595 0.72537 0.0
C691 C 0.31747 0.6071 0.76312 0.0
C692 C 0.32187 0.58717 0.7798 0.0
C693 C 0.33571 0.62241 0.75612 0.0
C694 C 0.35857 0.61774 0.76537 0.0
C695 C 0.36297 0.5977 0.78167 0.0
C696 C 0.34478 0.58267 0.78902 0.0
C697 C 0.37813 0.63381 0.75897 0.0
C698 C 0.39678 0.6254 0.74256 0.0
C699 C 0.37938 0.6565 0.77079 0.0
C700 C 0.36014 0.66633 0.78816 0.0
C701 C 0.35318 0.65541 0.81356 0.0
C702 C 0.33489 0.66476 0.82969 0.0
C703 C 0.32357 0.68513 0.82074 0.0
C704 C 0.33058 0.69623 0.79569 0.0
C705 C 0.34885 0.68694 0.77946 0.0
H706 H 0.30943 0.69234 0.83326 0.0
H707 H 0.48709 0.60416 0.67482 0.0
H708 H 0.32761 0.48697 0.7637 0.0
H709 H 0.34248 0.4483 0.75245 0.0
H710 H 0.27195 0.42153 0.74894 0.0
H711 H 0.25689 0.46043 0.76131 0.0
H712 H 0.29656 0.39407 0.77961 0.0
H713 H 0.30747 0.42395 0.68786 0.0
H714 H 0.31835 0.45203 0.65037 0.0
H715 H 0.39033 0.44775 0.67578 0.0
H716 H 0.37987 0.41992 0.7137 0.0
H717 H 0.39395 0.30622 0.72259 0.0
H718 H 0.36288 0.33467 0.71291 0.0
H719 H 0.36289 0.35482 0.80137 0.0
H720 H 0.3931 0.32598 0.81123 0.0
H721 H 0.36379 0.37904 0.71551 0.0
H722 H 0.31301 0.37541 0.82388 0.0
H723 H 0.29948 0.34546 0.85779 0.0
H724 H 0.3016 0.29347 0.79197 0.0
H725 H 0.31481 0.32315 0.75754 0.0
C726 C 0.31519 0.47298 0.76004 0.0
C727 C 0.29108 0.47671 0.76348 0.0
C728 C 0.32372 0.45085 0.75335 0.0
C729 C 0.30836 0.43197 0.74942 0.0
C730 C 0.28415 0.43583 0.75177 0.0
C731 C 0.27556 0.45805 0.75874 0.0
C732 C 0.31802 0.40801 0.74598 0.0
C733 C 0.31104 0.39065 0.76531 0.0
C734 C 0.33633 0.40314 0.72658 0.0
C735 C 0.34284 0.41984 0.7037 0.0
C736 C 0.32561 0.42909 0.68557 0.0
C737 C 0.33171 0.44496 0.66422 0.0
C738 C 0.35502 0.45168 0.6607 0.0
C739 C 0.37228 0.44251 0.6785 0.0
C740 C 0.36628 0.42663 0.69989 0.0
C741 C 0.38699 0.31648 0.74 0.0
C742 C 0.39591 0.31389 0.76766 0.0
C743 C 0.36928 0.33274 0.73445 0.0
C744 C 0.36026 0.34671 0.75645 0.0
C745 C 0.36902 0.34385 0.78414 0.0
C746 C 0.38647 0.32746 0.78974 0.0
C747 C 0.3433 0.36577 0.7504 0.0
C748 C 0.3489 0.38218 0.72927 0.0
C749 C 0.32327 0.36944 0.76754 0.0
C750 C 0.315 0.35154 0.78812 0.0
C751 C 0.31042 0.35763 0.81656 0.0
C752 C 0.30286 0.34068 0.8359 0.0
C753 C 0.29972 0.31757 0.82705 0.0
C754 C 0.30409 0.31137 0.79882 0.0
C755 C 0.31165 0.32825 0.77939 0.0
H756 H 0.29387 0.30448 0.84206 0.0
H757 H 0.3597 0.46398 0.64417 0.0
H758 H 0.65292 0.44091 0.79342 0.0
H759 H 0.61953 0.41544 0.78441 0.0
H760 H 0.66604 0.36072 0.75625 0.0
H761 H 0.6997 0.38646 0.76468 0.0
H762 H 0.62724 0.36275 0.72309 0.0
H763 H 0.64348 0.35845 0.8221 0.0
H764 H 0.65184 0.3734 0.8702 0.0
H765 H 0.58512 0.4078 0.8721 0.0
H766 H 0.57649 0.39335 0.82381 0.0
H767 H 0.5347 0.27624 0.74888 0.0
H768 H 0.57188 0.29777 0.74686 0.0
H769 H 0.53522 0.36216 0.76388 0.0
H770 H 0.49823 0.34102 0.76558 0.0
H771 H 0.57174 0.3509 0.80289 0.0
H772 H 0.55709 0.35551 0.7017 0.0
H773 H 0.54957 0.33908 0.65411 0.0
H774 H 0.61436 0.30125 0.65772 0.0
H775 H 0.62211 0.31721 0.70555 0.0
C776 C 0.65607 0.42349 0.7852 0.0
C777 C 0.67892 0.41557 0.78004 0.0
C778 C 0.63697 0.40894 0.7801 0.0
C779 C 0.64033 0.38603 0.77015 0.0
C780 C 0.66308 0.3783 0.76405 0.0
C781 C 0.68226 0.39297 0.76897 0.0
C782 C 0.62 0.37011 0.76717 0.0
C783 C 0.61529 0.35984 0.74064 0.0
C784 C 0.60439 0.36633 0.79007 0.0
C785 C 0.60942 0.37496 0.81922 0.0
C786 C 0.63065 0.36934 0.83268 0.0
C787 C 0.63543 0.37771 0.86 0.0
C788 C 0.61904 0.39158 0.87417 0.0
C789 C 0.59781 0.39707 0.86108 0.0
C790 C 0.59295 0.38877 0.83375 0.0
C791 C 0.53455 0.29506 0.75151 0.0
C792 C 0.5136 0.30693 0.75759 0.0
C793 C 0.55576 0.3073 0.75037 0.0
C794 C 0.55623 0.3315 0.75542 0.0
C795 C 0.53519 0.34347 0.76005 0.0
C796 C 0.51407 0.33135 0.76095 0.0
C797 C 0.57861 0.34418 0.75864 0.0
C798 C 0.58378 0.35369 0.78538 0.0
C799 C 0.5947 0.34692 0.73607 0.0
C800 C 0.59003 0.33732 0.70735 0.0
C801 C 0.56961 0.34349 0.69248 0.0
C802 C 0.56534 0.33431 0.66543 0.0
C803 C 0.58144 0.31907 0.65294 0.0
C804 C 0.60188 0.31302 0.66745 0.0
C805 C 0.60623 0.32214 0.69452 0.0
H806 H 0.5781 0.31199 0.63199 0.0
H807 H 0.62277 0.39804 0.89532 0.0
H808 H 0.7428 0.45521 0.23127 0.0
H809 H 0.72422 0.41664 0.23235 0.0
H810 H 0.65841 0.44873 0.2545 0.0
H811 H 0.67686 0.48718 0.25375 0.0
H812 H 0.6622 0.40656 0.27904 0.0
H813 H 0.67163 0.44057 0.18647 0.0
H814 H 0.69306 0.45778 0.14605 0.0
H815 H 0.73345 0.39488 0.13753 0.0
H816 H 0.7125 0.37743 0.17824 0.0
H817 H 0.592 0.33685 0.16739 0.0
H818 H 0.62062 0.36665 0.17971 0.0
H819 H 0.64152 0.32635 0.25305 0.0
H820 H 0.61196 0.29679 0.24136 0.0
H821 H 0.66468 0.36937 0.18376 0.0
H822 H 0.65857 0.36347 0.30612 0.0
H823 H 0.63059 0.35123 0.34323 0.0
H824 H 0.57324 0.36565 0.28699 0.0
H825 H 0.60086 0.37823 0.24972 0.0
C826 C 0.72456 0.45395 0.23729 0.0
C827 C 0.71117 0.4742 0.24205 0.0
C828 C 0.71395 0.43193 0.23776 0.0
C829 C 0.68985 0.42991 0.24296 0.0
C830 C 0.67701 0.44991 0.25036 0.0
C831 C 0.68757 0.47189 0.24985 0.0
C832 C 0.67733 0.40775 0.23715 0.0
C833 C 0.66298 0.39818 0.25836 0.0
C834 C 0.67785 0.39726 0.20988 0.0
C835 C 0.69074 0.40782 0.18567 0.0
C836 C 0.68526 0.43051 0.17619 0.0
C837 C 0.69728 0.44029 0.15319 0.0
C838 C 0.71465 0.42746 0.13929 0.0
C839 C 0.72003 0.40482 0.14837 0.0
C840 C 0.70811 0.39498 0.17142 0.0
C841 C 0.60277 0.33423 0.18606 0.0
C842 C 0.59964 0.3146 0.20355 0.0
C843 C 0.61923 0.35126 0.19304 0.0
C844 C 0.63311 0.34893 0.21749 0.0
C845 C 0.63072 0.32878 0.23437 0.0
C846 C 0.61392 0.31186 0.22763 0.0
C847 C 0.64924 0.3682 0.22556 0.0
C848 C 0.66433 0.37727 0.20473 0.0
C849 C 0.64856 0.37887 0.25276 0.0
C850 C 0.63179 0.37146 0.27504 0.0
C851 C 0.63999 0.36404 0.30172 0.0
C852 C 0.62419 0.35706 0.32277 0.0
C853 C 0.60016 0.35757 0.31743 0.0
C854 C 0.59186 0.36516 0.29106 0.0
C855 C 0.60757 0.3722 0.26996 0.0
H856 H 0.58797 0.35214 0.33374 0.0
H857 H 0.72386 0.43502 0.12141 0.0
H858 H 0.50942 0.66665 0.18192 0.0
H859 H 0.54611 0.64657 0.19081 0.0
H860 H 0.56062 0.69321 0.26072 0.0
H861 H 0.52365 0.71397 0.25145 0.0
H862 H 0.59969 0.68506 0.22806 0.0
H863 H 0.54309 0.63854 0.27521 0.0
H864 H 0.5058 0.61749 0.28128 0.0
H865 H 0.5237 0.57153 0.21244 0.0
H866 H 0.56095 0.59252 0.20565 0.0
H867 H 0.69384 0.60199 0.25572 0.0
H868 H 0.65978 0.62756 0.26283 0.0
H869 H 0.62654 0.59694 0.1894 0.0
H870 H 0.66025 0.57152 0.18221 0.0
H871 H 0.59765 0.59857 0.23646 0.0
H872 H 0.65132 0.65006 0.18551 0.0
H873 H 0.68854 0.67135 0.1799 0.0
H874 H 0.67618 0.7077 0.25838 0.0
H875 H 0.639 0.68638 0.26462 0.0
C876 C 0.52033 0.6727 0.19924 0.0
C877 C 0.51354 0.69176 0.21617 0.0
C878 C 0.54131 0.66113 0.20436 0.0
C879 C 0.55588 0.66807 0.22681 0.0
C880 C 0.54951 0.68748 0.24343 0.0
C881 C 0.52842 0.69925 0.23817 0.0
C882 C 0.57763 0.65471 0.23239 0.0
C883 C 0.59928 0.6662 0.2306 0.0
C884 C 0.5771 0.6301 0.23567 0.0
C885 C 0.55481 0.61719 0.23987 0.0
C886 C 0.53903 0.62402 0.26126 0.0
C887 C 0.5179 0.61209 0.26484 0.0
C888 C 0.51238 0.59319 0.24725 0.0
C889 C 0.52801 0.58616 0.22607 0.0
C890 C 0.54916 0.59804 0.22238 0.0
C891 C 0.67929 0.60084 0.24105 0.0
C892 C 0.67966 0.58475 0.21843 0.0
C893 C 0.6599 0.61546 0.24511 0.0
C894 C 0.64066 0.6141 0.22664 0.0
C895 C 0.64117 0.59817 0.20397 0.0
C896 C 0.66049 0.58372 0.19983 0.0
C897 C 0.6196 0.62879 0.23082 0.0
C898 C 0.59807 0.61748 0.2346 0.0
C899 C 0.62032 0.65351 0.22962 0.0
C900 C 0.64254 0.66642 0.22571 0.0
C901 C 0.65664 0.66245 0.20168 0.0
C902 C 0.6777 0.67455 0.19837 0.0
C903 C 0.68476 0.69081 0.21882 0.0
C904 C 0.67072 0.69507 0.24258 0.0
C905 C 0.64964 0.68299 0.24601 0.0
H906 H 0.70108 0.70015 0.21622 0.0
H907 H 0.496 0.58399 0.25004 0.0
H908 H 0.37674 0.68023 0.19647 0.0
H909 H 0.34928 0.65082 0.21406 0.0
H910 H 0.39451 0.63717 0.2855 0.0
H911 H 0.42197 0.66701 0.26824 0.0
H912 H 0.3808 0.59692 0.25308 0.0
H913 H 0.34622 0.66196 0.30024 0.0
H914 H 0.33082 0.70211 0.304 0.0
H915 H 0.27723 0.68581 0.24325 0.0
H916 H 0.29254 0.64567 0.23872 0.0
H917 H 0.3023 0.50831 0.2868 0.0
H918 H 0.32344 0.54441 0.29774 0.0
H919 H 0.28501 0.58039 0.23206 0.0
H920 H 0.26334 0.54469 0.22172 0.0
H921 H 0.29665 0.61044 0.27313 0.0
H922 H 0.33585 0.55107 0.21707 0.0
H923 H 0.3514 0.51148 0.20831 0.0
H924 H 0.3965 0.51797 0.28087 0.0
H925 H 0.38092 0.5575 0.2903 0.0
C926 C 0.38073 0.67113 0.21608 0.0
C927 C 0.40149 0.67582 0.23097 0.0
C928 C 0.36498 0.65446 0.22618 0.0
C929 C 0.36982 0.642 0.25118 0.0
C930 C 0.39044 0.64676 0.26627 0.0
C931 C 0.40606 0.66376 0.25641 0.0
C932 C 0.35408 0.62281 0.26002 0.0
C933 C 0.36255 0.59986 0.25829 0.0
C934 C 0.33017 0.62675 0.26606 0.0
C935 C 0.32063 0.6508 0.26902 0.0
C936 C 0.33124 0.66696 0.28753 0.0
C937 C 0.32252 0.68973 0.28982 0.0
C938 C 0.30308 0.69652 0.27384 0.0
C939 C 0.29229 0.68053 0.25561 0.0
C940 C 0.30097 0.65775 0.2532 0.0
C941 C 0.29779 0.52414 0.2754 0.0
C942 C 0.2815 0.52359 0.25304 0.0
C943 C 0.30994 0.54473 0.28159 0.0
C944 C 0.30628 0.56491 0.26515 0.0
C945 C 0.28826 0.56501 0.2449 0.0
C946 C 0.27591 0.54452 0.23895 0.0
C947 C 0.32329 0.58452 0.26568 0.0
C948 C 0.31506 0.60751 0.26887 0.0
C949 C 0.34741 0.58069 0.26045 0.0
C950 C 0.35702 0.55708 0.2546 0.0
C951 C 0.34898 0.54398 0.23125 0.0
C952 C 0.3578 0.52157 0.22616 0.0
C953 C 0.37487 0.51218 0.24408 0.0
C954 C 0.38323 0.52524 0.26706 0.0
C955 C 0.37441 0.54764 0.27229 0.0
H956 H 0.38167 0.49482 0.24012 0.0
H957 H 0.29637 0.71416 0.27562 0.0
H958 H 0.3093 0.39633 0.25465 0.0
H959 H 0.34242 0.36948 0.25943 0.0
H960 H 0.38185 0.41095 0.19956 0.0
H961 H 0.34854 0.43727 0.19397 0.0
H962 H 0.38655 0.36739 0.18676 0.0
H963 H 0.39201 0.41172 0.27336 0.0
H964 H 0.37799 0.42821 0.31872 0.0
H965 H 0.36605 0.35899 0.35098 0.0
H966 H 0.37973 0.34209 0.30564 0.0
H967 H 0.50255 0.33904 0.21521 0.0
H968 H 0.46613 0.36009 0.22346 0.0
H969 H 0.43169 0.29551 0.2453 0.0
H970 H 0.46823 0.27399 0.2365 0.0
H971 H 0.42232 0.34593 0.27931 0.0
H972 H 0.41851 0.30269 0.1894 0.0
H973 H 0.43665 0.28907 0.14478 0.0
H974 H 0.44862 0.3602 0.11943 0.0
H975 H 0.43098 0.3742 0.1642 0.0
C976 C 0.3251 0.39975 0.24265 0.0
C977 C 0.32638 0.41884 0.22392 0.0
C978 C 0.34404 0.38445 0.24547 0.0
C979 C 0.36472 0.38827 0.23002 0.0
C980 C 0.36606 0.40756 0.21161 0.0
C981 C 0.34705 0.42264 0.2085 0.0
C982 C 0.38482 0.37193 0.23227 0.0
C983 C 0.39429 0.36278 0.20706 0.0
C984 C 0.39483 0.36553 0.25874 0.0
C985 C 0.38663 0.37565 0.286 0.0
C986 C 0.38621 0.40002 0.29005 0.0
C987 C 0.37836 0.40944 0.31576 0.0
C988 C 0.37107 0.39465 0.33768 0.0
C989 C 0.37167 0.37042 0.33396 0.0
C990 C 0.37948 0.36091 0.30826 0.0
C991 C 0.48741 0.3293 0.22238 0.0
C992 C 0.48814 0.30482 0.22488 0.0
C993 C 0.46666 0.3414 0.22716 0.0
C994 C 0.44634 0.32928 0.23479 0.0
C995 C 0.44733 0.30508 0.23949 0.0
C996 C 0.46814 0.29285 0.23441 0.0
C997 C 0.42378 0.34173 0.23392 0.0
C998 C 0.41406 0.35023 0.25922 0.0
C999 C 0.41366 0.34784 0.20757 0.0
C1000 C 0.42363 0.33947 0.18026 0.0
C1001 C 0.42519 0.31541 0.17441 0.0
C1002 C 0.43536 0.30762 0.14908 0.0
C1003 C 0.44384 0.32375 0.1293 0.0
C1004 C 0.44208 0.34771 0.13477 0.0
C1005 C 0.43198 0.35558 0.16012 0.0
H1006 H 0.45173 0.31767 0.10973 0.0
H1007 H 0.365 0.40198 0.35758 0.0
H1008 H 0.07681 0.28375 0.22311 0.0
H1009 H 0.1017 0.31799 0.21623 0.0
H1010 H 0.06901 0.35195 0.28774 0.0
H1011 H 0.0442 0.31748 0.29518 0.0
H1012 H 0.08582 0.38061 0.22917 0.0
H1013 H 0.10892 0.33372 0.31217 0.0
H1014 H 0.11495 0.29556 0.3355 0.0
H1015 H 0.16333 0.27569 0.26995 0.0
H1016 H 0.15724 0.31363 0.246 0.0
H1017 H 0.18807 0.45409 0.24895 0.0
H1018 H 0.15232 0.43138 0.25799 0.0
H1019 H 0.18369 0.37132 0.21756 0.0
H1020 H 0.21921 0.3936 0.20887 0.0
H1021 H 0.16418 0.35946 0.26665 0.0
H1022 H 0.14275 0.40467 0.18386 0.0
H1023 H 0.13613 0.44091 0.15664 0.0
H1024 H 0.08493 0.46307 0.21778 0.0
H1025 H 0.0915 0.42706 0.24558 0.0
C1026 C 0.07439 0.29875 0.23687 0.0
C1027 C 0.0588 0.29785 0.25991 0.0
C1028 C 0.08857 0.31831 0.23284 0.0
C1029 C 0.08716 0.33734 0.25155 0.0
C1030 C 0.07018 0.33742 0.27302 0.0
C1031 C 0.05614 0.3177 0.2773 0.0
C1032 C 0.10611 0.35482 0.25153 0.0
C1033 C 0.10286 0.37635 0.23787 0.0
C1034 C 0.12831 0.34891 0.26247 0.0
C1035 C 0.13247 0.32638 0.2772 0.0
C1036 C 0.12071 0.32113 0.30264 0.0
C1037 C 0.12415 0.29956 0.31598 0.0
C1038 C 0.13947 0.28318 0.30418 0.0
C1039 C 0.15144 0.28839 0.27906 0.0
C1040 C 0.14802 0.30992 0.2656 0.0
C1041 C 0.18726 0.43604 0.24204 0.0
C1042 C 0.20643 0.42558 0.22829 0.0
C1043 C 0.16684 0.42314 0.24709 0.0
C1044 C 0.16535 0.39968 0.23836 0.0
C1045 C 0.18449 0.38935 0.22459 0.0
C1046 C 0.20478 0.40214 0.21959 0.0
C1047 C 0.14422 0.38539 0.24385 0.0
C1048 C 0.14707 0.36422 0.25852 0.0
C1049 C 0.12177 0.39169 0.23365 0.0
C1050 C 0.11784 0.41333 0.21699 0.0
C1051 C 0.13025 0.41737 0.19164 0.0
C1052 C 0.12647 0.43785 0.17608 0.0
C1053 C 0.11018 0.45433 0.18553 0.0
C1054 C 0.09759 0.45032 0.21052 0.0
C1055 C 0.10132 0.42988 0.22618 0.0
H1056 H 0.10727 0.47016 0.17345 0.0
H1057 H 0.1421 0.26648 0.31452 0.0
H1058 H 0.68093 0.05723 0.29086 0.0
H1059 H 0.64855 0.08177 0.27504 0.0
H1060 H 0.68243 0.09121 0.19386 0.0
H1061 H 0.71518 0.06706 0.20984 0.0
H1062 H 0.67267 0.13176 0.21718 0.0
H1063 H 0.62989 0.06146 0.20038 0.0
H1064 H 0.61351 0.02266 0.2115 0.0
H1065 H 0.57343 0.05236 0.27974 0.0
H1066 H 0.58983 0.09132 0.2693 0.0
H1067 H 0.58575 0.2015 0.15686 0.0
H1068 H 0.60827 0.16601 0.16564 0.0
H1069 H 0.58346 0.16445 0.25219 0.0
H1070 H 0.56074 0.20021 0.24357 0.0
H1071 H 0.58707 0.11874 0.22441 0.0
H1072 H 0.63259 0.18798 0.24339 0.0
H1073 H 0.64878 0.22685 0.23209 0.0
H1074 H 0.68397 0.19827 0.15929 0.0
H1075 H 0.66765 0.15928 0.16991 0.0
C1076 C 0.68122 0.06408 0.26939 0.0
C1077 C 0.70068 0.06044 0.25166 0.0
C1078 C 0.66262 0.07802 0.26032 0.0
C1079 C 0.66304 0.08833 0.23325 0.0
C1080 C 0.68178 0.08347 0.21487 0.0
C1081 C 0.70045 0.06963 0.22398 0.0
C1082 C 0.64559 0.10644 0.22557 0.0
C1083 C 0.65396 0.12869 0.2182 0.0
C1084 C 0.62117 0.10271 0.22783 0.0
C1085 C 0.61126 0.0793 0.2342 0.0
C1086 C 0.61774 0.0597 0.21792 0.0
C1087 C 0.60841 0.03767 0.22407 0.0
C1088 C 0.59248 0.03503 0.24636 0.0
C1089 C 0.58579 0.05443 0.2625 0.0
C1090 C 0.59508 0.07649 0.25645 0.0
C1091 C 0.58477 0.19345 0.17766 0.0
C1092 C 0.57173 0.20377 0.19966 0.0
C1093 C 0.59761 0.17314 0.1826 0.0
C1094 C 0.59765 0.1628 0.2096 0.0
C1095 C 0.58357 0.17222 0.23119 0.0
C1096 C 0.57073 0.19267 0.22629 0.0
C1097 C 0.61431 0.14373 0.21586 0.0
C1098 C 0.60581 0.12152 0.22313 0.0
C1099 C 0.63868 0.14739 0.21355 0.0
C1100 C 0.64869 0.17078 0.20726 0.0
C1101 C 0.64361 0.19003 0.22483 0.0
C1102 C 0.65284 0.21207 0.21857 0.0
C1103 C 0.66734 0.21504 0.19494 0.0
C1104 C 0.6727 0.19595 0.17756 0.0
C1105 C 0.66347 0.17387 0.18369 0.0
H1106 H 0.67447 0.23212 0.19013 0.0
H1107 H 0.58528 0.01797 0.25108 0.0
H1108 H 0.78936 0.57022 0.27544 0.0
H1109 H 0.82211 0.59606 0.28717 0.0
H1110 H 0.84222 0.59808 0.19883 0.0
H1111 H 0.80948 0.57232 0.18691 0.0
H1112 H 0.88092 0.5965 0.237 0.0
H1113 H 0.81055 0.64008 0.22046 0.0
H1114 H 0.76884 0.64974 0.22668 0.0
H1115 H 0.78046 0.66302 0.31541 0.0
H1116 H 0.82221 0.65306 0.3098 0.0
H1117 H 0.94047 0.70859 0.24184 0.0
H1118 H 0.91642 0.6744 0.22966 0.0
H1119 H 0.89122 0.67132 0.31602 0.0
H1120 H 0.915 0.70519 0.32827 0.0
H1121 H 0.8559 0.67286 0.27691 0.0
H1122 H 0.92727 0.63029 0.29251 0.0
H1123 H 0.96888 0.62073 0.28529 0.0
H1124 H 0.95567 0.60636 0.19715 0.0
H1125 H 0.914 0.61617 0.20375 0.0
C1126 C 0.80101 0.57583 0.25861 0.0
C1127 C 0.79675 0.5695 0.23024 0.0
C1128 C 0.81967 0.59057 0.26532 0.0
C1129 C 0.83438 0.59911 0.24379 0.0
C1130 C 0.83105 0.59165 0.21571 0.0
C1131 C 0.81228 0.57705 0.20894 0.0
C1132 C 0.85167 0.6176 0.25018 0.0
C1133 C 0.87552 0.6133 0.24548 0.0
C1134 C 0.84451 0.63941 0.26134 0.0
C1135 C 0.81945 0.64557 0.26478 0.0
C1136 C 0.80417 0.64486 0.24135 0.0
C1137 C 0.78053 0.65042 0.24476 0.0
C1138 C 0.77199 0.65692 0.27144 0.0
C1139 C 0.7871 0.65794 0.29476 0.0
C1140 C 0.81075 0.65235 0.29148 0.0
C1141 C 0.93008 0.70035 0.25827 0.0
C1142 C 0.92945 0.70965 0.28592 0.0
C1143 C 0.91642 0.68083 0.25133 0.0
C1144 C 0.90202 0.67042 0.27197 0.0
C1145 C 0.90215 0.67917 0.29979 0.0
C1146 C 0.91577 0.69852 0.30673 0.0
C1147 C 0.88532 0.65169 0.26433 0.0
C1148 C 0.86143 0.65605 0.26856 0.0
C1149 C 0.89251 0.63007 0.2526 0.0
C1150 C 0.91756 0.62423 0.24855 0.0
C1151 C 0.93327 0.62532 0.27152 0.0
C1152 C 0.95687 0.61981 0.26755 0.0
C1153 C 0.96493 0.61301 0.24076 0.0
C1154 C 0.94941 0.61167 0.21788 0.0
C1155 C 0.92579 0.61719 0.22173 0.0
H1156 H 0.9832 0.60873 0.23773 0.0
H1157 H 0.75368 0.66123 0.27403 0.0
H1158 H 0.3177 0.94947 0.30015 0.0
H1159 H 0.34926 0.92178 0.28936 0.0
H1160 H 0.30527 0.88796 0.22729 0.0
H1161 H 0.27383 0.91557 0.23769 0.0
H1162 H 0.32261 0.85815 0.27024 0.0
H1163 H 0.3501 0.91719 0.20482 0.0
H1164 H 0.36375 0.95651 0.1912 0.0
H1165 H 0.42138 0.95057 0.24924 0.0
H1166 H 0.40787 0.9113 0.26352 0.0
H1167 H 0.38779 0.77896 0.19317 0.0
H1168 H 0.36613 0.81371 0.20701 0.0
H1169 H 0.4215 0.83329 0.26452 0.0
H1170 H 0.44363 0.79812 0.25059 0.0
H1171 H 0.40214 0.87151 0.23123 0.0
H1172 H 0.37679 0.81113 0.29368 0.0
H1173 H 0.36362 0.77151 0.30672 0.0
H1174 H 0.30211 0.78009 0.25545 0.0
H1175 H 0.3151 0.81964 0.24171 0.0
C1176 C 0.31499 0.93648 0.28371 0.0
C1177 C 0.29326 0.93457 0.26988 0.0
C1178 C 0.33301 0.9207 0.2776 0.0
C1179 C 0.32948 0.90277 0.2577 0.0
C1180 C 0.30826 0.90165 0.24282 0.0
C1181 C 0.29036 0.91749 0.2487 0.0
C1182 C 0.34682 0.8838 0.2542 0.0
C1183 C 0.33995 0.86105 0.26155 0.0
C1184 C 0.36974 0.8878 0.24398 0.0
C1185 C 0.3778 0.91143 0.23552 0.0
C1186 C 0.36554 0.92437 0.21492 0.0
C1187 C 0.37328 0.94662 0.20702 0.0
C1188 C 0.39337 0.95607 0.21943 0.0
C1189 C 0.40579 0.94325 0.2397 0.0
C1190 C 0.39811 0.92099 0.24769 0.0
C1191 C 0.39551 0.79064 0.20869 0.0
C1192 C 0.41735 0.78571 0.22099 0.0
C1193 C 0.38307 0.81051 0.21657 0.0
C1194 C 0.39211 0.82588 0.23699 0.0
C1195 C 0.41426 0.82154 0.24875 0.0
C1196 C 0.42679 0.80146 0.24088 0.0
C1197 C 0.37759 0.84583 0.24644 0.0
C1198 C 0.38495 0.8687 0.24037 0.0
C1199 C 0.35509 0.84203 0.25805 0.0
C1200 C 0.34701 0.81833 0.26652 0.0
C1201 C 0.36053 0.80452 0.28502 0.0
C1202 C 0.35309 0.78207 0.29256 0.0
C1203 C 0.33206 0.77327 0.28188 0.0
C1204 C 0.3184 0.78693 0.2637 0.0
C1205 C 0.32578 0.80938 0.25606 0.0
H1206 H 0.32634 0.75587 0.28772 0.0
H1207 H 0.39935 0.9733 0.21326 0.0
H1208 H 0.20807 0.56446 0.73537 0.0
H1209 H 0.17432 0.58888 0.72319 0.0
H1210 H 0.16619 0.6077 0.81145 0.0
H1211 H 0.1997 0.58323 0.8238 0.0
H1212 H 0.12367 0.60102 0.78494 0.0
H1213 H 0.19585 0.6429 0.76854 0.0
H1214 H 0.23501 0.64851 0.74765 0.0
H1215 H 0.20566 0.64482 0.66374 0.0
H1216 H 0.16635 0.63884 0.68417 0.0
H1217 H 0.06804 0.71266 0.77682 0.0
H1218 H 0.09225 0.67811 0.78584 0.0
H1219 H 0.1001 0.66753 0.69549 0.0
H1220 H 0.07641 0.70222 0.68641 0.0
H1221 H 0.14107 0.66741 0.72044 0.0
H1222 H 0.06786 0.6296 0.73709 0.0
H1223 H 0.02881 0.62422 0.75832 0.0
H1224 H 0.05946 0.6205 0.84151 0.0
H1225 H 0.09869 0.6262 0.82083 0.0
C1226 C 0.19887 0.57354 0.7522 0.0
C1227 C 0.20664 0.57216 0.78048 0.0
C1228 C 0.17963 0.58748 0.74522 0.0
C1229 C 0.16796 0.60028 0.7664 0.0
C1230 C 0.17496 0.59795 0.79482 0.0
C1231 C 0.19419 0.58407 0.80179 0.0
C1232 C 0.14976 0.6176 0.75881 0.0
C1233 C 0.12742 0.61563 0.77095 0.0
C1234 C 0.15463 0.63638 0.74018 0.0
C1235 C 0.17822 0.64015 0.72788 0.0
C1236 C 0.19778 0.6431 0.74564 0.0
C1237 C 0.22 0.64637 0.73388 0.0
C1238 C 0.22283 0.64695 0.70438 0.0
C1239 C 0.20344 0.64432 0.68659 0.0
C1240 C 0.18119 0.641 0.69824 0.0
C1241 C 0.07462 0.70271 0.75892 0.0
C1242 C 0.0705 0.71019 0.73093 0.0
C1243 C 0.08836 0.68292 0.76408 0.0
C1244 C 0.09793 0.67017 0.74132 0.0
C1245 C 0.09297 0.67713 0.71337 0.0
C1246 C 0.0794 0.69694 0.70822 0.0
C1247 C 0.11479 0.65095 0.74653 0.0
C1248 C 0.13704 0.65265 0.73408 0.0
C1249 C 0.10978 0.63198 0.76488 0.0
C1250 C 0.08621 0.62853 0.77741 0.0
C1251 C 0.06627 0.62783 0.75994 0.0
C1252 C 0.0441 0.62468 0.77187 0.0
C1253 C 0.04165 0.62207 0.80125 0.0
C1254 C 0.06138 0.62255 0.81876 0.0
C1255 C 0.08359 0.62571 0.80694 0.0
H1256 H 0.02447 0.61963 0.81045 0.0
H1257 H 0.24004 0.64949 0.69532 0.0
H1258 H 0.41566 0.21485 0.72382 0.0
H1259 H 0.39494 0.17776 0.71937 0.0
H1260 H 0.43587 0.14906 0.78806 0.0
H1261 H 0.45628 0.18646 0.79315 0.0
H1262 H 0.40236 0.1325 0.71043 0.0
H1263 H 0.39915 0.11818 0.8309 0.0
H1264 H 0.40463 0.14043 0.87542 0.0
H1265 H 0.38232 0.20332 0.83357 0.0
H1266 H 0.37644 0.18138 0.78896 0.0
H1267 H 0.3229 0.03778 0.72754 0.0
H1268 H 0.35888 0.06022 0.73546 0.0
H1269 H 0.3181 0.11739 0.7691 0.0
H1270 H 0.28238 0.09498 0.76189 0.0
H1271 H 0.35745 0.11365 0.79776 0.0
H1272 H 0.33442 0.11472 0.69828 0.0
H1273 H 0.32537 0.09648 0.65203 0.0
H1274 H 0.39413 0.06638 0.64916 0.0
H1275 H 0.40347 0.08423 0.6956 0.0
C1276 C 0.42065 0.20048 0.73754 0.0
C1277 C 0.43729 0.20365 0.75915 0.0
C1278 C 0.40884 0.17923 0.7349 0.0
C1279 C 0.41353 0.16079 0.75375 0.0
C1280 C 0.4317 0.16321 0.77362 0.0
C1281 C 0.44339 0.18455 0.77644 0.0
C1282 C 0.39739 0.1405 0.75476 0.0
C1283 C 0.39282 0.12809 0.72963 0.0
C1284 C 0.38469 0.13493 0.77973 0.0
C1285 C 0.38766 0.1482 0.80657 0.0
C1286 C 0.39535 0.13674 0.83127 0.0
C1287 C 0.39853 0.14929 0.85649 0.0
C1288 C 0.39392 0.17329 0.85729 0.0
C1289 C 0.38597 0.18476 0.8329 0.0
C1290 C 0.38272 0.17228 0.80765 0.0
C1291 C 0.32171 0.05494 0.73718 0.0
C1292 C 0.29984 0.06474 0.74387 0.0
C1293 C 0.34225 0.06777 0.74157 0.0
C1294 C 0.34115 0.09063 0.75248 0.0
C1295 C 0.31941 0.09981 0.76067 0.0
C1296 C 0.29897 0.087 0.75643 0.0
C1297 C 0.36207 0.10596 0.75328 0.0
C1298 C 0.36753 0.11747 0.77877 0.0
C1299 C 0.37509 0.11116 0.72845 0.0
C1300 C 0.36953 0.10054 0.70052 0.0
C1301 C 0.34754 0.10407 0.68786 0.0
C1302 C 0.34237 0.09383 0.66161 0.0
C1303 C 0.35914 0.08022 0.64771 0.0
C1304 C 0.38114 0.07688 0.65999 0.0
C1305 C 0.38638 0.08705 0.68626 0.0
H1306 H 0.3551 0.0723 0.62739 0.0
H1307 H 0.39645 0.18298 0.87682 0.0
H1308 H 0.93604 0.31162 0.68535 0.0
H1309 H 0.91226 0.34467 0.70086 0.0
H1310 H 0.91851 0.32175 0.78791 0.0
H1311 H 0.94221 0.28839 0.77242 0.0
H1312 H 0.87386 0.32782 0.77306 0.0
H1313 H 0.94364 0.37283 0.76615 0.0
H1314 H 0.97966 0.388 0.74404 0.0
H1315 H 0.93928 0.41874 0.6768 0.0
H1316 H 0.90301 0.40346 0.69827 0.0
H1317 H 0.80742 0.4209 0.82695 0.0
H1318 H 0.84215 0.39741 0.81722 0.0
H1319 H 0.83491 0.41137 0.72756 0.0
H1320 H 0.79999 0.43507 0.73715 0.0
H1321 H 0.88214 0.41149 0.7469 0.0
H1322 H 0.81335 0.36295 0.75124 0.0
H1323 H 0.77721 0.3477 0.773 0.0
H1324 H 0.81639 0.32328 0.84497 0.0
H1325 H 0.85275 0.33873 0.82381 0.0
C1326 C 0.93275 0.31387 0.70786 0.0
C1327 C 0.94085 0.29735 0.72767 0.0
C1328 C 0.91926 0.33285 0.71672 0.0
C1329 C 0.91368 0.33574 0.74556 0.0
C1330 C 0.92264 0.31985 0.76555 0.0
C1331 C 0.93622 0.30085 0.7567 0.0
C1332 C 0.89643 0.35374 0.75426 0.0
C1333 C 0.87596 0.3462 0.7679 0.0
C1334 C 0.89883 0.37761 0.74676 0.0
C1335 C 0.92061 0.38682 0.73372 0.0
C1336 C 0.94244 0.38265 0.74651 0.0
C1337 C 0.96291 0.39131 0.73412 0.0
C1338 C 0.96176 0.40428 0.709 0.0
C1339 C 0.94014 0.40867 0.69625 0.0
C1340 C 0.91962 0.40004 0.70854 0.0
C1341 C 0.81338 0.41927 0.80518 0.0
C1342 C 0.80086 0.4296 0.78275 0.0
C1343 C 0.83323 0.40585 0.79968 0.0
C1344 C 0.8409 0.40246 0.77167 0.0
C1345 C 0.82923 0.4138 0.74933 0.0
C1346 C 0.80927 0.42724 0.75482 0.0
C1347 C 0.85976 0.38545 0.76561 0.0
C1348 C 0.88034 0.39315 0.75237 0.0
C1349 C 0.85752 0.36166 0.7734 0.0
C1350 C 0.83571 0.35223 0.7861 0.0
C1351 C 0.81423 0.35451 0.77182 0.0
C1352 C 0.79371 0.3458 0.78403 0.0
C1353 C 0.79449 0.33459 0.8104 0.0
C1354 C 0.81581 0.33201 0.82457 0.0
C1355 C 0.83637 0.34073 0.81248 0.0
H1356 H 0.77859 0.32785 0.81981 0.0
H1357 H 0.97763 0.41098 0.69945 0.0
H1358 H 0.71108 0.93707 0.76261 0.0
H1359 H 0.67874 0.91165 0.77713 0.0
H1360 H 0.66254 0.89799 0.68913 0.0
H1361 H 0.69475 0.92337 0.67446 0.0
H1362 H 0.62252 0.90173 0.72325 0.0
H1363 H 0.6967 0.86143 0.72206 0.0
H1364 H 0.73809 0.85562 0.73497 0.0
H1365 H 0.71934 0.8521 0.82325 0.0
H1366 H 0.67784 0.85826 0.81088 0.0
H1367 H 0.56898 0.78864 0.73267 0.0
H1368 H 0.59202 0.82359 0.72133 0.0
H1369 H 0.61164 0.83009 0.80956 0.0
H1370 H 0.58915 0.79509 0.82085 0.0
H1371 H 0.64884 0.83181 0.77686 0.0
H1372 H 0.57384 0.86903 0.7777 0.0
H1373 H 0.53252 0.87473 0.76443 0.0
H1374 H 0.55235 0.88374 0.67707 0.0
H1375 H 0.59378 0.87777 0.68975 0.0
C1376 C 0.70031 0.92904 0.74638 0.0
C1377 C 0.70557 0.93195 0.71743 0.0
C1378 C 0.68189 0.91452 0.75469 0.0
C1379 C 0.66849 0.90274 0.73417 0.0
C1380 C 0.67271 0.90691 0.70526 0.0
C1381 C 0.69117 0.92132 0.69694 0.0
C1382 C 0.65179 0.88428 0.74269 0.0
C1383 C 0.62821 0.88636 0.73485 0.0
C1384 C 0.65928 0.86442 0.7581 0.0
C1385 C 0.68421 0.86058 0.76557 0.0
C1386 C 0.70143 0.85962 0.74424 0.0
C1387 C 0.7249 0.85623 0.75146 0.0
C1388 C 0.73135 0.85356 0.77992 0.0
C1389 C 0.71432 0.85421 0.80122 0.0
C1390 C 0.69082 0.85765 0.79412 0.0
C1391 C 0.57796 0.79775 0.74966 0.0
C1392 C 0.57742 0.78908 0.77758 0.0
C1393 C 0.59103 0.81775 0.7432 0.0
C1394 C 0.6035 0.8295 0.76464 0.0
C1395 C 0.60224 0.82128 0.79268 0.0
C1396 C 0.58935 0.80127 0.79909 0.0
C1397 C 0.61934 0.84921 0.75768 0.0
C1398 C 0.64293 0.84728 0.76561 0.0
C1399 C 0.6118 0.86913 0.74235 0.0
C1400 C 0.5869 0.87273 0.73465 0.0
C1401 C 0.56938 0.87203 0.75562 0.0
C1402 C 0.54594 0.87535 0.74821 0.0
C1403 C 0.53981 0.87953 0.71991 0.0
C1404 C 0.55712 0.88046 0.69898 0.0
C1405 C 0.58059 0.87714 0.70627 0.0
H1406 H 0.52165 0.88211 0.71422 0.0
H1407 H 0.74954 0.85092 0.78546 0.0
H1408 H 0.98466 0.23283 0.36995 0.0
H1409 H 0.97668 0.23438 0.42098 0.0
H1410 H 0.05061 0.23976 0.43801 0.0
H1411 H 0.05875 0.23804 0.38693 0.0
H1412 H 0.02947 0.2082 0.47266 0.0
H1413 H 0.01648 0.28733 0.44348 0.0
H1414 H 0.99956 0.31896 0.41444 0.0
H1415 H 0.93053 0.29907 0.44098 0.0
H1416 H 0.94702 0.26708 0.46989 0.0
H1417 H 0.01908 0.24077 0.61778 0.0
H1418 H 0.02808 0.24142 0.56693 0.0
H1419 H 0.95467 0.23469 0.54745 0.0
H1420 H 0.94552 0.23415 0.5983 0.0
H1421 H 0.97628 0.26766 0.51425 0.0
H1422 H 0.98934 0.18802 0.54258 0.0
H1423 H 0.00633 0.15646 0.57171 0.0
H1424 H 0.07542 0.17751 0.54672 0.0
H1425 H 0.05885 0.20943 0.51775 0.0
C1426 C 0.99921 0.23439 0.38456 0.0
C1427 C 0.02233 0.23539 0.37449 0.0
C1428 C 0.99462 0.23536 0.41369 0.0
C1429 C 0.01304 0.23744 0.43324 0.0
C1430 C 0.03616 0.23821 0.42325 0.0
C1431 C 0.04077 0.23728 0.3941 0.0
C1432 C 0.00817 0.23847 0.46415 0.0
C1433 C 0.01813 0.22141 0.48183 0.0
C1434 C 0.99296 0.25541 0.47596 0.0
C1435 C 0.98298 0.27466 0.45864 0.0
C1436 C 0.99768 0.28957 0.44294 0.0
C1437 C 0.98817 0.30759 0.42654 0.0
C1438 C 0.96398 0.31099 0.4258 0.0
C1439 C 0.94926 0.2964 0.44154 0.0
C1440 C 0.95868 0.27833 0.45796 0.0
C1441 C 0.00486 0.2395 0.60266 0.0
C1442 C 0.98161 0.23732 0.61197 0.0
C1443 C 0.01003 0.23979 0.57364 0.0
C1444 C 0.99205 0.23787 0.55347 0.0
C1445 C 0.96878 0.23617 0.56271 0.0
C1446 C 0.9636 0.23579 0.59173 0.0
C1447 C 0.99753 0.23737 0.52271 0.0
C1448 C 0.98768 0.2545 0.50506 0.0
C1449 C 0.01285 0.22051 0.51093 0.0
C1450 C 0.02286 0.20127 0.52824 0.0
C1451 C 0.00817 0.18605 0.54349 0.0
C1452 C 0.01772 0.16807 0.55993 0.0
C1453 C 0.04194 0.16502 0.56113 0.0
C1454 C 0.05666 0.17991 0.54581 0.0
C1455 C 0.0472 0.19794 0.52936 0.0
H1456 H 0.0493 0.15109 0.57387 0.0
H1457 H 0.95665 0.32496 0.41309 0.0
H1458 H 0.73667 0.0068 0.61504 0.0
H1459 H 0.73658 0.0217 0.56622 0.0
H1460 H 0.79889 0.98192 0.54794 0.0
H1461 H 0.79914 0.96701 0.59666 0.0
H1462 H 0.80092 0.02707 0.52683 0.0
H1463 H 0.74738 0.9617 0.52692 0.0
H1464 H 0.71319 0.93929 0.54361 0.0
H1465 H 0.66806 0.99669 0.52234 0.0
H1466 H 0.70206 0.01958 0.50589 0.0
H1467 H 0.80079 0.01746 0.37693 0.0
H1468 H 0.80099 0.01208 0.42842 0.0
H1469 H 0.73576 0.04966 0.43485 0.0
H1470 H 0.73528 0.05478 0.38318 0.0
H1471 H 0.73377 0.00967 0.46346 0.0
H1472 H 0.78673 0.07382 0.45899 0.0
H1473 H 0.82081 0.09634 0.44226 0.0
H1474 H 0.86687 0.04222 0.47168 0.0
H1475 H 0.83304 0.01919 0.48822 0.0
C1476 C 0.75035 0.00125 0.6006 0.0
C1477 C 0.76781 0.98561 0.60954 0.0
C1478 C 0.75027 0.00977 0.57277 0.0
C1479 C 0.76764 0.00277 0.55348 0.0
C1480 C 0.78535 0.98753 0.56254 0.0
C1481 C 0.78538 0.97893 0.5903 0.0
C1482 C 0.76708 0.01078 0.52358 0.0
C1483 C 0.78634 0.02315 0.51285 0.0
C1484 C 0.74774 0.00621 0.50569 0.0
C1485 C 0.72729 0.99244 0.51549 0.0
C1486 C 0.73019 0.96961 0.52603 0.0
C1487 C 0.71084 0.95681 0.5354 0.0
C1488 C 0.68847 0.96659 0.53412 0.0
C1489 C 0.6854 0.98916 0.52338 0.0
C1490 C 0.7047 0.00205 0.51401 0.0
C1491 C 0.78664 0.02484 0.38934 0.0
C1492 C 0.768 0.03651 0.37606 0.0
C1493 C 0.78683 0.02185 0.41879 0.0
C1494 C 0.76849 0.03065 0.43551 0.0
C1495 C 0.7501 0.04276 0.42234 0.0
C1496 C 0.74988 0.04573 0.39286 0.0
C1497 C 0.76778 0.02576 0.46645 0.0
C1498 C 0.74826 0.01392 0.47743 0.0
C1499 C 0.78688 0.03089 0.48455 0.0
C1500 C 0.80731 0.04468 0.47464 0.0
C1501 C 0.80411 0.06662 0.46169 0.0
C1502 C 0.82339 0.0795 0.45227 0.0
C1503 C 0.84599 0.07069 0.45585 0.0
C1504 C 0.84935 0.04901 0.4689 0.0
C1505 C 0.83013 0.03605 0.47834 0.0
H1506 H 0.8609 0.08069 0.44855 0.0
H1507 H 0.67351 0.95665 0.54138 0.0
H1508 H 0.0094 0.74488 0.62535 0.0
H1509 H 0.0003 0.74712 0.57467 0.0
H1510 H 0.02135 0.81955 0.57354 0.0
H1511 H 0.03052 0.81745 0.62442 0.0
H1512 H 0.97962 0.81054 0.54326 0.0
H1513 H 0.05823 0.78097 0.5491 0.0
H1514 H 0.08919 0.75445 0.56619 0.0
H1515 H 0.05255 0.69566 0.53098 0.0
H1516 H 0.02118 0.72179 0.51404 0.0
H1517 H 0.98232 0.81718 0.39202 0.0
H1518 H 0.99259 0.81963 0.44247 0.0
H1519 H 0.98494 0.74477 0.45008 0.0
H1520 H 0.97567 0.74218 0.39954 0.0
H1521 H 0.0218 0.75756 0.47725 0.0
H1522 H 0.94235 0.78528 0.4738 0.0
H1523 H 0.9101 0.81056 0.45744 0.0
H1524 H 0.94631 0.87112 0.48869 0.0
H1525 H 0.97893 0.84621 0.50491 0.0
C1526 C 0.01199 0.76133 0.61437 0.0
C1527 C 0.02086 0.78095 0.62874 0.0
C1528 C 0.00684 0.76256 0.58543 0.0
C1529 C 0.01043 0.78342 0.57037 0.0
C1530 C 0.01855 0.80328 0.58483 0.0
C1531 C 0.02386 0.80202 0.61381 0.0
C1532 C 0.00629 0.78417 0.53934 0.0
C1533 C 0.98904 0.79924 0.52869 0.0
C1534 C 0.0183 0.76905 0.52057 0.0
C1535 C 0.03727 0.75333 0.53051 0.0
C1536 C 0.05669 0.76237 0.54518 0.0
C1537 C 0.07433 0.74741 0.55481 0.0
C1538 C 0.07281 0.72338 0.54973 0.0
C1539 C 0.05369 0.71427 0.53493 0.0
C1540 C 0.03599 0.72915 0.52528 0.0
C1541 C 0.98288 0.80128 0.40451 0.0
C1542 C 0.97817 0.7795 0.39194 0.0
C1543 C 0.98861 0.8027 0.43335 0.0
C1544 C 0.9892 0.78242 0.45021 0.0
C1545 C 0.98463 0.76066 0.43754 0.0
C1546 C 0.97928 0.7592 0.40866 0.0
C1547 C 0.99475 0.78364 0.48101 0.0
C1548 C 0.01237 0.76898 0.49168 0.0
C1549 C 0.98286 0.79894 0.49981 0.0
C1550 C 0.96318 0.81391 0.49029 0.0
C1551 C 0.9435 0.80401 0.47701 0.0
C1552 C 0.92515 0.81826 0.46778 0.0
C1553 C 0.92619 0.84244 0.47194 0.0
C1554 C 0.94555 0.85239 0.48543 0.0
C1555 C 0.96396 0.83822 0.49467 0.0
H1556 H 0.91197 0.85345 0.46477 0.0
H1557 H 0.08648 0.71183 0.55721 0.0
H1558 H 0.20249 0.01514 0.62294 0.0
H1559 H 0.20427 0.00418 0.57277 0.0
H1560 H 0.27635 0.02623 0.56917 0.0
H1561 H 0.27467 0.0374 0.61944 0.0
H1562 H 0.25112 0.03986 0.52186 0.0
H1563 H 0.26441 0.96971 0.57548 0.0
H1564 H 0.25564 0.94021 0.61218 0.0
H1565 H 0.19057 0.92426 0.57095 0.0
H1566 H 0.19879 0.95394 0.53422 0.0
H1567 H 0.27618 0.98469 0.39076 0.0
H1568 H 0.27772 0.99474 0.44128 0.0
H1569 H 0.20686 0.9703 0.4518 0.0
H1570 H 0.20536 0.95979 0.40143 0.0
H1571 H 0.2334 0.95757 0.49601 0.0
H1572 H 0.21884 0.02837 0.4438 0.0
H1573 H 0.22668 0.05824 0.40722 0.0
H1574 H 0.29306 0.07331 0.44576 0.0
H1575 H 0.28575 0.04327 0.48235 0.0
C1576 C 0.21866 0.01787 0.61141 0.0
C1577 C 0.23849 0.027 0.62512 0.0
C1578 C 0.21968 0.01151 0.58279 0.0
C1579 C 0.24055 0.01406 0.56742 0.0
C1580 C 0.26012 0.02403 0.58073 0.0
C1581 C 0.25913 0.03038 0.60941 0.0
C1582 C 0.24206 0.00571 0.53767 0.0
C1583 C 0.2476 0.0218 0.51621 0.0
C1584 C 0.23701 0.98224 0.53034 0.0
C1585 C 0.23213 0.9642 0.55224 0.0
C1586 C 0.24815 0.96003 0.57435 0.0
C1587 C 0.24329 0.94326 0.59514 0.0
C1588 C 0.22254 0.9304 0.59394 0.0
C1589 C 0.20663 0.93425 0.57188 0.0
C1590 C 0.21139 0.95103 0.55105 0.0
C1591 C 0.26103 0.98121 0.40392 0.0
C1592 C 0.24059 0.9716 0.39215 0.0
C1593 C 0.26189 0.98707 0.43273 0.0
C1594 C 0.24226 0.98366 0.45017 0.0
C1595 C 0.22218 0.97316 0.43869 0.0
C1596 C 0.22134 0.96719 0.40992 0.0
C1597 C 0.24229 0.99175 0.48011 0.0
C1598 C 0.23705 0.97561 0.50164 0.0
C1599 C 0.2475 0.0152 0.48748 0.0
C1600 C 0.25185 0.0334 0.46564 0.0
C1601 C 0.23518 0.03793 0.44435 0.0
C1602 C 0.23952 0.05491 0.42363 0.0
C1603 C 0.26038 0.06762 0.42412 0.0
C1604 C 0.27692 0.06343 0.44538 0.0
C1605 C 0.27269 0.04644 0.46613 0.0
H1606 H 0.26371 0.08076 0.40806 0.0
H1607 H 0.2188 0.91743 0.61006 0.0
H1608 H 0.50223 0.76237 0.87271 0.0
H1609 H 0.48915 0.76699 0.92193 0.0
H1610 H 0.53009 0.70687 0.94635 0.0
H1611 H 0.5436 0.70247 0.89734 0.0
H1612 H 0.46456 0.73977 0.95587 0.0
H1613 H 0.55119 0.71391 0.01253 0.0
H1614 H 0.5937 0.71678 0.00432 0.0
H1615 H 0.58299 0.77604 0.94983 0.0
H1616 H 0.54046 0.77374 0.95803 0.0
H1617 H 0.44513 0.70372 0.09735 0.0
H1618 H 0.45647 0.708 0.04757 0.0
H1619 H 0.49582 0.77006 0.06852 0.0
H1620 H 0.48491 0.76557 0.11855 0.0
H1621 H 0.52089 0.74261 0.03601 0.0
H1622 H 0.44395 0.77368 0.03207 0.0
H1623 H 0.40136 0.77502 0.04012 0.0
H1624 H 0.39251 0.71341 0.98904 0.0
H1625 H 0.43509 0.71151 0.981 0.0
C1626 C 0.50848 0.75018 0.88861 0.0
C1627 C 0.52402 0.73212 0.88125 0.0
C1628 C 0.50095 0.75281 0.91668 0.0
C1629 C 0.50885 0.73745 0.93787 0.0
C1630 C 0.52411 0.7192 0.93045 0.0
C1631 C 0.53173 0.71663 0.90243 0.0
C1632 C 0.50095 0.74028 0.96769 0.0
C1633 C 0.47686 0.74046 0.9734 0.0
C1634 C 0.51701 0.74181 0.99051 0.0
C1635 C 0.54261 0.74351 0.98572 0.0
C1636 C 0.55791 0.72762 0.9989 0.0
C1637 C 0.58201 0.72913 0.99423 0.0
C1638 C 0.59103 0.74654 0.9765 0.0
C1639 C 0.57597 0.76252 0.96348 0.0
C1640 C 0.55187 0.7611 0.96811 0.0
C1641 C 0.45605 0.71838 0.09132 0.0
C1642 C 0.46416 0.73431 0.11181 0.0
C1643 C 0.46242 0.72088 0.06284 0.0
C1644 C 0.4768 0.73949 0.05427 0.0
C1645 C 0.48469 0.75558 0.07467 0.0
C1646 C 0.47841 0.75303 0.10321 0.0
C1647 C 0.48449 0.74143 0.02425 0.0
C1648 C 0.50857 0.7421 0.01849 0.0
C1649 C 0.4684 0.74128 0.00139 0.0
C1650 C 0.44275 0.74236 0.00612 0.0
C1651 C 0.43294 0.76031 0.02273 0.0
C1652 C 0.4088 0.76119 0.02726 0.0
C1653 C 0.39425 0.74428 0.01515 0.0
C1654 C 0.40381 0.72649 0.99843 0.0
C1655 C 0.42795 0.72552 0.99385 0.0
H1656 H 0.37556 0.74499 0.01868 0.0
H1657 H 0.60969 0.74767 0.97289 0.0
H1658 H 0.28358 0.55435 0.90121 0.0
H1659 H 0.28282 0.54414 0.95167 0.0
H1660 H 0.24806 0.47923 0.93169 0.0
H1661 H 0.24861 0.48942 0.88111 0.0
H1662 H 0.22839 0.50143 0.97764 0.0
H1663 H 0.30519 0.47898 0.94645 0.0
H1664 H 0.34353 0.48494 0.92357 0.0
H1665 H 0.35945 0.53966 0.98303 0.0
H1666 H 0.32104 0.53424 0.00603 0.0
H1667 H 0.24595 0.44705 0.11173 0.0
H1668 H 0.24542 0.45631 0.06098 0.0
H1669 H 0.28561 0.51881 0.07714 0.0
H1670 H 0.28677 0.50925 0.12778 0.0
H1671 H 0.30233 0.49701 0.03255 0.0
H1672 H 0.22573 0.52029 0.06346 0.0
H1673 H 0.18727 0.51509 0.08631 0.0
H1674 H 0.17073 0.45994 0.0277 0.0
H1675 H 0.20925 0.4646 0.00473 0.0
C1676 C 0.27574 0.53792 0.90756 0.0
C1677 C 0.26624 0.52262 0.88724 0.0
C1678 C 0.27539 0.53208 0.93637 0.0
C1679 C 0.26562 0.51081 0.94535 0.0
C1680 C 0.25572 0.4957 0.92516 0.0
C1681 C 0.25611 0.50151 0.89631 0.0
C1682 C 0.2659 0.5043 0.97581 0.0
C1683 C 0.24456 0.50014 0.98961 0.0
C1684 C 0.28698 0.50315 0.99147 0.0
C1685 C 0.31015 0.50634 0.97779 0.0
C1686 C 0.31679 0.4924 0.95451 0.0
C1687 C 0.33855 0.49566 0.94155 0.0
C1688 C 0.35389 0.5127 0.9518 0.0
C1689 C 0.34753 0.52648 0.97509 0.0
C1690 C 0.32578 0.52331 0.98812 0.0
C1691 C 0.25464 0.46278 0.10444 0.0
C1692 C 0.26637 0.47747 0.12367 0.0
C1693 C 0.25423 0.46811 0.07546 0.0
C1694 C 0.26521 0.48843 0.06529 0.0
C1695 C 0.277 0.50306 0.08451 0.0
C1696 C 0.27761 0.49761 0.11343 0.0
C1697 C 0.26478 0.49429 0.03457 0.0
C1698 C 0.28613 0.49829 0.02066 0.0
C1699 C 0.24368 0.4954 0.01886 0.0
C1700 C 0.22047 0.49264 0.03256 0.0
C1701 C 0.21396 0.50694 0.05558 0.0
C1702 C 0.19214 0.50411 0.06853 0.0
C1703 C 0.17659 0.48715 0.05852 0.0
C1704 C 0.18281 0.47304 0.03547 0.0
C1705 C 0.20462 0.47578 0.02245 0.0
H1706 H 0.15971 0.48498 0.06858 0.0
H1707 H 0.37073 0.5152 0.94173 0.0
H1708 H 0.5456 0.28341 0.0848 0.0
H1709 H 0.52888 0.28381 0.03712 0.0
H1710 H 0.4651 0.25348 0.06938 0.0
H1711 H 0.48188 0.25284 0.1174 0.0
H1712 H 0.4797 0.23259 0.01966 0.0
H1713 H 0.46504 0.30963 0.05282 0.0
H1714 H 0.47422 0.34747 0.07534 0.0
H1715 H 0.52491 0.36183 0.01033 0.0
H1716 H 0.51631 0.32392 0.98761 0.0
H1717 H 0.42881 0.25481 0.88201 0.0
H1718 H 0.43478 0.25471 0.93367 0.0
H1719 H 0.50359 0.28412 0.92197 0.0
H1720 H 0.49772 0.2844 0.8706 0.0
H1721 H 0.47904 0.30632 0.96402 0.0
H1722 H 0.49663 0.22654 0.93517 0.0
H1723 H 0.4871 0.18866 0.91292 0.0
H1724 H 0.42945 0.17988 0.97045 0.0
H1725 H 0.43848 0.21788 0.99281 0.0
C1726 C 0.52802 0.27681 0.08179 0.0
C1727 C 0.51502 0.26813 0.1048 0.0
C1728 C 0.51845 0.27714 0.05455 0.0
C1729 C 0.49565 0.26896 0.04981 0.0
C1730 C 0.4827 0.25994 0.07265 0.0
C1731 C 0.49229 0.25961 0.10002 0.0
C1732 C 0.48567 0.26979 0.0208 0.0
C1733 C 0.47906 0.24877 0.00765 0.0
C1734 C 0.485 0.29089 0.00514 0.0
C1735 C 0.49011 0.31384 0.01859 0.0
C1736 C 0.47826 0.32078 0.04342 0.0
C1737 C 0.48334 0.34225 0.05621 0.0
C1738 C 0.50016 0.35702 0.0443 0.0
C1739 C 0.51189 0.35037 0.01953 0.0
C1740 C 0.50689 0.3289 0.00665 0.0
C1741 C 0.44519 0.26124 0.89051 0.0
C1742 C 0.46283 0.26957 0.87232 0.0
C1743 C 0.44858 0.26114 0.91996 0.0
C1744 C 0.46966 0.26934 0.93158 0.0
C1745 C 0.48717 0.2778 0.91342 0.0
C1746 C 0.48383 0.27784 0.88407 0.0
C1747 C 0.47384 0.26904 0.96263 0.0
C1748 C 0.47929 0.2902 0.97618 0.0
C1749 C 0.4733 0.2481 0.97865 0.0
C1750 C 0.46805 0.22516 0.96542 0.0
C1751 C 0.48181 0.21661 0.94293 0.0
C1752 C 0.47653 0.19511 0.93033 0.0
C1753 C 0.45763 0.18191 0.9402 0.0
C1754 C 0.44405 0.19014 0.96278 0.0
C1755 C 0.44925 0.21165 0.97544 0.0
H1756 H 0.45355 0.16527 0.9304 0.0
H1757 H 0.50407 0.37364 0.05425 0.0
H1758 H 0.73023 0.50702 0.88465 0.0
H1759 H 0.73182 0.51369 0.93583 0.0
H1760 H 0.73414 0.43922 0.95036 0.0
H1761 H 0.73197 0.43239 0.89893 0.0
H1762 H 0.70678 0.45995 0.98896 0.0
H1763 H 0.7838 0.47134 0.95417 0.0
H1764 H 0.81482 0.48671 0.92293 0.0
H1765 H 0.79872 0.55674 0.94945 0.0
H1766 H 0.76735 0.54182 0.98055 0.0
H1767 H 0.74279 0.47882 0.13295 0.0
H1768 H 0.74325 0.46605 0.08326 0.0
H1769 H 0.73436 0.53753 0.05596 0.0
H1770 H 0.73413 0.55044 0.10552 0.0
H1771 H 0.76786 0.51405 0.02501 0.0
H1772 H 0.68804 0.50043 0.0576 0.0
H1773 H 0.65965 0.48315 0.09104 0.0
H1774 H 0.68458 0.41437 0.07049 0.0
H1775 H 0.71329 0.43128 0.03712 0.0
C1776 C 0.73093 0.49205 0.89873 0.0
C1777 C 0.73118 0.46919 0.88782 0.0
C1778 C 0.73194 0.49588 0.92797 0.0
C1779 C 0.73359 0.47696 0.94689 0.0
C1780 C 0.73301 0.45407 0.93612 0.0
C1781 C 0.73181 0.4502 0.90678 0.0
C1782 C 0.73646 0.48133 0.97777 0.0
C1783 C 0.72036 0.47149 0.99688 0.0
C1784 C 0.75419 0.49636 0.98816 0.0
C1785 C 0.77308 0.50546 0.96953 0.0
C1786 C 0.78675 0.49003 0.95318 0.0
C1787 C 0.80441 0.49866 0.93552 0.0
C1788 C 0.8087 0.52269 0.93416 0.0
C1789 C 0.79536 0.53813 0.95051 0.0
C1790 C 0.77765 0.5296 0.96818 0.0
C1791 C 0.74105 0.49181 0.11633 0.0
C1792 C 0.73837 0.51562 0.12304 0.0
C1793 C 0.74123 0.48448 0.088 0.0
C1794 C 0.73863 0.50084 0.06599 0.0
C1795 C 0.73639 0.52465 0.07266 0.0
C1796 C 0.73618 0.53198 0.10096 0.0
C1797 C 0.73781 0.49327 0.03593 0.0
C1798 C 0.75439 0.50241 0.01703 0.0
C1799 C 0.72079 0.47732 0.02587 0.0
C1800 C 0.70288 0.46712 0.04501 0.0
C1801 C 0.68747 0.48162 0.06025 0.0
C1802 C 0.67133 0.4719 0.07919 0.0
C1803 C 0.67032 0.44768 0.0829 0.0
C1804 C 0.68537 0.43312 0.06756 0.0
C1805 C 0.70155 0.44276 0.0486 0.0
H1806 H 0.65789 0.44019 0.09767 0.0
H1807 H 0.82239 0.52933 0.92048 0.0
loop_
_geom_bond_atom_site_label_1
_geom_bond_atom_site_label_2
_geom_bond_distance
_geom_bond_site_symmetry_2
_ccdc_geom_bond_type
In0 O1 2.294 . S
In0 O2 2.326 . S
In0 O6 2.266 . S
In0 O7 2.326 . S
In0 O8 2.266 . S
In0 O9 2.326 . S
In0 O11 2.294 . S
In0 O12 2.326 . S
O1 In0 2.294 . S
O1 C10 1.240 . S
O2 In0 2.326 . S
O2 C10 1.252 . S
C3 O6 1.252 . S
C3 O7 1.260 . S
C4 O11 1.240 . S
C4 O12 1.252 . S
C5 O8 1.252 1_655 S
C5 O9 1.260 1_655 S
O6 In0 2.266 . S
O6 C3 1.252 . S
O7 In0 2.326 . S
O7 C3 1.260 . S
O8 In0 2.266 . S
O8 C5 1.252 1_455 S
O9 In0 2.326 . S
O9 C5 1.260 1_455 S
C10 O1 1.240 . S
C10 O2 1.252 . S
O11 In0 2.294 . S
O11 C4 1.240 . S
O12 In0 2.326 . S
O12 C4 1.252 . S
In13 O14 2.294 . S
In13 O15 2.326 . S
In13 O19 2.266 . S
In13 O20 2.326 . S
In13 O21 2.266 . S
In13 O22 2.326 . S
In13 O24 2.294 . S
In13 O25 2.326 . S
O14 In13 2.294 . S
O14 C23 1.240 . S
O15 In13 2.326 . S
O15 C23 1.252 . S
C16 O19 1.252 . S
C16 O20 1.260 . S
C17 O24 1.240 . S
C17 O25 1.252 . S
C18 O21 1.252 1_565 S
C18 O22 1.260 1_565 S
O19 In13 2.266 . S
O19 C16 1.252 . S
O20 In13 2.326 . S
O20 C16 1.260 . S
O21 In13 2.266 . S
O21 C18 1.252 1_545 S
O22 In13 2.326 . S
O22 C18 1.260 1_545 S
C23 O14 1.240 . S
C23 O15 1.252 . S
O24 In13 2.294 . S
O24 C17 1.240 . S
O25 In13 2.326 . S
O25 C17 1.252 . S
In26 O27 2.294 . S
In26 O28 2.326 . S
In26 O32 2.266 . S
In26 O33 2.326 . S
In26 O34 2.266 . S
In26 O35 2.326 . S
In26 O37 2.294 . S
In26 O38 2.326 . S
O27 In26 2.294 . S
O27 C36 1.240 . S
O28 In26 2.326 . S
O28 C36 1.252 . S
C29 O32 1.252 1_455 S
C29 O33 1.260 1_455 S
C30 O37 1.240 . S
C30 O38 1.252 . S
C31 O34 1.252 . S
C31 O35 1.260 . S
O32 In26 2.266 . S
O32 C29 1.252 1_655 S
O33 In26 2.326 . S
O33 C29 1.260 1_655 S
O34 In26 2.266 . S
O34 C31 1.252 . S
O35 In26 2.326 . S
O35 C31 1.260 . S
C36 O27 1.240 . S
C36 O28 1.252 . S
O37 In26 2.294 . S
O37 C30 1.240 . S
O38 In26 2.326 . S
O38 C30 1.252 . S
In39 O40 2.294 . S
In39 O41 2.326 . S
In39 O45 2.266 . S
In39 O46 2.326 . S
In39 O47 2.266 . S
In39 O48 2.326 . S
In39 O50 2.294 . S
In39 O51 2.326 . S
O40 In39 2.294 . S
O40 C49 1.240 . S
O41 In39 2.326 . S
O41 C49 1.252 . S
C42 O45 1.252 1_545 S
C42 O46 1.260 1_545 S
C43 O50 1.240 . S
C43 O51 1.252 . S
C44 O47 1.252 . S
C44 O48 1.260 . S
O45 In39 2.266 . S
O45 C42 1.252 1_565 S
O46 In39 2.326 . S
O46 C42 1.260 1_565 S
O47 In39 2.266 . S
O47 C44 1.252 . S
O48 In39 2.326 . S
O48 C44 1.260 . S
C49 O40 1.240 . S
C49 O41 1.252 . S
O50 In39 2.294 . S
O50 C43 1.240 . S
O51 In39 2.326 . S
O51 C43 1.252 . S
In52 O53 2.294 . S
In52 O54 2.326 . S
In52 O58 2.266 . S
In52 O59 2.326 . S
In52 O60 2.266 . S
In52 O61 2.326 . S
In52 O63 2.294 . S
In52 O64 2.326 . S
O53 In52 2.294 . S
O53 C62 1.240 . S
O54 In52 2.326 . S
O54 C62 1.252 . S
C55 O58 1.252 . S
C55 O59 1.260 . S
C56 O63 1.240 . S
C56 O64 1.252 . S
C57 O60 1.252 1_655 S
C57 O61 1.260 1_655 S
O58 In52 2.266 . S
O58 C55 1.252 . S
O59 In52 2.326 . S
O59 C55 1.260 . S
O60 In52 2.266 . S
O60 C57 1.252 1_455 S
O61 In52 2.326 . S
O61 C57 1.260 1_455 S
C62 O53 1.240 . S
C62 O54 1.252 . S
O63 In52 2.294 . S
O63 C56 1.240 . S
O64 In52 2.326 . S
O64 C56 1.252 . S
In65 O66 2.294 . S
In65 O67 2.326 . S
In65 O71 2.266 . S
In65 O72 2.326 . S
In65 O73 2.266 . S
In65 O74 2.326 . S
In65 O76 2.294 . S
In65 O77 2.326 . S
O66 In65 2.294 . S
O66 C75 1.240 . S
O67 In65 2.326 . S
O67 C75 1.252 . S
C68 O71 1.252 . S
C68 O72 1.260 . S
C69 O76 1.240 . S
C69 O77 1.252 . S
C70 O73 1.252 1_565 S
C70 O74 1.260 1_565 S
O71 In65 2.266 . S
O71 C68 1.252 . S
O72 In65 2.326 . S
O72 C68 1.260 . S
O73 In65 2.266 . S
O73 C70 1.252 1_545 S
O74 In65 2.326 . S
O74 C70 1.260 1_545 S
C75 O66 1.240 . S
C75 O67 1.252 . S
O76 In65 2.294 . S
O76 C69 1.240 . S
O77 In65 2.326 . S
O77 C69 1.252 . S
In78 O79 2.294 . S
In78 O80 2.326 . S
In78 O84 2.266 . S
In78 O85 2.326 . S
In78 O86 2.266 . S
In78 O87 2.326 . S
In78 O89 2.294 . S
In78 O90 2.326 . S
O79 In78 2.294 . S
O79 C88 1.240 . S
O80 In78 2.326 . S
O80 C88 1.252 . S
C81 O84 1.252 1_455 S
C81 O85 1.260 1_455 S
C82 O89 1.240 . S
C82 O90 1.252 . S
C83 O86 1.252 . S
C83 O87 1.260 . S
O84 In78 2.266 . S
O84 C81 1.252 1_655 S
O85 In78 2.326 . S
O85 C81 1.260 1_655 S
O86 In78 2.266 . S
O86 C83 1.252 . S
O87 In78 2.326 . S
O87 C83 1.260 . S
C88 O79 1.240 . S
C88 O80 1.252 . S
O89 In78 2.294 . S
O89 C82 1.240 . S
O90 In78 2.326 . S
O90 C82 1.252 . S
In91 O92 2.294 . S
In91 O93 2.326 . S
In91 O97 2.266 . S
In91 O98 2.326 . S
In91 O99 2.266 . S
In91 O100 2.326 . S
In91 O102 2.294 . S
In91 O103 2.326 . S
O92 In91 2.294 . S
O92 C101 1.240 . S
O93 In91 2.326 . S
O93 C101 1.252 . S
C94 O97 1.252 . S
C94 O98 1.260 . S
C95 O102 1.240 . S
C95 O103 1.252 . S
C96 O99 1.252 1_545 S
C96 O100 1.260 1_545 S
O97 In91 2.266 . S
O97 C94 1.252 . S
O98 In91 2.326 . S
O98 C94 1.260 . S
O99 In91 2.266 . S
O99 C96 1.252 1_565 S
O100 In91 2.326 . S
O100 C96 1.260 1_565 S
C101 O92 1.240 . S
C101 O93 1.252 . S
O102 In91 2.294 . S
O102 C95 1.240 . S
O103 In91 2.326 . S
O103 C95 1.252 . S
In104 O105 2.294 . S
In104 O106 2.326 . S
In104 O110 2.266 . S
In104 O111 2.326 . S
In104 O112 2.266 . S
In104 O113 2.326 . S
In104 O115 2.294 . S
In104 O116 2.326 . S
O105 In104 2.294 . S
O105 C114 1.240 . S
O106 In104 2.326 . S
O106 C114 1.252 . S
C107 O110 1.252 . S
C107 O111 1.260 . S
C108 O115 1.240 . S
C108 O116 1.252 . S
C109 O112 1.252 . S
C109 O113 1.260 . S
O110 In104 2.266 . S
O110 C107 1.252 . S
O111 In104 2.326 . S
O111 C107 1.260 . S
O112 In104 2.266 . S
O112 C109 1.252 . S
O113 In104 2.326 . S
O113 C109 1.260 . S
C114 O105 1.240 . S
C114 O106 1.252 . S
O115 In104 2.294 . S
O115 C108 1.240 . S
O116 In104 2.326 . S
O116 C108 1.252 . S
In117 O118 2.294 . S
In117 O119 2.326 . S
In117 O123 2.266 . S
In117 O124 2.326 . S
In117 O125 2.266 . S
In117 O126 2.326 . S
In117 O128 2.294 . S
In117 O129 2.326 . S
O118 In117 2.294 . S
O118 C127 1.240 . S
O119 In117 2.326 . S
O119 C127 1.252 . S
C120 O123 1.252 . S
C120 O124 1.260 . S
C121 O128 1.240 . S
C121 O129 1.252 . S
C122 O125 1.252 . S
C122 O126 1.260 . S
O123 In117 2.266 . S
O123 C120 1.252 . S
O124 In117 2.326 . S
O124 C120 1.260 . S
O125 In117 2.266 . S
O125 C122 1.252 . S
O126 In117 2.326 . S
O126 C122 1.260 . S
C127 O118 1.240 . S
C127 O119 1.252 . S
O128 In117 2.294 . S
O128 C121 1.240 . S
O129 In117 2.326 . S
O129 C121 1.252 . S
In130 O131 2.294 . S
In130 O132 2.326 . S
In130 O136 2.266 . S
In130 O137 2.326 . S
In130 O138 2.266 . S
In130 O139 2.326 . S
In130 O141 2.294 . S
In130 O142 2.326 . S
O131 In130 2.294 . S
O131 C140 1.240 . S
O132 In130 2.326 . S
O132 C140 1.252 . S
C133 O136 1.252 . S
C133 O137 1.260 . S
C134 O141 1.240 . S
C134 O142 1.252 . S
C135 O138 1.252 . S
C135 O139 1.260 . S
O136 In130 2.266 . S
O136 C133 1.252 . S
O137 In130 2.326 . S
O137 C133 1.260 . S
O138 In130 2.266 . S
O138 C135 1.252 . S
O139 In130 2.326 . S
O139 C135 1.260 . S
C140 O131 1.240 . S
C140 O132 1.252 . S
O141 In130 2.294 . S
O141 C134 1.240 . S
O142 In130 2.326 . S
O142 C134 1.252 . S
In143 O144 2.294 . S
In143 O145 2.326 . S
In143 O149 2.266 . S
In143 O150 2.326 . S
In143 O151 2.266 . S
In143 O152 2.326 . S
In143 O154 2.294 . S
In143 O155 2.326 . S
O144 In143 2.294 . S
O144 C153 1.240 . S
O145 In143 2.326 . S
O145 C153 1.252 . S
C146 O149 1.252 . S
C146 O150 1.260 . S
C147 O154 1.240 . S
C147 O155 1.252 . S
C148 O151 1.252 . S
C148 O152 1.260 . S
O149 In143 2.266 . S
O149 C146 1.252 . S
O150 In143 2.326 . S
O150 C146 1.260 . S
O151 In143 2.266 . S
O151 C148 1.252 . S
O152 In143 2.326 . S
O152 C148 1.260 . S
C153 O144 1.240 . S
C153 O145 1.252 . S
O154 In143 2.294 . S
O154 C147 1.240 . S
O155 In143 2.326 . S
O155 C147 1.252 . S
In156 O157 2.294 . S
In156 O158 2.326 . S
In156 O162 2.266 . S
In156 O163 2.326 . S
In156 O164 2.266 . S
In156 O165 2.326 . S
In156 O167 2.294 . S
In156 O168 2.326 . S
O157 In156 2.294 . S
O157 C166 1.240 . S
O158 In156 2.326 . S
O158 C166 1.252 . S
C159 O162 1.252 . S
C159 O163 1.260 . S
C160 O167 1.240 . S
C160 O168 1.252 . S
C161 O164 1.252 . S
C161 O165 1.260 . S
O162 In156 2.266 . S
O162 C159 1.252 . S
O163 In156 2.326 . S
O163 C159 1.260 . S
O164 In156 2.266 . S
O164 C161 1.252 . S
O165 In156 2.326 . S
O165 C161 1.260 . S
C166 O157 1.240 . S
C166 O158 1.252 . S
O167 In156 2.294 . S
O167 C160 1.240 . S
O168 In156 2.326 . S
O168 C160 1.252 . S
In169 O170 2.294 . S
In169 O171 2.326 . S
In169 O175 2.266 . S
In169 O176 2.326 . S
In169 O177 2.266 . S
In169 O178 2.326 . S
In169 O180 2.294 . S
In169 O181 2.326 . S
O170 In169 2.294 . S
O170 C179 1.240 . S
O171 In169 2.326 . S
O171 C179 1.252 . S
C172 O175 1.252 . S
C172 O176 1.260 . S
C173 O180 1.240 . S
C173 O181 1.252 . S
C174 O177 1.252 . S
C174 O178 1.260 . S
O175 In169 2.266 . S
O175 C172 1.252 . S
O176 In169 2.326 . S
O176 C172 1.260 . S
O177 In169 2.266 . S
O177 C174 1.252 . S
O178 In169 2.326 . S
O178 C174 1.260 . S
C179 O170 1.240 . S
C179 O171 1.252 . S
O180 In169 2.294 . S
O180 C173 1.240 . S
O181 In169 2.326 . S
O181 C173 1.252 . S
In182 O183 2.294 . S
In182 O184 2.326 . S
In182 O188 2.266 . S
In182 O189 2.326 . S
In182 O190 2.266 . S
In182 O191 2.326 . S
In182 O193 2.294 . S
In182 O194 2.326 . S
O183 In182 2.294 . S
O183 C192 1.240 . S
O184 In182 2.326 . S
O184 C192 1.252 . S
C185 O188 1.252 . S
C185 O189 1.260 . S
C186 O193 1.240 . S
C186 O194 1.252 . S
C187 O190 1.252 . S
C187 O191 1.260 . S
O188 In182 2.266 . S
O188 C185 1.252 . S
O189 In182 2.326 . S
O189 C185 1.260 . S
O190 In182 2.266 . S
O190 C187 1.252 . S
O191 In182 2.326 . S
O191 C187 1.260 . S
C192 O183 1.240 . S
C192 O184 1.252 . S
O193 In182 2.294 . S
O193 C186 1.240 . S
O194 In182 2.326 . S
O194 C186 1.252 . S
In195 O196 2.294 . S
In195 O197 2.326 . S
In195 O201 2.266 . S
In195 O202 2.326 . S
In195 O203 2.266 . S
In195 O204 2.326 . S
In195 O206 2.294 . S
In195 O207 2.326 . S
O196 In195 2.294 . S
O196 C205 1.240 . S
O197 In195 2.326 . S
O197 C205 1.252 . S
C198 O201 1.252 . S
C198 O202 1.260 . S
C199 O206 1.240 . S
C199 O207 1.252 . S
C200 O203 1.252 . S
C200 O204 1.260 . S
O201 In195 2.266 . S
O201 C198 1.252 . S
O202 In195 2.326 . S
O202 C198 1.260 . S
O203 In195 2.266 . S
O203 C200 1.252 . S
O204 In195 2.326 . S
O204 C200 1.260 . S
C205 O196 1.240 . S
C205 O197 1.252 . S
O206 In195 2.294 . S
O206 C199 1.240 . S
O207 In195 2.326 . S
O207 C199 1.252 . S
H208 C226 0.951 . S
H209 C228 0.951 . S
H210 C230 0.950 . S
H211 C231 0.950 . S
H212 C233 0.950 . S
H213 C236 0.950 . S
H214 C237 0.950 . S
H215 C239 0.950 . S
H216 C240 0.950 . S
H217 C241 0.951 . S
H218 C243 0.951 . S
H219 C245 0.950 . S
H220 C246 0.950 . S
H221 C248 0.950 . S
H222 C251 0.950 . S
H223 C252 0.950 . S
H224 C254 0.950 . S
H225 C255 0.950 . S
C226 H208 0.951 . S
C226 C227 1.366 . S
C226 C228 1.388 . S
C227 C226 1.366 . S
C227 C231 1.385 . S
C228 H209 0.951 . S
C228 C226 1.388 . S
C228 C229 1.366 . S
C229 C228 1.366 . S
C229 C230 1.414 . S
C229 C232 1.499 . S
C230 H210 0.950 . S
C230 C229 1.414 . S
C230 C231 1.374 . S
C231 H211 0.950 . S
C231 C227 1.385 . S
C231 C230 1.374 . S
C232 C229 1.499 . S
C232 C233 1.373 . S
C232 C234 1.389 . S
C233 H212 0.950 . S
C233 C232 1.373 . S
C233 C249 1.377 . S
C234 C232 1.389 . S
C234 C235 1.524 . S
C234 C248 1.377 . S
C235 C234 1.524 . S
C235 C236 1.397 . S
C235 C240 1.363 . S
C236 H213 0.950 . S
C236 C235 1.397 . S
C236 C237 1.334 . S
C237 H214 0.950 . S
C237 C236 1.334 . S
C237 C238 1.287 . S
C238 C237 1.287 . S
C238 C239 1.524 . S
C238 H257 0.913 . S
C239 H215 0.950 . S
C239 C238 1.524 . S
C239 C240 1.415 . S
C240 H216 0.950 . S
C240 C235 1.363 . S
C240 C239 1.415 . S
C241 H217 0.951 . S
C241 C242 1.366 . S
C241 C243 1.388 . S
C242 C241 1.366 . S
C242 C246 1.385 . S
C243 H218 0.951 . S
C243 C241 1.388 . S
C243 C244 1.366 . S
C244 C243 1.366 . S
C244 C245 1.414 . S
C244 C247 1.499 . S
C245 H219 0.950 . S
C245 C244 1.414 . S
C245 C246 1.374 . S
C246 H220 0.950 . S
C246 C242 1.385 . S
C246 C245 1.374 . S
C247 C244 1.499 . S
C247 C248 1.373 . S
C247 C249 1.389 . S
C248 H221 0.950 . S
C248 C234 1.377 . S
C248 C247 1.373 . S
C249 C233 1.377 . S
C249 C247 1.389 . S
C249 C250 1.524 . S
C250 C249 1.524 . S
C250 C251 1.397 . S
C250 C255 1.363 . S
C251 H222 0.950 . S
C251 C250 1.397 . S
C251 C252 1.334 . S
C252 H223 0.950 . S
C252 C251 1.334 . S
C252 C253 1.287 . S
C253 C252 1.287 . S
C253 C254 1.524 . S
C253 H256 0.999 . S
C254 H224 0.950 . S
C254 C253 1.524 . S
C254 C255 1.415 . S
C255 H225 0.950 . S
C255 C250 1.363 . S
C255 C254 1.415 . S
H256 C253 0.999 . S
H257 C238 0.913 . S
H258 C276 0.951 . S
H259 C278 0.951 . S
H260 C280 0.950 . S
H261 C281 0.950 . S
H262 C283 0.950 . S
H263 C286 0.950 . S
H264 C287 0.950 . S
H265 C289 0.950 . S
H266 C290 0.950 . S
H267 C291 0.951 . S
H268 C293 0.951 . S
H269 C295 0.950 . S
H270 C296 0.950 . S
H271 C298 0.950 . S
H272 C301 0.950 . S
H273 C302 0.950 . S
H274 C304 0.950 . S
H275 C305 0.950 . S
C276 H258 0.951 . S
C276 C277 1.366 . S
C276 C278 1.388 . S
C277 C276 1.366 . S
C277 C281 1.385 . S
C278 H259 0.951 . S
C278 C276 1.388 . S
C278 C279 1.366 . S
C279 C278 1.366 . S
C279 C280 1.414 . S
C279 C282 1.499 . S
C280 H260 0.950 . S
C280 C279 1.414 . S
C280 C281 1.374 . S
C281 H261 0.950 . S
C281 C277 1.385 . S
C281 C280 1.374 . S
C282 C279 1.499 . S
C282 C283 1.373 . S
C282 C284 1.389 . S
C283 H262 0.950 . S
C283 C282 1.373 . S
C283 C299 1.377 . S
C284 C282 1.389 . S
C284 C285 1.524 . S
C284 C298 1.377 . S
C285 C284 1.524 . S
C285 C286 1.397 . S
C285 C290 1.363 . S
C286 H263 0.950 . S
C286 C285 1.397 . S
C286 C287 1.334 . S
C287 H264 0.950 . S
C287 C286 1.334 . S
C287 C288 1.287 . S
C288 C287 1.287 . S
C288 C289 1.524 . S
C288 H307 0.913 . S
C289 H265 0.950 . S
C289 C288 1.524 . S
C289 C290 1.415 . S
C290 H266 0.950 . S
C290 C285 1.363 . S
C290 C289 1.415 . S
C291 H267 0.951 . S
C291 C292 1.366 . S
C291 C293 1.388 . S
C292 C291 1.366 . S
C292 C296 1.385 . S
C293 H268 0.951 . S
C293 C291 1.388 . S
C293 C294 1.366 . S
C294 C293 1.366 . S
C294 C295 1.414 . S
C294 C297 1.499 . S
C295 H269 0.950 . S
C295 C294 1.414 . S
C295 C296 1.374 . S
C296 H270 0.950 . S
C296 C292 1.385 . S
C296 C295 1.374 . S
C297 C294 1.499 . S
C297 C298 1.373 . S
C297 C299 1.389 . S
C298 H271 0.950 . S
C298 C284 1.377 . S
C298 C297 1.373 . S
C299 C283 1.377 . S
C299 C297 1.389 . S
C299 C300 1.524 . S
C300 C299 1.524 . S
C300 C301 1.397 . S
C300 C305 1.363 . S
C301 H272 0.950 . S
C301 C300 1.397 . S
C301 C302 1.334 . S
C302 H273 0.950 . S
C302 C301 1.334 . S
C302 C303 1.287 . S
C303 C302 1.287 . S
C303 C304 1.524 . S
C303 H306 0.999 . S
C304 H274 0.950 . S
C304 C303 1.524 . S
C304 C305 1.415 . S
C305 H275 0.950 . S
C305 C300 1.363 . S
C305 C304 1.415 . S
H306 C303 0.999 . S
H307 C288 0.913 . S
H308 C326 0.951 . S
H309 C328 0.951 . S
H310 C330 0.950 . S
H311 C331 0.950 . S
H312 C333 0.950 . S
H313 C336 0.950 . S
H314 C337 0.950 . S
H315 C339 0.950 . S
H316 C340 0.950 . S
H317 C341 0.951 . S
H318 C343 0.951 . S
H319 C345 0.950 . S
H320 C346 0.950 . S
H321 C348 0.950 . S
H322 C351 0.950 . S
H323 C352 0.950 . S
H324 C354 0.950 . S
H325 C355 0.950 . S
C326 H308 0.951 . S
C326 C327 1.366 . S
C326 C328 1.388 . S
C327 C326 1.366 . S
C327 C331 1.385 . S
C328 H309 0.951 . S
C328 C326 1.388 . S
C328 C329 1.366 . S
C329 C328 1.366 . S
C329 C330 1.414 . S
C329 C332 1.499 . S
C330 H310 0.950 . S
C330 C329 1.414 . S
C330 C331 1.374 . S
C331 H311 0.950 . S
C331 C327 1.385 . S
C331 C330 1.374 . S
C332 C329 1.499 . S
C332 C333 1.373 . S
C332 C334 1.389 . S
C333 H312 0.950 . S
C333 C332 1.373 . S
C333 C349 1.377 . S
C334 C332 1.389 . S
C334 C335 1.524 . S
C334 C348 1.377 . S
C335 C334 1.524 . S
C335 C336 1.397 . S
C335 C340 1.363 . S
C336 H313 0.950 . S
C336 C335 1.397 . S
C336 C337 1.334 . S
C337 H314 0.950 . S
C337 C336 1.334 . S
C337 C338 1.287 . S
C338 C337 1.287 . S
C338 C339 1.524 . S
C338 H357 0.913 . S
C339 H315 0.950 . S
C339 C338 1.524 . S
C339 C340 1.415 . S
C340 H316 0.950 . S
C340 C335 1.363 . S
C340 C339 1.415 . S
C341 H317 0.951 . S
C341 C342 1.366 . S
C341 C343 1.388 . S
C342 C341 1.366 . S
C342 C346 1.385 . S
C343 H318 0.951 . S
C343 C341 1.388 . S
C343 C344 1.366 . S
C344 C343 1.366 . S
C344 C345 1.414 . S
C344 C347 1.499 . S
C345 H319 0.950 . S
C345 C344 1.414 . S
C345 C346 1.374 . S
C346 H320 0.950 . S
C346 C342 1.385 . S
C346 C345 1.374 . S
C347 C344 1.499 . S
C347 C348 1.373 . S
C347 C349 1.389 . S
C348 H321 0.950 . S
C348 C334 1.377 . S
C348 C347 1.373 . S
C349 C333 1.377 . S
C349 C347 1.389 . S
C349 C350 1.524 . S
C350 C349 1.524 . S
C350 C351 1.397 . S
C350 C355 1.363 . S
C351 H322 0.950 . S
C351 C350 1.397 . S
C351 C352 1.334 . S
C352 H323 0.950 . S
C352 C351 1.334 . S
C352 C353 1.287 . S
C353 C352 1.287 . S
C353 C354 1.524 . S
C353 H356 0.999 . S
C354 H324 0.950 . S
C354 C353 1.524 . S
C354 C355 1.415 . S
C355 H325 0.950 . S
C355 C350 1.363 . S
C355 C354 1.415 . S
H356 C353 0.999 . S
H357 C338 0.913 . S
H358 C376 0.951 . S
H359 C378 0.951 . S
H360 C380 0.950 . S
H361 C381 0.950 . S
H362 C383 0.950 . S
H363 C386 0.950 . S
H364 C387 0.950 . S
H365 C389 0.950 . S
H366 C390 0.950 . S
H367 C391 0.951 . S
H368 C393 0.951 . S
H369 C395 0.950 . S
H370 C396 0.950 . S
H371 C398 0.950 . S
H372 C401 0.950 . S
H373 C402 0.950 . S
H374 C404 0.950 . S
H375 C405 0.950 . S
C376 H358 0.951 . S
C376 C377 1.366 . S
C376 C378 1.388 . S
C377 C376 1.366 . S
C377 C381 1.385 . S
C378 H359 0.951 . S
C378 C376 1.388 . S
C378 C379 1.366 . S
C379 C378 1.366 . S
C379 C380 1.414 . S
C379 C382 1.499 . S
C380 H360 0.950 . S
C380 C379 1.414 . S
C380 C381 1.374 . S
C381 H361 0.950 . S
C381 C377 1.385 . S
C381 C380 1.374 . S
C382 C379 1.499 . S
C382 C383 1.373 . S
C382 C384 1.389 . S
C383 H362 0.950 . S
C383 C382 1.373 . S
C383 C399 1.377 . S
C384 C382 1.389 . S
C384 C385 1.524 . S
C384 C398 1.377 . S
C385 C384 1.524 . S
C385 C386 1.397 . S
C385 C390 1.363 . S
C386 H363 0.950 . S
C386 C385 1.397 . S
C386 C387 1.334 . S
C387 H364 0.950 . S
C387 C386 1.334 . S
C387 C388 1.287 . S
C388 C387 1.287 . S
C388 C389 1.524 . S
C388 H407 0.913 . S
C389 H365 0.950 . S
C389 C388 1.524 . S
C389 C390 1.415 . S
C390 H366 0.950 . S
C390 C385 1.363 . S
C390 C389 1.415 . S
C391 H367 0.951 . S
C391 C392 1.366 . S
C391 C393 1.388 . S
C392 C391 1.366 . S
C392 C396 1.385 . S
C393 H368 0.951 . S
C393 C391 1.388 . S
C393 C394 1.366 . S
C394 C393 1.366 . S
C394 C395 1.414 . S
C394 C397 1.499 . S
C395 H369 0.950 . S
C395 C394 1.414 . S
C395 C396 1.374 . S
C396 H370 0.950 . S
C396 C392 1.385 . S
C396 C395 1.374 . S
C397 C394 1.499 . S
C397 C398 1.373 . S
C397 C399 1.389 . S
C398 H371 0.950 . S
C398 C384 1.377 . S
C398 C397 1.373 . S
C399 C383 1.377 . S
C399 C397 1.389 . S
C399 C400 1.524 . S
C400 C399 1.524 . S
C400 C401 1.397 . S
C400 C405 1.363 . S
C401 H372 0.950 . S
C401 C400 1.397 . S
C401 C402 1.334 . S
C402 H373 0.950 . S
C402 C401 1.334 . S
C402 C403 1.287 . S
C403 C402 1.287 . S
C403 C404 1.524 . S
C403 H406 0.999 . S
C404 H374 0.950 . S
C404 C403 1.524 . S
C404 C405 1.415 . S
C405 H375 0.950 . S
C405 C400 1.363 . S
C405 C404 1.415 . S
H406 C403 0.999 . S
H407 C388 0.913 . S
H408 C426 0.951 . S
H409 C428 0.951 . S
H410 C430 0.950 . S
H411 C431 0.950 . S
H412 C433 0.950 . S
H413 C436 0.950 . S
H414 C437 0.950 . S
H415 C439 0.950 . S
H416 C440 0.950 . S
H417 C441 0.951 . S
H418 C443 0.951 . S
H419 C445 0.950 . S
H420 C446 0.950 . S
H421 C448 0.950 . S
H422 C451 0.950 . S
H423 C452 0.950 . S
H424 C454 0.950 . S
H425 C455 0.950 . S
C426 H408 0.951 . S
C426 C427 1.366 . S
C426 C428 1.388 . S
C427 C426 1.366 . S
C427 C431 1.385 . S
C428 H409 0.951 . S
C428 C426 1.388 . S
C428 C429 1.366 . S
C429 C428 1.366 . S
C429 C430 1.414 . S
C429 C432 1.499 . S
C430 H410 0.950 . S
C430 C429 1.414 . S
C430 C431 1.374 . S
C431 H411 0.950 . S
C431 C427 1.385 . S
C431 C430 1.374 . S
C432 C429 1.499 . S
C432 C433 1.373 . S
C432 C434 1.389 . S
C433 H412 0.950 . S
C433 C432 1.373 . S
C433 C449 1.377 . S
C434 C432 1.389 . S
C434 C435 1.524 . S
C434 C448 1.377 . S
C435 C434 1.524 . S
C435 C436 1.397 . S
C435 C440 1.363 . S
C436 H413 0.950 . S
C436 C435 1.397 . S
C436 C437 1.334 . S
C437 H414 0.950 . S
C437 C436 1.334 . S
C437 C438 1.287 . S
C438 C437 1.287 . S
C438 C439 1.524 . S
C438 H457 0.913 . S
C439 H415 0.950 . S
C439 C438 1.524 . S
C439 C440 1.415 . S
C440 H416 0.950 . S
C440 C435 1.363 . S
C440 C439 1.415 . S
C441 H417 0.951 . S
C441 C442 1.366 . S
C441 C443 1.388 . S
C442 C441 1.366 . S
C442 C446 1.385 . S
C443 H418 0.951 . S
C443 C441 1.388 . S
C443 C444 1.366 . S
C444 C443 1.366 . S
C444 C445 1.414 . S
C444 C447 1.499 . S
C445 H419 0.950 . S
C445 C444 1.414 . S
C445 C446 1.374 . S
C446 H420 0.950 . S
C446 C442 1.385 . S
C446 C445 1.374 . S
C447 C444 1.499 . S
C447 C448 1.373 . S
C447 C449 1.389 . S
C448 H421 0.950 . S
C448 C434 1.377 . S
C448 C447 1.373 . S
C449 C433 1.377 . S
C449 C447 1.389 . S
C449 C450 1.524 . S
C450 C449 1.524 . S
C450 C451 1.397 . S
C450 C455 1.363 . S
C451 H422 0.950 . S
C451 C450 1.397 . S
C451 C452 1.334 . S
C452 H423 0.950 . S
C452 C451 1.334 . S
C452 C453 1.287 . S
C453 C452 1.287 . S
C453 C454 1.524 . S
C453 H456 0.999 . S
C454 H424 0.950 . S
C454 C453 1.524 . S
C454 C455 1.415 . S
C455 H425 0.950 . S
C455 C450 1.363 . S
C455 C454 1.415 . S
H456 C453 0.999 . S
H457 C438 0.913 . S
H458 C476 0.951 . S
H459 C478 0.951 . S
H460 C480 0.950 . S
H461 C481 0.950 . S
H462 C483 0.950 . S
H463 C486 0.950 . S
H464 C487 0.950 . S
H465 C489 0.950 . S
H466 C490 0.950 . S
H467 C491 0.951 . S
H468 C493 0.951 . S
H469 C495 0.950 . S
H470 C496 0.950 . S
H471 C498 0.950 . S
H472 C501 0.950 . S
H473 C502 0.950 . S
H474 C504 0.950 . S
H475 C505 0.950 . S
C476 H458 0.951 . S
C476 C477 1.366 . S
C476 C478 1.388 . S
C477 C476 1.366 . S
C477 C481 1.385 . S
C478 H459 0.951 . S
C478 C476 1.388 . S
C478 C479 1.366 . S
C479 C478 1.366 . S
C479 C480 1.414 . S
C479 C482 1.499 . S
C480 H460 0.950 . S
C480 C479 1.414 . S
C480 C481 1.374 . S
C481 H461 0.950 . S
C481 C477 1.385 . S
C481 C480 1.374 . S
C482 C479 1.499 . S
C482 C483 1.373 . S
C482 C484 1.389 . S
C483 H462 0.950 . S
C483 C482 1.373 . S
C483 C499 1.377 . S
C484 C482 1.389 . S
C484 C485 1.524 . S
C484 C498 1.377 . S
C485 C484 1.524 . S
C485 C486 1.397 . S
C485 C490 1.363 . S
C486 H463 0.950 . S
C486 C485 1.397 . S
C486 C487 1.334 . S
C487 H464 0.950 . S
C487 C486 1.334 . S
C487 C488 1.287 . S
C488 C487 1.287 . S
C488 C489 1.524 . S
C488 H507 0.913 . S
C489 H465 0.950 . S
C489 C488 1.524 . S
C489 C490 1.415 . S
C490 H466 0.950 . S
C490 C485 1.363 . S
C490 C489 1.415 . S
C491 H467 0.951 . S
C491 C492 1.366 . S
C491 C493 1.388 . S
C492 C491 1.366 . S
C492 C496 1.385 . S
C493 H468 0.951 . S
C493 C491 1.388 . S
C493 C494 1.366 . S
C494 C493 1.366 . S
C494 C495 1.414 . S
C494 C497 1.499 . S
C495 H469 0.950 . S
C495 C494 1.414 . S
C495 C496 1.374 . S
C496 H470 0.950 . S
C496 C492 1.385 . S
C496 C495 1.374 . S
C497 C494 1.499 . S
C497 C498 1.373 . S
C497 C499 1.389 . S
C498 H471 0.950 . S
C498 C484 1.377 . S
C498 C497 1.373 . S
C499 C483 1.377 . S
C499 C497 1.389 . S
C499 C500 1.524 . S
C500 C499 1.524 . S
C500 C501 1.397 . S
C500 C505 1.363 . S
C501 H472 0.950 . S
C501 C500 1.397 . S
C501 C502 1.334 . S
C502 H473 0.950 . S
C502 C501 1.334 . S
C502 C503 1.287 . S
C503 C502 1.287 . S
C503 C504 1.524 . S
C503 H506 0.999 . S
C504 H474 0.950 . S
C504 C503 1.524 . S
C504 C505 1.415 . S
C505 H475 0.950 . S
C505 C500 1.363 . S
C505 C504 1.415 . S
H506 C503 0.999 . S
H507 C488 0.913 . S
H508 C526 0.951 . S
H509 C528 0.951 . S
H510 C530 0.950 . S
H511 C531 0.950 . S
H512 C533 0.950 . S
H513 C536 0.950 . S
H514 C537 0.950 . S
H515 C539 0.950 . S
H516 C540 0.950 . S
H517 C541 0.951 . S
H518 C543 0.951 . S
H519 C545 0.950 . S
H520 C546 0.950 . S
H521 C548 0.950 . S
H522 C551 0.950 . S
H523 C552 0.950 . S
H524 C554 0.950 . S
H525 C555 0.950 . S
C526 H508 0.951 . S
C526 C527 1.366 . S
C526 C528 1.388 . S
C527 C526 1.366 . S
C527 C531 1.385 . S
C528 H509 0.951 . S
C528 C526 1.388 . S
C528 C529 1.366 . S
C529 C528 1.366 . S
C529 C530 1.414 . S
C529 C532 1.499 . S
C530 H510 0.950 . S
C530 C529 1.414 . S
C530 C531 1.374 . S
C531 H511 0.950 . S
C531 C527 1.385 . S
C531 C530 1.374 . S
C532 C529 1.499 . S
C532 C533 1.373 . S
C532 C534 1.389 . S
C533 H512 0.950 . S
C533 C532 1.373 . S
C533 C549 1.377 . S
C534 C532 1.389 . S
C534 C535 1.524 . S
C534 C548 1.377 . S
C535 C534 1.524 . S
C535 C536 1.397 . S
C535 C540 1.363 . S
C536 H513 0.950 . S
C536 C535 1.397 . S
C536 C537 1.334 . S
C537 H514 0.950 . S
C537 C536 1.334 . S
C537 C538 1.287 . S
C538 C537 1.287 . S
C538 C539 1.524 . S
C538 H557 0.913 . S
C539 H515 0.950 . S
C539 C538 1.524 . S
C539 C540 1.415 . S
C540 H516 0.950 . S
C540 C535 1.363 . S
C540 C539 1.415 . S
C541 H517 0.951 . S
C541 C542 1.366 . S
C541 C543 1.388 . S
C542 C541 1.366 . S
C542 C546 1.385 . S
C543 H518 0.951 . S
C543 C541 1.388 . S
C543 C544 1.366 . S
C544 C543 1.366 . S
C544 C545 1.414 . S
C544 C547 1.499 . S
C545 H519 0.950 . S
C545 C544 1.414 . S
C545 C546 1.374 . S
C546 H520 0.950 . S
C546 C542 1.385 . S
C546 C545 1.374 . S
C547 C544 1.499 . S
C547 C548 1.373 . S
C547 C549 1.389 . S
C548 H521 0.950 . S
C548 C534 1.377 . S
C548 C547 1.373 . S
C549 C533 1.377 . S
C549 C547 1.389 . S
C549 C550 1.524 . S
C550 C549 1.524 . S
C550 C551 1.397 . S
C550 C555 1.363 . S
C551 H522 0.950 . S
C551 C550 1.397 . S
C551 C552 1.334 . S
C552 H523 0.950 . S
C552 C551 1.334 . S
C552 C553 1.287 . S
C553 C552 1.287 . S
C553 C554 1.524 . S
C553 H556 0.999 . S
C554 H524 0.950 . S
C554 C553 1.524 . S
C554 C555 1.415 . S
C555 H525 0.950 . S
C555 C550 1.363 . S
C555 C554 1.415 . S
H556 C553 0.999 . S
H557 C538 0.913 . S
H558 C576 0.951 . S
H559 C578 0.951 . S
H560 C580 0.950 . S
H561 C581 0.950 . S
H562 C583 0.950 . S
H563 C586 0.950 . S
H564 C587 0.950 . S
H565 C589 0.950 . S
H566 C590 0.950 . S
H567 C591 0.951 . S
H568 C593 0.951 . S
H569 C595 0.950 . S
H570 C596 0.950 . S
H571 C598 0.950 . S
H572 C601 0.950 . S
H573 C602 0.950 . S
H574 C604 0.950 . S
H575 C605 0.950 . S
C576 H558 0.951 . S
C576 C577 1.366 . S
C576 C578 1.388 . S
C577 C576 1.366 . S
C577 C581 1.385 . S
C578 H559 0.951 . S
C578 C576 1.388 . S
C578 C579 1.366 . S
C579 C578 1.366 . S
C579 C580 1.414 . S
C579 C582 1.499 . S
C580 H560 0.950 . S
C580 C579 1.414 . S
C580 C581 1.374 . S
C581 H561 0.950 . S
C581 C577 1.385 . S
C581 C580 1.374 . S
C582 C579 1.499 . S
C582 C583 1.373 . S
C582 C584 1.389 . S
C583 H562 0.950 . S
C583 C582 1.373 . S
C583 C599 1.377 . S
C584 C582 1.389 . S
C584 C585 1.524 . S
C584 C598 1.377 . S
C585 C584 1.524 . S
C585 C586 1.397 . S
C585 C590 1.363 . S
C586 H563 0.950 . S
C586 C585 1.397 . S
C586 C587 1.334 . S
C587 H564 0.950 . S
C587 C586 1.334 . S
C587 C588 1.287 . S
C588 C587 1.287 . S
C588 C589 1.524 . S
C588 H607 0.913 . S
C589 H565 0.950 . S
C589 C588 1.524 . S
C589 C590 1.415 . S
C590 H566 0.950 . S
C590 C585 1.363 . S
C590 C589 1.415 . S
C591 H567 0.951 . S
C591 C592 1.366 . S
C591 C593 1.388 . S
C592 C591 1.366 . S
C592 C596 1.385 . S
C593 H568 0.951 . S
C593 C591 1.388 . S
C593 C594 1.366 . S
C594 C593 1.366 . S
C594 C595 1.414 . S
C594 C597 1.499 . S
C595 H569 0.950 . S
C595 C594 1.414 . S
C595 C596 1.374 . S
C596 H570 0.950 . S
C596 C592 1.385 . S
C596 C595 1.374 . S
C597 C594 1.499 . S
C597 C598 1.373 . S
C597 C599 1.389 . S
C598 H571 0.950 . S
C598 C584 1.377 . S
C598 C597 1.373 . S
C599 C583 1.377 . S
C599 C597 1.389 . S
C599 C600 1.524 . S
C600 C599 1.524 . S
C600 C601 1.397 . S
C600 C605 1.363 . S
C601 H572 0.950 . S
C601 C600 1.397 . S
C601 C602 1.334 . S
C602 H573 0.950 . S
C602 C601 1.334 . S
C602 C603 1.287 . S
C603 C602 1.287 . S
C603 C604 1.524 . S
C603 H606 0.999 . S
C604 H574 0.950 . S
C604 C603 1.524 . S
C604 C605 1.415 . S
C605 H575 0.950 . S
C605 C600 1.363 . S
C605 C604 1.415 . S
H606 C603 0.999 . S
H607 C588 0.913 . S
H608 C626 0.951 . S
H609 C628 0.951 . S
H610 C630 0.950 . S
H611 C631 0.950 . S
H612 C633 0.950 . S
H613 C636 0.950 . S
H614 C637 0.950 . S
H615 C639 0.950 . S
H616 C640 0.950 . S
H617 C641 0.951 . S
H618 C643 0.951 . S
H619 C645 0.950 . S
H620 C646 0.950 . S
H621 C648 0.950 . S
H622 C651 0.950 . S
H623 C652 0.950 . S
H624 C654 0.950 . S
H625 C655 0.950 . S
C626 H608 0.951 . S
C626 C627 1.366 . S
C626 C628 1.388 . S
C627 C626 1.366 . S
C627 C631 1.385 . S
C628 H609 0.951 . S
C628 C626 1.388 . S
C628 C629 1.366 . S
C629 C628 1.366 . S
C629 C630 1.414 . S
C629 C632 1.499 . S
C630 H610 0.950 . S
C630 C629 1.414 . S
C630 C631 1.374 . S
C631 H611 0.950 . S
C631 C627 1.385 . S
C631 C630 1.374 . S
C632 C629 1.499 . S
C632 C633 1.373 . S
C632 C634 1.389 . S
C633 H612 0.950 . S
C633 C632 1.373 . S
C633 C649 1.377 . S
C634 C632 1.389 . S
C634 C635 1.524 . S
C634 C648 1.377 . S
C635 C634 1.524 . S
C635 C636 1.397 . S
C635 C640 1.363 . S
C636 H613 0.950 . S
C636 C635 1.397 . S
C636 C637 1.334 . S
C637 H614 0.950 . S
C637 C636 1.334 . S
C637 C638 1.287 . S
C638 C637 1.287 . S
C638 C639 1.524 . S
C638 H657 0.913 . S
C639 H615 0.950 . S
C639 C638 1.524 . S
C639 C640 1.415 . S
C640 H616 0.950 . S
C640 C635 1.363 . S
C640 C639 1.415 . S
C641 H617 0.951 . S
C641 C642 1.366 . S
C641 C643 1.388 . S
C642 C641 1.366 . S
C642 C646 1.385 . S
C643 H618 0.951 . S
C643 C641 1.388 . S
C643 C644 1.366 . S
C644 C643 1.366 . S
C644 C645 1.414 . S
C644 C647 1.499 . S
C645 H619 0.950 . S
C645 C644 1.414 . S
C645 C646 1.374 . S
C646 H620 0.950 . S
C646 C642 1.385 . S
C646 C645 1.374 . S
C647 C644 1.499 . S
C647 C648 1.373 . S
C647 C649 1.389 . S
C648 H621 0.950 . S
C648 C634 1.377 . S
C648 C647 1.373 . S
C649 C633 1.377 . S
C649 C647 1.389 . S
C649 C650 1.524 . S
C650 C649 1.524 . S
C650 C651 1.397 . S
C650 C655 1.363 . S
C651 H622 0.950 . S
C651 C650 1.397 . S
C651 C652 1.334 . S
C652 H623 0.950 . S
C652 C651 1.334 . S
C652 C653 1.287 . S
C653 C652 1.287 . S
C653 C654 1.524 . S
C653 H656 0.999 . S
C654 H624 0.950 . S
C654 C653 1.524 . S
C654 C655 1.415 . S
C655 H625 0.950 . S
C655 C650 1.363 . S
C655 C654 1.415 . S
H656 C653 0.999 . S
H657 C638 0.913 . S
H658 C676 0.951 . S
H659 C678 0.951 . S
H660 C680 0.950 . S
H661 C681 0.950 . S
H662 C683 0.950 . S
H663 C686 0.950 . S
H664 C687 0.950 . S
H665 C689 0.950 . S
H666 C690 0.950 . S
H667 C691 0.951 . S
H668 C693 0.951 . S
H669 C695 0.950 . S
H670 C696 0.950 . S
H671 C698 0.950 . S
H672 C701 0.950 . S
H673 C702 0.950 . S
H674 C704 0.950 . S
H675 C705 0.950 . S
C676 H658 0.951 . S
C676 C677 1.366 . S
C676 C678 1.388 . S
C677 C676 1.366 . S
C677 C681 1.385 . S
C678 H659 0.951 . S
C678 C676 1.388 . S
C678 C679 1.366 . S
C679 C678 1.366 . S
C679 C680 1.414 . S
C679 C682 1.499 . S
C680 H660 0.950 . S
C680 C679 1.414 . S
C680 C681 1.374 . S
C681 H661 0.950 . S
C681 C677 1.385 . S
C681 C680 1.374 . S
C682 C679 1.499 . S
C682 C683 1.373 . S
C682 C684 1.389 . S
C683 H662 0.950 . S
C683 C682 1.373 . S
C683 C699 1.377 . S
C684 C682 1.389 . S
C684 C685 1.524 . S
C684 C698 1.377 . S
C685 C684 1.524 . S
C685 C686 1.397 . S
C685 C690 1.363 . S
C686 H663 0.950 . S
C686 C685 1.397 . S
C686 C687 1.334 . S
C687 H664 0.950 . S
C687 C686 1.334 . S
C687 C688 1.287 . S
C688 C687 1.287 . S
C688 C689 1.524 . S
C688 H707 0.913 . S
C689 H665 0.950 . S
C689 C688 1.524 . S
C689 C690 1.415 . S
C690 H666 0.950 . S
C690 C685 1.363 . S
C690 C689 1.415 . S
C691 H667 0.951 . S
C691 C692 1.366 . S
C691 C693 1.388 . S
C692 C691 1.366 . S
C692 C696 1.385 . S
C693 H668 0.951 . S
C693 C691 1.388 . S
C693 C694 1.366 . S
C694 C693 1.366 . S
C694 C695 1.414 . S
C694 C697 1.499 . S
C695 H669 0.950 . S
C695 C694 1.414 . S
C695 C696 1.374 . S
C696 H670 0.950 . S
C696 C692 1.385 . S
C696 C695 1.374 . S
C697 C694 1.499 . S
C697 C698 1.373 . S
C697 C699 1.389 . S
C698 H671 0.950 . S
C698 C684 1.377 . S
C698 C697 1.373 . S
C699 C683 1.377 . S
C699 C697 1.389 . S
C699 C700 1.524 . S
C700 C699 1.524 . S
C700 C701 1.397 . S
C700 C705 1.363 . S
C701 H672 0.950 . S
C701 C700 1.397 . S
C701 C702 1.334 . S
C702 H673 0.950 . S
C702 C701 1.334 . S
C702 C703 1.287 . S
C703 C702 1.287 . S
C703 C704 1.524 . S
C703 H706 0.999 . S
C704 H674 0.950 . S
C704 C703 1.524 . S
C704 C705 1.415 . S
C705 H675 0.950 . S
C705 C700 1.363 . S
C705 C704 1.415 . S
H706 C703 0.999 . S
H707 C688 0.913 . S
H708 C726 0.951 . S
H709 C728 0.951 . S
H710 C730 0.950 . S
H711 C731 0.950 . S
H712 C733 0.950 . S
H713 C736 0.950 . S
H714 C737 0.950 . S
H715 C739 0.950 . S
H716 C740 0.950 . S
H717 C741 0.951 . S
H718 C743 0.951 . S
H719 C745 0.950 . S
H720 C746 0.950 . S
H721 C748 0.950 . S
H722 C751 0.950 . S
H723 C752 0.950 . S
H724 C754 0.950 . S
H725 C755 0.950 . S
C726 H708 0.951 . S
C726 C727 1.366 . S
C726 C728 1.388 . S
C727 C726 1.366 . S
C727 C731 1.385 . S
C728 H709 0.951 . S
C728 C726 1.388 . S
C728 C729 1.366 . S
C729 C728 1.366 . S
C729 C730 1.414 . S
C729 C732 1.499 . S
C730 H710 0.950 . S
C730 C729 1.414 . S
C730 C731 1.374 . S
C731 H711 0.950 . S
C731 C727 1.385 . S
C731 C730 1.374 . S
C732 C729 1.499 . S
C732 C733 1.373 . S
C732 C734 1.389 . S
C733 H712 0.950 . S
C733 C732 1.373 . S
C733 C749 1.377 . S
C734 C732 1.389 . S
C734 C735 1.524 . S
C734 C748 1.377 . S
C735 C734 1.524 . S
C735 C736 1.397 . S
C735 C740 1.363 . S
C736 H713 0.950 . S
C736 C735 1.397 . S
C736 C737 1.334 . S
C737 H714 0.950 . S
C737 C736 1.334 . S
C737 C738 1.287 . S
C738 C737 1.287 . S
C738 C739 1.524 . S
C738 H757 0.913 . S
C739 H715 0.950 . S
C739 C738 1.524 . S
C739 C740 1.415 . S
C740 H716 0.950 . S
C740 C735 1.363 . S
C740 C739 1.415 . S
C741 H717 0.951 . S
C741 C742 1.366 . S
C741 C743 1.388 . S
C742 C741 1.366 . S
C742 C746 1.385 . S
C743 H718 0.951 . S
C743 C741 1.388 . S
C743 C744 1.366 . S
C744 C743 1.366 . S
C744 C745 1.414 . S
C744 C747 1.499 . S
C745 H719 0.950 . S
C745 C744 1.414 . S
C745 C746 1.374 . S
C746 H720 0.950 . S
C746 C742 1.385 . S
C746 C745 1.374 . S
C747 C744 1.499 . S
C747 C748 1.373 . S
C747 C749 1.389 . S
C748 H721 0.950 . S
C748 C734 1.377 . S
C748 C747 1.373 . S
C749 C733 1.377 . S
C749 C747 1.389 . S
C749 C750 1.524 . S
C750 C749 1.524 . S
C750 C751 1.397 . S
C750 C755 1.363 . S
C751 H722 0.950 . S
C751 C750 1.397 . S
C751 C752 1.334 . S
C752 H723 0.950 . S
C752 C751 1.334 . S
C752 C753 1.287 . S
C753 C752 1.287 . S
C753 C754 1.524 . S
C753 H756 0.999 . S
C754 H724 0.950 . S
C754 C753 1.524 . S
C754 C755 1.415 . S
C755 H725 0.950 . S
C755 C750 1.363 . S
C755 C754 1.415 . S
H756 C753 0.999 . S
H757 C738 0.913 . S
H758 C776 0.951 . S
H759 C778 0.951 . S
H760 C780 0.950 . S
H761 C781 0.950 . S
H762 C783 0.950 . S
H763 C786 0.950 . S
H764 C787 0.950 . S
H765 C789 0.950 . S
H766 C790 0.950 . S
H767 C791 0.951 . S
H768 C793 0.951 . S
H769 C795 0.950 . S
H770 C796 0.950 . S
H771 C798 0.950 . S
H772 C801 0.950 . S
H773 C802 0.950 . S
H774 C804 0.950 . S
H775 C805 0.950 . S
C776 H758 0.951 . S
C776 C777 1.366 . S
C776 C778 1.388 . S
C777 C776 1.366 . S
C777 C781 1.385 . S
C778 H759 0.951 . S
C778 C776 1.388 . S
C778 C779 1.366 . S
C779 C778 1.366 . S
C779 C780 1.414 . S
C779 C782 1.499 . S
C780 H760 0.950 . S
C780 C779 1.414 . S
C780 C781 1.374 . S
C781 H761 0.950 . S
C781 C777 1.385 . S
C781 C780 1.374 . S
C782 C779 1.499 . S
C782 C783 1.373 . S
C782 C784 1.389 . S
C783 H762 0.950 . S
C783 C782 1.373 . S
C783 C799 1.377 . S
C784 C782 1.389 . S
C784 C785 1.524 . S
C784 C798 1.377 . S
C785 C784 1.524 . S
C785 C786 1.397 . S
C785 C790 1.363 . S
C786 H763 0.950 . S
C786 C785 1.397 . S
C786 C787 1.334 . S
C787 H764 0.950 . S
C787 C786 1.334 . S
C787 C788 1.287 . S
C788 C787 1.287 . S
C788 C789 1.524 . S
C788 H807 0.913 . S
C789 H765 0.950 . S
C789 C788 1.524 . S
C789 C790 1.415 . S
C790 H766 0.950 . S
C790 C785 1.363 . S
C790 C789 1.415 . S
C791 H767 0.951 . S
C791 C792 1.366 . S
C791 C793 1.388 . S
C792 C791 1.366 . S
C792 C796 1.385 . S
C793 H768 0.951 . S
C793 C791 1.388 . S
C793 C794 1.366 . S
C794 C793 1.366 . S
C794 C795 1.414 . S
C794 C797 1.499 . S
C795 H769 0.950 . S
C795 C794 1.414 . S
C795 C796 1.374 . S
C796 H770 0.950 . S
C796 C792 1.385 . S
C796 C795 1.374 . S
C797 C794 1.499 . S
C797 C798 1.373 . S
C797 C799 1.389 . S
C798 H771 0.950 . S
C798 C784 1.377 . S
C798 C797 1.373 . S
C799 C783 1.377 . S
C799 C797 1.389 . S
C799 C800 1.524 . S
C800 C799 1.524 . S
C800 C801 1.397 . S
C800 C805 1.363 . S
C801 H772 0.950 . S
C801 C800 1.397 . S
C801 C802 1.334 . S
C802 H773 0.950 . S
C802 C801 1.334 . S
C802 C803 1.287 . S
C803 C802 1.287 . S
C803 C804 1.524 . S
C803 H806 0.999 . S
C804 H774 0.950 . S
C804 C803 1.524 . S
C804 C805 1.415 . S
C805 H775 0.950 . S
C805 C800 1.363 . S
C805 C804 1.415 . S
H806 C803 0.999 . S
H807 C788 0.913 . S
H808 C826 0.951 . S
H809 C828 0.951 . S
H810 C830 0.950 . S
H811 C831 0.950 . S
H812 C833 0.950 . S
H813 C836 0.950 . S
H814 C837 0.950 . S
H815 C839 0.950 . S
H816 C840 0.950 . S
H817 C841 0.951 . S
H818 C843 0.951 . S
H819 C845 0.950 . S
H820 C846 0.950 . S
H821 C848 0.950 . S
H822 C851 0.950 . S
H823 C852 0.950 . S
H824 C854 0.950 . S
H825 C855 0.950 . S
C826 H808 0.951 . S
C826 C827 1.366 . S
C826 C828 1.388 . S
C827 C826 1.366 . S
C827 C831 1.385 . S
C828 H809 0.951 . S
C828 C826 1.388 . S
C828 C829 1.366 . S
C829 C828 1.366 . S
C829 C830 1.414 . S
C829 C832 1.499 . S
C830 H810 0.950 . S
C830 C829 1.414 . S
C830 C831 1.374 . S
C831 H811 0.950 . S
C831 C827 1.385 . S
C831 C830 1.374 . S
C832 C829 1.499 . S
C832 C833 1.373 . S
C832 C834 1.389 . S
C833 H812 0.950 . S
C833 C832 1.373 . S
C833 C849 1.377 . S
C834 C832 1.389 . S
C834 C835 1.524 . S
C834 C848 1.377 . S
C835 C834 1.524 . S
C835 C836 1.397 . S
C835 C840 1.363 . S
C836 H813 0.950 . S
C836 C835 1.397 . S
C836 C837 1.334 . S
C837 H814 0.950 . S
C837 C836 1.334 . S
C837 C838 1.287 . S
C838 C837 1.287 . S
C838 C839 1.524 . S
C838 H857 0.913 . S
C839 H815 0.950 . S
C839 C838 1.524 . S
C839 C840 1.415 . S
C840 H816 0.950 . S
C840 C835 1.363 . S
C840 C839 1.415 . S
C841 H817 0.951 . S
C841 C842 1.366 . S
C841 C843 1.388 . S
C842 C841 1.366 . S
C842 C846 1.385 . S
C843 H818 0.951 . S
C843 C841 1.388 . S
C843 C844 1.366 . S
C844 C843 1.366 . S
C844 C845 1.414 . S
C844 C847 1.499 . S
C845 H819 0.950 . S
C845 C844 1.414 . S
C845 C846 1.374 . S
C846 H820 0.950 . S
C846 C842 1.385 . S
C846 C845 1.374 . S
C847 C844 1.499 . S
C847 C848 1.373 . S
C847 C849 1.389 . S
C848 H821 0.950 . S
C848 C834 1.377 . S
C848 C847 1.373 . S
C849 C833 1.377 . S
C849 C847 1.389 . S
C849 C850 1.524 . S
C850 C849 1.524 . S
C850 C851 1.397 . S
C850 C855 1.363 . S
C851 H822 0.950 . S
C851 C850 1.397 . S
C851 C852 1.334 . S
C852 H823 0.950 . S
C852 C851 1.334 . S
C852 C853 1.287 . S
C853 C852 1.287 . S
C853 C854 1.524 . S
C853 H856 0.999 . S
C854 H824 0.950 . S
C854 C853 1.524 . S
C854 C855 1.415 . S
C855 H825 0.950 . S
C855 C850 1.363 . S
C855 C854 1.415 . S
H856 C853 0.999 . S
H857 C838 0.913 . S
H858 C876 0.951 . S
H859 C878 0.951 . S
H860 C880 0.950 . S
H861 C881 0.950 . S
H862 C883 0.950 . S
H863 C886 0.950 . S
H864 C887 0.950 . S
H865 C889 0.950 . S
H866 C890 0.950 . S
H867 C891 0.951 . S
H868 C893 0.951 . S
H869 C895 0.950 . S
H870 C896 0.950 . S
H871 C898 0.950 . S
H872 C901 0.950 . S
H873 C902 0.950 . S
H874 C904 0.950 . S
H875 C905 0.950 . S
C876 H858 0.951 . S
C876 C877 1.366 . S
C876 C878 1.388 . S
C877 C876 1.366 . S
C877 C881 1.385 . S
C878 H859 0.951 . S
C878 C876 1.388 . S
C878 C879 1.366 . S
C879 C878 1.366 . S
C879 C880 1.414 . S
C879 C882 1.499 . S
C880 H860 0.950 . S
C880 C879 1.414 . S
C880 C881 1.374 . S
C881 H861 0.950 . S
C881 C877 1.385 . S
C881 C880 1.374 . S
C882 C879 1.499 . S
C882 C883 1.373 . S
C882 C884 1.389 . S
C883 H862 0.950 . S
C883 C882 1.373 . S
C883 C899 1.377 . S
C884 C882 1.389 . S
C884 C885 1.524 . S
C884 C898 1.377 . S
C885 C884 1.524 . S
C885 C886 1.397 . S
C885 C890 1.363 . S
C886 H863 0.950 . S
C886 C885 1.397 . S
C886 C887 1.334 . S
C887 H864 0.950 . S
C887 C886 1.334 . S
C887 C888 1.287 . S
C888 C887 1.287 . S
C888 C889 1.524 . S
C888 H907 0.913 . S
C889 H865 0.950 . S
C889 C888 1.524 . S
C889 C890 1.415 . S
C890 H866 0.950 . S
C890 C885 1.363 . S
C890 C889 1.415 . S
C891 H867 0.951 . S
C891 C892 1.366 . S
C891 C893 1.388 . S
C892 C891 1.366 . S
C892 C896 1.385 . S
C893 H868 0.951 . S
C893 C891 1.388 . S
C893 C894 1.366 . S
C894 C893 1.366 . S
C894 C895 1.414 . S
C894 C897 1.499 . S
C895 H869 0.950 . S
C895 C894 1.414 . S
C895 C896 1.374 . S
C896 H870 0.950 . S
C896 C892 1.385 . S
C896 C895 1.374 . S
C897 C894 1.499 . S
C897 C898 1.373 . S
C897 C899 1.389 . S
C898 H871 0.950 . S
C898 C884 1.377 . S
C898 C897 1.373 . S
C899 C883 1.377 . S
C899 C897 1.389 . S
C899 C900 1.524 . S
C900 C899 1.524 . S
C900 C901 1.397 . S
C900 C905 1.363 . S
C901 H872 0.950 . S
C901 C900 1.397 . S
C901 C902 1.334 . S
C902 H873 0.950 . S
C902 C901 1.334 . S
C902 C903 1.287 . S
C903 C902 1.287 . S
C903 C904 1.524 . S
C903 H906 0.999 . S
C904 H874 0.950 . S
C904 C903 1.524 . S
C904 C905 1.415 . S
C905 H875 0.950 . S
C905 C900 1.363 . S
C905 C904 1.415 . S
H906 C903 0.999 . S
H907 C888 0.913 . S
H908 C926 0.951 . S
H909 C928 0.951 . S
H910 C930 0.950 . S
H911 C931 0.950 . S
H912 C933 0.950 . S
H913 C936 0.950 . S
H914 C937 0.950 . S
H915 C939 0.950 . S
H916 C940 0.950 . S
H917 C941 0.951 . S
H918 C943 0.951 . S
H919 C945 0.950 . S
H920 C946 0.950 . S
H921 C948 0.950 . S
H922 C951 0.950 . S
H923 C952 0.950 . S
H924 C954 0.950 . S
H925 C955 0.950 . S
C926 H908 0.951 . S
C926 C927 1.366 . S
C926 C928 1.388 . S
C927 C926 1.366 . S
C927 C931 1.385 . S
C928 H909 0.951 . S
C928 C926 1.388 . S
C928 C929 1.366 . S
C929 C928 1.366 . S
C929 C930 1.414 . S
C929 C932 1.499 . S
C930 H910 0.950 . S
C930 C929 1.414 . S
C930 C931 1.374 . S
C931 H911 0.950 . S
C931 C927 1.385 . S
C931 C930 1.374 . S
C932 C929 1.499 . S
C932 C933 1.373 . S
C932 C934 1.389 . S
C933 H912 0.950 . S
C933 C932 1.373 . S
C933 C949 1.377 . S
C934 C932 1.389 . S
C934 C935 1.524 . S
C934 C948 1.377 . S
C935 C934 1.524 . S
C935 C936 1.397 . S
C935 C940 1.363 . S
C936 H913 0.950 . S
C936 C935 1.397 . S
C936 C937 1.334 . S
C937 H914 0.950 . S
C937 C936 1.334 . S
C937 C938 1.287 . S
C938 C937 1.287 . S
C938 C939 1.524 . S
C938 H957 0.913 . S
C939 H915 0.950 . S
C939 C938 1.524 . S
C939 C940 1.415 . S
C940 H916 0.950 . S
C940 C935 1.363 . S
C940 C939 1.415 . S
C941 H917 0.951 . S
C941 C942 1.366 . S
C941 C943 1.388 . S
C942 C941 1.366 . S
C942 C946 1.385 . S
C943 H918 0.951 . S
C943 C941 1.388 . S
C943 C944 1.366 . S
C944 C943 1.366 . S
C944 C945 1.414 . S
C944 C947 1.499 . S
C945 H919 0.950 . S
C945 C944 1.414 . S
C945 C946 1.374 . S
C946 H920 0.950 . S
C946 C942 1.385 . S
C946 C945 1.374 . S
C947 C944 1.499 . S
C947 C948 1.373 . S
C947 C949 1.389 . S
C948 H921 0.950 . S
C948 C934 1.377 . S
C948 C947 1.373 . S
C949 C933 1.377 . S
C949 C947 1.389 . S
C949 C950 1.524 . S
C950 C949 1.524 . S
C950 C951 1.397 . S
C950 C955 1.363 . S
C951 H922 0.950 . S
C951 C950 1.397 . S
C951 C952 1.334 . S
C952 H923 0.950 . S
C952 C951 1.334 . S
C952 C953 1.287 . S
C953 C952 1.287 . S
C953 C954 1.524 . S
C953 H956 0.999 . S
C954 H924 0.950 . S
C954 C953 1.524 . S
C954 C955 1.415 . S
C955 H925 0.950 . S
C955 C950 1.363 . S
C955 C954 1.415 . S
H956 C953 0.999 . S
H957 C938 0.913 . S
H958 C976 0.951 . S
H959 C978 0.951 . S
H960 C980 0.950 . S
H961 C981 0.950 . S
H962 C983 0.950 . S
H963 C986 0.950 . S
H964 C987 0.950 . S
H965 C989 0.950 . S
H966 C990 0.950 . S
H967 C991 0.951 . S
H968 C993 0.951 . S
H969 C995 0.950 . S
H970 C996 0.950 . S
H971 C998 0.950 . S
H972 C1001 0.950 . S
H973 C1002 0.950 . S
H974 C1004 0.950 . S
H975 C1005 0.950 . S
C976 H958 0.951 . S
C976 C977 1.366 . S
C976 C978 1.388 . S
C977 C976 1.366 . S
C977 C981 1.385 . S
C978 H959 0.951 . S
C978 C976 1.388 . S
C978 C979 1.366 . S
C979 C978 1.366 . S
C979 C980 1.414 . S
C979 C982 1.499 . S
C980 H960 0.950 . S
C980 C979 1.414 . S
C980 C981 1.374 . S
C981 H961 0.950 . S
C981 C977 1.385 . S
C981 C980 1.374 . S
C982 C979 1.499 . S
C982 C983 1.373 . S
C982 C984 1.389 . S
C983 H962 0.950 . S
C983 C982 1.373 . S
C983 C999 1.377 . S
C984 C982 1.389 . S
C984 C985 1.524 . S
C984 C998 1.377 . S
C985 C984 1.524 . S
C985 C986 1.397 . S
C985 C990 1.363 . S
C986 H963 0.950 . S
C986 C985 1.397 . S
C986 C987 1.334 . S
C987 H964 0.950 . S
C987 C986 1.334 . S
C987 C988 1.287 . S
C988 C987 1.287 . S
C988 C989 1.524 . S
C988 H1007 0.913 . S
C989 H965 0.950 . S
C989 C988 1.524 . S
C989 C990 1.415 . S
C990 H966 0.950 . S
C990 C985 1.363 . S
C990 C989 1.415 . S
C991 H967 0.951 . S
C991 C992 1.366 . S
C991 C993 1.388 . S
C992 C991 1.366 . S
C992 C996 1.385 . S
C993 H968 0.951 . S
C993 C991 1.388 . S
C993 C994 1.366 . S
C994 C993 1.366 . S
C994 C995 1.414 . S
C994 C997 1.499 . S
C995 H969 0.950 . S
C995 C994 1.414 . S
C995 C996 1.374 . S
C996 H970 0.950 . S
C996 C992 1.385 . S
C996 C995 1.374 . S
C997 C994 1.499 . S
C997 C998 1.373 . S
C997 C999 1.389 . S
C998 H971 0.950 . S
C998 C984 1.377 . S
C998 C997 1.373 . S
C999 C983 1.377 . S
C999 C997 1.389 . S
C999 C1000 1.524 . S
C1000 C999 1.524 . S
C1000 C1001 1.397 . S
C1000 C1005 1.363 . S
C1001 H972 0.950 . S
C1001 C1000 1.397 . S
C1001 C1002 1.334 . S
C1002 H973 0.950 . S
C1002 C1001 1.334 . S
C1002 C1003 1.287 . S
C1003 C1002 1.287 . S
C1003 C1004 1.524 . S
C1003 H1006 0.999 . S
C1004 H974 0.950 . S
C1004 C1003 1.524 . S
C1004 C1005 1.415 . S
C1005 H975 0.950 . S
C1005 C1000 1.363 . S
C1005 C1004 1.415 . S
H1006 C1003 0.999 . S
H1007 C988 0.913 . S
H1008 C1026 0.951 . S
H1009 C1028 0.951 . S
H1010 C1030 0.950 . S
H1011 C1031 0.950 . S
H1012 C1033 0.950 . S
H1013 C1036 0.950 . S
H1014 C1037 0.950 . S
H1015 C1039 0.950 . S
H1016 C1040 0.950 . S
H1017 C1041 0.951 . S
H1018 C1043 0.951 . S
H1019 C1045 0.950 . S
H1020 C1046 0.950 . S
H1021 C1048 0.950 . S
H1022 C1051 0.950 . S
H1023 C1052 0.950 . S
H1024 C1054 0.950 . S
H1025 C1055 0.950 . S
C1026 H1008 0.951 . S
C1026 C1027 1.366 . S
C1026 C1028 1.388 . S
C1027 C1026 1.366 . S
C1027 C1031 1.385 . S
C1028 H1009 0.951 . S
C1028 C1026 1.388 . S
C1028 C1029 1.366 . S
C1029 C1028 1.366 . S
C1029 C1030 1.414 . S
C1029 C1032 1.499 . S
C1030 H1010 0.950 . S
C1030 C1029 1.414 . S
C1030 C1031 1.374 . S
C1031 H1011 0.950 . S
C1031 C1027 1.385 . S
C1031 C1030 1.374 . S
C1032 C1029 1.499 . S
C1032 C1033 1.373 . S
C1032 C1034 1.389 . S
C1033 H1012 0.950 . S
C1033 C1032 1.373 . S
C1033 C1049 1.377 . S
C1034 C1032 1.389 . S
C1034 C1035 1.524 . S
C1034 C1048 1.377 . S
C1035 C1034 1.524 . S
C1035 C1036 1.397 . S
C1035 C1040 1.363 . S
C1036 H1013 0.950 . S
C1036 C1035 1.397 . S
C1036 C1037 1.334 . S
C1037 H1014 0.950 . S
C1037 C1036 1.334 . S
C1037 C1038 1.287 . S
C1038 C1037 1.287 . S
C1038 C1039 1.524 . S
C1038 H1057 0.913 . S
C1039 H1015 0.950 . S
C1039 C1038 1.524 . S
C1039 C1040 1.415 . S
C1040 H1016 0.950 . S
C1040 C1035 1.363 . S
C1040 C1039 1.415 . S
C1041 H1017 0.951 . S
C1041 C1042 1.366 . S
C1041 C1043 1.388 . S
C1042 C1041 1.366 . S
C1042 C1046 1.385 . S
C1043 H1018 0.951 . S
C1043 C1041 1.388 . S
C1043 C1044 1.366 . S
C1044 C1043 1.366 . S
C1044 C1045 1.414 . S
C1044 C1047 1.499 . S
C1045 H1019 0.950 . S
C1045 C1044 1.414 . S
C1045 C1046 1.374 . S
C1046 H1020 0.950 . S
C1046 C1042 1.385 . S
C1046 C1045 1.374 . S
C1047 C1044 1.499 . S
C1047 C1048 1.373 . S
C1047 C1049 1.389 . S
C1048 H1021 0.950 . S
C1048 C1034 1.377 . S
C1048 C1047 1.373 . S
C1049 C1033 1.377 . S
C1049 C1047 1.389 . S
C1049 C1050 1.524 . S
C1050 C1049 1.524 . S
C1050 C1051 1.397 . S
C1050 C1055 1.363 . S
C1051 H1022 0.950 . S
C1051 C1050 1.397 . S
C1051 C1052 1.334 . S
C1052 H1023 0.950 . S
C1052 C1051 1.334 . S
C1052 C1053 1.287 . S
C1053 C1052 1.287 . S
C1053 C1054 1.524 . S
C1053 H1056 0.999 . S
C1054 H1024 0.950 . S
C1054 C1053 1.524 . S
C1054 C1055 1.415 . S
C1055 H1025 0.950 . S
C1055 C1050 1.363 . S
C1055 C1054 1.415 . S
H1056 C1053 0.999 . S
H1057 C1038 0.913 . S
H1058 C1076 0.951 . S
H1059 C1078 0.951 . S
H1060 C1080 0.950 . S
H1061 C1081 0.950 . S
H1062 C1083 0.950 . S
H1063 C1086 0.950 . S
H1064 C1087 0.950 . S
H1065 C1089 0.950 . S
H1066 C1090 0.950 . S
H1067 C1091 0.951 . S
H1068 C1093 0.951 . S
H1069 C1095 0.950 . S
H1070 C1096 0.950 . S
H1071 C1098 0.950 . S
H1072 C1101 0.950 . S
H1073 C1102 0.950 . S
H1074 C1104 0.950 . S
H1075 C1105 0.950 . S
C1076 H1058 0.951 . S
C1076 C1077 1.366 . S
C1076 C1078 1.388 . S
C1077 C1076 1.366 . S
C1077 C1081 1.385 . S
C1078 H1059 0.951 . S
C1078 C1076 1.388 . S
C1078 C1079 1.366 . S
C1079 C1078 1.366 . S
C1079 C1080 1.414 . S
C1079 C1082 1.499 . S
C1080 H1060 0.950 . S
C1080 C1079 1.414 . S
C1080 C1081 1.374 . S
C1081 H1061 0.950 . S
C1081 C1077 1.385 . S
C1081 C1080 1.374 . S
C1082 C1079 1.499 . S
C1082 C1083 1.373 . S
C1082 C1084 1.389 . S
C1083 H1062 0.950 . S
C1083 C1082 1.373 . S
C1083 C1099 1.377 . S
C1084 C1082 1.389 . S
C1084 C1085 1.524 . S
C1084 C1098 1.377 . S
C1085 C1084 1.524 . S
C1085 C1086 1.397 . S
C1085 C1090 1.363 . S
C1086 H1063 0.950 . S
C1086 C1085 1.397 . S
C1086 C1087 1.334 . S
C1087 H1064 0.950 . S
C1087 C1086 1.334 . S
C1087 C1088 1.287 . S
C1088 C1087 1.287 . S
C1088 C1089 1.524 . S
C1088 H1107 0.913 . S
C1089 H1065 0.950 . S
C1089 C1088 1.524 . S
C1089 C1090 1.415 . S
C1090 H1066 0.950 . S
C1090 C1085 1.363 . S
C1090 C1089 1.415 . S
C1091 H1067 0.951 . S
C1091 C1092 1.366 . S
C1091 C1093 1.388 . S
C1092 C1091 1.366 . S
C1092 C1096 1.385 . S
C1093 H1068 0.951 . S
C1093 C1091 1.388 . S
C1093 C1094 1.366 . S
C1094 C1093 1.366 . S
C1094 C1095 1.414 . S
C1094 C1097 1.499 . S
C1095 H1069 0.950 . S
C1095 C1094 1.414 . S
C1095 C1096 1.374 . S
C1096 H1070 0.950 . S
C1096 C1092 1.385 . S
C1096 C1095 1.374 . S
C1097 C1094 1.499 . S
C1097 C1098 1.373 . S
C1097 C1099 1.389 . S
C1098 H1071 0.950 . S
C1098 C1084 1.377 . S
C1098 C1097 1.373 . S
C1099 C1083 1.377 . S
C1099 C1097 1.389 . S
C1099 C1100 1.524 . S
C1100 C1099 1.524 . S
C1100 C1101 1.397 . S
C1100 C1105 1.363 . S
C1101 H1072 0.950 . S
C1101 C1100 1.397 . S
C1101 C1102 1.334 . S
C1102 H1073 0.950 . S
C1102 C1101 1.334 . S
C1102 C1103 1.287 . S
C1103 C1102 1.287 . S
C1103 C1104 1.524 . S
C1103 H1106 0.999 . S
C1104 H1074 0.950 . S
C1104 C1103 1.524 . S
C1104 C1105 1.415 . S
C1105 H1075 0.950 . S
C1105 C1100 1.363 . S
C1105 C1104 1.415 . S
H1106 C1103 0.999 . S
H1107 C1088 0.913 . S
H1108 C1126 0.951 . S
H1109 C1128 0.951 . S
H1110 C1130 0.950 . S
H1111 C1131 0.950 . S
H1112 C1133 0.950 . S
H1113 C1136 0.950 . S
H1114 C1137 0.950 . S
H1115 C1139 0.950 . S
H1116 C1140 0.950 . S
H1117 C1141 0.951 . S
H1118 C1143 0.951 . S
H1119 C1145 0.950 . S
H1120 C1146 0.950 . S
H1121 C1148 0.950 . S
H1122 C1151 0.950 . S
H1123 C1152 0.950 . S
H1124 C1154 0.950 . S
H1125 C1155 0.950 . S
C1126 H1108 0.951 . S
C1126 C1127 1.366 . S
C1126 C1128 1.388 . S
C1127 C1126 1.366 . S
C1127 C1131 1.385 . S
C1128 H1109 0.951 . S
C1128 C1126 1.388 . S
C1128 C1129 1.366 . S
C1129 C1128 1.366 . S
C1129 C1130 1.414 . S
C1129 C1132 1.499 . S
C1130 H1110 0.950 . S
C1130 C1129 1.414 . S
C1130 C1131 1.374 . S
C1131 H1111 0.950 . S
C1131 C1127 1.385 . S
C1131 C1130 1.374 . S
C1132 C1129 1.499 . S
C1132 C1133 1.373 . S
C1132 C1134 1.389 . S
C1133 H1112 0.950 . S
C1133 C1132 1.373 . S
C1133 C1149 1.377 . S
C1134 C1132 1.389 . S
C1134 C1135 1.524 . S
C1134 C1148 1.377 . S
C1135 C1134 1.524 . S
C1135 C1136 1.397 . S
C1135 C1140 1.363 . S
C1136 H1113 0.950 . S
C1136 C1135 1.397 . S
C1136 C1137 1.334 . S
C1137 H1114 0.950 . S
C1137 C1136 1.334 . S
C1137 C1138 1.287 . S
C1138 C1137 1.287 . S
C1138 C1139 1.524 . S
C1138 H1157 0.913 . S
C1139 H1115 0.950 . S
C1139 C1138 1.524 . S
C1139 C1140 1.415 . S
C1140 H1116 0.950 . S
C1140 C1135 1.363 . S
C1140 C1139 1.415 . S
C1141 H1117 0.951 . S
C1141 C1142 1.366 . S
C1141 C1143 1.388 . S
C1142 C1141 1.366 . S
C1142 C1146 1.385 . S
C1143 H1118 0.951 . S
C1143 C1141 1.388 . S
C1143 C1144 1.366 . S
C1144 C1143 1.366 . S
C1144 C1145 1.414 . S
C1144 C1147 1.499 . S
C1145 H1119 0.950 . S
C1145 C1144 1.414 . S
C1145 C1146 1.374 . S
C1146 H1120 0.950 . S
C1146 C1142 1.385 . S
C1146 C1145 1.374 . S
C1147 C1144 1.499 . S
C1147 C1148 1.373 . S
C1147 C1149 1.389 . S
C1148 H1121 0.950 . S
C1148 C1134 1.377 . S
C1148 C1147 1.373 . S
C1149 C1133 1.377 . S
C1149 C1147 1.389 . S
C1149 C1150 1.524 . S
C1150 C1149 1.524 . S
C1150 C1151 1.397 . S
C1150 C1155 1.363 . S
C1151 H1122 0.950 . S
C1151 C1150 1.397 . S
C1151 C1152 1.334 . S
C1152 H1123 0.950 . S
C1152 C1151 1.334 . S
C1152 C1153 1.287 . S
C1153 C1152 1.287 . S
C1153 C1154 1.524 . S
C1153 H1156 0.999 . S
C1154 H1124 0.950 . S
C1154 C1153 1.524 . S
C1154 C1155 1.415 . S
C1155 H1125 0.950 . S
C1155 C1150 1.363 . S
C1155 C1154 1.415 . S
H1156 C1153 0.999 . S
H1157 C1138 0.913 . S
H1158 C1176 0.951 . S
H1159 C1178 0.951 . S
H1160 C1180 0.950 . S
H1161 C1181 0.950 . S
H1162 C1183 0.950 . S
H1163 C1186 0.950 . S
H1164 C1187 0.950 . S
H1165 C1189 0.950 . S
H1166 C1190 0.950 . S
H1167 C1191 0.951 . S
H1168 C1193 0.951 . S
H1169 C1195 0.950 . S
H1170 C1196 0.950 . S
H1171 C1198 0.950 . S
H1172 C1201 0.950 . S
H1173 C1202 0.950 . S
H1174 C1204 0.950 . S
H1175 C1205 0.950 . S
C1176 H1158 0.951 . S
C1176 C1177 1.366 . S
C1176 C1178 1.388 . S
C1177 C1176 1.366 . S
C1177 C1181 1.385 . S
C1178 H1159 0.951 . S
C1178 C1176 1.388 . S
C1178 C1179 1.366 . S
C1179 C1178 1.366 . S
C1179 C1180 1.414 . S
C1179 C1182 1.499 . S
C1180 H1160 0.950 . S
C1180 C1179 1.414 . S
C1180 C1181 1.374 . S
C1181 H1161 0.950 . S
C1181 C1177 1.385 . S
C1181 C1180 1.374 . S
C1182 C1179 1.499 . S
C1182 C1183 1.373 . S
C1182 C1184 1.389 . S
C1183 H1162 0.950 . S
C1183 C1182 1.373 . S
C1183 C1199 1.377 . S
C1184 C1182 1.389 . S
C1184 C1185 1.524 . S
C1184 C1198 1.377 . S
C1185 C1184 1.524 . S
C1185 C1186 1.397 . S
C1185 C1190 1.363 . S
C1186 H1163 0.950 . S
C1186 C1185 1.397 . S
C1186 C1187 1.334 . S
C1187 H1164 0.950 . S
C1187 C1186 1.334 . S
C1187 C1188 1.287 . S
C1188 C1187 1.287 . S
C1188 C1189 1.524 . S
C1188 H1207 0.913 . S
C1189 H1165 0.950 . S
C1189 C1188 1.524 . S
C1189 C1190 1.415 . S
C1190 H1166 0.950 . S
C1190 C1185 1.363 . S
C1190 C1189 1.415 . S
C1191 H1167 0.951 . S
C1191 C1192 1.366 . S
C1191 C1193 1.388 . S
C1192 C1191 1.366 . S
C1192 C1196 1.385 . S
C1193 H1168 0.951 . S
C1193 C1191 1.388 . S
C1193 C1194 1.366 . S
C1194 C1193 1.366 . S
C1194 C1195 1.414 . S
C1194 C1197 1.499 . S
C1195 H1169 0.950 . S
C1195 C1194 1.414 . S
C1195 C1196 1.374 . S
C1196 H1170 0.950 . S
C1196 C1192 1.385 . S
C1196 C1195 1.374 . S
C1197 C1194 1.499 . S
C1197 C1198 1.373 . S
C1197 C1199 1.389 . S
C1198 H1171 0.950 . S
C1198 C1184 1.377 . S
C1198 C1197 1.373 . S
C1199 C1183 1.377 . S
C1199 C1197 1.389 . S
C1199 C1200 1.524 . S
C1200 C1199 1.524 . S
C1200 C1201 1.397 . S
C1200 C1205 1.363 . S
C1201 H1172 0.950 . S
C1201 C1200 1.397 . S
C1201 C1202 1.334 . S
C1202 H1173 0.950 . S
C1202 C1201 1.334 . S
C1202 C1203 1.287 . S
C1203 C1202 1.287 . S
C1203 C1204 1.524 . S
C1203 H1206 0.999 . S
C1204 H1174 0.950 . S
C1204 C1203 1.524 . S
C1204 C1205 1.415 . S
C1205 H1175 0.950 . S
C1205 C1200 1.363 . S
C1205 C1204 1.415 . S
H1206 C1203 0.999 . S
H1207 C1188 0.913 . S
H1208 C1226 0.951 . S
H1209 C1228 0.951 . S
H1210 C1230 0.950 . S
H1211 C1231 0.950 . S
H1212 C1233 0.950 . S
H1213 C1236 0.950 . S
H1214 C1237 0.950 . S
H1215 C1239 0.950 . S
H1216 C1240 0.950 . S
H1217 C1241 0.951 . S
H1218 C1243 0.951 . S
H1219 C1245 0.950 . S
H1220 C1246 0.950 . S
H1221 C1248 0.950 . S
H1222 C1251 0.950 . S
H1223 C1252 0.950 . S
H1224 C1254 0.950 . S
H1225 C1255 0.950 . S
C1226 H1208 0.951 . S
C1226 C1227 1.366 . S
C1226 C1228 1.388 . S
C1227 C1226 1.366 . S
C1227 C1231 1.385 . S
C1228 H1209 0.951 . S
C1228 C1226 1.388 . S
C1228 C1229 1.366 . S
C1229 C1228 1.366 . S
C1229 C1230 1.414 . S
C1229 C1232 1.499 . S
C1230 H1210 0.950 . S
C1230 C1229 1.414 . S
C1230 C1231 1.374 . S
C1231 H1211 0.950 . S
C1231 C1227 1.385 . S
C1231 C1230 1.374 . S
C1232 C1229 1.499 . S
C1232 C1233 1.373 . S
C1232 C1234 1.389 . S
C1233 H1212 0.950 . S
C1233 C1232 1.373 . S
C1233 C1249 1.377 . S
C1234 C1232 1.389 . S
C1234 C1235 1.524 . S
C1234 C1248 1.377 . S
C1235 C1234 1.524 . S
C1235 C1236 1.397 . S
C1235 C1240 1.363 . S
C1236 H1213 0.950 . S
C1236 C1235 1.397 . S
C1236 C1237 1.334 . S
C1237 H1214 0.950 . S
C1237 C1236 1.334 . S
C1237 C1238 1.287 . S
C1238 C1237 1.287 . S
C1238 C1239 1.524 . S
C1238 H1257 0.913 . S
C1239 H1215 0.950 . S
C1239 C1238 1.524 . S
C1239 C1240 1.415 . S
C1240 H1216 0.950 . S
C1240 C1235 1.363 . S
C1240 C1239 1.415 . S
C1241 H1217 0.951 . S
C1241 C1242 1.366 . S
C1241 C1243 1.388 . S
C1242 C1241 1.366 . S
C1242 C1246 1.385 . S
C1243 H1218 0.951 . S
C1243 C1241 1.388 . S
C1243 C1244 1.366 . S
C1244 C1243 1.366 . S
C1244 C1245 1.414 . S
C1244 C1247 1.499 . S
C1245 H1219 0.950 . S
C1245 C1244 1.414 . S
C1245 C1246 1.374 . S
C1246 H1220 0.950 . S
C1246 C1242 1.385 . S
C1246 C1245 1.374 . S
C1247 C1244 1.499 . S
C1247 C1248 1.373 . S
C1247 C1249 1.389 . S
C1248 H1221 0.950 . S
C1248 C1234 1.377 . S
C1248 C1247 1.373 . S
C1249 C1233 1.377 . S
C1249 C1247 1.389 . S
C1249 C1250 1.524 . S
C1250 C1249 1.524 . S
C1250 C1251 1.397 . S
C1250 C1255 1.363 . S
C1251 H1222 0.950 . S
C1251 C1250 1.397 . S
C1251 C1252 1.334 . S
C1252 H1223 0.950 . S
C1252 C1251 1.334 . S
C1252 C1253 1.287 . S
C1253 C1252 1.287 . S
C1253 C1254 1.524 . S
C1253 H1256 0.999 . S
C1254 H1224 0.950 . S
C1254 C1253 1.524 . S
C1254 C1255 1.415 . S
C1255 H1225 0.950 . S
C1255 C1250 1.363 . S
C1255 C1254 1.415 . S
H1256 C1253 0.999 . S
H1257 C1238 0.913 . S
H1258 C1276 0.951 . S
H1259 C1278 0.951 . S
H1260 C1280 0.950 . S
H1261 C1281 0.950 . S
H1262 C1283 0.950 . S
H1263 C1286 0.950 . S
H1264 C1287 0.950 . S
H1265 C1289 0.950 . S
H1266 C1290 0.950 . S
H1267 C1291 0.951 . S
H1268 C1293 0.951 . S
H1269 C1295 0.950 . S
H1270 C1296 0.950 . S
H1271 C1298 0.950 . S
H1272 C1301 0.950 . S
H1273 C1302 0.950 . S
H1274 C1304 0.950 . S
H1275 C1305 0.950 . S
C1276 H1258 0.951 . S
C1276 C1277 1.366 . S
C1276 C1278 1.388 . S
C1277 C1276 1.366 . S
C1277 C1281 1.385 . S
C1278 H1259 0.951 . S
C1278 C1276 1.388 . S
C1278 C1279 1.366 . S
C1279 C1278 1.366 . S
C1279 C1280 1.414 . S
C1279 C1282 1.499 . S
C1280 H1260 0.950 . S
C1280 C1279 1.414 . S
C1280 C1281 1.374 . S
C1281 H1261 0.950 . S
C1281 C1277 1.385 . S
C1281 C1280 1.374 . S
C1282 C1279 1.499 . S
C1282 C1283 1.373 . S
C1282 C1284 1.389 . S
C1283 H1262 0.950 . S
C1283 C1282 1.373 . S
C1283 C1299 1.377 . S
C1284 C1282 1.389 . S
C1284 C1285 1.524 . S
C1284 C1298 1.377 . S
C1285 C1284 1.524 . S
C1285 C1286 1.397 . S
C1285 C1290 1.363 . S
C1286 H1263 0.950 . S
C1286 C1285 1.397 . S
C1286 C1287 1.334 . S
C1287 H1264 0.950 . S
C1287 C1286 1.334 . S
C1287 C1288 1.287 . S
C1288 C1287 1.287 . S
C1288 C1289 1.524 . S
C1288 H1307 0.913 . S
C1289 H1265 0.950 . S
C1289 C1288 1.524 . S
C1289 C1290 1.415 . S
C1290 H1266 0.950 . S
C1290 C1285 1.363 . S
C1290 C1289 1.415 . S
C1291 H1267 0.951 . S
C1291 C1292 1.366 . S
C1291 C1293 1.388 . S
C1292 C1291 1.366 . S
C1292 C1296 1.385 . S
C1293 H1268 0.951 . S
C1293 C1291 1.388 . S
C1293 C1294 1.366 . S
C1294 C1293 1.366 . S
C1294 C1295 1.414 . S
C1294 C1297 1.499 . S
C1295 H1269 0.950 . S
C1295 C1294 1.414 . S
C1295 C1296 1.374 . S
C1296 H1270 0.950 . S
C1296 C1292 1.385 . S
C1296 C1295 1.374 . S
C1297 C1294 1.499 . S
C1297 C1298 1.373 . S
C1297 C1299 1.389 . S
C1298 H1271 0.950 . S
C1298 C1284 1.377 . S
C1298 C1297 1.373 . S
C1299 C1283 1.377 . S
C1299 C1297 1.389 . S
C1299 C1300 1.524 . S
C1300 C1299 1.524 . S
C1300 C1301 1.397 . S
C1300 C1305 1.363 . S
C1301 H1272 0.950 . S
C1301 C1300 1.397 . S
C1301 C1302 1.334 . S
C1302 H1273 0.950 . S
C1302 C1301 1.334 . S
C1302 C1303 1.287 . S
C1303 C1302 1.287 . S
C1303 C1304 1.524 . S
C1303 H1306 0.999 . S
C1304 H1274 0.950 . S
C1304 C1303 1.524 . S
C1304 C1305 1.415 . S
C1305 H1275 0.950 . S
C1305 C1300 1.363 . S
C1305 C1304 1.415 . S
H1306 C1303 0.999 . S
H1307 C1288 0.913 . S
H1308 C1326 0.951 . S
H1309 C1328 0.951 . S
H1310 C1330 0.950 . S
H1311 C1331 0.950 . S
H1312 C1333 0.950 . S
H1313 C1336 0.950 . S
H1314 C1337 0.950 . S
H1315 C1339 0.950 . S
H1316 C1340 0.950 . S
H1317 C1341 0.951 . S
H1318 C1343 0.951 . S
H1319 C1345 0.950 . S
H1320 C1346 0.950 . S
H1321 C1348 0.950 . S
H1322 C1351 0.950 . S
H1323 C1352 0.950 . S
H1324 C1354 0.950 . S
H1325 C1355 0.950 . S
C1326 H1308 0.951 . S
C1326 C1327 1.366 . S
C1326 C1328 1.388 . S
C1327 C1326 1.366 . S
C1327 C1331 1.385 . S
C1328 H1309 0.951 . S
C1328 C1326 1.388 . S
C1328 C1329 1.366 . S
C1329 C1328 1.366 . S
C1329 C1330 1.414 . S
C1329 C1332 1.499 . S
C1330 H1310 0.950 . S
C1330 C1329 1.414 . S
C1330 C1331 1.374 . S
C1331 H1311 0.950 . S
C1331 C1327 1.385 . S
C1331 C1330 1.374 . S
C1332 C1329 1.499 . S
C1332 C1333 1.373 . S
C1332 C1334 1.389 . S
C1333 H1312 0.950 . S
C1333 C1332 1.373 . S
C1333 C1349 1.377 . S
C1334 C1332 1.389 . S
C1334 C1335 1.524 . S
C1334 C1348 1.377 . S
C1335 C1334 1.524 . S
C1335 C1336 1.397 . S
C1335 C1340 1.363 . S
C1336 H1313 0.950 . S
C1336 C1335 1.397 . S
C1336 C1337 1.334 . S
C1337 H1314 0.950 . S
C1337 C1336 1.334 . S
C1337 C1338 1.287 . S
C1338 C1337 1.287 . S
C1338 C1339 1.524 . S
C1338 H1357 0.913 . S
C1339 H1315 0.950 . S
C1339 C1338 1.524 . S
C1339 C1340 1.415 . S
C1340 H1316 0.950 . S
C1340 C1335 1.363 . S
C1340 C1339 1.415 . S
C1341 H1317 0.951 . S
C1341 C1342 1.366 . S
C1341 C1343 1.388 . S
C1342 C1341 1.366 . S
C1342 C1346 1.385 . S
C1343 H1318 0.951 . S
C1343 C1341 1.388 . S
C1343 C1344 1.366 . S
C1344 C1343 1.366 . S
C1344 C1345 1.414 . S
C1344 C1347 1.499 . S
C1345 H1319 0.950 . S
C1345 C1344 1.414 . S
C1345 C1346 1.374 . S
C1346 H1320 0.950 . S
C1346 C1342 1.385 . S
C1346 C1345 1.374 . S
C1347 C1344 1.499 . S
C1347 C1348 1.373 . S
C1347 C1349 1.389 . S
C1348 H1321 0.950 . S
C1348 C1334 1.377 . S
C1348 C1347 1.373 . S
C1349 C1333 1.377 . S
C1349 C1347 1.389 . S
C1349 C1350 1.524 . S
C1350 C1349 1.524 . S
C1350 C1351 1.397 . S
C1350 C1355 1.363 . S
C1351 H1322 0.950 . S
C1351 C1350 1.397 . S
C1351 C1352 1.334 . S
C1352 H1323 0.950 . S
C1352 C1351 1.334 . S
C1352 C1353 1.287 . S
C1353 C1352 1.287 . S
C1353 C1354 1.524 . S
C1353 H1356 0.999 . S
C1354 H1324 0.950 . S
C1354 C1353 1.524 . S
C1354 C1355 1.415 . S
C1355 H1325 0.950 . S
C1355 C1350 1.363 . S
C1355 C1354 1.415 . S
H1356 C1353 0.999 . S
H1357 C1338 0.913 . S
H1358 C1376 0.951 . S
H1359 C1378 0.951 . S
H1360 C1380 0.950 . S
H1361 C1381 0.950 . S
H1362 C1383 0.950 . S
H1363 C1386 0.950 . S
H1364 C1387 0.950 . S
H1365 C1389 0.950 . S
H1366 C1390 0.950 . S
H1367 C1391 0.951 . S
H1368 C1393 0.951 . S
H1369 C1395 0.950 . S
H1370 C1396 0.950 . S
H1371 C1398 0.950 . S
H1372 C1401 0.950 . S
H1373 C1402 0.950 . S
H1374 C1404 0.950 . S
H1375 C1405 0.950 . S
C1376 H1358 0.951 . S
C1376 C1377 1.366 . S
C1376 C1378 1.388 . S
C1377 C1376 1.366 . S
C1377 C1381 1.385 . S
C1378 H1359 0.951 . S
C1378 C1376 1.388 . S
C1378 C1379 1.366 . S
C1379 C1378 1.366 . S
C1379 C1380 1.414 . S
C1379 C1382 1.499 . S
C1380 H1360 0.950 . S
C1380 C1379 1.414 . S
C1380 C1381 1.374 . S
C1381 H1361 0.950 . S
C1381 C1377 1.385 . S
C1381 C1380 1.374 . S
C1382 C1379 1.499 . S
C1382 C1383 1.373 . S
C1382 C1384 1.389 . S
C1383 H1362 0.950 . S
C1383 C1382 1.373 . S
C1383 C1399 1.377 . S
C1384 C1382 1.389 . S
C1384 C1385 1.524 . S
C1384 C1398 1.377 . S
C1385 C1384 1.524 . S
C1385 C1386 1.397 . S
C1385 C1390 1.363 . S
C1386 H1363 0.950 . S
C1386 C1385 1.397 . S
C1386 C1387 1.334 . S
C1387 H1364 0.950 . S
C1387 C1386 1.334 . S
C1387 C1388 1.287 . S
C1388 C1387 1.287 . S
C1388 C1389 1.524 . S
C1388 H1407 0.913 . S
C1389 H1365 0.950 . S
C1389 C1388 1.524 . S
C1389 C1390 1.415 . S
C1390 H1366 0.950 . S
C1390 C1385 1.363 . S
C1390 C1389 1.415 . S
C1391 H1367 0.951 . S
C1391 C1392 1.366 . S
C1391 C1393 1.388 . S
C1392 C1391 1.366 . S
C1392 C1396 1.385 . S
C1393 H1368 0.951 . S
C1393 C1391 1.388 . S
C1393 C1394 1.366 . S
C1394 C1393 1.366 . S
C1394 C1395 1.414 . S
C1394 C1397 1.499 . S
C1395 H1369 0.950 . S
C1395 C1394 1.414 . S
C1395 C1396 1.374 . S
C1396 H1370 0.950 . S
C1396 C1392 1.385 . S
C1396 C1395 1.374 . S
C1397 C1394 1.499 . S
C1397 C1398 1.373 . S
C1397 C1399 1.389 . S
C1398 H1371 0.950 . S
C1398 C1384 1.377 . S
C1398 C1397 1.373 . S
C1399 C1383 1.377 . S
C1399 C1397 1.389 . S
C1399 C1400 1.524 . S
C1400 C1399 1.524 . S
C1400 C1401 1.397 . S
C1400 C1405 1.363 . S
C1401 H1372 0.950 . S
C1401 C1400 1.397 . S
C1401 C1402 1.334 . S
C1402 H1373 0.950 . S
C1402 C1401 1.334 . S
C1402 C1403 1.287 . S
C1403 C1402 1.287 . S
C1403 C1404 1.524 . S
C1403 H1406 0.999 . S
C1404 H1374 0.950 . S
C1404 C1403 1.524 . S
C1404 C1405 1.415 . S
C1405 H1375 0.950 . S
C1405 C1400 1.363 . S
C1405 C1404 1.415 . S
H1406 C1403 0.999 . S
H1407 C1388 0.913 . S
H1408 C1426 0.951 . S
H1409 C1428 0.951 . S
H1410 C1430 0.950 . S
H1411 C1431 0.950 . S
H1412 C1433 0.950 . S
H1413 C1436 0.950 . S
H1414 C1437 0.950 . S
H1415 C1439 0.950 . S
H1416 C1440 0.950 . S
H1417 C1441 0.951 . S
H1418 C1443 0.951 . S
H1419 C1445 0.950 . S
H1420 C1446 0.950 . S
H1421 C1448 0.950 . S
H1422 C1451 0.950 . S
H1423 C1452 0.950 . S
H1424 C1454 0.950 . S
H1425 C1455 0.950 . S
C1426 H1408 0.951 . S
C1426 C1427 1.366 1_655 S
C1426 C1428 1.388 . S
C1427 C1426 1.366 1_455 S
C1427 C1431 1.385 . S
C1428 H1409 0.951 . S
C1428 C1426 1.388 . S
C1428 C1429 1.366 1_655 S
C1429 C1428 1.366 1_455 S
C1429 C1430 1.414 . S
C1429 C1432 1.499 . S
C1430 H1410 0.950 . S
C1430 C1429 1.414 . S
C1430 C1431 1.374 . S
C1431 H1411 0.950 . S
C1431 C1427 1.385 . S
C1431 C1430 1.374 . S
C1432 C1429 1.499 . S
C1432 C1433 1.373 . S
C1432 C1434 1.389 1_455 S
C1433 H1412 0.950 . S
C1433 C1432 1.373 . S
C1433 C1449 1.377 . S
C1434 C1432 1.389 1_655 S
C1434 C1435 1.524 . S
C1434 C1448 1.377 . S
C1435 C1434 1.524 . S
C1435 C1436 1.397 1_655 S
C1435 C1440 1.363 . S
C1436 H1413 0.950 . S
C1436 C1435 1.397 1_455 S
C1436 C1437 1.334 . S
C1437 H1414 0.950 . S
C1437 C1436 1.334 . S
C1437 C1438 1.287 1_455 S
C1438 C1437 1.287 1_655 S
C1438 C1439 1.524 . S
C1438 H1457 0.913 . S
C1439 H1415 0.950 . S
C1439 C1438 1.524 . S
C1439 C1440 1.415 . S
C1440 H1416 0.950 . S
C1440 C1435 1.363 . S
C1440 C1439 1.415 . S
C1441 H1417 0.951 . S
C1441 C1442 1.366 1_455 S
C1441 C1443 1.388 . S
C1442 C1441 1.366 1_655 S
C1442 C1446 1.385 . S
C1443 H1418 0.951 . S
C1443 C1441 1.388 . S
C1443 C1444 1.366 1_455 S
C1444 C1443 1.366 1_655 S
C1444 C1445 1.414 . S
C1444 C1447 1.499 . S
C1445 H1419 0.950 . S
C1445 C1444 1.414 . S
C1445 C1446 1.374 . S
C1446 H1420 0.950 . S
C1446 C1442 1.385 . S
C1446 C1445 1.374 . S
C1447 C1444 1.499 . S
C1447 C1448 1.373 . S
C1447 C1449 1.389 1_655 S
C1448 H1421 0.950 . S
C1448 C1434 1.377 . S
C1448 C1447 1.373 . S
C1449 C1433 1.377 . S
C1449 C1447 1.389 1_455 S
C1449 C1450 1.524 . S
C1450 C1449 1.524 . S
C1450 C1451 1.397 1_455 S
C1450 C1455 1.363 . S
C1451 H1422 0.950 . S
C1451 C1450 1.397 1_655 S
C1451 C1452 1.334 . S
C1452 H1423 0.950 . S
C1452 C1451 1.334 . S
C1452 C1453 1.287 1_655 S
C1453 C1452 1.287 1_455 S
C1453 C1454 1.524 . S
C1453 H1456 0.999 . S
C1454 H1424 0.950 . S
C1454 C1453 1.524 . S
C1454 C1455 1.415 . S
C1455 H1425 0.950 . S
C1455 C1450 1.363 . S
C1455 C1454 1.415 . S
H1456 C1453 0.999 . S
H1457 C1438 0.913 . S
H1458 C1476 0.951 . S
H1459 C1478 0.951 . S
H1460 C1480 0.950 . S
H1461 C1481 0.950 . S
H1462 C1483 0.950 . S
H1463 C1486 0.950 . S
H1464 C1487 0.950 . S
H1465 C1489 0.950 . S
H1466 C1490 0.950 . S
H1467 C1491 0.951 . S
H1468 C1493 0.951 . S
H1469 C1495 0.950 . S
H1470 C1496 0.950 . S
H1471 C1498 0.950 . S
H1472 C1501 0.950 . S
H1473 C1502 0.950 . S
H1474 C1504 0.950 . S
H1475 C1505 0.950 . S
C1476 H1458 0.951 . S
C1476 C1477 1.366 . S
C1476 C1478 1.388 . S
C1477 C1476 1.366 . S
C1477 C1481 1.385 . S
C1478 H1459 0.951 . S
C1478 C1476 1.388 . S
C1478 C1479 1.366 . S
C1479 C1478 1.366 . S
C1479 C1480 1.414 . S
C1479 C1482 1.499 . S
C1480 H1460 0.950 . S
C1480 C1479 1.414 . S
C1480 C1481 1.374 . S
C1481 H1461 0.950 . S
C1481 C1477 1.385 . S
C1481 C1480 1.374 . S
C1482 C1479 1.499 . S
C1482 C1483 1.373 1_565 S
C1482 C1484 1.389 . S
C1483 H1462 0.950 . S
C1483 C1482 1.373 1_545 S
C1483 C1499 1.377 . S
C1484 C1482 1.389 . S
C1484 C1485 1.524 . S
C1484 C1498 1.377 . S
C1485 C1484 1.524 . S
C1485 C1486 1.397 . S
C1485 C1490 1.363 . S
C1486 H1463 0.950 . S
C1486 C1485 1.397 . S
C1486 C1487 1.334 . S
C1487 H1464 0.950 . S
C1487 C1486 1.334 . S
C1487 C1488 1.287 . S
C1488 C1487 1.287 . S
C1488 C1489 1.524 . S
C1488 H1507 0.913 . S
C1489 H1465 0.950 . S
C1489 C1488 1.524 . S
C1489 C1490 1.415 . S
C1490 H1466 0.950 . S
C1490 C1485 1.363 . S
C1490 C1489 1.415 . S
C1491 H1467 0.951 . S
C1491 C1492 1.366 . S
C1491 C1493 1.388 . S
C1492 C1491 1.366 . S
C1492 C1496 1.385 . S
C1493 H1468 0.951 . S
C1493 C1491 1.388 . S
C1493 C1494 1.366 . S
C1494 C1493 1.366 . S
C1494 C1495 1.414 . S
C1494 C1497 1.499 . S
C1495 H1469 0.950 . S
C1495 C1494 1.414 . S
C1495 C1496 1.374 . S
C1496 H1470 0.950 . S
C1496 C1492 1.385 . S
C1496 C1495 1.374 . S
C1497 C1494 1.499 . S
C1497 C1498 1.373 1_545 S
C1497 C1499 1.389 . S
C1498 H1471 0.950 . S
C1498 C1484 1.377 . S
C1498 C1497 1.373 1_565 S
C1499 C1483 1.377 . S
C1499 C1497 1.389 . S
C1499 C1500 1.524 . S
C1500 C1499 1.524 . S
C1500 C1501 1.397 . S
C1500 C1505 1.363 . S
C1501 H1472 0.950 . S
C1501 C1500 1.397 . S
C1501 C1502 1.334 . S
C1502 H1473 0.950 . S
C1502 C1501 1.334 . S
C1502 C1503 1.287 . S
C1503 C1502 1.287 . S
C1503 C1504 1.524 . S
C1503 H1506 0.999 . S
C1504 H1474 0.950 . S
C1504 C1503 1.524 . S
C1504 C1505 1.415 . S
C1505 H1475 0.950 . S
C1505 C1500 1.363 . S
C1505 C1504 1.415 . S
H1506 C1503 0.999 . S
H1507 C1488 0.913 . S
H1508 C1526 0.951 . S
H1509 C1528 0.951 . S
H1510 C1530 0.950 . S
H1511 C1531 0.950 . S
H1512 C1533 0.950 . S
H1513 C1536 0.950 . S
H1514 C1537 0.950 . S
H1515 C1539 0.950 . S
H1516 C1540 0.950 . S
H1517 C1541 0.951 . S
H1518 C1543 0.951 . S
H1519 C1545 0.950 . S
H1520 C1546 0.950 . S
H1521 C1548 0.950 . S
H1522 C1551 0.950 . S
H1523 C1552 0.950 . S
H1524 C1554 0.950 . S
H1525 C1555 0.950 . S
C1526 H1508 0.951 . S
C1526 C1527 1.366 1_655 S
C1526 C1528 1.388 . S
C1527 C1526 1.366 1_455 S
C1527 C1531 1.385 . S
C1528 H1509 0.951 . S
C1528 C1526 1.388 . S
C1528 C1529 1.366 1_655 S
C1529 C1528 1.366 1_455 S
C1529 C1530 1.414 . S
C1529 C1532 1.499 . S
C1530 H1510 0.950 . S
C1530 C1529 1.414 . S
C1530 C1531 1.374 . S
C1531 H1511 0.950 . S
C1531 C1527 1.385 . S
C1531 C1530 1.374 . S
C1532 C1529 1.499 . S
C1532 C1533 1.373 . S
C1532 C1534 1.399 . S
C1533 H1512 0.950 . S
C1533 C1532 1.373 . S
C1533 C1549 1.366 1_455 S
C1534 C1532 1.399 . S
C1534 C1535 1.530 . S
C1534 C1548 1.366 1_455 S
C1535 C1534 1.530 . S
C1535 C1536 1.397 . S
C1535 C1540 1.363 1_455 S
C1536 H1513 0.950 . S
C1536 C1535 1.397 . S
C1536 C1537 1.334 . S
C1537 H1514 0.950 . S
C1537 C1536 1.334 . S
C1537 C1538 1.287 . S
C1538 C1537 1.287 . S
C1538 C1539 1.524 1_455 S
C1538 H1557 0.913 . S
C1539 H1515 0.950 . S
C1539 C1538 1.524 1_655 S
C1539 C1540 1.415 . S
C1540 H1516 0.950 . S
C1540 C1535 1.363 1_655 S
C1540 C1539 1.415 . S
C1541 H1517 0.951 . S
C1541 C1542 1.366 1_455 S
C1541 C1543 1.388 . S
C1542 C1541 1.366 1_655 S
C1542 C1546 1.385 . S
C1543 H1518 0.951 . S
C1543 C1541 1.388 . S
C1543 C1544 1.366 1_455 S
C1544 C1543 1.366 1_655 S
C1544 C1545 1.414 . S
C1544 C1547 1.499 . S
C1545 H1519 0.950 . S
C1545 C1544 1.414 . S
C1545 C1546 1.374 . S
C1546 H1520 0.950 . S
C1546 C1542 1.385 . S
C1546 C1545 1.374 . S
C1547 C1544 1.499 . S
C1547 C1548 1.373 . S
C1547 C1549 1.399 . S
C1548 H1521 0.950 . S
C1548 C1534 1.366 1_655 S
C1548 C1547 1.373 . S
C1549 C1533 1.366 1_655 S
C1549 C1547 1.399 . S
C1549 C1550 1.530 . S
C1550 C1549 1.530 . S
C1550 C1551 1.397 . S
C1550 C1555 1.363 1_655 S
C1551 H1522 0.950 . S
C1551 C1550 1.397 . S
C1551 C1552 1.334 . S
C1552 H1523 0.950 . S
C1552 C1551 1.334 . S
C1552 C1553 1.287 . S
C1553 C1552 1.287 . S
C1553 C1554 1.524 1_655 S
C1553 H1556 0.999 . S
C1554 H1524 0.950 . S
C1554 C1553 1.524 1_455 S
C1554 C1555 1.415 . S
C1555 H1525 0.950 . S
C1555 C1550 1.363 1_455 S
C1555 C1554 1.415 . S
H1556 C1553 0.999 . S
H1557 C1538 0.913 . S
H1558 C1576 0.951 1_565 S
H1559 C1578 0.957 . S
H1560 C1580 0.950 . S
H1561 C1581 0.950 . S
H1562 C1583 0.950 . S
H1563 C1586 0.950 . S
H1564 C1587 0.950 . S
H1565 C1589 0.950 . S
H1566 C1590 0.950 . S
H1567 C1591 0.951 1_545 S
H1568 C1593 0.957 . S
H1569 C1595 0.950 . S
H1570 C1596 0.950 . S
H1571 C1598 0.950 . S
H1572 C1601 0.950 . S
H1573 C1602 0.950 . S
H1574 C1604 0.950 . S
H1575 C1605 0.950 . S
C1576 H1558 0.951 1_545 S
C1576 C1577 1.366 . S
C1576 C1578 1.385 1_545 S
C1577 C1576 1.366 . S
C1577 C1581 1.385 . S
C1578 H1559 0.957 . S
C1578 C1576 1.385 1_565 S
C1578 C1579 1.362 1_565 S
C1579 C1578 1.362 1_545 S
C1579 C1580 1.414 . S
C1579 C1582 1.499 . S
C1580 H1560 0.950 . S
C1580 C1579 1.414 . S
C1580 C1581 1.374 . S
C1581 H1561 0.950 . S
C1581 C1577 1.385 . S
C1581 C1580 1.374 . S
C1582 C1579 1.499 . S
C1582 C1583 1.373 . S
C1582 C1584 1.389 1_545 S
C1583 H1562 0.950 . S
C1583 C1582 1.373 . S
C1583 C1599 1.377 . S
C1584 C1582 1.389 1_565 S
C1584 C1585 1.524 . S
C1584 C1598 1.377 . S
C1585 C1584 1.524 . S
C1585 C1586 1.397 . S
C1585 C1590 1.363 . S
C1586 H1563 0.950 . S
C1586 C1585 1.397 . S
C1586 C1587 1.334 . S
C1587 H1564 0.950 . S
C1587 C1586 1.334 . S
C1587 C1588 1.287 . S
C1588 C1587 1.287 . S
C1588 C1589 1.524 . S
C1588 H1607 0.913 . S
C1589 H1565 0.950 . S
C1589 C1588 1.524 . S
C1589 C1590 1.415 . S
C1590 H1566 0.950 . S
C1590 C1585 1.363 . S
C1590 C1589 1.415 . S
C1591 H1567 0.951 1_565 S
C1591 C1592 1.366 . S
C1591 C1593 1.385 1_565 S
C1592 C1591 1.366 . S
C1592 C1596 1.385 . S
C1593 H1568 0.957 . S
C1593 C1591 1.385 1_545 S
C1593 C1594 1.362 1_545 S
C1594 C1593 1.362 1_565 S
C1594 C1595 1.414 . S
C1594 C1597 1.499 . S
C1595 H1569 0.950 . S
C1595 C1594 1.414 . S
C1595 C1596 1.374 . S
C1596 H1570 0.950 . S
C1596 C1592 1.385 . S
C1596 C1595 1.374 . S
C1597 C1594 1.499 . S
C1597 C1598 1.373 . S
C1597 C1599 1.389 1_565 S
C1598 H1571 0.950 . S
C1598 C1584 1.377 . S
C1598 C1597 1.373 . S
C1599 C1583 1.377 . S
C1599 C1597 1.389 1_545 S
C1599 C1600 1.524 . S
C1600 C1599 1.524 . S
C1600 C1601 1.397 . S
C1600 C1605 1.363 . S
C1601 H1572 0.950 . S
C1601 C1600 1.397 . S
C1601 C1602 1.334 . S
C1602 H1573 0.950 . S
C1602 C1601 1.334 . S
C1602 C1603 1.287 . S
C1603 C1602 1.287 . S
C1603 C1604 1.524 . S
C1603 H1606 0.999 . S
C1604 H1574 0.950 . S
C1604 C1603 1.524 . S
C1604 C1605 1.415 . S
C1605 H1575 0.950 . S
C1605 C1600 1.363 . S
C1605 C1604 1.415 . S
H1606 C1603 0.999 . S
H1607 C1588 0.913 . S
H1608 C1626 0.951 . S
H1609 C1628 0.951 . S
H1610 C1630 0.950 . S
H1611 C1631 0.950 . S
H1612 C1633 0.950 . S
H1613 C1636 0.950 . S
H1614 C1637 0.950 . S
H1615 C1639 0.950 . S
H1616 C1640 0.950 1_554 S
H1617 C1641 0.951 . S
H1618 C1643 0.951 . S
H1619 C1645 0.950 . S
H1620 C1646 0.950 . S
H1621 C1648 0.950 . S
H1622 C1651 0.950 . S
H1623 C1652 0.950 . S
H1624 C1654 0.950 . S
H1625 C1655 0.950 1_556 S
C1626 H1608 0.951 . S
C1626 C1627 1.366 . S
C1626 C1628 1.388 . S
C1627 C1626 1.366 . S
C1627 C1631 1.385 . S
C1628 H1609 0.951 . S
C1628 C1626 1.388 . S
C1628 C1629 1.366 . S
C1629 C1628 1.366 . S
C1629 C1630 1.414 . S
C1629 C1632 1.499 . S
C1630 H1610 0.950 . S
C1630 C1629 1.414 . S
C1630 C1631 1.374 . S
C1631 H1611 0.950 . S
C1631 C1627 1.385 . S
C1631 C1630 1.374 . S
C1632 C1629 1.499 . S
C1632 C1633 1.373 . S
C1632 C1634 1.389 . S
C1633 H1612 0.950 . S
C1633 C1632 1.373 . S
C1633 C1649 1.377 1_556 S
C1634 C1632 1.389 . S
C1634 C1635 1.524 . S
C1634 C1648 1.377 1_556 S
C1635 C1634 1.524 . S
C1635 C1636 1.397 . S
C1635 C1640 1.363 . S
C1636 H1613 0.950 . S
C1636 C1635 1.397 . S
C1636 C1637 1.334 . S
C1637 H1614 0.950 . S
C1637 C1636 1.334 . S
C1637 C1638 1.287 . S
C1638 C1637 1.287 . S
C1638 C1639 1.524 . S
C1638 H1657 0.913 . S
C1639 H1615 0.950 . S
C1639 C1638 1.524 . S
C1639 C1640 1.415 . S
C1640 H1616 0.950 1_556 S
C1640 C1635 1.363 . S
C1640 C1639 1.415 . S
C1641 H1617 0.951 . S
C1641 C1642 1.366 . S
C1641 C1643 1.388 . S
C1642 C1641 1.366 . S
C1642 C1646 1.385 . S
C1643 H1618 0.951 . S
C1643 C1641 1.388 . S
C1643 C1644 1.366 . S
C1644 C1643 1.366 . S
C1644 C1645 1.414 . S
C1644 C1647 1.499 . S
C1645 H1619 0.950 . S
C1645 C1644 1.414 . S
C1645 C1646 1.374 . S
C1646 H1620 0.950 . S
C1646 C1642 1.385 . S
C1646 C1645 1.374 . S
C1647 C1644 1.499 . S
C1647 C1648 1.373 . S
C1647 C1649 1.389 . S
C1648 H1621 0.950 . S
C1648 C1634 1.377 1_554 S
C1648 C1647 1.373 . S
C1649 C1633 1.377 1_554 S
C1649 C1647 1.389 . S
C1649 C1650 1.524 . S
C1650 C1649 1.524 . S
C1650 C1651 1.397 . S
C1650 C1655 1.363 . S
C1651 H1622 0.950 . S
C1651 C1650 1.397 . S
C1651 C1652 1.334 . S
C1652 H1623 0.950 . S
C1652 C1651 1.334 . S
C1652 C1653 1.287 . S
C1653 C1652 1.287 . S
C1653 C1654 1.524 . S
C1653 H1656 0.999 . S
C1654 H1624 0.950 . S
C1654 C1653 1.524 . S
C1654 C1655 1.415 . S
C1655 H1625 0.950 1_554 S
C1655 C1650 1.363 . S
C1655 C1654 1.415 . S
H1656 C1653 0.999 . S
H1657 C1638 0.913 . S
H1658 C1676 0.951 . S
H1659 C1678 0.951 . S
H1660 C1680 0.950 . S
H1661 C1681 0.950 . S
H1662 C1683 0.950 . S
H1663 C1686 0.950 . S
H1664 C1687 0.950 . S
H1665 C1689 0.950 . S
H1666 C1690 0.948 . S
H1667 C1691 0.951 . S
H1668 C1693 0.951 . S
H1669 C1695 0.950 . S
H1670 C1696 0.950 . S
H1671 C1698 0.950 . S
H1672 C1701 0.950 . S
H1673 C1702 0.950 . S
H1674 C1704 0.950 . S
H1675 C1705 0.948 . S
C1676 H1658 0.951 . S
C1676 C1677 1.366 . S
C1676 C1678 1.388 . S
C1677 C1676 1.366 . S
C1677 C1681 1.385 . S
C1678 H1659 0.951 . S
C1678 C1676 1.388 . S
C1678 C1679 1.366 . S
C1679 C1678 1.366 . S
C1679 C1680 1.414 . S
C1679 C1682 1.499 . S
C1680 H1660 0.950 . S
C1680 C1679 1.414 . S
C1680 C1681 1.374 . S
C1681 H1661 0.950 . S
C1681 C1677 1.385 . S
C1681 C1680 1.374 . S
C1682 C1679 1.499 . S
C1682 C1683 1.373 . S
C1682 C1684 1.389 . S
C1683 H1662 0.950 . S
C1683 C1682 1.373 . S
C1683 C1699 1.377 1_556 S
C1684 C1682 1.389 . S
C1684 C1685 1.524 . S
C1684 C1698 1.377 1_556 S
C1685 C1684 1.524 . S
C1685 C1686 1.397 . S
C1685 C1690 1.363 . S
C1686 H1663 0.950 . S
C1686 C1685 1.397 . S
C1686 C1687 1.334 . S
C1687 H1664 0.950 . S
C1687 C1686 1.334 . S
C1687 C1688 1.287 . S
C1688 C1687 1.287 . S
C1688 C1689 1.524 . S
C1688 H1707 0.913 . S
C1689 H1665 0.950 . S
C1689 C1688 1.524 . S
C1689 C1690 1.415 . S
C1690 H1666 0.948 . S
C1690 C1685 1.363 . S
C1690 C1689 1.415 . S
C1691 H1667 0.951 . S
C1691 C1692 1.366 . S
C1691 C1693 1.388 . S
C1692 C1691 1.366 . S
C1692 C1696 1.385 . S
C1693 H1668 0.951 . S
C1693 C1691 1.388 . S
C1693 C1694 1.366 . S
C1694 C1693 1.366 . S
C1694 C1695 1.414 . S
C1694 C1697 1.499 . S
C1695 H1669 0.950 . S
C1695 C1694 1.414 . S
C1695 C1696 1.374 . S
C1696 H1670 0.950 . S
C1696 C1692 1.385 . S
C1696 C1695 1.374 . S
C1697 C1694 1.499 . S
C1697 C1698 1.373 . S
C1697 C1699 1.389 . S
C1698 H1671 0.950 . S
C1698 C1684 1.377 1_554 S
C1698 C1697 1.373 . S
C1699 C1683 1.377 1_554 S
C1699 C1697 1.389 . S
C1699 C1700 1.524 . S
C1700 C1699 1.524 . S
C1700 C1701 1.397 . S
C1700 C1705 1.363 . S
C1701 H1672 0.950 . S
C1701 C1700 1.397 . S
C1701 C1702 1.334 . S
C1702 H1673 0.950 . S
C1702 C1701 1.334 . S
C1702 C1703 1.287 . S
C1703 C1702 1.287 . S
C1703 C1704 1.524 . S
C1703 H1706 0.999 . S
C1704 H1674 0.950 . S
C1704 C1703 1.524 . S
C1704 C1705 1.415 . S
C1705 H1675 0.948 . S
C1705 C1700 1.363 . S
C1705 C1704 1.415 . S
H1706 C1703 0.999 . S
H1707 C1688 0.913 . S
H1708 C1726 0.951 . S
H1709 C1728 0.951 . S
H1710 C1730 0.950 . S
H1711 C1731 0.950 . S
H1712 C1733 0.950 . S
H1713 C1736 0.950 . S
H1714 C1737 0.950 . S
H1715 C1739 0.950 . S
H1716 C1740 0.950 1_556 S
H1717 C1741 0.951 . S
H1718 C1743 0.951 . S
H1719 C1745 0.950 . S
H1720 C1746 0.950 . S
H1721 C1748 0.950 . S
H1722 C1751 0.950 . S
H1723 C1752 0.950 . S
H1724 C1754 0.950 . S
H1725 C1755 0.950 1_554 S
C1726 H1708 0.951 . S
C1726 C1727 1.366 . S
C1726 C1728 1.388 . S
C1727 C1726 1.366 . S
C1727 C1731 1.385 . S
C1728 H1709 0.951 . S
C1728 C1726 1.388 . S
C1728 C1729 1.366 . S
C1729 C1728 1.366 . S
C1729 C1730 1.414 . S
C1729 C1732 1.499 . S
C1730 H1710 0.950 . S
C1730 C1729 1.414 . S
C1730 C1731 1.374 . S
C1731 H1711 0.950 . S
C1731 C1727 1.385 . S
C1731 C1730 1.374 . S
C1732 C1729 1.499 . S
C1732 C1733 1.373 . S
C1732 C1734 1.389 . S
C1733 H1712 0.950 . S
C1733 C1732 1.373 . S
C1733 C1749 1.377 1_554 S
C1734 C1732 1.389 . S
C1734 C1735 1.524 . S
C1734 C1748 1.377 1_554 S
C1735 C1734 1.524 . S
C1735 C1736 1.397 . S
C1735 C1740 1.363 . S
C1736 H1713 0.950 . S
C1736 C1735 1.397 . S
C1736 C1737 1.334 . S
C1737 H1714 0.950 . S
C1737 C1736 1.334 . S
C1737 C1738 1.287 . S
C1738 C1737 1.287 . S
C1738 C1739 1.524 . S
C1738 H1757 0.913 . S
C1739 H1715 0.950 . S
C1739 C1738 1.524 . S
C1739 C1740 1.415 . S
C1740 H1716 0.950 1_554 S
C1740 C1735 1.363 . S
C1740 C1739 1.415 . S
C1741 H1717 0.951 . S
C1741 C1742 1.366 . S
C1741 C1743 1.388 . S
C1742 C1741 1.366 . S
C1742 C1746 1.385 . S
C1743 H1718 0.951 . S
C1743 C1741 1.388 . S
C1743 C1744 1.366 . S
C1744 C1743 1.366 . S
C1744 C1745 1.414 . S
C1744 C1747 1.499 . S
C1745 H1719 0.950 . S
C1745 C1744 1.414 . S
C1745 C1746 1.374 . S
C1746 H1720 0.950 . S
C1746 C1742 1.385 . S
C1746 C1745 1.374 . S
C1747 C1744 1.499 . S
C1747 C1748 1.373 . S
C1747 C1749 1.389 . S
C1748 H1721 0.950 . S
C1748 C1734 1.377 1_556 S
C1748 C1747 1.373 . S
C1749 C1733 1.377 1_556 S
C1749 C1747 1.389 . S
C1749 C1750 1.524 . S
C1750 C1749 1.524 . S
C1750 C1751 1.397 . S
C1750 C1755 1.363 . S
C1751 H1722 0.950 . S
C1751 C1750 1.397 . S
C1751 C1752 1.334 . S
C1752 H1723 0.950 . S
C1752 C1751 1.334 . S
C1752 C1753 1.287 . S
C1753 C1752 1.287 . S
C1753 C1754 1.524 . S
C1753 H1756 0.999 . S
C1754 H1724 0.950 . S
C1754 C1753 1.524 . S
C1754 C1755 1.415 . S
C1755 H1725 0.950 1_556 S
C1755 C1750 1.363 . S
C1755 C1754 1.415 . S
H1756 C1753 0.999 . S
H1757 C1738 0.913 . S
H1758 C1776 0.951 . S
H1759 C1778 0.951 . S
H1760 C1780 0.950 . S
H1761 C1781 0.950 . S
H1762 C1783 0.950 . S
H1763 C1786 0.950 . S
H1764 C1787 0.950 . S
H1765 C1789 0.950 . S
H1766 C1790 0.950 . S
H1767 C1791 0.951 . S
H1768 C1793 0.951 . S
H1769 C1795 0.950 . S
H1770 C1796 0.950 . S
H1771 C1798 0.950 . S
H1772 C1801 0.950 . S
H1773 C1802 0.950 . S
H1774 C1804 0.950 . S
H1775 C1805 0.950 . S
C1776 H1758 0.951 . S
C1776 C1777 1.366 . S
C1776 C1778 1.388 . S
C1777 C1776 1.366 . S
C1777 C1781 1.385 . S
C1778 H1759 0.951 . S
C1778 C1776 1.388 . S
C1778 C1779 1.366 . S
C1779 C1778 1.366 . S
C1779 C1780 1.414 . S
C1779 C1782 1.499 . S
C1780 H1760 0.950 . S
C1780 C1779 1.414 . S
C1780 C1781 1.374 . S
C1781 H1761 0.950 . S
C1781 C1777 1.385 . S
C1781 C1780 1.374 . S
C1782 C1779 1.499 . S
C1782 C1783 1.373 . S
C1782 C1784 1.389 . S
C1783 H1762 0.950 . S
C1783 C1782 1.373 . S
C1783 C1799 1.377 1_556 S
C1784 C1782 1.389 . S
C1784 C1785 1.524 . S
C1784 C1798 1.377 1_556 S
C1785 C1784 1.524 . S
C1785 C1786 1.397 . S
C1785 C1790 1.363 . S
C1786 H1763 0.950 . S
C1786 C1785 1.397 . S
C1786 C1787 1.334 . S
C1787 H1764 0.950 . S
C1787 C1786 1.334 . S
C1787 C1788 1.287 . S
C1788 C1787 1.287 . S
C1788 C1789 1.524 . S
C1788 H1807 0.913 . S
C1789 H1765 0.950 . S
C1789 C1788 1.524 . S
C1789 C1790 1.415 . S
C1790 H1766 0.950 . S
C1790 C1785 1.363 . S
C1790 C1789 1.415 . S
C1791 H1767 0.951 . S
C1791 C1792 1.366 . S
C1791 C1793 1.388 . S
C1792 C1791 1.366 . S
C1792 C1796 1.385 . S
C1793 H1768 0.951 . S
C1793 C1791 1.388 . S
C1793 C1794 1.366 . S
C1794 C1793 1.366 . S
C1794 C1795 1.414 . S
C1794 C1797 1.499 . S
C1795 H1769 0.950 . S
C1795 C1794 1.414 . S
C1795 C1796 1.374 . S
C1796 H1770 0.950 . S
C1796 C1792 1.385 . S
C1796 C1795 1.374 . S
C1797 C1794 1.499 . S
C1797 C1798 1.373 . S
C1797 C1799 1.389 . S
C1798 H1771 0.950 . S
C1798 C1784 1.377 1_554 S
C1798 C1797 1.373 . S
C1799 C1783 1.377 1_554 S
C1799 C1797 1.389 . S
C1799 C1800 1.524 . S
C1800 C1799 1.524 . S
C1800 C1801 1.397 . S
C1800 C1805 1.363 . S
C1801 H1772 0.950 . S
C1801 C1800 1.397 . S
C1801 C1802 1.334 . S
C1802 H1773 0.950 . S
C1802 C1801 1.334 . S
C1802 C1803 1.287 . S
C1803 C1802 1.287 . S
C1803 C1804 1.524 . S
C1803 H1806 0.999 . S
C1804 H1774 0.950 . S
C1804 C1803 1.524 . S
C1804 C1805 1.415 . S
C1805 H1775 0.950 . S
C1805 C1800 1.363 . S
C1805 C1804 1.415 . S
H1806 C1803 0.999 . S
H1807 C1788 0.913 . S
C227 C10 1.562 . S
C242 C42 1.566 . S
C277 C5 1.566 . S
C292 C23 1.562 . S
C327 C18 1.566 . S
C342 C30 1.562 . S
C377 C29 1.566 . S
C392 C43 1.562 . S
C427 C62 1.562 . S
C442 C70 1.566 . S
C477 C75 1.562 . S
C492 C81 1.566 . S
C527 C82 1.562 . S
C542 C96 1.566 . S
C577 C101 1.562 . S
C592 C57 1.566 . S
C627 C108 1.562 . S
C642 C146 1.566 . S
C677 C107 1.566 . S
C692 C127 1.562 . S
C727 C122 1.566 . S
C742 C134 1.562 . S
C777 C147 1.562 . S
C792 C133 1.566 . S
C827 C174 1.566 . S
C842 C166 1.562 . S
C877 C187 1.566 . S
C892 C179 1.562 . S
C927 C192 1.562 . S
C942 C200 1.566 . S
C977 C205 1.562 . S
C992 C161 1.566 . S
C1027 C4 1.001 . S
C1042 C199 1.001 . S
C1077 C17 1.000 . S
C1092 C160 1.001 . S
C1127 C173 1.001 . S
C1142 C36 1.001 . S
C1177 C49 1.000 . S
C1192 C186 1.000 . S
C1227 C121 1.001 . S
C1242 C56 1.000 . S
C1277 C140 1.001 . S
C1292 C69 1.001 . S
C1327 C88 1.000 . S
C1342 C153 1.001 . S
C1377 C95 1.001 . S
C1392 C114 1.000 . S
C1427 C3 1.657 . S
C1442 C83 1.657 . S
C1477 C94 1.657 . S
C1492 C16 1.657 . S
C1527 C55 1.657 . S
C1542 C31 1.657 . S
C1577 C68 1.657 . S
C1592 C44 1.657 . S
C1627 C109 1.657 . S
C1642 C185 1.657 . S
C1677 C120 1.657 . S
C1692 C198 1.657 . S
C1727 C159 1.657 . S
C1742 C135 1.657 . S
C1777 C148 1.657 . S
C1792 C172 1.657 . S
