# Generated by pormake.
# Topology smu, (6)-cn, num edge types: 1
# Building blocks:
#     Node 0, Type 0, BuildingBlock: BETDEL_clean_sbu_0, # of connection points: 6
#     Node 1, Type 0, BuildingBlock: BETDEL_clean_sbu_0, # of connection points: 6
#     Node 2, Type 0, BuildingBlock: BETDEL_clean_sbu_0, # of connection points: 6
#     Node 3, Type 0, BuildingBlock: BETDEL_clean_sbu_0, # of connection points: 6
#     Node 4, Type 0, BuildingBlock: BETDEL_clean_sbu_0, # of connection points: 6
#     Node 5, Type 0, BuildingBlock: BETDEL_clean_sbu_0, # of connection points: 6
#     Edge 6, Type (0, 0), BuildingBlock: FUNLAD_clean_linker_1, # of connection points: 2
#     Edge 7, Type (0, 0), BuildingBlock: FUNLAD_clean_linker_1, # of connection points: 2
#     Edge 8, Type (0, 0), BuildingBlock: FUNLAD_clean_linker_1, # of connection points: 2
#     Edge 9, Type (0, 0), BuildingBlock: FUNLAD_clean_linker_1, # of connection points: 2
#     Edge 10, Type (0, 0), BuildingBlock: FUNLAD_clean_linker_1, # of connection points: 2
#     Edge 11, Type (0, 0), BuildingBlock: FUNLAD_clean_linker_1, # of connection points: 2
#     Edge 12, Type (0, 0), BuildingBlock: FUNLAD_clean_linker_1, # of connection points: 2
#     Edge 13, Type (0, 0), BuildingBlock: FUNLAD_clean_linker_1, # of connection points: 2
#     Edge 14, Type (0, 0), BuildingBlock: FUNLAD_clean_linker_1, # of connection points: 2
#     Edge 15, Type (0, 0), BuildingBlock: FUNLAD_clean_linker_1, # of connection points: 2
#     Edge 16, Type (0, 0), BuildingBlock: FUNLAD_clean_linker_1, # of connection points: 2
#     Edge 17, Type (0, 0), BuildingBlock: FUNLAD_clean_linker_1, # of connection points: 2
#     Edge 18, Type (0, 0), BuildingBlock: FUNLAD_clean_linker_1, # of connection points: 2
#     Edge 19, Type (0, 0), BuildingBlock: FUNLAD_clean_linker_1, # of connection points: 2
#     Edge 20, Type (0, 0), BuildingBlock: FUNLAD_clean_linker_1, # of connection points: 2
#     Edge 21, Type (0, 0), BuildingBlock: FUNLAD_clean_linker_1, # of connection points: 2
#     Edge 22, Type (0, 0), BuildingBlock: FUNLAD_clean_linker_1, # of connection points: 2
#     Edge 23, Type (0, 0), BuildingBlock: FUNLAD_clean_linker_1, # of connection points: 2
# Relax obj value: 0.190
# Max RMSD: 0.264
# Mean RMSD: 0.264
data_MOF--net-smu--node1-BETDEL_clean_sbu_0--edge1-FUNLAD_clean_linker_1
_symmetry_space_group_name_H-M    P1
_symmetry_Int_Tables_number       1
_symmetry_cell_setting            triclinic
loop_
_symmetry_equiv_pos_as_xyz
'x, y, z'
_cell_length_a     32.587198
_cell_length_b     32.793146
_cell_length_c     27.746722
_cell_angle_alpha  89.492705
_cell_angle_beta   90.721649
_cell_angle_gamma 119.98475
loop_
_atom_site_label
_atom_site_type_symbol
_atom_site_fract_x
_atom_site_fract_y
_atom_site_fract_z
_atom_type_partial_charge
Dy0 Dy 0.3924 0.0901 0.31383 0.0
C1 C 0.25615 0.15607 0.33693 0.0
C2 C 0.46393 0.07666 0.2825 0.0
Dy3 Dy 0.31081 0.11633 0.3217 0.0
O4 O 0.43573 0.05403 0.31783 0.0
O5 O 0.45157 0.10505 0.26288 0.0
O6 O 0.40918 0.09199 0.39356 0.0
O7 O 0.35742 0.10633 0.36993 0.0
C8 C 0.37642 0.10067 0.40723 0.0
C9 C 0.31727 0.0814 0.23665 0.0
O10 O 0.37626 0.18601 0.33149 0.0
O11 O 0.43435 0.1688 0.30766 0.0
O12 O 0.25262 0.12017 0.36101 0.0
O13 O 0.28874 0.16948 0.30443 0.0
O14 O 0.27807 0.07716 0.25269 0.0
O15 O 0.35123 0.1081 0.26402 0.0
O16 O 0.32426 0.01991 0.3099 0.0
O17 O 0.27672 0.04358 0.34929 0.0
C18 C 0.42013 0.19891 0.31918 0.0
C19 C 0.28455 0.01033 0.33258 0.0
Dy20 Dy 0.72964 0.63334 0.28639 0.0
C21 C 0.92401 0.76451 0.33912 0.0
C22 C 0.6478 0.55286 0.26513 0.0
Dy23 Dy 0.83646 0.71334 0.29897 0.0
O24 O 0.66731 0.56501 0.3075 0.0
O25 O 0.67225 0.58583 0.23378 0.0
O26 O 0.71063 0.65239 0.3556 0.0
O27 O 0.77997 0.66325 0.34721 0.0
C28 C 0.75281 0.6702 0.37443 0.0
C29 C 0.8091 0.70404 0.20525 0.0
O30 O 0.84784 0.65388 0.28253 0.0
O31 O 0.76934 0.59298 0.28108 0.0
O32 O 0.8954 0.7201 0.34689 0.0
O33 O 0.9042 0.78164 0.31067 0.0
O34 O 0.85154 0.73472 0.21994 0.0
O35 O 0.78666 0.68031 0.2413 0.0
O36 O 0.7252 0.69894 0.2728 0.0
O37 O 0.79638 0.75048 0.31247 0.0
C38 C 0.81564 0.60905 0.27859 0.0
C39 C 0.75528 0.74073 0.29215 0.0
Dy40 Dy 0.92799 0.28336 0.29012 0.0
C41 C 0.87843 0.09048 0.28704 0.0
C42 C 0.93816 0.37149 0.28582 0.0
Dy43 Dy 0.91231 0.18433 0.2757 0.0
O44 O 0.94989 0.3543 0.32233 0.0
O45 O 0.92391 0.34169 0.25043 0.0
O46 O 0.89586 0.26259 0.36433 0.0
O47 O 0.9311 0.23098 0.33669 0.0
C48 C 0.90804 0.23098 0.3724 0.0
C49 C 0.94784 0.23894 0.19874 0.0
O50 O 0.83894 0.17067 0.26194 0.0
O51 O 0.84977 0.24513 0.27529 0.0
O52 O 0.86268 0.11442 0.30947 0.0
O53 O 0.91358 0.11793 0.25942 0.0
O54 O 0.95419 0.20363 0.2087 0.0
O55 O 0.91723 0.23931 0.2265 0.0
O56 O 1.00363 0.29764 0.28638 0.0
O57 O 0.98467 0.22158 0.30825 0.0
C58 C 0.8226 0.20004 0.26498 0.0
C59 C 1.01644 0.26652 0.30025 0.0
Dy60 Dy 0.05366 0.30815 0.77433 0.0
C61 C 0.25255 0.43817 0.77455 0.0
C62 C 0.96598 0.22976 0.76672 0.0
Dy63 Dy 0.15811 0.37217 0.76653 0.0
O64 O 0.992 0.24368 0.80541 0.0
O65 O 0.98662 0.26044 0.73243 0.0
O66 O 0.05283 0.33724 0.84491 0.0
O67 O 0.11211 0.3302 0.82752 0.0
C68 C 0.09368 0.34371 0.85957 0.0
C69 C 0.10998 0.33938 0.68214 0.0
O70 O 0.15848 0.30785 0.78938 0.0
O71 O 0.08403 0.26091 0.75785 0.0
O72 O 0.21897 0.43734 0.79994 0.0
O73 O 0.23461 0.40331 0.74448 0.0
O74 O 0.15243 0.34632 0.68877 0.0
O75 O 0.09818 0.35308 0.7183 0.0
O76 O 0.05195 0.37547 0.76455 0.0
O77 O 0.13305 0.42377 0.77756 0.0
C78 C 0.12525 0.26683 0.77317 0.0
C79 C 0.08976 0.41765 0.77232 0.0
Dy80 Dy 0.27046 0.96795 0.80233 0.0
C81 C 0.20536 0.77401 0.81293 0.0
C82 C 0.27592 0.05183 0.7805 0.0
Dy83 Dy 0.23336 0.86763 0.80412 0.0
O84 O 0.30317 0.04666 0.81148 0.0
O85 O 0.24753 0.01185 0.76044 0.0
O86 O 0.30436 0.97872 0.87419 0.0
O87 O 0.23953 0.91663 0.86237 0.0
C88 C 0.27271 0.93912 0.89277 0.0
C89 C 0.23617 0.90456 0.71514 0.0
O90 O 0.17136 0.867 0.83585 0.0
O91 O 0.19048 0.93621 0.79782 0.0
O92 O 0.24334 0.80813 0.83239 0.0
O93 O 0.18302 0.791 0.78883 0.0
O94 O 0.20155 0.86493 0.72993 0.0
O95 O 0.26773 0.92115 0.74703 0.0
O96 O 0.3372 0.96805 0.78196 0.0
O97 O 0.31063 0.89331 0.81234 0.0
C98 C 0.15885 0.8966 0.81868 0.0
C99 C 0.34531 0.93394 0.79627 0.0
Dy100 Dy 0.72354 0.75913 0.7829 0.0
C101 C 0.59001 0.81936 0.80266 0.0
C102 C 0.80328 0.75449 0.76462 0.0
Dy103 Dy 0.65621 0.7927 0.78876 0.0
O104 O 0.7867 0.75394 0.80693 0.0
O105 O 0.77487 0.75511 0.73192 0.0
O106 O 0.69852 0.71896 0.85051 0.0
O107 O 0.70064 0.7845 0.84525 0.0
C108 C 0.69041 0.74904 0.87235 0.0
C109 C 0.68836 0.79302 0.69846 0.0
O110 O 0.71839 0.85374 0.82154 0.0
O111 O 0.76758 0.83903 0.77653 0.0
O112 O 0.58699 0.78082 0.81931 0.0
O113 O 0.62876 0.84291 0.77861 0.0
O114 O 0.67958 0.82494 0.7138 0.0
O115 O 0.67649 0.76196 0.73013 0.0
O116 O 0.657 0.69055 0.76499 0.0
O117 O 0.60642 0.71527 0.7934 0.0
C118 C 0.75962 0.86857 0.80142 0.0
C119 C 0.61399 0.68157 0.77778 0.0
H120 H 0.22925 0.91533 0.95908 0.0
C121 C 0.26503 0.93647 0.94553 0.0
H122 H 0.33564 0.98796 0.96044 0.0
H123 H 0.30285 0.10387 0.11473 0.0
H124 H 0.32113 0.15429 0.04459 0.0
H125 H 0.32593 0.12591 0.964 0.0
H126 H 0.3125 0.047 0.95309 0.0
C127 C 0.30037 0.96626 0.97514 0.0
C128 C 0.29202 0.98047 1.02346 0.0
C129 C 0.30038 0.02702 1.02947 0.0
C130 C 0.29768 0.04348 0.07599 0.0
C131 C 0.30524 0.08976 0.08048 0.0
C132 C 0.31554 0.11907 1.04043 0.0
C133 C 0.31825 0.1031 0.99507 0.0
C134 C 0.31072 0.05771 0.98941 0.0
H135 H 0.35694 0.0737 0.17649 0.0
C136 C 0.32175 0.06168 0.19059 0.0
H137 H 0.24805 0.01718 0.18025 0.0
H138 H 0.27328 0.8894 1.02494 0.0
H139 H 0.25116 0.83768 0.09471 0.0
H140 H 0.24452 0.86559 0.17496 0.0
H141 H 0.26057 0.94563 0.18617 0.0
C142 C 0.28322 0.03052 0.16542 0.0
C143 C 0.28666 0.01345 0.1167 0.0
C144 C 0.27631 0.96632 0.11044 0.0
C145 C 0.27944 0.94994 0.06389 0.0
C146 C 0.27062 0.90332 0.05921 0.0
C147 C 0.25802 0.87333 0.09899 0.0
C148 C 0.25431 0.88906 0.1442 0.0
C149 C 0.26351 0.93504 0.15013 0.0
H150 H 0.70189 0.81211 0.62082 0.0
C151 C 0.70199 0.7887 0.64869 0.0
H152 H 0.71154 0.73154 0.66606 0.0
H153 H 0.6719 0.6254 0.47272 0.0
H154 H 0.60759 0.56943 0.52277 0.0
H155 H 0.59328 0.59257 0.60237 0.0
H156 H 0.64317 0.6715 0.63253 0.0
C157 C 0.71292 0.75523 0.63774 0.0
C158 C 0.72022 0.74365 0.5875 0.0
C159 C 0.69011 0.69731 0.56991 0.0
C160 C 0.69754 0.68424 0.52341 0.0
C161 C 0.66728 0.63752 0.5073 0.0
C162 C 0.63032 0.60493 0.53573 0.0
C163 C 0.62235 0.61791 0.58058 0.0
C164 C 0.65161 0.66344 0.59759 0.0
H165 H 0.79499 0.697 0.44268 0.0
C166 C 0.7645 0.69311 0.42247 0.0
H167 H 0.70423 0.70115 0.42076 0.0
H168 H 0.789 0.83319 0.61173 0.0
H169 H 0.85188 0.88939 0.56033 0.0
H170 H 0.86102 0.86802 0.47773 0.0
H171 H 0.80781 0.78981 0.44629 0.0
C172 C 0.73458 0.7057 0.44185 0.0
C173 C 0.73433 0.71758 0.49368 0.0
C174 C 0.7649 0.76362 0.51131 0.0
C175 C 0.75843 0.77648 0.55854 0.0
C176 C 0.79099 0.82206 0.57571 0.0
C177 C 0.8275 0.85457 0.54667 0.0
C178 C 0.83276 0.8425 0.50019 0.0
C179 C 0.80195 0.79757 0.48254 0.0
H180 H 0.95468 0.29071 0.14228 0.0
C181 C 0.96895 0.26911 0.15583 0.0
H182 H 0.01779 0.2454 0.14645 0.0
H183 H 0.02472 0.25952 0.92094 0.0
H184 H 0.97185 0.17625 0.9316 0.0
H185 H 0.94152 0.14301 1.01202 0.0
H186 H 0.96347 0.19337 0.08211 0.0
C187 C 1.00431 0.26761 0.13254 0.0
C188 C 0.02178 0.289 0.08414 0.0
C189 C 1.00994 0.25901 0.04356 0.0
C190 C 0.0284 0.27813 0.99733 0.0
C191 C 1.01343 0.24729 0.9572 0.0
C192 C 0.98266 0.19915 0.96272 0.0
C193 C 0.96554 0.18045 1.00795 0.0
C194 C 0.97868 0.20982 0.04794 0.0
H195 H 0.12061 0.32452 0.92484 0.0
C196 C 0.10058 0.34088 0.91208 0.0
H197 H 0.05386 0.3655 0.92951 0.0
H198 H 0.05356 0.35589 0.15467 0.0
H199 H 0.10694 0.43983 0.14438 0.0
H200 H 0.13922 0.4731 0.06441 0.0
H201 H 0.1187 0.42255 0.9942 0.0
C202 C 0.07307 0.34837 0.94267 0.0
C203 C 0.05992 0.32733 0.9919 0.0
C204 C 0.07203 0.35717 1.03263 0.0
C205 C 0.05309 0.33802 0.07879 0.0
C206 C 0.06648 0.36866 0.1188 0.0
C207 C 0.09715 0.41688 0.11339 0.0
C208 C 0.11533 0.43562 0.06835 0.0
C209 C 0.10312 0.40628 1.02833 0.0
H210 H 0.38516 0.09998 0.48543 0.0
C211 C 0.35886 0.0922 0.4572 0.0
H212 H 0.28643 0.0514 0.43919 0.0
H213 H 0.26714 0.89865 0.59358 0.0
H214 H 0.26148 0.85936 0.51853 0.0
H215 H 0.27317 0.9006 0.4408 0.0
H216 H 0.29066 0.98146 0.43788 0.0
C217 C 0.31295 0.06338 0.46766 0.0
C218 C 0.2996 0.03724 0.51461 0.0
C219 C 0.28768 0.98924 0.51594 0.0
C220 C 0.27995 0.96511 0.56092 0.0
C221 C 0.27123 0.91821 0.56078 0.0
C222 C 0.26847 0.89529 0.51782 0.0
C223 C 0.27521 0.91853 0.47409 0.0
C224 C 0.2851 0.96501 0.47296 0.0
H225 H 0.20839 0.9098 0.64341 0.0
C226 C 0.23907 0.92632 0.66728 0.0
H227 H 0.30886 0.98211 0.67736 0.0
H228 H 0.31747 0.12731 0.52446 0.0
H229 H 0.32398 0.1677 0.5996 0.0
H230 H 0.31292 0.12711 0.67763 0.0
H231 H 0.29391 0.04563 0.68098 0.0
C232 C 0.27878 0.9653 0.65273 0.0
C233 C 0.28322 0.98876 0.60477 0.0
C234 C 0.29469 0.03671 0.60314 0.0
C235 C 0.30227 0.06066 0.55813 0.0
C236 C 0.31246 0.10798 0.55774 0.0
C237 C 0.31613 0.13149 0.60053 0.0
C238 C 0.30978 0.10859 0.64446 0.0
C239 C 0.29889 0.06176 0.64592 0.0
H240 H 0.68787 0.77795 0.94415 0.0
C241 C 0.69141 0.75071 0.92595 0.0
H242 H 0.70313 0.69322 0.93245 0.0
H243 H 0.79991 0.79013 0.14079 0.0
H244 H 0.84798 0.86375 0.09849 0.0
H245 H 0.8338 0.8718 1.01233 0.0
H246 H 0.77063 0.80711 0.96851 0.0
C247 C 0.70054 0.72067 0.95148 0.0
C248 C 0.70643 0.72018 1.00514 0.0
C249 C 0.74533 0.75792 1.02952 0.0
C250 C 0.75592 0.75219 0.07838 0.0
C251 C 0.79244 0.79154 0.10292 0.0
C252 C 0.82 0.83417 0.0792 0.0
C253 C 0.81182 0.83877 1.03077 0.0
C254 C 0.77508 0.80124 1.00604 0.0
H255 H 0.81489 0.71831 0.12738 0.0
C256 C 0.79001 0.70552 0.15702 0.0
H257 H 0.72129 0.68699 0.17947 0.0
H258 H 0.62502 0.64391 0.97269 0.0
H259 H 0.57769 0.57001 1.01505 0.0
H260 H 0.59993 0.55806 0.09708 0.0
H261 H 0.66921 0.61991 0.13744 0.0
C262 C 0.74609 0.69885 0.14984 0.0
C263 C 0.73027 0.70766 0.10165 0.0
C264 C 0.68971 0.67106 0.07839 0.0
C265 C 0.67751 0.67757 1.03052 0.0
C266 C 0.63652 0.64044 1.0085 0.0
C267 C 0.6089 0.59795 1.03249 0.0
C268 C 0.62137 0.59126 0.0787 0.0
C269 C 0.66127 0.62717 0.10151 0.0
H270 H 0.92857 0.19452 0.42622 0.0
C271 C 0.92435 0.22506 0.42057 0.0
H272 H 0.94695 0.29455 0.44177 0.0
H273 H 0.01724 0.22411 0.63548 0.0
H274 H 0.93507 0.16387 0.64717 0.0
H275 H 0.87374 0.15178 0.58689 0.0
H276 H 0.89452 0.19824 0.51329 0.0
C277 C 0.94704 0.26218 0.45035 0.0
C278 C 0.98344 0.26593 0.48624 0.0
C279 C 0.97033 0.23973 0.52979 0.0
C280 C 1.00536 0.2484 0.5658 0.0
C281 C 0.99172 0.22024 0.60795 0.0
C282 C 0.94475 0.18551 0.61504 0.0
C283 C 0.91027 0.17848 0.5809 0.0
C284 C 0.92268 0.20529 0.53876 0.0
H285 H 0.04614 0.32173 0.64008 0.0
C286 C 0.07883 0.32044 0.63933 0.0
H287 H 0.12025 0.30058 0.59855 0.0
H288 H 0.0223 0.31514 0.40308 0.0
H289 H 0.1052 0.37143 0.38941 0.0
H290 H 0.16505 0.38922 0.45336 0.0
H291 H 0.14245 0.35032 0.53118 0.0
C292 C 0.08745 0.30147 0.60079 0.0
C293 C 0.05308 0.28468 0.55919 0.0
C294 C 0.0668 0.3079 0.51402 0.0
C295 C 0.03205 0.29832 0.47746 0.0
C296 C 0.04695 0.32178 0.43251 0.0
C297 C 0.09447 0.3541 0.4241 0.0
C298 C 0.12817 0.36405 0.46008 0.0
C299 C 0.1147 0.34149 0.50463 0.0
H300 H 0.52281 0.06642 0.3055 0.0
C301 C 0.51088 0.08111 0.277 0.0
H302 H 0.52946 0.1249 0.21601 0.0
H303 H 0.73874 0.26461 0.28108 0.0
H304 H 0.70421 0.31467 0.27351 0.0
H305 H 0.62012 0.28167 0.25157 0.0
H306 H 0.56859 0.19802 0.2429 0.0
C307 C 0.5417 0.10981 0.24377 0.0
C308 C 0.5939 0.12965 0.25044 0.0
C309 C 0.62367 0.1791 0.25591 0.0
C310 C 0.67268 0.19838 0.26719 0.0
C311 C 0.70129 0.24781 0.27277 0.0
C312 C 0.6821 0.27719 0.26802 0.0
C313 C 0.63458 0.25855 0.25641 0.0
C314 C 0.60544 0.21019 0.25097 0.0
H315 H 0.75655 0.15677 0.22434 0.0
C316 C 0.772 0.18117 0.25425 0.0
H317 H 0.75954 0.21293 0.31345 0.0
H318 H 0.5495 0.03485 0.23368 0.0
H319 H 0.58197 0.98344 0.24855 0.0
H320 H 0.66391 0.01552 0.27871 0.0
H321 H 0.71424 0.09914 0.29241 0.0
C322 C 0.74403 0.1894 0.28287 0.0
C323 C 0.6921 0.16834 0.27292 0.0
C324 C 0.66203 0.11877 0.26862 0.0
C325 C 0.61353 0.09973 0.25521 0.0
C326 C 0.58565 0.05072 0.24677 0.0
C327 C 0.60395 0.02088 0.25477 0.0
C328 C 0.65016 0.03898 0.27145 0.0
C329 C 0.67893 0.08724 0.27853 0.0
H330 H 0.60377 0.49349 0.21602 0.0
C331 C 0.61103 0.50432 0.2535 0.0
H332 H 0.60184 0.48375 0.32645 0.0
H333 H 0.43401 0.2834 0.23448 0.0
H334 H 0.39677 0.32633 0.20271 0.0
H335 H 0.43729 0.41297 0.20788 0.0
H336 H 0.51571 0.45722 0.2438 0.0
C337 C 0.59265 0.4724 0.28922 0.0
C338 C 0.56908 0.42087 0.28094 0.0
C339 C 0.52279 0.39572 0.26103 0.0
C340 C 0.49854 0.34566 0.26015 0.0
C341 C 0.45318 0.32132 0.238 0.0
C342 C 0.43156 0.34555 0.21928 0.0
C343 C 0.45444 0.39433 0.22206 0.0
C344 C 0.49952 0.41933 0.24268 0.0
H345 H 0.44312 0.27284 0.33439 0.0
C346 C 0.45324 0.24986 0.31644 0.0
H347 H 0.50229 0.24691 0.26943 0.0
H348 H 0.66086 0.45861 0.31286 0.0
H349 H 0.69788 0.41561 0.34492 0.0
H350 H 0.65301 0.32889 0.35057 0.0
H351 H 0.57139 0.28463 0.32259 0.0
C352 C 0.49152 0.26897 0.28814 0.0
C353 C 0.51962 0.32098 0.28169 0.0
C354 C 0.56675 0.34621 0.29937 0.0
C355 C 0.59187 0.3962 0.29802 0.0
C356 C 0.63959 0.42061 0.31442 0.0
C357 C 0.66134 0.39637 0.33277 0.0
C358 C 0.63612 0.34757 0.33583 0.0
C359 C 0.58931 0.3226 0.31958 0.0
H360 H 0.93008 0.4245 0.32591 0.0
C361 C 0.92794 0.41045 0.29007 0.0
H362 H 0.9067 0.40839 0.21801 0.0
H363 H 0.74845 0.46139 0.24272 0.0
H364 H 0.70856 0.38752 0.19952 0.0
H365 H 0.74854 0.34184 0.1851 0.0
H366 H 0.82817 0.36921 0.21422 0.0
C367 C 0.9096 0.42363 0.25336 0.0
C368 C 0.88616 0.45258 0.26114 0.0
C369 C 0.83843 0.43495 0.24553 0.0
C370 C 0.81491 0.46097 0.2545 0.0
C371 C 0.76788 0.44306 0.23727 0.0
C372 C 0.74452 0.40069 0.2123 0.0
C373 C 0.76706 0.375 0.20415 0.0
C374 C 0.8131 0.39139 0.22097 0.0
H375 H 0.86808 0.59195 0.2514 0.0
C376 C 0.8341 0.5769 0.26942 0.0
H377 H 0.78085 0.51708 0.30513 0.0
H378 H 0.98039 0.50294 0.28607 0.0
H379 H 0.01873 0.57438 0.33351 0.0
H380 H 0.97395 0.61211 0.3609 0.0
H381 H 0.89123 0.57974 0.33912 0.0
C382 C 0.81456 0.5327 0.28658 0.0
C383 C 0.83852 0.50414 0.27993 0.0
C384 C 0.88564 0.52096 0.29695 0.0
C385 C 0.91023 0.49665 0.2852 0.0
C386 C 0.95895 0.51773 0.29737 0.0
C387 C 0.98159 0.5591 0.3241 0.0
C388 C 0.95649 0.58052 0.33922 0.0
C389 C 0.9091 0.56182 0.32597 0.0
H390 H 0.0501 0.45654 0.7674 0.0
C391 C 0.08448 0.45988 0.77473 0.0
H392 H 0.15603 0.50534 0.79479 0.0
H393 H 0.1376 0.67798 0.7063 0.0
H394 H 0.12701 0.64026 0.62891 0.0
H395 H 0.11335 0.55937 0.62357 0.0
H396 H 0.11001 0.51565 0.69569 0.0
C397 C 0.12203 0.50221 0.78577 0.0
C398 C 0.11992 0.54637 0.78884 0.0
C399 C 0.12092 0.57114 0.74635 0.0
C400 C 0.12892 0.61789 0.74949 0.0
C401 C 0.13116 0.64228 0.70629 0.0
C402 C 0.1253 0.6211 0.6615 0.0
C403 C 0.11762 0.57556 0.65849 0.0
C404 C 0.11569 0.55081 0.70025 0.0
H405 H 0.21537 0.71393 0.83176 0.0
C406 C 0.1909 0.72369 0.8157 0.0
H407 H 0.12503 0.70042 0.78094 0.0
H408 H 0.11552 0.50686 0.87708 0.0
H409 H 0.12232 0.54295 0.95501 0.0
H410 H 0.13334 0.62288 0.96069 0.0
H411 H 0.13828 0.66742 0.88857 0.0
C412 C 0.14899 0.69031 0.79765 0.0
C413 C 0.13614 0.63983 0.79515 0.0
C414 C 0.13177 0.61374 0.83776 0.0
C415 C 0.1243 0.56723 0.83452 0.0
C416 C 0.12129 0.54236 0.87755 0.0
C417 C 0.12488 0.56255 0.92249 0.0
C418 C 0.13115 0.60757 0.92568 0.0
C419 C 0.13435 0.63294 0.88396 0.0
H420 H 0.42202 0.97241 0.77851 0.0
C421 C 0.39304 0.93948 0.79199 0.0
H422 H 0.3715 0.87101 0.81816 0.0
H423 H 0.54967 0.88501 0.70248 0.0
H424 H 0.51222 0.89255 0.62959 0.0
H425 H 0.44398 0.90543 0.63367 0.0
H426 H 0.41302 0.91119 0.7106 0.0
C427 C 0.40022 0.9035 0.80353 0.0
C428 C 0.44672 0.90561 0.80009 0.0
C429 C 0.46463 0.90282 0.75466 0.0
C430 C 0.50373 0.8949 0.75232 0.0
C431 C 0.52028 0.89122 0.70649 0.0
C432 C 0.49902 0.89535 0.66429 0.0
C433 C 0.46061 0.90262 0.66659 0.0
C434 C 0.44327 0.90603 0.7111 0.0
H435 H 0.52142 0.80976 0.8269 0.0
C436 C 0.55434 0.83386 0.80901 0.0
H437 H 0.59417 0.89927 0.77373 0.0
H438 H 0.42422 0.91434 0.89254 0.0
H439 H 0.46376 0.91007 0.96557 0.0
H440 H 0.53257 0.89805 0.96147 0.0
H441 H 0.56194 0.88973 0.88441 0.0
C442 C 0.56163 0.87565 0.79251 0.0
C443 C 0.52431 0.88913 0.79536 0.0
C444 C 0.5085 0.89525 0.84068 0.0
C445 C 0.46938 0.90303 0.843 0.0
C446 C 0.45365 0.90809 0.88875 0.0
C447 C 0.47617 0.90598 0.93093 0.0
C448 C 0.51488 0.89917 0.92862 0.0
C449 C 0.53114 0.89405 0.88414 0.0
H450 H 0.3128 0.50412 0.80221 0.0
C451 C 0.3032 0.47416 0.77888 0.0
H452 H 0.32832 0.44054 0.73289 0.0
H453 H 0.50104 0.66469 0.72832 0.0
H454 H 0.44526 0.67769 0.68149 0.0
H455 H 0.3632 0.61337 0.66832 0.0
H456 H 0.33634 0.53576 0.70216 0.0
C457 C 0.33726 0.47117 0.7549 0.0
C458 C 0.3881 0.50884 0.75888 0.0
C459 C 0.40353 0.55381 0.7381 0.0
C460 C 0.45101 0.59077 0.74534 0.0
C461 C 0.46526 0.63545 0.72444 0.0
C462 C 0.43369 0.64335 0.69723 0.0
C463 C 0.38749 0.60715 0.68983 0.0
C464 C 0.37245 0.56281 0.70976 0.0
H465 H 0.57507 0.60861 0.74851 0.0
C466 C 0.57197 0.63411 0.77058 0.0
H467 H 0.52665 0.65037 0.80926 0.0
H468 H 0.3717 0.4256 0.79878 0.0
H469 H 0.42816 0.41196 0.8438 0.0
H470 H 0.5101 0.47637 0.85742 0.0
H471 H 0.53633 0.55475 0.82579 0.0
C472 C 0.52939 0.62423 0.78787 0.0
C473 C 0.48331 0.5828 0.77299 0.0
C474 C 0.46869 0.53713 0.79139 0.0
C475 C 0.42113 0.50003 0.78397 0.0
C476 C 0.40731 0.45495 0.80333 0.0
C477 C 0.43933 0.44668 0.82929 0.0
C478 C 0.48549 0.48296 0.83695 0.0
C479 C 0.50014 0.52777 0.8185 0.0
H480 H 0.19371 0.15786 0.36412 0.0
C481 C 0.22613 0.17732 0.34365 0.0
H482 H 0.26979 0.2381 0.30291 0.0
H483 H 0.09776 0.26089 0.22979 0.0
H484 H 0.13075 0.25256 0.15557 0.0
H485 H 0.19776 0.23758 0.15662 0.0
H486 H 0.23185 0.23056 0.23201 0.0
C487 C 0.23731 0.21901 0.32337 0.0
C488 C 0.20351 0.23717 0.32304 0.0
C489 C 0.18521 0.24299 0.27841 0.0
C490 C 0.14677 0.25202 0.27779 0.0
C491 C 0.12735 0.25484 0.23272 0.0
C492 C 0.14591 0.24999 0.18963 0.0
C493 C 0.18361 0.24155 0.19022 0.0
C494 C 0.20295 0.23774 0.23391 0.0
H495 H 0.09416 0.31547 0.2946 0.0
C496 C 0.06697 0.28081 0.30648 0.0
H497 H 0.0515 0.21502 0.33593 0.0
H498 H 0.23902 0.2411 0.41389 0.0
H499 H 0.20782 0.25247 0.48856 0.0
H500 H 0.13923 0.26508 0.48761 0.0
H501 H 0.10199 0.26728 0.41185 0.0
C502 C 0.07869 0.24902 0.32247 0.0
C503 C 0.12716 0.25561 0.32186 0.0
C504 C 0.14855 0.2544 0.36619 0.0
C505 C 0.1872 0.24584 0.36681 0.0
C506 C 0.2085 0.24584 0.41159 0.0
C507 C 0.19119 0.25271 0.45462 0.0
C508 C 0.15263 0.25992 0.45408 0.0
C509 C 0.13147 0.26088 0.41047 0.0
H510 H 0.98793 0.76864 0.37161 0.0
C511 C 0.97431 0.78872 0.35286 0.0
H512 H 0.99038 0.85174 0.31735 0.0
H513 H 0.19091 0.92063 0.43864 0.0
H514 H 0.14501 0.89402 0.51234 0.0
H515 H 0.05756 0.8506 0.50885 0.0
H516 H 1.01589 0.83286 0.43228 0.0
C517 C 1.00399 0.83279 0.33828 0.0
C518 C 0.05629 0.85414 0.34215 0.0
C519 C 0.0796 0.86465 0.38766 0.0
C520 C 0.12983 0.89134 0.38989 0.0
C521 C 0.15274 0.90124 0.43545 0.0
C522 C 0.12683 0.88613 0.47781 0.0
C523 C 0.07764 0.86157 0.47581 0.0
C524 C 0.05411 0.8512 0.43142 0.0
H525 H 0.2475 0.93318 0.31844 0.0
C526 C 0.24446 0.9615 0.33484 0.0
H527 H 0.20056 0.98214 0.36975 0.0
H528 H 0.02301 0.83074 0.24958 0.0
H529 H 0.06939 0.85774 0.17654 0.0
H530 H 0.15608 0.90999 0.18054 0.0
H531 H 0.19676 0.93452 0.25702 0.0
C532 C 0.20267 0.95388 0.35187 0.0
C533 C 0.15641 0.90982 0.34725 0.0
C534 C 0.13344 0.89603 0.30164 0.0
C535 C 0.08328 0.86736 0.29925 0.0
C536 C 0.06091 0.85354 0.25343 0.0
C537 C 0.0871 0.86863 0.21121 0.0
C538 C 0.13588 0.89795 0.21346 0.0
C539 C 0.15891 0.9118 0.25796 0.0
H540 H 0.87614 0.02358 0.27254 0.0
C541 C 0.85691 0.03907 0.28872 0.0
H542 H 0.7939 0.02643 0.32267 0.0
H543 H 0.76567 0.83081 0.21324 0.0
H544 H 0.77261 0.87255 0.13868 0.0
H545 H 0.78607 0.95353 0.13935 0.0
H546 H 0.7933 0.99347 0.21503 0.0
C547 C 0.81333 0.01117 0.30648 0.0
C548 C 0.79153 0.95902 0.30556 0.0
C549 C 0.78443 0.93518 0.26112 0.0
C550 C 0.77465 0.8878 0.26077 0.0
C551 C 0.77168 0.8662 0.21588 0.0
C552 C 0.77576 0.88986 0.17267 0.0
C553 C 0.78339 0.93548 0.17304 0.0
C554 C 0.78778 0.95809 0.21665 0.0
H555 H 0.71059 0.77268 0.27451 0.0
C556 C 0.74379 0.77895 0.29066 0.0
H557 H 0.80825 0.82778 0.32438 0.0
H558 H 0.79263 0.99146 0.39658 0.0
H559 H 0.77605 0.94668 0.47104 0.0
H560 H 0.755 0.8632 0.47016 0.0
H561 H 0.7513 0.8242 0.39469 0.0
C562 C 0.77567 0.82199 0.30708 0.0
C563 C 0.76975 0.86392 0.30504 0.0
C564 C 0.77012 0.88571 0.34903 0.0
C565 C 0.78133 0.93349 0.3494 0.0
C566 C 0.78379 0.95505 0.39416 0.0
C567 C 0.77436 0.92975 0.43716 0.0
C568 C 0.76264 0.88278 0.4367 0.0
C569 C 0.76075 0.86089 0.39326 0.0
H570 H 0.10729 0.19382 0.75656 0.0
C571 C 0.13523 0.22783 0.76932 0.0
H572 H 0.20668 0.26791 0.7925 0.0
H573 H 0.21818 0.0867 0.85214 0.0
H574 H 0.20706 0.11109 0.93054 0.0
H575 H 0.18836 0.17491 0.93844 0.0
H576 H 0.18014 0.21426 0.86764 0.0
C577 C 0.17861 0.23431 0.77907 0.0
C578 C 0.18986 0.19597 0.77376 0.0
C579 C 0.19606 0.17438 0.81549 0.0
C580 C 0.2083 0.13863 0.81095 0.0
C581 C 0.21124 0.11563 0.85327 0.0
C582 C 0.20437 0.12891 0.89865 0.0
C583 C 0.19375 0.16476 0.90309 0.0
C584 C 0.18931 0.18716 0.86214 0.0
H585 H 0.29505 0.12533 0.79565 0.0
C586 C 0.2696 0.09312 0.7775 0.0
H587 H 0.20353 0.05627 0.74145 0.0
H588 H 0.18225 0.23158 0.68645 0.0
H589 H 0.19279 0.20687 0.60767 0.0
H590 H 0.21337 0.14434 0.59967 0.0
H591 H 0.2236 0.1063 0.67042 0.0
C592 C 0.2291 0.08866 0.75932 0.0
C593 C 0.21605 0.12584 0.76456 0.0
C594 C 0.20882 0.14677 0.72279 0.0
C595 C 0.19619 0.18225 0.72738 0.0
C596 C 0.19093 0.2038 0.68509 0.0
C597 C 0.19706 0.19008 0.6396 0.0
C598 C 0.20869 0.15493 0.63509 0.0
C599 C 0.21456 0.13343 0.67604 0.0
H600 H 0.08592 0.85313 0.84329 0.0
C601 C 0.10837 0.88183 0.81911 0.0
H602 H 0.10929 0.92308 0.75948 0.0
H603 H 0.90331 0.72335 0.75154 0.0
H604 H 0.9505 0.69335 0.71583 0.0
H605 H 0.037 0.74411 0.70745 0.0
H606 H 0.07685 0.82506 0.73537 0.0
C607 C 0.08813 0.89578 0.78546 0.0
C608 C 0.03576 0.86955 0.78012 0.0
C609 C 1.01273 0.82312 0.76137 0.0
C610 C 0.96272 0.7944 0.76466 0.0
C611 C 0.94101 0.7472 0.74856 0.0
C612 C 0.96773 0.72945 0.72819 0.0
C613 C 1.01644 0.75798 0.72358 0.0
C614 C 0.03888 0.80427 0.73997 0.0
H615 H 0.86537 0.77417 0.71886 0.0
C616 C 0.85297 0.76845 0.75581 0.0
H617 H 0.87166 0.77944 0.82943 0.0
H618 H 0.069 0.95867 0.8139 0.0
H619 H 0.0217 0.99064 0.84558 0.0
H620 H 0.93456 0.94214 0.84847 0.0
H621 H 0.89418 0.86138 0.82032 0.0
C622 C 0.88413 0.78271 0.79265 0.0
C623 C 0.93585 0.81295 0.785 0.0
C624 C 0.95869 0.86057 0.80049 0.0
C625 C 1.00879 0.88883 0.79819 0.0
C626 C 0.03094 0.93582 0.81494 0.0
C627 C 1.00425 0.95457 0.8331 0.0
C628 C 0.95518 0.92725 0.83475 0.0
C629 C 0.93246 0.88085 0.8186 0.0
H630 H 0.9085 0.17152 0.72495 0.0
C631 C 0.92767 0.18079 0.75904 0.0
H632 H 0.94374 0.15626 0.82297 0.0
H633 H 0.75041 0.95959 0.75737 0.0
H634 H 0.70746 1.00165 0.76708 0.0
H635 H 0.75001 0.08704 0.78318 0.0
H636 H 0.83582 0.131 0.78869 0.0
C637 C 0.92222 0.14682 0.79027 0.0
C638 C 0.89567 0.09584 0.77775 0.0
C639 C 0.84551 0.07054 0.77602 0.0
C640 C 0.8209 0.02089 0.76902 0.0
C641 C 0.77083 0.99687 0.765 0.0
C642 C 0.74574 0.02068 0.77003 0.0
C643 C 0.76971 0.06877 0.77893 0.0
C644 C 0.819 0.09361 0.7819 0.0
H645 H 0.79174 0.93848 0.83444 0.0
C646 C 0.79399 0.91933 0.80374 0.0
H647 H 0.82252 0.92541 0.73436 0.0
H648 H 0.99196 0.13447 0.77268 0.0
H649 H 0.03478 0.09251 0.76101 0.0
H650 H 0.99202 1.00624 0.75125 0.0
H651 H 0.90612 0.96119 0.75391 0.0
C652 C 0.8208 0.94369 0.76608 0.0
C653 C 0.84647 0.99632 0.76605 0.0
C654 C 0.89659 0.02201 0.76473 0.0
C655 C 0.92122 0.07178 0.77058 0.0
C656 C 0.97141 0.09657 0.76911 0.0
C657 C 0.99645 0.07295 0.76224 0.0
C658 C 0.97237 0.02436 0.75681 0.0
C659 C 0.92306 0.99895 0.7583 0.0
loop_
_geom_bond_atom_site_label_1
_geom_bond_atom_site_label_2
_geom_bond_distance
_geom_bond_site_symmetry_2
_ccdc_geom_bond_type
Dy0 O4 2.398 . S
Dy0 O5 2.491 . S
Dy0 O6 2.403 . S
Dy0 O7 2.664 . S
Dy0 O11 2.326 . S
Dy0 O15 2.310 . S
Dy0 O16 2.351 . S
C1 O12 1.185 . S
C1 O13 1.355 . S
C2 O4 1.185 . S
C2 O5 1.355 . S
Dy3 O7 2.310 . S
Dy3 O10 2.351 . S
Dy3 O12 2.398 . S
Dy3 O13 2.491 . S
Dy3 O14 2.403 . S
Dy3 O15 2.664 . S
Dy3 O17 2.326 . S
O4 Dy0 2.398 . S
O4 C2 1.185 . S
O5 Dy0 2.491 . S
O5 C2 1.355 . S
O6 Dy0 2.403 . S
O6 C8 1.254 . S
O7 Dy0 2.664 . S
O7 Dy3 2.310 . S
O7 C8 1.268 . S
C8 O6 1.254 . S
C8 O7 1.268 . S
C9 O14 1.254 . S
C9 O15 1.268 . S
O10 Dy3 2.351 . S
O10 C18 1.249 . S
O11 Dy0 2.326 . S
O11 C18 1.267 . S
O12 C1 1.185 . S
O12 Dy3 2.398 . S
O13 C1 1.355 . S
O13 Dy3 2.491 . S
O14 Dy3 2.403 . S
O14 C9 1.254 . S
O15 Dy0 2.310 . S
O15 Dy3 2.664 . S
O15 C9 1.268 . S
O16 Dy0 2.351 . S
O16 C19 1.249 . S
O17 Dy3 2.326 . S
O17 C19 1.267 . S
C18 O10 1.249 . S
C18 O11 1.267 . S
C19 O16 1.249 . S
C19 O17 1.267 . S
Dy20 O24 2.398 . S
Dy20 O25 2.491 . S
Dy20 O26 2.403 . S
Dy20 O27 2.664 . S
Dy20 O31 2.326 . S
Dy20 O35 2.310 . S
Dy20 O36 2.351 . S
C21 O32 1.185 . S
C21 O33 1.355 . S
C22 O24 1.185 . S
C22 O25 1.355 . S
Dy23 O27 2.310 . S
Dy23 O30 2.351 . S
Dy23 O32 2.398 . S
Dy23 O33 2.491 . S
Dy23 O34 2.403 . S
Dy23 O35 2.664 . S
Dy23 O37 2.326 . S
O24 Dy20 2.398 . S
O24 C22 1.185 . S
O25 Dy20 2.491 . S
O25 C22 1.355 . S
O26 Dy20 2.403 . S
O26 C28 1.254 . S
O27 Dy20 2.664 . S
O27 Dy23 2.310 . S
O27 C28 1.268 . S
C28 O26 1.254 . S
C28 O27 1.268 . S
C29 O34 1.254 . S
C29 O35 1.268 . S
O30 Dy23 2.351 . S
O30 C38 1.249 . S
O31 Dy20 2.326 . S
O31 C38 1.267 . S
O32 C21 1.185 . S
O32 Dy23 2.398 . S
O33 C21 1.355 . S
O33 Dy23 2.491 . S
O34 Dy23 2.403 . S
O34 C29 1.254 . S
O35 Dy20 2.310 . S
O35 Dy23 2.664 . S
O35 C29 1.268 . S
O36 Dy20 2.351 . S
O36 C39 1.249 . S
O37 Dy23 2.326 . S
O37 C39 1.267 . S
C38 O30 1.249 . S
C38 O31 1.267 . S
C39 O36 1.249 . S
C39 O37 1.267 . S
Dy40 O44 2.398 . S
Dy40 O45 2.491 . S
Dy40 O46 2.403 . S
Dy40 O47 2.664 . S
Dy40 O51 2.326 . S
Dy40 O55 2.310 . S
Dy40 O56 2.351 . S
C41 O52 1.185 . S
C41 O53 1.355 . S
C42 O44 1.185 . S
C42 O45 1.355 . S
Dy43 O47 2.310 . S
Dy43 O50 2.351 . S
Dy43 O52 2.398 . S
Dy43 O53 2.491 . S
Dy43 O54 2.403 . S
Dy43 O55 2.664 . S
Dy43 O57 2.326 . S
O44 Dy40 2.398 . S
O44 C42 1.185 . S
O45 Dy40 2.491 . S
O45 C42 1.355 . S
O46 Dy40 2.403 . S
O46 C48 1.254 . S
O47 Dy40 2.664 . S
O47 Dy43 2.310 . S
O47 C48 1.268 . S
C48 O46 1.254 . S
C48 O47 1.268 . S
C49 O54 1.254 . S
C49 O55 1.268 . S
O50 Dy43 2.351 . S
O50 C58 1.249 . S
O51 Dy40 2.326 . S
O51 C58 1.267 . S
O52 C41 1.185 . S
O52 Dy43 2.398 . S
O53 C41 1.355 . S
O53 Dy43 2.491 . S
O54 Dy43 2.403 . S
O54 C49 1.254 . S
O55 Dy40 2.310 . S
O55 Dy43 2.664 . S
O55 C49 1.268 . S
O56 Dy40 2.351 . S
O56 C59 1.249 . S
O57 Dy43 2.326 . S
O57 C59 1.267 . S
C58 O50 1.249 . S
C58 O51 1.267 . S
C59 O56 1.249 . S
C59 O57 1.267 . S
Dy60 O64 2.398 1_455 S
Dy60 O65 2.491 1_455 S
Dy60 O66 2.403 . S
Dy60 O67 2.664 . S
Dy60 O71 2.326 . S
Dy60 O75 2.310 . S
Dy60 O76 2.351 . S
C61 O72 1.185 . S
C61 O73 1.355 . S
C62 O64 1.185 . S
C62 O65 1.355 . S
Dy63 O67 2.310 . S
Dy63 O70 2.351 . S
Dy63 O72 2.398 . S
Dy63 O73 2.491 . S
Dy63 O74 2.403 . S
Dy63 O75 2.664 . S
Dy63 O77 2.326 . S
O64 Dy60 2.398 1_655 S
O64 C62 1.185 . S
O65 Dy60 2.491 1_655 S
O65 C62 1.355 . S
O66 Dy60 2.403 . S
O66 C68 1.254 . S
O67 Dy60 2.664 . S
O67 Dy63 2.310 . S
O67 C68 1.268 . S
C68 O66 1.254 . S
C68 O67 1.268 . S
C69 O74 1.254 . S
C69 O75 1.268 . S
O70 Dy63 2.351 . S
O70 C78 1.249 . S
O71 Dy60 2.326 . S
O71 C78 1.267 . S
O72 C61 1.185 . S
O72 Dy63 2.398 . S
O73 C61 1.355 . S
O73 Dy63 2.491 . S
O74 Dy63 2.403 . S
O74 C69 1.254 . S
O75 Dy60 2.310 . S
O75 Dy63 2.664 . S
O75 C69 1.268 . S
O76 Dy60 2.351 . S
O76 C79 1.249 . S
O77 Dy63 2.326 . S
O77 C79 1.267 . S
C78 O70 1.249 . S
C78 O71 1.267 . S
C79 O76 1.249 . S
C79 O77 1.267 . S
Dy80 O84 2.398 1_565 S
Dy80 O85 2.491 1_565 S
Dy80 O86 2.403 . S
Dy80 O87 2.664 . S
Dy80 O91 2.326 . S
Dy80 O95 2.310 . S
Dy80 O96 2.351 . S
C81 O92 1.185 . S
C81 O93 1.355 . S
C82 O84 1.185 . S
C82 O85 1.355 . S
Dy83 O87 2.310 . S
Dy83 O90 2.351 . S
Dy83 O92 2.398 . S
Dy83 O93 2.491 . S
Dy83 O94 2.403 . S
Dy83 O95 2.664 . S
Dy83 O97 2.326 . S
O84 Dy80 2.398 1_545 S
O84 C82 1.185 . S
O85 Dy80 2.491 1_545 S
O85 C82 1.355 . S
O86 Dy80 2.403 . S
O86 C88 1.254 . S
O87 Dy80 2.664 . S
O87 Dy83 2.310 . S
O87 C88 1.268 . S
C88 O86 1.254 . S
C88 O87 1.268 . S
C89 O94 1.254 . S
C89 O95 1.268 . S
O90 Dy83 2.351 . S
O90 C98 1.249 . S
O91 Dy80 2.326 . S
O91 C98 1.267 . S
O92 C81 1.185 . S
O92 Dy83 2.398 . S
O93 C81 1.355 . S
O93 Dy83 2.491 . S
O94 Dy83 2.403 . S
O94 C89 1.254 . S
O95 Dy80 2.310 . S
O95 Dy83 2.664 . S
O95 C89 1.268 . S
O96 Dy80 2.351 . S
O96 C99 1.249 . S
O97 Dy83 2.326 . S
O97 C99 1.267 . S
C98 O90 1.249 . S
C98 O91 1.267 . S
C99 O96 1.249 . S
C99 O97 1.267 . S
Dy100 O104 2.398 . S
Dy100 O105 2.491 . S
Dy100 O106 2.403 . S
Dy100 O107 2.664 . S
Dy100 O111 2.326 . S
Dy100 O115 2.310 . S
Dy100 O116 2.351 . S
C101 O112 1.185 . S
C101 O113 1.355 . S
C102 O104 1.185 . S
C102 O105 1.355 . S
Dy103 O107 2.310 . S
Dy103 O110 2.351 . S
Dy103 O112 2.398 . S
Dy103 O113 2.491 . S
Dy103 O114 2.403 . S
Dy103 O115 2.664 . S
Dy103 O117 2.326 . S
O104 Dy100 2.398 . S
O104 C102 1.185 . S
O105 Dy100 2.491 . S
O105 C102 1.355 . S
O106 Dy100 2.403 . S
O106 C108 1.254 . S
O107 Dy100 2.664 . S
O107 Dy103 2.310 . S
O107 C108 1.268 . S
C108 O106 1.254 . S
C108 O107 1.268 . S
C109 O114 1.254 . S
C109 O115 1.268 . S
O110 Dy103 2.351 . S
O110 C118 1.249 . S
O111 Dy100 2.326 . S
O111 C118 1.267 . S
O112 C101 1.185 . S
O112 Dy103 2.398 . S
O113 C101 1.355 . S
O113 Dy103 2.491 . S
O114 Dy103 2.403 . S
O114 C109 1.254 . S
O115 Dy100 2.310 . S
O115 Dy103 2.664 . S
O115 C109 1.268 . S
O116 Dy100 2.351 . S
O116 C119 1.249 . S
O117 Dy103 2.326 . S
O117 C119 1.267 . S
C118 O110 1.249 . S
C118 O111 1.267 . S
C119 O116 1.249 . S
C119 O117 1.267 . S
H120 C121 0.951 . S
C121 H120 0.951 . S
C121 C127 1.265 . S
H122 C127 0.950 . S
H123 C131 0.949 . S
H124 C132 0.950 . S
H125 C133 0.951 . S
H126 C134 0.951 . S
C127 C121 1.265 . S
C127 H122 0.950 . S
C127 C128 1.478 . S
C128 C127 1.478 . S
C128 C129 1.397 1_565 S
C128 C145 1.394 . S
C129 C128 1.397 1_545 S
C129 C130 1.438 1_556 S
C129 C134 1.429 . S
C130 C129 1.438 1_554 S
C130 C131 1.428 . S
C130 C143 1.394 . S
C131 H123 0.949 . S
C131 C130 1.428 . S
C131 C132 1.345 1_554 S
C132 H124 0.950 . S
C132 C131 1.345 1_556 S
C132 C133 1.424 . S
C133 H125 0.951 . S
C133 C132 1.424 . S
C133 C134 1.347 . S
C134 H126 0.951 . S
C134 C129 1.429 . S
C134 C133 1.347 . S
H135 C136 0.951 . S
C136 H135 0.951 . S
C136 C142 1.265 . S
H137 C142 0.950 . S
H138 C146 0.949 . S
H139 C147 0.950 . S
H140 C148 0.951 . S
H141 C149 0.951 . S
C142 C136 1.265 . S
C142 H137 0.950 . S
C142 C143 1.478 . S
C143 C130 1.394 . S
C143 C142 1.478 . S
C143 C144 1.397 1_545 S
C144 C143 1.397 1_565 S
C144 C145 1.438 1_554 S
C144 C149 1.429 . S
C145 C128 1.394 . S
C145 C144 1.438 1_556 S
C145 C146 1.428 . S
C146 H138 0.949 . S
C146 C145 1.428 . S
C146 C147 1.345 1_556 S
C147 H139 0.950 . S
C147 C146 1.345 1_554 S
C147 C148 1.424 . S
C148 H140 0.951 . S
C148 C147 1.424 . S
C148 C149 1.347 . S
C149 H141 0.951 . S
C149 C144 1.429 . S
C149 C148 1.347 . S
H150 C151 0.951 . S
C151 H150 0.951 . S
C151 C157 1.265 . S
H152 C157 0.950 . S
H153 C161 0.949 . S
H154 C162 0.950 . S
H155 C163 0.951 . S
H156 C164 0.951 . S
C157 C151 1.265 . S
C157 H152 0.950 . S
C157 C158 1.478 . S
C158 C157 1.478 . S
C158 C159 1.397 . S
C158 C175 1.394 . S
C159 C158 1.397 . S
C159 C160 1.438 . S
C159 C164 1.429 . S
C160 C159 1.438 . S
C160 C161 1.428 . S
C160 C173 1.394 . S
C161 H153 0.949 . S
C161 C160 1.428 . S
C161 C162 1.345 . S
C162 H154 0.950 . S
C162 C161 1.345 . S
C162 C163 1.424 . S
C163 H155 0.951 . S
C163 C162 1.424 . S
C163 C164 1.347 . S
C164 H156 0.951 . S
C164 C159 1.429 . S
C164 C163 1.347 . S
H165 C166 0.951 . S
C166 H165 0.951 . S
C166 C172 1.265 . S
H167 C172 0.950 . S
H168 C176 0.949 . S
H169 C177 0.950 . S
H170 C178 0.951 . S
H171 C179 0.951 . S
C172 C166 1.265 . S
C172 H167 0.950 . S
C172 C173 1.478 . S
C173 C160 1.394 . S
C173 C172 1.478 . S
C173 C174 1.397 . S
C174 C173 1.397 . S
C174 C175 1.438 . S
C174 C179 1.429 . S
C175 C158 1.394 . S
C175 C174 1.438 . S
C175 C176 1.428 . S
C176 H168 0.949 . S
C176 C175 1.428 . S
C176 C177 1.345 . S
C177 H169 0.950 . S
C177 C176 1.345 . S
C177 C178 1.424 . S
C178 H170 0.951 . S
C178 C177 1.424 . S
C178 C179 1.347 . S
C179 H171 0.951 . S
C179 C174 1.429 . S
C179 C178 1.347 . S
H180 C181 0.951 . S
C181 H180 0.951 . S
C181 C187 1.265 . S
H182 C187 0.950 . S
H183 C191 0.949 1_455 S
H184 C192 0.950 . S
H185 C193 0.951 . S
H186 C194 0.951 . S
C187 C181 1.265 . S
C187 H182 0.950 . S
C187 C188 1.478 . S
C188 C187 1.478 . S
C188 C189 1.397 . S
C188 C205 1.394 1_655 S
C189 C188 1.397 . S
C189 C190 1.445 1_554 S
C189 C194 1.429 . S
C190 C189 1.445 1_556 S
C190 C191 1.422 . S
C190 C203 1.394 1_655 S
C191 H183 0.949 1_655 S
C191 C190 1.422 . S
C191 C192 1.345 . S
C192 H184 0.950 . S
C192 C191 1.345 . S
C192 C193 1.424 . S
C193 H185 0.951 . S
C193 C192 1.424 . S
C193 C194 1.347 1_556 S
C194 H186 0.951 . S
C194 C189 1.429 . S
C194 C193 1.347 1_554 S
H195 C196 0.951 . S
C196 H195 0.951 . S
C196 C202 1.265 . S
H197 C202 0.950 . S
H198 C206 0.949 1_655 S
H199 C207 0.950 . S
H200 C208 0.951 . S
H201 C209 0.951 . S
C202 C196 1.265 . S
C202 H197 0.950 . S
C202 C203 1.478 . S
C203 C190 1.394 1_455 S
C203 C202 1.478 . S
C203 C204 1.397 . S
C204 C203 1.397 . S
C204 C205 1.438 1_556 S
C204 C209 1.429 . S
C205 C188 1.394 1_455 S
C205 C204 1.438 1_554 S
C205 C206 1.428 . S
C206 H198 0.949 1_455 S
C206 C205 1.428 . S
C206 C207 1.345 . S
C207 H199 0.950 . S
C207 C206 1.345 . S
C207 C208 1.424 . S
C208 H200 0.951 . S
C208 C207 1.424 . S
C208 C209 1.347 1_554 S
C209 H201 0.951 . S
C209 C204 1.429 . S
C209 C208 1.347 1_556 S
H210 C211 0.951 . S
C211 H210 0.951 . S
C211 C217 1.265 . S
H212 C217 0.950 . S
H213 C221 0.949 . S
H214 C222 0.950 . S
H215 C223 0.951 . S
H216 C224 0.951 . S
C217 C211 1.265 . S
C217 H212 0.950 . S
C217 C218 1.478 . S
C218 C217 1.478 . S
C218 C219 1.397 1_545 S
C218 C235 1.394 . S
C219 C218 1.397 1_565 S
C219 C220 1.438 . S
C219 C224 1.429 . S
C220 C219 1.438 . S
C220 C221 1.428 . S
C220 C233 1.394 . S
C221 H213 0.949 . S
C221 C220 1.428 . S
C221 C222 1.345 . S
C222 H214 0.950 . S
C222 C221 1.345 . S
C222 C223 1.424 . S
C223 H215 0.951 . S
C223 C222 1.424 . S
C223 C224 1.347 . S
C224 H216 0.951 . S
C224 C219 1.429 . S
C224 C223 1.347 . S
H225 C226 0.951 . S
C226 H225 0.951 . S
C226 C232 1.265 . S
H227 C232 0.950 . S
H228 C236 0.949 . S
H229 C237 0.950 . S
H230 C238 0.951 . S
H231 C239 0.951 . S
C232 C226 1.265 . S
C232 H227 0.950 . S
C232 C233 1.478 . S
C233 C220 1.394 . S
C233 C232 1.478 . S
C233 C234 1.397 1_565 S
C234 C233 1.397 1_545 S
C234 C235 1.438 . S
C234 C239 1.429 . S
C235 C218 1.394 . S
C235 C234 1.438 . S
C235 C236 1.428 . S
C236 H228 0.949 . S
C236 C235 1.428 . S
C236 C237 1.345 . S
C237 H229 0.950 . S
C237 C236 1.345 . S
C237 C238 1.424 . S
C238 H230 0.951 . S
C238 C237 1.424 . S
C238 C239 1.347 . S
C239 H231 0.951 . S
C239 C234 1.429 . S
C239 C238 1.347 . S
H240 C241 0.951 . S
C241 H240 0.951 . S
C241 C247 1.265 . S
H242 C247 0.950 . S
H243 C251 0.949 . S
H244 C252 0.950 . S
H245 C253 0.951 . S
H246 C254 0.951 . S
C247 C241 1.265 . S
C247 H242 0.950 . S
C247 C248 1.478 . S
C248 C247 1.478 . S
C248 C249 1.397 . S
C248 C265 1.394 . S
C249 C248 1.397 . S
C249 C250 1.438 1_556 S
C249 C254 1.429 . S
C250 C249 1.438 1_554 S
C250 C251 1.428 . S
C250 C263 1.394 . S
C251 H243 0.949 . S
C251 C250 1.428 . S
C251 C252 1.345 . S
C252 H244 0.950 . S
C252 C251 1.345 . S
C252 C253 1.424 1_554 S
C253 H245 0.951 . S
C253 C252 1.424 1_556 S
C253 C254 1.347 . S
C254 H246 0.951 . S
C254 C249 1.429 . S
C254 C253 1.347 . S
H255 C256 0.951 . S
C256 H255 0.951 . S
C256 C262 1.265 . S
H257 C262 0.950 . S
H258 C266 0.949 . S
H259 C267 0.950 . S
H260 C268 0.951 . S
H261 C269 0.951 . S
C262 C256 1.265 . S
C262 H257 0.950 . S
C262 C263 1.478 . S
C263 C250 1.394 . S
C263 C262 1.478 . S
C263 C264 1.397 . S
C264 C263 1.397 . S
C264 C265 1.438 1_554 S
C264 C269 1.429 . S
C265 C248 1.394 . S
C265 C264 1.438 1_556 S
C265 C266 1.428 . S
C266 H258 0.949 . S
C266 C265 1.428 . S
C266 C267 1.345 . S
C267 H259 0.950 . S
C267 C266 1.345 . S
C267 C268 1.424 1_556 S
C268 H260 0.951 . S
C268 C267 1.424 1_554 S
C268 C269 1.347 . S
C269 H261 0.951 . S
C269 C264 1.429 . S
C269 C268 1.347 . S
H270 C271 0.951 . S
C271 H270 0.951 . S
C271 C277 1.265 . S
H272 C277 0.950 . S
H273 C281 0.949 . S
H274 C282 0.950 . S
H275 C283 0.946 . S
H276 C284 0.951 . S
C277 C271 1.265 . S
C277 H272 0.950 . S
C277 C278 1.478 . S
C278 C277 1.478 . S
C278 C279 1.397 . S
C278 C295 1.394 . S
C279 C278 1.397 . S
C279 C280 1.438 1_655 S
C279 C284 1.429 . S
C280 C279 1.438 1_455 S
C280 C281 1.428 . S
C280 C293 1.394 . S
C281 H273 0.949 . S
C281 C280 1.428 . S
C281 C282 1.345 . S
C282 H274 0.950 . S
C282 C281 1.345 . S
C282 C283 1.413 1_455 S
C283 H275 0.946 . S
C283 C282 1.413 1_655 S
C283 C284 1.363 . S
C284 H276 0.951 . S
C284 C279 1.429 . S
C284 C283 1.363 . S
H285 C286 0.951 . S
C286 H285 0.951 . S
C286 C292 1.265 . S
H287 C292 0.950 . S
H288 C296 0.949 . S
H289 C297 0.950 . S
H290 C298 0.957 1_455 S
H291 C299 0.951 . S
C292 C286 1.265 . S
C292 H287 0.950 . S
C292 C293 1.478 . S
C293 C280 1.394 . S
C293 C292 1.478 . S
C293 C294 1.397 . S
C294 C293 1.397 . S
C294 C295 1.438 1_455 S
C294 C299 1.429 . S
C295 C278 1.394 . S
C295 C294 1.438 1_655 S
C295 C296 1.428 . S
C296 H288 0.949 . S
C296 C295 1.428 . S
C296 C297 1.345 . S
C297 H289 0.950 . S
C297 C296 1.345 . S
C297 C298 1.436 . S
C298 H290 0.957 1_655 S
C298 C297 1.436 . S
C298 C299 1.329 1_655 S
C299 H291 0.951 . S
C299 C294 1.429 . S
C299 C298 1.329 1_455 S
H300 C301 0.951 . S
C301 H300 0.951 . S
C301 C307 1.265 . S
H302 C307 0.950 . S
H303 C311 0.949 . S
H304 C312 0.950 . S
H305 C313 0.951 . S
H306 C314 0.951 . S
C307 C301 1.265 . S
C307 H302 0.950 . S
C307 C308 1.478 . S
C308 C307 1.478 . S
C308 C309 1.397 . S
C308 C325 1.394 . S
C309 C308 1.397 . S
C309 C310 1.438 . S
C309 C314 1.429 . S
C310 C309 1.438 . S
C310 C311 1.428 . S
C310 C323 1.394 . S
C311 H303 0.949 . S
C311 C310 1.428 . S
C311 C312 1.345 . S
C312 H304 0.950 . S
C312 C311 1.345 . S
C312 C313 1.424 . S
C313 H305 0.951 . S
C313 C312 1.424 . S
C313 C314 1.347 . S
C314 H306 0.951 . S
C314 C309 1.429 . S
C314 C313 1.347 . S
H315 C316 0.951 . S
C316 H315 0.951 . S
C316 C322 1.265 . S
H317 C322 0.950 . S
H318 C326 0.949 . S
H319 C327 0.950 . S
H320 C328 0.951 . S
H321 C329 0.951 . S
C322 C316 1.265 . S
C322 H317 0.950 . S
C322 C323 1.478 . S
C323 C310 1.394 . S
C323 C322 1.478 . S
C323 C324 1.397 . S
C324 C323 1.397 . S
C324 C325 1.438 . S
C324 C329 1.429 . S
C325 C308 1.394 . S
C325 C324 1.438 . S
C325 C326 1.428 . S
C326 H318 0.949 . S
C326 C325 1.428 . S
C326 C327 1.345 . S
C327 H319 0.950 . S
C327 C326 1.345 . S
C327 C328 1.424 . S
C328 H320 0.951 . S
C328 C327 1.424 . S
C328 C329 1.347 . S
C329 H321 0.951 . S
C329 C324 1.429 . S
C329 C328 1.347 . S
H330 C331 0.951 . S
C331 H330 0.951 . S
C331 C337 1.265 . S
H332 C337 0.950 . S
H333 C341 0.949 . S
H334 C342 0.950 . S
H335 C343 0.951 . S
H336 C344 0.951 . S
C337 C331 1.265 . S
C337 H332 0.950 . S
C337 C338 1.478 . S
C338 C337 1.478 . S
C338 C339 1.397 . S
C338 C355 1.394 . S
C339 C338 1.397 . S
C339 C340 1.438 . S
C339 C344 1.429 . S
C340 C339 1.438 . S
C340 C341 1.428 . S
C340 C353 1.394 . S
C341 H333 0.949 . S
C341 C340 1.428 . S
C341 C342 1.345 . S
C342 H334 0.950 . S
C342 C341 1.345 . S
C342 C343 1.424 . S
C343 H335 0.951 . S
C343 C342 1.424 . S
C343 C344 1.347 . S
C344 H336 0.951 . S
C344 C339 1.429 . S
C344 C343 1.347 . S
H345 C346 0.951 . S
C346 H345 0.951 . S
C346 C352 1.265 . S
H347 C352 0.950 . S
H348 C356 0.949 . S
H349 C357 0.950 . S
H350 C358 0.951 . S
H351 C359 0.951 . S
C352 C346 1.265 . S
C352 H347 0.950 . S
C352 C353 1.478 . S
C353 C340 1.394 . S
C353 C352 1.478 . S
C353 C354 1.397 . S
C354 C353 1.397 . S
C354 C355 1.438 . S
C354 C359 1.429 . S
C355 C338 1.394 . S
C355 C354 1.438 . S
C355 C356 1.428 . S
C356 H348 0.949 . S
C356 C355 1.428 . S
C356 C357 1.345 . S
C357 H349 0.950 . S
C357 C356 1.345 . S
C357 C358 1.424 . S
C358 H350 0.951 . S
C358 C357 1.424 . S
C358 C359 1.347 . S
C359 H351 0.951 . S
C359 C354 1.429 . S
C359 C358 1.347 . S
H360 C361 0.951 . S
C361 H360 0.951 . S
C361 C367 1.265 . S
H362 C367 0.950 . S
H363 C371 0.949 . S
H364 C372 0.950 . S
H365 C373 0.951 . S
H366 C374 0.951 . S
C367 C361 1.265 . S
C367 H362 0.950 . S
C367 C368 1.478 . S
C368 C367 1.478 . S
C368 C369 1.397 . S
C368 C385 1.394 . S
C369 C368 1.397 . S
C369 C370 1.438 . S
C369 C374 1.429 . S
C370 C369 1.438 . S
C370 C371 1.428 . S
C370 C383 1.394 . S
C371 H363 0.949 . S
C371 C370 1.428 . S
C371 C372 1.345 . S
C372 H364 0.950 . S
C372 C371 1.345 . S
C372 C373 1.424 . S
C373 H365 0.951 . S
C373 C372 1.424 . S
C373 C374 1.347 . S
C374 H366 0.951 . S
C374 C369 1.429 . S
C374 C373 1.347 . S
H375 C376 0.951 . S
C376 H375 0.951 . S
C376 C382 1.265 . S
H377 C382 0.950 . S
H378 C386 0.949 . S
H379 C387 0.950 . S
H380 C388 0.951 . S
H381 C389 0.951 . S
C382 C376 1.265 . S
C382 H377 0.950 . S
C382 C383 1.478 . S
C383 C370 1.394 . S
C383 C382 1.478 . S
C383 C384 1.397 . S
C384 C383 1.397 . S
C384 C385 1.438 . S
C384 C389 1.429 . S
C385 C368 1.394 . S
C385 C384 1.438 . S
C385 C386 1.428 . S
C386 H378 0.949 . S
C386 C385 1.428 . S
C386 C387 1.345 . S
C387 H379 0.950 . S
C387 C386 1.345 . S
C387 C388 1.424 . S
C388 H380 0.951 . S
C388 C387 1.424 . S
C388 C389 1.347 . S
C389 H381 0.951 . S
C389 C384 1.429 . S
C389 C388 1.347 . S
H390 C391 0.951 . S
C391 H390 0.951 . S
C391 C397 1.265 . S
H392 C397 0.950 . S
H393 C401 0.949 . S
H394 C402 0.950 . S
H395 C403 0.951 . S
H396 C404 0.951 . S
C397 C391 1.265 . S
C397 H392 0.950 . S
C397 C398 1.478 . S
C398 C397 1.478 . S
C398 C399 1.397 . S
C398 C415 1.394 . S
C399 C398 1.397 . S
C399 C400 1.438 . S
C399 C404 1.429 . S
C400 C399 1.438 . S
C400 C401 1.428 . S
C400 C413 1.394 . S
C401 H393 0.949 . S
C401 C400 1.428 . S
C401 C402 1.345 . S
C402 H394 0.950 . S
C402 C401 1.345 . S
C402 C403 1.424 . S
C403 H395 0.951 . S
C403 C402 1.424 . S
C403 C404 1.347 . S
C404 H396 0.951 . S
C404 C399 1.429 . S
C404 C403 1.347 . S
H405 C406 0.951 . S
C406 H405 0.951 . S
C406 C412 1.265 . S
H407 C412 0.950 . S
H408 C416 0.949 . S
H409 C417 0.950 . S
H410 C418 0.951 . S
H411 C419 0.951 . S
C412 C406 1.265 . S
C412 H407 0.950 . S
C412 C413 1.478 . S
C413 C400 1.394 . S
C413 C412 1.478 . S
C413 C414 1.397 . S
C414 C413 1.397 . S
C414 C415 1.438 . S
C414 C419 1.429 . S
C415 C398 1.394 . S
C415 C414 1.438 . S
C415 C416 1.428 . S
C416 H408 0.949 . S
C416 C415 1.428 . S
C416 C417 1.345 . S
C417 H409 0.950 . S
C417 C416 1.345 . S
C417 C418 1.424 . S
C418 H410 0.951 . S
C418 C417 1.424 . S
C418 C419 1.347 . S
C419 H411 0.951 . S
C419 C414 1.429 . S
C419 C418 1.347 . S
H420 C421 0.951 . S
C421 H420 0.951 . S
C421 C427 1.265 . S
H422 C427 0.950 . S
H423 C431 0.949 . S
H424 C432 0.950 . S
H425 C433 0.951 . S
H426 C434 0.951 . S
C427 C421 1.265 . S
C427 H422 0.950 . S
C427 C428 1.478 . S
C428 C427 1.478 . S
C428 C429 1.397 . S
C428 C445 1.394 . S
C429 C428 1.397 . S
C429 C430 1.438 . S
C429 C434 1.429 . S
C430 C429 1.438 . S
C430 C431 1.428 . S
C430 C443 1.394 . S
C431 H423 0.949 . S
C431 C430 1.428 . S
C431 C432 1.345 . S
C432 H424 0.950 . S
C432 C431 1.345 . S
C432 C433 1.424 . S
C433 H425 0.951 . S
C433 C432 1.424 . S
C433 C434 1.347 . S
C434 H426 0.951 . S
C434 C429 1.429 . S
C434 C433 1.347 . S
H435 C436 0.951 . S
C436 H435 0.951 . S
C436 C442 1.265 . S
H437 C442 0.950 . S
H438 C446 0.949 . S
H439 C447 0.950 . S
H440 C448 0.951 . S
H441 C449 0.951 . S
C442 C436 1.265 . S
C442 H437 0.950 . S
C442 C443 1.478 . S
C443 C430 1.394 . S
C443 C442 1.478 . S
C443 C444 1.397 . S
C444 C443 1.397 . S
C444 C445 1.438 . S
C444 C449 1.429 . S
C445 C428 1.394 . S
C445 C444 1.438 . S
C445 C446 1.428 . S
C446 H438 0.949 . S
C446 C445 1.428 . S
C446 C447 1.345 . S
C447 H439 0.950 . S
C447 C446 1.345 . S
C447 C448 1.424 . S
C448 H440 0.951 . S
C448 C447 1.424 . S
C448 C449 1.347 . S
C449 H441 0.951 . S
C449 C444 1.429 . S
C449 C448 1.347 . S
H450 C451 0.951 . S
C451 H450 0.951 . S
C451 C457 1.265 . S
H452 C457 0.950 . S
H453 C461 0.949 . S
H454 C462 0.950 . S
H455 C463 0.951 . S
H456 C464 0.951 . S
C457 C451 1.265 . S
C457 H452 0.950 . S
C457 C458 1.478 . S
C458 C457 1.478 . S
C458 C459 1.397 . S
C458 C475 1.394 . S
C459 C458 1.397 . S
C459 C460 1.438 . S
C459 C464 1.429 . S
C460 C459 1.438 . S
C460 C461 1.428 . S
C460 C473 1.394 . S
C461 H453 0.949 . S
C461 C460 1.428 . S
C461 C462 1.345 . S
C462 H454 0.950 . S
C462 C461 1.345 . S
C462 C463 1.424 . S
C463 H455 0.951 . S
C463 C462 1.424 . S
C463 C464 1.347 . S
C464 H456 0.951 . S
C464 C459 1.429 . S
C464 C463 1.347 . S
H465 C466 0.951 . S
C466 H465 0.951 . S
C466 C472 1.265 . S
H467 C472 0.950 . S
H468 C476 0.949 . S
H469 C477 0.950 . S
H470 C478 0.951 . S
H471 C479 0.951 . S
C472 C466 1.265 . S
C472 H467 0.950 . S
C472 C473 1.478 . S
C473 C460 1.394 . S
C473 C472 1.478 . S
C473 C474 1.397 . S
C474 C473 1.397 . S
C474 C475 1.438 . S
C474 C479 1.429 . S
C475 C458 1.394 . S
C475 C474 1.438 . S
C475 C476 1.428 . S
C476 H468 0.949 . S
C476 C475 1.428 . S
C476 C477 1.345 . S
C477 H469 0.950 . S
C477 C476 1.345 . S
C477 C478 1.424 . S
C478 H470 0.951 . S
C478 C477 1.424 . S
C478 C479 1.347 . S
C479 H471 0.951 . S
C479 C474 1.429 . S
C479 C478 1.347 . S
H480 C481 0.951 . S
C481 H480 0.951 . S
C481 C487 1.265 . S
H482 C487 0.950 . S
H483 C491 0.949 . S
H484 C492 0.950 . S
H485 C493 0.951 . S
H486 C494 0.951 . S
C487 C481 1.265 . S
C487 H482 0.950 . S
C487 C488 1.478 . S
C488 C487 1.478 . S
C488 C489 1.397 . S
C488 C505 1.394 . S
C489 C488 1.397 . S
C489 C490 1.438 . S
C489 C494 1.429 . S
C490 C489 1.438 . S
C490 C491 1.428 . S
C490 C503 1.394 . S
C491 H483 0.949 . S
C491 C490 1.428 . S
C491 C492 1.345 . S
C492 H484 0.950 . S
C492 C491 1.345 . S
C492 C493 1.424 . S
C493 H485 0.951 . S
C493 C492 1.424 . S
C493 C494 1.347 . S
C494 H486 0.951 . S
C494 C489 1.429 . S
C494 C493 1.347 . S
H495 C496 0.950 1_655 S
C496 H495 0.950 1_455 S
C496 C502 1.267 . S
H497 C502 0.950 . S
H498 C506 0.949 . S
H499 C507 0.950 . S
H500 C508 0.951 . S
H501 C509 0.951 . S
C502 C496 1.267 . S
C502 H497 0.950 . S
C502 C503 1.478 . S
C503 C490 1.394 . S
C503 C502 1.478 . S
C503 C504 1.397 . S
C504 C503 1.397 . S
C504 C505 1.438 . S
C504 C509 1.429 . S
C505 C488 1.394 . S
C505 C504 1.438 . S
C505 C506 1.428 . S
C506 H498 0.949 . S
C506 C505 1.428 . S
C506 C507 1.345 . S
C507 H499 0.950 . S
C507 C506 1.345 . S
C507 C508 1.424 . S
C508 H500 0.951 . S
C508 C507 1.424 . S
C508 C509 1.347 . S
C509 H501 0.951 . S
C509 C504 1.429 . S
C509 C508 1.347 . S
H510 C511 0.951 . S
C511 H510 0.951 . S
C511 C517 1.265 . S
H512 C517 0.950 . S
H513 C521 0.949 . S
H514 C522 0.950 1_545 S
H515 C523 0.951 . S
H516 C524 0.951 . S
C517 C511 1.265 . S
C517 H512 0.950 . S
C517 C518 1.478 1_655 S
C518 C517 1.478 1_455 S
C518 C519 1.397 . S
C518 C535 1.394 . S
C519 C518 1.397 . S
C519 C520 1.438 . S
C519 C524 1.429 . S
C520 C519 1.438 . S
C520 C521 1.428 . S
C520 C533 1.394 . S
C521 H513 0.949 . S
C521 C520 1.428 . S
C521 C522 1.345 . S
C522 H514 0.950 1_565 S
C522 C521 1.345 . S
C522 C523 1.424 . S
C523 H515 0.951 . S
C523 C522 1.424 . S
C523 C524 1.347 . S
C524 H516 0.951 . S
C524 C519 1.429 . S
C524 C523 1.347 . S
H525 C526 0.948 1_545 S
C526 H525 0.948 1_565 S
C526 C532 1.267 . S
H527 C532 0.950 . S
H528 C536 0.949 1_655 S
H529 C537 0.950 . S
H530 C538 0.951 . S
H531 C539 0.951 . S
C532 C526 1.267 . S
C532 H527 0.950 . S
C532 C533 1.478 . S
C533 C520 1.394 . S
C533 C532 1.478 . S
C533 C534 1.397 . S
C534 C533 1.397 . S
C534 C535 1.438 . S
C534 C539 1.429 . S
C535 C518 1.394 . S
C535 C534 1.438 . S
C535 C536 1.428 . S
C536 H528 0.949 1_455 S
C536 C535 1.428 . S
C536 C537 1.345 . S
C537 H529 0.950 . S
C537 C536 1.345 . S
C537 C538 1.424 . S
C538 H530 0.951 . S
C538 C537 1.424 . S
C538 C539 1.347 . S
C539 H531 0.951 . S
C539 C534 1.429 . S
C539 C538 1.347 . S
H540 C541 0.951 . S
C541 H540 0.951 . S
C541 C547 1.265 . S
H542 C547 0.950 . S
H543 C551 0.949 . S
H544 C552 0.950 . S
H545 C553 0.951 . S
H546 C554 0.951 . S
C547 C541 1.265 . S
C547 H542 0.950 . S
C547 C548 1.478 1_545 S
C548 C547 1.478 1_565 S
C548 C549 1.397 . S
C548 C565 1.394 . S
C549 C548 1.397 . S
C549 C550 1.438 . S
C549 C554 1.429 . S
C550 C549 1.438 . S
C550 C551 1.428 . S
C550 C563 1.394 . S
C551 H543 0.949 . S
C551 C550 1.428 . S
C551 C552 1.345 . S
C552 H544 0.950 . S
C552 C551 1.345 . S
C552 C553 1.424 . S
C553 H545 0.951 . S
C553 C552 1.424 . S
C553 C554 1.347 . S
C554 H546 0.951 . S
C554 C549 1.429 . S
C554 C553 1.347 . S
H555 C556 0.951 . S
C556 H555 0.951 . S
C556 C562 1.265 . S
H557 C562 0.950 . S
H558 C566 0.949 1_545 S
H559 C567 0.950 . S
H560 C568 0.951 . S
H561 C569 0.951 . S
C562 C556 1.265 . S
C562 H557 0.950 . S
C562 C563 1.478 . S
C563 C550 1.394 . S
C563 C562 1.478 . S
C563 C564 1.397 . S
C564 C563 1.397 . S
C564 C565 1.438 . S
C564 C569 1.429 . S
C565 C548 1.394 . S
C565 C564 1.438 . S
C565 C566 1.428 . S
C566 H558 0.949 1_565 S
C566 C565 1.428 . S
C566 C567 1.345 . S
C567 H559 0.950 . S
C567 C566 1.345 . S
C567 C568 1.424 . S
C568 H560 0.951 . S
C568 C567 1.424 . S
C568 C569 1.347 . S
C569 H561 0.951 . S
C569 C564 1.429 . S
C569 C568 1.347 . S
H570 C571 0.951 . S
C571 H570 0.951 . S
C571 C577 1.265 . S
H572 C577 0.950 . S
H573 C581 0.949 . S
H574 C582 0.950 . S
H575 C583 0.951 . S
H576 C584 0.951 . S
C577 C571 1.265 . S
C577 H572 0.950 . S
C577 C578 1.478 . S
C578 C577 1.478 . S
C578 C579 1.397 . S
C578 C595 1.394 . S
C579 C578 1.397 . S
C579 C580 1.438 . S
C579 C584 1.429 . S
C580 C579 1.438 . S
C580 C581 1.428 . S
C580 C593 1.394 . S
C581 H573 0.949 . S
C581 C580 1.428 . S
C581 C582 1.345 . S
C582 H574 0.950 . S
C582 C581 1.345 . S
C582 C583 1.424 . S
C583 H575 0.951 . S
C583 C582 1.424 . S
C583 C584 1.347 . S
C584 H576 0.951 . S
C584 C579 1.429 . S
C584 C583 1.347 . S
H585 C586 0.951 . S
C586 H585 0.951 . S
C586 C592 1.265 . S
H587 C592 0.950 . S
H588 C596 0.949 . S
H589 C597 0.950 . S
H590 C598 0.951 . S
H591 C599 0.951 . S
C592 C586 1.265 . S
C592 H587 0.950 . S
C592 C593 1.478 . S
C593 C580 1.394 . S
C593 C592 1.478 . S
C593 C594 1.397 . S
C594 C593 1.397 . S
C594 C595 1.438 . S
C594 C599 1.429 . S
C595 C578 1.394 . S
C595 C594 1.438 . S
C595 C596 1.428 . S
C596 H588 0.949 . S
C596 C595 1.428 . S
C596 C597 1.345 . S
C597 H589 0.950 . S
C597 C596 1.345 . S
C597 C598 1.424 . S
C598 H590 0.951 . S
C598 C597 1.424 . S
C598 C599 1.347 . S
C599 H591 0.951 . S
C599 C594 1.429 . S
C599 C598 1.347 . S
H600 C601 0.951 . S
C601 H600 0.951 . S
C601 C607 1.265 . S
H602 C607 0.950 . S
H603 C611 0.949 . S
H604 C612 0.950 . S
H605 C613 0.951 1_455 S
H606 C614 0.951 . S
C607 C601 1.265 . S
C607 H602 0.950 . S
C607 C608 1.478 . S
C608 C607 1.478 . S
C608 C609 1.397 1_455 S
C608 C625 1.394 . S
C609 C608 1.397 1_655 S
C609 C610 1.438 . S
C609 C614 1.429 1_655 S
C610 C609 1.438 . S
C610 C611 1.428 . S
C610 C623 1.394 . S
C611 H603 0.949 . S
C611 C610 1.428 . S
C611 C612 1.345 . S
C612 H604 0.950 . S
C612 C611 1.345 . S
C612 C613 1.424 . S
C613 H605 0.951 1_655 S
C613 C612 1.424 . S
C613 C614 1.347 1_655 S
C614 H606 0.951 . S
C614 C609 1.429 1_455 S
C614 C613 1.347 1_455 S
H615 C616 0.951 . S
C616 H615 0.951 . S
C616 C622 1.265 . S
H617 C622 0.950 . S
H618 C626 0.949 . S
H619 C627 0.950 . S
H620 C628 0.951 . S
H621 C629 0.951 . S
C622 C616 1.265 . S
C622 H617 0.950 . S
C622 C623 1.478 . S
C623 C610 1.394 . S
C623 C622 1.478 . S
C623 C624 1.397 . S
C624 C623 1.397 . S
C624 C625 1.438 1_655 S
C624 C629 1.429 . S
C625 C608 1.394 . S
C625 C624 1.438 1_455 S
C625 C626 1.428 . S
C626 H618 0.949 . S
C626 C625 1.428 . S
C626 C627 1.345 . S
C627 H619 0.950 . S
C627 C626 1.345 . S
C627 C628 1.424 1_455 S
C628 H620 0.951 . S
C628 C627 1.424 1_655 S
C628 C629 1.347 . S
C629 H621 0.951 . S
C629 C624 1.429 . S
C629 C628 1.347 . S
H630 C631 0.951 . S
C631 H630 0.951 . S
C631 C637 1.265 . S
H632 C637 0.950 . S
H633 C641 0.949 . S
H634 C642 0.950 . S
H635 C643 0.951 . S
H636 C644 0.951 . S
C637 C631 1.265 . S
C637 H632 0.950 . S
C637 C638 1.478 . S
C638 C637 1.478 . S
C638 C639 1.397 . S
C638 C655 1.394 . S
C639 C638 1.397 . S
C639 C640 1.438 1_545 S
C639 C644 1.429 . S
C640 C639 1.438 1_565 S
C640 C641 1.428 . S
C640 C653 1.394 . S
C641 H633 0.949 . S
C641 C640 1.428 . S
C641 C642 1.345 . S
C642 H634 0.950 . S
C642 C641 1.345 . S
C642 C643 1.424 1_565 S
C643 H635 0.951 . S
C643 C642 1.424 1_545 S
C643 C644 1.347 . S
C644 H636 0.951 . S
C644 C639 1.429 . S
C644 C643 1.347 . S
H645 C646 0.951 . S
C646 H645 0.951 . S
C646 C652 1.265 . S
H647 C652 0.950 . S
H648 C656 0.949 . S
H649 C657 0.950 . S
H650 C658 0.951 1_565 S
H651 C659 0.951 . S
C652 C646 1.265 . S
C652 H647 0.950 . S
C652 C653 1.478 . S
C653 C640 1.394 . S
C653 C652 1.478 . S
C653 C654 1.397 1_565 S
C654 C653 1.397 1_545 S
C654 C655 1.438 . S
C654 C659 1.429 1_545 S
C655 C638 1.394 . S
C655 C654 1.438 . S
C655 C656 1.428 . S
C656 H648 0.949 . S
C656 C655 1.428 . S
C656 C657 1.345 . S
C657 H649 0.950 . S
C657 C656 1.345 . S
C657 C658 1.424 . S
C658 H650 0.951 1_545 S
C658 C657 1.424 . S
C658 C659 1.347 1_545 S
C659 H651 0.951 . S
C659 C654 1.429 1_565 S
C659 C658 1.347 1_565 S
C121 C88 1.944 . S
C136 C9 2.197 . S
C151 C109 2.167 . S
C166 C28 2.005 . S
C181 C49 2.203 . S
C196 C68 1.983 . S
C211 C8 1.950 . S
C226 C89 2.165 . S
C241 C108 2.005 . S
C256 C29 2.184 . S
C271 C48 1.899 . S
C286 C69 2.159 . S
C301 C2 1.679 . S
C316 C58 1.631 . S
C331 C22 1.683 . S
C346 C18 1.607 . S
C361 C42 1.679 . S
C376 C38 1.629 . S
C391 C79 1.639 . S
C406 C81 1.545 . S
C421 C99 1.642 . S
C436 C101 1.541 . S
C451 C61 1.542 . S
C466 C119 1.642 . S
C481 C1 0.896 . S
C496 C59 0.979 1_455 S
C511 C21 0.898 . S
C526 C19 0.978 1_565 S
C541 C41 1.068 . S
C556 C39 1.062 . S
C571 C78 1.069 . S
C586 C82 1.043 . S
C601 C98 0.947 . S
C616 C102 1.020 . S
C631 C62 1.019 . S
C646 C118 0.949 . S
