# Generated by pormake.
# Topology umq, (4)-cn, num edge types: 1
# Building blocks:
#     Node 0, Type 0, BuildingBlock: UXUYUI_clean_sbu_0, # of connection points: 4
#     Node 1, Type 0, BuildingBlock: UXUYUI_clean_sbu_0, # of connection points: 4
#     Node 2, Type 0, BuildingBlock: UXUYUI_clean_sbu_0, # of connection points: 4
#     Node 3, Type 0, BuildingBlock: UXUYUI_clean_sbu_0, # of connection points: 4
#     Node 4, Type 0, BuildingBlock: UXUYUI_clean_sbu_0, # of connection points: 4
#     Node 5, Type 0, BuildingBlock: UXUYUI_clean_sbu_0, # of connection points: 4
#     Node 6, Type 0, BuildingBlock: UXUYUI_clean_sbu_0, # of connection points: 4
#     Node 7, Type 0, BuildingBlock: UXUYUI_clean_sbu_0, # of connection points: 4
#     Node 8, Type 0, BuildingBlock: UXUYUI_clean_sbu_0, # of connection points: 4
#     Node 9, Type 0, BuildingBlock: UXUYUI_clean_sbu_0, # of connection points: 4
#     Node 10, Type 0, BuildingBlock: UXUYUI_clean_sbu_0, # of connection points: 4
#     Node 11, Type 0, BuildingBlock: UXUYUI_clean_sbu_0, # of connection points: 4
#     Node 12, Type 0, BuildingBlock: UXUYUI_clean_sbu_0, # of connection points: 4
#     Node 13, Type 0, BuildingBlock: UXUYUI_clean_sbu_0, # of connection points: 4
#     Node 14, Type 0, BuildingBlock: UXUYUI_clean_sbu_0, # of connection points: 4
#     Node 15, Type 0, BuildingBlock: UXUYUI_clean_sbu_0, # of connection points: 4
#     Node 16, Type 0, BuildingBlock: UXUYUI_clean_sbu_0, # of connection points: 4
#     Node 17, Type 0, BuildingBlock: UXUYUI_clean_sbu_0, # of connection points: 4
#     Node 18, Type 0, BuildingBlock: UXUYUI_clean_sbu_0, # of connection points: 4
#     Node 19, Type 0, BuildingBlock: UXUYUI_clean_sbu_0, # of connection points: 4
#     Node 20, Type 0, BuildingBlock: UXUYUI_clean_sbu_0, # of connection points: 4
#     Node 21, Type 0, BuildingBlock: UXUYUI_clean_sbu_0, # of connection points: 4
#     Node 22, Type 0, BuildingBlock: UXUYUI_clean_sbu_0, # of connection points: 4
#     Node 23, Type 0, BuildingBlock: UXUYUI_clean_sbu_0, # of connection points: 4
#     Node 24, Type 0, BuildingBlock: UXUYUI_clean_sbu_0, # of connection points: 4
#     Node 25, Type 0, BuildingBlock: UXUYUI_clean_sbu_0, # of connection points: 4
#     Node 26, Type 0, BuildingBlock: UXUYUI_clean_sbu_0, # of connection points: 4
#     Node 27, Type 0, BuildingBlock: UXUYUI_clean_sbu_0, # of connection points: 4
#     Node 28, Type 0, BuildingBlock: UXUYUI_clean_sbu_0, # of connection points: 4
#     Node 29, Type 0, BuildingBlock: UXUYUI_clean_sbu_0, # of connection points: 4
#     Node 30, Type 0, BuildingBlock: UXUYUI_clean_sbu_0, # of connection points: 4
#     Node 31, Type 0, BuildingBlock: UXUYUI_clean_sbu_0, # of connection points: 4
#     Edge 32, Type (0, 0), BuildingBlock: XIVTED_clean_linker_0, # of connection points: 2
#     Edge 33, Type (0, 0), BuildingBlock: XIVTED_clean_linker_0, # of connection points: 2
#     Edge 34, Type (0, 0), BuildingBlock: XIVTED_clean_linker_0, # of connection points: 2
#     Edge 35, Type (0, 0), BuildingBlock: XIVTED_clean_linker_0, # of connection points: 2
#     Edge 36, Type (0, 0), BuildingBlock: XIVTED_clean_linker_0, # of connection points: 2
#     Edge 37, Type (0, 0), BuildingBlock: XIVTED_clean_linker_0, # of connection points: 2
#     Edge 38, Type (0, 0), BuildingBlock: XIVTED_clean_linker_0, # of connection points: 2
#     Edge 39, Type (0, 0), BuildingBlock: XIVTED_clean_linker_0, # of connection points: 2
#     Edge 40, Type (0, 0), BuildingBlock: XIVTED_clean_linker_0, # of connection points: 2
#     Edge 41, Type (0, 0), BuildingBlock: XIVTED_clean_linker_0, # of connection points: 2
#     Edge 42, Type (0, 0), BuildingBlock: XIVTED_clean_linker_0, # of connection points: 2
#     Edge 43, Type (0, 0), BuildingBlock: XIVTED_clean_linker_0, # of connection points: 2
#     Edge 44, Type (0, 0), BuildingBlock: XIVTED_clean_linker_0, # of connection points: 2
#     Edge 45, Type (0, 0), BuildingBlock: XIVTED_clean_linker_0, # of connection points: 2
#     Edge 46, Type (0, 0), BuildingBlock: XIVTED_clean_linker_0, # of connection points: 2
#     Edge 47, Type (0, 0), BuildingBlock: XIVTED_clean_linker_0, # of connection points: 2
#     Edge 48, Type (0, 0), BuildingBlock: XIVTED_clean_linker_0, # of connection points: 2
#     Edge 49, Type (0, 0), BuildingBlock: XIVTED_clean_linker_0, # of connection points: 2
#     Edge 50, Type (0, 0), BuildingBlock: XIVTED_clean_linker_0, # of connection points: 2
#     Edge 51, Type (0, 0), BuildingBlock: XIVTED_clean_linker_0, # of connection points: 2
#     Edge 52, Type (0, 0), BuildingBlock: XIVTED_clean_linker_0, # of connection points: 2
#     Edge 53, Type (0, 0), BuildingBlock: XIVTED_clean_linker_0, # of connection points: 2
#     Edge 54, Type (0, 0), BuildingBlock: XIVTED_clean_linker_0, # of connection points: 2
#     Edge 55, Type (0, 0), BuildingBlock: XIVTED_clean_linker_0, # of connection points: 2
#     Edge 56, Type (0, 0), BuildingBlock: XIVTED_clean_linker_0, # of connection points: 2
#     Edge 57, Type (0, 0), BuildingBlock: XIVTED_clean_linker_0, # of connection points: 2
#     Edge 58, Type (0, 0), BuildingBlock: XIVTED_clean_linker_0, # of connection points: 2
#     Edge 59, Type (0, 0), BuildingBlock: XIVTED_clean_linker_0, # of connection points: 2
#     Edge 60, Type (0, 0), BuildingBlock: XIVTED_clean_linker_0, # of connection points: 2
#     Edge 61, Type (0, 0), BuildingBlock: XIVTED_clean_linker_0, # of connection points: 2
#     Edge 62, Type (0, 0), BuildingBlock: XIVTED_clean_linker_0, # of connection points: 2
#     Edge 63, Type (0, 0), BuildingBlock: XIVTED_clean_linker_0, # of connection points: 2
#     Edge 64, Type (0, 0), BuildingBlock: XIVTED_clean_linker_0, # of connection points: 2
#     Edge 65, Type (0, 0), BuildingBlock: XIVTED_clean_linker_0, # of connection points: 2
#     Edge 66, Type (0, 0), BuildingBlock: XIVTED_clean_linker_0, # of connection points: 2
#     Edge 67, Type (0, 0), BuildingBlock: XIVTED_clean_linker_0, # of connection points: 2
#     Edge 68, Type (0, 0), BuildingBlock: XIVTED_clean_linker_0, # of connection points: 2
#     Edge 69, Type (0, 0), BuildingBlock: XIVTED_clean_linker_0, # of connection points: 2
#     Edge 70, Type (0, 0), BuildingBlock: XIVTED_clean_linker_0, # of connection points: 2
#     Edge 71, Type (0, 0), BuildingBlock: XIVTED_clean_linker_0, # of connection points: 2
#     Edge 72, Type (0, 0), BuildingBlock: XIVTED_clean_linker_0, # of connection points: 2
#     Edge 73, Type (0, 0), BuildingBlock: XIVTED_clean_linker_0, # of connection points: 2
#     Edge 74, Type (0, 0), BuildingBlock: XIVTED_clean_linker_0, # of connection points: 2
#     Edge 75, Type (0, 0), BuildingBlock: XIVTED_clean_linker_0, # of connection points: 2
#     Edge 76, Type (0, 0), BuildingBlock: XIVTED_clean_linker_0, # of connection points: 2
#     Edge 77, Type (0, 0), BuildingBlock: XIVTED_clean_linker_0, # of connection points: 2
#     Edge 78, Type (0, 0), BuildingBlock: XIVTED_clean_linker_0, # of connection points: 2
#     Edge 79, Type (0, 0), BuildingBlock: XIVTED_clean_linker_0, # of connection points: 2
#     Edge 80, Type (0, 0), BuildingBlock: XIVTED_clean_linker_0, # of connection points: 2
#     Edge 81, Type (0, 0), BuildingBlock: XIVTED_clean_linker_0, # of connection points: 2
#     Edge 82, Type (0, 0), BuildingBlock: XIVTED_clean_linker_0, # of connection points: 2
#     Edge 83, Type (0, 0), BuildingBlock: XIVTED_clean_linker_0, # of connection points: 2
#     Edge 84, Type (0, 0), BuildingBlock: XIVTED_clean_linker_0, # of connection points: 2
#     Edge 85, Type (0, 0), BuildingBlock: XIVTED_clean_linker_0, # of connection points: 2
#     Edge 86, Type (0, 0), BuildingBlock: XIVTED_clean_linker_0, # of connection points: 2
#     Edge 87, Type (0, 0), BuildingBlock: XIVTED_clean_linker_0, # of connection points: 2
#     Edge 88, Type (0, 0), BuildingBlock: XIVTED_clean_linker_0, # of connection points: 2
#     Edge 89, Type (0, 0), BuildingBlock: XIVTED_clean_linker_0, # of connection points: 2
#     Edge 90, Type (0, 0), BuildingBlock: XIVTED_clean_linker_0, # of connection points: 2
#     Edge 91, Type (0, 0), BuildingBlock: XIVTED_clean_linker_0, # of connection points: 2
#     Edge 92, Type (0, 0), BuildingBlock: XIVTED_clean_linker_0, # of connection points: 2
#     Edge 93, Type (0, 0), BuildingBlock: XIVTED_clean_linker_0, # of connection points: 2
#     Edge 94, Type (0, 0), BuildingBlock: XIVTED_clean_linker_0, # of connection points: 2
#     Edge 95, Type (0, 0), BuildingBlock: XIVTED_clean_linker_0, # of connection points: 2
# Relax obj value: 0.152
# Max RMSD: 0.133
# Mean RMSD: 0.133
data_MOF--net-umq--node1-UXUYUI_clean_sbu_0--edge1-XIVTED_clean_linker_0
_symmetry_space_group_name_H-M    P1
_symmetry_Int_Tables_number       1
_symmetry_cell_setting            triclinic
loop_
_symmetry_equiv_pos_as_xyz
'x, y, z'
_cell_length_a     99.088149
_cell_length_b     99.060195
_cell_length_c     63.838953
_cell_angle_alpha  89.992042
_cell_angle_beta   90.005642
_cell_angle_gamma 89.99978
loop_
_atom_site_label
_atom_site_type_symbol
_atom_site_fract_x
_atom_site_fract_y
_atom_site_fract_z
_atom_type_partial_charge
Li0 Li 0.22356 0.10229 0.17731 0.0
Li1 Li 0.24883 0.10453 0.17406 0.0
Li2 Li 0.2357 0.09313 0.14752 0.0
Li3 Li 0.23953 0.08255 0.18001 0.0
C4 C 0.23487 0.11928 0.13827 0.0
N5 N 0.23614 0.13233 0.10007 0.0
C6 C 0.2473 0.12118 0.12837 0.0
C7 C 0.22308 0.12406 0.1288 0.0
C8 C 0.24773 0.12778 0.10904 0.0
C9 C 0.22394 0.13063 0.10947 0.0
C10 C 0.24284 0.10586 0.21512 0.0
C11 C 0.26068 0.11103 0.23957 0.0
N12 N 0.25295 0.12101 0.24794 0.0
C13 C 0.23504 0.11612 0.22406 0.0
C14 C 0.25574 0.10323 0.22304 0.0
C15 C 0.24034 0.12367 0.2406 0.0
C16 C 0.1997 0.10347 0.2011 0.0
N17 N 0.20783 0.11053 0.18792 0.0
C18 C 0.19447 0.13036 0.1923 0.0
C19 C 0.20543 0.1237 0.18333 0.0
C20 C 0.18601 0.12343 0.20631 0.0
C21 C 0.18866 0.10976 0.21055 0.0
H22 H 0.20198 0.09302 0.20457 0.0
H23 H 0.21228 0.12914 0.1732 0.0
C24 C 0.27576 0.11363 0.17111 0.0
N25 N 0.26337 0.11666 0.17888 0.0
C26 C 0.28652 0.12254 0.17389 0.0
C27 C 0.27156 0.13751 0.19271 0.0
C28 C 0.26104 0.12843 0.18918 0.0
C29 C 0.28454 0.13468 0.18491 0.0
H30 H 0.27724 0.10441 0.16235 0.0
H31 H 0.25099 0.13078 0.19466 0.0
C32 C 0.21317 0.07858 0.15082 0.0
N33 N 0.19551 0.06786 0.12173 0.0
C34 C 0.21714 0.06773 0.13824 0.0
C35 C 0.20018 0.08392 0.14869 0.0
C36 C 0.20808 0.06248 0.12359 0.0
C37 C 0.19141 0.07837 0.13389 0.0
C38 C 0.26171 0.07689 0.16121 0.0
C39 C 0.26031 0.06572 0.14801 0.0
C40 C 0.27146 0.0767 0.17703 0.0
C41 C 0.26865 0.0545 0.15094 0.0
C42 C 0.27959 0.06529 0.17948 0.0
N43 N 0.27802 0.05452 0.1665 0.0
C44 C 0.24609 0.08804 0.10734 0.0
C45 C 0.22292 0.09392 0.10713 0.0
C46 C 0.24625 0.08737 0.08553 0.0
N47 N 0.23453 0.09117 0.11769 0.0
C48 C 0.22263 0.09341 0.08528 0.0
C49 C 0.23443 0.09018 0.07417 0.0
H50 H 0.25531 0.08637 0.11599 0.0
H51 H 0.21398 0.09689 0.11561 0.0
C52 C 0.24562 0.06659 0.21532 0.0
N53 N 0.24213 0.06603 0.19474 0.0
C54 C 0.24751 0.05473 0.22673 0.0
C55 C 0.24221 0.04193 0.19557 0.0
C56 C 0.2403 0.05404 0.18482 0.0
C57 C 0.24579 0.0422 0.21683 0.0
H58 H 0.24681 0.07622 0.22295 0.0
H59 H 0.23735 0.05385 0.16855 0.0
O60 O 0.23422 0.1125 0.1569 0.0
O61 O 0.23784 0.09839 0.19882 0.0
O62 O 0.22186 0.08385 0.16532 0.0
O63 O 0.25346 0.08788 0.15885 0.0
H64 H 0.2565 0.11742 0.13537 0.0
H65 H 0.21335 0.12251 0.13611 0.0
H66 H 0.25727 0.12925 0.10113 0.0
H67 H 0.21489 0.13431 0.1019 0.0
H68 H 0.27068 0.10916 0.24574 0.0
H69 H 0.22503 0.11828 0.21827 0.0
H70 H 0.26192 0.09535 0.21636 0.0
H71 H 0.23443 0.13167 0.2476 0.0
H72 H 0.19294 0.14097 0.18894 0.0
H73 H 0.18235 0.10405 0.2212 0.0
H74 H 0.29619 0.12005 0.16703 0.0
H75 H 0.26949 0.14662 0.20149 0.0
H76 H 0.2272 0.06358 0.13946 0.0
H77 H 0.19693 0.09231 0.15828 0.0
H78 H 0.21106 0.05417 0.11363 0.0
H79 H 0.18135 0.08243 0.13203 0.0
H80 H 0.25271 0.06559 0.13585 0.0
H81 H 0.2727 0.08524 0.18738 0.0
H82 H 0.26761 0.04576 0.14093 0.0
H83 H 0.28713 0.06499 0.19173 0.0
H84 H 0.25557 0.08477 0.07766 0.0
H85 H 0.21337 0.09595 0.07718 0.0
H86 H 0.25031 0.05536 0.2431 0.0
H87 H 0.24059 0.03246 0.18746 0.0
Li88 Li 0.88971 0.22733 0.18009 0.0
Li89 Li 0.88934 0.252 0.17664 0.0
Li90 Li 0.90027 0.23756 0.1488 0.0
Li91 Li 0.91051 0.24111 0.18311 0.0
C92 C 0.86945 0.23411 0.14851 0.0
N93 N 0.84582 0.22574 0.12948 0.0
C94 C 0.85695 0.23791 0.15678 0.0
C95 C 0.86991 0.22611 0.13047 0.0
C96 C 0.84512 0.23357 0.14695 0.0
C97 C 0.85786 0.22196 0.12112 0.0
C98 C 0.8879 0.24723 0.2177 0.0
C99 C 0.88533 0.26599 0.24146 0.0
N100 N 0.87434 0.25989 0.25001 0.0
C101 C 0.87661 0.24112 0.22677 0.0
C102 C 0.89235 0.25974 0.22515 0.0
C103 C 0.86988 0.24769 0.24309 0.0
C104 C 0.88666 0.20649 0.20861 0.0
N105 N 0.8808 0.21192 0.1913 0.0
C106 C 0.86279 0.19593 0.1931 0.0
C107 C 0.86919 0.20675 0.18325 0.0
C108 C 0.86838 0.19038 0.2114 0.0
C109 C 0.88058 0.19568 0.21899 0.0
H110 H 0.89594 0.21077 0.21458 0.0
H111 H 0.86476 0.21107 0.1694 0.0
C112 C 0.8834 0.27955 0.1717 0.0
N113 N 0.87889 0.26794 0.18064 0.0
C114 C 0.87585 0.2914 0.17331 0.0
C115 C 0.85927 0.27919 0.19362 0.0
C116 C 0.86709 0.26756 0.19148 0.0
C117 C 0.86356 0.29127 0.18426 0.0
H118 H 0.89277 0.27956 0.16302 0.0
H119 H 0.86362 0.2582 0.19824 0.0
C120 C 0.91014 0.21129 0.15972 0.0
N121 N 0.91456 0.18596 0.14297 0.0
C122 C 0.92294 0.20541 0.16086 0.0
C123 C 0.89957 0.20427 0.15017 0.0
C124 C 0.92498 0.1926 0.15225 0.0
C125 C 0.90201 0.19148 0.14178 0.0
C126 C 0.91827 0.26194 0.16058 0.0
C127 C 0.9276 0.25952 0.1446 0.0
C128 C 0.92117 0.27149 0.17605 0.0
C129 C 0.93979 0.2666 0.14452 0.0
C130 C 0.93348 0.27834 0.17544 0.0
N131 N 0.94246 0.27577 0.15983 0.0
C132 C 0.89654 0.2456 0.10784 0.0
C133 C 0.9115 0.227 0.11065 0.0
C134 C 0.89796 0.2457 0.08612 0.0
N135 N 0.9032 0.23631 0.11957 0.0
C136 C 0.91311 0.22665 0.08893 0.0
C137 C 0.90629 0.2361 0.07641 0.0
H138 H 0.89007 0.25291 0.11543 0.0
H139 H 0.91693 0.21991 0.12032 0.0
C140 C 0.92805 0.24579 0.2173 0.0
N141 N 0.92742 0.24246 0.19668 0.0
C142 C 0.94053 0.24686 0.22729 0.0
C143 C 0.95143 0.24107 0.19459 0.0
C144 C 0.93874 0.23996 0.18531 0.0
C145 C 0.95241 0.24453 0.21586 0.0
H146 H 0.91888 0.24754 0.22601 0.0
H147 H 0.93788 0.23712 0.16901 0.0
O148 O 0.88114 0.2384 0.1578 0.0
O149 O 0.8946 0.24098 0.20168 0.0
O150 O 0.90803 0.22383 0.16805 0.0
O151 O 0.90639 0.25493 0.16116 0.0
H152 H 0.85637 0.24406 0.1707 0.0
H153 H 0.87945 0.2231 0.12372 0.0
H154 H 0.83539 0.23641 0.15323 0.0
H155 H 0.85809 0.21574 0.10719 0.0
H156 H 0.8886 0.2757 0.24729 0.0
H157 H 0.87299 0.23148 0.22118 0.0
H158 H 0.90104 0.26463 0.21826 0.0
H159 H 0.8611 0.24311 0.2502 0.0
H160 H 0.85332 0.19226 0.18682 0.0
H161 H 0.88533 0.19159 0.2329 0.0
H162 H 0.87954 0.30053 0.16595 0.0
H163 H 0.84976 0.27861 0.20191 0.0
H164 H 0.93122 0.21071 0.16826 0.0
H165 H 0.88961 0.20862 0.1493 0.0
H166 H 0.93484 0.18795 0.15296 0.0
H167 H 0.89392 0.18593 0.13433 0.0
H168 H 0.9255 0.25216 0.13251 0.0
H169 H 0.91403 0.2735 0.18849 0.0
H170 H 0.94714 0.26478 0.13232 0.0
H171 H 0.93591 0.28569 0.1874 0.0
H172 H 0.89243 0.25308 0.07699 0.0
H173 H 0.91976 0.2192 0.08202 0.0
H174 H 0.94088 0.24958 0.24371 0.0
H175 H 0.96035 0.23898 0.18535 0.0
Li176 Li 0.75922 0.89852 0.14655 0.0
Li177 Li 0.75473 0.91046 0.17906 0.0
Li178 Li 0.76913 0.88953 0.17821 0.0
Li179 Li 0.7444 0.88804 0.17419 0.0
C180 C 0.78122 0.9137 0.15201 0.0
N181 N 0.79856 0.92625 0.12428 0.0
C182 C 0.7804 0.92763 0.1488 0.0
C183 C 0.79098 0.90618 0.14136 0.0
C184 C 0.78923 0.93378 0.13466 0.0
C185 C 0.79961 0.9127 0.12733 0.0
C186 C 0.73037 0.91293 0.15691 0.0
C187 C 0.70904 0.92006 0.17137 0.0
N188 N 0.70785 0.92938 0.15583 0.0
C189 C 0.72884 0.92244 0.14091 0.0
C190 C 0.72032 0.91161 0.17212 0.0
C191 C 0.71742 0.93072 0.1407 0.0
C192 C 0.76332 0.88942 0.10535 0.0
N193 N 0.76175 0.90067 0.11725 0.0
C194 C 0.76406 0.91479 0.08709 0.0
C195 C 0.76196 0.91321 0.10858 0.0
C196 C 0.76582 0.90333 0.0744 0.0
C197 C 0.76538 0.89051 0.08382 0.0
H198 H 0.76284 0.87957 0.11255 0.0
H199 H 0.76053 0.92199 0.11837 0.0
C200 C 0.75618 0.92858 0.21246 0.0
N201 N 0.75278 0.92758 0.19191 0.0
C202 C 0.75543 0.94097 0.22272 0.0
C203 C 0.74805 0.95121 0.19031 0.0
C204 C 0.74883 0.93856 0.18072 0.0
C205 C 0.75142 0.95254 0.21159 0.0
H206 H 0.75966 0.91978 0.22086 0.0
H207 H 0.74667 0.9376 0.16422 0.0
C208 C 0.76428 0.86702 0.1548 0.0
N209 N 0.77588 0.84173 0.15177 0.0
C210 C 0.75749 0.8557 0.16252 0.0
C211 C 0.77688 0.86545 0.14528 0.0
C212 C 0.76354 0.843 0.1609 0.0
C213 C 0.78261 0.85259 0.14399 0.0
C214 C 0.74946 0.89288 0.21789 0.0
C215 C 0.75524 0.88362 0.23176 0.0
C216 C 0.73816 0.90032 0.22412 0.0
C217 C 0.74948 0.8818 0.25154 0.0
C218 C 0.73271 0.89821 0.24403 0.0
N219 N 0.73842 0.88906 0.2572 0.0
C220 C 0.79623 0.8878 0.1918 0.0
C221 C 0.78321 0.86802 0.19725 0.0
C222 C 0.80759 0.88158 0.20047 0.0
N223 N 0.7844 0.88091 0.19021 0.0
C224 C 0.79436 0.86132 0.20553 0.0
C225 C 0.8067 0.86813 0.20717 0.0
H226 H 0.79683 0.89812 0.1864 0.0
H227 H 0.77358 0.86294 0.19651 0.0
C228 C 0.71941 0.87648 0.16391 0.0
N229 N 0.72899 0.87705 0.17911 0.0
C230 C 0.70825 0.86799 0.16618 0.0
C231 C 0.71693 0.86102 0.19987 0.0
C232 C 0.72798 0.86952 0.19683 0.0
C233 C 0.70694 0.86002 0.18432 0.0
H234 H 0.72059 0.88243 0.14983 0.0
H235 H 0.73588 0.86981 0.20842 0.0
O236 O 0.77255 0.90747 0.16559 0.0
O237 O 0.74148 0.90473 0.15728 0.0
O238 O 0.75854 0.87955 0.1564 0.0
O239 O 0.75498 0.89476 0.19845 0.0
H240 H 0.77297 0.93361 0.15702 0.0
H241 H 0.79186 0.89543 0.14388 0.0
H242 H 0.78866 0.94454 0.13191 0.0
H243 H 0.80715 0.90699 0.11887 0.0
H244 H 0.70121 0.91917 0.18309 0.0
H245 H 0.73644 0.92349 0.12885 0.0
H246 H 0.72112 0.90406 0.18425 0.0
H247 H 0.71617 0.9382 0.12851 0.0
H248 H 0.7644 0.92486 0.08055 0.0
H249 H 0.76637 0.88138 0.07461 0.0
H250 H 0.758 0.94145 0.23918 0.0
H251 H 0.7452 0.95989 0.18099 0.0
H252 H 0.74768 0.85669 0.16978 0.0
H253 H 0.78222 0.87407 0.13904 0.0
H254 H 0.75843 0.83416 0.16691 0.0
H255 H 0.7924 0.85125 0.13679 0.0
H256 H 0.76405 0.87786 0.22729 0.0
H257 H 0.73377 0.90778 0.21384 0.0
H258 H 0.75381 0.87461 0.26239 0.0
H259 H 0.72397 0.9039 0.24904 0.0
H260 H 0.81699 0.88711 0.20168 0.0
H261 H 0.7933 0.85101 0.21092 0.0
H262 H 0.70097 0.86739 0.15357 0.0
H263 H 0.71632 0.85521 0.2142 0.0
Li264 Li 0.10569 0.77119 0.18244 0.0
Li265 Li 0.10773 0.7466 0.1782 0.0
Li266 Li 0.09669 0.76052 0.15029 0.0
Li267 Li 0.08562 0.75569 0.1835 0.0
C268 C 0.12606 0.76722 0.1505 0.0
N269 N 0.14721 0.77965 0.12987 0.0
C270 C 0.13924 0.76241 0.15293 0.0
C271 C 0.12364 0.77822 0.13734 0.0
C272 C 0.1498 0.76887 0.14245 0.0
C273 C 0.13446 0.7844 0.12709 0.0
C274 C 0.1076 0.75057 0.21928 0.0
C275 C 0.11057 0.7313 0.24191 0.0
N276 N 0.12098 0.73771 0.25159 0.0
C277 C 0.11826 0.75702 0.22956 0.0
C278 C 0.10364 0.73765 0.2256 0.0
C279 C 0.12492 0.75033 0.24583 0.0
C280 C 0.10612 0.79642 0.20311 0.0
N281 N 0.11394 0.78679 0.194 0.0
C282 C 0.13393 0.79916 0.2021 0.0
C283 C 0.1276 0.78788 0.19356 0.0
C284 C 0.12614 0.80932 0.2115 0.0
C285 C 0.11205 0.80784 0.21207 0.0
H286 H 0.09527 0.79519 0.20346 0.0
H287 H 0.13363 0.77987 0.18695 0.0
C288 C 0.11618 0.71939 0.17582 0.0
N289 N 0.11957 0.73187 0.18289 0.0
C290 C 0.12511 0.7086 0.17826 0.0
C291 C 0.14071 0.7237 0.19555 0.0
C292 C 0.13153 0.7342 0.19262 0.0
C293 C 0.13764 0.71071 0.18807 0.0
H294 H 0.10666 0.71788 0.16789 0.0
H295 H 0.13402 0.74427 0.19787 0.0
C296 C 0.08227 0.78476 0.16013 0.0
N297 N 0.0715 0.80762 0.14174 0.0
C298 C 0.06835 0.78581 0.15693 0.0
C299 C 0.09067 0.79546 0.15434 0.0
C300 C 0.06311 0.79741 0.1475 0.0
C301 C 0.08505 0.8069 0.14497 0.0
C302 C 0.08033 0.73447 0.15934 0.0
C303 C 0.07182 0.73596 0.14203 0.0
C304 C 0.07745 0.72466 0.17443 0.0
C305 C 0.06043 0.72772 0.14027 0.0
C306 C 0.06595 0.71664 0.17213 0.0
N307 N 0.05775 0.71833 0.15524 0.0
C308 C 0.10502 0.75658 0.10938 0.0
C309 C 0.08442 0.76867 0.11139 0.0
C310 C 0.10494 0.75744 0.08761 0.0
N311 N 0.09498 0.76232 0.12079 0.0
C312 C 0.08388 0.76969 0.08958 0.0
C313 C 0.09431 0.76412 0.07743 0.0
H314 H 0.11314 0.75133 0.11726 0.0
H315 H 0.07638 0.77285 0.12073 0.0
C316 C 0.06841 0.7513 0.21772 0.0
N317 N 0.06869 0.75283 0.19658 0.0
C318 C 0.05614 0.74963 0.22811 0.0
C319 C 0.04468 0.751 0.19473 0.0
C320 C 0.05717 0.7527 0.185 0.0
C321 C 0.04407 0.74957 0.2166 0.0
H322 H 0.07769 0.75158 0.22657 0.0
H323 H 0.05767 0.75409 0.16824 0.0
O324 O 0.11562 0.76098 0.16069 0.0
O325 O 0.10106 0.75689 0.20317 0.0
O326 O 0.08753 0.77349 0.1695 0.0
O327 O 0.09146 0.74252 0.16142 0.0
H328 H 0.14131 0.75382 0.16287 0.0
H329 H 0.1135 0.78183 0.13475 0.0
H330 H 0.16005 0.76531 0.14429 0.0
H331 H 0.1327 0.79292 0.11686 0.0
H332 H 0.10767 0.72126 0.24686 0.0
H333 H 0.1214 0.76704 0.22496 0.0
H334 H 0.09538 0.73255 0.21787 0.0
H335 H 0.13323 0.75517 0.25385 0.0
H336 H 0.14485 0.79977 0.2018 0.0
H337 H 0.10571 0.81546 0.21924 0.0
H338 H 0.12239 0.69883 0.17194 0.0
H339 H 0.15015 0.72579 0.20346 0.0
H340 H 0.06166 0.77773 0.16155 0.0
H341 H 0.1014 0.79505 0.15725 0.0
H342 H 0.05237 0.7983 0.14479 0.0
H343 H 0.09145 0.81523 0.14036 0.0
H344 H 0.07393 0.74346 0.13016 0.0
H345 H 0.08398 0.72333 0.18785 0.0
H346 H 0.05372 0.72882 0.12702 0.0
H347 H 0.06355 0.70908 0.18376 0.0
H348 H 0.11303 0.75275 0.07881 0.0
H349 H 0.07549 0.77491 0.08232 0.0
H350 H 0.05611 0.74846 0.24498 0.0
H351 H 0.0356 0.75121 0.18531 0.0
Li352 Li 0.23991 0.90984 0.31774 0.0
Li353 Li 0.23581 0.89789 0.3504 0.0
Li354 Li 0.24802 0.88723 0.32166 0.0
Li355 Li 0.22376 0.89138 0.31955 0.0
C356 C 0.26186 0.91381 0.33983 0.0
N357 N 0.27823 0.93633 0.34247 0.0
C358 C 0.26106 0.92234 0.35724 0.0
C359 C 0.27104 0.91672 0.32381 0.0
C360 C 0.26942 0.93367 0.35828 0.0
C361 C 0.2792 0.92817 0.32541 0.0
C362 C 0.21005 0.91264 0.33038 0.0
C363 C 0.18616 0.90995 0.33631 0.0
N364 N 0.18362 0.91912 0.32095 0.0
C365 C 0.2072 0.92205 0.31468 0.0
C366 C 0.19945 0.90656 0.34135 0.0
C367 C 0.19377 0.92519 0.31014 0.0
C368 C 0.24582 0.92818 0.28511 0.0
N369 N 0.24321 0.92703 0.30591 0.0
C370 C 0.24438 0.95093 0.31028 0.0
C371 C 0.2424 0.93805 0.31852 0.0
C372 C 0.24698 0.95248 0.28877 0.0
C373 C 0.24775 0.94087 0.27615 0.0
H374 H 0.24612 0.91926 0.27539 0.0
H375 H 0.24009 0.93681 0.33496 0.0
C376 C 0.24648 0.8954 0.39071 0.0
N377 N 0.23538 0.89954 0.37998 0.0
C378 C 0.24679 0.8962 0.4125 0.0
C379 C 0.22426 0.90559 0.4118 0.0
C380 C 0.22441 0.90464 0.38997 0.0
C381 C 0.23557 0.90134 0.42333 0.0
H382 H 0.25507 0.89143 0.38227 0.0
H383 H 0.21579 0.90799 0.38101 0.0
C384 C 0.2428 0.88767 0.28163 0.0
N385 N 0.25379 0.87226 0.24983 0.0
C386 C 0.23572 0.87659 0.27368 0.0
C387 C 0.25545 0.89094 0.27335 0.0
C388 C 0.24144 0.86893 0.2576 0.0
C389 C 0.26084 0.883 0.25731 0.0
C390 C 0.23318 0.87209 0.35701 0.0
C391 C 0.24479 0.86534 0.3637 0.0
C392 C 0.22156 0.87181 0.36944 0.0
C393 C 0.2446 0.85845 0.3828 0.0
C394 C 0.2218 0.86484 0.38846 0.0
N395 N 0.23321 0.85836 0.39469 0.0
C396 C 0.275 0.878 0.31804 0.0
C397 C 0.25813 0.86214 0.30865 0.0
C398 C 0.28511 0.86845 0.31457 0.0
N399 N 0.26183 0.87467 0.31513 0.0
C400 C 0.2679 0.85229 0.30496 0.0
C401 C 0.28159 0.85533 0.30819 0.0
H402 H 0.27763 0.88795 0.3236 0.0
H403 H 0.24756 0.85974 0.30676 0.0
C404 C 0.20258 0.89063 0.29039 0.0
N405 N 0.20742 0.8847 0.30805 0.0
C406 C 0.19135 0.88525 0.28019 0.0
C407 C 0.19011 0.86796 0.30687 0.0
C408 C 0.20138 0.87367 0.31653 0.0
C409 C 0.18511 0.87361 0.28822 0.0
H410 H 0.20771 0.89931 0.28389 0.0
H411 H 0.2056 0.86901 0.33035 0.0
O412 O 0.25362 0.90277 0.33837 0.0
O413 O 0.22312 0.90924 0.3348 0.0
O414 O 0.23748 0.89516 0.29762 0.0
O415 O 0.23325 0.87915 0.33859 0.0
H416 H 0.25395 0.92033 0.3697 0.0
H417 H 0.27171 0.91031 0.31014 0.0
H418 H 0.26887 0.94038 0.37161 0.0
H419 H 0.28627 0.93058 0.31306 0.0
H420 H 0.17786 0.90525 0.34456 0.0
H421 H 0.21526 0.9268 0.30594 0.0
H422 H 0.20147 0.89913 0.35337 0.0
H423 H 0.19142 0.93242 0.29798 0.0
H424 H 0.24383 0.95956 0.32064 0.0
H425 H 0.24944 0.94159 0.25943 0.0
H426 H 0.25565 0.89266 0.42078 0.0
H427 H 0.21548 0.90976 0.41953 0.0
H428 H 0.22598 0.87383 0.27999 0.0
H429 H 0.26112 0.8994 0.27943 0.0
H430 H 0.2361 0.8603 0.25135 0.0
H431 H 0.27065 0.88537 0.25085 0.0
H432 H 0.25391 0.86553 0.3544 0.0
H433 H 0.21254 0.87712 0.36464 0.0
H434 H 0.25354 0.85323 0.38822 0.0
H435 H 0.21292 0.86463 0.39831 0.0
H436 H 0.29551 0.87117 0.31761 0.0
H437 H 0.26474 0.84235 0.29987 0.0
H438 H 0.18777 0.88996 0.26592 0.0
H439 H 0.18576 0.85886 0.31339 0.0
Li440 Li 0.10585 0.22416 0.31504 0.0
Li441 Li 0.10812 0.2495 0.31989 0.0
Li442 Li 0.09757 0.23557 0.34591 0.0
Li443 Li 0.08608 0.23931 0.31394 0.0
C444 C 0.12326 0.23363 0.35447 0.0
N445 N 0.13569 0.23204 0.39313 0.0
C446 C 0.12802 0.24532 0.36425 0.0
C447 C 0.12494 0.22112 0.36424 0.0
C448 C 0.13426 0.24431 0.38382 0.0
C449 C 0.13122 0.22053 0.38382 0.0
C450 C 0.0982 0.24546 0.27686 0.0
C451 C 0.09144 0.26556 0.25831 0.0
N452 N 0.09033 0.25822 0.24038 0.0
C453 C 0.09696 0.23811 0.2583 0.0
C454 C 0.09541 0.25929 0.27692 0.0
C455 C 0.09299 0.24475 0.23999 0.0
C456 C 0.10674 0.20199 0.28784 0.0
N457 N 0.11386 0.2089 0.30252 0.0
C458 C 0.13278 0.19428 0.29824 0.0
C459 C 0.12661 0.20529 0.30793 0.0
C460 C 0.12578 0.18705 0.28273 0.0
C461 C 0.11256 0.19096 0.27764 0.0
H462 H 0.09659 0.20515 0.28393 0.0
H463 H 0.13204 0.21107 0.31956 0.0
C464 C 0.11829 0.27566 0.32635 0.0
N465 N 0.11946 0.26436 0.31446 0.0
C466 C 0.12705 0.28651 0.3232 0.0
C467 C 0.13781 0.27392 0.29535 0.0
C468 C 0.12886 0.26332 0.29907 0.0
C469 C 0.13707 0.28566 0.30767 0.0
H470 H 0.11075 0.27611 0.33858 0.0
H471 H 0.12948 0.25417 0.28985 0.0
C472 C 0.08375 0.21041 0.33804 0.0
N473 N 0.07467 0.18694 0.35677 0.0
C474 C 0.07012 0.20896 0.34326 0.0
C475 C 0.09272 0.19982 0.34207 0.0
C476 C 0.06575 0.19705 0.35281 0.0
C477 C 0.08794 0.18806 0.35162 0.0
C478 C 0.07977 0.25792 0.34446 0.0
C479 C 0.07028 0.24886 0.3525 0.0
C480 C 0.0775 0.27179 0.34619 0.0
C481 C 0.05867 0.25384 0.36219 0.0
C482 C 0.06576 0.27638 0.35599 0.0
N483 N 0.05666 0.26738 0.36372 0.0
C484 C 0.09732 0.24648 0.38621 0.0
C485 C 0.0935 0.22288 0.38645 0.0
C486 C 0.0966 0.24694 0.40801 0.0
N487 N 0.09573 0.23458 0.37586 0.0
C488 C 0.09269 0.22288 0.40827 0.0
C489 C 0.09427 0.23503 0.41934 0.0
H490 H 0.09938 0.25561 0.3775 0.0
H491 H 0.09252 0.2135 0.37815 0.0
C492 C 0.0625 0.22994 0.29553 0.0
N493 N 0.06919 0.24142 0.30068 0.0
C494 C 0.04969 0.23063 0.28661 0.0
C495 C 0.0511 0.255 0.2878 0.0
C496 C 0.06385 0.25383 0.29692 0.0
C497 C 0.04381 0.24328 0.28277 0.0
H498 H 0.06709 0.22022 0.29853 0.0
H499 H 0.06944 0.2628 0.30118 0.0
O500 O 0.11676 0.23448 0.33562 0.0
O501 O 0.10202 0.23913 0.29493 0.0
O502 O 0.08814 0.2219 0.32826 0.0
O503 O 0.09117 0.25331 0.33471 0.0
H504 H 0.12677 0.25509 0.35692 0.0
H505 H 0.1213 0.21198 0.35691 0.0
H506 H 0.1379 0.25329 0.39164 0.0
H507 H 0.13249 0.21093 0.39165 0.0
H508 H 0.0892 0.27625 0.25813 0.0
H509 H 0.09907 0.22738 0.25804 0.0
H510 H 0.09614 0.2651 0.29122 0.0
H511 H 0.09202 0.2392 0.22548 0.0
H512 H 0.14307 0.19172 0.30239 0.0
H513 H 0.10679 0.18559 0.26588 0.0
H514 H 0.12624 0.29528 0.33326 0.0
H515 H 0.14527 0.27292 0.28305 0.0
H516 H 0.06297 0.21693 0.3399 0.0
H517 H 0.10327 0.20069 0.33814 0.0
H518 H 0.05524 0.19583 0.357 0.0
H519 H 0.09479 0.17984 0.35497 0.0
H520 H 0.07189 0.23812 0.35133 0.0
H521 H 0.08472 0.27894 0.33995 0.0
H522 H 0.05126 0.24693 0.3685 0.0
H523 H 0.06386 0.2871 0.35742 0.0
H524 H 0.09814 0.2565 0.4159 0.0
H525 H 0.0908 0.21346 0.41637 0.0
H526 H 0.04446 0.22137 0.28265 0.0
H527 H 0.04685 0.26493 0.28515 0.0
Li528 Li 0.74438 0.10586 0.32458 0.0
Li529 Li 0.77013 0.10458 0.31706 0.0
Li530 Li 0.7553 0.08473 0.31653 0.0
Li531 Li 0.7605 0.09469 0.34827 0.0
C532 C 0.75105 0.0957 0.27945 0.0
N533 N 0.74475 0.08387 0.24152 0.0
C534 C 0.76128 0.09041 0.26682 0.0
C535 C 0.73764 0.09508 0.27277 0.0
C536 C 0.75788 0.08443 0.24771 0.0
C537 C 0.73466 0.08904 0.25353 0.0
C538 C 0.76193 0.12065 0.35822 0.0
C539 C 0.7762 0.13217 0.38305 0.0
N540 N 0.76561 0.13306 0.39654 0.0
C541 C 0.75117 0.12176 0.37226 0.0
C542 C 0.77454 0.12594 0.36358 0.0
C543 C 0.75324 0.12803 0.39158 0.0
C544 C 0.71924 0.11726 0.33627 0.0
N545 N 0.72919 0.11722 0.32163 0.0
C546 C 0.71805 0.13447 0.30209 0.0
C547 C 0.7288 0.12555 0.30474 0.0
C548 C 0.70764 0.13487 0.31704 0.0
C549 C 0.70828 0.12603 0.33425 0.0
H550 H 0.71988 0.11055 0.34961 0.0
H551 H 0.7369 0.1253 0.2934 0.0
C552 C 0.7941 0.10686 0.29348 0.0
N553 N 0.78466 0.11382 0.30453 0.0
C554 C 0.80476 0.1137 0.28386 0.0
C555 C 0.79579 0.13468 0.29739 0.0
C556 C 0.78526 0.12745 0.30658 0.0
C557 C 0.80568 0.1278 0.2858 0.0
H558 H 0.79333 0.096 0.29215 0.0
H559 H 0.7775 0.13271 0.31526 0.0
C560 C 0.73345 0.07825 0.33901 0.0
N561 N 0.71537 0.05703 0.33778 0.0
C562 C 0.73701 0.06569 0.34732 0.0
C563 C 0.72064 0.08006 0.33028 0.0
C564 C 0.72775 0.05507 0.34647 0.0
C565 C 0.71165 0.0692 0.32977 0.0
C566 C 0.78302 0.0807 0.3408 0.0
C567 C 0.78019 0.06853 0.35097 0.0
C568 C 0.79567 0.08674 0.3433 0.0
C569 C 0.79001 0.06271 0.36382 0.0
C570 C 0.80522 0.08058 0.35626 0.0
N571 N 0.80221 0.06881 0.36619 0.0
C572 C 0.76445 0.06039 0.29984 0.0
C573 C 0.74115 0.06393 0.29364 0.0
C574 C 0.76394 0.04798 0.28963 0.0
N575 N 0.75312 0.06799 0.30195 0.0
C576 C 0.74015 0.05151 0.28342 0.0
C577 C 0.75164 0.04329 0.28149 0.0
H578 H 0.77394 0.06399 0.30597 0.0
H579 H 0.73236 0.0703 0.29488 0.0
C580 C 0.75407 0.08645 0.38936 0.0
N581 N 0.76407 0.0918 0.3774 0.0
C582 C 0.75595 0.08465 0.41085 0.0
C583 C 0.77841 0.09387 0.40734 0.0
C584 C 0.77609 0.09551 0.38595 0.0
C585 C 0.76823 0.08847 0.42014 0.0
H586 H 0.74452 0.08382 0.3823 0.0
H587 H 0.78381 0.09997 0.37624 0.0
O588 O 0.75415 0.10134 0.29839 0.0
O589 O 0.76017 0.11425 0.33945 0.0
O590 O 0.74234 0.08879 0.33981 0.0
O591 O 0.77354 0.08655 0.32812 0.0
H592 H 0.7717 0.09077 0.27183 0.0
H593 H 0.7296 0.09904 0.28245 0.0
H594 H 0.76567 0.0802 0.23783 0.0
H595 H 0.72432 0.08841 0.2482 0.0
H596 H 0.78593 0.13623 0.38748 0.0
H597 H 0.74138 0.11763 0.36839 0.0
H598 H 0.78301 0.12505 0.35298 0.0
H599 H 0.74503 0.12887 0.40267 0.0
H600 H 0.71788 0.14099 0.28846 0.0
H601 H 0.70058 0.12612 0.34628 0.0
H602 H 0.81223 0.10803 0.27515 0.0
H603 H 0.79601 0.14556 0.29896 0.0
H604 H 0.74682 0.06416 0.35435 0.0
H605 H 0.71772 0.08968 0.32368 0.0
H606 H 0.7304 0.04528 0.35275 0.0
H607 H 0.70174 0.07042 0.32292 0.0
H608 H 0.77052 0.06365 0.34897 0.0
H609 H 0.79802 0.09615 0.33555 0.0
H610 H 0.78793 0.05334 0.37189 0.0
H611 H 0.81502 0.08519 0.35848 0.0
H612 H 0.77315 0.04219 0.28799 0.0
H613 H 0.73045 0.04832 0.2774 0.0
H614 H 0.74772 0.08069 0.42016 0.0
H615 H 0.78807 0.09687 0.41378 0.0
Li616 Li 0.90995 0.75583 0.31271 0.0
Li617 Li 0.89849 0.75985 0.34439 0.0
Li618 Li 0.88784 0.74586 0.31804 0.0
Li619 Li 0.89082 0.77139 0.31327 0.0
C620 C 0.91548 0.73696 0.34374 0.0
N621 N 0.93767 0.7266 0.36441 0.0
C622 C 0.92538 0.74562 0.35162 0.0
C623 C 0.91685 0.72303 0.34639 0.0
C624 C 0.93653 0.74019 0.36202 0.0
C625 C 0.92814 0.71798 0.35688 0.0
C626 C 0.91333 0.78458 0.33634 0.0
C627 C 0.91023 0.80711 0.34987 0.0
N628 N 0.92359 0.80768 0.35468 0.0
C629 C 0.92706 0.78546 0.34122 0.0
C630 C 0.90487 0.79555 0.34052 0.0
C631 C 0.93204 0.7972 0.35057 0.0
C632 C 0.93375 0.76447 0.29399 0.0
N633 N 0.92696 0.75321 0.29996 0.0
C634 C 0.94488 0.7391 0.28791 0.0
C635 C 0.93216 0.74066 0.297 0.0
C636 C 0.95226 0.75059 0.28202 0.0
C637 C 0.94651 0.7634 0.28501 0.0
H638 H 0.92923 0.7743 0.29627 0.0
H639 H 0.92645 0.73187 0.30174 0.0
C640 C 0.89704 0.7491 0.38452 0.0
N641 N 0.90023 0.76071 0.37431 0.0
C642 C 0.89779 0.74841 0.4063 0.0
C643 C 0.90518 0.77164 0.40679 0.0
C644 C 0.90421 0.7719 0.38498 0.0
C645 C 0.90195 0.75977 0.41776 0.0
H646 H 0.89378 0.74037 0.37569 0.0
H647 H 0.9066 0.78107 0.37676 0.0
C648 C 0.90033 0.75158 0.27532 0.0
N649 N 0.91367 0.74229 0.24017 0.0
C650 C 0.90529 0.76071 0.26052 0.0
C651 C 0.90211 0.73772 0.27223 0.0
C652 C 0.91202 0.75581 0.24286 0.0
C653 C 0.90889 0.73323 0.25435 0.0
C654 C 0.87272 0.76265 0.35225 0.0
C655 C 0.86655 0.75151 0.36166 0.0
C656 C 0.87217 0.77524 0.3621 0.0
C657 C 0.86009 0.75311 0.38096 0.0
C658 C 0.86564 0.77643 0.3814 0.0
N659 N 0.85979 0.76543 0.39036 0.0
C660 C 0.87614 0.72081 0.32706 0.0
C661 C 0.86928 0.73037 0.29472 0.0
C662 C 0.86777 0.70968 0.32386 0.0
N663 N 0.87662 0.73089 0.31267 0.0
C664 C 0.86088 0.71934 0.29075 0.0
C665 C 0.85994 0.70884 0.30552 0.0
H666 H 0.88212 0.72155 0.3412 0.0
H667 H 0.86997 0.73852 0.2835 0.0
C668 C 0.8903 0.79425 0.28708 0.0
N669 N 0.8831 0.78699 0.30127 0.0
C670 C 0.88443 0.80532 0.27706 0.0
C671 C 0.86414 0.80162 0.29737 0.0
C672 C 0.87031 0.79049 0.30669 0.0
C673 C 0.87116 0.80903 0.28211 0.0
H674 H 0.90053 0.79132 0.28336 0.0
H675 H 0.86483 0.78448 0.31799 0.0
O676 O 0.90449 0.74202 0.33341 0.0
O677 O 0.90835 0.77323 0.32685 0.0
O678 O 0.89407 0.75617 0.29304 0.0
O679 O 0.87942 0.7612 0.33364 0.0
H680 H 0.92444 0.75641 0.34979 0.0
H681 H 0.90926 0.71619 0.34035 0.0
H682 H 0.94426 0.74679 0.36821 0.0
H683 H 0.92934 0.70722 0.35903 0.0
H684 H 0.90377 0.81563 0.35329 0.0
H685 H 0.93384 0.77719 0.33776 0.0
H686 H 0.89426 0.79514 0.33673 0.0
H687 H 0.94263 0.79799 0.3545 0.0
H688 H 0.949 0.72905 0.28591 0.0
H689 H 0.95179 0.77249 0.28034 0.0
H690 H 0.89495 0.73911 0.41406 0.0
H691 H 0.90857 0.78061 0.41492 0.0
H692 H 0.90405 0.77145 0.2627 0.0
H693 H 0.89851 0.73052 0.28368 0.0
H694 H 0.91597 0.76276 0.23131 0.0
H695 H 0.91041 0.72254 0.25181 0.0
H696 H 0.86684 0.74171 0.35425 0.0
H697 H 0.87686 0.78398 0.35504 0.0
H698 H 0.85535 0.74455 0.38849 0.0
H699 H 0.86523 0.78609 0.38927 0.0
H700 H 0.86723 0.702 0.33589 0.0
H701 H 0.85523 0.71906 0.27624 0.0
H702 H 0.89013 0.81086 0.26541 0.0
H703 H 0.85383 0.80412 0.30146 0.0
Li704 Li 0.74265 0.88952 0.82065 0.0
Li705 Li 0.75912 0.89772 0.84639 0.0
Li706 Li 0.75304 0.91092 0.81423 0.0
Li707 Li 0.76718 0.89086 0.81133 0.0
C708 C 0.72868 0.90529 0.84599 0.0
N709 N 0.70261 0.90318 0.86099 0.0
C710 C 0.72637 0.90133 0.8667 0.0
C711 C 0.71774 0.90832 0.83298 0.0
C712 C 0.71311 0.9003 0.87398 0.0
C713 C 0.70464 0.90714 0.84083 0.0
C714 C 0.76418 0.86874 0.84206 0.0
C715 C 0.78425 0.85682 0.8528 0.0
N716 N 0.77646 0.84652 0.86005 0.0
C717 C 0.75639 0.85797 0.84942 0.0
C718 C 0.77824 0.86811 0.8436 0.0
C719 C 0.76278 0.84686 0.85854 0.0
C720 C 0.72106 0.87738 0.79857 0.0
N721 N 0.72678 0.87898 0.81775 0.0
C722 C 0.70999 0.865 0.83349 0.0
C723 C 0.72152 0.87299 0.83507 0.0
C724 C 0.70388 0.86306 0.81386 0.0
C725 C 0.70953 0.86942 0.79624 0.0
H726 H 0.72552 0.88217 0.78503 0.0
H727 H 0.72638 0.87433 0.85009 0.0
C728 C 0.76671 0.91118 0.88314 0.0
N729 N 0.76323 0.8989 0.87533 0.0
C730 C 0.76911 0.91278 0.90455 0.0
C731 C 0.76446 0.88902 0.90938 0.0
C732 C 0.76205 0.88791 0.88793 0.0
C733 C 0.76794 0.9016 0.91795 0.0
H734 H 0.76745 0.91977 0.87272 0.0
H735 H 0.75891 0.87835 0.88148 0.0
C736 C 0.74919 0.90178 0.77543 0.0
N737 N 0.74552 0.9149 0.73766 0.0
C738 C 0.75962 0.90215 0.7607 0.0
C739 C 0.73684 0.90794 0.77086 0.0
C740 C 0.75757 0.90886 0.74171 0.0
C741 C 0.73521 0.91458 0.75171 0.0
C742 C 0.78427 0.91113 0.83062 0.0
C743 C 0.79034 0.92171 0.8196 0.0
C744 C 0.79167 0.90419 0.84585 0.0
C745 C 0.8038 0.92497 0.82369 0.0
C746 C 0.8051 0.90777 0.84949 0.0
N747 N 0.81085 0.91798 0.83841 0.0
C748 C 0.74018 0.93632 0.8105 0.0
C749 C 0.75858 0.93267 0.78743 0.0
C750 C 0.73776 0.94897 0.80161 0.0
N751 N 0.75037 0.92844 0.80316 0.0
C752 C 0.75642 0.94513 0.77791 0.0
C753 C 0.74586 0.95341 0.78493 0.0
H754 H 0.73388 0.93274 0.82315 0.0
H755 H 0.76669 0.92625 0.78207 0.0
C756 C 0.7777 0.86946 0.7889 0.0
N757 N 0.78099 0.88195 0.79605 0.0
C758 C 0.78698 0.86198 0.7773 0.0
C759 C 0.80288 0.88037 0.78057 0.0
C760 C 0.79325 0.88754 0.79201 0.0
C761 C 0.79978 0.86742 0.77304 0.0
H762 H 0.76784 0.86531 0.79229 0.0
H763 H 0.79556 0.89757 0.79749 0.0
O764 O 0.74157 0.90618 0.83849 0.0
O765 O 0.75804 0.87968 0.83305 0.0
O766 O 0.75107 0.89543 0.79423 0.0
O767 O 0.77107 0.90787 0.82684 0.0
H768 H 0.73471 0.89899 0.877 0.0
H769 H 0.71936 0.91141 0.81692 0.0
H770 H 0.71117 0.89718 0.88993 0.0
H771 H 0.69607 0.90935 0.83089 0.0
H772 H 0.79512 0.85621 0.85409 0.0
H773 H 0.74551 0.8582 0.84816 0.0
H774 H 0.78447 0.87614 0.83753 0.0
H775 H 0.75686 0.8385 0.8644 0.0
H776 H 0.70611 0.8601 0.84742 0.0
H777 H 0.70509 0.86825 0.78085 0.0
H778 H 0.77181 0.92264 0.91056 0.0
H779 H 0.76319 0.88021 0.91924 0.0
H780 H 0.76923 0.89742 0.76396 0.0
H781 H 0.72867 0.90775 0.78208 0.0
H782 H 0.76557 0.9093 0.73021 0.0
H783 H 0.72575 0.91949 0.74804 0.0
H784 H 0.78475 0.92731 0.80794 0.0
H785 H 0.78708 0.89623 0.85494 0.0
H786 H 0.80865 0.93308 0.81518 0.0
H787 H 0.81094 0.90245 0.8612 0.0
H788 H 0.72952 0.95509 0.80742 0.0
H789 H 0.76302 0.94832 0.76532 0.0
H790 H 0.78424 0.85196 0.77199 0.0
H791 H 0.81258 0.88498 0.7774 0.0
Li792 Li 0.09881 0.75626 0.84801 0.0
Li793 Li 0.1072 0.74335 0.81939 0.0
Li794 Li 0.10674 0.76704 0.8156 0.0
Li795 Li 0.08552 0.75353 0.81426 0.0
C796 C 0.12474 0.76568 0.84825 0.0
N797 N 0.13934 0.78365 0.87251 0.0
C798 C 0.13777 0.7624 0.85501 0.0
C799 C 0.11915 0.77811 0.85399 0.0
C800 C 0.14498 0.77161 0.86723 0.0
C801 C 0.12669 0.78706 0.8662 0.0
C802 C 0.09073 0.72657 0.84024 0.0
C803 C 0.08243 0.70394 0.83512 0.0
N804 N 0.09176 0.6993 0.84901 0.0
C805 C 0.10015 0.72162 0.85461 0.0
C806 C 0.08173 0.71771 0.8305 0.0
C807 C 0.10055 0.70778 0.85876 0.0
C808 C 0.08576 0.76322 0.88581 0.0
N809 N 0.09715 0.75782 0.87741 0.0
C810 C 0.10677 0.75487 0.91137 0.0
C811 C 0.10749 0.75351 0.88967 0.0
C812 C 0.09526 0.76068 0.92054 0.0
C813 C 0.08461 0.76479 0.90748 0.0
H814 H 0.07762 0.76637 0.87564 0.0
H815 H 0.11632 0.74901 0.88259 0.0
C816 C 0.13128 0.72909 0.81857 0.0
N817 N 0.11806 0.72777 0.81334 0.0
C818 C 0.14006 0.71818 0.81682 0.0
C819 C 0.12171 0.70483 0.80293 0.0
C820 C 0.1132 0.71599 0.8053 0.0
C821 C 0.13524 0.70583 0.80919 0.0
H822 H 0.13498 0.73859 0.82444 0.0
H823 H 0.10268 0.71511 0.80119 0.0
C824 C 0.08291 0.78209 0.82752 0.0
N825 N 0.06986 0.80631 0.82044 0.0
C826 C 0.07909 0.78573 0.80723 0.0
C827 C 0.08022 0.79084 0.8442 0.0
C828 C 0.07245 0.79799 0.80398 0.0
C829 C 0.07359 0.80303 0.8403 0.0
C830 C 0.10242 0.74443 0.77851 0.0
C831 C 0.11403 0.74469 0.76609 0.0
C832 C 0.0925 0.7347 0.77467 0.0
C833 C 0.11554 0.7352 0.75007 0.0
C834 C 0.09437 0.72541 0.75846 0.0
N835 N 0.10576 0.72584 0.74661 0.0
C836 C 0.12703 0.77859 0.79227 0.0
C837 C 0.11265 0.79523 0.80684 0.0
C838 C 0.13454 0.78845 0.78197 0.0
N839 N 0.11613 0.78207 0.80396 0.0
C840 C 0.11997 0.80547 0.79696 0.0
C841 C 0.13094 0.80208 0.78407 0.0
H842 H 0.12992 0.76811 0.79107 0.0
H843 H 0.10426 0.79786 0.8168 0.0
C844 C 0.05753 0.74842 0.81539 0.0
N845 N 0.06785 0.75271 0.80307 0.0
C846 C 0.04436 0.74818 0.80758 0.0
C847 C 0.05278 0.75676 0.7746 0.0
C848 C 0.06577 0.75673 0.78298 0.0
C849 C 0.04187 0.75252 0.78699 0.0
H850 H 0.05953 0.74531 0.83134 0.0
H851 H 0.07421 0.75998 0.77349 0.0
O852 O 0.11753 0.75661 0.83646 0.0
O853 O 0.09026 0.74005 0.8358 0.0
O854 O 0.08947 0.77016 0.83111 0.0
O855 O 0.10076 0.75361 0.79436 0.0
H856 H 0.14227 0.7528 0.85104 0.0
H857 H 0.1091 0.78087 0.84921 0.0
H858 H 0.15505 0.76917 0.87256 0.0
H859 H 0.12246 0.7967 0.87069 0.0
H860 H 0.07559 0.69694 0.82763 0.0
H861 H 0.10719 0.72837 0.86222 0.0
H862 H 0.07437 0.72142 0.81937 0.0
H863 H 0.10786 0.70378 0.86971 0.0
H864 H 0.11509 0.7513 0.92086 0.0
H865 H 0.07558 0.76936 0.91388 0.0
H866 H 0.1505 0.71934 0.82153 0.0
H867 H 0.11767 0.69542 0.79701 0.0
H868 H 0.08149 0.77928 0.79409 0.0
H869 H 0.08332 0.7883 0.85996 0.0
H870 H 0.06944 0.80094 0.78834 0.0
H871 H 0.07145 0.80989 0.85305 0.0
H872 H 0.12182 0.75211 0.76871 0.0
H873 H 0.08358 0.7341 0.78435 0.0
H874 H 0.1245 0.73529 0.74037 0.0
H875 H 0.0868 0.71778 0.75542 0.0
H876 H 0.14317 0.78546 0.77265 0.0
H877 H 0.11695 0.81589 0.7991 0.0
H878 H 0.03619 0.74492 0.81766 0.0
H879 H 0.05131 0.75999 0.75855 0.0
Li880 Li 0.23964 0.09934 0.84453 0.0
Li881 Li 0.2546 0.10985 0.81625 0.0
Li882 Li 0.23 0.10852 0.81258 0.0
Li883 Li 0.24297 0.08867 0.8109 0.0
C884 C 0.23201 0.12894 0.83793 0.0
N885 N 0.21406 0.14997 0.84356 0.0
C886 C 0.2336 0.14095 0.8267 0.0
C887 C 0.22132 0.12764 0.85208 0.0
C888 C 0.22441 0.15146 0.82975 0.0
C889 C 0.21235 0.13839 0.8547 0.0
C890 C 0.26381 0.08084 0.83279 0.0
C891 C 0.2803 0.06567 0.81805 0.0
N892 N 0.27691 0.05623 0.83259 0.0
C893 C 0.26055 0.07103 0.84768 0.0
C894 C 0.27383 0.0782 0.81794 0.0
C895 C 0.26727 0.05863 0.84729 0.0
C896 C 0.23102 0.08689 0.88234 0.0
N897 N 0.23796 0.09735 0.87375 0.0
C898 C 0.24378 0.10576 0.90757 0.0
C899 C 0.24423 0.10673 0.8858 0.0
C900 C 0.23686 0.09496 0.91702 0.0
C901 C 0.23034 0.08549 0.9041 0.0
H902 H 0.22619 0.07955 0.87227 0.0
H903 H 0.24962 0.11495 0.87844 0.0
C904 C 0.26948 0.13175 0.80014 0.0
N905 N 0.2702 0.12047 0.81217 0.0
C906 C 0.2807 0.14017 0.79812 0.0
C907 C 0.29329 0.12488 0.82028 0.0
C908 C 0.28179 0.11683 0.822 0.0
C909 C 0.29279 0.13686 0.8085 0.0
H910 H 0.26011 0.13432 0.79243 0.0
H911 H 0.28204 0.10775 0.83141 0.0
C912 C 0.21509 0.08501 0.81691 0.0
N913 N 0.1935 0.07263 0.7974 0.0
C914 C 0.21446 0.08443 0.79507 0.0
C915 C 0.20475 0.0793 0.82884 0.0
C916 C 0.20346 0.07813 0.78549 0.0
C917 C 0.19391 0.07308 0.81869 0.0
C918 C 0.24897 0.10303 0.77203 0.0
C919 C 0.24016 0.10252 0.75492 0.0
C920 C 0.26289 0.10232 0.76863 0.0
C921 C 0.24543 0.10113 0.73474 0.0
C922 C 0.26776 0.10094 0.74821 0.0
N923 N 0.259 0.10037 0.73183 0.0
C924 C 0.2176 0.12563 0.78386 0.0
C925 C 0.20255 0.11717 0.8096 0.0
C926 C 0.20714 0.13259 0.77408 0.0
N927 N 0.21511 0.11802 0.80112 0.0
C928 C 0.19178 0.12408 0.8004 0.0
C929 C 0.19401 0.1318 0.78227 0.0
H930 H 0.22774 0.12629 0.77771 0.0
H931 H 0.20091 0.1111 0.82345 0.0
C932 C 0.23898 0.0607 0.81046 0.0
N933 N 0.24412 0.07097 0.79876 0.0
C934 C 0.23897 0.04752 0.80275 0.0
C935 C 0.24951 0.05568 0.77106 0.0
C936 C 0.24949 0.06865 0.7795 0.0
C937 C 0.24412 0.04496 0.78269 0.0
H938 H 0.2348 0.06279 0.82577 0.0
H939 H 0.25374 0.07677 0.77052 0.0
O940 O 0.24061 0.11837 0.83467 0.0
O941 O 0.25707 0.09288 0.83256 0.0
O942 O 0.22572 0.09117 0.8267 0.0
O943 O 0.24396 0.1046 0.79187 0.0
H944 H 0.24177 0.14208 0.8156 0.0
H945 H 0.21986 0.11836 0.86073 0.0
H946 H 0.22548 0.16078 0.82109 0.0
H947 H 0.204 0.1375 0.86551 0.0
H948 H 0.28801 0.06346 0.80656 0.0
H949 H 0.2528 0.0729 0.85925 0.0
H950 H 0.27649 0.08569 0.80634 0.0
H951 H 0.26478 0.0509 0.85863 0.0
H952 H 0.24874 0.11342 0.91688 0.0
H953 H 0.22501 0.07695 0.91071 0.0
H954 H 0.27977 0.14937 0.78907 0.0
H955 H 0.30243 0.12179 0.82824 0.0
H956 H 0.22238 0.08876 0.78561 0.0
H957 H 0.20508 0.07968 0.84578 0.0
H958 H 0.20286 0.0776 0.76859 0.0
H959 H 0.18582 0.06862 0.82773 0.0
H960 H 0.22936 0.10321 0.75717 0.0
H961 H 0.26988 0.10267 0.78159 0.0
H962 H 0.23872 0.10068 0.72139 0.0
H963 H 0.27851 0.10031 0.74538 0.0
H964 H 0.20933 0.13866 0.76038 0.0
H965 H 0.1818 0.12322 0.80717 0.0
H966 H 0.23468 0.03948 0.81214 0.0
H967 H 0.25375 0.05404 0.75563 0.0
Li968 Li 0.88856 0.25361 0.81991 0.0
Li969 Li 0.89921 0.2402 0.84742 0.0
Li970 Li 0.90921 0.24199 0.81281 0.0
Li971 Li 0.88867 0.22901 0.81848 0.0
C972 C 0.91809 0.26331 0.83321 0.0
N973 N 0.94303 0.27577 0.83175 0.0
C974 C 0.9273 0.26154 0.84957 0.0
C975 C 0.92153 0.27149 0.81617 0.0
C976 C 0.93986 0.26792 0.84854 0.0
C977 C 0.9342 0.27766 0.8157 0.0
C978 C 0.87383 0.24146 0.85835 0.0
C979 C 0.8671 0.23123 0.89102 0.0
N980 N 0.8627 0.24345 0.89792 0.0
C981 C 0.86922 0.25392 0.86576 0.0
C982 C 0.87273 0.23001 0.87105 0.0
C983 C 0.86362 0.25471 0.88581 0.0
C984 C 0.86416 0.26645 0.81249 0.0
N985 N 0.8776 0.26886 0.81409 0.0
C986 C 0.87424 0.29229 0.80694 0.0
C987 C 0.88278 0.28145 0.81148 0.0
C988 C 0.86025 0.29011 0.80524 0.0
C989 C 0.85526 0.27696 0.80813 0.0
H990 H 0.86034 0.25632 0.81476 0.0
H991 H 0.89352 0.28308 0.81287 0.0
C992 C 0.90756 0.22794 0.88541 0.0
N993 N 0.90284 0.23947 0.87656 0.0
C994 C 0.90959 0.22724 0.90702 0.0
C995 C 0.9021 0.2504 0.90984 0.0
C996 C 0.90031 0.25067 0.88819 0.0
C997 C 0.90671 0.23854 0.91958 0.0
H998 H 0.90968 0.21925 0.87572 0.0
H999 H 0.89666 0.25974 0.88064 0.0
C1000 C 0.88529 0.24793 0.7805 0.0
N1001 N 0.86934 0.26106 0.75141 0.0
C1002 C 0.87248 0.24293 0.7756 0.0
C1003 C 0.89 0.25959 0.77055 0.0
C1004 C 0.86457 0.24971 0.76084 0.0
C1005 C 0.88178 0.26609 0.75592 0.0
C1006 C 0.90817 0.21219 0.82634 0.0
C1007 C 0.91584 0.20775 0.80931 0.0
C1008 C 0.90135 0.20278 0.83878 0.0
C1009 C 0.91651 0.19394 0.80494 0.0
C1010 C 0.90226 0.18907 0.83387 0.0
N1011 N 0.90975 0.18497 0.81719 0.0
C1012 C 0.93731 0.24033 0.80939 0.0
C1013 C 0.92611 0.24474 0.77727 0.0
C1014 C 0.94984 0.24095 0.79953 0.0
N1015 N 0.92582 0.24244 0.79825 0.0
C1016 C 0.93843 0.2453 0.76671 0.0
C1017 C 0.95048 0.24351 0.77793 0.0
H1018 H 0.93671 0.23823 0.82599 0.0
H1019 H 0.9168 0.24614 0.76876 0.0
C1020 C 0.86706 0.21039 0.81937 0.0
N1021 N 0.87852 0.21394 0.8091 0.0
C1022 C 0.85878 0.20023 0.81139 0.0
C1023 C 0.87438 0.19745 0.78259 0.0
C1024 C 0.88235 0.20768 0.79112 0.0
C1025 C 0.8623 0.19377 0.79257 0.0
H1026 H 0.86412 0.21571 0.83341 0.0
H1027 H 0.89138 0.21095 0.78306 0.0
O1028 O 0.90583 0.25697 0.83377 0.0
O1029 O 0.8796 0.24052 0.83894 0.0
O1030 O 0.89304 0.24165 0.79532 0.0
O1031 O 0.90718 0.22567 0.83066 0.0
H1032 H 0.92485 0.2552 0.86283 0.0
H1033 H 0.9146 0.27283 0.80325 0.0
H1034 H 0.94711 0.26659 0.86104 0.0
H1035 H 0.93705 0.28391 0.80252 0.0
H1036 H 0.86629 0.22248 0.90107 0.0
H1037 H 0.87013 0.26292 0.85628 0.0
H1038 H 0.8764 0.22033 0.86569 0.0
H1039 H 0.86007 0.26429 0.89177 0.0
H1040 H 0.87855 0.30223 0.80467 0.0
H1041 H 0.84456 0.27481 0.80744 0.0
H1042 H 0.91339 0.21797 0.91379 0.0
H1043 H 0.89958 0.2593 0.91888 0.0
H1044 H 0.8686 0.23401 0.78328 0.0
H1045 H 0.89981 0.2637 0.77435 0.0
H1046 H 0.85462 0.24598 0.75697 0.0
H1047 H 0.88526 0.27517 0.74822 0.0
H1048 H 0.92112 0.21488 0.79944 0.0
H1049 H 0.89527 0.20605 0.85191 0.0
H1050 H 0.92236 0.19037 0.79176 0.0
H1051 H 0.89696 0.18169 0.84327 0.0
H1052 H 0.95891 0.23929 0.80864 0.0
H1053 H 0.93854 0.2473 0.75003 0.0
H1054 H 0.8496 0.19762 0.81968 0.0
H1055 H 0.87737 0.19288 0.76789 0.0
Li1056 Li 0.76773 0.10391 0.68209 0.0
Li1057 Li 0.75416 0.08434 0.68175 0.0
Li1058 Li 0.76117 0.09526 0.64783 0.0
Li1059 Li 0.74421 0.10543 0.67242 0.0
C1060 C 0.78628 0.08545 0.67119 0.0
N1061 N 0.81403 0.08384 0.67492 0.0
C1062 C 0.79221 0.08335 0.69081 0.0
C1063 C 0.79448 0.08669 0.65347 0.0
C1064 C 0.80625 0.08259 0.69237 0.0
C1065 C 0.80849 0.08585 0.65569 0.0
C1066 C 0.74852 0.09421 0.71813 0.0
C1067 C 0.73218 0.08328 0.74043 0.0
N1068 N 0.74204 0.08077 0.75473 0.0
C1069 C 0.75849 0.09153 0.73307 0.0
C1070 C 0.73525 0.09008 0.72187 0.0
C1071 C 0.75501 0.08473 0.75147 0.0
C1072 C 0.77762 0.11997 0.71464 0.0
N1073 N 0.78142 0.1141 0.69633 0.0
C1074 C 0.80322 0.12436 0.69868 0.0
C1075 C 0.79389 0.1163 0.68808 0.0
C1076 C 0.7996 0.1304 0.71777 0.0
C1077 C 0.7866 0.12809 0.72574 0.0
H1078 H 0.76749 0.11853 0.7205 0.0
H1079 H 0.79652 0.11209 0.67304 0.0
C1080 C 0.7395 0.0602 0.68913 0.0
N1081 N 0.75077 0.06727 0.69434 0.0
C1082 C 0.73673 0.04787 0.69884 0.0
C1083 C 0.75724 0.05036 0.71899 0.0
C1084 C 0.75969 0.0625 0.7087 0.0
C1085 C 0.74562 0.04291 0.71412 0.0
H1086 H 0.73264 0.06413 0.67748 0.0
H1087 H 0.76864 0.06822 0.71238 0.0
C1088 C 0.76573 0.12615 0.65938 0.0
N1089 N 0.77859 0.15073 0.66368 0.0
C1090 C 0.76058 0.13588 0.67307 0.0
C1091 C 0.77737 0.12893 0.6478 0.0
C1092 C 0.76725 0.14825 0.67505 0.0
C1093 C 0.78373 0.14142 0.65021 0.0
C1094 C 0.73054 0.08888 0.64764 0.0
C1095 C 0.72918 0.09129 0.62616 0.0
C1096 C 0.719 0.08748 0.66005 0.0
C1097 C 0.71627 0.09244 0.61751 0.0
C1098 C 0.70628 0.08872 0.65081 0.0
N1099 N 0.70519 0.09116 0.62991 0.0
C1100 C 0.768 0.08046 0.6114 0.0
C1101 C 0.76518 0.10405 0.60676 0.0
C1102 C 0.77039 0.07876 0.58999 0.0
N1103 N 0.76546 0.09296 0.61925 0.0
C1104 C 0.76755 0.10283 0.58533 0.0
C1105 C 0.77013 0.09005 0.57665 0.0
H1106 H 0.76802 0.07182 0.62176 0.0
H1107 H 0.76279 0.1138 0.61338 0.0
C1108 C 0.72294 0.12044 0.69104 0.0
N1109 N 0.72884 0.11683 0.67267 0.0
C1110 C 0.71215 0.12951 0.69113 0.0
C1111 C 0.71373 0.1309 0.6534 0.0
C1112 C 0.72455 0.12191 0.65407 0.0
C1113 C 0.70746 0.13494 0.67213 0.0
H1114 H 0.72684 0.11658 0.70566 0.0
H1115 H 0.72966 0.1191 0.63975 0.0
O1116 O 0.77254 0.08607 0.66925 0.0
O1117 O 0.75177 0.10066 0.69984 0.0
O1118 O 0.75957 0.11386 0.65771 0.0
O1119 O 0.7431 0.0879 0.65645 0.0
H1120 H 0.78607 0.0826 0.70474 0.0
H1121 H 0.79012 0.08836 0.63818 0.0
H1122 H 0.81097 0.08106 0.70747 0.0
H1123 H 0.81495 0.08682 0.64211 0.0
H1124 H 0.72196 0.07997 0.74346 0.0
H1125 H 0.76887 0.09442 0.73035 0.0
H1126 H 0.72741 0.092 0.71048 0.0
H1127 H 0.76264 0.08252 0.76309 0.0
H1128 H 0.81303 0.12614 0.69171 0.0
H1129 H 0.78337 0.13252 0.74041 0.0
H1130 H 0.72767 0.04237 0.69466 0.0
H1131 H 0.76446 0.04673 0.73043 0.0
H1132 H 0.75163 0.13384 0.68226 0.0
H1133 H 0.78158 0.12143 0.63734 0.0
H1134 H 0.76343 0.15584 0.68567 0.0
H1135 H 0.7928 0.14368 0.64146 0.0
H1136 H 0.73797 0.09235 0.61628 0.0
H1137 H 0.71984 0.0856 0.67667 0.0
H1138 H 0.71508 0.09438 0.60094 0.0
H1139 H 0.69727 0.08776 0.66027 0.0
H1140 H 0.7724 0.06875 0.58395 0.0
H1141 H 0.76695 0.11176 0.57557 0.0
H1142 H 0.70783 0.13254 0.70598 0.0
H1143 H 0.71039 0.13469 0.63836 0.0
Li1144 Li 0.88908 0.7675 0.67778 0.0
Li1145 Li 0.90959 0.75426 0.68313 0.0
Li1146 Li 0.89845 0.75507 0.64778 0.0
Li1147 Li 0.88878 0.74196 0.6767 0.0
C1148 C 0.90871 0.78341 0.65958 0.0
N1149 N 0.91195 0.81052 0.65071 0.0
C1150 C 0.91897 0.7908 0.66929 0.0
C1151 C 0.90022 0.78978 0.64516 0.0
C1152 C 0.92042 0.80451 0.66465 0.0
C1153 C 0.90199 0.8035 0.64094 0.0
C1154 C 0.89696 0.75424 0.72081 0.0
C1155 C 0.90428 0.7423 0.75171 0.0
N1156 N 0.90546 0.75425 0.76203 0.0
C1157 C 0.89807 0.76639 0.7318 0.0
C1158 C 0.89993 0.74208 0.7309 0.0
C1159 C 0.90246 0.76619 0.7526 0.0
C1160 C 0.86531 0.78153 0.68589 0.0
N1161 N 0.87896 0.78278 0.6865 0.0
C1162 C 0.87711 0.80488 0.70122 0.0
C1163 C 0.88495 0.79413 0.69403 0.0
C1164 C 0.86296 0.80386 0.70086 0.0
C1165 C 0.85708 0.792 0.69295 0.0
H1166 H 0.86082 0.77227 0.68027 0.0
H1167 H 0.89582 0.79475 0.69489 0.0
C1168 C 0.93493 0.74355 0.69536 0.0
N1169 N 0.92626 0.75406 0.69784 0.0
C1170 C 0.94715 0.74331 0.70621 0.0
C1171 C 0.94142 0.76484 0.72165 0.0
C1172 C 0.92928 0.76463 0.71058 0.0
C1173 C 0.95052 0.75407 0.71953 0.0
H1174 H 0.93245 0.73543 0.68478 0.0
H1175 H 0.92228 0.77293 0.71208 0.0
C1176 C 0.87054 0.75581 0.64209 0.0
N1177 N 0.85218 0.75703 0.60954 0.0
C1178 C 0.86492 0.74397 0.63398 0.0
C1179 C 0.86659 0.76829 0.63391 0.0
C1180 C 0.85572 0.74479 0.61744 0.0
C1181 C 0.85736 0.76869 0.61738 0.0
C1182 C 0.90887 0.72577 0.66145 0.0
C1183 C 0.90965 0.71941 0.64195 0.0
C1184 C 0.91047 0.71816 0.67972 0.0
C1185 C 0.91179 0.70548 0.64107 0.0
C1186 C 0.91259 0.70426 0.6782 0.0
N1187 N 0.91318 0.69825 0.65906 0.0
C1188 C 0.90872 0.76501 0.60917 0.0
C1189 C 0.89449 0.74587 0.60646 0.0
C1190 C 0.90988 0.76572 0.5874 0.0
N1191 N 0.90088 0.75537 0.61819 0.0
C1192 C 0.89545 0.74613 0.58466 0.0
C1193 C 0.90308 0.75626 0.57487 0.0
H1194 H 0.91406 0.77219 0.61882 0.0
H1195 H 0.88862 0.73808 0.61403 0.0
C1196 C 0.87046 0.72766 0.70146 0.0
N1197 N 0.87796 0.72677 0.6837 0.0
C1198 C 0.8612 0.71755 0.70648 0.0
C1199 C 0.86789 0.70556 0.67517 0.0
C1200 C 0.87689 0.71598 0.67063 0.0
C1201 C 0.85973 0.70641 0.69309 0.0
H1202 H 0.87136 0.73646 0.7114 0.0
H1203 H 0.88263 0.71569 0.65626 0.0
O1204 O 0.90703 0.77 0.66413 0.0
O1205 O 0.89279 0.75425 0.70037 0.0
O1206 O 0.87956 0.75518 0.65833 0.0
O1207 O 0.90665 0.73939 0.66261 0.0
H1208 H 0.92576 0.78602 0.68026 0.0
H1209 H 0.89244 0.78415 0.6372 0.0
H1210 H 0.92828 0.81036 0.67212 0.0
H1211 H 0.89546 0.80855 0.62984 0.0
H1212 H 0.90667 0.73296 0.75968 0.0
H1213 H 0.89573 0.77588 0.72429 0.0
H1214 H 0.8988 0.73257 0.72281 0.0
H1215 H 0.90348 0.77553 0.76123 0.0
H1216 H 0.88207 0.81385 0.70711 0.0
H1217 H 0.84624 0.79063 0.6928 0.0
H1218 H 0.95401 0.73493 0.70385 0.0
H1219 H 0.94361 0.7733 0.73185 0.0
H1220 H 0.86774 0.73423 0.64022 0.0
H1221 H 0.87048 0.77758 0.64037 0.0
H1222 H 0.8514 0.73569 0.6109 0.0
H1223 H 0.85426 0.77829 0.61087 0.0
H1224 H 0.90865 0.72515 0.62764 0.0
H1225 H 0.91007 0.72295 0.6949 0.0
H1226 H 0.91236 0.70041 0.62609 0.0
H1227 H 0.91377 0.69825 0.69222 0.0
H1228 H 0.91608 0.77354 0.58045 0.0
H1229 H 0.89004 0.73865 0.57557 0.0
H1230 H 0.85509 0.71854 0.72046 0.0
H1231 H 0.86686 0.69726 0.66424 0.0
Li1232 Li 0.2433 0.91014 0.68685 0.0
Li1233 Li 0.23007 0.88951 0.68333 0.0
Li1234 Li 0.25471 0.88911 0.68193 0.0
Li1235 Li 0.24142 0.89858 0.65327 0.0
C1236 C 0.2489 0.88763 0.72167 0.0
N1237 N 0.26165 0.87301 0.75276 0.0
C1238 C 0.24351 0.87533 0.72838 0.0
C1239 C 0.26073 0.89254 0.73086 0.0
C1240 C 0.25011 0.86809 0.74411 0.0
C1241 C 0.26704 0.88498 0.74652 0.0
C1242 C 0.2135 0.90908 0.67251 0.0
C1243 C 0.1904 0.90311 0.66499 0.0
N1244 N 0.18616 0.91214 0.67963 0.0
C1245 C 0.20891 0.91833 0.68744 0.0
C1246 C 0.20417 0.90144 0.66112 0.0
C1247 C 0.19505 0.91972 0.69082 0.0
C1248 C 0.24219 0.93847 0.68804 0.0
N1249 N 0.24377 0.92725 0.70001 0.0
C1250 C 0.24519 0.94059 0.73106 0.0
C1251 C 0.24518 0.92804 0.72113 0.0
C1252 C 0.24376 0.95242 0.7191 0.0
C1253 C 0.24231 0.95122 0.69726 0.0
H1254 H 0.24081 0.93749 0.67131 0.0
H1255 H 0.24612 0.91892 0.7303 0.0
C1256 C 0.21184 0.86768 0.68582 0.0
N1257 N 0.2148 0.88009 0.69357 0.0
C1258 C 0.20119 0.86022 0.69421 0.0
C1259 C 0.19673 0.87858 0.7182 0.0
C1260 C 0.20756 0.8856 0.70949 0.0
C1261 C 0.19351 0.86561 0.71075 0.0
H1262 H 0.21798 0.86341 0.6735 0.0
H1263 H 0.21034 0.89539 0.71562 0.0
C1264 C 0.26473 0.91787 0.66555 0.0
N1265 N 0.27771 0.94254 0.66433 0.0
C1266 C 0.26318 0.92634 0.64821 0.0
C1267 C 0.27295 0.9219 0.68221 0.0
C1268 C 0.26983 0.93878 0.6479 0.0
C1269 C 0.27939 0.93443 0.68133 0.0
C1270 C 0.24247 0.8727 0.64533 0.0
C1271 C 0.25497 0.86801 0.63827 0.0
C1272 C 0.23096 0.87072 0.63305 0.0
C1273 C 0.25576 0.86146 0.61893 0.0
C1274 C 0.23218 0.86416 0.61377 0.0
N1275 N 0.24445 0.85971 0.60717 0.0
C1276 C 0.26791 0.86523 0.69306 0.0
C1277 C 0.28268 0.88374 0.68762 0.0
C1278 C 0.27881 0.85667 0.69688 0.0
N1279 N 0.27004 0.87845 0.68846 0.0
C1280 C 0.29389 0.87553 0.69132 0.0
C1281 C 0.29203 0.86176 0.6958 0.0
H1282 H 0.25774 0.86129 0.6933 0.0
H1283 H 0.28407 0.89425 0.68372 0.0
C1284 C 0.22903 0.9048 0.61447 0.0
N1285 N 0.24069 0.90078 0.62377 0.0
C1286 C 0.22825 0.90581 0.59271 0.0
C1287 C 0.2516 0.89883 0.59057 0.0
C1288 C 0.25192 0.89798 0.61237 0.0
C1289 C 0.23961 0.9027 0.58044 0.0
H1290 H 0.22031 0.90715 0.62394 0.0
H1291 H 0.26108 0.8949 0.62025 0.0
O1292 O 0.24277 0.89474 0.70596 0.0
O1293 O 0.22703 0.90748 0.66912 0.0
O1294 O 0.25818 0.90572 0.66626 0.0
O1295 O 0.24154 0.87942 0.664 0.0
H1296 H 0.2344 0.87135 0.72138 0.0
H1297 H 0.26508 0.902 0.72576 0.0
H1298 H 0.24608 0.85852 0.74939 0.0
H1299 H 0.27625 0.8886 0.75366 0.0
H1300 H 0.18308 0.8972 0.65639 0.0
H1301 H 0.21597 0.9243 0.69645 0.0
H1302 H 0.20754 0.89416 0.64964 0.0
H1303 H 0.19136 0.9268 0.70237 0.0
H1304 H 0.24605 0.94097 0.74796 0.0
H1305 H 0.24135 0.96003 0.68733 0.0
H1306 H 0.19931 0.85016 0.68825 0.0
H1307 H 0.19103 0.88321 0.73075 0.0
H1308 H 0.25682 0.92342 0.63521 0.0
H1309 H 0.27417 0.91552 0.69583 0.0
H1310 H 0.26867 0.94547 0.63462 0.0
H1311 H 0.2857 0.93773 0.69418 0.0
H1312 H 0.264 0.86955 0.64748 0.0
H1313 H 0.22123 0.87437 0.63821 0.0
H1314 H 0.26538 0.85784 0.61322 0.0
H1315 H 0.22338 0.86265 0.60402 0.0
H1316 H 0.2769 0.84609 0.6999 0.0
H1317 H 0.3039 0.87989 0.69047 0.0
H1318 H 0.21888 0.90905 0.58558 0.0
H1319 H 0.26055 0.89621 0.58174 0.0
Li1320 Li 0.08516 0.24292 0.68216 0.0
Li1321 Li 0.10564 0.22941 0.68058 0.0
Li1322 Li 0.10641 0.25395 0.67757 0.0
Li1323 Li 0.09732 0.24002 0.64942 0.0
C1324 C 0.10718 0.24925 0.71757 0.0
N1325 N 0.12173 0.2627 0.74804 0.0
C1326 C 0.11942 0.24396 0.72475 0.0
C1327 C 0.10232 0.26135 0.72595 0.0
C1328 C 0.12662 0.25091 0.74017 0.0
C1329 C 0.10984 0.26801 0.74131 0.0
C1330 C 0.0863 0.21276 0.67044 0.0
C1331 C 0.09221 0.18937 0.66527 0.0
N1332 N 0.08329 0.18579 0.68048 0.0
C1333 C 0.07718 0.20885 0.68599 0.0
C1334 C 0.09385 0.20295 0.65993 0.0
C1335 C 0.0758 0.19516 0.69084 0.0
C1336 C 0.05689 0.24162 0.68169 0.0
N1337 N 0.06775 0.244 0.69415 0.0
C1338 C 0.05353 0.24742 0.72382 0.0
C1339 C 0.06635 0.24678 0.71486 0.0
C1340 C 0.04206 0.24518 0.71131 0.0
C1341 C 0.04388 0.24228 0.68994 0.0
H1342 H 0.05836 0.23922 0.66533 0.0
H1343 H 0.07519 0.24834 0.72446 0.0
C1344 C 0.12655 0.21013 0.68423 0.0
N1345 N 0.11459 0.21428 0.69238 0.0
C1346 C 0.13362 0.19954 0.69356 0.0
C1347 C 0.1159 0.19768 0.71944 0.0
C1348 C 0.10919 0.20833 0.70963 0.0
C1349 C 0.12836 0.19322 0.71151 0.0
H1350 H 0.13076 0.21525 0.67081 0.0
H1351 H 0.09975 0.21202 0.71594 0.0
C1352 C 0.07809 0.26384 0.65949 0.0
N1353 N 0.05349 0.27687 0.65685 0.0
C1354 C 0.06975 0.26181 0.64211 0.0
C1355 C 0.07394 0.27254 0.67548 0.0
C1356 C 0.05735 0.26849 0.64106 0.0
C1357 C 0.06145 0.27901 0.67388 0.0
C1358 C 0.12316 0.24065 0.64237 0.0
C1359 C 0.12801 0.25296 0.63474 0.0
C1360 C 0.12511 0.22888 0.63068 0.0
C1361 C 0.13471 0.25328 0.61549 0.0
C1362 C 0.13182 0.22963 0.61147 0.0
N1363 N 0.13644 0.24171 0.60434 0.0
C1364 C 0.13042 0.26691 0.68804 0.0
C1365 C 0.11213 0.28199 0.68304 0.0
C1366 C 0.13917 0.27765 0.69184 0.0
N1367 N 0.11722 0.26926 0.68367 0.0
C1368 C 0.12052 0.29306 0.68683 0.0
C1369 C 0.13428 0.29096 0.69114 0.0
H1370 H 0.1342 0.25666 0.68818 0.0
H1371 H 0.10161 0.28357 0.67934 0.0
C1372 C 0.0922 0.22688 0.61069 0.0
N1373 N 0.09563 0.23876 0.6199 0.0
C1374 C 0.09149 0.22593 0.5889 0.0
C1375 C 0.09754 0.24954 0.58659 0.0
C1376 C 0.09817 0.25001 0.60839 0.0
C1377 C 0.09423 0.23736 0.57657 0.0
H1378 H 0.09008 0.21814 0.62024 0.0
H1379 H 0.10083 0.25933 0.61621 0.0
O1380 O 0.10014 0.24278 0.70212 0.0
O1381 O 0.08795 0.22613 0.66568 0.0
O1382 O 0.09017 0.25723 0.66094 0.0
O1383 O 0.11628 0.24017 0.66093 0.0
H1384 H 0.1234 0.23468 0.71834 0.0
H1385 H 0.09294 0.26566 0.72042 0.0
H1386 H 0.13613 0.24697 0.74581 0.0
H1387 H 0.10624 0.27742 0.74782 0.0
H1388 H 0.09806 0.18169 0.65737 0.0
H1389 H 0.0713 0.21629 0.69437 0.0
H1390 H 0.10108 0.2058 0.64803 0.0
H1391 H 0.06882 0.192 0.7029 0.0
H1392 H 0.05264 0.2494 0.74044 0.0
H1393 H 0.03536 0.24061 0.67965 0.0
H1394 H 0.14331 0.19664 0.68716 0.0
H1395 H 0.11143 0.19306 0.73316 0.0
H1396 H 0.07273 0.25504 0.62966 0.0
H1397 H 0.08018 0.27409 0.68917 0.0
H1398 H 0.05077 0.26698 0.62775 0.0
H1399 H 0.05807 0.28568 0.68622 0.0
H1400 H 0.12646 0.2622 0.64342 0.0
H1401 H 0.12127 0.21929 0.6362 0.0
H1402 H 0.13845 0.26275 0.60935 0.0
H1403 H 0.13331 0.22061 0.6022 0.0
H1404 H 0.14973 0.27552 0.69467 0.0
H1405 H 0.11629 0.30313 0.68631 0.0
H1406 H 0.08871 0.2164 0.5818 0.0
H1407 H 0.09987 0.25854 0.57767 0.0
Li1408 Li 0.72505 0.60549 0.68187 0.0
Li1409 Li 0.74938 0.609 0.67815 0.0
Li1410 Li 0.73606 0.59858 0.65035 0.0
Li1411 Li 0.74069 0.58661 0.68293 0.0
C1412 C 0.7342 0.6246 0.64385 0.0
N1413 N 0.73402 0.63848 0.60629 0.0
C1414 C 0.74581 0.63128 0.63697 0.0
C1415 C 0.72247 0.62505 0.63168 0.0
C1416 C 0.74551 0.63824 0.61794 0.0
C1417 C 0.7226 0.63209 0.61271 0.0
C1418 C 0.74537 0.60843 0.71881 0.0
C1419 C 0.76448 0.61217 0.74151 0.0
N1420 N 0.75787 0.62268 0.75058 0.0
C1421 C 0.73877 0.61928 0.72837 0.0
C1422 C 0.75833 0.60483 0.72545 0.0
C1423 C 0.74525 0.62635 0.74441 0.0
C1424 C 0.70547 0.60749 0.71336 0.0
N1425 N 0.70919 0.61254 0.69442 0.0
C1426 C 0.69146 0.62881 0.69558 0.0
C1427 C 0.70236 0.62286 0.68528 0.0
C1428 C 0.68776 0.6242 0.71557 0.0
C1429 C 0.69475 0.61325 0.72433 0.0
H1430 H 0.71116 0.59929 0.72025 0.0
H1431 H 0.70564 0.62676 0.67033 0.0
C1432 C 0.77663 0.61745 0.67819 0.0
N1433 N 0.76389 0.62097 0.68381 0.0
C1434 C 0.78736 0.62626 0.68186 0.0
C1435 C 0.77164 0.64209 0.6972 0.0
C1436 C 0.7612 0.63306 0.69293 0.0
C1437 C 0.78496 0.6388 0.69151 0.0
H1438 H 0.77843 0.60789 0.67054 0.0
H1439 H 0.75092 0.6357 0.69685 0.0
C1440 C 0.71044 0.58476 0.67226 0.0
N1441 N 0.68409 0.5795 0.6838 0.0
C1442 C 0.70771 0.57594 0.68882 0.0
C1443 C 0.69977 0.59087 0.66152 0.0
C1444 C 0.69432 0.57341 0.69441 0.0
C1445 C 0.68652 0.5881 0.66762 0.0
C1446 C 0.76164 0.58174 0.65923 0.0
C1447 C 0.75941 0.57296 0.64244 0.0
C1448 C 0.7716 0.5787 0.67401 0.0
C1449 C 0.76715 0.56122 0.64078 0.0
C1450 C 0.7791 0.56684 0.67182 0.0
N1451 N 0.77674 0.55842 0.6554 0.0
C1452 C 0.7459 0.60124 0.60978 0.0
C1453 C 0.72361 0.59257 0.611 0.0
C1454 C 0.74567 0.60127 0.58796 0.0
N1455 N 0.73492 0.5971 0.62077 0.0
C1456 C 0.72295 0.59239 0.58914 0.0
C1457 C 0.73404 0.59693 0.57734 0.0
H1458 H 0.75479 0.60469 0.61803 0.0
H1459 H 0.71506 0.58926 0.62016 0.0
C1460 C 0.74703 0.56881 0.71584 0.0
N1461 N 0.74378 0.56948 0.6952 0.0
C1462 C 0.7486 0.55633 0.72561 0.0
C1463 C 0.74352 0.54543 0.69265 0.0
C1464 C 0.74198 0.55814 0.68353 0.0
C1465 C 0.74673 0.54443 0.71402 0.0
H1466 H 0.74811 0.57796 0.72485 0.0
H1467 H 0.73908 0.559 0.66725 0.0
O1468 O 0.73438 0.61746 0.6622 0.0
O1469 O 0.73926 0.60148 0.70289 0.0
O1470 O 0.72349 0.58759 0.66684 0.0
O1471 O 0.75401 0.59316 0.66134 0.0
H1472 H 0.75499 0.63099 0.6461 0.0
H1473 H 0.71345 0.61977 0.63659 0.0
H1474 H 0.75444 0.6434 0.61238 0.0
H1475 H 0.71364 0.6324 0.60305 0.0
H1476 H 0.77453 0.60954 0.7467 0.0
H1477 H 0.72883 0.62235 0.72329 0.0
H1478 H 0.76365 0.59657 0.71809 0.0
H1479 H 0.74028 0.63479 0.75188 0.0
H1480 H 0.68642 0.63736 0.68845 0.0
H1481 H 0.69215 0.60941 0.7397 0.0
H1482 H 0.79736 0.62338 0.67671 0.0
H1483 H 0.76927 0.65154 0.70489 0.0
H1484 H 0.71583 0.5712 0.69742 0.0
H1485 H 0.7017 0.59787 0.64886 0.0
H1486 H 0.69205 0.56665 0.70725 0.0
H1487 H 0.67816 0.59284 0.65955 0.0
H1488 H 0.75168 0.57509 0.63094 0.0
H1489 H 0.77341 0.58534 0.68715 0.0
H1490 H 0.7655 0.5543 0.62793 0.0
H1491 H 0.78678 0.56432 0.68322 0.0
H1492 H 0.75454 0.60461 0.5795 0.0
H1493 H 0.71376 0.58904 0.58157 0.0
H1494 H 0.75116 0.556 0.7421 0.0
H1495 H 0.74177 0.5365 0.68325 0.0
Li1496 Li 0.38875 0.75169 0.67731 0.0
Li1497 Li 0.38997 0.7271 0.67928 0.0
Li1498 Li 0.41024 0.74091 0.68082 0.0
Li1499 Li 0.39766 0.73834 0.64836 0.0
C1500 C 0.38863 0.74628 0.71721 0.0
N1501 N 0.37441 0.75884 0.74893 0.0
C1502 C 0.37674 0.74051 0.72489 0.0
C1503 C 0.39331 0.75841 0.72571 0.0
C1504 C 0.3697 0.74702 0.74093 0.0
C1505 C 0.38597 0.76462 0.74171 0.0
C1506 C 0.37167 0.73874 0.64219 0.0
C1507 C 0.36295 0.72821 0.61093 0.0
N1508 N 0.35774 0.74028 0.60478 0.0
C1509 C 0.36621 0.75103 0.63559 0.0
C1510 C 0.37 0.72722 0.62982 0.0
C1511 C 0.3592 0.7516 0.61662 0.0
C1512 C 0.3833 0.7796 0.68245 0.0
N1513 N 0.37809 0.76697 0.68429 0.0
C1514 C 0.35677 0.77589 0.69491 0.0
C1515 C 0.36512 0.76492 0.69041 0.0
C1516 C 0.36182 0.78909 0.69294 0.0
C1517 C 0.37532 0.79086 0.6868 0.0
H1518 H 0.39359 0.78094 0.67731 0.0
H1519 H 0.3612 0.75475 0.69144 0.0
C1520 C 0.38737 0.70573 0.7078 0.0
N1521 N 0.38161 0.71153 0.6907 0.0
C1522 C 0.38122 0.69472 0.71751 0.0
C1523 C 0.36336 0.69582 0.69174 0.0
C1524 C 0.36988 0.7068 0.68251 0.0
C1525 C 0.36895 0.68973 0.70964 0.0
H1526 H 0.39664 0.70983 0.71409 0.0
H1527 H 0.36541 0.71176 0.66913 0.0
C1528 C 0.41674 0.76217 0.65859 0.0
N1529 N 0.44116 0.77548 0.65537 0.0
C1530 C 0.42481 0.76043 0.64084 0.0
C1531 C 0.42106 0.77073 0.67466 0.0
C1532 C 0.43713 0.76725 0.63951 0.0
C1533 C 0.43345 0.77734 0.67276 0.0
C1534 C 0.40948 0.71097 0.66781 0.0
C1535 C 0.41874 0.70695 0.6831 0.0
C1536 C 0.4021 0.70122 0.65688 0.0
C1537 C 0.42043 0.6932 0.68726 0.0
C1538 C 0.40406 0.68758 0.66154 0.0
N1539 N 0.4131 0.68389 0.67651 0.0
C1540 C 0.42934 0.74488 0.71302 0.0
C1541 C 0.43854 0.74005 0.67956 0.0
C1542 C 0.44224 0.7458 0.72164 0.0
N1543 N 0.42777 0.74214 0.69232 0.0
C1544 C 0.45162 0.74098 0.68747 0.0
C1545 C 0.45361 0.74387 0.7088 0.0
H1546 H 0.42058 0.74622 0.72286 0.0
H1547 H 0.43694 0.7377 0.66321 0.0
C1548 C 0.39598 0.7489 0.60775 0.0
N1549 N 0.39916 0.73762 0.6188 0.0
C1550 C 0.39697 0.74894 0.58597 0.0
C1551 C 0.40461 0.72577 0.58736 0.0
C1552 C 0.40349 0.72619 0.60914 0.0
C1553 C 0.40135 0.73727 0.57549 0.0
H1554 H 0.39267 0.75787 0.61593 0.0
H1555 H 0.40614 0.71744 0.61834 0.0
O1556 O 0.39552 0.74021 0.7012 0.0
O1557 O 0.37882 0.73803 0.66049 0.0
O1558 O 0.40474 0.75542 0.66033 0.0
O1559 O 0.40751 0.72439 0.66375 0.0
H1560 H 0.37289 0.7312 0.71839 0.0
H1561 H 0.40241 0.76309 0.71981 0.0
H1562 H 0.36046 0.7427 0.74697 0.0
H1563 H 0.38943 0.77405 0.74834 0.0
H1564 H 0.36167 0.7194 0.60112 0.0
H1565 H 0.3675 0.76007 0.64486 0.0
H1566 H 0.37429 0.71765 0.63457 0.0
H1567 H 0.35497 0.76106 0.61127 0.0
H1568 H 0.34636 0.77405 0.69923 0.0
H1569 H 0.37966 0.80085 0.68523 0.0
H1570 H 0.38594 0.69027 0.73116 0.0
H1571 H 0.3538 0.69247 0.68538 0.0
H1572 H 0.4217 0.75378 0.62832 0.0
H1573 H 0.41503 0.77206 0.68863 0.0
H1574 H 0.4435 0.76596 0.6259 0.0
H1575 H 0.43697 0.78391 0.68515 0.0
H1576 H 0.42449 0.71434 0.6918 0.0
H1577 H 0.39478 0.70416 0.64517 0.0
H1578 H 0.42753 0.68995 0.69911 0.0
H1579 H 0.39834 0.67993 0.65332 0.0
H1580 H 0.44327 0.74776 0.73825 0.0
H1581 H 0.46007 0.73954 0.67695 0.0
H1582 H 0.39421 0.75798 0.57743 0.0
H1583 H 0.40821 0.71663 0.57992 0.0
Li1584 Li 0.25996 0.39764 0.64854 0.0
Li1585 Li 0.25623 0.40973 0.68119 0.0
Li1586 Li 0.26956 0.38819 0.67997 0.0
Li1587 Li 0.24483 0.38778 0.67639 0.0
C1588 C 0.28227 0.41234 0.65371 0.0
N1589 N 0.29914 0.42524 0.62567 0.0
C1590 C 0.28172 0.42637 0.65147 0.0
C1591 C 0.29152 0.40489 0.64191 0.0
C1592 C 0.29031 0.43269 0.63717 0.0
C1593 C 0.29992 0.41159 0.62775 0.0
C1594 C 0.23144 0.41269 0.65858 0.0
C1595 C 0.20994 0.42 0.67223 0.0
N1596 N 0.20876 0.42886 0.65606 0.0
C1597 C 0.22991 0.42173 0.64193 0.0
C1598 C 0.2213 0.41169 0.67371 0.0
C1599 C 0.21842 0.42988 0.641 0.0
C1600 C 0.26332 0.38872 0.60699 0.0
N1601 N 0.26228 0.3999 0.6192 0.0
C1602 C 0.26452 0.41424 0.58929 0.0
C1603 C 0.26275 0.41251 0.61082 0.0
C1604 C 0.26566 0.40287 0.57624 0.0
C1605 C 0.26501 0.38998 0.58539 0.0
H1606 H 0.26269 0.37882 0.61401 0.0
H1607 H 0.26176 0.42123 0.62086 0.0
C1608 C 0.25984 0.4281 0.71392 0.0
N1609 N 0.25501 0.4269 0.6941 0.0
C1610 C 0.25925 0.44047 0.72427 0.0
C1611 C 0.24907 0.45026 0.69337 0.0
C1612 C 0.24983 0.43767 0.68364 0.0
C1613 C 0.2538 0.45176 0.71398 0.0
H1614 H 0.26417 0.41943 0.7217 0.0
H1615 H 0.24653 0.43657 0.66764 0.0
C1616 C 0.26392 0.36605 0.65714 0.0
N1617 N 0.27511 0.34053 0.65526 0.0
C1618 C 0.25699 0.355 0.66549 0.0
C1619 C 0.27645 0.36409 0.64757 0.0
C1620 C 0.26284 0.34218 0.66444 0.0
C1621 C 0.28197 0.35112 0.64686 0.0
C1622 C 0.25025 0.39356 0.72012 0.0
C1623 C 0.25542 0.3847 0.73515 0.0
C1624 C 0.23956 0.40211 0.72538 0.0
C1625 C 0.24963 0.38437 0.7551 0.0
C1626 C 0.23406 0.40149 0.7455 0.0
N1627 N 0.23915 0.39269 0.75981 0.0
C1628 C 0.2969 0.38388 0.6915 0.0
C1629 C 0.28169 0.36639 0.70081 0.0
C1630 C 0.30769 0.3767 0.70017 0.0
N1631 N 0.28425 0.37858 0.69187 0.0
C1632 C 0.29218 0.35878 0.70925 0.0
C1633 C 0.30537 0.36393 0.70896 0.0
H1634 H 0.29861 0.39367 0.68453 0.0
H1635 H 0.27148 0.36259 0.70139 0.0
C1636 C 0.21947 0.37678 0.66652 0.0
N1637 N 0.22903 0.37749 0.68174 0.0
C1638 C 0.20801 0.36878 0.66935 0.0
C1639 C 0.21638 0.36255 0.70357 0.0
C1640 C 0.22772 0.37055 0.69999 0.0
C1641 C 0.20638 0.36144 0.68804 0.0
H1642 H 0.22088 0.38226 0.65203 0.0
H1643 H 0.23559 0.37096 0.71162 0.0
O1644 O 0.27384 0.40596 0.66747 0.0
O1645 O 0.24262 0.4046 0.65963 0.0
O1646 O 0.25841 0.37869 0.65823 0.0
O1647 O 0.25582 0.39397 0.70049 0.0
H1648 H 0.27467 0.43229 0.66057 0.0
H1649 H 0.29216 0.39406 0.6436 0.0
H1650 H 0.28994 0.44353 0.63517 0.0
H1651 H 0.30707 0.40594 0.6184 0.0
H1652 H 0.20204 0.41935 0.68388 0.0
H1653 H 0.23756 0.42252 0.62991 0.0
H1654 H 0.22207 0.40448 0.68633 0.0
H1655 H 0.21716 0.43699 0.62829 0.0
H1656 H 0.26507 0.42437 0.58299 0.0
H1657 H 0.26554 0.38092 0.57594 0.0
H1658 H 0.26293 0.44115 0.74021 0.0
H1659 H 0.24509 0.45876 0.68469 0.0
H1660 H 0.24724 0.3563 0.67284 0.0
H1661 H 0.2819 0.37251 0.64089 0.0
H1662 H 0.25763 0.33355 0.67096 0.0
H1663 H 0.29171 0.34948 0.63964 0.0
H1664 H 0.26378 0.3781 0.73145 0.0
H1665 H 0.23568 0.4093 0.71419 0.0
H1666 H 0.25348 0.3775 0.76684 0.0
H1667 H 0.22577 0.40806 0.74976 0.0
H1668 H 0.31775 0.38098 0.69974 0.0
H1669 H 0.28999 0.34905 0.71623 0.0
H1670 H 0.20073 0.36805 0.65675 0.0
H1671 H 0.21553 0.35722 0.71832 0.0
Li1672 Li 0.60528 0.26982 0.67679 0.0
Li1673 Li 0.60866 0.24541 0.66948 0.0
Li1674 Li 0.59689 0.25974 0.64574 0.0
Li1675 Li 0.58604 0.25454 0.67763 0.0
C1676 C 0.62173 0.26545 0.63624 0.0
N1677 N 0.63207 0.27393 0.59825 0.0
C1678 C 0.62866 0.25638 0.62337 0.0
C1679 C 0.62018 0.27887 0.62988 0.0
C1680 C 0.63377 0.26085 0.60419 0.0
C1681 C 0.62546 0.28295 0.6106 0.0
C1682 C 0.60875 0.25549 0.71416 0.0
C1683 C 0.60891 0.25563 0.75192 0.0
N1684 N 0.62233 0.25853 0.75164 0.0
C1685 C 0.62255 0.25843 0.71422 0.0
C1686 C 0.60186 0.25409 0.73312 0.0
C1687 C 0.62923 0.25996 0.73335 0.0
C1688 C 0.6065 0.29041 0.70715 0.0
N1689 N 0.61296 0.28501 0.69032 0.0
C1690 C 0.63117 0.30058 0.69412 0.0
C1691 C 0.62508 0.28981 0.68373 0.0
C1692 C 0.62486 0.30625 0.71172 0.0
C1693 C 0.61237 0.30105 0.71827 0.0
H1694 H 0.59694 0.28625 0.71215 0.0
H1695 H 0.63017 0.28509 0.67068 0.0
C1696 C 0.62221 0.22331 0.65346 0.0
N1697 N 0.62013 0.23015 0.6716 0.0
C1698 C 0.63082 0.21219 0.65301 0.0
C1699 C 0.63451 0.21495 0.69021 0.0
C1700 C 0.62583 0.22606 0.68991 0.0
C1701 C 0.63726 0.208 0.6715 0.0
H1702 H 0.6172 0.22656 0.63928 0.0
H1703 H 0.62373 0.23142 0.70425 0.0
C1704 C 0.57496 0.27589 0.65608 0.0
N1705 N 0.54996 0.28255 0.63989 0.0
C1706 C 0.56723 0.26614 0.64572 0.0
C1707 C 0.56996 0.28901 0.65822 0.0
C1708 C 0.55462 0.26971 0.63765 0.0
C1709 C 0.55731 0.29218 0.64992 0.0
C1710 C 0.58729 0.22878 0.66011 0.0
C1711 C 0.58178 0.2204 0.64474 0.0
C1712 C 0.58874 0.22397 0.6806 0.0
C1713 C 0.57776 0.20733 0.65011 0.0
C1714 C 0.5846 0.21084 0.68533 0.0
N1715 N 0.57924 0.20286 0.67012 0.0
C1716 C 0.59565 0.25088 0.60459 0.0
C1717 C 0.59092 0.27426 0.60796 0.0
C1718 C 0.59421 0.25164 0.58292 0.0
N1719 N 0.59404 0.26209 0.61656 0.0
C1720 C 0.58946 0.27549 0.58628 0.0
C1721 C 0.59112 0.26407 0.5735 0.0
H1722 H 0.59827 0.24139 0.6119 0.0
H1723 H 0.58978 0.28302 0.61789 0.0
C1724 C 0.56702 0.26032 0.70796 0.0
N1725 N 0.56945 0.25181 0.69173 0.0
C1726 C 0.55486 0.25963 0.71887 0.0
C1727 C 0.54795 0.24132 0.69624 0.0
C1728 C 0.56017 0.24252 0.68556 0.0
C1729 C 0.54511 0.25 0.7131 0.0
H1730 H 0.57449 0.26781 0.71217 0.0
H1731 H 0.56212 0.23614 0.6722 0.0
O1732 O 0.61637 0.2612 0.65487 0.0
O1733 O 0.60198 0.25403 0.69564 0.0
O1734 O 0.58734 0.27271 0.66421 0.0
O1735 O 0.59134 0.24156 0.65488 0.0
H1736 H 0.63006 0.24601 0.62809 0.0
H1737 H 0.61472 0.28599 0.63954 0.0
H1738 H 0.63909 0.25392 0.59403 0.0
H1739 H 0.62422 0.29327 0.60539 0.0
H1740 H 0.60371 0.25453 0.76672 0.0
H1741 H 0.62802 0.25953 0.69965 0.0
H1742 H 0.59119 0.25175 0.73331 0.0
H1743 H 0.63989 0.26227 0.73366 0.0
H1744 H 0.64094 0.30414 0.68888 0.0
H1745 H 0.60724 0.30515 0.73183 0.0
H1746 H 0.63244 0.20694 0.63834 0.0
H1747 H 0.63927 0.21204 0.7048 0.0
H1748 H 0.57089 0.25594 0.64387 0.0
H1749 H 0.57582 0.29666 0.66621 0.0
H1750 H 0.54854 0.26228 0.6296 0.0
H1751 H 0.55332 0.3023 0.65145 0.0
H1752 H 0.58061 0.22396 0.62881 0.0
H1753 H 0.59298 0.23024 0.69276 0.0
H1754 H 0.57346 0.20074 0.63836 0.0
H1755 H 0.58565 0.20699 0.7011 0.0
H1756 H 0.59579 0.24264 0.5736 0.0
H1757 H 0.58701 0.28524 0.57961 0.0
H1758 H 0.55303 0.26678 0.73137 0.0
H1759 H 0.54085 0.23366 0.69129 0.0
Li1760 Li 0.74067 0.41045 0.8121 0.0
Li1761 Li 0.73694 0.39834 0.84494 0.0
Li1762 Li 0.7511 0.38847 0.81569 0.0
Li1763 Li 0.72629 0.38948 0.81277 0.0
C1764 C 0.76304 0.41528 0.83564 0.0
N1765 N 0.78045 0.43682 0.84051 0.0
C1766 C 0.76191 0.42372 0.85309 0.0
C1767 C 0.77314 0.41766 0.82084 0.0
C1768 C 0.77078 0.4346 0.85523 0.0
C1769 C 0.78181 0.42865 0.82352 0.0
C1770 C 0.71222 0.41189 0.83722 0.0
C1771 C 0.69162 0.40784 0.85633 0.0
N1772 N 0.68995 0.42139 0.85871 0.0
C1773 C 0.71022 0.42577 0.83963 0.0
C1774 C 0.70278 0.40285 0.84545 0.0
C1775 C 0.69893 0.43037 0.85063 0.0
C1776 C 0.74295 0.42921 0.77911 0.0
N1777 N 0.74257 0.42789 0.80028 0.0
C1778 C 0.74462 0.45173 0.80469 0.0
C1779 C 0.74325 0.43881 0.8131 0.0
C1780 C 0.74509 0.45343 0.78284 0.0
C1781 C 0.74424 0.44194 0.77 0.0
H1782 H 0.74206 0.42039 0.76925 0.0
H1783 H 0.74263 0.4375 0.82987 0.0
C1784 C 0.74033 0.38937 0.88604 0.0
N1785 N 0.7352 0.39968 0.87448 0.0
C1786 C 0.73926 0.38953 0.90782 0.0
C1787 C 0.72783 0.41103 0.90546 0.0
C1788 C 0.72923 0.4105 0.88372 0.0
C1789 C 0.73283 0.40041 0.91784 0.0
H1790 H 0.74529 0.38103 0.8783 0.0
H1791 H 0.7256 0.41877 0.87428 0.0
C1792 C 0.74585 0.39106 0.77364 0.0
N1793 N 0.75781 0.38242 0.73693 0.0
C1794 C 0.73946 0.3814 0.76116 0.0
C1795 C 0.75824 0.39645 0.76735 0.0
C1796 C 0.74569 0.37713 0.74267 0.0
C1797 C 0.76415 0.39192 0.74877 0.0
C1798 C 0.73237 0.36772 0.84092 0.0
C1799 C 0.73806 0.35552 0.83435 0.0
C1800 C 0.72168 0.36761 0.85519 0.0
C1801 C 0.73274 0.34338 0.84182 0.0
C1802 C 0.71666 0.35526 0.86232 0.0
N1803 N 0.72223 0.3435 0.85552 0.0
C1804 C 0.77791 0.37967 0.82088 0.0
C1805 C 0.76552 0.36763 0.79524 0.0
C1806 C 0.78912 0.37135 0.81776 0.0
N1807 N 0.76642 0.37762 0.80974 0.0
C1808 C 0.77654 0.35926 0.7913 0.0
C1809 C 0.78852 0.36089 0.80287 0.0
H1810 H 0.77827 0.38755 0.83258 0.0
H1811 H 0.75616 0.36595 0.78701 0.0
C1812 C 0.69959 0.38759 0.79686 0.0
N1813 N 0.71091 0.38049 0.80175 0.0
C1814 C 0.68826 0.38094 0.78884 0.0
C1815 C 0.70053 0.35989 0.79099 0.0
C1816 C 0.71164 0.36695 0.79864 0.0
C1817 C 0.68865 0.36689 0.78603 0.0
H1818 H 0.69937 0.3984 0.79914 0.0
H1819 H 0.72092 0.36163 0.8018 0.0
O1820 O 0.75442 0.40461 0.83327 0.0
O1821 O 0.72328 0.40723 0.82662 0.0
O1822 O 0.73992 0.39531 0.79183 0.0
O1823 O 0.73745 0.37969 0.83368 0.0
H1824 H 0.7542 0.42196 0.86477 0.0
H1825 H 0.77429 0.41109 0.80744 0.0
H1826 H 0.76997 0.44127 0.86858 0.0
H1827 H 0.78964 0.43065 0.81213 0.0
H1828 H 0.68426 0.40095 0.86284 0.0
H1829 H 0.71735 0.43292 0.8332 0.0
H1830 H 0.70399 0.39211 0.84329 0.0
H1831 H 0.69731 0.44109 0.85274 0.0
H1832 H 0.74534 0.46028 0.8152 0.0
H1833 H 0.74425 0.44279 0.75309 0.0
H1834 H 0.74358 0.38127 0.91668 0.0
H1835 H 0.72277 0.41961 0.91243 0.0
H1836 H 0.72983 0.3772 0.76573 0.0
H1837 H 0.76324 0.40403 0.77672 0.0
H1838 H 0.7409 0.36961 0.7329 0.0
H1839 H 0.77376 0.39595 0.74376 0.0
H1840 H 0.74642 0.35542 0.82346 0.0
H1841 H 0.7174 0.37693 0.86088 0.0
H1842 H 0.73697 0.33386 0.83674 0.0
H1843 H 0.70836 0.35502 0.87333 0.0
H1844 H 0.79797 0.37287 0.82741 0.0
H1845 H 0.77559 0.35152 0.77944 0.0
H1846 H 0.67928 0.38668 0.78506 0.0
H1847 H 0.70132 0.3491 0.78852 0.0
Li1848 Li 0.6059 0.72775 0.81538 0.0
Li1849 Li 0.60689 0.75231 0.81954 0.0
Li1850 Li 0.59658 0.73799 0.84634 0.0
Li1851 Li 0.58577 0.7417 0.81258 0.0
C1852 C 0.62781 0.73231 0.83822 0.0
N1853 N 0.65261 0.71957 0.83891 0.0
C1854 C 0.63903 0.73845 0.82898 0.0
C1855 C 0.62922 0.71975 0.84795 0.0
C1856 C 0.65148 0.73183 0.82948 0.0
C1857 C 0.64183 0.71345 0.84807 0.0
C1858 C 0.59618 0.74169 0.77513 0.0
C1859 C 0.584 0.75277 0.74731 0.0
N1860 N 0.583 0.74079 0.73702 0.0
C1861 C 0.59508 0.72949 0.76427 0.0
C1862 C 0.59066 0.75344 0.76657 0.0
C1863 C 0.58837 0.72925 0.74502 0.0
C1864 C 0.60981 0.69993 0.80646 0.0
N1865 N 0.61508 0.71253 0.80436 0.0
C1866 C 0.63426 0.70385 0.78625 0.0
C1867 C 0.62689 0.7147 0.79411 0.0
C1868 C 0.62917 0.69071 0.78842 0.0
C1869 C 0.61671 0.68878 0.7984 0.0
H1870 H 0.60026 0.69854 0.81433 0.0
H1871 H 0.63061 0.72488 0.79213 0.0
C1872 C 0.62396 0.77297 0.83301 0.0
N1873 N 0.61781 0.76783 0.81574 0.0
C1874 C 0.63199 0.78446 0.83144 0.0
C1875 C 0.6274 0.78507 0.79424 0.0
C1876 C 0.6194 0.77356 0.79655 0.0
C1877 C 0.6338 0.79067 0.81185 0.0
H1878 H 0.62262 0.76807 0.84801 0.0
H1879 H 0.61448 0.76918 0.78306 0.0
C1880 C 0.58074 0.71693 0.8415 0.0
N1881 N 0.56602 0.70252 0.87065 0.0
C1882 C 0.56687 0.71914 0.84356 0.0
C1883 C 0.58711 0.70735 0.85416 0.0
C1884 C 0.55961 0.71175 0.85841 0.0
C1885 C 0.57949 0.70019 0.86885 0.0
C1886 C 0.59063 0.76825 0.84034 0.0
C1887 C 0.59381 0.77157 0.86105 0.0
C1888 C 0.58918 0.77851 0.82546 0.0
C1889 C 0.59556 0.78512 0.86649 0.0
C1890 C 0.59105 0.79193 0.83153 0.0
N1891 N 0.59418 0.79493 0.85174 0.0
C1892 C 0.60502 0.73448 0.88784 0.0
C1893 C 0.58141 0.7376 0.88412 0.0
C1894 C 0.60381 0.73419 0.90957 0.0
N1895 N 0.59393 0.7362 0.87564 0.0
C1896 C 0.57971 0.73722 0.90584 0.0
C1897 C 0.59104 0.7357 0.91881 0.0
H1898 H 0.61487 0.73368 0.88073 0.0
H1899 H 0.57282 0.73936 0.87405 0.0
C1900 C 0.56404 0.73202 0.78904 0.0
N1901 N 0.56899 0.74319 0.79869 0.0
C1902 C 0.55178 0.7326 0.77837 0.0
C1903 C 0.54998 0.75619 0.78779 0.0
C1904 C 0.56224 0.75512 0.79837 0.0
C1905 C 0.54457 0.74482 0.77763 0.0
H1906 H 0.56963 0.72265 0.78972 0.0
H1907 H 0.56639 0.76381 0.80628 0.0
O1908 O 0.61548 0.73854 0.83764 0.0
O1909 O 0.60241 0.74207 0.79425 0.0
O1910 O 0.58807 0.72418 0.82724 0.0
O1911 O 0.58913 0.75502 0.8346 0.0
H1912 H 0.63813 0.74813 0.82128 0.0
H1913 H 0.62063 0.71485 0.85513 0.0
H1914 H 0.66024 0.73642 0.8223 0.0
H1915 H 0.64305 0.70368 0.85542 0.0
H1916 H 0.57957 0.76176 0.74058 0.0
H1917 H 0.59923 0.72029 0.7707 0.0
H1918 H 0.59127 0.76294 0.77489 0.0
H1919 H 0.58738 0.71987 0.73648 0.0
H1920 H 0.64374 0.7057 0.77832 0.0
H1921 H 0.61249 0.67876 0.80022 0.0
H1922 H 0.63694 0.78828 0.84535 0.0
H1923 H 0.62849 0.78958 0.77888 0.0
H1924 H 0.56179 0.72658 0.83399 0.0
H1925 H 0.59784 0.70553 0.85278 0.0
H1926 H 0.54888 0.71339 0.86025 0.0
H1927 H 0.5843 0.69279 0.87883 0.0
H1928 H 0.59503 0.76379 0.87276 0.0
H1929 H 0.58694 0.77613 0.8093 0.0
H1930 H 0.59807 0.78783 0.88244 0.0
H1931 H 0.59009 0.79996 0.82013 0.0
H1932 H 0.61278 0.73294 0.91907 0.0
H1933 H 0.56973 0.7386 0.91243 0.0
H1934 H 0.5479 0.72352 0.7711 0.0
H1935 H 0.54485 0.76584 0.78743 0.0
Li1936 Li 0.24365 0.60651 0.81942 0.0
Li1937 Li 0.2688 0.60576 0.81395 0.0
Li1938 Li 0.25411 0.585 0.81503 0.0
Li1939 Li 0.25848 0.59739 0.84596 0.0
C1940 C 0.24774 0.60656 0.77824 0.0
N1941 N 0.23492 0.62012 0.74604 0.0
C1942 C 0.25419 0.61727 0.76809 0.0
C1943 C 0.2348 0.60268 0.77188 0.0
C1944 C 0.24754 0.62401 0.75187 0.0
C1945 C 0.22848 0.60968 0.75562 0.0
C1946 C 0.25874 0.62364 0.85226 0.0
C1947 C 0.27144 0.63481 0.87942 0.0
N1948 N 0.25972 0.63783 0.88947 0.0
C1949 C 0.24682 0.6269 0.86279 0.0
C1950 C 0.27116 0.62765 0.86058 0.0
C1951 C 0.24753 0.63407 0.88161 0.0
C1952 C 0.21618 0.61331 0.82358 0.0
N1953 N 0.22807 0.61732 0.81499 0.0
C1954 C 0.21792 0.63756 0.80208 0.0
C1955 C 0.22917 0.62923 0.80453 0.0
C1956 C 0.20555 0.63374 0.81099 0.0
C1957 C 0.20472 0.62142 0.82179 0.0
H1958 H 0.21566 0.60397 0.83227 0.0
H1959 H 0.23885 0.63237 0.79843 0.0
C1960 C 0.29184 0.60739 0.78814 0.0
N1961 N 0.28369 0.6144 0.80136 0.0
C1962 C 0.30271 0.61381 0.77839 0.0
C1963 C 0.29651 0.63449 0.7961 0.0
C1964 C 0.28575 0.6277 0.8054 0.0
C1965 C 0.30515 0.62755 0.78237 0.0
H1966 H 0.28986 0.59682 0.78517 0.0
H1967 H 0.27891 0.63307 0.81563 0.0
C1968 C 0.23363 0.57864 0.83759 0.0
N1969 N 0.2195 0.5546 0.83852 0.0
C1970 C 0.23639 0.56903 0.85304 0.0
C1971 C 0.22362 0.57605 0.82269 0.0
C1972 C 0.22914 0.55694 0.85324 0.0
C1973 C 0.21662 0.56383 0.82339 0.0
C1974 C 0.28192 0.58361 0.84125 0.0
C1975 C 0.27917 0.57317 0.85535 0.0
C1976 C 0.29484 0.58927 0.84062 0.0
C1977 C 0.28939 0.56858 0.86864 0.0
C1978 C 0.30479 0.58438 0.85415 0.0
N1979 N 0.30188 0.57423 0.86776 0.0
C1980 C 0.24796 0.56656 0.78258 0.0
C1981 C 0.25563 0.55649 0.81407 0.0
C1982 C 0.24704 0.55394 0.77297 0.0
N1983 N 0.25224 0.5676 0.80274 0.0
C1984 C 0.25488 0.54369 0.80512 0.0
C1985 C 0.25068 0.54231 0.78423 0.0
H1986 H 0.24549 0.57555 0.77381 0.0
H1987 H 0.25898 0.55756 0.83003 0.0
C1988 C 0.24908 0.59561 0.8871 0.0
N1989 N 0.26065 0.59688 0.87581 0.0
C1990 C 0.24947 0.59569 0.90892 0.0
C1991 C 0.27368 0.59845 0.90725 0.0
C1992 C 0.27279 0.59858 0.88543 0.0
C1993 C 0.2619 0.59702 0.91921 0.0
H1994 H 0.2395 0.59474 0.87911 0.0
H1995 H 0.28178 0.60027 0.87624 0.0
O1996 O 0.25405 0.59991 0.79427 0.0
O1997 O 0.25827 0.61629 0.83416 0.0
O1998 O 0.24077 0.59046 0.8369 0.0
O1999 O 0.27212 0.58816 0.82789 0.0
H2000 H 0.2642 0.62041 0.77273 0.0
H2001 H 0.22964 0.59444 0.77956 0.0
H2002 H 0.25239 0.63235 0.74394 0.0
H2003 H 0.21844 0.60684 0.75065 0.0
H2004 H 0.28098 0.63789 0.88613 0.0
H2005 H 0.23713 0.62378 0.85664 0.0
H2006 H 0.2805 0.62504 0.85276 0.0
H2007 H 0.23839 0.63659 0.89 0.0
H2008 H 0.219 0.64711 0.794 0.0
H2009 H 0.19536 0.61817 0.82894 0.0
H2010 H 0.30916 0.60809 0.76797 0.0
H2011 H 0.29786 0.64515 0.79925 0.0
H2012 H 0.24417 0.57081 0.86461 0.0
H2013 H 0.22137 0.58336 0.81059 0.0
H2014 H 0.23123 0.54938 0.86504 0.0
H2015 H 0.2089 0.56166 0.81188 0.0
H2016 H 0.26917 0.56889 0.85646 0.0
H2017 H 0.29717 0.59737 0.82987 0.0
H2018 H 0.28736 0.56058 0.87975 0.0
H2019 H 0.31483 0.58868 0.85384 0.0
H2020 H 0.24392 0.55333 0.75674 0.0
H2021 H 0.2576 0.53497 0.81444 0.0
H2022 H 0.24017 0.59463 0.91767 0.0
H2023 H 0.28341 0.5998 0.91471 0.0
Li2024 Li 0.41339 0.25622 0.81821 0.0
Li2025 Li 0.40185 0.26085 0.85108 0.0
Li2026 Li 0.3919 0.24582 0.82494 0.0
Li2027 Li 0.39319 0.27019 0.81932 0.0
C2028 C 0.42004 0.23561 0.84245 0.0
N2029 N 0.44362 0.22079 0.84498 0.0
C2030 C 0.4289 0.23753 0.85924 0.0
C2031 C 0.42317 0.22611 0.82699 0.0
C2032 C 0.44076 0.22993 0.86024 0.0
C2033 C 0.43515 0.21874 0.82853 0.0
C2034 C 0.41293 0.28675 0.82608 0.0
C2035 C 0.4076 0.31048 0.82819 0.0
N2036 N 0.41585 0.31287 0.81157 0.0
C2037 C 0.42137 0.28946 0.80904 0.0
C2038 C 0.40601 0.29735 0.83578 0.0
C2039 C 0.42271 0.30273 0.80195 0.0
C2040 C 0.43128 0.25196 0.7845 0.0
N2041 N 0.4305 0.25418 0.80545 0.0
C2042 C 0.4545 0.25411 0.80847 0.0
C2043 C 0.44175 0.25547 0.81743 0.0
C2044 C 0.4557 0.25182 0.78681 0.0
C2045 C 0.44384 0.2508 0.77479 0.0
H2046 H 0.42217 0.25136 0.77526 0.0
H2047 H 0.4408 0.2576 0.83397 0.0
C2048 C 0.40281 0.25211 0.89263 0.0
N2049 N 0.40426 0.26321 0.88033 0.0
C2050 C 0.40428 0.25312 0.91428 0.0
C2051 C 0.40848 0.27704 0.91027 0.0
C2052 C 0.40713 0.27552 0.88862 0.0
C2053 C 0.40708 0.26572 0.92332 0.0
H2054 H 0.40048 0.24246 0.88556 0.0
H2055 H 0.40829 0.28415 0.87846 0.0
C2056 C 0.39111 0.24876 0.78406 0.0
N2057 N 0.37695 0.23434 0.75423 0.0
C2058 C 0.37888 0.2537 0.77632 0.0
C2059 C 0.39618 0.23651 0.77655 0.0
C2060 C 0.37187 0.24626 0.76124 0.0
C2061 C 0.38885 0.22935 0.76151 0.0
C2062 C 0.37624 0.26046 0.85954 0.0
C2063 C 0.3716 0.24832 0.86807 0.0
C2064 C 0.37467 0.27246 0.8708 0.0
C2065 C 0.36547 0.24839 0.88778 0.0
C2066 C 0.36852 0.2721 0.89049 0.0
N2067 N 0.36408 0.26017 0.89849 0.0
C2068 C 0.38573 0.21778 0.82495 0.0
C2069 C 0.36806 0.23228 0.81396 0.0
C2070 C 0.37749 0.20649 0.82219 0.0
N2071 N 0.38092 0.23033 0.82072 0.0
C2072 C 0.35952 0.22128 0.81081 0.0
C2073 C 0.36419 0.20818 0.81503 0.0
H2074 H 0.3959 0.21653 0.83071 0.0
H2075 H 0.36442 0.24242 0.81122 0.0
C2076 C 0.38877 0.28831 0.78641 0.0
N2077 N 0.38452 0.28496 0.80598 0.0
C2078 C 0.38217 0.2984 0.77514 0.0
C2079 C 0.3673 0.30179 0.80472 0.0
C2080 C 0.37408 0.2915 0.81532 0.0
C2081 C 0.37119 0.30517 0.78423 0.0
H2082 H 0.39709 0.28288 0.77939 0.0
H2083 H 0.37083 0.28853 0.83079 0.0
O2084 O 0.40844 0.24305 0.84107 0.0
O2085 O 0.41124 0.27378 0.83296 0.0
O2086 O 0.39801 0.25576 0.79912 0.0
O2087 O 0.3826 0.26055 0.84051 0.0
H2088 H 0.42674 0.24492 0.87124 0.0
H2089 H 0.4165 0.22456 0.81381 0.0
H2090 H 0.44773 0.23135 0.8731 0.0
H2091 H 0.43772 0.21142 0.81661 0.0
H2092 H 0.40222 0.31875 0.83543 0.0
H2093 H 0.42675 0.2814 0.80126 0.0
H2094 H 0.39926 0.29542 0.84875 0.0
H2095 H 0.42918 0.30496 0.78874 0.0
H2096 H 0.46329 0.25483 0.81847 0.0
H2097 H 0.4442 0.2494 0.75798 0.0
H2098 H 0.40297 0.24421 0.92389 0.0
H2099 H 0.4107 0.28691 0.91672 0.0
H2100 H 0.37471 0.26308 0.7821 0.0
H2101 H 0.40561 0.23251 0.78239 0.0
H2102 H 0.36235 0.24993 0.7552 0.0
H2103 H 0.39262 0.21983 0.75564 0.0
H2104 H 0.37284 0.23891 0.85969 0.0
H2105 H 0.37842 0.28191 0.86463 0.0
H2106 H 0.36187 0.23906 0.8946 0.0
H2107 H 0.36734 0.28129 0.89945 0.0
H2108 H 0.38148 0.19655 0.82561 0.0
H2109 H 0.34925 0.22305 0.80567 0.0
H2110 H 0.38549 0.30078 0.7594 0.0
H2111 H 0.35876 0.30667 0.81214 0.0
Li2112 Li 0.25651 0.39969 0.34789 0.0
Li2113 Li 0.24176 0.3894 0.32172 0.0
Li2114 Li 0.2661 0.3904 0.31608 0.0
Li2115 Li 0.25275 0.41072 0.31361 0.0
C2116 C 0.26501 0.37262 0.3492 0.0
N2117 N 0.28291 0.35655 0.37109 0.0
C2118 C 0.26198 0.35905 0.3529 0.0
C2119 C 0.27715 0.37801 0.35657 0.0
C2120 C 0.27116 0.3511 0.36402 0.0
C2121 C 0.28606 0.36973 0.36762 0.0
C2122 C 0.22757 0.41076 0.34453 0.0
C2123 C 0.2066 0.42308 0.34265 0.0
N2124 N 0.20324 0.41846 0.36202 0.0
C2125 C 0.22395 0.40621 0.36448 0.0
C2126 C 0.21887 0.41934 0.33357 0.0
C2127 C 0.21159 0.41018 0.37303 0.0
C2128 C 0.26437 0.41384 0.38466 0.0
N2129 N 0.25895 0.40221 0.37713 0.0
C2130 C 0.25741 0.39303 0.41161 0.0
C2131 C 0.25534 0.39195 0.39011 0.0
C2132 C 0.2631 0.40486 0.41988 0.0
C2133 C 0.26648 0.41543 0.40619 0.0
H2134 H 0.26712 0.42184 0.37393 0.0
H2135 H 0.25083 0.3829 0.38374 0.0
C2136 C 0.22852 0.36819 0.30256 0.0
N2137 N 0.22654 0.37809 0.31695 0.0
C2138 C 0.21839 0.35879 0.29842 0.0
C2139 C 0.20427 0.37001 0.32392 0.0
C2140 C 0.21468 0.37923 0.32749 0.0
C2141 C 0.20611 0.35951 0.30938 0.0
H2142 H 0.23809 0.3675 0.29446 0.0
H2143 H 0.21332 0.38706 0.33898 0.0
C2144 C 0.28022 0.41494 0.3187 0.0
N2145 N 0.30033 0.42869 0.29765 0.0
C2146 C 0.28199 0.41306 0.29718 0.0
C2147 C 0.28869 0.4238 0.32953 0.0
C2148 C 0.29221 0.42011 0.28681 0.0
C2149 C 0.2988 0.43066 0.3186 0.0
C2150 C 0.24337 0.396 0.27884 0.0
C2151 C 0.24786 0.39232 0.25889 0.0
C2152 C 0.23043 0.40134 0.28135 0.0
C2153 C 0.2393 0.39412 0.24172 0.0
C2154 C 0.22217 0.40297 0.26381 0.0
N2155 N 0.22674 0.39936 0.24451 0.0
C2156 C 0.27698 0.37146 0.28934 0.0
C2157 C 0.29368 0.38243 0.30979 0.0
C2158 C 0.28681 0.36391 0.27905 0.0
N2159 N 0.28056 0.38055 0.30422 0.0
C2160 C 0.30388 0.37508 0.29988 0.0
C2161 C 0.30048 0.36574 0.28415 0.0
H2162 H 0.26644 0.37011 0.28543 0.0
H2163 H 0.29622 0.38973 0.32176 0.0
C2164 C 0.24676 0.43851 0.31042 0.0
N2165 N 0.25098 0.4275 0.29956 0.0
C2166 C 0.24575 0.45103 0.30046 0.0
C2167 C 0.25354 0.4406 0.26843 0.0
C2168 C 0.25434 0.42831 0.27895 0.0
C2169 C 0.24927 0.45217 0.27921 0.0
H2170 H 0.2443 0.43758 0.32687 0.0
H2171 H 0.25781 0.41946 0.27069 0.0
O2172 O 0.25612 0.3805 0.33826 0.0
O2173 O 0.23973 0.40717 0.33601 0.0
O2174 O 0.27025 0.40822 0.32925 0.0
O2175 O 0.25168 0.39432 0.29575 0.0
H2176 H 0.25263 0.35473 0.34724 0.0
H2177 H 0.27968 0.38849 0.35383 0.0
H2178 H 0.26895 0.34058 0.36703 0.0
H2179 H 0.29549 0.37377 0.37343 0.0
H2180 H 0.19976 0.42968 0.33432 0.0
H2181 H 0.23051 0.39955 0.37317 0.0
H2182 H 0.22156 0.42314 0.31824 0.0
H2183 H 0.20864 0.40667 0.3884 0.0
H2184 H 0.25445 0.38476 0.42171 0.0
H2185 H 0.2709 0.4247 0.41202 0.0
H2186 H 0.22019 0.35099 0.28688 0.0
H2187 H 0.19507 0.37084 0.33296 0.0
H2188 H 0.27557 0.40622 0.28854 0.0
H2189 H 0.28745 0.42535 0.3462 0.0
H2190 H 0.29368 0.41875 0.27016 0.0
H2191 H 0.30543 0.43756 0.32678 0.0
H2192 H 0.25787 0.38818 0.2567 0.0
H2193 H 0.22678 0.40411 0.29669 0.0
H2194 H 0.24265 0.39135 0.22617 0.0
H2195 H 0.21212 0.40708 0.26553 0.0
H2196 H 0.28371 0.35662 0.26736 0.0
H2197 H 0.31429 0.37685 0.3042 0.0
H2198 H 0.24256 0.45976 0.30939 0.0
H2199 H 0.25623 0.44102 0.25199 0.0
Li2200 Li 0.59697 0.25796 0.34418 0.0
Li2201 Li 0.6061 0.2422 0.31893 0.0
Li2202 Li 0.60518 0.26667 0.31162 0.0
Li2203 Li 0.5847 0.25361 0.31165 0.0
C2204 C 0.62302 0.25862 0.35106 0.0
N2205 N 0.6373 0.26192 0.38787 0.0
C2206 C 0.62564 0.24752 0.36395 0.0
C2207 C 0.62783 0.27136 0.35674 0.0
C2208 C 0.63283 0.2494 0.38254 0.0
C2209 C 0.63499 0.27284 0.37545 0.0
C2210 C 0.58278 0.22851 0.3306 0.0
C2211 C 0.57769 0.21011 0.30716 0.0
N2212 N 0.57011 0.20424 0.3224 0.0
C2213 C 0.57495 0.2223 0.34603 0.0
C2214 C 0.58419 0.22238 0.311 0.0
C2215 C 0.56862 0.21003 0.34158 0.0
C2216 C 0.59341 0.27279 0.3824 0.0
N2217 N 0.59502 0.26042 0.37355 0.0
C2218 C 0.59389 0.24978 0.40707 0.0
C2219 C 0.59522 0.24901 0.38536 0.0
C2220 C 0.59227 0.26243 0.4167 0.0
C2221 C 0.59204 0.27404 0.40408 0.0
H2222 H 0.59308 0.28169 0.37272 0.0
H2223 H 0.59652 0.2393 0.37788 0.0
C2224 C 0.62548 0.22633 0.29908 0.0
N2225 N 0.61679 0.22655 0.31552 0.0
C2226 C 0.63456 0.21568 0.29677 0.0
C2227 C 0.6254 0.20557 0.32819 0.0
C2228 C 0.61645 0.21641 0.32984 0.0
C2229 C 0.63479 0.20523 0.31167 0.0
H2230 H 0.62558 0.23463 0.28808 0.0
H2231 H 0.60952 0.21695 0.3429 0.0
C2232 C 0.5863 0.28482 0.32471 0.0
N2233 N 0.58337 0.31253 0.32217 0.0
C2234 C 0.57532 0.29041 0.31402 0.0
C2235 C 0.59576 0.29334 0.33415 0.0
C2236 C 0.57403 0.30444 0.3129 0.0
C2237 C 0.59411 0.30731 0.33268 0.0
C2238 C 0.59798 0.2561 0.27274 0.0
C2239 C 0.58913 0.26688 0.26953 0.0
C2240 C 0.60439 0.25013 0.25559 0.0
C2241 C 0.58688 0.27157 0.2492 0.0
C2242 C 0.60187 0.2551 0.23548 0.0
N2243 N 0.59324 0.26563 0.23273 0.0
C2244 C 0.62895 0.27857 0.29876 0.0
C2245 C 0.60993 0.29136 0.28824 0.0
C2246 C 0.63764 0.28787 0.28951 0.0
N2247 N 0.61539 0.28051 0.2982 0.0
C2248 C 0.61827 0.30106 0.27905 0.0
C2249 C 0.63237 0.29942 0.27967 0.0
H2250 H 0.63302 0.26969 0.30632 0.0
H2251 H 0.59911 0.29257 0.28748 0.0
C2252 C 0.5569 0.2573 0.31082 0.0
N2253 N 0.56723 0.25141 0.30026 0.0
C2254 C 0.54379 0.25661 0.30298 0.0
C2255 C 0.55213 0.24326 0.274 0.0
C2256 C 0.56511 0.24432 0.28232 0.0
C2257 C 0.54131 0.24963 0.28424 0.0
H2258 H 0.55891 0.2627 0.32521 0.0
H2259 H 0.57351 0.23962 0.27435 0.0
O2260 O 0.61572 0.25702 0.33305 0.0
O2261 O 0.58898 0.24055 0.33478 0.0
O2262 O 0.58774 0.27109 0.32593 0.0
O2263 O 0.60036 0.25133 0.29252 0.0
H2264 H 0.62199 0.23759 0.35979 0.0
H2265 H 0.62609 0.28002 0.34679 0.0
H2266 H 0.63482 0.24092 0.39276 0.0
H2267 H 0.63872 0.28265 0.38009 0.0
H2268 H 0.57868 0.20526 0.29206 0.0
H2269 H 0.57376 0.22693 0.36128 0.0
H2270 H 0.59021 0.22701 0.29885 0.0
H2271 H 0.56252 0.20511 0.35338 0.0
H2272 H 0.59431 0.24058 0.41622 0.0
H2273 H 0.59063 0.28396 0.41084 0.0
H2274 H 0.64148 0.21575 0.28364 0.0
H2275 H 0.62533 0.19784 0.34018 0.0
H2276 H 0.5679 0.28401 0.30656 0.0
H2277 H 0.60438 0.28921 0.34226 0.0
H2278 H 0.5656 0.30889 0.30463 0.0
H2279 H 0.6014 0.31401 0.33983 0.0
H2280 H 0.58404 0.27157 0.28258 0.0
H2281 H 0.61122 0.24172 0.25778 0.0
H2282 H 0.58006 0.27992 0.24652 0.0
H2283 H 0.60677 0.25058 0.22206 0.0
H2284 H 0.64838 0.2859 0.28988 0.0
H2285 H 0.61369 0.3098 0.27177 0.0
H2286 H 0.53568 0.26149 0.31148 0.0
H2287 H 0.55062 0.23785 0.25945 0.0
Li2288 Li 0.75328 0.60802 0.31944 0.0
Li2289 Li 0.73904 0.59889 0.34723 0.0
Li2290 Li 0.74237 0.58676 0.31456 0.0
Li2291 Li 0.7288 0.60719 0.31571 0.0
C2292 C 0.7626 0.57948 0.33804 0.0
N2293 N 0.77469 0.55443 0.34132 0.0
C2294 C 0.75966 0.57108 0.35504 0.0
C2295 C 0.77172 0.57515 0.32275 0.0
C2296 C 0.76588 0.55846 0.35641 0.0
C2297 C 0.77771 0.56244 0.32466 0.0
C2298 C 0.73953 0.62483 0.35418 0.0
C2299 C 0.72817 0.63345 0.38481 0.0
N2300 N 0.74012 0.6383 0.39208 0.0
C2301 C 0.75171 0.62991 0.36196 0.0
C2302 C 0.72765 0.62664 0.36567 0.0
C2303 C 0.75179 0.6367 0.38114 0.0
C2304 C 0.76617 0.63214 0.30944 0.0
N2305 N 0.76858 0.61891 0.3136 0.0
C2306 C 0.79232 0.62224 0.3097 0.0
C2307 C 0.78131 0.61383 0.31378 0.0
C2308 C 0.79017 0.63603 0.30562 0.0
C2309 C 0.77685 0.64092 0.30544 0.0
H2310 H 0.75592 0.6359 0.30955 0.0
H2311 H 0.78293 0.60328 0.31721 0.0
C2312 C 0.7256 0.5935 0.38581 0.0
N2313 N 0.73743 0.59728 0.37676 0.0
C2314 C 0.72445 0.59307 0.40761 0.0
C2315 C 0.74775 0.60014 0.41025 0.0
C2316 C 0.74846 0.60036 0.38845 0.0
C2317 C 0.73559 0.59658 0.42011 0.0
H2318 H 0.71703 0.59097 0.37613 0.0
H2319 H 0.75778 0.60317 0.38076 0.0
C2320 C 0.74907 0.60885 0.27935 0.0
N2321 N 0.76282 0.62358 0.24941 0.0
C2322 C 0.7437 0.62097 0.27184 0.0
C2323 C 0.76143 0.60421 0.27159 0.0
C2324 C 0.7508 0.62826 0.2567 0.0
C2325 C 0.76823 0.61182 0.25649 0.0
C2326 C 0.71204 0.58797 0.32548 0.0
C2327 C 0.70823 0.57916 0.30943 0.0
C2328 C 0.70217 0.59537 0.33611 0.0
C2329 C 0.69459 0.57793 0.30424 0.0
C2330 C 0.68864 0.59388 0.33042 0.0
N2331 N 0.68516 0.58526 0.31474 0.0
C2332 C 0.7398 0.55858 0.3146 0.0
C2333 C 0.74787 0.56771 0.28263 0.0
C2334 C 0.74029 0.54555 0.30638 0.0
N2335 N 0.74359 0.56929 0.30269 0.0
C2336 C 0.74857 0.55486 0.27379 0.0
C2337 C 0.74468 0.54358 0.28569 0.0
H2338 H 0.73631 0.56019 0.33046 0.0
H2339 H 0.75059 0.57644 0.27341 0.0
C2340 C 0.7092 0.62783 0.3119 0.0
N2341 N 0.71377 0.6161 0.30351 0.0
C2342 C 0.69863 0.63482 0.30236 0.0
C2343 C 0.6977 0.61751 0.27569 0.0
C2344 C 0.70828 0.61085 0.28577 0.0
C2345 C 0.69281 0.62972 0.28391 0.0
H2346 H 0.71395 0.63193 0.32572 0.0
H2347 H 0.71228 0.60159 0.2793 0.0
O2348 O 0.75641 0.59177 0.3362 0.0
O2349 O 0.73929 0.61786 0.33568 0.0
O2350 O 0.74244 0.60172 0.29455 0.0
O2351 O 0.72537 0.58951 0.33055 0.0
H2352 H 0.75254 0.5742 0.36693 0.0
H2353 H 0.77396 0.58143 0.30932 0.0
H2354 H 0.76366 0.55184 0.36944 0.0
H2355 H 0.7847 0.55892 0.31285 0.0
H2356 H 0.71907 0.63483 0.39393 0.0
H2357 H 0.76103 0.62846 0.35346 0.0
H2358 H 0.71818 0.62261 0.36006 0.0
H2359 H 0.76115 0.64063 0.38739 0.0
H2360 H 0.80238 0.61799 0.30978 0.0
H2361 H 0.77467 0.65149 0.30282 0.0
H2362 H 0.71488 0.59033 0.41459 0.0
H2363 H 0.75665 0.60268 0.41928 0.0
H2364 H 0.73424 0.6248 0.27779 0.0
H2365 H 0.76586 0.59498 0.27747 0.0
H2366 H 0.74679 0.63768 0.25081 0.0
H2367 H 0.77785 0.6084 0.25047 0.0
H2368 H 0.71573 0.57344 0.3009 0.0
H2369 H 0.70494 0.60237 0.34838 0.0
H2370 H 0.69151 0.57118 0.29181 0.0
H2371 H 0.68091 0.59961 0.33842 0.0
H2372 H 0.7373 0.53711 0.31612 0.0
H2373 H 0.75179 0.55379 0.25767 0.0
H2374 H 0.69536 0.64433 0.309 0.0
H2375 H 0.69345 0.61318 0.26158 0.0
Li2376 Li 0.38758 0.75228 0.31838 0.0
Li2377 Li 0.39899 0.73932 0.34577 0.0
Li2378 Li 0.4094 0.743 0.31189 0.0
Li2379 Li 0.39018 0.72781 0.3156 0.0
C2380 C 0.41586 0.76422 0.33369 0.0
N2381 N 0.43992 0.77831 0.33356 0.0
C2382 C 0.42569 0.76152 0.34883 0.0
C2383 C 0.41824 0.77413 0.31854 0.0
C2384 C 0.43779 0.76876 0.3485 0.0
C2385 C 0.43048 0.78112 0.31871 0.0
C2386 C 0.37336 0.738 0.35515 0.0
C2387 C 0.36611 0.7264 0.38641 0.0
N2388 N 0.36112 0.73821 0.39403 0.0
C2389 C 0.36811 0.75001 0.36325 0.0
C2390 C 0.3723 0.72608 0.36675 0.0
C2391 C 0.36196 0.74991 0.38295 0.0
C2392 C 0.36231 0.76239 0.30824 0.0
N2393 N 0.375 0.76632 0.31344 0.0
C2394 C 0.36842 0.7895 0.31305 0.0
C2395 C 0.37825 0.77955 0.31584 0.0
C2396 C 0.35514 0.78573 0.3079 0.0
C2397 C 0.3522 0.77196 0.30523 0.0
H2398 H 0.36003 0.75176 0.30666 0.0
H2399 H 0.38839 0.78236 0.32031 0.0
C2400 C 0.40608 0.72686 0.38439 0.0
N2401 N 0.40178 0.73843 0.3751 0.0
C2402 C 0.40722 0.72616 0.40616 0.0
C2403 C 0.39987 0.7494 0.40825 0.0
C2404 C 0.39887 0.74965 0.38647 0.0
C2405 C 0.40397 0.7375 0.41839 0.0
H2406 H 0.40849 0.71815 0.37495 0.0
H2407 H 0.39551 0.75871 0.37859 0.0
C2408 C 0.38575 0.74711 0.27824 0.0
N2409 N 0.36939 0.75878 0.24822 0.0
C2410 C 0.37473 0.74 0.27017 0.0
C2411 C 0.38849 0.76014 0.27094 0.0
C2412 C 0.36658 0.74608 0.25501 0.0
C2413 C 0.38007 0.76587 0.2558 0.0
C2414 C 0.41112 0.71269 0.32468 0.0
C2415 C 0.42022 0.70897 0.30898 0.0
C2416 C 0.40448 0.7027 0.33621 0.0
C2417 C 0.42252 0.69528 0.30508 0.0
C2418 C 0.40703 0.68913 0.3318 0.0
N2419 N 0.41593 0.68573 0.31647 0.0
C2420 C 0.43751 0.74182 0.30886 0.0
C2421 C 0.42685 0.75155 0.27924 0.0
C2422 C 0.45018 0.74363 0.29979 0.0
N2423 N 0.42621 0.74574 0.29848 0.0
C2424 C 0.43933 0.75367 0.26965 0.0
C2425 C 0.45122 0.74962 0.27989 0.0
H2426 H 0.43665 0.73719 0.32414 0.0
H2427 H 0.4177 0.75456 0.27135 0.0
C2428 C 0.36852 0.70998 0.31267 0.0
N2429 N 0.38121 0.71221 0.30541 0.0
C2430 C 0.36055 0.6999 0.30385 0.0
C2431 C 0.37904 0.69418 0.28076 0.0
C2432 C 0.3866 0.70457 0.2898 0.0
C2433 C 0.36575 0.69202 0.2875 0.0
H2434 H 0.36436 0.71642 0.32469 0.0
H2435 H 0.39654 0.70687 0.28382 0.0
O2436 O 0.40411 0.757 0.33342 0.0
O2437 O 0.37975 0.73795 0.33616 0.0
O2438 O 0.39374 0.74142 0.29334 0.0
O2439 O 0.40869 0.72604 0.3287 0.0
H2440 H 0.42406 0.75381 0.36056 0.0
H2441 H 0.41081 0.77625 0.30657 0.0
H2442 H 0.44551 0.76673 0.36006 0.0
H2443 H 0.43251 0.78875 0.30699 0.0
H2444 H 0.36531 0.71728 0.39563 0.0
H2445 H 0.36894 0.75936 0.35458 0.0
H2446 H 0.37636 0.71671 0.36075 0.0
H2447 H 0.35793 0.75914 0.38946 0.0
H2448 H 0.37108 0.79998 0.31556 0.0
H2449 H 0.34217 0.7686 0.301 0.0
H2450 H 0.41062 0.71685 0.41333 0.0
H2451 H 0.39712 0.75833 0.41706 0.0
H2452 H 0.37243 0.72993 0.27561 0.0
H2453 H 0.39685 0.76587 0.27721 0.0
H2454 H 0.35799 0.7407 0.24868 0.0
H2455 H 0.38201 0.77599 0.25016 0.0
H2456 H 0.42535 0.71653 0.29974 0.0
H2457 H 0.39727 0.70539 0.34823 0.0
H2458 H 0.42951 0.69225 0.29294 0.0
H2459 H 0.40191 0.68129 0.34053 0.0
H2460 H 0.45901 0.74011 0.30814 0.0
H2461 H 0.43963 0.75849 0.25443 0.0
H2462 H 0.3503 0.69851 0.30934 0.0
H2463 H 0.38326 0.68841 0.26792 0.0
Li2464 Li 0.26668 0.60611 0.18113 0.0
Li2465 Li 0.25353 0.58589 0.18023 0.0
Li2466 Li 0.25748 0.59845 0.1485 0.0
Li2467 Li 0.24256 0.60718 0.17492 0.0
C2468 C 0.28345 0.58983 0.15667 0.0
N2469 N 0.30834 0.59128 0.13729 0.0
C2470 C 0.29135 0.57823 0.15444 0.0
C2471 C 0.28821 0.60217 0.14903 0.0
C2472 C 0.30391 0.57917 0.1446 0.0
C2473 C 0.30082 0.6027 0.13929 0.0
C2474 C 0.2571 0.5983 0.21977 0.0
C2475 C 0.25684 0.60143 0.25721 0.0
N2476 N 0.26778 0.5932 0.25894 0.0
C2477 C 0.26836 0.5899 0.22188 0.0
C2478 C 0.2513 0.60413 0.23754 0.0
C2479 C 0.27359 0.58744 0.24184 0.0
C2480 C 0.2778 0.62843 0.20011 0.0
N2481 N 0.28083 0.61556 0.19459 0.0
C2482 C 0.30317 0.61786 0.20823 0.0
C2483 C 0.29313 0.61007 0.19873 0.0
C2484 C 0.30041 0.63133 0.21378 0.0
C2485 C 0.28743 0.6365 0.20986 0.0
H2486 H 0.26784 0.6324 0.1969 0.0
H2487 H 0.29519 0.59971 0.19451 0.0
C2488 C 0.25689 0.55788 0.18071 0.0
N2489 N 0.2515 0.56836 0.19157 0.0
C2490 C 0.25607 0.54478 0.18865 0.0
C2491 C 0.24398 0.55352 0.21863 0.0
C2492 C 0.24498 0.56643 0.21006 0.0
C2493 C 0.24966 0.54249 0.20798 0.0
H2494 H 0.26191 0.55974 0.16594 0.0
H2495 H 0.2407 0.57493 0.21832 0.0
C2496 C 0.25134 0.62603 0.14645 0.0
N2497 N 0.23976 0.64435 0.11919 0.0
C2498 C 0.24084 0.62202 0.1332 0.0
C2499 C 0.25593 0.63936 0.14586 0.0
C2500 C 0.23513 0.63143 0.11953 0.0
C2501 C 0.24995 0.64847 0.13196 0.0
C2502 C 0.22811 0.58439 0.16257 0.0
C2503 C 0.22128 0.57711 0.14711 0.0
C2504 C 0.2226 0.58537 0.18267 0.0
C2505 C 0.20902 0.57091 0.15203 0.0
C2506 C 0.21032 0.57902 0.18697 0.0
N2507 N 0.20384 0.57198 0.17168 0.0
C2508 C 0.25633 0.58607 0.10878 0.0
C2509 C 0.26666 0.60767 0.10898 0.0
C2510 C 0.25768 0.58527 0.08703 0.0
N2511 N 0.26063 0.59724 0.11919 0.0
C2512 C 0.26804 0.60738 0.08727 0.0
C2513 C 0.26337 0.59615 0.07603 0.0
H2514 H 0.25161 0.57792 0.11736 0.0
H2515 H 0.27015 0.61638 0.11761 0.0
C2516 C 0.229 0.62786 0.19494 0.0
N2517 N 0.22732 0.61823 0.18003 0.0
C2518 C 0.21895 0.63744 0.19846 0.0
C2519 C 0.20546 0.62678 0.17155 0.0
C2520 C 0.21583 0.61744 0.16846 0.0
C2521 C 0.20707 0.63708 0.18647 0.0
H2522 H 0.23834 0.6283 0.2037 0.0
H2523 H 0.21487 0.60985 0.15639 0.0
O2524 O 0.27111 0.58897 0.1662 0.0
O2525 O 0.25189 0.60108 0.20041 0.0
O2526 O 0.25708 0.61706 0.1601 0.0
O2527 O 0.24016 0.59043 0.15791 0.0
H2528 H 0.2878 0.5686 0.16026 0.0
H2529 H 0.2823 0.61127 0.1507 0.0
H2530 H 0.31012 0.57028 0.14277 0.0
H2531 H 0.30463 0.61218 0.13334 0.0
H2532 H 0.25245 0.60587 0.27111 0.0
H2533 H 0.27302 0.58536 0.20828 0.0
H2534 H 0.24262 0.61071 0.23611 0.0
H2535 H 0.2823 0.58096 0.24372 0.0
H2536 H 0.31302 0.61344 0.21082 0.0
H2537 H 0.28468 0.64667 0.21436 0.0
H2538 H 0.26039 0.53655 0.17973 0.0
H2539 H 0.2391 0.55228 0.23368 0.0
H2540 H 0.23714 0.61175 0.13342 0.0
H2541 H 0.26403 0.64262 0.15606 0.0
H2542 H 0.22701 0.62845 0.10918 0.0
H2543 H 0.25341 0.65882 0.13133 0.0
H2544 H 0.22543 0.57626 0.13148 0.0
H2545 H 0.22769 0.59099 0.19483 0.0
H2546 H 0.20363 0.56524 0.14021 0.0
H2547 H 0.20594 0.57969 0.20245 0.0
H2548 H 0.2539 0.57647 0.07884 0.0
H2549 H 0.27261 0.61589 0.07932 0.0
H2550 H 0.22053 0.64516 0.21022 0.0
H2551 H 0.19654 0.62628 0.16178 0.0
Li2552 Li 0.38747 0.26569 0.18388 0.0
Li2553 Li 0.4077 0.25184 0.18464 0.0
Li2554 Li 0.39602 0.25616 0.15056 0.0
Li2555 Li 0.38675 0.24057 0.17705 0.0
C2556 C 0.40697 0.28259 0.16522 0.0
N2557 N 0.41102 0.30953 0.15588 0.0
C2558 C 0.41671 0.29003 0.17606 0.0
C2559 C 0.39944 0.2888 0.14942 0.0
C2560 C 0.41856 0.30365 0.17117 0.0
C2561 C 0.4016 0.30244 0.14498 0.0
C2562 C 0.39685 0.2482 0.22239 0.0
C2563 C 0.40751 0.23341 0.24741 0.0
N2564 N 0.40814 0.24378 0.26135 0.0
C2565 C 0.39747 0.25867 0.23702 0.0
C2566 C 0.40178 0.23543 0.22766 0.0
C2567 C 0.40326 0.25625 0.25662 0.0
C2568 C 0.36442 0.27962 0.19669 0.0
N2569 N 0.37811 0.28026 0.19646 0.0
C2570 C 0.37773 0.3013 0.21476 0.0
C2571 C 0.38486 0.29071 0.20547 0.0
C2572 C 0.36356 0.30108 0.2147 0.0
C2573 C 0.3569 0.29003 0.20559 0.0
H2574 H 0.35933 0.27099 0.19001 0.0
H2575 H 0.39575 0.29075 0.20566 0.0
C2576 C 0.43338 0.2403 0.19273 0.0
N2577 N 0.4247 0.25039 0.19787 0.0
C2578 C 0.446 0.23949 0.2024 0.0
C2579 C 0.44039 0.2594 0.22253 0.0
C2580 C 0.42796 0.25988 0.21234 0.0
C2581 C 0.44966 0.24916 0.2175 0.0
H2582 H 0.43058 0.233 0.18093 0.0
H2583 H 0.42089 0.26785 0.21597 0.0
C2584 C 0.36669 0.25877 0.1498 0.0
N2585 N 0.34486 0.26541 0.12487 0.0
C2586 C 0.35819 0.24866 0.14209 0.0
C2587 C 0.36397 0.27227 0.14502 0.0
C2588 C 0.34724 0.25222 0.12945 0.0
C2589 C 0.35292 0.27542 0.13236 0.0
C2590 C 0.40496 0.22612 0.15435 0.0
C2591 C 0.40303 0.22322 0.13313 0.0
C2592 C 0.40781 0.21566 0.16836 0.0
C2593 C 0.40378 0.20984 0.12633 0.0
C2594 C 0.40846 0.20241 0.16094 0.0
N2595 N 0.40644 0.19979 0.14026 0.0
C2596 C 0.41069 0.26392 0.11486 0.0
C2597 C 0.38823 0.25708 0.10768 0.0
C2598 C 0.41299 0.26641 0.09361 0.0
N2599 N 0.39844 0.2594 0.12144 0.0
C2600 C 0.39002 0.25963 0.0864 0.0
C2601 C 0.40252 0.26435 0.07916 0.0
H2602 H 0.41866 0.26557 0.12615 0.0
H2603 H 0.37875 0.25307 0.11309 0.0
C2604 C 0.37019 0.22326 0.20031 0.0
N2605 N 0.37594 0.22494 0.18115 0.0
C2606 C 0.36118 0.21266 0.20381 0.0
C2607 C 0.36452 0.20547 0.16799 0.0
C2608 C 0.37328 0.21633 0.16508 0.0
C2609 C 0.3582 0.20368 0.18746 0.0
H2610 H 0.37231 0.23038 0.21271 0.0
H2611 H 0.37756 0.21815 0.1498 0.0
O2612 O 0.40504 0.26923 0.16984 0.0
O2613 O 0.39141 0.25043 0.20302 0.0
O2614 O 0.37746 0.25542 0.16218 0.0
O2615 O 0.40426 0.23916 0.16129 0.0
H2616 H 0.42273 0.28536 0.18818 0.0
H2617 H 0.3921 0.28315 0.14053 0.0
H2618 H 0.42601 0.30955 0.17953 0.0
H2619 H 0.39582 0.30737 0.13281 0.0
H2620 H 0.41146 0.22361 0.25166 0.0
H2621 H 0.39363 0.2686 0.23322 0.0
H2622 H 0.40123 0.22719 0.2166 0.0
H2623 H 0.40389 0.26428 0.26805 0.0
H2624 H 0.38323 0.30962 0.22172 0.0
H2625 H 0.34599 0.28934 0.20565 0.0
H2626 H 0.45289 0.23156 0.19778 0.0
H2627 H 0.44266 0.26695 0.23427 0.0
H2628 H 0.36006 0.23817 0.1457 0.0
H2629 H 0.37021 0.28027 0.15124 0.0
H2630 H 0.34063 0.24449 0.12329 0.0
H2631 H 0.35072 0.28583 0.12854 0.0
H2632 H 0.4009 0.2312 0.12205 0.0
H2633 H 0.40944 0.21774 0.18478 0.0
H2634 H 0.40224 0.20743 0.10997 0.0
H2635 H 0.41057 0.1942 0.17163 0.0
H2636 H 0.42278 0.27001 0.08854 0.0
H2637 H 0.3818 0.25765 0.07565 0.0
H2638 H 0.35647 0.2116 0.21902 0.0
H2639 H 0.36225 0.1989 0.1549 0.0
Li2640 Li 0.74235 0.41132 0.18128 0.0
Li2641 Li 0.72993 0.39 0.17888 0.0
Li2642 Li 0.75525 0.39068 0.17304 0.0
Li2643 Li 0.7393 0.39943 0.14698 0.0
C2644 C 0.74785 0.39637 0.21919 0.0
N2645 N 0.75435 0.39923 0.26105 0.0
C2646 C 0.73782 0.39534 0.2345 0.0
C2647 C 0.76123 0.39857 0.2252 0.0
C2648 C 0.74129 0.3969 0.25557 0.0
C2649 C 0.7643 0.40006 0.24643 0.0
C2650 C 0.71184 0.40951 0.16708 0.0
C2651 C 0.6891 0.40357 0.15731 0.0
N2652 N 0.68429 0.41309 0.17072 0.0
C2653 C 0.70669 0.41932 0.18064 0.0
C2654 C 0.70299 0.40164 0.15518 0.0
C2655 C 0.69272 0.42095 0.18229 0.0
C2656 C 0.74874 0.43898 0.18514 0.0
N2657 N 0.74302 0.42827 0.19505 0.0
C2658 C 0.73796 0.44185 0.22493 0.0
C2659 C 0.7375 0.42952 0.21443 0.0
C2660 C 0.74402 0.45305 0.21526 0.0
C2661 C 0.74942 0.45151 0.19505 0.0
H2662 H 0.75272 0.4378 0.16948 0.0
H2663 H 0.73259 0.421 0.22166 0.0
C2664 C 0.71682 0.36583 0.18829 0.0
N2665 N 0.71594 0.37942 0.19085 0.0
C2666 C 0.70728 0.35733 0.19748 0.0
C2667 C 0.69594 0.37698 0.21145 0.0
C2668 C 0.70586 0.38509 0.20233 0.0
C2669 C 0.69669 0.36292 0.20919 0.0
H2670 H 0.72506 0.36157 0.17939 0.0
H2671 H 0.70565 0.39586 0.2048 0.0
C2672 C 0.76816 0.41416 0.15714 0.0
N2673 N 0.79344 0.42582 0.15475 0.0
C2674 C 0.77425 0.41625 0.13765 0.0
C2675 C 0.77486 0.41812 0.17538 0.0
C2676 C 0.78705 0.42212 0.13678 0.0
C2677 C 0.78765 0.42398 0.17385 0.0
C2678 C 0.7399 0.37236 0.14062 0.0
C2679 C 0.75142 0.36666 0.13158 0.0
C2680 C 0.7272 0.36954 0.13218 0.0
C2681 C 0.75005 0.35845 0.11392 0.0
C2682 C 0.72625 0.36128 0.1145 0.0
N2683 N 0.7376 0.35597 0.1058 0.0
C2684 C 0.77203 0.37159 0.1923 0.0
C2685 C 0.78199 0.38263 0.16322 0.0
C2686 C 0.78335 0.36332 0.19454 0.0
N2687 N 0.77154 0.38094 0.17675 0.0
C2688 C 0.79355 0.37469 0.16501 0.0
C2689 C 0.79426 0.3647 0.18061 0.0
H2690 H 0.76345 0.37031 0.20258 0.0
H2691 H 0.78121 0.38985 0.15062 0.0
C2692 C 0.7259 0.40739 0.10942 0.0
N2693 N 0.737 0.40134 0.11768 0.0
C2694 C 0.7242 0.40803 0.08771 0.0
C2695 C 0.74546 0.39633 0.08357 0.0
C2696 C 0.74685 0.39613 0.10527 0.0
C2697 C 0.73398 0.40225 0.07458 0.0
H2698 H 0.71832 0.41163 0.11967 0.0
H2699 H 0.75572 0.39169 0.11229 0.0
O2700 O 0.74462 0.39475 0.1985 0.0
O2701 O 0.72549 0.40775 0.16532 0.0
O2702 O 0.75566 0.40833 0.15823 0.0
O2703 O 0.74106 0.38056 0.15776 0.0
H2704 H 0.72743 0.39348 0.23014 0.0
H2705 H 0.76919 0.39897 0.21366 0.0
H2706 H 0.73361 0.39625 0.26756 0.0
H2707 H 0.77461 0.40182 0.2513 0.0
H2708 H 0.68213 0.3975 0.14828 0.0
H2709 H 0.71339 0.42558 0.18982 0.0
H2710 H 0.70681 0.39412 0.14446 0.0
H2711 H 0.68859 0.42845 0.19279 0.0
H2712 H 0.7337 0.44256 0.24051 0.0
H2713 H 0.75393 0.45995 0.18684 0.0
H2714 H 0.70816 0.3465 0.19547 0.0
H2715 H 0.68803 0.3816 0.22069 0.0
H2716 H 0.76916 0.41332 0.12337 0.0
H2717 H 0.77018 0.41684 0.19052 0.0
H2718 H 0.79192 0.42375 0.12182 0.0
H2719 H 0.79295 0.42709 0.18786 0.0
H2720 H 0.76132 0.36867 0.13801 0.0
H2721 H 0.71818 0.37367 0.13921 0.0
H2722 H 0.75888 0.35406 0.10666 0.0
H2723 H 0.71649 0.35908 0.10772 0.0
H2724 H 0.7833 0.35561 0.20656 0.0
H2725 H 0.80174 0.37623 0.15404 0.0
H2726 H 0.71523 0.4127 0.08127 0.0
H2727 H 0.75332 0.39197 0.0739 0.0
Li2728 Li 0.58499 0.74167 0.18328 0.0
Li2729 Li 0.60461 0.72808 0.18049 0.0
Li2730 Li 0.60632 0.75224 0.17628 0.0
Li2731 Li 0.5961 0.73779 0.14804 0.0
C2732 C 0.59544 0.74375 0.22089 0.0
N2733 N 0.58339 0.74683 0.25966 0.0
C2734 C 0.59366 0.73259 0.23402 0.0
C2735 C 0.59115 0.75649 0.22756 0.0
C2736 C 0.58755 0.73435 0.25355 0.0
C2737 C 0.58505 0.75783 0.24718 0.0
C2738 C 0.58518 0.71102 0.16693 0.0
C2739 C 0.58405 0.68972 0.14873 0.0
N2740 N 0.58174 0.68335 0.16726 0.0
C2741 C 0.58275 0.70428 0.18578 0.0
C2742 C 0.58581 0.70371 0.14823 0.0
C2743 C 0.58107 0.69027 0.18563 0.0
C2744 C 0.5601 0.7548 0.18982 0.0
N2745 N 0.56781 0.74416 0.19601 0.0
C2746 C 0.55097 0.73729 0.22055 0.0
C2747 C 0.5634 0.73533 0.2108 0.0
C2748 C 0.54287 0.74824 0.21459 0.0
C2749 C 0.54749 0.75701 0.19891 0.0
H2750 H 0.56371 0.76153 0.17776 0.0
H2751 H 0.56952 0.72678 0.2151 0.0
C2752 C 0.6212 0.71562 0.20996 0.0
N2753 N 0.6146 0.71311 0.19171 0.0
C2754 C 0.62883 0.70557 0.21956 0.0
C2755 C 0.62338 0.69061 0.1909 0.0
C2756 C 0.61579 0.70097 0.18187 0.0
C2757 C 0.6299 0.69281 0.21013 0.0
H2758 H 0.62062 0.72552 0.21701 0.0
H2759 H 0.611 0.69934 0.16691 0.0
C2760 C 0.5894 0.76822 0.1553 0.0
N2761 N 0.59088 0.7952 0.14452 0.0
C2762 C 0.59205 0.77198 0.13459 0.0
C2763 C 0.58733 0.77819 0.17045 0.0
C2764 C 0.59279 0.78567 0.12947 0.0
C2765 C 0.58817 0.79177 0.16471 0.0
C2766 C 0.62604 0.73063 0.15635 0.0
C2767 C 0.6373 0.73331 0.16885 0.0
C2768 C 0.62633 0.71987 0.14221 0.0
C2769 C 0.64869 0.72507 0.16707 0.0
C2770 C 0.63791 0.71188 0.14087 0.0
N2771 N 0.64875 0.71462 0.15324 0.0
C2772 C 0.62099 0.77179 0.19954 0.0
C2773 C 0.6223 0.7738 0.16258 0.0
C2774 C 0.62953 0.78288 0.20208 0.0
N2775 N 0.61751 0.76756 0.18002 0.0
C2776 C 0.63071 0.78502 0.16438 0.0
C2777 C 0.63447 0.78965 0.18433 0.0
H2778 H 0.61729 0.76644 0.21313 0.0
H2779 H 0.61968 0.76996 0.14726 0.0
C2780 C 0.58159 0.7337 0.11019 0.0
N2781 N 0.59384 0.73641 0.1188 0.0
C2782 C 0.58001 0.73376 0.08842 0.0
C2783 C 0.60369 0.73929 0.08504 0.0
C2784 C 0.6048 0.73913 0.10677 0.0
C2785 C 0.59114 0.73675 0.07557 0.0
H2786 H 0.57302 0.73174 0.12024 0.0
H2787 H 0.61435 0.74145 0.11411 0.0
O2788 O 0.60135 0.74223 0.20164 0.0
O2789 O 0.58673 0.72473 0.16667 0.0
O2790 O 0.58885 0.75486 0.16069 0.0
O2791 O 0.61469 0.73837 0.15822 0.0
H2792 H 0.59672 0.72261 0.22907 0.0
H2793 H 0.59245 0.76524 0.21767 0.0
H2794 H 0.58604 0.72579 0.2638 0.0
H2795 H 0.58163 0.76762 0.25247 0.0
H2796 H 0.58454 0.68392 0.13439 0.0
H2797 H 0.58241 0.70974 0.20041 0.0
H2798 H 0.58771 0.70877 0.1335 0.0
H2799 H 0.57927 0.68491 0.20013 0.0
H2800 H 0.54762 0.73017 0.23233 0.0
H2801 H 0.54147 0.76555 0.19389 0.0
H2802 H 0.63404 0.70784 0.23406 0.0
H2803 H 0.62403 0.68095 0.18301 0.0
H2804 H 0.59361 0.76442 0.12263 0.0
H2805 H 0.58516 0.77547 0.18649 0.0
H2806 H 0.59492 0.78872 0.11354 0.0
H2807 H 0.58668 0.79958 0.17632 0.0
H2808 H 0.63718 0.74158 0.17992 0.0
H2809 H 0.61762 0.71758 0.1326 0.0
H2810 H 0.65746 0.72696 0.17671 0.0
H2811 H 0.63826 0.70346 0.1301 0.0
H2812 H 0.63224 0.78613 0.21772 0.0
H2813 H 0.63454 0.78979 0.15032 0.0
H2814 H 0.57014 0.73187 0.08177 0.0
H2815 H 0.61258 0.74144 0.07575 0.0
H2816 H 0.33285 0.2066 0.20331 0.0
H2817 H 0.31169 0.12949 0.19012 0.0
H2818 H 0.3599 0.17688 0.17732 0.0
H2819 H 0.2832 0.16244 0.18582 0.0
H2820 H 0.33002 0.14594 0.19262 0.0
H2821 H 0.31505 0.18947 0.20487 0.0
C2822 C 0.33508 0.19641 0.19822 0.0
C2823 C 0.34781 0.19311 0.19012 0.0
C2824 C 0.31972 0.14949 0.19122 0.0
C2825 C 0.32758 0.17356 0.19186 0.0
C2826 C 0.30923 0.14014 0.18965 0.0
C2827 C 0.29579 0.14451 0.18761 0.0
C2828 C 0.31675 0.16333 0.19112 0.0
C2829 C 0.29331 0.15849 0.1877 0.0
C2830 C 0.32492 0.18669 0.19897 0.0
C2831 C 0.35016 0.17981 0.18351 0.0
N2832 N 0.30367 0.16738 0.18945 0.0
N2833 N 0.34012 0.17048 0.18455 0.0
H2834 H 0.84958 0.30158 0.21772 0.0
H2835 H 0.80846 0.35386 0.14779 0.0
H2836 H 0.8576 0.30852 0.15216 0.0
H2837 H 0.80654 0.3537 0.2154 0.0
H2838 H 0.82664 0.3374 0.14931 0.0
H2839 H 0.83381 0.32062 0.21749 0.0
C2840 C 0.84806 0.30715 0.20331 0.0
C2841 C 0.85486 0.30344 0.18491 0.0
C2842 C 0.82232 0.34104 0.16383 0.0
C2843 C 0.83685 0.32516 0.18451 0.0
C2844 C 0.81197 0.35054 0.163 0.0
C2845 C 0.8059 0.35523 0.18151 0.0
C2846 C 0.8266 0.33603 0.18329 0.0
C2847 C 0.81074 0.35024 0.2007 0.0
C2848 C 0.83912 0.31805 0.20321 0.0
C2849 C 0.85266 0.3111 0.16674 0.0
N2850 N 0.82074 0.34084 0.20109 0.0
N2851 N 0.84376 0.32152 0.16696 0.0
H2852 H 0.63416 0.81385 0.16362 0.0
H2853 H 0.70747 0.83479 0.2021 0.0
H2854 H 0.65662 0.79124 0.20967 0.0
H2855 H 0.68054 0.86284 0.17143 0.0
H2856 H 0.68909 0.81857 0.20441 0.0
H2857 H 0.65116 0.83176 0.16538 0.0
C2858 C 0.64265 0.8127 0.17417 0.0
C2859 C 0.64404 0.80104 0.18646 0.0
C2860 C 0.68717 0.82832 0.19732 0.0
C2861 C 0.66352 0.8214 0.18847 0.0
C2862 C 0.69766 0.83765 0.19609 0.0
C2863 C 0.69561 0.85027 0.18655 0.0
C2864 C 0.67454 0.83149 0.1887 0.0
C2865 C 0.6827 0.85318 0.1786 0.0
C2866 C 0.6523 0.82294 0.17524 0.0
C2867 C 0.65513 0.80011 0.20003 0.0
N2868 N 0.67268 0.84383 0.17973 0.0
N2869 N 0.66452 0.81009 0.20052 0.0
H2870 H 0.21138 0.6642 0.18972 0.0
H2871 H 0.13316 0.68375 0.196 0.0
H2872 H 0.17948 0.63456 0.18781 0.0
H2873 H 0.16508 0.71233 0.18347 0.0
H2874 H 0.14995 0.66564 0.1969 0.0
H2875 H 0.19447 0.68203 0.19182 0.0
C2876 C 0.2008 0.66144 0.18997 0.0
C2877 C 0.19682 0.64787 0.18862 0.0
C2878 C 0.15325 0.67589 0.19403 0.0
C2879 C 0.17738 0.66827 0.19079 0.0
C2880 C 0.14367 0.68623 0.19342 0.0
C2881 C 0.14769 0.69962 0.18964 0.0
C2882 C 0.16693 0.67896 0.19094 0.0
C2883 C 0.1615 0.70224 0.18678 0.0
C2884 C 0.19115 0.67163 0.19101 0.0
C2885 C 0.18296 0.6449 0.18865 0.0
N2886 N 0.17059 0.69201 0.18747 0.0
N2887 N 0.17373 0.65503 0.18972 0.0
H2888 H 0.28002 0.82898 0.32069 0.0
H2889 H 0.3563 0.81102 0.29016 0.0
H2890 H 0.30709 0.85746 0.29145 0.0
H2891 H 0.32918 0.78382 0.32212 0.0
H2892 H 0.33823 0.82786 0.28873 0.0
H2893 H 0.29761 0.81186 0.31902 0.0
C2894 C 0.28962 0.8316 0.31367 0.0
C2895 C 0.29206 0.84469 0.30619 0.0
C2896 C 0.33624 0.81818 0.29597 0.0
C2897 C 0.31241 0.82515 0.30457 0.0
C2898 C 0.34656 0.80859 0.29689 0.0
C2899 C 0.34426 0.79597 0.30626 0.0
C2900 C 0.32353 0.81513 0.30451 0.0
C2901 C 0.33139 0.79332 0.31446 0.0
C2902 C 0.29972 0.82183 0.31287 0.0
C2903 C 0.30481 0.84754 0.29764 0.0
N2904 N 0.32154 0.80281 0.31344 0.0
N2905 N 0.31453 0.83786 0.2971 0.0
H2906 H 0.17854 0.36269 0.30816 0.0
H2907 H 0.16422 0.28333 0.30065 0.0
H2908 H 0.20968 0.3323 0.3042 0.0
H2909 H 0.13283 0.31307 0.30902 0.0
H2910 H 0.18081 0.30144 0.29849 0.0
H2911 H 0.16148 0.34493 0.30559 0.0
C2912 C 0.1818 0.3523 0.30673 0.0
C2913 C 0.19559 0.349 0.30648 0.0
C2914 C 0.17028 0.30403 0.3007 0.0
C2915 C 0.17611 0.32863 0.30336 0.0
C2916 C 0.16078 0.29368 0.30178 0.0
C2917 C 0.1471 0.29667 0.30508 0.0
C2918 C 0.16612 0.3175 0.30298 0.0
C2919 C 0.14329 0.31029 0.30677 0.0
C2920 C 0.17206 0.34217 0.30516 0.0
C2921 C 0.1992 0.33537 0.30421 0.0
N2922 N 0.15276 0.3202 0.30577 0.0
N2923 N 0.18953 0.32571 0.30284 0.0
H2924 H 0.68065 0.13106 0.32505 0.0
H2925 H 0.6614 0.20798 0.30106 0.0
H2926 H 0.70916 0.16126 0.30459 0.0
H2927 H 0.63219 0.17813 0.32038 0.0
H2928 H 0.67877 0.19062 0.30091 0.0
H2929 H 0.66258 0.14784 0.3226 0.0
C2930 C 0.68312 0.14122 0.32007 0.0
C2931 C 0.69645 0.14475 0.31503 0.0
C2932 C 0.66856 0.18782 0.3051 0.0
C2933 C 0.67582 0.16397 0.31206 0.0
C2934 C 0.65858 0.19773 0.30503 0.0
C2935 C 0.64527 0.19453 0.31069 0.0
C2936 C 0.66527 0.17457 0.31096 0.0
C2937 C 0.64234 0.1811 0.31614 0.0
C2938 C 0.67279 0.15077 0.31857 0.0
C2939 C 0.69902 0.15802 0.30838 0.0
N2940 N 0.65227 0.17162 0.31619 0.0
N2941 N 0.68882 0.16713 0.30716 0.0
H2942 H 0.81485 0.63582 0.3253 0.0
H2943 H 0.83482 0.70922 0.28727 0.0
H2944 H 0.79182 0.65783 0.27908 0.0
H2945 H 0.8634 0.68218 0.31645 0.0
H2946 H 0.81891 0.69058 0.2842 0.0
H2947 H 0.83278 0.65258 0.32238 0.0
C2948 C 0.81362 0.64404 0.31429 0.0
C2949 C 0.8017 0.64545 0.30257 0.0
C2950 C 0.82871 0.68871 0.29111 0.0
C2951 C 0.82212 0.66487 0.29954 0.0
C2952 C 0.83786 0.69935 0.29278 0.0
C2953 C 0.8505 0.69735 0.30228 0.0
C2954 C 0.83211 0.67599 0.29922 0.0
C2955 C 0.85369 0.68431 0.30945 0.0
C2956 C 0.82385 0.65366 0.31273 0.0
C2957 C 0.80066 0.65648 0.28882 0.0
N2958 N 0.84451 0.67417 0.30796 0.0
N2959 N 0.81066 0.66584 0.28786 0.0
H2960 H 0.68193 0.86099 0.8398 0.0
H2961 H 0.65221 0.79623 0.78096 0.0
H2962 H 0.69896 0.84437 0.78316 0.0
H2963 H 0.63567 0.81241 0.83824 0.0
H2964 H 0.66795 0.81518 0.77948 0.0
H2965 H 0.6636 0.84456 0.83766 0.0
C2966 C 0.68179 0.85391 0.82688 0.0
C2967 C 0.69206 0.85397 0.81174 0.0
C2968 C 0.66082 0.81464 0.79231 0.0
C2969 C 0.67108 0.83517 0.80914 0.0
C2970 C 0.65177 0.80386 0.79309 0.0
C2971 C 0.64269 0.80266 0.80986 0.0
C2972 C 0.6608 0.8243 0.80842 0.0
C2973 C 0.64267 0.81279 0.82525 0.0
C2974 C 0.67129 0.84457 0.82561 0.0
C2975 C 0.69122 0.84474 0.79512 0.0
N2976 N 0.65165 0.82313 0.82422 0.0
N2977 N 0.68098 0.83563 0.79436 0.0
H2978 H 0.14142 0.68945 0.77595 0.0
H2979 H 0.18941 0.64139 0.84341 0.0
H2980 H 0.14947 0.69542 0.84166 0.0
H2981 H 0.19519 0.64718 0.77704 0.0
H2982 H 0.17101 0.65785 0.84263 0.0
H2983 H 0.15766 0.67061 0.77576 0.0
C2984 C 0.14652 0.68668 0.79033 0.0
C2985 C 0.14425 0.69397 0.80881 0.0
C2986 C 0.17626 0.65545 0.82821 0.0
C2987 C 0.16253 0.67256 0.80879 0.0
C2988 C 0.18667 0.64601 0.82862 0.0
C2989 C 0.19382 0.64298 0.81027 0.0
C2990 C 0.17285 0.66179 0.80928 0.0
C2991 C 0.18998 0.64936 0.79156 0.0
C2992 C 0.15578 0.67603 0.7902 0.0
C2993 C 0.15108 0.69009 0.82706 0.0
N2994 N 0.17972 0.65848 0.79151 0.0
N2995 N 0.1599 0.67962 0.82661 0.0
H2996 H 0.36093 0.187 0.84205 0.0
H2997 H 0.30196 0.15223 0.77548 0.0
H2998 H 0.34654 0.2027 0.78308 0.0
H2999 H 0.31042 0.14291 0.84027 0.0
H3000 H 0.32034 0.1687 0.7759 0.0
H3001 H 0.34472 0.16849 0.83929 0.0
C3002 C 0.35446 0.18646 0.8284 0.0
C3003 C 0.35502 0.19644 0.81282 0.0
C3004 C 0.3182 0.16298 0.78997 0.0
C3005 C 0.33637 0.17536 0.80965 0.0
C3006 C 0.30767 0.15362 0.78979 0.0
C3007 C 0.30454 0.14619 0.80791 0.0
C3008 C 0.32572 0.1649 0.80837 0.0
C3009 C 0.31251 0.14824 0.82584 0.0
C3010 C 0.34515 0.17595 0.8269 0.0
C3011 C 0.3463 0.19532 0.79558 0.0
N3012 N 0.32268 0.15743 0.82563 0.0
N3013 N 0.3373 0.18499 0.79447 0.0
H3014 H 0.83731 0.28995 0.78118 0.0
H3015 H 0.81588 0.36586 0.80634 0.0
H3016 H 0.86155 0.31621 0.81994 0.0
H3017 H 0.7874 0.33381 0.79363 0.0
H3018 H 0.83423 0.34937 0.80436 0.0
H3019 H 0.8205 0.30784 0.77806 0.0
C3020 C 0.83913 0.29947 0.78902 0.0
C3021 C 0.85078 0.30145 0.80119 0.0
C3022 C 0.82394 0.34605 0.80185 0.0
C3023 C 0.83166 0.32206 0.79728 0.0
C3024 C 0.81343 0.35541 0.80311 0.0
C3025 C 0.79997 0.35128 0.80026 0.0
C3026 C 0.82101 0.3325 0.79741 0.0
C3027 C 0.79755 0.33762 0.7956 0.0
C3028 C 0.82955 0.30969 0.78714 0.0
C3029 C 0.85276 0.3142 0.81038 0.0
N3030 N 0.80795 0.32875 0.79434 0.0
N3031 N 0.84325 0.32401 0.80834 0.0
H3032 H 0.65682 0.20328 0.64231 0.0
H3033 H 0.68462 0.13604 0.69665 0.0
H3034 H 0.64027 0.18724 0.69968 0.0
H3035 H 0.70536 0.15734 0.64715 0.0
H3036 H 0.66714 0.1535 0.69643 0.0
H3037 H 0.67337 0.18507 0.64196 0.0
C3038 C 0.6566 0.19585 0.65476 0.0
C3039 C 0.64714 0.19677 0.67104 0.0
C3040 C 0.67552 0.1543 0.6856 0.0
C3041 C 0.66618 0.17595 0.67086 0.0
C3042 C 0.68554 0.14438 0.68577 0.0
C3043 C 0.6965 0.14518 0.67187 0.0
C3044 C 0.67644 0.16508 0.67138 0.0
C3045 C 0.69701 0.15613 0.6579 0.0
C3046 C 0.66612 0.18551 0.65463 0.0
C3047 C 0.64747 0.18698 0.68694 0.0
N3048 N 0.68713 0.16562 0.65803 0.0
N3049 N 0.65684 0.17695 0.68645 0.0
H3050 H 0.81149 0.63353 0.70162 0.0
H3051 H 0.8334 0.71109 0.70319 0.0
H3052 H 0.78411 0.66649 0.68892 0.0
H3053 H 0.86155 0.67882 0.69088 0.0
H3054 H 0.81521 0.69449 0.70574 0.0
H3055 H 0.82995 0.64979 0.70471 0.0
C3056 C 0.80932 0.64415 0.69946 0.0
C3057 C 0.79617 0.64858 0.69483 0.0
C3058 C 0.82539 0.69104 0.70264 0.0
C3059 C 0.81723 0.66723 0.69889 0.0
C3060 C 0.83578 0.70048 0.70135 0.0
C3061 C 0.84898 0.6963 0.69674 0.0
C3062 C 0.82823 0.67731 0.69948 0.0
C3063 C 0.85148 0.68245 0.69425 0.0
C3064 C 0.81986 0.65341 0.70136 0.0
C3065 C 0.79398 0.66254 0.69278 0.0
N3066 N 0.84118 0.67342 0.69562 0.0
N3067 N 0.8044 0.67134 0.69479 0.0
H3068 H 0.31535 0.86152 0.67279 0.0
H3069 H 0.34236 0.79269 0.72311 0.0
H3070 H 0.29537 0.84088 0.72364 0.0
H3071 H 0.36068 0.81239 0.6699 0.0
H3072 H 0.32645 0.81145 0.72609 0.0
H3073 H 0.33358 0.84502 0.67442 0.0
C3074 C 0.31488 0.85363 0.68452 0.0
C3075 C 0.30375 0.85254 0.69801 0.0
C3076 C 0.33402 0.81171 0.71387 0.0
C3077 C 0.32452 0.83344 0.69971 0.0
C3078 C 0.34307 0.80097 0.71209 0.0
C3079 C 0.35282 0.8009 0.69613 0.0
C3080 C 0.3347 0.82246 0.69955 0.0
C3081 C 0.35342 0.81204 0.68256 0.0
C3082 C 0.32527 0.84415 0.68534 0.0
C3083 C 0.30364 0.84198 0.71269 0.0
N3084 N 0.34443 0.82231 0.68449 0.0
N3085 N 0.31382 0.83279 0.71306 0.0
H3086 H 0.15562 0.29316 0.71834 0.0
H3087 H 0.18009 0.36483 0.67496 0.0
H3088 H 0.13444 0.31514 0.67002 0.0
H3089 H 0.20602 0.33674 0.70756 0.0
H3090 H 0.16155 0.34865 0.67796 0.0
H3091 H 0.1724 0.31119 0.71976 0.0
C3092 C 0.15447 0.30178 0.70805 0.0
C3093 C 0.14368 0.30252 0.69383 0.0
C3094 C 0.1713 0.3461 0.68456 0.0
C3095 C 0.16277 0.32328 0.6956 0.0
C3096 C 0.18192 0.3553 0.68276 0.0
C3097 C 0.19472 0.35216 0.6909 0.0
C3098 C 0.17345 0.33372 0.6947 0.0
C3099 C 0.19634 0.33974 0.70126 0.0
C3100 C 0.16402 0.31209 0.70894 0.0
C3101 C 0.14252 0.31414 0.68131 0.0
N3102 N 0.18585 0.33098 0.7028 0.0
N3103 N 0.15201 0.32402 0.68239 0.0
H3104 H 0.21485 0.08116 0.04702 0.0
H3105 H 0.25754 0.0996 0.94452 0.0
H3106 H 0.25436 0.09955 0.04823 0.0
H3107 H 0.21583 0.08708 0.94236 0.0
H3108 H 0.25694 0.09809 0.98259 0.0
H3109 H 0.21535 0.08185 0.0087 0.0
C3110 C 0.22361 0.08537 0.03926 0.0
C3111 C 0.2346 0.09027 0.0509 0.0
C3112 C 0.2479 0.09567 0.97381 0.0
C3113 C 0.23528 0.09094 0.00708 0.0
C3114 C 0.24822 0.0966 0.95205 0.0
C3115 C 0.23668 0.09358 0.94018 0.0
C3116 C 0.23598 0.09165 0.9839 0.0
C3117 C 0.22499 0.08942 0.95084 0.0
C3118 C 0.22391 0.0857 0.01738 0.0
C3119 C 0.24575 0.09544 0.03996 0.0
N3120 N 0.22492 0.08861 0.97211 0.0
N3121 N 0.2458 0.09564 0.01871 0.0
H3122 H 0.9159 0.25827 0.94624 0.0
H3123 H 0.90545 0.2143 0.05011 0.0
H3124 H 0.90085 0.21735 0.94578 0.0
H3125 H 0.91042 0.25757 0.05028 0.0
H3126 H 0.90687 0.21446 0.01181 0.0
H3127 H 0.91689 0.25743 0.98442 0.0
C3128 C 0.91278 0.24911 0.95413 0.0
C3129 C 0.90818 0.23789 0.94272 0.0
C3130 C 0.90769 0.22391 0.02025 0.0
C3131 C 0.90949 0.23682 0.98647 0.0
C3132 C 0.90696 0.22381 0.04208 0.0
C3133 C 0.90775 0.23595 0.05333 0.0
C3134 C 0.90934 0.23622 0.00964 0.0
C3135 C 0.90959 0.24801 0.04217 0.0
C3136 C 0.91341 0.24862 0.97594 0.0
C3137 C 0.90458 0.22619 0.95385 0.0
N3138 N 0.91031 0.24784 0.02093 0.0
N3139 N 0.90528 0.22598 0.9751 0.0
H3140 H 0.78167 0.88498 0.94476 0.0
H3141 H 0.75351 0.92109 0.04745 0.0
H3142 H 0.75798 0.92152 0.94332 0.0
H3143 H 0.78244 0.88851 0.04884 0.0
H3144 H 0.7557 0.92201 0.0094 0.0
H3145 H 0.78265 0.88652 0.98294 0.0
C3146 C 0.77673 0.89336 0.95251 0.0
C3147 C 0.76966 0.90309 0.94089 0.0
C3148 C 0.76164 0.91473 0.01804 0.0
C3149 C 0.7707 0.90492 0.98456 0.0
C3150 C 0.76045 0.91424 0.03981 0.0
C3151 C 0.76772 0.90463 0.0514 0.0
C3152 C 0.7701 0.90549 0.00774 0.0
C3153 C 0.77642 0.89589 0.04054 0.0
C3154 C 0.77733 0.89428 0.97428 0.0
C3155 C 0.7636 0.91384 0.95167 0.0
N3156 N 0.77729 0.89647 0.01934 0.0
N3157 N 0.76415 0.9144 0.97292 0.0
H3158 H 0.07342 0.75656 0.94628 0.0
H3159 H 0.11532 0.77006 0.0513 0.0
H3160 H 0.11525 0.76874 0.94738 0.0
H3161 H 0.07287 0.76034 0.05086 0.0
H3162 H 0.11521 0.77028 0.01309 0.0
H3163 H 0.07267 0.7587 0.98442 0.0
C3164 C 0.08241 0.7598 0.95451 0.0
C3165 C 0.09444 0.76239 0.94361 0.0
C3166 C 0.10589 0.76815 0.02131 0.0
C3167 C 0.09369 0.76471 0.98727 0.0
C3168 C 0.10597 0.76796 0.04313 0.0
C3169 C 0.09411 0.76508 0.05426 0.0
C3170 C 0.09388 0.76536 0.01047 0.0
C3171 C 0.08222 0.76269 0.04289 0.0
C3172 C 0.08199 0.76095 0.9763 0.0
C3173 C 0.10582 0.76639 0.95514 0.0
N3174 N 0.08243 0.76279 0.02159 0.0
N3175 N 0.10517 0.76738 0.97632 0.0
H3176 H 0.21519 0.89508 0.45067 0.0
H3177 H 0.25877 0.91205 0.553 0.0
H3178 H 0.25625 0.90955 0.44878 0.0
H3179 H 0.21885 0.89462 0.55495 0.0
H3180 H 0.25762 0.91223 0.51479 0.0
H3181 H 0.21583 0.89609 0.48891 0.0
C3182 C 0.22431 0.89856 0.4583 0.0
C3183 C 0.2357 0.9022 0.44652 0.0
C3184 C 0.2491 0.90839 0.52358 0.0
C3185 C 0.23655 0.90327 0.49028 0.0
C3186 C 0.24977 0.90822 0.5454 0.0
C3187 C 0.2389 0.90327 0.55723 0.0
C3188 C 0.23747 0.90358 0.51346 0.0
C3189 C 0.22741 0.89867 0.54651 0.0
C3190 C 0.2247 0.89907 0.48013 0.0
C3191 C 0.2473 0.90647 0.45725 0.0
N3192 N 0.22701 0.89891 0.52524 0.0
N3193 N 0.24743 0.90688 0.47851 0.0
H3194 H 0.10382 0.21716 0.55132 0.0
H3195 H 0.08234 0.25392 0.44468 0.0
H3196 H 0.08366 0.25576 0.54902 0.0
H3197 H 0.10489 0.21666 0.44694 0.0
H3198 H 0.08197 0.25436 0.48292 0.0
H3199 H 0.10334 0.21626 0.51308 0.0
C3200 C 0.0992 0.2254 0.54277 0.0
C3201 C 0.09378 0.23656 0.55338 0.0
C3202 C 0.08699 0.24607 0.47506 0.0
C3203 C 0.09331 0.23566 0.5096 0.0
C3204 C 0.08726 0.24585 0.45322 0.0
C3205 C 0.09369 0.23525 0.44257 0.0
C3206 C 0.09318 0.23561 0.48638 0.0
C3207 C 0.09968 0.22495 0.45446 0.0
C3208 C 0.099 0.22492 0.52094 0.0
C3209 C 0.08811 0.24704 0.54148 0.0
N3210 N 0.09931 0.2254 0.47572 0.0
N3211 N 0.08802 0.24633 0.52024 0.0
H3212 H 0.78446 0.10637 0.5501 0.0
H3213 H 0.76004 0.06807 0.44641 0.0
H3214 H 0.75986 0.07041 0.55089 0.0
H3215 H 0.78071 0.10645 0.44637 0.0
H3216 H 0.76203 0.06734 0.48457 0.0
H3217 H 0.78548 0.10503 0.51196 0.0
C3218 C 0.7793 0.09816 0.54224 0.0
C3219 C 0.77194 0.08857 0.5537 0.0
C3220 C 0.76621 0.07587 0.47618 0.0
C3221 C 0.77312 0.08693 0.51 0.0
C3222 C 0.76501 0.07633 0.45441 0.0
C3223 C 0.77015 0.08738 0.44315 0.0
C3224 C 0.77257 0.08653 0.4868 0.0
C3225 C 0.77672 0.09767 0.45433 0.0
C3226 C 0.77993 0.09738 0.52046 0.0
C3227 C 0.7657 0.07799 0.54271 0.0
N3228 N 0.77767 0.09702 0.47552 0.0
N3229 N 0.76634 0.07752 0.52146 0.0
H3230 H 0.90081 0.77875 0.55027 0.0
H3231 H 0.91055 0.73878 0.4425 0.0
H3232 H 0.90677 0.73565 0.54684 0.0
H3233 H 0.89536 0.77959 0.44608 0.0
H3234 H 0.91135 0.73798 0.48069 0.0
H3235 H 0.9012 0.77982 0.512 0.0
C3236 C 0.90231 0.76953 0.54145 0.0
C3237 C 0.90374 0.75709 0.55172 0.0
C3238 C 0.90785 0.7471 0.4731 0.0
C3239 C 0.90411 0.75823 0.50797 0.0
C3240 C 0.90732 0.74756 0.45128 0.0
C3241 C 0.90282 0.75926 0.44099 0.0
C3242 C 0.90394 0.75845 0.48477 0.0
C3243 C 0.89905 0.77041 0.45326 0.0
C3244 C 0.90244 0.77013 0.51962 0.0
C3245 C 0.90548 0.74543 0.53953 0.0
N3246 N 0.89969 0.76973 0.47449 0.0
N3247 N 0.90564 0.74629 0.51829 0.0
H3248 H 0.74349 0.61669 0.55124 0.0
H3249 H 0.72318 0.57805 0.44565 0.0
H3250 H 0.72333 0.57806 0.55052 0.0
H3251 H 0.74557 0.61541 0.44732 0.0
H3252 H 0.72197 0.57837 0.48395 0.0
H3253 H 0.74333 0.61681 0.51306 0.0
C3254 C 0.73908 0.60819 0.54304 0.0
C3255 C 0.73351 0.59729 0.55411 0.0
C3256 C 0.72714 0.5865 0.47592 0.0
C3257 C 0.73317 0.59743 0.51029 0.0
C3258 C 0.72777 0.58636 0.45407 0.0
C3259 C 0.73455 0.59668 0.44328 0.0
C3260 C 0.73328 0.59707 0.48707 0.0
C3261 C 0.74043 0.60713 0.455 0.0
C3262 C 0.73893 0.6083 0.52122 0.0
C3263 C 0.72765 0.58671 0.54263 0.0
N3264 N 0.73967 0.60705 0.47623 0.0
N3265 N 0.72768 0.58702 0.52134 0.0
H3266 H 0.39587 0.71681 0.44394 0.0
H3267 H 0.41126 0.75713 0.54992 0.0
H3268 H 0.41321 0.75677 0.44569 0.0
H3269 H 0.39417 0.71707 0.54833 0.0
H3270 H 0.41261 0.75693 0.51174 0.0
H3271 H 0.396 0.71633 0.48219 0.0
C3272 C 0.39983 0.72543 0.45237 0.0
C3273 C 0.40451 0.73686 0.44159 0.0
C3274 C 0.40859 0.74816 0.51973 0.0
C3275 C 0.40452 0.73645 0.4854 0.0
C3276 C 0.40775 0.74831 0.54153 0.0
C3277 C 0.40254 0.73712 0.55234 0.0
C3278 C 0.40417 0.73676 0.5086 0.0
C3279 C 0.39837 0.72586 0.54066 0.0
C3280 C 0.39982 0.72518 0.47421 0.0
C3281 C 0.40933 0.74782 0.45334 0.0
N3282 N 0.39923 0.72599 0.51942 0.0
N3283 N 0.40918 0.74736 0.4746 0.0
H3284 H 0.25665 0.42597 0.44577 0.0
H3285 H 0.28112 0.38768 0.54948 0.0
H3286 H 0.27468 0.38633 0.44588 0.0
H3287 H 0.25364 0.42152 0.55033 0.0
H3288 H 0.28208 0.38921 0.51136 0.0
H3289 H 0.25887 0.42671 0.48404 0.0
C3290 C 0.26122 0.41751 0.45384 0.0
C3291 C 0.26538 0.40602 0.44273 0.0
C3292 C 0.27589 0.39634 0.51991 0.0
C3293 C 0.26791 0.40678 0.48631 0.0
C3294 C 0.27527 0.39543 0.54168 0.0
C3295 C 0.26715 0.40437 0.55318 0.0
C3296 C 0.26838 0.4063 0.50949 0.0
C3297 C 0.2601 0.41445 0.54219 0.0
C3298 C 0.2624 0.41789 0.47565 0.0
C3299 C 0.27116 0.39529 0.45392 0.0
N3300 N 0.26082 0.41509 0.52095 0.0
N3301 N 0.27223 0.39591 0.47509 0.0
H3302 H 0.60132 0.28366 0.54763 0.0
H3303 H 0.57772 0.24604 0.44285 0.0
H3304 H 0.57831 0.24667 0.54685 0.0
H3305 H 0.60352 0.28116 0.44313 0.0
H3306 H 0.57632 0.24725 0.48095 0.0
H3307 H 0.60049 0.2842 0.50932 0.0
C3308 C 0.59597 0.27574 0.5394 0.0
C3309 C 0.58995 0.26506 0.55041 0.0
C3310 C 0.58225 0.25472 0.47269 0.0
C3311 C 0.58908 0.26553 0.50665 0.0
C3312 C 0.58313 0.25399 0.45094 0.0
C3313 C 0.59085 0.26345 0.43978 0.0
C3314 C 0.58916 0.26497 0.48345 0.0
C3315 C 0.59738 0.27371 0.45107 0.0
C3316 C 0.59557 0.276 0.51754 0.0
C3317 C 0.58327 0.25498 0.53896 0.0
N3318 N 0.59645 0.27416 0.4723 0.0
N3319 N 0.58305 0.25545 0.51771 0.0
H3320 H 0.72796 0.3792 0.94447 0.0
H3321 H 0.72769 0.42351 0.04899 0.0
H3322 H 0.73463 0.4223 0.94428 0.0
H3323 H 0.73637 0.38086 0.04807 0.0
H3324 H 0.72609 0.42325 0.01059 0.0
H3325 H 0.72706 0.37969 0.98265 0.0
C3326 C 0.72929 0.38877 0.9524 0.0
C3327 C 0.73153 0.4007 0.94105 0.0
C3328 C 0.72829 0.41396 0.01884 0.0
C3329 C 0.7302 0.40134 0.98481 0.0
C3330 C 0.72913 0.41409 0.04068 0.0
C3331 C 0.73226 0.40221 0.05159 0.0
C3332 C 0.73038 0.40181 0.00796 0.0
C3333 C 0.73411 0.39026 0.04016 0.0
C3334 C 0.72869 0.38903 0.97421 0.0
C3335 C 0.73277 0.41285 0.95228 0.0
N3336 N 0.73312 0.39036 0.01896 0.0
N3337 N 0.73211 0.41285 0.97355 0.0
H3338 H 0.60245 0.75521 0.04906 0.0
H3339 H 0.57283 0.72259 0.94404 0.0
H3340 H 0.57656 0.72015 0.0494 0.0
H3341 H 0.60629 0.75042 0.9459 0.0
H3342 H 0.57156 0.72351 0.98246 0.0
H3343 H 0.6014 0.75557 0.01096 0.0
C3344 C 0.59658 0.74754 0.04111 0.0
C3345 C 0.58976 0.7375 0.05245 0.0
C3346 C 0.57915 0.72942 0.97441 0.0
C3347 C 0.58837 0.73797 0.00872 0.0
C3348 C 0.57984 0.72894 0.95255 0.0
C3349 C 0.58976 0.73634 0.94187 0.0
C3350 C 0.58833 0.7375 0.98554 0.0
C3351 C 0.59863 0.74439 0.95357 0.0
C3352 C 0.59593 0.74779 0.01935 0.0
C3353 C 0.58197 0.72808 0.04129 0.0
N3354 N 0.5977 0.74475 0.97475 0.0
N3355 N 0.58154 0.7285 0.02 0.0
H3356 H 0.2725 0.57618 0.0499 0.0
H3357 H 0.2469 0.61233 0.94592 0.0
H3358 H 0.25507 0.61608 0.04967 0.0
H3359 H 0.27819 0.58208 0.94485 0.0
H3360 H 0.24764 0.61219 0.98426 0.0
H3361 H 0.27263 0.57646 0.01141 0.0
C3362 C 0.26871 0.58498 0.04172 0.0
C3363 C 0.26381 0.59614 0.05288 0.0
C3364 C 0.25437 0.60562 0.97564 0.0
C3365 C 0.26381 0.59649 0.00915 0.0
C3366 C 0.2539 0.60565 0.95382 0.0
C3367 C 0.26249 0.59719 0.94233 0.0
C3368 C 0.26334 0.59691 0.98601 0.0
C3369 C 0.27147 0.58879 0.95323 0.0
C3370 C 0.26885 0.58516 0.01984 0.0
C3371 C 0.25906 0.60733 0.04161 0.0
N3372 N 0.27159 0.58878 0.97453 0.0
N3373 N 0.25908 0.60718 0.02035 0.0
H3374 H 0.42182 0.2501 0.95013 0.0
H3375 H 0.38648 0.27854 0.05229 0.0
H3376 H 0.39478 0.28421 0.94869 0.0
H3377 H 0.42319 0.2552 0.05465 0.0
H3378 H 0.38896 0.28042 0.01425 0.0
H3379 H 0.42216 0.25133 0.98844 0.0
C3380 C 0.41601 0.25789 0.95793 0.0
C3381 C 0.40821 0.26703 0.94633 0.0
C3382 C 0.39656 0.27502 0.02311 0.0
C3383 C 0.40847 0.26845 0.99 0.0
C3384 C 0.39511 0.27389 0.04476 0.0
C3385 C 0.40462 0.26664 0.05652 0.0
C3386 C 0.40745 0.26864 0.01313 0.0
C3387 C 0.41568 0.26091 0.04611 0.0
C3388 C 0.41627 0.25864 0.97974 0.0
C3389 C 0.40097 0.27701 0.95711 0.0
N3390 N 0.41671 0.26188 0.02493 0.0
N3391 N 0.40114 0.27736 0.97838 0.0
H3392 H 0.23595 0.03644 0.25579 0.0
H3393 H 0.264 0.96075 0.25725 0.0
H3394 H 0.25887 0.01907 0.20502 0.0
H3395 H 0.2328 0.97538 0.2987 0.0
H3396 H 0.2648 0.98295 0.24059 0.0
H3397 H 0.2375 0.01502 0.27463 0.0
C3398 C 0.24143 0.02814 0.24871 0.0
C3399 C 0.24725 0.02949 0.22879 0.0
C3400 C 0.25783 0.98129 0.2534 0.0
C3401 C 0.24898 0.00496 0.25017 0.0
C3402 C 0.25732 0.9686 0.26286 0.0
C3403 C 0.24826 0.96613 0.27935 0.0
C3404 C 0.24929 0.99161 0.26055 0.0
C3405 C 0.24006 0.97682 0.28624 0.0
C3406 C 0.24223 0.01591 0.2594 0.0
C3407 C 0.2541 0.01838 0.22024 0.0
N3408 N 0.24075 0.98906 0.27677 0.0
N3409 N 0.25477 0.00656 0.23098 0.0
H3410 H 0.97535 0.25675 0.20137 0.0
H3411 H 0.02148 0.22902 0.29434 0.0
H3412 H 0.95978 0.23405 0.25375 0.0
H3413 H 0.03496 0.25951 0.25085 0.0
H3414 H -0.00098 0.22997 0.27864 0.0
H3415 H 0.99755 0.25717 0.21823 0.0
C3416 C 0.97663 0.25186 0.21642 0.0
C3417 C 0.96575 0.24533 0.22619 0.0
C3418 C 0.00686 0.2365 0.27258 0.0
C3419 C 0.99104 0.24576 0.24551 0.0
C3420 C 0.01969 0.2359 0.28145 0.0
C3421 C 0.03008 0.24416 0.27379 0.0
C3422 C 0.00442 0.24532 0.25578 0.0
C3423 C 0.02719 0.25304 0.25727 0.0
C3424 C 0.98926 0.25217 0.22608 0.0
C3425 C 0.96788 0.23928 0.24578 0.0
N3426 N 0.01464 0.25332 0.24869 0.0
N3427 N 0.9803 0.23957 0.25473 0.0
H3428 H 0.7369 0.03592 0.24675 0.0
H3429 H 0.76927 0.9624 0.24056 0.0
H3430 H 0.7646 0.02002 0.29281 0.0
H3431 H 0.73333 0.97335 0.20623 0.0
H3432 H 0.7688 0.98427 0.25784 0.0
H3433 H 0.73636 0.01376 0.22982 0.0
C3434 C 0.7428 0.02777 0.2534 0.0
C3435 C 0.75088 0.02988 0.27118 0.0
C3436 C 0.76098 0.98188 0.24659 0.0
C3437 C 0.75047 0.00462 0.25167 0.0
C3438 C 0.76119 0.96934 0.23678 0.0
C3439 C 0.75125 0.96594 0.22201 0.0
C3440 C 0.75083 0.9912 0.24151 0.0
C3441 C 0.74127 0.97556 0.21735 0.0
C3442 C 0.74252 0.01515 0.24366 0.0
C3443 C 0.75845 0.01898 0.2789 0.0
N3444 N 0.74132 0.98778 0.22706 0.0
N3445 N 0.7581 0.00685 0.26905 0.0
H3446 H 0.03634 0.76245 0.25246 0.0
H3447 H 0.96111 0.73303 0.25179 0.0
H3448 H 0.02175 0.73485 0.20529 0.0
H3449 H 0.97461 0.76527 0.29211 0.0
H3450 H 0.98381 0.73175 0.23667 0.0
H3451 H 0.01432 0.76172 0.26941 0.0
C3452 C 0.02854 0.75611 0.24579 0.0
C3453 C 0.03088 0.7487 0.22743 0.0
C3454 C 0.9818 0.73908 0.24885 0.0
C3455 C 0.00555 0.74795 0.24662 0.0
C3456 C 0.96888 0.73976 0.25754 0.0
C3457 C 0.96598 0.74933 0.27311 0.0
C3458 C 0.99187 0.74796 0.25592 0.0
C3459 C 0.97637 0.75789 0.27991 0.0
C3460 C 0.01592 0.75578 0.25539 0.0
C3461 C 0.02032 0.74084 0.2193 0.0
N3462 N 0.98884 0.75701 0.27126 0.0
N3463 N 0.00809 0.74068 0.22894 0.0
H3464 H 0.74154 0.97775 0.80401 0.0
H3465 H 0.73841 0.0189 0.69622 0.0
H3466 H 0.74471 0.9591 0.74314 0.0
H3467 H 0.74714 0.03732 0.75593 0.0
H3468 H 0.73623 0.997 0.71371 0.0
H3469 H 0.73918 -0.00021 0.78699 0.0
C3470 C 0.74159 0.9783 0.78706 0.0
C3471 C 0.74345 0.96665 0.77493 0.0
C3472 C 0.73853 0.00586 0.72299 0.0
C3473 C 0.74077 0.99172 0.75543 0.0
C3474 C 0.73969 0.01834 0.71305 0.0
C3475 C 0.74308 0.02987 0.72466 0.0
C3476 C 0.74065 0.00495 0.7447 0.0
C3477 C 0.74471 0.02861 0.7464 0.0
C3478 C 0.74031 0.99086 0.77738 0.0
C3479 C 0.7435 0.96789 0.75304 0.0
N3480 N 0.74353 0.01635 0.75573 0.0
N3481 N 0.74222 0.98022 0.74397 0.0
H3482 H 0.96796 0.77524 0.72427 0.0
H3483 H 0.02226 0.73312 0.7903 0.0
H3484 H 0.9629 0.7332 0.74018 0.0
H3485 H 0.0299 0.77259 0.76429 0.0
H3486 H -0.00043 0.73365 0.77508 0.0
H3487 H 0.98981 0.77514 0.74199 0.0
C3488 C 0.97141 0.76602 0.73165 0.0
C3489 C 0.96362 0.7542 0.73073 0.0
C3490 C 0.00621 0.7422 0.77273 0.0
C3491 C 0.98867 0.75398 0.75089 0.0
C3492 C 0.01912 0.74193 0.7815 0.0
C3493 C 0.02798 0.7528 0.77843 0.0
C3494 C 0.00212 0.75347 0.76098 0.0
C3495 C 0.02345 0.76392 0.76677 0.0
C3496 C 0.98392 0.76594 0.74164 0.0
C3497 C 0.96867 0.74249 0.74032 0.0
N3498 N 0.01084 0.76397 0.75847 0.0
N3499 N 0.98087 0.74267 0.75001 0.0
H3500 H 0.2585 0.96105 0.75309 0.0
H3501 H 0.2351 0.03762 0.74405 0.0
H3502 H 0.22865 0.97464 0.70848 0.0
H3503 H 0.25208 0.02121 0.80082 0.0
H3504 H 0.23472 0.01494 0.72894 0.0
H3505 H 0.25813 0.98338 0.76934 0.0
C3506 C 0.2518 0.96866 0.74677 0.0
C3507 C 0.24362 0.96591 0.7293 0.0
C3508 C 0.23849 0.01629 0.74473 0.0
C3509 C 0.24339 0.99156 0.7476 0.0
C3510 C 0.23878 0.02922 0.75328 0.0
C3511 C 0.24366 0.03124 0.77365 0.0
C3512 C 0.24329 0.00533 0.75652 0.0
C3513 C 0.24818 0.02002 0.78509 0.0
C3514 C 0.25165 0.98142 0.75602 0.0
C3515 C 0.23534 0.97631 0.72162 0.0
N3516 N 0.24798 0.00752 0.77629 0.0
N3517 N 0.23549 0.98868 0.73075 0.0
H3518 H 0.9578 0.2317 0.74092 0.0
H3519 H 0.03239 0.2624 0.74149 0.0
H3520 H 0.97313 0.25695 0.79058 0.0
H3521 H 0.02037 0.22893 0.70231 0.0
H3522 H 0.00995 0.26241 0.75726 0.0
H3523 H 0.97991 0.23263 0.72387 0.0
C3524 C 0.96581 0.23751 0.74814 0.0
C3525 C 0.96369 0.24422 0.7672 0.0
C3526 C 0.01224 0.25508 0.7452 0.0
C3527 C 0.98894 0.24531 0.74788 0.0
C3528 C 0.02507 0.25501 0.73624 0.0
C3529 C 0.02833 0.24561 0.72058 0.0
C3530 C 0.00254 0.24574 0.73836 0.0
C3531 C 0.0183 0.23649 0.71412 0.0
C3532 C 0.97843 0.23797 0.73849 0.0
C3533 C 0.97442 0.2515 0.77601 0.0
N3534 N 0.00586 0.23678 0.72304 0.0
N3535 N 0.98659 0.25187 0.76626 0.0
H3536 H 0.75862 0.52121 0.69962 0.0
H3537 H 0.73274 0.47668 0.79602 0.0
H3538 H 0.73633 0.53729 0.75206 0.0
H3539 H 0.75952 0.46139 0.74823 0.0
H3540 H 0.73395 0.49895 0.77995 0.0
H3541 H 0.75888 0.4991 0.71677 0.0
C3542 C 0.75379 0.52008 0.71473 0.0
C3543 C 0.74745 0.53109 0.72444 0.0
C3544 C 0.73961 0.49074 0.77301 0.0
C3545 C 0.74773 0.5059 0.74414 0.0
C3546 C 0.73899 0.47802 0.78226 0.0
C3547 C 0.74604 0.46712 0.77348 0.0
C3548 C 0.74728 0.4926 0.75474 0.0
C3549 C 0.75376 0.46944 0.75537 0.0
C3550 C 0.754 0.50749 0.72456 0.0
C3551 C 0.74147 0.52912 0.74413 0.0
N3552 N 0.75414 0.48192 0.74657 0.0
N3553 N 0.74171 0.51675 0.75328 0.0
H3554 H 0.52189 0.75872 0.78954 0.0
H3555 H 0.47552 0.72806 0.69936 0.0
H3556 H 0.53714 0.73265 0.74076 0.0
H3557 H 0.4632 0.76134 0.73868 0.0
H3558 H 0.49797 0.72906 0.71497 0.0
H3559 H 0.5001 0.75932 0.77181 0.0
C3560 C 0.52072 0.75323 0.77499 0.0
C3561 C 0.53139 0.74559 0.76667 0.0
C3562 C 0.49037 0.73619 0.72011 0.0
C3563 C 0.50635 0.74604 0.74649 0.0
C3564 C 0.47755 0.73567 0.71112 0.0
C3565 C 0.46741 0.74461 0.71773 0.0
C3566 C 0.49306 0.74563 0.73595 0.0
C3567 C 0.47061 0.75409 0.73334 0.0
C3568 C 0.50824 0.75352 0.76493 0.0
C3569 C 0.52915 0.73847 0.74796 0.0
N3570 N 0.48313 0.7543 0.74198 0.0
N3571 N 0.51686 0.73882 0.73856 0.0
H3572 H 0.27297 0.46326 0.73919 0.0
H3573 H 0.23166 0.53165 0.7577 0.0
H3574 H 0.23352 0.47063 0.71283 0.0
H3575 H 0.26969 0.52246 0.78742 0.0
H3576 H 0.23222 0.50956 0.74052 0.0
H3577 H 0.27195 0.4851 0.75665 0.0
C3578 C 0.26404 0.46943 0.73719 0.0
C3579 C 0.25329 0.46508 0.72458 0.0
C3580 C 0.24042 0.51238 0.75085 0.0
C3581 C 0.25213 0.49023 0.74433 0.0
C3582 C 0.24013 0.52499 0.76057 0.0
C3583 C 0.25063 0.52888 0.77404 0.0
C3584 C 0.25132 0.50363 0.75454 0.0
C3585 C 0.26129 0.51981 0.7774 0.0
C3586 C 0.2635 0.48195 0.74708 0.0
C3587 C 0.2421 0.47365 0.72222 0.0
N3588 N 0.26138 0.50763 0.76768 0.0
N3589 N 0.24181 0.48582 0.73201 0.0
H3590 H 0.47899 0.26538 0.79724 0.0
H3591 H 0.52009 0.24394 0.69684 0.0
H3592 H 0.46335 0.23615 0.75319 0.0
H3593 H 0.53995 0.25447 0.75489 0.0
H3594 H 0.49858 0.24336 0.71539 0.0
H3595 H 0.50092 0.26391 0.78011 0.0
C3596 C 0.48014 0.25853 0.78415 0.0
C3597 C 0.46921 0.25086 0.77673 0.0
C3598 C 0.50769 0.24572 0.72402 0.0
C3599 C 0.49426 0.2495 0.75668 0.0
C3600 C 0.52001 0.24599 0.7135 0.0
C3601 C 0.53195 0.24927 0.72426 0.0
C3602 C 0.50723 0.249 0.74536 0.0
C3603 C 0.53104 0.25216 0.74578 0.0
C3604 C 0.49267 0.25778 0.77431 0.0
C3605 C 0.47134 0.24246 0.75928 0.0
N3606 N 0.51888 0.25206 0.75558 0.0
N3607 N 0.48359 0.24209 0.74974 0.0
H3608 H 0.26955 0.52326 0.20761 0.0
H3609 H 0.22967 0.47168 0.28148 0.0
H3610 H 0.22903 0.53045 0.22991 0.0
H3611 H 0.26797 0.46278 0.2524 0.0
H3612 H 0.22937 0.4935 0.26346 0.0
H3613 H 0.26913 0.50111 0.22417 0.0
C3614 C 0.2605 0.52014 0.2158 0.0
C3615 C 0.24931 0.52877 0.21735 0.0
C3616 C 0.23781 0.48674 0.26098 0.0
C3617 C 0.24887 0.50345 0.23674 0.0
C3618 C 0.23803 0.47434 0.27136 0.0
C3619 C 0.24885 0.4654 0.26841 0.0
C3620 C 0.24855 0.49027 0.24769 0.0
C3621 C 0.25934 0.46929 0.25493 0.0
C3622 C 0.26031 0.50751 0.22539 0.0
C3623 C 0.23797 0.52424 0.22855 0.0
N3624 N 0.25895 0.48144 0.24513 0.0
N3625 N 0.23806 0.51191 0.23787 0.0
H3626 H 0.52385 0.27073 0.28009 0.0
H3627 H 0.46428 0.22698 0.23011 0.0
H3628 H 0.52767 0.22811 0.26739 0.0
H3629 H 0.46588 0.27054 0.2279 0.0
H3630 H 0.48657 0.22682 0.2466 0.0
H3631 H 0.5014 0.27044 0.26434 0.0
C3632 C 0.5199 0.26128 0.27411 0.0
C3633 C 0.5276 0.24942 0.27505 0.0
C3634 C 0.48201 0.23639 0.24248 0.0
C3635 C 0.50197 0.24903 0.25687 0.0
C3636 C 0.46932 0.2365 0.23298 0.0
C3637 C 0.46315 0.2488 0.22762 0.0
C3638 C 0.48853 0.24866 0.24679 0.0
C3639 C 0.47009 0.26082 0.23207 0.0
C3640 C 0.50714 0.26114 0.26499 0.0
C3641 C 0.52209 0.2375 0.2668 0.0
N3642 N 0.48238 0.26045 0.24142 0.0
N3643 N 0.50957 0.23759 0.25809 0.0
H3644 H 0.72555 0.52381 0.28928 0.0
H3645 H 0.76482 0.47133 0.216 0.0
H3646 H 0.76412 0.53224 0.26071 0.0
H3647 H 0.7244 0.46495 0.23923 0.0
H3648 H 0.7653 0.49319 0.2337 0.0
H3649 H 0.72565 0.50154 0.2729 0.0
C3650 C 0.7341 0.52092 0.2797 0.0
C3651 C 0.74484 0.52989 0.27633 0.0
C3652 C 0.75633 0.487 0.23493 0.0
C3653 C 0.74495 0.50448 0.25734 0.0
C3654 C 0.75602 0.47455 0.22473 0.0
C3655 C 0.74454 0.46629 0.22609 0.0
C3656 C 0.74509 0.49123 0.2466 0.0
C3657 C 0.73353 0.47088 0.23796 0.0
C3658 C 0.7341 0.50825 0.27023 0.0
C3659 C 0.75555 0.5257 0.26351 0.0
N3660 N 0.73408 0.48304 0.24772 0.0
N3661 N 0.75534 0.51329 0.25448 0.0
H3662 H 0.45755 0.7467 0.23824 0.0
H3663 H 0.53674 0.7481 0.25625 0.0
H3664 H 0.47547 0.75612 0.29819 0.0
H3665 H 0.51873 0.7528 0.19517 0.0
H3666 H 0.51433 0.75002 0.27211 0.0
H3667 H 0.47982 0.74814 0.22214 0.0
C3668 C 0.46612 0.74925 0.24801 0.0
C3669 C 0.4646 0.75122 0.26968 0.0
C3670 C 0.51529 0.75075 0.25525 0.0
C3671 C 0.49019 0.75257 0.25134 0.0
C3672 C 0.52804 0.74958 0.24622 0.0
C3673 C 0.52952 0.75024 0.22441 0.0
C3674 C 0.50393 0.75236 0.24234 0.0
C3675 C 0.51799 0.75231 0.21207 0.0
C3676 C 0.47885 0.75 0.23879 0.0
C3677 C 0.47616 0.75423 0.28153 0.0
N3678 N 0.50564 0.75316 0.2212 0.0
N3679 N 0.48848 0.7547 0.27223 0.0
H3680 H 0.17927 0.12199 0.24783 0.0
H3681 H 0.12533 0.18191 0.24061 0.0
H3682 H 0.16795 0.14157 0.19005 0.0
H3683 H 0.14168 0.1669 0.29878 0.0
H3684 H 0.13808 0.16466 0.2217 0.0
H3685 H 0.16273 0.13581 0.26645 0.0
C3686 C 0.17315 0.12905 0.23901 0.0
C3687 C 0.17506 0.13072 0.21737 0.0
C3688 C 0.1388 0.16508 0.23862 0.0
C3689 C 0.15623 0.14666 0.23863 0.0
C3690 C 0.13146 0.17486 0.24943 0.0
C3691 C 0.13253 0.1759 0.27129 0.0
C3692 C 0.14726 0.15624 0.24974 0.0
C3693 C 0.14074 0.16659 0.28189 0.0
C3694 C 0.16378 0.137 0.24967 0.0
C3695 C 0.16696 0.14012 0.20678 0.0
N3696 N 0.14784 0.15719 0.27101 0.0
N3697 N 0.15795 0.14779 0.21753 0.0
H3698 H 0.86503 0.18811 0.2538 0.0
H3699 H 0.81547 0.12453 0.24598 0.0
H3700 H 0.85505 0.16831 0.1956 0.0
H3701 H 0.82086 0.14841 0.30189 0.0
H3702 H 0.83246 0.13836 0.22829 0.0
H3703 H 0.8515 0.17148 0.27259 0.0
C3704 C 0.86015 0.18015 0.24499 0.0
C3705 C 0.86111 0.17965 0.22306 0.0
C3706 C 0.82998 0.14052 0.24446 0.0
C3707 C 0.84541 0.16068 0.24449 0.0
C3708 C 0.82035 0.13258 0.2546 0.0
C3709 C 0.81667 0.13541 0.27537 0.0
C3710 C 0.83602 0.15131 0.25522 0.0
C3711 C 0.82323 0.14603 0.28575 0.0
C3712 C 0.85233 0.17071 0.25572 0.0
C3713 C 0.8544 0.1692 0.21247 0.0
N3714 N 0.83255 0.15363 0.27554 0.0
N3715 N 0.84678 0.16016 0.22327 0.0
H3716 H 0.85711 0.83041 0.29815 0.0
H3717 H 0.81849 0.84505 0.19335 0.0
H3718 H 0.86923 0.8121 0.23983 0.0
H3719 H 0.82128 0.8753 0.24166 0.0
H3720 H 0.83654 0.83227 0.21057 0.0
H3721 H 0.84335 0.84667 0.27851 0.0
C3722 C 0.85698 0.82995 0.2812 0.0
C3723 C 0.86423 0.81992 0.27054 0.0
C3724 C 0.83334 0.84179 0.21724 0.0
C3725 C 0.84845 0.83823 0.24812 0.0
C3726 C 0.82305 0.84903 0.20749 0.0
C3727 C 0.81847 0.86116 0.21621 0.0
C3728 C 0.83882 0.84658 0.23612 0.0
C3729 C 0.82463 0.86597 0.2345 0.0
C3730 C 0.8492 0.83923 0.27003 0.0
C3731 C 0.86381 0.81973 0.24859 0.0
N3732 N 0.83438 0.85855 0.2441 0.0
N3733 N 0.85585 0.82862 0.23809 0.0
H3734 H 0.16195 0.86185 0.3033 0.0
H3735 H 0.14635 0.82481 0.1952 0.0
H3736 H 0.1838 0.86932 0.24599 0.0
H3737 H 0.12129 0.82049 0.25003 0.0
H3738 H 0.15904 0.84256 0.21294 0.0
H3739 H 0.14581 0.84808 0.28364 0.0
C3740 C 0.16328 0.86069 0.28656 0.0
C3741 C 0.1743 0.86667 0.2763 0.0
C3742 C 0.15069 0.83785 0.22106 0.0
C3743 C 0.15591 0.85093 0.25373 0.0
C3744 C 0.14348 0.82768 0.21095 0.0
C3745 C 0.13286 0.8211 0.22126 0.0
C3746 C 0.14737 0.84137 0.24174 0.0
C3747 C 0.1294 0.82534 0.24153 0.0
C3748 C 0.15404 0.85288 0.27533 0.0
C3749 C 0.17543 0.86499 0.25454 0.0
N3750 N 0.13675 0.83511 0.25123 0.0
N3751 N 0.16645 0.85717 0.24404 0.0
H3752 H 0.83878 0.81327 0.68577 0.0
H3753 H 0.82675 0.86431 0.78118 0.0
H3754 H 0.86743 0.81932 0.73588 0.0
H3755 H 0.79566 0.85253 0.7375 0.0
H3756 H 0.84287 0.85022 0.76207 0.0
H3757 H 0.8239 0.82989 0.702 0.0
C3758 C 0.84196 0.81809 0.70017 0.0
C3759 C 0.85434 0.81478 0.70956 0.0
C3760 C 0.83253 0.85077 0.75662 0.0
C3761 C 0.83738 0.83394 0.72811 0.0
C3762 C 0.82335 0.85886 0.76744 0.0
C3763 C 0.80983 0.85951 0.76099 0.0
C3764 C 0.82817 0.84333 0.73915 0.0
C3765 C 0.80595 0.85215 0.7432 0.0
C3766 C 0.83347 0.82763 0.70938 0.0
C3767 C 0.85804 0.82161 0.72797 0.0
N3768 N 0.81506 0.84434 0.73293 0.0
N3769 N 0.84957 0.8308 0.7367 0.0
H3770 H 0.17563 0.84807 0.69215 0.0
H3771 H 0.14038 0.82607 0.79958 0.0
H3772 H 0.18674 0.86446 0.75244 0.0
H3773 H 0.13914 0.80204 0.74325 0.0
H3774 H 0.1543 0.84275 0.7812 0.0
H3775 H 0.15923 0.83347 0.70952 0.0
C3776 C 0.17464 0.84863 0.70902 0.0
C3777 C 0.18271 0.85747 0.72083 0.0
C3778 C 0.15093 0.83384 0.77286 0.0
C3779 C 0.16376 0.84092 0.74075 0.0
C3780 C 0.14294 0.82438 0.78329 0.0
C3781 C 0.13871 0.81263 0.77294 0.0
C3782 C 0.15458 0.83158 0.75189 0.0
C3783 C 0.14237 0.81088 0.75188 0.0
C3784 C 0.16522 0.84033 0.7189 0.0
C3785 C 0.18069 0.85795 0.74261 0.0
N3786 N 0.1501 0.82025 0.74204 0.0
N3787 N 0.17145 0.84976 0.75186 0.0
H3788 H 0.1315 0.18953 0.75384 0.0
H3789 H 0.18845 0.13324 0.74043 0.0
H3790 H 0.14321 0.17269 0.69416 0.0
H3791 H 0.17416 0.14706 0.80056 0.0
H3792 H 0.17105 0.14677 0.72334 0.0
H3793 H 0.14594 0.17308 0.7714 0.0
C3794 C 0.13695 0.18226 0.74442 0.0
C3795 C 0.1362 0.18257 0.72245 0.0
C3796 C 0.17164 0.14679 0.74028 0.0
C3797 C 0.15295 0.16385 0.74249 0.0
C3798 C 0.18161 0.13912 0.75003 0.0
C3799 C 0.18282 0.13915 0.77193 0.0
C3800 C 0.16285 0.15465 0.75249 0.0
C3801 C 0.17355 0.14674 0.78363 0.0
C3802 C 0.14527 0.17291 0.75447 0.0
C3803 C 0.14366 0.173 0.7111 0.0
N3804 N 0.16402 0.15429 0.77376 0.0
N3805 N 0.15179 0.1641 0.72124 0.0
H3806 H 0.83483 0.19531 0.7896 0.0
H3807 H 0.82686 0.12705 0.72359 0.0
H3808 H 0.86853 0.16993 0.77273 0.0
H3809 H 0.79405 0.15425 0.73759 0.0
H3810 H 0.84228 0.14209 0.7424 0.0
H3811 H 0.81965 0.17961 0.77207 0.0
C3812 C 0.83903 0.18634 0.78241 0.0
C3813 C 0.85298 0.18392 0.7827 0.0
C3814 C 0.8317 0.14474 0.74137 0.0
C3815 C 0.83564 0.16597 0.76222 0.0
C3816 C 0.82291 0.1362 0.73054 0.0
C3817 C 0.80913 0.13937 0.72906 0.0
C3818 C 0.82667 0.15654 0.75075 0.0
C3819 C 0.80454 0.15128 0.7386 0.0
C3820 C 0.83036 0.17743 0.77223 0.0
C3821 C 0.85786 0.17226 0.77271 0.0
N3822 N 0.81328 0.15942 0.74901 0.0
N3823 N 0.8492 0.16372 0.76286 0.0
H3824 H 0.66265 0.63271 0.70326 0.0
H3825 H 0.6552 0.68407 0.79694 0.0
H3826 H 0.68998 0.63293 0.75585 0.0
H3827 H 0.62067 0.67137 0.76089 0.0
H3828 H 0.6685 0.66596 0.781 0.0
H3829 H 0.64723 0.64737 0.72297 0.0
C3830 C 0.66531 0.63574 0.71903 0.0
C3831 C 0.67758 0.63166 0.72796 0.0
C3832 C 0.65798 0.66703 0.77673 0.0
C3833 C 0.6602 0.64849 0.75036 0.0
C3834 C 0.65043 0.67737 0.78574 0.0
C3835 C 0.63689 0.67917 0.7801 0.0
C3836 C 0.652 0.65861 0.76165 0.0
C3837 C 0.6311 0.67023 0.76563 0.0
C3838 C 0.65652 0.64403 0.73027 0.0
C3839 C 0.68057 0.63578 0.74847 0.0
N3840 N 0.63876 0.66042 0.75664 0.0
N3841 N 0.67202 0.64413 0.75887 0.0
H3842 H 0.31311 0.62583 0.74131 0.0
H3843 H 0.36601 0.68639 0.75196 0.0
H3844 H 0.32268 0.64579 0.79954 0.0
H3845 H 0.35491 0.66839 0.69282 0.0
H3846 H 0.35232 0.66962 0.77004 0.0
H3847 H 0.33041 0.63936 0.72378 0.0
C3848 C 0.31897 0.63294 0.75046 0.0
C3849 C 0.31636 0.63479 0.77188 0.0
C3850 C 0.35294 0.66926 0.75312 0.0
C3851 C 0.33606 0.65038 0.75189 0.0
C3852 C 0.36086 0.67878 0.74277 0.0
C3853 C 0.36156 0.67886 0.7208 0.0
C3854 C 0.34561 0.65973 0.74146 0.0
C3855 C 0.35447 0.66886 0.70975 0.0
C3856 C 0.32879 0.64071 0.74042 0.0
C3857 C 0.32418 0.64422 0.78292 0.0
N3858 N 0.34673 0.65975 0.72019 0.0
N3859 N 0.33362 0.6517 0.77278 0.0
H3860 H 0.36238 0.33023 0.79621 0.0
H3861 H 0.31186 0.33777 0.70074 0.0
H3862 H 0.3617 0.30228 0.74442 0.0
H3863 H 0.32403 0.37199 0.73793 0.0
H3864 H 0.32934 0.32416 0.71773 0.0
H3865 H 0.34759 0.34544 0.77635 0.0
C3866 C 0.35918 0.32736 0.78061 0.0
C3867 C 0.36322 0.315 0.77192 0.0
C3868 C 0.32828 0.33468 0.72205 0.0
C3869 C 0.34628 0.33219 0.7493 0.0
C3870 C 0.31829 0.3424 0.71244 0.0
C3871 C 0.31653 0.35596 0.71805 0.0
C3872 C 0.33639 0.34049 0.73766 0.0
C3873 C 0.32514 0.36157 0.73316 0.0
C3874 C 0.35081 0.33604 0.76927 0.0
C3875 C 0.35888 0.31177 0.75161 0.0
N3876 N 0.33462 0.35375 0.74267 0.0
N3877 N 0.35052 0.32024 0.74108 0.0
H3878 H 0.63637 0.32936 0.69668 0.0
H3879 H 0.67711 0.34377 0.80083 0.0
H3880 H 0.62915 0.30741 0.75394 0.0
H3881 H 0.67382 0.37313 0.75121 0.0
H3882 H 0.65941 0.33036 0.78408 0.0
H3883 H 0.64995 0.34569 0.7163 0.0
C3884 C 0.63756 0.32807 0.71343 0.0
C3885 C 0.63173 0.31701 0.72373 0.0
C3886 C 0.66243 0.33982 0.77699 0.0
C3887 C 0.64732 0.3355 0.74619 0.0
C3888 C 0.67256 0.34743 0.78648 0.0
C3889 C 0.67697 0.3595 0.77727 0.0
C3890 C 0.65684 0.3442 0.75795 0.0
C3891 C 0.67067 0.36388 0.75881 0.0
C3892 C 0.64525 0.3374 0.72463 0.0
C3893 C 0.63346 0.31584 0.74546 0.0
N3894 N 0.66104 0.35613 0.74957 0.0
N3895 N 0.64127 0.32487 0.75594 0.0
H3896 H 0.36775 0.31352 0.25252 0.0
H3897 H 0.30177 0.35966 0.24241 0.0
H3898 H 0.34141 0.31378 0.19869 0.0
H3899 H 0.32327 0.35395 0.30056 0.0
H3900 H 0.31816 0.34525 0.22481 0.0
H3901 H 0.35354 0.3308 0.26894 0.0
C3902 C 0.35906 0.31732 0.24408 0.0
C3903 C 0.35567 0.31215 0.2243 0.0
C3904 C 0.31933 0.34718 0.24141 0.0
C3905 C 0.3394 0.33181 0.24296 0.0
C3906 C 0.30994 0.35536 0.2515 0.0
C3907 C 0.31103 0.35787 0.27307 0.0
C3908 C 0.32995 0.34145 0.25293 0.0
C3909 C 0.32205 0.35232 0.28391 0.0
C3910 C 0.35092 0.32711 0.25349 0.0
C3911 C 0.34426 0.31735 0.2141 0.0
N3912 N 0.33104 0.34428 0.27374 0.0
N3913 N 0.33652 0.32686 0.22357 0.0
H3914 H 0.65744 0.3074 0.29327 0.0
H3915 H 0.66915 0.36411 0.20712 0.0
H3916 H 0.62834 0.31478 0.24414 0.0
H3917 H 0.70184 0.34179 0.23522 0.0
H3918 H 0.65298 0.3491 0.2248 0.0
H3919 H 0.6729 0.32308 0.27627 0.0
C3920 C 0.65429 0.31223 0.27887 0.0
C3921 C 0.64157 0.30956 0.27003 0.0
C3922 C 0.6637 0.34752 0.22703 0.0
C3923 C 0.65915 0.32788 0.25087 0.0
C3924 C 0.67288 0.35607 0.21707 0.0
C3925 C 0.68679 0.35408 0.2197 0.0
C3926 C 0.66851 0.33715 0.24003 0.0
C3927 C 0.69118 0.34354 0.23267 0.0
C3928 C 0.66311 0.32125 0.26926 0.0
C3929 C 0.63795 0.31656 0.25169 0.0
N3930 N 0.68206 0.33551 0.24248 0.0
N3931 N 0.6467 0.32541 0.24272 0.0
H3932 H 0.67135 0.64328 0.30098 0.0
H3933 H 0.64751 0.67501 0.19171 0.0
H3934 H 0.69002 0.63388 0.24166 0.0
H3935 H 0.63068 0.68608 0.25165 0.0
H3936 H 0.66166 0.65821 0.20922 0.0
H3937 H 0.65497 0.65745 0.28271 0.0
C3938 C 0.67199 0.64418 0.2841 0.0
C3939 C 0.68214 0.63746 0.27286 0.0
C3940 C 0.65482 0.66427 0.21853 0.0
C3941 C 0.66337 0.65362 0.25179 0.0
C3942 C 0.64669 0.67381 0.20852 0.0
C3943 C 0.63798 0.68203 0.22026 0.0
C3944 C 0.65422 0.66293 0.24042 0.0
C3945 C 0.63743 0.68012 0.24203 0.0
C3946 C 0.6626 0.65223 0.27366 0.0
C3947 C 0.68231 0.63879 0.25096 0.0
N3948 N 0.64547 0.67082 0.25141 0.0
N3949 N 0.67313 0.64679 0.24115 0.0
H3950 H 0.30463 0.65839 0.20768 0.0
H3951 H 0.36993 0.66515 0.2793 0.0
H3952 H 0.32041 0.62417 0.24179 0.0
H3953 H 0.34148 0.69753 0.26995 0.0
H3954 H 0.35458 0.64981 0.2604 0.0
H3955 H 0.32099 0.67284 0.22517 0.0
C3956 C 0.31146 0.65389 0.21892 0.0
C3957 C 0.31093 0.64003 0.22348 0.0
C3958 C 0.35175 0.66028 0.26256 0.0
C3959 C 0.32998 0.65655 0.24312 0.0
C3960 C 0.36047 0.66899 0.27323 0.0
C3961 C 0.35684 0.68253 0.27626 0.0
C3962 C 0.33954 0.6653 0.25453 0.0
C3963 C 0.34453 0.6871 0.26812 0.0
C3964 C 0.32085 0.66216 0.22879 0.0
C3965 C 0.32045 0.63476 0.23767 0.0
N3966 N 0.33635 0.67852 0.25752 0.0
N3967 N 0.32959 0.64304 0.24702 0.0
loop_
_geom_bond_atom_site_label_1
_geom_bond_atom_site_label_2
_geom_bond_distance
_geom_bond_site_symmetry_2
_ccdc_geom_bond_type
Li0 N17 1.990 . S
Li0 O60 1.956 . S
Li0 O61 1.970 . S
Li0 O62 1.961 . S
Li1 N25 1.990 . S
Li1 O60 1.970 . S
Li1 O61 1.956 . S
Li1 O63 1.961 . S
Li2 N47 1.990 . S
Li2 O60 1.961 . S
Li2 O62 1.956 . S
Li2 O63 1.970 . S
Li3 N53 1.990 . S
Li3 O61 1.961 . S
Li3 O62 1.970 . S
Li3 O63 1.956 . S
C4 C6 1.348 . S
C4 C7 1.356 . S
C4 O60 1.325 . S
N5 C8 1.314 . S
N5 C9 1.279 . S
C6 C4 1.348 . S
C6 C8 1.353 . S
C6 H64 0.929 . S
C7 C4 1.356 . S
C7 C9 1.358 . S
C7 H65 0.930 . S
C8 N5 1.314 . S
C8 C6 1.353 . S
C8 H66 0.930 . S
C9 N5 1.279 . S
C9 C7 1.358 . S
C9 H67 0.930 . S
C10 C13 1.348 . S
C10 C14 1.356 . S
C10 O61 1.325 . S
C11 N12 1.279 . S
C11 C14 1.358 . S
C11 H68 0.930 . S
N12 C11 1.279 . S
N12 C15 1.314 . S
C13 C10 1.348 . S
C13 C15 1.353 . S
C13 H69 0.929 . S
C14 C10 1.356 . S
C14 C11 1.358 . S
C14 H70 0.930 . S
C15 N12 1.314 . S
C15 C13 1.353 . S
C15 H71 0.930 . S
C16 N17 1.314 . S
C16 C21 1.353 . S
C16 H22 0.930 . S
N17 Li0 1.990 . S
N17 C16 1.314 . S
N17 C19 1.279 . S
C18 C19 1.358 . S
C18 C20 1.356 . S
C18 H72 0.930 . S
C19 N17 1.279 . S
C19 C18 1.358 . S
C19 H23 0.930 . S
C20 C18 1.356 . S
C20 C21 1.348 . S
C21 C16 1.353 . S
C21 C20 1.348 . S
C21 H73 0.929 . S
H22 C16 0.930 . S
H23 C19 0.930 . S
C24 N25 1.314 . S
C24 C26 1.353 . S
C24 H30 0.930 . S
N25 Li1 1.990 . S
N25 C24 1.314 . S
N25 C28 1.279 . S
C26 C24 1.353 . S
C26 C29 1.348 . S
C26 H74 0.929 . S
C27 C28 1.358 . S
C27 C29 1.356 . S
C27 H75 0.930 . S
C28 N25 1.279 . S
C28 C27 1.358 . S
C28 H31 0.930 . S
C29 C26 1.348 . S
C29 C27 1.356 . S
H30 C24 0.930 . S
H31 C28 0.930 . S
C32 C34 1.348 . S
C32 C35 1.356 . S
C32 O62 1.325 . S
N33 C36 1.314 . S
N33 C37 1.279 . S
C34 C32 1.348 . S
C34 C36 1.353 . S
C34 H76 0.929 . S
C35 C32 1.356 . S
C35 C37 1.358 . S
C35 H77 0.930 . S
C36 N33 1.314 . S
C36 C34 1.353 . S
C36 H78 0.930 . S
C37 N33 1.279 . S
C37 C35 1.358 . S
C37 H79 0.930 . S
C38 C39 1.348 . S
C38 C40 1.356 . S
C38 O63 1.325 . S
C39 C38 1.348 . S
C39 C41 1.353 . S
C39 H80 0.929 . S
C40 C38 1.356 . S
C40 C42 1.358 . S
C40 H81 0.930 . S
C41 C39 1.353 . S
C41 N43 1.314 . S
C41 H82 0.930 . S
C42 C40 1.358 . S
C42 N43 1.279 . S
C42 H83 0.930 . S
N43 C41 1.314 . S
N43 C42 1.279 . S
C44 C46 1.353 . S
C44 N47 1.314 . S
C44 H50 0.930 . S
C45 N47 1.279 . S
C45 C48 1.358 . S
C45 H51 0.930 . S
C46 C44 1.353 . S
C46 C49 1.348 . S
C46 H84 0.929 . S
N47 Li2 1.990 . S
N47 C44 1.314 . S
N47 C45 1.279 . S
C48 C45 1.358 . S
C48 C49 1.356 . S
C48 H85 0.930 . S
C49 C46 1.348 . S
C49 C48 1.356 . S
H50 C44 0.930 . S
H51 C45 0.930 . S
C52 N53 1.314 . S
C52 C54 1.353 . S
C52 H58 0.930 . S
N53 Li3 1.990 . S
N53 C52 1.314 . S
N53 C56 1.279 . S
C54 C52 1.353 . S
C54 C57 1.348 . S
C54 H86 0.929 . S
C55 C56 1.358 . S
C55 C57 1.356 . S
C55 H87 0.930 . S
C56 N53 1.279 . S
C56 C55 1.358 . S
C56 H59 0.930 . S
C57 C54 1.348 . S
C57 C55 1.356 . S
H58 C52 0.930 . S
H59 C56 0.930 . S
O60 Li0 1.956 . S
O60 Li1 1.970 . S
O60 Li2 1.961 . S
O60 C4 1.325 . S
O61 Li0 1.970 . S
O61 Li1 1.956 . S
O61 Li3 1.961 . S
O61 C10 1.325 . S
O62 Li0 1.961 . S
O62 Li2 1.956 . S
O62 Li3 1.970 . S
O62 C32 1.325 . S
O63 Li1 1.961 . S
O63 Li2 1.970 . S
O63 Li3 1.956 . S
O63 C38 1.325 . S
H64 C6 0.929 . S
H65 C7 0.930 . S
H66 C8 0.930 . S
H67 C9 0.930 . S
H68 C11 0.930 . S
H69 C13 0.929 . S
H70 C14 0.930 . S
H71 C15 0.930 . S
H72 C18 0.930 . S
H73 C21 0.929 . S
H74 C26 0.929 . S
H75 C27 0.930 . S
H76 C34 0.929 . S
H77 C35 0.930 . S
H78 C36 0.930 . S
H79 C37 0.930 . S
H80 C39 0.929 . S
H81 C40 0.930 . S
H82 C41 0.930 . S
H83 C42 0.930 . S
H84 C46 0.929 . S
H85 C48 0.930 . S
H86 C54 0.929 . S
H87 C55 0.930 . S
Li88 N105 1.990 . S
Li88 O148 1.956 . S
Li88 O149 1.970 . S
Li88 O150 1.961 . S
Li89 N113 1.990 . S
Li89 O148 1.970 . S
Li89 O149 1.956 . S
Li89 O151 1.961 . S
Li90 N135 1.990 . S
Li90 O148 1.961 . S
Li90 O150 1.956 . S
Li90 O151 1.970 . S
Li91 N141 1.990 . S
Li91 O149 1.961 . S
Li91 O150 1.970 . S
Li91 O151 1.956 . S
C92 C94 1.348 . S
C92 C95 1.356 . S
C92 O148 1.325 . S
N93 C96 1.314 . S
N93 C97 1.279 . S
C94 C92 1.348 . S
C94 C96 1.353 . S
C94 H152 0.929 . S
C95 C92 1.356 . S
C95 C97 1.358 . S
C95 H153 0.930 . S
C96 N93 1.314 . S
C96 C94 1.353 . S
C96 H154 0.930 . S
C97 N93 1.279 . S
C97 C95 1.358 . S
C97 H155 0.930 . S
C98 C101 1.348 . S
C98 C102 1.356 . S
C98 O149 1.325 . S
C99 N100 1.279 . S
C99 C102 1.358 . S
C99 H156 0.930 . S
N100 C99 1.279 . S
N100 C103 1.314 . S
C101 C98 1.348 . S
C101 C103 1.353 . S
C101 H157 0.929 . S
C102 C98 1.356 . S
C102 C99 1.358 . S
C102 H158 0.930 . S
C103 N100 1.314 . S
C103 C101 1.353 . S
C103 H159 0.930 . S
C104 N105 1.314 . S
C104 C109 1.353 . S
C104 H110 0.930 . S
N105 Li88 1.990 . S
N105 C104 1.314 . S
N105 C107 1.279 . S
C106 C107 1.358 . S
C106 C108 1.356 . S
C106 H160 0.930 . S
C107 N105 1.279 . S
C107 C106 1.358 . S
C107 H111 0.930 . S
C108 C106 1.356 . S
C108 C109 1.348 . S
C109 C104 1.353 . S
C109 C108 1.348 . S
C109 H161 0.929 . S
H110 C104 0.930 . S
H111 C107 0.930 . S
C112 N113 1.314 . S
C112 C114 1.353 . S
C112 H118 0.930 . S
N113 Li89 1.990 . S
N113 C112 1.314 . S
N113 C116 1.279 . S
C114 C112 1.353 . S
C114 C117 1.348 . S
C114 H162 0.929 . S
C115 C116 1.358 . S
C115 C117 1.356 . S
C115 H163 0.930 . S
C116 N113 1.279 . S
C116 C115 1.358 . S
C116 H119 0.930 . S
C117 C114 1.348 . S
C117 C115 1.356 . S
H118 C112 0.930 . S
H119 C116 0.930 . S
C120 C122 1.348 . S
C120 C123 1.356 . S
C120 O150 1.325 . S
N121 C124 1.314 . S
N121 C125 1.279 . S
C122 C120 1.348 . S
C122 C124 1.353 . S
C122 H164 0.929 . S
C123 C120 1.356 . S
C123 C125 1.358 . S
C123 H165 0.930 . S
C124 N121 1.314 . S
C124 C122 1.353 . S
C124 H166 0.930 . S
C125 N121 1.279 . S
C125 C123 1.358 . S
C125 H167 0.930 . S
C126 C127 1.348 . S
C126 C128 1.356 . S
C126 O151 1.325 . S
C127 C126 1.348 . S
C127 C129 1.353 . S
C127 H168 0.929 . S
C128 C126 1.356 . S
C128 C130 1.358 . S
C128 H169 0.930 . S
C129 C127 1.353 . S
C129 N131 1.314 . S
C129 H170 0.930 . S
C130 C128 1.358 . S
C130 N131 1.279 . S
C130 H171 0.930 . S
N131 C129 1.314 . S
N131 C130 1.279 . S
C132 C134 1.353 . S
C132 N135 1.314 . S
C132 H138 0.930 . S
C133 N135 1.279 . S
C133 C136 1.358 . S
C133 H139 0.930 . S
C134 C132 1.353 . S
C134 C137 1.348 . S
C134 H172 0.929 . S
N135 Li90 1.990 . S
N135 C132 1.314 . S
N135 C133 1.279 . S
C136 C133 1.358 . S
C136 C137 1.356 . S
C136 H173 0.930 . S
C137 C134 1.348 . S
C137 C136 1.356 . S
H138 C132 0.930 . S
H139 C133 0.930 . S
C140 N141 1.314 . S
C140 C142 1.353 . S
C140 H146 0.930 . S
N141 Li91 1.990 . S
N141 C140 1.314 . S
N141 C144 1.279 . S
C142 C140 1.353 . S
C142 C145 1.348 . S
C142 H174 0.929 . S
C143 C144 1.358 . S
C143 C145 1.356 . S
C143 H175 0.930 . S
C144 N141 1.279 . S
C144 C143 1.358 . S
C144 H147 0.930 . S
C145 C142 1.348 . S
C145 C143 1.356 . S
H146 C140 0.930 . S
H147 C144 0.930 . S
O148 Li88 1.956 . S
O148 Li89 1.970 . S
O148 Li90 1.961 . S
O148 C92 1.325 . S
O149 Li88 1.970 . S
O149 Li89 1.956 . S
O149 Li91 1.961 . S
O149 C98 1.325 . S
O150 Li88 1.961 . S
O150 Li90 1.956 . S
O150 Li91 1.970 . S
O150 C120 1.325 . S
O151 Li89 1.961 . S
O151 Li90 1.970 . S
O151 Li91 1.956 . S
O151 C126 1.325 . S
H152 C94 0.929 . S
H153 C95 0.930 . S
H154 C96 0.930 . S
H155 C97 0.930 . S
H156 C99 0.930 . S
H157 C101 0.929 . S
H158 C102 0.930 . S
H159 C103 0.930 . S
H160 C106 0.930 . S
H161 C109 0.929 . S
H162 C114 0.929 . S
H163 C115 0.930 . S
H164 C122 0.929 . S
H165 C123 0.930 . S
H166 C124 0.930 . S
H167 C125 0.930 . S
H168 C127 0.929 . S
H169 C128 0.930 . S
H170 C129 0.930 . S
H171 C130 0.930 . S
H172 C134 0.929 . S
H173 C136 0.930 . S
H174 C142 0.929 . S
H175 C143 0.930 . S
Li176 N193 1.990 . S
Li176 O236 1.956 . S
Li176 O237 1.970 . S
Li176 O238 1.961 . S
Li177 N201 1.990 . S
Li177 O236 1.970 . S
Li177 O237 1.956 . S
Li177 O239 1.961 . S
Li178 N223 1.990 . S
Li178 O236 1.961 . S
Li178 O238 1.956 . S
Li178 O239 1.970 . S
Li179 N229 1.990 . S
Li179 O237 1.961 . S
Li179 O238 1.970 . S
Li179 O239 1.956 . S
C180 C182 1.348 . S
C180 C183 1.356 . S
C180 O236 1.325 . S
N181 C184 1.314 . S
N181 C185 1.279 . S
C182 C180 1.348 . S
C182 C184 1.353 . S
C182 H240 0.929 . S
C183 C180 1.356 . S
C183 C185 1.358 . S
C183 H241 0.930 . S
C184 N181 1.314 . S
C184 C182 1.353 . S
C184 H242 0.930 . S
C185 N181 1.279 . S
C185 C183 1.358 . S
C185 H243 0.930 . S
C186 C189 1.348 . S
C186 C190 1.356 . S
C186 O237 1.325 . S
C187 N188 1.279 . S
C187 C190 1.358 . S
C187 H244 0.930 . S
N188 C187 1.279 . S
N188 C191 1.314 . S
C189 C186 1.348 . S
C189 C191 1.353 . S
C189 H245 0.929 . S
C190 C186 1.356 . S
C190 C187 1.358 . S
C190 H246 0.930 . S
C191 N188 1.314 . S
C191 C189 1.353 . S
C191 H247 0.930 . S
C192 N193 1.314 . S
C192 C197 1.353 . S
C192 H198 0.930 . S
N193 Li176 1.990 . S
N193 C192 1.314 . S
N193 C195 1.279 . S
C194 C195 1.358 . S
C194 C196 1.356 . S
C194 H248 0.930 . S
C195 N193 1.279 . S
C195 C194 1.358 . S
C195 H199 0.930 . S
C196 C194 1.356 . S
C196 C197 1.348 . S
C197 C192 1.353 . S
C197 C196 1.348 . S
C197 H249 0.929 . S
H198 C192 0.930 . S
H199 C195 0.930 . S
C200 N201 1.314 . S
C200 C202 1.353 . S
C200 H206 0.930 . S
N201 Li177 1.990 . S
N201 C200 1.314 . S
N201 C204 1.279 . S
C202 C200 1.353 . S
C202 C205 1.348 . S
C202 H250 0.929 . S
C203 C204 1.358 . S
C203 C205 1.356 . S
C203 H251 0.930 . S
C204 N201 1.279 . S
C204 C203 1.358 . S
C204 H207 0.930 . S
C205 C202 1.348 . S
C205 C203 1.356 . S
H206 C200 0.930 . S
H207 C204 0.930 . S
C208 C210 1.348 . S
C208 C211 1.356 . S
C208 O238 1.325 . S
N209 C212 1.314 . S
N209 C213 1.279 . S
C210 C208 1.348 . S
C210 C212 1.353 . S
C210 H252 0.929 . S
C211 C208 1.356 . S
C211 C213 1.358 . S
C211 H253 0.930 . S
C212 N209 1.314 . S
C212 C210 1.353 . S
C212 H254 0.930 . S
C213 N209 1.279 . S
C213 C211 1.358 . S
C213 H255 0.930 . S
C214 C215 1.348 . S
C214 C216 1.356 . S
C214 O239 1.325 . S
C215 C214 1.348 . S
C215 C217 1.353 . S
C215 H256 0.929 . S
C216 C214 1.356 . S
C216 C218 1.358 . S
C216 H257 0.930 . S
C217 C215 1.353 . S
C217 N219 1.314 . S
C217 H258 0.930 . S
C218 C216 1.358 . S
C218 N219 1.279 . S
C218 H259 0.930 . S
N219 C217 1.314 . S
N219 C218 1.279 . S
C220 C222 1.353 . S
C220 N223 1.314 . S
C220 H226 0.930 . S
C221 N223 1.279 . S
C221 C224 1.358 . S
C221 H227 0.930 . S
C222 C220 1.353 . S
C222 C225 1.348 . S
C222 H260 0.929 . S
N223 Li178 1.990 . S
N223 C220 1.314 . S
N223 C221 1.279 . S
C224 C221 1.358 . S
C224 C225 1.356 . S
C224 H261 0.930 . S
C225 C222 1.348 . S
C225 C224 1.356 . S
H226 C220 0.930 . S
H227 C221 0.930 . S
C228 N229 1.314 . S
C228 C230 1.353 . S
C228 H234 0.930 . S
N229 Li179 1.990 . S
N229 C228 1.314 . S
N229 C232 1.279 . S
C230 C228 1.353 . S
C230 C233 1.348 . S
C230 H262 0.929 . S
C231 C232 1.358 . S
C231 C233 1.356 . S
C231 H263 0.930 . S
C232 N229 1.279 . S
C232 C231 1.358 . S
C232 H235 0.930 . S
C233 C230 1.348 . S
C233 C231 1.356 . S
H234 C228 0.930 . S
H235 C232 0.930 . S
O236 Li176 1.956 . S
O236 Li177 1.970 . S
O236 Li178 1.961 . S
O236 C180 1.325 . S
O237 Li176 1.970 . S
O237 Li177 1.956 . S
O237 Li179 1.961 . S
O237 C186 1.325 . S
O238 Li176 1.961 . S
O238 Li178 1.956 . S
O238 Li179 1.970 . S
O238 C208 1.325 . S
O239 Li177 1.961 . S
O239 Li178 1.970 . S
O239 Li179 1.956 . S
O239 C214 1.325 . S
H240 C182 0.929 . S
H241 C183 0.930 . S
H242 C184 0.930 . S
H243 C185 0.930 . S
H244 C187 0.930 . S
H245 C189 0.929 . S
H246 C190 0.930 . S
H247 C191 0.930 . S
H248 C194 0.930 . S
H249 C197 0.929 . S
H250 C202 0.929 . S
H251 C203 0.930 . S
H252 C210 0.929 . S
H253 C211 0.930 . S
H254 C212 0.930 . S
H255 C213 0.930 . S
H256 C215 0.929 . S
H257 C216 0.930 . S
H258 C217 0.930 . S
H259 C218 0.930 . S
H260 C222 0.929 . S
H261 C224 0.930 . S
H262 C230 0.929 . S
H263 C231 0.930 . S
Li264 N281 1.990 . S
Li264 O324 1.956 . S
Li264 O325 1.970 . S
Li264 O326 1.961 . S
Li265 N289 1.990 . S
Li265 O324 1.970 . S
Li265 O325 1.956 . S
Li265 O327 1.961 . S
Li266 N311 1.990 . S
Li266 O324 1.961 . S
Li266 O326 1.956 . S
Li266 O327 1.970 . S
Li267 N317 1.990 . S
Li267 O325 1.961 . S
Li267 O326 1.970 . S
Li267 O327 1.956 . S
C268 C270 1.348 . S
C268 C271 1.356 . S
C268 O324 1.325 . S
N269 C272 1.314 . S
N269 C273 1.279 . S
C270 C268 1.348 . S
C270 C272 1.353 . S
C270 H328 0.929 . S
C271 C268 1.356 . S
C271 C273 1.358 . S
C271 H329 0.930 . S
C272 N269 1.314 . S
C272 C270 1.353 . S
C272 H330 0.930 . S
C273 N269 1.279 . S
C273 C271 1.358 . S
C273 H331 0.930 . S
C274 C277 1.348 . S
C274 C278 1.356 . S
C274 O325 1.325 . S
C275 N276 1.279 . S
C275 C278 1.358 . S
C275 H332 0.930 . S
N276 C275 1.279 . S
N276 C279 1.314 . S
C277 C274 1.348 . S
C277 C279 1.353 . S
C277 H333 0.929 . S
C278 C274 1.356 . S
C278 C275 1.358 . S
C278 H334 0.930 . S
C279 N276 1.314 . S
C279 C277 1.353 . S
C279 H335 0.930 . S
C280 N281 1.314 . S
C280 C285 1.353 . S
C280 H286 0.930 . S
N281 Li264 1.990 . S
N281 C280 1.314 . S
N281 C283 1.279 . S
C282 C283 1.358 . S
C282 C284 1.356 . S
C282 H336 0.930 . S
C283 N281 1.279 . S
C283 C282 1.358 . S
C283 H287 0.930 . S
C284 C282 1.356 . S
C284 C285 1.348 . S
C285 C280 1.353 . S
C285 C284 1.348 . S
C285 H337 0.929 . S
H286 C280 0.930 . S
H287 C283 0.930 . S
C288 N289 1.314 . S
C288 C290 1.353 . S
C288 H294 0.930 . S
N289 Li265 1.990 . S
N289 C288 1.314 . S
N289 C292 1.279 . S
C290 C288 1.353 . S
C290 C293 1.348 . S
C290 H338 0.929 . S
C291 C292 1.358 . S
C291 C293 1.356 . S
C291 H339 0.930 . S
C292 N289 1.279 . S
C292 C291 1.358 . S
C292 H295 0.930 . S
C293 C290 1.348 . S
C293 C291 1.356 . S
H294 C288 0.930 . S
H295 C292 0.930 . S
C296 C298 1.348 . S
C296 C299 1.356 . S
C296 O326 1.325 . S
N297 C300 1.314 . S
N297 C301 1.279 . S
C298 C296 1.348 . S
C298 C300 1.353 . S
C298 H340 0.929 . S
C299 C296 1.356 . S
C299 C301 1.358 . S
C299 H341 0.930 . S
C300 N297 1.314 . S
C300 C298 1.353 . S
C300 H342 0.930 . S
C301 N297 1.279 . S
C301 C299 1.358 . S
C301 H343 0.930 . S
C302 C303 1.348 . S
C302 C304 1.356 . S
C302 O327 1.325 . S
C303 C302 1.348 . S
C303 C305 1.353 . S
C303 H344 0.929 . S
C304 C302 1.356 . S
C304 C306 1.358 . S
C304 H345 0.930 . S
C305 C303 1.353 . S
C305 N307 1.314 . S
C305 H346 0.930 . S
C306 C304 1.358 . S
C306 N307 1.279 . S
C306 H347 0.930 . S
N307 C305 1.314 . S
N307 C306 1.279 . S
C308 C310 1.353 . S
C308 N311 1.314 . S
C308 H314 0.930 . S
C309 N311 1.279 . S
C309 C312 1.358 . S
C309 H315 0.930 . S
C310 C308 1.353 . S
C310 C313 1.348 . S
C310 H348 0.929 . S
N311 Li266 1.990 . S
N311 C308 1.314 . S
N311 C309 1.279 . S
C312 C309 1.358 . S
C312 C313 1.356 . S
C312 H349 0.930 . S
C313 C310 1.348 . S
C313 C312 1.356 . S
H314 C308 0.930 . S
H315 C309 0.930 . S
C316 N317 1.314 . S
C316 C318 1.353 . S
C316 H322 0.930 . S
N317 Li267 1.990 . S
N317 C316 1.314 . S
N317 C320 1.279 . S
C318 C316 1.353 . S
C318 C321 1.348 . S
C318 H350 0.929 . S
C319 C320 1.358 . S
C319 C321 1.356 . S
C319 H351 0.930 . S
C320 N317 1.279 . S
C320 C319 1.358 . S
C320 H323 0.930 . S
C321 C318 1.348 . S
C321 C319 1.356 . S
H322 C316 0.930 . S
H323 C320 0.930 . S
O324 Li264 1.956 . S
O324 Li265 1.970 . S
O324 Li266 1.961 . S
O324 C268 1.325 . S
O325 Li264 1.970 . S
O325 Li265 1.956 . S
O325 Li267 1.961 . S
O325 C274 1.325 . S
O326 Li264 1.961 . S
O326 Li266 1.956 . S
O326 Li267 1.970 . S
O326 C296 1.325 . S
O327 Li265 1.961 . S
O327 Li266 1.970 . S
O327 Li267 1.956 . S
O327 C302 1.325 . S
H328 C270 0.929 . S
H329 C271 0.930 . S
H330 C272 0.930 . S
H331 C273 0.930 . S
H332 C275 0.930 . S
H333 C277 0.929 . S
H334 C278 0.930 . S
H335 C279 0.930 . S
H336 C282 0.930 . S
H337 C285 0.929 . S
H338 C290 0.929 . S
H339 C291 0.930 . S
H340 C298 0.929 . S
H341 C299 0.930 . S
H342 C300 0.930 . S
H343 C301 0.930 . S
H344 C303 0.929 . S
H345 C304 0.930 . S
H346 C305 0.930 . S
H347 C306 0.930 . S
H348 C310 0.929 . S
H349 C312 0.930 . S
H350 C318 0.929 . S
H351 C319 0.930 . S
Li352 N369 1.990 . S
Li352 O412 1.956 . S
Li352 O413 1.970 . S
Li352 O414 1.961 . S
Li353 N377 1.990 . S
Li353 O412 1.970 . S
Li353 O413 1.956 . S
Li353 O415 1.961 . S
Li354 N399 1.990 . S
Li354 O412 1.961 . S
Li354 O414 1.956 . S
Li354 O415 1.970 . S
Li355 N405 1.990 . S
Li355 O413 1.961 . S
Li355 O414 1.970 . S
Li355 O415 1.956 . S
C356 C358 1.348 . S
C356 C359 1.356 . S
C356 O412 1.325 . S
N357 C360 1.314 . S
N357 C361 1.279 . S
C358 C356 1.348 . S
C358 C360 1.353 . S
C358 H416 0.929 . S
C359 C356 1.356 . S
C359 C361 1.358 . S
C359 H417 0.930 . S
C360 N357 1.314 . S
C360 C358 1.353 . S
C360 H418 0.930 . S
C361 N357 1.279 . S
C361 C359 1.358 . S
C361 H419 0.930 . S
C362 C365 1.348 . S
C362 C366 1.356 . S
C362 O413 1.325 . S
C363 N364 1.279 . S
C363 C366 1.358 . S
C363 H420 0.930 . S
N364 C363 1.279 . S
N364 C367 1.314 . S
C365 C362 1.348 . S
C365 C367 1.353 . S
C365 H421 0.929 . S
C366 C362 1.356 . S
C366 C363 1.358 . S
C366 H422 0.930 . S
C367 N364 1.314 . S
C367 C365 1.353 . S
C367 H423 0.930 . S
C368 N369 1.314 . S
C368 C373 1.353 . S
C368 H374 0.930 . S
N369 Li352 1.990 . S
N369 C368 1.314 . S
N369 C371 1.279 . S
C370 C371 1.358 . S
C370 C372 1.356 . S
C370 H424 0.930 . S
C371 N369 1.279 . S
C371 C370 1.358 . S
C371 H375 0.930 . S
C372 C370 1.356 . S
C372 C373 1.348 . S
C373 C368 1.353 . S
C373 C372 1.348 . S
C373 H425 0.929 . S
H374 C368 0.930 . S
H375 C371 0.930 . S
C376 N377 1.314 . S
C376 C378 1.353 . S
C376 H382 0.930 . S
N377 Li353 1.990 . S
N377 C376 1.314 . S
N377 C380 1.279 . S
C378 C376 1.353 . S
C378 C381 1.348 . S
C378 H426 0.929 . S
C379 C380 1.358 . S
C379 C381 1.356 . S
C379 H427 0.930 . S
C380 N377 1.279 . S
C380 C379 1.358 . S
C380 H383 0.930 . S
C381 C378 1.348 . S
C381 C379 1.356 . S
H382 C376 0.930 . S
H383 C380 0.930 . S
C384 C386 1.348 . S
C384 C387 1.356 . S
C384 O414 1.325 . S
N385 C388 1.314 . S
N385 C389 1.279 . S
C386 C384 1.348 . S
C386 C388 1.353 . S
C386 H428 0.929 . S
C387 C384 1.356 . S
C387 C389 1.358 . S
C387 H429 0.930 . S
C388 N385 1.314 . S
C388 C386 1.353 . S
C388 H430 0.930 . S
C389 N385 1.279 . S
C389 C387 1.358 . S
C389 H431 0.930 . S
C390 C391 1.348 . S
C390 C392 1.356 . S
C390 O415 1.325 . S
C391 C390 1.348 . S
C391 C393 1.353 . S
C391 H432 0.929 . S
C392 C390 1.356 . S
C392 C394 1.358 . S
C392 H433 0.930 . S
C393 C391 1.353 . S
C393 N395 1.314 . S
C393 H434 0.930 . S
C394 C392 1.358 . S
C394 N395 1.279 . S
C394 H435 0.930 . S
N395 C393 1.314 . S
N395 C394 1.279 . S
C396 C398 1.353 . S
C396 N399 1.314 . S
C396 H402 0.930 . S
C397 N399 1.279 . S
C397 C400 1.358 . S
C397 H403 0.930 . S
C398 C396 1.353 . S
C398 C401 1.348 . S
C398 H436 0.929 . S
N399 Li354 1.990 . S
N399 C396 1.314 . S
N399 C397 1.279 . S
C400 C397 1.358 . S
C400 C401 1.356 . S
C400 H437 0.930 . S
C401 C398 1.348 . S
C401 C400 1.356 . S
H402 C396 0.930 . S
H403 C397 0.930 . S
C404 N405 1.314 . S
C404 C406 1.353 . S
C404 H410 0.930 . S
N405 Li355 1.990 . S
N405 C404 1.314 . S
N405 C408 1.279 . S
C406 C404 1.353 . S
C406 C409 1.348 . S
C406 H438 0.929 . S
C407 C408 1.358 . S
C407 C409 1.356 . S
C407 H439 0.930 . S
C408 N405 1.279 . S
C408 C407 1.358 . S
C408 H411 0.930 . S
C409 C406 1.348 . S
C409 C407 1.356 . S
H410 C404 0.930 . S
H411 C408 0.930 . S
O412 Li352 1.956 . S
O412 Li353 1.970 . S
O412 Li354 1.961 . S
O412 C356 1.325 . S
O413 Li352 1.970 . S
O413 Li353 1.956 . S
O413 Li355 1.961 . S
O413 C362 1.325 . S
O414 Li352 1.961 . S
O414 Li354 1.956 . S
O414 Li355 1.970 . S
O414 C384 1.325 . S
O415 Li353 1.961 . S
O415 Li354 1.970 . S
O415 Li355 1.956 . S
O415 C390 1.325 . S
H416 C358 0.929 . S
H417 C359 0.930 . S
H418 C360 0.930 . S
H419 C361 0.930 . S
H420 C363 0.930 . S
H421 C365 0.929 . S
H422 C366 0.930 . S
H423 C367 0.930 . S
H424 C370 0.930 . S
H425 C373 0.929 . S
H426 C378 0.929 . S
H427 C379 0.930 . S
H428 C386 0.929 . S
H429 C387 0.930 . S
H430 C388 0.930 . S
H431 C389 0.930 . S
H432 C391 0.929 . S
H433 C392 0.930 . S
H434 C393 0.930 . S
H435 C394 0.930 . S
H436 C398 0.929 . S
H437 C400 0.930 . S
H438 C406 0.929 . S
H439 C407 0.930 . S
Li440 N457 1.990 . S
Li440 O500 1.956 . S
Li440 O501 1.970 . S
Li440 O502 1.961 . S
Li441 N465 1.990 . S
Li441 O500 1.970 . S
Li441 O501 1.956 . S
Li441 O503 1.961 . S
Li442 N487 1.990 . S
Li442 O500 1.961 . S
Li442 O502 1.956 . S
Li442 O503 1.970 . S
Li443 N493 1.990 . S
Li443 O501 1.961 . S
Li443 O502 1.970 . S
Li443 O503 1.956 . S
C444 C446 1.348 . S
C444 C447 1.356 . S
C444 O500 1.325 . S
N445 C448 1.314 . S
N445 C449 1.279 . S
C446 C444 1.348 . S
C446 C448 1.353 . S
C446 H504 0.929 . S
C447 C444 1.356 . S
C447 C449 1.358 . S
C447 H505 0.930 . S
C448 N445 1.314 . S
C448 C446 1.353 . S
C448 H506 0.930 . S
C449 N445 1.279 . S
C449 C447 1.358 . S
C449 H507 0.930 . S
C450 C453 1.348 . S
C450 C454 1.356 . S
C450 O501 1.325 . S
C451 N452 1.279 . S
C451 C454 1.358 . S
C451 H508 0.930 . S
N452 C451 1.279 . S
N452 C455 1.314 . S
C453 C450 1.348 . S
C453 C455 1.353 . S
C453 H509 0.929 . S
C454 C450 1.356 . S
C454 C451 1.358 . S
C454 H510 0.930 . S
C455 N452 1.314 . S
C455 C453 1.353 . S
C455 H511 0.930 . S
C456 N457 1.314 . S
C456 C461 1.353 . S
C456 H462 0.930 . S
N457 Li440 1.990 . S
N457 C456 1.314 . S
N457 C459 1.279 . S
C458 C459 1.358 . S
C458 C460 1.356 . S
C458 H512 0.930 . S
C459 N457 1.279 . S
C459 C458 1.358 . S
C459 H463 0.930 . S
C460 C458 1.356 . S
C460 C461 1.348 . S
C461 C456 1.353 . S
C461 C460 1.348 . S
C461 H513 0.929 . S
H462 C456 0.930 . S
H463 C459 0.930 . S
C464 N465 1.314 . S
C464 C466 1.353 . S
C464 H470 0.930 . S
N465 Li441 1.990 . S
N465 C464 1.314 . S
N465 C468 1.279 . S
C466 C464 1.353 . S
C466 C469 1.348 . S
C466 H514 0.929 . S
C467 C468 1.358 . S
C467 C469 1.356 . S
C467 H515 0.930 . S
C468 N465 1.279 . S
C468 C467 1.358 . S
C468 H471 0.930 . S
C469 C466 1.348 . S
C469 C467 1.356 . S
H470 C464 0.930 . S
H471 C468 0.930 . S
C472 C474 1.348 . S
C472 C475 1.356 . S
C472 O502 1.325 . S
N473 C476 1.314 . S
N473 C477 1.279 . S
C474 C472 1.348 . S
C474 C476 1.353 . S
C474 H516 0.929 . S
C475 C472 1.356 . S
C475 C477 1.358 . S
C475 H517 0.930 . S
C476 N473 1.314 . S
C476 C474 1.353 . S
C476 H518 0.930 . S
C477 N473 1.279 . S
C477 C475 1.358 . S
C477 H519 0.930 . S
C478 C479 1.348 . S
C478 C480 1.356 . S
C478 O503 1.325 . S
C479 C478 1.348 . S
C479 C481 1.353 . S
C479 H520 0.929 . S
C480 C478 1.356 . S
C480 C482 1.358 . S
C480 H521 0.930 . S
C481 C479 1.353 . S
C481 N483 1.314 . S
C481 H522 0.930 . S
C482 C480 1.358 . S
C482 N483 1.279 . S
C482 H523 0.930 . S
N483 C481 1.314 . S
N483 C482 1.279 . S
C484 C486 1.353 . S
C484 N487 1.314 . S
C484 H490 0.930 . S
C485 N487 1.279 . S
C485 C488 1.358 . S
C485 H491 0.930 . S
C486 C484 1.353 . S
C486 C489 1.348 . S
C486 H524 0.929 . S
N487 Li442 1.990 . S
N487 C484 1.314 . S
N487 C485 1.279 . S
C488 C485 1.358 . S
C488 C489 1.356 . S
C488 H525 0.930 . S
C489 C486 1.348 . S
C489 C488 1.356 . S
H490 C484 0.930 . S
H491 C485 0.930 . S
C492 N493 1.314 . S
C492 C494 1.353 . S
C492 H498 0.930 . S
N493 Li443 1.990 . S
N493 C492 1.314 . S
N493 C496 1.279 . S
C494 C492 1.353 . S
C494 C497 1.348 . S
C494 H526 0.929 . S
C495 C496 1.358 . S
C495 C497 1.356 . S
C495 H527 0.930 . S
C496 N493 1.279 . S
C496 C495 1.358 . S
C496 H499 0.930 . S
C497 C494 1.348 . S
C497 C495 1.356 . S
H498 C492 0.930 . S
H499 C496 0.930 . S
O500 Li440 1.956 . S
O500 Li441 1.970 . S
O500 Li442 1.961 . S
O500 C444 1.325 . S
O501 Li440 1.970 . S
O501 Li441 1.956 . S
O501 Li443 1.961 . S
O501 C450 1.325 . S
O502 Li440 1.961 . S
O502 Li442 1.956 . S
O502 Li443 1.970 . S
O502 C472 1.325 . S
O503 Li441 1.961 . S
O503 Li442 1.970 . S
O503 Li443 1.956 . S
O503 C478 1.325 . S
H504 C446 0.929 . S
H505 C447 0.930 . S
H506 C448 0.930 . S
H507 C449 0.930 . S
H508 C451 0.930 . S
H509 C453 0.929 . S
H510 C454 0.930 . S
H511 C455 0.930 . S
H512 C458 0.930 . S
H513 C461 0.929 . S
H514 C466 0.929 . S
H515 C467 0.930 . S
H516 C474 0.929 . S
H517 C475 0.930 . S
H518 C476 0.930 . S
H519 C477 0.930 . S
H520 C479 0.929 . S
H521 C480 0.930 . S
H522 C481 0.930 . S
H523 C482 0.930 . S
H524 C486 0.929 . S
H525 C488 0.930 . S
H526 C494 0.929 . S
H527 C495 0.930 . S
Li528 N545 1.990 . S
Li528 O588 1.956 . S
Li528 O589 1.970 . S
Li528 O590 1.961 . S
Li529 N553 1.990 . S
Li529 O588 1.970 . S
Li529 O589 1.956 . S
Li529 O591 1.961 . S
Li530 N575 1.990 . S
Li530 O588 1.961 . S
Li530 O590 1.956 . S
Li530 O591 1.970 . S
Li531 N581 1.990 . S
Li531 O589 1.961 . S
Li531 O590 1.970 . S
Li531 O591 1.956 . S
C532 C534 1.348 . S
C532 C535 1.356 . S
C532 O588 1.325 . S
N533 C536 1.314 . S
N533 C537 1.279 . S
C534 C532 1.348 . S
C534 C536 1.353 . S
C534 H592 0.929 . S
C535 C532 1.356 . S
C535 C537 1.358 . S
C535 H593 0.930 . S
C536 N533 1.314 . S
C536 C534 1.353 . S
C536 H594 0.930 . S
C537 N533 1.279 . S
C537 C535 1.358 . S
C537 H595 0.930 . S
C538 C541 1.348 . S
C538 C542 1.356 . S
C538 O589 1.325 . S
C539 N540 1.279 . S
C539 C542 1.358 . S
C539 H596 0.930 . S
N540 C539 1.279 . S
N540 C543 1.314 . S
C541 C538 1.348 . S
C541 C543 1.353 . S
C541 H597 0.929 . S
C542 C538 1.356 . S
C542 C539 1.358 . S
C542 H598 0.930 . S
C543 N540 1.314 . S
C543 C541 1.353 . S
C543 H599 0.930 . S
C544 N545 1.314 . S
C544 C549 1.353 . S
C544 H550 0.930 . S
N545 Li528 1.990 . S
N545 C544 1.314 . S
N545 C547 1.279 . S
C546 C547 1.358 . S
C546 C548 1.356 . S
C546 H600 0.930 . S
C547 N545 1.279 . S
C547 C546 1.358 . S
C547 H551 0.930 . S
C548 C546 1.356 . S
C548 C549 1.348 . S
C549 C544 1.353 . S
C549 C548 1.348 . S
C549 H601 0.929 . S
H550 C544 0.930 . S
H551 C547 0.930 . S
C552 N553 1.314 . S
C552 C554 1.353 . S
C552 H558 0.930 . S
N553 Li529 1.990 . S
N553 C552 1.314 . S
N553 C556 1.279 . S
C554 C552 1.353 . S
C554 C557 1.348 . S
C554 H602 0.929 . S
C555 C556 1.358 . S
C555 C557 1.356 . S
C555 H603 0.930 . S
C556 N553 1.279 . S
C556 C555 1.358 . S
C556 H559 0.930 . S
C557 C554 1.348 . S
C557 C555 1.356 . S
H558 C552 0.930 . S
H559 C556 0.930 . S
C560 C562 1.348 . S
C560 C563 1.356 . S
C560 O590 1.325 . S
N561 C564 1.314 . S
N561 C565 1.279 . S
C562 C560 1.348 . S
C562 C564 1.353 . S
C562 H604 0.929 . S
C563 C560 1.356 . S
C563 C565 1.358 . S
C563 H605 0.930 . S
C564 N561 1.314 . S
C564 C562 1.353 . S
C564 H606 0.930 . S
C565 N561 1.279 . S
C565 C563 1.358 . S
C565 H607 0.930 . S
C566 C567 1.348 . S
C566 C568 1.356 . S
C566 O591 1.325 . S
C567 C566 1.348 . S
C567 C569 1.353 . S
C567 H608 0.929 . S
C568 C566 1.356 . S
C568 C570 1.358 . S
C568 H609 0.930 . S
C569 C567 1.353 . S
C569 N571 1.314 . S
C569 H610 0.930 . S
C570 C568 1.358 . S
C570 N571 1.279 . S
C570 H611 0.930 . S
N571 C569 1.314 . S
N571 C570 1.279 . S
C572 C574 1.353 . S
C572 N575 1.314 . S
C572 H578 0.930 . S
C573 N575 1.279 . S
C573 C576 1.358 . S
C573 H579 0.930 . S
C574 C572 1.353 . S
C574 C577 1.348 . S
C574 H612 0.929 . S
N575 Li530 1.990 . S
N575 C572 1.314 . S
N575 C573 1.279 . S
C576 C573 1.358 . S
C576 C577 1.356 . S
C576 H613 0.930 . S
C577 C574 1.348 . S
C577 C576 1.356 . S
H578 C572 0.930 . S
H579 C573 0.930 . S
C580 N581 1.314 . S
C580 C582 1.353 . S
C580 H586 0.930 . S
N581 Li531 1.990 . S
N581 C580 1.314 . S
N581 C584 1.279 . S
C582 C580 1.353 . S
C582 C585 1.348 . S
C582 H614 0.929 . S
C583 C584 1.358 . S
C583 C585 1.356 . S
C583 H615 0.930 . S
C584 N581 1.279 . S
C584 C583 1.358 . S
C584 H587 0.930 . S
C585 C582 1.348 . S
C585 C583 1.356 . S
H586 C580 0.930 . S
H587 C584 0.930 . S
O588 Li528 1.956 . S
O588 Li529 1.970 . S
O588 Li530 1.961 . S
O588 C532 1.325 . S
O589 Li528 1.970 . S
O589 Li529 1.956 . S
O589 Li531 1.961 . S
O589 C538 1.325 . S
O590 Li528 1.961 . S
O590 Li530 1.956 . S
O590 Li531 1.970 . S
O590 C560 1.325 . S
O591 Li529 1.961 . S
O591 Li530 1.970 . S
O591 Li531 1.956 . S
O591 C566 1.325 . S
H592 C534 0.929 . S
H593 C535 0.930 . S
H594 C536 0.930 . S
H595 C537 0.930 . S
H596 C539 0.930 . S
H597 C541 0.929 . S
H598 C542 0.930 . S
H599 C543 0.930 . S
H600 C546 0.930 . S
H601 C549 0.929 . S
H602 C554 0.929 . S
H603 C555 0.930 . S
H604 C562 0.929 . S
H605 C563 0.930 . S
H606 C564 0.930 . S
H607 C565 0.930 . S
H608 C567 0.929 . S
H609 C568 0.930 . S
H610 C569 0.930 . S
H611 C570 0.930 . S
H612 C574 0.929 . S
H613 C576 0.930 . S
H614 C582 0.929 . S
H615 C583 0.930 . S
Li616 N633 1.990 . S
Li616 O676 1.956 . S
Li616 O677 1.970 . S
Li616 O678 1.961 . S
Li617 N641 1.990 . S
Li617 O676 1.970 . S
Li617 O677 1.956 . S
Li617 O679 1.961 . S
Li618 N663 1.990 . S
Li618 O676 1.961 . S
Li618 O678 1.956 . S
Li618 O679 1.970 . S
Li619 N669 1.990 . S
Li619 O677 1.961 . S
Li619 O678 1.970 . S
Li619 O679 1.956 . S
C620 C622 1.348 . S
C620 C623 1.356 . S
C620 O676 1.325 . S
N621 C624 1.314 . S
N621 C625 1.279 . S
C622 C620 1.348 . S
C622 C624 1.353 . S
C622 H680 0.929 . S
C623 C620 1.356 . S
C623 C625 1.358 . S
C623 H681 0.930 . S
C624 N621 1.314 . S
C624 C622 1.353 . S
C624 H682 0.930 . S
C625 N621 1.279 . S
C625 C623 1.358 . S
C625 H683 0.930 . S
C626 C629 1.348 . S
C626 C630 1.356 . S
C626 O677 1.325 . S
C627 N628 1.279 . S
C627 C630 1.358 . S
C627 H684 0.930 . S
N628 C627 1.279 . S
N628 C631 1.314 . S
C629 C626 1.348 . S
C629 C631 1.353 . S
C629 H685 0.929 . S
C630 C626 1.356 . S
C630 C627 1.358 . S
C630 H686 0.930 . S
C631 N628 1.314 . S
C631 C629 1.353 . S
C631 H687 0.930 . S
C632 N633 1.314 . S
C632 C637 1.353 . S
C632 H638 0.930 . S
N633 Li616 1.990 . S
N633 C632 1.314 . S
N633 C635 1.279 . S
C634 C635 1.358 . S
C634 C636 1.356 . S
C634 H688 0.930 . S
C635 N633 1.279 . S
C635 C634 1.358 . S
C635 H639 0.930 . S
C636 C634 1.356 . S
C636 C637 1.348 . S
C637 C632 1.353 . S
C637 C636 1.348 . S
C637 H689 0.929 . S
H638 C632 0.930 . S
H639 C635 0.930 . S
C640 N641 1.314 . S
C640 C642 1.353 . S
C640 H646 0.930 . S
N641 Li617 1.990 . S
N641 C640 1.314 . S
N641 C644 1.279 . S
C642 C640 1.353 . S
C642 C645 1.348 . S
C642 H690 0.929 . S
C643 C644 1.358 . S
C643 C645 1.356 . S
C643 H691 0.930 . S
C644 N641 1.279 . S
C644 C643 1.358 . S
C644 H647 0.930 . S
C645 C642 1.348 . S
C645 C643 1.356 . S
H646 C640 0.930 . S
H647 C644 0.930 . S
C648 C650 1.348 . S
C648 C651 1.356 . S
C648 O678 1.325 . S
N649 C652 1.314 . S
N649 C653 1.279 . S
C650 C648 1.348 . S
C650 C652 1.353 . S
C650 H692 0.929 . S
C651 C648 1.356 . S
C651 C653 1.358 . S
C651 H693 0.930 . S
C652 N649 1.314 . S
C652 C650 1.353 . S
C652 H694 0.930 . S
C653 N649 1.279 . S
C653 C651 1.358 . S
C653 H695 0.930 . S
C654 C655 1.348 . S
C654 C656 1.356 . S
C654 O679 1.325 . S
C655 C654 1.348 . S
C655 C657 1.353 . S
C655 H696 0.929 . S
C656 C654 1.356 . S
C656 C658 1.358 . S
C656 H697 0.930 . S
C657 C655 1.353 . S
C657 N659 1.314 . S
C657 H698 0.930 . S
C658 C656 1.358 . S
C658 N659 1.279 . S
C658 H699 0.930 . S
N659 C657 1.314 . S
N659 C658 1.279 . S
C660 C662 1.353 . S
C660 N663 1.314 . S
C660 H666 0.930 . S
C661 N663 1.279 . S
C661 C664 1.358 . S
C661 H667 0.930 . S
C662 C660 1.353 . S
C662 C665 1.348 . S
C662 H700 0.929 . S
N663 Li618 1.990 . S
N663 C660 1.314 . S
N663 C661 1.279 . S
C664 C661 1.358 . S
C664 C665 1.356 . S
C664 H701 0.930 . S
C665 C662 1.348 . S
C665 C664 1.356 . S
H666 C660 0.930 . S
H667 C661 0.930 . S
C668 N669 1.314 . S
C668 C670 1.353 . S
C668 H674 0.930 . S
N669 Li619 1.990 . S
N669 C668 1.314 . S
N669 C672 1.279 . S
C670 C668 1.353 . S
C670 C673 1.348 . S
C670 H702 0.929 . S
C671 C672 1.358 . S
C671 C673 1.356 . S
C671 H703 0.930 . S
C672 N669 1.279 . S
C672 C671 1.358 . S
C672 H675 0.930 . S
C673 C670 1.348 . S
C673 C671 1.356 . S
H674 C668 0.930 . S
H675 C672 0.930 . S
O676 Li616 1.956 . S
O676 Li617 1.970 . S
O676 Li618 1.961 . S
O676 C620 1.325 . S
O677 Li616 1.970 . S
O677 Li617 1.956 . S
O677 Li619 1.961 . S
O677 C626 1.325 . S
O678 Li616 1.961 . S
O678 Li618 1.956 . S
O678 Li619 1.970 . S
O678 C648 1.325 . S
O679 Li617 1.961 . S
O679 Li618 1.970 . S
O679 Li619 1.956 . S
O679 C654 1.325 . S
H680 C622 0.929 . S
H681 C623 0.930 . S
H682 C624 0.930 . S
H683 C625 0.930 . S
H684 C627 0.930 . S
H685 C629 0.929 . S
H686 C630 0.930 . S
H687 C631 0.930 . S
H688 C634 0.930 . S
H689 C637 0.929 . S
H690 C642 0.929 . S
H691 C643 0.930 . S
H692 C650 0.929 . S
H693 C651 0.930 . S
H694 C652 0.930 . S
H695 C653 0.930 . S
H696 C655 0.929 . S
H697 C656 0.930 . S
H698 C657 0.930 . S
H699 C658 0.930 . S
H700 C662 0.929 . S
H701 C664 0.930 . S
H702 C670 0.929 . S
H703 C671 0.930 . S
Li704 N721 1.990 . S
Li704 O764 1.956 . S
Li704 O765 1.970 . S
Li704 O766 1.961 . S
Li705 N729 1.990 . S
Li705 O764 1.970 . S
Li705 O765 1.956 . S
Li705 O767 1.961 . S
Li706 N751 1.990 . S
Li706 O764 1.961 . S
Li706 O766 1.956 . S
Li706 O767 1.970 . S
Li707 N757 1.990 . S
Li707 O765 1.961 . S
Li707 O766 1.970 . S
Li707 O767 1.956 . S
C708 C710 1.348 . S
C708 C711 1.356 . S
C708 O764 1.325 . S
N709 C712 1.314 . S
N709 C713 1.279 . S
C710 C708 1.348 . S
C710 C712 1.353 . S
C710 H768 0.929 . S
C711 C708 1.356 . S
C711 C713 1.358 . S
C711 H769 0.930 . S
C712 N709 1.314 . S
C712 C710 1.353 . S
C712 H770 0.930 . S
C713 N709 1.279 . S
C713 C711 1.358 . S
C713 H771 0.930 . S
C714 C717 1.348 . S
C714 C718 1.356 . S
C714 O765 1.325 . S
C715 N716 1.279 . S
C715 C718 1.358 . S
C715 H772 0.930 . S
N716 C715 1.279 . S
N716 C719 1.314 . S
C717 C714 1.348 . S
C717 C719 1.353 . S
C717 H773 0.929 . S
C718 C714 1.356 . S
C718 C715 1.358 . S
C718 H774 0.930 . S
C719 N716 1.314 . S
C719 C717 1.353 . S
C719 H775 0.930 . S
C720 N721 1.314 . S
C720 C725 1.353 . S
C720 H726 0.930 . S
N721 Li704 1.990 . S
N721 C720 1.314 . S
N721 C723 1.279 . S
C722 C723 1.358 . S
C722 C724 1.356 . S
C722 H776 0.930 . S
C723 N721 1.279 . S
C723 C722 1.358 . S
C723 H727 0.930 . S
C724 C722 1.356 . S
C724 C725 1.348 . S
C725 C720 1.353 . S
C725 C724 1.348 . S
C725 H777 0.929 . S
H726 C720 0.930 . S
H727 C723 0.930 . S
C728 N729 1.314 . S
C728 C730 1.353 . S
C728 H734 0.930 . S
N729 Li705 1.990 . S
N729 C728 1.314 . S
N729 C732 1.279 . S
C730 C728 1.353 . S
C730 C733 1.348 . S
C730 H778 0.929 . S
C731 C732 1.358 . S
C731 C733 1.356 . S
C731 H779 0.930 . S
C732 N729 1.279 . S
C732 C731 1.358 . S
C732 H735 0.930 . S
C733 C730 1.348 . S
C733 C731 1.356 . S
H734 C728 0.930 . S
H735 C732 0.930 . S
C736 C738 1.348 . S
C736 C739 1.356 . S
C736 O766 1.325 . S
N737 C740 1.314 . S
N737 C741 1.279 . S
C738 C736 1.348 . S
C738 C740 1.353 . S
C738 H780 0.929 . S
C739 C736 1.356 . S
C739 C741 1.358 . S
C739 H781 0.930 . S
C740 N737 1.314 . S
C740 C738 1.353 . S
C740 H782 0.930 . S
C741 N737 1.279 . S
C741 C739 1.358 . S
C741 H783 0.930 . S
C742 C743 1.348 . S
C742 C744 1.356 . S
C742 O767 1.325 . S
C743 C742 1.348 . S
C743 C745 1.353 . S
C743 H784 0.929 . S
C744 C742 1.356 . S
C744 C746 1.358 . S
C744 H785 0.930 . S
C745 C743 1.353 . S
C745 N747 1.314 . S
C745 H786 0.930 . S
C746 C744 1.358 . S
C746 N747 1.279 . S
C746 H787 0.930 . S
N747 C745 1.314 . S
N747 C746 1.279 . S
C748 C750 1.353 . S
C748 N751 1.314 . S
C748 H754 0.930 . S
C749 N751 1.279 . S
C749 C752 1.358 . S
C749 H755 0.930 . S
C750 C748 1.353 . S
C750 C753 1.348 . S
C750 H788 0.929 . S
N751 Li706 1.990 . S
N751 C748 1.314 . S
N751 C749 1.279 . S
C752 C749 1.358 . S
C752 C753 1.356 . S
C752 H789 0.930 . S
C753 C750 1.348 . S
C753 C752 1.356 . S
H754 C748 0.930 . S
H755 C749 0.930 . S
C756 N757 1.314 . S
C756 C758 1.353 . S
C756 H762 0.930 . S
N757 Li707 1.990 . S
N757 C756 1.314 . S
N757 C760 1.279 . S
C758 C756 1.353 . S
C758 C761 1.348 . S
C758 H790 0.929 . S
C759 C760 1.358 . S
C759 C761 1.356 . S
C759 H791 0.930 . S
C760 N757 1.279 . S
C760 C759 1.358 . S
C760 H763 0.930 . S
C761 C758 1.348 . S
C761 C759 1.356 . S
H762 C756 0.930 . S
H763 C760 0.930 . S
O764 Li704 1.956 . S
O764 Li705 1.970 . S
O764 Li706 1.961 . S
O764 C708 1.325 . S
O765 Li704 1.970 . S
O765 Li705 1.956 . S
O765 Li707 1.961 . S
O765 C714 1.325 . S
O766 Li704 1.961 . S
O766 Li706 1.956 . S
O766 Li707 1.970 . S
O766 C736 1.325 . S
O767 Li705 1.961 . S
O767 Li706 1.970 . S
O767 Li707 1.956 . S
O767 C742 1.325 . S
H768 C710 0.929 . S
H769 C711 0.930 . S
H770 C712 0.930 . S
H771 C713 0.930 . S
H772 C715 0.930 . S
H773 C717 0.929 . S
H774 C718 0.930 . S
H775 C719 0.930 . S
H776 C722 0.930 . S
H777 C725 0.929 . S
H778 C730 0.929 . S
H779 C731 0.930 . S
H780 C738 0.929 . S
H781 C739 0.930 . S
H782 C740 0.930 . S
H783 C741 0.930 . S
H784 C743 0.929 . S
H785 C744 0.930 . S
H786 C745 0.930 . S
H787 C746 0.930 . S
H788 C750 0.929 . S
H789 C752 0.930 . S
H790 C758 0.929 . S
H791 C759 0.930 . S
Li792 N809 1.990 . S
Li792 O852 1.956 . S
Li792 O853 1.970 . S
Li792 O854 1.961 . S
Li793 N817 1.990 . S
Li793 O852 1.970 . S
Li793 O853 1.956 . S
Li793 O855 1.961 . S
Li794 N839 1.990 . S
Li794 O852 1.961 . S
Li794 O854 1.956 . S
Li794 O855 1.970 . S
Li795 N845 1.990 . S
Li795 O853 1.961 . S
Li795 O854 1.970 . S
Li795 O855 1.956 . S
C796 C798 1.348 . S
C796 C799 1.356 . S
C796 O852 1.325 . S
N797 C800 1.314 . S
N797 C801 1.279 . S
C798 C796 1.348 . S
C798 C800 1.353 . S
C798 H856 0.929 . S
C799 C796 1.356 . S
C799 C801 1.358 . S
C799 H857 0.930 . S
C800 N797 1.314 . S
C800 C798 1.353 . S
C800 H858 0.930 . S
C801 N797 1.279 . S
C801 C799 1.358 . S
C801 H859 0.930 . S
C802 C805 1.348 . S
C802 C806 1.356 . S
C802 O853 1.325 . S
C803 N804 1.279 . S
C803 C806 1.358 . S
C803 H860 0.930 . S
N804 C803 1.279 . S
N804 C807 1.314 . S
C805 C802 1.348 . S
C805 C807 1.353 . S
C805 H861 0.929 . S
C806 C802 1.356 . S
C806 C803 1.358 . S
C806 H862 0.930 . S
C807 N804 1.314 . S
C807 C805 1.353 . S
C807 H863 0.930 . S
C808 N809 1.314 . S
C808 C813 1.353 . S
C808 H814 0.930 . S
N809 Li792 1.990 . S
N809 C808 1.314 . S
N809 C811 1.279 . S
C810 C811 1.358 . S
C810 C812 1.356 . S
C810 H864 0.930 . S
C811 N809 1.279 . S
C811 C810 1.358 . S
C811 H815 0.930 . S
C812 C810 1.356 . S
C812 C813 1.348 . S
C813 C808 1.353 . S
C813 C812 1.348 . S
C813 H865 0.929 . S
H814 C808 0.930 . S
H815 C811 0.930 . S
C816 N817 1.314 . S
C816 C818 1.353 . S
C816 H822 0.930 . S
N817 Li793 1.990 . S
N817 C816 1.314 . S
N817 C820 1.279 . S
C818 C816 1.353 . S
C818 C821 1.348 . S
C818 H866 0.929 . S
C819 C820 1.358 . S
C819 C821 1.356 . S
C819 H867 0.930 . S
C820 N817 1.279 . S
C820 C819 1.358 . S
C820 H823 0.930 . S
C821 C818 1.348 . S
C821 C819 1.356 . S
H822 C816 0.930 . S
H823 C820 0.930 . S
C824 C826 1.348 . S
C824 C827 1.356 . S
C824 O854 1.325 . S
N825 C828 1.314 . S
N825 C829 1.279 . S
C826 C824 1.348 . S
C826 C828 1.353 . S
C826 H868 0.929 . S
C827 C824 1.356 . S
C827 C829 1.358 . S
C827 H869 0.930 . S
C828 N825 1.314 . S
C828 C826 1.353 . S
C828 H870 0.930 . S
C829 N825 1.279 . S
C829 C827 1.358 . S
C829 H871 0.930 . S
C830 C831 1.348 . S
C830 C832 1.356 . S
C830 O855 1.325 . S
C831 C830 1.348 . S
C831 C833 1.353 . S
C831 H872 0.929 . S
C832 C830 1.356 . S
C832 C834 1.358 . S
C832 H873 0.930 . S
C833 C831 1.353 . S
C833 N835 1.314 . S
C833 H874 0.930 . S
C834 C832 1.358 . S
C834 N835 1.279 . S
C834 H875 0.930 . S
N835 C833 1.314 . S
N835 C834 1.279 . S
C836 C838 1.353 . S
C836 N839 1.314 . S
C836 H842 0.930 . S
C837 N839 1.279 . S
C837 C840 1.358 . S
C837 H843 0.930 . S
C838 C836 1.353 . S
C838 C841 1.348 . S
C838 H876 0.929 . S
N839 Li794 1.990 . S
N839 C836 1.314 . S
N839 C837 1.279 . S
C840 C837 1.358 . S
C840 C841 1.356 . S
C840 H877 0.930 . S
C841 C838 1.348 . S
C841 C840 1.356 . S
H842 C836 0.930 . S
H843 C837 0.930 . S
C844 N845 1.314 . S
C844 C846 1.353 . S
C844 H850 0.930 . S
N845 Li795 1.990 . S
N845 C844 1.314 . S
N845 C848 1.279 . S
C846 C844 1.353 . S
C846 C849 1.348 . S
C846 H878 0.929 . S
C847 C848 1.358 . S
C847 C849 1.356 . S
C847 H879 0.930 . S
C848 N845 1.279 . S
C848 C847 1.358 . S
C848 H851 0.930 . S
C849 C846 1.348 . S
C849 C847 1.356 . S
H850 C844 0.930 . S
H851 C848 0.930 . S
O852 Li792 1.956 . S
O852 Li793 1.970 . S
O852 Li794 1.961 . S
O852 C796 1.325 . S
O853 Li792 1.970 . S
O853 Li793 1.956 . S
O853 Li795 1.961 . S
O853 C802 1.325 . S
O854 Li792 1.961 . S
O854 Li794 1.956 . S
O854 Li795 1.970 . S
O854 C824 1.325 . S
O855 Li793 1.961 . S
O855 Li794 1.970 . S
O855 Li795 1.956 . S
O855 C830 1.325 . S
H856 C798 0.929 . S
H857 C799 0.930 . S
H858 C800 0.930 . S
H859 C801 0.930 . S
H860 C803 0.930 . S
H861 C805 0.929 . S
H862 C806 0.930 . S
H863 C807 0.930 . S
H864 C810 0.930 . S
H865 C813 0.929 . S
H866 C818 0.929 . S
H867 C819 0.930 . S
H868 C826 0.929 . S
H869 C827 0.930 . S
H870 C828 0.930 . S
H871 C829 0.930 . S
H872 C831 0.929 . S
H873 C832 0.930 . S
H874 C833 0.930 . S
H875 C834 0.930 . S
H876 C838 0.929 . S
H877 C840 0.930 . S
H878 C846 0.929 . S
H879 C847 0.930 . S
Li880 N897 1.990 . S
Li880 O940 1.956 . S
Li880 O941 1.970 . S
Li880 O942 1.961 . S
Li881 N905 1.990 . S
Li881 O940 1.970 . S
Li881 O941 1.956 . S
Li881 O943 1.961 . S
Li882 N927 1.990 . S
Li882 O940 1.961 . S
Li882 O942 1.956 . S
Li882 O943 1.970 . S
Li883 N933 1.990 . S
Li883 O941 1.961 . S
Li883 O942 1.970 . S
Li883 O943 1.956 . S
C884 C886 1.348 . S
C884 C887 1.356 . S
C884 O940 1.325 . S
N885 C888 1.314 . S
N885 C889 1.279 . S
C886 C884 1.348 . S
C886 C888 1.353 . S
C886 H944 0.929 . S
C887 C884 1.356 . S
C887 C889 1.358 . S
C887 H945 0.930 . S
C888 N885 1.314 . S
C888 C886 1.353 . S
C888 H946 0.930 . S
C889 N885 1.279 . S
C889 C887 1.358 . S
C889 H947 0.930 . S
C890 C893 1.348 . S
C890 C894 1.356 . S
C890 O941 1.325 . S
C891 N892 1.279 . S
C891 C894 1.358 . S
C891 H948 0.930 . S
N892 C891 1.279 . S
N892 C895 1.314 . S
C893 C890 1.348 . S
C893 C895 1.353 . S
C893 H949 0.929 . S
C894 C890 1.356 . S
C894 C891 1.358 . S
C894 H950 0.930 . S
C895 N892 1.314 . S
C895 C893 1.353 . S
C895 H951 0.930 . S
C896 N897 1.314 . S
C896 C901 1.353 . S
C896 H902 0.930 . S
N897 Li880 1.990 . S
N897 C896 1.314 . S
N897 C899 1.279 . S
C898 C899 1.358 . S
C898 C900 1.356 . S
C898 H952 0.930 . S
C899 N897 1.279 . S
C899 C898 1.358 . S
C899 H903 0.930 . S
C900 C898 1.356 . S
C900 C901 1.348 . S
C901 C896 1.353 . S
C901 C900 1.348 . S
C901 H953 0.929 . S
H902 C896 0.930 . S
H903 C899 0.930 . S
C904 N905 1.314 . S
C904 C906 1.353 . S
C904 H910 0.930 . S
N905 Li881 1.990 . S
N905 C904 1.314 . S
N905 C908 1.279 . S
C906 C904 1.353 . S
C906 C909 1.348 . S
C906 H954 0.929 . S
C907 C908 1.358 . S
C907 C909 1.356 . S
C907 H955 0.930 . S
C908 N905 1.279 . S
C908 C907 1.358 . S
C908 H911 0.930 . S
C909 C906 1.348 . S
C909 C907 1.356 . S
H910 C904 0.930 . S
H911 C908 0.930 . S
C912 C914 1.348 . S
C912 C915 1.356 . S
C912 O942 1.325 . S
N913 C916 1.314 . S
N913 C917 1.279 . S
C914 C912 1.348 . S
C914 C916 1.353 . S
C914 H956 0.929 . S
C915 C912 1.356 . S
C915 C917 1.358 . S
C915 H957 0.930 . S
C916 N913 1.314 . S
C916 C914 1.353 . S
C916 H958 0.930 . S
C917 N913 1.279 . S
C917 C915 1.358 . S
C917 H959 0.930 . S
C918 C919 1.348 . S
C918 C920 1.356 . S
C918 O943 1.325 . S
C919 C918 1.348 . S
C919 C921 1.353 . S
C919 H960 0.929 . S
C920 C918 1.356 . S
C920 C922 1.358 . S
C920 H961 0.930 . S
C921 C919 1.353 . S
C921 N923 1.314 . S
C921 H962 0.930 . S
C922 C920 1.358 . S
C922 N923 1.279 . S
C922 H963 0.930 . S
N923 C921 1.314 . S
N923 C922 1.279 . S
C924 C926 1.353 . S
C924 N927 1.314 . S
C924 H930 0.930 . S
C925 N927 1.279 . S
C925 C928 1.358 . S
C925 H931 0.930 . S
C926 C924 1.353 . S
C926 C929 1.348 . S
C926 H964 0.929 . S
N927 Li882 1.990 . S
N927 C924 1.314 . S
N927 C925 1.279 . S
C928 C925 1.358 . S
C928 C929 1.356 . S
C928 H965 0.930 . S
C929 C926 1.348 . S
C929 C928 1.356 . S
H930 C924 0.930 . S
H931 C925 0.930 . S
C932 N933 1.314 . S
C932 C934 1.353 . S
C932 H938 0.930 . S
N933 Li883 1.990 . S
N933 C932 1.314 . S
N933 C936 1.279 . S
C934 C932 1.353 . S
C934 C937 1.348 . S
C934 H966 0.929 . S
C935 C936 1.358 . S
C935 C937 1.356 . S
C935 H967 0.930 . S
C936 N933 1.279 . S
C936 C935 1.358 . S
C936 H939 0.930 . S
C937 C934 1.348 . S
C937 C935 1.356 . S
H938 C932 0.930 . S
H939 C936 0.930 . S
O940 Li880 1.956 . S
O940 Li881 1.970 . S
O940 Li882 1.961 . S
O940 C884 1.325 . S
O941 Li880 1.970 . S
O941 Li881 1.956 . S
O941 Li883 1.961 . S
O941 C890 1.325 . S
O942 Li880 1.961 . S
O942 Li882 1.956 . S
O942 Li883 1.970 . S
O942 C912 1.325 . S
O943 Li881 1.961 . S
O943 Li882 1.970 . S
O943 Li883 1.956 . S
O943 C918 1.325 . S
H944 C886 0.929 . S
H945 C887 0.930 . S
H946 C888 0.930 . S
H947 C889 0.930 . S
H948 C891 0.930 . S
H949 C893 0.929 . S
H950 C894 0.930 . S
H951 C895 0.930 . S
H952 C898 0.930 . S
H953 C901 0.929 . S
H954 C906 0.929 . S
H955 C907 0.930 . S
H956 C914 0.929 . S
H957 C915 0.930 . S
H958 C916 0.930 . S
H959 C917 0.930 . S
H960 C919 0.929 . S
H961 C920 0.930 . S
H962 C921 0.930 . S
H963 C922 0.930 . S
H964 C926 0.929 . S
H965 C928 0.930 . S
H966 C934 0.929 . S
H967 C935 0.930 . S
Li968 N985 1.990 . S
Li968 O1028 1.956 . S
Li968 O1029 1.970 . S
Li968 O1030 1.961 . S
Li969 N993 1.990 . S
Li969 O1028 1.970 . S
Li969 O1029 1.956 . S
Li969 O1031 1.961 . S
Li970 N1015 1.990 . S
Li970 O1028 1.961 . S
Li970 O1030 1.956 . S
Li970 O1031 1.970 . S
Li971 N1021 1.990 . S
Li971 O1029 1.961 . S
Li971 O1030 1.970 . S
Li971 O1031 1.956 . S
C972 C974 1.348 . S
C972 C975 1.356 . S
C972 O1028 1.325 . S
N973 C976 1.314 . S
N973 C977 1.279 . S
C974 C972 1.348 . S
C974 C976 1.353 . S
C974 H1032 0.929 . S
C975 C972 1.356 . S
C975 C977 1.358 . S
C975 H1033 0.930 . S
C976 N973 1.314 . S
C976 C974 1.353 . S
C976 H1034 0.930 . S
C977 N973 1.279 . S
C977 C975 1.358 . S
C977 H1035 0.930 . S
C978 C981 1.348 . S
C978 C982 1.356 . S
C978 O1029 1.325 . S
C979 N980 1.279 . S
C979 C982 1.358 . S
C979 H1036 0.930 . S
N980 C979 1.279 . S
N980 C983 1.314 . S
C981 C978 1.348 . S
C981 C983 1.353 . S
C981 H1037 0.929 . S
C982 C978 1.356 . S
C982 C979 1.358 . S
C982 H1038 0.930 . S
C983 N980 1.314 . S
C983 C981 1.353 . S
C983 H1039 0.930 . S
C984 N985 1.314 . S
C984 C989 1.353 . S
C984 H990 0.930 . S
N985 Li968 1.990 . S
N985 C984 1.314 . S
N985 C987 1.279 . S
C986 C987 1.358 . S
C986 C988 1.356 . S
C986 H1040 0.930 . S
C987 N985 1.279 . S
C987 C986 1.358 . S
C987 H991 0.930 . S
C988 C986 1.356 . S
C988 C989 1.348 . S
C989 C984 1.353 . S
C989 C988 1.348 . S
C989 H1041 0.929 . S
H990 C984 0.930 . S
H991 C987 0.930 . S
C992 N993 1.314 . S
C992 C994 1.353 . S
C992 H998 0.930 . S
N993 Li969 1.990 . S
N993 C992 1.314 . S
N993 C996 1.279 . S
C994 C992 1.353 . S
C994 C997 1.348 . S
C994 H1042 0.929 . S
C995 C996 1.358 . S
C995 C997 1.356 . S
C995 H1043 0.930 . S
C996 N993 1.279 . S
C996 C995 1.358 . S
C996 H999 0.930 . S
C997 C994 1.348 . S
C997 C995 1.356 . S
H998 C992 0.930 . S
H999 C996 0.930 . S
C1000 C1002 1.348 . S
C1000 C1003 1.356 . S
C1000 O1030 1.325 . S
N1001 C1004 1.314 . S
N1001 C1005 1.279 . S
C1002 C1000 1.348 . S
C1002 C1004 1.353 . S
C1002 H1044 0.929 . S
C1003 C1000 1.356 . S
C1003 C1005 1.358 . S
C1003 H1045 0.930 . S
C1004 N1001 1.314 . S
C1004 C1002 1.353 . S
C1004 H1046 0.930 . S
C1005 N1001 1.279 . S
C1005 C1003 1.358 . S
C1005 H1047 0.930 . S
C1006 C1007 1.348 . S
C1006 C1008 1.356 . S
C1006 O1031 1.325 . S
C1007 C1006 1.348 . S
C1007 C1009 1.353 . S
C1007 H1048 0.929 . S
C1008 C1006 1.356 . S
C1008 C1010 1.358 . S
C1008 H1049 0.930 . S
C1009 C1007 1.353 . S
C1009 N1011 1.314 . S
C1009 H1050 0.930 . S
C1010 C1008 1.358 . S
C1010 N1011 1.279 . S
C1010 H1051 0.930 . S
N1011 C1009 1.314 . S
N1011 C1010 1.279 . S
C1012 C1014 1.353 . S
C1012 N1015 1.314 . S
C1012 H1018 0.930 . S
C1013 N1015 1.279 . S
C1013 C1016 1.358 . S
C1013 H1019 0.930 . S
C1014 C1012 1.353 . S
C1014 C1017 1.348 . S
C1014 H1052 0.929 . S
N1015 Li970 1.990 . S
N1015 C1012 1.314 . S
N1015 C1013 1.279 . S
C1016 C1013 1.358 . S
C1016 C1017 1.356 . S
C1016 H1053 0.930 . S
C1017 C1014 1.348 . S
C1017 C1016 1.356 . S
H1018 C1012 0.930 . S
H1019 C1013 0.930 . S
C1020 N1021 1.314 . S
C1020 C1022 1.353 . S
C1020 H1026 0.930 . S
N1021 Li971 1.990 . S
N1021 C1020 1.314 . S
N1021 C1024 1.279 . S
C1022 C1020 1.353 . S
C1022 C1025 1.348 . S
C1022 H1054 0.929 . S
C1023 C1024 1.358 . S
C1023 C1025 1.356 . S
C1023 H1055 0.930 . S
C1024 N1021 1.279 . S
C1024 C1023 1.358 . S
C1024 H1027 0.930 . S
C1025 C1022 1.348 . S
C1025 C1023 1.356 . S
H1026 C1020 0.930 . S
H1027 C1024 0.930 . S
O1028 Li968 1.956 . S
O1028 Li969 1.970 . S
O1028 Li970 1.961 . S
O1028 C972 1.325 . S
O1029 Li968 1.970 . S
O1029 Li969 1.956 . S
O1029 Li971 1.961 . S
O1029 C978 1.325 . S
O1030 Li968 1.961 . S
O1030 Li970 1.956 . S
O1030 Li971 1.970 . S
O1030 C1000 1.325 . S
O1031 Li969 1.961 . S
O1031 Li970 1.970 . S
O1031 Li971 1.956 . S
O1031 C1006 1.325 . S
H1032 C974 0.929 . S
H1033 C975 0.930 . S
H1034 C976 0.930 . S
H1035 C977 0.930 . S
H1036 C979 0.930 . S
H1037 C981 0.929 . S
H1038 C982 0.930 . S
H1039 C983 0.930 . S
H1040 C986 0.930 . S
H1041 C989 0.929 . S
H1042 C994 0.929 . S
H1043 C995 0.930 . S
H1044 C1002 0.929 . S
H1045 C1003 0.930 . S
H1046 C1004 0.930 . S
H1047 C1005 0.930 . S
H1048 C1007 0.929 . S
H1049 C1008 0.930 . S
H1050 C1009 0.930 . S
H1051 C1010 0.930 . S
H1052 C1014 0.929 . S
H1053 C1016 0.930 . S
H1054 C1022 0.929 . S
H1055 C1023 0.930 . S
Li1056 N1073 1.990 . S
Li1056 O1116 1.956 . S
Li1056 O1117 1.970 . S
Li1056 O1118 1.961 . S
Li1057 N1081 1.990 . S
Li1057 O1116 1.970 . S
Li1057 O1117 1.956 . S
Li1057 O1119 1.961 . S
Li1058 N1103 1.990 . S
Li1058 O1116 1.961 . S
Li1058 O1118 1.956 . S
Li1058 O1119 1.970 . S
Li1059 N1109 1.990 . S
Li1059 O1117 1.961 . S
Li1059 O1118 1.970 . S
Li1059 O1119 1.956 . S
C1060 C1062 1.348 . S
C1060 C1063 1.356 . S
C1060 O1116 1.325 . S
N1061 C1064 1.314 . S
N1061 C1065 1.279 . S
C1062 C1060 1.348 . S
C1062 C1064 1.353 . S
C1062 H1120 0.929 . S
C1063 C1060 1.356 . S
C1063 C1065 1.358 . S
C1063 H1121 0.930 . S
C1064 N1061 1.314 . S
C1064 C1062 1.353 . S
C1064 H1122 0.930 . S
C1065 N1061 1.279 . S
C1065 C1063 1.358 . S
C1065 H1123 0.930 . S
C1066 C1069 1.348 . S
C1066 C1070 1.356 . S
C1066 O1117 1.325 . S
C1067 N1068 1.279 . S
C1067 C1070 1.358 . S
C1067 H1124 0.930 . S
N1068 C1067 1.279 . S
N1068 C1071 1.314 . S
C1069 C1066 1.348 . S
C1069 C1071 1.353 . S
C1069 H1125 0.929 . S
C1070 C1066 1.356 . S
C1070 C1067 1.358 . S
C1070 H1126 0.930 . S
C1071 N1068 1.314 . S
C1071 C1069 1.353 . S
C1071 H1127 0.930 . S
C1072 N1073 1.314 . S
C1072 C1077 1.353 . S
C1072 H1078 0.930 . S
N1073 Li1056 1.990 . S
N1073 C1072 1.314 . S
N1073 C1075 1.279 . S
C1074 C1075 1.358 . S
C1074 C1076 1.356 . S
C1074 H1128 0.930 . S
C1075 N1073 1.279 . S
C1075 C1074 1.358 . S
C1075 H1079 0.930 . S
C1076 C1074 1.356 . S
C1076 C1077 1.348 . S
C1077 C1072 1.353 . S
C1077 C1076 1.348 . S
C1077 H1129 0.929 . S
H1078 C1072 0.930 . S
H1079 C1075 0.930 . S
C1080 N1081 1.314 . S
C1080 C1082 1.353 . S
C1080 H1086 0.930 . S
N1081 Li1057 1.990 . S
N1081 C1080 1.314 . S
N1081 C1084 1.279 . S
C1082 C1080 1.353 . S
C1082 C1085 1.348 . S
C1082 H1130 0.929 . S
C1083 C1084 1.358 . S
C1083 C1085 1.356 . S
C1083 H1131 0.930 . S
C1084 N1081 1.279 . S
C1084 C1083 1.358 . S
C1084 H1087 0.930 . S
C1085 C1082 1.348 . S
C1085 C1083 1.356 . S
H1086 C1080 0.930 . S
H1087 C1084 0.930 . S
C1088 C1090 1.348 . S
C1088 C1091 1.356 . S
C1088 O1118 1.325 . S
N1089 C1092 1.314 . S
N1089 C1093 1.279 . S
C1090 C1088 1.348 . S
C1090 C1092 1.353 . S
C1090 H1132 0.929 . S
C1091 C1088 1.356 . S
C1091 C1093 1.358 . S
C1091 H1133 0.930 . S
C1092 N1089 1.314 . S
C1092 C1090 1.353 . S
C1092 H1134 0.930 . S
C1093 N1089 1.279 . S
C1093 C1091 1.358 . S
C1093 H1135 0.930 . S
C1094 C1095 1.348 . S
C1094 C1096 1.356 . S
C1094 O1119 1.325 . S
C1095 C1094 1.348 . S
C1095 C1097 1.353 . S
C1095 H1136 0.929 . S
C1096 C1094 1.356 . S
C1096 C1098 1.358 . S
C1096 H1137 0.930 . S
C1097 C1095 1.353 . S
C1097 N1099 1.314 . S
C1097 H1138 0.930 . S
C1098 C1096 1.358 . S
C1098 N1099 1.279 . S
C1098 H1139 0.930 . S
N1099 C1097 1.314 . S
N1099 C1098 1.279 . S
C1100 C1102 1.353 . S
C1100 N1103 1.314 . S
C1100 H1106 0.930 . S
C1101 N1103 1.279 . S
C1101 C1104 1.358 . S
C1101 H1107 0.930 . S
C1102 C1100 1.353 . S
C1102 C1105 1.348 . S
C1102 H1140 0.929 . S
N1103 Li1058 1.990 . S
N1103 C1100 1.314 . S
N1103 C1101 1.279 . S
C1104 C1101 1.358 . S
C1104 C1105 1.356 . S
C1104 H1141 0.930 . S
C1105 C1102 1.348 . S
C1105 C1104 1.356 . S
H1106 C1100 0.930 . S
H1107 C1101 0.930 . S
C1108 N1109 1.314 . S
C1108 C1110 1.353 . S
C1108 H1114 0.930 . S
N1109 Li1059 1.990 . S
N1109 C1108 1.314 . S
N1109 C1112 1.279 . S
C1110 C1108 1.353 . S
C1110 C1113 1.348 . S
C1110 H1142 0.929 . S
C1111 C1112 1.358 . S
C1111 C1113 1.356 . S
C1111 H1143 0.930 . S
C1112 N1109 1.279 . S
C1112 C1111 1.358 . S
C1112 H1115 0.930 . S
C1113 C1110 1.348 . S
C1113 C1111 1.356 . S
H1114 C1108 0.930 . S
H1115 C1112 0.930 . S
O1116 Li1056 1.956 . S
O1116 Li1057 1.970 . S
O1116 Li1058 1.961 . S
O1116 C1060 1.325 . S
O1117 Li1056 1.970 . S
O1117 Li1057 1.956 . S
O1117 Li1059 1.961 . S
O1117 C1066 1.325 . S
O1118 Li1056 1.961 . S
O1118 Li1058 1.956 . S
O1118 Li1059 1.970 . S
O1118 C1088 1.325 . S
O1119 Li1057 1.961 . S
O1119 Li1058 1.970 . S
O1119 Li1059 1.956 . S
O1119 C1094 1.325 . S
H1120 C1062 0.929 . S
H1121 C1063 0.930 . S
H1122 C1064 0.930 . S
H1123 C1065 0.930 . S
H1124 C1067 0.930 . S
H1125 C1069 0.929 . S
H1126 C1070 0.930 . S
H1127 C1071 0.930 . S
H1128 C1074 0.930 . S
H1129 C1077 0.929 . S
H1130 C1082 0.929 . S
H1131 C1083 0.930 . S
H1132 C1090 0.929 . S
H1133 C1091 0.930 . S
H1134 C1092 0.930 . S
H1135 C1093 0.930 . S
H1136 C1095 0.929 . S
H1137 C1096 0.930 . S
H1138 C1097 0.930 . S
H1139 C1098 0.930 . S
H1140 C1102 0.929 . S
H1141 C1104 0.930 . S
H1142 C1110 0.929 . S
H1143 C1111 0.930 . S
Li1144 N1161 1.990 . S
Li1144 O1204 1.956 . S
Li1144 O1205 1.970 . S
Li1144 O1206 1.961 . S
Li1145 N1169 1.990 . S
Li1145 O1204 1.970 . S
Li1145 O1205 1.956 . S
Li1145 O1207 1.961 . S
Li1146 N1191 1.990 . S
Li1146 O1204 1.961 . S
Li1146 O1206 1.956 . S
Li1146 O1207 1.970 . S
Li1147 N1197 1.990 . S
Li1147 O1205 1.961 . S
Li1147 O1206 1.970 . S
Li1147 O1207 1.956 . S
C1148 C1150 1.348 . S
C1148 C1151 1.356 . S
C1148 O1204 1.325 . S
N1149 C1152 1.314 . S
N1149 C1153 1.279 . S
C1150 C1148 1.348 . S
C1150 C1152 1.353 . S
C1150 H1208 0.929 . S
C1151 C1148 1.356 . S
C1151 C1153 1.358 . S
C1151 H1209 0.930 . S
C1152 N1149 1.314 . S
C1152 C1150 1.353 . S
C1152 H1210 0.930 . S
C1153 N1149 1.279 . S
C1153 C1151 1.358 . S
C1153 H1211 0.930 . S
C1154 C1157 1.348 . S
C1154 C1158 1.356 . S
C1154 O1205 1.325 . S
C1155 N1156 1.279 . S
C1155 C1158 1.358 . S
C1155 H1212 0.930 . S
N1156 C1155 1.279 . S
N1156 C1159 1.314 . S
C1157 C1154 1.348 . S
C1157 C1159 1.353 . S
C1157 H1213 0.929 . S
C1158 C1154 1.356 . S
C1158 C1155 1.358 . S
C1158 H1214 0.930 . S
C1159 N1156 1.314 . S
C1159 C1157 1.353 . S
C1159 H1215 0.930 . S
C1160 N1161 1.314 . S
C1160 C1165 1.353 . S
C1160 H1166 0.930 . S
N1161 Li1144 1.990 . S
N1161 C1160 1.314 . S
N1161 C1163 1.279 . S
C1162 C1163 1.358 . S
C1162 C1164 1.356 . S
C1162 H1216 0.930 . S
C1163 N1161 1.279 . S
C1163 C1162 1.358 . S
C1163 H1167 0.930 . S
C1164 C1162 1.356 . S
C1164 C1165 1.348 . S
C1165 C1160 1.353 . S
C1165 C1164 1.348 . S
C1165 H1217 0.929 . S
H1166 C1160 0.930 . S
H1167 C1163 0.930 . S
C1168 N1169 1.314 . S
C1168 C1170 1.353 . S
C1168 H1174 0.930 . S
N1169 Li1145 1.990 . S
N1169 C1168 1.314 . S
N1169 C1172 1.279 . S
C1170 C1168 1.353 . S
C1170 C1173 1.348 . S
C1170 H1218 0.929 . S
C1171 C1172 1.358 . S
C1171 C1173 1.356 . S
C1171 H1219 0.930 . S
C1172 N1169 1.279 . S
C1172 C1171 1.358 . S
C1172 H1175 0.930 . S
C1173 C1170 1.348 . S
C1173 C1171 1.356 . S
H1174 C1168 0.930 . S
H1175 C1172 0.930 . S
C1176 C1178 1.348 . S
C1176 C1179 1.356 . S
C1176 O1206 1.325 . S
N1177 C1180 1.314 . S
N1177 C1181 1.279 . S
C1178 C1176 1.348 . S
C1178 C1180 1.353 . S
C1178 H1220 0.929 . S
C1179 C1176 1.356 . S
C1179 C1181 1.358 . S
C1179 H1221 0.930 . S
C1180 N1177 1.314 . S
C1180 C1178 1.353 . S
C1180 H1222 0.930 . S
C1181 N1177 1.279 . S
C1181 C1179 1.358 . S
C1181 H1223 0.930 . S
C1182 C1183 1.348 . S
C1182 C1184 1.356 . S
C1182 O1207 1.325 . S
C1183 C1182 1.348 . S
C1183 C1185 1.353 . S
C1183 H1224 0.929 . S
C1184 C1182 1.356 . S
C1184 C1186 1.358 . S
C1184 H1225 0.930 . S
C1185 C1183 1.353 . S
C1185 N1187 1.314 . S
C1185 H1226 0.930 . S
C1186 C1184 1.358 . S
C1186 N1187 1.279 . S
C1186 H1227 0.930 . S
N1187 C1185 1.314 . S
N1187 C1186 1.279 . S
C1188 C1190 1.353 . S
C1188 N1191 1.314 . S
C1188 H1194 0.930 . S
C1189 N1191 1.279 . S
C1189 C1192 1.358 . S
C1189 H1195 0.930 . S
C1190 C1188 1.353 . S
C1190 C1193 1.348 . S
C1190 H1228 0.929 . S
N1191 Li1146 1.990 . S
N1191 C1188 1.314 . S
N1191 C1189 1.279 . S
C1192 C1189 1.358 . S
C1192 C1193 1.356 . S
C1192 H1229 0.930 . S
C1193 C1190 1.348 . S
C1193 C1192 1.356 . S
H1194 C1188 0.930 . S
H1195 C1189 0.930 . S
C1196 N1197 1.314 . S
C1196 C1198 1.353 . S
C1196 H1202 0.930 . S
N1197 Li1147 1.990 . S
N1197 C1196 1.314 . S
N1197 C1200 1.279 . S
C1198 C1196 1.353 . S
C1198 C1201 1.348 . S
C1198 H1230 0.929 . S
C1199 C1200 1.358 . S
C1199 C1201 1.356 . S
C1199 H1231 0.930 . S
C1200 N1197 1.279 . S
C1200 C1199 1.358 . S
C1200 H1203 0.930 . S
C1201 C1198 1.348 . S
C1201 C1199 1.356 . S
H1202 C1196 0.930 . S
H1203 C1200 0.930 . S
O1204 Li1144 1.956 . S
O1204 Li1145 1.970 . S
O1204 Li1146 1.961 . S
O1204 C1148 1.325 . S
O1205 Li1144 1.970 . S
O1205 Li1145 1.956 . S
O1205 Li1147 1.961 . S
O1205 C1154 1.325 . S
O1206 Li1144 1.961 . S
O1206 Li1146 1.956 . S
O1206 Li1147 1.970 . S
O1206 C1176 1.325 . S
O1207 Li1145 1.961 . S
O1207 Li1146 1.970 . S
O1207 Li1147 1.956 . S
O1207 C1182 1.325 . S
H1208 C1150 0.929 . S
H1209 C1151 0.930 . S
H1210 C1152 0.930 . S
H1211 C1153 0.930 . S
H1212 C1155 0.930 . S
H1213 C1157 0.929 . S
H1214 C1158 0.930 . S
H1215 C1159 0.930 . S
H1216 C1162 0.930 . S
H1217 C1165 0.929 . S
H1218 C1170 0.929 . S
H1219 C1171 0.930 . S
H1220 C1178 0.929 . S
H1221 C1179 0.930 . S
H1222 C1180 0.930 . S
H1223 C1181 0.930 . S
H1224 C1183 0.929 . S
H1225 C1184 0.930 . S
H1226 C1185 0.930 . S
H1227 C1186 0.930 . S
H1228 C1190 0.929 . S
H1229 C1192 0.930 . S
H1230 C1198 0.929 . S
H1231 C1199 0.930 . S
Li1232 N1249 1.990 . S
Li1232 O1292 1.956 . S
Li1232 O1293 1.970 . S
Li1232 O1294 1.961 . S
Li1233 N1257 1.990 . S
Li1233 O1292 1.970 . S
Li1233 O1293 1.956 . S
Li1233 O1295 1.961 . S
Li1234 N1279 1.990 . S
Li1234 O1292 1.961 . S
Li1234 O1294 1.956 . S
Li1234 O1295 1.970 . S
Li1235 N1285 1.990 . S
Li1235 O1293 1.961 . S
Li1235 O1294 1.970 . S
Li1235 O1295 1.956 . S
C1236 C1238 1.348 . S
C1236 C1239 1.356 . S
C1236 O1292 1.325 . S
N1237 C1240 1.314 . S
N1237 C1241 1.279 . S
C1238 C1236 1.348 . S
C1238 C1240 1.353 . S
C1238 H1296 0.929 . S
C1239 C1236 1.356 . S
C1239 C1241 1.358 . S
C1239 H1297 0.930 . S
C1240 N1237 1.314 . S
C1240 C1238 1.353 . S
C1240 H1298 0.930 . S
C1241 N1237 1.279 . S
C1241 C1239 1.358 . S
C1241 H1299 0.930 . S
C1242 C1245 1.348 . S
C1242 C1246 1.356 . S
C1242 O1293 1.325 . S
C1243 N1244 1.279 . S
C1243 C1246 1.358 . S
C1243 H1300 0.930 . S
N1244 C1243 1.279 . S
N1244 C1247 1.314 . S
C1245 C1242 1.348 . S
C1245 C1247 1.353 . S
C1245 H1301 0.929 . S
C1246 C1242 1.356 . S
C1246 C1243 1.358 . S
C1246 H1302 0.930 . S
C1247 N1244 1.314 . S
C1247 C1245 1.353 . S
C1247 H1303 0.930 . S
C1248 N1249 1.314 . S
C1248 C1253 1.353 . S
C1248 H1254 0.930 . S
N1249 Li1232 1.990 . S
N1249 C1248 1.314 . S
N1249 C1251 1.279 . S
C1250 C1251 1.358 . S
C1250 C1252 1.356 . S
C1250 H1304 0.930 . S
C1251 N1249 1.279 . S
C1251 C1250 1.358 . S
C1251 H1255 0.930 . S
C1252 C1250 1.356 . S
C1252 C1253 1.348 . S
C1253 C1248 1.353 . S
C1253 C1252 1.348 . S
C1253 H1305 0.929 . S
H1254 C1248 0.930 . S
H1255 C1251 0.930 . S
C1256 N1257 1.314 . S
C1256 C1258 1.353 . S
C1256 H1262 0.930 . S
N1257 Li1233 1.990 . S
N1257 C1256 1.314 . S
N1257 C1260 1.279 . S
C1258 C1256 1.353 . S
C1258 C1261 1.348 . S
C1258 H1306 0.929 . S
C1259 C1260 1.358 . S
C1259 C1261 1.356 . S
C1259 H1307 0.930 . S
C1260 N1257 1.279 . S
C1260 C1259 1.358 . S
C1260 H1263 0.930 . S
C1261 C1258 1.348 . S
C1261 C1259 1.356 . S
H1262 C1256 0.930 . S
H1263 C1260 0.930 . S
C1264 C1266 1.348 . S
C1264 C1267 1.356 . S
C1264 O1294 1.325 . S
N1265 C1268 1.314 . S
N1265 C1269 1.279 . S
C1266 C1264 1.348 . S
C1266 C1268 1.353 . S
C1266 H1308 0.929 . S
C1267 C1264 1.356 . S
C1267 C1269 1.358 . S
C1267 H1309 0.930 . S
C1268 N1265 1.314 . S
C1268 C1266 1.353 . S
C1268 H1310 0.930 . S
C1269 N1265 1.279 . S
C1269 C1267 1.358 . S
C1269 H1311 0.930 . S
C1270 C1271 1.348 . S
C1270 C1272 1.356 . S
C1270 O1295 1.325 . S
C1271 C1270 1.348 . S
C1271 C1273 1.353 . S
C1271 H1312 0.929 . S
C1272 C1270 1.356 . S
C1272 C1274 1.358 . S
C1272 H1313 0.930 . S
C1273 C1271 1.353 . S
C1273 N1275 1.314 . S
C1273 H1314 0.930 . S
C1274 C1272 1.358 . S
C1274 N1275 1.279 . S
C1274 H1315 0.930 . S
N1275 C1273 1.314 . S
N1275 C1274 1.279 . S
C1276 C1278 1.353 . S
C1276 N1279 1.314 . S
C1276 H1282 0.930 . S
C1277 N1279 1.279 . S
C1277 C1280 1.358 . S
C1277 H1283 0.930 . S
C1278 C1276 1.353 . S
C1278 C1281 1.348 . S
C1278 H1316 0.929 . S
N1279 Li1234 1.990 . S
N1279 C1276 1.314 . S
N1279 C1277 1.279 . S
C1280 C1277 1.358 . S
C1280 C1281 1.356 . S
C1280 H1317 0.930 . S
C1281 C1278 1.348 . S
C1281 C1280 1.356 . S
H1282 C1276 0.930 . S
H1283 C1277 0.930 . S
C1284 N1285 1.314 . S
C1284 C1286 1.353 . S
C1284 H1290 0.930 . S
N1285 Li1235 1.990 . S
N1285 C1284 1.314 . S
N1285 C1288 1.279 . S
C1286 C1284 1.353 . S
C1286 C1289 1.348 . S
C1286 H1318 0.929 . S
C1287 C1288 1.358 . S
C1287 C1289 1.356 . S
C1287 H1319 0.930 . S
C1288 N1285 1.279 . S
C1288 C1287 1.358 . S
C1288 H1291 0.930 . S
C1289 C1286 1.348 . S
C1289 C1287 1.356 . S
H1290 C1284 0.930 . S
H1291 C1288 0.930 . S
O1292 Li1232 1.956 . S
O1292 Li1233 1.970 . S
O1292 Li1234 1.961 . S
O1292 C1236 1.325 . S
O1293 Li1232 1.970 . S
O1293 Li1233 1.956 . S
O1293 Li1235 1.961 . S
O1293 C1242 1.325 . S
O1294 Li1232 1.961 . S
O1294 Li1234 1.956 . S
O1294 Li1235 1.970 . S
O1294 C1264 1.325 . S
O1295 Li1233 1.961 . S
O1295 Li1234 1.970 . S
O1295 Li1235 1.956 . S
O1295 C1270 1.325 . S
H1296 C1238 0.929 . S
H1297 C1239 0.930 . S
H1298 C1240 0.930 . S
H1299 C1241 0.930 . S
H1300 C1243 0.930 . S
H1301 C1245 0.929 . S
H1302 C1246 0.930 . S
H1303 C1247 0.930 . S
H1304 C1250 0.930 . S
H1305 C1253 0.929 . S
H1306 C1258 0.929 . S
H1307 C1259 0.930 . S
H1308 C1266 0.929 . S
H1309 C1267 0.930 . S
H1310 C1268 0.930 . S
H1311 C1269 0.930 . S
H1312 C1271 0.929 . S
H1313 C1272 0.930 . S
H1314 C1273 0.930 . S
H1315 C1274 0.930 . S
H1316 C1278 0.929 . S
H1317 C1280 0.930 . S
H1318 C1286 0.929 . S
H1319 C1287 0.930 . S
Li1320 N1337 1.990 . S
Li1320 O1380 1.956 . S
Li1320 O1381 1.970 . S
Li1320 O1382 1.961 . S
Li1321 N1345 1.990 . S
Li1321 O1380 1.970 . S
Li1321 O1381 1.956 . S
Li1321 O1383 1.961 . S
Li1322 N1367 1.990 . S
Li1322 O1380 1.961 . S
Li1322 O1382 1.956 . S
Li1322 O1383 1.970 . S
Li1323 N1373 1.990 . S
Li1323 O1381 1.961 . S
Li1323 O1382 1.970 . S
Li1323 O1383 1.956 . S
C1324 C1326 1.348 . S
C1324 C1327 1.356 . S
C1324 O1380 1.325 . S
N1325 C1328 1.314 . S
N1325 C1329 1.279 . S
C1326 C1324 1.348 . S
C1326 C1328 1.353 . S
C1326 H1384 0.929 . S
C1327 C1324 1.356 . S
C1327 C1329 1.358 . S
C1327 H1385 0.930 . S
C1328 N1325 1.314 . S
C1328 C1326 1.353 . S
C1328 H1386 0.930 . S
C1329 N1325 1.279 . S
C1329 C1327 1.358 . S
C1329 H1387 0.930 . S
C1330 C1333 1.348 . S
C1330 C1334 1.356 . S
C1330 O1381 1.325 . S
C1331 N1332 1.279 . S
C1331 C1334 1.358 . S
C1331 H1388 0.930 . S
N1332 C1331 1.279 . S
N1332 C1335 1.314 . S
C1333 C1330 1.348 . S
C1333 C1335 1.353 . S
C1333 H1389 0.929 . S
C1334 C1330 1.356 . S
C1334 C1331 1.358 . S
C1334 H1390 0.930 . S
C1335 N1332 1.314 . S
C1335 C1333 1.353 . S
C1335 H1391 0.930 . S
C1336 N1337 1.314 . S
C1336 C1341 1.353 . S
C1336 H1342 0.930 . S
N1337 Li1320 1.990 . S
N1337 C1336 1.314 . S
N1337 C1339 1.279 . S
C1338 C1339 1.358 . S
C1338 C1340 1.356 . S
C1338 H1392 0.930 . S
C1339 N1337 1.279 . S
C1339 C1338 1.358 . S
C1339 H1343 0.930 . S
C1340 C1338 1.356 . S
C1340 C1341 1.348 . S
C1341 C1336 1.353 . S
C1341 C1340 1.348 . S
C1341 H1393 0.929 . S
H1342 C1336 0.930 . S
H1343 C1339 0.930 . S
C1344 N1345 1.314 . S
C1344 C1346 1.353 . S
C1344 H1350 0.930 . S
N1345 Li1321 1.990 . S
N1345 C1344 1.314 . S
N1345 C1348 1.279 . S
C1346 C1344 1.353 . S
C1346 C1349 1.348 . S
C1346 H1394 0.929 . S
C1347 C1348 1.358 . S
C1347 C1349 1.356 . S
C1347 H1395 0.930 . S
C1348 N1345 1.279 . S
C1348 C1347 1.358 . S
C1348 H1351 0.930 . S
C1349 C1346 1.348 . S
C1349 C1347 1.356 . S
H1350 C1344 0.930 . S
H1351 C1348 0.930 . S
C1352 C1354 1.348 . S
C1352 C1355 1.356 . S
C1352 O1382 1.325 . S
N1353 C1356 1.314 . S
N1353 C1357 1.279 . S
C1354 C1352 1.348 . S
C1354 C1356 1.353 . S
C1354 H1396 0.929 . S
C1355 C1352 1.356 . S
C1355 C1357 1.358 . S
C1355 H1397 0.930 . S
C1356 N1353 1.314 . S
C1356 C1354 1.353 . S
C1356 H1398 0.930 . S
C1357 N1353 1.279 . S
C1357 C1355 1.358 . S
C1357 H1399 0.930 . S
C1358 C1359 1.348 . S
C1358 C1360 1.356 . S
C1358 O1383 1.325 . S
C1359 C1358 1.348 . S
C1359 C1361 1.353 . S
C1359 H1400 0.929 . S
C1360 C1358 1.356 . S
C1360 C1362 1.358 . S
C1360 H1401 0.930 . S
C1361 C1359 1.353 . S
C1361 N1363 1.314 . S
C1361 H1402 0.930 . S
C1362 C1360 1.358 . S
C1362 N1363 1.279 . S
C1362 H1403 0.930 . S
N1363 C1361 1.314 . S
N1363 C1362 1.279 . S
C1364 C1366 1.353 . S
C1364 N1367 1.314 . S
C1364 H1370 0.930 . S
C1365 N1367 1.279 . S
C1365 C1368 1.358 . S
C1365 H1371 0.930 . S
C1366 C1364 1.353 . S
C1366 C1369 1.348 . S
C1366 H1404 0.929 . S
N1367 Li1322 1.990 . S
N1367 C1364 1.314 . S
N1367 C1365 1.279 . S
C1368 C1365 1.358 . S
C1368 C1369 1.356 . S
C1368 H1405 0.930 . S
C1369 C1366 1.348 . S
C1369 C1368 1.356 . S
H1370 C1364 0.930 . S
H1371 C1365 0.930 . S
C1372 N1373 1.314 . S
C1372 C1374 1.353 . S
C1372 H1378 0.930 . S
N1373 Li1323 1.990 . S
N1373 C1372 1.314 . S
N1373 C1376 1.279 . S
C1374 C1372 1.353 . S
C1374 C1377 1.348 . S
C1374 H1406 0.929 . S
C1375 C1376 1.358 . S
C1375 C1377 1.356 . S
C1375 H1407 0.930 . S
C1376 N1373 1.279 . S
C1376 C1375 1.358 . S
C1376 H1379 0.930 . S
C1377 C1374 1.348 . S
C1377 C1375 1.356 . S
H1378 C1372 0.930 . S
H1379 C1376 0.930 . S
O1380 Li1320 1.956 . S
O1380 Li1321 1.970 . S
O1380 Li1322 1.961 . S
O1380 C1324 1.325 . S
O1381 Li1320 1.970 . S
O1381 Li1321 1.956 . S
O1381 Li1323 1.961 . S
O1381 C1330 1.325 . S
O1382 Li1320 1.961 . S
O1382 Li1322 1.956 . S
O1382 Li1323 1.970 . S
O1382 C1352 1.325 . S
O1383 Li1321 1.961 . S
O1383 Li1322 1.970 . S
O1383 Li1323 1.956 . S
O1383 C1358 1.325 . S
H1384 C1326 0.929 . S
H1385 C1327 0.930 . S
H1386 C1328 0.930 . S
H1387 C1329 0.930 . S
H1388 C1331 0.930 . S
H1389 C1333 0.929 . S
H1390 C1334 0.930 . S
H1391 C1335 0.930 . S
H1392 C1338 0.930 . S
H1393 C1341 0.929 . S
H1394 C1346 0.929 . S
H1395 C1347 0.930 . S
H1396 C1354 0.929 . S
H1397 C1355 0.930 . S
H1398 C1356 0.930 . S
H1399 C1357 0.930 . S
H1400 C1359 0.929 . S
H1401 C1360 0.930 . S
H1402 C1361 0.930 . S
H1403 C1362 0.930 . S
H1404 C1366 0.929 . S
H1405 C1368 0.930 . S
H1406 C1374 0.929 . S
H1407 C1375 0.930 . S
Li1408 N1425 1.990 . S
Li1408 O1468 1.956 . S
Li1408 O1469 1.970 . S
Li1408 O1470 1.961 . S
Li1409 N1433 1.990 . S
Li1409 O1468 1.970 . S
Li1409 O1469 1.956 . S
Li1409 O1471 1.961 . S
Li1410 N1455 1.990 . S
Li1410 O1468 1.961 . S
Li1410 O1470 1.956 . S
Li1410 O1471 1.970 . S
Li1411 N1461 1.990 . S
Li1411 O1469 1.961 . S
Li1411 O1470 1.970 . S
Li1411 O1471 1.956 . S
C1412 C1414 1.348 . S
C1412 C1415 1.356 . S
C1412 O1468 1.325 . S
N1413 C1416 1.314 . S
N1413 C1417 1.279 . S
C1414 C1412 1.348 . S
C1414 C1416 1.353 . S
C1414 H1472 0.929 . S
C1415 C1412 1.356 . S
C1415 C1417 1.358 . S
C1415 H1473 0.930 . S
C1416 N1413 1.314 . S
C1416 C1414 1.353 . S
C1416 H1474 0.930 . S
C1417 N1413 1.279 . S
C1417 C1415 1.358 . S
C1417 H1475 0.930 . S
C1418 C1421 1.348 . S
C1418 C1422 1.356 . S
C1418 O1469 1.325 . S
C1419 N1420 1.279 . S
C1419 C1422 1.358 . S
C1419 H1476 0.930 . S
N1420 C1419 1.279 . S
N1420 C1423 1.314 . S
C1421 C1418 1.348 . S
C1421 C1423 1.353 . S
C1421 H1477 0.929 . S
C1422 C1418 1.356 . S
C1422 C1419 1.358 . S
C1422 H1478 0.930 . S
C1423 N1420 1.314 . S
C1423 C1421 1.353 . S
C1423 H1479 0.930 . S
C1424 N1425 1.314 . S
C1424 C1429 1.353 . S
C1424 H1430 0.930 . S
N1425 Li1408 1.990 . S
N1425 C1424 1.314 . S
N1425 C1427 1.279 . S
C1426 C1427 1.358 . S
C1426 C1428 1.356 . S
C1426 H1480 0.930 . S
C1427 N1425 1.279 . S
C1427 C1426 1.358 . S
C1427 H1431 0.930 . S
C1428 C1426 1.356 . S
C1428 C1429 1.348 . S
C1429 C1424 1.353 . S
C1429 C1428 1.348 . S
C1429 H1481 0.929 . S
H1430 C1424 0.930 . S
H1431 C1427 0.930 . S
C1432 N1433 1.314 . S
C1432 C1434 1.353 . S
C1432 H1438 0.930 . S
N1433 Li1409 1.990 . S
N1433 C1432 1.314 . S
N1433 C1436 1.279 . S
C1434 C1432 1.353 . S
C1434 C1437 1.348 . S
C1434 H1482 0.929 . S
C1435 C1436 1.358 . S
C1435 C1437 1.356 . S
C1435 H1483 0.930 . S
C1436 N1433 1.279 . S
C1436 C1435 1.358 . S
C1436 H1439 0.930 . S
C1437 C1434 1.348 . S
C1437 C1435 1.356 . S
H1438 C1432 0.930 . S
H1439 C1436 0.930 . S
C1440 C1442 1.348 . S
C1440 C1443 1.356 . S
C1440 O1470 1.325 . S
N1441 C1444 1.314 . S
N1441 C1445 1.279 . S
C1442 C1440 1.348 . S
C1442 C1444 1.353 . S
C1442 H1484 0.929 . S
C1443 C1440 1.356 . S
C1443 C1445 1.358 . S
C1443 H1485 0.930 . S
C1444 N1441 1.314 . S
C1444 C1442 1.353 . S
C1444 H1486 0.930 . S
C1445 N1441 1.279 . S
C1445 C1443 1.358 . S
C1445 H1487 0.930 . S
C1446 C1447 1.348 . S
C1446 C1448 1.356 . S
C1446 O1471 1.325 . S
C1447 C1446 1.348 . S
C1447 C1449 1.353 . S
C1447 H1488 0.929 . S
C1448 C1446 1.356 . S
C1448 C1450 1.358 . S
C1448 H1489 0.930 . S
C1449 C1447 1.353 . S
C1449 N1451 1.314 . S
C1449 H1490 0.930 . S
C1450 C1448 1.358 . S
C1450 N1451 1.279 . S
C1450 H1491 0.930 . S
N1451 C1449 1.314 . S
N1451 C1450 1.279 . S
C1452 C1454 1.353 . S
C1452 N1455 1.314 . S
C1452 H1458 0.930 . S
C1453 N1455 1.279 . S
C1453 C1456 1.358 . S
C1453 H1459 0.930 . S
C1454 C1452 1.353 . S
C1454 C1457 1.348 . S
C1454 H1492 0.929 . S
N1455 Li1410 1.990 . S
N1455 C1452 1.314 . S
N1455 C1453 1.279 . S
C1456 C1453 1.358 . S
C1456 C1457 1.356 . S
C1456 H1493 0.930 . S
C1457 C1454 1.348 . S
C1457 C1456 1.356 . S
H1458 C1452 0.930 . S
H1459 C1453 0.930 . S
C1460 N1461 1.314 . S
C1460 C1462 1.353 . S
C1460 H1466 0.930 . S
N1461 Li1411 1.990 . S
N1461 C1460 1.314 . S
N1461 C1464 1.279 . S
C1462 C1460 1.353 . S
C1462 C1465 1.348 . S
C1462 H1494 0.929 . S
C1463 C1464 1.358 . S
C1463 C1465 1.356 . S
C1463 H1495 0.930 . S
C1464 N1461 1.279 . S
C1464 C1463 1.358 . S
C1464 H1467 0.930 . S
C1465 C1462 1.348 . S
C1465 C1463 1.356 . S
H1466 C1460 0.930 . S
H1467 C1464 0.930 . S
O1468 Li1408 1.956 . S
O1468 Li1409 1.970 . S
O1468 Li1410 1.961 . S
O1468 C1412 1.325 . S
O1469 Li1408 1.970 . S
O1469 Li1409 1.956 . S
O1469 Li1411 1.961 . S
O1469 C1418 1.325 . S
O1470 Li1408 1.961 . S
O1470 Li1410 1.956 . S
O1470 Li1411 1.970 . S
O1470 C1440 1.325 . S
O1471 Li1409 1.961 . S
O1471 Li1410 1.970 . S
O1471 Li1411 1.956 . S
O1471 C1446 1.325 . S
H1472 C1414 0.929 . S
H1473 C1415 0.930 . S
H1474 C1416 0.930 . S
H1475 C1417 0.930 . S
H1476 C1419 0.930 . S
H1477 C1421 0.929 . S
H1478 C1422 0.930 . S
H1479 C1423 0.930 . S
H1480 C1426 0.930 . S
H1481 C1429 0.929 . S
H1482 C1434 0.929 . S
H1483 C1435 0.930 . S
H1484 C1442 0.929 . S
H1485 C1443 0.930 . S
H1486 C1444 0.930 . S
H1487 C1445 0.930 . S
H1488 C1447 0.929 . S
H1489 C1448 0.930 . S
H1490 C1449 0.930 . S
H1491 C1450 0.930 . S
H1492 C1454 0.929 . S
H1493 C1456 0.930 . S
H1494 C1462 0.929 . S
H1495 C1463 0.930 . S
Li1496 N1513 1.990 . S
Li1496 O1556 1.956 . S
Li1496 O1557 1.970 . S
Li1496 O1558 1.961 . S
Li1497 N1521 1.990 . S
Li1497 O1556 1.970 . S
Li1497 O1557 1.956 . S
Li1497 O1559 1.961 . S
Li1498 N1543 1.990 . S
Li1498 O1556 1.961 . S
Li1498 O1558 1.956 . S
Li1498 O1559 1.970 . S
Li1499 N1549 1.990 . S
Li1499 O1557 1.961 . S
Li1499 O1558 1.970 . S
Li1499 O1559 1.956 . S
C1500 C1502 1.348 . S
C1500 C1503 1.356 . S
C1500 O1556 1.325 . S
N1501 C1504 1.314 . S
N1501 C1505 1.279 . S
C1502 C1500 1.348 . S
C1502 C1504 1.353 . S
C1502 H1560 0.929 . S
C1503 C1500 1.356 . S
C1503 C1505 1.358 . S
C1503 H1561 0.930 . S
C1504 N1501 1.314 . S
C1504 C1502 1.353 . S
C1504 H1562 0.930 . S
C1505 N1501 1.279 . S
C1505 C1503 1.358 . S
C1505 H1563 0.930 . S
C1506 C1509 1.348 . S
C1506 C1510 1.356 . S
C1506 O1557 1.325 . S
C1507 N1508 1.279 . S
C1507 C1510 1.358 . S
C1507 H1564 0.930 . S
N1508 C1507 1.279 . S
N1508 C1511 1.314 . S
C1509 C1506 1.348 . S
C1509 C1511 1.353 . S
C1509 H1565 0.929 . S
C1510 C1506 1.356 . S
C1510 C1507 1.358 . S
C1510 H1566 0.930 . S
C1511 N1508 1.314 . S
C1511 C1509 1.353 . S
C1511 H1567 0.930 . S
C1512 N1513 1.314 . S
C1512 C1517 1.353 . S
C1512 H1518 0.930 . S
N1513 Li1496 1.990 . S
N1513 C1512 1.314 . S
N1513 C1515 1.279 . S
C1514 C1515 1.358 . S
C1514 C1516 1.356 . S
C1514 H1568 0.930 . S
C1515 N1513 1.279 . S
C1515 C1514 1.358 . S
C1515 H1519 0.930 . S
C1516 C1514 1.356 . S
C1516 C1517 1.348 . S
C1517 C1512 1.353 . S
C1517 C1516 1.348 . S
C1517 H1569 0.929 . S
H1518 C1512 0.930 . S
H1519 C1515 0.930 . S
C1520 N1521 1.314 . S
C1520 C1522 1.353 . S
C1520 H1526 0.930 . S
N1521 Li1497 1.990 . S
N1521 C1520 1.314 . S
N1521 C1524 1.279 . S
C1522 C1520 1.353 . S
C1522 C1525 1.348 . S
C1522 H1570 0.929 . S
C1523 C1524 1.358 . S
C1523 C1525 1.356 . S
C1523 H1571 0.930 . S
C1524 N1521 1.279 . S
C1524 C1523 1.358 . S
C1524 H1527 0.930 . S
C1525 C1522 1.348 . S
C1525 C1523 1.356 . S
H1526 C1520 0.930 . S
H1527 C1524 0.930 . S
C1528 C1530 1.348 . S
C1528 C1531 1.356 . S
C1528 O1558 1.325 . S
N1529 C1532 1.314 . S
N1529 C1533 1.279 . S
C1530 C1528 1.348 . S
C1530 C1532 1.353 . S
C1530 H1572 0.929 . S
C1531 C1528 1.356 . S
C1531 C1533 1.358 . S
C1531 H1573 0.930 . S
C1532 N1529 1.314 . S
C1532 C1530 1.353 . S
C1532 H1574 0.930 . S
C1533 N1529 1.279 . S
C1533 C1531 1.358 . S
C1533 H1575 0.930 . S
C1534 C1535 1.348 . S
C1534 C1536 1.356 . S
C1534 O1559 1.325 . S
C1535 C1534 1.348 . S
C1535 C1537 1.353 . S
C1535 H1576 0.929 . S
C1536 C1534 1.356 . S
C1536 C1538 1.358 . S
C1536 H1577 0.930 . S
C1537 C1535 1.353 . S
C1537 N1539 1.314 . S
C1537 H1578 0.930 . S
C1538 C1536 1.358 . S
C1538 N1539 1.279 . S
C1538 H1579 0.930 . S
N1539 C1537 1.314 . S
N1539 C1538 1.279 . S
C1540 C1542 1.353 . S
C1540 N1543 1.314 . S
C1540 H1546 0.930 . S
C1541 N1543 1.279 . S
C1541 C1544 1.358 . S
C1541 H1547 0.930 . S
C1542 C1540 1.353 . S
C1542 C1545 1.348 . S
C1542 H1580 0.929 . S
N1543 Li1498 1.990 . S
N1543 C1540 1.314 . S
N1543 C1541 1.279 . S
C1544 C1541 1.358 . S
C1544 C1545 1.356 . S
C1544 H1581 0.930 . S
C1545 C1542 1.348 . S
C1545 C1544 1.356 . S
H1546 C1540 0.930 . S
H1547 C1541 0.930 . S
C1548 N1549 1.314 . S
C1548 C1550 1.353 . S
C1548 H1554 0.930 . S
N1549 Li1499 1.990 . S
N1549 C1548 1.314 . S
N1549 C1552 1.279 . S
C1550 C1548 1.353 . S
C1550 C1553 1.348 . S
C1550 H1582 0.929 . S
C1551 C1552 1.358 . S
C1551 C1553 1.356 . S
C1551 H1583 0.930 . S
C1552 N1549 1.279 . S
C1552 C1551 1.358 . S
C1552 H1555 0.930 . S
C1553 C1550 1.348 . S
C1553 C1551 1.356 . S
H1554 C1548 0.930 . S
H1555 C1552 0.930 . S
O1556 Li1496 1.956 . S
O1556 Li1497 1.970 . S
O1556 Li1498 1.961 . S
O1556 C1500 1.325 . S
O1557 Li1496 1.970 . S
O1557 Li1497 1.956 . S
O1557 Li1499 1.961 . S
O1557 C1506 1.325 . S
O1558 Li1496 1.961 . S
O1558 Li1498 1.956 . S
O1558 Li1499 1.970 . S
O1558 C1528 1.325 . S
O1559 Li1497 1.961 . S
O1559 Li1498 1.970 . S
O1559 Li1499 1.956 . S
O1559 C1534 1.325 . S
H1560 C1502 0.929 . S
H1561 C1503 0.930 . S
H1562 C1504 0.930 . S
H1563 C1505 0.930 . S
H1564 C1507 0.930 . S
H1565 C1509 0.929 . S
H1566 C1510 0.930 . S
H1567 C1511 0.930 . S
H1568 C1514 0.930 . S
H1569 C1517 0.929 . S
H1570 C1522 0.929 . S
H1571 C1523 0.930 . S
H1572 C1530 0.929 . S
H1573 C1531 0.930 . S
H1574 C1532 0.930 . S
H1575 C1533 0.930 . S
H1576 C1535 0.929 . S
H1577 C1536 0.930 . S
H1578 C1537 0.930 . S
H1579 C1538 0.930 . S
H1580 C1542 0.929 . S
H1581 C1544 0.930 . S
H1582 C1550 0.929 . S
H1583 C1551 0.930 . S
Li1584 N1601 1.990 . S
Li1584 O1644 1.956 . S
Li1584 O1645 1.970 . S
Li1584 O1646 1.961 . S
Li1585 N1609 1.990 . S
Li1585 O1644 1.970 . S
Li1585 O1645 1.956 . S
Li1585 O1647 1.961 . S
Li1586 N1631 1.990 . S
Li1586 O1644 1.961 . S
Li1586 O1646 1.956 . S
Li1586 O1647 1.970 . S
Li1587 N1637 1.990 . S
Li1587 O1645 1.961 . S
Li1587 O1646 1.970 . S
Li1587 O1647 1.956 . S
C1588 C1590 1.348 . S
C1588 C1591 1.356 . S
C1588 O1644 1.325 . S
N1589 C1592 1.314 . S
N1589 C1593 1.279 . S
C1590 C1588 1.348 . S
C1590 C1592 1.353 . S
C1590 H1648 0.929 . S
C1591 C1588 1.356 . S
C1591 C1593 1.358 . S
C1591 H1649 0.930 . S
C1592 N1589 1.314 . S
C1592 C1590 1.353 . S
C1592 H1650 0.930 . S
C1593 N1589 1.279 . S
C1593 C1591 1.358 . S
C1593 H1651 0.930 . S
C1594 C1597 1.348 . S
C1594 C1598 1.356 . S
C1594 O1645 1.325 . S
C1595 N1596 1.279 . S
C1595 C1598 1.358 . S
C1595 H1652 0.930 . S
N1596 C1595 1.279 . S
N1596 C1599 1.314 . S
C1597 C1594 1.348 . S
C1597 C1599 1.353 . S
C1597 H1653 0.929 . S
C1598 C1594 1.356 . S
C1598 C1595 1.358 . S
C1598 H1654 0.930 . S
C1599 N1596 1.314 . S
C1599 C1597 1.353 . S
C1599 H1655 0.930 . S
C1600 N1601 1.314 . S
C1600 C1605 1.353 . S
C1600 H1606 0.930 . S
N1601 Li1584 1.990 . S
N1601 C1600 1.314 . S
N1601 C1603 1.279 . S
C1602 C1603 1.358 . S
C1602 C1604 1.356 . S
C1602 H1656 0.930 . S
C1603 N1601 1.279 . S
C1603 C1602 1.358 . S
C1603 H1607 0.930 . S
C1604 C1602 1.356 . S
C1604 C1605 1.348 . S
C1605 C1600 1.353 . S
C1605 C1604 1.348 . S
C1605 H1657 0.929 . S
H1606 C1600 0.930 . S
H1607 C1603 0.930 . S
C1608 N1609 1.314 . S
C1608 C1610 1.353 . S
C1608 H1614 0.930 . S
N1609 Li1585 1.990 . S
N1609 C1608 1.314 . S
N1609 C1612 1.279 . S
C1610 C1608 1.353 . S
C1610 C1613 1.348 . S
C1610 H1658 0.929 . S
C1611 C1612 1.358 . S
C1611 C1613 1.356 . S
C1611 H1659 0.930 . S
C1612 N1609 1.279 . S
C1612 C1611 1.358 . S
C1612 H1615 0.930 . S
C1613 C1610 1.348 . S
C1613 C1611 1.356 . S
H1614 C1608 0.930 . S
H1615 C1612 0.930 . S
C1616 C1618 1.348 . S
C1616 C1619 1.356 . S
C1616 O1646 1.325 . S
N1617 C1620 1.314 . S
N1617 C1621 1.279 . S
C1618 C1616 1.348 . S
C1618 C1620 1.353 . S
C1618 H1660 0.929 . S
C1619 C1616 1.356 . S
C1619 C1621 1.358 . S
C1619 H1661 0.930 . S
C1620 N1617 1.314 . S
C1620 C1618 1.353 . S
C1620 H1662 0.930 . S
C1621 N1617 1.279 . S
C1621 C1619 1.358 . S
C1621 H1663 0.930 . S
C1622 C1623 1.348 . S
C1622 C1624 1.356 . S
C1622 O1647 1.325 . S
C1623 C1622 1.348 . S
C1623 C1625 1.353 . S
C1623 H1664 0.929 . S
C1624 C1622 1.356 . S
C1624 C1626 1.358 . S
C1624 H1665 0.930 . S
C1625 C1623 1.353 . S
C1625 N1627 1.314 . S
C1625 H1666 0.930 . S
C1626 C1624 1.358 . S
C1626 N1627 1.279 . S
C1626 H1667 0.930 . S
N1627 C1625 1.314 . S
N1627 C1626 1.279 . S
C1628 C1630 1.353 . S
C1628 N1631 1.314 . S
C1628 H1634 0.930 . S
C1629 N1631 1.279 . S
C1629 C1632 1.358 . S
C1629 H1635 0.930 . S
C1630 C1628 1.353 . S
C1630 C1633 1.348 . S
C1630 H1668 0.929 . S
N1631 Li1586 1.990 . S
N1631 C1628 1.314 . S
N1631 C1629 1.279 . S
C1632 C1629 1.358 . S
C1632 C1633 1.356 . S
C1632 H1669 0.930 . S
C1633 C1630 1.348 . S
C1633 C1632 1.356 . S
H1634 C1628 0.930 . S
H1635 C1629 0.930 . S
C1636 N1637 1.314 . S
C1636 C1638 1.353 . S
C1636 H1642 0.930 . S
N1637 Li1587 1.990 . S
N1637 C1636 1.314 . S
N1637 C1640 1.279 . S
C1638 C1636 1.353 . S
C1638 C1641 1.348 . S
C1638 H1670 0.929 . S
C1639 C1640 1.358 . S
C1639 C1641 1.356 . S
C1639 H1671 0.930 . S
C1640 N1637 1.279 . S
C1640 C1639 1.358 . S
C1640 H1643 0.930 . S
C1641 C1638 1.348 . S
C1641 C1639 1.356 . S
H1642 C1636 0.930 . S
H1643 C1640 0.930 . S
O1644 Li1584 1.956 . S
O1644 Li1585 1.970 . S
O1644 Li1586 1.961 . S
O1644 C1588 1.325 . S
O1645 Li1584 1.970 . S
O1645 Li1585 1.956 . S
O1645 Li1587 1.961 . S
O1645 C1594 1.325 . S
O1646 Li1584 1.961 . S
O1646 Li1586 1.956 . S
O1646 Li1587 1.970 . S
O1646 C1616 1.325 . S
O1647 Li1585 1.961 . S
O1647 Li1586 1.970 . S
O1647 Li1587 1.956 . S
O1647 C1622 1.325 . S
H1648 C1590 0.929 . S
H1649 C1591 0.930 . S
H1650 C1592 0.930 . S
H1651 C1593 0.930 . S
H1652 C1595 0.930 . S
H1653 C1597 0.929 . S
H1654 C1598 0.930 . S
H1655 C1599 0.930 . S
H1656 C1602 0.930 . S
H1657 C1605 0.929 . S
H1658 C1610 0.929 . S
H1659 C1611 0.930 . S
H1660 C1618 0.929 . S
H1661 C1619 0.930 . S
H1662 C1620 0.930 . S
H1663 C1621 0.930 . S
H1664 C1623 0.929 . S
H1665 C1624 0.930 . S
H1666 C1625 0.930 . S
H1667 C1626 0.930 . S
H1668 C1630 0.929 . S
H1669 C1632 0.930 . S
H1670 C1638 0.929 . S
H1671 C1639 0.930 . S
Li1672 N1689 1.990 . S
Li1672 O1732 1.956 . S
Li1672 O1733 1.970 . S
Li1672 O1734 1.961 . S
Li1673 N1697 1.990 . S
Li1673 O1732 1.970 . S
Li1673 O1733 1.956 . S
Li1673 O1735 1.961 . S
Li1674 N1719 1.990 . S
Li1674 O1732 1.961 . S
Li1674 O1734 1.956 . S
Li1674 O1735 1.970 . S
Li1675 N1725 1.990 . S
Li1675 O1733 1.961 . S
Li1675 O1734 1.970 . S
Li1675 O1735 1.956 . S
C1676 C1678 1.348 . S
C1676 C1679 1.356 . S
C1676 O1732 1.325 . S
N1677 C1680 1.314 . S
N1677 C1681 1.279 . S
C1678 C1676 1.348 . S
C1678 C1680 1.353 . S
C1678 H1736 0.929 . S
C1679 C1676 1.356 . S
C1679 C1681 1.358 . S
C1679 H1737 0.930 . S
C1680 N1677 1.314 . S
C1680 C1678 1.353 . S
C1680 H1738 0.930 . S
C1681 N1677 1.279 . S
C1681 C1679 1.358 . S
C1681 H1739 0.930 . S
C1682 C1685 1.348 . S
C1682 C1686 1.356 . S
C1682 O1733 1.325 . S
C1683 N1684 1.279 . S
C1683 C1686 1.358 . S
C1683 H1740 0.930 . S
N1684 C1683 1.279 . S
N1684 C1687 1.314 . S
C1685 C1682 1.348 . S
C1685 C1687 1.353 . S
C1685 H1741 0.929 . S
C1686 C1682 1.356 . S
C1686 C1683 1.358 . S
C1686 H1742 0.930 . S
C1687 N1684 1.314 . S
C1687 C1685 1.353 . S
C1687 H1743 0.930 . S
C1688 N1689 1.314 . S
C1688 C1693 1.353 . S
C1688 H1694 0.930 . S
N1689 Li1672 1.990 . S
N1689 C1688 1.314 . S
N1689 C1691 1.279 . S
C1690 C1691 1.358 . S
C1690 C1692 1.356 . S
C1690 H1744 0.930 . S
C1691 N1689 1.279 . S
C1691 C1690 1.358 . S
C1691 H1695 0.930 . S
C1692 C1690 1.356 . S
C1692 C1693 1.348 . S
C1693 C1688 1.353 . S
C1693 C1692 1.348 . S
C1693 H1745 0.929 . S
H1694 C1688 0.930 . S
H1695 C1691 0.930 . S
C1696 N1697 1.314 . S
C1696 C1698 1.353 . S
C1696 H1702 0.930 . S
N1697 Li1673 1.990 . S
N1697 C1696 1.314 . S
N1697 C1700 1.279 . S
C1698 C1696 1.353 . S
C1698 C1701 1.348 . S
C1698 H1746 0.929 . S
C1699 C1700 1.358 . S
C1699 C1701 1.356 . S
C1699 H1747 0.930 . S
C1700 N1697 1.279 . S
C1700 C1699 1.358 . S
C1700 H1703 0.930 . S
C1701 C1698 1.348 . S
C1701 C1699 1.356 . S
H1702 C1696 0.930 . S
H1703 C1700 0.930 . S
C1704 C1706 1.348 . S
C1704 C1707 1.356 . S
C1704 O1734 1.325 . S
N1705 C1708 1.314 . S
N1705 C1709 1.279 . S
C1706 C1704 1.348 . S
C1706 C1708 1.353 . S
C1706 H1748 0.929 . S
C1707 C1704 1.356 . S
C1707 C1709 1.358 . S
C1707 H1749 0.930 . S
C1708 N1705 1.314 . S
C1708 C1706 1.353 . S
C1708 H1750 0.930 . S
C1709 N1705 1.279 . S
C1709 C1707 1.358 . S
C1709 H1751 0.930 . S
C1710 C1711 1.348 . S
C1710 C1712 1.356 . S
C1710 O1735 1.325 . S
C1711 C1710 1.348 . S
C1711 C1713 1.353 . S
C1711 H1752 0.929 . S
C1712 C1710 1.356 . S
C1712 C1714 1.358 . S
C1712 H1753 0.930 . S
C1713 C1711 1.353 . S
C1713 N1715 1.314 . S
C1713 H1754 0.930 . S
C1714 C1712 1.358 . S
C1714 N1715 1.279 . S
C1714 H1755 0.930 . S
N1715 C1713 1.314 . S
N1715 C1714 1.279 . S
C1716 C1718 1.353 . S
C1716 N1719 1.314 . S
C1716 H1722 0.930 . S
C1717 N1719 1.279 . S
C1717 C1720 1.358 . S
C1717 H1723 0.930 . S
C1718 C1716 1.353 . S
C1718 C1721 1.348 . S
C1718 H1756 0.929 . S
N1719 Li1674 1.990 . S
N1719 C1716 1.314 . S
N1719 C1717 1.279 . S
C1720 C1717 1.358 . S
C1720 C1721 1.356 . S
C1720 H1757 0.930 . S
C1721 C1718 1.348 . S
C1721 C1720 1.356 . S
H1722 C1716 0.930 . S
H1723 C1717 0.930 . S
C1724 N1725 1.314 . S
C1724 C1726 1.353 . S
C1724 H1730 0.930 . S
N1725 Li1675 1.990 . S
N1725 C1724 1.314 . S
N1725 C1728 1.279 . S
C1726 C1724 1.353 . S
C1726 C1729 1.348 . S
C1726 H1758 0.929 . S
C1727 C1728 1.358 . S
C1727 C1729 1.356 . S
C1727 H1759 0.930 . S
C1728 N1725 1.279 . S
C1728 C1727 1.358 . S
C1728 H1731 0.930 . S
C1729 C1726 1.348 . S
C1729 C1727 1.356 . S
H1730 C1724 0.930 . S
H1731 C1728 0.930 . S
O1732 Li1672 1.956 . S
O1732 Li1673 1.970 . S
O1732 Li1674 1.961 . S
O1732 C1676 1.325 . S
O1733 Li1672 1.970 . S
O1733 Li1673 1.956 . S
O1733 Li1675 1.961 . S
O1733 C1682 1.325 . S
O1734 Li1672 1.961 . S
O1734 Li1674 1.956 . S
O1734 Li1675 1.970 . S
O1734 C1704 1.325 . S
O1735 Li1673 1.961 . S
O1735 Li1674 1.970 . S
O1735 Li1675 1.956 . S
O1735 C1710 1.325 . S
H1736 C1678 0.929 . S
H1737 C1679 0.930 . S
H1738 C1680 0.930 . S
H1739 C1681 0.930 . S
H1740 C1683 0.930 . S
H1741 C1685 0.929 . S
H1742 C1686 0.930 . S
H1743 C1687 0.930 . S
H1744 C1690 0.930 . S
H1745 C1693 0.929 . S
H1746 C1698 0.929 . S
H1747 C1699 0.930 . S
H1748 C1706 0.929 . S
H1749 C1707 0.930 . S
H1750 C1708 0.930 . S
H1751 C1709 0.930 . S
H1752 C1711 0.929 . S
H1753 C1712 0.930 . S
H1754 C1713 0.930 . S
H1755 C1714 0.930 . S
H1756 C1718 0.929 . S
H1757 C1720 0.930 . S
H1758 C1726 0.929 . S
H1759 C1727 0.930 . S
Li1760 N1777 1.990 . S
Li1760 O1820 1.956 . S
Li1760 O1821 1.970 . S
Li1760 O1822 1.961 . S
Li1761 N1785 1.990 . S
Li1761 O1820 1.970 . S
Li1761 O1821 1.956 . S
Li1761 O1823 1.961 . S
Li1762 N1807 1.990 . S
Li1762 O1820 1.961 . S
Li1762 O1822 1.956 . S
Li1762 O1823 1.970 . S
Li1763 N1813 1.990 . S
Li1763 O1821 1.961 . S
Li1763 O1822 1.970 . S
Li1763 O1823 1.956 . S
C1764 C1766 1.348 . S
C1764 C1767 1.356 . S
C1764 O1820 1.325 . S
N1765 C1768 1.314 . S
N1765 C1769 1.279 . S
C1766 C1764 1.348 . S
C1766 C1768 1.353 . S
C1766 H1824 0.929 . S
C1767 C1764 1.356 . S
C1767 C1769 1.358 . S
C1767 H1825 0.930 . S
C1768 N1765 1.314 . S
C1768 C1766 1.353 . S
C1768 H1826 0.930 . S
C1769 N1765 1.279 . S
C1769 C1767 1.358 . S
C1769 H1827 0.930 . S
C1770 C1773 1.348 . S
C1770 C1774 1.356 . S
C1770 O1821 1.325 . S
C1771 N1772 1.279 . S
C1771 C1774 1.358 . S
C1771 H1828 0.930 . S
N1772 C1771 1.279 . S
N1772 C1775 1.314 . S
C1773 C1770 1.348 . S
C1773 C1775 1.353 . S
C1773 H1829 0.929 . S
C1774 C1770 1.356 . S
C1774 C1771 1.358 . S
C1774 H1830 0.930 . S
C1775 N1772 1.314 . S
C1775 C1773 1.353 . S
C1775 H1831 0.930 . S
C1776 N1777 1.314 . S
C1776 C1781 1.353 . S
C1776 H1782 0.930 . S
N1777 Li1760 1.990 . S
N1777 C1776 1.314 . S
N1777 C1779 1.279 . S
C1778 C1779 1.358 . S
C1778 C1780 1.356 . S
C1778 H1832 0.930 . S
C1779 N1777 1.279 . S
C1779 C1778 1.358 . S
C1779 H1783 0.930 . S
C1780 C1778 1.356 . S
C1780 C1781 1.348 . S
C1781 C1776 1.353 . S
C1781 C1780 1.348 . S
C1781 H1833 0.929 . S
H1782 C1776 0.930 . S
H1783 C1779 0.930 . S
C1784 N1785 1.314 . S
C1784 C1786 1.353 . S
C1784 H1790 0.930 . S
N1785 Li1761 1.990 . S
N1785 C1784 1.314 . S
N1785 C1788 1.279 . S
C1786 C1784 1.353 . S
C1786 C1789 1.348 . S
C1786 H1834 0.929 . S
C1787 C1788 1.358 . S
C1787 C1789 1.356 . S
C1787 H1835 0.930 . S
C1788 N1785 1.279 . S
C1788 C1787 1.358 . S
C1788 H1791 0.930 . S
C1789 C1786 1.348 . S
C1789 C1787 1.356 . S
H1790 C1784 0.930 . S
H1791 C1788 0.930 . S
C1792 C1794 1.348 . S
C1792 C1795 1.356 . S
C1792 O1822 1.325 . S
N1793 C1796 1.314 . S
N1793 C1797 1.279 . S
C1794 C1792 1.348 . S
C1794 C1796 1.353 . S
C1794 H1836 0.929 . S
C1795 C1792 1.356 . S
C1795 C1797 1.358 . S
C1795 H1837 0.930 . S
C1796 N1793 1.314 . S
C1796 C1794 1.353 . S
C1796 H1838 0.930 . S
C1797 N1793 1.279 . S
C1797 C1795 1.358 . S
C1797 H1839 0.930 . S
C1798 C1799 1.348 . S
C1798 C1800 1.356 . S
C1798 O1823 1.325 . S
C1799 C1798 1.348 . S
C1799 C1801 1.353 . S
C1799 H1840 0.929 . S
C1800 C1798 1.356 . S
C1800 C1802 1.358 . S
C1800 H1841 0.930 . S
C1801 C1799 1.353 . S
C1801 N1803 1.314 . S
C1801 H1842 0.930 . S
C1802 C1800 1.358 . S
C1802 N1803 1.279 . S
C1802 H1843 0.930 . S
N1803 C1801 1.314 . S
N1803 C1802 1.279 . S
C1804 C1806 1.353 . S
C1804 N1807 1.314 . S
C1804 H1810 0.930 . S
C1805 N1807 1.279 . S
C1805 C1808 1.358 . S
C1805 H1811 0.930 . S
C1806 C1804 1.353 . S
C1806 C1809 1.348 . S
C1806 H1844 0.929 . S
N1807 Li1762 1.990 . S
N1807 C1804 1.314 . S
N1807 C1805 1.279 . S
C1808 C1805 1.358 . S
C1808 C1809 1.356 . S
C1808 H1845 0.930 . S
C1809 C1806 1.348 . S
C1809 C1808 1.356 . S
H1810 C1804 0.930 . S
H1811 C1805 0.930 . S
C1812 N1813 1.314 . S
C1812 C1814 1.353 . S
C1812 H1818 0.930 . S
N1813 Li1763 1.990 . S
N1813 C1812 1.314 . S
N1813 C1816 1.279 . S
C1814 C1812 1.353 . S
C1814 C1817 1.348 . S
C1814 H1846 0.929 . S
C1815 C1816 1.358 . S
C1815 C1817 1.356 . S
C1815 H1847 0.930 . S
C1816 N1813 1.279 . S
C1816 C1815 1.358 . S
C1816 H1819 0.930 . S
C1817 C1814 1.348 . S
C1817 C1815 1.356 . S
H1818 C1812 0.930 . S
H1819 C1816 0.930 . S
O1820 Li1760 1.956 . S
O1820 Li1761 1.970 . S
O1820 Li1762 1.961 . S
O1820 C1764 1.325 . S
O1821 Li1760 1.970 . S
O1821 Li1761 1.956 . S
O1821 Li1763 1.961 . S
O1821 C1770 1.325 . S
O1822 Li1760 1.961 . S
O1822 Li1762 1.956 . S
O1822 Li1763 1.970 . S
O1822 C1792 1.325 . S
O1823 Li1761 1.961 . S
O1823 Li1762 1.970 . S
O1823 Li1763 1.956 . S
O1823 C1798 1.325 . S
H1824 C1766 0.929 . S
H1825 C1767 0.930 . S
H1826 C1768 0.930 . S
H1827 C1769 0.930 . S
H1828 C1771 0.930 . S
H1829 C1773 0.929 . S
H1830 C1774 0.930 . S
H1831 C1775 0.930 . S
H1832 C1778 0.930 . S
H1833 C1781 0.929 . S
H1834 C1786 0.929 . S
H1835 C1787 0.930 . S
H1836 C1794 0.929 . S
H1837 C1795 0.930 . S
H1838 C1796 0.930 . S
H1839 C1797 0.930 . S
H1840 C1799 0.929 . S
H1841 C1800 0.930 . S
H1842 C1801 0.930 . S
H1843 C1802 0.930 . S
H1844 C1806 0.929 . S
H1845 C1808 0.930 . S
H1846 C1814 0.929 . S
H1847 C1815 0.930 . S
Li1848 N1865 1.990 . S
Li1848 O1908 1.956 . S
Li1848 O1909 1.970 . S
Li1848 O1910 1.961 . S
Li1849 N1873 1.990 . S
Li1849 O1908 1.970 . S
Li1849 O1909 1.956 . S
Li1849 O1911 1.961 . S
Li1850 N1895 1.990 . S
Li1850 O1908 1.961 . S
Li1850 O1910 1.956 . S
Li1850 O1911 1.970 . S
Li1851 N1901 1.990 . S
Li1851 O1909 1.961 . S
Li1851 O1910 1.970 . S
Li1851 O1911 1.956 . S
C1852 C1854 1.348 . S
C1852 C1855 1.356 . S
C1852 O1908 1.325 . S
N1853 C1856 1.314 . S
N1853 C1857 1.279 . S
C1854 C1852 1.348 . S
C1854 C1856 1.353 . S
C1854 H1912 0.929 . S
C1855 C1852 1.356 . S
C1855 C1857 1.358 . S
C1855 H1913 0.930 . S
C1856 N1853 1.314 . S
C1856 C1854 1.353 . S
C1856 H1914 0.930 . S
C1857 N1853 1.279 . S
C1857 C1855 1.358 . S
C1857 H1915 0.930 . S
C1858 C1861 1.348 . S
C1858 C1862 1.356 . S
C1858 O1909 1.325 . S
C1859 N1860 1.279 . S
C1859 C1862 1.358 . S
C1859 H1916 0.930 . S
N1860 C1859 1.279 . S
N1860 C1863 1.314 . S
C1861 C1858 1.348 . S
C1861 C1863 1.353 . S
C1861 H1917 0.929 . S
C1862 C1858 1.356 . S
C1862 C1859 1.358 . S
C1862 H1918 0.930 . S
C1863 N1860 1.314 . S
C1863 C1861 1.353 . S
C1863 H1919 0.930 . S
C1864 N1865 1.314 . S
C1864 C1869 1.353 . S
C1864 H1870 0.930 . S
N1865 Li1848 1.990 . S
N1865 C1864 1.314 . S
N1865 C1867 1.279 . S
C1866 C1867 1.358 . S
C1866 C1868 1.356 . S
C1866 H1920 0.930 . S
C1867 N1865 1.279 . S
C1867 C1866 1.358 . S
C1867 H1871 0.930 . S
C1868 C1866 1.356 . S
C1868 C1869 1.348 . S
C1869 C1864 1.353 . S
C1869 C1868 1.348 . S
C1869 H1921 0.929 . S
H1870 C1864 0.930 . S
H1871 C1867 0.930 . S
C1872 N1873 1.314 . S
C1872 C1874 1.353 . S
C1872 H1878 0.930 . S
N1873 Li1849 1.990 . S
N1873 C1872 1.314 . S
N1873 C1876 1.279 . S
C1874 C1872 1.353 . S
C1874 C1877 1.348 . S
C1874 H1922 0.929 . S
C1875 C1876 1.358 . S
C1875 C1877 1.356 . S
C1875 H1923 0.930 . S
C1876 N1873 1.279 . S
C1876 C1875 1.358 . S
C1876 H1879 0.930 . S
C1877 C1874 1.348 . S
C1877 C1875 1.356 . S
H1878 C1872 0.930 . S
H1879 C1876 0.930 . S
C1880 C1882 1.348 . S
C1880 C1883 1.356 . S
C1880 O1910 1.325 . S
N1881 C1884 1.314 . S
N1881 C1885 1.279 . S
C1882 C1880 1.348 . S
C1882 C1884 1.353 . S
C1882 H1924 0.929 . S
C1883 C1880 1.356 . S
C1883 C1885 1.358 . S
C1883 H1925 0.930 . S
C1884 N1881 1.314 . S
C1884 C1882 1.353 . S
C1884 H1926 0.930 . S
C1885 N1881 1.279 . S
C1885 C1883 1.358 . S
C1885 H1927 0.930 . S
C1886 C1887 1.348 . S
C1886 C1888 1.356 . S
C1886 O1911 1.325 . S
C1887 C1886 1.348 . S
C1887 C1889 1.353 . S
C1887 H1928 0.929 . S
C1888 C1886 1.356 . S
C1888 C1890 1.358 . S
C1888 H1929 0.930 . S
C1889 C1887 1.353 . S
C1889 N1891 1.314 . S
C1889 H1930 0.930 . S
C1890 C1888 1.358 . S
C1890 N1891 1.279 . S
C1890 H1931 0.930 . S
N1891 C1889 1.314 . S
N1891 C1890 1.279 . S
C1892 C1894 1.353 . S
C1892 N1895 1.314 . S
C1892 H1898 0.930 . S
C1893 N1895 1.279 . S
C1893 C1896 1.358 . S
C1893 H1899 0.930 . S
C1894 C1892 1.353 . S
C1894 C1897 1.348 . S
C1894 H1932 0.929 . S
N1895 Li1850 1.990 . S
N1895 C1892 1.314 . S
N1895 C1893 1.279 . S
C1896 C1893 1.358 . S
C1896 C1897 1.356 . S
C1896 H1933 0.930 . S
C1897 C1894 1.348 . S
C1897 C1896 1.356 . S
H1898 C1892 0.930 . S
H1899 C1893 0.930 . S
C1900 N1901 1.314 . S
C1900 C1902 1.353 . S
C1900 H1906 0.930 . S
N1901 Li1851 1.990 . S
N1901 C1900 1.314 . S
N1901 C1904 1.279 . S
C1902 C1900 1.353 . S
C1902 C1905 1.348 . S
C1902 H1934 0.929 . S
C1903 C1904 1.358 . S
C1903 C1905 1.356 . S
C1903 H1935 0.930 . S
C1904 N1901 1.279 . S
C1904 C1903 1.358 . S
C1904 H1907 0.930 . S
C1905 C1902 1.348 . S
C1905 C1903 1.356 . S
H1906 C1900 0.930 . S
H1907 C1904 0.930 . S
O1908 Li1848 1.956 . S
O1908 Li1849 1.970 . S
O1908 Li1850 1.961 . S
O1908 C1852 1.325 . S
O1909 Li1848 1.970 . S
O1909 Li1849 1.956 . S
O1909 Li1851 1.961 . S
O1909 C1858 1.325 . S
O1910 Li1848 1.961 . S
O1910 Li1850 1.956 . S
O1910 Li1851 1.970 . S
O1910 C1880 1.325 . S
O1911 Li1849 1.961 . S
O1911 Li1850 1.970 . S
O1911 Li1851 1.956 . S
O1911 C1886 1.325 . S
H1912 C1854 0.929 . S
H1913 C1855 0.930 . S
H1914 C1856 0.930 . S
H1915 C1857 0.930 . S
H1916 C1859 0.930 . S
H1917 C1861 0.929 . S
H1918 C1862 0.930 . S
H1919 C1863 0.930 . S
H1920 C1866 0.930 . S
H1921 C1869 0.929 . S
H1922 C1874 0.929 . S
H1923 C1875 0.930 . S
H1924 C1882 0.929 . S
H1925 C1883 0.930 . S
H1926 C1884 0.930 . S
H1927 C1885 0.930 . S
H1928 C1887 0.929 . S
H1929 C1888 0.930 . S
H1930 C1889 0.930 . S
H1931 C1890 0.930 . S
H1932 C1894 0.929 . S
H1933 C1896 0.930 . S
H1934 C1902 0.929 . S
H1935 C1903 0.930 . S
Li1936 N1953 1.990 . S
Li1936 O1996 1.956 . S
Li1936 O1997 1.970 . S
Li1936 O1998 1.961 . S
Li1937 N1961 1.990 . S
Li1937 O1996 1.970 . S
Li1937 O1997 1.956 . S
Li1937 O1999 1.961 . S
Li1938 N1983 1.990 . S
Li1938 O1996 1.961 . S
Li1938 O1998 1.956 . S
Li1938 O1999 1.970 . S
Li1939 N1989 1.990 . S
Li1939 O1997 1.961 . S
Li1939 O1998 1.970 . S
Li1939 O1999 1.956 . S
C1940 C1942 1.348 . S
C1940 C1943 1.356 . S
C1940 O1996 1.325 . S
N1941 C1944 1.314 . S
N1941 C1945 1.279 . S
C1942 C1940 1.348 . S
C1942 C1944 1.353 . S
C1942 H2000 0.929 . S
C1943 C1940 1.356 . S
C1943 C1945 1.358 . S
C1943 H2001 0.930 . S
C1944 N1941 1.314 . S
C1944 C1942 1.353 . S
C1944 H2002 0.930 . S
C1945 N1941 1.279 . S
C1945 C1943 1.358 . S
C1945 H2003 0.930 . S
C1946 C1949 1.348 . S
C1946 C1950 1.356 . S
C1946 O1997 1.325 . S
C1947 N1948 1.279 . S
C1947 C1950 1.358 . S
C1947 H2004 0.930 . S
N1948 C1947 1.279 . S
N1948 C1951 1.314 . S
C1949 C1946 1.348 . S
C1949 C1951 1.353 . S
C1949 H2005 0.929 . S
C1950 C1946 1.356 . S
C1950 C1947 1.358 . S
C1950 H2006 0.930 . S
C1951 N1948 1.314 . S
C1951 C1949 1.353 . S
C1951 H2007 0.930 . S
C1952 N1953 1.314 . S
C1952 C1957 1.353 . S
C1952 H1958 0.930 . S
N1953 Li1936 1.990 . S
N1953 C1952 1.314 . S
N1953 C1955 1.279 . S
C1954 C1955 1.358 . S
C1954 C1956 1.356 . S
C1954 H2008 0.930 . S
C1955 N1953 1.279 . S
C1955 C1954 1.358 . S
C1955 H1959 0.930 . S
C1956 C1954 1.356 . S
C1956 C1957 1.348 . S
C1957 C1952 1.353 . S
C1957 C1956 1.348 . S
C1957 H2009 0.929 . S
H1958 C1952 0.930 . S
H1959 C1955 0.930 . S
C1960 N1961 1.314 . S
C1960 C1962 1.353 . S
C1960 H1966 0.930 . S
N1961 Li1937 1.990 . S
N1961 C1960 1.314 . S
N1961 C1964 1.279 . S
C1962 C1960 1.353 . S
C1962 C1965 1.348 . S
C1962 H2010 0.929 . S
C1963 C1964 1.358 . S
C1963 C1965 1.356 . S
C1963 H2011 0.930 . S
C1964 N1961 1.279 . S
C1964 C1963 1.358 . S
C1964 H1967 0.930 . S
C1965 C1962 1.348 . S
C1965 C1963 1.356 . S
H1966 C1960 0.930 . S
H1967 C1964 0.930 . S
C1968 C1970 1.348 . S
C1968 C1971 1.356 . S
C1968 O1998 1.325 . S
N1969 C1972 1.314 . S
N1969 C1973 1.279 . S
C1970 C1968 1.348 . S
C1970 C1972 1.353 . S
C1970 H2012 0.929 . S
C1971 C1968 1.356 . S
C1971 C1973 1.358 . S
C1971 H2013 0.930 . S
C1972 N1969 1.314 . S
C1972 C1970 1.353 . S
C1972 H2014 0.930 . S
C1973 N1969 1.279 . S
C1973 C1971 1.358 . S
C1973 H2015 0.930 . S
C1974 C1975 1.348 . S
C1974 C1976 1.356 . S
C1974 O1999 1.325 . S
C1975 C1974 1.348 . S
C1975 C1977 1.353 . S
C1975 H2016 0.929 . S
C1976 C1974 1.356 . S
C1976 C1978 1.358 . S
C1976 H2017 0.930 . S
C1977 C1975 1.353 . S
C1977 N1979 1.314 . S
C1977 H2018 0.930 . S
C1978 C1976 1.358 . S
C1978 N1979 1.279 . S
C1978 H2019 0.930 . S
N1979 C1977 1.314 . S
N1979 C1978 1.279 . S
C1980 C1982 1.353 . S
C1980 N1983 1.314 . S
C1980 H1986 0.930 . S
C1981 N1983 1.279 . S
C1981 C1984 1.358 . S
C1981 H1987 0.930 . S
C1982 C1980 1.353 . S
C1982 C1985 1.348 . S
C1982 H2020 0.929 . S
N1983 Li1938 1.990 . S
N1983 C1980 1.314 . S
N1983 C1981 1.279 . S
C1984 C1981 1.358 . S
C1984 C1985 1.356 . S
C1984 H2021 0.930 . S
C1985 C1982 1.348 . S
C1985 C1984 1.356 . S
H1986 C1980 0.930 . S
H1987 C1981 0.930 . S
C1988 N1989 1.314 . S
C1988 C1990 1.353 . S
C1988 H1994 0.930 . S
N1989 Li1939 1.990 . S
N1989 C1988 1.314 . S
N1989 C1992 1.279 . S
C1990 C1988 1.353 . S
C1990 C1993 1.348 . S
C1990 H2022 0.929 . S
C1991 C1992 1.358 . S
C1991 C1993 1.356 . S
C1991 H2023 0.930 . S
C1992 N1989 1.279 . S
C1992 C1991 1.358 . S
C1992 H1995 0.930 . S
C1993 C1990 1.348 . S
C1993 C1991 1.356 . S
H1994 C1988 0.930 . S
H1995 C1992 0.930 . S
O1996 Li1936 1.956 . S
O1996 Li1937 1.970 . S
O1996 Li1938 1.961 . S
O1996 C1940 1.325 . S
O1997 Li1936 1.970 . S
O1997 Li1937 1.956 . S
O1997 Li1939 1.961 . S
O1997 C1946 1.325 . S
O1998 Li1936 1.961 . S
O1998 Li1938 1.956 . S
O1998 Li1939 1.970 . S
O1998 C1968 1.325 . S
O1999 Li1937 1.961 . S
O1999 Li1938 1.970 . S
O1999 Li1939 1.956 . S
O1999 C1974 1.325 . S
H2000 C1942 0.929 . S
H2001 C1943 0.930 . S
H2002 C1944 0.930 . S
H2003 C1945 0.930 . S
H2004 C1947 0.930 . S
H2005 C1949 0.929 . S
H2006 C1950 0.930 . S
H2007 C1951 0.930 . S
H2008 C1954 0.930 . S
H2009 C1957 0.929 . S
H2010 C1962 0.929 . S
H2011 C1963 0.930 . S
H2012 C1970 0.929 . S
H2013 C1971 0.930 . S
H2014 C1972 0.930 . S
H2015 C1973 0.930 . S
H2016 C1975 0.929 . S
H2017 C1976 0.930 . S
H2018 C1977 0.930 . S
H2019 C1978 0.930 . S
H2020 C1982 0.929 . S
H2021 C1984 0.930 . S
H2022 C1990 0.929 . S
H2023 C1991 0.930 . S
Li2024 N2041 1.990 . S
Li2024 O2084 1.956 . S
Li2024 O2085 1.970 . S
Li2024 O2086 1.961 . S
Li2025 N2049 1.990 . S
Li2025 O2084 1.970 . S
Li2025 O2085 1.956 . S
Li2025 O2087 1.961 . S
Li2026 N2071 1.990 . S
Li2026 O2084 1.961 . S
Li2026 O2086 1.956 . S
Li2026 O2087 1.970 . S
Li2027 N2077 1.990 . S
Li2027 O2085 1.961 . S
Li2027 O2086 1.970 . S
Li2027 O2087 1.956 . S
C2028 C2030 1.348 . S
C2028 C2031 1.356 . S
C2028 O2084 1.325 . S
N2029 C2032 1.314 . S
N2029 C2033 1.279 . S
C2030 C2028 1.348 . S
C2030 C2032 1.353 . S
C2030 H2088 0.929 . S
C2031 C2028 1.356 . S
C2031 C2033 1.358 . S
C2031 H2089 0.930 . S
C2032 N2029 1.314 . S
C2032 C2030 1.353 . S
C2032 H2090 0.930 . S
C2033 N2029 1.279 . S
C2033 C2031 1.358 . S
C2033 H2091 0.930 . S
C2034 C2037 1.348 . S
C2034 C2038 1.356 . S
C2034 O2085 1.325 . S
C2035 N2036 1.279 . S
C2035 C2038 1.358 . S
C2035 H2092 0.930 . S
N2036 C2035 1.279 . S
N2036 C2039 1.314 . S
C2037 C2034 1.348 . S
C2037 C2039 1.353 . S
C2037 H2093 0.929 . S
C2038 C2034 1.356 . S
C2038 C2035 1.358 . S
C2038 H2094 0.930 . S
C2039 N2036 1.314 . S
C2039 C2037 1.353 . S
C2039 H2095 0.930 . S
C2040 N2041 1.314 . S
C2040 C2045 1.353 . S
C2040 H2046 0.930 . S
N2041 Li2024 1.990 . S
N2041 C2040 1.314 . S
N2041 C2043 1.279 . S
C2042 C2043 1.358 . S
C2042 C2044 1.356 . S
C2042 H2096 0.930 . S
C2043 N2041 1.279 . S
C2043 C2042 1.358 . S
C2043 H2047 0.930 . S
C2044 C2042 1.356 . S
C2044 C2045 1.348 . S
C2045 C2040 1.353 . S
C2045 C2044 1.348 . S
C2045 H2097 0.929 . S
H2046 C2040 0.930 . S
H2047 C2043 0.930 . S
C2048 N2049 1.314 . S
C2048 C2050 1.353 . S
C2048 H2054 0.930 . S
N2049 Li2025 1.990 . S
N2049 C2048 1.314 . S
N2049 C2052 1.279 . S
C2050 C2048 1.353 . S
C2050 C2053 1.348 . S
C2050 H2098 0.929 . S
C2051 C2052 1.358 . S
C2051 C2053 1.356 . S
C2051 H2099 0.930 . S
C2052 N2049 1.279 . S
C2052 C2051 1.358 . S
C2052 H2055 0.930 . S
C2053 C2050 1.348 . S
C2053 C2051 1.356 . S
H2054 C2048 0.930 . S
H2055 C2052 0.930 . S
C2056 C2058 1.348 . S
C2056 C2059 1.356 . S
C2056 O2086 1.325 . S
N2057 C2060 1.314 . S
N2057 C2061 1.279 . S
C2058 C2056 1.348 . S
C2058 C2060 1.353 . S
C2058 H2100 0.929 . S
C2059 C2056 1.356 . S
C2059 C2061 1.358 . S
C2059 H2101 0.930 . S
C2060 N2057 1.314 . S
C2060 C2058 1.353 . S
C2060 H2102 0.930 . S
C2061 N2057 1.279 . S
C2061 C2059 1.358 . S
C2061 H2103 0.930 . S
C2062 C2063 1.348 . S
C2062 C2064 1.356 . S
C2062 O2087 1.325 . S
C2063 C2062 1.348 . S
C2063 C2065 1.353 . S
C2063 H2104 0.929 . S
C2064 C2062 1.356 . S
C2064 C2066 1.358 . S
C2064 H2105 0.930 . S
C2065 C2063 1.353 . S
C2065 N2067 1.314 . S
C2065 H2106 0.930 . S
C2066 C2064 1.358 . S
C2066 N2067 1.279 . S
C2066 H2107 0.930 . S
N2067 C2065 1.314 . S
N2067 C2066 1.279 . S
C2068 C2070 1.353 . S
C2068 N2071 1.314 . S
C2068 H2074 0.930 . S
C2069 N2071 1.279 . S
C2069 C2072 1.358 . S
C2069 H2075 0.930 . S
C2070 C2068 1.353 . S
C2070 C2073 1.348 . S
C2070 H2108 0.929 . S
N2071 Li2026 1.990 . S
N2071 C2068 1.314 . S
N2071 C2069 1.279 . S
C2072 C2069 1.358 . S
C2072 C2073 1.356 . S
C2072 H2109 0.930 . S
C2073 C2070 1.348 . S
C2073 C2072 1.356 . S
H2074 C2068 0.930 . S
H2075 C2069 0.930 . S
C2076 N2077 1.314 . S
C2076 C2078 1.353 . S
C2076 H2082 0.930 . S
N2077 Li2027 1.990 . S
N2077 C2076 1.314 . S
N2077 C2080 1.279 . S
C2078 C2076 1.353 . S
C2078 C2081 1.348 . S
C2078 H2110 0.929 . S
C2079 C2080 1.358 . S
C2079 C2081 1.356 . S
C2079 H2111 0.930 . S
C2080 N2077 1.279 . S
C2080 C2079 1.358 . S
C2080 H2083 0.930 . S
C2081 C2078 1.348 . S
C2081 C2079 1.356 . S
H2082 C2076 0.930 . S
H2083 C2080 0.930 . S
O2084 Li2024 1.956 . S
O2084 Li2025 1.970 . S
O2084 Li2026 1.961 . S
O2084 C2028 1.325 . S
O2085 Li2024 1.970 . S
O2085 Li2025 1.956 . S
O2085 Li2027 1.961 . S
O2085 C2034 1.325 . S
O2086 Li2024 1.961 . S
O2086 Li2026 1.956 . S
O2086 Li2027 1.970 . S
O2086 C2056 1.325 . S
O2087 Li2025 1.961 . S
O2087 Li2026 1.970 . S
O2087 Li2027 1.956 . S
O2087 C2062 1.325 . S
H2088 C2030 0.929 . S
H2089 C2031 0.930 . S
H2090 C2032 0.930 . S
H2091 C2033 0.930 . S
H2092 C2035 0.930 . S
H2093 C2037 0.929 . S
H2094 C2038 0.930 . S
H2095 C2039 0.930 . S
H2096 C2042 0.930 . S
H2097 C2045 0.929 . S
H2098 C2050 0.929 . S
H2099 C2051 0.930 . S
H2100 C2058 0.929 . S
H2101 C2059 0.930 . S
H2102 C2060 0.930 . S
H2103 C2061 0.930 . S
H2104 C2063 0.929 . S
H2105 C2064 0.930 . S
H2106 C2065 0.930 . S
H2107 C2066 0.930 . S
H2108 C2070 0.929 . S
H2109 C2072 0.930 . S
H2110 C2078 0.929 . S
H2111 C2079 0.930 . S
Li2112 N2129 1.990 . S
Li2112 O2172 1.956 . S
Li2112 O2173 1.970 . S
Li2112 O2174 1.961 . S
Li2113 N2137 1.990 . S
Li2113 O2172 1.970 . S
Li2113 O2173 1.956 . S
Li2113 O2175 1.961 . S
Li2114 N2159 1.990 . S
Li2114 O2172 1.961 . S
Li2114 O2174 1.956 . S
Li2114 O2175 1.970 . S
Li2115 N2165 1.990 . S
Li2115 O2173 1.961 . S
Li2115 O2174 1.970 . S
Li2115 O2175 1.956 . S
C2116 C2118 1.348 . S
C2116 C2119 1.356 . S
C2116 O2172 1.325 . S
N2117 C2120 1.314 . S
N2117 C2121 1.279 . S
C2118 C2116 1.348 . S
C2118 C2120 1.353 . S
C2118 H2176 0.929 . S
C2119 C2116 1.356 . S
C2119 C2121 1.358 . S
C2119 H2177 0.930 . S
C2120 N2117 1.314 . S
C2120 C2118 1.353 . S
C2120 H2178 0.930 . S
C2121 N2117 1.279 . S
C2121 C2119 1.358 . S
C2121 H2179 0.930 . S
C2122 C2125 1.348 . S
C2122 C2126 1.356 . S
C2122 O2173 1.325 . S
C2123 N2124 1.279 . S
C2123 C2126 1.358 . S
C2123 H2180 0.930 . S
N2124 C2123 1.279 . S
N2124 C2127 1.314 . S
C2125 C2122 1.348 . S
C2125 C2127 1.353 . S
C2125 H2181 0.929 . S
C2126 C2122 1.356 . S
C2126 C2123 1.358 . S
C2126 H2182 0.930 . S
C2127 N2124 1.314 . S
C2127 C2125 1.353 . S
C2127 H2183 0.930 . S
C2128 N2129 1.314 . S
C2128 C2133 1.353 . S
C2128 H2134 0.930 . S
N2129 Li2112 1.990 . S
N2129 C2128 1.314 . S
N2129 C2131 1.279 . S
C2130 C2131 1.358 . S
C2130 C2132 1.356 . S
C2130 H2184 0.930 . S
C2131 N2129 1.279 . S
C2131 C2130 1.358 . S
C2131 H2135 0.930 . S
C2132 C2130 1.356 . S
C2132 C2133 1.348 . S
C2133 C2128 1.353 . S
C2133 C2132 1.348 . S
C2133 H2185 0.929 . S
H2134 C2128 0.930 . S
H2135 C2131 0.930 . S
C2136 N2137 1.314 . S
C2136 C2138 1.353 . S
C2136 H2142 0.930 . S
N2137 Li2113 1.990 . S
N2137 C2136 1.314 . S
N2137 C2140 1.279 . S
C2138 C2136 1.353 . S
C2138 C2141 1.348 . S
C2138 H2186 0.929 . S
C2139 C2140 1.358 . S
C2139 C2141 1.356 . S
C2139 H2187 0.930 . S
C2140 N2137 1.279 . S
C2140 C2139 1.358 . S
C2140 H2143 0.930 . S
C2141 C2138 1.348 . S
C2141 C2139 1.356 . S
H2142 C2136 0.930 . S
H2143 C2140 0.930 . S
C2144 C2146 1.348 . S
C2144 C2147 1.356 . S
C2144 O2174 1.325 . S
N2145 C2148 1.314 . S
N2145 C2149 1.279 . S
C2146 C2144 1.348 . S
C2146 C2148 1.353 . S
C2146 H2188 0.929 . S
C2147 C2144 1.356 . S
C2147 C2149 1.358 . S
C2147 H2189 0.930 . S
C2148 N2145 1.314 . S
C2148 C2146 1.353 . S
C2148 H2190 0.930 . S
C2149 N2145 1.279 . S
C2149 C2147 1.358 . S
C2149 H2191 0.930 . S
C2150 C2151 1.348 . S
C2150 C2152 1.356 . S
C2150 O2175 1.325 . S
C2151 C2150 1.348 . S
C2151 C2153 1.353 . S
C2151 H2192 0.929 . S
C2152 C2150 1.356 . S
C2152 C2154 1.358 . S
C2152 H2193 0.930 . S
C2153 C2151 1.353 . S
C2153 N2155 1.314 . S
C2153 H2194 0.930 . S
C2154 C2152 1.358 . S
C2154 N2155 1.279 . S
C2154 H2195 0.930 . S
N2155 C2153 1.314 . S
N2155 C2154 1.279 . S
C2156 C2158 1.353 . S
C2156 N2159 1.314 . S
C2156 H2162 0.930 . S
C2157 N2159 1.279 . S
C2157 C2160 1.358 . S
C2157 H2163 0.930 . S
C2158 C2156 1.353 . S
C2158 C2161 1.348 . S
C2158 H2196 0.929 . S
N2159 Li2114 1.990 . S
N2159 C2156 1.314 . S
N2159 C2157 1.279 . S
C2160 C2157 1.358 . S
C2160 C2161 1.356 . S
C2160 H2197 0.930 . S
C2161 C2158 1.348 . S
C2161 C2160 1.356 . S
H2162 C2156 0.930 . S
H2163 C2157 0.930 . S
C2164 N2165 1.314 . S
C2164 C2166 1.353 . S
C2164 H2170 0.930 . S
N2165 Li2115 1.990 . S
N2165 C2164 1.314 . S
N2165 C2168 1.279 . S
C2166 C2164 1.353 . S
C2166 C2169 1.348 . S
C2166 H2198 0.929 . S
C2167 C2168 1.358 . S
C2167 C2169 1.356 . S
C2167 H2199 0.930 . S
C2168 N2165 1.279 . S
C2168 C2167 1.358 . S
C2168 H2171 0.930 . S
C2169 C2166 1.348 . S
C2169 C2167 1.356 . S
H2170 C2164 0.930 . S
H2171 C2168 0.930 . S
O2172 Li2112 1.956 . S
O2172 Li2113 1.970 . S
O2172 Li2114 1.961 . S
O2172 C2116 1.325 . S
O2173 Li2112 1.970 . S
O2173 Li2113 1.956 . S
O2173 Li2115 1.961 . S
O2173 C2122 1.325 . S
O2174 Li2112 1.961 . S
O2174 Li2114 1.956 . S
O2174 Li2115 1.970 . S
O2174 C2144 1.325 . S
O2175 Li2113 1.961 . S
O2175 Li2114 1.970 . S
O2175 Li2115 1.956 . S
O2175 C2150 1.325 . S
H2176 C2118 0.929 . S
H2177 C2119 0.930 . S
H2178 C2120 0.930 . S
H2179 C2121 0.930 . S
H2180 C2123 0.930 . S
H2181 C2125 0.929 . S
H2182 C2126 0.930 . S
H2183 C2127 0.930 . S
H2184 C2130 0.930 . S
H2185 C2133 0.929 . S
H2186 C2138 0.929 . S
H2187 C2139 0.930 . S
H2188 C2146 0.929 . S
H2189 C2147 0.930 . S
H2190 C2148 0.930 . S
H2191 C2149 0.930 . S
H2192 C2151 0.929 . S
H2193 C2152 0.930 . S
H2194 C2153 0.930 . S
H2195 C2154 0.930 . S
H2196 C2158 0.929 . S
H2197 C2160 0.930 . S
H2198 C2166 0.929 . S
H2199 C2167 0.930 . S
Li2200 N2217 1.990 . S
Li2200 O2260 1.956 . S
Li2200 O2261 1.970 . S
Li2200 O2262 1.961 . S
Li2201 N2225 1.990 . S
Li2201 O2260 1.970 . S
Li2201 O2261 1.956 . S
Li2201 O2263 1.961 . S
Li2202 N2247 1.990 . S
Li2202 O2260 1.961 . S
Li2202 O2262 1.956 . S
Li2202 O2263 1.970 . S
Li2203 N2253 1.990 . S
Li2203 O2261 1.961 . S
Li2203 O2262 1.970 . S
Li2203 O2263 1.956 . S
C2204 C2206 1.348 . S
C2204 C2207 1.356 . S
C2204 O2260 1.325 . S
N2205 C2208 1.314 . S
N2205 C2209 1.279 . S
C2206 C2204 1.348 . S
C2206 C2208 1.353 . S
C2206 H2264 0.929 . S
C2207 C2204 1.356 . S
C2207 C2209 1.358 . S
C2207 H2265 0.930 . S
C2208 N2205 1.314 . S
C2208 C2206 1.353 . S
C2208 H2266 0.930 . S
C2209 N2205 1.279 . S
C2209 C2207 1.358 . S
C2209 H2267 0.930 . S
C2210 C2213 1.348 . S
C2210 C2214 1.356 . S
C2210 O2261 1.325 . S
C2211 N2212 1.279 . S
C2211 C2214 1.358 . S
C2211 H2268 0.930 . S
N2212 C2211 1.279 . S
N2212 C2215 1.314 . S
C2213 C2210 1.348 . S
C2213 C2215 1.353 . S
C2213 H2269 0.929 . S
C2214 C2210 1.356 . S
C2214 C2211 1.358 . S
C2214 H2270 0.930 . S
C2215 N2212 1.314 . S
C2215 C2213 1.353 . S
C2215 H2271 0.930 . S
C2216 N2217 1.314 . S
C2216 C2221 1.353 . S
C2216 H2222 0.930 . S
N2217 Li2200 1.990 . S
N2217 C2216 1.314 . S
N2217 C2219 1.279 . S
C2218 C2219 1.358 . S
C2218 C2220 1.356 . S
C2218 H2272 0.930 . S
C2219 N2217 1.279 . S
C2219 C2218 1.358 . S
C2219 H2223 0.930 . S
C2220 C2218 1.356 . S
C2220 C2221 1.348 . S
C2221 C2216 1.353 . S
C2221 C2220 1.348 . S
C2221 H2273 0.929 . S
H2222 C2216 0.930 . S
H2223 C2219 0.930 . S
C2224 N2225 1.314 . S
C2224 C2226 1.353 . S
C2224 H2230 0.930 . S
N2225 Li2201 1.990 . S
N2225 C2224 1.314 . S
N2225 C2228 1.279 . S
C2226 C2224 1.353 . S
C2226 C2229 1.348 . S
C2226 H2274 0.929 . S
C2227 C2228 1.358 . S
C2227 C2229 1.356 . S
C2227 H2275 0.930 . S
C2228 N2225 1.279 . S
C2228 C2227 1.358 . S
C2228 H2231 0.930 . S
C2229 C2226 1.348 . S
C2229 C2227 1.356 . S
H2230 C2224 0.930 . S
H2231 C2228 0.930 . S
C2232 C2234 1.348 . S
C2232 C2235 1.356 . S
C2232 O2262 1.325 . S
N2233 C2236 1.314 . S
N2233 C2237 1.279 . S
C2234 C2232 1.348 . S
C2234 C2236 1.353 . S
C2234 H2276 0.929 . S
C2235 C2232 1.356 . S
C2235 C2237 1.358 . S
C2235 H2277 0.930 . S
C2236 N2233 1.314 . S
C2236 C2234 1.353 . S
C2236 H2278 0.930 . S
C2237 N2233 1.279 . S
C2237 C2235 1.358 . S
C2237 H2279 0.930 . S
C2238 C2239 1.348 . S
C2238 C2240 1.356 . S
C2238 O2263 1.325 . S
C2239 C2238 1.348 . S
C2239 C2241 1.353 . S
C2239 H2280 0.929 . S
C2240 C2238 1.356 . S
C2240 C2242 1.358 . S
C2240 H2281 0.930 . S
C2241 C2239 1.353 . S
C2241 N2243 1.314 . S
C2241 H2282 0.930 . S
C2242 C2240 1.358 . S
C2242 N2243 1.279 . S
C2242 H2283 0.930 . S
N2243 C2241 1.314 . S
N2243 C2242 1.279 . S
C2244 C2246 1.353 . S
C2244 N2247 1.314 . S
C2244 H2250 0.930 . S
C2245 N2247 1.279 . S
C2245 C2248 1.358 . S
C2245 H2251 0.930 . S
C2246 C2244 1.353 . S
C2246 C2249 1.348 . S
C2246 H2284 0.929 . S
N2247 Li2202 1.990 . S
N2247 C2244 1.314 . S
N2247 C2245 1.279 . S
C2248 C2245 1.358 . S
C2248 C2249 1.356 . S
C2248 H2285 0.930 . S
C2249 C2246 1.348 . S
C2249 C2248 1.356 . S
H2250 C2244 0.930 . S
H2251 C2245 0.930 . S
C2252 N2253 1.314 . S
C2252 C2254 1.353 . S
C2252 H2258 0.930 . S
N2253 Li2203 1.990 . S
N2253 C2252 1.314 . S
N2253 C2256 1.279 . S
C2254 C2252 1.353 . S
C2254 C2257 1.348 . S
C2254 H2286 0.929 . S
C2255 C2256 1.358 . S
C2255 C2257 1.356 . S
C2255 H2287 0.930 . S
C2256 N2253 1.279 . S
C2256 C2255 1.358 . S
C2256 H2259 0.930 . S
C2257 C2254 1.348 . S
C2257 C2255 1.356 . S
H2258 C2252 0.930 . S
H2259 C2256 0.930 . S
O2260 Li2200 1.956 . S
O2260 Li2201 1.970 . S
O2260 Li2202 1.961 . S
O2260 C2204 1.325 . S
O2261 Li2200 1.970 . S
O2261 Li2201 1.956 . S
O2261 Li2203 1.961 . S
O2261 C2210 1.325 . S
O2262 Li2200 1.961 . S
O2262 Li2202 1.956 . S
O2262 Li2203 1.970 . S
O2262 C2232 1.325 . S
O2263 Li2201 1.961 . S
O2263 Li2202 1.970 . S
O2263 Li2203 1.956 . S
O2263 C2238 1.325 . S
H2264 C2206 0.929 . S
H2265 C2207 0.930 . S
H2266 C2208 0.930 . S
H2267 C2209 0.930 . S
H2268 C2211 0.930 . S
H2269 C2213 0.929 . S
H2270 C2214 0.930 . S
H2271 C2215 0.930 . S
H2272 C2218 0.930 . S
H2273 C2221 0.929 . S
H2274 C2226 0.929 . S
H2275 C2227 0.930 . S
H2276 C2234 0.929 . S
H2277 C2235 0.930 . S
H2278 C2236 0.930 . S
H2279 C2237 0.930 . S
H2280 C2239 0.929 . S
H2281 C2240 0.930 . S
H2282 C2241 0.930 . S
H2283 C2242 0.930 . S
H2284 C2246 0.929 . S
H2285 C2248 0.930 . S
H2286 C2254 0.929 . S
H2287 C2255 0.930 . S
Li2288 N2305 1.990 . S
Li2288 O2348 1.956 . S
Li2288 O2349 1.970 . S
Li2288 O2350 1.961 . S
Li2289 N2313 1.990 . S
Li2289 O2348 1.970 . S
Li2289 O2349 1.956 . S
Li2289 O2351 1.961 . S
Li2290 N2335 1.990 . S
Li2290 O2348 1.961 . S
Li2290 O2350 1.956 . S
Li2290 O2351 1.970 . S
Li2291 N2341 1.990 . S
Li2291 O2349 1.961 . S
Li2291 O2350 1.970 . S
Li2291 O2351 1.956 . S
C2292 C2294 1.348 . S
C2292 C2295 1.356 . S
C2292 O2348 1.325 . S
N2293 C2296 1.314 . S
N2293 C2297 1.279 . S
C2294 C2292 1.348 . S
C2294 C2296 1.353 . S
C2294 H2352 0.929 . S
C2295 C2292 1.356 . S
C2295 C2297 1.358 . S
C2295 H2353 0.930 . S
C2296 N2293 1.314 . S
C2296 C2294 1.353 . S
C2296 H2354 0.930 . S
C2297 N2293 1.279 . S
C2297 C2295 1.358 . S
C2297 H2355 0.930 . S
C2298 C2301 1.348 . S
C2298 C2302 1.356 . S
C2298 O2349 1.325 . S
C2299 N2300 1.279 . S
C2299 C2302 1.358 . S
C2299 H2356 0.930 . S
N2300 C2299 1.279 . S
N2300 C2303 1.314 . S
C2301 C2298 1.348 . S
C2301 C2303 1.353 . S
C2301 H2357 0.929 . S
C2302 C2298 1.356 . S
C2302 C2299 1.358 . S
C2302 H2358 0.930 . S
C2303 N2300 1.314 . S
C2303 C2301 1.353 . S
C2303 H2359 0.930 . S
C2304 N2305 1.314 . S
C2304 C2309 1.353 . S
C2304 H2310 0.930 . S
N2305 Li2288 1.990 . S
N2305 C2304 1.314 . S
N2305 C2307 1.279 . S
C2306 C2307 1.358 . S
C2306 C2308 1.356 . S
C2306 H2360 0.930 . S
C2307 N2305 1.279 . S
C2307 C2306 1.358 . S
C2307 H2311 0.930 . S
C2308 C2306 1.356 . S
C2308 C2309 1.348 . S
C2309 C2304 1.353 . S
C2309 C2308 1.348 . S
C2309 H2361 0.929 . S
H2310 C2304 0.930 . S
H2311 C2307 0.930 . S
C2312 N2313 1.314 . S
C2312 C2314 1.353 . S
C2312 H2318 0.930 . S
N2313 Li2289 1.990 . S
N2313 C2312 1.314 . S
N2313 C2316 1.279 . S
C2314 C2312 1.353 . S
C2314 C2317 1.348 . S
C2314 H2362 0.929 . S
C2315 C2316 1.358 . S
C2315 C2317 1.356 . S
C2315 H2363 0.930 . S
C2316 N2313 1.279 . S
C2316 C2315 1.358 . S
C2316 H2319 0.930 . S
C2317 C2314 1.348 . S
C2317 C2315 1.356 . S
H2318 C2312 0.930 . S
H2319 C2316 0.930 . S
C2320 C2322 1.348 . S
C2320 C2323 1.356 . S
C2320 O2350 1.325 . S
N2321 C2324 1.314 . S
N2321 C2325 1.279 . S
C2322 C2320 1.348 . S
C2322 C2324 1.353 . S
C2322 H2364 0.929 . S
C2323 C2320 1.356 . S
C2323 C2325 1.358 . S
C2323 H2365 0.930 . S
C2324 N2321 1.314 . S
C2324 C2322 1.353 . S
C2324 H2366 0.930 . S
C2325 N2321 1.279 . S
C2325 C2323 1.358 . S
C2325 H2367 0.930 . S
C2326 C2327 1.348 . S
C2326 C2328 1.356 . S
C2326 O2351 1.325 . S
C2327 C2326 1.348 . S
C2327 C2329 1.353 . S
C2327 H2368 0.929 . S
C2328 C2326 1.356 . S
C2328 C2330 1.358 . S
C2328 H2369 0.930 . S
C2329 C2327 1.353 . S
C2329 N2331 1.314 . S
C2329 H2370 0.930 . S
C2330 C2328 1.358 . S
C2330 N2331 1.279 . S
C2330 H2371 0.930 . S
N2331 C2329 1.314 . S
N2331 C2330 1.279 . S
C2332 C2334 1.353 . S
C2332 N2335 1.314 . S
C2332 H2338 0.930 . S
C2333 N2335 1.279 . S
C2333 C2336 1.358 . S
C2333 H2339 0.930 . S
C2334 C2332 1.353 . S
C2334 C2337 1.348 . S
C2334 H2372 0.929 . S
N2335 Li2290 1.990 . S
N2335 C2332 1.314 . S
N2335 C2333 1.279 . S
C2336 C2333 1.358 . S
C2336 C2337 1.356 . S
C2336 H2373 0.930 . S
C2337 C2334 1.348 . S
C2337 C2336 1.356 . S
H2338 C2332 0.930 . S
H2339 C2333 0.930 . S
C2340 N2341 1.314 . S
C2340 C2342 1.353 . S
C2340 H2346 0.930 . S
N2341 Li2291 1.990 . S
N2341 C2340 1.314 . S
N2341 C2344 1.279 . S
C2342 C2340 1.353 . S
C2342 C2345 1.348 . S
C2342 H2374 0.929 . S
C2343 C2344 1.358 . S
C2343 C2345 1.356 . S
C2343 H2375 0.930 . S
C2344 N2341 1.279 . S
C2344 C2343 1.358 . S
C2344 H2347 0.930 . S
C2345 C2342 1.348 . S
C2345 C2343 1.356 . S
H2346 C2340 0.930 . S
H2347 C2344 0.930 . S
O2348 Li2288 1.956 . S
O2348 Li2289 1.970 . S
O2348 Li2290 1.961 . S
O2348 C2292 1.325 . S
O2349 Li2288 1.970 . S
O2349 Li2289 1.956 . S
O2349 Li2291 1.961 . S
O2349 C2298 1.325 . S
O2350 Li2288 1.961 . S
O2350 Li2290 1.956 . S
O2350 Li2291 1.970 . S
O2350 C2320 1.325 . S
O2351 Li2289 1.961 . S
O2351 Li2290 1.970 . S
O2351 Li2291 1.956 . S
O2351 C2326 1.325 . S
H2352 C2294 0.929 . S
H2353 C2295 0.930 . S
H2354 C2296 0.930 . S
H2355 C2297 0.930 . S
H2356 C2299 0.930 . S
H2357 C2301 0.929 . S
H2358 C2302 0.930 . S
H2359 C2303 0.930 . S
H2360 C2306 0.930 . S
H2361 C2309 0.929 . S
H2362 C2314 0.929 . S
H2363 C2315 0.930 . S
H2364 C2322 0.929 . S
H2365 C2323 0.930 . S
H2366 C2324 0.930 . S
H2367 C2325 0.930 . S
H2368 C2327 0.929 . S
H2369 C2328 0.930 . S
H2370 C2329 0.930 . S
H2371 C2330 0.930 . S
H2372 C2334 0.929 . S
H2373 C2336 0.930 . S
H2374 C2342 0.929 . S
H2375 C2343 0.930 . S
Li2376 N2393 1.990 . S
Li2376 O2436 1.956 . S
Li2376 O2437 1.970 . S
Li2376 O2438 1.961 . S
Li2377 N2401 1.990 . S
Li2377 O2436 1.970 . S
Li2377 O2437 1.956 . S
Li2377 O2439 1.961 . S
Li2378 N2423 1.990 . S
Li2378 O2436 1.961 . S
Li2378 O2438 1.956 . S
Li2378 O2439 1.970 . S
Li2379 N2429 1.990 . S
Li2379 O2437 1.961 . S
Li2379 O2438 1.970 . S
Li2379 O2439 1.956 . S
C2380 C2382 1.348 . S
C2380 C2383 1.356 . S
C2380 O2436 1.325 . S
N2381 C2384 1.314 . S
N2381 C2385 1.279 . S
C2382 C2380 1.348 . S
C2382 C2384 1.353 . S
C2382 H2440 0.929 . S
C2383 C2380 1.356 . S
C2383 C2385 1.358 . S
C2383 H2441 0.930 . S
C2384 N2381 1.314 . S
C2384 C2382 1.353 . S
C2384 H2442 0.930 . S
C2385 N2381 1.279 . S
C2385 C2383 1.358 . S
C2385 H2443 0.930 . S
C2386 C2389 1.348 . S
C2386 C2390 1.356 . S
C2386 O2437 1.325 . S
C2387 N2388 1.279 . S
C2387 C2390 1.358 . S
C2387 H2444 0.930 . S
N2388 C2387 1.279 . S
N2388 C2391 1.314 . S
C2389 C2386 1.348 . S
C2389 C2391 1.353 . S
C2389 H2445 0.929 . S
C2390 C2386 1.356 . S
C2390 C2387 1.358 . S
C2390 H2446 0.930 . S
C2391 N2388 1.314 . S
C2391 C2389 1.353 . S
C2391 H2447 0.930 . S
C2392 N2393 1.314 . S
C2392 C2397 1.353 . S
C2392 H2398 0.930 . S
N2393 Li2376 1.990 . S
N2393 C2392 1.314 . S
N2393 C2395 1.279 . S
C2394 C2395 1.358 . S
C2394 C2396 1.356 . S
C2394 H2448 0.930 . S
C2395 N2393 1.279 . S
C2395 C2394 1.358 . S
C2395 H2399 0.930 . S
C2396 C2394 1.356 . S
C2396 C2397 1.348 . S
C2397 C2392 1.353 . S
C2397 C2396 1.348 . S
C2397 H2449 0.929 . S
H2398 C2392 0.930 . S
H2399 C2395 0.930 . S
C2400 N2401 1.314 . S
C2400 C2402 1.353 . S
C2400 H2406 0.930 . S
N2401 Li2377 1.990 . S
N2401 C2400 1.314 . S
N2401 C2404 1.279 . S
C2402 C2400 1.353 . S
C2402 C2405 1.348 . S
C2402 H2450 0.929 . S
C2403 C2404 1.358 . S
C2403 C2405 1.356 . S
C2403 H2451 0.930 . S
C2404 N2401 1.279 . S
C2404 C2403 1.358 . S
C2404 H2407 0.930 . S
C2405 C2402 1.348 . S
C2405 C2403 1.356 . S
H2406 C2400 0.930 . S
H2407 C2404 0.930 . S
C2408 C2410 1.348 . S
C2408 C2411 1.356 . S
C2408 O2438 1.325 . S
N2409 C2412 1.314 . S
N2409 C2413 1.279 . S
C2410 C2408 1.348 . S
C2410 C2412 1.353 . S
C2410 H2452 0.929 . S
C2411 C2408 1.356 . S
C2411 C2413 1.358 . S
C2411 H2453 0.930 . S
C2412 N2409 1.314 . S
C2412 C2410 1.353 . S
C2412 H2454 0.930 . S
C2413 N2409 1.279 . S
C2413 C2411 1.358 . S
C2413 H2455 0.930 . S
C2414 C2415 1.348 . S
C2414 C2416 1.356 . S
C2414 O2439 1.325 . S
C2415 C2414 1.348 . S
C2415 C2417 1.353 . S
C2415 H2456 0.929 . S
C2416 C2414 1.356 . S
C2416 C2418 1.358 . S
C2416 H2457 0.930 . S
C2417 C2415 1.353 . S
C2417 N2419 1.314 . S
C2417 H2458 0.930 . S
C2418 C2416 1.358 . S
C2418 N2419 1.279 . S
C2418 H2459 0.930 . S
N2419 C2417 1.314 . S
N2419 C2418 1.279 . S
C2420 C2422 1.353 . S
C2420 N2423 1.314 . S
C2420 H2426 0.930 . S
C2421 N2423 1.279 . S
C2421 C2424 1.358 . S
C2421 H2427 0.930 . S
C2422 C2420 1.353 . S
C2422 C2425 1.348 . S
C2422 H2460 0.929 . S
N2423 Li2378 1.990 . S
N2423 C2420 1.314 . S
N2423 C2421 1.279 . S
C2424 C2421 1.358 . S
C2424 C2425 1.356 . S
C2424 H2461 0.930 . S
C2425 C2422 1.348 . S
C2425 C2424 1.356 . S
H2426 C2420 0.930 . S
H2427 C2421 0.930 . S
C2428 N2429 1.314 . S
C2428 C2430 1.353 . S
C2428 H2434 0.930 . S
N2429 Li2379 1.990 . S
N2429 C2428 1.314 . S
N2429 C2432 1.279 . S
C2430 C2428 1.353 . S
C2430 C2433 1.348 . S
C2430 H2462 0.929 . S
C2431 C2432 1.358 . S
C2431 C2433 1.356 . S
C2431 H2463 0.930 . S
C2432 N2429 1.279 . S
C2432 C2431 1.358 . S
C2432 H2435 0.930 . S
C2433 C2430 1.348 . S
C2433 C2431 1.356 . S
H2434 C2428 0.930 . S
H2435 C2432 0.930 . S
O2436 Li2376 1.956 . S
O2436 Li2377 1.970 . S
O2436 Li2378 1.961 . S
O2436 C2380 1.325 . S
O2437 Li2376 1.970 . S
O2437 Li2377 1.956 . S
O2437 Li2379 1.961 . S
O2437 C2386 1.325 . S
O2438 Li2376 1.961 . S
O2438 Li2378 1.956 . S
O2438 Li2379 1.970 . S
O2438 C2408 1.325 . S
O2439 Li2377 1.961 . S
O2439 Li2378 1.970 . S
O2439 Li2379 1.956 . S
O2439 C2414 1.325 . S
H2440 C2382 0.929 . S
H2441 C2383 0.930 . S
H2442 C2384 0.930 . S
H2443 C2385 0.930 . S
H2444 C2387 0.930 . S
H2445 C2389 0.929 . S
H2446 C2390 0.930 . S
H2447 C2391 0.930 . S
H2448 C2394 0.930 . S
H2449 C2397 0.929 . S
H2450 C2402 0.929 . S
H2451 C2403 0.930 . S
H2452 C2410 0.929 . S
H2453 C2411 0.930 . S
H2454 C2412 0.930 . S
H2455 C2413 0.930 . S
H2456 C2415 0.929 . S
H2457 C2416 0.930 . S
H2458 C2417 0.930 . S
H2459 C2418 0.930 . S
H2460 C2422 0.929 . S
H2461 C2424 0.930 . S
H2462 C2430 0.929 . S
H2463 C2431 0.930 . S
Li2464 N2481 1.990 . S
Li2464 O2524 1.956 . S
Li2464 O2525 1.970 . S
Li2464 O2526 1.961 . S
Li2465 N2489 1.990 . S
Li2465 O2524 1.970 . S
Li2465 O2525 1.956 . S
Li2465 O2527 1.961 . S
Li2466 N2511 1.990 . S
Li2466 O2524 1.961 . S
Li2466 O2526 1.956 . S
Li2466 O2527 1.970 . S
Li2467 N2517 1.990 . S
Li2467 O2525 1.961 . S
Li2467 O2526 1.970 . S
Li2467 O2527 1.956 . S
C2468 C2470 1.348 . S
C2468 C2471 1.356 . S
C2468 O2524 1.325 . S
N2469 C2472 1.314 . S
N2469 C2473 1.279 . S
C2470 C2468 1.348 . S
C2470 C2472 1.353 . S
C2470 H2528 0.929 . S
C2471 C2468 1.356 . S
C2471 C2473 1.358 . S
C2471 H2529 0.930 . S
C2472 N2469 1.314 . S
C2472 C2470 1.353 . S
C2472 H2530 0.930 . S
C2473 N2469 1.279 . S
C2473 C2471 1.358 . S
C2473 H2531 0.930 . S
C2474 C2477 1.348 . S
C2474 C2478 1.356 . S
C2474 O2525 1.325 . S
C2475 N2476 1.279 . S
C2475 C2478 1.358 . S
C2475 H2532 0.930 . S
N2476 C2475 1.279 . S
N2476 C2479 1.314 . S
C2477 C2474 1.348 . S
C2477 C2479 1.353 . S
C2477 H2533 0.929 . S
C2478 C2474 1.356 . S
C2478 C2475 1.358 . S
C2478 H2534 0.930 . S
C2479 N2476 1.314 . S
C2479 C2477 1.353 . S
C2479 H2535 0.930 . S
C2480 N2481 1.314 . S
C2480 C2485 1.353 . S
C2480 H2486 0.930 . S
N2481 Li2464 1.990 . S
N2481 C2480 1.314 . S
N2481 C2483 1.279 . S
C2482 C2483 1.358 . S
C2482 C2484 1.356 . S
C2482 H2536 0.930 . S
C2483 N2481 1.279 . S
C2483 C2482 1.358 . S
C2483 H2487 0.930 . S
C2484 C2482 1.356 . S
C2484 C2485 1.348 . S
C2485 C2480 1.353 . S
C2485 C2484 1.348 . S
C2485 H2537 0.929 . S
H2486 C2480 0.930 . S
H2487 C2483 0.930 . S
C2488 N2489 1.314 . S
C2488 C2490 1.353 . S
C2488 H2494 0.930 . S
N2489 Li2465 1.990 . S
N2489 C2488 1.314 . S
N2489 C2492 1.279 . S
C2490 C2488 1.353 . S
C2490 C2493 1.348 . S
C2490 H2538 0.929 . S
C2491 C2492 1.358 . S
C2491 C2493 1.356 . S
C2491 H2539 0.930 . S
C2492 N2489 1.279 . S
C2492 C2491 1.358 . S
C2492 H2495 0.930 . S
C2493 C2490 1.348 . S
C2493 C2491 1.356 . S
H2494 C2488 0.930 . S
H2495 C2492 0.930 . S
C2496 C2498 1.348 . S
C2496 C2499 1.356 . S
C2496 O2526 1.325 . S
N2497 C2500 1.314 . S
N2497 C2501 1.279 . S
C2498 C2496 1.348 . S
C2498 C2500 1.353 . S
C2498 H2540 0.929 . S
C2499 C2496 1.356 . S
C2499 C2501 1.358 . S
C2499 H2541 0.930 . S
C2500 N2497 1.314 . S
C2500 C2498 1.353 . S
C2500 H2542 0.930 . S
C2501 N2497 1.279 . S
C2501 C2499 1.358 . S
C2501 H2543 0.930 . S
C2502 C2503 1.348 . S
C2502 C2504 1.356 . S
C2502 O2527 1.325 . S
C2503 C2502 1.348 . S
C2503 C2505 1.353 . S
C2503 H2544 0.929 . S
C2504 C2502 1.356 . S
C2504 C2506 1.358 . S
C2504 H2545 0.930 . S
C2505 C2503 1.353 . S
C2505 N2507 1.314 . S
C2505 H2546 0.930 . S
C2506 C2504 1.358 . S
C2506 N2507 1.279 . S
C2506 H2547 0.930 . S
N2507 C2505 1.314 . S
N2507 C2506 1.279 . S
C2508 C2510 1.353 . S
C2508 N2511 1.314 . S
C2508 H2514 0.930 . S
C2509 N2511 1.279 . S
C2509 C2512 1.358 . S
C2509 H2515 0.930 . S
C2510 C2508 1.353 . S
C2510 C2513 1.348 . S
C2510 H2548 0.929 . S
N2511 Li2466 1.990 . S
N2511 C2508 1.314 . S
N2511 C2509 1.279 . S
C2512 C2509 1.358 . S
C2512 C2513 1.356 . S
C2512 H2549 0.930 . S
C2513 C2510 1.348 . S
C2513 C2512 1.356 . S
H2514 C2508 0.930 . S
H2515 C2509 0.930 . S
C2516 N2517 1.314 . S
C2516 C2518 1.353 . S
C2516 H2522 0.930 . S
N2517 Li2467 1.990 . S
N2517 C2516 1.314 . S
N2517 C2520 1.279 . S
C2518 C2516 1.353 . S
C2518 C2521 1.348 . S
C2518 H2550 0.929 . S
C2519 C2520 1.358 . S
C2519 C2521 1.356 . S
C2519 H2551 0.930 . S
C2520 N2517 1.279 . S
C2520 C2519 1.358 . S
C2520 H2523 0.930 . S
C2521 C2518 1.348 . S
C2521 C2519 1.356 . S
H2522 C2516 0.930 . S
H2523 C2520 0.930 . S
O2524 Li2464 1.956 . S
O2524 Li2465 1.970 . S
O2524 Li2466 1.961 . S
O2524 C2468 1.325 . S
O2525 Li2464 1.970 . S
O2525 Li2465 1.956 . S
O2525 Li2467 1.961 . S
O2525 C2474 1.325 . S
O2526 Li2464 1.961 . S
O2526 Li2466 1.956 . S
O2526 Li2467 1.970 . S
O2526 C2496 1.325 . S
O2527 Li2465 1.961 . S
O2527 Li2466 1.970 . S
O2527 Li2467 1.956 . S
O2527 C2502 1.325 . S
H2528 C2470 0.929 . S
H2529 C2471 0.930 . S
H2530 C2472 0.930 . S
H2531 C2473 0.930 . S
H2532 C2475 0.930 . S
H2533 C2477 0.929 . S
H2534 C2478 0.930 . S
H2535 C2479 0.930 . S
H2536 C2482 0.930 . S
H2537 C2485 0.929 . S
H2538 C2490 0.929 . S
H2539 C2491 0.930 . S
H2540 C2498 0.929 . S
H2541 C2499 0.930 . S
H2542 C2500 0.930 . S
H2543 C2501 0.930 . S
H2544 C2503 0.929 . S
H2545 C2504 0.930 . S
H2546 C2505 0.930 . S
H2547 C2506 0.930 . S
H2548 C2510 0.929 . S
H2549 C2512 0.930 . S
H2550 C2518 0.929 . S
H2551 C2519 0.930 . S
Li2552 N2569 1.990 . S
Li2552 O2612 1.956 . S
Li2552 O2613 1.970 . S
Li2552 O2614 1.961 . S
Li2553 N2577 1.990 . S
Li2553 O2612 1.970 . S
Li2553 O2613 1.956 . S
Li2553 O2615 1.961 . S
Li2554 N2599 1.990 . S
Li2554 O2612 1.961 . S
Li2554 O2614 1.956 . S
Li2554 O2615 1.970 . S
Li2555 N2605 1.990 . S
Li2555 O2613 1.961 . S
Li2555 O2614 1.970 . S
Li2555 O2615 1.956 . S
C2556 C2558 1.348 . S
C2556 C2559 1.356 . S
C2556 O2612 1.325 . S
N2557 C2560 1.314 . S
N2557 C2561 1.279 . S
C2558 C2556 1.348 . S
C2558 C2560 1.353 . S
C2558 H2616 0.929 . S
C2559 C2556 1.356 . S
C2559 C2561 1.358 . S
C2559 H2617 0.930 . S
C2560 N2557 1.314 . S
C2560 C2558 1.353 . S
C2560 H2618 0.930 . S
C2561 N2557 1.279 . S
C2561 C2559 1.358 . S
C2561 H2619 0.930 . S
C2562 C2565 1.348 . S
C2562 C2566 1.356 . S
C2562 O2613 1.325 . S
C2563 N2564 1.279 . S
C2563 C2566 1.358 . S
C2563 H2620 0.930 . S
N2564 C2563 1.279 . S
N2564 C2567 1.314 . S
C2565 C2562 1.348 . S
C2565 C2567 1.353 . S
C2565 H2621 0.929 . S
C2566 C2562 1.356 . S
C2566 C2563 1.358 . S
C2566 H2622 0.930 . S
C2567 N2564 1.314 . S
C2567 C2565 1.353 . S
C2567 H2623 0.930 . S
C2568 N2569 1.314 . S
C2568 C2573 1.353 . S
C2568 H2574 0.930 . S
N2569 Li2552 1.990 . S
N2569 C2568 1.314 . S
N2569 C2571 1.279 . S
C2570 C2571 1.358 . S
C2570 C2572 1.356 . S
C2570 H2624 0.930 . S
C2571 N2569 1.279 . S
C2571 C2570 1.358 . S
C2571 H2575 0.930 . S
C2572 C2570 1.356 . S
C2572 C2573 1.348 . S
C2573 C2568 1.353 . S
C2573 C2572 1.348 . S
C2573 H2625 0.929 . S
H2574 C2568 0.930 . S
H2575 C2571 0.930 . S
C2576 N2577 1.314 . S
C2576 C2578 1.353 . S
C2576 H2582 0.930 . S
N2577 Li2553 1.990 . S
N2577 C2576 1.314 . S
N2577 C2580 1.279 . S
C2578 C2576 1.353 . S
C2578 C2581 1.348 . S
C2578 H2626 0.929 . S
C2579 C2580 1.358 . S
C2579 C2581 1.356 . S
C2579 H2627 0.930 . S
C2580 N2577 1.279 . S
C2580 C2579 1.358 . S
C2580 H2583 0.930 . S
C2581 C2578 1.348 . S
C2581 C2579 1.356 . S
H2582 C2576 0.930 . S
H2583 C2580 0.930 . S
C2584 C2586 1.348 . S
C2584 C2587 1.356 . S
C2584 O2614 1.325 . S
N2585 C2588 1.314 . S
N2585 C2589 1.279 . S
C2586 C2584 1.348 . S
C2586 C2588 1.353 . S
C2586 H2628 0.929 . S
C2587 C2584 1.356 . S
C2587 C2589 1.358 . S
C2587 H2629 0.930 . S
C2588 N2585 1.314 . S
C2588 C2586 1.353 . S
C2588 H2630 0.930 . S
C2589 N2585 1.279 . S
C2589 C2587 1.358 . S
C2589 H2631 0.930 . S
C2590 C2591 1.348 . S
C2590 C2592 1.356 . S
C2590 O2615 1.325 . S
C2591 C2590 1.348 . S
C2591 C2593 1.353 . S
C2591 H2632 0.929 . S
C2592 C2590 1.356 . S
C2592 C2594 1.358 . S
C2592 H2633 0.930 . S
C2593 C2591 1.353 . S
C2593 N2595 1.314 . S
C2593 H2634 0.930 . S
C2594 C2592 1.358 . S
C2594 N2595 1.279 . S
C2594 H2635 0.930 . S
N2595 C2593 1.314 . S
N2595 C2594 1.279 . S
C2596 C2598 1.353 . S
C2596 N2599 1.314 . S
C2596 H2602 0.930 . S
C2597 N2599 1.279 . S
C2597 C2600 1.358 . S
C2597 H2603 0.930 . S
C2598 C2596 1.353 . S
C2598 C2601 1.348 . S
C2598 H2636 0.929 . S
N2599 Li2554 1.990 . S
N2599 C2596 1.314 . S
N2599 C2597 1.279 . S
C2600 C2597 1.358 . S
C2600 C2601 1.356 . S
C2600 H2637 0.930 . S
C2601 C2598 1.348 . S
C2601 C2600 1.356 . S
H2602 C2596 0.930 . S
H2603 C2597 0.930 . S
C2604 N2605 1.314 . S
C2604 C2606 1.353 . S
C2604 H2610 0.930 . S
N2605 Li2555 1.990 . S
N2605 C2604 1.314 . S
N2605 C2608 1.279 . S
C2606 C2604 1.353 . S
C2606 C2609 1.348 . S
C2606 H2638 0.929 . S
C2607 C2608 1.358 . S
C2607 C2609 1.356 . S
C2607 H2639 0.930 . S
C2608 N2605 1.279 . S
C2608 C2607 1.358 . S
C2608 H2611 0.930 . S
C2609 C2606 1.348 . S
C2609 C2607 1.356 . S
H2610 C2604 0.930 . S
H2611 C2608 0.930 . S
O2612 Li2552 1.956 . S
O2612 Li2553 1.970 . S
O2612 Li2554 1.961 . S
O2612 C2556 1.325 . S
O2613 Li2552 1.970 . S
O2613 Li2553 1.956 . S
O2613 Li2555 1.961 . S
O2613 C2562 1.325 . S
O2614 Li2552 1.961 . S
O2614 Li2554 1.956 . S
O2614 Li2555 1.970 . S
O2614 C2584 1.325 . S
O2615 Li2553 1.961 . S
O2615 Li2554 1.970 . S
O2615 Li2555 1.956 . S
O2615 C2590 1.325 . S
H2616 C2558 0.929 . S
H2617 C2559 0.930 . S
H2618 C2560 0.930 . S
H2619 C2561 0.930 . S
H2620 C2563 0.930 . S
H2621 C2565 0.929 . S
H2622 C2566 0.930 . S
H2623 C2567 0.930 . S
H2624 C2570 0.930 . S
H2625 C2573 0.929 . S
H2626 C2578 0.929 . S
H2627 C2579 0.930 . S
H2628 C2586 0.929 . S
H2629 C2587 0.930 . S
H2630 C2588 0.930 . S
H2631 C2589 0.930 . S
H2632 C2591 0.929 . S
H2633 C2592 0.930 . S
H2634 C2593 0.930 . S
H2635 C2594 0.930 . S
H2636 C2598 0.929 . S
H2637 C2600 0.930 . S
H2638 C2606 0.929 . S
H2639 C2607 0.930 . S
Li2640 N2657 1.990 . S
Li2640 O2700 1.956 . S
Li2640 O2701 1.970 . S
Li2640 O2702 1.961 . S
Li2641 N2665 1.990 . S
Li2641 O2700 1.970 . S
Li2641 O2701 1.956 . S
Li2641 O2703 1.961 . S
Li2642 N2687 1.990 . S
Li2642 O2700 1.961 . S
Li2642 O2702 1.956 . S
Li2642 O2703 1.970 . S
Li2643 N2693 1.990 . S
Li2643 O2701 1.961 . S
Li2643 O2702 1.970 . S
Li2643 O2703 1.956 . S
C2644 C2646 1.348 . S
C2644 C2647 1.356 . S
C2644 O2700 1.325 . S
N2645 C2648 1.314 . S
N2645 C2649 1.279 . S
C2646 C2644 1.348 . S
C2646 C2648 1.353 . S
C2646 H2704 0.929 . S
C2647 C2644 1.356 . S
C2647 C2649 1.358 . S
C2647 H2705 0.930 . S
C2648 N2645 1.314 . S
C2648 C2646 1.353 . S
C2648 H2706 0.930 . S
C2649 N2645 1.279 . S
C2649 C2647 1.358 . S
C2649 H2707 0.930 . S
C2650 C2653 1.348 . S
C2650 C2654 1.356 . S
C2650 O2701 1.325 . S
C2651 N2652 1.279 . S
C2651 C2654 1.358 . S
C2651 H2708 0.930 . S
N2652 C2651 1.279 . S
N2652 C2655 1.314 . S
C2653 C2650 1.348 . S
C2653 C2655 1.353 . S
C2653 H2709 0.929 . S
C2654 C2650 1.356 . S
C2654 C2651 1.358 . S
C2654 H2710 0.930 . S
C2655 N2652 1.314 . S
C2655 C2653 1.353 . S
C2655 H2711 0.930 . S
C2656 N2657 1.314 . S
C2656 C2661 1.353 . S
C2656 H2662 0.930 . S
N2657 Li2640 1.990 . S
N2657 C2656 1.314 . S
N2657 C2659 1.279 . S
C2658 C2659 1.358 . S
C2658 C2660 1.356 . S
C2658 H2712 0.930 . S
C2659 N2657 1.279 . S
C2659 C2658 1.358 . S
C2659 H2663 0.930 . S
C2660 C2658 1.356 . S
C2660 C2661 1.348 . S
C2661 C2656 1.353 . S
C2661 C2660 1.348 . S
C2661 H2713 0.929 . S
H2662 C2656 0.930 . S
H2663 C2659 0.930 . S
C2664 N2665 1.314 . S
C2664 C2666 1.353 . S
C2664 H2670 0.930 . S
N2665 Li2641 1.990 . S
N2665 C2664 1.314 . S
N2665 C2668 1.279 . S
C2666 C2664 1.353 . S
C2666 C2669 1.348 . S
C2666 H2714 0.929 . S
C2667 C2668 1.358 . S
C2667 C2669 1.356 . S
C2667 H2715 0.930 . S
C2668 N2665 1.279 . S
C2668 C2667 1.358 . S
C2668 H2671 0.930 . S
C2669 C2666 1.348 . S
C2669 C2667 1.356 . S
H2670 C2664 0.930 . S
H2671 C2668 0.930 . S
C2672 C2674 1.348 . S
C2672 C2675 1.356 . S
C2672 O2702 1.325 . S
N2673 C2676 1.314 . S
N2673 C2677 1.279 . S
C2674 C2672 1.348 . S
C2674 C2676 1.353 . S
C2674 H2716 0.929 . S
C2675 C2672 1.356 . S
C2675 C2677 1.358 . S
C2675 H2717 0.930 . S
C2676 N2673 1.314 . S
C2676 C2674 1.353 . S
C2676 H2718 0.930 . S
C2677 N2673 1.279 . S
C2677 C2675 1.358 . S
C2677 H2719 0.930 . S
C2678 C2679 1.348 . S
C2678 C2680 1.356 . S
C2678 O2703 1.325 . S
C2679 C2678 1.348 . S
C2679 C2681 1.353 . S
C2679 H2720 0.929 . S
C2680 C2678 1.356 . S
C2680 C2682 1.358 . S
C2680 H2721 0.930 . S
C2681 C2679 1.353 . S
C2681 N2683 1.314 . S
C2681 H2722 0.930 . S
C2682 C2680 1.358 . S
C2682 N2683 1.279 . S
C2682 H2723 0.930 . S
N2683 C2681 1.314 . S
N2683 C2682 1.279 . S
C2684 C2686 1.353 . S
C2684 N2687 1.314 . S
C2684 H2690 0.930 . S
C2685 N2687 1.279 . S
C2685 C2688 1.358 . S
C2685 H2691 0.930 . S
C2686 C2684 1.353 . S
C2686 C2689 1.348 . S
C2686 H2724 0.929 . S
N2687 Li2642 1.990 . S
N2687 C2684 1.314 . S
N2687 C2685 1.279 . S
C2688 C2685 1.358 . S
C2688 C2689 1.356 . S
C2688 H2725 0.930 . S
C2689 C2686 1.348 . S
C2689 C2688 1.356 . S
H2690 C2684 0.930 . S
H2691 C2685 0.930 . S
C2692 N2693 1.314 . S
C2692 C2694 1.353 . S
C2692 H2698 0.930 . S
N2693 Li2643 1.990 . S
N2693 C2692 1.314 . S
N2693 C2696 1.279 . S
C2694 C2692 1.353 . S
C2694 C2697 1.348 . S
C2694 H2726 0.929 . S
C2695 C2696 1.358 . S
C2695 C2697 1.356 . S
C2695 H2727 0.930 . S
C2696 N2693 1.279 . S
C2696 C2695 1.358 . S
C2696 H2699 0.930 . S
C2697 C2694 1.348 . S
C2697 C2695 1.356 . S
H2698 C2692 0.930 . S
H2699 C2696 0.930 . S
O2700 Li2640 1.956 . S
O2700 Li2641 1.970 . S
O2700 Li2642 1.961 . S
O2700 C2644 1.325 . S
O2701 Li2640 1.970 . S
O2701 Li2641 1.956 . S
O2701 Li2643 1.961 . S
O2701 C2650 1.325 . S
O2702 Li2640 1.961 . S
O2702 Li2642 1.956 . S
O2702 Li2643 1.970 . S
O2702 C2672 1.325 . S
O2703 Li2641 1.961 . S
O2703 Li2642 1.970 . S
O2703 Li2643 1.956 . S
O2703 C2678 1.325 . S
H2704 C2646 0.929 . S
H2705 C2647 0.930 . S
H2706 C2648 0.930 . S
H2707 C2649 0.930 . S
H2708 C2651 0.930 . S
H2709 C2653 0.929 . S
H2710 C2654 0.930 . S
H2711 C2655 0.930 . S
H2712 C2658 0.930 . S
H2713 C2661 0.929 . S
H2714 C2666 0.929 . S
H2715 C2667 0.930 . S
H2716 C2674 0.929 . S
H2717 C2675 0.930 . S
H2718 C2676 0.930 . S
H2719 C2677 0.930 . S
H2720 C2679 0.929 . S
H2721 C2680 0.930 . S
H2722 C2681 0.930 . S
H2723 C2682 0.930 . S
H2724 C2686 0.929 . S
H2725 C2688 0.930 . S
H2726 C2694 0.929 . S
H2727 C2695 0.930 . S
Li2728 N2745 1.990 . S
Li2728 O2788 1.956 . S
Li2728 O2789 1.970 . S
Li2728 O2790 1.961 . S
Li2729 N2753 1.990 . S
Li2729 O2788 1.970 . S
Li2729 O2789 1.956 . S
Li2729 O2791 1.961 . S
Li2730 N2775 1.990 . S
Li2730 O2788 1.961 . S
Li2730 O2790 1.956 . S
Li2730 O2791 1.970 . S
Li2731 N2781 1.990 . S
Li2731 O2789 1.961 . S
Li2731 O2790 1.970 . S
Li2731 O2791 1.956 . S
C2732 C2734 1.348 . S
C2732 C2735 1.356 . S
C2732 O2788 1.325 . S
N2733 C2736 1.314 . S
N2733 C2737 1.279 . S
C2734 C2732 1.348 . S
C2734 C2736 1.353 . S
C2734 H2792 0.929 . S
C2735 C2732 1.356 . S
C2735 C2737 1.358 . S
C2735 H2793 0.930 . S
C2736 N2733 1.314 . S
C2736 C2734 1.353 . S
C2736 H2794 0.930 . S
C2737 N2733 1.279 . S
C2737 C2735 1.358 . S
C2737 H2795 0.930 . S
C2738 C2741 1.348 . S
C2738 C2742 1.356 . S
C2738 O2789 1.325 . S
C2739 N2740 1.279 . S
C2739 C2742 1.358 . S
C2739 H2796 0.930 . S
N2740 C2739 1.279 . S
N2740 C2743 1.314 . S
C2741 C2738 1.348 . S
C2741 C2743 1.353 . S
C2741 H2797 0.929 . S
C2742 C2738 1.356 . S
C2742 C2739 1.358 . S
C2742 H2798 0.930 . S
C2743 N2740 1.314 . S
C2743 C2741 1.353 . S
C2743 H2799 0.930 . S
C2744 N2745 1.314 . S
C2744 C2749 1.353 . S
C2744 H2750 0.930 . S
N2745 Li2728 1.990 . S
N2745 C2744 1.314 . S
N2745 C2747 1.279 . S
C2746 C2747 1.358 . S
C2746 C2748 1.356 . S
C2746 H2800 0.930 . S
C2747 N2745 1.279 . S
C2747 C2746 1.358 . S
C2747 H2751 0.930 . S
C2748 C2746 1.356 . S
C2748 C2749 1.348 . S
C2749 C2744 1.353 . S
C2749 C2748 1.348 . S
C2749 H2801 0.929 . S
H2750 C2744 0.930 . S
H2751 C2747 0.930 . S
C2752 N2753 1.314 . S
C2752 C2754 1.353 . S
C2752 H2758 0.930 . S
N2753 Li2729 1.990 . S
N2753 C2752 1.314 . S
N2753 C2756 1.279 . S
C2754 C2752 1.353 . S
C2754 C2757 1.348 . S
C2754 H2802 0.929 . S
C2755 C2756 1.358 . S
C2755 C2757 1.356 . S
C2755 H2803 0.930 . S
C2756 N2753 1.279 . S
C2756 C2755 1.358 . S
C2756 H2759 0.930 . S
C2757 C2754 1.348 . S
C2757 C2755 1.356 . S
H2758 C2752 0.930 . S
H2759 C2756 0.930 . S
C2760 C2762 1.348 . S
C2760 C2763 1.356 . S
C2760 O2790 1.325 . S
N2761 C2764 1.314 . S
N2761 C2765 1.279 . S
C2762 C2760 1.348 . S
C2762 C2764 1.353 . S
C2762 H2804 0.929 . S
C2763 C2760 1.356 . S
C2763 C2765 1.358 . S
C2763 H2805 0.930 . S
C2764 N2761 1.314 . S
C2764 C2762 1.353 . S
C2764 H2806 0.930 . S
C2765 N2761 1.279 . S
C2765 C2763 1.358 . S
C2765 H2807 0.930 . S
C2766 C2767 1.348 . S
C2766 C2768 1.356 . S
C2766 O2791 1.325 . S
C2767 C2766 1.348 . S
C2767 C2769 1.353 . S
C2767 H2808 0.929 . S
C2768 C2766 1.356 . S
C2768 C2770 1.358 . S
C2768 H2809 0.930 . S
C2769 C2767 1.353 . S
C2769 N2771 1.314 . S
C2769 H2810 0.930 . S
C2770 C2768 1.358 . S
C2770 N2771 1.279 . S
C2770 H2811 0.930 . S
N2771 C2769 1.314 . S
N2771 C2770 1.279 . S
C2772 C2774 1.353 . S
C2772 N2775 1.314 . S
C2772 H2778 0.930 . S
C2773 N2775 1.279 . S
C2773 C2776 1.358 . S
C2773 H2779 0.930 . S
C2774 C2772 1.353 . S
C2774 C2777 1.348 . S
C2774 H2812 0.929 . S
N2775 Li2730 1.990 . S
N2775 C2772 1.314 . S
N2775 C2773 1.279 . S
C2776 C2773 1.358 . S
C2776 C2777 1.356 . S
C2776 H2813 0.930 . S
C2777 C2774 1.348 . S
C2777 C2776 1.356 . S
H2778 C2772 0.930 . S
H2779 C2773 0.930 . S
C2780 N2781 1.314 . S
C2780 C2782 1.353 . S
C2780 H2786 0.930 . S
N2781 Li2731 1.990 . S
N2781 C2780 1.314 . S
N2781 C2784 1.279 . S
C2782 C2780 1.353 . S
C2782 C2785 1.348 . S
C2782 H2814 0.929 . S
C2783 C2784 1.358 . S
C2783 C2785 1.356 . S
C2783 H2815 0.930 . S
C2784 N2781 1.279 . S
C2784 C2783 1.358 . S
C2784 H2787 0.930 . S
C2785 C2782 1.348 . S
C2785 C2783 1.356 . S
H2786 C2780 0.930 . S
H2787 C2784 0.930 . S
O2788 Li2728 1.956 . S
O2788 Li2729 1.970 . S
O2788 Li2730 1.961 . S
O2788 C2732 1.325 . S
O2789 Li2728 1.970 . S
O2789 Li2729 1.956 . S
O2789 Li2731 1.961 . S
O2789 C2738 1.325 . S
O2790 Li2728 1.961 . S
O2790 Li2730 1.956 . S
O2790 Li2731 1.970 . S
O2790 C2760 1.325 . S
O2791 Li2729 1.961 . S
O2791 Li2730 1.970 . S
O2791 Li2731 1.956 . S
O2791 C2766 1.325 . S
H2792 C2734 0.929 . S
H2793 C2735 0.930 . S
H2794 C2736 0.930 . S
H2795 C2737 0.930 . S
H2796 C2739 0.930 . S
H2797 C2741 0.929 . S
H2798 C2742 0.930 . S
H2799 C2743 0.930 . S
H2800 C2746 0.930 . S
H2801 C2749 0.929 . S
H2802 C2754 0.929 . S
H2803 C2755 0.930 . S
H2804 C2762 0.929 . S
H2805 C2763 0.930 . S
H2806 C2764 0.930 . S
H2807 C2765 0.930 . S
H2808 C2767 0.929 . S
H2809 C2768 0.930 . S
H2810 C2769 0.930 . S
H2811 C2770 0.930 . S
H2812 C2774 0.929 . S
H2813 C2776 0.930 . S
H2814 C2782 0.929 . S
H2815 C2783 0.930 . S
H2816 C2822 0.930 . S
H2817 C2826 0.930 . S
H2818 C2831 0.929 . S
H2819 C2829 0.929 . S
H2820 C2824 0.929 . S
H2821 C2830 0.929 . S
C2822 H2816 0.930 . S
C2822 C2823 1.367 . S
C2822 C2830 1.378 . S
C2823 C2822 1.367 . S
C2823 C2831 1.433 . S
C2824 H2820 0.929 . S
C2824 C2826 1.378 . S
C2824 C2828 1.350 . S
C2825 C2828 1.463 . S
C2825 C2830 1.350 . S
C2825 N2833 1.427 . S
C2826 H2817 0.930 . S
C2826 C2824 1.378 . S
C2826 C2827 1.367 . S
C2827 C2826 1.367 . S
C2827 C2829 1.433 . S
C2828 C2824 1.350 . S
C2828 C2825 1.463 . S
C2828 N2832 1.427 . S
C2829 H2819 0.929 . S
C2829 C2827 1.433 . S
C2829 N2832 1.384 . S
C2830 H2821 0.929 . S
C2830 C2822 1.378 . S
C2830 C2825 1.350 . S
C2831 H2818 0.929 . S
C2831 C2823 1.433 . S
C2831 N2833 1.384 . S
N2832 C2828 1.427 . S
N2832 C2829 1.384 . S
N2833 C2825 1.427 . S
N2833 C2831 1.384 . S
H2834 C2840 0.930 . S
H2835 C2844 0.930 . S
H2836 C2849 0.929 . S
H2837 C2847 0.929 . S
H2838 C2842 0.929 . S
H2839 C2848 0.929 . S
C2840 H2834 0.930 . S
C2840 C2841 1.367 . S
C2840 C2848 1.378 . S
C2841 C2840 1.367 . S
C2841 C2849 1.433 . S
C2842 H2838 0.929 . S
C2842 C2844 1.378 . S
C2842 C2846 1.350 . S
C2843 C2846 1.463 . S
C2843 C2848 1.350 . S
C2843 N2851 1.427 . S
C2844 H2835 0.930 . S
C2844 C2842 1.378 . S
C2844 C2845 1.367 . S
C2845 C2844 1.367 . S
C2845 C2847 1.433 . S
C2846 C2842 1.350 . S
C2846 C2843 1.463 . S
C2846 N2850 1.427 . S
C2847 H2837 0.929 . S
C2847 C2845 1.433 . S
C2847 N2850 1.384 . S
C2848 H2839 0.929 . S
C2848 C2840 1.378 . S
C2848 C2843 1.350 . S
C2849 H2836 0.929 . S
C2849 C2841 1.433 . S
C2849 N2851 1.384 . S
N2850 C2846 1.427 . S
N2850 C2847 1.384 . S
N2851 C2843 1.427 . S
N2851 C2849 1.384 . S
H2852 C2858 0.930 . S
H2853 C2862 0.930 . S
H2854 C2867 0.929 . S
H2855 C2865 0.929 . S
H2856 C2860 0.929 . S
H2857 C2866 0.929 . S
C2858 H2852 0.930 . S
C2858 C2859 1.367 . S
C2858 C2866 1.378 . S
C2859 C2858 1.367 . S
C2859 C2867 1.433 . S
C2860 H2856 0.929 . S
C2860 C2862 1.378 . S
C2860 C2864 1.350 . S
C2861 C2864 1.463 . S
C2861 C2866 1.350 . S
C2861 N2869 1.427 . S
C2862 H2853 0.930 . S
C2862 C2860 1.378 . S
C2862 C2863 1.367 . S
C2863 C2862 1.367 . S
C2863 C2865 1.433 . S
C2864 C2860 1.350 . S
C2864 C2861 1.463 . S
C2864 N2868 1.427 . S
C2865 H2855 0.929 . S
C2865 C2863 1.433 . S
C2865 N2868 1.384 . S
C2866 H2857 0.929 . S
C2866 C2858 1.378 . S
C2866 C2861 1.350 . S
C2867 H2854 0.929 . S
C2867 C2859 1.433 . S
C2867 N2869 1.384 . S
N2868 C2864 1.427 . S
N2868 C2865 1.384 . S
N2869 C2861 1.427 . S
N2869 C2867 1.384 . S
H2870 C2876 0.930 . S
H2871 C2880 0.930 . S
H2872 C2885 0.929 . S
H2873 C2883 0.929 . S
H2874 C2878 0.929 . S
H2875 C2884 0.929 . S
C2876 H2870 0.930 . S
C2876 C2877 1.367 . S
C2876 C2884 1.378 . S
C2877 C2876 1.367 . S
C2877 C2885 1.433 . S
C2878 H2874 0.929 . S
C2878 C2880 1.378 . S
C2878 C2882 1.350 . S
C2879 C2882 1.463 . S
C2879 C2884 1.350 . S
C2879 N2887 1.427 . S
C2880 H2871 0.930 . S
C2880 C2878 1.378 . S
C2880 C2881 1.367 . S
C2881 C2880 1.367 . S
C2881 C2883 1.433 . S
C2882 C2878 1.350 . S
C2882 C2879 1.463 . S
C2882 N2886 1.427 . S
C2883 H2873 0.929 . S
C2883 C2881 1.433 . S
C2883 N2886 1.384 . S
C2884 H2875 0.929 . S
C2884 C2876 1.378 . S
C2884 C2879 1.350 . S
C2885 H2872 0.929 . S
C2885 C2877 1.433 . S
C2885 N2887 1.384 . S
N2886 C2882 1.427 . S
N2886 C2883 1.384 . S
N2887 C2879 1.427 . S
N2887 C2885 1.384 . S
H2888 C2894 0.930 . S
H2889 C2898 0.930 . S
H2890 C2903 0.929 . S
H2891 C2901 0.929 . S
H2892 C2896 0.929 . S
H2893 C2902 0.929 . S
C2894 H2888 0.930 . S
C2894 C2895 1.367 . S
C2894 C2902 1.378 . S
C2895 C2894 1.367 . S
C2895 C2903 1.433 . S
C2896 H2892 0.929 . S
C2896 C2898 1.378 . S
C2896 C2900 1.350 . S
C2897 C2900 1.463 . S
C2897 C2902 1.350 . S
C2897 N2905 1.427 . S
C2898 H2889 0.930 . S
C2898 C2896 1.378 . S
C2898 C2899 1.367 . S
C2899 C2898 1.367 . S
C2899 C2901 1.433 . S
C2900 C2896 1.350 . S
C2900 C2897 1.463 . S
C2900 N2904 1.427 . S
C2901 H2891 0.929 . S
C2901 C2899 1.433 . S
C2901 N2904 1.384 . S
C2902 H2893 0.929 . S
C2902 C2894 1.378 . S
C2902 C2897 1.350 . S
C2903 H2890 0.929 . S
C2903 C2895 1.433 . S
C2903 N2905 1.384 . S
N2904 C2900 1.427 . S
N2904 C2901 1.384 . S
N2905 C2897 1.427 . S
N2905 C2903 1.384 . S
H2906 C2912 0.930 . S
H2907 C2916 0.930 . S
H2908 C2921 0.929 . S
H2909 C2919 0.929 . S
H2910 C2914 0.929 . S
H2911 C2920 0.929 . S
C2912 H2906 0.930 . S
C2912 C2913 1.367 . S
C2912 C2920 1.378 . S
C2913 C2912 1.367 . S
C2913 C2921 1.433 . S
C2914 H2910 0.929 . S
C2914 C2916 1.378 . S
C2914 C2918 1.350 . S
C2915 C2918 1.463 . S
C2915 C2920 1.350 . S
C2915 N2923 1.427 . S
C2916 H2907 0.930 . S
C2916 C2914 1.378 . S
C2916 C2917 1.367 . S
C2917 C2916 1.367 . S
C2917 C2919 1.433 . S
C2918 C2914 1.350 . S
C2918 C2915 1.463 . S
C2918 N2922 1.427 . S
C2919 H2909 0.929 . S
C2919 C2917 1.433 . S
C2919 N2922 1.384 . S
C2920 H2911 0.929 . S
C2920 C2912 1.378 . S
C2920 C2915 1.350 . S
C2921 H2908 0.929 . S
C2921 C2913 1.433 . S
C2921 N2923 1.384 . S
N2922 C2918 1.427 . S
N2922 C2919 1.384 . S
N2923 C2915 1.427 . S
N2923 C2921 1.384 . S
H2924 C2930 0.930 . S
H2925 C2934 0.930 . S
H2926 C2939 0.929 . S
H2927 C2937 0.929 . S
H2928 C2932 0.929 . S
H2929 C2938 0.929 . S
C2930 H2924 0.930 . S
C2930 C2931 1.367 . S
C2930 C2938 1.378 . S
C2931 C2930 1.367 . S
C2931 C2939 1.433 . S
C2932 H2928 0.929 . S
C2932 C2934 1.378 . S
C2932 C2936 1.350 . S
C2933 C2936 1.463 . S
C2933 C2938 1.350 . S
C2933 N2941 1.427 . S
C2934 H2925 0.930 . S
C2934 C2932 1.378 . S
C2934 C2935 1.367 . S
C2935 C2934 1.367 . S
C2935 C2937 1.433 . S
C2936 C2932 1.350 . S
C2936 C2933 1.463 . S
C2936 N2940 1.427 . S
C2937 H2927 0.929 . S
C2937 C2935 1.433 . S
C2937 N2940 1.384 . S
C2938 H2929 0.929 . S
C2938 C2930 1.378 . S
C2938 C2933 1.350 . S
C2939 H2926 0.929 . S
C2939 C2931 1.433 . S
C2939 N2941 1.384 . S
N2940 C2936 1.427 . S
N2940 C2937 1.384 . S
N2941 C2933 1.427 . S
N2941 C2939 1.384 . S
H2942 C2948 0.930 . S
H2943 C2952 0.930 . S
H2944 C2957 0.929 . S
H2945 C2955 0.929 . S
H2946 C2950 0.929 . S
H2947 C2956 0.929 . S
C2948 H2942 0.930 . S
C2948 C2949 1.367 . S
C2948 C2956 1.378 . S
C2949 C2948 1.367 . S
C2949 C2957 1.433 . S
C2950 H2946 0.929 . S
C2950 C2952 1.378 . S
C2950 C2954 1.350 . S
C2951 C2954 1.463 . S
C2951 C2956 1.350 . S
C2951 N2959 1.427 . S
C2952 H2943 0.930 . S
C2952 C2950 1.378 . S
C2952 C2953 1.367 . S
C2953 C2952 1.367 . S
C2953 C2955 1.433 . S
C2954 C2950 1.350 . S
C2954 C2951 1.463 . S
C2954 N2958 1.427 . S
C2955 H2945 0.929 . S
C2955 C2953 1.433 . S
C2955 N2958 1.384 . S
C2956 H2947 0.929 . S
C2956 C2948 1.378 . S
C2956 C2951 1.350 . S
C2957 H2944 0.929 . S
C2957 C2949 1.433 . S
C2957 N2959 1.384 . S
N2958 C2954 1.427 . S
N2958 C2955 1.384 . S
N2959 C2951 1.427 . S
N2959 C2957 1.384 . S
H2960 C2966 0.930 . S
H2961 C2970 0.930 . S
H2962 C2975 0.929 . S
H2963 C2973 0.929 . S
H2964 C2968 0.929 . S
H2965 C2974 0.929 . S
C2966 H2960 0.930 . S
C2966 C2967 1.367 . S
C2966 C2974 1.378 . S
C2967 C2966 1.367 . S
C2967 C2975 1.433 . S
C2968 H2964 0.929 . S
C2968 C2970 1.378 . S
C2968 C2972 1.350 . S
C2969 C2972 1.463 . S
C2969 C2974 1.350 . S
C2969 N2977 1.427 . S
C2970 H2961 0.930 . S
C2970 C2968 1.378 . S
C2970 C2971 1.367 . S
C2971 C2970 1.367 . S
C2971 C2973 1.433 . S
C2972 C2968 1.350 . S
C2972 C2969 1.463 . S
C2972 N2976 1.427 . S
C2973 H2963 0.929 . S
C2973 C2971 1.433 . S
C2973 N2976 1.384 . S
C2974 H2965 0.929 . S
C2974 C2966 1.378 . S
C2974 C2969 1.350 . S
C2975 H2962 0.929 . S
C2975 C2967 1.433 . S
C2975 N2977 1.384 . S
N2976 C2972 1.427 . S
N2976 C2973 1.384 . S
N2977 C2969 1.427 . S
N2977 C2975 1.384 . S
H2978 C2984 0.930 . S
H2979 C2988 0.930 . S
H2980 C2993 0.929 . S
H2981 C2991 0.929 . S
H2982 C2986 0.929 . S
H2983 C2992 0.929 . S
C2984 H2978 0.930 . S
C2984 C2985 1.367 . S
C2984 C2992 1.378 . S
C2985 C2984 1.367 . S
C2985 C2993 1.433 . S
C2986 H2982 0.929 . S
C2986 C2988 1.378 . S
C2986 C2990 1.350 . S
C2987 C2990 1.463 . S
C2987 C2992 1.350 . S
C2987 N2995 1.427 . S
C2988 H2979 0.930 . S
C2988 C2986 1.378 . S
C2988 C2989 1.367 . S
C2989 C2988 1.367 . S
C2989 C2991 1.433 . S
C2990 C2986 1.350 . S
C2990 C2987 1.463 . S
C2990 N2994 1.427 . S
C2991 H2981 0.929 . S
C2991 C2989 1.433 . S
C2991 N2994 1.384 . S
C2992 H2983 0.929 . S
C2992 C2984 1.378 . S
C2992 C2987 1.350 . S
C2993 H2980 0.929 . S
C2993 C2985 1.433 . S
C2993 N2995 1.384 . S
N2994 C2990 1.427 . S
N2994 C2991 1.384 . S
N2995 C2987 1.427 . S
N2995 C2993 1.384 . S
H2996 C3002 0.930 . S
H2997 C3006 0.930 . S
H2998 C3011 0.929 . S
H2999 C3009 0.929 . S
H3000 C3004 0.929 . S
H3001 C3010 0.929 . S
C3002 H2996 0.930 . S
C3002 C3003 1.367 . S
C3002 C3010 1.378 . S
C3003 C3002 1.367 . S
C3003 C3011 1.433 . S
C3004 H3000 0.929 . S
C3004 C3006 1.378 . S
C3004 C3008 1.350 . S
C3005 C3008 1.463 . S
C3005 C3010 1.350 . S
C3005 N3013 1.427 . S
C3006 H2997 0.930 . S
C3006 C3004 1.378 . S
C3006 C3007 1.367 . S
C3007 C3006 1.367 . S
C3007 C3009 1.433 . S
C3008 C3004 1.350 . S
C3008 C3005 1.463 . S
C3008 N3012 1.427 . S
C3009 H2999 0.929 . S
C3009 C3007 1.433 . S
C3009 N3012 1.384 . S
C3010 H3001 0.929 . S
C3010 C3002 1.378 . S
C3010 C3005 1.350 . S
C3011 H2998 0.929 . S
C3011 C3003 1.433 . S
C3011 N3013 1.384 . S
N3012 C3008 1.427 . S
N3012 C3009 1.384 . S
N3013 C3005 1.427 . S
N3013 C3011 1.384 . S
H3014 C3020 0.930 . S
H3015 C3024 0.930 . S
H3016 C3029 0.929 . S
H3017 C3027 0.929 . S
H3018 C3022 0.929 . S
H3019 C3028 0.929 . S
C3020 H3014 0.930 . S
C3020 C3021 1.367 . S
C3020 C3028 1.378 . S
C3021 C3020 1.367 . S
C3021 C3029 1.433 . S
C3022 H3018 0.929 . S
C3022 C3024 1.378 . S
C3022 C3026 1.350 . S
C3023 C3026 1.463 . S
C3023 C3028 1.350 . S
C3023 N3031 1.427 . S
C3024 H3015 0.930 . S
C3024 C3022 1.378 . S
C3024 C3025 1.367 . S
C3025 C3024 1.367 . S
C3025 C3027 1.433 . S
C3026 C3022 1.350 . S
C3026 C3023 1.463 . S
C3026 N3030 1.427 . S
C3027 H3017 0.929 . S
C3027 C3025 1.433 . S
C3027 N3030 1.384 . S
C3028 H3019 0.929 . S
C3028 C3020 1.378 . S
C3028 C3023 1.350 . S
C3029 H3016 0.929 . S
C3029 C3021 1.433 . S
C3029 N3031 1.384 . S
N3030 C3026 1.427 . S
N3030 C3027 1.384 . S
N3031 C3023 1.427 . S
N3031 C3029 1.384 . S
H3032 C3038 0.930 . S
H3033 C3042 0.930 . S
H3034 C3047 0.929 . S
H3035 C3045 0.929 . S
H3036 C3040 0.929 . S
H3037 C3046 0.929 . S
C3038 H3032 0.930 . S
C3038 C3039 1.367 . S
C3038 C3046 1.378 . S
C3039 C3038 1.367 . S
C3039 C3047 1.433 . S
C3040 H3036 0.929 . S
C3040 C3042 1.378 . S
C3040 C3044 1.350 . S
C3041 C3044 1.463 . S
C3041 C3046 1.350 . S
C3041 N3049 1.427 . S
C3042 H3033 0.930 . S
C3042 C3040 1.378 . S
C3042 C3043 1.367 . S
C3043 C3042 1.367 . S
C3043 C3045 1.433 . S
C3044 C3040 1.350 . S
C3044 C3041 1.463 . S
C3044 N3048 1.427 . S
C3045 H3035 0.929 . S
C3045 C3043 1.433 . S
C3045 N3048 1.384 . S
C3046 H3037 0.929 . S
C3046 C3038 1.378 . S
C3046 C3041 1.350 . S
C3047 H3034 0.929 . S
C3047 C3039 1.433 . S
C3047 N3049 1.384 . S
N3048 C3044 1.427 . S
N3048 C3045 1.384 . S
N3049 C3041 1.427 . S
N3049 C3047 1.384 . S
H3050 C3056 0.930 . S
H3051 C3060 0.930 . S
H3052 C3065 0.929 . S
H3053 C3063 0.929 . S
H3054 C3058 0.929 . S
H3055 C3064 0.929 . S
C3056 H3050 0.930 . S
C3056 C3057 1.367 . S
C3056 C3064 1.378 . S
C3057 C3056 1.367 . S
C3057 C3065 1.433 . S
C3058 H3054 0.929 . S
C3058 C3060 1.378 . S
C3058 C3062 1.350 . S
C3059 C3062 1.463 . S
C3059 C3064 1.350 . S
C3059 N3067 1.427 . S
C3060 H3051 0.930 . S
C3060 C3058 1.378 . S
C3060 C3061 1.367 . S
C3061 C3060 1.367 . S
C3061 C3063 1.433 . S
C3062 C3058 1.350 . S
C3062 C3059 1.463 . S
C3062 N3066 1.427 . S
C3063 H3053 0.929 . S
C3063 C3061 1.433 . S
C3063 N3066 1.384 . S
C3064 H3055 0.929 . S
C3064 C3056 1.378 . S
C3064 C3059 1.350 . S
C3065 H3052 0.929 . S
C3065 C3057 1.433 . S
C3065 N3067 1.384 . S
N3066 C3062 1.427 . S
N3066 C3063 1.384 . S
N3067 C3059 1.427 . S
N3067 C3065 1.384 . S
H3068 C3074 0.930 . S
H3069 C3078 0.930 . S
H3070 C3083 0.929 . S
H3071 C3081 0.929 . S
H3072 C3076 0.929 . S
H3073 C3082 0.929 . S
C3074 H3068 0.930 . S
C3074 C3075 1.367 . S
C3074 C3082 1.378 . S
C3075 C3074 1.367 . S
C3075 C3083 1.433 . S
C3076 H3072 0.929 . S
C3076 C3078 1.378 . S
C3076 C3080 1.350 . S
C3077 C3080 1.463 . S
C3077 C3082 1.350 . S
C3077 N3085 1.427 . S
C3078 H3069 0.930 . S
C3078 C3076 1.378 . S
C3078 C3079 1.367 . S
C3079 C3078 1.367 . S
C3079 C3081 1.433 . S
C3080 C3076 1.350 . S
C3080 C3077 1.463 . S
C3080 N3084 1.427 . S
C3081 H3071 0.929 . S
C3081 C3079 1.433 . S
C3081 N3084 1.384 . S
C3082 H3073 0.929 . S
C3082 C3074 1.378 . S
C3082 C3077 1.350 . S
C3083 H3070 0.929 . S
C3083 C3075 1.433 . S
C3083 N3085 1.384 . S
N3084 C3080 1.427 . S
N3084 C3081 1.384 . S
N3085 C3077 1.427 . S
N3085 C3083 1.384 . S
H3086 C3092 0.930 . S
H3087 C3096 0.930 . S
H3088 C3101 0.929 . S
H3089 C3099 0.929 . S
H3090 C3094 0.929 . S
H3091 C3100 0.929 . S
C3092 H3086 0.930 . S
C3092 C3093 1.367 . S
C3092 C3100 1.378 . S
C3093 C3092 1.367 . S
C3093 C3101 1.433 . S
C3094 H3090 0.929 . S
C3094 C3096 1.378 . S
C3094 C3098 1.350 . S
C3095 C3098 1.463 . S
C3095 C3100 1.350 . S
C3095 N3103 1.427 . S
C3096 H3087 0.930 . S
C3096 C3094 1.378 . S
C3096 C3097 1.367 . S
C3097 C3096 1.367 . S
C3097 C3099 1.433 . S
C3098 C3094 1.350 . S
C3098 C3095 1.463 . S
C3098 N3102 1.427 . S
C3099 H3089 0.929 . S
C3099 C3097 1.433 . S
C3099 N3102 1.384 . S
C3100 H3091 0.929 . S
C3100 C3092 1.378 . S
C3100 C3095 1.350 . S
C3101 H3088 0.929 . S
C3101 C3093 1.433 . S
C3101 N3103 1.384 . S
N3102 C3098 1.427 . S
N3102 C3099 1.384 . S
N3103 C3095 1.427 . S
N3103 C3101 1.384 . S
H3104 C3110 0.930 . S
H3105 C3114 0.930 . S
H3106 C3119 0.929 . S
H3107 C3117 0.929 . S
H3108 C3112 0.929 . S
H3109 C3118 0.929 . S
C3110 H3104 0.930 . S
C3110 C3111 1.367 . S
C3110 C3118 1.378 . S
C3111 C3110 1.367 . S
C3111 C3119 1.433 . S
C3112 H3108 0.929 . S
C3112 C3114 1.378 . S
C3112 C3116 1.350 . S
C3113 C3116 1.463 1_554 S
C3113 C3118 1.350 . S
C3113 N3121 1.427 . S
C3114 H3105 0.930 . S
C3114 C3112 1.378 . S
C3114 C3115 1.367 . S
C3115 C3114 1.367 . S
C3115 C3117 1.433 . S
C3116 C3112 1.350 . S
C3116 C3113 1.463 1_556 S
C3116 N3120 1.427 . S
C3117 H3107 0.929 . S
C3117 C3115 1.433 . S
C3117 N3120 1.384 . S
C3118 H3109 0.929 . S
C3118 C3110 1.378 . S
C3118 C3113 1.350 . S
C3119 H3106 0.929 . S
C3119 C3111 1.433 . S
C3119 N3121 1.384 . S
N3120 C3116 1.427 . S
N3120 C3117 1.384 . S
N3121 C3113 1.427 . S
N3121 C3119 1.384 . S
H3122 C3128 0.930 . S
H3123 C3132 0.930 . S
H3124 C3137 0.929 . S
H3125 C3135 0.929 . S
H3126 C3130 0.929 . S
H3127 C3136 0.929 . S
C3128 H3122 0.930 . S
C3128 C3129 1.367 . S
C3128 C3136 1.378 . S
C3129 C3128 1.367 . S
C3129 C3137 1.433 . S
C3130 H3126 0.929 . S
C3130 C3132 1.378 . S
C3130 C3134 1.350 . S
C3131 C3134 1.463 1_556 S
C3131 C3136 1.350 . S
C3131 N3139 1.427 . S
C3132 H3123 0.930 . S
C3132 C3130 1.378 . S
C3132 C3133 1.367 . S
C3133 C3132 1.367 . S
C3133 C3135 1.433 . S
C3134 C3130 1.350 . S
C3134 C3131 1.463 1_554 S
C3134 N3138 1.427 . S
C3135 H3125 0.929 . S
C3135 C3133 1.433 . S
C3135 N3138 1.384 . S
C3136 H3127 0.929 . S
C3136 C3128 1.378 . S
C3136 C3131 1.350 . S
C3137 H3124 0.929 . S
C3137 C3129 1.433 . S
C3137 N3139 1.384 . S
N3138 C3134 1.427 . S
N3138 C3135 1.384 . S
N3139 C3131 1.427 . S
N3139 C3137 1.384 . S
H3140 C3146 0.930 . S
H3141 C3150 0.930 . S
H3142 C3155 0.929 . S
H3143 C3153 0.929 . S
H3144 C3148 0.929 . S
H3145 C3154 0.929 . S
C3146 H3140 0.930 . S
C3146 C3147 1.367 . S
C3146 C3154 1.378 . S
C3147 C3146 1.367 . S
C3147 C3155 1.433 . S
C3148 H3144 0.929 . S
C3148 C3150 1.378 . S
C3148 C3152 1.350 . S
C3149 C3152 1.463 1_556 S
C3149 C3154 1.350 . S
C3149 N3157 1.427 . S
C3150 H3141 0.930 . S
C3150 C3148 1.378 . S
C3150 C3151 1.367 . S
C3151 C3150 1.367 . S
C3151 C3153 1.433 . S
C3152 C3148 1.350 . S
C3152 C3149 1.463 1_554 S
C3152 N3156 1.427 . S
C3153 H3143 0.929 . S
C3153 C3151 1.433 . S
C3153 N3156 1.384 . S
C3154 H3145 0.929 . S
C3154 C3146 1.378 . S
C3154 C3149 1.350 . S
C3155 H3142 0.929 . S
C3155 C3147 1.433 . S
C3155 N3157 1.384 . S
N3156 C3152 1.427 . S
N3156 C3153 1.384 . S
N3157 C3149 1.427 . S
N3157 C3155 1.384 . S
H3158 C3164 0.930 . S
H3159 C3168 0.930 . S
H3160 C3173 0.929 . S
H3161 C3171 0.929 . S
H3162 C3166 0.929 . S
H3163 C3172 0.929 . S
C3164 H3158 0.930 . S
C3164 C3165 1.367 . S
C3164 C3172 1.378 . S
C3165 C3164 1.367 . S
C3165 C3173 1.433 . S
C3166 H3162 0.929 . S
C3166 C3168 1.378 . S
C3166 C3170 1.350 . S
C3167 C3170 1.463 1_556 S
C3167 C3172 1.350 . S
C3167 N3175 1.427 . S
C3168 H3159 0.930 . S
C3168 C3166 1.378 . S
C3168 C3169 1.367 . S
C3169 C3168 1.367 . S
C3169 C3171 1.433 . S
C3170 C3166 1.350 . S
C3170 C3167 1.463 1_554 S
C3170 N3174 1.427 . S
C3171 H3161 0.929 . S
C3171 C3169 1.433 . S
C3171 N3174 1.384 . S
C3172 H3163 0.929 . S
C3172 C3164 1.378 . S
C3172 C3167 1.350 . S
C3173 H3160 0.929 . S
C3173 C3165 1.433 . S
C3173 N3175 1.384 . S
N3174 C3170 1.427 . S
N3174 C3171 1.384 . S
N3175 C3167 1.427 . S
N3175 C3173 1.384 . S
H3176 C3182 0.930 . S
H3177 C3186 0.930 . S
H3178 C3191 0.929 . S
H3179 C3189 0.929 . S
H3180 C3184 0.929 . S
H3181 C3190 0.929 . S
C3182 H3176 0.930 . S
C3182 C3183 1.367 . S
C3182 C3190 1.378 . S
C3183 C3182 1.367 . S
C3183 C3191 1.433 . S
C3184 H3180 0.929 . S
C3184 C3186 1.378 . S
C3184 C3188 1.350 . S
C3185 C3188 1.463 . S
C3185 C3190 1.350 . S
C3185 N3193 1.427 . S
C3186 H3177 0.930 . S
C3186 C3184 1.378 . S
C3186 C3187 1.367 . S
C3187 C3186 1.367 . S
C3187 C3189 1.433 . S
C3188 C3184 1.350 . S
C3188 C3185 1.463 . S
C3188 N3192 1.427 . S
C3189 H3179 0.929 . S
C3189 C3187 1.433 . S
C3189 N3192 1.384 . S
C3190 H3181 0.929 . S
C3190 C3182 1.378 . S
C3190 C3185 1.350 . S
C3191 H3178 0.929 . S
C3191 C3183 1.433 . S
C3191 N3193 1.384 . S
N3192 C3188 1.427 . S
N3192 C3189 1.384 . S
N3193 C3185 1.427 . S
N3193 C3191 1.384 . S
H3194 C3200 0.930 . S
H3195 C3204 0.930 . S
H3196 C3209 0.929 . S
H3197 C3207 0.929 . S
H3198 C3202 0.929 . S
H3199 C3208 0.929 . S
C3200 H3194 0.930 . S
C3200 C3201 1.367 . S
C3200 C3208 1.378 . S
C3201 C3200 1.367 . S
C3201 C3209 1.433 . S
C3202 H3198 0.929 . S
C3202 C3204 1.378 . S
C3202 C3206 1.350 . S
C3203 C3206 1.463 . S
C3203 C3208 1.350 . S
C3203 N3211 1.427 . S
C3204 H3195 0.930 . S
C3204 C3202 1.378 . S
C3204 C3205 1.367 . S
C3205 C3204 1.367 . S
C3205 C3207 1.433 . S
C3206 C3202 1.350 . S
C3206 C3203 1.463 . S
C3206 N3210 1.427 . S
C3207 H3197 0.929 . S
C3207 C3205 1.433 . S
C3207 N3210 1.384 . S
C3208 H3199 0.929 . S
C3208 C3200 1.378 . S
C3208 C3203 1.350 . S
C3209 H3196 0.929 . S
C3209 C3201 1.433 . S
C3209 N3211 1.384 . S
N3210 C3206 1.427 . S
N3210 C3207 1.384 . S
N3211 C3203 1.427 . S
N3211 C3209 1.384 . S
H3212 C3218 0.930 . S
H3213 C3222 0.930 . S
H3214 C3227 0.929 . S
H3215 C3225 0.929 . S
H3216 C3220 0.929 . S
H3217 C3226 0.929 . S
C3218 H3212 0.930 . S
C3218 C3219 1.367 . S
C3218 C3226 1.378 . S
C3219 C3218 1.367 . S
C3219 C3227 1.433 . S
C3220 H3216 0.929 . S
C3220 C3222 1.378 . S
C3220 C3224 1.350 . S
C3221 C3224 1.463 . S
C3221 C3226 1.350 . S
C3221 N3229 1.427 . S
C3222 H3213 0.930 . S
C3222 C3220 1.378 . S
C3222 C3223 1.367 . S
C3223 C3222 1.367 . S
C3223 C3225 1.433 . S
C3224 C3220 1.350 . S
C3224 C3221 1.463 . S
C3224 N3228 1.427 . S
C3225 H3215 0.929 . S
C3225 C3223 1.433 . S
C3225 N3228 1.384 . S
C3226 H3217 0.929 . S
C3226 C3218 1.378 . S
C3226 C3221 1.350 . S
C3227 H3214 0.929 . S
C3227 C3219 1.433 . S
C3227 N3229 1.384 . S
N3228 C3224 1.427 . S
N3228 C3225 1.384 . S
N3229 C3221 1.427 . S
N3229 C3227 1.384 . S
H3230 C3236 0.930 . S
H3231 C3240 0.930 . S
H3232 C3245 0.929 . S
H3233 C3243 0.929 . S
H3234 C3238 0.929 . S
H3235 C3244 0.929 . S
C3236 H3230 0.930 . S
C3236 C3237 1.367 . S
C3236 C3244 1.378 . S
C3237 C3236 1.367 . S
C3237 C3245 1.433 . S
C3238 H3234 0.929 . S
C3238 C3240 1.378 . S
C3238 C3242 1.350 . S
C3239 C3242 1.463 . S
C3239 C3244 1.350 . S
C3239 N3247 1.427 . S
C3240 H3231 0.930 . S
C3240 C3238 1.378 . S
C3240 C3241 1.367 . S
C3241 C3240 1.367 . S
C3241 C3243 1.433 . S
C3242 C3238 1.350 . S
C3242 C3239 1.463 . S
C3242 N3246 1.427 . S
C3243 H3233 0.929 . S
C3243 C3241 1.433 . S
C3243 N3246 1.384 . S
C3244 H3235 0.929 . S
C3244 C3236 1.378 . S
C3244 C3239 1.350 . S
C3245 H3232 0.929 . S
C3245 C3237 1.433 . S
C3245 N3247 1.384 . S
N3246 C3242 1.427 . S
N3246 C3243 1.384 . S
N3247 C3239 1.427 . S
N3247 C3245 1.384 . S
H3248 C3254 0.930 . S
H3249 C3258 0.930 . S
H3250 C3263 0.929 . S
H3251 C3261 0.929 . S
H3252 C3256 0.929 . S
H3253 C3262 0.929 . S
C3254 H3248 0.930 . S
C3254 C3255 1.367 . S
C3254 C3262 1.378 . S
C3255 C3254 1.367 . S
C3255 C3263 1.433 . S
C3256 H3252 0.929 . S
C3256 C3258 1.378 . S
C3256 C3260 1.350 . S
C3257 C3260 1.463 . S
C3257 C3262 1.350 . S
C3257 N3265 1.427 . S
C3258 H3249 0.930 . S
C3258 C3256 1.378 . S
C3258 C3259 1.367 . S
C3259 C3258 1.367 . S
C3259 C3261 1.433 . S
C3260 C3256 1.350 . S
C3260 C3257 1.463 . S
C3260 N3264 1.427 . S
C3261 H3251 0.929 . S
C3261 C3259 1.433 . S
C3261 N3264 1.384 . S
C3262 H3253 0.929 . S
C3262 C3254 1.378 . S
C3262 C3257 1.350 . S
C3263 H3250 0.929 . S
C3263 C3255 1.433 . S
C3263 N3265 1.384 . S
N3264 C3260 1.427 . S
N3264 C3261 1.384 . S
N3265 C3257 1.427 . S
N3265 C3263 1.384 . S
H3266 C3272 0.930 . S
H3267 C3276 0.930 . S
H3268 C3281 0.929 . S
H3269 C3279 0.929 . S
H3270 C3274 0.929 . S
H3271 C3280 0.929 . S
C3272 H3266 0.930 . S
C3272 C3273 1.367 . S
C3272 C3280 1.378 . S
C3273 C3272 1.367 . S
C3273 C3281 1.433 . S
C3274 H3270 0.929 . S
C3274 C3276 1.378 . S
C3274 C3278 1.350 . S
C3275 C3278 1.463 . S
C3275 C3280 1.350 . S
C3275 N3283 1.427 . S
C3276 H3267 0.930 . S
C3276 C3274 1.378 . S
C3276 C3277 1.367 . S
C3277 C3276 1.367 . S
C3277 C3279 1.433 . S
C3278 C3274 1.350 . S
C3278 C3275 1.463 . S
C3278 N3282 1.427 . S
C3279 H3269 0.929 . S
C3279 C3277 1.433 . S
C3279 N3282 1.384 . S
C3280 H3271 0.929 . S
C3280 C3272 1.378 . S
C3280 C3275 1.350 . S
C3281 H3268 0.929 . S
C3281 C3273 1.433 . S
C3281 N3283 1.384 . S
N3282 C3278 1.427 . S
N3282 C3279 1.384 . S
N3283 C3275 1.427 . S
N3283 C3281 1.384 . S
H3284 C3290 0.930 . S
H3285 C3294 0.930 . S
H3286 C3299 0.929 . S
H3287 C3297 0.929 . S
H3288 C3292 0.929 . S
H3289 C3298 0.929 . S
C3290 H3284 0.930 . S
C3290 C3291 1.367 . S
C3290 C3298 1.378 . S
C3291 C3290 1.367 . S
C3291 C3299 1.433 . S
C3292 H3288 0.929 . S
C3292 C3294 1.378 . S
C3292 C3296 1.350 . S
C3293 C3296 1.463 . S
C3293 C3298 1.350 . S
C3293 N3301 1.427 . S
C3294 H3285 0.930 . S
C3294 C3292 1.378 . S
C3294 C3295 1.367 . S
C3295 C3294 1.367 . S
C3295 C3297 1.433 . S
C3296 C3292 1.350 . S
C3296 C3293 1.463 . S
C3296 N3300 1.427 . S
C3297 H3287 0.929 . S
C3297 C3295 1.433 . S
C3297 N3300 1.384 . S
C3298 H3289 0.929 . S
C3298 C3290 1.378 . S
C3298 C3293 1.350 . S
C3299 H3286 0.929 . S
C3299 C3291 1.433 . S
C3299 N3301 1.384 . S
N3300 C3296 1.427 . S
N3300 C3297 1.384 . S
N3301 C3293 1.427 . S
N3301 C3299 1.384 . S
H3302 C3308 0.930 . S
H3303 C3312 0.930 . S
H3304 C3317 0.929 . S
H3305 C3315 0.929 . S
H3306 C3310 0.929 . S
H3307 C3316 0.929 . S
C3308 H3302 0.930 . S
C3308 C3309 1.367 . S
C3308 C3316 1.378 . S
C3309 C3308 1.367 . S
C3309 C3317 1.433 . S
C3310 H3306 0.929 . S
C3310 C3312 1.378 . S
C3310 C3314 1.350 . S
C3311 C3314 1.463 . S
C3311 C3316 1.350 . S
C3311 N3319 1.427 . S
C3312 H3303 0.930 . S
C3312 C3310 1.378 . S
C3312 C3313 1.367 . S
C3313 C3312 1.367 . S
C3313 C3315 1.433 . S
C3314 C3310 1.350 . S
C3314 C3311 1.463 . S
C3314 N3318 1.427 . S
C3315 H3305 0.929 . S
C3315 C3313 1.433 . S
C3315 N3318 1.384 . S
C3316 H3307 0.929 . S
C3316 C3308 1.378 . S
C3316 C3311 1.350 . S
C3317 H3304 0.929 . S
C3317 C3309 1.433 . S
C3317 N3319 1.384 . S
N3318 C3314 1.427 . S
N3318 C3315 1.384 . S
N3319 C3311 1.427 . S
N3319 C3317 1.384 . S
H3320 C3326 0.930 . S
H3321 C3330 0.930 . S
H3322 C3335 0.929 . S
H3323 C3333 0.929 . S
H3324 C3328 0.929 . S
H3325 C3334 0.929 . S
C3326 H3320 0.930 . S
C3326 C3327 1.367 . S
C3326 C3334 1.378 . S
C3327 C3326 1.367 . S
C3327 C3335 1.433 . S
C3328 H3324 0.929 . S
C3328 C3330 1.378 . S
C3328 C3332 1.350 . S
C3329 C3332 1.463 1_556 S
C3329 C3334 1.350 . S
C3329 N3337 1.427 . S
C3330 H3321 0.930 . S
C3330 C3328 1.378 . S
C3330 C3331 1.367 . S
C3331 C3330 1.367 . S
C3331 C3333 1.433 . S
C3332 C3328 1.350 . S
C3332 C3329 1.463 1_554 S
C3332 N3336 1.427 . S
C3333 H3323 0.929 . S
C3333 C3331 1.433 . S
C3333 N3336 1.384 . S
C3334 H3325 0.929 . S
C3334 C3326 1.378 . S
C3334 C3329 1.350 . S
C3335 H3322 0.929 . S
C3335 C3327 1.433 . S
C3335 N3337 1.384 . S
N3336 C3332 1.427 . S
N3336 C3333 1.384 . S
N3337 C3329 1.427 . S
N3337 C3335 1.384 . S
H3338 C3344 0.930 . S
H3339 C3348 0.930 . S
H3340 C3353 0.929 . S
H3341 C3351 0.929 . S
H3342 C3346 0.929 . S
H3343 C3352 0.929 . S
C3344 H3338 0.930 . S
C3344 C3345 1.367 . S
C3344 C3352 1.378 . S
C3345 C3344 1.367 . S
C3345 C3353 1.433 . S
C3346 H3342 0.929 . S
C3346 C3348 1.378 . S
C3346 C3350 1.350 . S
C3347 C3350 1.463 1_554 S
C3347 C3352 1.350 . S
C3347 N3355 1.427 . S
C3348 H3339 0.930 . S
C3348 C3346 1.378 . S
C3348 C3349 1.367 . S
C3349 C3348 1.367 . S
C3349 C3351 1.433 . S
C3350 C3346 1.350 . S
C3350 C3347 1.463 1_556 S
C3350 N3354 1.427 . S
C3351 H3341 0.929 . S
C3351 C3349 1.433 . S
C3351 N3354 1.384 . S
C3352 H3343 0.929 . S
C3352 C3344 1.378 . S
C3352 C3347 1.350 . S
C3353 H3340 0.929 . S
C3353 C3345 1.433 . S
C3353 N3355 1.384 . S
N3354 C3350 1.427 . S
N3354 C3351 1.384 . S
N3355 C3347 1.427 . S
N3355 C3353 1.384 . S
H3356 C3362 0.930 . S
H3357 C3366 0.930 . S
H3358 C3371 0.929 . S
H3359 C3369 0.929 . S
H3360 C3364 0.929 . S
H3361 C3370 0.929 . S
C3362 H3356 0.930 . S
C3362 C3363 1.367 . S
C3362 C3370 1.378 . S
C3363 C3362 1.367 . S
C3363 C3371 1.433 . S
C3364 H3360 0.929 . S
C3364 C3366 1.378 . S
C3364 C3368 1.350 . S
C3365 C3368 1.463 1_554 S
C3365 C3370 1.350 . S
C3365 N3373 1.427 . S
C3366 H3357 0.930 . S
C3366 C3364 1.378 . S
C3366 C3367 1.367 . S
C3367 C3366 1.367 . S
C3367 C3369 1.433 . S
C3368 C3364 1.350 . S
C3368 C3365 1.463 1_556 S
C3368 N3372 1.427 . S
C3369 H3359 0.929 . S
C3369 C3367 1.433 . S
C3369 N3372 1.384 . S
C3370 H3361 0.929 . S
C3370 C3362 1.378 . S
C3370 C3365 1.350 . S
C3371 H3358 0.929 . S
C3371 C3363 1.433 . S
C3371 N3373 1.384 . S
N3372 C3368 1.427 . S
N3372 C3369 1.384 . S
N3373 C3365 1.427 . S
N3373 C3371 1.384 . S
H3374 C3380 0.930 . S
H3375 C3384 0.930 . S
H3376 C3389 0.929 . S
H3377 C3387 0.929 . S
H3378 C3382 0.929 . S
H3379 C3388 0.929 . S
C3380 H3374 0.930 . S
C3380 C3381 1.367 . S
C3380 C3388 1.378 . S
C3381 C3380 1.367 . S
C3381 C3389 1.433 . S
C3382 H3378 0.929 . S
C3382 C3384 1.378 . S
C3382 C3386 1.350 . S
C3383 C3386 1.463 1_556 S
C3383 C3388 1.350 . S
C3383 N3391 1.427 . S
C3384 H3375 0.930 . S
C3384 C3382 1.378 . S
C3384 C3385 1.367 . S
C3385 C3384 1.367 . S
C3385 C3387 1.433 . S
C3386 C3382 1.350 . S
C3386 C3383 1.463 1_554 S
C3386 N3390 1.427 . S
C3387 H3377 0.929 . S
C3387 C3385 1.433 . S
C3387 N3390 1.384 . S
C3388 H3379 0.929 . S
C3388 C3380 1.378 . S
C3388 C3383 1.350 . S
C3389 H3376 0.929 . S
C3389 C3381 1.433 . S
C3389 N3391 1.384 . S
N3390 C3386 1.427 . S
N3390 C3387 1.384 . S
N3391 C3383 1.427 . S
N3391 C3389 1.384 . S
H3392 C3398 0.930 . S
H3393 C3402 0.930 . S
H3394 C3407 0.929 . S
H3395 C3405 0.929 . S
H3396 C3400 0.929 . S
H3397 C3406 0.929 . S
C3398 H3392 0.930 . S
C3398 C3399 1.367 . S
C3398 C3406 1.378 . S
C3399 C3398 1.367 . S
C3399 C3407 1.433 . S
C3400 H3396 0.929 . S
C3400 C3402 1.378 . S
C3400 C3404 1.350 . S
C3401 C3404 1.463 1_545 S
C3401 C3406 1.350 . S
C3401 N3409 1.427 . S
C3402 H3393 0.930 . S
C3402 C3400 1.378 . S
C3402 C3403 1.367 . S
C3403 C3402 1.367 . S
C3403 C3405 1.433 . S
C3404 C3400 1.350 . S
C3404 C3401 1.463 1_565 S
C3404 N3408 1.427 . S
C3405 H3395 0.929 . S
C3405 C3403 1.433 . S
C3405 N3408 1.384 . S
C3406 H3397 0.929 . S
C3406 C3398 1.378 . S
C3406 C3401 1.350 . S
C3407 H3394 0.929 . S
C3407 C3399 1.433 . S
C3407 N3409 1.384 . S
N3408 C3404 1.427 . S
N3408 C3405 1.384 . S
N3409 C3401 1.427 . S
N3409 C3407 1.384 . S
H3410 C3416 0.930 . S
H3411 C3420 0.930 . S
H3412 C3425 0.929 . S
H3413 C3423 0.929 . S
H3414 C3418 0.929 . S
H3415 C3424 0.929 . S
C3416 H3410 0.930 . S
C3416 C3417 1.367 . S
C3416 C3424 1.378 . S
C3417 C3416 1.367 . S
C3417 C3425 1.433 . S
C3418 H3414 0.929 . S
C3418 C3420 1.378 . S
C3418 C3422 1.350 . S
C3419 C3422 1.463 1_655 S
C3419 C3424 1.350 . S
C3419 N3427 1.427 . S
C3420 H3411 0.930 . S
C3420 C3418 1.378 . S
C3420 C3421 1.367 . S
C3421 C3420 1.367 . S
C3421 C3423 1.433 . S
C3422 C3418 1.350 . S
C3422 C3419 1.463 1_455 S
C3422 N3426 1.427 . S
C3423 H3413 0.929 . S
C3423 C3421 1.433 . S
C3423 N3426 1.384 . S
C3424 H3415 0.929 . S
C3424 C3416 1.378 . S
C3424 C3419 1.350 . S
C3425 H3412 0.929 . S
C3425 C3417 1.433 . S
C3425 N3427 1.384 . S
N3426 C3422 1.427 . S
N3426 C3423 1.384 . S
N3427 C3419 1.427 . S
N3427 C3425 1.384 . S
H3428 C3434 0.930 . S
H3429 C3438 0.930 . S
H3430 C3443 0.929 . S
H3431 C3441 0.929 . S
H3432 C3436 0.929 . S
H3433 C3442 0.929 . S
C3434 H3428 0.930 . S
C3434 C3435 1.367 . S
C3434 C3442 1.378 . S
C3435 C3434 1.367 . S
C3435 C3443 1.433 . S
C3436 H3432 0.929 . S
C3436 C3438 1.378 . S
C3436 C3440 1.350 . S
C3437 C3440 1.463 1_545 S
C3437 C3442 1.350 . S
C3437 N3445 1.427 . S
C3438 H3429 0.930 . S
C3438 C3436 1.378 . S
C3438 C3439 1.367 . S
C3439 C3438 1.367 . S
C3439 C3441 1.433 . S
C3440 C3436 1.350 . S
C3440 C3437 1.463 1_565 S
C3440 N3444 1.427 . S
C3441 H3431 0.929 . S
C3441 C3439 1.433 . S
C3441 N3444 1.384 . S
C3442 H3433 0.929 . S
C3442 C3434 1.378 . S
C3442 C3437 1.350 . S
C3443 H3430 0.929 . S
C3443 C3435 1.433 . S
C3443 N3445 1.384 . S
N3444 C3440 1.427 . S
N3444 C3441 1.384 . S
N3445 C3437 1.427 . S
N3445 C3443 1.384 . S
H3446 C3452 0.930 . S
H3447 C3456 0.930 . S
H3448 C3461 0.929 . S
H3449 C3459 0.929 . S
H3450 C3454 0.929 . S
H3451 C3460 0.929 . S
C3452 H3446 0.930 . S
C3452 C3453 1.367 . S
C3452 C3460 1.378 . S
C3453 C3452 1.367 . S
C3453 C3461 1.433 . S
C3454 H3450 0.929 . S
C3454 C3456 1.378 . S
C3454 C3458 1.350 . S
C3455 C3458 1.463 1_455 S
C3455 C3460 1.350 . S
C3455 N3463 1.427 . S
C3456 H3447 0.930 . S
C3456 C3454 1.378 . S
C3456 C3457 1.367 . S
C3457 C3456 1.367 . S
C3457 C3459 1.433 . S
C3458 C3454 1.350 . S
C3458 C3455 1.463 1_655 S
C3458 N3462 1.427 . S
C3459 H3449 0.929 . S
C3459 C3457 1.433 . S
C3459 N3462 1.384 . S
C3460 H3451 0.929 . S
C3460 C3452 1.378 . S
C3460 C3455 1.350 . S
C3461 H3448 0.929 . S
C3461 C3453 1.433 . S
C3461 N3463 1.384 . S
N3462 C3458 1.427 . S
N3462 C3459 1.384 . S
N3463 C3455 1.427 . S
N3463 C3461 1.384 . S
H3464 C3470 0.930 . S
H3465 C3474 0.930 . S
H3466 C3479 0.929 . S
H3467 C3477 0.929 . S
H3468 C3472 0.935 . S
H3469 C3478 0.935 . S
C3470 H3464 0.930 . S
C3470 C3471 1.367 . S
C3470 C3478 1.378 . S
C3471 C3470 1.367 . S
C3471 C3479 1.433 . S
C3472 H3468 0.935 . S
C3472 C3474 1.378 . S
C3472 C3476 1.350 . S
C3473 C3476 1.463 1_565 S
C3473 C3478 1.350 . S
C3473 N3481 1.427 . S
C3474 H3465 0.930 . S
C3474 C3472 1.378 . S
C3474 C3475 1.367 . S
C3475 C3474 1.367 . S
C3475 C3477 1.433 . S
C3476 C3472 1.350 . S
C3476 C3473 1.463 1_545 S
C3476 N3480 1.427 . S
C3477 H3467 0.929 . S
C3477 C3475 1.433 . S
C3477 N3480 1.384 . S
C3478 H3469 0.935 . S
C3478 C3470 1.378 . S
C3478 C3473 1.350 . S
C3479 H3466 0.929 . S
C3479 C3471 1.433 . S
C3479 N3481 1.384 . S
N3480 C3476 1.427 . S
N3480 C3477 1.384 . S
N3481 C3473 1.427 . S
N3481 C3479 1.384 . S
H3482 C3488 0.930 . S
H3483 C3492 0.930 . S
H3484 C3497 0.929 . S
H3485 C3495 0.929 . S
H3486 C3490 0.929 . S
H3487 C3496 0.929 . S
C3488 H3482 0.930 . S
C3488 C3489 1.367 . S
C3488 C3496 1.378 . S
C3489 C3488 1.367 . S
C3489 C3497 1.433 . S
C3490 H3486 0.929 . S
C3490 C3492 1.378 . S
C3490 C3494 1.350 . S
C3491 C3494 1.463 1_655 S
C3491 C3496 1.350 . S
C3491 N3499 1.427 . S
C3492 H3483 0.930 . S
C3492 C3490 1.378 . S
C3492 C3493 1.367 . S
C3493 C3492 1.367 . S
C3493 C3495 1.433 . S
C3494 C3490 1.350 . S
C3494 C3491 1.463 1_455 S
C3494 N3498 1.427 . S
C3495 H3485 0.929 . S
C3495 C3493 1.433 . S
C3495 N3498 1.384 . S
C3496 H3487 0.929 . S
C3496 C3488 1.378 . S
C3496 C3491 1.350 . S
C3497 H3484 0.929 . S
C3497 C3489 1.433 . S
C3497 N3499 1.384 . S
N3498 C3494 1.427 . S
N3498 C3495 1.384 . S
N3499 C3491 1.427 . S
N3499 C3497 1.384 . S
H3500 C3506 0.930 . S
H3501 C3510 0.930 . S
H3502 C3515 0.929 . S
H3503 C3513 0.929 . S
H3504 C3508 0.929 . S
H3505 C3514 0.929 . S
C3506 H3500 0.930 . S
C3506 C3507 1.367 . S
C3506 C3514 1.378 . S
C3507 C3506 1.367 . S
C3507 C3515 1.433 . S
C3508 H3504 0.929 . S
C3508 C3510 1.378 . S
C3508 C3512 1.350 . S
C3509 C3512 1.463 1_565 S
C3509 C3514 1.350 . S
C3509 N3517 1.427 . S
C3510 H3501 0.930 . S
C3510 C3508 1.378 . S
C3510 C3511 1.367 . S
C3511 C3510 1.367 . S
C3511 C3513 1.433 . S
C3512 C3508 1.350 . S
C3512 C3509 1.463 1_545 S
C3512 N3516 1.427 . S
C3513 H3503 0.929 . S
C3513 C3511 1.433 . S
C3513 N3516 1.384 . S
C3514 H3505 0.929 . S
C3514 C3506 1.378 . S
C3514 C3509 1.350 . S
C3515 H3502 0.929 . S
C3515 C3507 1.433 . S
C3515 N3517 1.384 . S
N3516 C3512 1.427 . S
N3516 C3513 1.384 . S
N3517 C3509 1.427 . S
N3517 C3515 1.384 . S
H3518 C3524 0.930 . S
H3519 C3528 0.930 . S
H3520 C3533 0.929 . S
H3521 C3531 0.929 . S
H3522 C3526 0.929 . S
H3523 C3532 0.929 . S
C3524 H3518 0.930 . S
C3524 C3525 1.367 . S
C3524 C3532 1.378 . S
C3525 C3524 1.367 . S
C3525 C3533 1.433 . S
C3526 H3522 0.929 . S
C3526 C3528 1.378 . S
C3526 C3530 1.350 . S
C3527 C3530 1.463 1_655 S
C3527 C3532 1.350 . S
C3527 N3535 1.427 . S
C3528 H3519 0.930 . S
C3528 C3526 1.378 . S
C3528 C3529 1.367 . S
C3529 C3528 1.367 . S
C3529 C3531 1.433 . S
C3530 C3526 1.350 . S
C3530 C3527 1.463 1_455 S
C3530 N3534 1.427 . S
C3531 H3521 0.929 . S
C3531 C3529 1.433 . S
C3531 N3534 1.384 . S
C3532 H3523 0.929 . S
C3532 C3524 1.378 . S
C3532 C3527 1.350 . S
C3533 H3520 0.929 . S
C3533 C3525 1.433 . S
C3533 N3535 1.384 . S
N3534 C3530 1.427 . S
N3534 C3531 1.384 . S
N3535 C3527 1.427 . S
N3535 C3533 1.384 . S
H3536 C3542 0.930 . S
H3537 C3546 0.930 . S
H3538 C3551 0.929 . S
H3539 C3549 0.929 . S
H3540 C3544 0.929 . S
H3541 C3550 0.929 . S
C3542 H3536 0.930 . S
C3542 C3543 1.367 . S
C3542 C3550 1.378 . S
C3543 C3542 1.367 . S
C3543 C3551 1.433 . S
C3544 H3540 0.929 . S
C3544 C3546 1.378 . S
C3544 C3548 1.350 . S
C3545 C3548 1.463 . S
C3545 C3550 1.350 . S
C3545 N3553 1.427 . S
C3546 H3537 0.930 . S
C3546 C3544 1.378 . S
C3546 C3547 1.367 . S
C3547 C3546 1.367 . S
C3547 C3549 1.433 . S
C3548 C3544 1.350 . S
C3548 C3545 1.463 . S
C3548 N3552 1.427 . S
C3549 H3539 0.929 . S
C3549 C3547 1.433 . S
C3549 N3552 1.384 . S
C3550 H3541 0.929 . S
C3550 C3542 1.378 . S
C3550 C3545 1.350 . S
C3551 H3538 0.929 . S
C3551 C3543 1.433 . S
C3551 N3553 1.384 . S
N3552 C3548 1.427 . S
N3552 C3549 1.384 . S
N3553 C3545 1.427 . S
N3553 C3551 1.384 . S
H3554 C3560 0.930 . S
H3555 C3564 0.930 . S
H3556 C3569 0.929 . S
H3557 C3567 0.929 . S
H3558 C3562 0.929 . S
H3559 C3568 0.929 . S
C3560 H3554 0.930 . S
C3560 C3561 1.367 . S
C3560 C3568 1.378 . S
C3561 C3560 1.367 . S
C3561 C3569 1.433 . S
C3562 H3558 0.929 . S
C3562 C3564 1.378 . S
C3562 C3566 1.350 . S
C3563 C3566 1.463 . S
C3563 C3568 1.350 . S
C3563 N3571 1.427 . S
C3564 H3555 0.930 . S
C3564 C3562 1.378 . S
C3564 C3565 1.367 . S
C3565 C3564 1.367 . S
C3565 C3567 1.433 . S
C3566 C3562 1.350 . S
C3566 C3563 1.463 . S
C3566 N3570 1.427 . S
C3567 H3557 0.929 . S
C3567 C3565 1.433 . S
C3567 N3570 1.384 . S
C3568 H3559 0.929 . S
C3568 C3560 1.378 . S
C3568 C3563 1.350 . S
C3569 H3556 0.929 . S
C3569 C3561 1.433 . S
C3569 N3571 1.384 . S
N3570 C3566 1.427 . S
N3570 C3567 1.384 . S
N3571 C3563 1.427 . S
N3571 C3569 1.384 . S
H3572 C3578 0.930 . S
H3573 C3582 0.930 . S
H3574 C3587 0.929 . S
H3575 C3585 0.929 . S
H3576 C3580 0.929 . S
H3577 C3586 0.929 . S
C3578 H3572 0.930 . S
C3578 C3579 1.367 . S
C3578 C3586 1.378 . S
C3579 C3578 1.367 . S
C3579 C3587 1.433 . S
C3580 H3576 0.929 . S
C3580 C3582 1.378 . S
C3580 C3584 1.350 . S
C3581 C3584 1.463 . S
C3581 C3586 1.350 . S
C3581 N3589 1.427 . S
C3582 H3573 0.930 . S
C3582 C3580 1.378 . S
C3582 C3583 1.367 . S
C3583 C3582 1.367 . S
C3583 C3585 1.433 . S
C3584 C3580 1.350 . S
C3584 C3581 1.463 . S
C3584 N3588 1.427 . S
C3585 H3575 0.929 . S
C3585 C3583 1.433 . S
C3585 N3588 1.384 . S
C3586 H3577 0.929 . S
C3586 C3578 1.378 . S
C3586 C3581 1.350 . S
C3587 H3574 0.929 . S
C3587 C3579 1.433 . S
C3587 N3589 1.384 . S
N3588 C3584 1.427 . S
N3588 C3585 1.384 . S
N3589 C3581 1.427 . S
N3589 C3587 1.384 . S
H3590 C3596 0.930 . S
H3591 C3600 0.930 . S
H3592 C3605 0.929 . S
H3593 C3603 0.929 . S
H3594 C3598 0.929 . S
H3595 C3604 0.929 . S
C3596 H3590 0.930 . S
C3596 C3597 1.367 . S
C3596 C3604 1.378 . S
C3597 C3596 1.367 . S
C3597 C3605 1.433 . S
C3598 H3594 0.929 . S
C3598 C3600 1.378 . S
C3598 C3602 1.350 . S
C3599 C3602 1.463 . S
C3599 C3604 1.350 . S
C3599 N3607 1.427 . S
C3600 H3591 0.930 . S
C3600 C3598 1.378 . S
C3600 C3601 1.367 . S
C3601 C3600 1.367 . S
C3601 C3603 1.433 . S
C3602 C3598 1.350 . S
C3602 C3599 1.463 . S
C3602 N3606 1.427 . S
C3603 H3593 0.929 . S
C3603 C3601 1.433 . S
C3603 N3606 1.384 . S
C3604 H3595 0.929 . S
C3604 C3596 1.378 . S
C3604 C3599 1.350 . S
C3605 H3592 0.929 . S
C3605 C3597 1.433 . S
C3605 N3607 1.384 . S
N3606 C3602 1.427 . S
N3606 C3603 1.384 . S
N3607 C3599 1.427 . S
N3607 C3605 1.384 . S
H3608 C3614 0.930 . S
H3609 C3618 0.930 . S
H3610 C3623 0.929 . S
H3611 C3621 0.929 . S
H3612 C3616 0.929 . S
H3613 C3622 0.929 . S
C3614 H3608 0.930 . S
C3614 C3615 1.367 . S
C3614 C3622 1.378 . S
C3615 C3614 1.367 . S
C3615 C3623 1.433 . S
C3616 H3612 0.929 . S
C3616 C3618 1.378 . S
C3616 C3620 1.350 . S
C3617 C3620 1.463 . S
C3617 C3622 1.350 . S
C3617 N3625 1.427 . S
C3618 H3609 0.930 . S
C3618 C3616 1.378 . S
C3618 C3619 1.367 . S
C3619 C3618 1.367 . S
C3619 C3621 1.433 . S
C3620 C3616 1.350 . S
C3620 C3617 1.463 . S
C3620 N3624 1.427 . S
C3621 H3611 0.929 . S
C3621 C3619 1.433 . S
C3621 N3624 1.384 . S
C3622 H3613 0.929 . S
C3622 C3614 1.378 . S
C3622 C3617 1.350 . S
C3623 H3610 0.929 . S
C3623 C3615 1.433 . S
C3623 N3625 1.384 . S
N3624 C3620 1.427 . S
N3624 C3621 1.384 . S
N3625 C3617 1.427 . S
N3625 C3623 1.384 . S
H3626 C3632 0.930 . S
H3627 C3636 0.930 . S
H3628 C3641 0.929 . S
H3629 C3639 0.929 . S
H3630 C3634 0.929 . S
H3631 C3640 0.929 . S
C3632 H3626 0.930 . S
C3632 C3633 1.367 . S
C3632 C3640 1.378 . S
C3633 C3632 1.367 . S
C3633 C3641 1.433 . S
C3634 H3630 0.929 . S
C3634 C3636 1.378 . S
C3634 C3638 1.350 . S
C3635 C3638 1.463 . S
C3635 C3640 1.350 . S
C3635 N3643 1.427 . S
C3636 H3627 0.930 . S
C3636 C3634 1.378 . S
C3636 C3637 1.367 . S
C3637 C3636 1.367 . S
C3637 C3639 1.433 . S
C3638 C3634 1.350 . S
C3638 C3635 1.463 . S
C3638 N3642 1.427 . S
C3639 H3629 0.929 . S
C3639 C3637 1.433 . S
C3639 N3642 1.384 . S
C3640 H3631 0.929 . S
C3640 C3632 1.378 . S
C3640 C3635 1.350 . S
C3641 H3628 0.929 . S
C3641 C3633 1.433 . S
C3641 N3643 1.384 . S
N3642 C3638 1.427 . S
N3642 C3639 1.384 . S
N3643 C3635 1.427 . S
N3643 C3641 1.384 . S
H3644 C3650 0.930 . S
H3645 C3654 0.930 . S
H3646 C3659 0.929 . S
H3647 C3657 0.929 . S
H3648 C3652 0.929 . S
H3649 C3658 0.929 . S
C3650 H3644 0.930 . S
C3650 C3651 1.367 . S
C3650 C3658 1.378 . S
C3651 C3650 1.367 . S
C3651 C3659 1.433 . S
C3652 H3648 0.929 . S
C3652 C3654 1.378 . S
C3652 C3656 1.350 . S
C3653 C3656 1.463 . S
C3653 C3658 1.350 . S
C3653 N3661 1.427 . S
C3654 H3645 0.930 . S
C3654 C3652 1.378 . S
C3654 C3655 1.367 . S
C3655 C3654 1.367 . S
C3655 C3657 1.433 . S
C3656 C3652 1.350 . S
C3656 C3653 1.463 . S
C3656 N3660 1.427 . S
C3657 H3647 0.929 . S
C3657 C3655 1.433 . S
C3657 N3660 1.384 . S
C3658 H3649 0.929 . S
C3658 C3650 1.378 . S
C3658 C3653 1.350 . S
C3659 H3646 0.929 . S
C3659 C3651 1.433 . S
C3659 N3661 1.384 . S
N3660 C3656 1.427 . S
N3660 C3657 1.384 . S
N3661 C3653 1.427 . S
N3661 C3659 1.384 . S
H3662 C3668 0.930 . S
H3663 C3672 0.930 . S
H3664 C3677 0.929 . S
H3665 C3675 0.929 . S
H3666 C3670 0.929 . S
H3667 C3676 0.929 . S
C3668 H3662 0.930 . S
C3668 C3669 1.367 . S
C3668 C3676 1.378 . S
C3669 C3668 1.367 . S
C3669 C3677 1.433 . S
C3670 H3666 0.929 . S
C3670 C3672 1.378 . S
C3670 C3674 1.350 . S
C3671 C3674 1.463 . S
C3671 C3676 1.350 . S
C3671 N3679 1.427 . S
C3672 H3663 0.930 . S
C3672 C3670 1.378 . S
C3672 C3673 1.367 . S
C3673 C3672 1.367 . S
C3673 C3675 1.433 . S
C3674 C3670 1.350 . S
C3674 C3671 1.463 . S
C3674 N3678 1.427 . S
C3675 H3665 0.929 . S
C3675 C3673 1.433 . S
C3675 N3678 1.384 . S
C3676 H3667 0.929 . S
C3676 C3668 1.378 . S
C3676 C3671 1.350 . S
C3677 H3664 0.929 . S
C3677 C3669 1.433 . S
C3677 N3679 1.384 . S
N3678 C3674 1.427 . S
N3678 C3675 1.384 . S
N3679 C3671 1.427 . S
N3679 C3677 1.384 . S
H3680 C3686 0.930 . S
H3681 C3690 0.930 . S
H3682 C3695 0.929 . S
H3683 C3693 0.929 . S
H3684 C3688 0.929 . S
H3685 C3694 0.929 . S
C3686 H3680 0.930 . S
C3686 C3687 1.367 . S
C3686 C3694 1.378 . S
C3687 C3686 1.367 . S
C3687 C3695 1.433 . S
C3688 H3684 0.929 . S
C3688 C3690 1.378 . S
C3688 C3692 1.350 . S
C3689 C3692 1.463 . S
C3689 C3694 1.350 . S
C3689 N3697 1.427 . S
C3690 H3681 0.930 . S
C3690 C3688 1.378 . S
C3690 C3691 1.367 . S
C3691 C3690 1.367 . S
C3691 C3693 1.433 . S
C3692 C3688 1.350 . S
C3692 C3689 1.463 . S
C3692 N3696 1.427 . S
C3693 H3683 0.929 . S
C3693 C3691 1.433 . S
C3693 N3696 1.384 . S
C3694 H3685 0.929 . S
C3694 C3686 1.378 . S
C3694 C3689 1.350 . S
C3695 H3682 0.929 . S
C3695 C3687 1.433 . S
C3695 N3697 1.384 . S
N3696 C3692 1.427 . S
N3696 C3693 1.384 . S
N3697 C3689 1.427 . S
N3697 C3695 1.384 . S
H3698 C3704 0.930 . S
H3699 C3708 0.930 . S
H3700 C3713 0.929 . S
H3701 C3711 0.929 . S
H3702 C3706 0.929 . S
H3703 C3712 0.929 . S
C3704 H3698 0.930 . S
C3704 C3705 1.367 . S
C3704 C3712 1.378 . S
C3705 C3704 1.367 . S
C3705 C3713 1.433 . S
C3706 H3702 0.929 . S
C3706 C3708 1.378 . S
C3706 C3710 1.350 . S
C3707 C3710 1.463 . S
C3707 C3712 1.350 . S
C3707 N3715 1.427 . S
C3708 H3699 0.930 . S
C3708 C3706 1.378 . S
C3708 C3709 1.367 . S
C3709 C3708 1.367 . S
C3709 C3711 1.433 . S
C3710 C3706 1.350 . S
C3710 C3707 1.463 . S
C3710 N3714 1.427 . S
C3711 H3701 0.929 . S
C3711 C3709 1.433 . S
C3711 N3714 1.384 . S
C3712 H3703 0.929 . S
C3712 C3704 1.378 . S
C3712 C3707 1.350 . S
C3713 H3700 0.929 . S
C3713 C3705 1.433 . S
C3713 N3715 1.384 . S
N3714 C3710 1.427 . S
N3714 C3711 1.384 . S
N3715 C3707 1.427 . S
N3715 C3713 1.384 . S
H3716 C3722 0.930 . S
H3717 C3726 0.930 . S
H3718 C3731 0.929 . S
H3719 C3729 0.929 . S
H3720 C3724 0.929 . S
H3721 C3730 0.929 . S
C3722 H3716 0.930 . S
C3722 C3723 1.367 . S
C3722 C3730 1.378 . S
C3723 C3722 1.367 . S
C3723 C3731 1.433 . S
C3724 H3720 0.929 . S
C3724 C3726 1.378 . S
C3724 C3728 1.350 . S
C3725 C3728 1.463 . S
C3725 C3730 1.350 . S
C3725 N3733 1.427 . S
C3726 H3717 0.930 . S
C3726 C3724 1.378 . S
C3726 C3727 1.367 . S
C3727 C3726 1.367 . S
C3727 C3729 1.433 . S
C3728 C3724 1.350 . S
C3728 C3725 1.463 . S
C3728 N3732 1.427 . S
C3729 H3719 0.929 . S
C3729 C3727 1.433 . S
C3729 N3732 1.384 . S
C3730 H3721 0.929 . S
C3730 C3722 1.378 . S
C3730 C3725 1.350 . S
C3731 H3718 0.929 . S
C3731 C3723 1.433 . S
C3731 N3733 1.384 . S
N3732 C3728 1.427 . S
N3732 C3729 1.384 . S
N3733 C3725 1.427 . S
N3733 C3731 1.384 . S
H3734 C3740 0.930 . S
H3735 C3744 0.930 . S
H3736 C3749 0.929 . S
H3737 C3747 0.929 . S
H3738 C3742 0.929 . S
H3739 C3748 0.929 . S
C3740 H3734 0.930 . S
C3740 C3741 1.367 . S
C3740 C3748 1.378 . S
C3741 C3740 1.367 . S
C3741 C3749 1.433 . S
C3742 H3738 0.929 . S
C3742 C3744 1.378 . S
C3742 C3746 1.350 . S
C3743 C3746 1.463 . S
C3743 C3748 1.350 . S
C3743 N3751 1.427 . S
C3744 H3735 0.930 . S
C3744 C3742 1.378 . S
C3744 C3745 1.367 . S
C3745 C3744 1.367 . S
C3745 C3747 1.433 . S
C3746 C3742 1.350 . S
C3746 C3743 1.463 . S
C3746 N3750 1.427 . S
C3747 H3737 0.929 . S
C3747 C3745 1.433 . S
C3747 N3750 1.384 . S
C3748 H3739 0.929 . S
C3748 C3740 1.378 . S
C3748 C3743 1.350 . S
C3749 H3736 0.929 . S
C3749 C3741 1.433 . S
C3749 N3751 1.384 . S
N3750 C3746 1.427 . S
N3750 C3747 1.384 . S
N3751 C3743 1.427 . S
N3751 C3749 1.384 . S
H3752 C3758 0.930 . S
H3753 C3762 0.930 . S
H3754 C3767 0.929 . S
H3755 C3765 0.929 . S
H3756 C3760 0.929 . S
H3757 C3766 0.929 . S
C3758 H3752 0.930 . S
C3758 C3759 1.367 . S
C3758 C3766 1.378 . S
C3759 C3758 1.367 . S
C3759 C3767 1.433 . S
C3760 H3756 0.929 . S
C3760 C3762 1.378 . S
C3760 C3764 1.350 . S
C3761 C3764 1.463 . S
C3761 C3766 1.350 . S
C3761 N3769 1.427 . S
C3762 H3753 0.930 . S
C3762 C3760 1.378 . S
C3762 C3763 1.367 . S
C3763 C3762 1.367 . S
C3763 C3765 1.433 . S
C3764 C3760 1.350 . S
C3764 C3761 1.463 . S
C3764 N3768 1.427 . S
C3765 H3755 0.929 . S
C3765 C3763 1.433 . S
C3765 N3768 1.384 . S
C3766 H3757 0.929 . S
C3766 C3758 1.378 . S
C3766 C3761 1.350 . S
C3767 H3754 0.929 . S
C3767 C3759 1.433 . S
C3767 N3769 1.384 . S
N3768 C3764 1.427 . S
N3768 C3765 1.384 . S
N3769 C3761 1.427 . S
N3769 C3767 1.384 . S
H3770 C3776 0.930 . S
H3771 C3780 0.930 . S
H3772 C3785 0.929 . S
H3773 C3783 0.929 . S
H3774 C3778 0.929 . S
H3775 C3784 0.929 . S
C3776 H3770 0.930 . S
C3776 C3777 1.367 . S
C3776 C3784 1.378 . S
C3777 C3776 1.367 . S
C3777 C3785 1.433 . S
C3778 H3774 0.929 . S
C3778 C3780 1.378 . S
C3778 C3782 1.350 . S
C3779 C3782 1.463 . S
C3779 C3784 1.350 . S
C3779 N3787 1.427 . S
C3780 H3771 0.930 . S
C3780 C3778 1.378 . S
C3780 C3781 1.367 . S
C3781 C3780 1.367 . S
C3781 C3783 1.433 . S
C3782 C3778 1.350 . S
C3782 C3779 1.463 . S
C3782 N3786 1.427 . S
C3783 H3773 0.929 . S
C3783 C3781 1.433 . S
C3783 N3786 1.384 . S
C3784 H3775 0.929 . S
C3784 C3776 1.378 . S
C3784 C3779 1.350 . S
C3785 H3772 0.929 . S
C3785 C3777 1.433 . S
C3785 N3787 1.384 . S
N3786 C3782 1.427 . S
N3786 C3783 1.384 . S
N3787 C3779 1.427 . S
N3787 C3785 1.384 . S
H3788 C3794 0.930 . S
H3789 C3798 0.930 . S
H3790 C3803 0.929 . S
H3791 C3801 0.929 . S
H3792 C3796 0.929 . S
H3793 C3802 0.929 . S
C3794 H3788 0.930 . S
C3794 C3795 1.367 . S
C3794 C3802 1.378 . S
C3795 C3794 1.367 . S
C3795 C3803 1.433 . S
C3796 H3792 0.929 . S
C3796 C3798 1.378 . S
C3796 C3800 1.350 . S
C3797 C3800 1.463 . S
C3797 C3802 1.350 . S
C3797 N3805 1.427 . S
C3798 H3789 0.930 . S
C3798 C3796 1.378 . S
C3798 C3799 1.367 . S
C3799 C3798 1.367 . S
C3799 C3801 1.433 . S
C3800 C3796 1.350 . S
C3800 C3797 1.463 . S
C3800 N3804 1.427 . S
C3801 H3791 0.929 . S
C3801 C3799 1.433 . S
C3801 N3804 1.384 . S
C3802 H3793 0.929 . S
C3802 C3794 1.378 . S
C3802 C3797 1.350 . S
C3803 H3790 0.929 . S
C3803 C3795 1.433 . S
C3803 N3805 1.384 . S
N3804 C3800 1.427 . S
N3804 C3801 1.384 . S
N3805 C3797 1.427 . S
N3805 C3803 1.384 . S
H3806 C3812 0.930 . S
H3807 C3816 0.930 . S
H3808 C3821 0.929 . S
H3809 C3819 0.929 . S
H3810 C3814 0.929 . S
H3811 C3820 0.929 . S
C3812 H3806 0.930 . S
C3812 C3813 1.367 . S
C3812 C3820 1.378 . S
C3813 C3812 1.367 . S
C3813 C3821 1.433 . S
C3814 H3810 0.929 . S
C3814 C3816 1.378 . S
C3814 C3818 1.350 . S
C3815 C3818 1.463 . S
C3815 C3820 1.350 . S
C3815 N3823 1.427 . S
C3816 H3807 0.930 . S
C3816 C3814 1.378 . S
C3816 C3817 1.367 . S
C3817 C3816 1.367 . S
C3817 C3819 1.433 . S
C3818 C3814 1.350 . S
C3818 C3815 1.463 . S
C3818 N3822 1.427 . S
C3819 H3809 0.929 . S
C3819 C3817 1.433 . S
C3819 N3822 1.384 . S
C3820 H3811 0.929 . S
C3820 C3812 1.378 . S
C3820 C3815 1.350 . S
C3821 H3808 0.929 . S
C3821 C3813 1.433 . S
C3821 N3823 1.384 . S
N3822 C3818 1.427 . S
N3822 C3819 1.384 . S
N3823 C3815 1.427 . S
N3823 C3821 1.384 . S
H3824 C3830 0.930 . S
H3825 C3834 0.930 . S
H3826 C3839 0.929 . S
H3827 C3837 0.929 . S
H3828 C3832 0.929 . S
H3829 C3838 0.929 . S
C3830 H3824 0.930 . S
C3830 C3831 1.367 . S
C3830 C3838 1.378 . S
C3831 C3830 1.367 . S
C3831 C3839 1.433 . S
C3832 H3828 0.929 . S
C3832 C3834 1.378 . S
C3832 C3836 1.350 . S
C3833 C3836 1.463 . S
C3833 C3838 1.350 . S
C3833 N3841 1.427 . S
C3834 H3825 0.930 . S
C3834 C3832 1.378 . S
C3834 C3835 1.367 . S
C3835 C3834 1.367 . S
C3835 C3837 1.433 . S
C3836 C3832 1.350 . S
C3836 C3833 1.463 . S
C3836 N3840 1.427 . S
C3837 H3827 0.929 . S
C3837 C3835 1.433 . S
C3837 N3840 1.384 . S
C3838 H3829 0.929 . S
C3838 C3830 1.378 . S
C3838 C3833 1.350 . S
C3839 H3826 0.929 . S
C3839 C3831 1.433 . S
C3839 N3841 1.384 . S
N3840 C3836 1.427 . S
N3840 C3837 1.384 . S
N3841 C3833 1.427 . S
N3841 C3839 1.384 . S
H3842 C3848 0.930 . S
H3843 C3852 0.930 . S
H3844 C3857 0.929 . S
H3845 C3855 0.929 . S
H3846 C3850 0.929 . S
H3847 C3856 0.929 . S
C3848 H3842 0.930 . S
C3848 C3849 1.367 . S
C3848 C3856 1.378 . S
C3849 C3848 1.367 . S
C3849 C3857 1.433 . S
C3850 H3846 0.929 . S
C3850 C3852 1.378 . S
C3850 C3854 1.350 . S
C3851 C3854 1.463 . S
C3851 C3856 1.350 . S
C3851 N3859 1.427 . S
C3852 H3843 0.930 . S
C3852 C3850 1.378 . S
C3852 C3853 1.367 . S
C3853 C3852 1.367 . S
C3853 C3855 1.433 . S
C3854 C3850 1.350 . S
C3854 C3851 1.463 . S
C3854 N3858 1.427 . S
C3855 H3845 0.929 . S
C3855 C3853 1.433 . S
C3855 N3858 1.384 . S
C3856 H3847 0.929 . S
C3856 C3848 1.378 . S
C3856 C3851 1.350 . S
C3857 H3844 0.929 . S
C3857 C3849 1.433 . S
C3857 N3859 1.384 . S
N3858 C3854 1.427 . S
N3858 C3855 1.384 . S
N3859 C3851 1.427 . S
N3859 C3857 1.384 . S
H3860 C3866 0.930 . S
H3861 C3870 0.930 . S
H3862 C3875 0.929 . S
H3863 C3873 0.929 . S
H3864 C3868 0.929 . S
H3865 C3874 0.929 . S
C3866 H3860 0.930 . S
C3866 C3867 1.367 . S
C3866 C3874 1.378 . S
C3867 C3866 1.367 . S
C3867 C3875 1.433 . S
C3868 H3864 0.929 . S
C3868 C3870 1.378 . S
C3868 C3872 1.350 . S
C3869 C3872 1.463 . S
C3869 C3874 1.350 . S
C3869 N3877 1.427 . S
C3870 H3861 0.930 . S
C3870 C3868 1.378 . S
C3870 C3871 1.367 . S
C3871 C3870 1.367 . S
C3871 C3873 1.433 . S
C3872 C3868 1.350 . S
C3872 C3869 1.463 . S
C3872 N3876 1.427 . S
C3873 H3863 0.929 . S
C3873 C3871 1.433 . S
C3873 N3876 1.384 . S
C3874 H3865 0.929 . S
C3874 C3866 1.378 . S
C3874 C3869 1.350 . S
C3875 H3862 0.929 . S
C3875 C3867 1.433 . S
C3875 N3877 1.384 . S
N3876 C3872 1.427 . S
N3876 C3873 1.384 . S
N3877 C3869 1.427 . S
N3877 C3875 1.384 . S
H3878 C3884 0.930 . S
H3879 C3888 0.930 . S
H3880 C3893 0.929 . S
H3881 C3891 0.929 . S
H3882 C3886 0.929 . S
H3883 C3892 0.929 . S
C3884 H3878 0.930 . S
C3884 C3885 1.367 . S
C3884 C3892 1.378 . S
C3885 C3884 1.367 . S
C3885 C3893 1.433 . S
C3886 H3882 0.929 . S
C3886 C3888 1.378 . S
C3886 C3890 1.350 . S
C3887 C3890 1.463 . S
C3887 C3892 1.350 . S
C3887 N3895 1.427 . S
C3888 H3879 0.930 . S
C3888 C3886 1.378 . S
C3888 C3889 1.367 . S
C3889 C3888 1.367 . S
C3889 C3891 1.433 . S
C3890 C3886 1.350 . S
C3890 C3887 1.463 . S
C3890 N3894 1.427 . S
C3891 H3881 0.929 . S
C3891 C3889 1.433 . S
C3891 N3894 1.384 . S
C3892 H3883 0.929 . S
C3892 C3884 1.378 . S
C3892 C3887 1.350 . S
C3893 H3880 0.929 . S
C3893 C3885 1.433 . S
C3893 N3895 1.384 . S
N3894 C3890 1.427 . S
N3894 C3891 1.384 . S
N3895 C3887 1.427 . S
N3895 C3893 1.384 . S
H3896 C3902 0.930 . S
H3897 C3906 0.930 . S
H3898 C3911 0.929 . S
H3899 C3909 0.929 . S
H3900 C3904 0.929 . S
H3901 C3910 0.929 . S
C3902 H3896 0.930 . S
C3902 C3903 1.367 . S
C3902 C3910 1.378 . S
C3903 C3902 1.367 . S
C3903 C3911 1.433 . S
C3904 H3900 0.929 . S
C3904 C3906 1.378 . S
C3904 C3908 1.350 . S
C3905 C3908 1.463 . S
C3905 C3910 1.350 . S
C3905 N3913 1.427 . S
C3906 H3897 0.930 . S
C3906 C3904 1.378 . S
C3906 C3907 1.367 . S
C3907 C3906 1.367 . S
C3907 C3909 1.433 . S
C3908 C3904 1.350 . S
C3908 C3905 1.463 . S
C3908 N3912 1.427 . S
C3909 H3899 0.929 . S
C3909 C3907 1.433 . S
C3909 N3912 1.384 . S
C3910 H3901 0.929 . S
C3910 C3902 1.378 . S
C3910 C3905 1.350 . S
C3911 H3898 0.929 . S
C3911 C3903 1.433 . S
C3911 N3913 1.384 . S
N3912 C3908 1.427 . S
N3912 C3909 1.384 . S
N3913 C3905 1.427 . S
N3913 C3911 1.384 . S
H3914 C3920 0.930 . S
H3915 C3924 0.930 . S
H3916 C3929 0.929 . S
H3917 C3927 0.929 . S
H3918 C3922 0.929 . S
H3919 C3928 0.929 . S
C3920 H3914 0.930 . S
C3920 C3921 1.367 . S
C3920 C3928 1.378 . S
C3921 C3920 1.367 . S
C3921 C3929 1.433 . S
C3922 H3918 0.929 . S
C3922 C3924 1.378 . S
C3922 C3926 1.350 . S
C3923 C3926 1.463 . S
C3923 C3928 1.350 . S
C3923 N3931 1.427 . S
C3924 H3915 0.930 . S
C3924 C3922 1.378 . S
C3924 C3925 1.367 . S
C3925 C3924 1.367 . S
C3925 C3927 1.433 . S
C3926 C3922 1.350 . S
C3926 C3923 1.463 . S
C3926 N3930 1.427 . S
C3927 H3917 0.929 . S
C3927 C3925 1.433 . S
C3927 N3930 1.384 . S
C3928 H3919 0.929 . S
C3928 C3920 1.378 . S
C3928 C3923 1.350 . S
C3929 H3916 0.929 . S
C3929 C3921 1.433 . S
C3929 N3931 1.384 . S
N3930 C3926 1.427 . S
N3930 C3927 1.384 . S
N3931 C3923 1.427 . S
N3931 C3929 1.384 . S
H3932 C3938 0.930 . S
H3933 C3942 0.930 . S
H3934 C3947 0.929 . S
H3935 C3945 0.929 . S
H3936 C3940 0.929 . S
H3937 C3946 0.929 . S
C3938 H3932 0.930 . S
C3938 C3939 1.367 . S
C3938 C3946 1.378 . S
C3939 C3938 1.367 . S
C3939 C3947 1.433 . S
C3940 H3936 0.929 . S
C3940 C3942 1.378 . S
C3940 C3944 1.350 . S
C3941 C3944 1.463 . S
C3941 C3946 1.350 . S
C3941 N3949 1.427 . S
C3942 H3933 0.930 . S
C3942 C3940 1.378 . S
C3942 C3943 1.367 . S
C3943 C3942 1.367 . S
C3943 C3945 1.433 . S
C3944 C3940 1.350 . S
C3944 C3941 1.463 . S
C3944 N3948 1.427 . S
C3945 H3935 0.929 . S
C3945 C3943 1.433 . S
C3945 N3948 1.384 . S
C3946 H3937 0.929 . S
C3946 C3938 1.378 . S
C3946 C3941 1.350 . S
C3947 H3934 0.929 . S
C3947 C3939 1.433 . S
C3947 N3949 1.384 . S
N3948 C3944 1.427 . S
N3948 C3945 1.384 . S
N3949 C3941 1.427 . S
N3949 C3947 1.384 . S
H3950 C3956 0.930 . S
H3951 C3960 0.930 . S
H3952 C3965 0.929 . S
H3953 C3963 0.929 . S
H3954 C3958 0.929 . S
H3955 C3964 0.929 . S
C3956 H3950 0.930 . S
C3956 C3957 1.367 . S
C3956 C3964 1.378 . S
C3957 C3956 1.367 . S
C3957 C3965 1.433 . S
C3958 H3954 0.929 . S
C3958 C3960 1.378 . S
C3958 C3962 1.350 . S
C3959 C3962 1.463 . S
C3959 C3964 1.350 . S
C3959 N3967 1.427 . S
C3960 H3951 0.930 . S
C3960 C3958 1.378 . S
C3960 C3961 1.367 . S
C3961 C3960 1.367 . S
C3961 C3963 1.433 . S
C3962 C3958 1.350 . S
C3962 C3959 1.463 . S
C3962 N3966 1.427 . S
C3963 H3953 0.929 . S
C3963 C3961 1.433 . S
C3963 N3966 1.384 . S
C3964 H3955 0.929 . S
C3964 C3956 1.378 . S
C3964 C3959 1.350 . S
C3965 H3952 0.929 . S
C3965 C3957 1.433 . S
C3965 N3967 1.384 . S
N3966 C3962 1.427 . S
N3966 C3963 1.384 . S
N3967 C3959 1.427 . S
N3967 C3965 1.384 . S
C2823 C2609 1.318 . S
C2827 C29 1.321 . S
C2841 C117 1.322 . S
C2845 C2689 1.317 . S
C2859 C2777 1.323 . S
C2863 C233 1.316 . S
C2877 C2521 1.316 . S
C2881 C293 1.323 . S
C2895 C401 1.316 . S
C2899 C2396 1.323 . S
C2913 C2141 1.323 . S
C2917 C469 1.316 . S
C2931 C548 1.321 . S
C2935 C2229 1.319 . S
C2949 C2308 1.320 . S
C2953 C665 1.319 . S
C2967 C724 1.321 . S
C2971 C1877 1.318 . S
C2985 C821 1.323 . S
C2989 C1956 1.316 . S
C3003 C2073 1.319 . S
C3007 C909 1.321 . S
C3021 C988 1.319 . S
C3025 C1809 1.321 . S
C3039 C1701 1.318 . S
C3043 C1113 1.322 . S
C3057 C1437 1.323 . S
C3061 C1201 1.316 . S
C3075 C1281 1.317 . S
C3079 C1516 1.322 . S
C3093 C1369 1.320 . S
C3097 C1641 1.320 . S
C3111 C49 1.470 . S
C3115 C900 1.462 . S
C3129 C997 1.463 . S
C3133 C137 1.469 . S
C3147 C733 1.465 . S
C3151 C196 1.467 . S
C3165 C812 1.468 . S
C3169 C313 1.465 . S
C3183 C381 1.470 . S
C3187 C1289 1.462 . S
C3201 C1377 1.467 . S
C3205 C489 1.465 . S
C3219 C1105 1.466 . S
C3223 C585 1.466 . S
C3237 C1193 1.468 . S
C3241 C645 1.465 . S
C3255 C1457 1.465 . S
C3259 C2317 1.468 . S
C3273 C2405 1.468 . S
C3277 C1553 1.465 . S
C3291 C2132 1.467 . S
C3295 C1604 1.466 . S
C3309 C1721 1.470 . S
C3313 C2220 1.463 . S
C3327 C1789 1.465 . S
C3331 C2697 1.468 . S
C3345 C2785 1.462 . S
C3349 C1897 1.470 . S
C3363 C2513 1.468 . S
C3367 C1993 1.465 . S
C3381 C2053 1.467 . S
C3385 C2601 1.466 . S
C3399 C57 0.866 . S
C3403 C372 0.868 . S
C3417 C145 0.867 . S
C3421 C497 0.865 . S
C3435 C577 0.867 . S
C3439 C205 0.865 . S
C3453 C321 0.866 . S
C3457 C636 0.867 . S
C3471 C753 0.878 . S
C3475 C1085 0.878 . S
C3489 C1173 0.877 . S
C3493 C849 0.880 . S
C3507 C1252 0.880 . S
C3511 C937 0.878 . S
C3525 C1017 0.878 . S
C3529 C1340 0.880 . S
C3543 C1465 0.867 . S
C3547 C1780 0.865 . S
C3561 C1905 0.866 . S
C3565 C1545 0.865 . S
C3579 C1613 0.867 . S
C3583 C1985 0.868 . S
C3597 C2044 0.865 . S
C3601 C1729 0.866 . S
C3615 C2493 0.878 . S
C3619 C2169 0.879 . S
C3633 C2257 0.877 . S
C3637 C2581 0.880 . S
C3651 C2337 0.877 . S
C3655 C2660 0.879 . S
C3669 C2425 0.879 . S
C3673 C2748 0.879 . S
C3687 C20 1.542 . S
C3691 C460 1.544 . S
C3705 C108 1.543 . S
C3709 C557 1.543 . S
C3723 C673 1.544 . S
C3727 C225 1.542 . S
C3741 C409 1.544 . S
C3745 C284 1.542 . S
C3759 C1164 1.546 . S
C3763 C761 1.547 . S
C3777 C1261 1.545 . S
C3781 C841 1.548 . S
C3795 C1349 1.547 . S
C3799 C929 1.545 . S
C3813 C1025 1.544 . S
C3817 C1076 1.548 . S
C3831 C1428 1.545 . S
C3835 C1868 1.542 . S
C3849 C1965 1.544 . S
C3853 C1525 1.542 . S
C3867 C2081 1.544 . S
C3871 C1633 1.542 . S
C3885 C1692 1.544 . S
C3889 C1817 1.542 . S
C3903 C2572 1.547 . S
C3907 C2161 1.545 . S
C3921 C2249 1.545 . S
C3925 C2669 1.548 . S
C3939 C2345 1.545 . S
C3943 C2757 1.548 . S
C3957 C2484 1.546 . S
C3961 C2433 1.547 . S
