# Generated by pormake.
# Topology bcs, (6)-cn, num edge types: 1
# Building blocks:
#     Node 0, Type 0, BuildingBlock: GEDQOX_clean_sbu_0, # of connection points: 6
#     Node 1, Type 0, BuildingBlock: GEDQOX_clean_sbu_0, # of connection points: 6
#     Node 2, Type 0, BuildingBlock: GEDQOX_clean_sbu_0, # of connection points: 6
#     Node 3, Type 0, BuildingBlock: GEDQOX_clean_sbu_0, # of connection points: 6
#     Node 4, Type 0, BuildingBlock: GEDQOX_clean_sbu_0, # of connection points: 6
#     Node 5, Type 0, BuildingBlock: GEDQOX_clean_sbu_0, # of connection points: 6
#     Node 6, Type 0, BuildingBlock: GEDQOX_clean_sbu_0, # of connection points: 6
#     Node 7, Type 0, BuildingBlock: GEDQOX_clean_sbu_0, # of connection points: 6
#     Node 8, Type 0, BuildingBlock: GEDQOX_clean_sbu_0, # of connection points: 6
#     Node 9, Type 0, BuildingBlock: GEDQOX_clean_sbu_0, # of connection points: 6
#     Node 10, Type 0, BuildingBlock: GEDQOX_clean_sbu_0, # of connection points: 6
#     Node 11, Type 0, BuildingBlock: GEDQOX_clean_sbu_0, # of connection points: 6
#     Node 12, Type 0, BuildingBlock: GEDQOX_clean_sbu_0, # of connection points: 6
#     Node 13, Type 0, BuildingBlock: GEDQOX_clean_sbu_0, # of connection points: 6
#     Node 14, Type 0, BuildingBlock: GEDQOX_clean_sbu_0, # of connection points: 6
#     Node 15, Type 0, BuildingBlock: GEDQOX_clean_sbu_0, # of connection points: 6
#     Edge 16, Type (0, 0), BuildingBlock: TEMPAE_clean_linker_10, # of connection points: 2
#     Edge 17, Type (0, 0), BuildingBlock: TEMPAE_clean_linker_10, # of connection points: 2
#     Edge 18, Type (0, 0), BuildingBlock: TEMPAE_clean_linker_10, # of connection points: 2
#     Edge 19, Type (0, 0), BuildingBlock: TEMPAE_clean_linker_10, # of connection points: 2
#     Edge 20, Type (0, 0), BuildingBlock: TEMPAE_clean_linker_10, # of connection points: 2
#     Edge 21, Type (0, 0), BuildingBlock: TEMPAE_clean_linker_10, # of connection points: 2
#     Edge 22, Type (0, 0), BuildingBlock: TEMPAE_clean_linker_10, # of connection points: 2
#     Edge 23, Type (0, 0), BuildingBlock: TEMPAE_clean_linker_10, # of connection points: 2
#     Edge 24, Type (0, 0), BuildingBlock: TEMPAE_clean_linker_10, # of connection points: 2
#     Edge 25, Type (0, 0), BuildingBlock: TEMPAE_clean_linker_10, # of connection points: 2
#     Edge 26, Type (0, 0), BuildingBlock: TEMPAE_clean_linker_10, # of connection points: 2
#     Edge 27, Type (0, 0), BuildingBlock: TEMPAE_clean_linker_10, # of connection points: 2
#     Edge 28, Type (0, 0), BuildingBlock: TEMPAE_clean_linker_10, # of connection points: 2
#     Edge 29, Type (0, 0), BuildingBlock: TEMPAE_clean_linker_10, # of connection points: 2
#     Edge 30, Type (0, 0), BuildingBlock: TEMPAE_clean_linker_10, # of connection points: 2
#     Edge 31, Type (0, 0), BuildingBlock: TEMPAE_clean_linker_10, # of connection points: 2
#     Edge 32, Type (0, 0), BuildingBlock: TEMPAE_clean_linker_10, # of connection points: 2
#     Edge 33, Type (0, 0), BuildingBlock: TEMPAE_clean_linker_10, # of connection points: 2
#     Edge 34, Type (0, 0), BuildingBlock: TEMPAE_clean_linker_10, # of connection points: 2
#     Edge 35, Type (0, 0), BuildingBlock: TEMPAE_clean_linker_10, # of connection points: 2
#     Edge 36, Type (0, 0), BuildingBlock: TEMPAE_clean_linker_10, # of connection points: 2
#     Edge 37, Type (0, 0), BuildingBlock: TEMPAE_clean_linker_10, # of connection points: 2
#     Edge 38, Type (0, 0), BuildingBlock: TEMPAE_clean_linker_10, # of connection points: 2
#     Edge 39, Type (0, 0), BuildingBlock: TEMPAE_clean_linker_10, # of connection points: 2
#     Edge 40, Type (0, 0), BuildingBlock: TEMPAE_clean_linker_10, # of connection points: 2
#     Edge 41, Type (0, 0), BuildingBlock: TEMPAE_clean_linker_10, # of connection points: 2
#     Edge 42, Type (0, 0), BuildingBlock: TEMPAE_clean_linker_10, # of connection points: 2
#     Edge 43, Type (0, 0), BuildingBlock: TEMPAE_clean_linker_10, # of connection points: 2
#     Edge 44, Type (0, 0), BuildingBlock: TEMPAE_clean_linker_10, # of connection points: 2
#     Edge 45, Type (0, 0), BuildingBlock: TEMPAE_clean_linker_10, # of connection points: 2
#     Edge 46, Type (0, 0), BuildingBlock: TEMPAE_clean_linker_10, # of connection points: 2
#     Edge 47, Type (0, 0), BuildingBlock: TEMPAE_clean_linker_10, # of connection points: 2
#     Edge 48, Type (0, 0), BuildingBlock: TEMPAE_clean_linker_10, # of connection points: 2
#     Edge 49, Type (0, 0), BuildingBlock: TEMPAE_clean_linker_10, # of connection points: 2
#     Edge 50, Type (0, 0), BuildingBlock: TEMPAE_clean_linker_10, # of connection points: 2
#     Edge 51, Type (0, 0), BuildingBlock: TEMPAE_clean_linker_10, # of connection points: 2
#     Edge 52, Type (0, 0), BuildingBlock: TEMPAE_clean_linker_10, # of connection points: 2
#     Edge 53, Type (0, 0), BuildingBlock: TEMPAE_clean_linker_10, # of connection points: 2
#     Edge 54, Type (0, 0), BuildingBlock: TEMPAE_clean_linker_10, # of connection points: 2
#     Edge 55, Type (0, 0), BuildingBlock: TEMPAE_clean_linker_10, # of connection points: 2
#     Edge 56, Type (0, 0), BuildingBlock: TEMPAE_clean_linker_10, # of connection points: 2
#     Edge 57, Type (0, 0), BuildingBlock: TEMPAE_clean_linker_10, # of connection points: 2
#     Edge 58, Type (0, 0), BuildingBlock: TEMPAE_clean_linker_10, # of connection points: 2
#     Edge 59, Type (0, 0), BuildingBlock: TEMPAE_clean_linker_10, # of connection points: 2
#     Edge 60, Type (0, 0), BuildingBlock: TEMPAE_clean_linker_10, # of connection points: 2
#     Edge 61, Type (0, 0), BuildingBlock: TEMPAE_clean_linker_10, # of connection points: 2
#     Edge 62, Type (0, 0), BuildingBlock: TEMPAE_clean_linker_10, # of connection points: 2
#     Edge 63, Type (0, 0), BuildingBlock: TEMPAE_clean_linker_10, # of connection points: 2
# Relax obj value: 0.393
# Max RMSD: 0.318
# Mean RMSD: 0.229
data_MOF--net-bcs--node1-GEDQOX_clean_sbu_0--edge1-TEMPAE_clean_linker_10
_symmetry_space_group_name_H-M    P1
_symmetry_Int_Tables_number       1
_symmetry_cell_setting            triclinic
loop_
_symmetry_equiv_pos_as_xyz
'x, y, z'
_cell_length_a     42.54258
_cell_length_b     43.615008
_cell_length_c     41.829937
_cell_angle_alpha  119.70687
_cell_angle_beta   92.684884
_cell_angle_gamma 96.003969
loop_
_atom_site_label
_atom_site_type_symbol
_atom_site_fract_x
_atom_site_fract_y
_atom_site_fract_z
_atom_type_partial_charge
Nd0 Nd 0.04628 0.02237 0.04106 0.0
Nd1 Nd 1.00088 1.02184 0.97553 0.0
C2 C 0.09376 0.02235 0.0862 0.0
C3 C 0.10882 0.99782 0.09689 0.0
C4 C 0.14079 0.99255 0.09153 0.0
C5 C 0.15615 0.97181 0.1032 0.0
C6 C 0.14035 0.95517 0.12093 0.0
C7 C 0.10812 0.96015 0.1259 0.0
C8 C 0.09278 0.98106 0.1143 0.0
C9 C 0.99206 0.97204 0.02194 0.0
C10 C 0.05737 0.96895 0.95215 0.0
C11 C 0.95355 0.02242 0.93059 0.0
C12 C 0.93888 0.04742 0.92026 0.0
C13 C 0.90764 0.05481 0.92774 0.0
C14 C 0.89259 0.07601 0.91645 0.0
C15 C 0.90797 0.091 0.89697 0.0
C16 C 0.93947 0.08388 0.88985 0.0
C17 C 0.9545 0.06252 0.90108 0.0
C18 C 0.05489 0.07236 0.99476 0.0
C19 C 0.98951 0.07496 0.06424 0.0
O20 O 0.09718 1.01846 0.05351 0.0
O21 O 0.06592 0.03144 0.09641 0.0
O22 O 1.01618 0.97783 0.04494 0.0
O23 O 0.99819 0.99096 0.00683 0.0
O24 O 0.0685 0.98678 0.98775 0.0
O25 O 0.02919 0.97352 0.94049 0.0
O26 O 0.95008 0.02614 0.96321 0.0
O27 O 0.98126 1.01295 0.92022 0.0
O28 O 0.03065 0.06659 0.97194 0.0
O29 O 0.04908 0.05333 0.00981 0.0
O30 O 0.97836 0.05692 0.02868 0.0
O31 O 1.01781 0.07067 0.07595 0.0
H32 H 0.15426 1.00492 0.07849 0.0
H33 H 0.1806 0.96868 0.09793 0.0
H34 H 0.09471 0.94853 0.13963 0.0
H35 H 0.0683 0.98438 0.1194 0.0
H36 H 0.89448 0.04378 0.94218 0.0
H37 H 0.86872 0.0808 0.92338 0.0
H38 H 0.95251 0.09414 0.87471 0.0
H39 H 0.97838 0.05753 0.89428 0.0
Nd40 Nd 0.27612 0.79689 0.2865 0.0
Nd41 Nd 0.29496 0.74551 0.21053 0.0
C42 C 0.27234 0.85045 0.3532 0.0
C43 C 0.27133 0.85274 0.38944 0.0
C44 C 0.29509 0.84082 0.40328 0.0
C45 C 0.28968 0.83363 0.43171 0.0
C46 C 0.26031 0.83771 0.44627 0.0
C47 C 0.23832 0.8538 0.43546 0.0
C48 C 0.24388 0.86135 0.40734 0.0
C49 C 0.23511 0.73408 0.24589 0.0
C50 C 0.31263 0.73006 0.27863 0.0
C51 C 0.29903 0.70057 0.14003 0.0
C52 C 0.28742 0.69798 0.10517 0.0
C53 C 0.26335 0.71731 0.10424 0.0
C54 C 0.26012 0.72543 0.07597 0.0
C55 C 0.28108 0.71447 0.04859 0.0
C56 C 0.30225 0.69118 0.04717 0.0
C57 C 0.30545 0.68312 0.07539 0.0
C58 C 0.34187 0.79892 0.25921 0.0
C59 C 0.2553 0.81162 0.2181 0.0
O60 O 0.29921 0.84404 0.33863 0.0
O61 O 0.24728 0.8318 0.32904 0.0
O62 O 0.24143 0.7495 0.28169 0.0
O63 O 0.24877 0.75269 0.23403 0.0
O64 O 0.30807 0.76361 0.30103 0.0
O65 O 0.30452 0.71493 0.24227 0.0
O66 O 0.27786 0.69431 0.15862 0.0
O67 O 0.32021 0.72864 0.161 0.0
O68 O 0.34697 0.76626 0.23867 0.0
O69 O 0.31353 0.80188 0.25324 0.0
O70 O 0.26915 0.78344 0.19608 0.0
O71 O 0.25519 0.82209 0.25384 0.0
H72 H 0.3168 0.83443 0.3904 0.0
H73 H 0.30737 0.82204 0.44006 0.0
H74 H 0.21537 0.85726 0.44592 0.0
H75 H 0.22543 0.87091 0.39736 0.0
H76 H 0.249 0.72875 0.12695 0.0
H77 H 0.24323 0.74286 0.07736 0.0
H78 H 0.31893 0.6824 0.02668 0.0
H79 H 0.32419 0.66824 0.07579 0.0
Nd80 Nd 0.54074 0.05398 0.51052 0.0
Nd81 Nd 0.50693 0.99285 0.51828 0.0
C82 C 0.57096 0.11471 0.52048 0.0
C83 C 0.5621 0.14648 0.52085 0.0
C84 C 0.53335 0.15869 0.53324 0.0
C85 C 0.52321 0.1859 0.52877 0.0
C86 C 0.54147 0.20097 0.51147 0.0
C87 C 0.57087 0.18969 0.50055 0.0
C88 C 0.58112 0.16268 0.5053 0.0
C89 C 0.49319 1.00963 0.45483 0.0
C90 C 0.47673 0.06729 0.55725 0.0
C91 C 0.47638 0.93288 0.5099 0.0
C92 C 0.48365 0.90169 0.51216 0.0
C93 C 0.50606 0.88069 0.49136 0.0
C94 C 0.5148 0.85358 0.49704 0.0
C95 C 0.50154 0.84741 0.52384 0.0
C96 C 0.47821 0.86743 0.54346 0.0
C97 C 0.4692 0.89419 0.53748 0.0
C98 C 0.55517 0.03719 0.57348 0.0
C99 C 0.57024 0.97904 0.47031 0.0
O100 O 0.56325 0.10998 0.54784 0.0
O101 O 0.56547 0.08532 0.48827 0.0
O102 O 0.51866 0.02471 0.44939 0.0
O103 O 0.49245 1.02069 0.48873 0.0
O104 O 0.50402 0.082 0.55284 0.0
O105 O 0.46989 0.03205 0.54084 0.0
O106 O 0.48567 0.93611 0.48215 0.0
O107 O 0.48071 0.96315 0.54129 0.0
O108 O 0.52962 0.02276 0.57949 0.0
O109 O 0.55534 0.02572 0.53949 0.0
O110 O 0.54314 0.96452 0.47538 0.0
O111 O 0.57724 1.01428 0.48652 0.0
H112 H 0.51815 0.14628 0.545 0.0
H113 H 0.50026 0.19378 0.537 0.0
H114 H 0.58544 0.20103 0.48733 0.0
H115 H 0.60333 0.15346 0.49551 0.0
H116 H 0.51761 0.88593 0.47166 0.0
H117 H 0.53307 0.83866 0.48184 0.0
H118 H 0.46759 0.86301 0.56414 0.0
H119 H 0.45172 0.90992 0.55363 0.0
Nd120 Nd 0.27904 0.2965 0.74227 0.0
Nd121 Nd 0.2655 0.2524 0.78235 0.0
C122 C 0.28795 0.32425 0.69769 0.0
C123 C 0.30987 0.33706 0.67766 0.0
C124 C 0.31225 0.31562 0.63944 0.0
C125 C 0.32942 0.32921 0.61978 0.0
C126 C 0.34481 0.36496 0.63741 0.0
C127 C 0.34264 0.38618 0.67579 0.0
C128 C 0.32553 0.37258 0.69539 0.0
C129 C 0.31983 0.31667 0.80502 0.0
C130 C 0.31484 0.22449 0.71552 0.0
C131 C 0.26087 0.21691 0.81945 0.0
C132 C 0.24084 0.20572 0.84188 0.0
C133 C 0.20764 0.19526 0.8334 0.0
C134 C 0.19003 0.18229 0.85327 0.0
C135 C 0.20493 0.17905 0.88227 0.0
C136 C 0.23818 0.19002 0.89081 0.0
C137 C 0.25569 0.20306 0.87105 0.0
C138 C 0.21489 0.24856 0.73638 0.0
C139 C 0.23467 0.32628 0.81061 0.0
O140 O 0.27981 0.29014 0.6854 0.0
O141 O 0.28954 0.34305 0.73376 0.0
O142 O 0.30976 0.33875 0.79612 0.0
O143 O 0.30897 0.28528 0.78058 0.0
O144 O 0.31009 0.25192 0.71119 0.0
O145 O 0.30089 0.21925 0.74076 0.0
O146 O 0.27427 0.25033 0.83454 0.0
O147 O 0.25202 0.20239 0.78384 0.0
O148 O 0.21241 0.24875 0.76712 0.0
O149 O 0.24339 0.24825 0.72933 0.0
O150 O 0.24983 0.30756 0.82201 0.0
O151 O 0.23775 0.32196 0.7771 0.0
H152 H 0.30025 0.28835 0.6244 0.0
H153 H 0.33057 0.31146 0.59056 0.0
H154 H 0.35339 0.41391 0.69079 0.0
H155 H 0.3239 0.39044 0.72449 0.0
H156 H 0.19525 0.19681 0.81114 0.0
H157 H 0.16455 0.17493 0.84584 0.0
H158 H 0.25106 0.1877 0.91225 0.0
H159 H 0.28122 0.21044 0.87817 0.0
Nd160 Nd 1.00345 1.01517 0.51674 0.0
Nd161 Nd 0.05822 0.02756 0.47815 0.0
C162 C 0.96103 1.00281 0.5564 0.0
C163 C 0.94858 0.98009 0.57245 0.0
C164 C 0.95802 0.98916 0.60925 0.0
C165 C 0.94315 0.97011 0.62513 0.0
C166 C 0.91796 0.94162 0.605 0.0
C167 C 0.90903 0.93229 0.56801 0.0
C168 C 0.92396 0.9511 0.55214 0.0
C169 C 1.00176 0.96575 0.44239 0.0
C170 C 0.0704 0.98571 0.52539 0.0
C171 C 0.10419 0.03103 0.43789 0.0
C172 C 0.11964 0.05225 0.4219 0.0
C173 C 0.10683 0.08081 0.42205 0.0
C174 C 0.12215 0.09997 0.40653 0.0
C175 C 0.15082 0.09122 0.39039 0.0
C176 C 0.1633 0.06242 0.39032 0.0
C177 C 0.14802 0.0434 0.40578 0.0
C178 C 0.04889 0.08775 0.54284 0.0
C179 C 0.99111 0.05593 0.47107 0.0
O180 O 0.98708 0.02597 0.57155 0.0
O181 O 0.95745 0.98854 0.5205 0.0
O182 O 0.97806 0.98124 0.45812 0.0
O183 O 1.02606 0.97755 0.4657 0.0
O184 O 0.04073 0.989 0.53331 0.0
O185 O 0.08268 0.99748 0.50401 0.0
O186 O 0.07546 1.01347 0.42356 0.0
O187 O 0.10851 0.04458 0.47387 0.0
O188 O 0.05488 0.08715 0.51253 0.0
O189 O 0.04752 0.05671 0.53804 0.0
O190 O 1.01443 0.03946 0.45259 0.0
O191 O 0.98555 0.05632 0.50236 0.0
H192 H 0.97643 1.01158 0.62616 0.0
H193 H 0.95077 0.97855 0.65371 0.0
H194 H 0.89025 0.91031 0.55109 0.0
H195 H 0.91555 0.94331 0.52393 0.0
H196 H 0.08501 0.08841 0.43426 0.0
H197 H 0.1117 0.12205 0.40774 0.0
H198 H 0.18481 0.05404 0.37777 0.0
H199 H 0.15847 1.02145 0.40498 0.0
Nd200 Nd 0.26705 0.78378 0.72588 0.0
Nd201 Nd 0.28347 0.76697 0.78919 0.0
C202 C 0.25229 0.81296 0.68458 0.0
C203 C 0.22989 0.83093 0.67219 0.0
C204 C 0.23059 0.86828 0.69127 0.0
C205 C 0.21259 0.88504 0.67669 0.0
C206 C 0.19334 0.86524 0.64214 0.0
C207 C 0.19225 0.82772 0.62364 0.0
C208 C 0.21012 0.81105 0.63828 0.0
C209 C 0.24257 0.71755 0.71271 0.0
C210 C 0.22261 0.8106 0.7983 0.0
C211 C 0.30128 0.73905 0.83081 0.0
C212 C 0.3251 0.72037 0.84044 0.0
C213 C 0.32109 0.6829 0.82392 0.0
C214 C 0.34059 0.66578 0.83655 0.0
C215 C 0.36482 0.68531 0.86673 0.0
C216 C 0.36951 0.72289 0.88224 0.0
C217 C 0.34999 0.73995 0.86956 0.0
C218 C 0.30822 0.83254 0.80047 0.0
C219 C 0.32707 0.73906 0.71655 0.0
O220 O 0.26917 0.8308 0.71719 0.0
O221 O 0.24473 0.77914 0.67391 0.0
O222 O 0.25279 0.72411 0.68762 0.0
O223 O 0.24335 0.74598 0.74335 0.0
O224 O 0.23236 0.81376 0.77006 0.0
O225 O 0.236 0.79004 0.80869 0.0
O226 O 0.28171 0.72131 0.8001 0.0
O227 O 0.30932 0.77242 0.83998 0.0
O228 O 0.29796 0.82734 0.82641 0.0
O229 O 0.30716 0.8035 0.77066 0.0
O230 O 0.31672 0.73546 0.74424 0.0
O231 O 0.31458 0.76057 0.70689 0.0
H232 H 0.24561 0.88481 0.71727 0.0
H233 H 0.21397 0.91374 0.69276 0.0
H234 H 0.17828 0.81086 0.59705 0.0
H235 H 0.20911 0.78235 0.6223 0.0
H236 H 0.30223 0.66661 0.80161 0.0
H237 H 0.33622 0.63696 0.82252 0.0
H238 H 0.3871 0.73973 0.90579 0.0
H239 H 0.35374 0.76883 0.88368 0.0
Nd240 Nd 0.54289 0.04326 0.98474 0.0
Nd241 Nd 0.52347 0.9906 1.00242 0.0
C242 C 0.55412 0.09774 0.97327 0.0
C243 C 0.58101 0.12668 0.98567 0.0
C244 C 0.58665 0.14342 0.96493 0.0
C245 C 0.61219 0.17085 0.97643 0.0
C246 C 0.63257 0.18218 0.00904 0.0
C247 C 0.62689 0.16516 0.02972 0.0
C248 C 0.60132 0.13764 0.01812 0.0
C249 C 0.5867 0.04561 0.03686 0.0
C250 C 0.57685 0.97381 0.94352 0.0
C251 C 0.51277 0.93601 0.01386 0.0
C252 C 0.48481 0.91057 0.00893 0.0
C253 C 0.454 0.91968 0.01045 0.0
C254 C 0.4276 0.89464 1.00438 0.0
C255 C 0.43156 0.85999 0.99641 0.0
C256 C 0.46249 0.85086 0.99402 0.0
C257 C 0.48883 0.87594 1.0003 0.0
C258 C 0.48022 0.9893 0.95024 0.0
C259 C 0.48836 0.05952 0.04318 0.0
O260 O 0.55952 0.06566 0.94979 0.0
O261 O 0.53781 0.0985 0.99919 0.0
O262 O 0.59346 0.0486 0.00877 0.0
O263 O 0.55706 0.04161 0.03741 0.0
O264 O 0.56499 0.99767 0.93768 0.0
O265 O 0.56858 0.97098 0.97219 0.0
O266 O 0.51373 0.96922 0.03999 0.0
O267 O 0.52191 0.93311 0.98331 0.0
O268 O 0.47296 0.98598 0.97808 0.0
O269 O 0.50983 0.9924 0.94985 0.0
O270 O 0.49882 0.03446 0.04802 0.0
O271 O 0.49816 0.06381 0.01582 0.0
H272 H 0.57139 0.13516 0.93971 0.0
H273 H 0.61629 0.18277 0.95933 0.0
H274 H 0.64199 0.17327 0.05498 0.0
H275 H 0.59734 0.12497 0.03454 0.0
H276 H 0.45036 0.94615 0.01647 0.0
H277 H 0.4042 0.9027 0.00682 0.0
H278 H 0.46638 0.82427 0.98733 0.0
H279 H 0.51238 0.86824 0.99827 0.0
Nd280 Nd 0.30645 0.28773 0.27649 0.0
Nd281 Nd 0.262 0.2457 0.21843 0.0
C282 C 0.35804 0.32567 0.32393 0.0
C283 C 0.37772 0.32445 0.3531 0.0
C284 C 0.36396 0.32008 0.38074 0.0
C285 C 0.38288 0.3162 0.40635 0.0
C286 C 0.41582 0.31619 0.40455 0.0
C287 C 0.42964 0.32198 0.37774 0.0
C288 C 0.41074 0.32615 0.35232 0.0
C289 C 0.26871 0.24102 0.29207 0.0
C290 C 0.32794 0.2162 0.20686 0.0
C291 C 0.21034 0.20796 0.17106 0.0
C292 C 0.18692 0.21326 0.14776 0.0
C293 C 0.15447 0.20934 0.15196 0.0
C294 C 0.13215 0.21681 0.13212 0.0
C295 C 0.14188 0.22822 0.10755 0.0
C296 C 0.17429 0.23071 0.10232 0.0
C297 C 0.19658 0.22345 0.12229 0.0
C298 C 0.2998 0.29286 0.20345 0.0
C299 C 0.24045 0.31777 0.28773 0.0
O300 O 0.35905 0.30021 0.29008 0.0
O301 O 0.32936 0.33319 0.33033 0.0
O302 O 0.27863 0.27432 0.31497 0.0
O303 O 0.27955 0.23204 0.26134 0.0
O304 O 0.3374 0.25004 0.23213 0.0
O305 O 0.2972 0.20454 0.2008 0.0
O306 O 0.20983 0.22706 0.20677 0.0
O307 O 0.23922 0.20571 0.16192 0.0
O308 O 0.29043 0.25945 0.18046 0.0
O309 O 0.28861 0.30154 0.23392 0.0
O310 O 0.23075 0.28444 0.26126 0.0
O311 O 0.27129 0.32896 0.29499 0.0
H312 H 0.33853 0.31878 0.38206 0.0
H313 H 0.37158 0.31232 0.427 0.0
H314 H 0.45484 0.32169 0.37526 0.0
H315 H 0.42182 0.32957 0.33126 0.0
H316 H 0.14648 0.20143 0.17139 0.0
H317 H 0.10748 0.21501 0.13718 0.0
H318 H 0.18258 0.23895 0.08328 0.0
H319 H 0.22143 0.22657 0.11829 0.0
Nd320 Nd 0.50211 0.51558 0.01734 0.0
Nd321 Nd 0.55764 0.52497 0.97965 0.0
C322 C 0.46099 0.50704 0.0602 0.0
C323 C 0.44747 0.48329 0.0746 0.0
C324 C 0.46009 0.48757 0.10862 0.0
C325 C 0.44513 0.46811 0.12395 0.0
C326 C 0.41676 0.44384 0.10607 0.0
C327 C 0.40452 0.43924 0.07174 0.0
C328 C 0.4195 0.45858 0.0564 0.0
C329 C 0.50096 0.46265 0.94455 0.0
C330 C 0.56785 0.48217 0.02393 0.0
C331 C 0.59857 0.53091 0.93523 0.0
C332 C 0.61406 0.55259 0.91967 0.0
C333 C 0.599 0.57717 0.9142 0.0
C334 C 0.61449 0.5962 0.89859 0.0
C335 C 0.64553 0.59123 0.88785 0.0
C336 C 0.66022 0.56638 0.89337 0.0
C337 C 0.64485 0.5476 0.90901 0.0
C338 C 0.55874 0.57804 0.05236 0.0
C339 C 0.49168 0.55904 0.97417 0.0
O340 O 0.48984 0.52471 0.07274 0.0
O341 O 0.45384 0.49677 0.02528 0.0
O342 O 0.47691 0.47795 0.95943 0.0
O343 O 0.52516 0.47547 0.96813 0.0
O344 O 0.54257 0.49607 0.03958 0.0
O345 O 0.57633 0.48476 0.99505 0.0
O346 O 0.56871 0.5164 0.9242 0.0
O347 O 0.60643 0.54098 0.96996 0.0
O348 O 0.58321 0.56396 0.03722 0.0
O349 O 0.53456 0.565 0.02883 0.0
O350 O 0.51699 0.54527 0.95825 0.0
O351 O 0.48337 0.5562 1.00295 0.0
H352 H 0.48122 0.50665 0.12396 0.0
H353 H 0.45538 0.47299 0.15052 0.0
H354 H 0.38315 0.42057 0.0565 0.0
H355 H 0.40867 0.45461 0.03042 0.0
H356 H 0.57528 0.58173 0.92201 0.0
H357 H 0.60218 0.61519 0.89542 0.0
H358 H 0.68362 0.5608 0.88502 0.0
H359 H 0.65708 0.52868 0.91247 0.0
Nd360 Nd 0.76339 0.27867 0.22518 0.0
Nd361 Nd 0.78133 0.26406 0.28961 0.0
C362 C 0.7465 0.30502 0.18168 0.0
C363 C 0.72385 0.32285 0.16925 0.0
C364 C 0.72678 0.36029 0.18598 0.0
C365 C 0.70885 0.37675 0.17099 0.0
C366 C 0.68741 0.35657 0.13813 0.0
C367 C 0.68384 0.31898 0.12216 0.0
C368 C 0.70166 0.30256 0.1373 0.0
C369 C 0.73735 0.21484 0.21736 0.0
C370 C 0.72173 0.30967 0.29981 0.0
C371 C 0.79795 0.23561 0.33103 0.0
C372 C 0.82144 0.21688 0.34096 0.0
C373 C 0.81909 0.17934 0.32207 0.0
C374 C 0.83844 0.16189 0.33442 0.0
C375 C 0.86085 0.18119 0.36642 0.0
C376 C 0.86355 0.21884 0.38479 0.0
C377 C 0.84422 0.23624 0.37241 0.0
C378 C 0.80759 0.32848 0.29909 0.0
C379 C 0.8236 0.2339 0.2155 0.0
O380 O 0.76497 0.32361 0.21318 0.0
O381 O 0.73843 0.27183 0.17317 0.0
O382 O 0.74686 0.2184 0.19019 0.0
O383 O 0.73968 0.2445 0.24662 0.0
O384 O 0.73112 0.31194 0.27096 0.0
O385 O 0.73475 0.28888 0.31015 0.0
O386 O 0.77921 0.21797 0.29968 0.0
O387 O 0.80586 0.2692 0.34092 0.0
O388 O 0.79774 0.32379 0.32551 0.0
O389 O 0.80506 0.29912 0.26908 0.0
O390 O 0.81415 0.23159 0.24427 0.0
O391 O 0.81029 0.25434 0.20489 0.0
H392 H 0.74361 0.37712 0.21038 0.0
H393 H 0.7122 0.40559 0.18536 0.0
H394 H 0.66831 0.30176 0.09679 0.0
H395 H 0.69894 0.27369 0.1229 0.0
H396 H 0.80176 0.1632 0.29799 0.0
H397 H 0.83562 0.13305 0.31874 0.0
H398 H 0.87991 0.23516 0.40972 0.0
H399 H 0.84657 0.26507 0.38826 0.0
Nd400 Nd 0.0361 0.53881 0.48127 0.0
Nd401 Nd 0.02809 0.49107 0.51064 0.0
C402 C 0.04487 0.57261 0.44383 0.0
C403 C 0.06674 0.60411 0.45076 0.0
C404 C 0.0791 0.60537 0.42095 0.0
C405 C 0.10183 0.63387 0.42734 0.0
C406 C 0.11253 0.66167 0.46371 0.0
C407 C 0.09989 0.66039 0.49353 0.0
C408 C 0.07725 0.63177 0.48711 0.0
C409 C 0.06999 0.56692 0.5498 0.0
C410 C 0.07983 0.47267 0.4523 0.0
C411 C 1.01808 0.45603 0.54675 0.0
C412 C 1.00269 0.42016 0.5362 0.0
C413 C 1.00028 0.41024 0.56316 0.0
C414 C 0.98194 0.37811 0.55459 0.0
C415 C 0.96566 0.35542 0.51888 0.0
C416 C 0.9693 0.36481 0.49148 0.0
C417 C 0.9877 0.39696 0.5001 0.0
C418 C 0.99499 0.46382 0.44172 0.0
C419 C 0.98522 0.5571 0.54001 0.0
O420 O 0.05826 0.54484 0.43737 0.0
O421 O 1.0229 0.57812 0.46604 0.0
O422 O 0.05686 0.58552 0.53822 0.0
O423 O 0.0678 0.535 0.52436 0.0
O424 O 0.06504 0.49326 0.4435 0.0
O425 O 0.07298 0.47105 0.48198 0.0
O426 O 0.99899 0.47684 0.54506 0.0
O427 O 0.04471 0.45817 0.53322 0.0
O428 O 1.00898 0.44501 0.45235 0.0
O429 O 0.99656 0.49527 0.46789 0.0
O430 O 1.00194 0.53868 0.55017 0.0
O431 O 0.98999 0.55609 0.50851 0.0
H432 H 0.0716 0.58396 0.39278 0.0
H433 H 0.11152 0.63375 0.40379 0.0
H434 H 0.10741 0.68152 0.5218 0.0
H435 H 0.06824 0.63111 0.51057 0.0
H436 H 1.0115 0.428 0.59121 0.0
H437 H 0.97918 0.37197 0.57652 0.0
H438 H 0.9572 0.34782 0.46373 0.0
H439 H 0.98925 0.40429 0.47896 0.0
Nd440 Nd 0.78059 0.79878 0.24441 0.0
Nd441 Nd 0.76674 0.74981 0.27774 0.0
C442 C 0.79094 0.8295 0.20293 0.0
C443 C 0.81269 0.84072 0.18161 0.0
C444 C 0.80912 0.82203 0.14251 0.0
C445 C 0.82635 0.83493 0.12237 0.0
C446 C 0.84781 0.86726 0.14045 0.0
C447 C 0.85166 0.88562 0.17964 0.0
C448 C 0.83444 0.87271 0.19973 0.0
C449 C 0.82123 0.81505 0.30583 0.0
C450 C 0.81667 0.72593 0.21504 0.0
C451 C 0.7568 0.71872 0.31887 0.0
C452 C 0.73512 0.70686 0.3397 0.0
C453 C 0.73437 0.72818 0.37826 0.0
C454 C 0.71728 0.7151 0.39834 0.0
C455 C 0.70038 0.68002 0.38074 0.0
C456 C 0.7009 0.65896 0.34204 0.0
C457 C 0.71793 0.67205 0.32203 0.0
C458 C 0.72711 0.73298 0.21563 0.0
C459 C 0.73011 0.82223 0.30682 0.0
O460 O 0.77881 0.79592 0.1891 0.0
O461 O 0.79591 0.84647 0.23914 0.0
O462 O 0.81043 0.83855 0.29962 0.0
O463 O 0.81092 0.78417 0.27963 0.0
O464 O 0.80522 0.74882 0.20686 0.0
O465 O 0.80915 0.72507 0.24516 0.0
O466 O 0.76834 0.75251 0.33291 0.0
O467 O 0.75216 0.70179 0.28265 0.0
O468 O 0.73759 0.70962 0.22228 0.0
O469 O 0.73655 0.76399 0.24206 0.0
O470 O 0.74143 0.7992 0.31486 0.0
O471 O 0.73815 0.82364 0.27712 0.0
H472 H 0.79237 0.79763 0.12729 0.0
H473 H 0.82272 0.81939 0.09242 0.0
H474 H 0.86733 0.9108 0.19511 0.0
H475 H 0.83762 0.88848 0.2297 0.0
H476 H 0.74758 0.7549 0.39321 0.0
H477 H 0.7174 0.73267 0.42783 0.0
H478 H 0.68891 0.6317 0.32708 0.0
H479 H 0.71831 0.65432 0.29263 0.0
Nd480 Nd 0.75532 0.30426 0.81111 0.0
Nd481 Nd 0.77567 0.25512 0.73568 0.0
C482 C 0.75143 0.34861 0.88183 0.0
C483 C 0.76565 0.35184 0.91612 0.0
C484 C 0.79153 0.33408 0.91535 0.0
C485 C 0.79784 0.32587 0.94309 0.0
C486 C 0.77829 0.33535 0.97173 0.0
C487 C 0.75539 0.3575 0.97507 0.0
C488 C 0.74895 0.36549 0.94721 0.0
C489 C 0.70914 0.25038 0.76148 0.0
C490 C 0.79514 0.23813 0.80279 0.0
C491 C 0.78334 0.20433 0.66887 0.0
C492 C 0.78783 0.20496 0.63465 0.0
C493 C 0.77352 0.22888 0.62751 0.0
C494 C 0.78346 0.23582 0.60016 0.0
C495 C 0.80806 0.21925 0.57987 0.0
C496 C 0.82032 0.19298 0.58481 0.0
C497 C 0.81029 0.18595 0.61216 0.0
C498 C 0.81535 0.31887 0.7782 0.0
C499 C 0.73704 0.32042 0.74372 0.0
O500 O 0.77065 0.35641 0.86249 0.0
O501 O 0.73138 0.3193 0.8614 0.0
O502 O 0.70348 0.28269 0.78284 0.0
O503 O 0.73767 0.24775 0.7672 0.0
O504 O 0.7817 0.26648 0.82518 0.0
O505 O 0.79507 0.228 0.76713 0.0
O506 O 0.75532 0.20999 0.68064 0.0
O507 O 0.80693 0.22199 0.69537 0.0
O508 O 0.80917 0.30425 0.74252 0.0
O509 O 0.80215 0.29912 0.78898 0.0
O510 O 0.74236 0.28724 0.72117 0.0
O511 O 0.74489 0.33529 0.78007 0.0
H512 H 0.80485 0.32355 0.89162 0.0
H513 H 0.81576 0.30901 0.94011 0.0
H514 H 0.73978 0.36493 0.9967 0.0
H515 H 0.72886 0.37917 0.94816 0.0
H516 H 0.7562 0.24398 0.64463 0.0
H517 H 0.77349 0.25597 0.59665 0.0
H518 H 0.83952 0.18008 0.56975 0.0
H519 H 0.82166 0.16756 0.61747 0.0
Nd520 Nd 0.80333 0.78622 0.77357 0.0
Nd521 Nd 0.75954 0.74321 0.71445 0.0
C522 C 0.85456 0.82459 0.82141 0.0
C523 C 0.87759 0.81952 0.84515 0.0
C524 C 0.91016 0.83069 0.84738 0.0
C525 C 0.93244 0.82414 0.86811 0.0
C526 C 0.92244 0.80632 0.88698 0.0
C527 C 0.88966 0.79625 0.88561 0.0
C528 C 0.86748 0.80253 0.86469 0.0
C529 C 0.76509 0.73929 0.7883 0.0
C530 C 0.82567 0.71382 0.70496 0.0
C531 C 0.70898 0.70334 0.6661 0.0
C532 C 0.68098 0.70778 0.64748 0.0
C533 C 0.67697 0.69071 0.60862 0.0
C534 C 0.65225 0.69689 0.59037 0.0
C535 C 0.631 0.71989 0.61069 0.0
C536 C 0.63394 0.73558 0.64938 0.0
C537 C 0.65886 0.72971 0.66772 0.0
C538 C 0.79825 0.79061 0.70068 0.0
C539 C 0.7373 0.81647 0.78165 0.0
O540 O 0.85546 0.80521 0.78581 0.0
O541 O 0.82556 0.82655 0.83016 0.0
O542 O 0.77396 0.77286 0.81105 0.0
O543 O 0.77694 0.73035 0.75809 0.0
O544 O 0.83507 0.74732 0.73132 0.0
O545 O 0.79489 0.70237 0.69723 0.0
O546 O 0.70995 0.71523 0.70161 0.0
O547 O 0.73646 0.71004 0.65662 0.0
O548 O 0.79035 0.75682 0.67794 0.0
O549 O 0.78571 0.79924 0.7304 0.0
O550 O 0.72762 0.78326 0.75477 0.0
O551 O 0.76818 0.82735 0.7903 0.0
H552 H 0.91839 0.8438 0.83243 0.0
H553 H 0.95751 0.83197 0.86836 0.0
H554 H 0.88112 0.78308 0.90038 0.0
H555 H 0.84246 0.79362 0.86342 0.0
H556 H 0.69355 0.67343 0.59243 0.0
H557 H 0.65015 0.68445 0.56049 0.0
H558 H 0.61788 0.75371 0.6655 0.0
H559 H 0.66131 0.74318 0.6977 0.0
Nd560 Nd 0.54531 0.5231 0.54217 0.0
Nd561 Nd 0.50149 0.52269 0.47602 0.0
C562 C 0.5909 0.52331 0.58955 0.0
C563 C 0.60366 0.4999 0.60353 0.0
C564 C 0.63204 0.48538 0.5922 0.0
C565 C 0.64571 0.46591 0.60683 0.0
C566 C 0.6318 0.45991 0.63375 0.0
C567 C 0.60314 0.47418 0.64481 0.0
C568 C 0.58951 0.4938 0.63021 0.0
C569 C 0.49087 0.47323 0.52312 0.0
C570 C 0.55811 0.47025 0.45403 0.0
C571 C 0.45548 0.5222 0.42872 0.0
C572 C 0.44268 0.5447 0.41377 0.0
C573 C 0.4133 0.53237 0.39115 0.0
C574 C 0.39999 0.55268 0.37741 0.0
C575 C 0.41534 0.58661 0.38558 0.0
C576 C 0.44504 0.59886 0.40817 0.0
C577 C 0.45836 0.57843 0.42202 0.0
C578 C 0.55581 0.57286 0.49575 0.0
C579 C 0.48934 0.57618 0.56403 0.0
O580 O 0.5947 0.51586 0.55569 0.0
O581 O 0.564 0.53566 0.59931 0.0
O582 O 0.51497 0.47904 0.54607 0.0
O583 O 0.49687 0.49181 0.50754 0.0
O584 O 0.56905 0.4886 0.48968 0.0
O585 O 0.52989 0.4743 0.442 0.0
O586 O 0.45251 0.53137 0.46319 0.0
O587 O 0.48224 0.50956 0.41883 0.0
O588 O 0.532 0.56694 0.47238 0.0
O589 O 0.54957 0.55401 0.5109 0.0
O590 O 0.47802 0.55734 0.52853 0.0
O591 O 0.51758 0.57212 0.57597 0.0
H592 H 0.64412 0.48945 0.57209 0.0
H593 H 0.66732 0.45533 0.59663 0.0
H594 H 0.59141 0.47103 0.66562 0.0
H595 H 0.56796 0.50465 0.64035 0.0
H596 H 0.40034 0.50666 0.38398 0.0
H597 H 0.37758 0.54128 0.3598 0.0
H598 H 0.45795 0.62471 0.41588 0.0
H599 H 0.48089 0.58922 0.43947 0.0
Nd600 Nd 0.03926 0.55651 0.00745 0.0
Nd601 Nd 1.01174 0.49557 0.01776 0.0
C602 C 0.07328 0.60951 1.00492 0.0
C603 C 0.06678 0.64252 0.00646 0.0
C604 C 0.08985 0.66214 0.99824 0.0
C605 C 0.08232 0.69092 0.99482 0.0
C606 C 0.05153 0.70036 0.99949 0.0
C607 C 0.02897 0.6815 0.00944 0.0
C608 C 0.03653 0.65281 0.01286 0.0
C609 C 0.98868 0.51208 0.95674 0.0
C610 C 0.97765 0.57023 0.05341 0.0
C611 C 0.97827 0.4424 0.02041 0.0
C612 C 0.98525 0.40903 0.01769 0.0
C613 C 0.96672 0.39355 0.03427 0.0
C614 C 0.97593 0.36484 0.03666 0.0
C615 C 1.00386 0.35125 0.02248 0.0
C616 C 1.0215 0.36584 1.0043 0.0
C617 C 1.01233 0.39458 1.00205 0.0
C618 C 0.06233 0.5401 0.06841 0.0
C619 C 0.07352 0.48199 0.97207 0.0
O620 O 0.07143 0.60828 0.0354 0.0
O621 O 0.05965 0.58013 0.97549 0.0
O622 O 0.99239 0.54652 0.9711 0.0
O623 O 1.01137 0.50264 0.96843 0.0
O624 O 1.00314 0.58614 0.04752 0.0
O625 O 0.97384 0.53512 0.04013 0.0
O626 O 0.97886 0.44434 0.9902 0.0
O627 O 0.99247 0.47144 0.04979 0.0
O628 O 0.05876 0.50566 0.05398 0.0
O629 O 0.03952 0.5494 0.05678 0.0
O630 O 0.04799 0.466 0.9778 0.0
O631 O 0.07725 0.51709 0.98539 0.0
H632 H 0.11332 0.65444 0.99319 0.0
H633 H 0.10026 0.70511 0.98745 0.0
H634 H 1.00489 0.68764 0.01263 0.0
H635 H 1.01838 0.63772 0.01899 0.0
H636 H 0.94581 0.40453 0.04661 0.0
H637 H 0.96179 0.35397 0.05059 0.0
H638 H 0.04337 0.35635 0.9936 0.0
H639 H 1.02713 0.40648 0.98949 0.0
C640 C 0.15927 0.13752 0.8853 0.0
C641 C 0.18618 0.164 0.90306 0.0
C642 C 0.1415 0.12343 0.90422 0.0
C643 C 0.15053 0.13555 0.94223 0.0
C644 C 0.17777 0.16197 0.96031 0.0
C645 C 0.19507 0.17574 0.94077 0.0
C646 C 0.1124 0.09598 0.88356 0.0
C647 C 0.18846 0.17607 1.00066 0.0
C648 C 0.08267 0.12595 0.99594 0.0
C649 C 0.08512 0.09333 0.99442 0.0
C650 C 0.10435 0.14052 0.98061 0.0
C651 C 0.12997 0.12255 0.96339 0.0
C652 C 0.13402 0.09087 0.96416 0.0
C653 C 0.1115 0.07651 0.97926 0.0
C654 C 0.09852 0.17417 0.98089 0.0
C655 C 0.16097 0.07074 0.94677 0.0
H656 H 0.15203 0.12739 0.85623 0.0
H657 H 0.21533 0.19641 0.95552 0.0
H658 H 0.11437 0.07164 0.88522 0.0
H659 H 0.09096 0.10669 0.89665 0.0
H660 H 0.10886 0.08836 0.85392 0.0
H661 H 0.21022 0.19627 0.01097 0.0
H662 H 0.16921 0.18835 0.01758 0.0
H663 H 0.19327 0.15375 1.00492 0.0
H664 H 0.06203 0.13879 0.00661 0.0
H665 H 0.1132 0.05068 0.97646 0.0
H666 H 0.0995 0.17099 0.95297 0.0
H667 H 0.11726 0.19648 1.0001 0.0
H668 H 0.07502 0.1816 0.98986 0.0
H669 H 0.1566 0.05814 0.9162 0.0
H670 H 0.16351 0.04952 0.95367 0.0
H671 H 0.18372 0.08928 0.95603 0.0
C672 C 0.14114 0.9036 0.13483 0.0
C673 C 0.15743 0.93329 0.13429 0.0
C674 C 0.15674 0.88326 0.14717 0.0
C675 C 0.18987 0.89225 0.15985 0.0
C676 C 0.20649 0.92204 0.15931 0.0
C677 C 0.19035 0.94186 0.14673 0.0
C678 C 0.13756 0.85182 0.14655 0.0
C679 C 0.24158 0.93336 0.17246 0.0
C680 C 0.2242 0.86185 0.22596 0.0
C681 C 0.23891 0.83211 0.2027 0.0
C682 C 0.20849 0.88126 0.21255 0.0
C683 C 0.20685 0.87126 0.17448 0.0
C684 C 0.22163 0.84126 0.15076 0.0
C685 C 0.23736 0.82236 0.16497 0.0
C686 C 0.19355 0.91276 0.23946 0.0
C687 C 0.22107 0.82915 0.11012 0.0
H688 H 0.116 0.89572 0.12502 0.0
H689 H 0.20371 0.96473 0.14737 0.0
H690 H 0.14802 0.82723 0.12932 0.0
H691 H 0.13845 0.85596 0.17499 0.0
H692 H 0.11228 0.84755 0.13541 0.0
H693 H 0.25146 0.95664 0.17005 0.0
H694 H 0.24586 0.9404 0.20184 0.0
H695 H 0.25478 0.91089 0.15608 0.0
H696 H 0.22488 0.87018 0.25509 0.0
H697 H 0.24846 0.79976 0.14629 0.0
H698 H 0.1677 0.90834 0.23059 0.0
H699 H 0.2041 0.93719 0.23959 0.0
H700 H 0.1968 0.91753 0.26816 0.0
H701 H 0.23015 0.80333 0.09437 0.0
H702 H 0.236 0.84954 0.1067 0.0
H703 H 0.19651 0.82633 0.09783 0.0
C704 C 0.47532 0.96635 0.38804 0.0
C705 C 0.47125 0.97913 0.42535 0.0
C706 C 0.45534 0.93631 0.35988 0.0
C707 C 0.43107 0.91855 0.36945 0.0
C708 C 0.427 0.93131 0.40716 0.0
C709 C 0.44694 0.96172 0.43465 0.0
C710 C 0.46002 0.92375 0.31992 0.0
C711 C 0.40159 0.91287 0.41847 0.0
C712 C 0.35865 0.86393 0.30046 0.0
C713 C 0.36551 0.82909 0.28628 0.0
C714 C 0.3801 0.89329 0.32702 0.0
C715 C 0.40894 0.88759 0.34006 0.0
C716 C 0.4161 0.85241 0.32571 0.0
C717 C 0.3943 0.82346 0.29867 0.0
C718 C 0.37173 0.93039 0.34138 0.0
C719 C 0.44644 0.84538 0.33946 0.0
H720 H 0.49414 0.9798 0.38084 0.0
H721 H 0.44372 0.97163 0.46353 0.0
H722 H 0.46447 0.89562 0.30587 0.0
H723 H 0.43807 0.9246 0.30515 0.0
H724 H 0.48021 0.9403 0.31717 0.0
H725 H 0.40262 0.92519 0.44904 0.0
H726 H 0.37771 0.91396 0.40755 0.0
H727 H 0.40418 0.88429 0.40637 0.0
H728 H 0.33638 0.86829 0.29076 0.0
H729 H 0.39948 0.79646 0.28779 0.0
H730 H 0.39088 0.94722 0.33757 0.0
H731 H 0.36973 0.94314 0.37151 0.0
H732 H 0.34894 0.93026 0.32719 0.0
H733 H 0.44864 0.81653 0.32512 0.0
H734 H 0.44727 0.85549 0.36965 0.0
H735 H 0.46734 0.85995 0.33529 0.0
C736 C 0.34439 0.19764 0.6583 0.0
C737 C 0.33789 0.20022 0.69223 0.0
C738 C 0.36647 0.17609 0.6364 0.0
C739 C 0.38367 0.15686 0.64866 0.0
C740 C 0.37743 0.15958 0.68308 0.0
C741 C 0.35455 0.18067 0.70402 0.0
C742 C 0.37127 0.17379 0.5998 0.0
C743 C 0.39537 0.14059 0.69817 0.0
C744 C 0.42113 0.07588 0.57767 0.0
C745 C 0.45299 0.09049 0.58045 0.0
C746 C 0.39861 0.09694 0.59925 0.0
C747 C 0.40781 0.13385 0.62539 0.0
C748 C 0.44004 0.14869 0.6286 0.0
C749 C 0.46192 0.12716 0.60603 0.0
C750 C 0.36467 0.07961 0.59372 0.0
C751 C 0.45159 0.18748 0.65625 0.0
H752 H 0.33186 0.21235 0.64851 0.0
H753 H 0.35029 0.18252 0.73022 0.0
H754 H 0.39633 0.18402 0.6001 0.0
H755 H 0.36655 0.14551 0.57714 0.0
H756 H 0.3555 0.18926 0.59339 0.0
H757 H 0.38863 0.14591 0.72561 0.0
H758 H 0.39076 0.11139 0.6786 0.0
H759 H 0.42134 0.14916 0.70095 0.0
H760 H 0.41355 0.04777 0.55812 0.0
H761 H 0.48632 0.13905 0.60893 0.0
H762 H 0.34839 0.09367 0.58585 0.0
H763 H 0.35795 0.08186 0.62001 0.0
H764 H 0.36091 0.05095 0.57193 0.0
H765 H 0.43848 0.20462 0.64951 0.0
H766 H 0.47747 0.19487 0.65672 0.0
H767 H 0.4467 0.1934 0.68443 0.0
C768 C 0.08168 0.96874 0.57427 0.0
C769 C 0.08987 0.96855 0.5419 0.0
C770 C 0.09874 0.95269 0.59051 0.0
C771 C 0.12457 0.93474 0.57382 0.0
C772 C 0.1329 0.93414 0.54093 0.0
C773 C 0.11588 0.95136 0.52577 0.0
C774 C 0.0891 0.95519 0.62591 0.0
C775 C 0.15948 0.91461 0.52124 0.0
C776 C 0.18637 0.9183 0.63275 0.0
C777 C 0.17531 0.88338 0.62511 0.0
C778 C 0.17024 0.93515 0.61662 0.0
C779 C 0.14253 0.91671 0.59087 0.0
C780 C 0.13137 0.88141 0.58264 0.0
C781 C 0.14725 0.86569 0.60025 0.0
C782 C 0.18285 0.97306 0.62744 0.0
C783 C 0.10265 0.85988 0.55475 0.0
H784 H 0.06191 0.982 0.58744 0.0
H785 H 0.1225 0.95058 0.50071 0.0
H786 H 0.08129 0.9281 0.62128 0.0
H787 H 0.10981 0.96741 0.64761 0.0
H788 H 0.06948 0.97128 0.63643 0.0
H789 H 0.16314 0.91624 0.49598 0.0
H790 H 0.18204 0.92576 0.54008 0.0
H791 H 0.15413 0.88608 0.5132 0.0
H792 H 0.20803 0.93268 0.65118 0.0
H793 H 0.13754 0.83916 0.59409 0.0
H794 H 0.164 0.99017 0.63848 0.0
H795 H 0.18964 0.97417 0.60272 0.0
H796 H 0.2039 0.9844 0.6487 0.0
H797 H 0.08119 0.87246 0.56516 0.0
H798 H 0.09839 0.83192 0.54891 0.0
H799 H 0.10578 0.85949 0.52836 0.0
C800 C 0.32509 0.89717 0.84166 0.0
C801 C 0.32683 0.86613 0.80817 0.0
C802 C 0.34984 0.92581 0.8561 0.0
C803 C 0.37685 0.92234 0.83672 0.0
C804 C 0.3753 0.89448 0.79958 0.0
C805 C 0.35011 0.86616 0.78557 0.0
C806 C 0.34961 0.95652 0.89487 0.0
C807 C 0.40265 0.89156 0.77708 0.0
C808 C 0.44749 0.98958 0.89951 0.0
C809 C 0.45844 0.97121 0.91625 0.0
C810 C 0.42237 0.97302 0.87065 0.0
C811 C 0.40822 0.93774 0.85917 0.0
C812 C 0.42141 0.91837 0.87421 0.0
C813 C 0.44636 0.93551 0.90265 0.0
C814 C 0.41001 0.99421 0.85452 0.0
C815 C 0.40769 0.8804 0.86258 0.0
H816 H 0.30615 0.89765 0.85831 0.0
H817 H 0.35071 0.84258 0.75885 0.0
H818 H 0.36427 0.95233 0.91466 0.0
H819 H 0.35997 0.98203 0.89717 0.0
H820 H 0.32513 0.95876 0.90312 0.0
H821 H 0.39443 0.87592 0.74693 0.0
H822 H 0.41469 0.91836 0.78424 0.0
H823 H 0.42035 0.8776 0.78312 0.0
H824 H 0.45737 1.01726 0.91013 0.0
H825 H 0.45551 0.92148 0.9156 0.0
H826 H 0.39444 1.01234 0.87351 0.0
H827 H 0.39617 0.97689 0.82689 0.0
H828 H 0.43003 1.01114 0.85204 0.0
H829 H 0.38312 0.87952 0.87018 0.0
H830 H 0.42192 0.869 0.87598 0.0
H831 H 0.40668 0.86299 0.83216 0.0
C832 C 0.45571 0.07986 0.09841 0.0
C833 C 0.46476 0.08218 0.06758 0.0
C834 C 0.43383 0.10101 0.12145 0.0
C835 C 0.41994 0.12538 0.11386 0.0
C836 C 0.42888 0.1277 0.08268 0.0
C837 C 0.451 0.10645 0.06029 0.0
C838 C 0.42564 0.09733 0.1542 0.0
C839 C 0.41495 0.15275 0.0728 0.0
C840 C 0.34128 0.1578 0.15355 0.0
C841 C 0.35153 0.19238 0.1839 0.0
C842 C 0.36298 0.13597 0.13091 0.0
C843 C 0.39628 0.14838 0.1384 0.0
C844 C 0.40678 0.1831 0.16927 0.0
C845 C 0.38454 0.20447 0.19128 0.0
C846 C 0.35012 0.09955 0.09851 0.0
C847 C 0.44172 0.1979 0.17905 0.0
H848 H 0.4659 0.0615 0.10479 0.0
H849 H 0.45741 0.10882 0.03676 0.0
H850 H 0.43173 0.12353 0.1801 0.0
H851 H 0.39967 0.08897 0.15158 0.0
H852 H 0.43839 0.07757 0.15679 0.0
H853 H 0.42381 0.1514 0.04763 0.0
H854 H 0.38863 0.14621 0.06798 0.0
H855 H 0.42093 0.18059 0.09618 0.0
H856 H 0.31604 0.14782 0.14705 0.0
H857 H 0.39316 0.23094 0.21439 0.0
H858 H 0.36093 0.07877 0.10123 0.0
H859 H 0.35668 0.09788 0.07239 0.0
H860 H 0.32383 0.0934 0.09626 0.0
H861 H 0.45509 0.17965 0.18367 0.0
H862 H 0.4464 0.2248 0.20429 0.0
H863 H 0.45118 0.19971 0.15568 0.0
C864 C 0.1508 0.12573 0.35549 0.0
C865 C 0.16779 0.11183 0.37394 0.0
C866 C 0.16647 0.14492 0.3401 0.0
C867 C 0.20025 0.15076 0.34292 0.0
C868 C 0.21753 0.13661 0.36122 0.0
C869 C 0.20128 0.11759 0.37638 0.0
C870 C 0.14676 0.15929 0.32102 0.0
C871 C 0.25343 0.14211 0.36542 0.0
C872 C 0.24298 0.17985 0.28015 0.0
C873 C 0.25118 0.2169 0.30381 0.0
C874 C 0.22639 0.15805 0.29223 0.0
C875 C 0.21752 0.17342 0.32889 0.0
C876 C 0.22566 0.21084 0.35263 0.0
C877 C 0.24219 0.23184 0.33993 0.0
C878 C 0.21841 0.11843 0.26575 0.0
C879 C 0.21694 0.22889 0.39179 0.0
H880 H 0.12504 0.12132 0.35266 0.0
H881 H 0.21509 0.10781 0.39092 0.0
H882 H 0.15214 0.18884 0.33592 0.0
H883 H 0.15295 0.14937 0.29239 0.0
H884 H 0.12082 0.15154 0.31979 0.0
H885 H 0.26352 0.12803 0.37859 0.0
H886 H 0.26216 0.13247 0.33792 0.0
H887 H 0.26262 0.17102 0.38258 0.0
H888 H 0.24958 0.16784 0.2522 0.0
H889 H 0.2481 0.26037 0.35861 0.0
H890 H 0.19233 0.11012 0.26206 0.0
H891 H 0.2297 0.10373 0.27739 0.0
H892 H 0.2265 0.11042 0.23817 0.0
H893 H 0.19082 0.22368 0.39153 0.0
H894 H 0.2246 0.25822 0.40678 0.0
H895 H 0.22815 0.21772 0.40747 0.0
C896 C 0.86023 0.18683 0.20275 0.0
C897 C 0.84982 0.21249 0.19507 0.0
C898 C 0.88404 0.16595 0.18393 0.0
C899 C 0.89892 0.17047 0.15645 0.0
C900 C 0.88894 0.19676 0.14897 0.0
C901 C 0.8647 0.21702 0.16793 0.0
C902 C 0.89281 0.13829 0.19303 0.0
C903 C 0.90377 0.20333 0.12047 0.0
C904 C 0.97799 0.13098 0.1242 0.0
C905 C 0.96742 0.09935 0.09028 0.0
C906 C 0.95638 0.15434 0.14576 0.0
C907 C 0.92296 0.14609 0.13393 0.0
C908 C 0.91232 0.11376 0.10021 0.0
C909 C 0.93429 0.0914 0.07911 0.0
C910 C 0.96945 0.18835 0.18105 0.0
C911 C 0.87737 0.10259 0.08607 0.0
H912 H 0.84934 0.1825 0.22335 0.0
H913 H 0.85744 0.23657 0.16142 0.0
H914 H 0.88691 0.11132 0.16811 0.0
H915 H 0.91881 0.14282 0.20114 0.0
H916 H 0.88019 0.13862 0.21582 0.0
H917 H 0.89537 0.22609 0.11936 0.0
H918 H 0.93006 0.20883 0.12672 0.0
H919 H 0.89794 0.17909 0.09268 0.0
H920 H 1.00325 0.13807 0.13347 0.0
H921 H 0.92521 0.06715 0.05336 0.0
H922 H 0.95829 0.18897 0.20477 0.0
H923 H 0.96343 0.21161 0.1792 0.0
H924 H 0.99568 0.19133 0.18684 0.0
H925 H 0.86373 0.10085 0.10723 0.0
H926 H 0.87254 0.07639 0.05996 0.0
H927 H 0.86828 0.12293 0.08103 0.0
C928 C 0.16209 0.70511 0.49891 0.0
C929 C 0.13697 0.69166 0.47028 0.0
C930 C 0.18616 0.73222 0.5039 0.0
C931 C 0.18515 0.74575 0.47942 0.0
C932 C 0.1594 0.73295 0.45116 0.0
C933 C 0.13556 0.70624 0.44711 0.0
C934 C 0.21305 0.74563 0.53459 0.0
C935 C 0.15735 0.74685 0.42454 0.0
C936 C 0.22797 0.83149 0.49173 0.0
C937 C 0.2494 0.81813 0.46526 0.0
C938 C 0.20881 0.80869 0.49987 0.0
C939 C 0.21156 0.77192 0.48146 0.0
C940 C 0.2362 0.75938 0.45872 0.0
C941 C 0.25483 0.78267 0.45082 0.0
C942 C 0.18324 0.82346 0.52468 0.0
C943 C 0.24022 0.72043 0.43876 0.0
H944 H 0.16343 0.6938 0.5168 0.0
H945 H 0.11583 0.69654 0.42552 0.0
H946 H 0.23518 0.73619 0.52256 0.0
H947 H 0.21757 0.77524 0.55009 0.0
H948 H 0.20805 0.73609 0.55427 0.0
H949 H 0.13556 0.73427 0.40437 0.0
H950 H 0.15747 0.77615 0.44009 0.0
H951 H 0.1784 0.74165 0.4089 0.0
H952 H 0.22422 0.8591 0.50371 0.0
H953 H 0.27129 0.7719 0.43027 0.0
H954 H 0.17687 0.80819 0.53872 0.0
H955 H 0.16156 0.82186 0.50779 0.0
H956 H 0.19095 0.85197 0.54583 0.0
H957 H 0.26368 0.71627 0.42788 0.0
H958 H 0.22131 0.70526 0.41505 0.0
H959 H 0.23781 0.70914 0.45729 0.0
C960 C 0.51783 0.78818 0.50711 0.0
C961 C 0.51452 0.82298 0.53415 0.0
C962 C 0.53298 0.76623 0.51662 0.0
C963 C 0.54585 0.77996 0.55381 0.0
C964 C 0.54153 0.8147 0.58136 0.0
C965 C 0.52567 0.83566 0.57121 0.0
C966 C 0.53631 0.72903 0.4866 0.0
C967 C 0.55529 0.83057 0.62124 0.0
C968 C 0.57564 0.725 0.59312 0.0
C969 C 0.60845 0.73116 0.59221 0.0
C970 C 0.55453 0.73883 0.57848 0.0
C971 C 0.56681 0.76002 0.56366 0.0
C972 C 0.59995 0.76532 0.56179 0.0
C973 C 0.62034 0.75058 0.57589 0.0
C974 C 0.5193 0.73187 0.58006 0.0
C975 C 0.61404 0.78777 0.54629 0.0
H976 H 0.50896 0.77835 0.47848 0.0
H977 H 0.52335 0.86274 0.59205 0.0
H978 H 0.56108 0.72846 0.47939 0.0
H979 H 0.53131 0.70969 0.49629 0.0
H980 H 0.52005 0.72017 0.46107 0.0
H981 H 0.54817 0.8571 0.63958 0.0
H982 H 0.54751 0.81251 0.6318 0.0
H983 H 0.58166 0.83366 0.62308 0.0
H984 H 0.56663 0.70981 0.60572 0.0
H985 H 0.64581 0.75531 0.57541 0.0
H986 H 0.50588 0.723 0.5528 0.0
H987 H 0.51112 0.75691 0.60063 0.0
H988 H 0.51332 0.7113 0.588 0.0
H989 H 0.60252 0.77768 0.51787 0.0
H990 H 0.6401 0.78787 0.54533 0.0
H991 H 0.60954 0.81569 0.56362 0.0
C992 C 0.48361 0.41788 0.87988 0.0
C993 C 0.49436 0.42532 0.91537 0.0
C994 C 0.46064 0.38821 0.85734 0.0
C995 C 0.4478 0.3668 0.87165 0.0
C996 C 0.46299 0.37053 0.90443 0.0
C997 C 0.48654 0.39995 0.92603 0.0
C998 C 0.44627 0.38375 0.82136 0.0
C999 C 0.45075 0.3475 0.91998 0.0
C1000 C 0.3588 0.35986 0.85802 0.0
C1001 C 0.35067 0.32584 0.82711 0.0
C1002 C 0.39018 0.37223 0.87485 0.0
C1003 C 0.41404 0.35021 0.85952 0.0
C1004 C 0.40544 0.31475 0.82998 0.0
C1005 C 0.37361 0.3028 0.81422 0.0
C1006 C 0.39806 0.40992 0.90727 0.0
C1007 C 0.42989 0.29032 0.81282 0.0
H1008 H 0.48993 0.43758 0.87173 0.0
H1009 H 0.49508 0.4059 0.95364 0.0
H1010 H 0.43984 0.35509 0.80019 0.0
H1011 H 0.42422 0.39622 0.82604 0.0
H1012 H 0.46286 0.39678 0.81041 0.0
H1013 H 0.46959 0.34682 0.93884 0.0
H1014 H 0.43076 0.35873 0.93613 0.0
H1015 H 0.44174 0.31983 0.89757 0.0
H1016 H 0.34086 0.37739 0.86797 0.0
H1017 H 0.36724 0.27637 0.7901 0.0
H1018 H 0.41198 0.42696 0.89857 0.0
H1019 H 0.41279 0.41044 0.93018 0.0
H1020 H 0.37637 0.42188 0.91811 0.0
H1021 H 0.43894 0.29411 0.79037 0.0
H1022 H 0.41922 0.26189 0.8003 0.0
H1023 H 0.45044 0.29609 0.83327 0.0
C1024 C 0.87617 0.80247 0.31213 0.0
C1025 C 0.85233 0.82381 0.3273 0.0
C1026 C 0.90809 0.81542 0.32727 0.0
C1027 C 0.91588 0.85013 0.35842 0.0
C1028 C 0.89129 0.86992 0.37615 0.0
C1029 C 0.85979 0.85663 0.35998 0.0
C1030 C 0.93334 0.79322 0.30774 0.0
C1031 C 0.89837 0.90662 0.41032 0.0
C1032 C 0.98987 0.90212 0.42167 0.0
C1033 C 0.99458 0.92882 0.41229 0.0
C1034 C 0.96693 0.87194 0.40044 0.0
C1035 C 0.94905 0.86886 0.36937 0.0
C1036 C 0.95848 0.89222 0.35605 0.0
C1037 C 0.98096 0.92251 0.37819 0.0
C1038 C 0.95837 0.8469 0.4148 0.0
C1039 C 0.94106 0.88879 0.32191 0.0
H1040 H 0.87033 0.77694 0.28671 0.0
H1041 H 0.84117 0.87282 0.37172 0.0
H1042 H 0.94077 0.79948 0.28628 0.0
H1043 H 0.95472 0.79886 0.32711 0.0
H1044 H 0.92401 0.76426 0.29359 0.0
H1045 H 0.87646 0.91648 0.42284 0.0
H1046 H 0.91482 0.90636 0.43153 0.0
H1047 H 0.91013 0.92584 0.40294 0.0
H1048 H 1.00055 0.90722 0.44823 0.0
H1049 H 0.98482 0.94328 0.37108 0.0
H1050 H 0.94955 0.81944 0.39181 0.0
H1051 H 0.93917 0.85637 0.43294 0.0
H1052 H 0.97912 0.84619 0.43145 0.0
H1053 H 0.9356 0.86042 0.29965 0.0
H1054 H 0.95512 0.90405 0.31126 0.0
H1055 H 0.91819 0.89941 0.32883 0.0
C1056 C 0.43471 0.59451 0.57872 0.0
C1057 C 0.46778 0.60141 0.58984 0.0
C1058 C 0.41332 0.61762 0.6 0.0
C1059 C 0.4246 0.6496 0.63381 0.0
C1060 C 0.45798 0.65685 0.6455 0.0
C1061 C 0.47896 0.63276 0.62377 0.0
C1062 C 0.37832 0.6076 0.58604 0.0
C1063 C 0.47166 0.69048 0.68088 0.0
C1064 C 0.36823 0.72225 0.66917 0.0
C1065 C 0.35306 0.71751 0.69602 0.0
C1066 C 0.39204 0.70148 0.64986 0.0
C1067 C 0.40121 0.67454 0.65674 0.0
C1068 C 0.38612 0.66989 0.68399 0.0
C1069 C 0.36274 0.69122 0.70313 0.0
C1070 C 0.40723 0.70817 0.62161 0.0
C1071 C 0.39413 0.64158 0.69246 0.0
H1072 H 0.4252 0.57049 0.55293 0.0
H1073 H 0.50422 0.639 0.63295 0.0
H1074 H 0.36449 0.60587 0.60707 0.0
H1075 H 0.3699 0.62856 0.58156 0.0
H1076 H 0.373 0.58167 0.55966 0.0
H1077 H 0.49784 0.69273 0.68641 0.0
H1078 H 0.46625 0.7141 0.67935 0.0
H1079 H 0.46043 0.69122 0.70461 0.0
H1080 H 0.36148 0.74227 0.66312 0.0
H1081 H 0.35158 0.68674 0.7235 0.0
H1082 H 0.40093 0.68427 0.59363 0.0
H1083 H 0.43353 0.71281 0.62761 0.0
H1084 H 0.39952 0.73149 0.62107 0.0
H1085 H 0.38763 0.61483 0.66735 0.0
H1086 H 0.3815 0.64199 0.71529 0.0
H1087 H 0.42012 0.64528 0.70021 0.0
C1088 C 0.69026 0.20783 0.03282 0.0
C1089 C 0.66014 0.21083 0.02025 0.0
C1090 C 0.71735 0.23151 0.03697 0.0
C1091 C 0.71425 0.25803 0.0274 0.0
C1092 C 0.68347 0.26359 0.01883 0.0
C1093 C 0.65684 0.24005 0.01558 0.0
C1094 C 0.74933 0.22642 0.04922 0.0
C1095 C 0.67871 0.29285 0.01041 0.0
C1096 C 0.77077 0.33054 0.02809 0.0
C1097 C 0.77453 0.31415 0.99034 0.0
C1098 C 0.75535 0.31091 0.04263 0.0
C1099 C 0.74218 0.27475 0.0184 0.0
C1100 C 0.75009 0.25711 0.98156 0.0
C1101 C 0.76648 0.27705 0.96808 0.0
C1102 C 0.75057 0.33006 0.08296 0.0
C1103 C 0.73756 0.21828 0.95477 0.0
H1104 H 0.69308 0.18582 0.03735 0.0
H1105 H 0.63344 0.24357 0.00766 0.0
H1106 H 0.75922 0.20594 0.02486 0.0
H1107 H 0.76648 0.25153 0.06232 0.0
H1108 H 0.74696 0.21676 0.0692 0.0
H1109 H 0.65315 0.29437 0.00563 0.0
H1110 H 0.69011 0.31906 0.03377 0.0
H1111 H 0.69011 0.28823 0.98536 0.0
H1112 H 0.77759 0.35915 0.04555 0.0
H1113 H 0.76943 0.26423 0.93883 0.0
H1114 H 0.74585 0.31124 0.0933 0.0
H1115 H 0.7303 0.34509 0.08675 0.0
H1116 H 0.77187 0.34978 0.0998 0.0
H1117 H 0.74224 0.20175 0.96728 0.0
H1118 H 0.74849 0.20787 0.9284 0.0
H1119 H 0.7114 0.21506 0.94827 0.0
C1120 C 1.01806 0.33006 0.06611 0.0
C1121 C 1.01672 0.32495 0.03021 0.0
C1122 C 0.03501 0.30941 0.07579 0.0
C1123 C 0.05102 0.28304 0.04891 0.0
C1124 C 0.04799 0.27618 0.01198 0.0
C1125 C 0.03074 0.29717 1.00306 0.0
C1126 C 0.03781 0.3178 0.11553 0.0
C1127 C 0.06373 0.24752 0.98211 0.0
C1128 C 0.12796 0.27086 0.08748 0.0
C1129 C 0.11885 0.24021 0.08974 0.0
C1130 C 0.10628 0.28425 0.07315 0.0
C1131 C 0.07451 0.26676 0.06094 0.0
C1132 C 0.06519 0.23537 0.06233 0.0
C1133 C 0.08751 0.22241 0.0767 0.0
C1134 C 0.11723 0.31775 0.07199 0.0
C1135 C 0.03165 0.21573 0.04896 0.0
H1136 H 1.00751 0.35169 0.08732 0.0
H1137 H 0.02913 0.29267 0.97507 0.0
H1138 H 0.03322 0.29296 0.11684 0.0
H1139 H 0.0624 0.3307 0.12879 0.0
H1140 H 1.02103 0.336 0.13188 0.0
H1141 H 0.06372 0.24978 0.9568 0.0
H1142 H 0.08866 0.24852 0.99205 0.0
H1143 H 0.05055 0.22104 0.97435 0.0
H1144 H 0.15188 0.28523 0.09809 0.0
H1145 H 0.0804 0.19837 0.07778 0.0
H1146 H 0.10346 0.33914 0.08966 0.0
H1147 H 0.11277 0.31261 0.04328 0.0
H1148 H 0.14295 0.32762 0.08171 0.0
H1149 H 1.01481 0.23295 0.06646 0.0
H1150 H 0.02872 0.1905 0.04975 0.0
H1151 H 1.02496 0.20943 0.02017 0.0
C1152 C 0.646 0.62122 0.84825 0.0
C1153 C 0.66264 0.61158 0.87112 0.0
C1154 C 0.66185 0.64003 0.83254 0.0
C1155 C 0.69548 0.64974 0.83941 0.0
C1156 C 0.71243 0.63987 0.86216 0.0
C1157 C 0.69601 0.62128 0.87767 0.0
C1158 C 0.64245 0.64988 0.80876 0.0
C1159 C 0.74813 0.6495 0.87071 0.0
C1160 C 0.74177 0.6778 0.77783 0.0
C1161 C 0.74689 0.71525 0.79975 0.0
C1162 C 0.72503 0.65617 0.79006 0.0
C1163 C 0.71271 0.67211 0.82498 0.0
C1164 C 0.71752 0.70991 0.84678 0.0
C1165 C 0.73443 0.73071 0.83408 0.0
C1166 C 0.72081 0.61614 0.76574 0.0
C1167 C 0.7049 0.7286 0.88391 0.0
H1168 H 0.62043 0.61374 0.84218 0.0
H1169 H 0.70953 0.61495 0.89566 0.0
H1170 H 0.64534 0.67934 0.82162 0.0
H1171 H 0.65114 0.63912 0.78114 0.0
H1172 H 0.61673 0.6396 0.80493 0.0
H1173 H 0.75821 0.63824 0.88696 0.0
H1174 H 0.75936 0.63962 0.84462 0.0
H1175 H 0.75466 0.67895 0.88671 0.0
H1176 H 0.75111 0.66535 0.75129 0.0
H1177 H 0.73788 0.75953 0.85136 0.0
H1178 H 0.69514 0.60512 0.75946 0.0
H1179 H 0.73229 0.60433 0.78059 0.0
H1180 H 0.73118 0.60766 0.73924 0.0
H1181 H 0.67883 0.72041 0.88063 0.0
H1182 H 0.70978 0.75812 0.89719 0.0
H1183 H 0.71588 0.72071 0.90282 0.0
C1184 C 0.68261 0.40827 0.12561 0.0
C1185 C 0.67011 0.3744 0.12002 0.0
C1186 C 0.66682 0.42533 0.10945 0.0
C1187 C 0.63773 0.40832 0.08594 0.0
C1188 C 0.62531 0.37385 0.07931 0.0
C1189 C 0.64124 0.35768 0.09645 0.0
C1190 C 0.68132 0.462 0.11789 0.0
C1191 C 0.59482 0.35394 0.05414 0.0
C1192 C 0.58003 0.46572 0.07335 0.0
C1193 C 0.58619 0.46317 0.03933 0.0
C1194 C 0.5965 0.44837 0.08859 0.0
C1195 C 0.61986 0.42705 0.06951 0.0
C1196 C 0.62611 0.42411 0.035 0.0
C1197 C 0.60954 0.44224 0.02059 0.0
C1198 C 0.58894 0.45312 0.12553 0.0
C1199 C 0.65028 0.40151 0.01304 0.0
H1200 H 0.70515 0.4217 0.14247 0.0
H1201 H 0.63052 0.33189 0.09155 0.0
H1202 H 0.68621 0.46151 0.09184 0.0
H1203 H 0.66427 0.48115 0.13084 0.0
H1204 H 0.70384 0.47202 0.1368 0.0
H1205 H 0.58923 0.3265 0.04953 0.0
H1206 H 0.57478 0.36868 0.06632 0.0
H1207 H 0.59648 0.35221 0.0269 0.0
H1208 H 0.5623 0.4817 0.08852 0.0
H1209 H 0.6147 0.43964 0.99431 0.0
H1210 H 0.61081 0.46472 0.14555 0.0
H1211 H 0.58039 0.42681 0.12253 0.0
H1212 H 0.57053 0.47076 0.13728 0.0
H1213 H 0.67409 0.41205 0.02937 0.0
H1214 H 0.65189 0.4008 0.98626 0.0
H1215 H 0.64402 0.3738 0.0074 0.0
C1216 C 0.95986 0.46974 0.39639 0.0
C1217 C 0.97183 0.44818 0.40868 0.0
C1218 C 0.93404 0.45592 0.36863 0.0
C1219 C 0.91933 0.42032 0.35435 0.0
C1220 C 0.9332 0.39777 0.36462 0.0
C1221 C 0.95969 0.41195 0.39127 0.0
C1222 C 0.92158 0.48025 0.3567 0.0
C1223 C 0.91837 0.35955 0.35031 0.0
C1224 C 0.83311 0.38976 0.34325 0.0
C1225 C 0.83021 0.36002 0.3076 0.0
C1226 C 0.86122 0.414 0.35768 0.0
C1227 C 0.88647 0.40827 0.33539 0.0
C1228 C 0.88097 0.38266 0.29716 0.0
C1229 C 0.85279 0.35815 0.28359 0.0
C1230 C 0.86553 0.44209 0.39829 0.0
C1231 C 0.90632 0.37823 0.27183 0.0
H1232 H 0.96996 0.49767 0.40929 0.0
H1233 H 0.96936 0.39522 0.40048 0.0
H1234 H 0.90612 0.46528 0.32989 0.0
H1235 H 0.90778 0.49863 0.37821 0.0
H1236 H 0.9417 0.497 0.35412 0.0
H1237 H 0.93252 0.34573 0.36085 0.0
H1238 H 0.89411 0.35888 0.35883 0.0
H1239 H 0.91615 0.34425 0.31963 0.0
H1240 H 0.8149 0.39191 0.36127 0.0
H1241 H 0.84999 0.33579 0.25544 0.0
H1242 H 0.87575 0.4683 0.40219 0.0
H1243 H 0.88234 0.43479 0.41365 0.0
H1244 H 0.84273 0.44499 0.41072 0.0
H1245 H 0.9213 0.40416 0.28074 0.0
H1246 H 0.89556 0.36674 0.24277 0.0
H1247 H 0.92195 0.35968 0.27248 0.0
C1248 C 0.58433 0.62757 0.49994 0.0
C1249 C 0.58619 0.59391 0.49611 0.0
C1250 C 0.60567 0.64264 0.48475 0.0
C1251 C 0.63 0.62394 0.46496 0.0
C1252 C 0.63365 0.59119 0.46352 0.0
C1253 C 0.61167 0.57648 0.47877 0.0
C1254 C 0.60042 0.67736 0.4873 0.0
C1255 C 0.65948 0.5704 0.44358 0.0
C1256 C 0.6545 0.64062 0.38642 0.0
C1257 C 0.68274 0.66528 0.4024 0.0
C1258 C 0.63785 0.62658 0.40604 0.0
C1259 C 0.64926 0.63709 0.44305 0.0
C1260 C 0.67787 0.66171 0.45932 0.0
C1261 C 0.69402 0.67544 0.43907 0.0
C1262 C 0.60746 0.60081 0.38719 0.0
C1263 C 0.69124 0.6746 0.49864 0.0
H1264 H 0.56429 0.6409 0.51221 0.0
H1265 H 0.61286 0.54993 0.47425 0.0
H1266 H 0.62297 0.69628 0.49766 0.0
H1267 H 0.59251 0.6726 0.45935 0.0
H1268 H 0.58212 0.68984 0.50579 0.0
H1269 H 0.66164 0.54773 0.44829 0.0
H1270 H 0.65419 0.5597 0.41338 0.0
H1271 H 0.68269 0.58816 0.45285 0.0
H1272 H 0.64483 0.63269 0.35857 0.0
H1273 H 0.71584 0.69401 0.45211 0.0
H1274 H 0.5872 0.61255 0.40243 0.0
H1275 H 0.60901 0.57579 0.38765 0.0
H1276 H 0.60223 0.59405 0.35797 0.0
H1277 H 0.67941 0.69733 0.51771 0.0
H1278 H 0.71721 0.68414 0.50337 0.0
H1279 H 0.687 0.65339 0.50594 0.0
C1280 C 0.8577 0.36857 0.78845 0.0
C1281 C 0.8389 0.35074 0.80257 0.0
C1282 C 0.88167 0.39722 0.81174 0.0
C1283 C 0.88641 0.4085 0.85 0.0
C1284 C 0.86658 0.39136 0.86447 0.0
C1285 C 0.84347 0.36243 0.84051 0.0
C1286 C 0.90273 0.41444 0.79522 0.0
C1287 C 0.87046 0.40269 0.9051 0.0
C1288 C 0.96684 0.45043 0.90701 0.0
C1289 C 0.96315 0.4865 0.92773 0.0
C1290 C 0.94261 0.42513 0.88025 0.0
C1291 C 0.91366 0.43602 0.8746 0.0
C1292 C 0.91002 0.47258 0.89498 0.0
C1293 C 0.935 0.49752 0.92115 0.0
C1294 C 0.94767 0.38653 0.85885 0.0
C1295 C 0.87928 0.48508 0.89026 0.0
H1296 H 0.85432 0.35947 0.75908 0.0
H1297 H 0.82937 0.34843 0.85151 0.0
H1298 H 0.90356 0.44383 0.811 0.0
H1299 H 0.92739 0.40887 0.79717 0.0
H1300 H 0.89449 0.40446 0.76567 0.0
H1301 H 0.85102 0.38908 0.91249 0.0
H1302 H 0.89344 0.39638 0.91222 0.0
H1303 H 0.87094 0.43195 0.92243 0.0
H1304 H 0.98871 0.44188 0.91186 0.0
H1305 H 0.93214 0.52541 0.93726 0.0
H1306 H 0.9417 0.3756 0.8287 0.0
H1307 H 0.93162 0.37047 0.86698 0.0
H1308 H 0.97257 0.38305 0.86391 0.0
H1309 H 0.8722 0.47537 0.86056 0.0
H1310 H 0.88109 0.51463 0.906 0.0
H1311 H 0.86002 0.47374 0.90006 0.0
C1312 C 0.89656 0.90147 0.13213 0.0
C1313 C 0.86566 0.88196 0.11882 0.0
C1314 C 0.91339 0.91549 0.11257 0.0
C1315 C 0.89946 0.91018 0.07829 0.0
C1316 C 0.86831 0.89061 0.06463 0.0
C1317 C 0.85195 0.87692 0.08482 0.0
C1318 C 0.94649 0.93578 0.12853 0.0
C1319 C 0.85218 0.88403 0.02844 0.0
C1320 C 0.93907 0.97313 0.04638 0.0
C1321 C 0.96118 0.95313 0.02372 0.0
C1322 C 0.91768 0.95902 0.06263 0.0
C1323 C 0.91816 0.92387 0.0564 0.0
C1324 C 0.93889 0.90282 0.03143 0.0
C1325 C 0.96016 0.91768 0.01589 0.0
C1326 C 0.89628 0.98285 0.08883 0.0
C1327 C 0.94025 0.8652 0.02318 0.0
H1328 H 0.90806 0.90538 0.15779 0.0
H1329 H 0.82806 0.86257 0.07402 0.0
H1330 H 0.96384 0.92169 0.10927 0.0
H1331 H 0.94783 0.96271 0.1317 0.0
H1332 H 0.95376 0.93882 0.15592 0.0
H1333 H 0.82777 0.86901 0.02168 0.0
H1334 H 0.8508 0.90982 0.02962 0.0
H1335 H 0.8664 0.86873 1.0056 0.0
H1336 H 0.94039 1.00096 0.05412 0.0
H1337 H 0.9778 0.90228 0.99969 0.0
H1338 H 0.90517 0.99088 0.11766 0.0
H1339 H 0.87177 0.96836 0.08287 0.0
H1340 H 0.8954 1.00737 0.08711 0.0
H1341 H 0.94872 0.86556 0.04887 0.0
H1342 H 0.95635 0.85162 1.00199 0.0
H1343 H 0.91616 0.8493 0.01325 0.0
C1344 C 0.82421 0.18614 0.79381 0.0
C1345 C 0.81116 0.21702 0.8177 0.0
C1346 C 0.83954 0.16617 0.80679 0.0
C1347 C 0.84263 0.17686 0.84507 0.0
C1348 C 0.82957 0.20807 0.86944 0.0
C1349 C 0.81402 0.22738 0.85562 0.0
C1350 C 0.85247 0.1333 0.77918 0.0
C1351 C 0.83169 0.22107 0.91037 0.0
C1352 C 0.85794 0.10663 0.87382 0.0
C1353 C 0.8912 0.11338 0.88403 0.0
C1354 C 0.84209 0.12691 0.86163 0.0
C1355 C 0.85934 0.15537 0.85926 0.0
C1356 C 0.89282 0.16257 0.86976 0.0
C1357 C 0.90812 0.14177 0.88171 0.0
C1358 C 0.8066 0.11758 0.85093 0.0
C1359 C 0.91265 0.19267 0.86859 0.0
H1360 H 0.82243 0.17728 0.7645 0.0
H1361 H 0.80417 0.25084 0.87477 0.0
H1362 H 0.87848 0.13639 0.7864 0.0
H1363 H 0.8414 0.1097 0.7803 0.0
H1364 H 0.84803 0.12795 0.75037 0.0
H1365 H 0.82605 0.24865 0.92654 0.0
H1366 H 0.81457 0.20322 0.91524 0.0
H1367 H 0.85583 0.22041 0.92105 0.0
H1368 H 0.84406 0.08481 0.87464 0.0
H1369 H 0.93355 0.14829 0.88984 0.0
H1370 H 0.80098 0.11055 0.82171 0.0
H1371 H 0.79484 0.14104 0.86836 0.0
H1372 H 0.7963 0.09487 0.85409 0.0
H1373 H 0.91064 0.18794 0.8399 0.0
H1374 H 0.93817 0.19568 0.87817 0.0
H1375 H 0.90359 0.21814 0.88629 0.0
C1376 C 0.65599 0.22458 0.7236 0.0
C1377 C 0.68531 0.21968 0.73565 0.0
C1378 C 0.63387 0.19511 0.69789 0.0
C1379 C 0.64115 0.16012 0.68473 0.0
C1380 C 0.67049 0.15516 0.69755 0.0
C1381 C 0.69235 0.18502 0.72254 0.0
C1382 C 0.60309 0.20137 0.68416 0.0
C1383 C 0.67896 0.11831 0.68459 0.0
C1384 C 0.5742 0.08158 0.63987 0.0
C1385 C 0.57771 0.06764 0.60225 0.0
C1386 C 0.5947 0.11177 0.66715 0.0
C1387 C 0.61879 0.1286 0.65636 0.0
C1388 C 0.62234 0.11455 0.61835 0.0
C1389 C 0.60207 0.0839 0.59181 0.0
C1390 C 0.59069 0.12557 0.70748 0.0
C1391 C 0.6474 0.13201 0.60566 0.0
H1392 H 0.65067 0.25142 0.73361 0.0
H1393 H 0.715 0.18121 0.73199 0.0
H1394 H 0.60164 0.19014 0.65374 0.0
H1395 H 0.58255 0.18738 0.68955 0.0
H1396 H 0.60083 0.23018 0.69754 0.0
H1397 H 0.70193 0.11908 0.69893 0.0
H1398 H 0.66 0.10207 0.68943 0.0
H1399 H 0.68067 0.10451 0.65435 0.0
H1400 H 0.55541 0.06896 0.64796 0.0
H1401 H 0.60495 0.07302 0.56271 0.0
H1402 H 0.58595 0.15357 0.72071 0.0
H1403 H 0.61302 0.12556 0.72229 0.0
H1404 H 0.57093 0.10931 0.71125 0.0
H1405 H 0.64481 0.16049 0.61686 0.0
H1406 H 0.64594 0.11874 0.57498 0.0
H1407 H 0.67144 0.13126 0.61649 0.0
C1408 C 0.62482 0.97026 0.44686 0.0
C1409 C 0.59356 0.95557 0.44648 0.0
C1410 C 0.6469 0.94895 0.42459 0.0
C1411 C 0.63788 0.91162 0.40032 0.0
C1412 C 0.60629 0.89664 0.39963 0.0
C1413 C 0.58482 0.9185 0.4227 0.0
C1414 C 0.68015 0.96654 0.42724 0.0
C1415 C 0.59497 0.85734 0.37415 0.0
C1416 C 0.68747 0.86283 0.31843 0.0
C1417 C 0.70669 0.84544 0.33074 0.0
C1418 C 0.66495 0.88379 0.34029 0.0
C1419 C 0.66147 0.88845 0.37606 0.0
C1420 C 0.681 0.87117 0.3887 0.0
C1421 C 0.7029 0.84986 0.36602 0.0
C1422 C 0.64461 0.90083 0.32486 0.0
C1423 C 0.67897 0.87539 0.42656 0.0
H1424 H 0.63227 0.99866 0.46494 0.0
H1425 H 0.56089 0.90649 0.42167 0.0
H1426 H 0.69776 0.95371 0.43516 0.0
H1427 H 0.68503 0.96287 0.39983 0.0
H1428 H 0.68391 0.99556 0.44782 0.0
H1429 H 0.56968 0.84967 0.37601 0.0
H1430 H 0.59769 0.85004 0.34507 0.0
H1431 H 0.60979 0.84149 0.38104 0.0
H1432 H 0.68966 0.85966 0.29128 0.0
H1433 H 0.71739 0.83685 0.37626 0.0
H1434 H 0.6491 0.93027 0.34298 0.0
H1435 H 0.61907 0.89205 0.32441 0.0
H1436 H 0.6493 0.89402 0.29635 0.0
H1437 H 0.6841 0.90408 0.44808 0.0
H1438 H 0.69589 0.8608 0.4328 0.0
H1439 H 0.6545 0.8654 0.42858 0.0
C1440 C 0.91115 0.17789 0.4005 0.0
C1441 C 0.88043 0.16235 0.38115 0.0
C1442 C 0.92882 0.1615 0.41598 0.0
C1443 C 0.91618 0.12806 0.41182 0.0
C1444 C 0.88547 0.11195 0.39189 0.0
C1445 C 0.8681 0.12917 0.37719 0.0
C1446 C 0.96093 0.18052 0.43759 0.0
C1447 C 0.87074 0.07636 0.3862 0.0
C1448 C 0.97438 0.06938 0.42057 0.0
C1449 C 0.97143 0.07422 0.45616 0.0
C1450 C 0.95664 0.08639 0.40601 0.0
C1451 C 0.93526 0.10956 0.42736 0.0
C1452 C 0.93218 0.11465 0.46337 0.0
C1453 C 0.95003 0.09697 0.47715 0.0
C1454 C 0.96077 0.07941 0.36744 0.0
C1455 C 0.91029 0.13928 0.48775 0.0
H1456 H 0.92156 0.20318 0.40383 0.0
H1457 H 0.84438 0.11671 0.36317 0.0
H1458 H 0.96075 0.18588 0.46643 0.0
H1459 H 0.97947 0.16333 0.42512 0.0
H1460 H 0.96765 0.20627 0.43849 0.0
H1461 H 0.8471 0.06672 0.36941 0.0
H1462 H 0.88666 0.05613 0.37212 0.0
H1463 H 0.8679 0.07846 0.41341 0.0
H1464 H 0.9906 0.05196 0.40373 0.0
H1465 H 0.94745 0.10136 0.50469 0.0
H1466 H 0.96941 0.10481 0.36845 0.0
H1467 H 0.9375 0.06842 0.34992 0.0
H1468 H 0.97784 0.06038 0.35398 0.0
H1469 H 0.91878 0.16689 0.49431 0.0
H1470 H 0.90913 0.13916 0.51416 0.0
H1471 H 0.88592 0.13156 0.47301 0.0
C1472 C 0.72648 0.14968 0.19084 0.0
C1473 C 0.71664 0.18308 0.21097 0.0
C1474 C 0.70388 0.11887 0.1723 0.0
C1475 C 0.67129 0.12262 0.17193 0.0
C1476 C 0.66173 0.15526 0.19796 0.0
C1477 C 0.68486 0.18548 0.21766 0.0
C1478 C 0.71474 0.08349 0.14783 0.0
C1479 C 0.6271 0.15979 0.19999 0.0
C1480 C 0.63415 0.088 0.07469 0.0
C1481 C 0.60936 0.06215 0.0704 0.0
C1482 C 0.65424 0.10766 0.10765 0.0
C1483 C 0.65059 0.09988 0.13658 0.0
C1484 C 0.62661 0.07229 0.13165 0.0
C1485 C 0.6056 0.05425 0.09873 0.0
C1486 C 0.67867 0.13755 0.11151 0.0
C1487 C 0.62235 0.06197 0.16083 0.0
H1488 H 0.75138 0.14795 0.18683 0.0
H1489 H 0.67759 0.21149 0.23416 0.0
H1490 H 0.6973 0.06113 0.14477 0.0
H1491 H 0.71688 0.07997 0.1199 0.0
H1492 H 0.7384 0.0823 0.15923 0.0
H1493 H 0.62358 0.18493 0.22508 0.0
H1494 H 0.61761 0.16043 0.17517 0.0
H1495 H 0.61314 0.13698 0.2002 0.0
H1496 H 0.63703 0.09416 0.05277 0.0
H1497 H 0.5864 0.034 0.09514 0.0
H1498 H 0.70297 0.13101 0.1131 0.0
H1499 H 0.67685 0.16289 0.13717 0.0
H1500 H 0.67578 0.14219 0.08777 0.0
H1501 H 0.61738 0.03246 0.14767 0.0
H1502 H 0.60137 0.07272 0.17505 0.0
H1503 H 0.64344 0.07202 0.18182 0.0
C1504 C 0.72368 0.87487 0.83446 0.0
C1505 C 0.71353 0.84057 0.80362 0.0
C1506 C 0.70183 0.89679 0.85659 0.0
C1507 C 0.6685 0.88467 0.84818 0.0
C1508 C 0.65809 0.85026 0.81678 0.0
C1509 C 0.68047 0.82886 0.79517 0.0
C1510 C 0.71457 0.93295 0.88949 0.0
C1511 C 0.62312 0.83573 0.80616 0.0
C1512 C 0.61351 0.92629 0.92587 0.0
C1513 C 0.60017 0.95096 0.91889 0.0
C1514 C 0.63543 0.90485 0.90336 0.0
C1515 C 0.64475 0.90756 0.87252 0.0
C1516 C 0.63132 0.93235 0.86526 0.0
C1517 C 0.60946 0.95354 0.88828 0.0
C1518 C 0.64874 0.87917 0.91275 0.0
C1519 C 0.64008 0.93657 0.83299 0.0
H1520 H 0.74896 0.88455 0.84176 0.0
H1521 H 0.67193 0.80257 0.77169 0.0
H1522 H 0.7039 0.954 0.88713 0.0
H1523 H 0.70774 0.93411 0.9153 0.0
H1524 H 0.74088 0.93912 0.89208 0.0
H1525 H 0.61854 0.80919 0.78044 0.0
H1526 H 0.61314 0.83324 0.82894 0.0
H1527 H 0.61014 0.85449 0.802 0.0
H1528 H 0.60685 0.92369 0.9492 0.0
H1529 H 0.59961 0.97225 0.8822 0.0
H1530 H 0.67505 0.8856 0.91819 0.0
H1531 H 0.6429 0.85156 0.88889 0.0
H1532 H 0.6393 0.87994 0.93741 0.0
H1533 H 0.66613 0.9448 0.83603 0.0
H1534 H 0.62765 0.95664 0.83062 0.0
H1535 H 0.63406 0.91061 0.8068 0.0
C1536 C 0.86749 0.91073 0.61386 0.0
C1537 C 0.90061 0.92207 0.62228 0.0
C1538 C 0.85095 0.89163 0.62876 0.0
C1539 C 0.86757 0.88303 0.65283 0.0
C1540 C 0.9009 0.89484 0.66196 0.0
C1541 C 0.91685 0.91418 0.64685 0.0
C1542 C 0.81552 0.88019 0.61823 0.0
C1543 C 0.91997 0.88627 0.68707 0.0
C1544 C 0.81986 0.85266 0.71173 0.0
C1545 C 0.81643 0.81524 0.68998 0.0
C1546 C 0.83646 0.87501 0.7003 0.0
C1547 C 0.85043 0.85988 0.66642 0.0
C1548 C 0.84737 0.82212 0.64482 0.0
C1549 C 0.83049 0.80055 0.65667 0.0
C1550 C 0.83875 0.91494 0.72434 0.0
C1551 C 0.86182 0.8043 0.60879 0.0
H1552 H 0.85424 0.91702 0.59563 0.0
H1553 H 0.94234 0.9223 0.6536 0.0
H1554 H 0.81017 0.85063 0.60258 0.0
H1555 H 0.80314 0.88976 0.64353 0.0
H1556 H 0.80562 0.89047 0.60094 0.0
H1557 H 0.94529 0.8987 0.69313 0.0
H1558 H 0.90956 0.89559 0.71361 0.0
H1559 H 0.91902 0.85692 0.67393 0.0
H1560 H 0.80924 0.8645 0.73748 0.0
H1561 H 0.82832 0.77177 0.63958 0.0
H1562 H 0.82729 0.92594 0.70863 0.0
H1563 H 0.86407 0.92738 0.73209 0.0
H1564 H 0.8272 0.92277 0.75004 0.0
H1565 H 0.851 0.8113 0.58905 0.0
H1566 H 0.85834 0.77477 0.5957 0.0
H1567 H 0.8877 0.81407 0.61358 0.0
C1568 C 0.18129 0.82646 0.84557 0.0
C1569 C 0.19622 0.83163 0.81882 0.0
C1570 C 0.15714 0.84663 0.86494 0.0
C1571 C 0.14734 0.87351 0.85834 0.0
C1572 C 0.16224 0.87866 0.83124 0.0
C1573 C 0.18593 0.85784 0.81196 0.0
C1574 C 0.14225 0.83932 0.89295 0.0
C1575 C 0.15366 0.90698 0.82308 0.0
C1576 C 0.0686 0.91332 0.89164 0.0
C1577 C 0.07932 0.94449 0.92593 0.0
C1578 C 0.09004 0.88999 0.86966 0.0
C1579 C 0.12346 0.89782 0.88139 0.0
C1580 C 0.13426 0.92966 0.91553 0.0
C1581 C 0.11244 0.95198 0.93707 0.0
C1582 C 0.07678 0.85647 0.83397 0.0
C1583 C 0.16924 0.94039 0.9296 0.0
H1584 H 0.18847 0.80651 0.85149 0.0
H1585 H 0.19689 0.8627 0.79172 0.0
H1586 H 0.14828 0.86312 0.92103 0.0
H1587 H 0.11594 0.83418 0.88685 0.0
H1588 H 0.15042 0.8161 0.89328 0.0
H1589 H 0.16626 0.90711 0.80047 0.0
H1590 H 0.12766 0.90279 0.81516 0.0
H1591 H 0.15976 0.93365 0.84838 0.0
H1592 H 0.04334 0.90659 0.88238 0.0
H1593 H 0.12164 0.97587 0.9631 0.0
H1594 H 0.08279 0.83281 0.83505 0.0
H1595 H 0.08783 0.85644 0.81046 0.0
H1596 H 0.05054 0.85366 0.82843 0.0
H1597 H 0.17815 0.91959 0.93399 0.0
H1598 H 0.17421 0.96628 0.95606 0.0
H1599 H 0.18291 0.94257 0.90869 0.0
C1600 C 0.91158 0.31903 0.49459 0.0
C1601 C 0.94232 0.32444 0.51198 0.0
C1602 C 0.88704 0.29565 0.49585 0.0
C1603 C 0.89348 0.27766 0.51521 0.0
C1604 C 0.92519 0.28001 0.52912 0.0
C1605 C 0.94926 0.30336 0.52724 0.0
C1606 C 0.85371 0.29303 0.47976 0.0
C1607 C 0.9332 0.26092 0.54958 0.0
C1608 C 0.83492 0.27098 0.57714 0.0
C1609 C 0.825 0.23409 0.55939 0.0
C1610 C 0.85594 0.28561 0.56189 0.0
C1611 C 0.86705 0.2628 0.52778 0.0
C1612 C 0.85541 0.22583 0.5085 0.0
C1613 C 0.83469 0.21176 0.52473 0.0
C1614 C 0.86792 0.32522 0.58366 0.0
C1615 C 0.86564 0.20115 0.47143 0.0
H1616 H 0.90603 0.3351 0.48254 0.0
H1617 H 0.97319 0.30677 0.53981 0.0
H1618 H 0.84142 0.26512 0.46568 0.0
H1619 H 0.8398 0.3095 0.50241 0.0
H1620 H 0.85365 0.30275 0.45973 0.0
H1621 H 0.95922 0.26084 0.55328 0.0
H1622 H 0.92477 0.2745 0.57737 0.0
H1623 H 0.92105 0.23295 0.53469 0.0
H1624 H 0.82785 0.28827 0.60423 0.0
H1625 H 0.82676 0.18325 0.51088 0.0
H1626 H 0.86463 0.33734 0.56611 0.0
H1627 H 0.89378 0.32966 0.59256 0.0
H1628 H 0.85555 0.33942 0.6087 0.0
H1629 H 0.85799 0.20917 0.45131 0.0
H1630 H 0.85541 0.17284 0.46056 0.0
H1631 H 0.89193 0.2035 0.47357 0.0
C1632 C 0.51326 0.25334 0.5267 0.0
C1633 C 0.52815 0.22536 0.50125 0.0
C1634 C 0.4968 0.27343 0.51568 0.0
C1635 C 0.49524 0.26519 0.47829 0.0
C1636 C 0.51146 0.23793 0.45291 0.0
C1637 C 0.52782 0.21845 0.46476 0.0
C1638 C 0.48074 0.30296 0.54397 0.0
C1639 C 0.50986 0.22775 0.41262 0.0
C1640 C 0.42291 0.27845 0.43305 0.0
C1641 C 0.43518 0.30662 0.42791 0.0
C1642 C 0.44188 0.26591 0.45104 0.0
C1643 C 0.47395 0.28193 0.46431 0.0
C1644 C 0.48611 0.31146 0.4608 0.0
C1645 C 0.46658 0.32344 0.44255 0.0
C1646 C 0.42801 0.23431 0.45419 0.0
C1647 C 0.51988 0.32992 0.47568 0.0
H1648 H 0.51394 0.259 0.55508 0.0
H1649 H 0.53899 0.19651 0.4449 0.0
H1650 H 0.49463 0.32901 0.55138 0.0
H1651 H 0.45632 0.30203 0.53269 0.0
H1652 H 0.47935 0.30166 0.56974 0.0
H1653 H 0.52533 0.20741 0.39704 0.0
H1654 H 0.48499 0.21685 0.39936 0.0
H1655 H 0.51709 0.25159 0.41014 0.0
H1656 H 0.39885 0.26495 0.4214 0.0
H1657 H 0.47602 0.34568 0.4393 0.0
H1658 H 0.43115 0.24086 0.48349 0.0
H1659 H 0.44082 0.21139 0.43801 0.0
H1660 H 0.40227 0.22589 0.44388 0.0
H1661 H 0.52523 0.33588 0.50459 0.0
H1662 H 0.52437 0.3552 0.47512 0.0
H1663 H 0.53662 0.31204 0.45884 0.0
C1664 C 0.57092 0.64232 0.07611 0.0
C1665 C 0.56386 0.61452 0.08348 0.0
C1666 C 0.59148 0.67332 0.10155 0.0
C1667 C 0.60481 0.67585 0.13452 0.0
C1668 C 0.59257 0.65091 0.14483 0.0
C1669 C 0.57251 0.61994 0.11867 0.0
C1670 C 0.60293 0.7001 0.09027 0.0
C1671 C 0.60493 0.6537 0.18071 0.0
C1672 C 0.69344 0.69115 0.15742 0.0
C1673 C 0.69793 0.72351 0.19077 0.0
C1674 C 0.66346 0.67704 0.13697 0.0
C1675 C 0.63726 0.69553 0.15092 0.0
C1676 C 0.64229 0.7298 0.18305 0.0
C1677 C 0.67285 0.7436 0.20263 0.0
C1678 C 0.65949 0.64086 0.10207 0.0
C1679 C 0.61528 0.75063 0.1987 0.0
H1680 H 0.56401 0.6379 0.04868 0.0
H1681 H 0.56677 0.59828 0.12418 0.0
H1682 H 0.60881 0.72736 0.11472 0.0
H1683 H 0.62482 0.69278 0.07647 0.0
H1684 H 0.58478 0.7003 0.07042 0.0
H1685 H 0.58863 0.63705 0.18799 0.0
H1686 H 0.62847 0.6443 0.17787 0.0
H1687 H 0.60812 0.68178 0.20374 0.0
H1688 H 0.71308 0.67598 0.14832 0.0
H1689 H 0.67646 0.76876 0.22862 0.0
H1690 H 0.64609 0.64142 0.07903 0.0
H1691 H 0.64579 0.62069 0.10686 0.0
H1692 H 0.68272 0.63199 0.09324 0.0
H1693 H 0.59588 0.74448 0.17682 0.0
H1694 H 0.6238 0.7798 0.21391 0.0
H1695 H 0.60524 0.74366 0.21868 0.0
C1696 C 0.18923 0.21502 0.67144 0.0
C1697 C 0.18705 0.23744 0.70907 0.0
C1698 C 0.16162 0.19677 0.64658 0.0
C1699 C 0.13141 0.20191 0.65985 0.0
C1700 C 0.12925 0.22762 0.69709 0.0
C1701 C 0.15723 0.2448 0.72147 0.0
C1702 C 0.1649 0.16959 0.60694 0.0
C1703 C 0.09756 0.23494 0.71193 0.0
C1704 C 0.06572 0.15318 0.58078 0.0
C1705 C 0.06116 0.11982 0.5785 0.0
C1706 C 0.08635 0.18185 0.60961 0.0
C1707 C 0.10296 0.17653 0.6361 0.0
C1708 C 0.09557 0.14413 0.6362 0.0
C1709 C 0.07436 0.11619 0.6075 0.0
C1710 C 0.09252 0.21654 0.60959 0.0
C1711 C 0.11258 0.13752 0.66425 0.0
H1712 H 0.21237 0.20949 0.66197 0.0
H1713 H 0.15572 0.26267 0.75066 0.0
H1714 H 0.15681 0.14237 0.6019 0.0
H1715 H 0.14965 0.17369 0.58755 0.0
H1716 H 0.18985 0.17091 0.60041 0.0
H1717 H 0.09975 0.26114 0.73795 0.0
H1718 H 0.0799 0.23452 0.69129 0.0
H1719 H 0.08821 0.21389 0.71802 0.0
H1720 H 0.05504 0.15613 0.55858 0.0
H1721 H 0.07057 0.0905 0.60597 0.0
H1722 H 0.11464 0.21727 0.59679 0.0
H1723 H 0.09588 0.23971 0.63824 0.0
H1724 H 0.07274 0.21943 0.59343 0.0
H1725 H 0.13793 0.13591 0.65935 0.0
H1726 H 0.10196 0.11231 0.66258 0.0
H1727 H 0.11198 0.15989 0.69275 0.0
C1728 C 0.6808 0.32642 0.34742 0.0
C1729 C 0.69595 0.33148 0.32074 0.0
C1730 C 0.65694 0.347 0.36692 0.0
C1731 C 0.64771 0.37421 0.36054 0.0
C1732 C 0.66289 0.37932 0.33357 0.0
C1733 C 0.68626 0.35805 0.31412 0.0
C1734 C 0.64168 0.33971 0.39477 0.0
C1735 C 0.65492 0.40801 0.3257 0.0
C1736 C 0.56934 0.41476 0.39359 0.0
C1737 C 0.58008 0.44566 0.42808 0.0
C1738 C 0.59066 0.39129 0.37163 0.0
C1739 C 0.624 0.39874 0.38358 0.0
C1740 C 0.63487 0.43033 0.41792 0.0
C1741 C 0.61313 0.45278 0.43947 0.0
C1742 C 0.57735 0.35803 0.33571 0.0
C1743 C 0.6698 0.44063 0.43219 0.0
H1744 H 0.68751 0.30615 0.35311 0.0
H1745 H 0.69741 0.3628 0.2939 0.0
H1746 H 0.64774 0.36341 0.42291 0.0
H1747 H 0.6154 0.33485 0.38853 0.0
H1748 H 0.64953 0.31633 0.39503 0.0
H1749 H 0.66785 0.40824 0.30334 0.0
H1750 H 0.62899 0.40414 0.31755 0.0
H1751 H 0.66106 0.43454 0.35119 0.0
H1752 H 0.54411 0.40835 0.38413 0.0
H1753 H 0.62234 0.47647 0.46566 0.0
H1754 H 0.58307 0.33416 0.33652 0.0
H1755 H 0.5886 0.35817 0.31238 0.0
H1756 H 0.55115 0.35548 0.33007 0.0
H1757 H 0.67836 0.4196 0.43642 0.0
H1758 H 0.67484 0.4664 0.45878 0.0
H1759 H 0.68372 0.44285 0.41146 0.0
C1760 C 0.40695 0.8138 0.01012 0.0
C1761 C 0.40389 0.83428 0.99314 0.0
C1762 C 0.38072 0.79186 0.01062 0.0
C1763 C 0.35041 0.79045 0.99395 0.0
C1764 C 0.34737 0.80949 0.97497 0.0
C1765 C 0.37417 0.83131 0.97487 0.0
C1766 C 0.3853 0.77142 0.03056 0.0
C1767 C 0.31571 0.80774 0.95587 0.0
C1768 C 0.29599 0.71571 0.99212 0.0
C1769 C 0.28691 0.73364 0.02792 0.0
C1770 C 0.31374 0.73446 0.97817 0.0
C1771 C 0.32204 0.77197 1.00035 0.0
C1772 C 0.30852 0.79051 0.03393 0.0
C1773 C 0.29118 0.77108 0.04741 0.0
C1774 C 0.32646 0.71379 0.94162 0.0
C1775 C 0.31608 0.83055 0.05828 0.0
H1776 H 0.42967 0.81604 0.02453 0.0
H1777 H 0.37178 0.84643 0.96094 0.0
H1778 H 0.37158 0.78134 0.05484 0.0
H1779 H 0.37622 0.74266 0.01194 0.0
H1780 H 0.41067 0.77404 0.04043 0.0
H1781 H 0.31782 0.82191 0.93995 0.0
H1782 H 0.30519 0.77956 0.93666 0.0
H1783 H 0.2989 0.81987 0.97669 0.0
H1784 H 0.29188 0.68677 0.97654 0.0
H1785 H 0.28423 0.7853 0.07514 0.0
H1786 H 0.35283 0.71804 0.94592 0.0
H1787 H 0.31895 0.72365 0.92306 0.0
H1788 H 0.31791 0.68468 0.92771 0.0
H1789 H 0.34038 0.83758 0.0731 0.0
H1790 H 0.29907 0.84129 0.07925 0.0
H1791 H 0.31563 0.84382 0.04154 0.0
C1792 C 0.04987 0.72564 0.95733 0.0
C1793 C 0.04154 0.72675 0.98992 0.0
C1794 C 0.03532 0.74484 0.9436 0.0
C1795 C 1.0117 0.76532 0.96273 0.0
C1796 C 1.00543 0.76922 0.9974 0.0
C1797 C 1.02054 0.74995 0.01066 0.0
C1798 C 0.04315 0.7406 0.90692 0.0
C1799 C 0.98132 0.79195 0.01934 0.0
C1800 C 0.97338 0.82009 0.92789 0.0
C1801 C 0.94592 0.79636 0.90634 0.0
C1802 C 0.99533 0.81053 0.94641 0.0
C1803 C 0.98953 0.77653 0.94328 0.0
C1804 C 0.96208 0.75239 0.92113 0.0
C1805 C 0.94077 0.76254 0.90289 0.0
C1806 C 1.02411 0.83718 0.97003 0.0
C1807 C 0.95506 0.71572 0.91678 0.0
H1808 H 0.06607 0.70779 0.94107 0.0
H1809 H 1.01476 0.75171 0.03643 0.0
H1810 H 1.02341 0.72274 0.88508 0.0
H1811 H 0.04567 0.76671 0.90806 0.0
H1812 H 0.06543 0.72891 0.89872 0.0
H1813 H 0.97853 0.79138 0.04532 0.0
H1814 H 0.98889 0.81996 0.02662 0.0
H1815 H 0.95778 0.78279 1.00244 0.0
H1816 H 0.97737 0.8464 0.93093 0.0
H1817 H 0.92007 0.74372 0.88553 0.0
H1818 H 0.0458 0.82413 0.96558 0.0
H1819 H 1.02054 0.84861 0.99968 0.0
H1820 H 0.02818 0.85945 0.96424 0.0
H1821 H 0.97491 0.70044 0.90503 0.0
H1822 H 0.9327 0.70015 0.89845 0.0
H1823 H 0.95296 0.7182 0.94429 0.0
C1824 C 0.36627 0.41686 0.11937 0.0
C1825 C 0.39977 0.4239 0.12316 0.0
C1826 C 0.35004 0.39775 0.13445 0.0
C1827 C 0.36734 0.38488 0.15408 0.0
C1828 C 0.40111 0.39231 0.15854 0.0
C1829 C 0.41676 0.41159 0.14325 0.0
C1830 C 0.31415 0.39091 0.12889 0.0
C1831 C 0.42086 0.37916 0.17887 0.0
C1832 C 0.32397 0.35459 0.2156 0.0
C1833 C 0.31713 0.31738 0.19208 0.0
C1834 C 0.34025 0.37685 0.20385 0.0
C1835 C 0.35023 0.36179 0.16772 0.0
C1836 C 0.34349 0.32421 0.14414 0.0
C1837 C 0.32719 0.30276 0.15648 0.0
C1838 C 0.3467 0.4166 0.23013 0.0
C1839 C 0.35349 0.30647 0.10556 0.0
H1840 H 0.35251 0.42658 0.10473 0.0
H1841 H 0.44253 0.41626 0.14634 0.0
H1842 H 0.30581 0.36178 0.11217 0.0
H1843 H 0.30466 0.40076 0.15602 0.0
H1844 H 0.30397 0.404 0.11463 0.0
H1845 H 0.44669 0.38861 0.18186 0.0
H1846 H 0.41333 0.38826 0.20684 0.0
H1847 H 0.41701 0.34954 0.16372 0.0
H1848 H 0.31651 0.36637 0.24315 0.0
H1849 H 0.32232 0.27413 0.13794 0.0
H1850 H 0.33524 0.43054 0.21767 0.0
H1851 H 0.37265 0.42605 0.23495 0.0
H1852 H 0.33773 0.42436 0.25725 0.0
H1853 H 0.34212 0.31681 0.08913 0.0
H1854 H 0.34696 0.27699 0.0907 0.0
H1855 H 0.37961 0.31294 0.10689 0.0
C1856 C 0.47721 0.57443 0.92442 0.0
C1857 C 0.4729 0.57811 0.95931 0.0
C1858 C 0.45988 0.59163 0.90966 0.0
C1859 C 0.4377 0.61406 0.93024 0.0
C1860 C 0.43348 0.61825 0.96571 0.0
C1861 C 0.45071 0.60013 0.97951 0.0
C1862 C 0.46514 0.58542 0.87161 0.0
C1863 C 0.41081 0.64222 0.98933 0.0
C1864 C 0.41411 0.68278 0.90347 0.0
C1865 C 0.38381 0.66694 0.8829 0.0
C1866 C 0.43136 0.66647 0.91944 0.0
C1867 C 0.41888 0.63266 0.91448 0.0
C1868 C 0.38851 0.61639 0.89372 0.0
C1869 C 0.37142 0.63366 0.87884 0.0
C1870 C 0.4632 0.68562 0.94177 0.0
C1871 C 0.37393 0.58035 0.88703 0.0
H1872 H 0.49401 0.55756 0.90816 0.0
H1873 H 0.44703 0.60362 0.00651 0.0
H1874 H 0.44231 0.57415 0.85324 0.0
H1875 H 0.4737 0.61114 0.87328 0.0
H1876 H 0.48272 0.56691 0.8587 0.0
H1877 H 0.41082 0.64385 0.01669 0.0
H1878 H 0.41731 0.66953 0.99389 0.0
H1879 H 0.38629 0.63225 0.97484 0.0
H1880 H 0.42484 0.70803 0.90701 0.0
H1881 H 0.34791 0.62092 0.86434 0.0
H1882 H 0.4822 0.66969 0.92809 0.0
H1883 H 0.46339 0.6885 0.96968 0.0
H1884 H 0.46902 0.71254 0.94507 0.0
H1885 H 0.39031 0.56056 0.87335 0.0
H1886 H 0.35067 0.57049 0.86945 0.0
H1887 H 0.37036 0.58185 0.91384 0.0
C1888 C 0.10344 0.61964 0.60128 0.0
C1889 C 0.09244 0.58311 0.58355 0.0
C1890 C 0.12794 0.63526 0.63039 0.0
C1891 C 0.14107 0.61386 0.64281 0.0
C1892 C 0.12797 0.57754 0.62721 0.0
C1893 C 0.10392 0.56235 0.59721 0.0
C1894 C 0.1412 0.67415 0.64584 0.0
C1895 C 0.13953 0.55476 0.64181 0.0
C1896 C 0.22525 0.6541 0.66764 0.0
C1897 C 0.22286 0.68361 0.7022 0.0
C1898 C 0.19978 0.62643 0.64955 0.0
C1899 C 0.1717 0.62867 0.66698 0.0
C1900 C 0.17209 0.6544 0.70487 0.0
C1901 C 0.19777 0.68227 0.72218 0.0
C1902 C 0.20097 0.59866 0.60954 0.0
C1903 C 0.14357 0.65549 0.72525 0.0
H1904 H 0.09415 0.63575 0.59102 0.0
H1905 H 0.09451 0.53422 0.58404 0.0
H1906 H 0.13988 0.68947 0.6761 0.0
H1907 H 0.16658 0.67673 0.64123 0.0
H1908 H 0.12814 0.68671 0.63284 0.0
H1909 H 0.13036 0.52598 0.6232 0.0
H1910 H 0.16589 0.55824 0.64576 0.0
H1911 H 0.13124 0.5633 0.66936 0.0
H1912 H 0.24543 0.65461 0.65289 0.0
H1913 H 0.19648 0.7046 0.74958 0.0
H1914 H 0.18731 0.60561 0.59133 0.0
H1915 H 0.19004 0.57191 0.60359 0.0
H1916 H 0.22576 0.59718 0.60222 0.0
H1917 H 0.12652 0.67056 0.72006 0.0
H1918 H 0.15059 0.66911 0.7556 0.0
H1919 H 0.13118 0.62816 0.71548 0.0
C1920 C 0.38972 0.4066 0.63332 0.0
C1921 C 0.36269 0.38016 0.61617 0.0
C1922 C 0.40665 0.421 0.61414 0.0
C1923 C 0.3968 0.40911 0.57635 0.0
C1924 C 0.36956 0.38256 0.55879 0.0
C1925 C 0.35299 0.36859 0.57866 0.0
C1926 C 0.43601 0.44823 0.63414 0.0
C1927 C 0.3581 0.36845 0.51863 0.0
C1928 C 0.43451 0.46884 0.53933 0.0
C1929 C 0.46067 0.45204 0.52328 0.0
C1930 C 0.4124 0.45422 0.55461 0.0
C1931 C 0.4167 0.42231 0.55482 0.0
C1932 C 0.44211 0.40446 0.53684 0.0
C1933 C 0.46327 0.41917 0.52115 0.0
C1934 C 0.38566 0.47428 0.57282 0.0
C1935 C 0.44837 0.37071 0.53604 0.0
H1936 H 0.39832 0.41562 0.6618 0.0
H1937 H 0.3321 0.34868 0.56466 0.0
H1938 H 0.4572 0.43713 0.62066 0.0
H1939 H 0.43411 0.47248 0.63228 0.0
H1940 H 0.43995 0.4561 0.66382 0.0
H1941 H 0.33515 0.35022 0.50958 0.0
H1942 H 0.35521 0.39089 0.51381 0.0
H1943 H 0.37613 0.3537 0.50102 0.0
H1944 H 0.43271 0.49488 0.54267 0.0
H1945 H 0.48372 0.40632 0.50985 0.0
H1946 H 0.39052 0.48662 0.60331 0.0
H1947 H 0.36292 0.45573 0.56384 0.0
H1948 H 0.38278 0.4957 0.5663 0.0
H1949 H 0.47267 0.36495 0.52911 0.0
H1950 H 0.43094 0.34798 0.51492 0.0
H1951 H 0.44575 0.37248 0.56313 0.0
C1952 C 0.19289 0.6847 0.23682 0.0
C1953 C 0.21136 0.70222 0.22215 0.0
C1954 C 0.16891 0.65587 0.21394 0.0
C1955 C 0.16383 0.64417 0.1756 0.0
C1956 C 0.18329 0.66106 0.16061 0.0
C1957 C 0.20641 0.69013 0.18413 0.0
C1958 C 0.14825 0.63887 0.23097 0.0
C1959 C 0.17901 0.6493 0.11987 0.0
C1960 C 0.11574 0.55491 0.10455 0.0
C1961 C 0.08756 0.56575 0.09777 0.0
C1962 C 0.14051 0.57996 0.13098 0.0
C1963 C 0.13661 0.61644 0.15137 0.0
C1964 C 0.10756 0.6271 0.14564 0.0
C1965 C 0.08354 0.60169 0.11864 0.0
C1966 C 0.17135 0.5677 0.13582 0.0
C1967 C 0.10224 0.66562 0.16702 0.0
H1968 H 0.19658 0.69411 0.26623 0.0
H1969 H 0.2202 0.70393 0.17271 0.0
H1970 H 0.12351 0.64428 0.22919 0.0
H1971 H 0.14751 0.60948 0.21542 0.0
H1972 H 0.15677 0.64915 0.26051 0.0
H1973 H 0.19815 0.6629 0.1121 0.0
H1974 H 0.17872 0.62005 0.10279 0.0
H1975 H 0.15582 0.65528 0.11282 0.0
H1976 H 0.11883 0.52709 0.08836 0.0
H1977 H 0.06162 0.61009 0.11366 0.0
H1978 H 0.17864 0.57786 0.16557 0.0
H1979 H 0.19044 0.57875 0.12556 0.0
H1980 H 0.16958 0.53815 0.12049 0.0
H1981 H 0.10848 0.6767 0.19716 0.0
H1982 H 0.07721 0.66884 0.16216 0.0
H1983 H 0.11794 0.68172 0.15863 0.0
C1984 C 0.71262 0.32563 0.68938 0.0
C1985 C 0.72165 0.34108 0.72778 0.0
C1986 C 0.69812 0.34432 0.6741 0.0
C1987 C 0.69208 0.37993 0.69727 0.0
C1988 C 0.70119 0.39569 0.73604 0.0
C1989 C 0.71563 0.37637 0.75061 0.0
C1990 C 0.68918 0.32573 0.63278 0.0
C1991 C 0.69569 0.4333 0.7624 0.0
C1992 C 0.68056 0.44042 0.65448 0.0
C1993 C 0.64721 0.43939 0.6502 0.0
C1994 C 0.69518 0.4216 0.66952 0.0
C1995 C 0.67653 0.40055 0.68106 0.0
C1996 C 0.6429 0.39935 0.6769 0.0
C1997 C 0.62888 0.41851 0.66184 0.0
C1998 C 0.73095 0.42443 0.6732 0.0
C1999 C 0.62148 0.37747 0.68825 0.0
H2000 H 0.71685 0.29859 0.67096 0.0
H2001 H 0.72223 0.38912 0.78021 0.0
H2002 H 0.66325 0.32438 0.62664 0.0
H2003 H 0.7016 0.3412 0.62136 0.0
H2004 H 0.69528 0.29821 0.61826 0.0
H2005 H 0.70396 0.44211 0.79165 0.0
H2006 H 0.70834 0.45196 0.75484 0.0
H2007 H 0.66997 0.43527 0.76018 0.0
H2008 H 0.69563 0.45656 0.64656 0.0
H2009 H 0.60322 0.41652 0.65864 0.0
H2010 H 0.73803 0.3975 0.65735 0.0
H2011 H 0.74028 0.43561 0.70266 0.0
H2012 H 0.74239 0.44158 0.66306 0.0
H2013 H 0.62504 0.34908 0.67229 0.0
H2014 H 0.59594 0.37915 0.68369 0.0
H2015 H 0.62774 0.38671 0.718 0.0
C2016 C 0.85983 0.6862 0.20398 0.0
C2017 C 0.83964 0.70222 0.19091 0.0
C2018 C 0.88201 0.66479 0.18198 0.0
C2019 C 0.88407 0.65818 0.14529 0.0
C2020 C 0.86344 0.67394 0.13181 0.0
C2021 C 0.84196 0.69584 0.15467 0.0
C2022 C 0.90365 0.64957 0.19833 0.0
C2023 C 0.86396 0.66757 0.09296 0.0
C2024 C 0.9607 0.62997 0.09841 0.0
C2025 C 0.95332 0.59254 0.07631 0.0
C2026 C 0.93878 0.6513 0.12093 0.0
C2027 C 0.90798 0.6354 0.12135 0.0
C2028 C 0.90022 0.59766 0.09873 0.0
C2029 C 0.92286 0.57685 0.077 0.0
C2030 C 0.94882 0.69108 0.14473 0.0
C2031 C 0.86776 0.57913 0.0973 0.0
H2032 H 0.85875 0.69092 0.23187 0.0
H2033 H 0.82664 0.70774 0.14387 0.0
H2034 H 0.89991 0.62002 0.18125 0.0
H2035 H 0.92886 0.65895 0.19806 0.0
H2036 H 0.8996 0.65732 0.22726 0.0
H2037 H 0.84579 0.68045 0.0859 0.0
H2038 H 0.88775 0.67812 0.08977 0.0
H2039 H 0.85965 0.63849 0.07273 0.0
H2040 H 0.98404 0.64276 0.09864 0.0
H2041 H 0.91651 0.54814 0.0602 0.0
H2042 H 0.9467 0.69959 0.17423 0.0
H2043 H 0.93284 0.70534 0.13683 0.0
H2044 H 0.9737 0.69949 0.14218 0.0
H2045 H 0.86369 0.58381 0.12527 0.0
H2046 H 0.86486 0.5499 0.07775 0.0
H2047 H 0.84911 0.59043 0.08872 0.0
C2048 C 0.9451 0.60101 0.5552 0.0
C2049 C 0.96171 0.57971 0.56458 0.0
C2050 C 0.92335 0.62252 0.57805 0.0
C2051 C 0.91744 0.62318 0.61158 0.0
C2052 C 0.93407 0.60166 0.62115 0.0
C2053 C 0.95578 0.58049 0.59785 0.0
C2054 C 0.90665 0.64474 0.56622 0.0
C2055 C 0.9289 0.60095 0.65622 0.0
C2056 C 0.88208 0.70328 0.68761 0.0
C2057 C 0.8494 0.69011 0.68228 0.0
C2058 C 0.90421 0.68202 0.66525 0.0
C2059 C 0.89398 0.64619 0.63641 0.0
C2060 C 0.86108 0.63264 0.6312 0.0
C2061 C 0.83944 0.65452 0.65385 0.0
C2062 C 0.9387 0.69819 0.6723 0.0
C2063 C 0.84857 0.59486 0.60128 0.0
H2064 H 0.94918 0.60104 0.52984 0.0
H2065 H 0.96818 0.56441 0.60583 0.0
H2066 H 0.88051 0.63702 0.56301 0.0
H2067 H 0.91214 0.67334 0.58791 0.0
H2068 H 0.9137 0.64166 0.53966 0.0
H2069 H 0.9433 0.58289 0.65994 0.0
H2070 H 0.93518 0.62823 0.68055 0.0
H2071 H 0.9034 0.59207 0.65581 0.0
H2072 H 0.89044 0.73059 0.70911 0.0
H2073 H 0.81447 0.64365 0.649 0.0
H2074 H 0.94617 0.69807 0.64718 0.0
H2075 H 0.95386 0.68194 0.67815 0.0
H2076 H 0.94323 0.72606 0.69594 0.0
H2077 H 0.85295 0.59128 0.57378 0.0
H2078 H 0.82268 0.58776 0.60105 0.0
H2079 H 0.86142 0.5759 0.60523 0.0
C2080 C 0.41908 0.63194 0.36228 0.0
C2081 C 0.40038 0.60863 0.37068 0.0
C2082 C 0.40539 0.65181 0.34786 0.0
C2083 C 0.37174 0.64908 0.3413 0.0
C2084 C 0.35273 0.62592 0.35 0.0
C2085 C 0.36701 0.60632 0.36431 0.0
C2086 C 0.42717 0.67571 0.33929 0.0
C2087 C 0.31693 0.62179 0.34422 0.0
C2088 C 0.33484 0.72382 0.33324 0.0
C2089 C 0.32756 0.70922 0.29467 0.0
C2090 C 0.34892 0.70489 0.34854 0.0
C2091 C 0.35653 0.67 0.32519 0.0
C2092 C 0.34923 0.65514 0.28626 0.0
C2093 C 0.335 0.67458 0.2717 0.0
C2094 C 0.35563 0.72242 0.39006 0.0
C2095 C 0.35653 0.61837 0.25968 0.0
H2096 H 0.44473 0.6343 0.36629 0.0
H2097 H 0.35167 0.58939 0.37101 0.0
H2098 H 0.42289 0.66694 0.30941 0.0
H2099 H 0.42195 0.7035 0.35505 0.0
H2100 H 0.45268 0.67563 0.34619 0.0
H2101 H 0.30519 0.60297 0.35217 0.0
H2102 H 0.30887 0.6481 0.36081 0.0
H2103 H 0.30888 0.61195 0.3147 0.0
H2104 H 0.32944 0.75032 0.35179 0.0
H2105 H 0.32981 0.6625 0.24197 0.0
H2106 H 0.38141 0.72486 0.39797 0.0
H2107 H 0.34282 0.70559 0.39973 0.0
H2108 H 0.34833 0.74938 0.4047 0.0
H2109 H 0.38233 0.61749 0.26367 0.0
H2110 H 0.34981 0.61032 0.2303 0.0
H2111 H 0.34359 0.59851 0.26544 0.0
C2112 C 0.21218 0.36017 0.87249 0.0
C2113 C 0.21222 0.35071 0.83501 0.0
C2114 C 0.19064 0.382 0.89532 0.0
C2115 C 0.16775 0.39471 0.88067 0.0
C2116 C 0.16766 0.38522 0.84284 0.0
C2117 C 0.18979 0.36378 0.82078 0.0
C2118 C 0.19234 0.39139 0.93532 0.0
C2119 C 0.14372 0.39732 0.82536 0.0
C2120 C 0.09194 0.42223 0.92977 0.0
C2121 C 0.09807 0.45984 0.94941 0.0
C2122 C 0.11406 0.40102 0.90748 0.0
C2123 C 0.14373 0.4173 0.90462 0.0
C2124 C 0.15023 0.45525 0.92472 0.0
C2125 C 0.12748 0.47586 0.94643 0.0
C2126 C 0.10544 0.36094 0.8866 0.0
C2127 C 0.18142 0.47425 0.92333 0.0
H2128 H 0.22916 0.35052 0.88421 0.0
H2129 H 0.18906 0.35667 0.79197 0.0
H2130 H 0.19573 0.42081 0.95367 0.0
H2131 H 0.16961 0.3806 0.94053 0.0
H2132 H 0.21204 0.38067 0.9431 0.0
H2133 H 0.14655 0.38796 0.7958 0.0
H2134 H 0.11925 0.38711 0.82718 0.0
H2135 H 0.14617 0.42687 0.84066 0.0
H2136 H 0.06947 0.40913 0.93136 0.0
H2137 H 0.13288 0.50471 0.96127 0.0
H2138 H 0.12321 0.34881 0.89526 0.0
H2139 H 0.10595 0.35045 0.85647 0.0
H2140 H 0.08148 0.35214 0.89124 0.0
H2141 H 0.20149 0.46511 0.9326 0.0
H2142 H 0.18342 0.5037 0.94101 0.0
H2143 H 0.184 0.46755 0.8944 0.0
C2144 C 0.18397 0.32893 0.30406 0.0
C2145 C 0.21687 0.3415 0.31073 0.0
C2146 C 0.16179 0.35006 0.32641 0.0
C2147 C 0.17222 0.38511 0.35672 0.0
C2148 C 0.20538 0.39806 0.36338 0.0
C2149 C 0.22705 0.37635 0.34059 0.0
C2150 C 0.127 0.3346 0.31771 0.0
C2151 C 0.21811 0.43497 0.39501 0.0
C2152 C 0.11139 0.45183 0.39625 0.0
C2153 C 0.10372 0.45053 0.42804 0.0
C2154 C 0.13341 0.43106 0.37317 0.0
C2155 C 0.14863 0.4079 0.3815 0.0
C2156 C 0.14104 0.40653 0.41359 0.0
C2157 C 0.11895 0.42761 0.4362 0.0
C2158 C 0.14035 0.4339 0.33962 0.0
C2159 C 0.15625 0.38255 0.42408 0.0
H2160 H 0.17542 0.3022 0.2814 0.0
H2161 H 0.25221 0.3867 0.3465 0.0
H2162 H 0.11841 0.33337 0.34174 0.0
H2163 H 0.11284 0.35211 0.31274 0.0
H2164 H 0.12237 0.30735 0.29299 0.0
H2165 H 0.24425 0.44164 0.3964 0.0
H2166 H 0.20634 0.45511 0.39207 0.0
H2167 H 0.21257 0.4371 0.42163 0.0
H2168 H 0.10008 0.46919 0.38922 0.0
H2169 H 0.11355 0.42599 0.46043 0.0
H2170 H 0.13408 0.40736 0.31419 0.0
H2171 H 0.16616 0.44246 0.34135 0.0
H2172 H 0.12695 0.45314 0.33682 0.0
H2173 H 0.15052 0.35442 0.40125 0.0
H2174 H 0.14818 0.38438 0.44977 0.0
H2175 H 0.18251 0.3897 0.42826 0.0
loop_
_geom_bond_atom_site_label_1
_geom_bond_atom_site_label_2
_geom_bond_distance
_geom_bond_site_symmetry_2
_ccdc_geom_bond_type
Nd0 C2 2.836 1_545 S
Nd0 O20 2.500 . S
Nd0 O21 2.492 1_545 S
Nd0 O22 2.487 1_445 S
Nd0 O23 2.682 1_445 S
Nd0 O24 2.410 1_544 S
Nd0 O29 2.414 1_554 S
Nd0 O31 2.424 1_455 S
Nd1 C11 2.836 1_565 S
Nd1 O23 2.414 1_556 S
Nd1 O25 2.424 1_655 S
Nd1 O26 2.500 . S
Nd1 O27 2.492 1_565 S
Nd1 O28 2.487 1_665 S
Nd1 O29 2.682 1_665 S
Nd1 O30 2.410 1_566 S
C2 Nd0 2.836 1_565 S
C2 C3 1.498 . S
C2 O20 1.258 1_565 S
C2 O21 1.239 . S
C3 C2 1.498 . S
C3 C4 1.366 . S
C3 C8 1.407 . S
C4 C3 1.366 . S
C4 C5 1.392 . S
C4 H32 0.930 . S
C5 C4 1.392 . S
C5 C6 1.398 . S
C5 H33 0.929 . S
C6 C5 1.398 . S
C6 C7 1.352 . S
C7 C6 1.352 . S
C7 C8 1.384 . S
C7 H34 0.930 . S
C8 C3 1.407 . S
C8 C7 1.384 . S
C8 H35 0.929 . S
C9 O22 1.241 . S
C9 O23 1.273 . S
C10 O24 1.251 . S
C10 O25 1.268 . S
C11 Nd1 2.836 1_545 S
C11 C12 1.498 . S
C11 O26 1.258 1_545 S
C11 O27 1.239 . S
C12 C11 1.498 . S
C12 C13 1.366 . S
C12 C17 1.407 . S
C13 C12 1.366 . S
C13 C14 1.392 . S
C13 H36 0.930 . S
C14 C13 1.392 . S
C14 C15 1.398 . S
C14 H37 0.929 . S
C15 C14 1.398 . S
C15 C16 1.352 . S
C16 C15 1.352 . S
C16 C17 1.384 . S
C16 H38 0.930 . S
C17 C12 1.407 . S
C17 C16 1.384 . S
C17 H39 0.929 . S
C18 O28 1.241 . S
C18 O29 1.273 . S
C19 O30 1.251 . S
C19 O31 1.268 . S
O20 Nd0 2.500 . S
O20 C2 1.258 1_545 S
O21 Nd0 2.492 1_565 S
O21 C2 1.239 . S
O22 Nd0 2.487 1_665 S
O22 C9 1.241 . S
O23 Nd0 2.682 1_665 S
O23 Nd1 2.414 1_554 S
O23 C9 1.273 . S
O24 Nd0 2.410 1_566 S
O24 C10 1.251 . S
O25 Nd1 2.424 1_455 S
O25 C10 1.268 . S
O26 Nd1 2.500 . S
O26 C11 1.258 1_565 S
O27 Nd1 2.492 1_545 S
O27 C11 1.239 . S
O28 Nd1 2.487 1_445 S
O28 C18 1.241 . S
O29 Nd0 2.414 1_556 S
O29 Nd1 2.682 1_445 S
O29 C18 1.273 . S
O30 Nd1 2.410 1_544 S
O30 C19 1.251 . S
O31 Nd0 2.424 1_655 S
O31 C19 1.268 . S
H32 C4 0.930 . S
H33 C5 0.929 . S
H34 C7 0.930 . S
H35 C8 0.929 . S
H36 C13 0.930 . S
H37 C14 0.929 . S
H38 C16 0.930 . S
H39 C17 0.929 . S
Nd40 C42 2.836 . S
Nd40 O60 2.500 . S
Nd40 O61 2.492 . S
Nd40 O62 2.487 . S
Nd40 O63 2.682 . S
Nd40 O64 2.410 . S
Nd40 O69 2.414 . S
Nd40 O71 2.424 . S
Nd41 C51 2.836 . S
Nd41 O63 2.414 . S
Nd41 O65 2.424 . S
Nd41 O66 2.500 . S
Nd41 O67 2.492 . S
Nd41 O68 2.487 . S
Nd41 O69 2.682 . S
Nd41 O70 2.410 . S
C42 Nd40 2.836 . S
C42 C43 1.498 . S
C42 O60 1.258 . S
C42 O61 1.239 . S
C43 C42 1.498 . S
C43 C44 1.366 . S
C43 C48 1.407 . S
C44 C43 1.366 . S
C44 C45 1.392 . S
C44 H72 0.930 . S
C45 C44 1.392 . S
C45 C46 1.398 . S
C45 H73 0.929 . S
C46 C45 1.398 . S
C46 C47 1.352 . S
C47 C46 1.352 . S
C47 C48 1.384 . S
C47 H74 0.930 . S
C48 C43 1.407 . S
C48 C47 1.384 . S
C48 H75 0.929 . S
C49 O62 1.241 . S
C49 O63 1.273 . S
C50 O64 1.251 . S
C50 O65 1.268 . S
C51 Nd41 2.836 . S
C51 C52 1.498 . S
C51 O66 1.258 . S
C51 O67 1.239 . S
C52 C51 1.498 . S
C52 C53 1.366 . S
C52 C57 1.407 . S
C53 C52 1.366 . S
C53 C54 1.392 . S
C53 H76 0.930 . S
C54 C53 1.392 . S
C54 C55 1.398 . S
C54 H77 0.929 . S
C55 C54 1.398 . S
C55 C56 1.352 . S
C56 C55 1.352 . S
C56 C57 1.384 . S
C56 H78 0.930 . S
C57 C52 1.407 . S
C57 C56 1.384 . S
C57 H79 0.929 . S
C58 O68 1.241 . S
C58 O69 1.273 . S
C59 O70 1.251 . S
C59 O71 1.268 . S
O60 Nd40 2.500 . S
O60 C42 1.258 . S
O61 Nd40 2.492 . S
O61 C42 1.239 . S
O62 Nd40 2.487 . S
O62 C49 1.241 . S
O63 Nd40 2.682 . S
O63 Nd41 2.414 . S
O63 C49 1.273 . S
O64 Nd40 2.410 . S
O64 C50 1.251 . S
O65 Nd41 2.424 . S
O65 C50 1.268 . S
O66 Nd41 2.500 . S
O66 C51 1.258 . S
O67 Nd41 2.492 . S
O67 C51 1.239 . S
O68 Nd41 2.487 . S
O68 C58 1.241 . S
O69 Nd40 2.414 . S
O69 Nd41 2.682 . S
O69 C58 1.273 . S
O70 Nd41 2.410 . S
O70 C59 1.251 . S
O71 Nd40 2.424 . S
O71 C59 1.268 . S
H72 C44 0.930 . S
H73 C45 0.929 . S
H74 C47 0.930 . S
H75 C48 0.929 . S
H76 C53 0.930 . S
H77 C54 0.929 . S
H78 C56 0.930 . S
H79 C57 0.929 . S
Nd80 C82 2.836 . S
Nd80 O100 2.500 . S
Nd80 O101 2.492 . S
Nd80 O102 2.487 1_545 S
Nd80 O103 2.682 1_545 S
Nd80 O104 2.410 . S
Nd80 O109 2.414 . S
Nd80 O111 2.424 1_545 S
Nd81 C91 2.836 . S
Nd81 O103 2.414 . S
Nd81 O105 2.424 1_565 S
Nd81 O106 2.500 . S
Nd81 O107 2.492 . S
Nd81 O108 2.487 1_565 S
Nd81 O109 2.682 1_565 S
Nd81 O110 2.410 . S
C82 Nd80 2.836 . S
C82 C83 1.498 . S
C82 O100 1.258 . S
C82 O101 1.239 . S
C83 C82 1.498 . S
C83 C84 1.366 . S
C83 C88 1.407 . S
C84 C83 1.366 . S
C84 C85 1.392 . S
C84 H112 0.930 . S
C85 C84 1.392 . S
C85 C86 1.398 . S
C85 H113 0.929 . S
C86 C85 1.398 . S
C86 C87 1.352 . S
C87 C86 1.352 . S
C87 C88 1.384 . S
C87 H114 0.930 . S
C88 C83 1.407 . S
C88 C87 1.384 . S
C88 H115 0.929 . S
C89 O102 1.241 . S
C89 O103 1.273 . S
C90 O104 1.251 . S
C90 O105 1.268 . S
C91 Nd81 2.836 . S
C91 C92 1.498 . S
C91 O106 1.258 . S
C91 O107 1.239 . S
C92 C91 1.498 . S
C92 C93 1.366 . S
C92 C97 1.407 . S
C93 C92 1.366 . S
C93 C94 1.392 . S
C93 H116 0.930 . S
C94 C93 1.392 . S
C94 C95 1.398 . S
C94 H117 0.929 . S
C95 C94 1.398 . S
C95 C96 1.352 . S
C96 C95 1.352 . S
C96 C97 1.384 . S
C96 H118 0.930 . S
C97 C92 1.407 . S
C97 C96 1.384 . S
C97 H119 0.929 . S
C98 O108 1.241 . S
C98 O109 1.273 . S
C99 O110 1.251 . S
C99 O111 1.268 . S
O100 Nd80 2.500 . S
O100 C82 1.258 . S
O101 Nd80 2.492 . S
O101 C82 1.239 . S
O102 Nd80 2.487 1_565 S
O102 C89 1.241 . S
O103 Nd80 2.682 1_565 S
O103 Nd81 2.414 . S
O103 C89 1.273 . S
O104 Nd80 2.410 . S
O104 C90 1.251 . S
O105 Nd81 2.424 1_545 S
O105 C90 1.268 . S
O106 Nd81 2.500 . S
O106 C91 1.258 . S
O107 Nd81 2.492 . S
O107 C91 1.239 . S
O108 Nd81 2.487 1_545 S
O108 C98 1.241 . S
O109 Nd80 2.414 . S
O109 Nd81 2.682 1_545 S
O109 C98 1.273 . S
O110 Nd81 2.410 . S
O110 C99 1.251 . S
O111 Nd80 2.424 1_565 S
O111 C99 1.268 . S
H112 C84 0.930 . S
H113 C85 0.929 . S
H114 C87 0.930 . S
H115 C88 0.929 . S
H116 C93 0.930 . S
H117 C94 0.929 . S
H118 C96 0.930 . S
H119 C97 0.929 . S
Nd120 C122 2.836 . S
Nd120 O140 2.500 . S
Nd120 O141 2.492 . S
Nd120 O142 2.487 . S
Nd120 O143 2.682 . S
Nd120 O144 2.410 . S
Nd120 O149 2.414 . S
Nd120 O151 2.424 . S
Nd121 C131 2.836 . S
Nd121 O143 2.414 . S
Nd121 O145 2.424 . S
Nd121 O146 2.500 . S
Nd121 O147 2.492 . S
Nd121 O148 2.487 . S
Nd121 O149 2.682 . S
Nd121 O150 2.410 . S
C122 Nd120 2.836 . S
C122 C123 1.498 . S
C122 O140 1.258 . S
C122 O141 1.239 . S
C123 C122 1.498 . S
C123 C124 1.366 . S
C123 C128 1.407 . S
C124 C123 1.366 . S
C124 C125 1.392 . S
C124 H152 0.930 . S
C125 C124 1.392 . S
C125 C126 1.398 . S
C125 H153 0.929 . S
C126 C125 1.398 . S
C126 C127 1.352 . S
C127 C126 1.352 . S
C127 C128 1.384 . S
C127 H154 0.930 . S
C128 C123 1.407 . S
C128 C127 1.384 . S
C128 H155 0.929 . S
C129 O142 1.241 . S
C129 O143 1.273 . S
C130 O144 1.251 . S
C130 O145 1.268 . S
C131 Nd121 2.836 . S
C131 C132 1.498 . S
C131 O146 1.258 . S
C131 O147 1.239 . S
C132 C131 1.498 . S
C132 C133 1.366 . S
C132 C137 1.407 . S
C133 C132 1.366 . S
C133 C134 1.392 . S
C133 H156 0.930 . S
C134 C133 1.392 . S
C134 C135 1.398 . S
C134 H157 0.929 . S
C135 C134 1.398 . S
C135 C136 1.352 . S
C136 C135 1.352 . S
C136 C137 1.384 . S
C136 H158 0.930 . S
C137 C132 1.407 . S
C137 C136 1.384 . S
C137 H159 0.929 . S
C138 O148 1.241 . S
C138 O149 1.273 . S
C139 O150 1.251 . S
C139 O151 1.268 . S
O140 Nd120 2.500 . S
O140 C122 1.258 . S
O141 Nd120 2.492 . S
O141 C122 1.239 . S
O142 Nd120 2.487 . S
O142 C129 1.241 . S
O143 Nd120 2.682 . S
O143 Nd121 2.414 . S
O143 C129 1.273 . S
O144 Nd120 2.410 . S
O144 C130 1.251 . S
O145 Nd121 2.424 . S
O145 C130 1.268 . S
O146 Nd121 2.500 . S
O146 C131 1.258 . S
O147 Nd121 2.492 . S
O147 C131 1.239 . S
O148 Nd121 2.487 . S
O148 C138 1.241 . S
O149 Nd120 2.414 . S
O149 Nd121 2.682 . S
O149 C138 1.273 . S
O150 Nd121 2.410 . S
O150 C139 1.251 . S
O151 Nd120 2.424 . S
O151 C139 1.268 . S
H152 C124 0.930 . S
H153 C125 0.929 . S
H154 C127 0.930 . S
H155 C128 0.929 . S
H156 C133 0.930 . S
H157 C134 0.929 . S
H158 C136 0.930 . S
H159 C137 0.929 . S
Nd160 C162 2.828 1_545 S
Nd160 O180 2.495 . S
Nd160 O181 2.483 1_545 S
Nd160 O182 2.483 1_545 S
Nd160 O183 2.682 1_545 S
Nd160 O184 2.400 1_545 S
Nd160 O189 2.417 1_655 S
Nd160 O191 2.434 . S
Nd161 C171 2.835 1_565 S
Nd161 O183 2.415 1_455 S
Nd161 O185 2.426 . S
Nd161 O186 2.499 . S
Nd161 O187 2.490 1_565 S
Nd161 O188 2.486 1_565 S
Nd161 O189 2.682 1_565 S
Nd161 O190 2.408 1_565 S
C162 Nd160 2.828 1_565 S
C162 C163 1.498 . S
C162 O180 1.258 1_565 S
C162 O181 1.239 . S
C163 C162 1.498 . S
C163 C164 1.366 . S
C163 C168 1.407 . S
C164 C163 1.366 . S
C164 C165 1.392 . S
C164 H192 0.930 . S
C165 C164 1.392 . S
C165 C166 1.398 . S
C165 H193 0.929 . S
C166 C165 1.398 . S
C166 C167 1.352 . S
C167 C166 1.352 . S
C167 C168 1.384 . S
C167 H194 0.930 . S
C168 C163 1.407 . S
C168 C167 1.384 . S
C168 H195 0.929 . S
C169 O182 1.241 . S
C169 O183 1.273 . S
C170 O184 1.251 1_455 S
C170 O185 1.268 . S
C171 Nd161 2.835 1_545 S
C171 C172 1.498 . S
C171 O186 1.258 1_545 S
C171 O187 1.239 . S
C172 C171 1.498 . S
C172 C173 1.366 . S
C172 C177 1.407 . S
C173 C172 1.366 . S
C173 C174 1.392 . S
C173 H196 0.930 . S
C174 C173 1.392 . S
C174 C175 1.398 . S
C174 H197 0.929 . S
C175 C174 1.398 . S
C175 C176 1.352 . S
C176 C175 1.352 . S
C176 C177 1.384 . S
C176 H198 0.930 . S
C177 C172 1.407 . S
C177 C176 1.384 . S
C177 H199 0.929 . S
C178 O188 1.241 . S
C178 O189 1.273 . S
C179 O190 1.251 1_655 S
C179 O191 1.268 . S
O180 Nd160 2.495 . S
O180 C162 1.258 1_545 S
O181 Nd160 2.483 1_565 S
O181 C162 1.239 . S
O182 Nd160 2.483 1_565 S
O182 C169 1.241 . S
O183 Nd160 2.682 1_565 S
O183 Nd161 2.415 1_655 S
O183 C169 1.273 . S
O184 Nd160 2.400 1_565 S
O184 C170 1.251 1_655 S
O185 Nd161 2.426 . S
O185 C170 1.268 . S
O186 Nd161 2.499 . S
O186 C171 1.258 1_565 S
O187 Nd161 2.490 1_545 S
O187 C171 1.239 . S
O188 Nd161 2.486 1_545 S
O188 C178 1.241 . S
O189 Nd160 2.417 1_455 S
O189 Nd161 2.682 1_545 S
O189 C178 1.273 . S
O190 Nd161 2.408 1_545 S
O190 C179 1.251 1_455 S
O191 Nd160 2.434 . S
O191 C179 1.268 . S
H192 C164 0.930 . S
H193 C165 0.929 . S
H194 C167 0.930 . S
H195 C168 0.929 . S
H196 C173 0.930 . S
H197 C174 0.929 . S
H198 C176 0.930 . S
H199 C177 0.929 . S
Nd200 C202 2.836 . S
Nd200 O220 2.500 . S
Nd200 O221 2.492 . S
Nd200 O222 2.487 . S
Nd200 O223 2.682 . S
Nd200 O224 2.410 . S
Nd200 O229 2.414 . S
Nd200 O231 2.424 . S
Nd201 C211 2.836 . S
Nd201 O223 2.414 . S
Nd201 O225 2.424 . S
Nd201 O226 2.500 . S
Nd201 O227 2.492 . S
Nd201 O228 2.487 . S
Nd201 O229 2.682 . S
Nd201 O230 2.410 . S
C202 Nd200 2.836 . S
C202 C203 1.498 . S
C202 O220 1.258 . S
C202 O221 1.239 . S
C203 C202 1.498 . S
C203 C204 1.366 . S
C203 C208 1.407 . S
C204 C203 1.366 . S
C204 C205 1.392 . S
C204 H232 0.930 . S
C205 C204 1.392 . S
C205 C206 1.398 . S
C205 H233 0.929 . S
C206 C205 1.398 . S
C206 C207 1.352 . S
C207 C206 1.352 . S
C207 C208 1.384 . S
C207 H234 0.930 . S
C208 C203 1.407 . S
C208 C207 1.384 . S
C208 H235 0.929 . S
C209 O222 1.241 . S
C209 O223 1.273 . S
C210 O224 1.251 . S
C210 O225 1.268 . S
C211 Nd201 2.836 . S
C211 C212 1.498 . S
C211 O226 1.258 . S
C211 O227 1.239 . S
C212 C211 1.498 . S
C212 C213 1.366 . S
C212 C217 1.407 . S
C213 C212 1.366 . S
C213 C214 1.392 . S
C213 H236 0.930 . S
C214 C213 1.392 . S
C214 C215 1.398 . S
C214 H237 0.929 . S
C215 C214 1.398 . S
C215 C216 1.352 . S
C216 C215 1.352 . S
C216 C217 1.384 . S
C216 H238 0.930 . S
C217 C212 1.407 . S
C217 C216 1.384 . S
C217 H239 0.929 . S
C218 O228 1.241 . S
C218 O229 1.273 . S
C219 O230 1.251 . S
C219 O231 1.268 . S
O220 Nd200 2.500 . S
O220 C202 1.258 . S
O221 Nd200 2.492 . S
O221 C202 1.239 . S
O222 Nd200 2.487 . S
O222 C209 1.241 . S
O223 Nd200 2.682 . S
O223 Nd201 2.414 . S
O223 C209 1.273 . S
O224 Nd200 2.410 . S
O224 C210 1.251 . S
O225 Nd201 2.424 . S
O225 C210 1.268 . S
O226 Nd201 2.500 . S
O226 C211 1.258 . S
O227 Nd201 2.492 . S
O227 C211 1.239 . S
O228 Nd201 2.487 . S
O228 C218 1.241 . S
O229 Nd200 2.414 . S
O229 Nd201 2.682 . S
O229 C218 1.273 . S
O230 Nd201 2.410 . S
O230 C219 1.251 . S
O231 Nd200 2.424 . S
O231 C219 1.268 . S
H232 C204 0.930 . S
H233 C205 0.929 . S
H234 C207 0.930 . S
H235 C208 0.929 . S
H236 C213 0.930 . S
H237 C214 0.929 . S
H238 C216 0.930 . S
H239 C217 0.929 . S
Nd240 C242 2.836 . S
Nd240 O260 2.500 . S
Nd240 O261 2.492 . S
Nd240 O262 2.487 1_556 S
Nd240 O263 2.682 1_556 S
Nd240 O264 2.410 1_545 S
Nd240 O269 2.414 1_545 S
Nd240 O271 2.424 1_556 S
Nd241 C251 2.836 . S
Nd241 O263 2.414 1_565 S
Nd241 O265 2.424 1_554 S
Nd241 O266 2.500 . S
Nd241 O267 2.492 . S
Nd241 O268 2.487 1_554 S
Nd241 O269 2.682 1_554 S
Nd241 O270 2.410 1_565 S
C242 Nd240 2.836 . S
C242 C243 1.498 . S
C242 O260 1.258 . S
C242 O261 1.239 . S
C243 C242 1.498 . S
C243 C244 1.366 . S
C243 C248 1.407 . S
C244 C243 1.366 . S
C244 C245 1.392 . S
C244 H272 0.930 1_545 S
C245 C244 1.392 . S
C245 C246 1.398 . S
C245 H273 0.923 1_545 S
C246 C245 1.398 . S
C246 C247 1.352 . S
C247 C246 1.352 . S
C247 C248 1.384 . S
C247 H274 0.930 . S
C248 C243 1.407 . S
C248 C247 1.384 . S
C248 H275 0.929 . S
C249 O262 1.241 . S
C249 O263 1.273 . S
C250 O264 1.251 . S
C250 O265 1.268 . S
C251 Nd241 2.836 . S
C251 C252 1.498 . S
C251 O266 1.258 . S
C251 O267 1.239 . S
C252 C251 1.498 . S
C252 C253 1.366 . S
C252 C257 1.407 . S
C253 C252 1.366 . S
C253 C254 1.392 . S
C253 H276 0.930 1_565 S
C254 C253 1.392 . S
C254 C255 1.398 . S
C254 H277 0.921 1_565 S
C255 C254 1.398 . S
C255 C256 1.352 . S
C256 C255 1.352 . S
C256 C257 1.384 . S
C256 H278 0.930 . S
C257 C252 1.407 . S
C257 C256 1.384 . S
C257 H279 0.929 . S
C258 O268 1.241 . S
C258 O269 1.273 . S
C259 O270 1.251 . S
C259 O271 1.268 . S
O260 Nd240 2.500 . S
O260 C242 1.258 . S
O261 Nd240 2.492 . S
O261 C242 1.239 . S
O262 Nd240 2.487 1_554 S
O262 C249 1.241 . S
O263 Nd240 2.682 1_554 S
O263 Nd241 2.414 1_545 S
O263 C249 1.273 . S
O264 Nd240 2.410 1_565 S
O264 C250 1.251 . S
O265 Nd241 2.424 1_556 S
O265 C250 1.268 . S
O266 Nd241 2.500 . S
O266 C251 1.258 . S
O267 Nd241 2.492 . S
O267 C251 1.239 . S
O268 Nd241 2.487 1_556 S
O268 C258 1.241 . S
O269 Nd240 2.414 1_565 S
O269 Nd241 2.682 1_556 S
O269 C258 1.273 . S
O270 Nd241 2.410 1_545 S
O270 C259 1.251 . S
O271 Nd240 2.424 1_554 S
O271 C259 1.268 . S
H272 C244 0.930 1_565 S
H273 C245 0.923 1_565 S
H274 C247 0.930 . S
H275 C248 0.929 . S
H276 C253 0.930 1_545 S
H277 C254 0.921 1_545 S
H278 C256 0.930 . S
H279 C257 0.929 . S
Nd280 C282 2.836 . S
Nd280 O300 2.500 . S
Nd280 O301 2.492 . S
Nd280 O302 2.487 . S
Nd280 O303 2.682 . S
Nd280 O304 2.410 . S
Nd280 O309 2.414 . S
Nd280 O311 2.424 . S
Nd281 C291 2.836 . S
Nd281 O303 2.414 . S
Nd281 O305 2.424 . S
Nd281 O306 2.500 . S
Nd281 O307 2.492 . S
Nd281 O308 2.487 . S
Nd281 O309 2.682 . S
Nd281 O310 2.410 . S
C282 Nd280 2.836 . S
C282 C283 1.498 . S
C282 O300 1.258 . S
C282 O301 1.239 . S
C283 C282 1.498 . S
C283 C284 1.366 . S
C283 C288 1.407 . S
C284 C283 1.366 . S
C284 C285 1.392 . S
C284 H312 0.930 . S
C285 C284 1.392 . S
C285 C286 1.398 . S
C285 H313 0.929 . S
C286 C285 1.398 . S
C286 C287 1.352 . S
C287 C286 1.352 . S
C287 C288 1.384 . S
C287 H314 0.930 . S
C288 C283 1.407 . S
C288 C287 1.384 . S
C288 H315 0.929 . S
C289 O302 1.241 . S
C289 O303 1.273 . S
C290 O304 1.251 . S
C290 O305 1.268 . S
C291 Nd281 2.836 . S
C291 C292 1.498 . S
C291 O306 1.258 . S
C291 O307 1.239 . S
C292 C291 1.498 . S
C292 C293 1.366 . S
C292 C297 1.407 . S
C293 C292 1.366 . S
C293 C294 1.392 . S
C293 H316 0.930 . S
C294 C293 1.392 . S
C294 C295 1.398 . S
C294 H317 0.929 . S
C295 C294 1.398 . S
C295 C296 1.352 . S
C296 C295 1.352 . S
C296 C297 1.384 . S
C296 H318 0.930 . S
C297 C292 1.407 . S
C297 C296 1.384 . S
C297 H319 0.929 . S
C298 O308 1.241 . S
C298 O309 1.273 . S
C299 O310 1.251 . S
C299 O311 1.268 . S
O300 Nd280 2.500 . S
O300 C282 1.258 . S
O301 Nd280 2.492 . S
O301 C282 1.239 . S
O302 Nd280 2.487 . S
O302 C289 1.241 . S
O303 Nd280 2.682 . S
O303 Nd281 2.414 . S
O303 C289 1.273 . S
O304 Nd280 2.410 . S
O304 C290 1.251 . S
O305 Nd281 2.424 . S
O305 C290 1.268 . S
O306 Nd281 2.500 . S
O306 C291 1.258 . S
O307 Nd281 2.492 . S
O307 C291 1.239 . S
O308 Nd281 2.487 . S
O308 C298 1.241 . S
O309 Nd280 2.414 . S
O309 Nd281 2.682 . S
O309 C298 1.273 . S
O310 Nd281 2.410 . S
O310 C299 1.251 . S
O311 Nd280 2.424 . S
O311 C299 1.268 . S
H312 C284 0.930 . S
H313 C285 0.929 . S
H314 C287 0.930 . S
H315 C288 0.929 . S
H316 C293 0.930 . S
H317 C294 0.929 . S
H318 C296 0.930 . S
H319 C297 0.929 . S
Nd320 C322 2.836 . S
Nd320 O340 2.500 . S
Nd320 O341 2.492 . S
Nd320 O342 2.487 1_554 S
Nd320 O343 2.682 1_554 S
Nd320 O344 2.410 . S
Nd320 O349 2.414 . S
Nd320 O351 2.428 . S
Nd321 C331 2.836 . S
Nd321 O343 2.414 . S
Nd321 O345 2.418 1_556 S
Nd321 O346 2.500 . S
Nd321 O347 2.492 . S
Nd321 O348 2.487 1_556 S
Nd321 O349 2.682 1_556 S
Nd321 O350 2.410 . S
C322 Nd320 2.836 . S
C322 C323 1.498 . S
C322 O340 1.258 . S
C322 O341 1.239 . S
C323 C322 1.498 . S
C323 C324 1.366 . S
C323 C328 1.407 . S
C324 C323 1.366 . S
C324 C325 1.392 . S
C324 H352 0.930 . S
C325 C324 1.392 . S
C325 C326 1.398 . S
C325 H353 0.929 . S
C326 C325 1.398 . S
C326 C327 1.352 . S
C327 C326 1.352 . S
C327 C328 1.384 . S
C327 H354 0.930 . S
C328 C323 1.407 . S
C328 C327 1.384 . S
C328 H355 0.929 . S
C329 O342 1.241 . S
C329 O343 1.273 . S
C330 O344 1.251 . S
C330 O345 1.274 . S
C331 Nd321 2.836 . S
C331 C332 1.498 . S
C331 O346 1.258 . S
C331 O347 1.239 . S
C332 C331 1.498 . S
C332 C333 1.366 . S
C332 C337 1.407 . S
C333 C332 1.366 . S
C333 C334 1.392 . S
C333 H356 0.930 . S
C334 C333 1.392 . S
C334 C335 1.398 . S
C334 H357 0.929 . S
C335 C334 1.398 . S
C335 C336 1.352 . S
C336 C335 1.352 . S
C336 C337 1.384 . S
C336 H358 0.930 . S
C337 C332 1.407 . S
C337 C336 1.384 . S
C337 H359 0.929 . S
C338 O348 1.241 . S
C338 O349 1.273 . S
C339 O350 1.251 . S
C339 O351 1.264 1_556 S
O340 Nd320 2.500 . S
O340 C322 1.258 . S
O341 Nd320 2.492 . S
O341 C322 1.239 . S
O342 Nd320 2.487 1_556 S
O342 C329 1.241 . S
O343 Nd320 2.682 1_556 S
O343 Nd321 2.414 . S
O343 C329 1.273 . S
O344 Nd320 2.410 . S
O344 C330 1.251 . S
O345 Nd321 2.418 1_554 S
O345 C330 1.274 . S
O346 Nd321 2.500 . S
O346 C331 1.258 . S
O347 Nd321 2.492 . S
O347 C331 1.239 . S
O348 Nd321 2.487 1_554 S
O348 C338 1.241 . S
O349 Nd320 2.414 . S
O349 Nd321 2.682 1_554 S
O349 C338 1.273 . S
O350 Nd321 2.410 . S
O350 C339 1.251 . S
O351 Nd320 2.428 . S
O351 C339 1.264 1_554 S
H352 C324 0.930 . S
H353 C325 0.929 . S
H354 C327 0.930 . S
H355 C328 0.929 . S
H356 C333 0.930 . S
H357 C334 0.929 . S
H358 C336 0.930 . S
H359 C337 0.929 . S
Nd360 C362 2.836 . S
Nd360 O380 2.500 . S
Nd360 O381 2.492 . S
Nd360 O382 2.487 . S
Nd360 O383 2.682 . S
Nd360 O384 2.410 . S
Nd360 O389 2.414 . S
Nd360 O391 2.424 . S
Nd361 C371 2.836 . S
Nd361 O383 2.414 . S
Nd361 O385 2.424 . S
Nd361 O386 2.500 . S
Nd361 O387 2.492 . S
Nd361 O388 2.487 . S
Nd361 O389 2.682 . S
Nd361 O390 2.410 . S
C362 Nd360 2.836 . S
C362 C363 1.498 . S
C362 O380 1.258 . S
C362 O381 1.239 . S
C363 C362 1.498 . S
C363 C364 1.366 . S
C363 C368 1.407 . S
C364 C363 1.366 . S
C364 C365 1.392 . S
C364 H392 0.930 . S
C365 C364 1.392 . S
C365 C366 1.398 . S
C365 H393 0.929 . S
C366 C365 1.398 . S
C366 C367 1.352 . S
C367 C366 1.352 . S
C367 C368 1.384 . S
C367 H394 0.930 . S
C368 C363 1.407 . S
C368 C367 1.384 . S
C368 H395 0.929 . S
C369 O382 1.241 . S
C369 O383 1.273 . S
C370 O384 1.251 . S
C370 O385 1.268 . S
C371 Nd361 2.836 . S
C371 C372 1.498 . S
C371 O386 1.258 . S
C371 O387 1.239 . S
C372 C371 1.498 . S
C372 C373 1.366 . S
C372 C377 1.407 . S
C373 C372 1.366 . S
C373 C374 1.392 . S
C373 H396 0.930 . S
C374 C373 1.392 . S
C374 C375 1.398 . S
C374 H397 0.929 . S
C375 C374 1.398 . S
C375 C376 1.352 . S
C376 C375 1.352 . S
C376 C377 1.384 . S
C376 H398 0.930 . S
C377 C372 1.407 . S
C377 C376 1.384 . S
C377 H399 0.929 . S
C378 O388 1.241 . S
C378 O389 1.273 . S
C379 O390 1.251 . S
C379 O391 1.268 . S
O380 Nd360 2.500 . S
O380 C362 1.258 . S
O381 Nd360 2.492 . S
O381 C362 1.239 . S
O382 Nd360 2.487 . S
O382 C369 1.241 . S
O383 Nd360 2.682 . S
O383 Nd361 2.414 . S
O383 C369 1.273 . S
O384 Nd360 2.410 . S
O384 C370 1.251 . S
O385 Nd361 2.424 . S
O385 C370 1.268 . S
O386 Nd361 2.500 . S
O386 C371 1.258 . S
O387 Nd361 2.492 . S
O387 C371 1.239 . S
O388 Nd361 2.487 . S
O388 C378 1.241 . S
O389 Nd360 2.414 . S
O389 Nd361 2.682 . S
O389 C378 1.273 . S
O390 Nd361 2.410 . S
O390 C379 1.251 . S
O391 Nd360 2.424 . S
O391 C379 1.268 . S
H392 C364 0.930 . S
H393 C365 0.929 . S
H394 C367 0.930 . S
H395 C368 0.929 . S
H396 C373 0.930 . S
H397 C374 0.929 . S
H398 C376 0.930 . S
H399 C377 0.929 . S
Nd400 C402 2.836 . S
Nd400 O420 2.500 . S
Nd400 O421 2.492 . S
Nd400 O422 2.487 . S
Nd400 O423 2.682 . S
Nd400 O424 2.410 . S
Nd400 O429 2.414 1_455 S
Nd400 O431 2.424 1_455 S
Nd401 C411 2.836 . S
Nd401 O423 2.414 1_655 S
Nd401 O425 2.424 1_655 S
Nd401 O426 2.500 . S
Nd401 O427 2.492 . S
Nd401 O428 2.487 . S
Nd401 O429 2.682 . S
Nd401 O430 2.410 . S
C402 Nd400 2.836 . S
C402 C403 1.498 . S
C402 O420 1.258 . S
C402 O421 1.239 . S
C403 C402 1.498 . S
C403 C404 1.366 . S
C403 C408 1.407 . S
C404 C403 1.366 . S
C404 C405 1.392 . S
C404 H432 0.930 . S
C405 C404 1.392 . S
C405 C406 1.398 . S
C405 H433 0.929 . S
C406 C405 1.398 . S
C406 C407 1.352 . S
C407 C406 1.352 . S
C407 C408 1.384 . S
C407 H434 0.930 . S
C408 C403 1.407 . S
C408 C407 1.384 . S
C408 H435 0.929 . S
C409 O422 1.241 . S
C409 O423 1.273 . S
C410 O424 1.251 . S
C410 O425 1.268 . S
C411 Nd401 2.836 . S
C411 C412 1.498 . S
C411 O426 1.258 . S
C411 O427 1.239 . S
C412 C411 1.498 . S
C412 C413 1.366 . S
C412 C417 1.407 . S
C413 C412 1.366 . S
C413 C414 1.392 . S
C413 H436 0.930 . S
C414 C413 1.392 . S
C414 C415 1.398 . S
C414 H437 0.929 . S
C415 C414 1.398 . S
C415 C416 1.352 . S
C416 C415 1.352 . S
C416 C417 1.384 . S
C416 H438 0.930 . S
C417 C412 1.407 . S
C417 C416 1.384 . S
C417 H439 0.929 . S
C418 O428 1.241 . S
C418 O429 1.273 . S
C419 O430 1.251 . S
C419 O431 1.268 . S
O420 Nd400 2.500 . S
O420 C402 1.258 . S
O421 Nd400 2.492 . S
O421 C402 1.239 . S
O422 Nd400 2.487 . S
O422 C409 1.241 . S
O423 Nd400 2.682 . S
O423 Nd401 2.414 1_455 S
O423 C409 1.273 . S
O424 Nd400 2.410 . S
O424 C410 1.251 . S
O425 Nd401 2.424 1_455 S
O425 C410 1.268 . S
O426 Nd401 2.500 . S
O426 C411 1.258 . S
O427 Nd401 2.492 . S
O427 C411 1.239 . S
O428 Nd401 2.487 . S
O428 C418 1.241 . S
O429 Nd400 2.414 1_655 S
O429 Nd401 2.682 . S
O429 C418 1.273 . S
O430 Nd401 2.410 . S
O430 C419 1.251 . S
O431 Nd400 2.424 1_655 S
O431 C419 1.268 . S
H432 C404 0.930 . S
H433 C405 0.929 . S
H434 C407 0.930 . S
H435 C408 0.929 . S
H436 C413 0.930 . S
H437 C414 0.929 . S
H438 C416 0.930 . S
H439 C417 0.929 . S
Nd440 C442 2.836 . S
Nd440 O460 2.500 . S
Nd440 O461 2.492 . S
Nd440 O462 2.487 . S
Nd440 O463 2.682 . S
Nd440 O464 2.410 . S
Nd440 O469 2.414 . S
Nd440 O471 2.424 . S
Nd441 C451 2.836 . S
Nd441 O463 2.414 . S
Nd441 O465 2.424 . S
Nd441 O466 2.500 . S
Nd441 O467 2.492 . S
Nd441 O468 2.487 . S
Nd441 O469 2.682 . S
Nd441 O470 2.410 . S
C442 Nd440 2.836 . S
C442 C443 1.498 . S
C442 O460 1.258 . S
C442 O461 1.239 . S
C443 C442 1.498 . S
C443 C444 1.366 . S
C443 C448 1.407 . S
C444 C443 1.366 . S
C444 C445 1.392 . S
C444 H472 0.930 . S
C445 C444 1.392 . S
C445 C446 1.398 . S
C445 H473 0.929 . S
C446 C445 1.398 . S
C446 C447 1.352 . S
C447 C446 1.352 . S
C447 C448 1.384 . S
C447 H474 0.930 . S
C448 C443 1.407 . S
C448 C447 1.384 . S
C448 H475 0.929 . S
C449 O462 1.241 . S
C449 O463 1.273 . S
C450 O464 1.251 . S
C450 O465 1.268 . S
C451 Nd441 2.836 . S
C451 C452 1.498 . S
C451 O466 1.258 . S
C451 O467 1.239 . S
C452 C451 1.498 . S
C452 C453 1.366 . S
C452 C457 1.407 . S
C453 C452 1.366 . S
C453 C454 1.392 . S
C453 H476 0.930 . S
C454 C453 1.392 . S
C454 C455 1.398 . S
C454 H477 0.929 . S
C455 C454 1.398 . S
C455 C456 1.352 . S
C456 C455 1.352 . S
C456 C457 1.384 . S
C456 H478 0.930 . S
C457 C452 1.407 . S
C457 C456 1.384 . S
C457 H479 0.929 . S
C458 O468 1.241 . S
C458 O469 1.273 . S
C459 O470 1.251 . S
C459 O471 1.268 . S
O460 Nd440 2.500 . S
O460 C442 1.258 . S
O461 Nd440 2.492 . S
O461 C442 1.239 . S
O462 Nd440 2.487 . S
O462 C449 1.241 . S
O463 Nd440 2.682 . S
O463 Nd441 2.414 . S
O463 C449 1.273 . S
O464 Nd440 2.410 . S
O464 C450 1.251 . S
O465 Nd441 2.424 . S
O465 C450 1.268 . S
O466 Nd441 2.500 . S
O466 C451 1.258 . S
O467 Nd441 2.492 . S
O467 C451 1.239 . S
O468 Nd441 2.487 . S
O468 C458 1.241 . S
O469 Nd440 2.414 . S
O469 Nd441 2.682 . S
O469 C458 1.273 . S
O470 Nd441 2.410 . S
O470 C459 1.251 . S
O471 Nd440 2.424 . S
O471 C459 1.268 . S
H472 C444 0.930 . S
H473 C445 0.929 . S
H474 C447 0.930 . S
H475 C448 0.929 . S
H476 C453 0.930 . S
H477 C454 0.929 . S
H478 C456 0.930 . S
H479 C457 0.929 . S
Nd480 C482 2.836 . S
Nd480 O500 2.500 . S
Nd480 O501 2.492 . S
Nd480 O502 2.487 . S
Nd480 O503 2.682 . S
Nd480 O504 2.410 . S
Nd480 O509 2.414 . S
Nd480 O511 2.424 . S
Nd481 C491 2.836 . S
Nd481 O503 2.414 . S
Nd481 O505 2.424 . S
Nd481 O506 2.500 . S
Nd481 O507 2.492 . S
Nd481 O508 2.487 . S
Nd481 O509 2.682 . S
Nd481 O510 2.410 . S
C482 Nd480 2.836 . S
C482 C483 1.498 . S
C482 O500 1.258 . S
C482 O501 1.239 . S
C483 C482 1.498 . S
C483 C484 1.366 . S
C483 C488 1.407 . S
C484 C483 1.366 . S
C484 C485 1.392 . S
C484 H512 0.930 . S
C485 C484 1.392 . S
C485 C486 1.398 . S
C485 H513 0.929 . S
C486 C485 1.398 . S
C486 C487 1.352 . S
C487 C486 1.352 . S
C487 C488 1.384 . S
C487 H514 0.930 . S
C488 C483 1.407 . S
C488 C487 1.384 . S
C488 H515 0.929 . S
C489 O502 1.241 . S
C489 O503 1.273 . S
C490 O504 1.251 . S
C490 O505 1.268 . S
C491 Nd481 2.836 . S
C491 C492 1.498 . S
C491 O506 1.258 . S
C491 O507 1.239 . S
C492 C491 1.498 . S
C492 C493 1.366 . S
C492 C497 1.407 . S
C493 C492 1.366 . S
C493 C494 1.392 . S
C493 H516 0.930 . S
C494 C493 1.392 . S
C494 C495 1.398 . S
C494 H517 0.929 . S
C495 C494 1.398 . S
C495 C496 1.352 . S
C496 C495 1.352 . S
C496 C497 1.384 . S
C496 H518 0.930 . S
C497 C492 1.407 . S
C497 C496 1.384 . S
C497 H519 0.929 . S
C498 O508 1.241 . S
C498 O509 1.273 . S
C499 O510 1.251 . S
C499 O511 1.268 . S
O500 Nd480 2.500 . S
O500 C482 1.258 . S
O501 Nd480 2.492 . S
O501 C482 1.239 . S
O502 Nd480 2.487 . S
O502 C489 1.241 . S
O503 Nd480 2.682 . S
O503 Nd481 2.414 . S
O503 C489 1.273 . S
O504 Nd480 2.410 . S
O504 C490 1.251 . S
O505 Nd481 2.424 . S
O505 C490 1.268 . S
O506 Nd481 2.500 . S
O506 C491 1.258 . S
O507 Nd481 2.492 . S
O507 C491 1.239 . S
O508 Nd481 2.487 . S
O508 C498 1.241 . S
O509 Nd480 2.414 . S
O509 Nd481 2.682 . S
O509 C498 1.273 . S
O510 Nd481 2.410 . S
O510 C499 1.251 . S
O511 Nd480 2.424 . S
O511 C499 1.268 . S
H512 C484 0.930 . S
H513 C485 0.929 . S
H514 C487 0.930 . S
H515 C488 0.929 . S
H516 C493 0.930 . S
H517 C494 0.929 . S
H518 C496 0.930 . S
H519 C497 0.929 . S
Nd520 C522 2.836 . S
Nd520 O540 2.500 . S
Nd520 O541 2.492 . S
Nd520 O542 2.487 . S
Nd520 O543 2.682 . S
Nd520 O544 2.410 . S
Nd520 O549 2.414 . S
Nd520 O551 2.424 . S
Nd521 C531 2.836 . S
Nd521 O543 2.414 . S
Nd521 O545 2.424 . S
Nd521 O546 2.500 . S
Nd521 O547 2.492 . S
Nd521 O548 2.487 . S
Nd521 O549 2.682 . S
Nd521 O550 2.410 . S
C522 Nd520 2.836 . S
C522 C523 1.498 . S
C522 O540 1.258 . S
C522 O541 1.239 . S
C523 C522 1.498 . S
C523 C524 1.366 . S
C523 C528 1.407 . S
C524 C523 1.366 . S
C524 C525 1.392 . S
C524 H552 0.930 . S
C525 C524 1.392 . S
C525 C526 1.398 . S
C525 H553 0.929 . S
C526 C525 1.398 . S
C526 C527 1.352 . S
C527 C526 1.352 . S
C527 C528 1.384 . S
C527 H554 0.930 . S
C528 C523 1.407 . S
C528 C527 1.384 . S
C528 H555 0.929 . S
C529 O542 1.241 . S
C529 O543 1.273 . S
C530 O544 1.251 . S
C530 O545 1.268 . S
C531 Nd521 2.836 . S
C531 C532 1.498 . S
C531 O546 1.258 . S
C531 O547 1.239 . S
C532 C531 1.498 . S
C532 C533 1.366 . S
C532 C537 1.407 . S
C533 C532 1.366 . S
C533 C534 1.392 . S
C533 H556 0.930 . S
C534 C533 1.392 . S
C534 C535 1.398 . S
C534 H557 0.929 . S
C535 C534 1.398 . S
C535 C536 1.352 . S
C536 C535 1.352 . S
C536 C537 1.384 . S
C536 H558 0.930 . S
C537 C532 1.407 . S
C537 C536 1.384 . S
C537 H559 0.929 . S
C538 O548 1.241 . S
C538 O549 1.273 . S
C539 O550 1.251 . S
C539 O551 1.268 . S
O540 Nd520 2.500 . S
O540 C522 1.258 . S
O541 Nd520 2.492 . S
O541 C522 1.239 . S
O542 Nd520 2.487 . S
O542 C529 1.241 . S
O543 Nd520 2.682 . S
O543 Nd521 2.414 . S
O543 C529 1.273 . S
O544 Nd520 2.410 . S
O544 C530 1.251 . S
O545 Nd521 2.424 . S
O545 C530 1.268 . S
O546 Nd521 2.500 . S
O546 C531 1.258 . S
O547 Nd521 2.492 . S
O547 C531 1.239 . S
O548 Nd521 2.487 . S
O548 C538 1.241 . S
O549 Nd520 2.414 . S
O549 Nd521 2.682 . S
O549 C538 1.273 . S
O550 Nd521 2.410 . S
O550 C539 1.251 . S
O551 Nd520 2.424 . S
O551 C539 1.268 . S
H552 C524 0.930 . S
H553 C525 0.929 . S
H554 C527 0.930 . S
H555 C528 0.929 . S
H556 C533 0.930 . S
H557 C534 0.929 . S
H558 C536 0.930 . S
H559 C537 0.929 . S
Nd560 C562 2.836 . S
Nd560 O580 2.500 . S
Nd560 O581 2.492 . S
Nd560 O582 2.487 . S
Nd560 O583 2.682 . S
Nd560 O584 2.410 . S
Nd560 O589 2.414 . S
Nd560 O591 2.424 . S
Nd561 C571 2.836 . S
Nd561 O583 2.414 . S
Nd561 O585 2.424 . S
Nd561 O586 2.500 . S
Nd561 O587 2.492 . S
Nd561 O588 2.487 . S
Nd561 O589 2.682 . S
Nd561 O590 2.410 . S
C562 Nd560 2.836 . S
C562 C563 1.498 . S
C562 O580 1.258 . S
C562 O581 1.239 . S
C563 C562 1.498 . S
C563 C564 1.366 . S
C563 C568 1.407 . S
C564 C563 1.366 . S
C564 C565 1.392 . S
C564 H592 0.930 . S
C565 C564 1.392 . S
C565 C566 1.398 . S
C565 H593 0.929 . S
C566 C565 1.398 . S
C566 C567 1.352 . S
C567 C566 1.352 . S
C567 C568 1.384 . S
C567 H594 0.930 . S
C568 C563 1.407 . S
C568 C567 1.384 . S
C568 H595 0.929 . S
C569 O582 1.241 . S
C569 O583 1.273 . S
C570 O584 1.251 . S
C570 O585 1.268 . S
C571 Nd561 2.836 . S
C571 C572 1.498 . S
C571 O586 1.258 . S
C571 O587 1.239 . S
C572 C571 1.498 . S
C572 C573 1.366 . S
C572 C577 1.407 . S
C573 C572 1.366 . S
C573 C574 1.392 . S
C573 H596 0.930 . S
C574 C573 1.392 . S
C574 C575 1.398 . S
C574 H597 0.929 . S
C575 C574 1.398 . S
C575 C576 1.352 . S
C576 C575 1.352 . S
C576 C577 1.384 . S
C576 H598 0.930 . S
C577 C572 1.407 . S
C577 C576 1.384 . S
C577 H599 0.929 . S
C578 O588 1.241 . S
C578 O589 1.273 . S
C579 O590 1.251 . S
C579 O591 1.268 . S
O580 Nd560 2.500 . S
O580 C562 1.258 . S
O581 Nd560 2.492 . S
O581 C562 1.239 . S
O582 Nd560 2.487 . S
O582 C569 1.241 . S
O583 Nd560 2.682 . S
O583 Nd561 2.414 . S
O583 C569 1.273 . S
O584 Nd560 2.410 . S
O584 C570 1.251 . S
O585 Nd561 2.424 . S
O585 C570 1.268 . S
O586 Nd561 2.500 . S
O586 C571 1.258 . S
O587 Nd561 2.492 . S
O587 C571 1.239 . S
O588 Nd561 2.487 . S
O588 C578 1.241 . S
O589 Nd560 2.414 . S
O589 Nd561 2.682 . S
O589 C578 1.273 . S
O590 Nd561 2.410 . S
O590 C579 1.251 . S
O591 Nd560 2.424 . S
O591 C579 1.268 . S
H592 C564 0.930 . S
H593 C565 0.929 . S
H594 C567 0.930 . S
H595 C568 0.929 . S
H596 C573 0.930 . S
H597 C574 0.929 . S
H598 C576 0.930 . S
H599 C577 0.929 . S
Nd600 C602 2.836 . S
Nd600 O620 2.500 . S
Nd600 O621 2.492 . S
Nd600 O622 2.487 . S
Nd600 O623 2.682 . S
Nd600 O624 2.410 1_556 S
Nd600 O629 2.414 1_656 S
Nd600 O631 2.424 1_655 S
Nd601 C611 2.836 . S
Nd601 O623 2.414 1_454 S
Nd601 O625 2.424 1_455 S
Nd601 O626 2.500 . S
Nd601 O627 2.492 . S
Nd601 O628 2.487 . S
Nd601 O629 2.682 . S
Nd601 O630 2.410 1_554 S
C602 Nd600 2.836 . S
C602 C603 1.498 . S
C602 O620 1.258 . S
C602 O621 1.239 . S
C603 C602 1.498 . S
C603 C604 1.366 . S
C603 C608 1.407 . S
C604 C603 1.366 . S
C604 C605 1.392 . S
C604 H632 0.930 1_556 S
C605 C604 1.392 . S
C605 C606 1.398 . S
C605 H633 0.929 . S
C606 C605 1.398 . S
C606 C607 1.352 . S
C607 C606 1.352 . S
C607 C608 1.384 . S
C607 H634 0.930 . S
C608 C603 1.407 . S
C608 C607 1.384 . S
C608 H635 0.929 . S
C609 O622 1.241 . S
C609 O623 1.273 . S
C610 O624 1.251 . S
C610 O625 1.268 . S
C611 Nd601 2.836 . S
C611 C612 1.498 . S
C611 O626 1.258 . S
C611 O627 1.239 . S
C612 C611 1.498 . S
C612 C613 1.366 . S
C612 C617 1.407 . S
C613 C612 1.366 . S
C613 C614 1.392 . S
C613 H636 0.930 1_554 S
C614 C613 1.392 . S
C614 C615 1.398 . S
C614 H637 0.929 . S
C615 C614 1.398 . S
C615 C616 1.352 . S
C616 C615 1.352 . S
C616 C617 1.384 . S
C616 H638 0.930 . S
C617 C612 1.407 . S
C617 C616 1.384 . S
C617 H639 0.929 . S
C618 O628 1.241 . S
C618 O629 1.273 . S
C619 O630 1.251 . S
C619 O631 1.268 . S
O620 Nd600 2.500 . S
O620 C602 1.258 . S
O621 Nd600 2.492 . S
O621 C602 1.239 . S
O622 Nd600 2.487 . S
O622 C609 1.241 . S
O623 Nd600 2.682 . S
O623 Nd601 2.414 1_656 S
O623 C609 1.273 . S
O624 Nd600 2.410 1_554 S
O624 C610 1.251 . S
O625 Nd601 2.424 1_655 S
O625 C610 1.268 . S
O626 Nd601 2.500 . S
O626 C611 1.258 . S
O627 Nd601 2.492 . S
O627 C611 1.239 . S
O628 Nd601 2.487 . S
O628 C618 1.241 . S
O629 Nd600 2.414 1_454 S
O629 Nd601 2.682 . S
O629 C618 1.273 . S
O630 Nd601 2.410 1_556 S
O630 C619 1.251 . S
O631 Nd600 2.424 1_455 S
O631 C619 1.268 . S
H632 C604 0.930 1_554 S
H633 C605 0.929 . S
H634 C607 0.930 . S
H635 C608 0.929 . S
H636 C613 0.930 1_556 S
H637 C614 0.929 . S
H638 C616 0.930 . S
H639 C617 0.929 . S
C640 C641 1.391 . S
C640 C642 1.394 . S
C640 H656 0.931 . S
C641 C640 1.391 . S
C641 C645 1.376 . S
C642 C640 1.394 . S
C642 C643 1.369 . S
C642 C646 1.531 . S
C643 C642 1.369 . S
C643 C644 1.410 . S
C643 C651 1.503 . S
C644 C643 1.410 . S
C644 C645 1.392 . S
C644 C647 1.511 . S
C645 C641 1.376 . S
C645 C644 1.392 . S
C645 H657 0.929 . S
C646 C642 1.531 . S
C646 H658 0.960 . S
C646 H659 0.962 . S
C646 H660 0.960 . S
C647 C644 1.511 . S
C647 H661 0.961 . S
C647 H662 0.961 . S
C647 H663 0.961 . S
C648 C649 1.370 . S
C648 C650 1.363 . S
C648 H664 0.931 1_556 S
C649 C648 1.370 . S
C649 C653 1.408 . S
C650 C648 1.363 . S
C650 C651 1.370 . S
C650 C654 1.524 1_556 S
C651 C643 1.503 . S
C651 C650 1.370 . S
C651 C652 1.403 . S
C652 C651 1.403 . S
C652 C653 1.404 . S
C652 C655 1.539 . S
C653 C649 1.408 . S
C653 C652 1.404 . S
C653 H665 0.930 . S
C654 C650 1.524 1_554 S
C654 H666 0.956 . S
C654 H667 0.961 1_554 S
C654 H668 0.961 . S
C655 C652 1.539 . S
C655 H669 0.958 . S
C655 H670 0.961 . S
C655 H671 0.960 . S
H656 C640 0.931 . S
H657 C645 0.929 . S
H658 C646 0.960 . S
H659 C646 0.962 . S
H660 C646 0.960 . S
H661 C647 0.961 . S
H662 C647 0.961 . S
H663 C647 0.961 . S
H664 C648 0.931 1_554 S
H665 C653 0.930 . S
H666 C654 0.956 . S
H667 C654 0.961 1_556 S
H668 C654 0.961 . S
H669 C655 0.958 . S
H670 C655 0.961 . S
H671 C655 0.960 . S
C672 C673 1.391 . S
C672 C674 1.394 . S
C672 H688 0.931 . S
C673 C672 1.391 . S
C673 C677 1.376 . S
C674 C672 1.394 . S
C674 C675 1.369 . S
C674 C678 1.531 . S
C675 C674 1.369 . S
C675 C676 1.410 . S
C675 C683 1.503 . S
C676 C675 1.410 . S
C676 C677 1.392 . S
C676 C679 1.511 . S
C677 C673 1.376 . S
C677 C676 1.392 . S
C677 H689 0.929 . S
C678 C674 1.531 . S
C678 H690 0.960 . S
C678 H691 0.962 . S
C678 H692 0.960 . S
C679 C676 1.511 . S
C679 H693 0.961 . S
C679 H694 0.961 . S
C679 H695 0.961 . S
C680 C681 1.370 . S
C680 C682 1.363 . S
C680 H696 0.931 . S
C681 C680 1.370 . S
C681 C685 1.408 . S
C682 C680 1.363 . S
C682 C683 1.370 . S
C682 C686 1.524 . S
C683 C675 1.503 . S
C683 C682 1.370 . S
C683 C684 1.403 . S
C684 C683 1.403 . S
C684 C685 1.404 . S
C684 C687 1.539 . S
C685 C681 1.408 . S
C685 C684 1.404 . S
C685 H697 0.930 . S
C686 C682 1.524 . S
C686 H698 0.956 . S
C686 H699 0.961 . S
C686 H700 0.961 . S
C687 C684 1.539 . S
C687 H701 0.958 . S
C687 H702 0.961 . S
C687 H703 0.960 . S
H688 C672 0.931 . S
H689 C677 0.929 . S
H690 C678 0.960 . S
H691 C678 0.962 . S
H692 C678 0.960 . S
H693 C679 0.961 . S
H694 C679 0.961 . S
H695 C679 0.961 . S
H696 C680 0.931 . S
H697 C685 0.930 . S
H698 C686 0.956 . S
H699 C686 0.961 . S
H700 C686 0.961 . S
H701 C687 0.958 . S
H702 C687 0.961 . S
H703 C687 0.960 . S
C704 C705 1.391 . S
C704 C706 1.394 . S
C704 H720 0.931 . S
C705 C704 1.391 . S
C705 C709 1.376 . S
C706 C704 1.394 . S
C706 C707 1.369 . S
C706 C710 1.531 . S
C707 C706 1.369 . S
C707 C708 1.410 . S
C707 C715 1.503 . S
C708 C707 1.410 . S
C708 C709 1.392 . S
C708 C711 1.511 . S
C709 C705 1.376 . S
C709 C708 1.392 . S
C709 H721 0.929 . S
C710 C706 1.531 . S
C710 H722 0.960 . S
C710 H723 0.962 . S
C710 H724 0.960 . S
C711 C708 1.511 . S
C711 H725 0.961 . S
C711 H726 0.961 . S
C711 H727 0.961 . S
C712 C713 1.370 . S
C712 C714 1.363 . S
C712 H728 0.931 . S
C713 C712 1.370 . S
C713 C717 1.408 . S
C714 C712 1.363 . S
C714 C715 1.370 . S
C714 C718 1.524 . S
C715 C707 1.503 . S
C715 C714 1.370 . S
C715 C716 1.403 . S
C716 C715 1.403 . S
C716 C717 1.404 . S
C716 C719 1.539 . S
C717 C713 1.408 . S
C717 C716 1.404 . S
C717 H729 0.930 . S
C718 C714 1.524 . S
C718 H730 0.956 . S
C718 H731 0.961 . S
C718 H732 0.961 . S
C719 C716 1.539 . S
C719 H733 0.958 . S
C719 H734 0.961 . S
C719 H735 0.960 . S
H720 C704 0.931 . S
H721 C709 0.929 . S
H722 C710 0.960 . S
H723 C710 0.962 . S
H724 C710 0.960 . S
H725 C711 0.961 . S
H726 C711 0.961 . S
H727 C711 0.961 . S
H728 C712 0.931 . S
H729 C717 0.930 . S
H730 C718 0.956 . S
H731 C718 0.961 . S
H732 C718 0.961 . S
H733 C719 0.958 . S
H734 C719 0.961 . S
H735 C719 0.960 . S
C736 C737 1.391 . S
C736 C738 1.394 . S
C736 H752 0.931 . S
C737 C736 1.391 . S
C737 C741 1.376 . S
C738 C736 1.394 . S
C738 C739 1.369 . S
C738 C742 1.531 . S
C739 C738 1.369 . S
C739 C740 1.410 . S
C739 C747 1.503 . S
C740 C739 1.410 . S
C740 C741 1.392 . S
C740 C743 1.511 . S
C741 C737 1.376 . S
C741 C740 1.392 . S
C741 H753 0.929 . S
C742 C738 1.531 . S
C742 H754 0.960 . S
C742 H755 0.962 . S
C742 H756 0.960 . S
C743 C740 1.511 . S
C743 H757 0.961 . S
C743 H758 0.961 . S
C743 H759 0.961 . S
C744 C745 1.370 . S
C744 C746 1.363 . S
C744 H760 0.931 . S
C745 C744 1.370 . S
C745 C749 1.408 . S
C746 C744 1.363 . S
C746 C747 1.370 . S
C746 C750 1.524 . S
C747 C739 1.503 . S
C747 C746 1.370 . S
C747 C748 1.403 . S
C748 C747 1.403 . S
C748 C749 1.404 . S
C748 C751 1.539 . S
C749 C745 1.408 . S
C749 C748 1.404 . S
C749 H761 0.930 . S
C750 C746 1.524 . S
C750 H762 0.956 . S
C750 H763 0.961 . S
C750 H764 0.961 . S
C751 C748 1.539 . S
C751 H765 0.958 . S
C751 H766 0.961 . S
C751 H767 0.960 . S
H752 C736 0.931 . S
H753 C741 0.929 . S
H754 C742 0.960 . S
H755 C742 0.962 . S
H756 C742 0.960 . S
H757 C743 0.961 . S
H758 C743 0.961 . S
H759 C743 0.961 . S
H760 C744 0.931 . S
H761 C749 0.930 . S
H762 C750 0.956 . S
H763 C750 0.961 . S
H764 C750 0.961 . S
H765 C751 0.958 . S
H766 C751 0.961 . S
H767 C751 0.960 . S
C768 C769 1.391 . S
C768 C770 1.394 . S
C768 H784 0.931 . S
C769 C768 1.391 . S
C769 C773 1.376 . S
C770 C768 1.394 . S
C770 C771 1.369 . S
C770 C774 1.531 . S
C771 C770 1.369 . S
C771 C772 1.410 . S
C771 C779 1.503 . S
C772 C771 1.410 . S
C772 C773 1.392 . S
C772 C775 1.511 . S
C773 C769 1.376 . S
C773 C772 1.392 . S
C773 H785 0.929 . S
C774 C770 1.531 . S
C774 H786 0.960 . S
C774 H787 0.962 . S
C774 H788 0.960 . S
C775 C772 1.511 . S
C775 H789 0.961 . S
C775 H790 0.961 . S
C775 H791 0.961 . S
C776 C777 1.370 . S
C776 C778 1.363 . S
C776 H792 0.931 . S
C777 C776 1.370 . S
C777 C781 1.408 . S
C778 C776 1.363 . S
C778 C779 1.370 . S
C778 C782 1.524 . S
C779 C771 1.503 . S
C779 C778 1.370 . S
C779 C780 1.403 . S
C780 C779 1.403 . S
C780 C781 1.404 . S
C780 C783 1.539 . S
C781 C777 1.408 . S
C781 C780 1.404 . S
C781 H793 0.930 . S
C782 C778 1.524 . S
C782 H794 0.956 . S
C782 H795 0.961 . S
C782 H796 0.961 . S
C783 C780 1.539 . S
C783 H797 0.958 . S
C783 H798 0.961 . S
C783 H799 0.960 . S
H784 C768 0.931 . S
H785 C773 0.929 . S
H786 C774 0.960 . S
H787 C774 0.962 . S
H788 C774 0.960 . S
H789 C775 0.961 . S
H790 C775 0.961 . S
H791 C775 0.961 . S
H792 C776 0.931 . S
H793 C781 0.930 . S
H794 C782 0.956 . S
H795 C782 0.961 . S
H796 C782 0.961 . S
H797 C783 0.958 . S
H798 C783 0.961 . S
H799 C783 0.960 . S
C800 C801 1.391 . S
C800 C802 1.394 . S
C800 H816 0.931 . S
C801 C800 1.391 . S
C801 C805 1.376 . S
C802 C800 1.394 . S
C802 C803 1.369 . S
C802 C806 1.531 . S
C803 C802 1.369 . S
C803 C804 1.410 . S
C803 C811 1.503 . S
C804 C803 1.410 . S
C804 C805 1.392 . S
C804 C807 1.511 . S
C805 C801 1.376 . S
C805 C804 1.392 . S
C805 H817 0.929 . S
C806 C802 1.531 . S
C806 H818 0.960 . S
C806 H819 0.962 . S
C806 H820 0.960 . S
C807 C804 1.511 . S
C807 H821 0.961 . S
C807 H822 0.961 . S
C807 H823 0.961 . S
C808 C809 1.370 . S
C808 C810 1.363 . S
C808 H824 0.931 . S
C809 C808 1.370 . S
C809 C813 1.408 . S
C810 C808 1.363 . S
C810 C811 1.370 . S
C810 C814 1.524 . S
C811 C803 1.503 . S
C811 C810 1.370 . S
C811 C812 1.403 . S
C812 C811 1.403 . S
C812 C813 1.404 . S
C812 C815 1.539 . S
C813 C809 1.408 . S
C813 C812 1.404 . S
C813 H825 0.930 . S
C814 C810 1.524 . S
C814 H826 0.956 . S
C814 H827 0.961 . S
C814 H828 0.961 . S
C815 C812 1.539 . S
C815 H829 0.958 . S
C815 H830 0.961 . S
C815 H831 0.960 . S
H816 C800 0.931 . S
H817 C805 0.929 . S
H818 C806 0.960 . S
H819 C806 0.962 . S
H820 C806 0.960 . S
H821 C807 0.961 . S
H822 C807 0.961 . S
H823 C807 0.961 . S
H824 C808 0.931 . S
H825 C813 0.930 . S
H826 C814 0.956 . S
H827 C814 0.961 . S
H828 C814 0.961 . S
H829 C815 0.958 . S
H830 C815 0.961 . S
H831 C815 0.960 . S
C832 C833 1.391 . S
C832 C834 1.394 . S
C832 H848 0.931 . S
C833 C832 1.391 . S
C833 C837 1.376 . S
C834 C832 1.394 . S
C834 C835 1.369 . S
C834 C838 1.531 . S
C835 C834 1.369 . S
C835 C836 1.410 . S
C835 C843 1.503 . S
C836 C835 1.410 . S
C836 C837 1.392 . S
C836 C839 1.511 . S
C837 C833 1.376 . S
C837 C836 1.392 . S
C837 H849 0.929 . S
C838 C834 1.531 . S
C838 H850 0.960 . S
C838 H851 0.962 . S
C838 H852 0.960 . S
C839 C836 1.511 . S
C839 H853 0.961 . S
C839 H854 0.961 . S
C839 H855 0.961 . S
C840 C841 1.370 . S
C840 C842 1.363 . S
C840 H856 0.931 . S
C841 C840 1.370 . S
C841 C845 1.408 . S
C842 C840 1.363 . S
C842 C843 1.370 . S
C842 C846 1.524 . S
C843 C835 1.503 . S
C843 C842 1.370 . S
C843 C844 1.403 . S
C844 C843 1.403 . S
C844 C845 1.404 . S
C844 C847 1.539 . S
C845 C841 1.408 . S
C845 C844 1.404 . S
C845 H857 0.930 . S
C846 C842 1.524 . S
C846 H858 0.956 . S
C846 H859 0.961 . S
C846 H860 0.961 . S
C847 C844 1.539 . S
C847 H861 0.958 . S
C847 H862 0.961 . S
C847 H863 0.960 . S
H848 C832 0.931 . S
H849 C837 0.929 . S
H850 C838 0.960 . S
H851 C838 0.962 . S
H852 C838 0.960 . S
H853 C839 0.961 . S
H854 C839 0.961 . S
H855 C839 0.961 . S
H856 C840 0.931 . S
H857 C845 0.930 . S
H858 C846 0.956 . S
H859 C846 0.961 . S
H860 C846 0.961 . S
H861 C847 0.958 . S
H862 C847 0.961 . S
H863 C847 0.960 . S
C864 C865 1.391 . S
C864 C866 1.394 . S
C864 H880 0.931 . S
C865 C864 1.391 . S
C865 C869 1.376 . S
C866 C864 1.394 . S
C866 C867 1.369 . S
C866 C870 1.531 . S
C867 C866 1.369 . S
C867 C868 1.410 . S
C867 C875 1.503 . S
C868 C867 1.410 . S
C868 C869 1.392 . S
C868 C871 1.511 . S
C869 C865 1.376 . S
C869 C868 1.392 . S
C869 H881 0.929 . S
C870 C866 1.531 . S
C870 H882 0.960 . S
C870 H883 0.962 . S
C870 H884 0.960 . S
C871 C868 1.511 . S
C871 H885 0.961 . S
C871 H886 0.961 . S
C871 H887 0.961 . S
C872 C873 1.370 . S
C872 C874 1.363 . S
C872 H888 0.931 . S
C873 C872 1.370 . S
C873 C877 1.408 . S
C874 C872 1.363 . S
C874 C875 1.370 . S
C874 C878 1.524 . S
C875 C867 1.503 . S
C875 C874 1.370 . S
C875 C876 1.403 . S
C876 C875 1.403 . S
C876 C877 1.404 . S
C876 C879 1.539 . S
C877 C873 1.408 . S
C877 C876 1.404 . S
C877 H889 0.930 . S
C878 C874 1.524 . S
C878 H890 0.956 . S
C878 H891 0.961 . S
C878 H892 0.961 . S
C879 C876 1.539 . S
C879 H893 0.958 . S
C879 H894 0.961 . S
C879 H895 0.960 . S
H880 C864 0.931 . S
H881 C869 0.929 . S
H882 C870 0.960 . S
H883 C870 0.962 . S
H884 C870 0.960 . S
H885 C871 0.961 . S
H886 C871 0.961 . S
H887 C871 0.961 . S
H888 C872 0.931 . S
H889 C877 0.930 . S
H890 C878 0.956 . S
H891 C878 0.961 . S
H892 C878 0.961 . S
H893 C879 0.958 . S
H894 C879 0.961 . S
H895 C879 0.960 . S
C896 C897 1.391 . S
C896 C898 1.394 . S
C896 H912 0.931 . S
C897 C896 1.391 . S
C897 C901 1.376 . S
C898 C896 1.394 . S
C898 C899 1.369 . S
C898 C902 1.531 . S
C899 C898 1.369 . S
C899 C900 1.410 . S
C899 C907 1.503 . S
C900 C899 1.410 . S
C900 C901 1.392 . S
C900 C903 1.511 . S
C901 C897 1.376 . S
C901 C900 1.392 . S
C901 H913 0.929 . S
C902 C898 1.531 . S
C902 H914 0.960 . S
C902 H915 0.962 . S
C902 H916 0.960 . S
C903 C900 1.511 . S
C903 H917 0.961 . S
C903 H918 0.961 . S
C903 H919 0.961 . S
C904 C905 1.370 . S
C904 C906 1.363 . S
C904 H920 0.931 . S
C905 C904 1.370 . S
C905 C909 1.408 . S
C906 C904 1.363 . S
C906 C907 1.370 . S
C906 C910 1.524 . S
C907 C899 1.503 . S
C907 C906 1.370 . S
C907 C908 1.403 . S
C908 C907 1.403 . S
C908 C909 1.404 . S
C908 C911 1.539 . S
C909 C905 1.408 . S
C909 C908 1.404 . S
C909 H921 0.930 . S
C910 C906 1.524 . S
C910 H922 0.956 . S
C910 H923 0.961 . S
C910 H924 0.961 . S
C911 C908 1.539 . S
C911 H925 0.958 . S
C911 H926 0.961 . S
C911 H927 0.960 . S
H912 C896 0.931 . S
H913 C901 0.929 . S
H914 C902 0.960 . S
H915 C902 0.962 . S
H916 C902 0.960 . S
H917 C903 0.961 . S
H918 C903 0.961 . S
H919 C903 0.961 . S
H920 C904 0.931 . S
H921 C909 0.930 . S
H922 C910 0.956 . S
H923 C910 0.961 . S
H924 C910 0.961 . S
H925 C911 0.958 . S
H926 C911 0.961 . S
H927 C911 0.960 . S
C928 C929 1.391 . S
C928 C930 1.394 . S
C928 H944 0.931 . S
C929 C928 1.391 . S
C929 C933 1.376 . S
C930 C928 1.394 . S
C930 C931 1.369 . S
C930 C934 1.531 . S
C931 C930 1.369 . S
C931 C932 1.410 . S
C931 C939 1.503 . S
C932 C931 1.410 . S
C932 C933 1.392 . S
C932 C935 1.511 . S
C933 C929 1.376 . S
C933 C932 1.392 . S
C933 H945 0.929 . S
C934 C930 1.531 . S
C934 H946 0.960 . S
C934 H947 0.962 . S
C934 H948 0.960 . S
C935 C932 1.511 . S
C935 H949 0.961 . S
C935 H950 0.961 . S
C935 H951 0.961 . S
C936 C937 1.370 . S
C936 C938 1.363 . S
C936 H952 0.931 . S
C937 C936 1.370 . S
C937 C941 1.408 . S
C938 C936 1.363 . S
C938 C939 1.370 . S
C938 C942 1.524 . S
C939 C931 1.503 . S
C939 C938 1.370 . S
C939 C940 1.403 . S
C940 C939 1.403 . S
C940 C941 1.404 . S
C940 C943 1.539 . S
C941 C937 1.408 . S
C941 C940 1.404 . S
C941 H953 0.930 . S
C942 C938 1.524 . S
C942 H954 0.956 . S
C942 H955 0.961 . S
C942 H956 0.961 . S
C943 C940 1.539 . S
C943 H957 0.958 . S
C943 H958 0.961 . S
C943 H959 0.960 . S
H944 C928 0.931 . S
H945 C933 0.929 . S
H946 C934 0.960 . S
H947 C934 0.962 . S
H948 C934 0.960 . S
H949 C935 0.961 . S
H950 C935 0.961 . S
H951 C935 0.961 . S
H952 C936 0.931 . S
H953 C941 0.930 . S
H954 C942 0.956 . S
H955 C942 0.961 . S
H956 C942 0.961 . S
H957 C943 0.958 . S
H958 C943 0.961 . S
H959 C943 0.960 . S
C960 C961 1.391 . S
C960 C962 1.394 . S
C960 H976 0.931 . S
C961 C960 1.391 . S
C961 C965 1.376 . S
C962 C960 1.394 . S
C962 C963 1.369 . S
C962 C966 1.531 . S
C963 C962 1.369 . S
C963 C964 1.410 . S
C963 C971 1.503 . S
C964 C963 1.410 . S
C964 C965 1.392 . S
C964 C967 1.511 . S
C965 C961 1.376 . S
C965 C964 1.392 . S
C965 H977 0.929 . S
C966 C962 1.531 . S
C966 H978 0.960 . S
C966 H979 0.962 . S
C966 H980 0.960 . S
C967 C964 1.511 . S
C967 H981 0.961 . S
C967 H982 0.961 . S
C967 H983 0.961 . S
C968 C969 1.370 . S
C968 C970 1.363 . S
C968 H984 0.931 . S
C969 C968 1.370 . S
C969 C973 1.408 . S
C970 C968 1.363 . S
C970 C971 1.370 . S
C970 C974 1.524 . S
C971 C963 1.503 . S
C971 C970 1.370 . S
C971 C972 1.403 . S
C972 C971 1.403 . S
C972 C973 1.404 . S
C972 C975 1.539 . S
C973 C969 1.408 . S
C973 C972 1.404 . S
C973 H985 0.930 . S
C974 C970 1.524 . S
C974 H986 0.956 . S
C974 H987 0.961 . S
C974 H988 0.961 . S
C975 C972 1.539 . S
C975 H989 0.958 . S
C975 H990 0.961 . S
C975 H991 0.960 . S
H976 C960 0.931 . S
H977 C965 0.929 . S
H978 C966 0.960 . S
H979 C966 0.962 . S
H980 C966 0.960 . S
H981 C967 0.961 . S
H982 C967 0.961 . S
H983 C967 0.961 . S
H984 C968 0.931 . S
H985 C973 0.930 . S
H986 C974 0.956 . S
H987 C974 0.961 . S
H988 C974 0.961 . S
H989 C975 0.958 . S
H990 C975 0.961 . S
H991 C975 0.960 . S
C992 C993 1.391 . S
C992 C994 1.394 . S
C992 H1008 0.931 . S
C993 C992 1.391 . S
C993 C997 1.376 . S
C994 C992 1.394 . S
C994 C995 1.369 . S
C994 C998 1.531 . S
C995 C994 1.369 . S
C995 C996 1.410 . S
C995 C1003 1.503 . S
C996 C995 1.410 . S
C996 C997 1.392 . S
C996 C999 1.511 . S
C997 C993 1.376 . S
C997 C996 1.392 . S
C997 H1009 0.929 . S
C998 C994 1.531 . S
C998 H1010 0.960 . S
C998 H1011 0.962 . S
C998 H1012 0.960 . S
C999 C996 1.511 . S
C999 H1013 0.961 . S
C999 H1014 0.961 . S
C999 H1015 0.961 . S
C1000 C1001 1.370 . S
C1000 C1002 1.363 . S
C1000 H1016 0.931 . S
C1001 C1000 1.370 . S
C1001 C1005 1.408 . S
C1002 C1000 1.363 . S
C1002 C1003 1.370 . S
C1002 C1006 1.524 . S
C1003 C995 1.503 . S
C1003 C1002 1.370 . S
C1003 C1004 1.403 . S
C1004 C1003 1.403 . S
C1004 C1005 1.404 . S
C1004 C1007 1.539 . S
C1005 C1001 1.408 . S
C1005 C1004 1.404 . S
C1005 H1017 0.930 . S
C1006 C1002 1.524 . S
C1006 H1018 0.956 . S
C1006 H1019 0.961 . S
C1006 H1020 0.961 . S
C1007 C1004 1.539 . S
C1007 H1021 0.958 . S
C1007 H1022 0.961 . S
C1007 H1023 0.960 . S
H1008 C992 0.931 . S
H1009 C997 0.929 . S
H1010 C998 0.960 . S
H1011 C998 0.962 . S
H1012 C998 0.960 . S
H1013 C999 0.961 . S
H1014 C999 0.961 . S
H1015 C999 0.961 . S
H1016 C1000 0.931 . S
H1017 C1005 0.930 . S
H1018 C1006 0.956 . S
H1019 C1006 0.961 . S
H1020 C1006 0.961 . S
H1021 C1007 0.958 . S
H1022 C1007 0.961 . S
H1023 C1007 0.960 . S
C1024 C1025 1.391 . S
C1024 C1026 1.394 . S
C1024 H1040 0.931 . S
C1025 C1024 1.391 . S
C1025 C1029 1.376 . S
C1026 C1024 1.394 . S
C1026 C1027 1.369 . S
C1026 C1030 1.531 . S
C1027 C1026 1.369 . S
C1027 C1028 1.410 . S
C1027 C1035 1.503 . S
C1028 C1027 1.410 . S
C1028 C1029 1.392 . S
C1028 C1031 1.511 . S
C1029 C1025 1.376 . S
C1029 C1028 1.392 . S
C1029 H1041 0.929 . S
C1030 C1026 1.531 . S
C1030 H1042 0.960 . S
C1030 H1043 0.962 . S
C1030 H1044 0.960 . S
C1031 C1028 1.511 . S
C1031 H1045 0.961 . S
C1031 H1046 0.961 . S
C1031 H1047 0.961 . S
C1032 C1033 1.370 . S
C1032 C1034 1.363 . S
C1032 H1048 0.931 . S
C1033 C1032 1.370 . S
C1033 C1037 1.408 . S
C1034 C1032 1.363 . S
C1034 C1035 1.370 . S
C1034 C1038 1.524 . S
C1035 C1027 1.503 . S
C1035 C1034 1.370 . S
C1035 C1036 1.403 . S
C1036 C1035 1.403 . S
C1036 C1037 1.404 . S
C1036 C1039 1.539 . S
C1037 C1033 1.408 . S
C1037 C1036 1.404 . S
C1037 H1049 0.930 . S
C1038 C1034 1.524 . S
C1038 H1050 0.956 . S
C1038 H1051 0.961 . S
C1038 H1052 0.961 . S
C1039 C1036 1.539 . S
C1039 H1053 0.958 . S
C1039 H1054 0.961 . S
C1039 H1055 0.960 . S
H1040 C1024 0.931 . S
H1041 C1029 0.929 . S
H1042 C1030 0.960 . S
H1043 C1030 0.962 . S
H1044 C1030 0.960 . S
H1045 C1031 0.961 . S
H1046 C1031 0.961 . S
H1047 C1031 0.961 . S
H1048 C1032 0.931 . S
H1049 C1037 0.930 . S
H1050 C1038 0.956 . S
H1051 C1038 0.961 . S
H1052 C1038 0.961 . S
H1053 C1039 0.958 . S
H1054 C1039 0.961 . S
H1055 C1039 0.960 . S
C1056 C1057 1.391 . S
C1056 C1058 1.394 . S
C1056 H1072 0.931 . S
C1057 C1056 1.391 . S
C1057 C1061 1.376 . S
C1058 C1056 1.394 . S
C1058 C1059 1.369 . S
C1058 C1062 1.531 . S
C1059 C1058 1.369 . S
C1059 C1060 1.410 . S
C1059 C1067 1.503 . S
C1060 C1059 1.410 . S
C1060 C1061 1.392 . S
C1060 C1063 1.511 . S
C1061 C1057 1.376 . S
C1061 C1060 1.392 . S
C1061 H1073 0.929 . S
C1062 C1058 1.531 . S
C1062 H1074 0.960 . S
C1062 H1075 0.962 . S
C1062 H1076 0.960 . S
C1063 C1060 1.511 . S
C1063 H1077 0.961 . S
C1063 H1078 0.961 . S
C1063 H1079 0.961 . S
C1064 C1065 1.370 . S
C1064 C1066 1.363 . S
C1064 H1080 0.931 . S
C1065 C1064 1.370 . S
C1065 C1069 1.408 . S
C1066 C1064 1.363 . S
C1066 C1067 1.370 . S
C1066 C1070 1.524 . S
C1067 C1059 1.503 . S
C1067 C1066 1.370 . S
C1067 C1068 1.403 . S
C1068 C1067 1.403 . S
C1068 C1069 1.404 . S
C1068 C1071 1.539 . S
C1069 C1065 1.408 . S
C1069 C1068 1.404 . S
C1069 H1081 0.930 . S
C1070 C1066 1.524 . S
C1070 H1082 0.956 . S
C1070 H1083 0.961 . S
C1070 H1084 0.961 . S
C1071 C1068 1.539 . S
C1071 H1085 0.958 . S
C1071 H1086 0.961 . S
C1071 H1087 0.960 . S
H1072 C1056 0.931 . S
H1073 C1061 0.929 . S
H1074 C1062 0.960 . S
H1075 C1062 0.962 . S
H1076 C1062 0.960 . S
H1077 C1063 0.961 . S
H1078 C1063 0.961 . S
H1079 C1063 0.961 . S
H1080 C1064 0.931 . S
H1081 C1069 0.930 . S
H1082 C1070 0.956 . S
H1083 C1070 0.961 . S
H1084 C1070 0.961 . S
H1085 C1071 0.958 . S
H1086 C1071 0.961 . S
H1087 C1071 0.960 . S
C1088 C1089 1.391 . S
C1088 C1090 1.394 . S
C1088 H1104 0.931 . S
C1089 C1088 1.391 . S
C1089 C1093 1.376 . S
C1090 C1088 1.394 . S
C1090 C1091 1.369 . S
C1090 C1094 1.531 . S
C1091 C1090 1.369 . S
C1091 C1092 1.410 . S
C1091 C1099 1.503 . S
C1092 C1091 1.410 . S
C1092 C1093 1.392 . S
C1092 C1095 1.511 . S
C1093 C1089 1.376 . S
C1093 C1092 1.392 . S
C1093 H1105 0.929 . S
C1094 C1090 1.531 . S
C1094 H1106 0.960 . S
C1094 H1107 0.962 . S
C1094 H1108 0.960 . S
C1095 C1092 1.511 . S
C1095 H1109 0.961 . S
C1095 H1110 0.961 . S
C1095 H1111 0.961 . S
C1096 C1097 1.370 . S
C1096 C1098 1.363 . S
C1096 H1112 0.931 . S
C1097 C1096 1.370 . S
C1097 C1101 1.408 . S
C1098 C1096 1.363 . S
C1098 C1099 1.370 . S
C1098 C1102 1.524 . S
C1099 C1091 1.503 . S
C1099 C1098 1.370 . S
C1099 C1100 1.403 . S
C1100 C1099 1.403 . S
C1100 C1101 1.404 . S
C1100 C1103 1.539 . S
C1101 C1097 1.408 . S
C1101 C1100 1.404 . S
C1101 H1113 0.930 . S
C1102 C1098 1.524 . S
C1102 H1114 0.956 . S
C1102 H1115 0.961 . S
C1102 H1116 0.961 . S
C1103 C1100 1.539 . S
C1103 H1117 0.958 . S
C1103 H1118 0.961 . S
C1103 H1119 0.960 . S
H1104 C1088 0.931 . S
H1105 C1093 0.929 . S
H1106 C1094 0.960 . S
H1107 C1094 0.962 . S
H1108 C1094 0.960 . S
H1109 C1095 0.961 . S
H1110 C1095 0.961 . S
H1111 C1095 0.961 . S
H1112 C1096 0.931 . S
H1113 C1101 0.930 . S
H1114 C1102 0.956 . S
H1115 C1102 0.961 . S
H1116 C1102 0.961 . S
H1117 C1103 0.958 . S
H1118 C1103 0.961 . S
H1119 C1103 0.960 . S
C1120 C1121 1.391 . S
C1120 C1122 1.394 . S
C1120 H1136 0.931 . S
C1121 C1120 1.391 . S
C1121 C1125 1.376 . S
C1122 C1120 1.394 . S
C1122 C1123 1.369 . S
C1122 C1126 1.531 . S
C1123 C1122 1.369 . S
C1123 C1124 1.410 . S
C1123 C1131 1.503 . S
C1124 C1123 1.410 . S
C1124 C1125 1.392 . S
C1124 C1127 1.511 . S
C1125 C1121 1.376 . S
C1125 C1124 1.392 . S
C1125 H1137 0.929 . S
C1126 C1122 1.531 . S
C1126 H1138 0.960 . S
C1126 H1139 0.962 . S
C1126 H1140 0.960 . S
C1127 C1124 1.511 . S
C1127 H1141 0.961 . S
C1127 H1142 0.961 . S
C1127 H1143 0.961 . S
C1128 C1129 1.370 . S
C1128 C1130 1.363 . S
C1128 H1144 0.931 . S
C1129 C1128 1.370 . S
C1129 C1133 1.408 . S
C1130 C1128 1.363 . S
C1130 C1131 1.370 . S
C1130 C1134 1.524 . S
C1131 C1123 1.503 . S
C1131 C1130 1.370 . S
C1131 C1132 1.403 . S
C1132 C1131 1.403 . S
C1132 C1133 1.404 . S
C1132 C1135 1.539 . S
C1133 C1129 1.408 . S
C1133 C1132 1.404 . S
C1133 H1145 0.930 . S
C1134 C1130 1.524 . S
C1134 H1146 0.956 . S
C1134 H1147 0.961 . S
C1134 H1148 0.961 . S
C1135 C1132 1.539 . S
C1135 H1149 0.958 . S
C1135 H1150 0.961 . S
C1135 H1151 0.960 . S
H1136 C1120 0.931 . S
H1137 C1125 0.929 . S
H1138 C1126 0.960 . S
H1139 C1126 0.962 . S
H1140 C1126 0.960 . S
H1141 C1127 0.961 . S
H1142 C1127 0.961 . S
H1143 C1127 0.961 . S
H1144 C1128 0.931 . S
H1145 C1133 0.930 . S
H1146 C1134 0.956 . S
H1147 C1134 0.961 . S
H1148 C1134 0.961 . S
H1149 C1135 0.958 . S
H1150 C1135 0.961 . S
H1151 C1135 0.960 . S
C1152 C1153 1.391 . S
C1152 C1154 1.394 . S
C1152 H1168 0.931 . S
C1153 C1152 1.391 . S
C1153 C1157 1.376 . S
C1154 C1152 1.394 . S
C1154 C1155 1.369 . S
C1154 C1158 1.531 . S
C1155 C1154 1.369 . S
C1155 C1156 1.410 . S
C1155 C1163 1.503 . S
C1156 C1155 1.410 . S
C1156 C1157 1.392 . S
C1156 C1159 1.511 . S
C1157 C1153 1.376 . S
C1157 C1156 1.392 . S
C1157 H1169 0.929 . S
C1158 C1154 1.531 . S
C1158 H1170 0.960 . S
C1158 H1171 0.962 . S
C1158 H1172 0.960 . S
C1159 C1156 1.511 . S
C1159 H1173 0.961 . S
C1159 H1174 0.961 . S
C1159 H1175 0.961 . S
C1160 C1161 1.370 . S
C1160 C1162 1.363 . S
C1160 H1176 0.931 . S
C1161 C1160 1.370 . S
C1161 C1165 1.408 . S
C1162 C1160 1.363 . S
C1162 C1163 1.370 . S
C1162 C1166 1.524 . S
C1163 C1155 1.503 . S
C1163 C1162 1.370 . S
C1163 C1164 1.403 . S
C1164 C1163 1.403 . S
C1164 C1165 1.404 . S
C1164 C1167 1.539 . S
C1165 C1161 1.408 . S
C1165 C1164 1.404 . S
C1165 H1177 0.930 . S
C1166 C1162 1.524 . S
C1166 H1178 0.956 . S
C1166 H1179 0.961 . S
C1166 H1180 0.961 . S
C1167 C1164 1.539 . S
C1167 H1181 0.958 . S
C1167 H1182 0.961 . S
C1167 H1183 0.960 . S
H1168 C1152 0.931 . S
H1169 C1157 0.929 . S
H1170 C1158 0.960 . S
H1171 C1158 0.962 . S
H1172 C1158 0.960 . S
H1173 C1159 0.961 . S
H1174 C1159 0.961 . S
H1175 C1159 0.961 . S
H1176 C1160 0.931 . S
H1177 C1165 0.930 . S
H1178 C1166 0.956 . S
H1179 C1166 0.961 . S
H1180 C1166 0.961 . S
H1181 C1167 0.958 . S
H1182 C1167 0.961 . S
H1183 C1167 0.960 . S
C1184 C1185 1.391 . S
C1184 C1186 1.394 . S
C1184 H1200 0.931 . S
C1185 C1184 1.391 . S
C1185 C1189 1.376 . S
C1186 C1184 1.394 . S
C1186 C1187 1.369 . S
C1186 C1190 1.531 . S
C1187 C1186 1.369 . S
C1187 C1188 1.410 . S
C1187 C1195 1.503 . S
C1188 C1187 1.410 . S
C1188 C1189 1.392 . S
C1188 C1191 1.511 . S
C1189 C1185 1.376 . S
C1189 C1188 1.392 . S
C1189 H1201 0.929 . S
C1190 C1186 1.531 . S
C1190 H1202 0.960 . S
C1190 H1203 0.962 . S
C1190 H1204 0.960 . S
C1191 C1188 1.511 . S
C1191 H1205 0.961 . S
C1191 H1206 0.961 . S
C1191 H1207 0.961 . S
C1192 C1193 1.370 . S
C1192 C1194 1.363 . S
C1192 H1208 0.931 . S
C1193 C1192 1.370 . S
C1193 C1197 1.408 . S
C1194 C1192 1.363 . S
C1194 C1195 1.370 . S
C1194 C1198 1.524 . S
C1195 C1187 1.503 . S
C1195 C1194 1.370 . S
C1195 C1196 1.403 . S
C1196 C1195 1.403 . S
C1196 C1197 1.404 . S
C1196 C1199 1.539 . S
C1197 C1193 1.408 . S
C1197 C1196 1.404 . S
C1197 H1209 0.930 . S
C1198 C1194 1.524 . S
C1198 H1210 0.956 . S
C1198 H1211 0.961 . S
C1198 H1212 0.961 . S
C1199 C1196 1.539 . S
C1199 H1213 0.958 . S
C1199 H1214 0.961 . S
C1199 H1215 0.960 . S
H1200 C1184 0.931 . S
H1201 C1189 0.929 . S
H1202 C1190 0.960 . S
H1203 C1190 0.962 . S
H1204 C1190 0.960 . S
H1205 C1191 0.961 . S
H1206 C1191 0.961 . S
H1207 C1191 0.961 . S
H1208 C1192 0.931 . S
H1209 C1197 0.930 . S
H1210 C1198 0.956 . S
H1211 C1198 0.961 . S
H1212 C1198 0.961 . S
H1213 C1199 0.958 . S
H1214 C1199 0.961 . S
H1215 C1199 0.960 . S
C1216 C1217 1.391 . S
C1216 C1218 1.394 . S
C1216 H1232 0.931 . S
C1217 C1216 1.391 . S
C1217 C1221 1.376 . S
C1218 C1216 1.394 . S
C1218 C1219 1.369 . S
C1218 C1222 1.531 . S
C1219 C1218 1.369 . S
C1219 C1220 1.410 . S
C1219 C1227 1.503 . S
C1220 C1219 1.410 . S
C1220 C1221 1.392 . S
C1220 C1223 1.511 . S
C1221 C1217 1.376 . S
C1221 C1220 1.392 . S
C1221 H1233 0.929 . S
C1222 C1218 1.531 . S
C1222 H1234 0.960 . S
C1222 H1235 0.962 . S
C1222 H1236 0.960 . S
C1223 C1220 1.511 . S
C1223 H1237 0.961 . S
C1223 H1238 0.961 . S
C1223 H1239 0.961 . S
C1224 C1225 1.370 . S
C1224 C1226 1.363 . S
C1224 H1240 0.931 . S
C1225 C1224 1.370 . S
C1225 C1229 1.408 . S
C1226 C1224 1.363 . S
C1226 C1227 1.370 . S
C1226 C1230 1.524 . S
C1227 C1219 1.503 . S
C1227 C1226 1.370 . S
C1227 C1228 1.403 . S
C1228 C1227 1.403 . S
C1228 C1229 1.404 . S
C1228 C1231 1.539 . S
C1229 C1225 1.408 . S
C1229 C1228 1.404 . S
C1229 H1241 0.930 . S
C1230 C1226 1.524 . S
C1230 H1242 0.956 . S
C1230 H1243 0.961 . S
C1230 H1244 0.961 . S
C1231 C1228 1.539 . S
C1231 H1245 0.958 . S
C1231 H1246 0.961 . S
C1231 H1247 0.960 . S
H1232 C1216 0.931 . S
H1233 C1221 0.929 . S
H1234 C1222 0.960 . S
H1235 C1222 0.962 . S
H1236 C1222 0.960 . S
H1237 C1223 0.961 . S
H1238 C1223 0.961 . S
H1239 C1223 0.961 . S
H1240 C1224 0.931 . S
H1241 C1229 0.930 . S
H1242 C1230 0.956 . S
H1243 C1230 0.961 . S
H1244 C1230 0.961 . S
H1245 C1231 0.958 . S
H1246 C1231 0.961 . S
H1247 C1231 0.960 . S
C1248 C1249 1.391 . S
C1248 C1250 1.394 . S
C1248 H1264 0.931 . S
C1249 C1248 1.391 . S
C1249 C1253 1.376 . S
C1250 C1248 1.394 . S
C1250 C1251 1.369 . S
C1250 C1254 1.531 . S
C1251 C1250 1.369 . S
C1251 C1252 1.410 . S
C1251 C1259 1.503 . S
C1252 C1251 1.410 . S
C1252 C1253 1.392 . S
C1252 C1255 1.511 . S
C1253 C1249 1.376 . S
C1253 C1252 1.392 . S
C1253 H1265 0.929 . S
C1254 C1250 1.531 . S
C1254 H1266 0.960 . S
C1254 H1267 0.962 . S
C1254 H1268 0.960 . S
C1255 C1252 1.511 . S
C1255 H1269 0.961 . S
C1255 H1270 0.961 . S
C1255 H1271 0.961 . S
C1256 C1257 1.370 . S
C1256 C1258 1.363 . S
C1256 H1272 0.931 . S
C1257 C1256 1.370 . S
C1257 C1261 1.408 . S
C1258 C1256 1.363 . S
C1258 C1259 1.370 . S
C1258 C1262 1.524 . S
C1259 C1251 1.503 . S
C1259 C1258 1.370 . S
C1259 C1260 1.403 . S
C1260 C1259 1.403 . S
C1260 C1261 1.404 . S
C1260 C1263 1.539 . S
C1261 C1257 1.408 . S
C1261 C1260 1.404 . S
C1261 H1273 0.930 . S
C1262 C1258 1.524 . S
C1262 H1274 0.956 . S
C1262 H1275 0.961 . S
C1262 H1276 0.961 . S
C1263 C1260 1.539 . S
C1263 H1277 0.958 . S
C1263 H1278 0.961 . S
C1263 H1279 0.960 . S
H1264 C1248 0.931 . S
H1265 C1253 0.929 . S
H1266 C1254 0.960 . S
H1267 C1254 0.962 . S
H1268 C1254 0.960 . S
H1269 C1255 0.961 . S
H1270 C1255 0.961 . S
H1271 C1255 0.961 . S
H1272 C1256 0.931 . S
H1273 C1261 0.930 . S
H1274 C1262 0.956 . S
H1275 C1262 0.961 . S
H1276 C1262 0.961 . S
H1277 C1263 0.958 . S
H1278 C1263 0.961 . S
H1279 C1263 0.960 . S
C1280 C1281 1.391 . S
C1280 C1282 1.394 . S
C1280 H1296 0.931 . S
C1281 C1280 1.391 . S
C1281 C1285 1.376 . S
C1282 C1280 1.394 . S
C1282 C1283 1.369 . S
C1282 C1286 1.531 . S
C1283 C1282 1.369 . S
C1283 C1284 1.410 . S
C1283 C1291 1.503 . S
C1284 C1283 1.410 . S
C1284 C1285 1.392 . S
C1284 C1287 1.511 . S
C1285 C1281 1.376 . S
C1285 C1284 1.392 . S
C1285 H1297 0.929 . S
C1286 C1282 1.531 . S
C1286 H1298 0.960 . S
C1286 H1299 0.962 . S
C1286 H1300 0.960 . S
C1287 C1284 1.511 . S
C1287 H1301 0.961 . S
C1287 H1302 0.961 . S
C1287 H1303 0.961 . S
C1288 C1289 1.370 . S
C1288 C1290 1.363 . S
C1288 H1304 0.931 . S
C1289 C1288 1.370 . S
C1289 C1293 1.408 . S
C1290 C1288 1.363 . S
C1290 C1291 1.370 . S
C1290 C1294 1.524 . S
C1291 C1283 1.503 . S
C1291 C1290 1.370 . S
C1291 C1292 1.403 . S
C1292 C1291 1.403 . S
C1292 C1293 1.404 . S
C1292 C1295 1.539 . S
C1293 C1289 1.408 . S
C1293 C1292 1.404 . S
C1293 H1305 0.930 . S
C1294 C1290 1.524 . S
C1294 H1306 0.956 . S
C1294 H1307 0.961 . S
C1294 H1308 0.961 . S
C1295 C1292 1.539 . S
C1295 H1309 0.958 . S
C1295 H1310 0.961 . S
C1295 H1311 0.960 . S
H1296 C1280 0.931 . S
H1297 C1285 0.929 . S
H1298 C1286 0.960 . S
H1299 C1286 0.962 . S
H1300 C1286 0.960 . S
H1301 C1287 0.961 . S
H1302 C1287 0.961 . S
H1303 C1287 0.961 . S
H1304 C1288 0.931 . S
H1305 C1293 0.930 . S
H1306 C1294 0.956 . S
H1307 C1294 0.961 . S
H1308 C1294 0.961 . S
H1309 C1295 0.958 . S
H1310 C1295 0.961 . S
H1311 C1295 0.960 . S
C1312 C1313 1.391 . S
C1312 C1314 1.394 . S
C1312 H1328 0.931 . S
C1313 C1312 1.391 . S
C1313 C1317 1.376 . S
C1314 C1312 1.394 . S
C1314 C1315 1.369 . S
C1314 C1318 1.531 . S
C1315 C1314 1.369 . S
C1315 C1316 1.410 . S
C1315 C1323 1.503 . S
C1316 C1315 1.410 . S
C1316 C1317 1.392 . S
C1316 C1319 1.511 . S
C1317 C1313 1.376 . S
C1317 C1316 1.392 . S
C1317 H1329 0.929 . S
C1318 C1314 1.531 . S
C1318 H1330 0.960 . S
C1318 H1331 0.962 . S
C1318 H1332 0.960 . S
C1319 C1316 1.511 . S
C1319 H1333 0.961 . S
C1319 H1334 0.961 . S
C1319 H1335 0.961 . S
C1320 C1321 1.370 . S
C1320 C1322 1.363 . S
C1320 H1336 0.931 . S
C1321 C1320 1.370 . S
C1321 C1325 1.408 1_554 S
C1322 C1320 1.363 . S
C1322 C1323 1.370 . S
C1322 C1326 1.524 . S
C1323 C1315 1.503 . S
C1323 C1322 1.370 . S
C1323 C1324 1.403 . S
C1324 C1323 1.403 . S
C1324 C1325 1.404 1_554 S
C1324 C1327 1.539 1_554 S
C1325 C1321 1.408 1_556 S
C1325 C1324 1.404 1_556 S
C1325 H1337 0.930 . S
C1326 C1322 1.524 . S
C1326 H1338 0.956 . S
C1326 H1339 0.961 . S
C1326 H1340 0.961 . S
C1327 C1324 1.539 1_556 S
C1327 H1341 0.958 . S
C1327 H1342 0.961 . S
C1327 H1343 0.960 . S
H1328 C1312 0.931 . S
H1329 C1317 0.929 . S
H1330 C1318 0.960 . S
H1331 C1318 0.962 . S
H1332 C1318 0.960 . S
H1333 C1319 0.961 . S
H1334 C1319 0.961 . S
H1335 C1319 0.961 . S
H1336 C1320 0.931 . S
H1337 C1325 0.930 . S
H1338 C1326 0.956 . S
H1339 C1326 0.961 . S
H1340 C1326 0.961 . S
H1341 C1327 0.958 . S
H1342 C1327 0.961 . S
H1343 C1327 0.960 . S
C1344 C1345 1.391 . S
C1344 C1346 1.394 . S
C1344 H1360 0.931 . S
C1345 C1344 1.391 . S
C1345 C1349 1.376 . S
C1346 C1344 1.394 . S
C1346 C1347 1.369 . S
C1346 C1350 1.531 . S
C1347 C1346 1.369 . S
C1347 C1348 1.410 . S
C1347 C1355 1.503 . S
C1348 C1347 1.410 . S
C1348 C1349 1.392 . S
C1348 C1351 1.511 . S
C1349 C1345 1.376 . S
C1349 C1348 1.392 . S
C1349 H1361 0.929 . S
C1350 C1346 1.531 . S
C1350 H1362 0.960 . S
C1350 H1363 0.962 . S
C1350 H1364 0.960 . S
C1351 C1348 1.511 . S
C1351 H1365 0.961 . S
C1351 H1366 0.961 . S
C1351 H1367 0.961 . S
C1352 C1353 1.370 . S
C1352 C1354 1.363 . S
C1352 H1368 0.931 . S
C1353 C1352 1.370 . S
C1353 C1357 1.408 . S
C1354 C1352 1.363 . S
C1354 C1355 1.370 . S
C1354 C1358 1.524 . S
C1355 C1347 1.503 . S
C1355 C1354 1.370 . S
C1355 C1356 1.403 . S
C1356 C1355 1.403 . S
C1356 C1357 1.404 . S
C1356 C1359 1.539 . S
C1357 C1353 1.408 . S
C1357 C1356 1.404 . S
C1357 H1369 0.930 . S
C1358 C1354 1.524 . S
C1358 H1370 0.956 . S
C1358 H1371 0.961 . S
C1358 H1372 0.961 . S
C1359 C1356 1.539 . S
C1359 H1373 0.958 . S
C1359 H1374 0.961 . S
C1359 H1375 0.960 . S
H1360 C1344 0.931 . S
H1361 C1349 0.929 . S
H1362 C1350 0.960 . S
H1363 C1350 0.962 . S
H1364 C1350 0.960 . S
H1365 C1351 0.961 . S
H1366 C1351 0.961 . S
H1367 C1351 0.961 . S
H1368 C1352 0.931 . S
H1369 C1357 0.930 . S
H1370 C1358 0.956 . S
H1371 C1358 0.961 . S
H1372 C1358 0.961 . S
H1373 C1359 0.958 . S
H1374 C1359 0.961 . S
H1375 C1359 0.960 . S
C1376 C1377 1.391 . S
C1376 C1378 1.394 . S
C1376 H1392 0.931 . S
C1377 C1376 1.391 . S
C1377 C1381 1.376 . S
C1378 C1376 1.394 . S
C1378 C1379 1.369 . S
C1378 C1382 1.531 . S
C1379 C1378 1.369 . S
C1379 C1380 1.410 . S
C1379 C1387 1.503 . S
C1380 C1379 1.410 . S
C1380 C1381 1.392 . S
C1380 C1383 1.511 . S
C1381 C1377 1.376 . S
C1381 C1380 1.392 . S
C1381 H1393 0.929 . S
C1382 C1378 1.531 . S
C1382 H1394 0.960 . S
C1382 H1395 0.962 . S
C1382 H1396 0.960 . S
C1383 C1380 1.511 . S
C1383 H1397 0.961 . S
C1383 H1398 0.961 . S
C1383 H1399 0.961 . S
C1384 C1385 1.370 . S
C1384 C1386 1.363 . S
C1384 H1400 0.931 . S
C1385 C1384 1.370 . S
C1385 C1389 1.408 . S
C1386 C1384 1.363 . S
C1386 C1387 1.370 . S
C1386 C1390 1.524 . S
C1387 C1379 1.503 . S
C1387 C1386 1.370 . S
C1387 C1388 1.403 . S
C1388 C1387 1.403 . S
C1388 C1389 1.404 . S
C1388 C1391 1.539 . S
C1389 C1385 1.408 . S
C1389 C1388 1.404 . S
C1389 H1401 0.930 . S
C1390 C1386 1.524 . S
C1390 H1402 0.956 . S
C1390 H1403 0.961 . S
C1390 H1404 0.961 . S
C1391 C1388 1.539 . S
C1391 H1405 0.958 . S
C1391 H1406 0.961 . S
C1391 H1407 0.960 . S
H1392 C1376 0.931 . S
H1393 C1381 0.929 . S
H1394 C1382 0.960 . S
H1395 C1382 0.962 . S
H1396 C1382 0.960 . S
H1397 C1383 0.961 . S
H1398 C1383 0.961 . S
H1399 C1383 0.961 . S
H1400 C1384 0.931 . S
H1401 C1389 0.930 . S
H1402 C1390 0.956 . S
H1403 C1390 0.961 . S
H1404 C1390 0.961 . S
H1405 C1391 0.958 . S
H1406 C1391 0.961 . S
H1407 C1391 0.960 . S
C1408 C1409 1.391 . S
C1408 C1410 1.394 . S
C1408 H1424 0.931 . S
C1409 C1408 1.391 . S
C1409 C1413 1.376 . S
C1410 C1408 1.394 . S
C1410 C1411 1.369 . S
C1410 C1414 1.531 . S
C1411 C1410 1.369 . S
C1411 C1412 1.410 . S
C1411 C1419 1.503 . S
C1412 C1411 1.410 . S
C1412 C1413 1.392 . S
C1412 C1415 1.511 . S
C1413 C1409 1.376 . S
C1413 C1412 1.392 . S
C1413 H1425 0.929 . S
C1414 C1410 1.531 . S
C1414 H1426 0.960 . S
C1414 H1427 0.962 . S
C1414 H1428 0.960 . S
C1415 C1412 1.511 . S
C1415 H1429 0.961 . S
C1415 H1430 0.961 . S
C1415 H1431 0.961 . S
C1416 C1417 1.370 . S
C1416 C1418 1.363 . S
C1416 H1432 0.931 . S
C1417 C1416 1.370 . S
C1417 C1421 1.408 . S
C1418 C1416 1.363 . S
C1418 C1419 1.370 . S
C1418 C1422 1.524 . S
C1419 C1411 1.503 . S
C1419 C1418 1.370 . S
C1419 C1420 1.403 . S
C1420 C1419 1.403 . S
C1420 C1421 1.404 . S
C1420 C1423 1.539 . S
C1421 C1417 1.408 . S
C1421 C1420 1.404 . S
C1421 H1433 0.930 . S
C1422 C1418 1.524 . S
C1422 H1434 0.956 . S
C1422 H1435 0.961 . S
C1422 H1436 0.961 . S
C1423 C1420 1.539 . S
C1423 H1437 0.958 . S
C1423 H1438 0.961 . S
C1423 H1439 0.960 . S
H1424 C1408 0.931 . S
H1425 C1413 0.929 . S
H1426 C1414 0.960 . S
H1427 C1414 0.962 . S
H1428 C1414 0.960 . S
H1429 C1415 0.961 . S
H1430 C1415 0.961 . S
H1431 C1415 0.961 . S
H1432 C1416 0.931 . S
H1433 C1421 0.930 . S
H1434 C1422 0.956 . S
H1435 C1422 0.961 . S
H1436 C1422 0.961 . S
H1437 C1423 0.958 . S
H1438 C1423 0.961 . S
H1439 C1423 0.960 . S
C1440 C1441 1.391 . S
C1440 C1442 1.394 . S
C1440 H1456 0.931 . S
C1441 C1440 1.391 . S
C1441 C1445 1.376 . S
C1442 C1440 1.394 . S
C1442 C1443 1.369 . S
C1442 C1446 1.531 . S
C1443 C1442 1.369 . S
C1443 C1444 1.410 . S
C1443 C1451 1.503 . S
C1444 C1443 1.410 . S
C1444 C1445 1.392 . S
C1444 C1447 1.511 . S
C1445 C1441 1.376 . S
C1445 C1444 1.392 . S
C1445 H1457 0.929 . S
C1446 C1442 1.531 . S
C1446 H1458 0.960 . S
C1446 H1459 0.962 . S
C1446 H1460 0.960 . S
C1447 C1444 1.511 . S
C1447 H1461 0.961 . S
C1447 H1462 0.961 . S
C1447 H1463 0.961 . S
C1448 C1449 1.370 . S
C1448 C1450 1.363 . S
C1448 H1464 0.931 . S
C1449 C1448 1.370 . S
C1449 C1453 1.408 . S
C1450 C1448 1.363 . S
C1450 C1451 1.370 . S
C1450 C1454 1.524 . S
C1451 C1443 1.503 . S
C1451 C1450 1.370 . S
C1451 C1452 1.403 . S
C1452 C1451 1.403 . S
C1452 C1453 1.404 . S
C1452 C1455 1.539 . S
C1453 C1449 1.408 . S
C1453 C1452 1.404 . S
C1453 H1465 0.930 . S
C1454 C1450 1.524 . S
C1454 H1466 0.956 . S
C1454 H1467 0.961 . S
C1454 H1468 0.961 . S
C1455 C1452 1.539 . S
C1455 H1469 0.958 . S
C1455 H1470 0.961 . S
C1455 H1471 0.960 . S
H1456 C1440 0.931 . S
H1457 C1445 0.929 . S
H1458 C1446 0.960 . S
H1459 C1446 0.962 . S
H1460 C1446 0.960 . S
H1461 C1447 0.961 . S
H1462 C1447 0.961 . S
H1463 C1447 0.961 . S
H1464 C1448 0.931 . S
H1465 C1453 0.930 . S
H1466 C1454 0.956 . S
H1467 C1454 0.961 . S
H1468 C1454 0.961 . S
H1469 C1455 0.958 . S
H1470 C1455 0.961 . S
H1471 C1455 0.960 . S
C1472 C1473 1.391 . S
C1472 C1474 1.394 . S
C1472 H1488 0.931 . S
C1473 C1472 1.391 . S
C1473 C1477 1.376 . S
C1474 C1472 1.394 . S
C1474 C1475 1.369 . S
C1474 C1478 1.531 . S
C1475 C1474 1.369 . S
C1475 C1476 1.410 . S
C1475 C1483 1.503 . S
C1476 C1475 1.410 . S
C1476 C1477 1.392 . S
C1476 C1479 1.511 . S
C1477 C1473 1.376 . S
C1477 C1476 1.392 . S
C1477 H1489 0.929 . S
C1478 C1474 1.531 . S
C1478 H1490 0.960 . S
C1478 H1491 0.962 . S
C1478 H1492 0.960 . S
C1479 C1476 1.511 . S
C1479 H1493 0.961 . S
C1479 H1494 0.961 . S
C1479 H1495 0.961 . S
C1480 C1481 1.370 . S
C1480 C1482 1.363 . S
C1480 H1496 0.931 . S
C1481 C1480 1.370 . S
C1481 C1485 1.408 . S
C1482 C1480 1.363 . S
C1482 C1483 1.370 . S
C1482 C1486 1.524 . S
C1483 C1475 1.503 . S
C1483 C1482 1.370 . S
C1483 C1484 1.403 . S
C1484 C1483 1.403 . S
C1484 C1485 1.404 . S
C1484 C1487 1.539 . S
C1485 C1481 1.408 . S
C1485 C1484 1.404 . S
C1485 H1497 0.930 . S
C1486 C1482 1.524 . S
C1486 H1498 0.956 . S
C1486 H1499 0.961 . S
C1486 H1500 0.961 . S
C1487 C1484 1.539 . S
C1487 H1501 0.958 . S
C1487 H1502 0.961 . S
C1487 H1503 0.960 . S
H1488 C1472 0.931 . S
H1489 C1477 0.929 . S
H1490 C1478 0.960 . S
H1491 C1478 0.962 . S
H1492 C1478 0.960 . S
H1493 C1479 0.961 . S
H1494 C1479 0.961 . S
H1495 C1479 0.961 . S
H1496 C1480 0.931 . S
H1497 C1485 0.930 . S
H1498 C1486 0.956 . S
H1499 C1486 0.961 . S
H1500 C1486 0.961 . S
H1501 C1487 0.958 . S
H1502 C1487 0.961 . S
H1503 C1487 0.960 . S
C1504 C1505 1.391 . S
C1504 C1506 1.394 . S
C1504 H1520 0.931 . S
C1505 C1504 1.391 . S
C1505 C1509 1.376 . S
C1506 C1504 1.394 . S
C1506 C1507 1.369 . S
C1506 C1510 1.531 . S
C1507 C1506 1.369 . S
C1507 C1508 1.410 . S
C1507 C1515 1.503 . S
C1508 C1507 1.410 . S
C1508 C1509 1.392 . S
C1508 C1511 1.511 . S
C1509 C1505 1.376 . S
C1509 C1508 1.392 . S
C1509 H1521 0.929 . S
C1510 C1506 1.531 . S
C1510 H1522 0.960 . S
C1510 H1523 0.962 . S
C1510 H1524 0.960 . S
C1511 C1508 1.511 . S
C1511 H1525 0.961 . S
C1511 H1526 0.961 . S
C1511 H1527 0.961 . S
C1512 C1513 1.370 . S
C1512 C1514 1.363 . S
C1512 H1528 0.931 . S
C1513 C1512 1.370 . S
C1513 C1517 1.408 . S
C1514 C1512 1.363 . S
C1514 C1515 1.370 . S
C1514 C1518 1.524 . S
C1515 C1507 1.503 . S
C1515 C1514 1.370 . S
C1515 C1516 1.403 . S
C1516 C1515 1.403 . S
C1516 C1517 1.404 . S
C1516 C1519 1.539 . S
C1517 C1513 1.408 . S
C1517 C1516 1.404 . S
C1517 H1529 0.930 . S
C1518 C1514 1.524 . S
C1518 H1530 0.956 . S
C1518 H1531 0.961 . S
C1518 H1532 0.961 . S
C1519 C1516 1.539 . S
C1519 H1533 0.958 . S
C1519 H1534 0.961 . S
C1519 H1535 0.960 . S
H1520 C1504 0.931 . S
H1521 C1509 0.929 . S
H1522 C1510 0.960 . S
H1523 C1510 0.962 . S
H1524 C1510 0.960 . S
H1525 C1511 0.961 . S
H1526 C1511 0.961 . S
H1527 C1511 0.961 . S
H1528 C1512 0.931 . S
H1529 C1517 0.930 . S
H1530 C1518 0.956 . S
H1531 C1518 0.961 . S
H1532 C1518 0.961 . S
H1533 C1519 0.958 . S
H1534 C1519 0.961 . S
H1535 C1519 0.960 . S
C1536 C1537 1.391 . S
C1536 C1538 1.394 . S
C1536 H1552 0.931 . S
C1537 C1536 1.391 . S
C1537 C1541 1.376 . S
C1538 C1536 1.394 . S
C1538 C1539 1.369 . S
C1538 C1542 1.531 . S
C1539 C1538 1.369 . S
C1539 C1540 1.410 . S
C1539 C1547 1.503 . S
C1540 C1539 1.410 . S
C1540 C1541 1.392 . S
C1540 C1543 1.511 . S
C1541 C1537 1.376 . S
C1541 C1540 1.392 . S
C1541 H1553 0.929 . S
C1542 C1538 1.531 . S
C1542 H1554 0.960 . S
C1542 H1555 0.962 . S
C1542 H1556 0.960 . S
C1543 C1540 1.511 . S
C1543 H1557 0.961 . S
C1543 H1558 0.961 . S
C1543 H1559 0.961 . S
C1544 C1545 1.370 . S
C1544 C1546 1.363 . S
C1544 H1560 0.931 . S
C1545 C1544 1.370 . S
C1545 C1549 1.408 . S
C1546 C1544 1.363 . S
C1546 C1547 1.370 . S
C1546 C1550 1.524 . S
C1547 C1539 1.503 . S
C1547 C1546 1.370 . S
C1547 C1548 1.403 . S
C1548 C1547 1.403 . S
C1548 C1549 1.404 . S
C1548 C1551 1.539 . S
C1549 C1545 1.408 . S
C1549 C1548 1.404 . S
C1549 H1561 0.930 . S
C1550 C1546 1.524 . S
C1550 H1562 0.956 . S
C1550 H1563 0.961 . S
C1550 H1564 0.961 . S
C1551 C1548 1.539 . S
C1551 H1565 0.958 . S
C1551 H1566 0.961 . S
C1551 H1567 0.960 . S
H1552 C1536 0.931 . S
H1553 C1541 0.929 . S
H1554 C1542 0.960 . S
H1555 C1542 0.962 . S
H1556 C1542 0.960 . S
H1557 C1543 0.961 . S
H1558 C1543 0.961 . S
H1559 C1543 0.961 . S
H1560 C1544 0.931 . S
H1561 C1549 0.930 . S
H1562 C1550 0.956 . S
H1563 C1550 0.961 . S
H1564 C1550 0.961 . S
H1565 C1551 0.958 . S
H1566 C1551 0.961 . S
H1567 C1551 0.960 . S
C1568 C1569 1.391 . S
C1568 C1570 1.394 . S
C1568 H1584 0.931 . S
C1569 C1568 1.391 . S
C1569 C1573 1.376 . S
C1570 C1568 1.394 . S
C1570 C1571 1.369 . S
C1570 C1574 1.531 . S
C1571 C1570 1.369 . S
C1571 C1572 1.410 . S
C1571 C1579 1.503 . S
C1572 C1571 1.410 . S
C1572 C1573 1.392 . S
C1572 C1575 1.511 . S
C1573 C1569 1.376 . S
C1573 C1572 1.392 . S
C1573 H1585 0.929 . S
C1574 C1570 1.531 . S
C1574 H1586 0.960 . S
C1574 H1587 0.962 . S
C1574 H1588 0.960 . S
C1575 C1572 1.511 . S
C1575 H1589 0.961 . S
C1575 H1590 0.961 . S
C1575 H1591 0.961 . S
C1576 C1577 1.370 . S
C1576 C1578 1.363 . S
C1576 H1592 0.931 . S
C1577 C1576 1.370 . S
C1577 C1581 1.408 . S
C1578 C1576 1.363 . S
C1578 C1579 1.370 . S
C1578 C1582 1.524 . S
C1579 C1571 1.503 . S
C1579 C1578 1.370 . S
C1579 C1580 1.403 . S
C1580 C1579 1.403 . S
C1580 C1581 1.404 . S
C1580 C1583 1.539 . S
C1581 C1577 1.408 . S
C1581 C1580 1.404 . S
C1581 H1593 0.930 . S
C1582 C1578 1.524 . S
C1582 H1594 0.956 . S
C1582 H1595 0.961 . S
C1582 H1596 0.961 . S
C1583 C1580 1.539 . S
C1583 H1597 0.958 . S
C1583 H1598 0.961 . S
C1583 H1599 0.960 . S
H1584 C1568 0.931 . S
H1585 C1573 0.929 . S
H1586 C1574 0.960 . S
H1587 C1574 0.962 . S
H1588 C1574 0.960 . S
H1589 C1575 0.961 . S
H1590 C1575 0.961 . S
H1591 C1575 0.961 . S
H1592 C1576 0.931 . S
H1593 C1581 0.930 . S
H1594 C1582 0.956 . S
H1595 C1582 0.961 . S
H1596 C1582 0.961 . S
H1597 C1583 0.958 . S
H1598 C1583 0.961 . S
H1599 C1583 0.960 . S
C1600 C1601 1.391 . S
C1600 C1602 1.394 . S
C1600 H1616 0.931 . S
C1601 C1600 1.391 . S
C1601 C1605 1.376 . S
C1602 C1600 1.394 . S
C1602 C1603 1.369 . S
C1602 C1606 1.531 . S
C1603 C1602 1.369 . S
C1603 C1604 1.410 . S
C1603 C1611 1.503 . S
C1604 C1603 1.410 . S
C1604 C1605 1.392 . S
C1604 C1607 1.511 . S
C1605 C1601 1.376 . S
C1605 C1604 1.392 . S
C1605 H1617 0.929 . S
C1606 C1602 1.531 . S
C1606 H1618 0.960 . S
C1606 H1619 0.962 . S
C1606 H1620 0.960 . S
C1607 C1604 1.511 . S
C1607 H1621 0.961 . S
C1607 H1622 0.961 . S
C1607 H1623 0.961 . S
C1608 C1609 1.370 . S
C1608 C1610 1.363 . S
C1608 H1624 0.931 . S
C1609 C1608 1.370 . S
C1609 C1613 1.408 . S
C1610 C1608 1.363 . S
C1610 C1611 1.370 . S
C1610 C1614 1.524 . S
C1611 C1603 1.503 . S
C1611 C1610 1.370 . S
C1611 C1612 1.403 . S
C1612 C1611 1.403 . S
C1612 C1613 1.404 . S
C1612 C1615 1.539 . S
C1613 C1609 1.408 . S
C1613 C1612 1.404 . S
C1613 H1625 0.930 . S
C1614 C1610 1.524 . S
C1614 H1626 0.956 . S
C1614 H1627 0.961 . S
C1614 H1628 0.961 . S
C1615 C1612 1.539 . S
C1615 H1629 0.958 . S
C1615 H1630 0.961 . S
C1615 H1631 0.960 . S
H1616 C1600 0.931 . S
H1617 C1605 0.929 . S
H1618 C1606 0.960 . S
H1619 C1606 0.962 . S
H1620 C1606 0.960 . S
H1621 C1607 0.961 . S
H1622 C1607 0.961 . S
H1623 C1607 0.961 . S
H1624 C1608 0.931 . S
H1625 C1613 0.930 . S
H1626 C1614 0.956 . S
H1627 C1614 0.961 . S
H1628 C1614 0.961 . S
H1629 C1615 0.958 . S
H1630 C1615 0.961 . S
H1631 C1615 0.960 . S
C1632 C1633 1.391 . S
C1632 C1634 1.394 . S
C1632 H1648 0.931 . S
C1633 C1632 1.391 . S
C1633 C1637 1.376 . S
C1634 C1632 1.394 . S
C1634 C1635 1.369 . S
C1634 C1638 1.531 . S
C1635 C1634 1.369 . S
C1635 C1636 1.410 . S
C1635 C1643 1.503 . S
C1636 C1635 1.410 . S
C1636 C1637 1.392 . S
C1636 C1639 1.511 . S
C1637 C1633 1.376 . S
C1637 C1636 1.392 . S
C1637 H1649 0.929 . S
C1638 C1634 1.531 . S
C1638 H1650 0.960 . S
C1638 H1651 0.962 . S
C1638 H1652 0.960 . S
C1639 C1636 1.511 . S
C1639 H1653 0.961 . S
C1639 H1654 0.961 . S
C1639 H1655 0.961 . S
C1640 C1641 1.370 . S
C1640 C1642 1.363 . S
C1640 H1656 0.931 . S
C1641 C1640 1.370 . S
C1641 C1645 1.408 . S
C1642 C1640 1.363 . S
C1642 C1643 1.370 . S
C1642 C1646 1.524 . S
C1643 C1635 1.503 . S
C1643 C1642 1.370 . S
C1643 C1644 1.403 . S
C1644 C1643 1.403 . S
C1644 C1645 1.404 . S
C1644 C1647 1.539 . S
C1645 C1641 1.408 . S
C1645 C1644 1.404 . S
C1645 H1657 0.930 . S
C1646 C1642 1.524 . S
C1646 H1658 0.956 . S
C1646 H1659 0.961 . S
C1646 H1660 0.961 . S
C1647 C1644 1.539 . S
C1647 H1661 0.958 . S
C1647 H1662 0.961 . S
C1647 H1663 0.960 . S
H1648 C1632 0.931 . S
H1649 C1637 0.929 . S
H1650 C1638 0.960 . S
H1651 C1638 0.962 . S
H1652 C1638 0.960 . S
H1653 C1639 0.961 . S
H1654 C1639 0.961 . S
H1655 C1639 0.961 . S
H1656 C1640 0.931 . S
H1657 C1645 0.930 . S
H1658 C1646 0.956 . S
H1659 C1646 0.961 . S
H1660 C1646 0.961 . S
H1661 C1647 0.958 . S
H1662 C1647 0.961 . S
H1663 C1647 0.960 . S
C1664 C1665 1.391 . S
C1664 C1666 1.394 . S
C1664 H1680 0.931 . S
C1665 C1664 1.391 . S
C1665 C1669 1.376 . S
C1666 C1664 1.394 . S
C1666 C1667 1.369 . S
C1666 C1670 1.531 . S
C1667 C1666 1.369 . S
C1667 C1668 1.410 . S
C1667 C1675 1.503 . S
C1668 C1667 1.410 . S
C1668 C1669 1.392 . S
C1668 C1671 1.511 . S
C1669 C1665 1.376 . S
C1669 C1668 1.392 . S
C1669 H1681 0.929 . S
C1670 C1666 1.531 . S
C1670 H1682 0.960 . S
C1670 H1683 0.962 . S
C1670 H1684 0.960 . S
C1671 C1668 1.511 . S
C1671 H1685 0.961 . S
C1671 H1686 0.961 . S
C1671 H1687 0.961 . S
C1672 C1673 1.370 . S
C1672 C1674 1.363 . S
C1672 H1688 0.931 . S
C1673 C1672 1.370 . S
C1673 C1677 1.408 . S
C1674 C1672 1.363 . S
C1674 C1675 1.370 . S
C1674 C1678 1.524 . S
C1675 C1667 1.503 . S
C1675 C1674 1.370 . S
C1675 C1676 1.403 . S
C1676 C1675 1.403 . S
C1676 C1677 1.404 . S
C1676 C1679 1.539 . S
C1677 C1673 1.408 . S
C1677 C1676 1.404 . S
C1677 H1689 0.930 . S
C1678 C1674 1.524 . S
C1678 H1690 0.956 . S
C1678 H1691 0.961 . S
C1678 H1692 0.961 . S
C1679 C1676 1.539 . S
C1679 H1693 0.958 . S
C1679 H1694 0.961 . S
C1679 H1695 0.960 . S
H1680 C1664 0.931 . S
H1681 C1669 0.929 . S
H1682 C1670 0.960 . S
H1683 C1670 0.962 . S
H1684 C1670 0.960 . S
H1685 C1671 0.961 . S
H1686 C1671 0.961 . S
H1687 C1671 0.961 . S
H1688 C1672 0.931 . S
H1689 C1677 0.930 . S
H1690 C1678 0.956 . S
H1691 C1678 0.961 . S
H1692 C1678 0.961 . S
H1693 C1679 0.958 . S
H1694 C1679 0.961 . S
H1695 C1679 0.960 . S
C1696 C1697 1.391 . S
C1696 C1698 1.394 . S
C1696 H1712 0.931 . S
C1697 C1696 1.391 . S
C1697 C1701 1.376 . S
C1698 C1696 1.394 . S
C1698 C1699 1.369 . S
C1698 C1702 1.531 . S
C1699 C1698 1.369 . S
C1699 C1700 1.410 . S
C1699 C1707 1.503 . S
C1700 C1699 1.410 . S
C1700 C1701 1.392 . S
C1700 C1703 1.511 . S
C1701 C1697 1.376 . S
C1701 C1700 1.392 . S
C1701 H1713 0.929 . S
C1702 C1698 1.531 . S
C1702 H1714 0.960 . S
C1702 H1715 0.962 . S
C1702 H1716 0.960 . S
C1703 C1700 1.511 . S
C1703 H1717 0.961 . S
C1703 H1718 0.961 . S
C1703 H1719 0.961 . S
C1704 C1705 1.370 . S
C1704 C1706 1.363 . S
C1704 H1720 0.931 . S
C1705 C1704 1.370 . S
C1705 C1709 1.408 . S
C1706 C1704 1.363 . S
C1706 C1707 1.370 . S
C1706 C1710 1.524 . S
C1707 C1699 1.503 . S
C1707 C1706 1.370 . S
C1707 C1708 1.403 . S
C1708 C1707 1.403 . S
C1708 C1709 1.404 . S
C1708 C1711 1.539 . S
C1709 C1705 1.408 . S
C1709 C1708 1.404 . S
C1709 H1721 0.930 . S
C1710 C1706 1.524 . S
C1710 H1722 0.956 . S
C1710 H1723 0.961 . S
C1710 H1724 0.961 . S
C1711 C1708 1.539 . S
C1711 H1725 0.958 . S
C1711 H1726 0.961 . S
C1711 H1727 0.960 . S
H1712 C1696 0.931 . S
H1713 C1701 0.929 . S
H1714 C1702 0.960 . S
H1715 C1702 0.962 . S
H1716 C1702 0.960 . S
H1717 C1703 0.961 . S
H1718 C1703 0.961 . S
H1719 C1703 0.961 . S
H1720 C1704 0.931 . S
H1721 C1709 0.930 . S
H1722 C1710 0.956 . S
H1723 C1710 0.961 . S
H1724 C1710 0.961 . S
H1725 C1711 0.958 . S
H1726 C1711 0.961 . S
H1727 C1711 0.960 . S
C1728 C1729 1.391 . S
C1728 C1730 1.394 . S
C1728 H1744 0.931 . S
C1729 C1728 1.391 . S
C1729 C1733 1.376 . S
C1730 C1728 1.394 . S
C1730 C1731 1.369 . S
C1730 C1734 1.531 . S
C1731 C1730 1.369 . S
C1731 C1732 1.410 . S
C1731 C1739 1.503 . S
C1732 C1731 1.410 . S
C1732 C1733 1.392 . S
C1732 C1735 1.511 . S
C1733 C1729 1.376 . S
C1733 C1732 1.392 . S
C1733 H1745 0.929 . S
C1734 C1730 1.531 . S
C1734 H1746 0.960 . S
C1734 H1747 0.962 . S
C1734 H1748 0.960 . S
C1735 C1732 1.511 . S
C1735 H1749 0.961 . S
C1735 H1750 0.961 . S
C1735 H1751 0.961 . S
C1736 C1737 1.370 . S
C1736 C1738 1.363 . S
C1736 H1752 0.931 . S
C1737 C1736 1.370 . S
C1737 C1741 1.408 . S
C1738 C1736 1.363 . S
C1738 C1739 1.370 . S
C1738 C1742 1.524 . S
C1739 C1731 1.503 . S
C1739 C1738 1.370 . S
C1739 C1740 1.403 . S
C1740 C1739 1.403 . S
C1740 C1741 1.404 . S
C1740 C1743 1.539 . S
C1741 C1737 1.408 . S
C1741 C1740 1.404 . S
C1741 H1753 0.930 . S
C1742 C1738 1.524 . S
C1742 H1754 0.956 . S
C1742 H1755 0.961 . S
C1742 H1756 0.961 . S
C1743 C1740 1.539 . S
C1743 H1757 0.958 . S
C1743 H1758 0.961 . S
C1743 H1759 0.960 . S
H1744 C1728 0.931 . S
H1745 C1733 0.929 . S
H1746 C1734 0.960 . S
H1747 C1734 0.962 . S
H1748 C1734 0.960 . S
H1749 C1735 0.961 . S
H1750 C1735 0.961 . S
H1751 C1735 0.961 . S
H1752 C1736 0.931 . S
H1753 C1741 0.930 . S
H1754 C1742 0.956 . S
H1755 C1742 0.961 . S
H1756 C1742 0.961 . S
H1757 C1743 0.958 . S
H1758 C1743 0.961 . S
H1759 C1743 0.960 . S
C1760 C1761 1.391 . S
C1760 C1762 1.394 . S
C1760 H1776 0.931 . S
C1761 C1760 1.391 . S
C1761 C1765 1.376 . S
C1762 C1760 1.394 . S
C1762 C1763 1.369 . S
C1762 C1766 1.531 . S
C1763 C1762 1.369 . S
C1763 C1764 1.410 . S
C1763 C1771 1.503 . S
C1764 C1763 1.410 . S
C1764 C1765 1.392 . S
C1764 C1767 1.511 . S
C1765 C1761 1.376 . S
C1765 C1764 1.392 . S
C1765 H1777 0.929 . S
C1766 C1762 1.531 . S
C1766 H1778 0.960 . S
C1766 H1779 0.962 . S
C1766 H1780 0.960 . S
C1767 C1764 1.511 . S
C1767 H1781 0.961 . S
C1767 H1782 0.961 . S
C1767 H1783 0.961 . S
C1768 C1769 1.370 . S
C1768 C1770 1.363 . S
C1768 H1784 0.931 . S
C1769 C1768 1.370 . S
C1769 C1773 1.408 . S
C1770 C1768 1.363 . S
C1770 C1771 1.370 . S
C1770 C1774 1.524 . S
C1771 C1763 1.503 . S
C1771 C1770 1.370 . S
C1771 C1772 1.403 . S
C1772 C1771 1.403 . S
C1772 C1773 1.404 . S
C1772 C1775 1.539 . S
C1773 C1769 1.408 . S
C1773 C1772 1.404 . S
C1773 H1785 0.930 . S
C1774 C1770 1.524 . S
C1774 H1786 0.956 . S
C1774 H1787 0.961 . S
C1774 H1788 0.961 . S
C1775 C1772 1.539 . S
C1775 H1789 0.958 . S
C1775 H1790 0.961 . S
C1775 H1791 0.960 . S
H1776 C1760 0.931 . S
H1777 C1765 0.929 . S
H1778 C1766 0.960 . S
H1779 C1766 0.962 . S
H1780 C1766 0.960 . S
H1781 C1767 0.961 . S
H1782 C1767 0.961 . S
H1783 C1767 0.961 . S
H1784 C1768 0.931 . S
H1785 C1773 0.930 . S
H1786 C1774 0.956 . S
H1787 C1774 0.961 . S
H1788 C1774 0.961 . S
H1789 C1775 0.958 . S
H1790 C1775 0.961 . S
H1791 C1775 0.960 . S
C1792 C1793 1.391 . S
C1792 C1794 1.394 . S
C1792 H1808 0.931 . S
C1793 C1792 1.391 . S
C1793 C1797 1.376 . S
C1794 C1792 1.394 . S
C1794 C1795 1.369 . S
C1794 C1798 1.531 . S
C1795 C1794 1.369 . S
C1795 C1796 1.410 . S
C1795 C1803 1.503 . S
C1796 C1795 1.410 . S
C1796 C1797 1.392 . S
C1796 C1799 1.511 . S
C1797 C1793 1.376 . S
C1797 C1796 1.392 . S
C1797 H1809 0.929 . S
C1798 C1794 1.531 . S
C1798 H1810 0.960 . S
C1798 H1811 0.962 . S
C1798 H1812 0.960 . S
C1799 C1796 1.511 . S
C1799 H1813 0.961 . S
C1799 H1814 0.961 . S
C1799 H1815 0.961 . S
C1800 C1801 1.370 . S
C1800 C1802 1.363 . S
C1800 H1816 0.931 . S
C1801 C1800 1.370 . S
C1801 C1805 1.408 . S
C1802 C1800 1.363 . S
C1802 C1803 1.370 . S
C1802 C1806 1.524 . S
C1803 C1795 1.503 . S
C1803 C1802 1.370 . S
C1803 C1804 1.403 . S
C1804 C1803 1.403 . S
C1804 C1805 1.404 . S
C1804 C1807 1.539 . S
C1805 C1801 1.408 . S
C1805 C1804 1.404 . S
C1805 H1817 0.930 . S
C1806 C1802 1.524 . S
C1806 H1818 0.956 . S
C1806 H1819 0.961 . S
C1806 H1820 0.961 . S
C1807 C1804 1.539 . S
C1807 H1821 0.958 . S
C1807 H1822 0.961 . S
C1807 H1823 0.960 . S
H1808 C1792 0.931 . S
H1809 C1797 0.929 . S
H1810 C1798 0.960 . S
H1811 C1798 0.962 . S
H1812 C1798 0.960 . S
H1813 C1799 0.961 . S
H1814 C1799 0.961 . S
H1815 C1799 0.961 . S
H1816 C1800 0.931 . S
H1817 C1805 0.930 . S
H1818 C1806 0.956 . S
H1819 C1806 0.961 . S
H1820 C1806 0.961 . S
H1821 C1807 0.958 . S
H1822 C1807 0.961 . S
H1823 C1807 0.960 . S
C1824 C1825 1.391 . S
C1824 C1826 1.394 . S
C1824 H1840 0.931 . S
C1825 C1824 1.391 . S
C1825 C1829 1.376 . S
C1826 C1824 1.394 . S
C1826 C1827 1.369 . S
C1826 C1830 1.531 . S
C1827 C1826 1.369 . S
C1827 C1828 1.410 . S
C1827 C1835 1.503 . S
C1828 C1827 1.410 . S
C1828 C1829 1.392 . S
C1828 C1831 1.511 . S
C1829 C1825 1.376 . S
C1829 C1828 1.392 . S
C1829 H1841 0.929 . S
C1830 C1826 1.531 . S
C1830 H1842 0.960 . S
C1830 H1843 0.962 . S
C1830 H1844 0.960 . S
C1831 C1828 1.511 . S
C1831 H1845 0.961 . S
C1831 H1846 0.961 . S
C1831 H1847 0.961 . S
C1832 C1833 1.370 . S
C1832 C1834 1.363 . S
C1832 H1848 0.931 . S
C1833 C1832 1.370 . S
C1833 C1837 1.408 . S
C1834 C1832 1.363 . S
C1834 C1835 1.370 . S
C1834 C1838 1.524 . S
C1835 C1827 1.503 . S
C1835 C1834 1.370 . S
C1835 C1836 1.403 . S
C1836 C1835 1.403 . S
C1836 C1837 1.404 . S
C1836 C1839 1.539 . S
C1837 C1833 1.408 . S
C1837 C1836 1.404 . S
C1837 H1849 0.930 . S
C1838 C1834 1.524 . S
C1838 H1850 0.956 . S
C1838 H1851 0.961 . S
C1838 H1852 0.961 . S
C1839 C1836 1.539 . S
C1839 H1853 0.958 . S
C1839 H1854 0.961 . S
C1839 H1855 0.960 . S
H1840 C1824 0.931 . S
H1841 C1829 0.929 . S
H1842 C1830 0.960 . S
H1843 C1830 0.962 . S
H1844 C1830 0.960 . S
H1845 C1831 0.961 . S
H1846 C1831 0.961 . S
H1847 C1831 0.961 . S
H1848 C1832 0.931 . S
H1849 C1837 0.930 . S
H1850 C1838 0.956 . S
H1851 C1838 0.961 . S
H1852 C1838 0.961 . S
H1853 C1839 0.958 . S
H1854 C1839 0.961 . S
H1855 C1839 0.960 . S
C1856 C1857 1.391 . S
C1856 C1858 1.394 . S
C1856 H1872 0.931 . S
C1857 C1856 1.391 . S
C1857 C1861 1.376 . S
C1858 C1856 1.394 . S
C1858 C1859 1.369 . S
C1858 C1862 1.531 . S
C1859 C1858 1.369 . S
C1859 C1860 1.410 . S
C1859 C1867 1.503 . S
C1860 C1859 1.410 . S
C1860 C1861 1.392 . S
C1860 C1863 1.511 . S
C1861 C1857 1.376 . S
C1861 C1860 1.392 . S
C1861 H1873 0.929 . S
C1862 C1858 1.531 . S
C1862 H1874 0.960 . S
C1862 H1875 0.962 . S
C1862 H1876 0.960 . S
C1863 C1860 1.511 . S
C1863 H1877 0.961 . S
C1863 H1878 0.961 . S
C1863 H1879 0.961 . S
C1864 C1865 1.370 . S
C1864 C1866 1.363 . S
C1864 H1880 0.931 . S
C1865 C1864 1.370 . S
C1865 C1869 1.408 . S
C1866 C1864 1.363 . S
C1866 C1867 1.370 . S
C1866 C1870 1.524 . S
C1867 C1859 1.503 . S
C1867 C1866 1.370 . S
C1867 C1868 1.403 . S
C1868 C1867 1.403 . S
C1868 C1869 1.404 . S
C1868 C1871 1.539 . S
C1869 C1865 1.408 . S
C1869 C1868 1.404 . S
C1869 H1881 0.930 . S
C1870 C1866 1.524 . S
C1870 H1882 0.956 . S
C1870 H1883 0.961 . S
C1870 H1884 0.961 . S
C1871 C1868 1.539 . S
C1871 H1885 0.958 . S
C1871 H1886 0.961 . S
C1871 H1887 0.960 . S
H1872 C1856 0.931 . S
H1873 C1861 0.929 . S
H1874 C1862 0.960 . S
H1875 C1862 0.962 . S
H1876 C1862 0.960 . S
H1877 C1863 0.961 . S
H1878 C1863 0.961 . S
H1879 C1863 0.961 . S
H1880 C1864 0.931 . S
H1881 C1869 0.930 . S
H1882 C1870 0.956 . S
H1883 C1870 0.961 . S
H1884 C1870 0.961 . S
H1885 C1871 0.958 . S
H1886 C1871 0.961 . S
H1887 C1871 0.960 . S
C1888 C1889 1.391 . S
C1888 C1890 1.394 . S
C1888 H1904 0.931 . S
C1889 C1888 1.391 . S
C1889 C1893 1.376 . S
C1890 C1888 1.394 . S
C1890 C1891 1.369 . S
C1890 C1894 1.531 . S
C1891 C1890 1.369 . S
C1891 C1892 1.410 . S
C1891 C1899 1.503 . S
C1892 C1891 1.410 . S
C1892 C1893 1.392 . S
C1892 C1895 1.511 . S
C1893 C1889 1.376 . S
C1893 C1892 1.392 . S
C1893 H1905 0.929 . S
C1894 C1890 1.531 . S
C1894 H1906 0.960 . S
C1894 H1907 0.962 . S
C1894 H1908 0.960 . S
C1895 C1892 1.511 . S
C1895 H1909 0.961 . S
C1895 H1910 0.961 . S
C1895 H1911 0.961 . S
C1896 C1897 1.370 . S
C1896 C1898 1.363 . S
C1896 H1912 0.931 . S
C1897 C1896 1.370 . S
C1897 C1901 1.408 . S
C1898 C1896 1.363 . S
C1898 C1899 1.370 . S
C1898 C1902 1.524 . S
C1899 C1891 1.503 . S
C1899 C1898 1.370 . S
C1899 C1900 1.403 . S
C1900 C1899 1.403 . S
C1900 C1901 1.404 . S
C1900 C1903 1.539 . S
C1901 C1897 1.408 . S
C1901 C1900 1.404 . S
C1901 H1913 0.930 . S
C1902 C1898 1.524 . S
C1902 H1914 0.956 . S
C1902 H1915 0.961 . S
C1902 H1916 0.961 . S
C1903 C1900 1.539 . S
C1903 H1917 0.958 . S
C1903 H1918 0.961 . S
C1903 H1919 0.960 . S
H1904 C1888 0.931 . S
H1905 C1893 0.929 . S
H1906 C1894 0.960 . S
H1907 C1894 0.962 . S
H1908 C1894 0.960 . S
H1909 C1895 0.961 . S
H1910 C1895 0.961 . S
H1911 C1895 0.961 . S
H1912 C1896 0.931 . S
H1913 C1901 0.930 . S
H1914 C1902 0.956 . S
H1915 C1902 0.961 . S
H1916 C1902 0.961 . S
H1917 C1903 0.958 . S
H1918 C1903 0.961 . S
H1919 C1903 0.960 . S
C1920 C1921 1.391 . S
C1920 C1922 1.394 . S
C1920 H1936 0.931 . S
C1921 C1920 1.391 . S
C1921 C1925 1.376 . S
C1922 C1920 1.394 . S
C1922 C1923 1.369 . S
C1922 C1926 1.531 . S
C1923 C1922 1.369 . S
C1923 C1924 1.410 . S
C1923 C1931 1.503 . S
C1924 C1923 1.410 . S
C1924 C1925 1.392 . S
C1924 C1927 1.511 . S
C1925 C1921 1.376 . S
C1925 C1924 1.392 . S
C1925 H1937 0.929 . S
C1926 C1922 1.531 . S
C1926 H1938 0.960 . S
C1926 H1939 0.962 . S
C1926 H1940 0.960 . S
C1927 C1924 1.511 . S
C1927 H1941 0.961 . S
C1927 H1942 0.961 . S
C1927 H1943 0.961 . S
C1928 C1929 1.370 . S
C1928 C1930 1.363 . S
C1928 H1944 0.931 . S
C1929 C1928 1.370 . S
C1929 C1933 1.408 . S
C1930 C1928 1.363 . S
C1930 C1931 1.370 . S
C1930 C1934 1.524 . S
C1931 C1923 1.503 . S
C1931 C1930 1.370 . S
C1931 C1932 1.403 . S
C1932 C1931 1.403 . S
C1932 C1933 1.404 . S
C1932 C1935 1.539 . S
C1933 C1929 1.408 . S
C1933 C1932 1.404 . S
C1933 H1945 0.930 . S
C1934 C1930 1.524 . S
C1934 H1946 0.956 . S
C1934 H1947 0.961 . S
C1934 H1948 0.961 . S
C1935 C1932 1.539 . S
C1935 H1949 0.958 . S
C1935 H1950 0.961 . S
C1935 H1951 0.960 . S
H1936 C1920 0.931 . S
H1937 C1925 0.929 . S
H1938 C1926 0.960 . S
H1939 C1926 0.962 . S
H1940 C1926 0.960 . S
H1941 C1927 0.961 . S
H1942 C1927 0.961 . S
H1943 C1927 0.961 . S
H1944 C1928 0.931 . S
H1945 C1933 0.930 . S
H1946 C1934 0.956 . S
H1947 C1934 0.961 . S
H1948 C1934 0.961 . S
H1949 C1935 0.958 . S
H1950 C1935 0.961 . S
H1951 C1935 0.960 . S
C1952 C1953 1.391 . S
C1952 C1954 1.394 . S
C1952 H1968 0.931 . S
C1953 C1952 1.391 . S
C1953 C1957 1.376 . S
C1954 C1952 1.394 . S
C1954 C1955 1.369 . S
C1954 C1958 1.531 . S
C1955 C1954 1.369 . S
C1955 C1956 1.410 . S
C1955 C1963 1.503 . S
C1956 C1955 1.410 . S
C1956 C1957 1.392 . S
C1956 C1959 1.511 . S
C1957 C1953 1.376 . S
C1957 C1956 1.392 . S
C1957 H1969 0.929 . S
C1958 C1954 1.531 . S
C1958 H1970 0.960 . S
C1958 H1971 0.962 . S
C1958 H1972 0.960 . S
C1959 C1956 1.511 . S
C1959 H1973 0.961 . S
C1959 H1974 0.961 . S
C1959 H1975 0.961 . S
C1960 C1961 1.370 . S
C1960 C1962 1.363 . S
C1960 H1976 0.931 . S
C1961 C1960 1.370 . S
C1961 C1965 1.408 . S
C1962 C1960 1.363 . S
C1962 C1963 1.370 . S
C1962 C1966 1.524 . S
C1963 C1955 1.503 . S
C1963 C1962 1.370 . S
C1963 C1964 1.403 . S
C1964 C1963 1.403 . S
C1964 C1965 1.404 . S
C1964 C1967 1.539 . S
C1965 C1961 1.408 . S
C1965 C1964 1.404 . S
C1965 H1977 0.930 . S
C1966 C1962 1.524 . S
C1966 H1978 0.956 . S
C1966 H1979 0.961 . S
C1966 H1980 0.961 . S
C1967 C1964 1.539 . S
C1967 H1981 0.958 . S
C1967 H1982 0.961 . S
C1967 H1983 0.960 . S
H1968 C1952 0.931 . S
H1969 C1957 0.929 . S
H1970 C1958 0.960 . S
H1971 C1958 0.962 . S
H1972 C1958 0.960 . S
H1973 C1959 0.961 . S
H1974 C1959 0.961 . S
H1975 C1959 0.961 . S
H1976 C1960 0.931 . S
H1977 C1965 0.930 . S
H1978 C1966 0.956 . S
H1979 C1966 0.961 . S
H1980 C1966 0.961 . S
H1981 C1967 0.958 . S
H1982 C1967 0.961 . S
H1983 C1967 0.960 . S
C1984 C1985 1.391 . S
C1984 C1986 1.394 . S
C1984 H2000 0.931 . S
C1985 C1984 1.391 . S
C1985 C1989 1.376 . S
C1986 C1984 1.394 . S
C1986 C1987 1.369 . S
C1986 C1990 1.531 . S
C1987 C1986 1.369 . S
C1987 C1988 1.410 . S
C1987 C1995 1.503 . S
C1988 C1987 1.410 . S
C1988 C1989 1.392 . S
C1988 C1991 1.511 . S
C1989 C1985 1.376 . S
C1989 C1988 1.392 . S
C1989 H2001 0.929 . S
C1990 C1986 1.531 . S
C1990 H2002 0.960 . S
C1990 H2003 0.962 . S
C1990 H2004 0.960 . S
C1991 C1988 1.511 . S
C1991 H2005 0.961 . S
C1991 H2006 0.961 . S
C1991 H2007 0.961 . S
C1992 C1993 1.370 . S
C1992 C1994 1.363 . S
C1992 H2008 0.931 . S
C1993 C1992 1.370 . S
C1993 C1997 1.408 . S
C1994 C1992 1.363 . S
C1994 C1995 1.370 . S
C1994 C1998 1.524 . S
C1995 C1987 1.503 . S
C1995 C1994 1.370 . S
C1995 C1996 1.403 . S
C1996 C1995 1.403 . S
C1996 C1997 1.404 . S
C1996 C1999 1.539 . S
C1997 C1993 1.408 . S
C1997 C1996 1.404 . S
C1997 H2009 0.930 . S
C1998 C1994 1.524 . S
C1998 H2010 0.956 . S
C1998 H2011 0.961 . S
C1998 H2012 0.961 . S
C1999 C1996 1.539 . S
C1999 H2013 0.958 . S
C1999 H2014 0.961 . S
C1999 H2015 0.960 . S
H2000 C1984 0.931 . S
H2001 C1989 0.929 . S
H2002 C1990 0.960 . S
H2003 C1990 0.962 . S
H2004 C1990 0.960 . S
H2005 C1991 0.961 . S
H2006 C1991 0.961 . S
H2007 C1991 0.961 . S
H2008 C1992 0.931 . S
H2009 C1997 0.930 . S
H2010 C1998 0.956 . S
H2011 C1998 0.961 . S
H2012 C1998 0.961 . S
H2013 C1999 0.958 . S
H2014 C1999 0.961 . S
H2015 C1999 0.960 . S
C2016 C2017 1.391 . S
C2016 C2018 1.394 . S
C2016 H2032 0.931 . S
C2017 C2016 1.391 . S
C2017 C2021 1.376 . S
C2018 C2016 1.394 . S
C2018 C2019 1.369 . S
C2018 C2022 1.531 . S
C2019 C2018 1.369 . S
C2019 C2020 1.410 . S
C2019 C2027 1.503 . S
C2020 C2019 1.410 . S
C2020 C2021 1.392 . S
C2020 C2023 1.511 . S
C2021 C2017 1.376 . S
C2021 C2020 1.392 . S
C2021 H2033 0.929 . S
C2022 C2018 1.531 . S
C2022 H2034 0.960 . S
C2022 H2035 0.962 . S
C2022 H2036 0.960 . S
C2023 C2020 1.511 . S
C2023 H2037 0.961 . S
C2023 H2038 0.961 . S
C2023 H2039 0.961 . S
C2024 C2025 1.370 . S
C2024 C2026 1.363 . S
C2024 H2040 0.931 . S
C2025 C2024 1.370 . S
C2025 C2029 1.408 . S
C2026 C2024 1.363 . S
C2026 C2027 1.370 . S
C2026 C2030 1.524 . S
C2027 C2019 1.503 . S
C2027 C2026 1.370 . S
C2027 C2028 1.403 . S
C2028 C2027 1.403 . S
C2028 C2029 1.404 . S
C2028 C2031 1.539 . S
C2029 C2025 1.408 . S
C2029 C2028 1.404 . S
C2029 H2041 0.930 . S
C2030 C2026 1.524 . S
C2030 H2042 0.956 . S
C2030 H2043 0.961 . S
C2030 H2044 0.961 . S
C2031 C2028 1.539 . S
C2031 H2045 0.958 . S
C2031 H2046 0.961 . S
C2031 H2047 0.960 . S
H2032 C2016 0.931 . S
H2033 C2021 0.929 . S
H2034 C2022 0.960 . S
H2035 C2022 0.962 . S
H2036 C2022 0.960 . S
H2037 C2023 0.961 . S
H2038 C2023 0.961 . S
H2039 C2023 0.961 . S
H2040 C2024 0.931 . S
H2041 C2029 0.930 . S
H2042 C2030 0.956 . S
H2043 C2030 0.961 . S
H2044 C2030 0.961 . S
H2045 C2031 0.958 . S
H2046 C2031 0.961 . S
H2047 C2031 0.960 . S
C2048 C2049 1.391 . S
C2048 C2050 1.394 . S
C2048 H2064 0.931 . S
C2049 C2048 1.391 . S
C2049 C2053 1.376 . S
C2050 C2048 1.394 . S
C2050 C2051 1.369 . S
C2050 C2054 1.531 . S
C2051 C2050 1.369 . S
C2051 C2052 1.410 . S
C2051 C2059 1.503 . S
C2052 C2051 1.410 . S
C2052 C2053 1.392 . S
C2052 C2055 1.511 . S
C2053 C2049 1.376 . S
C2053 C2052 1.392 . S
C2053 H2065 0.929 . S
C2054 C2050 1.531 . S
C2054 H2066 0.960 . S
C2054 H2067 0.962 . S
C2054 H2068 0.960 . S
C2055 C2052 1.511 . S
C2055 H2069 0.961 . S
C2055 H2070 0.961 . S
C2055 H2071 0.961 . S
C2056 C2057 1.370 . S
C2056 C2058 1.363 . S
C2056 H2072 0.931 . S
C2057 C2056 1.370 . S
C2057 C2061 1.408 . S
C2058 C2056 1.363 . S
C2058 C2059 1.370 . S
C2058 C2062 1.524 . S
C2059 C2051 1.503 . S
C2059 C2058 1.370 . S
C2059 C2060 1.403 . S
C2060 C2059 1.403 . S
C2060 C2061 1.404 . S
C2060 C2063 1.539 . S
C2061 C2057 1.408 . S
C2061 C2060 1.404 . S
C2061 H2073 0.930 . S
C2062 C2058 1.524 . S
C2062 H2074 0.956 . S
C2062 H2075 0.961 . S
C2062 H2076 0.961 . S
C2063 C2060 1.539 . S
C2063 H2077 0.958 . S
C2063 H2078 0.961 . S
C2063 H2079 0.960 . S
H2064 C2048 0.931 . S
H2065 C2053 0.929 . S
H2066 C2054 0.960 . S
H2067 C2054 0.962 . S
H2068 C2054 0.960 . S
H2069 C2055 0.961 . S
H2070 C2055 0.961 . S
H2071 C2055 0.961 . S
H2072 C2056 0.931 . S
H2073 C2061 0.930 . S
H2074 C2062 0.956 . S
H2075 C2062 0.961 . S
H2076 C2062 0.961 . S
H2077 C2063 0.958 . S
H2078 C2063 0.961 . S
H2079 C2063 0.960 . S
C2080 C2081 1.391 . S
C2080 C2082 1.394 . S
C2080 H2096 0.931 . S
C2081 C2080 1.391 . S
C2081 C2085 1.376 . S
C2082 C2080 1.394 . S
C2082 C2083 1.369 . S
C2082 C2086 1.531 . S
C2083 C2082 1.369 . S
C2083 C2084 1.410 . S
C2083 C2091 1.503 . S
C2084 C2083 1.410 . S
C2084 C2085 1.392 . S
C2084 C2087 1.511 . S
C2085 C2081 1.376 . S
C2085 C2084 1.392 . S
C2085 H2097 0.929 . S
C2086 C2082 1.531 . S
C2086 H2098 0.960 . S
C2086 H2099 0.962 . S
C2086 H2100 0.960 . S
C2087 C2084 1.511 . S
C2087 H2101 0.961 . S
C2087 H2102 0.961 . S
C2087 H2103 0.961 . S
C2088 C2089 1.370 . S
C2088 C2090 1.363 . S
C2088 H2104 0.931 . S
C2089 C2088 1.370 . S
C2089 C2093 1.408 . S
C2090 C2088 1.363 . S
C2090 C2091 1.370 . S
C2090 C2094 1.524 . S
C2091 C2083 1.503 . S
C2091 C2090 1.370 . S
C2091 C2092 1.403 . S
C2092 C2091 1.403 . S
C2092 C2093 1.404 . S
C2092 C2095 1.539 . S
C2093 C2089 1.408 . S
C2093 C2092 1.404 . S
C2093 H2105 0.930 . S
C2094 C2090 1.524 . S
C2094 H2106 0.956 . S
C2094 H2107 0.961 . S
C2094 H2108 0.961 . S
C2095 C2092 1.539 . S
C2095 H2109 0.958 . S
C2095 H2110 0.961 . S
C2095 H2111 0.960 . S
H2096 C2080 0.931 . S
H2097 C2085 0.929 . S
H2098 C2086 0.960 . S
H2099 C2086 0.962 . S
H2100 C2086 0.960 . S
H2101 C2087 0.961 . S
H2102 C2087 0.961 . S
H2103 C2087 0.961 . S
H2104 C2088 0.931 . S
H2105 C2093 0.930 . S
H2106 C2094 0.956 . S
H2107 C2094 0.961 . S
H2108 C2094 0.961 . S
H2109 C2095 0.958 . S
H2110 C2095 0.961 . S
H2111 C2095 0.960 . S
C2112 C2113 1.391 . S
C2112 C2114 1.394 . S
C2112 H2128 0.931 . S
C2113 C2112 1.391 . S
C2113 C2117 1.376 . S
C2114 C2112 1.394 . S
C2114 C2115 1.369 . S
C2114 C2118 1.531 . S
C2115 C2114 1.369 . S
C2115 C2116 1.410 . S
C2115 C2123 1.503 . S
C2116 C2115 1.410 . S
C2116 C2117 1.392 . S
C2116 C2119 1.511 . S
C2117 C2113 1.376 . S
C2117 C2116 1.392 . S
C2117 H2129 0.929 . S
C2118 C2114 1.531 . S
C2118 H2130 0.960 . S
C2118 H2131 0.962 . S
C2118 H2132 0.960 . S
C2119 C2116 1.511 . S
C2119 H2133 0.961 . S
C2119 H2134 0.961 . S
C2119 H2135 0.961 . S
C2120 C2121 1.370 . S
C2120 C2122 1.363 . S
C2120 H2136 0.931 . S
C2121 C2120 1.370 . S
C2121 C2125 1.408 . S
C2122 C2120 1.363 . S
C2122 C2123 1.370 . S
C2122 C2126 1.524 . S
C2123 C2115 1.503 . S
C2123 C2122 1.370 . S
C2123 C2124 1.403 . S
C2124 C2123 1.403 . S
C2124 C2125 1.404 . S
C2124 C2127 1.539 . S
C2125 C2121 1.408 . S
C2125 C2124 1.404 . S
C2125 H2137 0.930 . S
C2126 C2122 1.524 . S
C2126 H2138 0.956 . S
C2126 H2139 0.961 . S
C2126 H2140 0.961 . S
C2127 C2124 1.539 . S
C2127 H2141 0.958 . S
C2127 H2142 0.961 . S
C2127 H2143 0.960 . S
H2128 C2112 0.931 . S
H2129 C2117 0.929 . S
H2130 C2118 0.960 . S
H2131 C2118 0.962 . S
H2132 C2118 0.960 . S
H2133 C2119 0.961 . S
H2134 C2119 0.961 . S
H2135 C2119 0.961 . S
H2136 C2120 0.931 . S
H2137 C2125 0.930 . S
H2138 C2126 0.956 . S
H2139 C2126 0.961 . S
H2140 C2126 0.961 . S
H2141 C2127 0.958 . S
H2142 C2127 0.961 . S
H2143 C2127 0.960 . S
C2144 C2145 1.391 . S
C2144 C2146 1.394 . S
C2144 H2160 0.931 . S
C2145 C2144 1.391 . S
C2145 C2149 1.376 . S
C2146 C2144 1.394 . S
C2146 C2147 1.369 . S
C2146 C2150 1.531 . S
C2147 C2146 1.369 . S
C2147 C2148 1.410 . S
C2147 C2155 1.503 . S
C2148 C2147 1.410 . S
C2148 C2149 1.392 . S
C2148 C2151 1.511 . S
C2149 C2145 1.376 . S
C2149 C2148 1.392 . S
C2149 H2161 0.929 . S
C2150 C2146 1.531 . S
C2150 H2162 0.960 . S
C2150 H2163 0.962 . S
C2150 H2164 0.960 . S
C2151 C2148 1.511 . S
C2151 H2165 0.961 . S
C2151 H2166 0.961 . S
C2151 H2167 0.961 . S
C2152 C2153 1.370 . S
C2152 C2154 1.363 . S
C2152 H2168 0.931 . S
C2153 C2152 1.370 . S
C2153 C2157 1.408 . S
C2154 C2152 1.363 . S
C2154 C2155 1.370 . S
C2154 C2158 1.524 . S
C2155 C2147 1.503 . S
C2155 C2154 1.370 . S
C2155 C2156 1.403 . S
C2156 C2155 1.403 . S
C2156 C2157 1.404 . S
C2156 C2159 1.539 . S
C2157 C2153 1.408 . S
C2157 C2156 1.404 . S
C2157 H2169 0.930 . S
C2158 C2154 1.524 . S
C2158 H2170 0.956 . S
C2158 H2171 0.961 . S
C2158 H2172 0.961 . S
C2159 C2156 1.539 . S
C2159 H2173 0.958 . S
C2159 H2174 0.961 . S
C2159 H2175 0.960 . S
H2160 C2144 0.931 . S
H2161 C2149 0.929 . S
H2162 C2150 0.960 . S
H2163 C2150 0.962 . S
H2164 C2150 0.960 . S
H2165 C2151 0.961 . S
H2166 C2151 0.961 . S
H2167 C2151 0.961 . S
H2168 C2152 0.931 . S
H2169 C2157 0.930 . S
H2170 C2158 0.956 . S
H2171 C2158 0.961 . S
H2172 C2158 0.961 . S
H2173 C2159 0.958 . S
H2174 C2159 0.961 . S
H2175 C2159 0.960 . S
C641 C135 2.041 . S
C649 C18 1.968 . S
C673 C6 2.684 . S
C681 C59 2.799 . S
C705 C89 0.875 . S
C713 C58 0.823 . S
C737 C130 2.582 . S
C745 C90 2.590 . S
C769 C170 2.470 . S
C777 C206 2.404 . S
C801 C218 0.722 . S
C809 C258 0.772 . S
C833 C259 2.618 . S
C841 C290 2.651 . S
C865 C175 2.063 . S
C873 C289 2.004 . S
C897 C379 2.633 . S
C905 C19 2.655 . S
C929 C406 0.864 . S
C937 C46 0.700 . S
C961 C95 0.609 . S
C969 C535 0.612 . S
C993 C329 0.885 . S
C1001 C129 0.790 . S
C1025 C449 0.794 . S
C1033 C169 0.805 . S
C1057 C579 2.646 . S
C1065 C219 2.633 . S
C1089 C246 0.873 . S
C1097 C486 0.698 . S
C1121 C615 0.608 . S
C1129 C295 0.611 . S
C1153 C335 2.062 . S
C1161 C529 2.006 . S
C1185 C366 2.388 . S
C1193 C330 2.471 . S
C1217 C418 0.786 . S
C1225 C378 0.773 . S
C1249 C578 2.001 . S
C1257 C455 2.066 . S
C1281 C498 0.857 . S
C1289 C609 0.835 . S
C1313 C446 2.073 . S
C1321 C9 1.993 . S
C1345 C490 2.802 . S
C1353 C15 2.663 . S
C1377 C489 0.880 . S
C1385 C98 0.812 . S
C1409 C99 2.589 . S
C1417 C459 2.580 . S
C1441 C375 2.391 . S
C1449 C179 2.469 . S
C1473 C369 0.864 . S
C1481 C249 0.825 . S
C1505 C539 2.650 . S
C1513 C250 2.632 . S
C1537 C166 2.042 . S
C1545 C538 1.998 . S
C1569 C210 2.617 . S
C1577 C10 2.655 . S
C1601 C415 0.661 . S
C1609 C495 0.777 . S
C1633 C86 0.390 . S
C1641 C286 0.693 . S
C1665 C338 0.895 . S
C1673 C458 0.790 . S
C1697 C138 0.769 . S
C1705 C178 0.853 . S
C1729 C370 2.624 . S
C1737 C570 2.655 . S
C1761 C255 0.865 . S
C1769 C55 0.717 . S
C1793 C606 0.467 . S
C1801 C526 0.632 . S
C1825 C326 2.052 . S
C1833 C298 2.003 . S
C1857 C339 2.455 . S
C1865 C215 2.414 . S
C1889 C409 0.758 . S
C1897 C209 0.770 . S
C1921 C126 2.073 . S
C1929 C569 1.991 . S
C1953 C49 0.728 . S
C1961 C618 0.791 . S
C1985 C499 2.802 . S
C1993 C566 2.663 . S
C2017 C450 2.566 . S
C2025 C610 2.586 . S
C2049 C419 2.631 . S
C2057 C530 2.656 . S
C2081 C575 2.674 . S
C2089 C50 2.799 . S
C2113 C139 2.582 . S
C2121 C619 2.586 . S
C2145 C299 2.644 . S
C2153 C410 2.621 . S
