# Generated by pormake.
# Topology wjd, (6)-cn, num edge types: 1
# Building blocks:
#     Node 0, Type 0, BuildingBlock: MIFKUJ_clean_sbu_0, # of connection points: 6
#     Node 1, Type 0, BuildingBlock: MIFKUJ_clean_sbu_0, # of connection points: 6
#     Node 2, Type 0, BuildingBlock: MIFKUJ_clean_sbu_0, # of connection points: 6
#     Node 3, Type 0, BuildingBlock: MIFKUJ_clean_sbu_0, # of connection points: 6
#     Node 4, Type 0, BuildingBlock: MIFKUJ_clean_sbu_0, # of connection points: 6
#     Node 5, Type 0, BuildingBlock: MIFKUJ_clean_sbu_0, # of connection points: 6
#     Node 6, Type 0, BuildingBlock: MIFKUJ_clean_sbu_0, # of connection points: 6
#     Node 7, Type 0, BuildingBlock: MIFKUJ_clean_sbu_0, # of connection points: 6
#     Node 8, Type 0, BuildingBlock: MIFKUJ_clean_sbu_0, # of connection points: 6
#     Node 9, Type 0, BuildingBlock: MIFKUJ_clean_sbu_0, # of connection points: 6
#     Node 10, Type 0, BuildingBlock: MIFKUJ_clean_sbu_0, # of connection points: 6
#     Node 11, Type 0, BuildingBlock: MIFKUJ_clean_sbu_0, # of connection points: 6
#     Edge 12, Type (0, 0), BuildingBlock: AJUNOK_clean_linker_0, # of connection points: 2
#     Edge 13, Type (0, 0), BuildingBlock: AJUNOK_clean_linker_0, # of connection points: 2
#     Edge 14, Type (0, 0), BuildingBlock: AJUNOK_clean_linker_0, # of connection points: 2
#     Edge 15, Type (0, 0), BuildingBlock: AJUNOK_clean_linker_0, # of connection points: 2
#     Edge 16, Type (0, 0), BuildingBlock: AJUNOK_clean_linker_0, # of connection points: 2
#     Edge 17, Type (0, 0), BuildingBlock: AJUNOK_clean_linker_0, # of connection points: 2
#     Edge 18, Type (0, 0), BuildingBlock: AJUNOK_clean_linker_0, # of connection points: 2
#     Edge 19, Type (0, 0), BuildingBlock: AJUNOK_clean_linker_0, # of connection points: 2
#     Edge 20, Type (0, 0), BuildingBlock: AJUNOK_clean_linker_0, # of connection points: 2
#     Edge 21, Type (0, 0), BuildingBlock: AJUNOK_clean_linker_0, # of connection points: 2
#     Edge 22, Type (0, 0), BuildingBlock: AJUNOK_clean_linker_0, # of connection points: 2
#     Edge 23, Type (0, 0), BuildingBlock: AJUNOK_clean_linker_0, # of connection points: 2
#     Edge 24, Type (0, 0), BuildingBlock: AJUNOK_clean_linker_0, # of connection points: 2
#     Edge 25, Type (0, 0), BuildingBlock: AJUNOK_clean_linker_0, # of connection points: 2
#     Edge 26, Type (0, 0), BuildingBlock: AJUNOK_clean_linker_0, # of connection points: 2
#     Edge 27, Type (0, 0), BuildingBlock: AJUNOK_clean_linker_0, # of connection points: 2
#     Edge 28, Type (0, 0), BuildingBlock: AJUNOK_clean_linker_0, # of connection points: 2
#     Edge 29, Type (0, 0), BuildingBlock: AJUNOK_clean_linker_0, # of connection points: 2
#     Edge 30, Type (0, 0), BuildingBlock: AJUNOK_clean_linker_0, # of connection points: 2
#     Edge 31, Type (0, 0), BuildingBlock: AJUNOK_clean_linker_0, # of connection points: 2
#     Edge 32, Type (0, 0), BuildingBlock: AJUNOK_clean_linker_0, # of connection points: 2
#     Edge 33, Type (0, 0), BuildingBlock: AJUNOK_clean_linker_0, # of connection points: 2
#     Edge 34, Type (0, 0), BuildingBlock: AJUNOK_clean_linker_0, # of connection points: 2
#     Edge 35, Type (0, 0), BuildingBlock: AJUNOK_clean_linker_0, # of connection points: 2
#     Edge 36, Type (0, 0), BuildingBlock: AJUNOK_clean_linker_0, # of connection points: 2
#     Edge 37, Type (0, 0), BuildingBlock: AJUNOK_clean_linker_0, # of connection points: 2
#     Edge 38, Type (0, 0), BuildingBlock: AJUNOK_clean_linker_0, # of connection points: 2
#     Edge 39, Type (0, 0), BuildingBlock: AJUNOK_clean_linker_0, # of connection points: 2
#     Edge 40, Type (0, 0), BuildingBlock: AJUNOK_clean_linker_0, # of connection points: 2
#     Edge 41, Type (0, 0), BuildingBlock: AJUNOK_clean_linker_0, # of connection points: 2
#     Edge 42, Type (0, 0), BuildingBlock: AJUNOK_clean_linker_0, # of connection points: 2
#     Edge 43, Type (0, 0), BuildingBlock: AJUNOK_clean_linker_0, # of connection points: 2
#     Edge 44, Type (0, 0), BuildingBlock: AJUNOK_clean_linker_0, # of connection points: 2
#     Edge 45, Type (0, 0), BuildingBlock: AJUNOK_clean_linker_0, # of connection points: 2
#     Edge 46, Type (0, 0), BuildingBlock: AJUNOK_clean_linker_0, # of connection points: 2
#     Edge 47, Type (0, 0), BuildingBlock: AJUNOK_clean_linker_0, # of connection points: 2
# Relax obj value: 0.091
# Max RMSD: 0.200
# Mean RMSD: 0.200
data_MOF--net-wjd--node1-MIFKUJ_clean_sbu_0--edge1-AJUNOK_clean_linker_0
_symmetry_space_group_name_H-M    P1
_symmetry_Int_Tables_number       1
_symmetry_cell_setting            triclinic
loop_
_symmetry_equiv_pos_as_xyz
'x, y, z'
_cell_length_a     27.127634
_cell_length_b     27.016401
_cell_length_c     38.261432
_cell_angle_alpha  89.948357
_cell_angle_beta   89.735359
_cell_angle_gamma 119.93481
loop_
_atom_site_label
_atom_site_type_symbol
_atom_site_fract_x
_atom_site_fract_y
_atom_site_fract_z
_atom_type_partial_charge
Zn0 Zn 0.25791 0.05336 0.11322 0.0
Zn1 Zn 0.40484 0.17079 0.0981 0.0
C2 C 0.22844 0.14198 0.10191 0.0
O3 O 0.26118 0.16555 0.12908 0.0
C4 C 0.49878 0.15854 0.07454 0.0
O5 O 0.48394 0.16935 0.04408 0.0
O6 O 0.18832 0.97665 0.12257 0.0
O7 O 0.31419 0.04156 0.08656 0.0
O8 O 0.35473 0.12309 0.0585 0.0
C9 C 0.15562 0.94989 0.09724 0.0
O10 O 0.17095 0.97108 0.06555 0.0
O11 O 0.2263 0.09793 0.08834 0.0
C12 C 0.47908 0.28965 0.10564 0.0
O13 O 0.48448 0.2712 0.13639 0.0
O14 O 0.44364 0.25381 0.08417 0.0
O15 O 0.37475 0.16288 0.14756 0.0
O16 O 0.28863 0.08887 0.15841 0.0
O17 O 0.46914 0.15454 0.10132 0.0
C18 C 0.32927 0.06887 0.0581 0.0
C19 C 0.33377 0.13281 0.16833 0.0
Zn20 Zn 0.78692 0.61958 0.36399 0.0
Zn21 Zn 0.8092 0.76051 0.35619 0.0
C22 C 0.68528 0.52163 0.39019 0.0
O23 O 0.71568 0.53429 0.41883 0.0
C24 C 0.92575 0.81473 0.3525 0.0
O25 O 0.91013 0.82671 0.32269 0.0
O26 O 0.83193 0.57959 0.37113 0.0
O27 O 0.801 0.65106 0.31416 0.0
O28 O 0.80301 0.7337 0.30838 0.0
C29 C 0.82531 0.54393 0.34737 0.0
O30 O 0.79431 0.53979 0.32007 0.0
O31 O 0.7062 0.55399 0.36362 0.0
C32 C 0.81759 0.86679 0.37983 0.0
O33 O 0.82845 0.85168 0.41021 0.0
O34 O 0.80622 0.8334 0.35394 0.0
O35 O 0.74528 0.70421 0.38493 0.0
O36 O 0.79327 0.66646 0.40709 0.0
O37 O 0.88728 0.78274 0.37423 0.0
C38 C 0.80394 0.69121 0.29522 0.0
C39 C 0.7611 0.6877 0.41124 0.0
Zn40 Zn 0.95601 0.21179 0.09666 0.0
Zn41 Zn 0.84435 0.25099 0.07539 0.0
C42 C 0.89553 0.10271 0.13033 0.0
O43 O 0.93531 0.1285 0.15395 0.0
C44 C 0.85201 0.35658 0.0543 0.0
O45 O 0.83891 0.33051 0.02396 0.0
O46 O 0.03012 0.21281 0.10425 0.0
O47 O 0.95766 0.22973 0.04779 0.0
O48 O 0.89114 0.2511 0.03407 0.0
C49 C 0.03692 0.17931 0.08392 0.0
O50 O 0.99564 0.1473 0.06237 0.0
O51 O 0.8933 0.13184 0.10496 0.0
C52 C 0.72955 0.20426 0.09035 0.0
O53 O 0.75425 0.22969 0.11962 0.0
O54 O 0.76057 0.20562 0.06492 0.0
O55 O 0.85542 0.22608 0.12309 0.0
O56 O 0.94851 0.26925 0.12425 0.0
O57 O 0.85905 0.33148 0.08034 0.0
C58 C 0.93231 0.24351 0.02562 0.0
C59 C 0.90131 0.2458 0.1402 0.0
Zn60 Zn 0.42085 0.17477 0.38231 0.0
Zn61 Zn 0.27113 0.0603 0.37454 0.0
C62 C 0.51441 0.15284 0.39297 0.0
O63 O 0.50612 0.15886 0.42618 0.0
C64 C 0.20981 0.11395 0.37499 0.0
O65 O 0.19663 0.08268 0.34664 0.0
O66 O 0.46586 0.2584 0.39502 0.0
O67 O 0.38343 0.16854 0.33563 0.0
O68 O 0.29884 0.09138 0.32781 0.0
C69 C 0.49442 0.29256 0.37038 0.0
O70 O 0.48943 0.27204 0.33866 0.0
O71 O 0.48147 0.15539 0.37045 0.0
C72 C 0.16183 0.96025 0.39041 0.0
O73 O 0.1721 0.98043 0.42241 0.0
O74 O 0.19974 0.98537 0.36701 0.0
O75 O 0.32573 0.04475 0.39995 0.0
O76 O 0.37787 0.12792 0.42514 0.0
O77 O 0.245 0.11233 0.39632 0.0
C78 C 0.34102 0.13704 0.31656 0.0
C79 C 0.3495 0.07368 0.42687 0.0
Zn80 Zn 0.80122 0.75589 0.10419 0.0
Zn81 Zn 0.76665 0.61672 0.07752 0.0
C82 C 0.91696 0.79291 0.12409 0.0
O83 O 0.8979 0.79706 0.15494 0.0
C84 C 0.65828 0.5169 0.06595 0.0
O85 O 0.67637 0.52769 0.03342 0.0
O86 O 0.80519 0.82586 0.12566 0.0
O87 O 0.76938 0.74772 0.0579 0.0
O88 O 0.75312 0.66306 0.03925 0.0
C89 C 0.82375 0.86789 0.1047 0.0
O90 O 0.84036 0.86295 0.07329 0.0
O91 O 0.88209 0.77219 0.09894 0.0
C92 C 0.81147 0.5445 0.08168 0.0
O93 O 0.79325 0.54449 0.11355 0.0
O94 O 0.80704 0.57624 0.05874 0.0
O95 O 0.80266 0.64999 0.12482 0.0
O96 O 0.74943 0.68818 0.13212 0.0
O97 O 0.68907 0.55114 0.08969 0.0
C98 C 0.75365 0.71016 0.03434 0.0
C99 C 0.77753 0.66725 0.14521 0.0
Zn100 Zn 0.85445 0.24475 0.35545 0.0
Zn101 Zn 0.97287 0.22108 0.35044 0.0
C102 C 0.86356 0.35405 0.37279 0.0
O103 O 0.86202 0.33727 0.40522 0.0
C104 C 0.90384 0.10468 0.35042 0.0
O105 O 0.93161 0.11707 0.32057 0.0
O106 O 0.77161 0.19344 0.36685 0.0
O107 O 0.87608 0.22661 0.30828 0.0
O108 O 0.95437 0.22074 0.30132 0.0
C109 C 0.73544 0.19462 0.34642 0.0
O110 O 0.75362 0.22349 0.31701 0.0
O111 O 0.86209 0.32203 0.34804 0.0
C112 C 0.06248 0.21029 0.38393 0.0
O113 O 0.03144 0.20319 0.41196 0.0
O114 O 0.04702 0.22127 0.35492 0.0
O115 O 0.98073 0.29259 0.36984 0.0
O116 O 0.90019 0.2516 0.39803 0.0
O117 O 0.91304 0.14522 0.3712 0.0
C118 C 0.9105 0.21959 0.28898 0.0
C119 C 0.9537 0.28401 0.39807 0.0
Zn120 Zn 0.17277 0.39673 0.57518 0.0
Zn121 Zn 0.06448 0.24612 0.59065 0.0
C122 C 0.16323 0.49676 0.56373 0.0
O123 O 0.1669 0.48436 0.53097 0.0
C124 C 0.13043 0.20713 0.62183 0.0
O125 O 0.0964 0.20328 0.64754 0.0
O126 O 0.25486 0.43171 0.56076 0.0
O127 O 0.15981 0.35211 0.61996 0.0
O128 O 0.06745 0.29955 0.62608 0.0
C129 C 0.29062 0.45668 0.58503 0.0
O130 O 0.27149 0.45336 0.61705 0.0
O131 O 0.16382 0.46431 0.58764 0.0
C132 C 0.97773 0.13324 0.57451 0.0
O133 O 1.00446 0.14778 0.54428 0.0
O134 O 0.99508 0.16971 0.59906 0.0
O135 O 0.05542 0.26987 0.54485 0.0
O136 O 0.12071 0.36001 0.53405 0.0
O137 O 0.1292 0.23135 0.59363 0.0
C138 C 0.11484 0.33843 0.63731 0.0
C139 C 0.0776 0.31315 0.52509 0.0
Zn140 Zn 0.18406 0.96516 0.86201 0.0
Zn141 Zn 0.21294 0.84878 0.8792 0.0
C142 C 0.06775 0.88598 0.84587 0.0
O143 O 0.08568 0.90497 0.81404 0.0
C144 C 0.31991 0.85608 0.88729 0.0
O145 O 0.3018 0.84787 0.91985 0.0
O146 O 0.18142 0.03689 0.85101 0.0
O147 O 0.22636 0.97964 0.90553 0.0
O148 O 0.22955 0.90175 0.92077 0.0
C149 C 0.16764 0.0604 0.87499 0.0
O150 O 0.15594 0.03734 0.90636 0.0
O151 O 0.10358 0.90356 0.87054 0.0
C152 C 0.16522 0.73204 0.86879 0.0
O153 O 0.17903 0.75314 0.83699 0.0
O154 O 0.17224 0.76593 0.8938 0.0
O155 O 0.17411 0.85692 0.83643 0.0
O156 O 0.22057 0.94785 0.82274 0.0
O157 O 0.28936 0.8608 0.86388 0.0
C158 C 0.23809 0.95169 0.92727 0.0
C159 C 0.20548 0.89658 0.81531 0.0
Zn160 Zn 0.60997 0.74876 0.58469 0.0
Zn161 Zn 0.75703 0.77818 0.6069 0.0
C162 C 0.51999 0.64174 0.5612 0.0
O163 O 0.53226 0.67045 0.53168 0.0
C164 C 0.82198 0.89506 0.60724 0.0
O165 O 0.82555 0.8796 0.63926 0.0
O166 O 0.56525 0.78797 0.57286 0.0
O167 O 0.63797 0.77468 0.63308 0.0
O168 O 0.71964 0.78226 0.65007 0.0
C169 C 0.52896 0.77962 0.5967 0.0
O170 O 0.52475 0.74746 0.62355 0.0
O171 O 0.55065 0.66577 0.58775 0.0
C172 C 0.86359 0.78081 0.5983 0.0
O173 O 0.85572 0.79112 0.56584 0.0
O174 O 0.82454 0.76977 0.62065 0.0
O175 O 0.70552 0.71614 0.57459 0.0
O176 O 0.66571 0.75844 0.54678 0.0
O177 O 0.79166 0.8565 0.5853 0.0
C178 C 0.67506 0.78491 0.6562 0.0
C179 C 0.69442 0.73288 0.54634 0.0
Zn180 Zn 0.03094 0.27465 0.84278 0.0
Zn181 Zn 0.15109 0.41366 0.85629 0.0
C182 C 0.10481 0.22971 0.83898 0.0
O183 O 0.09085 0.22853 0.80606 0.0
C184 C 0.14118 0.50741 0.88483 0.0
O185 O 0.15546 0.49194 0.91388 0.0
O186 O 0.95593 0.19942 0.84174 0.0
O187 O 0.02442 0.33302 0.87032 0.0
O188 O 0.10603 0.36108 0.89564 0.0
C189 C 0.9408 0.16733 0.86875 0.0
O190 O 0.97171 0.18636 0.89709 0.0
O191 O 0.08685 0.25203 0.86131 0.0
C192 C 0.27134 0.4799 0.8442 0.0
O193 O 0.25398 0.48025 0.81226 0.0
O194 O 0.23458 0.45093 0.86753 0.0
O195 O 0.13679 0.3859 0.80613 0.0
O196 O 0.05455 0.30598 0.79589 0.0
O197 O 0.13511 0.47884 0.85719 0.0
C198 C 0.05292 0.34217 0.89782 0.0
C199 C 0.1003 0.34917 0.78542 0.0
Zn200 Zn 0.24903 0.83741 0.59987 0.0
Zn201 Zn 0.21509 0.94374 0.62144 0.0
C202 C 0.35034 0.83661 0.58215 0.0
O203 O 0.32912 0.83268 0.55079 0.0
C204 C 0.09851 0.86536 0.63729 0.0
O205 O 0.11508 0.89105 0.66763 0.0
O206 O 0.20224 0.75691 0.58189 0.0
O207 O 0.21935 0.84049 0.64911 0.0
O208 O 0.25956 0.93292 0.65792 0.0
C209 C 0.19761 0.71915 0.60366 0.0
O210 O 0.21694 0.73543 0.63548 0.0
O211 O 0.32394 0.84131 0.60834 0.0
C212 C 0.19748 0.03628 0.60955 0.0
O213 O 0.19478 0.01756 0.57755 0.0
O214 O 0.2055 0.01037 0.6347 0.0
O215 O 0.2588 0.96806 0.57881 0.0
O216 O 0.26925 0.89637 0.56035 0.0
O217 O 0.13574 0.87757 0.61345 0.0
C218 C 0.24186 0.88311 0.66957 0.0
C219 C 0.27578 0.94607 0.55622 0.0
Zn220 Zn 0.72918 0.80535 0.85785 0.0
Zn221 Zn 0.58692 0.78079 0.86863 0.0
C222 C 0.79182 0.92255 0.85414 0.0
O223 O 0.80103 0.90348 0.82468 0.0
C224 C 0.49108 0.66878 0.88337 0.0
O225 O 0.49527 0.69039 0.9147 0.0
O226 O 0.79811 0.79748 0.85043 0.0
O227 O 0.67023 0.73727 0.88385 0.0
O228 O 0.63407 0.78306 0.9108 0.0
C229 C 0.83004 0.80183 0.87577 0.0
O230 O 0.81454 0.80671 0.90756 0.0
O231 O 0.75895 0.8862 0.87686 0.0
C232 C 0.50759 0.81688 0.8559 0.0
O233 O 0.50838 0.79395 0.8258 0.0
O234 O 0.54051 0.81842 0.88003 0.0
O235 O 0.62113 0.80859 0.82037 0.0
O236 O 0.70099 0.80604 0.81193 0.0
O237 O 0.52774 0.69878 0.86029 0.0
C238 C 0.65406 0.74937 0.91181 0.0
C239 C 0.66118 0.81317 0.80079 0.0
C240 C 0.1291 0.20194 0.11193 0.0
C241 C 0.08902 0.17435 0.08533 0.0
C242 C 0.176 0.19391 0.1157 0.0
C243 C 0.18476 0.15778 0.09309 0.0
H244 H 0.12336 0.22857 0.13077 0.0
H245 H 0.20418 0.21438 0.13753 0.0
S246 S 0.09681 0.08201 0.01601 0.0
N247 N 0.06462 0.11419 0.03359 0.0
N248 N 0.15252 0.09892 0.04089 0.0
C249 C 0.1469 0.13262 0.0651 0.0
C250 C 0.09911 0.14088 0.0612 0.0
C251 C 0.06111 0.88765 0.40601 0.0
C252 C 0.10347 0.91585 0.38027 0.0
C253 C 1.00386 0.85212 0.39689 0.0
C254 C 0.98685 0.844 0.3617 0.0
H255 H 0.07181 0.89461 0.43348 0.0
H256 H 0.97246 0.83326 0.41761 0.0
S257 S 0.08162 0.90298 0.28417 0.0
N258 N 0.12465 0.92897 0.31789 0.0
N259 N 0.01749 0.86277 0.30092 0.0
C260 C 0.02914 0.86928 0.33569 0.0
C261 C 0.08732 0.90501 0.34492 0.0
C262 C 0.87584 0.00715 0.15234 0.0
C263 C 0.86457 0.0395 0.12802 0.0
C264 C 0.85848 0.94956 0.14611 0.0
C265 C 0.8298 0.92288 0.11526 0.0
H266 H 0.90122 0.0272 0.1753 0.0
H267 H 0.87109 0.92714 0.16425 0.0
S268 S 0.77946 0.98413 0.04696 0.0
N269 N 0.8144 0.03696 0.07471 0.0
N270 N 0.78327 0.92936 0.06293 0.0
C271 C 0.81384 0.95289 0.0924 0.0
C272 C 0.83068 0.01107 0.09886 0.0
C273 C 0.17065 0.17192 0.35078 0.0
C274 C 0.1827 0.1491 0.38042 0.0
C275 C 0.13483 0.19514 0.35277 0.0
C276 C 0.10875 0.19588 0.38448 0.0
H277 H 0.18721 0.16967 0.32537 0.0
H278 H 0.12533 0.20989 0.32876 0.0
S279 S 0.1322 0.14762 0.47073 0.0
N280 N 0.1706 0.13357 0.44311 0.0
N281 N 0.10255 0.177 0.44718 0.0
C282 C 0.12366 0.17682 0.41493 0.0
C283 C 0.16084 0.1535 0.41284 0.0
C284 C 0.05709 0.88196 0.07651 0.0
C285 C 0.09706 0.9017 0.1038 0.0
C286 C 0.99932 0.84362 0.08292 0.0
C287 C 0.97907 0.82358 0.11691 0.0
H288 H 0.06985 0.89826 0.05017 0.0
H289 H 0.96998 0.83227 0.06131 0.0
S290 S 0.06745 0.85273 0.19614 0.0
N291 N 0.11329 0.89145 0.16523 0.0
N292 N 1.00456 0.81969 0.17722 0.0
C293 C 0.01907 0.83932 0.14391 0.0
C294 C 0.07806 0.87824 0.13738 0.0
C295 C 0.85418 0.96728 0.40061 0.0
C296 C 0.8281 0.92578 0.37426 0.0
C297 C 0.87436 0.02545 0.39385 0.0
C298 C 0.86936 0.04397 0.36043 0.0
H299 H 0.86213 0.95527 0.42603 0.0
H300 H 0.89765 0.05631 0.4141 0.0
S301 S 0.79573 0.95237 0.28423 0.0
N302 N 0.79142 0.90723 0.31483 0.0
N303 N 0.83015 0.0163 0.30216 0.0
C304 C 0.83935 1.00269 0.33479 0.0
C305 C 0.81847 0.94363 0.34167 0.0
C306 C 0.19657 0.12244 0.58775 0.0
C307 C 0.18862 0.08522 0.61564 0.0
C308 C 0.18169 0.16485 0.59093 0.0
C309 C 0.15765 0.17133 0.62204 0.0
H310 H 0.21281 0.11772 0.56279 0.0
H311 H 0.1864 0.19067 0.56812 0.0
S312 S 0.13397 0.08855 0.70411 0.0
N313 N 0.16006 0.0606 0.67638 0.0
N314 N 0.13178 0.14034 0.68251 0.0
C315 C 0.15302 0.13682 0.65095 0.0
C316 C 0.16853 0.0937 0.6477 0.0
C317 C 0.96666 0.8423 0.82677 0.0
C318 C 1.00589 0.85379 0.85379 0.0
C319 C 0.90907 0.82196 0.83403 0.0
C320 C 0.88831 0.81237 0.86863 0.0
H321 H 0.98082 0.85166 0.79982 0.0
H322 H 0.88133 0.8166 0.81233 0.0
S323 S 0.97134 0.82563 0.94843 0.0
N324 N 0.01834 0.84648 0.91627 0.0
N325 N 0.91008 0.80845 0.92984 0.0
C326 C 0.92609 0.81916 0.89569 0.0
C327 C 0.98485 0.83976 0.8883 0.0
C328 C 0.87882 0.99747 0.62377 0.0
C329 C 0.85601 0.95604 0.59727 0.0
C330 C 0.9162 0.05495 0.61597 0.0
C331 C 0.93278 0.07342 0.58133 0.0
H332 H 0.86873 0.98534 0.65098 0.0
H333 H 0.93371 0.08471 0.63749 0.0
S334 S 0.88142 0.98279 0.50203 0.0
N335 N 0.84964 0.93792 0.53476 0.0
N336 N 0.92028 0.04622 0.51997 0.0
C337 C 0.90842 0.03288 0.55438 0.0
C338 C 0.86989 0.97416 0.56237 0.0
C339 C 0.11671 0.16799 0.88301 0.0
C340 C 0.13039 0.19504 0.85014 0.0
C341 C 0.131 0.12611 0.89134 0.0
C342 C 0.15955 0.10976 0.86712 0.0
H343 H 0.09204 0.17682 0.90174 0.0
H344 H 0.11735 0.10479 0.91643 0.0
S345 S 0.21391 0.17553 0.77993 0.0
N346 N 0.18035 0.208 0.79502 0.0
N347 N 0.20741 0.1296 0.81061 0.0
C348 C 0.17695 0.13949 0.83512 0.0
C349 C 0.16233 0.18203 0.82666 0.0
C350 C 0.01983 0.82399 0.59338 0.0
C351 C 0.03689 0.83311 0.62859 0.0
C352 C 0.96304 0.80394 0.58401 0.0
C353 C 0.92073 0.79177 0.60943 0.0
H354 H 0.051 0.83529 0.57264 0.0
H355 H 0.95283 0.80028 0.55645 0.0
S356 S 0.94149 0.79962 0.70565 0.0
N357 N 1.00558 0.82187 0.68923 0.0
N358 N 0.89895 0.78411 0.6717 0.0
C359 C 0.93639 0.79649 0.64487 0.0
C360 C 0.99438 0.81718 0.65441 0.0
C361 C 0.87633 0.08087 0.83369 0.0
C362 C 0.89539 0.10626 0.86659 0.0
C363 C 0.84067 0.02174 0.83038 0.0
C364 C 0.82183 0.98532 0.85979 0.0
H365 H 0.89112 0.10638 0.81005 0.0
H366 H 0.82911 1.00425 0.80428 0.0
S367 S 0.85374 0.03081 0.95222 0.0
N368 N 0.88861 0.09075 0.92959 0.0
N369 N 0.82104 0.97955 0.92313 0.0
C370 C 0.83746 0.01035 0.893 0.0
C371 C 0.87442 0.07077 0.89644 0.0
C372 C 0.39228 0.16785 0.25959 0.0
C373 C 0.34234 0.15016 0.2793 0.0
C374 C 0.39046 0.16653 0.22299 0.0
C375 C 0.33865 0.14747 0.20548 0.0
H376 H 0.43188 0.17852 0.27242 0.0
H377 H 0.42873 0.17635 0.20852 0.0
S378 S 0.19961 0.11056 0.24535 0.0
N379 N 0.2425 0.12333 0.27878 0.0
N380 N 0.23895 0.12075 0.21012 0.0
C381 C 0.28998 0.13562 0.22491 0.0
C382 C 0.29187 0.13699 0.26191 0.0
C383 C 0.78458 0.7187 0.23739 0.0
C384 C 0.80253 0.68641 0.25678 0.0
C385 C 0.77798 0.71278 0.20138 0.0
C386 C 0.78957 0.67471 0.18295 0.0
H387 H 0.77379 0.74786 0.25016 0.0
H388 H 0.76299 0.7381 0.18799 0.0
S389 S 0.84288 0.58393 0.22081 0.0
N390 N 0.83548 0.61753 0.25472 0.0
N391 N 0.8233 0.60662 0.18631 0.0
C392 C 0.80986 0.64373 0.20163 0.0
C393 C 0.81616 0.64942 0.2387 0.0
C394 C 0.94978 0.24063 0.19366 0.0
C395 C 0.90001 0.23315 0.17767 0.0
C396 C 0.95161 0.23301 0.22949 0.0
C397 C 0.90396 0.21839 0.25084 0.0
H398 H 0.98818 0.25339 0.17855 0.0
H399 H 0.9916 0.24106 0.2406 0.0
S400 S 0.76138 0.18793 0.22136 0.0
N401 N 0.80039 0.20573 0.18537 0.0
N402 N 0.804 0.1917 0.25318 0.0
C403 C 0.853 0.20806 0.23506 0.0
C404 C 0.85099 0.2154 0.19835 0.0
C405 C 0.06713 0.34497 0.69055 0.0
C406 C 0.11731 0.35323 0.67438 0.0
C407 C 0.06314 0.34656 0.7267 0.0
C408 C 0.10949 0.35751 0.74784 0.0
H409 H 0.0296 0.33433 0.67527 0.0
H410 H 0.02282 0.3372 0.73827 0.0
S411 S 0.25262 0.38923 0.7186 0.0
N412 N 0.21614 0.37787 0.68214 0.0
N413 N 0.20859 0.38215 0.75069 0.0
C414 C 0.16141 0.37055 0.73217 0.0
C415 C 0.16541 0.36823 0.69516 0.0
C416 C 0.269 0.92382 0.76387 0.0
C417 C 0.21786 0.88397 0.78005 0.0
C418 C 0.27829 0.9199 0.72838 0.0
C419 C 0.23665 0.87614 0.70775 0.0
H420 H 0.30106 0.95992 0.77838 0.0
H421 H 0.31708 0.95336 0.71655 0.0
S422 S 0.0978 0.75768 0.73849 0.0
N423 N 0.12704 0.79632 0.7738 0.0
N424 N 0.14445 0.78918 0.70653 0.0
C425 C 0.18713 0.83332 0.72411 0.0
C426 C 0.1777 0.83723 0.7605 0.0
C427 C 0.71513 0.84087 0.70978 0.0
C428 C 0.66705 0.80124 0.69127 0.0
C429 C 0.7112 0.85019 0.74514 0.0
C430 C 0.65921 0.81972 0.76308 0.0
H431 H 0.75662 0.86264 0.69734 0.0
H432 H 0.74999 0.87793 0.75913 0.0
S433 S 0.51927 0.71849 0.72504 0.0
N434 N 0.56457 0.73713 0.692 0.0
N435 N 0.55733 0.7545 0.75916 0.0
C436 C 0.6097 0.78463 0.74417 0.0
C437 C 0.61365 0.77521 0.70794 0.0
C438 C 0.28902 0.0395 0.96302 0.0
C439 C 0.26333 0.97966 0.96074 0.0
C440 C 0.31127 0.06792 -0.00559 0.0
C441 C 0.30834 0.03767 0.02492 0.0
H442 H 0.29188 0.0649 0.94036 0.0
H443 H 0.32994 0.11393 -0.00522 0.0
S444 S 0.24712 0.88056 0.03273 0.0
N445 N 0.23756 0.89105 -0.00861 0.0
N446 N 0.27951 0.94451 0.05076 0.0
C447 C 0.28383 0.97782 0.02295 0.0
C448 C 0.26135 0.94883 -0.00923 0.0
C449 C 0.71696 0.72964 0.44918 0.0
C450 C 0.74613 0.6989 0.44633 0.0
C451 C 0.70102 0.74066 0.4816 0.0
C452 C 0.71337 0.72137 0.51262 0.0
H453 H 0.70612 0.74549 0.42619 0.0
H454 H 0.67849 0.7644 0.48216 0.0
S455 S 0.78972 0.63953 0.51968 0.0
N456 N 0.78744 0.64977 0.47732 0.0
N457 N 0.75723 0.67036 0.53863 0.0
C458 C 0.74299 0.6909 0.51033 0.0
C459 C 0.75939 0.67972 0.4771 0.0
C460 C 0.9726 0.31677 0.93802 0.0
C461 C 0.02175 0.31436 0.92963 0.0
C462 C 0.94147 0.29059 0.96822 0.0
C463 C 0.95823 0.26053 -0.00934 0.0
H464 H 0.95903 0.34041 0.92158 0.0
H465 H 0.90543 0.29589 0.9746 0.0
S466 S 0.07838 0.2332 0.97609 0.0
N467 N 0.08257 0.27488 0.94332 0.0
N468 N 0.02302 0.22337 -0.00044 0.0
C469 C 1.00529 0.25452 -0.01899 0.0
C470 C 0.03762 0.28237 0.9507 0.0
C471 C 0.31537 0.98359 0.46112 0.0
C472 C 0.33802 0.04332 0.46068 0.0
C473 C 0.29799 0.95235 0.49237 0.0
C474 C 0.30211 0.97973 0.52423 0.0
H475 H 0.3096 0.9604 0.43699 0.0
H476 H 0.27889 0.90632 0.49133 0.0
S477 S 0.36386 0.13587 0.5379 0.0
N478 N 0.36772 0.12899 0.49529 0.0
N479 N 0.33525 0.07058 0.55404 0.0
C480 C 0.32746 0.03978 0.52441 0.0
C481 C 0.34542 0.07154 0.49264 0.0
C482 C 0.69055 0.67479 -0.01817 0.0
C483 C 0.73101 0.72068 0.0018 0.0
C484 C 0.66429 0.68443 0.9532 0.0
C485 C 0.67678 0.73998 0.94417 0.0
H486 H 0.67839 0.63123 -0.01133 0.0
H487 H 0.63392 0.64821 0.93801 0.0
S488 S 0.78511 0.87482 -0.01556 0.0
N489 N 0.7868 0.82419 0.00764 0.0
N490 N 0.73525 0.84139 0.9549 0.0
C491 C 0.71776 0.78612 0.96326 0.0
C492 C 0.74551 0.77665 -0.00822 0.0
C493 C 0.98914 0.26921 0.4907 0.0
C494 C 0.04763 0.30933 0.49259 0.0
C495 C 0.95853 0.26296 0.46043 0.0
C496 C 0.98544 0.29611 0.43076 0.0
H497 H 0.96653 0.24212 0.51283 0.0
H498 H 0.91388 0.23067 0.46005 0.0
S499 S 0.13699 0.40945 0.42278 0.0
N500 N 0.13085 0.38455 0.46295 0.0
N501 N 0.07313 0.3726 0.40535 0.0
C502 C 0.04359 0.33758 0.43247 0.0
C503 C 0.07476 0.34428 0.46359 0.0
C504 C 0.64593 0.18275 0.05288 0.0
C505 C 0.66797 0.18239 0.08599 0.0
C506 C 0.59002 0.17202 0.04919 0.0
C507 C 0.55402 0.16018 0.07844 0.0
H508 H 0.6729 0.19445 0.02986 0.0
H509 H 0.57589 0.17548 0.02334 0.0
S510 S 0.58895 0.14488 0.17021 0.0
N511 N 0.64779 0.16261 0.148 0.0
N512 N 0.54275 0.14197 0.14119 0.0
C513 C 0.5744 0.15551 0.11138 0.0
C514 C 0.63138 0.1668 0.11511 0.0
C515 C 0.60838 0.44618 0.35361 0.0
C516 C 0.63161 0.46606 0.38693 0.0
C517 C 0.56253 0.39087 0.34888 0.0
C518 C 0.53751 0.3531 0.37726 0.0
H519 H 0.62711 0.47264 0.33065 0.0
H520 H 0.54767 0.37719 0.3225 0.0
S521 S 0.57804 0.3862 0.47047 0.0
N522 N 0.62295 0.44506 0.44927 0.0
N523 N 0.53652 0.34111 0.44035 0.0
C524 C 0.55811 0.37341 0.41101 0.0
C525 C 0.60521 0.42981 0.41583 0.0
C526 C 0.85241 0.43062 0.09359 0.0
C527 C 0.85019 0.41019 0.0595 0.0
C528 C 0.8426 0.47594 0.1001 0.0
C529 C 0.83047 0.50315 0.07281 0.0
H530 H 0.8595 0.41004 0.11577 0.0
H531 H 0.84279 0.48848 0.12701 0.0
S532 S 0.82673 0.47101 0.97829 0.0
N533 N 0.84021 0.4244 -0.00238 0.0
N534 N 0.8218 0.50977 0.00999 0.0
C535 C 0.83166 0.48572 0.03835 0.0
C536 C 0.84144 0.43918 0.03167 0.0
C537 C 0.5832 0.164 0.34569 0.0
C538 C 0.56686 0.15328 0.38112 0.0
C539 C 0.6366 0.17402 0.33444 0.0
C540 C 0.67586 0.17334 0.35805 0.0
H541 H 0.55572 0.16747 0.32659 0.0
H542 H 0.64794 0.18462 0.30717 0.0
S543 S 0.65058 0.13858 0.45275 0.0
N544 N 0.59179 0.13619 0.43911 0.0
N545 N 0.69211 0.15468 0.41797 0.0
C546 C 0.6585 0.15846 0.39311 0.0
C547 C 0.60408 0.1486 0.40464 0.0
C548 C 0.55477 0.38897 0.12025 0.0
C549 C 0.51895 0.34967 0.09506 0.0
C550 C 0.59789 0.44382 0.11074 0.0
C551 C 0.60736 0.46166 0.07557 0.0
H552 H 0.55066 0.37686 0.14756 0.0
H553 H 0.62536 0.47157 0.13111 0.0
S554 S 0.52178 0.37729 -0.00026 0.0
N555 N 0.49303 0.33411 0.03358 0.0
N556 N 0.57422 0.43714 0.01569 0.0
C557 C 0.5701 0.42385 0.05025 0.0
C558 C 0.52586 0.36796 0.05999 0.0
C559 C 0.85168 0.48698 0.38682 0.0
C560 C 0.84362 0.50123 0.35278 0.0
C561 C 0.86014 0.44056 0.39292 0.0
C562 C 0.86125 0.40682 0.36521 0.0
H563 H 0.84883 0.51013 0.40911 0.0
H564 H 0.86405 0.43009 0.41972 0.0
S565 S 0.8499 0.43143 0.2707 0.0
N566 N 0.84272 0.48156 0.29073 0.0
N567 N 0.85895 0.39469 0.302 0.0
C568 C 0.85661 0.42284 0.33084 0.0
C569 C 0.84768 0.4699 0.32469 0.0
C570 C 0.17562 0.62 0.61786 0.0
C571 C 0.18002 0.65995 0.59259 0.0
C572 C 0.16789 0.5666 0.6083 0.0
C573 C 0.16431 0.55073 0.57299 0.0
H574 H 0.18007 0.63062 0.64539 0.0
H575 H 0.16667 0.5384 0.62885 0.0
S576 S 0.16658 0.63701 0.49664 0.0
N577 N 0.17526 0.67795 0.53072 0.0
N578 N 0.16058 0.57747 0.51265 0.0
C579 C 0.16538 0.58892 0.54745 0.0
C580 C 0.1732 0.64347 0.55725 0.0
C581 C 0.40567 0.85033 0.9048 0.0
C582 C 0.37169 0.85322 0.87803 0.0
C583 C 0.45109 0.84111 0.89732 0.0
C584 C 0.46422 0.83398 0.86276 0.0
H585 H 0.39632 0.85372 0.93196 0.0
H586 H 0.47466 0.83745 0.91898 0.0
S587 S 0.39214 0.84347 0.78274 0.0
N588 N 0.35721 0.85249 0.81524 0.0
N589 N 0.44233 0.83498 0.80119 0.0
C590 C 0.43229 0.83938 0.83558 0.0
C591 C 0.38617 0.84909 0.84319 0.0
C592 C 0.44543 0.56616 0.59938 0.0
C593 C 0.4652 0.58759 0.56555 0.0
C594 C 0.38984 0.52154 0.6051 0.0
C595 C 0.35167 0.4962 0.57724 0.0
H596 H 0.47204 0.58578 0.62197 0.0
H597 H 0.37609 0.50849 0.63183 0.0
S598 S 0.38509 0.53038 0.48305 0.0
N599 N 0.44428 0.57549 0.50333 0.0
N600 N 0.33968 0.49146 0.51409 0.0
C601 C 0.37215 0.51418 0.54301 0.0
C602 C 0.42889 0.55991 0.53718 0.0
C603 C 0.13747 0.63498 0.84648 0.0
C604 C 0.15029 0.67193 0.87516 0.0
C605 C 0.13195 0.58092 0.85027 0.0
C606 C 0.13929 0.56142 0.88289 0.0
H607 H 0.13346 0.64856 0.82051 0.0
H608 H 0.12394 0.55517 0.82703 0.0
S609 S 0.16715 0.63913 0.96709 0.0
N610 N 0.16547 0.68334 0.93794 0.0
N611 N 0.15514 0.58162 0.94514 0.0
C612 C 0.1489 0.59659 0.91223 0.0
C613 C 0.15433 0.65179 0.90836 0.0
C614 C 0.42943 0.82479 0.55733 0.0
C615 C 0.40056 0.8292 0.58686 0.0
C616 C 0.47296 0.81143 0.56069 0.0
C617 C 0.48884 0.80144 0.59368 0.0
H618 H 0.41737 0.83014 0.53126 0.0
H619 H 0.49254 0.80652 0.5372 0.0
S620 S 0.43161 0.81413 0.6795 0.0
N621 N 0.39485 0.82737 0.65044 0.0
N622 N 0.47621 0.80195 0.65665 0.0
C623 C 0.46238 0.80845 0.6235 0.0
C624 C 0.41841 0.82246 0.62013 0.0
C625 C 0.39666 0.58424 0.89875 0.0
C626 C 0.43928 0.6146 0.87353 0.0
C627 C 0.34357 0.53832 0.88933 0.0
C628 C 0.33079 0.52109 0.85426 0.0
H629 H 0.40332 0.59739 0.92586 0.0
H630 H 0.31141 0.51822 0.90953 0.0
S631 S 0.43029 0.5803 0.77888 0.0
N632 N 0.46716 0.61949 0.81241 0.0
N633 N 0.36728 0.53352 0.79482 0.0
C634 C 0.37422 0.54843 0.82913 0.0
C635 C 0.42848 0.59503 0.83873 0.0
loop_
_geom_bond_atom_site_label_1
_geom_bond_atom_site_label_2
_geom_bond_distance
_geom_bond_site_symmetry_2
_ccdc_geom_bond_type
Zn0 O6 1.969 . S
Zn0 O7 1.965 . S
Zn0 O11 2.024 . S
Zn0 O16 1.969 . S
Zn1 O8 1.969 . S
Zn1 O14 1.969 . S
Zn1 O15 1.965 . S
Zn1 O17 2.024 . S
C2 O3 1.229 . S
C2 O11 1.058 . S
O3 C2 1.229 . S
C4 O5 1.229 . S
C4 O17 1.058 . S
O5 C4 1.229 . S
O6 Zn0 1.969 . S
O6 C9 1.267 1_545 S
O7 Zn0 1.965 . S
O7 C18 1.260 . S
O8 Zn1 1.969 . S
O8 C18 1.258 . S
C9 O6 1.267 1_565 S
C9 O10 1.228 . S
O10 C9 1.228 . S
O11 Zn0 2.024 . S
O11 C2 1.058 . S
C12 O13 1.228 . S
C12 O14 1.267 . S
O13 C12 1.228 . S
O14 Zn1 1.969 . S
O14 C12 1.267 . S
O15 Zn1 1.965 . S
O15 C19 1.260 . S
O16 Zn0 1.969 . S
O16 C19 1.258 . S
O17 Zn1 2.024 . S
O17 C4 1.058 . S
C18 O7 1.260 . S
C18 O8 1.258 . S
C19 O15 1.260 . S
C19 O16 1.258 . S
Zn20 O26 1.969 . S
Zn20 O27 1.965 . S
Zn20 O31 2.024 . S
Zn20 O36 1.969 . S
Zn21 O28 1.969 . S
Zn21 O34 1.969 . S
Zn21 O35 1.965 . S
Zn21 O37 2.024 . S
C22 O23 1.229 . S
C22 O31 1.058 . S
O23 C22 1.229 . S
C24 O25 1.229 . S
C24 O37 1.058 . S
O25 C24 1.229 . S
O26 Zn20 1.969 . S
O26 C29 1.267 . S
O27 Zn20 1.965 . S
O27 C38 1.260 . S
O28 Zn21 1.969 . S
O28 C38 1.258 . S
C29 O26 1.267 . S
C29 O30 1.228 . S
O30 C29 1.228 . S
O31 Zn20 2.024 . S
O31 C22 1.058 . S
C32 O33 1.228 . S
C32 O34 1.267 . S
O33 C32 1.228 . S
O34 Zn21 1.969 . S
O34 C32 1.267 . S
O35 Zn21 1.965 . S
O35 C39 1.260 . S
O36 Zn20 1.969 . S
O36 C39 1.258 . S
O37 Zn21 2.024 . S
O37 C24 1.058 . S
C38 O27 1.260 . S
C38 O28 1.258 . S
C39 O35 1.260 . S
C39 O36 1.258 . S
Zn40 O46 1.969 . S
Zn40 O47 1.965 . S
Zn40 O51 2.024 . S
Zn40 O56 1.969 . S
Zn41 O48 1.969 . S
Zn41 O54 1.969 . S
Zn41 O55 1.965 . S
Zn41 O57 2.024 . S
C42 O43 1.229 . S
C42 O51 1.058 . S
O43 C42 1.229 . S
C44 O45 1.229 . S
C44 O57 1.058 . S
O45 C44 1.229 . S
O46 Zn40 1.969 . S
O46 C49 1.267 1_655 S
O47 Zn40 1.965 . S
O47 C58 1.260 . S
O48 Zn41 1.969 . S
O48 C58 1.258 . S
C49 O46 1.267 1_455 S
C49 O50 1.228 . S
O50 C49 1.228 . S
O51 Zn40 2.024 . S
O51 C42 1.058 . S
C52 O53 1.228 . S
C52 O54 1.267 . S
O53 C52 1.228 . S
O54 Zn41 1.969 . S
O54 C52 1.267 . S
O55 Zn41 1.965 . S
O55 C59 1.260 . S
O56 Zn40 1.969 . S
O56 C59 1.258 . S
O57 Zn41 2.024 . S
O57 C44 1.058 . S
C58 O47 1.260 . S
C58 O48 1.258 . S
C59 O55 1.260 . S
C59 O56 1.258 . S
Zn60 O66 1.969 . S
Zn60 O67 1.965 . S
Zn60 O71 2.024 . S
Zn60 O76 1.969 . S
Zn61 O68 1.969 . S
Zn61 O74 1.969 . S
Zn61 O75 1.965 . S
Zn61 O77 2.024 . S
C62 O63 1.229 . S
C62 O71 1.058 . S
O63 C62 1.229 . S
C64 O65 1.229 . S
C64 O77 1.058 . S
O65 C64 1.229 . S
O66 Zn60 1.969 . S
O66 C69 1.267 . S
O67 Zn60 1.965 . S
O67 C78 1.260 . S
O68 Zn61 1.969 . S
O68 C78 1.258 . S
C69 O66 1.267 . S
C69 O70 1.228 . S
O70 C69 1.228 . S
O71 Zn60 2.024 . S
O71 C62 1.058 . S
C72 O73 1.228 . S
C72 O74 1.267 1_565 S
O73 C72 1.228 . S
O74 Zn61 1.969 . S
O74 C72 1.267 1_545 S
O75 Zn61 1.965 . S
O75 C79 1.260 . S
O76 Zn60 1.969 . S
O76 C79 1.258 . S
O77 Zn61 2.024 . S
O77 C64 1.058 . S
C78 O67 1.260 . S
C78 O68 1.258 . S
C79 O75 1.260 . S
C79 O76 1.258 . S
Zn80 O86 1.969 . S
Zn80 O87 1.965 . S
Zn80 O91 2.024 . S
Zn80 O96 1.969 . S
Zn81 O88 1.969 . S
Zn81 O94 1.969 . S
Zn81 O95 1.965 . S
Zn81 O97 2.024 . S
C82 O83 1.229 . S
C82 O91 1.058 . S
O83 C82 1.229 . S
C84 O85 1.229 . S
C84 O97 1.058 . S
O85 C84 1.229 . S
O86 Zn80 1.969 . S
O86 C89 1.267 . S
O87 Zn80 1.965 . S
O87 C98 1.260 . S
O88 Zn81 1.969 . S
O88 C98 1.258 . S
C89 O86 1.267 . S
C89 O90 1.228 . S
O90 C89 1.228 . S
O91 Zn80 2.024 . S
O91 C82 1.058 . S
C92 O93 1.228 . S
C92 O94 1.267 . S
O93 C92 1.228 . S
O94 Zn81 1.969 . S
O94 C92 1.267 . S
O95 Zn81 1.965 . S
O95 C99 1.260 . S
O96 Zn80 1.969 . S
O96 C99 1.258 . S
O97 Zn81 2.024 . S
O97 C84 1.058 . S
C98 O87 1.260 . S
C98 O88 1.258 . S
C99 O95 1.260 . S
C99 O96 1.258 . S
Zn100 O106 1.969 . S
Zn100 O107 1.965 . S
Zn100 O111 2.024 . S
Zn100 O116 1.969 . S
Zn101 O108 1.969 . S
Zn101 O114 1.969 . S
Zn101 O115 1.965 . S
Zn101 O117 2.024 . S
C102 O103 1.229 . S
C102 O111 1.058 . S
O103 C102 1.229 . S
C104 O105 1.229 . S
C104 O117 1.058 . S
O105 C104 1.229 . S
O106 Zn100 1.969 . S
O106 C109 1.267 . S
O107 Zn100 1.965 . S
O107 C118 1.260 . S
O108 Zn101 1.969 . S
O108 C118 1.258 . S
C109 O106 1.267 . S
C109 O110 1.228 . S
O110 C109 1.228 . S
O111 Zn100 2.024 . S
O111 C102 1.058 . S
C112 O113 1.228 . S
C112 O114 1.267 1_455 S
O113 C112 1.228 . S
O114 Zn101 1.969 . S
O114 C112 1.267 1_655 S
O115 Zn101 1.965 . S
O115 C119 1.260 . S
O116 Zn100 1.969 . S
O116 C119 1.258 . S
O117 Zn101 2.024 . S
O117 C104 1.058 . S
C118 O107 1.260 . S
C118 O108 1.258 . S
C119 O115 1.260 . S
C119 O116 1.258 . S
Zn120 O126 1.969 . S
Zn120 O127 1.965 . S
Zn120 O131 2.024 . S
Zn120 O136 1.969 . S
Zn121 O128 1.969 . S
Zn121 O134 1.969 . S
Zn121 O135 1.965 . S
Zn121 O137 2.024 . S
C122 O123 1.229 . S
C122 O131 1.058 . S
O123 C122 1.229 . S
C124 O125 1.229 . S
C124 O137 1.058 . S
O125 C124 1.229 . S
O126 Zn120 1.969 . S
O126 C129 1.267 . S
O127 Zn120 1.965 . S
O127 C138 1.260 . S
O128 Zn121 1.969 . S
O128 C138 1.258 . S
C129 O126 1.267 . S
C129 O130 1.228 . S
O130 C129 1.228 . S
O131 Zn120 2.024 . S
O131 C122 1.058 . S
C132 O133 1.228 . S
C132 O134 1.267 1_655 S
O133 C132 1.228 . S
O134 Zn121 1.969 . S
O134 C132 1.267 1_455 S
O135 Zn121 1.965 . S
O135 C139 1.260 . S
O136 Zn120 1.969 . S
O136 C139 1.258 . S
O137 Zn121 2.024 . S
O137 C124 1.058 . S
C138 O127 1.260 . S
C138 O128 1.258 . S
C139 O135 1.260 . S
C139 O136 1.258 . S
Zn140 O146 1.969 . S
Zn140 O147 1.965 . S
Zn140 O151 2.024 . S
Zn140 O156 1.969 . S
Zn141 O148 1.969 . S
Zn141 O154 1.969 . S
Zn141 O155 1.965 . S
Zn141 O157 2.024 . S
C142 O143 1.229 . S
C142 O151 1.058 . S
O143 C142 1.229 . S
C144 O145 1.229 . S
C144 O157 1.058 . S
O145 C144 1.229 . S
O146 Zn140 1.969 . S
O146 C149 1.267 1_565 S
O147 Zn140 1.965 . S
O147 C158 1.260 . S
O148 Zn141 1.969 . S
O148 C158 1.258 . S
C149 O146 1.267 1_545 S
C149 O150 1.228 . S
O150 C149 1.228 . S
O151 Zn140 2.024 . S
O151 C142 1.058 . S
C152 O153 1.228 . S
C152 O154 1.267 . S
O153 C152 1.228 . S
O154 Zn141 1.969 . S
O154 C152 1.267 . S
O155 Zn141 1.965 . S
O155 C159 1.260 . S
O156 Zn140 1.969 . S
O156 C159 1.258 . S
O157 Zn141 2.024 . S
O157 C144 1.058 . S
C158 O147 1.260 . S
C158 O148 1.258 . S
C159 O155 1.260 . S
C159 O156 1.258 . S
Zn160 O166 1.969 . S
Zn160 O167 1.965 . S
Zn160 O171 2.024 . S
Zn160 O176 1.969 . S
Zn161 O168 1.969 . S
Zn161 O174 1.969 . S
Zn161 O175 1.965 . S
Zn161 O177 2.024 . S
C162 O163 1.229 . S
C162 O171 1.058 . S
O163 C162 1.229 . S
C164 O165 1.229 . S
C164 O177 1.058 . S
O165 C164 1.229 . S
O166 Zn160 1.969 . S
O166 C169 1.267 . S
O167 Zn160 1.965 . S
O167 C178 1.260 . S
O168 Zn161 1.969 . S
O168 C178 1.258 . S
C169 O166 1.267 . S
C169 O170 1.228 . S
O170 C169 1.228 . S
O171 Zn160 2.024 . S
O171 C162 1.058 . S
C172 O173 1.228 . S
C172 O174 1.267 . S
O173 C172 1.228 . S
O174 Zn161 1.969 . S
O174 C172 1.267 . S
O175 Zn161 1.965 . S
O175 C179 1.260 . S
O176 Zn160 1.969 . S
O176 C179 1.258 . S
O177 Zn161 2.024 . S
O177 C164 1.058 . S
C178 O167 1.260 . S
C178 O168 1.258 . S
C179 O175 1.260 . S
C179 O176 1.258 . S
Zn180 O186 1.969 . S
Zn180 O187 1.965 . S
Zn180 O191 2.024 . S
Zn180 O196 1.969 . S
Zn181 O188 1.969 . S
Zn181 O194 1.969 . S
Zn181 O195 1.965 . S
Zn181 O197 2.024 . S
C182 O183 1.229 . S
C182 O191 1.058 . S
O183 C182 1.229 . S
C184 O185 1.229 . S
C184 O197 1.058 . S
O185 C184 1.229 . S
O186 Zn180 1.969 . S
O186 C189 1.267 1_455 S
O187 Zn180 1.965 . S
O187 C198 1.260 . S
O188 Zn181 1.969 . S
O188 C198 1.258 . S
C189 O186 1.267 1_655 S
C189 O190 1.228 . S
O190 C189 1.228 . S
O191 Zn180 2.024 . S
O191 C182 1.058 . S
C192 O193 1.228 . S
C192 O194 1.267 . S
O193 C192 1.228 . S
O194 Zn181 1.969 . S
O194 C192 1.267 . S
O195 Zn181 1.965 . S
O195 C199 1.260 . S
O196 Zn180 1.969 . S
O196 C199 1.258 . S
O197 Zn181 2.024 . S
O197 C184 1.058 . S
C198 O187 1.260 . S
C198 O188 1.258 . S
C199 O195 1.260 . S
C199 O196 1.258 . S
Zn200 O206 1.969 . S
Zn200 O207 1.965 . S
Zn200 O211 2.024 . S
Zn200 O216 1.969 . S
Zn201 O208 1.969 . S
Zn201 O214 1.969 . S
Zn201 O215 1.965 . S
Zn201 O217 2.024 . S
C202 O203 1.229 . S
C202 O211 1.058 . S
O203 C202 1.229 . S
C204 O205 1.229 . S
C204 O217 1.058 . S
O205 C204 1.229 . S
O206 Zn200 1.969 . S
O206 C209 1.267 . S
O207 Zn200 1.965 . S
O207 C218 1.260 . S
O208 Zn201 1.969 . S
O208 C218 1.258 . S
C209 O206 1.267 . S
C209 O210 1.228 . S
O210 C209 1.228 . S
O211 Zn200 2.024 . S
O211 C202 1.058 . S
C212 O213 1.228 . S
C212 O214 1.267 1_545 S
O213 C212 1.228 . S
O214 Zn201 1.969 . S
O214 C212 1.267 1_565 S
O215 Zn201 1.965 . S
O215 C219 1.260 . S
O216 Zn200 1.969 . S
O216 C219 1.258 . S
O217 Zn201 2.024 . S
O217 C204 1.058 . S
C218 O207 1.260 . S
C218 O208 1.258 . S
C219 O215 1.260 . S
C219 O216 1.258 . S
Zn220 O226 1.969 . S
Zn220 O227 1.965 . S
Zn220 O231 2.024 . S
Zn220 O236 1.969 . S
Zn221 O228 1.969 . S
Zn221 O234 1.969 . S
Zn221 O235 1.965 . S
Zn221 O237 2.024 . S
C222 O223 1.229 . S
C222 O231 1.058 . S
O223 C222 1.229 . S
C224 O225 1.229 . S
C224 O237 1.058 . S
O225 C224 1.229 . S
O226 Zn220 1.969 . S
O226 C229 1.267 . S
O227 Zn220 1.965 . S
O227 C238 1.260 . S
O228 Zn221 1.969 . S
O228 C238 1.258 . S
C229 O226 1.267 . S
C229 O230 1.228 . S
O230 C229 1.228 . S
O231 Zn220 2.024 . S
O231 C222 1.058 . S
C232 O233 1.228 . S
C232 O234 1.267 . S
O233 C232 1.228 . S
O234 Zn221 1.969 . S
O234 C232 1.267 . S
O235 Zn221 1.965 . S
O235 C239 1.260 . S
O236 Zn220 1.969 . S
O236 C239 1.258 . S
O237 Zn221 2.024 . S
O237 C224 1.058 . S
C238 O227 1.260 . S
C238 O228 1.258 . S
C239 O235 1.260 . S
C239 O236 1.258 . S
C240 C241 1.369 . S
C240 C242 1.419 . S
C240 H244 0.930 . S
C241 C240 1.369 . S
C241 C250 1.429 . S
C242 C240 1.419 . S
C242 C243 1.363 . S
C242 H245 0.929 . S
C243 C242 1.363 . S
C243 C249 1.428 . S
H244 C240 0.930 . S
H245 C242 0.929 . S
S246 N247 1.613 1_455 S
S246 N248 1.610 . S
N247 S246 1.613 1_655 S
N247 C250 1.350 1_655 S
N248 S246 1.610 . S
N248 C249 1.351 . S
C249 C243 1.428 . S
C249 N248 1.351 . S
C249 C250 1.434 . S
C250 C241 1.429 . S
C250 N247 1.350 1_455 S
C250 C249 1.434 . S
C251 C252 1.369 . S
C251 C253 1.419 . S
C251 H255 0.930 . S
C252 C251 1.369 . S
C252 C261 1.429 . S
C253 C251 1.419 . S
C253 C254 1.363 . S
C253 H256 0.929 . S
C254 C253 1.363 . S
C254 C260 1.428 . S
H255 C251 0.930 . S
H256 C253 0.929 . S
S257 N258 1.613 . S
S257 N259 1.610 1_455 S
N258 S257 1.613 . S
N258 C261 1.350 . S
N259 S257 1.610 1_655 S
N259 C260 1.351 1_655 S
C260 C254 1.428 . S
C260 N259 1.351 1_455 S
C260 C261 1.434 . S
C261 C252 1.429 . S
C261 N258 1.350 . S
C261 C260 1.434 . S
C262 C263 1.369 . S
C262 C264 1.419 . S
C262 H266 0.930 1_565 S
C263 C262 1.369 . S
C263 C272 1.429 . S
C264 C262 1.419 . S
C264 C265 1.363 . S
C264 H267 0.929 . S
C265 C264 1.363 . S
C265 C271 1.428 . S
H266 C262 0.930 1_545 S
H267 C264 0.929 . S
S268 N269 1.613 . S
S268 N270 1.610 . S
N269 S268 1.613 . S
N269 C272 1.350 . S
N270 S268 1.610 . S
N270 C271 1.351 . S
C271 C265 1.428 . S
C271 N270 1.351 . S
C271 C272 1.434 . S
C272 C263 1.429 . S
C272 N269 1.350 . S
C272 C271 1.434 . S
C273 C274 1.369 . S
C273 C275 1.419 . S
C273 H277 0.930 . S
C274 C273 1.369 . S
C274 C283 1.429 . S
C275 C273 1.419 . S
C275 C276 1.363 . S
C275 H278 0.929 . S
C276 C275 1.363 . S
C276 C282 1.428 . S
H277 C273 0.930 . S
H278 C275 0.929 . S
S279 N280 1.613 . S
S279 N281 1.610 . S
N280 S279 1.613 . S
N280 C283 1.350 . S
N281 S279 1.610 . S
N281 C282 1.351 . S
C282 C276 1.428 . S
C282 N281 1.351 . S
C282 C283 1.434 . S
C283 C274 1.429 . S
C283 N280 1.350 . S
C283 C282 1.434 . S
C284 C285 1.369 . S
C284 C286 1.419 . S
C284 H288 0.930 . S
C285 C284 1.369 . S
C285 C294 1.429 . S
C286 C284 1.419 . S
C286 C287 1.363 . S
C286 H289 0.929 . S
C287 C286 1.363 . S
C287 C293 1.428 . S
H288 C284 0.930 . S
H289 C286 0.929 . S
S290 N291 1.620 1_565 S
S290 N292 1.610 1_455 S
N291 S290 1.620 1_545 S
N291 C294 1.336 1_545 S
N292 S290 1.610 1_655 S
N292 C293 1.351 1_655 S
C293 C287 1.428 . S
C293 N292 1.351 1_455 S
C293 C294 1.434 . S
C294 C285 1.429 . S
C294 N291 1.336 1_565 S
C294 C293 1.434 . S
C295 C296 1.369 . S
C295 C297 1.419 . S
C295 H299 0.930 . S
C296 C295 1.369 . S
C296 C305 1.429 . S
C297 C295 1.419 . S
C297 C298 1.363 . S
C297 H300 0.929 . S
C298 C297 1.363 . S
C298 C304 1.428 . S
H299 C295 0.930 . S
H300 C297 0.929 . S
S301 N302 1.613 . S
S301 N303 1.610 1_565 S
N302 S301 1.613 . S
N302 C305 1.350 . S
N303 S301 1.610 1_545 S
N303 C304 1.351 1_545 S
C304 C298 1.428 . S
C304 N303 1.351 1_565 S
C304 C305 1.434 . S
C305 C296 1.429 . S
C305 N302 1.350 . S
C305 C304 1.434 . S
C306 C307 1.369 . S
C306 C308 1.419 . S
C306 H310 0.930 . S
C307 C306 1.369 . S
C307 C316 1.429 . S
C308 C306 1.419 . S
C308 C309 1.363 . S
C308 H311 0.929 . S
C309 C308 1.363 . S
C309 C315 1.428 . S
H310 C306 0.930 . S
H311 C308 0.929 . S
S312 N313 1.613 . S
S312 N314 1.610 . S
N313 S312 1.613 . S
N313 C316 1.350 . S
N314 S312 1.610 . S
N314 C315 1.351 . S
C315 C309 1.428 . S
C315 N314 1.351 . S
C315 C316 1.434 . S
C316 C307 1.429 . S
C316 N313 1.350 . S
C316 C315 1.434 . S
C317 C318 1.369 . S
C317 C319 1.419 . S
C317 H321 0.930 1_655 S
C318 C317 1.369 . S
C318 C327 1.429 . S
C319 C317 1.419 . S
C319 C320 1.363 . S
C319 H322 0.929 . S
C320 C319 1.363 . S
C320 C326 1.428 . S
H321 C317 0.930 1_455 S
H322 C319 0.929 . S
S323 N324 1.613 . S
S323 N325 1.610 . S
N324 S323 1.613 . S
N324 C327 1.350 . S
N325 S323 1.610 . S
N325 C326 1.351 . S
C326 C320 1.428 . S
C326 N325 1.351 . S
C326 C327 1.434 . S
C327 C318 1.429 . S
C327 N324 1.350 . S
C327 C326 1.434 . S
C328 C329 1.369 . S
C328 C330 1.419 . S
C328 H332 0.930 . S
C329 C328 1.369 . S
C329 C338 1.429 . S
C330 C328 1.419 . S
C330 C331 1.363 . S
C330 H333 0.929 . S
C331 C330 1.363 . S
C331 C337 1.428 . S
H332 C328 0.930 . S
H333 C330 0.929 . S
S334 N335 1.613 . S
S334 N336 1.610 . S
N335 S334 1.613 . S
N335 C338 1.350 . S
N336 S334 1.610 . S
N336 C337 1.351 . S
C337 C331 1.428 . S
C337 N336 1.351 . S
C337 C338 1.434 . S
C338 C329 1.429 . S
C338 N335 1.350 . S
C338 C337 1.434 . S
C339 C340 1.369 . S
C339 C341 1.419 . S
C339 H343 0.930 . S
C340 C339 1.369 . S
C340 C349 1.429 . S
C341 C339 1.419 . S
C341 C342 1.363 . S
C341 H344 0.929 . S
C342 C341 1.363 . S
C342 C348 1.428 . S
H343 C339 0.930 . S
H344 C341 0.929 . S
S345 N346 1.613 . S
S345 N347 1.610 . S
N346 S345 1.613 . S
N346 C349 1.350 . S
N347 S345 1.610 . S
N347 C348 1.351 . S
C348 C342 1.428 . S
C348 N347 1.351 . S
C348 C349 1.434 . S
C349 C340 1.429 . S
C349 N346 1.350 . S
C349 C348 1.434 . S
C350 C351 1.369 . S
C350 C352 1.419 . S
C350 H354 0.930 . S
C351 C350 1.369 . S
C351 C360 1.429 . S
C352 C350 1.419 . S
C352 C353 1.363 . S
C352 H355 0.929 . S
C353 C352 1.363 . S
C353 C359 1.428 . S
H354 C350 0.930 . S
H355 C352 0.929 . S
S356 N357 1.613 1_655 S
S356 N358 1.610 . S
N357 S356 1.613 1_455 S
N357 C360 1.350 1_455 S
N358 S356 1.610 . S
N358 C359 1.351 . S
C359 C353 1.428 . S
C359 N358 1.351 . S
C359 C360 1.434 . S
C360 C351 1.429 . S
C360 N357 1.350 1_655 S
C360 C359 1.434 . S
C361 C362 1.369 . S
C361 C363 1.419 . S
C361 H365 0.930 . S
C362 C361 1.369 . S
C362 C371 1.429 . S
C363 C361 1.419 . S
C363 C364 1.363 . S
C363 H366 0.929 1_545 S
C364 C363 1.363 . S
C364 C370 1.428 . S
H365 C361 0.930 . S
H366 C363 0.929 1_565 S
S367 N368 1.613 . S
S367 N369 1.610 . S
N368 S367 1.613 . S
N368 C371 1.350 . S
N369 S367 1.610 . S
N369 C370 1.351 . S
C370 C364 1.428 . S
C370 N369 1.351 . S
C370 C371 1.434 . S
C371 C362 1.429 . S
C371 N368 1.350 . S
C371 C370 1.434 . S
C372 C373 1.369 . S
C372 C374 1.419 . S
C372 H376 0.930 . S
C373 C372 1.369 . S
C373 C382 1.429 . S
C374 C372 1.419 . S
C374 C375 1.363 . S
C374 H377 0.929 . S
C375 C374 1.363 . S
C375 C381 1.428 . S
H376 C372 0.930 . S
H377 C374 0.929 . S
S378 N379 1.613 . S
S378 N380 1.610 . S
N379 S378 1.613 . S
N379 C382 1.350 . S
N380 S378 1.610 . S
N380 C381 1.351 . S
C381 C375 1.428 . S
C381 N380 1.351 . S
C381 C382 1.434 . S
C382 C373 1.429 . S
C382 N379 1.350 . S
C382 C381 1.434 . S
C383 C384 1.369 . S
C383 C385 1.419 . S
C383 H387 0.930 . S
C384 C383 1.369 . S
C384 C393 1.429 . S
C385 C383 1.419 . S
C385 C386 1.363 . S
C385 H388 0.929 . S
C386 C385 1.363 . S
C386 C392 1.428 . S
H387 C383 0.930 . S
H388 C385 0.929 . S
S389 N390 1.613 . S
S389 N391 1.610 . S
N390 S389 1.613 . S
N390 C393 1.350 . S
N391 S389 1.610 . S
N391 C392 1.351 . S
C392 C386 1.428 . S
C392 N391 1.351 . S
C392 C393 1.434 . S
C393 C384 1.429 . S
C393 N390 1.350 . S
C393 C392 1.434 . S
C394 C395 1.369 . S
C394 C396 1.419 . S
C394 H398 0.930 . S
C395 C394 1.369 . S
C395 C404 1.429 . S
C396 C394 1.419 . S
C396 C397 1.363 . S
C396 H399 0.929 . S
C397 C396 1.363 . S
C397 C403 1.428 . S
H398 C394 0.930 . S
H399 C396 0.929 . S
S400 N401 1.613 . S
S400 N402 1.610 . S
N401 S400 1.613 . S
N401 C404 1.350 . S
N402 S400 1.610 . S
N402 C403 1.351 . S
C403 C397 1.428 . S
C403 N402 1.351 . S
C403 C404 1.434 . S
C404 C395 1.429 . S
C404 N401 1.350 . S
C404 C403 1.434 . S
C405 C406 1.369 . S
C405 C407 1.419 . S
C405 H409 0.930 . S
C406 C405 1.369 . S
C406 C415 1.429 . S
C407 C405 1.419 . S
C407 C408 1.363 . S
C407 H410 0.929 . S
C408 C407 1.363 . S
C408 C414 1.428 . S
H409 C405 0.930 . S
H410 C407 0.929 . S
S411 N412 1.613 . S
S411 N413 1.610 . S
N412 S411 1.613 . S
N412 C415 1.350 . S
N413 S411 1.610 . S
N413 C414 1.351 . S
C414 C408 1.428 . S
C414 N413 1.351 . S
C414 C415 1.434 . S
C415 C406 1.429 . S
C415 N412 1.350 . S
C415 C414 1.434 . S
C416 C417 1.369 . S
C416 C418 1.419 . S
C416 H420 0.930 . S
C417 C416 1.369 . S
C417 C426 1.429 . S
C418 C416 1.419 . S
C418 C419 1.363 . S
C418 H421 0.929 . S
C419 C418 1.363 . S
C419 C425 1.428 . S
H420 C416 0.930 . S
H421 C418 0.929 . S
S422 N423 1.613 . S
S422 N424 1.610 . S
N423 S422 1.613 . S
N423 C426 1.350 . S
N424 S422 1.610 . S
N424 C425 1.351 . S
C425 C419 1.428 . S
C425 N424 1.351 . S
C425 C426 1.434 . S
C426 C417 1.429 . S
C426 N423 1.350 . S
C426 C425 1.434 . S
C427 C428 1.369 . S
C427 C429 1.419 . S
C427 H431 0.930 . S
C428 C427 1.369 . S
C428 C437 1.429 . S
C429 C427 1.419 . S
C429 C430 1.363 . S
C429 H432 0.929 . S
C430 C429 1.363 . S
C430 C436 1.428 . S
H431 C427 0.930 . S
H432 C429 0.929 . S
S433 N434 1.613 . S
S433 N435 1.610 . S
N434 S433 1.613 . S
N434 C437 1.350 . S
N435 S433 1.610 . S
N435 C436 1.351 . S
C436 C430 1.428 . S
C436 N435 1.351 . S
C436 C437 1.434 . S
C437 C428 1.429 . S
C437 N434 1.350 . S
C437 C436 1.434 . S
C438 C439 1.369 . S
C438 C440 1.419 1_566 S
C438 H442 0.930 . S
C439 C438 1.369 . S
C439 C448 1.429 . S
C440 C438 1.419 1_544 S
C440 C441 1.363 . S
C440 H443 0.929 . S
C441 C440 1.363 . S
C441 C447 1.428 . S
H442 C438 0.930 . S
H443 C440 0.929 . S
S444 N445 1.613 1_554 S
S444 N446 1.610 1_565 S
N445 S444 1.613 1_556 S
N445 C448 1.350 . S
N446 S444 1.610 1_545 S
N446 C447 1.351 . S
C447 C441 1.428 . S
C447 N446 1.351 . S
C447 C448 1.434 1_544 S
C448 C439 1.429 . S
C448 N445 1.350 . S
C448 C447 1.434 1_566 S
C449 C450 1.369 . S
C449 C451 1.419 . S
C449 H453 0.930 . S
C450 C449 1.369 . S
C450 C459 1.429 . S
C451 C449 1.419 . S
C451 C452 1.363 . S
C451 H454 0.929 . S
C452 C451 1.363 . S
C452 C458 1.428 . S
H453 C449 0.930 . S
H454 C451 0.929 . S
S455 N456 1.613 . S
S455 N457 1.610 . S
N456 S455 1.613 . S
N456 C459 1.350 . S
N457 S455 1.610 . S
N457 C458 1.351 . S
C458 C452 1.428 . S
C458 N457 1.351 . S
C458 C459 1.434 . S
C459 C450 1.429 . S
C459 N456 1.350 . S
C459 C458 1.434 . S
C460 C461 1.369 . S
C460 C462 1.419 1_455 S
C460 H464 0.930 . S
C461 C460 1.369 . S
C461 C470 1.429 1_556 S
C462 C460 1.419 1_655 S
C462 C463 1.363 1_556 S
C462 H465 0.929 . S
C463 C462 1.363 1_554 S
C463 C469 1.428 . S
H464 C460 0.930 . S
H465 C462 0.929 . S
S466 N467 1.613 . S
S466 N468 1.610 1_455 S
N467 S466 1.613 . S
N467 C470 1.350 . S
N468 S466 1.610 1_655 S
N468 C469 1.351 . S
C469 C463 1.428 . S
C469 N468 1.351 . S
C469 C470 1.434 1_655 S
C470 C461 1.429 1_554 S
C470 N467 1.350 . S
C470 C469 1.434 1_455 S
C471 C472 1.369 . S
C471 C473 1.419 1_545 S
C471 H475 0.930 . S
C472 C471 1.369 . S
C472 C481 1.429 . S
C473 C471 1.419 1_565 S
C473 C474 1.363 . S
C473 H476 0.929 . S
C474 C473 1.363 . S
C474 C480 1.428 . S
H475 C471 0.930 . S
H476 C473 0.929 . S
S477 N478 1.613 . S
S477 N479 1.610 1_545 S
N478 S477 1.613 . S
N478 C481 1.350 . S
N479 S477 1.610 1_565 S
N479 C480 1.351 . S
C480 C474 1.428 . S
C480 N479 1.351 . S
C480 C481 1.434 1_565 S
C481 C472 1.429 . S
C481 N478 1.350 . S
C481 C480 1.434 1_545 S
C482 C483 1.369 1_556 S
C482 C484 1.419 . S
C482 H486 0.930 . S
C483 C482 1.369 1_554 S
C483 C492 1.429 . S
C484 C482 1.419 . S
C484 C485 1.363 . S
C484 H487 0.929 . S
C485 C484 1.363 . S
C485 C491 1.428 1_556 S
H486 C482 0.930 . S
H487 C484 0.929 . S
S488 N489 1.613 . S
S488 N490 1.610 . S
N489 S488 1.613 . S
N489 C492 1.350 . S
N490 S488 1.610 . S
N490 C491 1.351 . S
C491 C485 1.428 1_554 S
C491 N490 1.351 . S
C491 C492 1.434 . S
C492 C483 1.429 . S
C492 N489 1.350 . S
C492 C491 1.434 . S
C493 C494 1.369 . S
C493 C495 1.419 1_455 S
C493 H497 0.930 . S
C494 C493 1.369 . S
C494 C503 1.429 . S
C495 C493 1.419 1_655 S
C495 C496 1.363 . S
C495 H498 0.929 . S
C496 C495 1.363 . S
C496 C502 1.428 . S
H497 C493 0.930 . S
H498 C495 0.929 . S
S499 N500 1.613 . S
S499 N501 1.610 1_455 S
N500 S499 1.613 . S
N500 C503 1.350 . S
N501 S499 1.610 1_655 S
N501 C502 1.351 . S
C502 C496 1.428 . S
C502 N501 1.351 . S
C502 C503 1.434 1_655 S
C503 C494 1.429 . S
C503 N500 1.350 . S
C503 C502 1.434 1_455 S
C504 C505 1.369 . S
C504 C506 1.419 . S
C504 H508 0.930 . S
C505 C504 1.369 . S
C505 C514 1.429 . S
C506 C504 1.419 . S
C506 C507 1.363 . S
C506 H509 0.929 . S
C507 C506 1.363 . S
C507 C513 1.428 . S
H508 C504 0.930 . S
H509 C506 0.929 . S
S510 N511 1.613 . S
S510 N512 1.610 . S
N511 S510 1.613 . S
N511 C514 1.350 . S
N512 S510 1.610 . S
N512 C513 1.351 . S
C513 C507 1.428 . S
C513 N512 1.351 . S
C513 C514 1.434 . S
C514 C505 1.429 . S
C514 N511 1.350 . S
C514 C513 1.434 . S
C515 C516 1.369 . S
C515 C517 1.419 . S
C515 H519 0.930 . S
C516 C515 1.369 . S
C516 C525 1.429 . S
C517 C515 1.419 . S
C517 C518 1.363 . S
C517 H520 0.929 . S
C518 C517 1.363 . S
C518 C524 1.428 . S
H519 C515 0.930 . S
H520 C517 0.929 . S
S521 N522 1.613 . S
S521 N523 1.610 . S
N522 S521 1.613 . S
N522 C525 1.350 . S
N523 S521 1.610 . S
N523 C524 1.351 . S
C524 C518 1.428 . S
C524 N523 1.351 . S
C524 C525 1.434 . S
C525 C516 1.429 . S
C525 N522 1.350 . S
C525 C524 1.434 . S
C526 C527 1.369 . S
C526 C528 1.419 . S
C526 H530 0.930 . S
C527 C526 1.369 . S
C527 C536 1.429 . S
C528 C526 1.419 . S
C528 C529 1.363 . S
C528 H531 0.929 . S
C529 C528 1.363 . S
C529 C535 1.428 . S
H530 C526 0.930 . S
H531 C528 0.929 . S
S532 N533 1.613 . S
S532 N534 1.610 . S
N533 S532 1.613 . S
N533 C536 1.350 . S
N534 S532 1.610 . S
N534 C535 1.351 . S
C535 C529 1.428 . S
C535 N534 1.351 . S
C535 C536 1.434 . S
C536 C527 1.429 . S
C536 N533 1.350 . S
C536 C535 1.434 . S
C537 C538 1.369 . S
C537 C539 1.419 . S
C537 H541 0.930 . S
C538 C537 1.369 . S
C538 C547 1.429 . S
C539 C537 1.419 . S
C539 C540 1.363 . S
C539 H542 0.929 . S
C540 C539 1.363 . S
C540 C546 1.428 . S
H541 C537 0.930 . S
H542 C539 0.929 . S
S543 N544 1.613 . S
S543 N545 1.610 . S
N544 S543 1.613 . S
N544 C547 1.350 . S
N545 S543 1.610 . S
N545 C546 1.351 . S
C546 C540 1.428 . S
C546 N545 1.351 . S
C546 C547 1.434 . S
C547 C538 1.429 . S
C547 N544 1.350 . S
C547 C546 1.434 . S
C548 C549 1.369 . S
C548 C550 1.419 . S
C548 H552 0.930 . S
C549 C548 1.369 . S
C549 C558 1.429 . S
C550 C548 1.419 . S
C550 C551 1.363 . S
C550 H553 0.929 . S
C551 C550 1.363 . S
C551 C557 1.428 . S
H552 C548 0.930 . S
H553 C550 0.929 . S
S554 N555 1.613 . S
S554 N556 1.610 . S
N555 S554 1.613 . S
N555 C558 1.350 . S
N556 S554 1.610 . S
N556 C557 1.351 . S
C557 C551 1.428 . S
C557 N556 1.351 . S
C557 C558 1.434 . S
C558 C549 1.429 . S
C558 N555 1.350 . S
C558 C557 1.434 . S
C559 C560 1.369 . S
C559 C561 1.419 . S
C559 H563 0.930 . S
C560 C559 1.369 . S
C560 C569 1.429 . S
C561 C559 1.419 . S
C561 C562 1.363 . S
C561 H564 0.929 . S
C562 C561 1.363 . S
C562 C568 1.428 . S
H563 C559 0.930 . S
H564 C561 0.929 . S
S565 N566 1.613 . S
S565 N567 1.610 . S
N566 S565 1.613 . S
N566 C569 1.350 . S
N567 S565 1.610 . S
N567 C568 1.351 . S
C568 C562 1.428 . S
C568 N567 1.351 . S
C568 C569 1.434 . S
C569 C560 1.429 . S
C569 N566 1.350 . S
C569 C568 1.434 . S
C570 C571 1.369 . S
C570 C572 1.419 . S
C570 H574 0.930 . S
C571 C570 1.369 . S
C571 C580 1.429 . S
C572 C570 1.419 . S
C572 C573 1.363 . S
C572 H575 0.929 . S
C573 C572 1.363 . S
C573 C579 1.428 . S
H574 C570 0.930 . S
H575 C572 0.929 . S
S576 N577 1.613 . S
S576 N578 1.610 . S
N577 S576 1.613 . S
N577 C580 1.350 . S
N578 S576 1.610 . S
N578 C579 1.351 . S
C579 C573 1.428 . S
C579 N578 1.351 . S
C579 C580 1.434 . S
C580 C571 1.429 . S
C580 N577 1.350 . S
C580 C579 1.434 . S
C581 C582 1.369 . S
C581 C583 1.419 . S
C581 H585 0.930 . S
C582 C581 1.369 . S
C582 C591 1.429 . S
C583 C581 1.419 . S
C583 C584 1.363 . S
C583 H586 0.929 . S
C584 C583 1.363 . S
C584 C590 1.428 . S
H585 C581 0.930 . S
H586 C583 0.929 . S
S587 N588 1.613 . S
S587 N589 1.610 . S
N588 S587 1.613 . S
N588 C591 1.350 . S
N589 S587 1.610 . S
N589 C590 1.351 . S
C590 C584 1.428 . S
C590 N589 1.351 . S
C590 C591 1.434 . S
C591 C582 1.429 . S
C591 N588 1.350 . S
C591 C590 1.434 . S
C592 C593 1.369 . S
C592 C594 1.419 . S
C592 H596 0.930 . S
C593 C592 1.369 . S
C593 C602 1.429 . S
C594 C592 1.419 . S
C594 C595 1.363 . S
C594 H597 0.929 . S
C595 C594 1.363 . S
C595 C601 1.428 . S
H596 C592 0.930 . S
H597 C594 0.929 . S
S598 N599 1.613 . S
S598 N600 1.610 . S
N599 S598 1.613 . S
N599 C602 1.350 . S
N600 S598 1.610 . S
N600 C601 1.351 . S
C601 C595 1.428 . S
C601 N600 1.351 . S
C601 C602 1.434 . S
C602 C593 1.429 . S
C602 N599 1.350 . S
C602 C601 1.434 . S
C603 C604 1.369 . S
C603 C605 1.419 . S
C603 H607 0.930 . S
C604 C603 1.369 . S
C604 C613 1.429 . S
C605 C603 1.419 . S
C605 C606 1.363 . S
C605 H608 0.929 . S
C606 C605 1.363 . S
C606 C612 1.428 . S
H607 C603 0.930 . S
H608 C605 0.929 . S
S609 N610 1.613 . S
S609 N611 1.610 . S
N610 S609 1.613 . S
N610 C613 1.350 . S
N611 S609 1.610 . S
N611 C612 1.351 . S
C612 C606 1.428 . S
C612 N611 1.351 . S
C612 C613 1.434 . S
C613 C604 1.429 . S
C613 N610 1.350 . S
C613 C612 1.434 . S
C614 C615 1.369 . S
C614 C616 1.419 . S
C614 H618 0.930 . S
C615 C614 1.369 . S
C615 C624 1.429 . S
C616 C614 1.419 . S
C616 C617 1.363 . S
C616 H619 0.929 . S
C617 C616 1.363 . S
C617 C623 1.428 . S
H618 C614 0.930 . S
H619 C616 0.929 . S
S620 N621 1.613 . S
S620 N622 1.610 . S
N621 S620 1.613 . S
N621 C624 1.350 . S
N622 S620 1.610 . S
N622 C623 1.351 . S
C623 C617 1.428 . S
C623 N622 1.351 . S
C623 C624 1.434 . S
C624 C615 1.429 . S
C624 N621 1.350 . S
C624 C623 1.434 . S
C625 C626 1.369 . S
C625 C627 1.419 . S
C625 H629 0.930 . S
C626 C625 1.369 . S
C626 C635 1.429 . S
C627 C625 1.419 . S
C627 C628 1.363 . S
C627 H630 0.929 . S
C628 C627 1.363 . S
C628 C634 1.428 . S
H629 C625 0.930 . S
H630 C627 0.929 . S
S631 N632 1.613 . S
S631 N633 1.610 . S
N632 S631 1.613 . S
N632 C635 1.350 . S
N633 S631 1.610 . S
N633 C634 1.351 . S
C634 C628 1.428 . S
C634 N633 1.351 . S
C634 C635 1.434 . S
C635 C626 1.429 . S
C635 N632 1.350 . S
C635 C634 1.434 . S
C241 C49 1.148 . S
C243 C2 1.213 . S
C252 C72 1.145 . S
C254 C24 1.213 1_455 S
C263 C42 1.222 1_565 S
C265 C89 1.157 . S
C274 C64 1.222 . S
C276 C112 1.152 . S
C285 C9 1.149 . S
C287 C82 1.213 1_455 S
C296 C32 1.150 . S
C298 C104 1.213 1_565 S
C307 C212 1.147 . S
C309 C124 1.213 . S
C318 C142 1.221 1_655 S
C320 C229 1.158 . S
C329 C164 1.219 1_545 S
C331 C132 1.148 . S
C340 C182 1.212 . S
C342 C149 1.153 . S
C351 C204 1.212 1_655 S
C353 C172 1.154 . S
C362 C189 1.156 . S
C364 C222 1.221 1_545 S
C373 C78 1.725 . S
C375 C19 1.725 . S
C384 C38 1.724 . S
C386 C99 1.725 . S
C395 C59 1.730 . S
C397 C118 1.730 . S
C406 C138 1.727 . S
C408 C199 1.727 . S
C417 C159 1.728 . S
C419 C218 1.728 . S
C428 C178 1.730 . S
C430 C239 1.729 . S
C439 C158 2.000 . S
C441 C18 1.997 . S
C450 C39 2.003 . S
C452 C179 1.996 . S
C461 C198 2.004 . S
C463 C58 2.000 . S
C472 C79 2.005 . S
C474 C219 1.998 . S
C483 C98 1.996 . S
C485 C238 2.004 . S
C494 C139 1.999 . S
C496 C119 1.997 . S
C505 C52 1.456 . S
C507 C4 1.301 . S
C516 C22 1.296 . S
C518 C69 1.459 . S
C527 C44 1.298 . S
C529 C92 1.459 . S
C538 C62 1.293 . S
C540 C109 1.459 . S
C549 C12 1.460 . S
C551 C84 1.297 . S
C560 C29 1.456 . S
C562 C102 1.288 . S
C571 C209 1.460 . S
C573 C122 1.299 . S
C582 C144 1.287 . S
C584 C232 1.457 . S
C593 C162 1.289 . S
C595 C129 1.459 . S
C604 C152 1.457 . S
C606 C184 1.288 . S
C615 C202 1.303 . S
C617 C169 1.457 . S
C626 C224 1.289 . S
C628 C192 1.454 . S
