# Generated by pormake.
# Topology fnr, (5)-cn, num edge types: 1
# Building blocks:
#     Node 0, Type 0, BuildingBlock: XOMCOT_clean_sbu_1, # of connection points: 5
#     Node 1, Type 0, BuildingBlock: XOMCOT_clean_sbu_1, # of connection points: 5
#     Node 2, Type 0, BuildingBlock: XOMCOT_clean_sbu_1, # of connection points: 5
#     Node 3, Type 0, BuildingBlock: XOMCOT_clean_sbu_1, # of connection points: 5
#     Node 4, Type 0, BuildingBlock: XOMCOT_clean_sbu_1, # of connection points: 5
#     Node 5, Type 0, BuildingBlock: XOMCOT_clean_sbu_1, # of connection points: 5
#     Node 6, Type 0, BuildingBlock: XOMCOT_clean_sbu_1, # of connection points: 5
#     Node 7, Type 0, BuildingBlock: XOMCOT_clean_sbu_1, # of connection points: 5
#     Node 8, Type 0, BuildingBlock: XOMCOT_clean_sbu_1, # of connection points: 5
#     Node 9, Type 0, BuildingBlock: XOMCOT_clean_sbu_1, # of connection points: 5
#     Node 10, Type 0, BuildingBlock: XOMCOT_clean_sbu_1, # of connection points: 5
#     Node 11, Type 0, BuildingBlock: XOMCOT_clean_sbu_1, # of connection points: 5
#     Edge 12, Type (0, 0), BuildingBlock: EZIPEK_clean_linker_0, # of connection points: 2
#     Edge 13, Type (0, 0), BuildingBlock: EZIPEK_clean_linker_0, # of connection points: 2
#     Edge 14, Type (0, 0), BuildingBlock: EZIPEK_clean_linker_0, # of connection points: 2
#     Edge 15, Type (0, 0), BuildingBlock: EZIPEK_clean_linker_0, # of connection points: 2
#     Edge 16, Type (0, 0), BuildingBlock: EZIPEK_clean_linker_0, # of connection points: 2
#     Edge 17, Type (0, 0), BuildingBlock: EZIPEK_clean_linker_0, # of connection points: 2
#     Edge 18, Type (0, 0), BuildingBlock: EZIPEK_clean_linker_0, # of connection points: 2
#     Edge 19, Type (0, 0), BuildingBlock: EZIPEK_clean_linker_0, # of connection points: 2
#     Edge 20, Type (0, 0), BuildingBlock: EZIPEK_clean_linker_0, # of connection points: 2
#     Edge 21, Type (0, 0), BuildingBlock: EZIPEK_clean_linker_0, # of connection points: 2
#     Edge 22, Type (0, 0), BuildingBlock: EZIPEK_clean_linker_0, # of connection points: 2
#     Edge 23, Type (0, 0), BuildingBlock: EZIPEK_clean_linker_0, # of connection points: 2
#     Edge 24, Type (0, 0), BuildingBlock: EZIPEK_clean_linker_0, # of connection points: 2
#     Edge 25, Type (0, 0), BuildingBlock: EZIPEK_clean_linker_0, # of connection points: 2
#     Edge 26, Type (0, 0), BuildingBlock: EZIPEK_clean_linker_0, # of connection points: 2
#     Edge 27, Type (0, 0), BuildingBlock: EZIPEK_clean_linker_0, # of connection points: 2
#     Edge 28, Type (0, 0), BuildingBlock: EZIPEK_clean_linker_0, # of connection points: 2
#     Edge 29, Type (0, 0), BuildingBlock: EZIPEK_clean_linker_0, # of connection points: 2
#     Edge 30, Type (0, 0), BuildingBlock: EZIPEK_clean_linker_0, # of connection points: 2
#     Edge 31, Type (0, 0), BuildingBlock: EZIPEK_clean_linker_0, # of connection points: 2
#     Edge 32, Type (0, 0), BuildingBlock: EZIPEK_clean_linker_0, # of connection points: 2
#     Edge 33, Type (0, 0), BuildingBlock: EZIPEK_clean_linker_0, # of connection points: 2
#     Edge 34, Type (0, 0), BuildingBlock: EZIPEK_clean_linker_0, # of connection points: 2
#     Edge 35, Type (0, 0), BuildingBlock: EZIPEK_clean_linker_0, # of connection points: 2
#     Edge 36, Type (0, 0), BuildingBlock: EZIPEK_clean_linker_0, # of connection points: 2
#     Edge 37, Type (0, 0), BuildingBlock: EZIPEK_clean_linker_0, # of connection points: 2
#     Edge 38, Type (0, 0), BuildingBlock: EZIPEK_clean_linker_0, # of connection points: 2
#     Edge 39, Type (0, 0), BuildingBlock: EZIPEK_clean_linker_0, # of connection points: 2
#     Edge 40, Type (0, 0), BuildingBlock: EZIPEK_clean_linker_0, # of connection points: 2
#     Edge 41, Type (0, 0), BuildingBlock: EZIPEK_clean_linker_0, # of connection points: 2
# Relax obj value: 0.283
# Max RMSD: 0.191
# Mean RMSD: 0.189
data_MOF--net-fnr--node1-XOMCOT_clean_sbu_1--edge1-EZIPEK_clean_linker_0
_symmetry_space_group_name_H-M    P1
_symmetry_Int_Tables_number       1
_symmetry_cell_setting            triclinic
loop_
_symmetry_equiv_pos_as_xyz
'x, y, z'
_cell_length_a     30.367619
_cell_length_b     30.577885
_cell_length_c     39.363689
_cell_angle_alpha  89.929781
_cell_angle_beta   89.703325
_cell_angle_gamma 119.69011
loop_
_atom_site_label
_atom_site_type_symbol
_atom_site_fract_x
_atom_site_fract_y
_atom_site_fract_z
_atom_type_partial_charge
C0 C 0.43199 0.25869 0.0914 0.0
C1 C 0.40351 0.27986 0.0807 0.0
N2 N 0.38838 0.2645 0.04871 0.0
N3 N 0.43356 0.22901 0.06664 0.0
C4 C 0.40707 0.23387 0.04077 0.0
H5 H 0.45283 0.26679 0.1148 0.0
Co6 Co 0.47342 0.19742 0.06455 0.0
C7 C 0.39161 0.0998 0.03565 0.0
O8 O 0.38052 0.07937 0.06598 0.0
N9 N 0.514 0.16542 0.05928 0.0
C10 C 0.53599 0.10715 0.04791 0.0
C11 C 0.49969 0.11606 0.06229 0.0
C12 C 0.56003 0.18539 0.04385 0.0
N13 N 0.57476 0.15129 0.03699 0.0
O14 O 0.51386 0.24608 0.03041 0.0
H15 H 0.46424 0.08752 0.07294 0.0
H16 H 0.58131 0.22362 0.03516 0.0
O17 O 0.42519 0.14647 0.03183 0.0
C18 C 0.54369 0.2811 0.05082 0.0
O19 O 0.53801 0.2714 0.08363 0.0
N20 N 0.441 0.1594 0.10442 0.0
C21 C 0.41752 0.1534 0.17363 0.0
C22 C 0.3805 0.14427 0.14923 0.0
C23 C 0.39312 0.14779 0.1146 0.0
C24 C 0.47577 0.16439 0.12828 0.0
C25 C 0.46458 0.16086 0.16287 0.0
H26 H 0.36608 0.14633 0.09621 0.0
H27 H 0.51469 0.17741 0.12113 0.0
H28 H 0.40379 0.2175 0.01592 0.0
H29 H 0.39705 0.30683 0.09445 0.0
H30 H 0.53344 0.07075 0.04513 0.0
H31 H 0.34387 0.13904 0.15683 0.0
H32 H 0.49423 0.16886 0.18111 0.0
C33 C 0.15256 0.36973 0.60105 0.0
C34 C 0.106 0.34127 0.58604 0.0
N35 N 0.11363 0.33522 0.55306 0.0
N36 N 0.18944 0.38096 0.57775 0.0
C37 C 0.16441 0.35958 0.54869 0.0
H38 H 0.15913 0.38371 0.62679 0.0
Co39 Co 0.25849 0.42871 0.58258 0.0
C40 C 0.26691 0.34425 0.54405 0.0
O41 O 0.21984 0.30793 0.54775 0.0
N42 N 0.32808 0.4775 0.58575 0.0
C43 C 0.41246 0.51412 0.58376 0.0
C44 C 0.36776 0.46906 0.58711 0.0
C45 C 0.34982 0.52802 0.58205 0.0
N46 N 0.40085 0.55096 0.58023 0.0
O47 O 0.25186 0.46593 0.54504 0.0
H48 H 0.36445 0.43231 0.58956 0.0
H49 H 0.32904 0.54812 0.58106 0.0
O50 O 0.2808 0.38865 0.5551 0.0
C51 C 0.23362 0.48982 0.56145 0.0
O52 O 0.22814 0.48372 0.59457 0.0
N53 N 0.26146 0.39738 0.62316 0.0
C54 C 0.23639 0.35969 0.68917 0.0
C55 C 0.22373 0.32679 0.66165 0.0
C56 C 0.23649 0.34652 0.62867 0.0
C57 C 0.27667 0.42958 0.6501 0.0
C58 C 0.26493 0.41149 0.68332 0.0
H59 H 0.22063 0.3209 0.60787 0.0
H60 H 0.29378 0.46967 0.64589 0.0
H61 H 0.18297 0.36387 0.52438 0.0
H62 H 0.06929 0.32728 0.59808 0.0
H63 H 0.45048 0.51949 0.58382 0.0
H64 H 0.20081 0.28651 0.66543 0.0
H65 H 0.27475 0.43784 0.70411 0.0
C66 C 0.78729 0.16623 0.08811 0.0
C67 C 0.76874 0.11647 0.07981 0.0
N68 N 0.80116 0.11294 0.05783 0.0
N69 N 0.8317 0.19434 0.07185 0.0
C70 C 0.84012 0.16045 0.05511 0.0
H71 H 0.76613 0.18127 0.10093 0.0
Co72 Co 0.85307 0.25988 0.05688 0.0
C73 C 0.95299 0.2574 0.04736 0.0
O74 O 0.94615 0.22729 0.07316 0.0
N75 N 0.87436 0.32478 0.0397 0.0
C76 C 0.90171 0.38551 1.00046 0.0
C77 C 0.89722 0.33995 0.00894 0.0
C78 C 0.86507 0.36186 0.04939 0.0
N79 N 0.88115 0.3988 0.0258 0.0
O80 O 0.8152 0.23075 0.01516 0.0
H81 H 0.90792 0.31813 0.99278 0.0
H82 H 0.84505 0.36101 0.07241 0.0
O83 O 0.91881 0.26864 0.03959 0.0
C84 C 0.77455 0.23369 0.01852 0.0
O85 O 0.77194 0.26014 0.04387 0.0
N86 N 0.87883 0.28555 0.10042 0.0
C87 C 0.87973 0.29227 0.17109 0.0
C88 C 0.922 0.29661 0.15349 0.0
C89 C 0.92119 0.29402 0.11786 0.0
C90 C 0.83975 0.28603 0.11731 0.0
C91 C 0.83963 0.28997 0.15249 0.0
H92 H 0.95368 0.29657 0.10528 0.0
H93 H 0.80631 0.27928 0.1036 0.0
H94 H 0.87153 0.1708 0.03809 0.0
H95 H 0.73132 0.08604 0.08628 0.0
H96 H 0.91759 0.4067 0.97724 0.0
H97 H 0.95405 0.29923 0.16719 0.0
H98 H 0.80648 0.28683 0.16525 0.0
C99 C 0.6835 0.8101 0.61849 0.0
C100 C 0.71215 0.78909 0.60771 0.0
N101 N 0.71254 0.78924 0.57357 0.0
N102 N 0.66655 0.82432 0.59129 0.0
C103 C 0.68407 0.80991 0.56421 0.0
H104 H 0.67323 0.81225 0.64448 0.0
Co105 Co 0.61852 0.84735 0.59153 0.0
C106 C 0.70442 0.92755 0.54613 0.0
O107 O 0.73864 0.91538 0.55485 0.0
N108 N 0.57 0.87003 0.58963 0.0
C109 C 0.54173 0.92262 0.57626 0.0
C110 C 0.58204 0.91877 0.58836 0.0
C111 C 0.52081 0.84494 0.57949 0.0
N112 N 0.50247 0.87596 0.57129 0.0
O113 O 0.57742 0.7946 0.55991 0.0
H114 H 0.61874 0.94993 0.59408 0.0
H115 H 0.49956 0.80488 0.57557 0.0
O116 O 0.6587 0.9019 0.55735 0.0
C117 C 0.55534 0.75807 0.58149 0.0
O118 O 0.57082 0.76642 0.61317 0.0
N119 N 0.65184 0.88992 0.6287 0.0
C120 C 0.69003 0.90508 0.6946 0.0
C121 C 0.72273 0.92832 0.66687 0.0
C122 C 0.70282 0.91969 0.63384 0.0
C123 C 0.61954 0.87223 0.65588 0.0
C124 C 0.6378 0.87929 0.68896 0.0
H125 H 0.729 0.93255 0.6129 0.0
H126 H 0.5795 0.84728 0.65186 0.0
H127 H 0.67486 0.81311 0.53812 0.0
H128 H 0.72966 0.77314 0.6236 0.0
H129 H 0.54176 0.95736 0.57083 0.0
H130 H 0.76338 0.94898 0.67046 0.0
H131 H 0.61139 0.86126 0.7098 0.0
C132 C 0.91824 0.67263 0.09947 0.0
C133 C 0.96601 0.70195 0.08564 0.0
N134 N 0.96087 0.71192 0.05304 0.0
N135 N 0.88323 0.66406 0.07556 0.0
C136 C 0.91043 0.68937 0.04777 0.0
H137 H 0.90978 0.6546 0.12414 0.0
Co138 Co 0.81465 0.61373 0.07524 0.0
C139 C 0.76792 0.67492 0.05562 0.0
O140 O 0.74392 0.66405 0.08486 0.0
N141 N 0.74412 0.562 0.07281 0.0
C142 C 0.66093 0.51141 0.08176 0.0
C143 C 0.70306 0.55591 0.09066 0.0
C144 C 0.72471 0.52069 0.05265 0.0
N145 N 0.67486 0.48937 0.05789 0.0
O146 O 0.8299 0.58606 0.03624 0.0
H147 H 0.70355 0.58029 0.11063 0.0
H148 H 0.74677 0.5108 0.03623 0.0
O149 O 0.798 0.65811 0.04834 0.0
C150 C 0.8433 0.55749 0.05163 0.0
O151 O 0.83762 0.55299 0.08482 0.0
N152 N 0.80501 0.63569 0.1177 0.0
C153 C 0.81435 0.65555 0.18703 0.0
C154 C 0.82972 0.69512 0.16349 0.0
C155 C 0.82504 0.68433 0.12857 0.0
C156 C 0.79021 0.59744 0.1407 0.0
C157 C 0.7931 0.60632 0.17531 0.0
H158 H 0.84081 0.715 0.1104 0.0
H159 H 0.77872 0.55972 0.13221 0.0
H160 H 0.8938 0.68642 0.02302 0.0
H161 H 1.00163 0.71149 0.09765 0.0
H162 H 0.62399 0.49457 0.09386 0.0
H163 H 0.84784 0.73382 0.17197 0.0
H164 H 0.78237 0.57524 0.19284 0.0
C165 C 0.27247 0.89006 0.60069 0.0
C166 C 0.28728 0.93718 0.58809 0.0
N167 N 0.25728 0.9331 0.56168 0.0
N168 N 0.23357 0.85568 0.58226 0.0
C169 C 0.22375 0.88294 0.55949 0.0
H170 H 0.29182 0.88102 0.62008 0.0
Co171 Co 0.21419 0.78759 0.58591 0.0
C172 C 0.1063 0.73035 0.56638 0.0
O173 O 0.09968 0.7056 0.59494 0.0
N174 N 0.19654 0.71773 0.58951 0.0
C175 C 0.17812 0.64167 0.60872 0.0
C176 C 0.179 0.68587 0.61649 0.0
C177 C 0.20451 0.69058 0.5653 0.0
N178 N 0.1948 0.64495 0.57669 0.0
O179 O 0.25759 0.79646 0.54679 0.0
H180 H 0.16737 0.69344 0.64066 0.0
H181 H 0.2186 0.70426 0.53999 0.0
O182 O 0.15101 0.76617 0.55826 0.0
C183 C 0.29867 0.80173 0.55971 0.0
O184 O 0.29899 0.79358 0.59247 0.0
N185 N 0.18187 0.78619 0.62704 0.0
C186 C 0.17273 0.82295 0.68985 0.0
C187 C 0.1422 0.82091 0.66268 0.0
C188 C 0.14779 0.80281 0.63118 0.0
C189 C 0.21117 0.78764 0.65361 0.0
C190 C 0.20644 0.80479 0.68536 0.0
H191 H 0.12844 0.80691 0.60966 0.0
H192 H 0.24122 0.77894 0.64948 0.0
H193 H 0.19491 0.86603 0.54021 0.0
H194 H 0.32057 0.97149 0.59596 0.0
H195 H 0.167 0.60978 0.62553 0.0
H196 H 0.11692 0.83621 0.6652 0.0
H197 H 0.23143 0.80707 0.70567 0.0
C198 C 0.90888 0.57271 0.41192 0.0
C199 C 0.91628 0.53171 0.41317 0.0
N200 N 0.88942 0.50242 0.4395 0.0
N201 N 0.87649 0.56898 0.4369 0.0
C202 C 0.86667 0.52638 0.45393 0.0
H203 H 0.9251 0.60273 0.39329 0.0
Co204 Co 0.85343 0.61597 0.44512 0.0
C205 C 0.74999 0.51546 0.44923 0.0
O206 O 0.76624 0.48582 0.43783 0.0
N207 N 0.82869 0.66224 0.45435 0.0
C208 C 0.78038 0.69852 0.45028 0.0
C209 C 0.79893 0.6718 0.43348 0.0
C210 C 0.82601 0.68303 0.48437 0.0
N211 N 0.79715 0.70544 0.48228 0.0
O212 O 0.8757 0.62101 0.49159 0.0
H213 H 0.78769 0.65739 0.40812 0.0
H214 H 0.84186 0.67905 0.50793 0.0
O215 O 0.78099 0.56263 0.45313 0.0
C216 C 0.9224 0.65558 0.48797 0.0
O217 O 0.93759 0.67646 0.45785 0.0
N218 N 0.84275 0.61845 0.39831 0.0
C219 C 0.8389 0.63735 0.32959 0.0
C220 C 0.81118 0.58817 0.34248 0.0
C221 C 0.81424 0.57934 0.37707 0.0
C222 C 0.87323 0.66558 0.38535 0.0
C223 C 0.87066 0.67623 0.35129 0.0
H224 H 0.79383 0.54134 0.38655 0.0
H225 H 0.8983 0.69569 0.402 0.0
H226 H 0.84186 0.51213 0.47589 0.0
H227 H 0.93783 0.52287 0.39522 0.0
H228 H 0.75377 0.70916 0.44044 0.0
H229 H 0.78744 0.55709 0.32597 0.0
H230 H 0.89352 0.71437 0.34187 0.0
C231 C 0.15584 0.79025 0.90368 0.0
C232 C 0.11025 0.77605 0.91964 0.0
N233 N 0.11889 0.78446 0.95313 0.0
N234 N 0.19312 0.8079 0.92702 0.0
C235 C 0.16927 0.80362 0.95699 0.0
H236 H 0.16104 0.78577 0.87698 0.0
Co237 Co 0.26139 0.82688 0.92046 0.0
C238 C 0.3173 0.92967 0.94589 0.0
O239 O 0.34171 0.93996 0.91672 0.0
N240 N 0.33176 0.84582 0.91559 0.0
C241 C 0.40902 0.86289 0.89857 0.0
C242 C 0.36436 0.86039 0.88882 0.0
C243 C 0.35889 0.84183 0.94151 0.0
N244 N 0.40517 0.85078 0.93164 0.0
O245 O 0.25317 0.77768 0.95492 0.0
H246 H 0.35689 0.86803 0.86342 0.0
H247 H 0.34433 0.83035 0.96704 0.0
O248 O 0.28242 0.88426 0.95242 0.0
C249 C 0.24799 0.74137 0.93588 0.0
O250 O 0.25595 0.75007 0.90311 0.0
N251 N 0.26289 0.86499 0.88236 0.0
C252 C 0.22897 0.88218 0.82085 0.0
C253 C 0.22888 0.90836 0.85005 0.0
C254 C 0.24566 0.89876 0.88093 0.0
C255 C 0.26367 0.84036 0.85373 0.0
C256 C 0.24825 0.84932 0.82272 0.0
H257 H 0.24004 0.91457 0.90392 0.0
H258 H 0.27235 0.81022 0.85531 0.0
H259 H 0.18803 0.81194 0.98136 0.0
H260 H 0.07325 0.75828 0.90792 0.0
H261 H 0.44123 0.87129 0.8824 0.0
H262 H 0.21279 0.93302 0.84946 0.0
H263 H 0.24767 0.82765 0.80077 0.0
C264 C 0.46314 0.34266 0.40359 0.0
C265 C 0.50517 0.39 0.40656 0.0
N266 N 0.53877 0.38686 0.42731 0.0
N267 N 0.46961 0.30996 0.423 0.0
C268 C 0.51564 0.3382 0.43739 0.0
H269 H 0.42977 0.33281 0.38861 0.0
Co270 Co 0.42415 0.24107 0.43036 0.0
C271 C 0.49909 0.20254 0.43246 0.0
O272 O 0.47473 0.16972 0.40863 0.0
N273 N 0.37816 0.16995 0.43872 0.0
C274 C 0.34581 0.08671 0.4361 0.0
C275 C 0.37256 0.13121 0.41908 0.0
C276 C 0.34998 0.14622 0.46681 0.0
N277 N 0.33102 0.09552 0.46631 0.0
O278 O 0.41454 0.25778 0.47647 0.0
H279 H 0.38824 0.13411 0.39401 0.0
H280 H 0.34418 0.16566 0.48757 0.0
O281 O 0.48309 0.23186 0.44334 0.0
C282 C 0.38172 0.27236 0.47345 0.0
O283 O 0.36113 0.26827 0.4435 0.0
N284 N 0.42848 0.22889 0.3839 0.0
C285 C 0.42109 0.20522 0.31523 0.0
C286 C 0.4685 0.22942 0.33106 0.0
C287 C 0.47151 0.24201 0.36547 0.0
C288 C 0.38297 0.21022 0.36783 0.0
C289 C 0.37811 0.1967 0.33367 0.0
H290 H 0.50811 0.26165 0.37729 0.0
H291 H 0.34972 0.2037 0.38212 0.0
H292 H 0.53208 0.32358 0.45528 0.0
H293 H 0.51106 0.42394 0.39389 0.0
H294 H 0.33867 0.05036 0.42702 0.0
H295 H 0.50269 0.23839 0.31696 0.0
H296 H 0.34124 0.17977 0.32175 0.0
C297 C 0.28142 0.36685 0.90909 0.0
C298 C 0.30177 0.33913 0.92249 0.0
N299 N 0.29211 0.334 0.95608 0.0
N300 N 0.25884 0.37889 0.93414 0.0
C301 C 0.26641 0.3586 0.96256 0.0
H302 H 0.28591 0.38052 0.88329 0.0
Co303 Co 0.23172 0.42244 0.93176 0.0
C304 C 0.13206 0.34875 0.96511 0.0
O305 O 0.10981 0.33521 0.93556 0.0
N306 N 0.20442 0.46738 0.93151 0.0
C307 C 0.14901 0.49506 0.93554 0.0
C308 C 0.1549 0.4541 0.92956 0.0
C309 C 0.22805 0.51787 0.93716 0.0
N310 N 0.1951 0.53545 0.93989 0.0
O311 O 0.28232 0.46507 0.96433 0.0
H312 H 0.12434 0.41718 0.92383 0.0
H313 H 0.26858 0.54171 0.93936 0.0
O314 O 0.17957 0.38133 0.96721 0.0
C315 C 0.31822 0.4909 0.94298 0.0
O316 O 0.30727 0.48447 0.91041 0.0
N317 N 0.19143 0.38565 0.89398 0.0
C318 C 0.18146 0.3493 0.82776 0.0
C319 C 0.16836 0.31631 0.85547 0.0
C320 C 0.17439 0.33544 0.88853 0.0
C321 C 0.19986 0.41681 0.86684 0.0
C322 C 0.19471 0.39932 0.83366 0.0
H323 H 0.1706 0.31095 0.90955 0.0
H324 H 0.21664 0.45691 0.87041 0.0
H325 H 0.25601 0.36435 0.98782 0.0
H326 H 0.32479 0.32667 0.90911 0.0
H327 H 0.11364 0.49562 0.93533 0.0
H328 H 0.1582 0.27736 0.85167 0.0
H329 H 0.20526 0.4258 0.81274 0.0
C330 C 0.7111 0.1507 0.39362 0.0
C331 C 0.66481 0.14837 0.39681 0.0
N332 N 0.66464 0.1711 0.42602 0.0
N333 N 0.74011 0.17546 0.42051 0.0
C334 C 0.71025 0.1863 0.44022 0.0
H335 H 0.72351 0.13684 0.37249 0.0
Co336 Co 0.80701 0.19107 0.42774 0.0
C337 C 0.85942 0.30244 0.44234 0.0
O338 O 0.89642 0.30706 0.42248 0.0
N339 N 0.87398 0.20467 0.43622 0.0
C340 C 0.94372 0.19759 0.43844 0.0
C341 C 0.89801 0.18141 0.42261 0.0
C342 C 0.90491 0.2325 0.46176 0.0
N343 N 0.94782 0.2298 0.4629 0.0
O344 O 0.78677 0.15337 0.47012 0.0
H345 H 0.88256 0.15193 0.40393 0.0
H346 H 0.89565 0.25308 0.48006 0.0
O347 O 0.82196 0.25795 0.44866 0.0
C348 C 0.76807 0.1069 0.46186 0.0
O349 O 0.76241 0.09577 0.42935 0.0
N350 N 0.82461 0.22078 0.38368 0.0
C351 C 0.8454 0.25083 0.31565 0.0
C352 C 0.82866 0.27527 0.338 0.0
C353 C 0.81747 0.25895 0.37186 0.0
C354 C 0.8367 0.19435 0.36129 0.0
C355 C 0.84901 0.20968 0.3276 0.0
H356 H 0.80141 0.27586 0.38806 0.0
H357 H 0.83376 0.15924 0.36888 0.0
H358 H 0.72217 0.20636 0.46403 0.0
H359 H 0.63471 0.1338 0.37824 0.0
H360 H 0.97114 0.18559 0.43317 0.0
H361 H 0.82281 0.30553 0.32909 0.0
H362 H 0.85885 0.18803 0.31053 0.0
C363 C 0.66099 0.90797 0.92595 0.0
C364 C 0.68935 0.95335 0.94203 0.0
N365 N 0.71062 0.94569 0.96972 0.0
N366 N 0.66437 0.87187 0.94347 0.0
C367 C 0.6956 0.89616 0.96969 0.0
H368 H 0.63783 0.90132 0.90368 0.0
Co369 Co 0.62561 0.80254 0.9364 0.0
C370 C 0.7053 0.77937 0.96276 0.0
O371 O 0.72309 0.77948 0.93232 0.0
N372 N 0.5855 0.73121 0.93125 0.0
C373 C 0.56433 0.65021 0.9312 0.0
C374 C 0.60272 0.69861 0.92584 0.0
C375 C 0.53538 0.70088 0.938 0.0
N376 N 0.52174 0.65157 0.93853 0.0
O377 O 0.58302 0.80001 0.97361 0.0
H378 H 0.64091 0.70881 0.9189 0.0
H379 H 0.50912 0.71424 0.94287 0.0
O380 O 0.66997 0.79028 0.96682 0.0
C381 C 0.55299 0.81114 0.95797 0.0
O382 O 0.55583 0.81459 0.92465 0.0
N383 N 0.66301 0.80916 0.89594 0.0
C384 C 0.69748 0.84708 0.83062 0.0
C385 C 0.73018 0.86621 0.8584 0.0
C386 C 0.71215 0.84673 0.89099 0.0
C387 C 0.63215 0.78837 0.86853 0.0
C388 C 0.64885 0.8063 0.83571 0.0
H389 H 0.73621 0.8653 0.91249 0.0
H390 H 0.59242 0.76153 0.87205 0.0
H391 H 0.70569 0.87782 0.9892 0.0
H392 H 0.69312 0.98913 0.9345 0.0
H393 H 0.5672 0.61639 0.92927 0.0
H394 H 0.7679 0.89821 0.85527 0.0
H395 H 0.62246 0.79123 0.81479 0.0
C396 C 0.69781 0.2216 0.98858 0.0
C397 C 0.7252 0.1994 1.00211 0.0
C398 C 0.65012 0.13829 0.03287 0.0
C399 C 0.6225 0.1617 0.02123 0.0
N400 N 0.61483 0.21051 0.97565 0.0
N401 N 0.71564 0.11955 0.01685 0.0
C402 C 0.64458 0.19853 0.99487 0.0
C403 C 0.69709 0.15162 0.01717 0.0
N404 N 0.72335 0.26612 0.97146 0.0
N405 N 0.63514 0.10745 0.06063 0.0
H406 H 0.74922 0.1295 0.00399 0.0
H407 H 0.69467 0.08241 0.02544 0.0
H408 H 0.60594 0.10277 0.07681 0.0
H409 H 0.65656 0.09208 0.07007 0.0
H410 H 0.70666 0.28734 0.9642 0.0
H411 H 0.76201 0.2821 0.96596 0.0
H412 H 0.62876 0.23512 0.95499 0.0
H413 H 0.57541 0.19113 0.97806 0.0
C414 C 0.46852 0.62428 0.54871 0.0
C415 C 0.43583 0.60435 0.57736 0.0
C416 C 0.47039 0.68919 0.60018 0.0
C417 C 0.50935 0.70828 0.57478 0.0
N418 N 0.54736 0.69214 0.52586 0.0
N419 N 0.41147 0.61667 0.63312 0.0
C420 C 0.50857 0.67552 0.5489 0.0
C421 C 0.43789 0.63659 0.60361 0.0
N422 N 0.46067 0.59426 0.52119 0.0
N423 N 0.46461 0.72123 0.62155 0.0
H424 H 0.38907 0.57806 0.63732 0.0
H425 H 0.41599 0.63801 0.65478 0.0
H426 H 0.48855 0.76001 0.62151 0.0
H427 H 0.43322 0.70961 0.63749 0.0
H428 H 0.48011 0.60752 0.49825 0.0
H429 H 0.43129 0.55698 0.52043 0.0
H430 H 0.55191 0.66836 0.50906 0.0
H431 H 0.57693 0.72923 0.52493 0.0
C432 C 0.91359 0.48545 0.04507 0.0
C433 C 0.87707 0.44352 0.02701 0.0
C434 C 0.83434 0.49046 0.01083 0.0
C435 C 0.86394 0.52778 0.03493 0.0
N436 N 0.93506 0.56341 0.07343 0.0
N437 N 0.80221 0.40405 0.99273 0.0
C438 C 0.90527 0.52648 0.05106 0.0
C439 C 0.83762 0.44566 0.00946 0.0
N440 N 0.95615 0.48568 0.05643 0.0
N441 N 0.80366 0.4979 0.98923 0.0
H442 H 0.80411 0.37096 0.99134 0.0
H443 H 0.76932 0.40111 0.98246 0.0
H444 H 0.80302 0.53162 0.98838 0.0
H445 H 0.78357 0.47331 0.96964 0.0
H446 H 0.98703 0.51711 0.06686 0.0
H447 H 0.96227 0.45528 0.0529 0.0
H448 H 0.96116 0.56138 0.08945 0.0
H449 H 0.93226 0.59566 0.0769 0.0
C450 C 0.42576 0.82149 0.53585 0.0
C451 C 0.45203 0.8623 0.55895 0.0
C452 C 0.38064 0.87769 0.55474 0.0
C453 C 0.34923 0.82868 0.54282 0.0
N454 N 0.34323 0.75575 0.51621 0.0
N455 N 0.44606 0.92354 0.59528 0.0
C456 C 0.37239 0.80116 0.53126 0.0
C457 C 0.42772 0.88977 0.56932 0.0
N458 N 0.45179 0.80387 0.51742 0.0
N459 N 0.36419 0.91161 0.55348 0.0
H460 H 0.47547 0.92772 0.61086 0.0
H461 H 0.42702 0.9418 0.60426 0.0
H462 H 0.33046 0.90268 0.54107 0.0
H463 H 0.3868 0.94907 0.56075 0.0
H464 H 0.43492 0.77612 0.49896 0.0
H465 H 0.49125 0.82149 0.51763 0.0
H466 H 0.35673 0.73151 0.50961 0.0
H467 H 0.30482 0.74231 0.51149 0.0
C468 C 0.6585 0.40323 0.06762 0.0
C469 C 0.64776 0.43669 0.04954 0.0
C470 C 0.57654 0.3654 0.02096 0.0
C471 C 0.58576 0.33185 0.04078 0.0
N472 N 0.64621 0.31959 0.07331 0.0
N473 N 0.60496 0.45251 0.00438 0.0
C474 C 0.63073 0.35124 0.06047 0.0
C475 C 0.60957 0.41854 0.02441 0.0
N476 N 0.69258 0.42062 0.09366 0.0
N477 N 0.53532 0.34671 1.00022 0.0
H478 H 0.62855 0.49128 0.0072 0.0
H479 H 0.58042 0.44281 0.98389 0.0
H480 H 0.51206 0.30837 0.99598 0.0
H481 H 0.52372 0.36887 0.98727 0.0
H482 H 0.69727 0.39711 0.11064 0.0
H483 H 0.71309 0.45839 0.10051 0.0
H484 H 0.68172 0.33216 0.0841 0.0
H485 H 0.62554 0.28081 0.07063 0.0
C486 C 0.17007 0.51733 0.55252 0.0
C487 C 0.2201 0.52625 0.54657 0.0
C488 C 0.25285 0.61658 0.55318 0.0
C489 C 0.20304 0.60754 0.55992 0.0
N490 N 0.11346 0.55183 0.55572 0.0
N491 N 0.30467 0.58473 0.52811 0.0
C492 C 0.16136 0.5587 0.55545 0.0
C493 C 0.25978 0.5762 0.5418 0.0
N494 N 0.13178 0.46962 0.55895 0.0
N495 N 0.2937 0.66198 0.56091 0.0
H496 H 0.30969 0.55514 0.51962 0.0
H497 H 0.33428 0.62067 0.52231 0.0
H498 H 0.29021 0.69164 0.57093 0.0
H499 H 0.33081 0.66853 0.56012 0.0
H500 H 0.09583 0.46118 0.56736 0.0
H501 H 0.13742 0.43878 0.55827 0.0
H502 H 0.08149 0.51775 0.54969 0.0
H503 H 0.10664 0.58176 0.55904 0.0
C504 C 0.83414 0.41058 0.43209 0.0
C505 C 0.87853 0.45123 0.44562 0.0
C506 C 0.90548 0.39154 0.46511 0.0
C507 C 0.85999 0.35052 0.45205 0.0
N508 N 0.77361 0.32222 0.43543 0.0
N509 N 0.9529 0.48078 0.47972 0.0
C510 C 0.82189 0.36036 0.43963 0.0
C511 C 0.913 0.44168 0.46385 0.0
N512 N 0.80519 0.4198 0.40999 0.0
N513 N 0.94182 0.38247 0.47811 0.0
H514 H 0.95933 0.51757 0.47819 0.0
H515 H 0.97744 0.47649 0.49596 0.0
H516 H 0.93569 0.34607 0.48183 0.0
H517 H 0.97817 0.41065 0.4844 0.0
H518 H 0.77497 0.39139 0.39669 0.0
H519 H 0.81499 0.45606 0.40208 0.0
H520 H 0.74366 0.32856 0.43005 0.0
H521 H 0.76257 0.28544 0.44198 0.0
C522 C 0.48854 0.88255 0.95923 0.0
C523 C 0.4403 0.84161 0.95065 0.0
C524 C 0.46537 0.78289 0.97377 0.0
C525 C 0.51584 0.82209 0.97455 0.0
N526 N 0.57402 0.90971 0.97982 0.0
N527 N 0.38319 0.75191 0.94809 0.0
C528 C 0.52647 0.87239 0.97188 0.0
C529 C 0.42814 0.79144 0.9584 0.0
N530 N 0.49839 0.93058 0.95343 0.0
N531 N 0.45414 0.73729 0.98682 0.0
H532 H 0.35606 0.75654 0.93499 0.0
H533 H 0.37455 0.71451 0.95008 0.0
H534 H 0.48228 0.73259 0.99855 0.0
H535 H 0.41737 0.70707 0.98914 0.0
H536 H 0.53268 0.96271 0.95857 0.0
H537 H 0.47152 0.93824 0.94294 0.0
H538 H 0.5865 0.94803 0.97822 0.0
H539 H 0.60064 0.90101 0.98961 0.0
C540 C 0.67198 0.49663 0.4173 0.0
C541 C 0.69398 0.49515 0.44852 0.0
C542 C 0.60902 0.43268 0.46883 0.0
C543 C 0.59034 0.42571 0.43499 0.0
N544 N 0.61101 0.44519 0.37536 0.0
N545 N 0.68306 0.46022 0.50469 0.0
C546 C 0.62351 0.45643 0.4087 0.0
C547 C 0.66228 0.46277 0.47463 0.0
N548 N 0.69722 0.53654 0.39589 0.0
N549 N 0.5759 0.41212 0.49538 0.0
H550 H 0.72141 0.48368 0.51002 0.0
H551 H 0.66271 0.43339 0.52336 0.0
H552 H 0.53672 0.39302 0.49202 0.0
H553 H 0.5871 0.41896 0.52069 0.0
H554 H 0.68157 0.54057 0.37339 0.0
H555 H 0.73015 0.56853 0.40352 0.0
H556 H 0.63615 0.46485 0.3556 0.0
H557 H 0.57886 0.41251 0.36754 0.0
C558 C 0.18718 0.65249 0.92472 0.0
C559 C 0.22502 0.68764 0.94656 0.0
C560 C 0.23553 0.61864 0.96976 0.0
C561 C 0.20599 0.58713 0.94262 0.0
N562 N 0.16391 0.58024 0.88943 0.0
N563 N 0.28525 0.70427 0.99106 0.0
C564 C 0.18413 0.60556 0.91895 0.0
C565 C 0.24896 0.6707 0.96981 0.0
N566 N 0.15517 0.66486 0.90856 0.0
N567 N 0.2494 0.59856 0.99575 0.0
H568 H 0.29391 0.74175 0.99248 0.0
H569 H 0.30814 0.69553 0.00591 0.0
H570 H 0.23846 0.56044 0.99688 0.0
H571 H 0.26761 0.61853 0.01751 0.0
H572 H 0.12435 0.63912 0.8943 0.0
H573 H 0.15652 0.69919 0.91265 0.0
H574 H 0.15122 0.59454 0.87012 0.0
H575 H 0.16592 0.54844 0.88233 0.0
C576 C 0.54753 0.16722 0.46141 0.0
C577 C 0.54827 0.2074 0.44284 0.0
C578 C 0.63079 0.22885 0.4182 0.0
C579 C 0.62874 0.18701 0.43511 0.0
N580 N 0.59228 0.1228 0.47792 0.0
N581 N 0.59708 0.2855 0.41273 0.0
C582 C 0.58954 0.15861 0.45877 0.0
C583 C 0.59233 0.24141 0.42445 0.0
N584 N 0.5054 0.13608 0.48009 0.0
N585 N 0.66814 0.25487 0.39474 0.0
H586 H 0.56952 0.29541 0.41741 0.0
H587 H 0.63005 0.31415 0.4017 0.0
H588 H 0.69803 0.24791 0.39052 0.0
H589 H 0.66836 0.28171 0.37833 0.0
H590 H 0.49943 0.10287 0.49154 0.0
H591 H 0.47553 0.14341 0.48347 0.0
H592 H 0.56701 0.10273 0.49744 0.0
H593 H 0.62225 0.11546 0.47551 0.0
C594 C 0.3892 0.567 0.97353 0.0
C595 C 0.37262 0.52514 0.9515 0.0
C596 C 0.45329 0.56781 0.92095 0.0
C597 C 0.47167 0.60863 0.94375 0.0
N598 N 0.46263 0.63769 0.99885 0.0
N599 N 0.39895 0.47851 0.91554 0.0
C600 C 0.4413 0.60557 0.97232 0.0
C601 C 0.40835 0.52317 0.92919 0.0
N602 N 0.35563 0.57119 0.99449 0.0
N603 N 0.47654 0.57235 0.89035 0.0
H604 H 0.36781 0.44492 0.92338 0.0
H605 H 0.42528 0.47473 0.90054 0.0
H606 H 0.50643 0.60634 0.88152 0.0
H607 H 0.46173 0.54405 0.87207 0.0
H608 H 0.36511 0.60375 0.00827 0.0
H609 H 0.3178 0.54313 0.99664 0.0
H610 H 0.44306 0.6346 0.02137 0.0
H611 H 0.5013 0.66379 0.99953 0.0
C612 C 0.41891 0.22442 0.25362 0.0
C613 C 0.41647 0.19038 0.27897 0.0
C614 C 0.40334 0.12784 0.23522 0.0
C615 C 0.41127 0.1639 0.20976 0.0
N616 N 0.43189 0.24845 0.19434 0.0
N617 N 0.40935 0.11098 0.29488 0.0
C618 C 0.41998 0.21257 0.21886 0.0
C619 C 0.40927 0.14227 0.27005 0.0
N620 N 0.41974 0.26796 0.2628 0.0
N621 N 0.38936 0.07965 0.22593 0.0
H622 H 0.41203 0.11971 0.32068 0.0
H623 H 0.40985 0.0778 0.29001 0.0
H624 H 0.38479 0.06824 0.2006 0.0
H625 H 0.37837 0.05007 0.24309 0.0
H626 H 0.41526 0.29141 0.24566 0.0
H627 H 0.42117 0.27905 0.28801 0.0
H628 H 0.44532 0.28635 0.19948 0.0
H629 H 0.43159 0.24103 0.16857 0.0
C630 C 0.24517 0.33539 0.74839 0.0
C631 C 0.21498 0.3414 0.72365 0.0
C632 C 0.15272 0.33086 0.76755 0.0
C633 C 0.18751 0.33464 0.79272 0.0
N634 N 0.26612 0.33818 0.80793 0.0
N635 N 0.13882 0.34267 0.70841 0.0
C636 C 0.23306 0.33506 0.78338 0.0
C637 C 0.16782 0.33748 0.73279 0.0
N638 N 0.28551 0.33031 0.73823 0.0
N639 N 0.10544 0.32124 0.77718 0.0
H640 H 0.14761 0.3453 0.6826 0.0
H641 H 0.10728 0.34648 0.71369 0.0
H642 H 0.09386 0.3161 0.8026 0.0
H643 H 0.07645 0.31394 0.76021 0.0
H644 H 0.30665 0.32129 0.75461 0.0
H645 H 0.29516 0.33084 0.71269 0.0
H646 H 0.3029 0.34567 0.80295 0.0
H647 H 0.25734 0.33497 0.8337 0.0
C648 C 0.8963 0.30945 0.2675 0.0
C649 C 0.85372 0.26389 0.27883 0.0
C650 C 0.83427 0.23494 0.22007 0.0
C651 C 0.87324 0.28255 0.20839 0.0
N652 N 0.93681 0.36805 0.22073 0.0
N653 N 0.77537 0.18868 0.2654 0.0
C654 C 0.90311 0.32073 0.23204 0.0
C655 C 0.82064 0.22826 0.25493 0.0
N656 N 0.93112 0.34106 0.29044 0.0
N657 N 0.81146 0.1954 0.19807 0.0
H658 H 0.76326 0.1832 0.29068 0.0
H659 H 0.74763 0.16442 0.24859 0.0
H660 H 0.82159 0.19803 0.17247 0.0
H661 H 0.78639 0.15871 0.20596 0.0
H662 H 0.96563 0.37202 0.28342 0.0
H663 H 0.92732 0.33412 0.31654 0.0
H664 H 0.95579 0.39877 0.23682 0.0
H665 H 0.94281 0.37749 0.19499 0.0
C666 C 0.69677 0.91045 0.79021 0.0
C667 C 0.71042 0.87307 0.79701 0.0
C668 C 0.7255 0.86771 0.73631 0.0
C669 C 0.70866 0.90274 0.72926 0.0
N670 N 0.69251 0.96769 0.74908 0.0
N671 N 0.75021 0.82604 0.7787 0.0
C672 C 0.69924 0.92767 0.75624 0.0
C673 C 0.72916 0.85519 0.77067 0.0
N674 N 0.67899 0.92753 0.816 0.0
N675 N 0.73513 0.84423 0.71018 0.0
H676 H 0.7528 0.81612 0.80368 0.0
H677 H 0.76889 0.81532 0.76123 0.0
H678 H 0.73629 0.85462 0.68488 0.0
H679 H 0.74042 0.81335 0.71333 0.0
H680 H 0.66253 0.94997 0.81227 0.0
H681 H 0.67856 0.91729 0.84133 0.0
H682 H 0.68955 0.99047 0.76753 0.0
H683 H 0.69456 0.98091 0.72432 0.0
C684 C 0.87037 0.66308 0.23536 0.0
C685 C 0.82674 0.66411 0.22367 0.0
C686 C 0.79299 0.65169 0.28175 0.0
C687 C 0.83555 0.64836 0.29325 0.0
N688 N 0.91817 0.6577 0.28287 0.0
N689 N 0.75151 0.6689 0.23491 0.0
C690 C 0.87552 0.65655 0.2706 0.0
C691 C 0.78967 0.66163 0.24676 0.0
N692 N 0.90554 0.66582 0.21228 0.0
N693 N 0.75539 0.64423 0.30428 0.0
H694 H 0.74875 0.67639 0.20938 0.0
H695 H 0.72473 0.67112 0.25025 0.0
H696 H 0.75771 0.63922 0.33029 0.0
H697 H 0.72094 0.6411 0.2974 0.0
H698 H 0.9349 0.65885 0.21798 0.0
H699 H 0.9045 0.67376 0.18662 0.0
H700 H 0.95112 0.66905 0.26873 0.0
H701 H 0.92185 0.6494 0.30804 0.0
C702 C 0.15486 0.84121 0.78272 0.0
C703 C 0.2038 0.88255 0.78876 0.0
C704 C 0.21783 0.89732 0.72764 0.0
C705 C 0.17504 0.84918 0.72205 0.0
N706 N 0.09923 0.77709 0.74291 0.0
N707 N 0.27961 0.95446 0.76825 0.0
C708 C 0.14159 0.82225 0.74913 0.0
C709 C 0.234 0.9129 0.7615 0.0
N710 N 0.12238 0.81927 0.80948 0.0
N711 N 0.24345 0.92698 0.70041 0.0
H712 H 0.29082 0.96716 0.79301 0.0
H713 H 0.30656 0.97541 0.74978 0.0
H714 H 0.23196 0.91585 0.67545 0.0
H715 H 0.27316 0.9638 0.70246 0.0
H716 H 0.08492 0.79078 0.80697 0.0
H717 H 0.13204 0.83302 0.83417 0.0
H718 H 0.07609 0.7526 0.76185 0.0
H719 H 0.08809 0.7633 0.71837 0.0
C720 C 0.38644 1.00363 0.97544 0.0
C721 C 0.3336 0.97198 0.97054 0.0
C722 C 0.31828 0.03079 0.00443 0.0
C723 C 0.3715 0.06408 0.00664 0.0
N724 N 0.45492 0.08811 0.98478 0.0
N725 N 0.24879 0.9591 0.97658 0.0
C726 C 0.40512 0.05257 0.98892 0.0
C727 C 0.29921 0.98648 0.984 0.0
N728 N 0.41884 0.98576 0.96884 0.0
N729 N 0.28605 0.04139 0.02232 0.0
H730 H 0.23312 0.92572 0.96285 0.0
H731 H 0.22285 0.97093 0.98236 0.0
H732 H 0.29859 0.07534 0.03518 0.0
H733 H 0.24755 1.016 0.02548 0.0
H734 H 0.4572 1.00538 0.97498 0.0
H735 H 0.40587 0.94872 0.96131 0.0
H736 H 0.48001 0.08238 0.9698 0.0
H737 H 0.46973 0.1252 0.99265 0.0
C738 C 0.33906 0.36002 0.5041 0.0
C739 C 0.30564 0.33161 0.53094 0.0
C740 C 0.33868 0.27225 0.52866 0.0
C741 C 0.36912 0.29889 0.50042 0.0
N742 N 0.41454 0.37828 0.47184 0.0
N743 N 0.28623 0.27058 0.57587 0.0
C744 C 0.37456 0.34626 0.49172 0.0
C745 C 0.30922 0.29059 0.54542 0.0
N746 N 0.33506 0.39811 0.48891 0.0
N747 N 0.33748 0.22914 0.53907 0.0
H748 H 0.26653 0.28449 0.58962 0.0
H749 H 0.29078 0.24366 0.58917 0.0
H750 H 0.36395 0.21944 0.53039 0.0
H751 H 0.31074 0.20347 0.55606 0.0
H752 H 0.35498 0.41641 0.46694 0.0
H753 H 0.30869 0.40868 0.49637 0.0
H754 H 0.42337 0.41508 0.46633 0.0
H755 H 0.44243 0.36957 0.46487 0.0
C756 C 1.03395 0.33574 0.02948 0.0
C757 C 1.00308 0.28222 0.02942 0.0
C758 C 0.07098 0.27581 0.9995 0.0
C759 C 0.09806 0.32868 0.99523 0.0
N760 N 0.10842 0.4101 0.00754 0.0
N761 N 0.99064 0.20116 0.01205 0.0
C762 C 0.08083 0.359 0.01118 0.0
C763 C 1.02155 0.25214 0.01428 0.0
N764 N 1.01919 0.36442 0.04768 0.0
N765 N 0.09297 0.24844 0.98905 0.0
H766 H 0.95374 0.18241 0.02164 0.0
H767 H 0.99976 0.17774 0.9982 0.0
H768 H 0.12935 0.26553 0.97841 0.0
H769 H 0.07775 0.21014 0.99386 0.0
H770 H 0.04247 0.40267 0.05222 0.0
H771 H 0.98444 0.34978 0.06011 0.0
H772 H 0.09489 0.43449 0.01351 0.0
H773 H 0.14522 0.42821 0.99779 0.0
C774 C 0.71693 1.01586 0.53827 0.0
C775 C 0.72119 0.97456 0.5254 0.0
C776 C 0.77024 0.02817 0.47741 0.0
C777 C 0.75657 0.065 0.48655 0.0
N778 N 0.70922 0.08893 0.52437 0.0
N779 N 0.74733 0.94027 0.47944 0.0
C780 C 0.72778 0.05758 0.51666 0.0
C781 C 0.74658 0.98043 0.49399 0.0
N782 N 0.7064 1.01734 0.57178 0.0
N783 N 0.80772 0.03954 0.45394 0.0
H784 H 0.72964 0.90444 0.4904 0.0
H785 H 0.76116 0.94148 0.45496 0.0
H786 H 0.82878 0.07529 0.44317 0.0
H787 H 0.82211 1.01564 0.4485 0.0
H788 H 0.70706 0.04852 0.58301 0.0
H789 H 0.70332 0.99006 0.58896 0.0
H790 H 0.68393 0.08177 0.54443 0.0
H791 H 0.71529 0.11927 0.50908 0.0
C792 C 0.7899 0.75131 0.01939 0.0
C793 C 0.75422 0.7019 0.03023 0.0
C794 C 0.6852 0.71093 0.00566 0.0
C795 C 0.72115 0.75776 0.99094 0.0
N796 N 0.80824 0.82243 0.98276 0.0
N797 N 0.67011 0.63031 0.02664 0.0
C798 C 0.77376 0.77785 0.99749 0.0
C799 C 0.70252 0.68053 0.02132 0.0
N800 N 0.83859 0.77345 0.03097 0.0
N801 N 0.63457 0.69543 0.00545 0.0
H802 H 0.68193 0.60635 0.03682 0.0
H803 H 0.63321 0.61141 0.01738 0.0
H804 H 0.61958 0.71696 0.99601 0.0
H805 H 0.60767 0.66365 0.01856 0.0
H806 H 0.86507 0.81125 0.02709 0.0
H807 H 0.85178 0.7547 0.04641 0.0
H808 H 0.84718 0.83609 0.98288 0.0
H809 H 0.79757 0.84506 0.96926 0.0
C810 C 0.99188 0.72551 0.52115 0.0
C811 C 0.96219 0.67283 0.51486 0.0
C812 C 1.0317 0.66146 0.53625 0.0
C813 C 0.06049 0.7135 0.54434 0.0
N814 N 0.06593 0.79474 0.5473 0.0
N815 N 0.94942 0.58957 0.52391 0.0
C816 C 0.04003 0.74552 0.5375 0.0
C817 C 0.98066 0.64048 0.52498 0.0
N818 N 0.97421 0.75661 0.51067 0.0
N819 N 0.05436 0.63248 0.53764 0.0
H820 H 0.91167 0.5732 0.51659 0.0
H821 H 0.95909 0.56392 0.53389 0.0
H822 H 0.09247 0.64744 0.54388 0.0
H823 H 0.03743 0.59555 0.52893 0.0
H824 H 0.99605 0.79569 0.51001 0.0
H825 H 0.93757 0.74291 0.50141 0.0
H826 H 0.05052 0.81848 0.54736 0.0
H827 H 0.10269 0.81166 0.55662 0.0
C828 C 0.80082 0.07362 1.00062 0.0
C829 C 0.78923 0.06959 0.03638 0.0
C830 C 0.73003 0.97941 0.02899 0.0
C831 C 0.74234 0.98374 0.99388 0.0
N832 N 0.80464 0.02897 0.95082 0.0
N833 N 0.76042 1.01383 0.0848 0.0
C834 C 0.78342 0.02883 0.98149 0.0
C835 C 0.75975 0.02072 0.05061 0.0
N836 N 0.82322 0.11851 0.9835 0.0
N837 N 0.68859 0.93772 0.04163 0.0
H838 H 0.78423 0.04308 0.10089 0.0
H839 H 0.74223 0.97832 0.0962 0.0
H840 H 0.66449 0.90713 0.02678 0.0
H841 H 0.67577 0.93565 0.06653 0.0
H842 H 0.82804 0.12088 0.9572 0.0
H843 H 0.82974 0.15252 0.99338 0.0
H844 H 0.8377 0.05997 0.94171 0.0
H845 H 0.79245 0.99613 0.93667 0.0
C846 C 0.72984 0.69398 0.5228 0.0
C847 C 0.77912 0.72488 0.50915 0.0
C848 C 0.78585 0.79742 0.5405 0.0
C849 C 0.73507 0.76747 0.55186 0.0
N850 N 0.65711 0.68876 0.55292 0.0
N851 N 0.8536 0.8057 0.5029 0.0
C852 C 0.70667 0.71598 0.54287 0.0
C853 C 0.80722 0.77653 0.51771 0.0
N854 N 0.7057 0.64343 0.5166 0.0
N855 N 0.81343 0.84575 0.55187 0.0
H856 H 0.87025 0.79066 0.48694 0.0
H857 H 0.87461 0.84466 0.5051 0.0
H858 H 0.79793 0.86199 0.56778 0.0
H859 H 0.85198 0.86887 0.54718 0.0
H860 H 0.67132 0.61751 0.52764 0.0
H861 H 0.72216 0.62677 0.50201 0.0
H862 H 0.63225 0.65235 0.54481 0.0
H863 H 0.6398 0.70391 0.56814 0.0
C864 C 1.0328 0.78321 0.02334 0.0
C865 C 1.00037 0.73063 0.0274 0.0
C866 C 0.05118 0.7146 0.98586 0.0
C867 C 0.08074 0.76687 0.97953 0.0
N868 N 0.09851 0.8514 0.98958 0.0
N869 N 0.97353 0.64614 0.00872 0.0
C870 C 0.07137 0.80144 0.9977 0.0
C871 C 1.00809 0.69627 0.00751 0.0
N872 N 1.02651 0.81537 0.04418 0.0
N873 N 0.06561 0.68267 0.97198 0.0
H874 H 0.94149 0.63152 0.02411 0.0
H875 H 0.97408 0.61969 0.99235 0.0
H876 H 0.09776 0.69536 0.95665 0.0
H877 H 0.04889 0.64464 0.97824 0.0
H878 H 0.05142 0.85398 0.04498 0.0
H879 H 0.99726 0.8027 0.06212 0.0
H880 H 0.09101 0.87856 0.99954 0.0
H881 H 0.12709 0.8653 0.97112 0.0
C882 C 0.28836 0.02406 0.55027 0.0
C883 C 0.26686 0.97382 0.53814 0.0
C884 C 0.26856 1.00735 0.48151 0.0
C885 C 0.30367 0.05699 0.49208 0.0
N886 N 0.35528 0.10847 0.53891 0.0
N887 N 0.25192 0.92256 0.48757 0.0
C888 C 0.31562 0.0648 0.52728 0.0
C889 C 0.26027 0.96624 0.50244 0.0
N890 N 0.28296 0.03307 0.58349 0.0
N891 N 0.24406 0.99926 0.45131 0.0
H892 H 0.25604 0.89504 0.50036 0.0
H893 H 0.24945 0.91784 0.46127 0.0
H894 H 0.24705 0.02894 0.43645 0.0
H895 H 0.2166 0.96337 0.44358 0.0
H896 H 0.29604 0.06938 0.59275 0.0
H897 H 0.26004 1.00413 0.6003 0.0
H898 H 0.3661 0.11328 0.56436 0.0
H899 H 0.38149 0.13659 0.52303 0.0
C900 C 0.29005 0.26517 0.99056 0.0
C901 C 0.31491 0.31634 0.9806 0.0
C902 C 0.38902 0.33314 0.01463 0.0
C903 C 0.36331 0.28229 0.02602 0.0
N904 N 0.28777 0.20137 0.02872 0.0
N905 N 0.3822 0.39987 0.98463 0.0
C906 C 0.3133 0.2486 0.01495 0.0
C907 C 0.363 0.35059 0.99337 0.0
N908 N 0.24459 0.23265 0.9762 0.0
N909 N 0.43873 0.36355 0.02292 0.0
H910 H 0.41588 0.42949 0.99375 0.0
H911 H 0.41588 0.42949 0.99375 0.0
H912 H 0.45879 0.35127 0.03781 0.0
H913 H 0.46154 0.39954 0.01309 0.0
H914 H 0.226 0.19382 0.97972 0.0
H915 H 0.22664 0.24472 0.95908 0.0
H916 H 0.24982 0.17587 0.02405 0.0
H917 H 0.3039 0.18878 0.04688 0.0
C918 C 0.06842 0.33351 0.49991 0.0
C919 C 0.07469 0.30805 0.52816 0.0
C920 C 0.99548 0.23145 0.5138 0.0
C921 C 0.99009 0.25644 0.48527 0.0
N922 N 1.0235 0.32756 0.44762 0.0
N923 N 0.05111 0.23047 0.55745 0.0
C924 C 1.02718 0.30653 0.47737 0.0
C925 C 0.04003 0.25624 0.5338 0.0
N926 N 0.1009 0.3837 0.49508 0.0
N927 N 0.95725 0.18437 0.52204 0.0
H928 H 0.08465 0.24736 0.57135 0.0
H929 H 1.02983 0.19168 0.56101 0.0
H930 H 0.92445 0.16547 0.50751 0.0
H931 H 0.9562 0.16566 0.54441 0.0
H932 H 0.09426 0.40598 0.4782 0.0
H933 H 0.13402 0.40391 0.5088 0.0
H934 H 0.05177 0.36196 0.43818 0.0
H935 H 0.99321 0.30875 0.43099 0.0
loop_
_geom_bond_atom_site_label_1
_geom_bond_atom_site_label_2
_geom_bond_distance
_geom_bond_site_symmetry_2
_ccdc_geom_bond_type
C0 C1 1.351 . S
C0 N3 1.368 . S
C0 H5 0.931 . S
C1 C0 1.351 . S
C1 N2 1.373 . S
C1 H29 0.930 . S
N2 C1 1.373 . S
N2 C4 1.340 . S
N3 C0 1.368 . S
N3 C4 1.321 . S
N3 Co6 2.135 . S
C4 N2 1.340 . S
C4 N3 1.321 . S
C4 H28 0.930 . S
H5 C0 0.931 . S
Co6 N3 2.135 . S
Co6 N9 2.121 . S
Co6 O14 2.055 . S
Co6 O17 2.039 . S
Co6 N20 2.140 . S
C7 O8 1.227 . S
C7 O17 1.265 . S
O8 C7 1.227 . S
N9 Co6 2.121 . S
N9 C11 1.375 . S
N9 C12 1.313 . S
C10 C11 1.338 . S
C10 N13 1.377 . S
C10 H30 0.930 . S
C11 N9 1.375 . S
C11 C10 1.338 . S
C11 H15 0.931 . S
C12 N9 1.313 . S
C12 N13 1.344 . S
C12 H16 0.930 . S
N13 C10 1.377 . S
N13 C12 1.344 . S
O14 Co6 2.055 . S
O14 C18 1.253 . S
H15 C11 0.931 . S
H16 C12 0.930 . S
O17 Co6 2.039 . S
O17 C7 1.265 . S
C18 O14 1.253 . S
C18 O19 1.227 . S
O19 C18 1.227 . S
N20 Co6 2.140 . S
N20 C23 1.346 . S
N20 C24 1.345 . S
C21 C22 1.387 . S
C21 C25 1.391 . S
C22 C21 1.387 . S
C22 C23 1.369 . S
C22 H31 0.929 . S
C23 N20 1.346 . S
C23 C22 1.369 . S
C23 H26 0.928 . S
C24 N20 1.345 . S
C24 C25 1.371 . S
C24 H27 0.931 . S
C25 C21 1.391 . S
C25 C24 1.371 . S
C25 H32 0.930 . S
H26 C23 0.928 . S
H27 C24 0.931 . S
H28 C4 0.930 . S
H29 C1 0.930 . S
H30 C10 0.930 . S
H31 C22 0.929 . S
H32 C25 0.930 . S
C33 C34 1.351 . S
C33 N36 1.368 . S
C33 H38 0.931 . S
C34 C33 1.351 . S
C34 N35 1.373 . S
C34 H62 0.930 . S
N35 C34 1.373 . S
N35 C37 1.340 . S
N36 C33 1.368 . S
N36 C37 1.321 . S
N36 Co39 2.135 . S
C37 N35 1.340 . S
C37 N36 1.321 . S
C37 H61 0.930 . S
H38 C33 0.931 . S
Co39 N36 2.135 . S
Co39 N42 2.121 . S
Co39 O47 2.055 . S
Co39 O50 2.039 . S
Co39 N53 2.140 . S
C40 O41 1.227 . S
C40 O50 1.265 . S
O41 C40 1.227 . S
N42 Co39 2.121 . S
N42 C44 1.375 . S
N42 C45 1.313 . S
C43 C44 1.338 . S
C43 N46 1.377 . S
C43 H63 0.930 . S
C44 N42 1.375 . S
C44 C43 1.338 . S
C44 H48 0.931 . S
C45 N42 1.313 . S
C45 N46 1.344 . S
C45 H49 0.930 . S
N46 C43 1.377 . S
N46 C45 1.344 . S
O47 Co39 2.055 . S
O47 C51 1.253 . S
H48 C44 0.931 . S
H49 C45 0.930 . S
O50 Co39 2.039 . S
O50 C40 1.265 . S
C51 O47 1.253 . S
C51 O52 1.227 . S
O52 C51 1.227 . S
N53 Co39 2.140 . S
N53 C56 1.346 . S
N53 C57 1.345 . S
C54 C55 1.387 . S
C54 C58 1.391 . S
C55 C54 1.387 . S
C55 C56 1.369 . S
C55 H64 0.929 . S
C56 N53 1.346 . S
C56 C55 1.369 . S
C56 H59 0.928 . S
C57 N53 1.345 . S
C57 C58 1.371 . S
C57 H60 0.931 . S
C58 C54 1.391 . S
C58 C57 1.371 . S
C58 H65 0.930 . S
H59 C56 0.928 . S
H60 C57 0.931 . S
H61 C37 0.930 . S
H62 C34 0.930 . S
H63 C43 0.930 . S
H64 C55 0.929 . S
H65 C58 0.930 . S
C66 C67 1.351 . S
C66 N69 1.368 . S
C66 H71 0.931 . S
C67 C66 1.351 . S
C67 N68 1.373 . S
C67 H95 0.930 . S
N68 C67 1.373 . S
N68 C70 1.340 . S
N69 C66 1.368 . S
N69 C70 1.321 . S
N69 Co72 2.135 . S
C70 N68 1.340 . S
C70 N69 1.321 . S
C70 H94 0.930 . S
H71 C66 0.931 . S
Co72 N69 2.135 . S
Co72 N75 2.121 . S
Co72 O80 2.055 . S
Co72 O83 2.039 . S
Co72 N86 2.140 . S
C73 O74 1.227 . S
C73 O83 1.265 . S
O74 C73 1.227 . S
N75 Co72 2.121 . S
N75 C77 1.375 . S
N75 C78 1.313 . S
C76 C77 1.338 . S
C76 N79 1.377 . S
C76 H96 0.930 . S
C77 N75 1.375 . S
C77 C76 1.338 . S
C77 H81 0.931 . S
C78 N75 1.313 . S
C78 N79 1.344 . S
C78 H82 0.930 . S
N79 C76 1.377 . S
N79 C78 1.344 . S
O80 Co72 2.055 . S
O80 C84 1.253 . S
H81 C77 0.931 . S
H82 C78 0.930 . S
O83 Co72 2.039 . S
O83 C73 1.265 . S
C84 O80 1.253 . S
C84 O85 1.227 . S
O85 C84 1.227 . S
N86 Co72 2.140 . S
N86 C89 1.346 . S
N86 C90 1.345 . S
C87 C88 1.387 . S
C87 C91 1.391 . S
C88 C87 1.387 . S
C88 C89 1.369 . S
C88 H97 0.929 . S
C89 N86 1.346 . S
C89 C88 1.369 . S
C89 H92 0.928 . S
C90 N86 1.345 . S
C90 C91 1.371 . S
C90 H93 0.931 . S
C91 C87 1.391 . S
C91 C90 1.371 . S
C91 H98 0.930 . S
H92 C89 0.928 . S
H93 C90 0.931 . S
H94 C70 0.930 . S
H95 C67 0.930 . S
H96 C76 0.930 . S
H97 C88 0.929 . S
H98 C91 0.930 . S
C99 C100 1.351 . S
C99 N102 1.368 . S
C99 H104 0.931 . S
C100 C99 1.351 . S
C100 N101 1.373 . S
C100 H128 0.930 . S
N101 C100 1.373 . S
N101 C103 1.340 . S
N102 C99 1.368 . S
N102 C103 1.321 . S
N102 Co105 2.135 . S
C103 N101 1.340 . S
C103 N102 1.321 . S
C103 H127 0.930 . S
H104 C99 0.931 . S
Co105 N102 2.135 . S
Co105 N108 2.121 . S
Co105 O113 2.055 . S
Co105 O116 2.039 . S
Co105 N119 2.140 . S
C106 O107 1.227 . S
C106 O116 1.265 . S
O107 C106 1.227 . S
N108 Co105 2.121 . S
N108 C110 1.375 . S
N108 C111 1.313 . S
C109 C110 1.338 . S
C109 N112 1.377 . S
C109 H129 0.930 . S
C110 N108 1.375 . S
C110 C109 1.338 . S
C110 H114 0.931 . S
C111 N108 1.313 . S
C111 N112 1.344 . S
C111 H115 0.930 . S
N112 C109 1.377 . S
N112 C111 1.344 . S
O113 Co105 2.055 . S
O113 C117 1.253 . S
H114 C110 0.931 . S
H115 C111 0.930 . S
O116 Co105 2.039 . S
O116 C106 1.265 . S
C117 O113 1.253 . S
C117 O118 1.227 . S
O118 C117 1.227 . S
N119 Co105 2.140 . S
N119 C122 1.346 . S
N119 C123 1.345 . S
C120 C121 1.387 . S
C120 C124 1.391 . S
C121 C120 1.387 . S
C121 C122 1.369 . S
C121 H130 0.929 . S
C122 N119 1.346 . S
C122 C121 1.369 . S
C122 H125 0.928 . S
C123 N119 1.345 . S
C123 C124 1.371 . S
C123 H126 0.931 . S
C124 C120 1.391 . S
C124 C123 1.371 . S
C124 H131 0.930 . S
H125 C122 0.928 . S
H126 C123 0.931 . S
H127 C103 0.930 . S
H128 C100 0.930 . S
H129 C109 0.930 . S
H130 C121 0.929 . S
H131 C124 0.930 . S
C132 C133 1.351 . S
C132 N135 1.368 . S
C132 H137 0.931 . S
C133 C132 1.351 . S
C133 N134 1.373 . S
C133 H161 0.930 . S
N134 C133 1.373 . S
N134 C136 1.340 . S
N135 C132 1.368 . S
N135 C136 1.321 . S
N135 Co138 2.135 . S
C136 N134 1.340 . S
C136 N135 1.321 . S
C136 H160 0.930 . S
H137 C132 0.931 . S
Co138 N135 2.135 . S
Co138 N141 2.121 . S
Co138 O146 2.055 . S
Co138 O149 2.039 . S
Co138 N152 2.140 . S
C139 O140 1.227 . S
C139 O149 1.265 . S
O140 C139 1.227 . S
N141 Co138 2.121 . S
N141 C143 1.375 . S
N141 C144 1.313 . S
C142 C143 1.338 . S
C142 N145 1.377 . S
C142 H162 0.930 . S
C143 N141 1.375 . S
C143 C142 1.338 . S
C143 H147 0.931 . S
C144 N141 1.313 . S
C144 N145 1.344 . S
C144 H148 0.930 . S
N145 C142 1.377 . S
N145 C144 1.344 . S
O146 Co138 2.055 . S
O146 C150 1.253 . S
H147 C143 0.931 . S
H148 C144 0.930 . S
O149 Co138 2.039 . S
O149 C139 1.265 . S
C150 O146 1.253 . S
C150 O151 1.227 . S
O151 C150 1.227 . S
N152 Co138 2.140 . S
N152 C155 1.346 . S
N152 C156 1.345 . S
C153 C154 1.387 . S
C153 C157 1.391 . S
C154 C153 1.387 . S
C154 C155 1.369 . S
C154 H163 0.929 . S
C155 N152 1.346 . S
C155 C154 1.369 . S
C155 H158 0.928 . S
C156 N152 1.345 . S
C156 C157 1.371 . S
C156 H159 0.931 . S
C157 C153 1.391 . S
C157 C156 1.371 . S
C157 H164 0.930 . S
H158 C155 0.928 . S
H159 C156 0.931 . S
H160 C136 0.930 . S
H161 C133 0.930 . S
H162 C142 0.930 . S
H163 C154 0.929 . S
H164 C157 0.930 . S
C165 C166 1.351 . S
C165 N168 1.368 . S
C165 H170 0.931 . S
C166 C165 1.351 . S
C166 N167 1.373 . S
C166 H194 0.930 . S
N167 C166 1.373 . S
N167 C169 1.340 . S
N168 C165 1.368 . S
N168 C169 1.321 . S
N168 Co171 2.135 . S
C169 N167 1.340 . S
C169 N168 1.321 . S
C169 H193 0.930 . S
H170 C165 0.931 . S
Co171 N168 2.135 . S
Co171 N174 2.121 . S
Co171 O179 2.055 . S
Co171 O182 2.039 . S
Co171 N185 2.140 . S
C172 O173 1.227 . S
C172 O182 1.265 . S
O173 C172 1.227 . S
N174 Co171 2.121 . S
N174 C176 1.375 . S
N174 C177 1.313 . S
C175 C176 1.338 . S
C175 N178 1.377 . S
C175 H195 0.930 . S
C176 N174 1.375 . S
C176 C175 1.338 . S
C176 H180 0.931 . S
C177 N174 1.313 . S
C177 N178 1.344 . S
C177 H181 0.930 . S
N178 C175 1.377 . S
N178 C177 1.344 . S
O179 Co171 2.055 . S
O179 C183 1.253 . S
H180 C176 0.931 . S
H181 C177 0.930 . S
O182 Co171 2.039 . S
O182 C172 1.265 . S
C183 O179 1.253 . S
C183 O184 1.227 . S
O184 C183 1.227 . S
N185 Co171 2.140 . S
N185 C188 1.346 . S
N185 C189 1.345 . S
C186 C187 1.387 . S
C186 C190 1.391 . S
C187 C186 1.387 . S
C187 C188 1.369 . S
C187 H196 0.929 . S
C188 N185 1.346 . S
C188 C187 1.369 . S
C188 H191 0.928 . S
C189 N185 1.345 . S
C189 C190 1.371 . S
C189 H192 0.931 . S
C190 C186 1.391 . S
C190 C189 1.371 . S
C190 H197 0.930 . S
H191 C188 0.928 . S
H192 C189 0.931 . S
H193 C169 0.930 . S
H194 C166 0.930 . S
H195 C175 0.930 . S
H196 C187 0.929 . S
H197 C190 0.930 . S
C198 C199 1.351 . S
C198 N201 1.368 . S
C198 H203 0.931 . S
C199 C198 1.351 . S
C199 N200 1.373 . S
C199 H227 0.930 . S
N200 C199 1.373 . S
N200 C202 1.340 . S
N201 C198 1.368 . S
N201 C202 1.321 . S
N201 Co204 2.135 . S
C202 N200 1.340 . S
C202 N201 1.321 . S
C202 H226 0.930 . S
H203 C198 0.931 . S
Co204 N201 2.135 . S
Co204 N207 2.121 . S
Co204 O212 2.055 . S
Co204 O215 2.039 . S
Co204 N218 2.140 . S
C205 O206 1.227 . S
C205 O215 1.265 . S
O206 C205 1.227 . S
N207 Co204 2.121 . S
N207 C209 1.375 . S
N207 C210 1.313 . S
C208 C209 1.338 . S
C208 N211 1.377 . S
C208 H228 0.930 . S
C209 N207 1.375 . S
C209 C208 1.338 . S
C209 H213 0.931 . S
C210 N207 1.313 . S
C210 N211 1.344 . S
C210 H214 0.930 . S
N211 C208 1.377 . S
N211 C210 1.344 . S
O212 Co204 2.055 . S
O212 C216 1.253 . S
H213 C209 0.931 . S
H214 C210 0.930 . S
O215 Co204 2.039 . S
O215 C205 1.265 . S
C216 O212 1.253 . S
C216 O217 1.227 . S
O217 C216 1.227 . S
N218 Co204 2.140 . S
N218 C221 1.346 . S
N218 C222 1.345 . S
C219 C220 1.387 . S
C219 C223 1.391 . S
C220 C219 1.387 . S
C220 C221 1.369 . S
C220 H229 0.929 . S
C221 N218 1.346 . S
C221 C220 1.369 . S
C221 H224 0.928 . S
C222 N218 1.345 . S
C222 C223 1.371 . S
C222 H225 0.931 . S
C223 C219 1.391 . S
C223 C222 1.371 . S
C223 H230 0.930 . S
H224 C221 0.928 . S
H225 C222 0.931 . S
H226 C202 0.930 . S
H227 C199 0.930 . S
H228 C208 0.930 . S
H229 C220 0.929 . S
H230 C223 0.930 . S
C231 C232 1.351 . S
C231 N234 1.368 . S
C231 H236 0.931 . S
C232 C231 1.351 . S
C232 N233 1.373 . S
C232 H260 0.930 . S
N233 C232 1.373 . S
N233 C235 1.340 . S
N234 C231 1.368 . S
N234 C235 1.321 . S
N234 Co237 2.135 . S
C235 N233 1.340 . S
C235 N234 1.321 . S
C235 H259 0.930 . S
H236 C231 0.931 . S
Co237 N234 2.135 . S
Co237 N240 2.121 . S
Co237 O245 2.055 . S
Co237 O248 2.039 . S
Co237 N251 2.140 . S
C238 O239 1.227 . S
C238 O248 1.265 . S
O239 C238 1.227 . S
N240 Co237 2.121 . S
N240 C242 1.375 . S
N240 C243 1.313 . S
C241 C242 1.338 . S
C241 N244 1.377 . S
C241 H261 0.930 . S
C242 N240 1.375 . S
C242 C241 1.338 . S
C242 H246 0.931 . S
C243 N240 1.313 . S
C243 N244 1.344 . S
C243 H247 0.930 . S
N244 C241 1.377 . S
N244 C243 1.344 . S
O245 Co237 2.055 . S
O245 C249 1.253 . S
H246 C242 0.931 . S
H247 C243 0.930 . S
O248 Co237 2.039 . S
O248 C238 1.265 . S
C249 O245 1.253 . S
C249 O250 1.227 . S
O250 C249 1.227 . S
N251 Co237 2.140 . S
N251 C254 1.346 . S
N251 C255 1.345 . S
C252 C253 1.387 . S
C252 C256 1.391 . S
C253 C252 1.387 . S
C253 C254 1.369 . S
C253 H262 0.929 . S
C254 N251 1.346 . S
C254 C253 1.369 . S
C254 H257 0.928 . S
C255 N251 1.345 . S
C255 C256 1.371 . S
C255 H258 0.931 . S
C256 C252 1.391 . S
C256 C255 1.371 . S
C256 H263 0.930 . S
H257 C254 0.928 . S
H258 C255 0.931 . S
H259 C235 0.930 . S
H260 C232 0.930 . S
H261 C241 0.930 . S
H262 C253 0.929 . S
H263 C256 0.930 . S
C264 C265 1.351 . S
C264 N267 1.368 . S
C264 H269 0.931 . S
C265 C264 1.351 . S
C265 N266 1.373 . S
C265 H293 0.930 . S
N266 C265 1.373 . S
N266 C268 1.340 . S
N267 C264 1.368 . S
N267 C268 1.321 . S
N267 Co270 2.135 . S
C268 N266 1.340 . S
C268 N267 1.321 . S
C268 H292 0.930 . S
H269 C264 0.931 . S
Co270 N267 2.135 . S
Co270 N273 2.121 . S
Co270 O278 2.055 . S
Co270 O281 2.039 . S
Co270 N284 2.140 . S
C271 O272 1.227 . S
C271 O281 1.265 . S
O272 C271 1.227 . S
N273 Co270 2.121 . S
N273 C275 1.375 . S
N273 C276 1.313 . S
C274 C275 1.338 . S
C274 N277 1.377 . S
C274 H294 0.930 . S
C275 N273 1.375 . S
C275 C274 1.338 . S
C275 H279 0.931 . S
C276 N273 1.313 . S
C276 N277 1.344 . S
C276 H280 0.930 . S
N277 C274 1.377 . S
N277 C276 1.344 . S
O278 Co270 2.055 . S
O278 C282 1.253 . S
H279 C275 0.931 . S
H280 C276 0.930 . S
O281 Co270 2.039 . S
O281 C271 1.265 . S
C282 O278 1.253 . S
C282 O283 1.227 . S
O283 C282 1.227 . S
N284 Co270 2.140 . S
N284 C287 1.346 . S
N284 C288 1.345 . S
C285 C286 1.387 . S
C285 C289 1.391 . S
C286 C285 1.387 . S
C286 C287 1.369 . S
C286 H295 0.929 . S
C287 N284 1.346 . S
C287 C286 1.369 . S
C287 H290 0.928 . S
C288 N284 1.345 . S
C288 C289 1.371 . S
C288 H291 0.931 . S
C289 C285 1.391 . S
C289 C288 1.371 . S
C289 H296 0.930 . S
H290 C287 0.928 . S
H291 C288 0.931 . S
H292 C268 0.930 . S
H293 C265 0.930 . S
H294 C274 0.930 . S
H295 C286 0.929 . S
H296 C289 0.930 . S
C297 C298 1.351 . S
C297 N300 1.368 . S
C297 H302 0.931 . S
C298 C297 1.351 . S
C298 N299 1.373 . S
C298 H326 0.930 . S
N299 C298 1.373 . S
N299 C301 1.340 . S
N300 C297 1.368 . S
N300 C301 1.321 . S
N300 Co303 2.135 . S
C301 N299 1.340 . S
C301 N300 1.321 . S
C301 H325 0.930 . S
H302 C297 0.931 . S
Co303 N300 2.135 . S
Co303 N306 2.121 . S
Co303 O311 2.055 . S
Co303 O314 2.039 . S
Co303 N317 2.140 . S
C304 O305 1.227 . S
C304 O314 1.265 . S
O305 C304 1.227 . S
N306 Co303 2.121 . S
N306 C308 1.375 . S
N306 C309 1.313 . S
C307 C308 1.338 . S
C307 N310 1.377 . S
C307 H327 0.930 . S
C308 N306 1.375 . S
C308 C307 1.338 . S
C308 H312 0.931 . S
C309 N306 1.313 . S
C309 N310 1.344 . S
C309 H313 0.930 . S
N310 C307 1.377 . S
N310 C309 1.344 . S
O311 Co303 2.055 . S
O311 C315 1.253 . S
H312 C308 0.931 . S
H313 C309 0.930 . S
O314 Co303 2.039 . S
O314 C304 1.265 . S
C315 O311 1.253 . S
C315 O316 1.227 . S
O316 C315 1.227 . S
N317 Co303 2.140 . S
N317 C320 1.346 . S
N317 C321 1.345 . S
C318 C319 1.387 . S
C318 C322 1.391 . S
C319 C318 1.387 . S
C319 C320 1.369 . S
C319 H328 0.929 . S
C320 N317 1.346 . S
C320 C319 1.369 . S
C320 H323 0.928 . S
C321 N317 1.345 . S
C321 C322 1.371 . S
C321 H324 0.931 . S
C322 C318 1.391 . S
C322 C321 1.371 . S
C322 H329 0.930 . S
H323 C320 0.928 . S
H324 C321 0.931 . S
H325 C301 0.930 . S
H326 C298 0.930 . S
H327 C307 0.930 . S
H328 C319 0.929 . S
H329 C322 0.930 . S
C330 C331 1.351 . S
C330 N333 1.368 . S
C330 H335 0.931 . S
C331 C330 1.351 . S
C331 N332 1.373 . S
C331 H359 0.930 . S
N332 C331 1.373 . S
N332 C334 1.340 . S
N333 C330 1.368 . S
N333 C334 1.321 . S
N333 Co336 2.135 . S
C334 N332 1.340 . S
C334 N333 1.321 . S
C334 H358 0.930 . S
H335 C330 0.931 . S
Co336 N333 2.135 . S
Co336 N339 2.121 . S
Co336 O344 2.055 . S
Co336 O347 2.039 . S
Co336 N350 2.140 . S
C337 O338 1.227 . S
C337 O347 1.265 . S
O338 C337 1.227 . S
N339 Co336 2.121 . S
N339 C341 1.375 . S
N339 C342 1.313 . S
C340 C341 1.338 . S
C340 N343 1.377 . S
C340 H360 0.930 . S
C341 N339 1.375 . S
C341 C340 1.338 . S
C341 H345 0.931 . S
C342 N339 1.313 . S
C342 N343 1.344 . S
C342 H346 0.930 . S
N343 C340 1.377 . S
N343 C342 1.344 . S
O344 Co336 2.055 . S
O344 C348 1.253 . S
H345 C341 0.931 . S
H346 C342 0.930 . S
O347 Co336 2.039 . S
O347 C337 1.265 . S
C348 O344 1.253 . S
C348 O349 1.227 . S
O349 C348 1.227 . S
N350 Co336 2.140 . S
N350 C353 1.346 . S
N350 C354 1.345 . S
C351 C352 1.387 . S
C351 C355 1.391 . S
C352 C351 1.387 . S
C352 C353 1.369 . S
C352 H361 0.929 . S
C353 N350 1.346 . S
C353 C352 1.369 . S
C353 H356 0.928 . S
C354 N350 1.345 . S
C354 C355 1.371 . S
C354 H357 0.931 . S
C355 C351 1.391 . S
C355 C354 1.371 . S
C355 H362 0.930 . S
H356 C353 0.928 . S
H357 C354 0.931 . S
H358 C334 0.930 . S
H359 C331 0.930 . S
H360 C340 0.930 . S
H361 C352 0.929 . S
H362 C355 0.930 . S
C363 C364 1.351 . S
C363 N366 1.368 . S
C363 H368 0.931 . S
C364 C363 1.351 . S
C364 N365 1.373 . S
C364 H392 0.930 . S
N365 C364 1.373 . S
N365 C367 1.340 . S
N366 C363 1.368 . S
N366 C367 1.321 . S
N366 Co369 2.135 . S
C367 N365 1.340 . S
C367 N366 1.321 . S
C367 H391 0.930 . S
H368 C363 0.931 . S
Co369 N366 2.135 . S
Co369 N372 2.121 . S
Co369 O377 2.055 . S
Co369 O380 2.039 . S
Co369 N383 2.140 . S
C370 O371 1.227 . S
C370 O380 1.265 . S
O371 C370 1.227 . S
N372 Co369 2.121 . S
N372 C374 1.375 . S
N372 C375 1.313 . S
C373 C374 1.338 . S
C373 N376 1.377 . S
C373 H393 0.930 . S
C374 N372 1.375 . S
C374 C373 1.338 . S
C374 H378 0.931 . S
C375 N372 1.313 . S
C375 N376 1.344 . S
C375 H379 0.930 . S
N376 C373 1.377 . S
N376 C375 1.344 . S
O377 Co369 2.055 . S
O377 C381 1.253 . S
H378 C374 0.931 . S
H379 C375 0.930 . S
O380 Co369 2.039 . S
O380 C370 1.265 . S
C381 O377 1.253 . S
C381 O382 1.227 . S
O382 C381 1.227 . S
N383 Co369 2.140 . S
N383 C386 1.346 . S
N383 C387 1.345 . S
C384 C385 1.387 . S
C384 C388 1.391 . S
C385 C384 1.387 . S
C385 C386 1.369 . S
C385 H394 0.929 . S
C386 N383 1.346 . S
C386 C385 1.369 . S
C386 H389 0.928 . S
C387 N383 1.345 . S
C387 C388 1.371 . S
C387 H390 0.931 . S
C388 C384 1.391 . S
C388 C387 1.371 . S
C388 H395 0.930 . S
H389 C386 0.928 . S
H390 C387 0.931 . S
H391 C367 0.930 . S
H392 C364 0.930 . S
H393 C373 0.930 . S
H394 C385 0.929 . S
H395 C388 0.930 . S
C396 C397 1.363 . S
C396 C402 1.379 . S
C396 N404 1.356 . S
C397 C396 1.363 . S
C397 C403 1.363 . S
C398 C399 1.363 . S
C398 C403 1.379 . S
C398 N405 1.356 . S
C399 C398 1.363 . S
C399 C402 1.363 . S
N400 C402 1.356 . S
N400 H412 0.984 . S
N400 H413 0.985 . S
N401 C403 1.356 . S
N401 H406 0.984 . S
N401 H407 0.985 . S
C402 C396 1.379 . S
C402 C399 1.363 . S
C402 N400 1.356 . S
C403 C397 1.363 . S
C403 C398 1.379 . S
C403 N401 1.356 . S
N404 C396 1.356 . S
N404 H410 0.984 1_554 S
N404 H411 0.984 . S
N405 C398 1.356 . S
N405 H408 0.984 . S
N405 H409 0.985 . S
H406 N401 0.984 . S
H407 N401 0.985 . S
H408 N405 0.984 . S
H409 N405 0.985 . S
H410 N404 0.984 1_556 S
H411 N404 0.984 . S
H412 N400 0.984 . S
H413 N400 0.985 . S
C414 C415 1.363 . S
C414 C420 1.379 . S
C414 N422 1.356 . S
C415 C414 1.363 . S
C415 C421 1.363 . S
C416 C417 1.363 . S
C416 C421 1.379 . S
C416 N423 1.356 . S
C417 C416 1.363 . S
C417 C420 1.363 . S
N418 C420 1.356 . S
N418 H430 0.984 . S
N418 H431 0.985 . S
N419 C421 1.356 . S
N419 H424 0.984 . S
N419 H425 0.985 . S
C420 C414 1.379 . S
C420 C417 1.363 . S
C420 N418 1.356 . S
C421 C415 1.363 . S
C421 C416 1.379 . S
C421 N419 1.356 . S
N422 C414 1.356 . S
N422 H428 0.984 . S
N422 H429 0.984 . S
N423 C416 1.356 . S
N423 H426 0.984 . S
N423 H427 0.985 . S
H424 N419 0.984 . S
H425 N419 0.985 . S
H426 N423 0.984 . S
H427 N423 0.985 . S
H428 N422 0.984 . S
H429 N422 0.984 . S
H430 N418 0.984 . S
H431 N418 0.985 . S
C432 C433 1.363 . S
C432 C438 1.379 . S
C432 N440 1.356 . S
C433 C432 1.363 . S
C433 C439 1.363 . S
C434 C435 1.363 . S
C434 C439 1.379 . S
C434 N441 1.356 . S
C435 C434 1.363 . S
C435 C438 1.363 . S
N436 C438 1.356 . S
N436 H448 0.984 . S
N436 H449 0.985 . S
N437 C439 1.356 . S
N437 H442 0.984 . S
N437 H443 0.985 . S
C438 C432 1.379 . S
C438 C435 1.363 . S
C438 N436 1.356 . S
C439 C433 1.363 . S
C439 C434 1.379 . S
C439 N437 1.356 . S
N440 C432 1.356 . S
N440 H446 0.984 . S
N440 H447 0.984 . S
N441 C434 1.356 . S
N441 H444 0.984 . S
N441 H445 0.985 1_554 S
H442 N437 0.984 . S
H443 N437 0.985 . S
H444 N441 0.984 . S
H445 N441 0.985 1_556 S
H446 N440 0.984 . S
H447 N440 0.984 . S
H448 N436 0.984 . S
H449 N436 0.985 . S
C450 C451 1.363 . S
C450 C456 1.379 . S
C450 N458 1.356 . S
C451 C450 1.363 . S
C451 C457 1.363 . S
C452 C453 1.363 . S
C452 C457 1.379 . S
C452 N459 1.356 . S
C453 C452 1.363 . S
C453 C456 1.363 . S
N454 C456 1.356 . S
N454 H466 0.984 . S
N454 H467 0.985 . S
N455 C457 1.356 . S
N455 H460 0.984 . S
N455 H461 0.985 . S
C456 C450 1.379 . S
C456 C453 1.363 . S
C456 N454 1.356 . S
C457 C451 1.363 . S
C457 C452 1.379 . S
C457 N455 1.356 . S
N458 C450 1.356 . S
N458 H464 0.984 . S
N458 H465 0.984 . S
N459 C452 1.356 . S
N459 H462 0.984 . S
N459 H463 0.985 . S
H460 N455 0.984 . S
H461 N455 0.985 . S
H462 N459 0.984 . S
H463 N459 0.985 . S
H464 N458 0.984 . S
H465 N458 0.984 . S
H466 N454 0.984 . S
H467 N454 0.985 . S
C468 C469 1.363 . S
C468 C474 1.379 . S
C468 N476 1.356 . S
C469 C468 1.363 . S
C469 C475 1.363 . S
C470 C471 1.363 . S
C470 C475 1.379 . S
C470 N477 1.356 . S
C471 C470 1.363 . S
C471 C474 1.363 . S
N472 C474 1.356 . S
N472 H484 0.984 . S
N472 H485 0.985 . S
N473 C475 1.356 . S
N473 H478 0.984 . S
N473 H479 0.985 . S
C474 C468 1.379 . S
C474 C471 1.363 . S
C474 N472 1.356 . S
C475 C469 1.363 . S
C475 C470 1.379 . S
C475 N473 1.356 . S
N476 C468 1.356 . S
N476 H482 0.984 . S
N476 H483 0.984 . S
N477 C470 1.356 . S
N477 H480 0.984 . S
N477 H481 0.985 1_554 S
H478 N473 0.984 . S
H479 N473 0.985 . S
H480 N477 0.984 . S
H481 N477 0.985 1_556 S
H482 N476 0.984 . S
H483 N476 0.984 . S
H484 N472 0.984 . S
H485 N472 0.985 . S
C486 C487 1.363 . S
C486 C492 1.379 . S
C486 N494 1.356 . S
C487 C486 1.363 . S
C487 C493 1.363 . S
C488 C489 1.363 . S
C488 C493 1.379 . S
C488 N495 1.356 . S
C489 C488 1.363 . S
C489 C492 1.363 . S
N490 C492 1.356 . S
N490 H502 0.984 . S
N490 H503 0.985 . S
N491 C493 1.356 . S
N491 H496 0.984 . S
N491 H497 0.985 . S
C492 C486 1.379 . S
C492 C489 1.363 . S
C492 N490 1.356 . S
C493 C487 1.363 . S
C493 C488 1.379 . S
C493 N491 1.356 . S
N494 C486 1.356 . S
N494 H500 0.984 . S
N494 H501 0.984 . S
N495 C488 1.356 . S
N495 H498 0.984 . S
N495 H499 0.985 . S
H496 N491 0.984 . S
H497 N491 0.985 . S
H498 N495 0.984 . S
H499 N495 0.985 . S
H500 N494 0.984 . S
H501 N494 0.984 . S
H502 N490 0.984 . S
H503 N490 0.985 . S
C504 C505 1.363 . S
C504 C510 1.379 . S
C504 N512 1.356 . S
C505 C504 1.363 . S
C505 C511 1.363 . S
C506 C507 1.363 . S
C506 C511 1.379 . S
C506 N513 1.356 . S
C507 C506 1.363 . S
C507 C510 1.363 . S
N508 C510 1.356 . S
N508 H520 0.984 . S
N508 H521 0.985 . S
N509 C511 1.356 . S
N509 H514 0.984 . S
N509 H515 0.985 . S
C510 C504 1.379 . S
C510 C507 1.363 . S
C510 N508 1.356 . S
C511 C505 1.363 . S
C511 C506 1.379 . S
C511 N509 1.356 . S
N512 C504 1.356 . S
N512 H518 0.984 . S
N512 H519 0.984 . S
N513 C506 1.356 . S
N513 H516 0.984 . S
N513 H517 0.985 . S
H514 N509 0.984 . S
H515 N509 0.985 . S
H516 N513 0.984 . S
H517 N513 0.985 . S
H518 N512 0.984 . S
H519 N512 0.984 . S
H520 N508 0.984 . S
H521 N508 0.985 . S
C522 C523 1.363 . S
C522 C528 1.379 . S
C522 N530 1.356 . S
C523 C522 1.363 . S
C523 C529 1.363 . S
C524 C525 1.363 . S
C524 C529 1.379 . S
C524 N531 1.356 . S
C525 C524 1.363 . S
C525 C528 1.363 . S
N526 C528 1.356 . S
N526 H538 0.984 1_556 S
N526 H539 0.985 . S
N527 C529 1.356 . S
N527 H532 0.984 . S
N527 H533 0.985 . S
C528 C522 1.379 . S
C528 C525 1.363 . S
C528 N526 1.356 . S
C529 C523 1.363 . S
C529 C524 1.379 . S
C529 N527 1.356 . S
N530 C522 1.356 . S
N530 H536 0.984 . S
N530 H537 0.984 . S
N531 C524 1.356 . S
N531 H534 0.984 . S
N531 H535 0.985 . S
H532 N527 0.984 . S
H533 N527 0.985 . S
H534 N531 0.984 . S
H535 N531 0.985 . S
H536 N530 0.984 . S
H537 N530 0.984 . S
H538 N526 0.984 1_554 S
H539 N526 0.985 . S
C540 C541 1.363 . S
C540 C546 1.379 . S
C540 N548 1.356 . S
C541 C540 1.363 . S
C541 C547 1.363 . S
C542 C543 1.363 . S
C542 C547 1.379 . S
C542 N549 1.356 . S
C543 C542 1.363 . S
C543 C546 1.363 . S
N544 C546 1.356 . S
N544 H556 0.984 . S
N544 H557 0.985 . S
N545 C547 1.356 . S
N545 H550 0.984 . S
N545 H551 0.985 . S
C546 C540 1.379 . S
C546 C543 1.363 . S
C546 N544 1.356 . S
C547 C541 1.363 . S
C547 C542 1.379 . S
C547 N545 1.356 . S
N548 C540 1.356 . S
N548 H554 0.984 . S
N548 H555 0.984 . S
N549 C542 1.356 . S
N549 H552 0.984 . S
N549 H553 0.985 . S
H550 N545 0.984 . S
H551 N545 0.985 . S
H552 N549 0.984 . S
H553 N549 0.985 . S
H554 N548 0.984 . S
H555 N548 0.984 . S
H556 N544 0.984 . S
H557 N544 0.985 . S
C558 C559 1.363 . S
C558 C564 1.379 . S
C558 N566 1.356 . S
C559 C558 1.363 . S
C559 C565 1.363 . S
C560 C561 1.363 . S
C560 C565 1.379 . S
C560 N567 1.356 . S
C561 C560 1.363 . S
C561 C564 1.363 . S
N562 C564 1.356 . S
N562 H574 0.984 . S
N562 H575 0.985 . S
N563 C565 1.356 . S
N563 H568 0.984 . S
N563 H569 0.985 . S
C564 C558 1.379 . S
C564 C561 1.363 . S
C564 N562 1.356 . S
C565 C559 1.363 . S
C565 C560 1.379 . S
C565 N563 1.356 . S
N566 C558 1.356 . S
N566 H572 0.984 . S
N566 H573 0.984 . S
N567 C560 1.356 . S
N567 H570 0.984 . S
N567 H571 0.985 . S
H568 N563 0.984 . S
H569 N563 0.985 . S
H570 N567 0.984 . S
H571 N567 0.985 . S
H572 N566 0.984 . S
H573 N566 0.984 . S
H574 N562 0.984 . S
H575 N562 0.985 . S
C576 C577 1.363 . S
C576 C582 1.379 . S
C576 N584 1.356 . S
C577 C576 1.363 . S
C577 C583 1.363 . S
C578 C579 1.363 . S
C578 C583 1.379 . S
C578 N585 1.356 . S
C579 C578 1.363 . S
C579 C582 1.363 . S
N580 C582 1.356 . S
N580 H592 0.984 . S
N580 H593 0.985 . S
N581 C583 1.356 . S
N581 H586 0.984 . S
N581 H587 0.985 . S
C582 C576 1.379 . S
C582 C579 1.363 . S
C582 N580 1.356 . S
C583 C577 1.363 . S
C583 C578 1.379 . S
C583 N581 1.356 . S
N584 C576 1.356 . S
N584 H590 0.984 . S
N584 H591 0.984 . S
N585 C578 1.356 . S
N585 H588 0.984 . S
N585 H589 0.985 . S
H586 N581 0.984 . S
H587 N581 0.985 . S
H588 N585 0.984 . S
H589 N585 0.985 . S
H590 N584 0.984 . S
H591 N584 0.984 . S
H592 N580 0.984 . S
H593 N580 0.985 . S
C594 C595 1.363 . S
C594 C600 1.379 . S
C594 N602 1.356 . S
C595 C594 1.363 . S
C595 C601 1.363 . S
C596 C597 1.363 . S
C596 C601 1.379 . S
C596 N603 1.356 . S
C597 C596 1.363 . S
C597 C600 1.363 . S
N598 C600 1.356 . S
N598 H610 0.984 . S
N598 H611 0.985 . S
N599 C601 1.356 . S
N599 H604 0.984 . S
N599 H605 0.985 . S
C600 C594 1.379 . S
C600 C597 1.363 . S
C600 N598 1.356 . S
C601 C595 1.363 . S
C601 C596 1.379 . S
C601 N599 1.356 . S
N602 C594 1.356 . S
N602 H608 0.984 1_556 S
N602 H609 0.984 . S
N603 C596 1.356 . S
N603 H606 0.984 . S
N603 H607 0.985 . S
H604 N599 0.984 . S
H605 N599 0.985 . S
H606 N603 0.984 . S
H607 N603 0.985 . S
H608 N602 0.984 1_554 S
H609 N602 0.984 . S
H610 N598 0.984 . S
H611 N598 0.985 . S
C612 C613 1.363 . S
C612 C618 1.379 . S
C612 N620 1.356 . S
C613 C612 1.363 . S
C613 C619 1.363 . S
C614 C615 1.363 . S
C614 C619 1.379 . S
C614 N621 1.356 . S
C615 C614 1.363 . S
C615 C618 1.363 . S
N616 C618 1.356 . S
N616 H628 0.984 . S
N616 H629 0.985 . S
N617 C619 1.356 . S
N617 H622 0.984 . S
N617 H623 0.985 . S
C618 C612 1.379 . S
C618 C615 1.363 . S
C618 N616 1.356 . S
C619 C613 1.363 . S
C619 C614 1.379 . S
C619 N617 1.356 . S
N620 C612 1.356 . S
N620 H626 0.984 . S
N620 H627 0.984 . S
N621 C614 1.356 . S
N621 H624 0.984 . S
N621 H625 0.985 . S
H622 N617 0.984 . S
H623 N617 0.985 . S
H624 N621 0.984 . S
H625 N621 0.985 . S
H626 N620 0.984 . S
H627 N620 0.984 . S
H628 N616 0.984 . S
H629 N616 0.985 . S
C630 C631 1.363 . S
C630 C636 1.379 . S
C630 N638 1.356 . S
C631 C630 1.363 . S
C631 C637 1.363 . S
C632 C633 1.363 . S
C632 C637 1.379 . S
C632 N639 1.356 . S
C633 C632 1.363 . S
C633 C636 1.363 . S
N634 C636 1.356 . S
N634 H646 0.984 . S
N634 H647 0.985 . S
N635 C637 1.356 . S
N635 H640 0.984 . S
N635 H641 0.985 . S
C636 C630 1.379 . S
C636 C633 1.363 . S
C636 N634 1.356 . S
C637 C631 1.363 . S
C637 C632 1.379 . S
C637 N635 1.356 . S
N638 C630 1.356 . S
N638 H644 0.984 . S
N638 H645 0.984 . S
N639 C632 1.356 . S
N639 H642 0.984 . S
N639 H643 0.985 . S
H640 N635 0.984 . S
H641 N635 0.985 . S
H642 N639 0.984 . S
H643 N639 0.985 . S
H644 N638 0.984 . S
H645 N638 0.984 . S
H646 N634 0.984 . S
H647 N634 0.985 . S
C648 C649 1.363 . S
C648 C654 1.379 . S
C648 N656 1.356 . S
C649 C648 1.363 . S
C649 C655 1.363 . S
C650 C651 1.363 . S
C650 C655 1.379 . S
C650 N657 1.356 . S
C651 C650 1.363 . S
C651 C654 1.363 . S
N652 C654 1.356 . S
N652 H664 0.984 . S
N652 H665 0.985 . S
N653 C655 1.356 . S
N653 H658 0.984 . S
N653 H659 0.985 . S
C654 C648 1.379 . S
C654 C651 1.363 . S
C654 N652 1.356 . S
C655 C649 1.363 . S
C655 C650 1.379 . S
C655 N653 1.356 . S
N656 C648 1.356 . S
N656 H662 0.984 . S
N656 H663 0.984 . S
N657 C650 1.356 . S
N657 H660 0.984 . S
N657 H661 0.985 . S
H658 N653 0.984 . S
H659 N653 0.985 . S
H660 N657 0.984 . S
H661 N657 0.985 . S
H662 N656 0.984 . S
H663 N656 0.984 . S
H664 N652 0.984 . S
H665 N652 0.985 . S
C666 C667 1.363 . S
C666 C672 1.379 . S
C666 N674 1.356 . S
C667 C666 1.363 . S
C667 C673 1.363 . S
C668 C669 1.363 . S
C668 C673 1.379 . S
C668 N675 1.356 . S
C669 C668 1.363 . S
C669 C672 1.363 . S
N670 C672 1.356 . S
N670 H682 0.984 . S
N670 H683 0.985 . S
N671 C673 1.356 . S
N671 H676 0.984 . S
N671 H677 0.985 . S
C672 C666 1.379 . S
C672 C669 1.363 . S
C672 N670 1.356 . S
C673 C667 1.363 . S
C673 C668 1.379 . S
C673 N671 1.356 . S
N674 C666 1.356 . S
N674 H680 0.984 . S
N674 H681 0.984 . S
N675 C668 1.356 . S
N675 H678 0.984 . S
N675 H679 0.985 . S
H676 N671 0.984 . S
H677 N671 0.985 . S
H678 N675 0.984 . S
H679 N675 0.985 . S
H680 N674 0.984 . S
H681 N674 0.984 . S
H682 N670 0.984 . S
H683 N670 0.985 . S
C684 C685 1.363 . S
C684 C690 1.379 . S
C684 N692 1.356 . S
C685 C684 1.363 . S
C685 C691 1.363 . S
C686 C687 1.363 . S
C686 C691 1.379 . S
C686 N693 1.356 . S
C687 C686 1.363 . S
C687 C690 1.363 . S
N688 C690 1.356 . S
N688 H700 0.984 . S
N688 H701 0.985 . S
N689 C691 1.356 . S
N689 H694 0.984 . S
N689 H695 0.985 . S
C690 C684 1.379 . S
C690 C687 1.363 . S
C690 N688 1.356 . S
C691 C685 1.363 . S
C691 C686 1.379 . S
C691 N689 1.356 . S
N692 C684 1.356 . S
N692 H698 0.984 . S
N692 H699 0.984 . S
N693 C686 1.356 . S
N693 H696 0.984 . S
N693 H697 0.985 . S
H694 N689 0.984 . S
H695 N689 0.985 . S
H696 N693 0.984 . S
H697 N693 0.985 . S
H698 N692 0.984 . S
H699 N692 0.984 . S
H700 N688 0.984 . S
H701 N688 0.985 . S
C702 C703 1.363 . S
C702 C708 1.379 . S
C702 N710 1.356 . S
C703 C702 1.363 . S
C703 C709 1.363 . S
C704 C705 1.363 . S
C704 C709 1.379 . S
C704 N711 1.356 . S
C705 C704 1.363 . S
C705 C708 1.363 . S
N706 C708 1.356 . S
N706 H718 0.984 . S
N706 H719 0.985 . S
N707 C709 1.356 . S
N707 H712 0.984 . S
N707 H713 0.985 . S
C708 C702 1.379 . S
C708 C705 1.363 . S
C708 N706 1.356 . S
C709 C703 1.363 . S
C709 C704 1.379 . S
C709 N707 1.356 . S
N710 C702 1.356 . S
N710 H716 0.984 . S
N710 H717 0.984 . S
N711 C704 1.356 . S
N711 H714 0.984 . S
N711 H715 0.985 . S
H712 N707 0.984 . S
H713 N707 0.985 . S
H714 N711 0.984 . S
H715 N711 0.985 . S
H716 N710 0.984 . S
H717 N710 0.984 . S
H718 N706 0.984 . S
H719 N706 0.985 . S
C720 C721 1.363 . S
C720 C726 1.379 1_565 S
C720 N728 1.356 . S
C721 C720 1.363 . S
C721 C727 1.363 1_556 S
C722 C723 1.363 . S
C722 C727 1.379 1_545 S
C722 N729 1.356 . S
C723 C722 1.363 . S
C723 C726 1.363 1_554 S
N724 C726 1.356 . S
N724 H736 0.984 . S
N724 H737 0.985 1_556 S
N725 C727 1.356 . S
N725 H730 0.984 1_554 S
N725 H731 0.985 . S
C726 C720 1.379 1_545 S
C726 C723 1.363 1_556 S
C726 N724 1.356 . S
C727 C721 1.363 1_554 S
C727 C722 1.379 1_565 S
C727 N725 1.356 . S
N728 C720 1.356 . S
N728 H734 0.984 . S
N728 H735 0.984 . S
N729 C722 1.356 . S
N729 H732 0.984 . S
N729 H733 0.985 . S
H730 N725 0.984 1_556 S
H731 N725 0.985 . S
H732 N729 0.984 . S
H733 N729 0.985 . S
H734 N728 0.984 . S
H735 N728 0.984 . S
H736 N724 0.984 . S
H737 N724 0.985 1_554 S
C738 C739 1.363 . S
C738 C744 1.379 . S
C738 N746 1.356 . S
C739 C738 1.363 . S
C739 C745 1.363 . S
C740 C741 1.363 . S
C740 C745 1.379 . S
C740 N747 1.356 . S
C741 C740 1.363 . S
C741 C744 1.363 . S
N742 C744 1.356 . S
N742 H754 0.984 . S
N742 H755 0.985 . S
N743 C745 1.356 . S
N743 H748 0.984 . S
N743 H749 0.985 . S
C744 C738 1.379 . S
C744 C741 1.363 . S
C744 N742 1.356 . S
C745 C739 1.363 . S
C745 C740 1.379 . S
C745 N743 1.356 . S
N746 C738 1.356 . S
N746 H752 0.984 . S
N746 H753 0.984 . S
N747 C740 1.356 . S
N747 H750 0.984 . S
N747 H751 0.985 . S
H748 N743 0.984 . S
H749 N743 0.985 . S
H750 N747 0.984 . S
H751 N747 0.985 . S
H752 N746 0.984 . S
H753 N746 0.984 . S
H754 N742 0.984 . S
H755 N742 0.985 . S
C756 C757 1.363 . S
C756 C762 1.379 1_655 S
C756 N764 1.356 . S
C757 C756 1.363 . S
C757 C763 1.363 1_554 S
C758 C759 1.363 . S
C758 C763 1.379 1_455 S
C758 N765 1.356 . S
C759 C758 1.363 . S
C759 C762 1.363 1_556 S
N760 C762 1.356 . S
N760 H772 0.984 . S
N760 H773 0.985 . S
N761 C763 1.356 . S
N761 H766 0.984 . S
N761 H767 0.985 . S
C762 C756 1.379 1_455 S
C762 C759 1.363 1_554 S
C762 N760 1.356 . S
C763 C757 1.363 1_556 S
C763 C758 1.379 1_655 S
C763 N761 1.356 . S
N764 C756 1.356 . S
N764 H770 0.984 . S
N764 H771 0.984 . S
N765 C758 1.356 . S
N765 H768 0.984 . S
N765 H769 0.985 . S
H766 N761 0.984 . S
H767 N761 0.985 . S
H768 N765 0.984 . S
H769 N765 0.985 . S
H770 N764 0.984 . S
H771 N764 0.984 . S
H772 N760 0.984 . S
H773 N760 0.985 . S
C774 C775 1.363 . S
C774 C780 1.379 1_565 S
C774 N782 1.356 . S
C775 C774 1.363 . S
C775 C781 1.363 . S
C776 C777 1.363 . S
C776 C781 1.379 1_545 S
C776 N783 1.356 . S
C777 C776 1.363 . S
C777 C780 1.363 . S
N778 C780 1.356 . S
N778 H790 0.984 . S
N778 H791 0.985 . S
N779 C781 1.356 . S
N779 H784 0.984 . S
N779 H785 0.985 . S
C780 C774 1.379 1_545 S
C780 C777 1.363 . S
C780 N778 1.356 . S
C781 C775 1.363 . S
C781 C776 1.379 1_565 S
C781 N779 1.356 . S
N782 C774 1.356 . S
N782 H788 0.984 . S
N782 H789 0.984 . S
N783 C776 1.356 . S
N783 H786 0.984 . S
N783 H787 0.985 . S
H784 N779 0.984 . S
H785 N779 0.985 . S
H786 N783 0.984 . S
H787 N783 0.985 . S
H788 N782 0.984 . S
H789 N782 0.984 . S
H790 N778 0.984 . S
H791 N778 0.985 . S
C792 C793 1.363 . S
C792 C798 1.379 . S
C792 N800 1.356 . S
C793 C792 1.363 . S
C793 C799 1.363 1_554 S
C794 C795 1.363 . S
C794 C799 1.379 . S
C794 N801 1.356 . S
C795 C794 1.363 . S
C795 C798 1.363 1_556 S
N796 C798 1.356 . S
N796 H808 0.984 . S
N796 H809 0.971 1_554 S
N797 C799 1.356 . S
N797 H802 0.991 . S
N797 H803 0.985 . S
C798 C792 1.379 . S
C798 C795 1.363 1_554 S
C798 N796 1.356 . S
C799 C793 1.363 1_556 S
C799 C794 1.379 . S
C799 N797 1.356 . S
N800 C792 1.356 . S
N800 H806 0.984 . S
N800 H807 0.984 . S
N801 C794 1.356 . S
N801 H804 0.984 . S
N801 H805 0.985 . S
H802 N797 0.991 . S
H803 N797 0.985 . S
H804 N801 0.984 . S
H805 N801 0.985 . S
H806 N800 0.984 . S
H807 N800 0.984 . S
H808 N796 0.984 . S
H809 N796 0.971 1_556 S
C810 C811 1.363 . S
C810 C816 1.379 1_655 S
C810 N818 1.356 . S
C811 C810 1.363 . S
C811 C817 1.363 . S
C812 C813 1.363 . S
C812 C817 1.379 1_455 S
C812 N819 1.356 . S
C813 C812 1.363 . S
C813 C816 1.363 . S
N814 C816 1.356 . S
N814 H826 0.984 . S
N814 H827 0.985 . S
N815 C817 1.356 . S
N815 H820 0.984 . S
N815 H821 0.985 . S
C816 C810 1.379 1_455 S
C816 C813 1.363 . S
C816 N814 1.356 . S
C817 C811 1.363 . S
C817 C812 1.379 1_655 S
C817 N815 1.356 . S
N818 C810 1.356 . S
N818 H824 0.984 . S
N818 H825 0.984 . S
N819 C812 1.356 . S
N819 H822 0.984 . S
N819 H823 0.985 . S
H820 N815 0.984 . S
H821 N815 0.985 . S
H822 N819 0.984 . S
H823 N819 0.985 . S
H824 N818 0.984 . S
H825 N818 0.984 . S
H826 N814 0.984 . S
H827 N814 0.985 . S
C828 C829 1.363 1_556 S
C828 C834 1.379 . S
C828 N836 1.356 . S
C829 C828 1.363 1_554 S
C829 C835 1.357 1_545 S
C830 C831 1.363 1_554 S
C830 C835 1.383 . S
C830 N837 1.356 . S
C831 C830 1.363 1_556 S
C831 C834 1.363 1_565 S
N832 C834 1.356 1_565 S
N832 H844 0.984 1_565 S
N832 H845 0.985 . S
N833 C835 1.356 1_545 S
N833 H838 0.984 . S
N833 H839 0.985 1_545 S
C834 C828 1.379 . S
C834 C831 1.363 1_545 S
C834 N832 1.356 1_545 S
C835 C829 1.357 1_565 S
C835 C830 1.383 . S
C835 N833 1.356 1_565 S
N836 C828 1.356 . S
N836 H842 0.984 . S
N836 H843 0.984 1_556 S
N837 C830 1.356 . S
N837 H840 0.984 1_554 S
N837 H841 0.985 . S
H838 N833 0.984 . S
H839 N833 0.985 1_565 S
H840 N837 0.984 1_556 S
H841 N837 0.985 . S
H842 N836 0.984 . S
H843 N836 0.984 1_554 S
H844 N832 0.984 1_545 S
H845 N832 0.985 . S
C846 C847 1.363 . S
C846 C852 1.379 . S
C846 N854 1.356 . S
C847 C846 1.363 . S
C847 C853 1.363 . S
C848 C849 1.363 . S
C848 C853 1.379 . S
C848 N855 1.356 . S
C849 C848 1.363 . S
C849 C852 1.363 . S
N850 C852 1.356 . S
N850 H862 0.984 . S
N850 H863 0.985 . S
N851 C853 1.356 . S
N851 H856 0.984 . S
N851 H857 0.985 . S
C852 C846 1.379 . S
C852 C849 1.363 . S
C852 N850 1.356 . S
C853 C847 1.363 . S
C853 C848 1.379 . S
C853 N851 1.356 . S
N854 C846 1.356 . S
N854 H860 0.984 . S
N854 H861 0.984 . S
N855 C848 1.356 . S
N855 H858 0.984 . S
N855 H859 0.985 . S
H856 N851 0.984 . S
H857 N851 0.985 . S
H858 N855 0.984 . S
H859 N855 0.985 . S
H860 N854 0.984 . S
H861 N854 0.984 . S
H862 N850 0.984 . S
H863 N850 0.985 . S
C864 C865 1.363 . S
C864 C870 1.379 1_654 S
C864 N872 1.356 . S
C865 C864 1.363 . S
C865 C871 1.363 . S
C866 C867 1.363 . S
C866 C871 1.379 1_456 S
C866 N873 1.356 . S
C867 C866 1.363 . S
C867 C870 1.363 . S
N868 C870 1.356 . S
N868 H880 0.984 . S
N868 H881 0.985 . S
N869 C871 1.356 . S
N869 H874 0.984 . S
N869 H875 0.985 . S
C870 C864 1.379 1_456 S
C870 C867 1.363 . S
C870 N868 1.356 . S
C871 C865 1.363 . S
C871 C866 1.379 1_654 S
C871 N869 1.356 . S
N872 C864 1.356 . S
N872 H878 0.984 . S
N872 H879 0.984 . S
N873 C866 1.356 . S
N873 H876 0.984 . S
N873 H877 0.985 . S
H874 N869 0.984 . S
H875 N869 0.985 . S
H876 N873 0.984 . S
H877 N873 0.985 . S
H878 N872 0.984 . S
H879 N872 0.984 . S
H880 N868 0.984 . S
H881 N868 0.985 . S
C882 C883 1.363 1_545 S
C882 C888 1.379 . S
C882 N890 1.356 . S
C883 C882 1.363 1_565 S
C883 C889 1.363 . S
C884 C885 1.363 1_565 S
C884 C889 1.379 . S
C884 N891 1.356 1_565 S
C885 C884 1.363 1_545 S
C885 C888 1.363 . S
N886 C888 1.356 . S
N886 H898 0.984 . S
N886 H899 0.985 . S
N887 C889 1.356 . S
N887 H892 0.984 . S
N887 H893 0.985 . S
C888 C882 1.379 . S
C888 C885 1.363 . S
C888 N886 1.356 . S
C889 C883 1.363 . S
C889 C884 1.379 . S
C889 N887 1.356 . S
N890 C882 1.356 . S
N890 H896 0.984 . S
N890 H897 0.984 1_545 S
N891 C884 1.356 1_545 S
N891 H894 0.984 . S
N891 H895 0.985 1_545 S
H892 N887 0.984 . S
H893 N887 0.985 . S
H894 N891 0.984 . S
H895 N891 0.985 1_565 S
H896 N890 0.984 . S
H897 N890 0.984 1_565 S
H898 N886 0.984 . S
H899 N886 0.985 . S
C900 C901 1.363 . S
C900 C906 1.379 1_556 S
C900 N908 1.356 . S
C901 C900 1.363 . S
C901 C907 1.363 . S
C902 C903 1.363 . S
C902 C907 1.379 1_554 S
C902 N909 1.356 . S
C903 C902 1.363 . S
C903 C906 1.363 . S
N904 C906 1.356 . S
N904 H916 0.984 . S
N904 H917 0.985 . S
N905 C907 1.356 . S
N905 H910 0.984 . S
N905 H911 0.985 . S
C906 C900 1.379 1_554 S
C906 C903 1.363 . S
C906 N904 1.356 . S
C907 C901 1.363 . S
C907 C902 1.379 1_556 S
C907 N905 1.356 . S
N908 C900 1.356 . S
N908 H914 0.984 . S
N908 H915 0.984 . S
N909 C902 1.356 . S
N909 H912 0.984 . S
N909 H913 0.985 . S
H910 N905 0.984 . S
H911 N905 0.985 . S
H912 N909 0.984 . S
H913 N909 0.985 . S
H914 N908 0.984 . S
H915 N908 0.984 . S
H916 N904 0.984 . S
H917 N904 0.985 . S
C918 C919 1.363 . S
C918 C924 1.379 1_455 S
C918 N926 1.356 . S
C919 C918 1.363 . S
C919 C925 1.363 . S
C920 C921 1.363 . S
C920 C925 1.379 1_655 S
C920 N927 1.356 . S
C921 C920 1.363 . S
C921 C924 1.363 . S
N922 C924 1.356 . S
N922 H934 0.984 . S
N922 H935 0.985 . S
N923 C925 1.356 . S
N923 H928 0.984 . S
N923 H929 0.985 . S
C924 C918 1.379 1_655 S
C924 C921 1.363 . S
C924 N922 1.356 . S
C925 C919 1.363 . S
C925 C920 1.379 1_455 S
C925 N923 1.356 . S
N926 C918 1.356 . S
N926 H932 0.984 . S
N926 H933 0.984 . S
N927 C920 1.356 . S
N927 H930 0.984 . S
N927 H931 0.985 . S
H928 N923 0.984 . S
H929 N923 0.985 . S
H930 N927 0.984 . S
H931 N927 0.985 . S
H932 N926 0.984 . S
H933 N926 0.984 . S
H934 N922 0.984 . S
H935 N922 0.985 . S
C397 C84 1.578 . S
C399 N13 1.614 . S
C415 N46 1.685 . S
C417 C117 1.657 . S
C433 N79 1.614 . S
C435 C150 1.578 . S
C451 N112 1.685 . S
C453 C183 1.657 . S
C469 N145 1.614 . S
C471 C18 1.578 . S
C487 C51 1.657 . S
C489 N178 1.685 . S
C505 N200 1.665 . S
C507 C337 1.662 . S
C523 N244 1.669 . S
C525 C381 1.635 . S
C541 C205 1.662 . S
C543 N266 1.665 . S
C559 C249 1.635 . S
C561 N310 1.669 . S
C577 C271 1.662 . S
C579 N332 1.665 . S
C595 C315 1.635 . S
C597 N376 1.669 . S
C613 C285 1.501 . S
C615 C21 1.482 . S
C631 C54 1.484 . S
C633 C318 1.491 . S
C649 C351 1.501 . S
C651 C87 1.482 . S
C667 C384 1.491 . S
C669 C120 1.484 . S
C685 C153 1.482 . S
C687 C219 1.501 . S
C703 C252 1.491 . S
C705 C186 1.484 . S
C721 C238 1.493 . S
C723 C7 1.493 . S
C739 C40 1.572 . S
C741 C282 1.570 . S
C757 C73 1.493 . S
C759 C304 1.493 . S
C775 C106 1.572 . S
C777 C348 1.570 . S
C793 C139 1.493 . S
C795 C370 1.493 . S
C811 C216 1.570 . S
C813 C172 1.572 . S
C829 N68 1.357 . S
C831 N365 1.351 . S
C847 N211 1.458 . S
C849 N101 1.435 . S
C865 N134 1.357 . S
C867 N233 1.351 . S
C883 N167 1.434 . S
C885 N277 1.458 . S
C901 N299 1.350 . S
C903 N2 1.357 . S
C919 N35 1.434 . S
C921 N343 1.458 . S
