# Generated by pormake.
# Topology fce, (5)-cn, num edge types: 1
# Building blocks:
#     Node 0, Type 0, BuildingBlock: BEQFEK_clean_sbu_0, # of connection points: 5
#     Node 1, Type 0, BuildingBlock: BEQFEK_clean_sbu_0, # of connection points: 5
#     Node 2, Type 0, BuildingBlock: BEQFEK_clean_sbu_0, # of connection points: 5
#     Node 3, Type 0, BuildingBlock: BEQFEK_clean_sbu_0, # of connection points: 5
#     Node 4, Type 0, BuildingBlock: BEQFEK_clean_sbu_0, # of connection points: 5
#     Node 5, Type 0, BuildingBlock: BEQFEK_clean_sbu_0, # of connection points: 5
#     Node 6, Type 0, BuildingBlock: BEQFEK_clean_sbu_0, # of connection points: 5
#     Node 7, Type 0, BuildingBlock: BEQFEK_clean_sbu_0, # of connection points: 5
#     Node 8, Type 0, BuildingBlock: BEQFEK_clean_sbu_0, # of connection points: 5
#     Node 9, Type 0, BuildingBlock: BEQFEK_clean_sbu_0, # of connection points: 5
#     Node 10, Type 0, BuildingBlock: BEQFEK_clean_sbu_0, # of connection points: 5
#     Node 11, Type 0, BuildingBlock: BEQFEK_clean_sbu_0, # of connection points: 5
#     Node 12, Type 0, BuildingBlock: BEQFEK_clean_sbu_0, # of connection points: 5
#     Node 13, Type 0, BuildingBlock: BEQFEK_clean_sbu_0, # of connection points: 5
#     Node 14, Type 0, BuildingBlock: BEQFEK_clean_sbu_0, # of connection points: 5
#     Node 15, Type 0, BuildingBlock: BEQFEK_clean_sbu_0, # of connection points: 5
#     Node 16, Type 0, BuildingBlock: BEQFEK_clean_sbu_0, # of connection points: 5
#     Node 17, Type 0, BuildingBlock: BEQFEK_clean_sbu_0, # of connection points: 5
#     Node 18, Type 0, BuildingBlock: BEQFEK_clean_sbu_0, # of connection points: 5
#     Node 19, Type 0, BuildingBlock: BEQFEK_clean_sbu_0, # of connection points: 5
#     Node 20, Type 0, BuildingBlock: BEQFEK_clean_sbu_0, # of connection points: 5
#     Node 21, Type 0, BuildingBlock: BEQFEK_clean_sbu_0, # of connection points: 5
#     Node 22, Type 0, BuildingBlock: BEQFEK_clean_sbu_0, # of connection points: 5
#     Node 23, Type 0, BuildingBlock: BEQFEK_clean_sbu_0, # of connection points: 5
#     Edge 24, Type (0, 0), None
#     Edge 25, Type (0, 0), None
#     Edge 26, Type (0, 0), None
#     Edge 27, Type (0, 0), None
#     Edge 28, Type (0, 0), None
#     Edge 29, Type (0, 0), None
#     Edge 30, Type (0, 0), None
#     Edge 31, Type (0, 0), None
#     Edge 32, Type (0, 0), None
#     Edge 33, Type (0, 0), None
#     Edge 34, Type (0, 0), None
#     Edge 35, Type (0, 0), None
#     Edge 36, Type (0, 0), None
#     Edge 37, Type (0, 0), None
#     Edge 38, Type (0, 0), None
#     Edge 39, Type (0, 0), None
#     Edge 40, Type (0, 0), None
#     Edge 41, Type (0, 0), None
#     Edge 42, Type (0, 0), None
#     Edge 43, Type (0, 0), None
#     Edge 44, Type (0, 0), None
#     Edge 45, Type (0, 0), None
#     Edge 46, Type (0, 0), None
#     Edge 47, Type (0, 0), None
#     Edge 48, Type (0, 0), None
#     Edge 49, Type (0, 0), None
#     Edge 50, Type (0, 0), None
#     Edge 51, Type (0, 0), None
#     Edge 52, Type (0, 0), None
#     Edge 53, Type (0, 0), None
#     Edge 54, Type (0, 0), None
#     Edge 55, Type (0, 0), None
#     Edge 56, Type (0, 0), None
#     Edge 57, Type (0, 0), None
#     Edge 58, Type (0, 0), None
#     Edge 59, Type (0, 0), None
#     Edge 60, Type (0, 0), None
#     Edge 61, Type (0, 0), None
#     Edge 62, Type (0, 0), None
#     Edge 63, Type (0, 0), None
#     Edge 64, Type (0, 0), None
#     Edge 65, Type (0, 0), None
#     Edge 66, Type (0, 0), None
#     Edge 67, Type (0, 0), None
#     Edge 68, Type (0, 0), None
#     Edge 69, Type (0, 0), None
#     Edge 70, Type (0, 0), None
#     Edge 71, Type (0, 0), None
#     Edge 72, Type (0, 0), None
#     Edge 73, Type (0, 0), None
#     Edge 74, Type (0, 0), None
#     Edge 75, Type (0, 0), None
#     Edge 76, Type (0, 0), None
#     Edge 77, Type (0, 0), None
#     Edge 78, Type (0, 0), None
#     Edge 79, Type (0, 0), None
#     Edge 80, Type (0, 0), None
#     Edge 81, Type (0, 0), None
#     Edge 82, Type (0, 0), None
#     Edge 83, Type (0, 0), None
# Relax obj value: 1.007
# Max RMSD: 0.241
# Mean RMSD: 0.241
data_MOF--net-fce--node1-BEQFEK_clean_sbu_0--edge1-none
_symmetry_space_group_name_H-M    P1
_symmetry_Int_Tables_number       1
_symmetry_cell_setting            triclinic
loop_
_symmetry_equiv_pos_as_xyz
'x, y, z'
_cell_length_a     24.189415
_cell_length_b     24.18327
_cell_length_c     24.210899
_cell_angle_alpha  90.002256
_cell_angle_beta   89.967257
_cell_angle_gamma 89.888849
loop_
_atom_site_label
_atom_site_type_symbol
_atom_site_fract_x
_atom_site_fract_y
_atom_site_fract_z
_atom_type_partial_charge
Co0 Co 0.08648 0.45578 0.20775 0.0
Co1 Co 0.12589 0.4317 0.32259 0.0
C2 C 0.07641 0.52483 0.30703 0.0
O3 O 0.08576 0.52295 0.25598 0.0
O4 O 0.06435 0.48058 0.33048 0.0
C5 C 0.00278 0.50461 0.15389 0.0
O6 O -0.00214 0.52184 0.20461 0.0
C7 C 0.10614 0.41328 0.43717 0.0
C8 C 0.17216 0.35295 0.45286 0.0
C9 C 0.12185 0.37163 0.47224 0.0
N10 N 0.14409 0.41609 0.39632 0.0
N11 N 0.18488 0.38178 0.40744 0.0
C12 C 0.06933 0.46036 0.45434 0.0
H13 H 0.03903 0.47147 0.42252 0.0
H14 H 0.0466 0.45063 0.493 0.0
H15 H 0.09526 0.49747 0.46155 0.0
C16 C 0.02382 0.34744 0.23207 0.0
N17 N 0.06524 0.38436 0.24108 0.0
N18 N 0.0915 0.36989 0.28617 0.0
C19 C 0.06813 0.32317 0.30656 0.0
C20 C 0.02231 0.30743 0.27472 0.0
C21 C 0.98722 0.35019 0.18239 0.0
H22 H 0.01297 0.35699 0.14505 0.0
H23 H 0.95902 0.38624 0.18579 0.0
H24 H 0.96325 0.31146 0.17732 0.0
O25 O 0.16585 0.46483 0.19356 0.0
O26 O 0.18688 0.47601 0.28194 0.0
H27 H 0.08343 0.25146 0.35673 0.0
H28 H 0.06055 0.31181 0.39323 0.0
C29 C 0.08651 0.29669 0.35881 0.0
H30 H 0.13056 0.30552 0.36536 0.0
H31 H 0.21724 0.37274 0.38036 0.0
O32 O 0.04207 0.47228 0.14131 0.0
C33 C 0.19594 0.48705 0.23101 0.0
Co34 Co 0.54222 0.07237 0.18908 0.0
Co35 Co 0.59685 0.14122 0.27494 0.0
C36 C 0.49657 0.09796 0.29711 0.0
O37 O 0.48588 0.0882 0.24686 0.0
O38 O 0.54569 0.09326 0.31308 0.0
C39 C 0.47507 0.99108 0.14356 0.0
O40 O 0.45859 0.98812 0.19503 0.0
C41 C 0.63077 0.14579 0.38343 0.0
C42 C 0.71926 0.15601 0.36722 0.0
C43 C 0.6822 0.13076 0.40264 0.0
N44 N 0.63672 0.17236 0.3348 0.0
N45 N 0.69002 0.18106 0.32708 0.0
C46 C 0.57746 0.14129 0.41464 0.0
H47 H 0.54495 0.16658 0.39468 0.0
H48 H 0.56463 0.09735 0.41751 0.0
H49 H 0.58306 0.15683 0.45739 0.0
C50 C 0.63779 -0.00077 0.22482 0.0
N51 N 0.61395 0.04912 0.21638 0.0
N52 N 0.64519 0.08755 0.23798 0.0
C53 C 0.69216 0.06329 0.25797 0.0
C54 C 0.68735 0.00499 0.25495 0.0
C55 C 0.61361 0.9477 0.2021 0.0
H56 H 0.57209 0.95551 0.18517 0.0
H57 H 0.61084 0.91663 0.23474 0.0
H58 H 0.64006 0.93187 0.16821 0.0
O59 O 0.54208 0.14524 0.15395 0.0
O60 O 0.54366 0.1946 0.2304 0.0
H61 H 0.77691 0.06006 0.22863 0.0
H62 H 0.76512 0.1095 0.28241 0.0
C63 C 0.74677 0.09042 0.24547 0.0
H64 H 0.7411 0.12398 0.21466 0.0
H65 H 0.70677 0.19713 0.29075 0.0
O66 O 0.51343 0.02408 0.13087 0.0
C67 C 0.5249 0.18676 0.18149 0.0
Co68 Co 0.89648 0.54476 0.21379 0.0
Co69 Co 0.83774 0.58238 0.31933 0.0
C70 C 0.91509 0.49607 0.31957 0.0
O71 O 0.92374 0.48676 0.26857 0.0
O72 O 0.90738 0.54538 0.33341 0.0
C73 C 0.96161 0.52224 0.11451 0.0
O74 O 0.97073 0.5197 0.06119 0.0
C75 C 0.85906 0.61076 0.42738 0.0
C76 C 0.83001 0.69534 0.41577 0.0
C77 C 0.86944 0.66458 0.44287 0.0
N78 N 0.81894 0.61084 0.38862 0.0
N79 N 0.79916 0.66139 0.38495 0.0
C80 C 0.88244 0.55983 0.45352 0.0
H81 H 0.86292 0.52232 0.43645 0.0
H82 H 0.9279 0.55848 0.4479 0.0
H83 H 0.8738 0.5607 0.49845 0.0
C84 C 0.94749 0.65604 0.23938 0.0
N85 N 0.90328 0.6217 0.24125 0.0
N86 N 0.86645 0.64251 0.27519 0.0
C87 C 0.88554 0.69211 0.2945 0.0
C88 C 0.941 0.70005 0.27754 0.0
C89 C 0.98353 0.6574 0.18903 0.0
H90 H 0.95876 0.64568 0.15229 0.0
H91 H 0.01731 0.62668 0.19213 0.0
H92 H 0.00019 0.69948 0.18184 0.0
O93 O 0.82412 0.5072 0.211 0.0
O94 O 0.77879 0.52776 0.28731 0.0
H95 H 0.86137 0.77229 0.26257 0.0
H96 H 0.8413 0.7606 0.33261 0.0
C97 C 0.84628 0.74056 0.29211 0.0
H98 H 0.80468 0.72713 0.27818 0.0
H99 H 0.77048 0.67401 0.35534 0.0
O100 O 0.91654 0.54174 0.1327 0.0
C101 C 0.78427 0.49796 0.24388 0.0
Co102 Co 0.42559 0.88618 0.19142 0.0
Co103 Co 0.41044 0.85449 0.31203 0.0
C104 C 0.5077 0.89818 0.28091 0.0
O105 O 0.49907 0.89127 0.2296 0.0
O106 O 0.46757 0.9101 0.31188 0.0
C107 C 0.4494 0.95707 0.10106 0.0
O108 O 0.4486 0.97404 0.04962 0.0
C109 C 0.38652 0.88918 0.42221 0.0
C110 C 0.33843 0.81955 0.45485 0.0
C111 C 0.35156 0.87461 0.46437 0.0
N112 N 0.39254 0.8457 0.38789 0.0
N113 N 0.36522 0.80336 0.40878 0.0
C114 C 0.40796 0.94583 0.4115 0.0
H115 H 0.39346 0.96071 0.37072 0.0
H116 H 0.39446 0.97493 0.44427 0.0
H117 H 0.45378 0.94456 0.41107 0.0
C118 C 0.33219 0.96519 0.22485 0.0
N119 N 0.36345 0.9187 0.23063 0.0
N120 N 0.34982 0.89413 0.27689 0.0
C121 C 0.30874 0.92396 0.301 0.0
C122 C 0.29783 0.97237 0.27118 0.0
C123 C 0.329 -0.00235 0.17233 0.0
H124 H 0.33015 0.96903 0.13654 0.0
H125 H 0.36488 0.02566 0.16863 0.0
H126 H 0.29034 0.02244 0.17073 0.0
O127 O 0.42326 0.80443 0.1903 0.0
O128 O 0.45401 0.78909 0.27411 0.0
H129 H 0.23226 0.90157 0.33791 0.0
H130 H 0.28031 0.93468 0.38354 0.0
C131 C 0.27638 0.90449 0.3495 0.0
H132 H 0.28899 0.86249 0.36186 0.0
H133 H 0.35979 0.76565 0.38857 0.0
O134 O 0.42646 0.91184 0.1139 0.0
C135 C 0.457 0.7791 0.22223 0.0
Co136 Co 0.09627 0.55934 0.79068 0.0
Co137 Co 0.14913 0.5997 0.68374 0.0
C138 C 0.1249 0.48651 0.693 0.0
O139 O 0.11233 0.49243 0.74377 0.0
O140 O 0.12317 0.52719 0.66002 0.0
C141 C 0.02328 0.50901 0.85149 0.0
O142 O 0.0104 0.49856 0.79999 0.0
C143 C 0.12111 0.64285 0.58079 0.0
C144 C 0.17374 0.71658 0.57457 0.0
C145 C 0.12497 0.69349 0.55524 0.0
N146 N 0.16322 0.63773 0.61679 0.0
N147 N 0.196 0.681 0.61128 0.0
C148 C 0.07296 0.60436 0.57823 0.0
H149 H 0.0869 0.56387 0.5617 0.0
H150 H 0.05685 0.5976 0.62041 0.0
H151 H 0.03932 0.62055 0.55169 0.0
C152 C 0.01052 0.64698 0.76262 0.0
N153 N 0.0571 0.61676 0.75477 0.0
N154 N 0.08796 0.64106 0.71779 0.0
C155 C 0.06292 0.68866 0.70223 0.0
C156 C 0.01051 0.69308 0.72678 0.0
C157 C 0.9762 0.64091 0.81371 0.0
H158 H 0.00376 0.6338 0.84963 0.0
H159 H 0.94931 0.60402 0.8103 0.0
H160 H 0.95144 0.67861 0.82193 0.0
O161 O 0.16951 0.58741 0.80369 0.0
O162 O 0.21445 0.56802 0.72906 0.0
H163 H 0.08883 0.77273 0.71038 0.0
H164 H 0.08378 0.74801 0.64037 0.0
C165 C 0.09584 0.7369 0.68282 0.0
H166 H 0.14054 0.72778 0.68523 0.0
H167 H 0.22923 0.68969 0.63732 0.0
O168 O 0.06421 0.53951 0.86132 0.0
C169 C 0.20566 0.55779 0.77991 0.0
Co170 Co 0.45321 0.08009 0.76566 0.0
Co171 Co 0.39526 0.15841 0.68806 0.0
C172 C 0.48474 0.09413 0.65244 0.0
O173 O 0.5014 0.07914 0.69982 0.0
O174 O 0.43377 0.10218 0.64518 0.0
C175 C 0.50916 0.99311 0.81721 0.0
O176 O 0.52724 0.98434 0.76697 0.0
C177 C 0.35772 0.1726 0.57905 0.0
C178 C 0.26939 0.18442 0.59603 0.0
C179 C 0.30581 0.16251 0.55766 0.0
N180 N 0.3526 0.19342 0.63054 0.0
N181 N 0.29952 0.20339 0.6389 0.0
C182 C 0.41124 0.16799 0.54838 0.0
H183 H 0.44414 0.19029 0.57084 0.0
H184 H 0.42235 0.12387 0.54244 0.0
H185 H 0.40713 0.18693 0.50683 0.0
C186 C 0.35391 0.02245 0.73672 0.0
N187 N 0.3776 0.07091 0.74969 0.0
N188 N 0.34609 0.11216 0.7337 0.0
C189 C 0.29774 0.08948 0.71544 0.0
C190 C 0.30181 0.03153 0.71461 0.0
C191 C 0.38727 0.97137 0.73115 0.0
H192 H 0.43109 0.98243 0.72429 0.0
H193 H 0.37283 0.94731 0.69524 0.0
H194 H 0.38424 0.94672 0.76963 0.0
O195 O 0.47271 0.15057 0.7965 0.0
O196 O 0.46317 0.20196 0.72214 0.0
H197 H 0.21365 0.0928 0.74403 0.0
H198 H 0.2248 0.12569 0.67934 0.0
C199 C 0.24326 0.11874 0.72045 0.0
H200 H 0.2482 0.15886 0.74212 0.0
H201 H 0.28337 0.21802 0.67606 0.0
O202 O 0.47457 0.03112 0.82566 0.0
C203 C 0.49069 0.18883 0.76562 0.0
Co204 Co 0.92847 0.43756 0.80805 0.0
Co205 Co 0.87488 0.39176 0.70632 0.0
C206 C 0.9069 0.49982 0.70535 0.0
O207 O 0.91042 0.50337 0.75776 0.0
O208 O 0.9181 0.45457 0.68211 0.0
C209 C 0.99353 0.48217 0.89599 0.0
O210 O 0.00912 0.48793 0.94745 0.0
C211 C 0.89061 0.35341 0.59457 0.0
C212 C 0.83557 0.28089 0.59248 0.0
C213 C 0.87865 0.30638 0.56475 0.0
N214 N 0.85757 0.35444 0.6396 0.0
N215 N 0.82365 0.3118 0.63717 0.0
C216 C 0.93986 0.39003 0.58568 0.0
H217 H 0.92586 0.43345 0.58068 0.0
H218 H 0.96778 0.38732 0.62192 0.0
H219 H 0.96385 0.37812 0.54849 0.0
C220 C 0.01407 0.35147 0.76608 0.0
N221 N 0.96358 0.37518 0.77262 0.0
N222 N 0.92694 0.34546 0.74623 0.0
C223 C 0.9523 0.30036 0.7251 0.0
C224 C 0.00984 0.30424 0.73219 0.0
C225 C 0.06415 0.37108 0.79568 0.0
H226 H 0.05384 0.40438 0.8251 0.0
H227 H 0.09427 0.38632 0.76536 0.0
H228 H 0.08257 0.3365 0.81942 0.0
O229 O 0.85405 0.414 0.82309 0.0
O230 O 0.81216 0.43435 0.74693 0.0
H231 H 0.95096 0.21067 0.72194 0.0
H232 H 0.89672 0.24481 0.68329 0.0
C233 C 0.922 0.24635 0.72119 0.0
H234 H 0.89292 0.24258 0.75649 0.0
H235 H 0.7961 0.30096 0.66851 0.0
O236 O 0.95396 0.45039 0.88453 0.0
C237 C 0.81871 0.44359 0.7983 0.0
Co238 Co 0.55623 0.88504 0.78254 0.0
Co239 Co 0.57601 0.83778 0.66685 0.0
C240 C 0.47022 0.87507 0.69528 0.0
O241 O 0.48273 0.88275 0.74575 0.0
O242 O 0.50676 0.87781 0.65771 0.0
C243 C 0.53216 0.96316 0.86407 0.0
O244 O 0.53176 0.98568 0.91329 0.0
C245 C 0.61048 0.86649 0.56061 0.0
C246 C 0.67476 0.80417 0.54713 0.0
C247 C 0.65824 0.85673 0.53126 0.0
N248 N 0.60157 0.82364 0.595 0.0
N249 N 0.63873 0.78508 0.58475 0.0
C250 C 0.57955 0.91966 0.56295 0.0
H251 H 0.53459 0.91147 0.55973 0.0
H252 H 0.58745 0.94015 0.60314 0.0
H253 H 0.59216 0.94714 0.52856 0.0
C254 C 0.65084 0.96041 0.74409 0.0
N255 N 0.61671 0.91595 0.74113 0.0
N256 N 0.6318 0.88553 0.69924 0.0
C257 C 0.67709 0.90845 0.67554 0.0
C258 C 0.68894 0.95938 0.70017 0.0
C259 C 0.65541 0.99619 0.79436 0.0
H260 H 0.65438 0.96989 0.83189 0.0
H261 H 0.6199 0.02497 0.7969 0.0
H262 H 0.69447 0.02025 0.7939 0.0
O263 O 0.56341 0.80493 0.79046 0.0
O264 O 0.54225 0.77298 0.70834 0.0
H265 H 0.75944 0.87601 0.67513 0.0
H266 H 0.73051 0.88775 0.60832 0.0
C267 C 0.72105 0.8732 0.65032 0.0
H268 H 0.70886 0.82916 0.65044 0.0
H269 H 0.64442 0.74977 0.60888 0.0
O270 O 0.55463 0.91648 0.85704 0.0
C271 C 0.53377 0.77338 0.7603 0.0
Co272 Co 0.20149 0.12074 0.42025 0.0
Co273 Co 0.31903 0.16101 0.39734 0.0
C274 C 0.29129 0.13384 0.50565 0.0
O275 O 0.24031 0.12769 0.49369 0.0
O276 O 0.32857 0.12698 0.46935 0.0
C277 C 0.11568 0.05055 0.45033 0.0
O278 O 0.06613 0.0289 0.44914 0.0
C279 C 0.42742 0.13089 0.36891 0.0
C280 C 0.44866 0.1914 0.30455 0.0
C281 C 0.46238 0.13959 0.32516 0.0
N282 N 0.39181 0.1735 0.37193 0.0
N283 N 0.40618 0.21094 0.33492 0.0
C284 C 0.4222 0.07883 0.4013 0.0
H285 H 0.42812 0.08812 0.44573 0.0
H286 H 0.38011 0.0617 0.39603 0.0
H287 H 0.45374 0.04808 0.38844 0.0
C288 C 0.23237 0.03386 0.33343 0.0
N289 N 0.24014 0.08084 0.36347 0.0
N290 N 0.28556 0.10515 0.34698 0.0
C291 C 0.30685 0.07471 0.30468 0.0
C292 C 0.27622 0.02634 0.2963 0.0
C293 C 0.1798 0.0013 0.33362 0.0
H294 H 0.14394 0.02989 0.33512 0.0
H295 H 0.17793 0.97444 0.37056 0.0
H296 H 0.17666 0.9751 0.29608 0.0
O297 O 0.19994 0.19865 0.40072 0.0
O298 O 0.27863 0.22939 0.4299 0.0
H299 H 0.33137 0.09587 0.22323 0.0
H300 H 0.38563 0.06874 0.2662 0.0
C301 C 0.34884 0.09591 0.26539 0.0
H302 H 0.35838 0.13937 0.27412 0.0
H303 H 0.3829 0.24611 0.32565 0.0
O304 O 0.12495 0.0952 0.42491 0.0
C305 C 0.22624 0.22905 0.43463 0.0
Co306 Co 0.90318 0.19276 0.43482 0.0
Co307 Co 0.86436 0.30825 0.41602 0.0
C308 C 0.90751 0.28459 0.51589 0.0
O309 O 0.90406 0.23327 0.50656 0.0
O310 O 0.91609 0.31705 0.47623 0.0
C311 C 0.9747 0.11593 0.48026 0.0
O312 O 0.98493 0.07048 0.50794 0.0
C313 C 0.90038 0.41091 0.37993 0.0
C314 C 0.82505 0.45253 0.35226 0.0
C315 C 0.88222 0.45539 0.35016 0.0
N316 N 0.85621 0.38109 0.39551 0.0
N317 N 0.8108 0.40667 0.37995 0.0
C318 C 0.95899 0.39593 0.39208 0.0
H319 H 0.96846 0.41098 0.43417 0.0
H320 H 0.96547 0.35083 0.39288 0.0
H321 H 0.98743 0.41474 0.36161 0.0
C322 C 0.97496 0.22822 0.33306 0.0
N323 N 0.93139 0.23021 0.36865 0.0
N324 N 0.90038 0.27227 0.35475 0.0
C325 C 0.9219 0.2967 0.30923 0.0
C326 C 0.97317 0.27346 0.29594 0.0
C327 C 0.01191 0.17869 0.32756 0.0
H328 H 0.98619 0.14204 0.31776 0.0
H329 H 0.0331 0.16962 0.36705 0.0
H330 H 0.04281 0.1846 0.29414 0.0
O331 O 0.82224 0.18608 0.43363 0.0
O332 O 0.80031 0.27159 0.45676 0.0
H333 H 0.88515 0.32153 0.23304 0.0
H334 H 0.91488 0.37685 0.272 0.0
C335 C 0.89099 0.3381 0.27529 0.0
H336 H 0.84934 0.34603 0.29258 0.0
H337 H 0.77089 0.3911 0.38482 0.0
O338 O 0.93267 0.11857 0.4492 0.0
C339 C 0.7932 0.21963 0.46249 0.0
Co340 Co 0.79169 0.89865 0.43515 0.0
Co341 Co 0.68704 0.84723 0.39611 0.0
C342 C 0.68985 0.89619 0.49684 0.0
O343 O 0.74196 0.89819 0.50284 0.0
O344 O 0.67127 0.90506 0.4493 0.0
C345 C 0.88285 0.97164 0.46287 0.0
O346 O 0.93201 0.99158 0.45263 0.0
C347 C 0.5816 0.8776 0.35299 0.0
C348 C 0.57121 0.81432 0.28881 0.0
C349 C 0.5519 0.86522 0.30638 0.0
N350 N 0.61826 0.83622 0.36205 0.0
N351 N 0.611 0.79798 0.32392 0.0
C352 C 0.5816 0.93297 0.38099 0.0
H353 H 0.57396 0.92746 0.42581 0.0
H354 H 0.6221 0.95342 0.37464 0.0
H355 H 0.54926 0.96088 0.36426 0.0
C356 C 0.75359 0.96869 0.33556 0.0
N357 N 0.75845 0.92125 0.36501 0.0
N358 N 0.73023 0.88267 0.34008 0.0
C359 C 0.70898 0.90336 0.29235 0.0
C360 C 0.71901 0.96086 0.28919 0.0
C361 C 0.78298 0.02007 0.35125 0.0
H362 H 0.80723 0.01414 0.38911 0.0
H363 H 0.75245 0.053 0.35788 0.0
H364 H 0.81199 0.03191 0.31789 0.0
O365 O 0.80622 0.81898 0.43786 0.0
O366 O 0.72219 0.7862 0.44699 0.0
H367 H 0.71752 0.89058 0.20396 0.0
H368 H 0.66879 0.84493 0.23814 0.0
C369 C 0.70863 0.86682 0.24211 0.0
H370 H 0.74075 0.83419 0.24638 0.0
H371 H 0.63684 0.76379 0.31849 0.0
O372 O 0.86776 0.92816 0.43835 0.0
C373 C 0.77266 0.78735 0.46327 0.0
Co374 Co 0.07125 0.81514 0.44273 0.0
Co375 Co 0.11598 0.70508 0.41408 0.0
C376 C 0.08433 0.71932 0.51798 0.0
O377 O 0.08479 0.77157 0.51338 0.0
O378 O 0.06931 0.69102 0.47711 0.0
C379 C 0.0114 0.90001 0.49604 0.0
O380 O 0.0054 0.94828 0.52002 0.0
C381 C 0.09234 0.59749 0.3802 0.0
C382 C 0.1631 0.58041 0.32541 0.0
C383 C 0.10994 0.56357 0.33854 0.0
N384 N 0.13234 0.6349 0.38932 0.0
N385 N 0.17559 0.62321 0.35828 0.0
C386 C 0.03493 0.60016 0.40358 0.0
H387 H 0.03657 0.59023 0.44827 0.0
H388 H 0.0174 0.64222 0.3993 0.0
H389 H 0.00699 0.57028 0.38303 0.0
C390 C 0.98473 0.77235 0.3525 0.0
N391 N 0.03355 0.77575 0.38078 0.0
N392 N 0.0675 0.73929 0.35968 0.0
C393 C 0.04314 0.71435 0.3159 0.0
C394 C 0.98739 0.73076 0.31044 0.0
C395 C 0.93766 0.81033 0.3646 0.0
H396 H 0.95251 0.84745 0.38706 0.0
H397 H 0.90756 0.78885 0.39142 0.0
H398 H 0.91747 0.82373 0.32578 0.0
O399 O 0.14932 0.8244 0.42341 0.0
O400 O 0.18177 0.74504 0.45021 0.0
H401 H 0.07488 0.70071 0.23502 0.0
H402 H 0.05913 0.63855 0.27363 0.0
C403 C 0.07599 0.68084 0.2761 0.0
H404 H 0.12002 0.68006 0.28809 0.0
H405 H 0.21043 0.64834 0.35462 0.0
O406 O 0.04906 0.89269 0.46048 0.0
C407 C 0.18295 0.79744 0.45368 0.0
Co408 Co 0.20868 0.93438 0.536 0.0
Co409 Co 0.28483 0.85704 0.59559 0.0
C410 C 0.32088 0.91201 0.5012 0.0
O411 O 0.27302 0.92679 0.48546 0.0
O412 O 0.33009 0.90734 0.55221 0.0
C413 C 0.16101 0.02016 0.47583 0.0
O414 O 0.21174 0.02513 0.45773 0.0
C415 C 0.3937 0.83821 0.63151 0.0
C416 C 0.37729 0.83164 0.72035 0.0
C417 C 0.41634 0.84939 0.68254 0.0
N418 N 0.34115 0.82069 0.63825 0.0
N419 N 0.33298 0.81379 0.69174 0.0
C420 C 0.42405 0.83819 0.57767 0.0
H421 H 0.40023 0.81516 0.54636 0.0
H422 H 0.43204 0.88124 0.56406 0.0
H423 H 0.4647 0.81739 0.58249 0.0
C424 C 0.24339 -0.00244 0.63106 0.0
N425 N 0.22795 0.94845 0.61023 0.0
N426 N 0.24329 0.9084 0.64346 0.0
C427 C 0.26392 0.93279 0.68993 0.0
C428 C 0.26691 0.99029 0.6828 0.0
C429 C 0.24963 0.04665 0.59526 0.0
H430 H 0.25481 0.03311 0.55195 0.0
H431 H 0.28684 0.06982 0.60761 0.0
H432 H 0.21217 0.07297 0.5983 0.0
O433 O 0.17236 0.8648 0.5236 0.0
O434 O 0.24571 0.81161 0.53233 0.0
H435 H 0.23781 0.93572 0.77478 0.0
H436 H 0.30044 0.89885 0.76364 0.0
C437 C 0.25915 0.90694 0.74602 0.0
H438 H 0.23536 0.86782 0.74396 0.0
H439 H 0.2952 0.80237 0.70896 0.0
O440 O 0.1506 0.9848 0.51246 0.0
C441 C 0.20092 0.82423 0.50677 0.0
Co442 Co 0.08961 0.22978 0.5401 0.0
Co443 Co 0.16883 0.31149 0.59171 0.0
C444 C 0.08738 0.34302 0.51288 0.0
O445 O 0.06778 0.29685 0.4976 0.0
O446 O 0.10254 0.34717 0.56231 0.0
C447 C 0.00799 0.16498 0.49043 0.0
O448 O 0.00385 0.20862 0.45866 0.0
C449 C 0.17344 0.42031 0.625 0.0
C450 C 0.18589 0.40269 0.71267 0.0
C451 C 0.15828 0.43786 0.67707 0.0
N452 N 0.20193 0.37245 0.62919 0.0
N453 N 0.21248 0.36449 0.68205 0.0
C454 C 0.16581 0.45179 0.57245 0.0
H455 H 0.18807 0.43127 0.53815 0.0
H456 H 0.12111 0.45612 0.56341 0.0
H457 H 0.1828 0.49412 0.57718 0.0
C458 C 0.04433 0.25078 0.64445 0.0
N459 N 0.09203 0.24227 0.6177 0.0
N460 N 0.13326 0.26314 0.64596 0.0
C461 C 0.11207 0.28044 0.69566 0.0
C462 C 0.05366 0.27644 0.69531 0.0
C463 C 0.99146 0.24597 0.61393 0.0
H464 H -0.00086 0.24817 0.56911 0.0
H465 H 0.96469 0.28077 0.62409 0.0
H466 H 0.97123 0.20598 0.62343 0.0
O467 O 0.15641 0.21082 0.50002 0.0
O468 O 0.21364 0.27796 0.52381 0.0
H469 H 0.11929 0.24978 0.77926 0.0
H470 H 0.15833 0.31108 0.76565 0.0
C471 C 0.1446 0.2715 0.74774 0.0
H472 H 0.18212 0.24646 0.73894 0.0
H473 H 0.23174 0.32915 0.69754 0.0
O474 O 0.04294 0.16473 0.52902 0.0
C475 C 0.19945 0.239 0.49036 0.0
Co476 Co 0.78779 0.08673 0.53401 0.0
Co477 Co 0.6728 0.13223 0.55586 0.0
C478 C 0.69643 0.09735 0.45148 0.0
O479 O 0.74727 0.09307 0.46312 0.0
O480 O 0.66044 0.09064 0.48871 0.0
C481 C 0.8426 0.00419 0.49328 0.0
O482 O 0.79005 0.99195 0.48975 0.0
C483 C 0.56196 0.11049 0.58368 0.0
C484 C 0.53832 0.18212 0.63416 0.0
C485 C 0.52278 0.12861 0.62032 0.0
N486 N 0.60043 0.15011 0.57781 0.0
N487 N 0.58506 0.19394 0.60642 0.0
C488 C 0.56673 0.05352 0.5608 0.0
H489 H 0.56016 0.05505 0.51549 0.0
H490 H 0.60879 0.03711 0.56837 0.0
H491 H 0.53525 0.02567 0.57905 0.0
C492 C 0.75533 0.01075 0.62963 0.0
N493 N 0.74868 0.05495 0.59564 0.0
N494 N 0.70457 0.08241 0.61081 0.0
C495 C 0.68295 0.05751 0.65613 0.0
C496 C 0.71206 0.00896 0.66864 0.0
C497 C 0.80635 0.97574 0.62928 0.0
H498 H 0.84294 0.00216 0.62133 0.0
H499 H 0.80426 0.94521 0.59524 0.0
H500 H 0.81197 0.95434 0.66939 0.0
O501 O 0.80133 0.16554 0.54334 0.0
O502 O 0.71794 0.19503 0.52125 0.0
H503 H 0.6524 0.08703 0.733 0.0
H504 H 0.60154 0.05413 0.68973 0.0
C505 C 0.63781 0.08193 0.6901 0.0
H506 H 0.62743 0.12387 0.67604 0.0
H507 H 0.6093 0.22917 0.61187 0.0
O508 O 0.85642 0.04819 0.51767 0.0
C509 C 0.77034 0.19826 0.51576 0.0
Co510 Co 0.89885 0.78823 0.55499 0.0
Co511 Co 0.85168 0.67418 0.58439 0.0
C512 C 0.90565 0.68652 0.48621 0.0
O513 O 0.90665 0.7388 0.48934 0.0
O514 O 0.90886 0.65884 0.5301 0.0
C515 C 0.97748 0.85335 0.51199 0.0
O516 O 0.98601 0.80541 0.48874 0.0
C517 C 0.8844 0.5706 0.63082 0.0
C518 C 0.81471 0.54837 0.68472 0.0
C519 C 0.87017 0.53756 0.67467 0.0
N520 N 0.84048 0.60245 0.61691 0.0
N521 N 0.79835 0.58766 0.64844 0.0
C522 C 0.94209 0.57773 0.6098 0.0
H523 H 0.94396 0.56647 0.56551 0.0
H524 H 0.95515 0.6213 0.61454 0.0
H525 H 0.97172 0.55092 0.63233 0.0
C526 C 0.96219 0.76317 0.65905 0.0
N527 N 0.91975 0.7558 0.62354 0.0
N528 N 0.88889 0.71532 0.64113 0.0
C529 C 0.91052 0.69595 0.68893 0.0
C530 C 0.9607 0.72244 0.70089 0.0
C531 C 0.99373 0.81632 0.66037 0.0
H532 H 0.96473 0.85116 0.65301 0.0
H533 H 0.02427 0.81753 0.62626 0.0
H534 H 0.01355 0.82305 0.70103 0.0
O535 O 0.81897 0.80109 0.54858 0.0
O536 O 0.79377 0.71489 0.53158 0.0
H537 H 0.87541 0.68816 0.76961 0.0
H538 H 0.89374 0.6239 0.73726 0.0
C539 C 0.87619 0.66532 0.72996 0.0
H540 H 0.83287 0.66213 0.71568 0.0
H541 H 0.76035 0.60815 0.64926 0.0
O542 O 0.93747 0.85871 0.54501 0.0
C543 C 0.79064 0.76693 0.52003 0.0
Co544 Co 0.45158 0.25899 0.03854 0.0
Co545 Co 0.38026 0.29684 0.13785 0.0
C546 C 0.46502 0.36321 0.08074 0.0
O547 O 0.4866 0.33239 0.04414 0.0
O548 O 0.41528 0.35503 0.09344 0.0
C549 C 0.45947 0.16184 0.98598 0.0
O550 O 0.42586 0.15138 0.02727 0.0
C551 C 0.33795 0.39629 0.16675 0.0
C552 C 0.25119 0.37506 0.15318 0.0
C553 C 0.28988 0.41576 0.14285 0.0
N554 N 0.33124 0.343 0.18178 0.0
N555 N 0.27781 0.33245 0.17765 0.0
C556 C 0.38359 0.43212 0.18808 0.0
H557 H 0.40886 0.40928 0.21865 0.0
H558 H 0.40932 0.44732 0.15344 0.0
H559 H 0.3659 0.46908 0.20876 0.0
C560 C 0.34672 0.27393 0.98964 0.0
N561 N 0.37329 0.26029 0.03597 0.0
N562 N 0.33893 0.2602 0.07804 0.0
C563 C 0.28746 0.2708 0.05663 0.0
C564 C 0.29102 0.28024 -0.00062 0.0
C565 C 0.3771 0.29141 0.94005 0.0
H566 H 0.42046 0.3014 0.95099 0.0
H567 H 0.35791 0.32824 0.9208 0.0
H568 H 0.37618 0.25589 0.91143 0.0
O569 O 0.48375 0.22145 0.10153 0.0
O570 O 0.44439 0.25099 0.1783 0.0
H571 H 0.20987 0.22822 0.05589 0.0
H572 H 0.20916 0.29128 0.09344 0.0
C573 C 0.23464 0.25437 0.0843 0.0
H574 H 0.24298 0.23047 0.12249 0.0
H575 H 0.26023 0.29449 0.18771 0.0
O576 O 0.47675 0.21093 0.97856 0.0
C577 C 0.48296 0.22352 0.15361 0.0
Co578 Co 0.45609 0.78331 0.89212 0.0
Co579 Co 0.43107 0.66675 0.85253 0.0
C580 C 0.53662 0.68957 0.88745 0.0
O581 O 0.52649 0.74095 0.89023 0.0
O582 O 0.49835 0.65452 0.89392 0.0
C583 C 0.49645 0.85774 0.96822 0.0
O584 O 0.51254 0.9054 0.9882 0.0
C585 C 0.39936 0.55738 0.87724 0.0
C586 C 0.34491 0.53713 0.80773 0.0
C587 C 0.35939 0.5208 0.8608 0.0
N588 N 0.40634 0.59516 0.83714 0.0
N589 N 0.37535 0.5816 0.7945 0.0
C590 C 0.42429 0.56101 0.93329 0.0
H591 H 0.41632 0.60237 0.95138 0.0
H592 H 0.40763 0.52814 0.96047 0.0
H593 H 0.46967 0.5555 0.92998 0.0
C594 C 0.35913 0.75672 0.96976 0.0
N595 N 0.39182 0.74822 0.92468 0.0
N596 N 0.37632 0.70252 0.90029 0.0
C597 C 0.33198 0.68219 0.92804 0.0
C598 C 0.32097 0.71336 0.97525 0.0
C599 C 0.36023 0.80835 0.00393 0.0
H600 H 0.36125 0.84493 0.97627 0.0
H601 H 0.39799 0.80984 0.02959 0.0
H602 H 0.32346 0.81079 0.03131 0.0
O603 O 0.45186 0.79147 0.81202 0.0
O604 O 0.46769 0.70539 0.78716 0.0
H605 H 0.25368 0.64604 0.91081 0.0
H606 H 0.30483 0.59953 0.9374 0.0
C607 C 0.29791 0.63481 0.90918 0.0
H608 H 0.30677 0.62486 0.86574 0.0
H609 H 0.37013 0.60613 0.75942 0.0
O610 O 0.46928 0.85617 0.92367 0.0
C611 C 0.4779 0.75679 0.78176 0.0
Co612 Co 0.20886 0.46264 0.91109 0.0
Co613 Co 0.28412 0.39927 0.83186 0.0
C614 C 0.32581 0.48488 0.8963 0.0
O615 O 0.27937 0.50438 0.91136 0.0
O616 O 0.33007 0.43362 0.88796 0.0
C617 C 0.16291 0.52523 -0.00137 0.0
O618 O 0.2147 0.53905 0.00621 0.0
C619 C 0.39159 0.35939 0.8103 0.0
C620 C 0.37266 0.27139 0.79957 0.0
C621 C 0.41279 0.30727 0.81884 0.0
N622 N 0.33862 0.35512 0.79343 0.0
N623 N 0.32905 0.30228 0.78349 0.0
C624 C 0.42344 0.41215 0.81346 0.0
H625 H 0.40136 0.44494 0.79064 0.0
H626 H 0.43046 0.42382 0.8572 0.0
H627 H 0.46466 0.40672 0.79403 0.0
C628 C 0.22853 0.36043 0.96864 0.0
N629 N 0.21877 0.38523 0.91981 0.0
N630 N 0.23589 0.35338 0.87916 0.0
C631 C 0.25236 0.30478 0.90267 0.0
C632 C 0.25105 0.30841 0.96041 0.0
C633 C 0.23225 0.39227 0.02055 0.0
H634 H 0.2309 0.43684 0.0116 0.0
H635 H 0.27211 0.38284 0.0407 0.0
H636 H 0.19742 0.38097 0.0481 0.0
O637 O 0.18034 0.48483 0.84003 0.0
O638 O 0.25476 0.46936 0.78997 0.0
H639 H 0.22812 0.21955 0.89849 0.0
H640 H 0.29334 0.2338 0.86811 0.0
C641 C 0.25106 0.2503 0.87331 0.0
H642 H 0.23034 0.25421 0.83275 0.0
H643 H 0.29095 0.28679 0.77089 0.0
O644 O 0.15101 0.49095 0.96116 0.0
C645 C 0.21333 0.50012 0.80226 0.0
Co646 Co 0.53622 0.19922 0.89058 0.0
Co647 Co 0.57847 0.30838 0.84032 0.0
C648 C 0.46383 0.29224 0.84882 0.0
O649 O 0.4701 0.2426 0.86547 0.0
O650 O 0.5019 0.32783 0.85462 0.0
C651 C 0.48167 0.11585 0.95399 0.0
O652 O 0.46771 0.06503 0.96674 0.0
C653 C 0.61511 0.41437 0.87047 0.0
C654 C 0.68826 0.42514 0.81774 0.0
C655 C 0.66365 0.44357 0.86618 0.0
N656 N 0.61287 0.37757 0.82879 0.0
N657 N 0.65547 0.38595 0.79576 0.0
C658 C 0.57495 0.41674 0.91728 0.0
H659 H 0.53234 0.42014 0.90078 0.0
H660 H 0.57738 0.37837 0.94213 0.0
H661 H 0.58338 0.45305 0.94391 0.0
C662 C 0.61354 0.23364 0.9861 0.0
N663 N 0.58883 0.23833 0.93576 0.0
N664 N 0.61441 0.27664 0.90727 0.0
C665 C 0.65761 0.29533 0.93784 0.0
C666 C 0.65718 0.27204 0.99082 0.0
C667 C 0.60407 0.18539 0.02342 0.0
H668 H 0.59803 0.14742 -0.00158 0.0
H669 H 0.56586 0.19203 0.04739 0.0
H670 H 0.63945 0.17925 0.05196 0.0
O671 O 0.57239 0.18929 0.81987 0.0
O672 O 0.55812 0.26252 0.77118 0.0
H673 H 0.74325 0.29692 0.91828 0.0
H674 H 0.71338 0.36336 0.93336 0.0
C675 C 0.70624 0.32325 0.9128 0.0
H676 H 0.70127 0.32726 0.86786 0.0
H677 H 0.66602 0.36028 0.76273 0.0
O678 O 0.51639 0.12425 0.91579 0.0
C679 C 0.54696 0.21191 0.77991 0.0
Co680 Co 0.80237 0.51624 0.93647 0.0
Co681 Co 0.71809 0.57806 0.86676 0.0
C682 C 0.69075 0.47714 0.9091 0.0
O683 O 0.74025 0.46437 0.92092 0.0
O684 O 0.67633 0.52709 0.91258 0.0
C685 C 0.83891 0.4506 0.02193 0.0
O686 O 0.78522 0.44599 0.02729 0.0
C687 C 0.60944 0.6195 0.8548 0.0
C688 C 0.62829 0.70683 0.83868 0.0
C689 C 0.58888 0.67224 0.86144 0.0
N690 N 0.66136 0.6228 0.83477 0.0
N691 N 0.67112 0.67506 0.82244 0.0
C692 C 0.57821 0.56681 0.86335 0.0
H693 H 0.59913 0.53226 0.84187 0.0
H694 H 0.57416 0.5582 0.90819 0.0
H695 H 0.53598 0.57046 0.84588 0.0
C696 C 0.77525 0.61491 0.0094 0.0
N697 N 0.78024 0.58976 0.95963 0.0
N698 N 0.75789 0.6215 0.92174 0.0
C699 C 0.73936 0.6684 0.94671 0.0
C700 C 0.74541 0.66431 0.00411 0.0
C701 C 0.80581 0.59656 0.0592 0.0
H702 H 0.82297 0.55468 0.05401 0.0
H703 H 0.77812 0.59797 0.09458 0.0
H704 H 0.84029 0.62568 0.06724 0.0
O705 O 0.83571 0.5153 0.86312 0.0
O706 O 0.75893 0.52286 0.81477 0.0
H707 H 0.765 0.7537 0.94502 0.0
H708 H 0.70105 0.74103 0.91166 0.0
C709 C 0.74253 0.72363 0.91861 0.0
H710 H 0.76466 0.72017 0.87863 0.0
H711 H 0.70903 0.68971 0.80815 0.0
O712 O 0.85795 0.4819 0.98479 0.0
C713 C 0.80562 0.49924 0.82305 0.0
Co714 Co 0.55587 0.74903 0.08697 0.0
Co715 Co 0.61026 0.68102 0.17297 0.0
C716 C 0.52361 0.63804 0.10515 0.0
O717 O 0.50796 0.68295 0.0828 0.0
O718 O 0.57365 0.63335 0.11859 0.0
C719 C 0.51044 0.80694 -0.00246 0.0
O720 O 0.48258 0.76119 0.99024 0.0
C721 C 0.64584 0.57759 0.18799 0.0
C722 C 0.73344 0.59889 0.18743 0.0
C723 C 0.69608 0.56157 0.16557 0.0
N724 N 0.65148 0.62678 0.21348 0.0
N725 N 0.70501 0.63671 0.21694 0.0
C726 C 0.595 0.54285 0.1929 0.0
H727 H 0.56296 0.56469 0.21726 0.0
H728 H 0.57892 0.53181 0.15152 0.0
H729 H 0.60549 0.50408 0.21484 0.0
C730 C 0.65438 0.71209 0.03613 0.0
N731 N 0.63133 0.73121 0.08272 0.0
N732 N 0.6634 0.72125 0.12509 0.0
C733 C 0.71237 0.70127 0.104 0.0
C734 C 0.70753 0.69259 0.04636 0.0
C735 C 0.61995 0.70181 0.9864 0.0
H736 H 0.57616 0.69641 -0.0014 0.0
H737 H 0.63344 0.66394 0.96459 0.0
H738 H 0.62189 0.73847 0.9591 0.0
O739 O 0.52468 0.78379 0.15202 0.0
O740 O 0.54128 0.71952 0.21413 0.0
H741 H 0.79184 0.74107 0.1007 0.0
H742 H 0.79122 0.67931 0.14064 0.0
C743 C 0.76669 0.71635 0.13006 0.0
H744 H 0.75997 0.74092 0.16823 0.0
H745 H 0.72157 0.67329 0.23258 0.0
O746 O 0.54575 0.80909 0.03539 0.0
C747 C 0.51075 0.75938 0.19607 0.0
Co748 Co 0.20437 0.56628 0.10755 0.0
Co749 Co 0.32431 0.5691 0.1485 0.0
C750 C 0.28165 0.46928 0.11398 0.0
O751 O 0.23275 0.48794 0.10828 0.0
O752 O 0.32298 0.50074 0.10722 0.0
C753 C 0.11891 0.55109 0.0311 0.0
O754 O 0.06902 0.55577 0.01067 0.0
C755 C 0.43843 0.57927 0.1235 0.0
C756 C 0.47092 0.6255 0.19431 0.0
C757 C 0.48326 0.6096 0.14056 0.0
N758 N 0.40018 0.57952 0.1638 0.0
N759 N 0.42068 0.60538 0.20714 0.0
C760 C 0.42929 0.55648 0.06717 0.0
H761 H 0.42691 0.51074 0.06971 0.0
H762 H 0.38942 0.57174 0.05052 0.0
H763 H 0.46386 0.56772 0.03928 0.0
C764 C 0.24667 0.65947 0.03331 0.0
N765 N 0.25083 0.62314 0.0761 0.0
N766 N 0.29913 0.62933 0.09978 0.0
C767 C 0.32617 0.67074 0.0731 0.0
C768 C 0.29578 0.68967 0.02785 0.0
C769 C 0.19426 0.67043 0.00226 0.0
H770 H 0.1594 0.67401 0.03185 0.0
H771 H 0.18481 0.63573 0.97413 0.0
H772 H 0.19746 0.70906 0.97767 0.0
O773 O 0.19889 0.5748 0.1874 0.0
O774 O 0.27809 0.53915 0.21311 0.0
H775 H 0.37997 0.73856 0.08889 0.0
H776 H 0.4117 0.67863 0.05911 0.0
C777 C 0.38082 0.69293 0.08961 0.0
H778 H 0.39106 0.68093 0.13224 0.0
H779 H 0.3983 0.61446 0.24288 0.0
O780 O 0.12934 0.57168 0.07794 0.0
C781 C 0.22549 0.53974 0.21646 0.0
Co782 Co 0.78006 0.41625 0.12597 0.0
Co783 Co 0.65735 0.41872 0.16012 0.0
C784 C 0.70785 0.51475 0.1272 0.0
O785 O 0.75721 0.4968 0.12373 0.0
O786 O 0.66856 0.48301 0.1142 0.0
C787 C 0.87613 0.4212 0.05926 0.0
O788 O 0.92783 0.4123 0.04531 0.0
C789 C 0.55033 0.41344 0.11463 0.0
C790 C 0.50191 0.37082 0.17847 0.0
C791 C 0.50139 0.38632 0.12326 0.0
N792 N 0.57963 0.41273 0.16185 0.0
N793 N 0.54964 0.3889 0.20067 0.0
C794 C 0.57069 0.43507 0.06044 0.0
H795 H 0.57747 0.48026 0.06367 0.0
H796 H 0.61042 0.41525 0.04906 0.0
H797 H 0.53978 0.42808 0.02747 0.0
C798 C 0.7338 0.32676 0.04773 0.0
N799 N 0.73135 0.36242 0.0912 0.0
N800 N 0.68376 0.35605 0.1162 0.0
C801 C 0.65515 0.31564 0.08975 0.0
C802 C 0.68369 0.29731 0.04276 0.0
C803 C 0.78678 0.31296 0.01892 0.0
H804 H 0.82126 0.31336 0.04907 0.0
H805 H 0.79603 0.34444 0.98703 0.0
H806 H 0.78467 0.27137 -0.00033 0.0
O807 O 0.77487 0.40748 0.20652 0.0
O808 O 0.69832 0.44932 0.22922 0.0
H809 H 0.61424 0.24416 0.11986 0.0
H810 H 0.57044 0.29213 0.08446 0.0
C811 C 0.60534 0.28859 0.11349 0.0
H812 H 0.59513 0.30564 0.15446 0.0
H813 H 0.56407 0.37954 0.24019 0.0
O814 O 0.85817 0.4034 0.10507 0.0
C815 C 0.75086 0.44607 0.23344 0.0
loop_
_geom_bond_atom_site_label_1
_geom_bond_atom_site_label_2
_geom_bond_distance
_geom_bond_site_symmetry_2
_ccdc_geom_bond_type
Co0 O3 1.970 . S
Co0 N17 1.989 . S
Co0 O25 1.967 . S
Co0 O32 1.920 . S
Co1 O4 1.966 . S
Co1 N10 2.022 . S
Co1 N18 1.993 . S
Co1 O26 1.941 . S
C2 O3 1.258 . S
C2 O4 1.263 . S
O3 Co0 1.970 . S
O3 C2 1.258 . S
O4 Co1 1.966 . S
O4 C2 1.263 . S
C5 O6 1.235 . S
C5 O32 1.289 . S
O6 C5 1.235 . S
C7 C9 1.400 . S
C7 N10 1.351 . S
C7 C12 1.501 . S
C8 C9 1.387 . S
C8 N11 1.341 . S
C9 C7 1.400 . S
C9 C8 1.387 . S
N10 Co1 2.022 . S
N10 C7 1.351 . S
N10 N11 1.365 . S
N11 C8 1.341 . S
N11 N10 1.365 . S
N11 H31 0.862 . S
C12 C7 1.501 . S
C12 H13 0.961 . S
C12 H14 0.961 . S
C12 H15 0.960 . S
H13 C12 0.961 . S
H14 C12 0.961 . S
H15 C12 0.960 . S
C16 N17 1.342 . S
C16 C20 1.401 . S
C16 C21 1.499 1_455 S
N17 Co0 1.989 . S
N17 C16 1.342 . S
N17 N18 1.388 . S
N18 Co1 1.993 . S
N18 N17 1.388 . S
N18 C19 1.346 . S
C19 N18 1.346 . S
C19 C20 1.396 . S
C19 C29 1.510 . S
C20 C16 1.401 . S
C20 C19 1.396 . S
C21 C16 1.499 1_655 S
C21 H22 0.959 1_655 S
C21 H23 0.960 . S
C21 H24 0.961 . S
H22 C21 0.959 1_455 S
H23 C21 0.960 . S
H24 C21 0.961 . S
O25 Co0 1.967 . S
O25 C33 1.258 . S
O26 Co1 1.941 . S
O26 C33 1.266 . S
H27 C29 0.959 . S
H28 C29 0.961 . S
C29 C19 1.510 . S
C29 H27 0.959 . S
C29 H28 0.961 . S
C29 H30 0.960 . S
H30 C29 0.960 . S
H31 N11 0.862 . S
O32 Co0 1.920 . S
O32 C5 1.289 . S
C33 O25 1.258 . S
C33 O26 1.266 . S
Co34 O37 1.970 . S
Co34 N51 1.989 . S
Co34 O59 1.967 . S
Co34 O66 1.920 . S
Co35 O38 1.966 . S
Co35 N44 2.022 . S
Co35 N52 1.993 . S
Co35 O60 1.941 . S
C36 O37 1.258 . S
C36 O38 1.263 . S
O37 Co34 1.970 . S
O37 C36 1.258 . S
O38 Co35 1.966 . S
O38 C36 1.263 . S
C39 O40 1.235 . S
C39 O66 1.289 . S
O40 C39 1.235 . S
C41 C43 1.400 . S
C41 N44 1.351 . S
C41 C46 1.501 . S
C42 C43 1.387 . S
C42 N45 1.341 . S
C43 C41 1.400 . S
C43 C42 1.387 . S
N44 Co35 2.022 . S
N44 C41 1.351 . S
N44 N45 1.365 . S
N45 C42 1.341 . S
N45 N44 1.365 . S
N45 H65 0.862 . S
C46 C41 1.501 . S
C46 H47 0.961 . S
C46 H48 0.961 . S
C46 H49 0.960 . S
H47 C46 0.961 . S
H48 C46 0.961 . S
H49 C46 0.960 . S
C50 N51 1.342 . S
C50 C54 1.401 . S
C50 C55 1.499 1_545 S
N51 Co34 1.989 . S
N51 C50 1.342 . S
N51 N52 1.388 . S
N52 Co35 1.993 . S
N52 N51 1.388 . S
N52 C53 1.346 . S
C53 N52 1.346 . S
C53 C54 1.396 . S
C53 C63 1.510 . S
C54 C50 1.401 . S
C54 C53 1.396 . S
C55 C50 1.499 1_565 S
C55 H56 0.959 1_565 S
C55 H57 0.960 . S
C55 H58 0.961 . S
H56 C55 0.959 1_545 S
H57 C55 0.960 . S
H58 C55 0.961 . S
O59 Co34 1.967 . S
O59 C67 1.258 . S
O60 Co35 1.941 . S
O60 C67 1.266 . S
H61 C63 0.959 . S
H62 C63 0.961 . S
C63 C53 1.510 . S
C63 H61 0.959 . S
C63 H62 0.961 . S
C63 H64 0.960 . S
H64 C63 0.960 . S
H65 N45 0.862 . S
O66 Co34 1.920 . S
O66 C39 1.289 . S
C67 O59 1.258 . S
C67 O60 1.266 . S
Co68 O71 1.970 . S
Co68 N85 1.989 . S
Co68 O93 1.967 . S
Co68 O100 1.920 . S
Co69 O72 1.966 . S
Co69 N78 2.022 . S
Co69 N86 1.993 . S
Co69 O94 1.941 . S
C70 O71 1.258 . S
C70 O72 1.263 . S
O71 Co68 1.970 . S
O71 C70 1.258 . S
O72 Co69 1.966 . S
O72 C70 1.263 . S
C73 O74 1.235 . S
C73 O100 1.289 . S
O74 C73 1.235 . S
C75 C77 1.400 . S
C75 N78 1.351 . S
C75 C80 1.501 . S
C76 C77 1.387 . S
C76 N79 1.341 . S
C77 C75 1.400 . S
C77 C76 1.387 . S
N78 Co69 2.022 . S
N78 C75 1.351 . S
N78 N79 1.365 . S
N79 C76 1.341 . S
N79 N78 1.365 . S
N79 H99 0.862 . S
C80 C75 1.501 . S
C80 H81 0.961 . S
C80 H82 0.961 . S
C80 H83 0.960 . S
H81 C80 0.961 . S
H82 C80 0.961 . S
H83 C80 0.960 . S
C84 N85 1.342 . S
C84 C88 1.401 . S
C84 C89 1.499 1_655 S
N85 Co68 1.989 . S
N85 C84 1.342 . S
N85 N86 1.388 . S
N86 Co69 1.993 . S
N86 N85 1.388 . S
N86 C87 1.346 . S
C87 N86 1.346 . S
C87 C88 1.396 . S
C87 C97 1.510 . S
C88 C84 1.401 . S
C88 C87 1.396 . S
C89 C84 1.499 1_455 S
C89 H90 0.959 1_455 S
C89 H91 0.960 . S
C89 H92 0.961 . S
H90 C89 0.959 1_655 S
H91 C89 0.960 . S
H92 C89 0.961 . S
O93 Co68 1.967 . S
O93 C101 1.258 . S
O94 Co69 1.941 . S
O94 C101 1.266 . S
H95 C97 0.959 . S
H96 C97 0.961 . S
C97 C87 1.510 . S
C97 H95 0.959 . S
C97 H96 0.961 . S
C97 H98 0.960 . S
H98 C97 0.960 . S
H99 N79 0.862 . S
O100 Co68 1.920 . S
O100 C73 1.289 . S
C101 O93 1.258 . S
C101 O94 1.266 . S
Co102 O105 1.970 . S
Co102 N119 1.989 . S
Co102 O127 1.967 . S
Co102 O134 1.920 . S
Co103 O106 1.966 . S
Co103 N112 2.022 . S
Co103 N120 1.993 . S
Co103 O128 1.941 . S
C104 O105 1.258 . S
C104 O106 1.263 . S
O105 Co102 1.970 . S
O105 C104 1.258 . S
O106 Co103 1.966 . S
O106 C104 1.263 . S
C107 O108 1.235 . S
C107 O134 1.289 . S
O108 C107 1.235 . S
C109 C111 1.400 . S
C109 N112 1.351 . S
C109 C114 1.501 . S
C110 C111 1.387 . S
C110 N113 1.341 . S
C111 C109 1.400 . S
C111 C110 1.387 . S
N112 Co103 2.022 . S
N112 C109 1.351 . S
N112 N113 1.365 . S
N113 C110 1.341 . S
N113 N112 1.365 . S
N113 H133 0.862 . S
C114 C109 1.501 . S
C114 H115 0.961 . S
C114 H116 0.961 . S
C114 H117 0.960 . S
H115 C114 0.961 . S
H116 C114 0.961 . S
H117 C114 0.960 . S
C118 N119 1.342 . S
C118 C122 1.401 . S
C118 C123 1.499 1_565 S
N119 Co102 1.989 . S
N119 C118 1.342 . S
N119 N120 1.388 . S
N120 Co103 1.993 . S
N120 N119 1.388 . S
N120 C121 1.346 . S
C121 N120 1.346 . S
C121 C122 1.396 . S
C121 C131 1.510 . S
C122 C118 1.401 . S
C122 C121 1.396 . S
C123 C118 1.499 1_545 S
C123 H124 0.959 1_545 S
C123 H125 0.960 . S
C123 H126 0.961 . S
H124 C123 0.959 1_565 S
H125 C123 0.960 . S
H126 C123 0.961 . S
O127 Co102 1.967 . S
O127 C135 1.258 . S
O128 Co103 1.941 . S
O128 C135 1.266 . S
H129 C131 0.959 . S
H130 C131 0.961 . S
C131 C121 1.510 . S
C131 H129 0.959 . S
C131 H130 0.961 . S
C131 H132 0.960 . S
H132 C131 0.960 . S
H133 N113 0.862 . S
O134 Co102 1.920 . S
O134 C107 1.289 . S
C135 O127 1.258 . S
C135 O128 1.266 . S
Co136 O139 1.970 . S
Co136 N153 1.989 . S
Co136 O161 1.967 . S
Co136 O168 1.920 . S
Co137 O140 1.966 . S
Co137 N146 2.022 . S
Co137 N154 1.993 . S
Co137 O162 1.941 . S
C138 O139 1.258 . S
C138 O140 1.263 . S
O139 Co136 1.970 . S
O139 C138 1.258 . S
O140 Co137 1.966 . S
O140 C138 1.263 . S
C141 O142 1.235 . S
C141 O168 1.289 . S
O142 C141 1.235 . S
C143 C145 1.400 . S
C143 N146 1.351 . S
C143 C148 1.501 . S
C144 C145 1.387 . S
C144 N147 1.341 . S
C145 C143 1.400 . S
C145 C144 1.387 . S
N146 Co137 2.022 . S
N146 C143 1.351 . S
N146 N147 1.365 . S
N147 C144 1.341 . S
N147 N146 1.365 . S
N147 H167 0.862 . S
C148 C143 1.501 . S
C148 H149 0.961 . S
C148 H150 0.961 . S
C148 H151 0.960 . S
H149 C148 0.961 . S
H150 C148 0.961 . S
H151 C148 0.960 . S
C152 N153 1.342 . S
C152 C156 1.401 . S
C152 C157 1.499 1_455 S
N153 Co136 1.989 . S
N153 C152 1.342 . S
N153 N154 1.388 . S
N154 Co137 1.993 . S
N154 N153 1.388 . S
N154 C155 1.346 . S
C155 N154 1.346 . S
C155 C156 1.396 . S
C155 C165 1.510 . S
C156 C152 1.401 . S
C156 C155 1.396 . S
C157 C152 1.499 1_655 S
C157 H158 0.959 1_655 S
C157 H159 0.960 . S
C157 H160 0.961 . S
H158 C157 0.959 1_455 S
H159 C157 0.960 . S
H160 C157 0.961 . S
O161 Co136 1.967 . S
O161 C169 1.258 . S
O162 Co137 1.941 . S
O162 C169 1.266 . S
H163 C165 0.959 . S
H164 C165 0.961 . S
C165 C155 1.510 . S
C165 H163 0.959 . S
C165 H164 0.961 . S
C165 H166 0.960 . S
H166 C165 0.960 . S
H167 N147 0.862 . S
O168 Co136 1.920 . S
O168 C141 1.289 . S
C169 O161 1.258 . S
C169 O162 1.266 . S
Co170 O173 1.970 . S
Co170 N187 1.989 . S
Co170 O195 1.967 . S
Co170 O202 1.920 . S
Co171 O174 1.966 . S
Co171 N180 2.022 . S
Co171 N188 1.993 . S
Co171 O196 1.941 . S
C172 O173 1.258 . S
C172 O174 1.263 . S
O173 Co170 1.970 . S
O173 C172 1.258 . S
O174 Co171 1.966 . S
O174 C172 1.263 . S
C175 O176 1.235 . S
C175 O202 1.289 . S
O176 C175 1.235 . S
C177 C179 1.400 . S
C177 N180 1.351 . S
C177 C182 1.501 . S
C178 C179 1.387 . S
C178 N181 1.341 . S
C179 C177 1.400 . S
C179 C178 1.387 . S
N180 Co171 2.022 . S
N180 C177 1.351 . S
N180 N181 1.365 . S
N181 C178 1.341 . S
N181 N180 1.365 . S
N181 H201 0.862 . S
C182 C177 1.501 . S
C182 H183 0.961 . S
C182 H184 0.961 . S
C182 H185 0.960 . S
H183 C182 0.961 . S
H184 C182 0.961 . S
H185 C182 0.960 . S
C186 N187 1.342 . S
C186 C190 1.401 . S
C186 C191 1.499 1_545 S
N187 Co170 1.989 . S
N187 C186 1.342 . S
N187 N188 1.388 . S
N188 Co171 1.993 . S
N188 N187 1.388 . S
N188 C189 1.346 . S
C189 N188 1.346 . S
C189 C190 1.396 . S
C189 C199 1.510 . S
C190 C186 1.401 . S
C190 C189 1.396 . S
C191 C186 1.499 1_565 S
C191 H192 0.959 1_565 S
C191 H193 0.960 . S
C191 H194 0.961 . S
H192 C191 0.959 1_545 S
H193 C191 0.960 . S
H194 C191 0.961 . S
O195 Co170 1.967 . S
O195 C203 1.258 . S
O196 Co171 1.941 . S
O196 C203 1.266 . S
H197 C199 0.959 . S
H198 C199 0.961 . S
C199 C189 1.510 . S
C199 H197 0.959 . S
C199 H198 0.961 . S
C199 H200 0.960 . S
H200 C199 0.960 . S
H201 N181 0.862 . S
O202 Co170 1.920 . S
O202 C175 1.289 . S
C203 O195 1.258 . S
C203 O196 1.266 . S
Co204 O207 1.970 . S
Co204 N221 1.989 . S
Co204 O229 1.967 . S
Co204 O236 1.920 . S
Co205 O208 1.966 . S
Co205 N214 2.022 . S
Co205 N222 1.993 . S
Co205 O230 1.941 . S
C206 O207 1.258 . S
C206 O208 1.263 . S
O207 Co204 1.970 . S
O207 C206 1.258 . S
O208 Co205 1.966 . S
O208 C206 1.263 . S
C209 O210 1.235 . S
C209 O236 1.289 . S
O210 C209 1.235 . S
C211 C213 1.400 . S
C211 N214 1.351 . S
C211 C216 1.501 . S
C212 C213 1.387 . S
C212 N215 1.341 . S
C213 C211 1.400 . S
C213 C212 1.387 . S
N214 Co205 2.022 . S
N214 C211 1.351 . S
N214 N215 1.365 . S
N215 C212 1.341 . S
N215 N214 1.365 . S
N215 H235 0.862 . S
C216 C211 1.501 . S
C216 H217 0.961 . S
C216 H218 0.961 . S
C216 H219 0.960 . S
H217 C216 0.961 . S
H218 C216 0.961 . S
H219 C216 0.960 . S
C220 N221 1.342 . S
C220 C224 1.401 . S
C220 C225 1.499 1_655 S
N221 Co204 1.989 . S
N221 C220 1.342 . S
N221 N222 1.388 . S
N222 Co205 1.993 . S
N222 N221 1.388 . S
N222 C223 1.346 . S
C223 N222 1.346 . S
C223 C224 1.396 . S
C223 C233 1.510 . S
C224 C220 1.401 . S
C224 C223 1.396 . S
C225 C220 1.499 1_455 S
C225 H226 0.959 1_455 S
C225 H227 0.960 . S
C225 H228 0.961 . S
H226 C225 0.959 1_655 S
H227 C225 0.960 . S
H228 C225 0.961 . S
O229 Co204 1.967 . S
O229 C237 1.258 . S
O230 Co205 1.941 . S
O230 C237 1.266 . S
H231 C233 0.959 . S
H232 C233 0.961 . S
C233 C223 1.510 . S
C233 H231 0.959 . S
C233 H232 0.961 . S
C233 H234 0.960 . S
H234 C233 0.960 . S
H235 N215 0.862 . S
O236 Co204 1.920 . S
O236 C209 1.289 . S
C237 O229 1.258 . S
C237 O230 1.266 . S
Co238 O241 1.970 . S
Co238 N255 1.989 . S
Co238 O263 1.967 . S
Co238 O270 1.920 . S
Co239 O242 1.966 . S
Co239 N248 2.022 . S
Co239 N256 1.993 . S
Co239 O264 1.941 . S
C240 O241 1.258 . S
C240 O242 1.263 . S
O241 Co238 1.970 . S
O241 C240 1.258 . S
O242 Co239 1.966 . S
O242 C240 1.263 . S
C243 O244 1.235 . S
C243 O270 1.289 . S
O244 C243 1.235 . S
C245 C247 1.400 . S
C245 N248 1.351 . S
C245 C250 1.501 . S
C246 C247 1.387 . S
C246 N249 1.341 . S
C247 C245 1.400 . S
C247 C246 1.387 . S
N248 Co239 2.022 . S
N248 C245 1.351 . S
N248 N249 1.365 . S
N249 C246 1.341 . S
N249 N248 1.365 . S
N249 H269 0.862 . S
C250 C245 1.501 . S
C250 H251 0.961 . S
C250 H252 0.961 . S
C250 H253 0.960 . S
H251 C250 0.961 . S
H252 C250 0.961 . S
H253 C250 0.960 . S
C254 N255 1.342 . S
C254 C258 1.401 . S
C254 C259 1.499 1_565 S
N255 Co238 1.989 . S
N255 C254 1.342 . S
N255 N256 1.388 . S
N256 Co239 1.993 . S
N256 N255 1.388 . S
N256 C257 1.346 . S
C257 N256 1.346 . S
C257 C258 1.396 . S
C257 C267 1.510 . S
C258 C254 1.401 . S
C258 C257 1.396 . S
C259 C254 1.499 1_545 S
C259 H260 0.959 1_545 S
C259 H261 0.960 . S
C259 H262 0.961 . S
H260 C259 0.959 1_565 S
H261 C259 0.960 . S
H262 C259 0.961 . S
O263 Co238 1.967 . S
O263 C271 1.258 . S
O264 Co239 1.941 . S
O264 C271 1.266 . S
H265 C267 0.959 . S
H266 C267 0.961 . S
C267 C257 1.510 . S
C267 H265 0.959 . S
C267 H266 0.961 . S
C267 H268 0.960 . S
H268 C267 0.960 . S
H269 N249 0.862 . S
O270 Co238 1.920 . S
O270 C243 1.289 . S
C271 O263 1.258 . S
C271 O264 1.266 . S
Co272 O275 1.970 . S
Co272 N289 1.989 . S
Co272 O297 1.967 . S
Co272 O304 1.920 . S
Co273 O276 1.966 . S
Co273 N282 2.022 . S
Co273 N290 1.993 . S
Co273 O298 1.941 . S
C274 O275 1.258 . S
C274 O276 1.263 . S
O275 Co272 1.970 . S
O275 C274 1.258 . S
O276 Co273 1.966 . S
O276 C274 1.263 . S
C277 O278 1.235 . S
C277 O304 1.289 . S
O278 C277 1.235 . S
C279 C281 1.400 . S
C279 N282 1.351 . S
C279 C284 1.501 . S
C280 C281 1.387 . S
C280 N283 1.341 . S
C281 C279 1.400 . S
C281 C280 1.387 . S
N282 Co273 2.022 . S
N282 C279 1.351 . S
N282 N283 1.365 . S
N283 C280 1.341 . S
N283 N282 1.365 . S
N283 H303 0.862 . S
C284 C279 1.501 . S
C284 H285 0.961 . S
C284 H286 0.961 . S
C284 H287 0.960 . S
H285 C284 0.961 . S
H286 C284 0.961 . S
H287 C284 0.960 . S
C288 N289 1.342 . S
C288 C292 1.401 . S
C288 C293 1.499 1_545 S
N289 Co272 1.989 . S
N289 C288 1.342 . S
N289 N290 1.388 . S
N290 Co273 1.993 . S
N290 N289 1.388 . S
N290 C291 1.346 . S
C291 N290 1.346 . S
C291 C292 1.396 . S
C291 C301 1.510 . S
C292 C288 1.401 . S
C292 C291 1.396 . S
C293 C288 1.499 1_565 S
C293 H294 0.959 1_565 S
C293 H295 0.960 . S
C293 H296 0.961 . S
H294 C293 0.959 1_545 S
H295 C293 0.960 . S
H296 C293 0.961 . S
O297 Co272 1.967 . S
O297 C305 1.258 . S
O298 Co273 1.941 . S
O298 C305 1.266 . S
H299 C301 0.959 . S
H300 C301 0.961 . S
C301 C291 1.510 . S
C301 H299 0.959 . S
C301 H300 0.961 . S
C301 H302 0.960 . S
H302 C301 0.960 . S
H303 N283 0.862 . S
O304 Co272 1.920 . S
O304 C277 1.289 . S
C305 O297 1.258 . S
C305 O298 1.266 . S
Co306 O309 1.970 . S
Co306 N323 1.989 . S
Co306 O331 1.967 . S
Co306 O338 1.920 . S
Co307 O310 1.966 . S
Co307 N316 2.022 . S
Co307 N324 1.993 . S
Co307 O332 1.941 . S
C308 O309 1.258 . S
C308 O310 1.263 . S
O309 Co306 1.970 . S
O309 C308 1.258 . S
O310 Co307 1.966 . S
O310 C308 1.263 . S
C311 O312 1.235 . S
C311 O338 1.289 . S
O312 C311 1.235 . S
C313 C315 1.400 . S
C313 N316 1.351 . S
C313 C318 1.501 . S
C314 C315 1.387 . S
C314 N317 1.341 . S
C315 C313 1.400 . S
C315 C314 1.387 . S
N316 Co307 2.022 . S
N316 C313 1.351 . S
N316 N317 1.365 . S
N317 C314 1.341 . S
N317 N316 1.365 . S
N317 H337 0.862 . S
C318 C313 1.501 . S
C318 H319 0.961 . S
C318 H320 0.961 . S
C318 H321 0.960 . S
H319 C318 0.961 . S
H320 C318 0.961 . S
H321 C318 0.960 . S
C322 N323 1.342 . S
C322 C326 1.401 . S
C322 C327 1.499 1_655 S
N323 Co306 1.989 . S
N323 C322 1.342 . S
N323 N324 1.388 . S
N324 Co307 1.993 . S
N324 N323 1.388 . S
N324 C325 1.346 . S
C325 N324 1.346 . S
C325 C326 1.396 . S
C325 C335 1.510 . S
C326 C322 1.401 . S
C326 C325 1.396 . S
C327 C322 1.499 1_455 S
C327 H328 0.959 1_455 S
C327 H329 0.960 . S
C327 H330 0.961 . S
H328 C327 0.959 1_655 S
H329 C327 0.960 . S
H330 C327 0.961 . S
O331 Co306 1.967 . S
O331 C339 1.258 . S
O332 Co307 1.941 . S
O332 C339 1.266 . S
H333 C335 0.959 . S
H334 C335 0.961 . S
C335 C325 1.510 . S
C335 H333 0.959 . S
C335 H334 0.961 . S
C335 H336 0.960 . S
H336 C335 0.960 . S
H337 N317 0.862 . S
O338 Co306 1.920 . S
O338 C311 1.289 . S
C339 O331 1.258 . S
C339 O332 1.266 . S
Co340 O343 1.970 . S
Co340 N357 1.989 . S
Co340 O365 1.967 . S
Co340 O372 1.920 . S
Co341 O344 1.966 . S
Co341 N350 2.022 . S
Co341 N358 1.993 . S
Co341 O366 1.941 . S
C342 O343 1.258 . S
C342 O344 1.263 . S
O343 Co340 1.970 . S
O343 C342 1.258 . S
O344 Co341 1.966 . S
O344 C342 1.263 . S
C345 O346 1.235 . S
C345 O372 1.289 . S
O346 C345 1.235 . S
C347 C349 1.400 . S
C347 N350 1.351 . S
C347 C352 1.501 . S
C348 C349 1.387 . S
C348 N351 1.341 . S
C349 C347 1.400 . S
C349 C348 1.387 . S
N350 Co341 2.022 . S
N350 C347 1.351 . S
N350 N351 1.365 . S
N351 C348 1.341 . S
N351 N350 1.365 . S
N351 H371 0.862 . S
C352 C347 1.501 . S
C352 H353 0.961 . S
C352 H354 0.961 . S
C352 H355 0.960 . S
H353 C352 0.961 . S
H354 C352 0.961 . S
H355 C352 0.960 . S
C356 N357 1.342 . S
C356 C360 1.401 . S
C356 C361 1.499 1_565 S
N357 Co340 1.989 . S
N357 C356 1.342 . S
N357 N358 1.388 . S
N358 Co341 1.993 . S
N358 N357 1.388 . S
N358 C359 1.346 . S
C359 N358 1.346 . S
C359 C360 1.396 . S
C359 C369 1.510 . S
C360 C356 1.401 . S
C360 C359 1.396 . S
C361 C356 1.499 1_545 S
C361 H362 0.959 1_545 S
C361 H363 0.960 . S
C361 H364 0.961 . S
H362 C361 0.959 1_565 S
H363 C361 0.960 . S
H364 C361 0.961 . S
O365 Co340 1.967 . S
O365 C373 1.258 . S
O366 Co341 1.941 . S
O366 C373 1.266 . S
H367 C369 0.959 . S
H368 C369 0.961 . S
C369 C359 1.510 . S
C369 H367 0.959 . S
C369 H368 0.961 . S
C369 H370 0.960 . S
H370 C369 0.960 . S
H371 N351 0.862 . S
O372 Co340 1.920 . S
O372 C345 1.289 . S
C373 O365 1.258 . S
C373 O366 1.266 . S
Co374 O377 1.970 . S
Co374 N391 1.989 . S
Co374 O399 1.967 . S
Co374 O406 1.920 . S
Co375 O378 1.966 . S
Co375 N384 2.022 . S
Co375 N392 1.993 . S
Co375 O400 1.941 . S
C376 O377 1.258 . S
C376 O378 1.263 . S
O377 Co374 1.970 . S
O377 C376 1.258 . S
O378 Co375 1.966 . S
O378 C376 1.263 . S
C379 O380 1.235 . S
C379 O406 1.289 . S
O380 C379 1.235 . S
C381 C383 1.400 . S
C381 N384 1.351 . S
C381 C386 1.501 . S
C382 C383 1.387 . S
C382 N385 1.341 . S
C383 C381 1.400 . S
C383 C382 1.387 . S
N384 Co375 2.022 . S
N384 C381 1.351 . S
N384 N385 1.365 . S
N385 C382 1.341 . S
N385 N384 1.365 . S
N385 H405 0.862 . S
C386 C381 1.501 . S
C386 H387 0.961 . S
C386 H388 0.961 . S
C386 H389 0.960 . S
H387 C386 0.961 . S
H388 C386 0.961 . S
H389 C386 0.960 . S
C390 N391 1.342 . S
C390 C394 1.401 . S
C390 C395 1.499 1_455 S
N391 Co374 1.989 . S
N391 C390 1.342 . S
N391 N392 1.388 . S
N392 Co375 1.993 . S
N392 N391 1.388 . S
N392 C393 1.346 . S
C393 N392 1.346 . S
C393 C394 1.396 . S
C393 C403 1.510 . S
C394 C390 1.401 . S
C394 C393 1.396 . S
C395 C390 1.499 1_655 S
C395 H396 0.959 1_655 S
C395 H397 0.960 . S
C395 H398 0.961 . S
H396 C395 0.959 1_455 S
H397 C395 0.960 . S
H398 C395 0.961 . S
O399 Co374 1.967 . S
O399 C407 1.258 . S
O400 Co375 1.941 . S
O400 C407 1.266 . S
H401 C403 0.959 . S
H402 C403 0.961 . S
C403 C393 1.510 . S
C403 H401 0.959 . S
C403 H402 0.961 . S
C403 H404 0.960 . S
H404 C403 0.960 . S
H405 N385 0.862 . S
O406 Co374 1.920 . S
O406 C379 1.289 . S
C407 O399 1.258 . S
C407 O400 1.266 . S
Co408 O411 1.970 . S
Co408 N425 1.989 . S
Co408 O433 1.967 . S
Co408 O440 1.920 . S
Co409 O412 1.966 . S
Co409 N418 2.022 . S
Co409 N426 1.993 . S
Co409 O434 1.941 . S
C410 O411 1.258 . S
C410 O412 1.263 . S
O411 Co408 1.970 . S
O411 C410 1.258 . S
O412 Co409 1.966 . S
O412 C410 1.263 . S
C413 O414 1.235 . S
C413 O440 1.289 . S
O414 C413 1.235 . S
C415 C417 1.400 . S
C415 N418 1.351 . S
C415 C420 1.501 . S
C416 C417 1.387 . S
C416 N419 1.341 . S
C417 C415 1.400 . S
C417 C416 1.387 . S
N418 Co409 2.022 . S
N418 C415 1.351 . S
N418 N419 1.365 . S
N419 C416 1.341 . S
N419 N418 1.365 . S
N419 H439 0.862 . S
C420 C415 1.501 . S
C420 H421 0.961 . S
C420 H422 0.961 . S
C420 H423 0.960 . S
H421 C420 0.961 . S
H422 C420 0.961 . S
H423 C420 0.960 . S
C424 N425 1.342 . S
C424 C428 1.401 . S
C424 C429 1.499 1_565 S
N425 Co408 1.989 . S
N425 C424 1.342 . S
N425 N426 1.388 . S
N426 Co409 1.993 . S
N426 N425 1.388 . S
N426 C427 1.346 . S
C427 N426 1.346 . S
C427 C428 1.396 . S
C427 C437 1.510 . S
C428 C424 1.401 . S
C428 C427 1.396 . S
C429 C424 1.499 1_545 S
C429 H430 0.959 1_545 S
C429 H431 0.960 . S
C429 H432 0.961 . S
H430 C429 0.959 1_565 S
H431 C429 0.960 . S
H432 C429 0.961 . S
O433 Co408 1.967 . S
O433 C441 1.258 . S
O434 Co409 1.941 . S
O434 C441 1.266 . S
H435 C437 0.959 . S
H436 C437 0.961 . S
C437 C427 1.510 . S
C437 H435 0.959 . S
C437 H436 0.961 . S
C437 H438 0.960 . S
H438 C437 0.960 . S
H439 N419 0.862 . S
O440 Co408 1.920 . S
O440 C413 1.289 . S
C441 O433 1.258 . S
C441 O434 1.266 . S
Co442 O445 1.970 . S
Co442 N459 1.989 . S
Co442 O467 1.967 . S
Co442 O474 1.920 . S
Co443 O446 1.966 . S
Co443 N452 2.022 . S
Co443 N460 1.993 . S
Co443 O468 1.941 . S
C444 O445 1.258 . S
C444 O446 1.263 . S
O445 Co442 1.970 . S
O445 C444 1.258 . S
O446 Co443 1.966 . S
O446 C444 1.263 . S
C447 O448 1.235 . S
C447 O474 1.289 . S
O448 C447 1.235 . S
C449 C451 1.400 . S
C449 N452 1.351 . S
C449 C454 1.501 . S
C450 C451 1.387 . S
C450 N453 1.341 . S
C451 C449 1.400 . S
C451 C450 1.387 . S
N452 Co443 2.022 . S
N452 C449 1.351 . S
N452 N453 1.365 . S
N453 C450 1.341 . S
N453 N452 1.365 . S
N453 H473 0.862 . S
C454 C449 1.501 . S
C454 H455 0.961 . S
C454 H456 0.961 . S
C454 H457 0.960 . S
H455 C454 0.961 . S
H456 C454 0.961 . S
H457 C454 0.960 . S
C458 N459 1.342 . S
C458 C462 1.401 . S
C458 C463 1.499 1_455 S
N459 Co442 1.989 . S
N459 C458 1.342 . S
N459 N460 1.388 . S
N460 Co443 1.993 . S
N460 N459 1.388 . S
N460 C461 1.346 . S
C461 N460 1.346 . S
C461 C462 1.396 . S
C461 C471 1.510 . S
C462 C458 1.401 . S
C462 C461 1.396 . S
C463 C458 1.499 1_655 S
C463 H464 0.959 1_655 S
C463 H465 0.960 . S
C463 H466 0.961 . S
H464 C463 0.959 1_455 S
H465 C463 0.960 . S
H466 C463 0.961 . S
O467 Co442 1.967 . S
O467 C475 1.258 . S
O468 Co443 1.941 . S
O468 C475 1.266 . S
H469 C471 0.959 . S
H470 C471 0.961 . S
C471 C461 1.510 . S
C471 H469 0.959 . S
C471 H470 0.961 . S
C471 H472 0.960 . S
H472 C471 0.960 . S
H473 N453 0.862 . S
O474 Co442 1.920 . S
O474 C447 1.289 . S
C475 O467 1.258 . S
C475 O468 1.266 . S
Co476 O479 1.970 . S
Co476 N493 1.989 . S
Co476 O501 1.967 . S
Co476 O508 1.920 . S
Co477 O480 1.966 . S
Co477 N486 2.022 . S
Co477 N494 1.993 . S
Co477 O502 1.941 . S
C478 O479 1.258 . S
C478 O480 1.263 . S
O479 Co476 1.970 . S
O479 C478 1.258 . S
O480 Co477 1.966 . S
O480 C478 1.263 . S
C481 O482 1.235 . S
C481 O508 1.289 . S
O482 C481 1.235 . S
C483 C485 1.400 . S
C483 N486 1.351 . S
C483 C488 1.501 . S
C484 C485 1.387 . S
C484 N487 1.341 . S
C485 C483 1.400 . S
C485 C484 1.387 . S
N486 Co477 2.022 . S
N486 C483 1.351 . S
N486 N487 1.365 . S
N487 C484 1.341 . S
N487 N486 1.365 . S
N487 H507 0.862 . S
C488 C483 1.501 . S
C488 H489 0.961 . S
C488 H490 0.961 . S
C488 H491 0.960 . S
H489 C488 0.961 . S
H490 C488 0.961 . S
H491 C488 0.960 . S
C492 N493 1.342 . S
C492 C496 1.401 . S
C492 C497 1.499 1_545 S
N493 Co476 1.989 . S
N493 C492 1.342 . S
N493 N494 1.388 . S
N494 Co477 1.993 . S
N494 N493 1.388 . S
N494 C495 1.346 . S
C495 N494 1.346 . S
C495 C496 1.396 . S
C495 C505 1.510 . S
C496 C492 1.401 . S
C496 C495 1.396 . S
C497 C492 1.499 1_565 S
C497 H498 0.959 1_565 S
C497 H499 0.960 . S
C497 H500 0.961 . S
H498 C497 0.959 1_545 S
H499 C497 0.960 . S
H500 C497 0.961 . S
O501 Co476 1.967 . S
O501 C509 1.258 . S
O502 Co477 1.941 . S
O502 C509 1.266 . S
H503 C505 0.959 . S
H504 C505 0.961 . S
C505 C495 1.510 . S
C505 H503 0.959 . S
C505 H504 0.961 . S
C505 H506 0.960 . S
H506 C505 0.960 . S
H507 N487 0.862 . S
O508 Co476 1.920 . S
O508 C481 1.289 . S
C509 O501 1.258 . S
C509 O502 1.266 . S
Co510 O513 1.970 . S
Co510 N527 1.989 . S
Co510 O535 1.967 . S
Co510 O542 1.920 . S
Co511 O514 1.966 . S
Co511 N520 2.022 . S
Co511 N528 1.993 . S
Co511 O536 1.941 . S
C512 O513 1.258 . S
C512 O514 1.263 . S
O513 Co510 1.970 . S
O513 C512 1.258 . S
O514 Co511 1.966 . S
O514 C512 1.263 . S
C515 O516 1.235 . S
C515 O542 1.289 . S
O516 C515 1.235 . S
C517 C519 1.400 . S
C517 N520 1.351 . S
C517 C522 1.501 . S
C518 C519 1.387 . S
C518 N521 1.341 . S
C519 C517 1.400 . S
C519 C518 1.387 . S
N520 Co511 2.022 . S
N520 C517 1.351 . S
N520 N521 1.365 . S
N521 C518 1.341 . S
N521 N520 1.365 . S
N521 H541 0.862 . S
C522 C517 1.501 . S
C522 H523 0.961 . S
C522 H524 0.961 . S
C522 H525 0.960 . S
H523 C522 0.961 . S
H524 C522 0.961 . S
H525 C522 0.960 . S
C526 N527 1.342 . S
C526 C530 1.401 . S
C526 C531 1.499 1_655 S
N527 Co510 1.989 . S
N527 C526 1.342 . S
N527 N528 1.388 . S
N528 Co511 1.993 . S
N528 N527 1.388 . S
N528 C529 1.346 . S
C529 N528 1.346 . S
C529 C530 1.396 . S
C529 C539 1.510 . S
C530 C526 1.401 . S
C530 C529 1.396 . S
C531 C526 1.499 1_455 S
C531 H532 0.959 1_455 S
C531 H533 0.960 . S
C531 H534 0.961 . S
H532 C531 0.959 1_655 S
H533 C531 0.960 . S
H534 C531 0.961 . S
O535 Co510 1.967 . S
O535 C543 1.258 . S
O536 Co511 1.941 . S
O536 C543 1.266 . S
H537 C539 0.959 . S
H538 C539 0.961 . S
C539 C529 1.510 . S
C539 H537 0.959 . S
C539 H538 0.961 . S
C539 H540 0.960 . S
H540 C539 0.960 . S
H541 N521 0.862 . S
O542 Co510 1.920 . S
O542 C515 1.289 . S
C543 O535 1.258 . S
C543 O536 1.266 . S
Co544 O547 1.970 . S
Co544 N561 1.989 . S
Co544 O569 1.967 . S
Co544 O576 1.920 . S
Co545 O548 1.966 . S
Co545 N554 2.022 . S
Co545 N562 1.993 . S
Co545 O570 1.941 . S
C546 O547 1.258 . S
C546 O548 1.263 . S
O547 Co544 1.970 . S
O547 C546 1.258 . S
O548 Co545 1.966 . S
O548 C546 1.263 . S
C549 O550 1.235 . S
C549 O576 1.289 . S
O550 C549 1.235 . S
C551 C553 1.400 . S
C551 N554 1.351 . S
C551 C556 1.501 . S
C552 C553 1.387 . S
C552 N555 1.341 . S
C553 C551 1.400 . S
C553 C552 1.387 . S
N554 Co545 2.022 . S
N554 C551 1.351 . S
N554 N555 1.365 . S
N555 C552 1.341 . S
N555 N554 1.365 . S
N555 H575 0.862 . S
C556 C551 1.501 . S
C556 H557 0.961 . S
C556 H558 0.961 . S
C556 H559 0.960 . S
H557 C556 0.961 . S
H558 C556 0.961 . S
H559 C556 0.960 . S
C560 N561 1.342 . S
C560 C564 1.401 . S
C560 C565 1.499 1_554 S
N561 Co544 1.989 . S
N561 C560 1.342 . S
N561 N562 1.388 . S
N562 Co545 1.993 . S
N562 N561 1.388 . S
N562 C563 1.346 . S
C563 N562 1.346 . S
C563 C564 1.396 . S
C563 C573 1.510 . S
C564 C560 1.401 . S
C564 C563 1.396 . S
C565 C560 1.499 1_556 S
C565 H566 0.959 1_556 S
C565 H567 0.960 . S
C565 H568 0.961 . S
H566 C565 0.959 1_554 S
H567 C565 0.960 . S
H568 C565 0.961 . S
O569 Co544 1.967 . S
O569 C577 1.258 . S
O570 Co545 1.941 . S
O570 C577 1.266 . S
H571 C573 0.959 . S
H572 C573 0.961 . S
C573 C563 1.510 . S
C573 H571 0.959 . S
C573 H572 0.961 . S
C573 H574 0.960 . S
H574 C573 0.960 . S
H575 N555 0.862 . S
O576 Co544 1.920 . S
O576 C549 1.289 . S
C577 O569 1.258 . S
C577 O570 1.266 . S
Co578 O581 1.970 . S
Co578 N595 1.989 . S
Co578 O603 1.967 . S
Co578 O610 1.920 . S
Co579 O582 1.966 . S
Co579 N588 2.022 . S
Co579 N596 1.993 . S
Co579 O604 1.941 . S
C580 O581 1.258 . S
C580 O582 1.263 . S
O581 Co578 1.970 . S
O581 C580 1.258 . S
O582 Co579 1.966 . S
O582 C580 1.263 . S
C583 O584 1.235 . S
C583 O610 1.289 . S
O584 C583 1.235 . S
C585 C587 1.400 . S
C585 N588 1.351 . S
C585 C590 1.501 . S
C586 C587 1.387 . S
C586 N589 1.341 . S
C587 C585 1.400 . S
C587 C586 1.387 . S
N588 Co579 2.022 . S
N588 C585 1.351 . S
N588 N589 1.365 . S
N589 C586 1.341 . S
N589 N588 1.365 . S
N589 H609 0.862 . S
C590 C585 1.501 . S
C590 H591 0.961 . S
C590 H592 0.961 . S
C590 H593 0.960 . S
H591 C590 0.961 . S
H592 C590 0.961 . S
H593 C590 0.960 . S
C594 N595 1.342 . S
C594 C598 1.401 . S
C594 C599 1.499 1_556 S
N595 Co578 1.989 . S
N595 C594 1.342 . S
N595 N596 1.388 . S
N596 Co579 1.993 . S
N596 N595 1.388 . S
N596 C597 1.346 . S
C597 N596 1.346 . S
C597 C598 1.396 . S
C597 C607 1.510 . S
C598 C594 1.401 . S
C598 C597 1.396 . S
C599 C594 1.499 1_554 S
C599 H600 0.959 1_554 S
C599 H601 0.960 . S
C599 H602 0.961 . S
H600 C599 0.959 1_556 S
H601 C599 0.960 . S
H602 C599 0.961 . S
O603 Co578 1.967 . S
O603 C611 1.258 . S
O604 Co579 1.941 . S
O604 C611 1.266 . S
H605 C607 0.959 . S
H606 C607 0.961 . S
C607 C597 1.510 . S
C607 H605 0.959 . S
C607 H606 0.961 . S
C607 H608 0.960 . S
H608 C607 0.960 . S
H609 N589 0.862 . S
O610 Co578 1.920 . S
O610 C583 1.289 . S
C611 O603 1.258 . S
C611 O604 1.266 . S
Co612 O615 1.970 . S
Co612 N629 1.989 . S
Co612 O637 1.967 . S
Co612 O644 1.920 . S
Co613 O616 1.966 . S
Co613 N622 2.022 . S
Co613 N630 1.993 . S
Co613 O638 1.941 . S
C614 O615 1.258 . S
C614 O616 1.263 . S
O615 Co612 1.970 . S
O615 C614 1.258 . S
O616 Co613 1.966 . S
O616 C614 1.263 . S
C617 O618 1.235 . S
C617 O644 1.289 . S
O618 C617 1.235 . S
C619 C621 1.400 . S
C619 N622 1.351 . S
C619 C624 1.501 . S
C620 C621 1.387 . S
C620 N623 1.341 . S
C621 C619 1.400 . S
C621 C620 1.387 . S
N622 Co613 2.022 . S
N622 C619 1.351 . S
N622 N623 1.365 . S
N623 C620 1.341 . S
N623 N622 1.365 . S
N623 H643 0.862 . S
C624 C619 1.501 . S
C624 H625 0.961 . S
C624 H626 0.961 . S
C624 H627 0.960 . S
H625 C624 0.961 . S
H626 C624 0.961 . S
H627 C624 0.960 . S
C628 N629 1.342 . S
C628 C632 1.401 . S
C628 C633 1.499 1_556 S
N629 Co612 1.989 . S
N629 C628 1.342 . S
N629 N630 1.388 . S
N630 Co613 1.993 . S
N630 N629 1.388 . S
N630 C631 1.346 . S
C631 N630 1.346 . S
C631 C632 1.396 . S
C631 C641 1.510 . S
C632 C628 1.401 . S
C632 C631 1.396 . S
C633 C628 1.499 1_554 S
C633 H634 0.959 1_554 S
C633 H635 0.960 . S
C633 H636 0.961 . S
H634 C633 0.959 1_556 S
H635 C633 0.960 . S
H636 C633 0.961 . S
O637 Co612 1.967 . S
O637 C645 1.258 . S
O638 Co613 1.941 . S
O638 C645 1.266 . S
H639 C641 0.959 . S
H640 C641 0.961 . S
C641 C631 1.510 . S
C641 H639 0.959 . S
C641 H640 0.961 . S
C641 H642 0.960 . S
H642 C641 0.960 . S
H643 N623 0.862 . S
O644 Co612 1.920 . S
O644 C617 1.289 . S
C645 O637 1.258 . S
C645 O638 1.266 . S
Co646 O649 1.970 . S
Co646 N663 1.989 . S
Co646 O671 1.967 . S
Co646 O678 1.920 . S
Co647 O650 1.966 . S
Co647 N656 2.022 . S
Co647 N664 1.993 . S
Co647 O672 1.941 . S
C648 O649 1.258 . S
C648 O650 1.263 . S
O649 Co646 1.970 . S
O649 C648 1.258 . S
O650 Co647 1.966 . S
O650 C648 1.263 . S
C651 O652 1.235 . S
C651 O678 1.289 . S
O652 C651 1.235 . S
C653 C655 1.400 . S
C653 N656 1.351 . S
C653 C658 1.501 . S
C654 C655 1.387 . S
C654 N657 1.341 . S
C655 C653 1.400 . S
C655 C654 1.387 . S
N656 Co647 2.022 . S
N656 C653 1.351 . S
N656 N657 1.365 . S
N657 C654 1.341 . S
N657 N656 1.365 . S
N657 H677 0.862 . S
C658 C653 1.501 . S
C658 H659 0.961 . S
C658 H660 0.961 . S
C658 H661 0.960 . S
H659 C658 0.961 . S
H660 C658 0.961 . S
H661 C658 0.960 . S
C662 N663 1.342 . S
C662 C666 1.401 . S
C662 C667 1.499 1_556 S
N663 Co646 1.989 . S
N663 C662 1.342 . S
N663 N664 1.388 . S
N664 Co647 1.993 . S
N664 N663 1.388 . S
N664 C665 1.346 . S
C665 N664 1.346 . S
C665 C666 1.396 . S
C665 C675 1.510 . S
C666 C662 1.401 . S
C666 C665 1.396 . S
C667 C662 1.499 1_554 S
C667 H668 0.959 1_554 S
C667 H669 0.960 . S
C667 H670 0.961 . S
H668 C667 0.959 1_556 S
H669 C667 0.960 . S
H670 C667 0.961 . S
O671 Co646 1.967 . S
O671 C679 1.258 . S
O672 Co647 1.941 . S
O672 C679 1.266 . S
H673 C675 0.959 . S
H674 C675 0.961 . S
C675 C665 1.510 . S
C675 H673 0.959 . S
C675 H674 0.961 . S
C675 H676 0.960 . S
H676 C675 0.960 . S
H677 N657 0.862 . S
O678 Co646 1.920 . S
O678 C651 1.289 . S
C679 O671 1.258 . S
C679 O672 1.266 . S
Co680 O683 1.970 . S
Co680 N697 1.989 . S
Co680 O705 1.967 . S
Co680 O712 1.920 . S
Co681 O684 1.966 . S
Co681 N690 2.022 . S
Co681 N698 1.993 . S
Co681 O706 1.941 . S
C682 O683 1.258 . S
C682 O684 1.263 . S
O683 Co680 1.970 . S
O683 C682 1.258 . S
O684 Co681 1.966 . S
O684 C682 1.263 . S
C685 O686 1.235 . S
C685 O712 1.289 . S
O686 C685 1.235 . S
C687 C689 1.400 . S
C687 N690 1.351 . S
C687 C692 1.501 . S
C688 C689 1.387 . S
C688 N691 1.341 . S
C689 C687 1.400 . S
C689 C688 1.387 . S
N690 Co681 2.022 . S
N690 C687 1.351 . S
N690 N691 1.365 . S
N691 C688 1.341 . S
N691 N690 1.365 . S
N691 H711 0.862 . S
C692 C687 1.501 . S
C692 H693 0.961 . S
C692 H694 0.961 . S
C692 H695 0.960 . S
H693 C692 0.961 . S
H694 C692 0.961 . S
H695 C692 0.960 . S
C696 N697 1.342 . S
C696 C700 1.401 . S
C696 C701 1.499 1_556 S
N697 Co680 1.989 . S
N697 C696 1.342 . S
N697 N698 1.388 . S
N698 Co681 1.993 . S
N698 N697 1.388 . S
N698 C699 1.346 . S
C699 N698 1.346 . S
C699 C700 1.396 . S
C699 C709 1.510 . S
C700 C696 1.401 . S
C700 C699 1.396 . S
C701 C696 1.499 1_554 S
C701 H702 0.959 1_554 S
C701 H703 0.960 . S
C701 H704 0.961 . S
H702 C701 0.959 1_556 S
H703 C701 0.960 . S
H704 C701 0.961 . S
O705 Co680 1.967 . S
O705 C713 1.258 . S
O706 Co681 1.941 . S
O706 C713 1.266 . S
H707 C709 0.959 . S
H708 C709 0.961 . S
C709 C699 1.510 . S
C709 H707 0.959 . S
C709 H708 0.961 . S
C709 H710 0.960 . S
H710 C709 0.960 . S
H711 N691 0.862 . S
O712 Co680 1.920 . S
O712 C685 1.289 . S
C713 O705 1.258 . S
C713 O706 1.266 . S
Co714 O717 1.970 . S
Co714 N731 1.989 . S
Co714 O739 1.967 . S
Co714 O746 1.920 . S
Co715 O718 1.966 . S
Co715 N724 2.022 . S
Co715 N732 1.993 . S
Co715 O740 1.941 . S
C716 O717 1.258 . S
C716 O718 1.263 . S
O717 Co714 1.970 . S
O717 C716 1.258 . S
O718 Co715 1.966 . S
O718 C716 1.263 . S
C719 O720 1.235 . S
C719 O746 1.289 . S
O720 C719 1.235 . S
C721 C723 1.400 . S
C721 N724 1.351 . S
C721 C726 1.501 . S
C722 C723 1.387 . S
C722 N725 1.341 . S
C723 C721 1.400 . S
C723 C722 1.387 . S
N724 Co715 2.022 . S
N724 C721 1.351 . S
N724 N725 1.365 . S
N725 C722 1.341 . S
N725 N724 1.365 . S
N725 H745 0.862 . S
C726 C721 1.501 . S
C726 H727 0.961 . S
C726 H728 0.961 . S
C726 H729 0.960 . S
H727 C726 0.961 . S
H728 C726 0.961 . S
H729 C726 0.960 . S
C730 N731 1.342 . S
C730 C734 1.401 . S
C730 C735 1.499 1_554 S
N731 Co714 1.989 . S
N731 C730 1.342 . S
N731 N732 1.388 . S
N732 Co715 1.993 . S
N732 N731 1.388 . S
N732 C733 1.346 . S
C733 N732 1.346 . S
C733 C734 1.396 . S
C733 C743 1.510 . S
C734 C730 1.401 . S
C734 C733 1.396 . S
C735 C730 1.499 1_556 S
C735 H736 0.959 1_556 S
C735 H737 0.960 . S
C735 H738 0.961 . S
H736 C735 0.959 1_554 S
H737 C735 0.960 . S
H738 C735 0.961 . S
O739 Co714 1.967 . S
O739 C747 1.258 . S
O740 Co715 1.941 . S
O740 C747 1.266 . S
H741 C743 0.959 . S
H742 C743 0.961 . S
C743 C733 1.510 . S
C743 H741 0.959 . S
C743 H742 0.961 . S
C743 H744 0.960 . S
H744 C743 0.960 . S
H745 N725 0.862 . S
O746 Co714 1.920 . S
O746 C719 1.289 . S
C747 O739 1.258 . S
C747 O740 1.266 . S
Co748 O751 1.970 . S
Co748 N765 1.989 . S
Co748 O773 1.967 . S
Co748 O780 1.920 . S
Co749 O752 1.966 . S
Co749 N758 2.022 . S
Co749 N766 1.993 . S
Co749 O774 1.941 . S
C750 O751 1.258 . S
C750 O752 1.263 . S
O751 Co748 1.970 . S
O751 C750 1.258 . S
O752 Co749 1.966 . S
O752 C750 1.263 . S
C753 O754 1.235 . S
C753 O780 1.289 . S
O754 C753 1.235 . S
C755 C757 1.400 . S
C755 N758 1.351 . S
C755 C760 1.501 . S
C756 C757 1.387 . S
C756 N759 1.341 . S
C757 C755 1.400 . S
C757 C756 1.387 . S
N758 Co749 2.022 . S
N758 C755 1.351 . S
N758 N759 1.365 . S
N759 C756 1.341 . S
N759 N758 1.365 . S
N759 H779 0.862 . S
C760 C755 1.501 . S
C760 H761 0.961 . S
C760 H762 0.961 . S
C760 H763 0.960 . S
H761 C760 0.961 . S
H762 C760 0.961 . S
H763 C760 0.960 . S
C764 N765 1.342 . S
C764 C768 1.401 . S
C764 C769 1.499 1_554 S
N765 Co748 1.989 . S
N765 C764 1.342 . S
N765 N766 1.388 . S
N766 Co749 1.993 . S
N766 N765 1.388 . S
N766 C767 1.346 . S
C767 N766 1.346 . S
C767 C768 1.396 . S
C767 C777 1.510 . S
C768 C764 1.401 . S
C768 C767 1.396 . S
C769 C764 1.499 1_556 S
C769 H770 0.959 1_556 S
C769 H771 0.960 . S
C769 H772 0.961 . S
H770 C769 0.959 1_554 S
H771 C769 0.960 . S
H772 C769 0.961 . S
O773 Co748 1.967 . S
O773 C781 1.258 . S
O774 Co749 1.941 . S
O774 C781 1.266 . S
H775 C777 0.959 . S
H776 C777 0.961 . S
C777 C767 1.510 . S
C777 H775 0.959 . S
C777 H776 0.961 . S
C777 H778 0.960 . S
H778 C777 0.960 . S
H779 N759 0.862 . S
O780 Co748 1.920 . S
O780 C753 1.289 . S
C781 O773 1.258 . S
C781 O774 1.266 . S
Co782 O785 1.970 . S
Co782 N799 1.989 . S
Co782 O807 1.967 . S
Co782 O814 1.920 . S
Co783 O786 1.966 . S
Co783 N792 2.022 . S
Co783 N800 1.993 . S
Co783 O808 1.941 . S
C784 O785 1.258 . S
C784 O786 1.263 . S
O785 Co782 1.970 . S
O785 C784 1.258 . S
O786 Co783 1.966 . S
O786 C784 1.263 . S
C787 O788 1.235 . S
C787 O814 1.289 . S
O788 C787 1.235 . S
C789 C791 1.400 . S
C789 N792 1.351 . S
C789 C794 1.501 . S
C790 C791 1.387 . S
C790 N793 1.341 . S
C791 C789 1.400 . S
C791 C790 1.387 . S
N792 Co783 2.022 . S
N792 C789 1.351 . S
N792 N793 1.365 . S
N793 C790 1.341 . S
N793 N792 1.365 . S
N793 H813 0.862 . S
C794 C789 1.501 . S
C794 H795 0.961 . S
C794 H796 0.961 . S
C794 H797 0.960 . S
H795 C794 0.961 . S
H796 C794 0.961 . S
H797 C794 0.960 . S
C798 N799 1.342 . S
C798 C802 1.401 . S
C798 C803 1.499 1_554 S
N799 Co782 1.989 . S
N799 C798 1.342 . S
N799 N800 1.388 . S
N800 Co783 1.993 . S
N800 N799 1.388 . S
N800 C801 1.346 . S
C801 N800 1.346 . S
C801 C802 1.396 . S
C801 C811 1.510 . S
C802 C798 1.401 . S
C802 C801 1.396 . S
C803 C798 1.499 1_556 S
C803 H804 0.959 1_556 S
C803 H805 0.960 . S
C803 H806 0.961 . S
H804 C803 0.959 1_554 S
H805 C803 0.960 . S
H806 C803 0.961 . S
O807 Co782 1.967 . S
O807 C815 1.258 . S
O808 Co783 1.941 . S
O808 C815 1.266 . S
H809 C811 0.959 . S
H810 C811 0.961 . S
C811 C801 1.510 . S
C811 H809 0.959 . S
C811 H810 0.961 . S
C811 H812 0.960 . S
H812 C811 0.960 . S
H813 N793 0.862 . S
O814 Co782 1.920 . S
O814 C787 1.289 . S
C815 O807 1.258 . S
C815 O808 1.266 . S
C326 C20 2.637 1_655 S
C360 C54 2.638 1_565 S
C394 C88 2.638 1_455 S
C122 C292 2.637 1_565 S
C530 C156 2.637 1_655 S
C190 C428 2.638 1_545 S
C224 C462 2.638 1_655 S
C258 C496 2.637 1_565 S
C564 C632 2.637 1_554 S
C768 C598 2.638 1_554 S
C666 C802 2.638 1_556 S
C734 C700 2.637 1_554 S
C781 C33 4.869 . S
C577 C67 4.869 . S
C815 C101 4.869 . S
C135 C747 4.869 . S
C645 C169 4.869 . S
C679 C203 4.869 . S
C713 C237 4.869 . S
C611 C271 4.869 . S
C305 C475 4.869 . S
C509 C339 4.869 . S
C543 C373 4.869 . S
C441 C407 4.869 . S
C444 C9 3.550 . S
C43 C478 3.550 . S
C512 C77 3.550 . S
C410 C111 3.550 . S
C376 C145 3.550 . S
C179 C274 3.550 . S
C308 C213 3.550 . S
C342 C247 3.550 . S
C281 C36 3.550 . S
C70 C315 3.550 . S
C349 C104 3.550 . S
C2 C383 3.550 . S
C417 C240 3.550 . S
C138 C451 3.550 . S
C172 C485 3.550 . S
C519 C206 3.550 . S
C553 C750 3.550 . S
C587 C614 3.550 . S
C621 C648 3.550 . S
C682 C655 3.550 . S
C580 C689 3.550 . S
C784 C723 3.550 . S
C757 C716 3.550 . S
C546 C791 3.550 . S
C5 C73 0.783 1_455 S
C39 C107 0.783 1_545 S
C141 C209 0.783 1_455 S
C243 C175 0.783 1_565 S
C413 C277 0.783 1_565 S
C447 C311 0.783 1_455 S
C481 C345 0.783 1_545 S
C515 C379 0.783 1_655 S
C651 C549 0.783 1_556 S
C719 C583 0.783 1_554 S
C617 C753 0.783 1_556 S
C787 C685 0.783 1_554 S
