# Generated by pormake.
# Topology uns, (4)-cn, num edge types: 1
# Building blocks:
#     Node 0, Type 0, BuildingBlock: QUQFOY_clean_sbu_1, # of connection points: 4
#     Node 1, Type 0, BuildingBlock: QUQFOY_clean_sbu_1, # of connection points: 4
#     Node 2, Type 0, BuildingBlock: QUQFOY_clean_sbu_1, # of connection points: 4
#     Node 3, Type 0, BuildingBlock: QUQFOY_clean_sbu_1, # of connection points: 4
#     Node 4, Type 0, BuildingBlock: QUQFOY_clean_sbu_1, # of connection points: 4
#     Node 5, Type 0, BuildingBlock: QUQFOY_clean_sbu_1, # of connection points: 4
#     Node 6, Type 0, BuildingBlock: QUQFOY_clean_sbu_1, # of connection points: 4
#     Node 7, Type 0, BuildingBlock: QUQFOY_clean_sbu_1, # of connection points: 4
#     Node 8, Type 0, BuildingBlock: QUQFOY_clean_sbu_1, # of connection points: 4
#     Node 9, Type 0, BuildingBlock: QUQFOY_clean_sbu_1, # of connection points: 4
#     Node 10, Type 0, BuildingBlock: QUQFOY_clean_sbu_1, # of connection points: 4
#     Node 11, Type 0, BuildingBlock: QUQFOY_clean_sbu_1, # of connection points: 4
#     Node 12, Type 0, BuildingBlock: QUQFOY_clean_sbu_1, # of connection points: 4
#     Node 13, Type 0, BuildingBlock: QUQFOY_clean_sbu_1, # of connection points: 4
#     Node 14, Type 0, BuildingBlock: QUQFOY_clean_sbu_1, # of connection points: 4
#     Node 15, Type 0, BuildingBlock: QUQFOY_clean_sbu_1, # of connection points: 4
#     Node 16, Type 0, BuildingBlock: QUQFOY_clean_sbu_1, # of connection points: 4
#     Node 17, Type 0, BuildingBlock: QUQFOY_clean_sbu_1, # of connection points: 4
#     Node 18, Type 0, BuildingBlock: QUQFOY_clean_sbu_1, # of connection points: 4
#     Node 19, Type 0, BuildingBlock: QUQFOY_clean_sbu_1, # of connection points: 4
#     Node 20, Type 0, BuildingBlock: QUQFOY_clean_sbu_1, # of connection points: 4
#     Node 21, Type 0, BuildingBlock: QUQFOY_clean_sbu_1, # of connection points: 4
#     Node 22, Type 0, BuildingBlock: QUQFOY_clean_sbu_1, # of connection points: 4
#     Node 23, Type 0, BuildingBlock: QUQFOY_clean_sbu_1, # of connection points: 4
#     Node 24, Type 0, BuildingBlock: QUQFOY_clean_sbu_1, # of connection points: 4
#     Node 25, Type 0, BuildingBlock: QUQFOY_clean_sbu_1, # of connection points: 4
#     Node 26, Type 0, BuildingBlock: QUQFOY_clean_sbu_1, # of connection points: 4
#     Node 27, Type 0, BuildingBlock: QUQFOY_clean_sbu_1, # of connection points: 4
#     Node 28, Type 0, BuildingBlock: QUQFOY_clean_sbu_1, # of connection points: 4
#     Node 29, Type 0, BuildingBlock: QUQFOY_clean_sbu_1, # of connection points: 4
#     Node 30, Type 0, BuildingBlock: QUQFOY_clean_sbu_1, # of connection points: 4
#     Node 31, Type 0, BuildingBlock: QUQFOY_clean_sbu_1, # of connection points: 4
#     Node 32, Type 0, BuildingBlock: QUQFOY_clean_sbu_1, # of connection points: 4
#     Node 33, Type 0, BuildingBlock: QUQFOY_clean_sbu_1, # of connection points: 4
#     Node 34, Type 0, BuildingBlock: QUQFOY_clean_sbu_1, # of connection points: 4
#     Node 35, Type 0, BuildingBlock: QUQFOY_clean_sbu_1, # of connection points: 4
#     Edge 36, Type (0, 0), BuildingBlock: UVAHIK_clean_linker_0, # of connection points: 2
#     Edge 37, Type (0, 0), BuildingBlock: UVAHIK_clean_linker_0, # of connection points: 2
#     Edge 38, Type (0, 0), BuildingBlock: UVAHIK_clean_linker_0, # of connection points: 2
#     Edge 39, Type (0, 0), BuildingBlock: UVAHIK_clean_linker_0, # of connection points: 2
#     Edge 40, Type (0, 0), BuildingBlock: UVAHIK_clean_linker_0, # of connection points: 2
#     Edge 41, Type (0, 0), BuildingBlock: UVAHIK_clean_linker_0, # of connection points: 2
#     Edge 42, Type (0, 0), BuildingBlock: UVAHIK_clean_linker_0, # of connection points: 2
#     Edge 43, Type (0, 0), BuildingBlock: UVAHIK_clean_linker_0, # of connection points: 2
#     Edge 44, Type (0, 0), BuildingBlock: UVAHIK_clean_linker_0, # of connection points: 2
#     Edge 45, Type (0, 0), BuildingBlock: UVAHIK_clean_linker_0, # of connection points: 2
#     Edge 46, Type (0, 0), BuildingBlock: UVAHIK_clean_linker_0, # of connection points: 2
#     Edge 47, Type (0, 0), BuildingBlock: UVAHIK_clean_linker_0, # of connection points: 2
#     Edge 48, Type (0, 0), BuildingBlock: UVAHIK_clean_linker_0, # of connection points: 2
#     Edge 49, Type (0, 0), BuildingBlock: UVAHIK_clean_linker_0, # of connection points: 2
#     Edge 50, Type (0, 0), BuildingBlock: UVAHIK_clean_linker_0, # of connection points: 2
#     Edge 51, Type (0, 0), BuildingBlock: UVAHIK_clean_linker_0, # of connection points: 2
#     Edge 52, Type (0, 0), BuildingBlock: UVAHIK_clean_linker_0, # of connection points: 2
#     Edge 53, Type (0, 0), BuildingBlock: UVAHIK_clean_linker_0, # of connection points: 2
#     Edge 54, Type (0, 0), BuildingBlock: UVAHIK_clean_linker_0, # of connection points: 2
#     Edge 55, Type (0, 0), BuildingBlock: UVAHIK_clean_linker_0, # of connection points: 2
#     Edge 56, Type (0, 0), BuildingBlock: UVAHIK_clean_linker_0, # of connection points: 2
#     Edge 57, Type (0, 0), BuildingBlock: UVAHIK_clean_linker_0, # of connection points: 2
#     Edge 58, Type (0, 0), BuildingBlock: UVAHIK_clean_linker_0, # of connection points: 2
#     Edge 59, Type (0, 0), BuildingBlock: UVAHIK_clean_linker_0, # of connection points: 2
#     Edge 60, Type (0, 0), BuildingBlock: UVAHIK_clean_linker_0, # of connection points: 2
#     Edge 61, Type (0, 0), BuildingBlock: UVAHIK_clean_linker_0, # of connection points: 2
#     Edge 62, Type (0, 0), BuildingBlock: UVAHIK_clean_linker_0, # of connection points: 2
#     Edge 63, Type (0, 0), BuildingBlock: UVAHIK_clean_linker_0, # of connection points: 2
#     Edge 64, Type (0, 0), BuildingBlock: UVAHIK_clean_linker_0, # of connection points: 2
#     Edge 65, Type (0, 0), BuildingBlock: UVAHIK_clean_linker_0, # of connection points: 2
#     Edge 66, Type (0, 0), BuildingBlock: UVAHIK_clean_linker_0, # of connection points: 2
#     Edge 67, Type (0, 0), BuildingBlock: UVAHIK_clean_linker_0, # of connection points: 2
#     Edge 68, Type (0, 0), BuildingBlock: UVAHIK_clean_linker_0, # of connection points: 2
#     Edge 69, Type (0, 0), BuildingBlock: UVAHIK_clean_linker_0, # of connection points: 2
#     Edge 70, Type (0, 0), BuildingBlock: UVAHIK_clean_linker_0, # of connection points: 2
#     Edge 71, Type (0, 0), BuildingBlock: UVAHIK_clean_linker_0, # of connection points: 2
#     Edge 72, Type (0, 0), BuildingBlock: UVAHIK_clean_linker_0, # of connection points: 2
#     Edge 73, Type (0, 0), BuildingBlock: UVAHIK_clean_linker_0, # of connection points: 2
#     Edge 74, Type (0, 0), BuildingBlock: UVAHIK_clean_linker_0, # of connection points: 2
#     Edge 75, Type (0, 0), BuildingBlock: UVAHIK_clean_linker_0, # of connection points: 2
#     Edge 76, Type (0, 0), BuildingBlock: UVAHIK_clean_linker_0, # of connection points: 2
#     Edge 77, Type (0, 0), BuildingBlock: UVAHIK_clean_linker_0, # of connection points: 2
#     Edge 78, Type (0, 0), BuildingBlock: UVAHIK_clean_linker_0, # of connection points: 2
#     Edge 79, Type (0, 0), BuildingBlock: UVAHIK_clean_linker_0, # of connection points: 2
#     Edge 80, Type (0, 0), BuildingBlock: UVAHIK_clean_linker_0, # of connection points: 2
#     Edge 81, Type (0, 0), BuildingBlock: UVAHIK_clean_linker_0, # of connection points: 2
#     Edge 82, Type (0, 0), BuildingBlock: UVAHIK_clean_linker_0, # of connection points: 2
#     Edge 83, Type (0, 0), BuildingBlock: UVAHIK_clean_linker_0, # of connection points: 2
#     Edge 84, Type (0, 0), BuildingBlock: UVAHIK_clean_linker_0, # of connection points: 2
#     Edge 85, Type (0, 0), BuildingBlock: UVAHIK_clean_linker_0, # of connection points: 2
#     Edge 86, Type (0, 0), BuildingBlock: UVAHIK_clean_linker_0, # of connection points: 2
#     Edge 87, Type (0, 0), BuildingBlock: UVAHIK_clean_linker_0, # of connection points: 2
#     Edge 88, Type (0, 0), BuildingBlock: UVAHIK_clean_linker_0, # of connection points: 2
#     Edge 89, Type (0, 0), BuildingBlock: UVAHIK_clean_linker_0, # of connection points: 2
#     Edge 90, Type (0, 0), BuildingBlock: UVAHIK_clean_linker_0, # of connection points: 2
#     Edge 91, Type (0, 0), BuildingBlock: UVAHIK_clean_linker_0, # of connection points: 2
#     Edge 92, Type (0, 0), BuildingBlock: UVAHIK_clean_linker_0, # of connection points: 2
#     Edge 93, Type (0, 0), BuildingBlock: UVAHIK_clean_linker_0, # of connection points: 2
#     Edge 94, Type (0, 0), BuildingBlock: UVAHIK_clean_linker_0, # of connection points: 2
#     Edge 95, Type (0, 0), BuildingBlock: UVAHIK_clean_linker_0, # of connection points: 2
#     Edge 96, Type (0, 0), BuildingBlock: UVAHIK_clean_linker_0, # of connection points: 2
#     Edge 97, Type (0, 0), BuildingBlock: UVAHIK_clean_linker_0, # of connection points: 2
#     Edge 98, Type (0, 0), BuildingBlock: UVAHIK_clean_linker_0, # of connection points: 2
#     Edge 99, Type (0, 0), BuildingBlock: UVAHIK_clean_linker_0, # of connection points: 2
#     Edge 100, Type (0, 0), BuildingBlock: UVAHIK_clean_linker_0, # of connection points: 2
#     Edge 101, Type (0, 0), BuildingBlock: UVAHIK_clean_linker_0, # of connection points: 2
#     Edge 102, Type (0, 0), BuildingBlock: UVAHIK_clean_linker_0, # of connection points: 2
#     Edge 103, Type (0, 0), BuildingBlock: UVAHIK_clean_linker_0, # of connection points: 2
#     Edge 104, Type (0, 0), BuildingBlock: UVAHIK_clean_linker_0, # of connection points: 2
#     Edge 105, Type (0, 0), BuildingBlock: UVAHIK_clean_linker_0, # of connection points: 2
#     Edge 106, Type (0, 0), BuildingBlock: UVAHIK_clean_linker_0, # of connection points: 2
#     Edge 107, Type (0, 0), BuildingBlock: UVAHIK_clean_linker_0, # of connection points: 2
# Relax obj value: 0.036
# Max RMSD: 0.169
# Mean RMSD: 0.168
data_MOF--net-uns--node1-QUQFOY_clean_sbu_1--edge1-UVAHIK_clean_linker_0
_symmetry_space_group_name_H-M    P1
_symmetry_Int_Tables_number       1
_symmetry_cell_setting            triclinic
loop_
_symmetry_equiv_pos_as_xyz
'x, y, z'
_cell_length_a     68.177107
_cell_length_b     68.132801
_cell_length_c     85.085445
_cell_angle_alpha  90.077773
_cell_angle_beta   89.922232
_cell_angle_gamma 119.91345
loop_
_atom_site_label
_atom_site_type_symbol
_atom_site_fract_x
_atom_site_fract_y
_atom_site_fract_z
_atom_type_partial_charge
O0 O 0.2752 0.19594 0.05114 0.0
Cd1 Cd 0.29759 0.18608 0.05957 0.0
Cd2 Cd 0.28473 0.19593 0.08576 0.0
O3 O 0.25722 0.19251 0.07341 0.0
O4 O 0.30126 0.1681 0.04241 0.0
O5 O 0.28404 0.1531 0.06494 0.0
C6 C 0.29003 0.15037 0.05105 0.0
C7 C 0.28544 0.17939 0.10953 0.0
C8 C 0.25895 0.19582 0.05863 0.0
C9 C 0.33119 0.22763 0.07524 0.0
O10 O 0.31391 0.22593 0.08213 0.0
O11 O 0.32954 0.21137 0.0669 0.0
O12 O 0.2798 0.19487 0.10893 0.0
O13 O 0.28854 0.17177 0.09638 0.0
O14 O 0.79648 0.08588 0.04454 0.0
Cd15 Cd 0.8071 0.11931 0.04944 0.0
Cd16 Cd 0.80077 0.10263 0.0797 0.0
O17 O 0.79716 0.07381 0.06851 0.0
O18 O 0.82424 0.13643 0.03047 0.0
O19 O 0.84026 0.13983 0.05369 0.0
C20 C 0.84236 0.14498 0.03892 0.0
C21 C 0.81791 0.1161 0.10413 0.0
C22 C 0.79439 0.07026 0.05375 0.0
C23 C 0.77076 0.12057 0.06731 0.0
O24 O 0.77488 0.10956 0.07752 0.0
O25 O 0.78242 0.12758 0.0548 0.0
O26 O 0.79959 0.09685 0.10275 0.0
O27 O 0.8279 0.12667 0.09138 0.0
O28 O 0.92072 0.7159 0.04299 0.0
Cd29 Cd 0.88694 0.69317 0.04678 0.0
Cd30 Cd 0.90203 0.7005 0.07781 0.0
O31 O 0.93179 0.72557 0.06757 0.0
O32 O 0.87066 0.69508 0.0279 0.0
O33 O 0.86633 0.70558 0.05169 0.0
C34 C 0.86167 0.70377 0.03684 0.0
C35 C 0.88913 0.70339 0.10275 0.0
C36 C 0.93606 0.72786 0.05289 0.0
C37 C 0.88343 0.6535 0.06324 0.0
O38 O 0.89364 0.66745 0.07427 0.0
O39 O 0.87795 0.65967 0.0507 0.0
O40 O 0.90774 0.70311 0.10093 0.0
O41 O 0.87888 0.70433 0.09025 0.0
O42 O 0.20256 0.28302 0.47543 0.0
Cd43 Cd 0.19165 0.30504 0.46839 0.0
Cd44 Cd 0.19627 0.29039 0.44043 0.0
O45 O 0.1979 0.26514 0.45291 0.0
O46 O 0.17452 0.30743 0.4866 0.0
O47 O 0.15845 0.29153 0.46395 0.0
C48 C 0.15636 0.29651 0.4783 0.0
C49 C 0.17763 0.28689 0.41677 0.0
C50 C 0.20259 0.26717 0.46752 0.0
C51 C 0.22865 0.33895 0.44903 0.0
O52 O 0.22463 0.32168 0.44093 0.0
O53 O 0.21595 0.33699 0.46059 0.0
O54 O 0.19441 0.28322 0.41758 0.0
O55 O 0.16966 0.28986 0.4298 0.0
O56 O 0.71294 0.92135 0.4849 0.0
Cd57 Cd 0.69272 0.88783 0.47878 0.0
Cd58 Cd 0.70409 0.90592 0.44989 0.0
O59 O 0.72921 0.93391 0.46184 0.0
O60 O 0.69372 0.86979 0.49685 0.0
O61 O 0.70803 0.87001 0.47341 0.0
C62 C 0.70477 0.86336 0.48789 0.0
C63 C 0.70805 0.89242 0.42554 0.0
C64 C 0.72776 0.93719 0.47644 0.0
C65 C 0.65557 0.88636 0.46091 0.0
O66 O 0.67133 0.89951 0.4517 0.0
O67 O 0.65963 0.87751 0.47267 0.0
O68 O 0.7095 0.91194 0.4269 0.0
O69 O 0.7069 0.88161 0.4383 0.0
O70 O 0.08514 0.80335 0.48093 0.0
Cd71 Cd 0.11829 0.81374 0.47531 0.0
Cd72 Cd 0.10064 0.80782 0.44536 0.0
O73 O 0.0721 0.80377 0.45725 0.0
O74 O 0.13642 0.83093 0.49397 0.0
O75 O 0.13893 0.84681 0.47081 0.0
C76 C 0.14482 0.84898 0.48544 0.0
C77 C 0.11335 0.82523 0.42091 0.0
C78 C 0.06914 0.80108 0.47206 0.0
C79 C 0.11888 0.77754 0.45666 0.0
O80 O 0.10779 0.78201 0.44674 0.0
O81 O 0.12602 0.78884 0.46932 0.0
O82 O 0.09413 0.80691 0.42244 0.0
O83 O 0.12426 0.83514 0.43358 0.0
O84 O 0.72174 0.80324 0.97845 0.0
Cd85 Cd 0.69891 0.81384 0.97358 0.0
Cd86 Cd 0.70935 0.80766 0.9431 0.0
O87 O 0.7339 0.80312 0.95439 0.0
O88 O 0.69867 0.83112 0.99243 0.0
O89 O 0.711 0.84687 0.96909 0.0
C90 C 0.70777 0.8491 0.98382 0.0
C91 C 0.71365 0.82434 0.91841 0.0
C92 C 0.73485 0.80057 0.96916 0.0
C93 C 0.66125 0.778 0.95544 0.0
O94 O 0.67627 0.78242 0.94508 0.0
O95 O 0.6661 0.7891 0.96823 0.0
O96 O 0.71404 0.80576 0.92013 0.0
O97 O 0.71333 0.83487 0.93097 0.0
O98 O 0.21002 0.9153 0.98733 0.0
Cd99 Cd 0.19824 0.88213 0.98081 0.0
Cd100 Cd 0.2032 0.90053 0.95207 0.0
O101 O 0.20507 0.92773 0.96459 0.0
O102 O 0.17953 0.8628 0.9986 0.0
O103 O 0.16532 0.8634 0.97532 0.0
C104 C 0.16204 0.85609 0.98965 0.0
C105 C 0.18553 0.8871 0.92781 0.0
C106 C 0.21006 0.93092 0.97915 0.0
C107 C 0.23443 0.88298 0.96191 0.0
O108 O 0.23055 0.89559 0.95301 0.0
O109 O 0.22218 0.87362 0.9739 0.0
O110 O 0.20299 0.90701 0.92923 0.0
O111 O 0.1765 0.87576 0.94052 0.0
O112 O 0.07825 0.27729 0.97454 0.0
Cd113 Cd 0.11169 0.29944 0.96925 0.0
Cd114 Cd 0.09413 0.28982 0.93949 0.0
O115 O 0.06524 0.26495 0.95068 0.0
O116 O 0.12858 0.29936 0.98832 0.0
O117 O 0.13214 0.28653 0.9652 0.0
C118 C 0.13718 0.28968 0.97998 0.0
C119 C 0.1076 0.28608 0.91505 0.0
C120 C 0.06216 0.2642 0.96548 0.0
C121 C 0.11289 0.33763 0.9521 0.0
O122 O 0.10119 0.32262 0.94197 0.0
O123 O 0.1204 0.33258 0.96419 0.0
O124 O 0.08846 0.28545 0.91642 0.0
O125 O 0.11805 0.28643 0.92781 0.0
O126 O 0.80521 0.72634 0.54961 0.0
Cd127 Cd 0.81505 0.70313 0.55616 0.0
Cd128 Cd 0.80355 0.71275 0.58354 0.0
O129 O 0.80666 0.74126 0.57287 0.0
O130 O 0.83196 0.70149 0.53749 0.0
O131 O 0.84819 0.71519 0.56047 0.0
C132 C 0.85012 0.71112 0.54587 0.0
C133 C 0.81829 0.71036 0.60769 0.0
C134 C 0.80434 0.74134 0.55804 0.0
C135 C 0.77327 0.66728 0.57034 0.0
O136 O 0.77431 0.68347 0.57835 0.0
O137 O 0.78984 0.6703 0.56178 0.0
O138 O 0.80232 0.71528 0.60682 0.0
O139 O 0.82736 0.70888 0.59471 0.0
O140 O 0.2868 0.08593 0.54708 0.0
Cd141 Cd 0.3094 0.11933 0.5521 0.0
Cd142 Cd 0.29892 0.10274 0.5822 0.0
O143 O 0.27419 0.07364 0.57103 0.0
O144 O 0.30926 0.13662 0.53327 0.0
O145 O 0.29678 0.13986 0.55662 0.0
C146 C 0.29973 0.14513 0.54187 0.0
C147 C 0.29456 0.11667 0.60629 0.0
C148 C 0.27348 0.07018 0.55626 0.0
C149 C 0.34696 0.12073 0.57006 0.0
O150 O 0.33184 0.10993 0.58032 0.0
O151 O 0.3423 0.12748 0.55743 0.0
O152 O 0.29395 0.0975 0.60529 0.0
O153 O 0.29525 0.12689 0.59333 0.0
O154 O 0.92359 0.20418 0.54794 0.0
Cd155 Cd 0.89107 0.19366 0.55619 0.0
Cd156 Cd 0.914 0.20575 0.58238 0.0
O157 O 0.93857 0.20253 0.57049 0.0
O158 O 0.87008 0.17524 0.53892 0.0
O159 O 0.87222 0.16064 0.56165 0.0
C160 C 0.86375 0.15763 0.54768 0.0
C161 C 0.89752 0.19063 0.60662 0.0
C162 C 0.94001 0.20503 0.55564 0.0
C163 C 0.89732 0.23534 0.5708 0.0
O164 O 0.91357 0.23494 0.57771 0.0
O165 O 0.88305 0.2183 0.56293 0.0
O166 O 0.91839 0.20651 0.60559 0.0
O167 O 0.88666 0.1818 0.59371 0.0
O168 O 0.94627 0.53726 0.38436 0.0
Cd169 Cd 0.96882 0.52685 0.3908 0.0
Cd170 Cd 0.95497 0.53174 0.4197 0.0
O171 O 0.93014 0.53449 0.40739 0.0
O172 O 0.97151 0.51093 0.37195 0.0
O173 O 0.95629 0.49353 0.39439 0.0
C174 C 0.96121 0.49233 0.37986 0.0
C175 C 0.9504 0.51268 0.44337 0.0
C176 C 0.93123 0.53821 0.39266 0.0
C177 C 0.00362 0.56345 0.41031 0.0
O178 O 0.98702 0.55913 0.41923 0.0
O179 O 1.00081 0.55149 0.39813 0.0
O180 O 0.94791 0.53021 0.44255 0.0
O181 O 0.9529 0.50437 0.43035 0.0
O182 O 0.46946 0.41498 0.38321 0.0
Cd183 Cd 0.48027 0.44776 0.39056 0.0
Cd184 Cd 0.47658 0.42809 0.41833 0.0
O185 O 0.475 0.4016 0.40533 0.0
O186 O 0.49608 0.46726 0.37206 0.0
O187 O 0.51368 0.46778 0.39405 0.0
C188 C 0.51477 0.47471 0.37976 0.0
C189 C 0.49588 0.44296 0.44185 0.0
C190 C 0.46992 0.39913 0.39079 0.0
C191 C 0.4437 0.44407 0.41086 0.0
O192 O 0.44799 0.43068 0.41852 0.0
O193 O 0.45614 0.45514 0.3993 0.0
O194 O 0.47917 0.4225 0.44102 0.0
O195 O 0.50338 0.45412 0.42887 0.0
O196 O 0.59468 0.06213 0.38506 0.0
Cd197 Cd 0.56191 0.03948 0.39227 0.0
Cd198 Cd 0.58382 0.04953 0.41912 0.0
O199 O 0.60928 0.07755 0.40798 0.0
O200 O 0.54323 0.03765 0.37372 0.0
O201 O 0.54123 0.05207 0.39657 0.0
C202 C 0.53508 0.04777 0.38202 0.0
C203 C 0.56626 0.04805 0.44296 0.0
C204 C 0.61099 0.0772 0.3931 0.0
C205 C 0.56779 0.00357 0.40634 0.0
O206 O 0.58314 0.0198 0.41418 0.0
O207 O 0.55415 0.00665 0.39794 0.0
O208 O 0.58701 0.05249 0.44243 0.0
O209 O 0.55612 0.04648 0.42978 0.0
O210 O 0.86891 0.6108 0.80956 0.0
Cd211 Cd 0.85858 0.63334 0.80266 0.0
Cd212 Cd 0.86199 0.61777 0.77462 0.0
O213 O 0.86331 0.59241 0.78716 0.0
O214 O 0.8434 0.63725 0.82148 0.0
O215 O 0.82521 0.62076 0.79952 0.0
C216 C 0.82453 0.62652 0.81391 0.0
C217 C 0.84228 0.61411 0.75143 0.0
C218 C 0.86833 0.59461 0.80171 0.0
C219 C 0.89546 0.66621 0.78255 0.0
O220 O 0.8909 0.64866 0.77461 0.0
O221 O 0.88307 0.66478 0.79418 0.0
O222 O 0.85877 0.60995 0.75184 0.0
O223 O 0.83526 0.61781 0.76463 0.0
O224 O 0.39575 0.26211 0.81015 0.0
Cd225 Cd 0.37365 0.22939 0.80244 0.0
Cd226 Cd 0.38405 0.2522 0.77596 0.0
O227 O 0.41181 0.27729 0.7875 0.0
O228 O 0.37164 0.21024 0.82075 0.0
O229 O 0.38696 0.20934 0.79803 0.0
C230 C 0.38231 0.20268 0.81247 0.0
C231 C 0.38294 0.23581 0.7517 0.0
C232 C 0.41102 0.27864 0.80238 0.0
C233 C 0.33778 0.23509 0.78813 0.0
O234 O 0.35417 0.25116 0.78088 0.0
O235 O 0.34086 0.22114 0.79617 0.0
O236 O 0.38731 0.25652 0.75275 0.0
O237 O 0.38131 0.22507 0.7646 0.0
O238 O 0.75003 0.13673 0.81023 0.0
Cd239 Cd 0.78272 0.14769 0.80285 0.0
Cd240 Cd 0.76344 0.1435 0.77466 0.0
O241 O 0.73637 0.14077 0.78771 0.0
O242 O 0.80311 0.16484 0.82072 0.0
O243 O 0.80165 0.18098 0.7985 0.0
C244 C 0.80957 0.18304 0.81258 0.0
C245 C 0.77849 0.16374 0.75149 0.0
C246 C 0.73397 0.13631 0.80236 0.0
C247 C 0.7803 0.1114 0.78256 0.0
O248 O 0.7675 0.11572 0.77424 0.0
O249 O 0.79015 0.12339 0.79459 0.0
O250 O 0.75825 0.14657 0.75196 0.0
O251 O 0.78918 0.17109 0.76465 0.0
O252 O 0.39415 0.13795 0.31105 0.0
Cd253 Cd 0.37106 0.14739 0.30355 0.0
Cd254 Cd 0.38233 0.13635 0.27688 0.0
O255 O 0.41044 0.13966 0.28833 0.0
O256 O 0.3685 0.16418 0.32192 0.0
O257 O 0.38307 0.1805 0.29911 0.0
C258 C 0.37847 0.18238 0.31359 0.0
C259 C 0.38081 0.15229 0.25304 0.0
C260 C 0.40973 0.13735 0.30318 0.0
C261 C 0.33634 0.10534 0.28903 0.0
O262 O 0.35303 0.10678 0.28143 0.0
O263 O 0.33867 0.12179 0.29746 0.0
O264 O 0.38594 0.13644 0.25362 0.0
O265 O 0.3786 0.16054 0.26619 0.0
O266 O 0.87142 0.26076 0.30955 0.0
Cd267 Cd 0.86054 0.22773 0.30305 0.0
Cd268 Cd 0.86581 0.24645 0.2742 0.0
O269 O 0.86881 0.27418 0.28653 0.0
O270 O 0.8441 0.20919 0.32174 0.0
O271 O 0.82723 0.20762 0.29918 0.0
C272 C 0.82567 0.20136 0.31369 0.0
C273 C 0.84694 0.23225 0.25044 0.0
C274 C 0.87254 0.27681 0.30126 0.0
C275 C 0.89686 0.2287 0.28367 0.0
O276 O 0.89286 0.24121 0.27476 0.0
O277 O 0.88479 0.2197 0.29582 0.0
O278 O 0.8646 0.25211 0.25134 0.0
O279 O 0.8384 0.22146 0.26342 0.0
O280 O 0.74595 0.61346 0.30911 0.0
Cd281 Cd 0.77898 0.63598 0.30292 0.0
Cd282 Cd 0.7603 0.62308 0.27373 0.0
O283 O 0.73246 0.59832 0.28586 0.0
O284 O 0.79706 0.63813 0.3219 0.0
O285 O 0.7998 0.62341 0.29937 0.0
C286 C 0.80554 0.62797 0.31397 0.0
C287 C 0.77418 0.6185 0.24973 0.0
C288 C 0.72986 0.59893 0.30065 0.0
C289 C 0.7778 0.67165 0.28397 0.0
O290 O 0.76567 0.65542 0.27475 0.0
O291 O 0.78658 0.66828 0.29612 0.0
O292 O 0.75447 0.61666 0.25083 0.0
O293 O 0.78503 0.62043 0.26263 0.0
O294 O 0.47359 0.06235 0.88296 0.0
Cd295 Cd 0.48296 0.03913 0.89032 0.0
Cd296 Cd 0.47216 0.05048 0.91718 0.0
O297 O 0.47533 0.07857 0.90573 0.0
O298 O 0.49943 0.03641 0.8718 0.0
O299 O 0.51608 0.05096 0.89453 0.0
C300 C 0.51773 0.04628 0.88003 0.0
C301 C 0.48801 0.049 0.94109 0.0
C302 C 0.47298 0.0779 0.89088 0.0
C303 C 0.44102 0.00446 0.90501 0.0
O304 O 0.44259 0.02116 0.91268 0.0
O305 O 0.45735 0.00676 0.89647 0.0
O306 O 0.47215 0.05409 0.94044 0.0
O307 O 0.49633 0.0468 0.92796 0.0
O308 O 0.9539 0.41523 0.88317 0.0
Cd309 Cd 0.97409 0.44841 0.88995 0.0
Cd310 Cd 0.95849 0.42976 0.91832 0.0
O311 O 0.93467 0.40221 0.90523 0.0
O312 O 0.97602 0.46709 0.87137 0.0
O313 O 0.95914 0.46703 0.89365 0.0
C314 C 0.96429 0.47384 0.87927 0.0
C315 C 0.95222 0.44352 0.94179 0.0
C316 C 0.93789 0.3993 0.89085 0.0
C317 C 0.00814 0.44824 0.91067 0.0
O318 O 0.99104 0.43545 0.91904 0.0
O319 O 0.00595 0.4573 0.89825 0.0
O320 O 0.95 0.42361 0.94095 0.0
O321 O 0.95526 0.45453 0.92881 0.0
O322 O 0.59513 0.53799 0.88706 0.0
Cd323 Cd 0.5622 0.52717 0.89375 0.0
Cd324 Cd 0.58152 0.53341 0.92247 0.0
O325 O 0.60912 0.53629 0.91006 0.0
O326 O 0.54365 0.51079 0.87505 0.0
O327 O 0.54198 0.49382 0.89758 0.0
C328 C 0.53574 0.49233 0.88307 0.0
C329 C 0.56741 0.51468 0.94628 0.0
C330 C 0.6114 0.53953 0.89527 0.0
C331 C 0.56336 0.56399 0.91273 0.0
O332 O 0.57613 0.56038 0.92165 0.0
O333 O 0.55418 0.55152 0.90078 0.0
O334 O 0.58723 0.5324 0.94533 0.0
O335 O 0.55663 0.50603 0.93331 0.0
O336 O 0.61865 0.87004 0.7113 0.0
Cd337 Cd 0.64171 0.86003 0.717 0.0
Cd338 Cd 0.63022 0.8663 0.74685 0.0
O339 O 0.60547 0.86993 0.73505 0.0
O340 O 0.64255 0.84219 0.69866 0.0
O341 O 0.62964 0.82718 0.72211 0.0
C342 C 0.6332 0.82447 0.70753 0.0
C343 C 0.62582 0.84916 0.77135 0.0
C344 C 0.60496 0.87234 0.72023 0.0
C345 C 0.67845 0.89671 0.73527 0.0
O346 O 0.663 0.89228 0.74528 0.0
O347 O 0.67426 0.88523 0.72268 0.0
O348 O 0.6247 0.86738 0.76977 0.0
O349 O 0.62689 0.83918 0.75871 0.0
O350 O 0.13782 0.74617 0.72163 0.0
Cd351 Cd 0.14895 0.77922 0.72839 0.0
Cd352 Cd 0.14404 0.7601 0.75667 0.0
O353 O 0.14221 0.73302 0.74424 0.0
O354 O 0.16529 0.79792 0.70972 0.0
O355 O 0.18234 0.79908 0.73212 0.0
C356 C 0.1838 0.80548 0.71765 0.0
C357 C 0.16222 0.77456 0.78062 0.0
C358 C 0.13761 0.7303 0.72962 0.0
C359 C 0.11203 0.77672 0.74765 0.0
O360 O 0.11595 0.76357 0.75592 0.0
O361 O 0.12477 0.78717 0.73605 0.0
O362 O 0.1452 0.75431 0.77951 0.0
O363 O 0.17061 0.78571 0.76774 0.0
O364 O 0.25494 0.38133 0.7089 0.0
Cd365 Cd 0.2214 0.35844 0.7134 0.0
Cd366 Cd 0.23718 0.36749 0.74393 0.0
O367 O 0.26643 0.39262 0.7332 0.0
O368 O 0.20408 0.35931 0.69481 0.0
O369 O 0.20081 0.37076 0.71854 0.0
C370 C 0.1954 0.36826 0.70381 0.0
C371 C 0.22385 0.37103 0.7685 0.0
C372 C 0.27038 0.39413 0.71847 0.0
C373 C 0.21919 0.31995 0.73064 0.0
O374 O 0.22971 0.33455 0.74126 0.0
O375 O 0.21296 0.32527 0.71806 0.0
O376 O 0.24281 0.37135 0.76703 0.0
O377 O 0.21347 0.37105 0.7558 0.0
O378 O 0.5299 0.94178 0.14331 0.0
Cd379 Cd 0.52057 0.96495 0.13573 0.0
Cd380 Cd 0.53104 0.9531 0.10898 0.0
O381 O 0.52795 0.9252 0.12065 0.0
O382 O 0.50413 0.96818 0.15409 0.0
O383 O 0.48749 0.95325 0.13143 0.0
C384 C 0.48586 0.95833 0.14584 0.0
C385 C 0.51486 0.95429 0.08514 0.0
C386 C 0.53045 0.9261 0.1355 0.0
C387 C 0.56242 0.99929 0.12069 0.0
O388 O 0.56073 0.98244 0.11315 0.0
O389 O 0.5462 0.99717 0.12928 0.0
O390 O 0.53065 0.94909 0.08574 0.0
O391 O 0.50678 0.95674 0.0983 0.0
O392 O 0.05239 0.58753 0.14536 0.0
Cd393 Cd 0.03102 0.55495 0.13712 0.0
Cd394 Cd 0.04472 0.57755 0.11125 0.0
O395 O 0.07245 0.60118 0.12376 0.0
O396 O 0.02771 0.53465 0.15506 0.0
O397 O 0.04489 0.53543 0.13279 0.0
C398 C 0.03912 0.52776 0.14693 0.0
C399 C 0.04361 0.5605 0.08728 0.0
C400 C 0.06948 0.60325 0.13831 0.0
C401 C 0.99792 0.56258 0.12107 0.0
O402 O 0.01558 0.57868 0.11492 0.0
O403 O 0.99922 0.54752 0.12906 0.0
O404 O 0.04966 0.58171 0.0881 0.0
O405 O 0.04044 0.54956 0.10032 0.0
O406 O 0.41928 0.46352 0.15184 0.0
Cd407 Cd 0.45263 0.47343 0.14732 0.0
Cd408 Cd 0.43686 0.46772 0.11682 0.0
O409 O 0.40792 0.46431 0.12767 0.0
O410 O 0.46982 0.4907 0.16625 0.0
O411 O 0.47376 0.50641 0.14284 0.0
C412 C 0.47881 0.50868 0.15763 0.0
C413 C 0.45077 0.48493 0.09244 0.0
C414 C 0.404 0.46161 0.14239 0.0
C415 C 0.45357 0.4368 0.12953 0.0
O416 O 0.44332 0.44152 0.11908 0.0
O417 O 0.46017 0.44813 0.14221 0.0
O418 O 0.43145 0.46668 0.09372 0.0
O419 O 0.46122 0.49481 0.10526 0.0
O420 O 0.05117 0.46411 0.64845 0.0
Cd421 Cd 0.02865 0.47546 0.64453 0.0
Cd422 Cd 0.03582 0.46673 0.61379 0.0
O423 O 0.06139 0.46286 0.624 0.0
O424 O 0.03047 0.4931 0.66372 0.0
O425 O 0.04135 0.50867 0.6402 0.0
C426 C 0.03946 0.51107 0.65511 0.0
C427 C 0.03811 0.48253 0.589 0.0
C428 C 0.06345 0.4609 0.63871 0.0
C429 C 0.98903 0.43877 0.6284 0.0
O430 O 0.00304 0.4417 0.61757 0.0
O431 O 0.99511 0.4513 0.64054 0.0
O432 O 0.03836 0.46386 0.59063 0.0
O433 O 0.03884 0.4935 0.60159 0.0
O434 O 0.54115 0.58586 0.64888 0.0
Cd435 Cd 0.53062 0.55244 0.64377 0.0
Cd436 Cd 0.53845 0.56962 0.61368 0.0
O437 O 0.54182 0.59834 0.62483 0.0
O438 O 0.51231 0.53463 0.6622 0.0
O439 O 0.49778 0.53196 0.63851 0.0
C440 C 0.49476 0.5262 0.65317 0.0
C441 C 0.52207 0.55647 0.58899 0.0
C442 C 0.5439 0.60168 0.63962 0.0
C443 C 0.56772 0.55133 0.62672 0.0
O444 O 0.56421 0.56262 0.61639 0.0
O445 O 0.55542 0.54408 0.63894 0.0
O446 O 0.54038 0.57567 0.59063 0.0
O447 O 0.51168 0.54575 0.6016 0.0
O448 O 0.41331 0.9429 0.64404 0.0
Cd449 Cd 0.4456 0.96614 0.63626 0.0
Cd450 Cd 0.42335 0.95353 0.60963 0.0
O451 O 0.39872 0.92579 0.62154 0.0
O452 O 0.46549 0.9696 0.65449 0.0
O453 O 0.46694 0.9544 0.63185 0.0
C454 C 0.47377 0.95957 0.64621 0.0
C455 C 0.44127 0.95446 0.58607 0.0
C456 C 0.39718 0.92698 0.63638 0.0
C457 C 0.43741 0.99985 0.62088 0.0
O458 O 0.42256 0.98278 0.6134 0.0
O459 O 0.45161 0.99813 0.62961 0.0
O460 O 0.42023 0.94909 0.5864 0.0
O461 O 0.45154 0.95723 0.59936 0.0
O462 O 0.13424 0.38743 0.21201 0.0
Cd463 Cd 0.14491 0.36492 0.21788 0.0
Cd464 Cd 0.13839 0.37647 0.24757 0.0
O465 O 0.13409 0.40075 0.23567 0.0
O466 O 0.16295 0.36425 0.19963 0.0
O467 O 0.17781 0.37761 0.22304 0.0
C468 C 0.18062 0.37392 0.20852 0.0
C469 C 0.156 0.38117 0.27188 0.0
C470 C 0.1316 0.40101 0.22084 0.0
C471 C 0.10884 0.32795 0.23636 0.0
O472 O 0.11286 0.34348 0.24622 0.0
O473 O 0.12034 0.33221 0.22379 0.0
O474 O 0.13769 0.38215 0.2705 0.0
O475 O 0.16584 0.38022 0.25913 0.0
O476 O 0.61412 0.74636 0.2196 0.0
Cd477 Cd 0.63574 0.78 0.22461 0.0
Cd478 Cd 0.62574 0.76299 0.25486 0.0
O479 O 0.60173 0.73362 0.24352 0.0
O480 O 0.63524 0.79671 0.20554 0.0
O481 O 0.6221 0.79979 0.22866 0.0
C482 C 0.62516 0.80489 0.21388 0.0
C483 C 0.62115 0.77563 0.27939 0.0
C484 C 0.60119 0.73031 0.22874 0.0
C485 C 0.67402 0.78292 0.24261 0.0
O486 O 0.65903 0.77155 0.25282 0.0
O487 O 0.66894 0.78939 0.23003 0.0
O488 O 0.62119 0.75684 0.27787 0.0
O489 O 0.62117 0.78607 0.26671 0.0
O490 O 0.25226 0.87159 0.21287 0.0
Cd491 Cd 0.21919 0.85987 0.21965 0.0
Cd492 Cd 0.23869 0.86918 0.2485 0.0
O493 O 0.26651 0.87219 0.23628 0.0
O494 O 0.19965 0.84027 0.20225 0.0
O495 O 0.20133 0.82702 0.22567 0.0
C496 C 0.19363 0.82315 0.21144 0.0
C497 C 0.22612 0.85261 0.27317 0.0
C498 C 0.26878 0.87441 0.2214 0.0
C499 C 0.21864 0.89722 0.23672 0.0
O500 O 0.23175 0.89502 0.24621 0.0
O501 O 0.20982 0.88375 0.2252 0.0
O502 O 0.24541 0.87081 0.27143 0.0
O503 O 0.21504 0.84238 0.26062 0.0
C504 C 0.30132 0.15936 0.12525 0.0
C505 C 0.29118 0.17296 0.12478 0.0
C506 C 0.31041 0.15662 0.13928 0.0
C507 C 0.33347 0.18581 0.17713 0.0
H508 H 0.33083 0.12961 0.18886 0.0
C509 C 0.3647 0.17222 0.23743 0.0
C510 C 0.37478 0.15856 0.23783 0.0
C511 C 0.35543 0.17488 0.22345 0.0
C512 C 0.33201 0.14554 0.18566 0.0
H513 H 0.28154 0.19331 0.13893 0.0
H514 H 0.29698 0.18819 0.1634 0.0
H515 H 0.31116 0.13093 0.16534 0.0
H516 H 0.38412 0.13802 0.22363 0.0
H517 H 0.36842 0.14303 0.19927 0.0
H518 H 0.35434 0.20042 0.19744 0.0
C519 C 0.29837 0.18004 0.15285 0.0
C520 C 0.32065 0.14626 0.17217 0.0
C521 C 0.28929 0.18277 0.13884 0.0
C522 C 0.37641 0.14859 0.22377 0.0
C523 C 0.36718 0.15127 0.20982 0.0
C524 C 0.34484 0.18508 0.19061 0.0
C525 C 0.30957 0.16742 0.15318 0.0
C526 C 0.32121 0.1664 0.16773 0.0
C527 C 0.35605 0.16396 0.20955 0.0
C528 C 0.34429 0.16495 0.19504 0.0
H529 H 0.30317 0.15164 0.11463 0.0
H530 H 0.319 0.14687 0.13906 0.0
H531 H 0.33464 0.20174 0.17392 0.0
H532 H 0.36304 0.18004 0.24805 0.0
H533 H 0.34691 0.18469 0.22372 0.0
C534 C 0.84036 0.1504 0.12103 0.0
C535 C 0.82489 0.12709 0.11978 0.0
C536 C 0.84321 0.16172 0.13534 0.0
C537 C 0.83168 0.15321 0.17827 0.0
H538 H 0.83128 0.20983 0.17555 0.0
C539 C 0.82425 0.19749 0.23397 0.0
C540 C 0.83937 0.22092 0.23494 0.0
C541 C 0.82104 0.18596 0.2197 0.0
C542 C 0.8316 0.19414 0.17654 0.0
H543 H 0.80139 0.09714 0.13283 0.0
H544 H 0.80647 0.11677 0.15771 0.0
H545 H 0.8311 0.19014 0.15155 0.0
H546 H 0.86184 0.25081 0.22142 0.0
H547 H 0.85628 0.23082 0.19669 0.0
H548 H 0.83229 0.15725 0.20325 0.0
C549 C 0.8164 0.12638 0.14768 0.0
C550 C 0.83159 0.18289 0.16276 0.0
C551 C 0.81347 0.1151 0.13338 0.0
C552 C 0.85004 0.23276 0.22111 0.0
C553 C 0.84682 0.22127 0.20688 0.0
C554 C 0.83174 0.16449 0.19206 0.0
C555 C 0.83077 0.14995 0.14873 0.0
C556 C 0.83166 0.16229 0.16345 0.0
C557 C 0.83283 0.19761 0.20608 0.0
C558 C 0.8317 0.18512 0.19138 0.0
H559 H 0.8494 0.16016 0.11079 0.0
H560 H 0.85475 0.17981 0.13582 0.0
H561 H 0.83196 0.1375 0.17924 0.0
H562 H 0.81577 0.18783 0.24438 0.0
H563 H 0.80976 0.16781 0.21945 0.0
C564 C 0.77343 0.62145 0.22045 0.0
C565 C 0.78526 0.62206 0.23414 0.0
C566 C 0.78481 0.62943 0.20615 0.0
C567 C 0.84192 0.66927 0.19096 0.0
H568 H 0.81483 0.64388 0.15057 0.0
C569 C 0.89035 0.69884 0.13186 0.0
C570 C 0.87844 0.69929 0.11851 0.0
C571 C 0.87923 0.69065 0.14622 0.0
C572 C 0.8225 0.65137 0.16175 0.0
H573 H 0.81815 0.63024 0.24329 0.0
H574 H 0.83793 0.6437 0.21824 0.0
H575 H 0.79517 0.62485 0.17465 0.0
H576 H 0.84569 0.69258 0.11002 0.0
H577 H 0.82631 0.67849 0.13515 0.0
H578 H 0.86931 0.69573 0.17801 0.0
C579 C 0.81991 0.63751 0.21865 0.0
C580 C 0.81126 0.6404 0.17558 0.0
C581 C 0.8085 0.62952 0.23298 0.0
C582 C 0.85539 0.69252 0.12007 0.0
C583 C 0.84422 0.68419 0.13443 0.0
C584 C 0.85319 0.68021 0.17712 0.0
C585 C 0.80832 0.6382 0.20516 0.0
C586 C 0.82078 0.64922 0.19038 0.0
C587 C 0.85588 0.68259 0.14757 0.0
C588 C 0.8436 0.67143 0.16234 0.0
H589 H 0.75553 0.61587 0.22091 0.0
H590 H 0.7753 0.62979 0.19608 0.0
H591 H 0.84958 0.67685 0.20212 0.0
H592 H 0.90811 0.70389 0.13107 0.0
H593 H 0.88873 0.68959 0.15605 0.0
C594 C 0.15655 0.30109 0.40053 0.0
C595 C 0.17067 0.29156 0.40134 0.0
C596 C 0.15418 0.31028 0.38642 0.0
C597 C 0.16546 0.31357 0.3433 0.0
H598 H 0.16888 0.37193 0.34704 0.0
C599 C 0.17781 0.36854 0.28873 0.0
C600 C 0.16289 0.3771 0.28752 0.0
C601 C 0.18008 0.35955 0.30295 0.0
C602 C 0.16778 0.35559 0.34579 0.0
H603 H 0.19219 0.28292 0.38767 0.0
H604 H 0.18811 0.2989 0.36321 0.0
H605 H 0.16762 0.35116 0.37069 0.0
H606 H 0.13995 0.3844 0.30061 0.0
H607 H 0.14408 0.36895 0.32536 0.0
H608 H 0.16575 0.31808 0.31839 0.0
C609 C 0.17878 0.29926 0.3734 0.0
C610 C 0.16691 0.34359 0.35936 0.0
C611 C 0.18113 0.29008 0.38748 0.0
C612 C 0.1516 0.37796 0.30112 0.0
C613 C 0.15397 0.36909 0.31535 0.0
C614 C 0.16641 0.3256 0.32974 0.0
C615 C 0.16585 0.31013 0.3728 0.0
C616 C 0.16574 0.3224 0.3583 0.0
C617 C 0.16762 0.35905 0.3163 0.0
C618 C 0.1676 0.34678 0.3308 0.0
H619 H 0.14825 0.30253 0.41098 0.0
H620 H 0.14368 0.31807 0.3863 0.0
H621 H 0.16428 0.29719 0.34201 0.0
H622 H 0.18673 0.36757 0.27848 0.0
H623 H 0.19109 0.35234 0.30337 0.0
C624 C 0.63198 0.80962 0.29646 0.0
C625 C 0.62485 0.78645 0.29508 0.0
C626 C 0.64032 0.82094 0.31078 0.0
C627 C 0.66733 0.81617 0.34718 0.0
H628 H 0.65847 0.86503 0.36191 0.0
C629 C 0.69653 0.85815 0.4086 0.0
C630 C 0.70405 0.88142 0.40989 0.0
C631 C 0.68811 0.84679 0.3943 0.0
C632 C 0.66139 0.85163 0.35785 0.0
H633 H 0.61938 0.75668 0.30798 0.0
H634 H 0.63335 0.77625 0.33294 0.0
H635 H 0.63919 0.84432 0.33818 0.0
H636 H 0.71005 0.91127 0.39686 0.0
H637 H 0.69584 0.89159 0.37195 0.0
H638 H 0.6895 0.82346 0.36687 0.0
C639 C 0.63311 0.78585 0.32288 0.0
C640 C 0.65025 0.83969 0.34425 0.0
C641 C 0.62485 0.77457 0.30859 0.0
C642 C 0.7043 0.89331 0.39632 0.0
C643 C 0.6959 0.88198 0.38206 0.0
C644 C 0.67845 0.82809 0.36079 0.0
C645 C 0.64167 0.80933 0.32405 0.0
C646 C 0.65305 0.82178 0.33874 0.0
C647 C 0.68704 0.85845 0.38098 0.0
C648 C 0.67565 0.846 0.36629 0.0
H649 H 0.63236 0.81932 0.28627 0.0
H650 H 0.64682 0.83903 0.3112 0.0
H651 H 0.67028 0.80279 0.34312 0.0
H652 H 0.69597 0.84844 0.41883 0.0
H653 H 0.68138 0.82865 0.39393 0.0
C654 C 0.11175 0.82053 0.39168 0.0
C655 C 0.12396 0.83219 0.40515 0.0
C656 C 0.12274 0.82334 0.37727 0.0
C657 C 0.17617 0.85925 0.35545 0.0
H658 H 0.15899 0.80354 0.33278 0.0
C659 C 0.22798 0.85799 0.30236 0.0
C660 C 0.21567 0.84603 0.289 0.0
C661 C 0.21714 0.85532 0.31681 0.0
C662 C 0.16388 0.81928 0.33887 0.0
H663 H 0.15715 0.85699 0.41377 0.0
H664 H 0.17633 0.86193 0.38863 0.0
H665 H 0.13899 0.80249 0.35681 0.0
H666 H 0.18246 0.82092 0.28062 0.0
H667 H 0.16351 0.81627 0.30581 0.0
H668 H 0.20103 0.87605 0.3375 0.0
C669 C 0.15821 0.85063 0.38919 0.0
C670 C 0.15235 0.81871 0.35264 0.0
C671 C 0.14719 0.84784 0.40363 0.0
C672 C 0.19249 0.8303 0.29068 0.0
C673 C 0.18161 0.82767 0.30515 0.0
C674 C 0.18769 0.85983 0.34167 0.0
C675 C 0.14624 0.83786 0.37595 0.0
C676 C 0.15831 0.83869 0.36111 0.0
C677 C 0.19368 0.84066 0.31829 0.0
C678 C 0.18171 0.83985 0.33319 0.0
H679 H 0.09381 0.80842 0.3924 0.0
H680 H 0.11288 0.81365 0.36724 0.0
H681 H 0.18106 0.87499 0.36155 0.0
H682 H 0.24589 0.87017 0.30152 0.0
H683 H 0.22707 0.86519 0.32676 0.0
C684 C 0.63752 0.82696 0.78865 0.0
C685 C 0.62966 0.84242 0.78711 0.0
C686 C 0.64599 0.82446 0.80305 0.0
C687 C 0.67226 0.85706 0.83926 0.0
H688 H 0.66466 0.80019 0.85467 0.0
C689 C 0.70219 0.84662 0.90099 0.0
C690 C 0.70982 0.831 0.90261 0.0
C691 C 0.69372 0.84908 0.88658 0.0
C692 C 0.66724 0.81628 0.85042 0.0
H693 H 0.62302 0.86613 0.79981 0.0
H694 H 0.63729 0.86141 0.82491 0.0
H695 H 0.64517 0.80064 0.83079 0.0
H696 H 0.71608 0.80693 0.89004 0.0
H697 H 0.70188 0.81162 0.86491 0.0
H698 H 0.69436 0.87271 0.85886 0.0
C699 C 0.63748 0.85165 0.81491 0.0
C700 C 0.65597 0.81651 0.83674 0.0
C701 C 0.62905 0.85416 0.80054 0.0
C702 C 0.71021 0.81903 0.88924 0.0
C703 C 0.70182 0.82152 0.87485 0.0
C704 C 0.68355 0.85684 0.85292 0.0
C705 C 0.64675 0.83734 0.81623 0.0
C706 C 0.65829 0.83689 0.83099 0.0
C707 C 0.69275 0.836 0.87346 0.0
C708 C 0.68122 0.83645 0.85868 0.0
H709 H 0.63836 0.81775 0.77853 0.0
H710 H 0.65303 0.81332 0.80362 0.0
H711 H 0.67482 0.87314 0.83501 0.0
H712 H 0.70151 0.85599 0.91107 0.0
H713 H 0.68683 0.86035 0.88597 0.0
C714 C 0.16451 0.85284 0.91062 0.0
C715 C 0.17877 0.87638 0.91207 0.0
C716 C 0.16218 0.84205 0.89614 0.0
C717 C 0.19377 0.85045 0.85902 0.0
H718 H 0.13828 0.79806 0.84499 0.0
C719 C 0.183 0.80936 0.79738 0.0
C720 C 0.16908 0.78574 0.79622 0.0
C721 C 0.18534 0.82044 0.81173 0.0
C722 C 0.15401 0.81249 0.84885 0.0
H723 H 0.20044 0.90721 0.89918 0.0
H724 H 0.19594 0.88851 0.87394 0.0
H725 H 0.13818 0.81764 0.86897 0.0
H726 H 0.14803 0.75511 0.8095 0.0
H727 H 0.15249 0.77434 0.83449 0.0
H728 H 0.20958 0.84531 0.83887 0.0
C729 C 0.18704 0.87827 0.88405 0.0
C730 C 0.15392 0.82377 0.86259 0.0
C731 C 0.18941 0.88903 0.89851 0.0
C732 C 0.15879 0.77334 0.80994 0.0
C733 C 0.16114 0.78439 0.82426 0.0
C734 C 0.19385 0.83919 0.84527 0.0
C735 C 0.17401 0.85457 0.88279 0.0
C736 C 0.17381 0.8429 0.86787 0.0
C737 C 0.17383 0.80814 0.82523 0.0
C738 C 0.17399 0.82001 0.84002 0.0
H739 H 0.15617 0.84256 0.92084 0.0
H740 H 0.15205 0.82377 0.89565 0.0
H741 H 0.20952 0.86485 0.86288 0.0
H742 H 0.19106 0.81946 0.78704 0.0
H743 H 0.19521 0.83876 0.81204 0.0
C744 C 0.10691 0.29009 0.88586 0.0
C745 C 0.11859 0.2899 0.89942 0.0
C746 C 0.11831 0.29818 0.87158 0.0
C747 C 0.17553 0.33727 0.85646 0.0
H748 H 0.14848 0.31244 0.81596 0.0
C749 C 0.22465 0.36688 0.79768 0.0
C750 C 0.21294 0.36718 0.78417 0.0
C751 C 0.2133 0.3588 0.81198 0.0
C752 C 0.15615 0.3198 0.82717 0.0
H753 H 0.15121 0.29687 0.90836 0.0
H754 H 0.17105 0.31064 0.88335 0.0
H755 H 0.1285 0.29344 0.83996 0.0
H756 H 0.18033 0.36043 0.77535 0.0
H757 H 0.16058 0.34665 0.80039 0.0
H758 H 0.20319 0.36363 0.84366 0.0
C759 C 0.15312 0.30491 0.88385 0.0
C760 C 0.14472 0.30883 0.84095 0.0
C761 C 0.14168 0.29675 0.89814 0.0
C762 C 0.18988 0.36046 0.78552 0.0
C763 C 0.17849 0.35229 0.79983 0.0
C764 C 0.18696 0.34824 0.84268 0.0
C765 C 0.1417 0.30633 0.8705 0.0
C766 C 0.15426 0.31741 0.85578 0.0
C767 C 0.18994 0.35077 0.81313 0.0
C768 C 0.17741 0.33966 0.82785 0.0
H769 H 0.08912 0.28498 0.88641 0.0
H770 H 0.10896 0.2991 0.8616 0.0
H771 H 0.1832 0.34465 0.86767 0.0
H772 H 0.24241 0.37189 0.79707 0.0
H773 H 0.22266 0.35779 0.82192 0.0
C774 C 0.83703 0.69323 0.62353 0.0
C775 C 0.82374 0.70369 0.62296 0.0
C776 C 0.83889 0.68339 0.63748 0.0
C777 C 0.80821 0.65961 0.6749 0.0
H778 H 0.86341 0.66057 0.6871 0.0
C779 C 0.82118 0.62872 0.73562 0.0
C780 C 0.83459 0.61837 0.73615 0.0
C781 C 0.81823 0.63743 0.72147 0.0
C782 C 0.84775 0.65985 0.68375 0.0
H783 H 0.803 0.7131 0.63686 0.0
H784 H 0.80669 0.69647 0.66121 0.0
H785 H 0.86315 0.6809 0.66365 0.0
H786 H 0.85399 0.60757 0.72199 0.0
H787 H 0.8485 0.62235 0.69735 0.0
H788 H 0.79288 0.63868 0.6951 0.0
C789 C 0.81522 0.69533 0.6508 0.0
C790 C 0.84762 0.67158 0.6703 0.0
C791 C 0.81331 0.7051 0.63685 0.0
C792 C 0.84365 0.61555 0.72203 0.0
C793 C 0.84072 0.62425 0.70792 0.0
C794 C 0.80835 0.64791 0.68838 0.0
C795 C 0.82756 0.68383 0.65121 0.0
C796 C 0.82786 0.67165 0.66569 0.0
C797 C 0.82863 0.63598 0.70755 0.0
C798 C 0.82812 0.64785 0.69297 0.0
H799 H 0.84517 0.69171 0.61302 0.0
H800 H 0.84844 0.67458 0.63731 0.0
H801 H 0.79254 0.6589 0.67156 0.0
H802 H 0.81404 0.63128 0.74628 0.0
H803 H 0.80884 0.64639 0.72163 0.0
C804 C 0.37742 0.23573 0.72258 0.0
C805 C 0.37707 0.22402 0.73627 0.0
C806 C 0.36837 0.2241 0.7085 0.0
C807 C 0.32689 0.16708 0.69383 0.0
H808 H 0.35309 0.19241 0.65323 0.0
C809 C 0.29751 0.11645 0.6356 0.0
C810 C 0.29803 0.12799 0.62177 0.0
C811 C 0.30535 0.1281 0.64982 0.0
C812 C 0.34535 0.18525 0.66446 0.0
H813 H 0.36784 0.19096 0.74567 0.0
H814 H 0.35245 0.1707 0.72101 0.0
H815 H 0.37218 0.21261 0.67714 0.0
H816 H 0.30596 0.16065 0.61229 0.0
H817 H 0.31935 0.18096 0.63717 0.0
H818 H 0.30014 0.13963 0.68113 0.0
C819 C 0.35933 0.18886 0.72125 0.0
C820 C 0.35636 0.19681 0.67819 0.0
C821 C 0.3684 0.20052 0.73536 0.0
C822 C 0.30529 0.15123 0.62271 0.0
C823 C 0.31323 0.16292 0.63694 0.0
C824 C 0.31589 0.1555 0.6801 0.0
C825 C 0.35873 0.20044 0.70772 0.0
C826 C 0.34731 0.18787 0.69307 0.0
C827 C 0.31397 0.15162 0.65057 0.0
C828 C 0.32499 0.16442 0.66523 0.0
H829 H 0.38388 0.25383 0.72286 0.0
H830 H 0.36808 0.23359 0.69838 0.0
H831 H 0.31917 0.15988 0.70506 0.0
H832 H 0.29206 0.09855 0.63532 0.0
H833 H 0.30574 0.11885 0.66004 0.0
C834 C 0.86205 0.17127 0.62286 0.0
C835 C 0.8857 0.18505 0.62203 0.0
C836 C 0.85051 0.16925 0.63694 0.0
C837 C 0.85828 0.17923 0.68003 0.0
H838 H 0.80353 0.18303 0.67696 0.0
C839 C 0.81382 0.18647 0.7356 0.0
C840 C 0.79026 0.17193 0.73618 0.0
C841 C 0.82564 0.19003 0.72144 0.0
C842 C 0.8187 0.1818 0.67804 0.0
H843 H 0.91585 0.20663 0.6356 0.0
H844 H 0.8958 0.20306 0.66007 0.0
H845 H 0.82346 0.18319 0.6531 0.0
H846 H 0.76049 0.15101 0.72208 0.0
H847 H 0.78101 0.15722 0.6975 0.0
H848 H 0.85347 0.17771 0.70496 0.0
C849 C 0.88611 0.19375 0.64988 0.0
C850 C 0.83009 0.18179 0.66434 0.0
C851 C 0.89763 0.19582 0.63581 0.0
C852 C 0.77864 0.16233 0.72208 0.0
C853 C 0.79044 0.16591 0.70794 0.0
C854 C 0.84689 0.17923 0.69373 0.0
C855 C 0.86236 0.18089 0.65054 0.0
C856 C 0.85 0.18043 0.66515 0.0
C857 C 0.81417 0.1792 0.70753 0.0
C858 C 0.82691 0.18046 0.69292 0.0
H859 H 0.85232 0.16275 0.61248 0.0
H860 H 0.83224 0.15885 0.6371 0.0
H861 H 0.87341 0.17791 0.68111 0.0
H862 H 0.82332 0.19414 0.74623 0.0
H863 H 0.84387 0.20076 0.72149 0.0
C864 C 0.95295 0.51567 0.47269 0.0
C865 C 0.95416 0.50504 0.45883 0.0
C866 C 0.96128 0.51245 0.48688 0.0
C867 C 0.98007 0.47675 0.50745 0.0
H868 H 0.01813 0.53197 0.53068 0.0
C869 C 0.03358 0.47707 0.55986 0.0
C870 C 0.03364 0.48905 0.57334 0.0
C871 C 0.0251 0.47987 0.5456 0.0
C872 C 0.00739 0.51634 0.52445 0.0
H873 H 0.96379 0.48153 0.44928 0.0
H874 H 0.97818 0.47577 0.47409 0.0
H875 H 0.99879 0.5334 0.50702 0.0
H876 H 0.02586 0.51424 0.58219 0.0
H877 H 0.01093 0.51905 0.55737 0.0
H878 H 0.98851 0.45964 0.52492 0.0
C879 C 0.9708 0.48664 0.47397 0.0
C880 C 0.99624 0.51715 0.51088 0.0
C881 C 0.96249 0.4899 0.45974 0.0
C882 C 0.02621 0.50486 0.57201 0.0
C883 C 0.0176 0.50759 0.55774 0.0
C884 C 0.99115 0.47592 0.52106 0.0
C885 C 0.97098 0.49848 0.48759 0.0
C886 C 0.98241 0.49736 0.50222 0.0
C887 C 0.01635 0.49465 0.54446 0.0
C888 C 0.00499 0.49571 0.52975 0.0
H889 H 0.94655 0.52737 0.47246 0.0
H890 H 0.96067 0.52142 0.49723 0.0
H891 H 0.96938 0.46117 0.50115 0.0
H892 H 0.03928 0.46482 0.56044 0.0
H893 H 0.02495 0.47005 0.53553 0.0
C894 C 0.51777 0.47786 0.45836 0.0
C895 C 0.50337 0.45429 0.45736 0.0
C896 C 0.5208 0.48918 0.47269 0.0
C897 C 0.51085 0.48035 0.51593 0.0
H898 H 0.50869 0.5361 0.51375 0.0
C899 C 0.50035 0.52236 0.57179 0.0
C900 C 0.5155 0.54573 0.57325 0.0
C901 C 0.49788 0.51136 0.55739 0.0
C902 C 0.50946 0.52064 0.51457 0.0
H903 H 0.48201 0.42401 0.47089 0.0
H904 H 0.48718 0.44364 0.49572 0.0
H905 H 0.5088 0.51692 0.48956 0.0
H906 H 0.53882 0.57607 0.56048 0.0
H907 H 0.53433 0.55696 0.53543 0.0
H908 H 0.51131 0.48401 0.54095 0.0
C909 C 0.49626 0.45347 0.48551 0.0
C910 C 0.50966 0.50969 0.50068 0.0
C911 C 0.49326 0.44217 0.47121 0.0
C912 C 0.52698 0.55805 0.55977 0.0
C913 C 0.5244 0.54709 0.54537 0.0
C914 C 0.51054 0.49126 0.52981 0.0
C915 C 0.5095 0.4772 0.48636 0.0
C916 C 0.51035 0.48938 0.50117 0.0
C917 C 0.51036 0.5235 0.54412 0.0
C918 C 0.50982 0.51152 0.52931 0.0
H919 H 0.52582 0.48773 0.44793 0.0
H920 H 0.53153 0.50741 0.47297 0.0
H921 H 0.51169 0.46493 0.51679 0.0
H922 H 0.49129 0.51235 0.58194 0.0
H923 H 0.4866 0.49322 0.55675 0.0
C924 C 0.53016 0.03278 0.45843 0.0
C925 C 0.55378 0.04211 0.45811 0.0
C926 C 0.51796 0.02368 0.47235 0.0
C927 C 0.52385 0.02187 0.5157 0.0
H928 H 0.46871 0.96382 0.51216 0.0
C929 C 0.47749 0.96974 0.57075 0.0
C930 C 0.45384 0.96017 0.57096 0.0
C931 C 0.48974 0.97868 0.55683 0.0
C932 C 0.48395 0.98011 0.51337 0.0
H933 H 0.58318 0.05011 0.47239 0.0
H934 H 0.56198 0.03435 0.49658 0.0
H935 H 0.48961 0.98315 0.48851 0.0
H936 H 0.42445 0.95158 0.5565 0.0
H937 H 0.44573 0.96716 0.53233 0.0
H938 H 0.51817 0.01888 0.54055 0.0
C939 C 0.55283 0.0341 0.48611 0.0
C940 C 0.49592 0.99125 0.49978 0.0
C941 C 0.56501 0.04312 0.47221 0.0
C942 C 0.44265 0.95875 0.55677 0.0
C943 C 0.45488 0.96768 0.54287 0.0
C944 C 0.51187 0.01074 0.52928 0.0
C945 C 0.5291 0.02377 0.48629 0.0
C946 C 0.51602 0.01229 0.50076 0.0
C947 C 0.47864 0.97826 0.54279 0.0
C948 C 0.49176 0.9897 0.52831 0.0
H949 H 0.52096 0.03169 0.44779 0.0
H950 H 0.49974 0.01623 0.47212 0.0
H951 H 0.53911 0.03816 0.51689 0.0
H952 H 0.48667 0.97111 0.58146 0.0
H953 H 0.50798 0.98631 0.55714 0.0
C954 C 0.50812 0.03318 0.95683 0.0
C955 C 0.49424 0.043 0.95634 0.0
C956 C 0.51084 0.02402 0.97084 0.0
C957 C 0.50254 0.0226 0.01416 0.0
H958 H 0.49869 0.96399 1.01097 0.0
C959 C 0.49463 0.97001 0.06945 0.0
C960 C 0.5085 0.96017 0.06991 0.0
C961 C 0.49183 0.97911 0.05543 0.0
C962 C 0.49999 0.98044 1.01208 0.0
H963 H 0.4732 0.05182 0.97041 0.0
H964 H 0.47793 0.03591 0.99474 0.0
H965 H 0.49791 0.98349 0.98718 0.0
H966 H 0.52942 0.95125 0.05578 0.0
H967 H 0.52455 0.96706 0.03145 0.0
H968 H 0.50463 0.01956 0.03906 0.0
C969 C 0.48682 0.03533 0.98435 0.0
C970 C 0.49963 0.99168 0.99841 0.0
C971 C 0.48406 0.04444 0.97035 0.0
C972 C 0.51856 0.95864 0.05586 0.0
C973 C 0.51574 0.9677 0.04186 0.0
C974 C 0.5029 0.01136 0.02783 0.0
C975 C 0.4998 0.02451 0.9847 0.0
C976 C 0.50091 0.01292 0.99926 0.0
C977 C 0.50278 0.97855 0.04154 0.0
C978 C 0.50162 0.99012 0.02698 0.0
H979 H 0.5162 0.03176 0.94625 0.0
H980 H 0.5213 0.01619 0.97074 0.0
H981 H 0.50383 0.03904 0.01527 0.0
H982 H 0.48663 0.97149 0.08004 0.0
H983 H 0.48138 0.98696 0.05555 0.0
C984 C 0.95265 0.4424 0.97118 0.0
C985 C 0.9554 0.4547 0.9573 0.0
C986 C 0.96069 0.45357 0.98554 0.0
C987 C 0.98287 0.509 1.006 0.0
H988 H 0.01575 0.48704 0.03072 0.0
C989 C 0.03932 0.56054 0.05803 0.0
C990 C 0.03741 0.54854 0.07192 0.0
C991 C 0.02982 0.54903 0.04397 0.0
C992 C 0.00646 0.49328 0.02406 0.0
H993 H 0.96745 0.48835 0.94786 0.0
H994 H 0.98148 0.50784 0.97289 0.0
H995 H 0.99608 0.4669 1.00696 0.0
H996 H 0.02487 0.51501 0.08172 0.0
H997 H 0.00835 0.49493 0.05721 0.0
H998 H 0.99339 0.53546 0.02309 0.0
C999 C 0.97304 0.48953 0.97271 0.0
C1000 C 0.99508 0.48167 1.01044 0.0
C1001 C 0.96493 0.47833 0.95832 0.0
C1002 C 0.02677 0.52479 0.07123 0.0
C1003 C 0.01727 0.51327 0.05716 0.0
C1004 C 0.99428 0.52062 0.01963 0.0
C1005 C 0.97173 0.47734 0.9864 0.0
C1006 C 0.98313 0.48937 1.00122 0.0
C1007 C 0.01817 0.52522 0.04344 0.0
C1008 C 0.00627 0.51295 0.02882 0.0
H1009 H 0.94528 0.42417 0.97085 0.0
H1010 H 0.95886 0.44359 0.99591 0.0
H1011 H 0.97365 0.51528 0.99931 0.0
H1012 H 0.04744 0.57884 0.05811 0.0
H1013 H 0.03128 0.5588 0.03357 0.0
C1014 C 0.53275 0.49188 0.96278 0.0
C1015 C 0.55614 0.50712 0.96179 0.0
C1016 C 0.52123 0.48864 0.97704 0.0
C1017 C 0.52935 0.4992 0.02019 0.0
H1018 H 0.47266 0.49939 0.01746 0.0
C1019 C 0.48524 0.50742 0.0757 0.0
C1020 C 0.46192 0.49196 0.07686 0.0
C1021 C 0.49666 0.51038 0.06142 0.0
C1022 C 0.48838 0.49916 0.01844 0.0
H1023 H 0.58598 0.52976 0.97528 0.0
H1024 H 0.566 0.52412 1.00002 0.0
H1025 H 0.49248 0.49987 0.99346 0.0
H1026 H 0.43208 0.46857 0.06366 0.0
H1027 H 0.4519 0.47382 0.03886 0.0
H1028 H 0.52527 0.49857 0.04518 0.0
C1029 C 0.55647 0.51461 0.98984 0.0
C1030 C 0.49971 0.4993 1.00466 0.0
C1031 C 0.56796 0.51787 0.9756 0.0
C1032 C 0.45005 0.48064 0.0632 0.0
C1033 C 0.46143 0.48367 0.04893 0.0
C1034 C 0.51804 0.4991 0.03397 0.0
C1035 C 0.53285 0.5005 0.99065 0.0
C1036 C 0.52034 0.49933 1.00535 0.0
C1037 C 0.48499 0.49805 0.04797 0.0
C1038 C 0.49742 0.49909 0.03327 0.0
H1039 H 0.5231 0.48333 0.95238 0.0
H1040 H 0.50311 0.47728 0.97731 0.0
H1041 H 0.54505 0.49895 0.02119 0.0
H1042 H 0.49491 0.51638 0.08599 0.0
H1043 H 0.51474 0.52192 0.06102 0.0
C1044 C 0.22791 0.95833 1.00132 0.0
C1045 C 0.21701 0.95314 0.98664 0.0
C1046 C 0.23529 0.9794 1.00835 0.0
C1047 C 0.24844 0.03827 0.99953 0.0
H1048 H 0.24861 0.04243 0.04498 0.0
C1049 C 0.29278 0.12493 0.03095 0.0
C1050 C 0.28291 0.1275 0.04473 0.0
C1051 C 0.28476 0.10355 0.02417 0.0
C1052 C 0.24848 0.04166 0.03227 0.0
H1053 H 0.20501 0.96603 0.96793 0.0
H1054 H 0.21716 0.00261 0.98047 0.0
H1055 H 0.23307 0.00562 0.03254 0.0
H1056 H 0.25694 0.1096 0.06228 0.0
H1057 H 0.24246 0.07246 0.05026 0.0
H1058 H 0.26289 0.07424 0.99925 0.0
C1059 C 0.22056 0.99057 0.98638 0.0
C1060 C 0.23985 0.02045 0.02509 0.0
C1061 C 0.21343 0.96951 0.97923 0.0
C1062 C 0.26507 0.10816 0.05174 0.0
C1063 C 0.2568 0.0868 0.04483 0.0
C1064 C 0.2568 0.05947 1.0067 0.0
C1065 C 0.2317 0.99585 1.00103 0.0
C1066 C 0.23991 0.01844 1.00862 0.0
C1067 C 0.2664 0.0842 0.03086 0.0
C1068 C 0.25714 0.06151 0.02319 0.0
H1069 H 0.23119 0.94625 1.00731 0.0
H1070 H 0.24423 0.98288 0.01942 0.0
H1071 H 0.24905 0.03755 0.98684 0.0
H1072 H 0.30664 0.1395 0.0253 0.0
H1073 H 0.293 0.10226 1.01366 0.0
C1074 C 0.037 0.24634 0.98879 0.0
C1075 C 0.03946 0.24922 0.97239 0.0
C1076 C 0.01557 0.23413 0.99562 0.0
C1077 C 0.95605 0.21706 0.98844 0.0
H1078 H 0.94464 0.17691 0.02381 0.0
C1079 C 0.86677 0.16236 0.0152 0.0
C1080 C 0.86492 0.15887 0.03155 0.0
C1081 C 0.88798 0.17354 1.00792 0.0
C1082 C 0.94761 0.18831 0.01409 0.0
H1083 H 0.02123 0.24091 0.9503 0.0
H1084 H 0.98369 0.21949 0.96227 0.0
H1085 H 0.98146 0.19469 1.01087 0.0
H1086 H 0.884 0.16504 0.05313 0.0
H1087 H 0.92106 0.18501 0.04048 0.0
H1088 H 0.92233 0.21095 0.99175 0.0
C1089 C 0.99844 0.22689 0.96982 0.0
C1090 C 0.9687 0.19842 1.00662 0.0
C1091 C 0.01995 0.239 0.96295 0.0
C1092 C 0.88482 0.1674 0.04051 0.0
C1093 C 0.90607 0.17867 0.03323 0.0
C1094 C 0.93497 0.20702 0.99595 0.0
C1095 C 0.996 0.22456 0.98626 0.0
C1096 C 0.97321 0.21296 0.99373 0.0
C1097 C 0.90793 0.18162 0.0168 0.0
C1098 C 0.93048 0.19255 1.0089 0.0
H1099 H 0.05164 0.25394 0.99643 0.0
H1100 H 0.01432 0.23284 1.00831 0.0
H1101 H 0.95908 0.22847 0.97871 0.0
H1102 H 0.8518 0.15591 1.00792 0.0
H1103 H 0.88868 0.17523 0.99525 0.0
C1104 C 0.84423 0.712 1.01369 0.0
C1105 C 0.8475 0.71254 0.03004 0.0
C1106 C 0.83229 0.72168 1.00705 0.0
C1107 C 0.79113 0.74032 0.01628 0.0
H1108 H 0.81502 0.77667 0.9786 0.0
C1109 C 0.75302 0.79284 0.99208 0.0
C1110 C 0.75021 0.79305 0.97571 0.0
C1111 C 0.76568 0.78385 0.99853 0.0
C1112 C 0.80796 0.76637 0.98902 0.0
H1113 H 0.84039 0.72336 0.05225 0.0
H1114 H 0.81946 0.74022 0.04066 0.0
H1115 H 0.83482 0.75871 0.99025 0.0
H1116 H 0.75911 0.78446 0.95329 0.0
H1117 H 0.78102 0.76847 0.96457 0.0
H1118 H 0.76418 0.74775 0.01502 0.0
C1119 C 0.82607 0.73219 0.03298 0.0
C1120 C 0.81933 0.75607 0.9957 0.0
C1121 C 0.83812 0.72258 0.03962 0.0
C1122 C 0.76099 0.78465 0.96593 0.0
C1123 C 0.7736 0.77552 0.97242 0.0
C1124 C 0.77973 0.75053 1.00957 0.0
C1125 C 0.82322 0.73207 0.01659 0.0
C1126 C 0.81106 0.74294 1.00943 0.0
C1127 C 0.77579 0.77467 0.98883 0.0
C1128 C 0.78802 0.76376 0.99588 0.0
H1129 H 0.8512 0.70439 1.00594 0.0
H1130 H 0.83011 0.72098 0.99441 0.0
H1131 H 0.78411 0.73004 0.02671 0.0
H1132 H 0.74515 0.79936 0.99999 0.0
H1133 H 0.76742 0.78399 1.01119 0.0
C1134 C 0.96234 0.21105 0.53088 0.0
C1135 C 0.9615 0.21108 0.54739 0.0
C1136 C 0.98297 0.21902 0.52302 0.0
C1137 C 0.04339 0.23493 0.52899 0.0
H1138 H 0.05273 0.27038 0.49121 0.0
C1139 C 0.13181 0.29039 0.50179 0.0
C1140 C 0.13378 0.28841 0.48548 0.0
C1141 C 0.11055 0.28077 0.50895 0.0
C1142 C 0.05031 0.26036 0.50167 0.0
H1143 H 0.98169 0.21905 0.56859 0.0
H1144 H 0.01767 0.23342 0.55494 0.0
H1145 H 0.01617 0.25312 0.5045 0.0
H1146 H 0.11486 0.27537 0.46384 0.0
H1147 H 0.07762 0.25885 0.47636 0.0
H1148 H 0.07779 0.24274 0.52631 0.0
C1149 C 0.00237 0.22684 0.548 0.0
C1150 C 0.0293 0.25035 0.50927 0.0
C1151 C 0.9817 0.21865 0.55586 0.0
C1152 C 0.11394 0.27722 0.47643 0.0
C1153 C 0.09262 0.26779 0.48358 0.0
C1154 C 0.06445 0.24514 0.52147 0.0
C1155 C 0.00335 0.22745 0.53145 0.0
C1156 C 0.02555 0.23753 0.52308 0.0
C1157 C 0.09071 0.26913 0.49997 0.0
C1158 C 0.06818 0.25804 0.50776 0.0
H1159 H 0.94708 0.20519 0.52399 0.0
H1160 H 0.98293 0.21871 0.51029 0.0
H1161 H 0.04109 0.22487 0.53939 0.0
H1162 H 0.14673 0.29887 0.50914 0.0
H1163 H 0.10962 0.28236 0.52156 0.0
C1164 C 0.7905 0.76923 0.55975 0.0
C1165 C 0.79833 0.75733 0.55062 0.0
C1166 C 0.78202 0.78195 0.55256 0.0
C1167 C 0.75758 0.78641 0.51465 0.0
H1168 H 0.76381 0.84113 0.53338 0.0
C1169 C 0.72609 0.84229 0.48467 0.0
C1170 C 0.71466 0.85003 0.4944 0.0
C1171 C 0.73682 0.83119 0.49112 0.0
C1172 C 0.7618 0.82578 0.52807 0.0
H1173 H 0.80456 0.7505 0.52677 0.0
H1174 H 0.79048 0.77318 0.51428 0.0
H1175 H 0.78295 0.82271 0.5453 0.0
H1176 H 0.70526 0.85183 0.51852 0.0
H1177 H 0.72396 0.83255 0.52971 0.0
H1178 H 0.73656 0.78969 0.49735 0.0
C1179 C 0.79019 0.77216 0.52699 0.0
C1180 C 0.77274 0.81518 0.53492 0.0
C1181 C 0.79847 0.7593 0.53416 0.0
C1182 C 0.71389 0.84609 0.51067 0.0
C1183 C 0.72478 0.83521 0.51712 0.0
C1184 C 0.7468 0.79714 0.50774 0.0
C1185 C 0.78136 0.78324 0.53607 0.0
C1186 C 0.77063 0.79523 0.52838 0.0
C1187 C 0.73654 0.82781 0.50745 0.0
C1188 C 0.74861 0.81681 0.51446 0.0
H1189 H 0.79003 0.76798 0.57245 0.0
H1190 H 0.77518 0.79002 0.55997 0.0
H1191 H 0.75517 0.77087 0.50943 0.0
H1192 H 0.72704 0.8451 0.4721 0.0
H1193 H 0.74584 0.82577 0.48338 0.0
C1194 C 0.24763 0.02806 0.55912 0.0
C1195 C 0.2581 0.04743 0.54955 0.0
C1196 C 0.23501 0.00647 0.5524 0.0
C1197 C 0.22815 0.97637 0.51454 0.0
H1198 H 0.17377 0.92877 0.53403 0.0
C1199 C 0.16854 0.89135 0.4834 0.0
C1200 C 0.15956 0.87157 0.49256 0.0
C1201 C 0.18095 0.91271 0.49043 0.0
C1202 C 0.18907 0.94183 0.52852 0.0
H1203 H 0.26254 0.05933 0.52545 0.0
H1204 H 0.24022 0.02199 0.51386 0.0
H1205 H 0.19375 0.96612 0.54627 0.0
H1206 H 0.157 0.85876 0.51626 0.0
H1207 H 0.17868 0.89594 0.52845 0.0
H1208 H 0.22333 0.95213 0.49673 0.0
C1209 C 0.24225 0.02329 0.52651 0.0
C1210 C 0.20055 0.96325 0.53555 0.0
C1211 C 0.25494 0.04478 0.53318 0.0
C1212 C 0.16365 0.87363 0.50884 0.0
C1213 C 0.17593 0.89496 0.51587 0.0
C1214 C 0.21662 0.95501 0.50749 0.0
C1215 C 0.23248 0.00379 0.53597 0.0
C1216 C 0.22022 0.98085 0.52863 0.0
C1217 C 0.18455 0.91477 0.50678 0.0
C1218 C 0.19693 0.93747 0.51437 0.0
H1219 H 0.2498 0.02949 0.57175 0.0
H1220 H 0.22786 0.99184 0.56007 0.0
H1221 H 0.2435 0.98933 0.50903 0.0
H1222 H 0.16564 0.89037 0.47084 0.0
H1223 H 0.18721 0.92763 0.48311 0.0
C1224 C 0.72535 0.89136 0.98162 0.0
C1225 C 0.71536 0.87168 0.9909 0.0
C1226 C 0.73381 0.91273 0.98856 0.0
C1227 C 0.75481 0.94261 0.02639 0.0
H1228 H 0.74493 0.98842 1.00705 0.0
C1229 C 0.77948 0.02836 0.05674 0.0
C1230 C 0.78755 0.04759 0.04708 0.0
C1231 C 0.77116 0.00679 0.05011 0.0
C1232 C 0.74814 0.97595 1.01252 0.0
H1233 H 0.70613 0.85903 0.01473 0.0
H1234 H 0.72077 0.89622 0.02676 0.0
H1235 H 0.7291 0.95118 0.99492 0.0
H1236 H 0.79415 0.05928 0.02291 0.0
H1237 H 0.78024 0.02199 1.01146 0.0
H1238 H 0.77403 0.96743 0.04391 0.0
C1239 C 0.72228 0.89517 0.01415 0.0
C1240 C 0.739 0.95456 1.00556 0.0
C1241 C 0.71372 0.87383 1.00722 0.0
C1242 C 0.78783 0.04484 0.03071 0.0
C1243 C 0.77968 0.02338 0.02412 0.0
C1244 C 0.76406 0.96405 0.03332 0.0
C1245 C 0.73258 0.9149 1.00493 0.0
C1246 C 0.74223 0.93763 1.01239 0.0
C1247 C 0.77084 0.004 0.03368 0.0
C1248 C 0.76091 0.98104 0.02645 0.0
H1249 H 0.72695 0.89031 0.96902 0.0
H1250 H 0.7418 0.9276 0.98113 0.0
H1251 H 0.75787 0.93003 0.03185 0.0
H1252 H 0.77894 0.02987 0.06938 0.0
H1253 H 0.76434 0.99225 0.05784 0.0
C1254 C 0.13564 0.83615 1.01207 0.0
C1255 C 0.13889 0.84163 0.99599 0.0
C1256 C 0.11384 0.82416 0.01841 0.0
C1257 C 0.05465 0.80987 1.01044 0.0
H1258 H 0.04042 0.76553 0.04343 0.0
C1259 C 0.96326 0.74817 0.03094 0.0
C1260 C 0.95932 0.74349 0.0471 0.0
C1261 C 0.98526 0.76125 0.02514 0.0
C1262 C 0.0442 0.77808 0.03437 0.0
H1263 H 0.12168 0.83824 0.97389 0.0
H1264 H 0.08362 0.81685 0.98487 0.0
H1265 H 0.07831 0.78494 0.03208 0.0
H1266 H 0.97553 0.74943 0.06989 0.0
H1267 H 0.01405 0.77232 0.05973 0.0
H1268 H 0.02038 0.80269 1.01259 0.0
C1269 C 0.09795 0.82225 0.99267 0.0
C1270 C 0.06594 0.78921 0.02784 0.0
C1271 C 0.11979 0.83435 0.98633 0.0
C1272 C 0.97794 0.75272 0.05739 0.0
C1273 C 1.00002 0.76568 0.05155 0.0
C1274 C 0.03288 0.79864 0.01692 0.0
C1275 C 0.09468 0.81723 1.00884 0.0
C1276 C 0.07146 0.80523 0.01575 0.0
C1277 C 0.00393 0.76989 0.03534 0.0
C1278 C 0.02737 0.78256 0.02893 0.0
H1279 H 0.14996 0.8416 0.01988 0.0
H1280 H 0.11205 0.82088 0.03093 0.0
H1281 H 0.05835 0.82241 1.0014 0.0
H1282 H 0.94934 0.74138 0.02267 0.0
H1283 H 0.98766 0.764 1.01259 0.0
C1284 C 0.15329 0.28172 1.00393 0.0
C1285 C 0.15109 0.28114 0.98749 0.0
C1286 C 0.16478 0.27209 1.01129 0.0
C1287 C 0.18433 0.23064 1.00463 0.0
H1288 H 0.219 0.25779 0.0425 0.0
C1289 C 0.24383 0.20313 0.03379 0.0
C1290 C 0.24357 0.20186 0.05031 0.0
C1291 C 0.23143 0.21142 0.02596 0.0
C1292 C 0.20917 0.24986 0.03203 0.0
H1293 H 0.15976 0.27041 0.96585 0.0
H1294 H 0.18044 0.25415 0.97866 0.0
H1295 H 0.20117 0.27619 0.02886 0.0
H1296 H 0.2294 0.20762 0.07149 0.0
H1297 H 0.20785 0.2222 0.05779 0.0
H1298 H 0.19289 0.20456 1.00772 0.0
C1299 C 0.1728 0.26161 0.98591 0.0
C1300 C 0.19891 0.2604 0.02419 0.0
C1301 C 0.16112 0.27112 0.97854 0.0
C1302 C 0.22998 0.20834 0.05877 0.0
C1303 C 0.21778 0.21687 0.05094 0.0
C1304 C 0.19481 0.22021 1.01241 0.0
C1305 C 0.17459 0.26176 1.00242 0.0
C1306 C 0.18622 0.25088 1.01043 0.0
C1307 C 0.21867 0.21886 0.03447 0.0
C1308 C 0.20723 0.22965 0.02625 0.0
H1309 H 0.14563 0.28913 1.01122 0.0
H1310 H 0.16542 0.27223 0.02401 0.0
H1311 H 0.17441 0.22258 0.99423 0.0
H1312 H 0.25409 0.19824 0.02691 0.0
H1313 H 0.23254 0.21283 1.01328 0.0
C1314 C 0.87428 0.71626 0.52229 0.0
C1315 C 0.87255 0.71862 0.53858 0.0
C1316 C 0.89544 0.72508 0.51506 0.0
C1317 C 0.95562 0.74439 0.52274 0.0
H1318 H 0.96572 0.77775 0.48384 0.0
C1319 C 0.04459 0.79464 0.49561 0.0
C1320 C 0.04668 0.79397 0.4792 0.0
C1321 C 0.02337 0.78612 0.50266 0.0
C1322 C 0.96314 0.76826 0.49458 0.0
H1323 H 0.89179 0.73168 0.56009 0.0
H1324 H 0.92879 0.74696 0.54746 0.0
H1325 H 0.92876 0.76078 0.49658 0.0
H1326 H 0.02798 0.78427 0.45729 0.0
H1327 H 0.99081 0.76901 0.46961 0.0
H1328 H 0.98983 0.75156 0.52071 0.0
C1329 C 0.91371 0.73822 0.5403 0.0
C1330 C 0.94194 0.75854 0.5019 0.0
C1331 C 0.89251 0.7295 0.54753 0.0
C1332 C 0.027 0.78514 0.46996 0.0
C1333 C 0.00567 0.77643 0.47704 0.0
C1334 C 0.97677 0.75398 0.51538 0.0
C1335 C 0.91542 0.73638 0.52393 0.0
C1336 C 0.93794 0.74654 0.51609 0.0
C1337 C 0.00356 0.7765 0.49352 0.0
C1338 C 0.98088 0.76614 0.50123 0.0
H1339 H 0.85927 0.70797 0.51502 0.0
H1340 H 0.89615 0.72307 0.50247 0.0
H1341 H 0.95302 0.73498 0.53353 0.0
H1342 H 0.0594 0.80153 0.5031 0.0
H1343 H 0.02252 0.787 0.51533 0.0
C1344 C 0.21655 0.23928 0.4664 0.0
C1345 C 0.20969 0.25221 0.47528 0.0
C1346 C 0.22551 0.22712 0.47381 0.0
C1347 C 0.25244 0.22534 0.51141 0.0
H1348 H 0.24262 0.16797 0.49511 0.0
C1349 C 0.28107 0.16891 0.54397 0.0
C1350 C 0.29105 0.15915 0.5347 0.0
C1351 C 0.27124 0.18052 0.53694 0.0
C1352 C 0.24566 0.18408 0.49973 0.0
H1353 H 0.20586 0.26162 0.49898 0.0
H1354 H 0.22074 0.23995 0.51187 0.0
H1355 H 0.22416 0.18662 0.48253 0.0
H1356 H 0.29889 0.15433 0.51076 0.0
H1357 H 0.28177 0.17451 0.49857 0.0
H1358 H 0.27373 0.22255 0.52873 0.0
C1359 C 0.21992 0.23971 0.49916 0.0
C1360 C 0.23511 0.19481 0.4925 0.0
C1361 C 0.21118 0.25201 0.49176 0.0
C1362 C 0.29136 0.16164 0.51827 0.0
C1363 C 0.28138 0.17305 0.51126 0.0
C1364 C 0.26283 0.21449 0.51871 0.0
C1365 C 0.22763 0.22745 0.49029 0.0
C1366 C 0.23842 0.21565 0.49819 0.0
C1367 C 0.271 0.18242 0.52049 0.0
C1368 C 0.25967 0.19381 0.51291 0.0
H1369 H 0.21575 0.23917 0.45368 0.0
H1370 H 0.23146 0.21809 0.46655 0.0
H1371 H 0.2558 0.24156 0.51597 0.0
H1372 H 0.28049 0.16725 0.55665 0.0
H1373 H 0.26328 0.18747 0.54437 0.0
C1374 C 0.73685 0.96478 0.49844 0.0
C1375 C 0.74259 0.95966 0.48372 0.0
C1376 C 0.75022 0.98596 0.50537 0.0
C1377 C 0.795 0.04511 0.49633 0.0
H1378 H 0.7993 0.04942 0.54176 0.0
C1379 C 0.83593 0.13181 0.52763 0.0
C1380 C 0.84844 0.13465 0.54139 0.0
C1381 C 0.82295 0.11036 0.52089 0.0
C1382 C 0.79858 0.04861 0.52905 0.0
H1383 H 0.76715 0.97283 0.46481 0.0
H1384 H 0.79106 0.00965 0.47716 0.0
H1385 H 0.77854 0.01253 0.52938 0.0
H1386 H 0.85705 0.11718 0.55893 0.0
H1387 H 0.83507 0.07991 0.54696 0.0
H1388 H 0.81595 0.08113 0.49599 0.0
C1389 C 0.77583 0.99744 0.4832 0.0
C1390 C 0.78629 0.02736 0.52191 0.0
C1391 C 0.76221 0.97626 0.47613 0.0
C1392 C 0.84741 0.11551 0.54841 0.0
C1393 C 0.83471 0.09409 0.54153 0.0
C1394 C 0.80756 0.06636 0.50347 0.0
C1395 C 0.76998 0.00262 0.49791 0.0
C1396 C 0.78409 0.02528 0.50545 0.0
C1397 C 0.82243 0.09121 0.52758 0.0
C1398 C 0.80936 0.06846 0.51995 0.0
H1399 H 0.72172 0.95251 0.50455 0.0
H1400 H 0.74475 0.98935 0.51648 0.0
H1401 H 0.79357 0.04434 0.48365 0.0
H1402 H 0.83627 0.14621 0.52198 0.0
H1403 H 0.81333 0.10886 0.5104 0.0
C1404 C 0.95631 0.46921 0.35575 0.0
C1405 C 0.95383 0.47023 0.37209 0.0
C1406 C 0.9475 0.44837 0.34805 0.0
C1407 C 0.90491 0.3875 0.35303 0.0
H1408 H 0.93569 0.37999 0.31714 0.0
C1409 C 0.87934 0.30042 0.3254 0.0
C1410 C 0.87939 0.2989 0.3089 0.0
C1411 C 0.88747 0.32136 0.33283 0.0
C1412 C 0.92676 0.38191 0.32702 0.0
H1413 H 0.94075 0.45007 0.39323 0.0
H1414 H 0.92593 0.41367 0.37988 0.0
H1415 H 0.95287 0.4161 0.33103 0.0
H1416 H 0.88762 0.31824 0.28729 0.0
H1417 H 0.90199 0.35495 0.30033 0.0
H1418 H 0.87902 0.35309 0.34915 0.0
C1419 C 0.9342 0.429 0.37293 0.0
C1420 C 0.93661 0.40262 0.33501 0.0
C1421 C 0.94289 0.44989 0.38062 0.0
C1422 C 0.88731 0.31881 0.3 0.0
C1423 C 0.89569 0.33984 0.30747 0.0
C1424 C 0.89517 0.36673 0.34511 0.0
C1425 C 0.93611 0.42795 0.3565 0.0
C1426 C 0.92582 0.40572 0.34813 0.0
C1427 C 0.89605 0.34135 0.32397 0.0
C1428 C 0.90598 0.36369 0.33203 0.0
H1429 H 0.96451 0.48454 0.34878 0.0
H1430 H 0.94905 0.44831 0.33539 0.0
H1431 H 0.89585 0.38933 0.36286 0.0
H1432 H 0.87332 0.28543 0.33263 0.0
H1433 H 0.88767 0.32195 0.34555 0.0
C1434 C 0.53771 0.49345 0.3557 0.0
C1435 C 0.53684 0.48928 0.37193 0.0
C1436 C 0.55848 0.50517 0.34788 0.0
C1437 C 0.61885 0.52096 0.35202 0.0
H1438 H 0.62734 0.56106 0.31715 0.0
C1439 C 0.70625 0.58139 0.32465 0.0
C1440 C 0.70773 0.58369 0.30819 0.0
C1441 C 0.6853 0.56875 0.33205 0.0
C1442 C 0.62513 0.5497 0.32674 0.0
H1443 H 0.55718 0.49486 0.39279 0.0
H1444 H 0.59345 0.51589 0.37927 0.0
H1445 H 0.59137 0.54275 0.33122 0.0
H1446 H 0.68828 0.57403 0.28659 0.0
H1447 H 0.65153 0.55199 0.29959 0.0
H1448 H 0.65283 0.52836 0.34769 0.0
C1449 C 0.57806 0.5096 0.37247 0.0
C1450 C 0.6045 0.53918 0.33483 0.0
C1451 C 0.55725 0.49772 0.38027 0.0
C1452 C 0.68774 0.57256 0.29928 0.0
C1453 C 0.66669 0.56009 0.30673 0.0
C1454 C 0.63953 0.53163 0.34401 0.0
C1455 C 0.57896 0.51318 0.35612 0.0
C1456 C 0.60107 0.52468 0.3476 0.0
C1457 C 0.66524 0.55825 0.32321 0.0
C1458 C 0.64292 0.54614 0.33129 0.0
H1459 H 0.52232 0.48707 0.34888 0.0
H1460 H 0.5584 0.5073 0.33528 0.0
H1461 H 0.61673 0.50956 0.36155 0.0
H1462 H 0.7213 0.5897 0.33188 0.0
H1463 H 0.68475 0.56782 0.34477 0.0
C1464 C 0.51702 0.05369 0.35829 0.0
C1465 C 0.52063 0.05576 0.37463 0.0
C1466 C 0.50543 0.0632 0.35092 0.0
C1467 C 0.46542 0.08368 0.35767 0.0
H1468 H 0.49158 0.11818 0.31955 0.0
C1469 C 0.42694 0.13259 0.32784 0.0
C1470 C 0.42559 0.13183 0.31135 0.0
C1471 C 0.43977 0.12489 0.33576 0.0
C1472 C 0.48387 0.1084 0.33007 0.0
H1473 H 0.51428 0.06889 0.39609 0.0
H1474 H 0.49371 0.08529 0.38318 0.0
H1475 H 0.51045 0.10061 0.33302 0.0
H1476 H 0.43724 0.12297 0.29021 0.0
H1477 H 0.45924 0.1091 0.30401 0.0
H1478 H 0.43858 0.09096 0.3546 0.0
C1479 C 0.49994 0.07632 0.37611 0.0
C1480 C 0.49473 0.09836 0.33781 0.0
C1481 C 0.51173 0.06695 0.38349 0.0
C1482 C 0.43802 0.12392 0.30292 0.0
C1483 C 0.4507 0.116 0.31086 0.0
C1484 C 0.45445 0.09356 0.34986 0.0
C1485 C 0.49701 0.07488 0.3597 0.0
C1486 C 0.48558 0.08582 0.35166 0.0
C1487 C 0.45141 0.116 0.32741 0.0
C1488 C 0.4635 0.10603 0.33593 0.0
H1489 H 0.52362 0.04518 0.35109 0.0
H1490 H 0.50313 0.06149 0.3383 0.0
H1491 H 0.45782 0.07392 0.36822 0.0
H1492 H 0.41774 0.13877 0.3347 0.0
H1493 H 0.44034 0.1257 0.34848 0.0
C1494 C 0.65349 0.55478 0.89613 0.0
C1495 C 0.63334 0.54627 0.88744 0.0
C1496 C 0.67434 0.56306 0.88844 0.0
C1497 C 0.70035 0.56122 0.85072 0.0
H1498 H 0.74964 0.61985 0.86344 0.0
C1499 C 0.78211 0.60805 0.81379 0.0
C1500 C 0.80271 0.61951 0.82197 0.0
C1501 C 0.76149 0.59958 0.82179 0.0
C1502 C 0.73619 0.60333 0.85984 0.0
H1503 H 0.61926 0.53907 0.86389 0.0
H1504 H 0.65545 0.55324 0.85058 0.0
H1505 H 0.71397 0.60291 0.87785 0.0
H1506 H 0.81778 0.6314 0.84496 0.0
H1507 H 0.78201 0.61633 0.85889 0.0
H1508 H 0.72252 0.56141 0.83285 0.0
C1509 C 0.65519 0.55357 0.86331 0.0
C1510 C 0.71573 0.59362 0.86812 0.0
C1511 C 0.63444 0.54555 0.87096 0.0
C1512 C 0.80223 0.62277 0.83826 0.0
C1513 C 0.78165 0.61418 0.84626 0.0
C1514 C 0.72086 0.57083 0.84251 0.0
C1515 C 0.67542 0.56272 0.87193 0.0
C1516 C 0.69753 0.57251 0.86361 0.0
C1517 C 0.76097 0.60222 0.83819 0.0
C1518 C 0.73904 0.59208 0.8469 0.0
H1519 H 0.65324 0.55562 0.90884 0.0
H1520 H 0.68964 0.56982 0.89541 0.0
H1521 H 0.68673 0.54482 0.84706 0.0
H1522 H 0.78188 0.6053 0.80124 0.0
H1523 H 0.74594 0.59087 0.81511 0.0
C1524 C 0.38819 0.18436 0.83608 0.0
C1525 C 0.3905 0.18834 0.81978 0.0
C1526 C 0.39785 0.17288 0.84341 0.0
C1527 C 0.41918 0.13359 0.83646 0.0
H1528 H 0.45295 0.15936 0.8749 0.0
C1529 C 0.46829 0.0953 0.86628 0.0
C1530 C 0.46739 0.09376 0.88277 0.0
C1531 C 0.46052 0.1081 0.8584 0.0
C1532 C 0.44338 0.15176 0.86429 0.0
H1533 H 0.40423 0.18273 0.79834 0.0
H1534 H 0.42087 0.16231 0.81116 0.0
H1535 H 0.43522 0.17812 0.86149 0.0
H1536 H 0.45819 0.10503 0.90393 0.0
H1537 H 0.44418 0.12697 0.89021 0.0
H1538 H 0.4268 0.10695 0.83939 0.0
C1539 C 0.41161 0.16819 0.81824 0.0
C1540 C 0.43325 0.16255 0.85658 0.0
C1541 C 0.4021 0.1799 0.81091 0.0
C1542 C 0.45926 0.10597 0.89122 0.0
C1543 C 0.45126 0.11861 0.88332 0.0
C1544 C 0.42914 0.12267 0.84424 0.0
C1545 C 0.40991 0.1649 0.83462 0.0
C1546 C 0.42097 0.15355 0.84262 0.0
C1547 C 0.45141 0.11952 0.86678 0.0
C1548 C 0.44135 0.13157 0.85828 0.0
H1549 H 0.37937 0.19062 0.84329 0.0
H1550 H 0.39595 0.1703 0.856 0.0
H1551 H 0.40963 0.12611 0.82582 0.0
H1552 H 0.47464 0.08627 0.8594 0.0
H1553 H 0.46145 0.10883 0.84569 0.0
C1554 C 0.93097 0.3727 0.86855 0.0
C1555 C 0.92376 0.37715 0.88294 0.0
C1556 C 0.91831 0.35189 0.861 0.0
C1557 C 0.87285 0.29235 0.86771 0.0
H1558 H 0.87284 0.29075 0.82216 0.0
C1559 C 0.8356 0.20767 0.8339 0.0
C1560 C 0.82424 0.20562 0.8197 0.0
C1561 C 0.84778 0.22868 0.84139 0.0
C1562 C 0.87237 0.2908 0.83488 0.0
H1563 H 0.89737 0.36311 0.90061 0.0
H1564 H 0.87475 0.32687 0.88715 0.0
H1565 H 0.89222 0.32687 0.83567 0.0
H1566 H 0.8169 0.22408 0.80215 0.0
H1567 H 0.83752 0.26054 0.81538 0.0
H1568 H 0.85214 0.2563 0.86688 0.0
C1569 C 0.89054 0.33937 0.88187 0.0
C1570 C 0.88384 0.31161 0.84268 0.0
C1571 C 0.90342 0.36021 0.88956 0.0
C1572 C 0.82566 0.22513 0.81301 0.0
C1573 C 0.83758 0.24609 0.82061 0.0
C1574 C 0.86111 0.27152 0.8599 0.0
C1575 C 0.89784 0.33492 0.86746 0.0
C1576 C 0.8845 0.3127 0.85921 0.0
C1577 C 0.84867 0.24816 0.835 0.0
C1578 C 0.86087 0.27042 0.84335 0.0
H1579 H 0.94667 0.38521 0.86316 0.0
H1580 H 0.92487 0.34903 0.85017 0.0
H1581 H 0.87309 0.29239 0.88043 0.0
H1582 H 0.83492 0.19297 0.83933 0.0
H1583 H 0.8565 0.22959 0.85223 0.0
C1584 C 0.39643 0.22476 0.31189 0.0
C1585 C 0.38605 0.20481 0.3209 0.0
C1586 C 0.40549 0.24599 0.31917 0.0
C1587 C 0.42885 0.27419 0.35693 0.0
H1588 H 0.41865 0.32154 0.34088 0.0
C1589 C 0.45623 0.35735 0.39132 0.0
C1590 C 0.46306 0.37733 0.38272 0.0
C1591 C 0.4476 0.33648 0.38361 0.0
C1592 C 0.42203 0.30868 0.3454 0.0
H1593 H 0.37661 0.19156 0.34458 0.0
H1594 H 0.39248 0.2285 0.35719 0.0
H1595 H 0.40167 0.28502 0.32755 0.0
H1596 H 0.46716 0.39116 0.35922 0.0
H1597 H 0.45296 0.35506 0.34579 0.0
H1598 H 0.44952 0.29782 0.3746 0.0
C1599 C 0.39373 0.22774 0.34454 0.0
C1600 C 0.41218 0.28769 0.33776 0.0
C1601 C 0.38447 0.20656 0.33727 0.0
C1602 C 0.46185 0.37607 0.36622 0.0
C1603 C 0.45349 0.35528 0.35851 0.0
C1604 C 0.43891 0.29524 0.36447 0.0
C1605 C 0.40459 0.2477 0.3356 0.0
C1606 C 0.41536 0.27017 0.3435 0.0
C1607 C 0.44584 0.33512 0.36709 0.0
C1608 C 0.43557 0.31278 0.35886 0.0
H1609 H 0.39797 0.22401 0.29927 0.0
H1610 H 0.41383 0.26109 0.31198 0.0
H1611 H 0.43189 0.26111 0.36149 0.0
H1612 H 0.45679 0.35771 0.40404 0.0
H1613 H 0.44167 0.32135 0.39066 0.0
C1614 C 0.65286 0.10464 0.39357 0.0
C1615 C 0.63256 0.09287 0.38508 0.0
C1616 C 0.67355 0.11713 0.3857 0.0
C1617 C 0.6997 0.12132 0.34657 0.0
H1618 H 0.74913 0.17657 0.36379 0.0
C1619 C 0.78319 0.17841 0.31266 0.0
C1620 C 0.80338 0.18707 0.32131 0.0
C1621 C 0.76217 0.16668 0.32023 0.0
C1622 C 0.73553 0.16105 0.3589 0.0
H1623 H 0.61796 0.086 0.36169 0.0
H1624 H 0.65379 0.10827 0.34806 0.0
H1625 H 0.71279 0.15783 0.37738 0.0
H1626 H 0.81729 0.18974 0.34466 0.0
H1627 H 0.78072 0.16933 0.35778 0.0
H1628 H 0.72246 0.12475 0.32799 0.0
C1629 C 0.65392 0.10732 0.36076 0.0
C1630 C 0.71468 0.15027 0.3667 0.0
C1631 C 0.63331 0.09469 0.3686 0.0
C1632 C 0.80208 0.18331 0.33762 0.0
C1633 C 0.78112 0.17177 0.34518 0.0
C1634 C 0.72049 0.1322 0.33871 0.0
C1635 C 0.67439 0.1183 0.36917 0.0
C1636 C 0.69649 0.13021 0.36068 0.0
C1637 C 0.76092 0.16355 0.33661 0.0
C1638 C 0.73868 0.15212 0.34483 0.0
H1639 H 0.65291 0.10348 0.40626 0.0
H1640 H 0.68894 0.12517 0.39259 0.0
H1641 H 0.68627 0.10567 0.34171 0.0
H1642 H 0.78359 0.18107 0.30009 0.0
H1643 H 0.74691 0.16064 0.31331 0.0
C1644 C 0.90381 0.55279 0.39395 0.0
C1645 C 0.9159 0.54494 0.38503 0.0
C1646 C 0.89117 0.56118 0.3865 0.0
C1647 C 0.86415 0.561 0.34879 0.0
H1648 H 0.87233 0.61865 0.36309 0.0
C1649 C 0.8295 0.60943 0.31327 0.0
C1650 C 0.82002 0.62035 0.3218 0.0
C1651 C 0.84149 0.60054 0.321 0.0
C1652 C 0.86958 0.6024 0.35904 0.0
H1653 H 0.92346 0.53899 0.3613 0.0
H1654 H 0.90131 0.55335 0.3484 0.0
H1655 H 0.89102 0.60125 0.37698 0.0
H1656 H 0.816 0.63076 0.34513 0.0
H1657 H 0.83641 0.61497 0.35857 0.0
H1658 H 0.84253 0.56193 0.33097 0.0
C1659 C 0.90161 0.55309 0.36112 0.0
C1660 C 0.88031 0.59242 0.36704 0.0
C1661 C 0.91441 0.54495 0.36854 0.0
C1662 C 0.8232 0.62258 0.33817 0.0
C1663 C 0.83502 0.61358 0.34589 0.0
C1664 C 0.85327 0.57088 0.34087 0.0
C1665 C 0.89013 0.56163 0.36999 0.0
C1666 C 0.87782 0.57166 0.36196 0.0
C1667 C 0.84415 0.60223 0.33745 0.0
C1668 C 0.85591 0.59178 0.34584 0.0
H1669 H 0.90463 0.55306 0.40666 0.0
H1670 H 0.88231 0.56744 0.39365 0.0
H1671 H 0.8617 0.54487 0.34469 0.0
H1672 H 0.82741 0.60747 0.30065 0.0
H1673 H 0.84862 0.5923 0.31405 0.0
C1674 C 0.54151 0.05159 0.85623 0.0
C1675 C 0.54002 0.0536 0.87258 0.0
C1676 C 0.56255 0.06055 0.84882 0.0
C1677 C 0.6226 0.07909 0.85544 0.0
H1678 H 0.63229 0.1151 0.81792 0.0
C1679 C 0.71078 0.12865 0.82682 0.0
C1680 C 0.71206 0.12931 0.81032 0.0
C1681 C 0.68997 0.12026 0.83447 0.0
C1682 C 0.62983 0.10486 0.82825 0.0
H1683 H 0.55955 0.066 0.89404 0.0
H1684 H 0.59639 0.08138 0.8811 0.0
H1685 H 0.59571 0.09784 0.83117 0.0
H1686 H 0.69243 0.12201 0.78891 0.0
H1687 H 0.65601 0.10686 0.80222 0.0
H1688 H 0.65647 0.08563 0.85242 0.0
C1689 C 0.58119 0.07291 0.87402 0.0
C1690 C 0.60885 0.095 0.83587 0.0
C1691 C 0.56009 0.06412 0.88143 0.0
C1692 C 0.69206 0.12187 0.80164 0.0
C1693 C 0.67115 0.11324 0.8093 0.0
C1694 C 0.64352 0.08876 0.84775 0.0
C1695 C 0.58265 0.07156 0.8576 0.0
C1696 C 0.60499 0.08201 0.84955 0.0
C1697 C 0.66979 0.11204 0.82583 0.0
C1698 C 0.64746 0.10183 0.83405 0.0
H1699 H 0.5264 0.0436 0.84903 0.0
H1700 H 0.5631 0.05895 0.83618 0.0
H1701 H 0.62006 0.06895 0.86585 0.0
H1702 H 0.72588 0.13444 0.83389 0.0
H1703 H 0.68973 0.12017 0.84719 0.0
C1704 C 0.94425 0.49637 0.88035 0.0
C1705 C 0.95568 0.48761 0.87163 0.0
C1706 C 0.9346 0.5078 0.87283 0.0
C1707 C 0.93475 0.53535 0.83482 0.0
H1708 H 0.87737 0.52662 0.8502 0.0
C1709 C 0.88233 0.56677 0.80057 0.0
C1710 C 0.87514 0.57944 0.80946 0.0
C1711 C 0.89116 0.55452 0.80801 0.0
C1712 C 0.89344 0.52928 0.84581 0.0
H1713 H 0.96606 0.48416 0.84816 0.0
H1714 H 0.94886 0.50347 0.83506 0.0
H1715 H 0.89549 0.50821 0.86359 0.0
H1716 H 0.87071 0.58837 0.83316 0.0
H1717 H 0.88573 0.56674 0.84609 0.0
H1718 H 0.9324 0.55612 0.81687 0.0
C1719 C 0.94772 0.50206 0.84774 0.0
C1720 C 0.90393 0.51885 0.85354 0.0
C1721 C 0.95755 0.49085 0.85527 0.0
C1722 C 0.87614 0.57884 0.82595 0.0
C1723 C 0.88467 0.56637 0.83338 0.0
C1724 C 0.92412 0.54555 0.82699 0.0
C1725 C 0.93595 0.51055 0.85638 0.0
C1726 C 0.9248 0.52181 0.8482 0.0
C1727 C 0.89267 0.55442 0.8245 0.0
C1728 C 0.9034 0.54271 0.83243 0.0
H1729 H 0.94256 0.49421 0.89298 0.0
H1730 H 0.92607 0.51447 0.87994 0.0
H1731 H 0.95097 0.53841 0.83049 0.0
H1732 H 0.88185 0.56692 0.78785 0.0
H1733 H 0.89701 0.54528 0.80086 0.0
C1734 C 0.51776 0.46885 0.8591 0.0
C1735 C 0.52139 0.47007 0.87543 0.0
C1736 C 0.50615 0.44791 0.8515 0.0
C1737 C 0.46605 0.38739 0.85772 0.0
H1738 H 0.49206 0.37957 0.81928 0.0
C1739 C 0.42781 0.30044 0.82719 0.0
C1740 C 0.4265 0.30001 0.81069 0.0
C1741 C 0.44046 0.32088 0.83524 0.0
C1742 C 0.4844 0.3815 0.82989 0.0
H1743 H 0.51504 0.45017 0.89664 0.0
H1744 H 0.49445 0.41351 0.88334 0.0
H1745 H 0.51099 0.41577 0.83306 0.0
H1746 H 0.43801 0.32075 0.7897 0.0
H1747 H 0.4597 0.35647 0.80372 0.0
H1748 H 0.43921 0.35336 0.85444 0.0
C1749 C 0.50068 0.42883 0.87645 0.0
C1750 C 0.49528 0.40226 0.8378 0.0
C1751 C 0.5125 0.44982 0.88405 0.0
C1752 C 0.43875 0.32045 0.80241 0.0
C1753 C 0.45126 0.34096 0.81048 0.0
C1754 C 0.45505 0.36668 0.84974 0.0
C1755 C 0.49771 0.42766 0.86005 0.0
C1756 C 0.48621 0.40547 0.85178 0.0
C1757 C 0.45199 0.34149 0.82703 0.0
C1758 C 0.46405 0.36345 0.83569 0.0
H1759 H 0.52437 0.4841 0.85208 0.0
H1760 H 0.50383 0.44758 0.83889 0.0
H1761 H 0.45851 0.38941 0.86837 0.0
H1762 H 0.41874 0.28498 0.83395 0.0
H1763 H 0.44104 0.32051 0.84795 0.0
C1764 C 0.5504 0.62727 0.6626 0.0
C1765 C 0.5509 0.62442 0.64625 0.0
C1766 C 0.55875 0.64881 0.66912 0.0
C1767 C 0.57558 0.7084 0.65947 0.0
H1768 H 0.60978 0.72118 0.69821 0.0
C1769 C 0.62738 0.79898 0.68462 0.0
C1770 C 0.62552 0.80165 0.70085 0.0
C1771 C 0.61852 0.77741 0.678 0.0
C1772 C 0.6001 0.71783 0.68747 0.0
H1773 H 0.56016 0.64209 0.62393 0.0
H1774 H 0.57509 0.67978 0.63533 0.0
H1775 H 0.59334 0.68365 0.68643 0.0
H1776 H 0.61327 0.78366 0.72291 0.0
H1777 H 0.59791 0.74596 0.71135 0.0
H1778 H 0.58263 0.74274 0.66046 0.0
C1779 C 0.56794 0.66528 0.64311 0.0
C1780 C 0.5906 0.69627 0.68072 0.0
C1781 C 0.55942 0.64365 0.63655 0.0
C1782 C 0.61506 0.78222 0.71037 0.0
C1783 C 0.6063 0.76061 0.70375 0.0
C1784 C 0.58519 0.73001 0.66619 0.0
C1785 C 0.56801 0.66817 0.65951 0.0
C1786 C 0.57814 0.69122 0.66664 0.0
C1787 C 0.60768 0.75795 0.68746 0.0
C1788 C 0.59755 0.73498 0.68028 0.0
H1789 H 0.54377 0.61283 0.67043 0.0
H1790 H 0.55801 0.65028 0.68176 0.0
H1791 H 0.56584 0.70508 0.64877 0.0
H1792 H 0.63534 0.81356 0.67693 0.0
H1793 H 0.62017 0.77597 0.66545 0.0
C1794 C 0.20722 0.82298 0.69356 0.0
C1795 C 0.20605 0.81952 0.70991 0.0
C1796 C 0.22812 0.83418 0.68589 0.0
C1797 C 0.28885 0.8735 0.69184 0.0
H1798 H 0.29588 0.84643 0.65366 0.0
C1799 C 0.37551 0.91029 0.66124 0.0
C1800 C 0.3759 0.91136 0.64473 0.0
C1801 C 0.35508 0.89783 0.66933 0.0
C1802 C 0.29418 0.8544 0.66419 0.0
H1803 H 0.22601 0.82575 0.73107 0.0
H1804 H 0.2626 0.84564 0.71764 0.0
H1805 H 0.25973 0.82831 0.6675 0.0
H1806 H 0.35514 0.89958 0.62377 0.0
H1807 H 0.31944 0.87823 0.63787 0.0
H1808 H 0.32304 0.89987 0.68842 0.0
C1809 C 0.24727 0.83959 0.71079 0.0
C1810 C 0.27344 0.84396 0.67214 0.0
C1811 C 0.22632 0.82818 0.71847 0.0
C1812 C 0.35546 0.89899 0.63649 0.0
C1813 C 0.33496 0.8867 0.6446 0.0
C1814 C 0.30953 0.88405 0.68382 0.0
C1815 C 0.24838 0.84238 0.69437 0.0
C1816 C 0.27053 0.85342 0.68604 0.0
C1817 C 0.33445 0.88629 0.66116 0.0
C1818 C 0.3125 0.87467 0.66987 0.0
H1819 H 0.19196 0.81654 0.68659 0.0
H1820 H 0.22842 0.83636 0.67326 0.0
H1821 H 0.28706 0.88133 0.70242 0.0
H1822 H 0.39098 0.91946 0.66796 0.0
H1823 H 0.35549 0.89747 0.68205 0.0
C1824 C 0.17665 0.37527 0.68091 0.0
C1825 C 0.18076 0.37657 0.69717 0.0
C1826 C 0.1643 0.38458 0.67437 0.0
C1827 C 0.14648 0.42685 0.68254 0.0
H1828 H 0.10478 0.39697 0.64811 0.0
C1829 C 0.08325 0.45397 0.66097 0.0
C1830 C 0.0793 0.45365 0.64472 0.0
C1831 C 0.09669 0.44556 0.66693 0.0
C1832 C 0.11659 0.40569 0.65757 0.0
H1833 H 0.17463 0.38823 0.71937 0.0
H1834 H 0.15269 0.4041 0.70802 0.0
H1835 H 0.12501 0.37945 0.65969 0.0
H1836 H 0.0869 0.44466 0.62196 0.0
H1837 H 0.11048 0.42997 0.63241 0.0
H1838 H 0.13782 0.45295 0.68053 0.0
C1839 C 0.15939 0.39625 0.70026 0.0
C1840 C 0.12818 0.39563 0.66424 0.0
C1841 C 0.17181 0.38697 0.7068 0.0
C1842 C 0.08959 0.44517 0.63453 0.0
C1843 C 0.10296 0.4366 0.64053 0.0
C1844 C 0.13483 0.43686 0.67591 0.0
C1845 C 0.15567 0.39538 0.68393 0.0
C1846 C 0.14323 0.40603 0.67685 0.0
C1847 C 0.10648 0.4365 0.65682 0.0
C1848 C 0.11967 0.42637 0.66338 0.0
H1849 H 0.18338 0.36748 0.67312 0.0
H1850 H 0.16203 0.38381 0.66175 0.0
H1851 H 0.15825 0.43559 0.69201 0.0
H1852 H 0.07564 0.46039 0.66918 0.0
H1853 H 0.09886 0.44555 0.67954 0.0
C1854 C 0.31089 0.89005 0.22282 0.0
C1855 C 0.29096 0.88139 0.21387 0.0
C1856 C 0.33194 0.89827 0.21545 0.0
C1857 C 0.36013 0.91929 0.1767 0.0
H1858 H 0.4076 0.91149 0.19541 0.0
C1859 C 0.44354 0.9408 0.14426 0.0
C1860 C 0.46361 0.95165 0.15311 0.0
C1861 C 0.42247 0.93279 0.15155 0.0
C1862 C 0.39458 0.91399 0.1901 0.0
H1863 H 0.27752 0.87378 0.19015 0.0
H1864 H 0.31397 0.88746 0.1774 0.0
H1865 H 0.37092 0.89559 0.20841 0.0
H1866 H 0.47722 0.96304 0.17652 0.0
H1867 H 0.44055 0.94911 0.18915 0.0
H1868 H 0.38378 0.93743 0.15827 0.0
C1869 C 0.31351 0.88856 0.19008 0.0
C1870 C 0.37354 0.90491 0.19758 0.0
C1871 C 0.29253 0.88053 0.19742 0.0
C1872 C 0.46213 0.95475 0.16933 0.0
C1873 C 0.44109 0.94661 0.17662 0.0
C1874 C 0.38112 0.92823 0.16917 0.0
C1875 C 0.33356 0.89786 0.19896 0.0
C1876 C 0.35601 0.90744 0.19099 0.0
C1877 C 0.42099 0.93529 0.16786 0.0
C1878 C 0.39861 0.92574 0.1758 0.0
H1879 H 0.31031 0.89107 0.2355 0.0
H1880 H 0.347 0.90551 0.22269 0.0
H1881 H 0.34724 0.92199 0.1714 0.0
H1882 H 0.44408 0.93809 0.13176 0.0
H1883 H 0.40728 0.92403 0.14449 0.0
C1884 C 0.12549 0.41933 0.19729 0.0
C1885 C 0.12426 0.41616 0.21367 0.0
C1886 C 0.11674 0.43181 0.1902 0.0
C1887 C 0.09665 0.4726 0.19842 0.0
H1888 H 0.06572 0.4504 0.15857 0.0
C1889 C 0.04331 0.50769 0.17023 0.0
C1890 C 0.04679 0.51289 0.15412 0.0
C1891 C 0.05238 0.49555 0.17745 0.0
C1892 C 0.07446 0.45692 0.16963 0.0
H1893 H 0.11326 0.42414 0.23547 0.0
H1894 H 0.09755 0.44558 0.22307 0.0
H1895 H 0.08278 0.43063 0.17144 0.0
H1896 H 0.06202 0.50886 0.13287 0.0
H1897 H 0.07765 0.48742 0.14547 0.0
H1898 H 0.08794 0.4987 0.19665 0.0
C1899 C 0.10563 0.4387 0.21571 0.0
C1900 C 0.08434 0.44564 0.17701 0.0
C1901 C 0.1146 0.42634 0.22284 0.0
C1902 C 0.05898 0.50508 0.14529 0.0
C1903 C 0.0679 0.49276 0.1525 0.0
C1904 C 0.08661 0.48377 0.19108 0.0
C1905 C 0.10629 0.44131 0.19925 0.0
C1906 C 0.09567 0.45337 0.19148 0.0
C1907 C 0.065 0.48816 0.16872 0.0
C1908 C 0.07545 0.4761 0.17658 0.0
H1909 H 0.13302 0.41192 0.18987 0.0
H1910 H 0.11811 0.43391 0.17756 0.0
H1911 H 0.1055 0.47927 0.20941 0.0
H1912 H 0.03402 0.51344 0.1774 0.0
H1913 H 0.04956 0.492 0.18991 0.0
C1914 C 0.5763 0.68803 0.23151 0.0
C1915 C 0.58652 0.70744 0.22195 0.0
C1916 C 0.56438 0.66639 0.22476 0.0
C1917 C 0.55939 0.63655 0.18709 0.0
H1918 H 0.50496 0.58812 0.20594 0.0
C1919 C 0.5023 0.55107 0.15561 0.0
C1920 C 0.49318 0.53132 0.1648 0.0
C1921 C 0.51418 0.57247 0.16267 0.0
C1922 C 0.52029 0.60141 0.20062 0.0
H1923 H 0.59126 0.71929 0.19783 0.0
H1924 H 0.57016 0.68184 0.18618 0.0
H1925 H 0.52381 0.62548 0.21821 0.0
H1926 H 0.48988 0.5186 0.1886 0.0
H1927 H 0.51068 0.55583 0.20083 0.0
H1928 H 0.55575 0.61252 0.16944 0.0
C1929 C 0.57184 0.68319 0.19885 0.0
C1930 C 0.53111 0.62284 0.20766 0.0
C1931 C 0.58383 0.70473 0.20556 0.0
C1932 C 0.49665 0.53345 0.18115 0.0
C1933 C 0.50842 0.55481 0.1882 0.0
C1934 C 0.54852 0.61517 0.18002 0.0
C1935 C 0.56231 0.66369 0.20832 0.0
C1936 C 0.55077 0.64073 0.20096 0.0
C1937 C 0.51712 0.57459 0.17907 0.0
C1938 C 0.52883 0.59732 0.18668 0.0
H1939 H 0.57812 0.68949 0.24416 0.0
H1940 H 0.55739 0.65177 0.23242 0.0
H1941 H 0.57475 0.64976 0.18175 0.0
H1942 H 0.49986 0.55004 0.143 0.0
H1943 H 0.52051 0.58736 0.1553 0.0
C1944 C 0.12366 0.68846 0.7308 0.0
C1945 C 0.13045 0.70819 0.7219 0.0
C1946 C 0.11467 0.66732 0.72341 0.0
C1947 C 0.08735 0.63844 0.68596 0.0
H1948 H 0.0978 0.59114 0.70184 0.0
C1949 C 0.05817 0.55349 0.65314 0.0
C1950 C 0.04856 0.53377 0.66239 0.0
C1951 C 0.06819 0.57491 0.66021 0.0
C1952 C 0.09457 0.60413 0.69734 0.0
H1953 H 0.13415 0.72126 0.69818 0.0
H1954 H 0.11918 0.68467 0.68534 0.0
H1955 H 0.11623 0.62823 0.71448 0.0
H1956 H 0.04162 0.52115 0.68633 0.0
H1957 H 0.05902 0.55841 0.6986 0.0
H1958 H 0.06585 0.61433 0.66873 0.0
C1959 C 0.12009 0.68533 0.69805 0.0
C1960 C 0.10511 0.6254 0.70461 0.0
C1961 C 0.12887 0.70639 0.70543 0.0
C1962 C 0.04886 0.53597 0.67884 0.0
C1963 C 0.05901 0.55734 0.68589 0.0
C1964 C 0.07695 0.61722 0.67864 0.0
C1965 C 0.11244 0.66544 0.70694 0.0
C1966 C 0.1016 0.64284 0.69905 0.0
C1967 C 0.06897 0.57707 0.67668 0.0
C1968 C 0.08034 0.59978 0.68429 0.0
H1969 H 0.12453 0.68923 0.74352 0.0
H1970 H 0.10878 0.65238 0.73067 0.0
H1971 H 0.08385 0.65126 0.68152 0.0
H1972 H 0.05828 0.5524 0.64044 0.0
H1973 H 0.07583 0.5898 0.65279 0.0
C1974 C 0.29694 0.41341 0.69601 0.0
C1975 C 0.29337 0.40993 0.7123 0.0
C1976 C 0.31873 0.4268 0.68994 0.0
C1977 C 0.37847 0.4472 0.69927 0.0
H1978 H 0.39006 0.4883 0.66449 0.0
C1979 C 0.46884 0.50731 0.676 0.0
C1980 C 0.4718 0.51146 0.65974 0.0
C1981 C 0.44716 0.49489 0.68247 0.0
C1982 C 0.38708 0.47667 0.67405 0.0
H1983 H 0.31001 0.4183 0.73501 0.0
H1984 H 0.34815 0.44173 0.72437 0.0
H1985 H 0.35229 0.46782 0.67595 0.0
H1986 H 0.45423 0.5053 0.63748 0.0
H1987 H 0.41639 0.48319 0.64872 0.0
H1988 H 0.41314 0.45577 0.69727 0.0
C1989 C 0.334 0.43391 0.71631 0.0
C1990 C 0.36542 0.46499 0.68068 0.0
C1991 C 0.31213 0.42062 0.72241 0.0
C1992 C 0.45256 0.50246 0.65006 0.0
C1993 C 0.43084 0.48994 0.65653 0.0
C1994 C 0.40011 0.45879 0.6926 0.0
C1995 C 0.33757 0.43696 0.69998 0.0
C1996 C 0.36084 0.45007 0.69334 0.0
C1997 C 0.42784 0.4862 0.67285 0.0
C1998 C 0.40471 0.47366 0.67988 0.0
H1999 H 0.28291 0.40548 0.68786 0.0
H2000 H 0.32086 0.42861 0.67731 0.0
H2001 H 0.37543 0.43556 0.70885 0.0
H2002 H 0.48327 0.51409 0.68383 0.0
H2003 H 0.44556 0.49263 0.69509 0.0
C2004 C 0.58626 0.87815 0.69678 0.0
C2005 C 0.58932 0.87913 0.71317 0.0
C2006 C 0.57313 0.88625 0.68982 0.0
C2007 C 0.55323 0.92671 0.69628 0.0
H2008 H 0.51216 0.8946 0.66198 0.0
C2009 C 0.49383 0.95574 0.66964 0.0
C2010 C 0.48917 0.95264 0.65344 0.0
C2011 C 0.50638 0.94718 0.6769 0.0
C2012 C 0.52381 0.90399 0.67138 0.0
H2013 H 0.58049 0.889 0.73513 0.0
H2014 H 0.55754 0.90326 0.72293 0.0
H2015 H 0.53218 0.87792 0.67503 0.0
H2016 H 0.49476 0.93874 0.63208 0.0
H2017 H 0.5172 0.92431 0.64467 0.0
H2018 H 0.5452 0.95296 0.69251 0.0
C2019 C 0.56546 0.89628 0.71548 0.0
C2020 C 0.5352 0.89434 0.67892 0.0
C2021 C 0.57846 0.88795 0.72248 0.0
C2022 C 0.49799 0.94137 0.64459 0.0
C2023 C 0.51067 0.93291 0.65185 0.0
C2024 C 0.54196 0.93645 0.68868 0.0
C2025 C 0.56284 0.89572 0.69905 0.0
C2026 C 0.55006 0.90559 0.69144 0.0
C2027 C 0.51475 0.93539 0.66816 0.0
C2028 C 0.5271 0.92523 0.6761 0.0
H2029 H 0.59433 0.87144 0.68924 0.0
H2030 H 0.57161 0.88573 0.67714 0.0
H2031 H 0.56484 0.93598 0.70573 0.0
H2032 H 0.4872 0.96422 0.67684 0.0
H2033 H 0.50889 0.94921 0.68949 0.0
C2034 C 0.22281 0.39214 0.21153 0.0
C2035 C 0.20348 0.38169 0.20192 0.0
C2036 C 0.24445 0.40081 0.20502 0.0
C2037 C 0.27554 0.42165 0.16761 0.0
H2038 H 0.32115 0.41279 0.18828 0.0
C2039 C 0.36224 0.4467 0.1388 0.0
C2040 C 0.3812 0.45494 0.14871 0.0
C2041 C 0.34051 0.4384 0.14511 0.0
C2042 C 0.30874 0.41574 0.18244 0.0
H2043 H 0.19177 0.37187 0.17796 0.0
H2044 H 0.22944 0.38691 0.16667 0.0
H2045 H 0.28352 0.39669 0.19978 0.0
H2046 H 0.39227 0.46187 0.173 0.0
H2047 H 0.35469 0.44803 0.18391 0.0
H2048 H 0.3008 0.44088 0.15035 0.0
C2049 C 0.22789 0.38859 0.1792 0.0
C2050 C 0.28713 0.40643 0.18904 0.0
C2051 C 0.20628 0.37981 0.18571 0.0
C2052 C 0.37803 0.45543 0.16501 0.0
C2053 C 0.3564 0.44731 0.1713 0.0
C2054 C 0.29721 0.43108 0.16105 0.0
C2055 C 0.24725 0.39936 0.18874 0.0
C2056 C 0.27025 0.40926 0.18171 0.0
C2057 C 0.33729 0.43828 0.16148 0.0
C2058 C 0.31413 0.42828 0.16839 0.0
H2059 H 0.22126 0.39393 0.22405 0.0
H2060 H 0.25902 0.40915 0.21268 0.0
H2061 H 0.263 0.4244 0.16178 0.0
H2062 H 0.36407 0.44599 0.1262 0.0
H2063 H 0.32619 0.43143 0.13719 0.0
C2064 C 0.53616 0.90958 0.1602 0.0
C2065 C 0.53625 0.91044 0.14369 0.0
C2066 C 0.54421 0.89701 0.16808 0.0
C2067 C 0.56061 0.85278 0.16245 0.0
H2068 H 0.59678 0.88026 0.19973 0.0
C2069 C 0.61698 0.82098 0.18997 0.0
C2070 C 0.6161 0.81838 0.2064 0.0
C2071 C 0.6068 0.83198 0.18265 0.0
C2072 C 0.58654 0.87225 0.18943 0.0
H2073 H 0.54425 0.89813 0.12251 0.0
H2074 H 0.5587 0.87656 0.13621 0.0
H2075 H 0.579 0.89892 0.18629 0.0
H2076 H 0.60426 0.82583 0.22804 0.0
H2077 H 0.58667 0.84532 0.21522 0.0
H2078 H 0.56863 0.82636 0.16546 0.0
C2079 C 0.55207 0.88531 0.14312 0.0
C2080 C 0.57625 0.8829 0.18173 0.0
C2081 C 0.54382 0.89774 0.13523 0.0
C2082 C 0.60529 0.82759 0.21537 0.0
C2083 C 0.59525 0.83878 0.20803 0.0
C2084 C 0.57105 0.84223 0.17008 0.0
C2085 C 0.55277 0.88512 0.15967 0.0
C2086 C 0.56317 0.87335 0.1681 0.0
C2087 C 0.59562 0.84082 0.19156 0.0
C2088 C 0.58421 0.85188 0.18363 0.0
H2089 H 0.53026 0.919 0.1671 0.0
H2090 H 0.54394 0.89685 0.18081 0.0
H2091 H 0.55039 0.8447 0.15216 0.0
H2092 H 0.62516 0.8141 0.18269 0.0
H2093 H 0.60769 0.83358 0.16997 0.0
C2094 C 0.16766 0.79585 0.19125 0.0
C2095 C 0.17966 0.79978 0.20539 0.0
C2096 C 0.1562 0.77417 0.18466 0.0
C2097 C 0.13529 0.71315 0.19344 0.0
H2098 H 0.13349 0.70869 0.14798 0.0
C2099 C 0.07787 0.62887 0.16149 0.0
C2100 C 0.08449 0.62465 0.14679 0.0
C2101 C 0.09068 0.64973 0.16899 0.0
C2102 C 0.13409 0.70951 0.16069 0.0
H2103 H 0.18885 0.78397 0.22382 0.0
H2104 H 0.16952 0.74629 0.21212 0.0
H2105 H 0.15321 0.74565 0.16037 0.0
H2106 H 0.11036 0.63883 0.12875 0.0
H2107 H 0.13325 0.67498 0.14213 0.0
H2108 H 0.11701 0.67696 0.19375 0.0
C2109 C 0.16841 0.75978 0.20626 0.0
C2110 C 0.14508 0.73084 0.16784 0.0
C2111 C 0.17958 0.78144 0.21298 0.0
C2112 C 0.10471 0.64157 0.14003 0.0
C2113 C 0.11773 0.6624 0.14765 0.0
C2114 C 0.12457 0.6918 0.18629 0.0
C2115 C 0.15677 0.75588 0.19189 0.0
C2116 C 0.14559 0.73301 0.18432 0.0
C2117 C 0.1107 0.66691 0.16214 0.0
C2118 C 0.12353 0.68965 0.1698 0.0
H2119 H 0.16727 0.80961 0.18516 0.0
H2120 H 0.14696 0.77183 0.17383 0.0
H2121 H 0.13512 0.71401 0.20614 0.0
H2122 H 0.06233 0.61632 0.16702 0.0
H2123 H 0.08439 0.65256 0.17996 0.0
C2124 C 0.37272 0.24878 0.08138 0.0
C2125 C 0.35283 0.24882 0.07713 0.0
C2126 C 0.39206 0.26905 0.0858 0.0
C2127 C 0.41852 0.33105 0.08331 0.0
H2128 H 0.43755 0.33316 0.12651 0.0
C2129 C 0.46673 0.41619 0.11261 0.0
C2130 C 0.45647 0.41714 0.12666 0.0
C2131 C 0.46313 0.39547 0.10683 0.0
C2132 C 0.43265 0.33284 0.11437 0.0
H2133 H 0.33769 0.2698 0.07336 0.0
H2134 H 0.37144 0.30507 0.08047 0.0
H2135 H 0.41318 0.29652 0.11391 0.0
H2136 H 0.43592 0.39778 0.14636 0.0
H2137 H 0.4289 0.36135 0.13609 0.0
H2138 H 0.43628 0.36706 0.08391 0.0
C2139 C 0.37221 0.28957 0.08055 0.0
C2140 C 0.4189 0.31187 0.10712 0.0
C2141 C 0.35288 0.2694 0.07653 0.0
C2142 C 0.44426 0.39742 0.1356 0.0
C2143 C 0.44026 0.37656 0.12967 0.0
C2144 C 0.43225 0.35191 0.09049 0.0
C2145 C 0.39182 0.28957 0.08558 0.0
C2146 C 0.41091 0.31087 0.09176 0.0
C2147 C 0.44859 0.37522 0.11476 0.0
C2148 C 0.43872 0.35313 0.10633 0.0
H2149 H 0.37291 0.233 0.08209 0.0
H2150 H 0.40698 0.26866 0.08968 0.0
H2151 H 0.41266 0.33072 0.07143 0.0
H2152 H 0.47617 0.43127 0.10551 0.0
H2153 H 0.47028 0.39515 0.09552 0.0
C2154 C 0.58356 0.04103 0.11532 0.0
C2155 C 0.58359 0.02103 0.11925 0.0
C2156 C 0.60386 0.06054 0.11119 0.0
C2157 C 0.66584 0.08695 0.11379 0.0
H2158 H 0.66805 0.10665 0.07076 0.0
C2159 C 0.75085 0.13434 0.08438 0.0
C2160 C 0.75147 0.124 0.07028 0.0
C2161 C 0.73033 0.13115 0.09024 0.0
C2162 C 0.66771 0.10157 0.08285 0.0
H2163 H 0.60453 0.00581 0.12279 0.0
H2164 H 0.63987 0.03984 0.1162 0.0
H2165 H 0.63141 0.08229 0.08331 0.0
H2166 H 0.73178 0.10376 0.05058 0.0
H2167 H 0.6957 0.09744 0.06097 0.0
H2168 H 0.70182 0.10447 0.11316 0.0
C2169 C 0.62436 0.04059 0.11615 0.0
C2170 C 0.64673 0.08783 0.09009 0.0
C2171 C 0.60416 0.0211 0.11987 0.0
C2172 C 0.73167 0.11216 0.06137 0.0
C2173 C 0.71101 0.10857 0.06738 0.0
C2174 C 0.68671 0.10066 0.10663 0.0
C2175 C 0.62439 0.06033 0.1114 0.0
C2176 C 0.6457 0.07957 0.10537 0.0
C2177 C 0.70996 0.11694 0.08234 0.0
C2178 C 0.68796 0.10734 0.09083 0.0
H2179 H 0.56778 0.0412 0.11458 0.0
H2180 H 0.60349 0.07556 0.10751 0.0
H2181 H 0.66547 0.08088 0.12561 0.0
H2182 H 0.76598 0.14349 0.09146 0.0
H2183 H 0.73023 0.13833 0.10159 0.0
C2184 C 0.86689 0.61794 0.07843 0.0
C2185 C 0.87927 0.63036 0.0653 0.0
C2186 C 0.86926 0.60001 0.08407 0.0
C2187 C 0.90029 0.56797 0.0779 0.0
H2188 H 0.91478 0.58239 0.12198 0.0
C2189 C 0.95709 0.54219 0.11312 0.0
C2190 C 0.97626 0.56189 0.11856 0.0
C2191 C 0.93802 0.54313 0.10798 0.0
C2192 C 0.91043 0.5778 0.10976 0.0
H2193 H 0.90238 0.63291 0.04695 0.0
H2194 H 0.9072 0.60206 0.05699 0.0
H2195 H 0.89263 0.59601 0.10844 0.0
H2196 H 0.99032 0.59752 0.12372 0.0
H2197 H 0.95697 0.59902 0.11535 0.0
H2198 H 0.91986 0.55125 0.07917 0.0
C2199 C 0.89513 0.60558 0.06277 0.0
C2200 C 0.89754 0.58544 0.10197 0.0
C2201 C 0.8924 0.62328 0.05697 0.0
C2202 C 0.97567 0.58211 0.11964 0.0
C2203 C 0.95656 0.58292 0.1149 0.0
C2204 C 0.91319 0.56024 0.08576 0.0
C2205 C 0.88464 0.59466 0.07695 0.0
C2206 C 0.89316 0.58153 0.08575 0.0
C2207 C 0.93777 0.56362 0.10864 0.0
C2208 C 0.91925 0.56604 0.10158 0.0
H2209 H 0.85676 0.62326 0.08506 0.0
H2210 H 0.86049 0.5916 0.09477 0.0
H2211 H 0.89697 0.5644 0.06547 0.0
H2212 H 0.95736 0.52648 0.11201 0.0
H2213 H 0.92375 0.52806 0.10314 0.0
C2214 C 0.25935 0.36281 0.43028 0.0
C2215 C 0.24853 0.36096 0.44472 0.0
C2216 C 0.27957 0.38221 0.42655 0.0
C2217 C 0.32146 0.42516 0.41871 0.0
H2218 H 0.36393 0.44302 0.4532 0.0
C2219 C 0.41557 0.45746 0.4065 0.0
C2220 C 0.42389 0.44609 0.4157 0.0
C2221 C 0.39553 0.45716 0.41081 0.0
C2222 C 0.35231 0.4383 0.4434 0.0
H2223 H 0.24962 0.37882 0.46608 0.0
H2224 H 0.28524 0.41316 0.45948 0.0
H2225 H 0.32367 0.42276 0.45865 0.0
H2226 H 0.41847 0.42677 0.43716 0.0
H2227 H 0.38381 0.42562 0.44426 0.0
H2228 H 0.35003 0.43827 0.40337 0.0
C2229 C 0.27812 0.39928 0.45116 0.0
C2230 C 0.32911 0.42696 0.44656 0.0
C2231 C 0.2577 0.37966 0.45494 0.0
C2232 C 0.41249 0.43552 0.42965 0.0
C2233 C 0.39263 0.43518 0.43391 0.0
C2234 C 0.34465 0.436 0.41553 0.0
C2235 C 0.28965 0.40052 0.43709 0.0
C2236 C 0.31338 0.41886 0.43418 0.0
C2237 C 0.38353 0.44554 0.42441 0.0
C2238 C 0.36027 0.44129 0.42781 0.0
H2239 H 0.25264 0.34887 0.422 0.0
H2240 H 0.28794 0.38212 0.41575 0.0
H2241 H 0.30983 0.42003 0.40889 0.0
H2242 H 0.4241 0.46593 0.39575 0.0
H2243 H 0.38914 0.46551 0.40328 0.0
C2244 C 0.54638 0.96183 0.41148 0.0
C2245 C 0.56649 0.98143 0.40717 0.0
C2246 C 0.54672 0.94197 0.41532 0.0
C2247 C 0.58163 0.91444 0.41246 0.0
H2248 H 0.56485 0.89655 0.45585 0.0
C2249 C 0.62204 0.87085 0.44364 0.0
C2250 C 0.6327 0.88212 0.45756 0.0
C2251 C 0.60422 0.87295 0.43743 0.0
C2252 C 0.56939 0.90111 0.44365 0.0
H2253 H 0.60224 0.99558 0.40255 0.0
H2254 H 0.60277 0.96099 0.40868 0.0
H2255 H 0.5521 0.92013 0.44275 0.0
H2256 H 0.63245 0.90308 0.47654 0.0
H2257 H 0.60184 0.90746 0.46557 0.0
H2258 H 0.60053 0.89734 0.41357 0.0
C2259 C 0.58677 0.96075 0.40922 0.0
C2260 C 0.56187 0.9144 0.43611 0.0
C2261 C 0.58653 0.98058 0.40577 0.0
C2262 C 0.62415 0.89395 0.46591 0.0
C2263 C 0.60656 0.8964 0.45958 0.0
C2264 C 0.58914 0.90122 0.41996 0.0
C2265 C 0.56706 0.94144 0.41447 0.0
C2266 C 0.56894 0.92215 0.42071 0.0
C2267 C 0.59726 0.88696 0.44481 0.0
C2268 C 0.58409 0.89535 0.43591 0.0
H2269 H 0.53081 0.96228 0.41281 0.0
H2270 H 0.53133 0.92732 0.4194 0.0
H2271 H 0.58715 0.92004 0.40053 0.0
H2272 H 0.62856 0.86177 0.43698 0.0
H2273 H 0.59712 0.86503 0.42623 0.0
C2274 C 0.12884 0.75598 0.43803 0.0
C2275 C 0.12225 0.75828 0.45323 0.0
C2276 C 0.12624 0.73532 0.43301 0.0
C2277 C 0.10672 0.67556 0.44545 0.0
H2278 H 0.07595 0.66202 0.40524 0.0
C2279 C 0.03035 0.59048 0.43 0.0
C2280 C 0.02594 0.58295 0.41434 0.0
C2281 C 0.04971 0.61075 0.43386 0.0
C2282 C 0.085 0.6655 0.41627 0.0
H2283 H 0.10936 0.74156 0.47553 0.0
H2284 H 0.10388 0.70504 0.46666 0.0
H2285 H 0.09711 0.70084 0.41413 0.0
H2286 H 0.03914 0.58988 0.39059 0.0
H2287 H 0.07312 0.62578 0.39733 0.0
H2288 H 0.09309 0.63976 0.44791 0.0
C2289 C 0.11166 0.71927 0.45867 0.0
C2290 C 0.09723 0.68789 0.42142 0.0
C2291 C 0.11475 0.74018 0.46379 0.0
C2292 C 0.04208 0.59536 0.40274 0.0
C2293 C 0.06145 0.61589 0.4066 0.0
C2294 C 0.09436 0.65308 0.4403 0.0
C2295 C 0.11632 0.71632 0.44295 0.0
C2296 C 0.10755 0.69316 0.43634 0.0
C2297 C 0.06509 0.62412 0.42214 0.0
C2298 C 0.08263 0.64776 0.42592 0.0
H2299 H 0.13479 0.76984 0.42971 0.0
H2300 H 0.13064 0.73388 0.421 0.0
H2301 H 0.11481 0.67902 0.45686 0.0
H2302 H 0.01834 0.58112 0.43924 0.0
H2303 H 0.05179 0.61664 0.44591 0.0
C2304 C 0.55555 0.59495 0.9047 0.0
C2305 C 0.55998 0.58327 0.91647 0.0
C2306 C 0.55622 0.61539 0.90822 0.0
C2307 C 0.56063 0.65367 0.94129 0.0
H2308 H 0.60466 0.70061 0.91417 0.0
C2309 C 0.62802 0.74109 0.96326 0.0
C2310 C 0.63845 0.75886 0.95243 0.0
C2311 C 0.60991 0.72018 0.95851 0.0
C2312 C 0.59185 0.68789 0.92173 0.0
H2313 H 0.56644 0.58256 0.94137 0.0
H2314 H 0.56765 0.61791 0.94745 0.0
H2315 H 0.58705 0.66153 0.9059 0.0
H2316 H 0.63682 0.76992 0.92888 0.0
H2317 H 0.60453 0.73397 0.92083 0.0
H2318 H 0.5664 0.68012 0.9575 0.0
C2319 C 0.56368 0.61153 0.93553 0.0
C2320 C 0.58171 0.66535 0.91693 0.0
C2321 C 0.56326 0.59137 0.93199 0.0
C2322 C 0.62908 0.75631 0.93738 0.0
C2323 C 0.61074 0.73565 0.93275 0.0
C2324 C 0.57073 0.6763 0.94609 0.0
C2325 C 0.561 0.62423 0.9236 0.0
C2326 C 0.56677 0.64791 0.92694 0.0
C2327 C 0.60182 0.71691 0.94293 0.0
C2328 C 0.5872 0.69362 0.93664 0.0
H2329 H 0.55288 0.58902 0.89265 0.0
H2330 H 0.55394 0.62475 0.8988 0.0
H2331 H 0.54889 0.64058 0.94917 0.0
H2332 H 0.63512 0.74267 0.97489 0.0
H2333 H 0.6036 0.70616 0.96668 0.0
C2334 C 0.27391 0.89162 0.96632 0.0
C2335 C 0.25364 0.8799 0.9579 0.0
C2336 C 0.29422 0.89523 0.95962 0.0
C2337 C 0.31679 0.90345 0.91977 0.0
H2338 H 0.37282 0.92076 0.94182 0.0
C2339 C 0.39927 0.98262 0.90579 0.0
C2340 C 0.41985 0.98268 0.90627 0.0
C2341 C 0.37909 0.9631 0.90949 0.0
C2342 C 0.35729 0.91552 0.93538 0.0
H2343 H 0.23798 0.86093 0.93674 0.0
H2344 H 0.27315 0.8662 0.92533 0.0
H2345 H 0.33661 0.89657 0.95491 0.0
H2346 H 0.43565 0.96242 0.91058 0.0
H2347 H 0.39999 0.92799 0.91759 0.0
H2348 H 0.33742 0.92331 0.90059 0.0
C2349 C 0.27367 0.87317 0.93687 0.0
C2350 C 0.33655 0.90188 0.94293 0.0
C2351 C 0.25349 0.86991 0.94345 0.0
C2352 C 0.41988 0.96261 0.90996 0.0
C2353 C 0.39959 0.94306 0.91405 0.0
C2354 C 0.33743 0.91705 0.91228 0.0
C2355 C 0.29445 0.88708 0.94442 0.0
C2356 C 0.31607 0.89653 0.93545 0.0
C2357 C 0.37907 0.94329 0.91406 0.0
C2358 C 0.35786 0.92409 0.92027 0.0
H2359 H 0.27438 0.89977 0.97736 0.0
H2360 H 0.30985 0.90616 0.96575 0.0
H2361 H 0.30148 0.89994 0.91362 0.0
H2362 H 0.39889 0.99796 0.90305 0.0
H2363 H 0.36361 0.9639 0.90961 0.0
C2364 C 0.11545 0.36792 0.93456 0.0
C2365 C 0.11628 0.36059 0.94985 0.0
C2366 C 0.11384 0.38729 0.93218 0.0
C2367 C 0.08714 0.41476 0.95161 0.0
H2368 H 0.10662 0.45268 0.91442 0.0
C2369 C 0.03606 0.4549 0.93157 0.0
C2370 C 0.03028 0.4516 0.91558 0.0
C2371 C 0.05431 0.45307 0.93712 0.0
C2372 C 0.10104 0.44226 0.92488 0.0
H2373 H 0.11807 0.3688 0.97459 0.0
H2374 H 0.11495 0.40277 0.97044 0.0
H2375 H 0.12633 0.43255 0.92225 0.0
H2376 H 0.03975 0.44536 0.89265 0.0
H2377 H 0.07108 0.44102 0.90236 0.0
H2378 H 0.06091 0.42287 0.95373 0.0
C2379 C 0.1155 0.39341 0.96031 0.0
C2380 C 0.11242 0.43084 0.92941 0.0
C2381 C 0.11738 0.37406 0.96269 0.0
C2382 C 0.04402 0.44809 0.90502 0.0
C2383 C 0.06203 0.44569 0.91063 0.0
C2384 C 0.0757 0.426 0.94704 0.0
C2385 C 0.1128 0.39968 0.94504 0.0
C2386 C 0.105 0.41626 0.94248 0.0
C2387 C 0.06674 0.44716 0.92687 0.0
C2388 C 0.08193 0.43923 0.93328 0.0
H2389 H 0.11482 0.35798 0.92443 0.0
H2390 H 0.11161 0.39148 0.92028 0.0
H2391 H 0.08075 0.40342 0.96159 0.0
H2392 H 0.02578 0.45787 0.9399 0.0
H2393 H 0.05785 0.45502 0.9496 0.0
C2394 C 0.73166 0.64412 0.56931 0.0
C2395 C 0.75252 0.64516 0.57142 0.0
C2396 C 0.71162 0.62473 0.57349 0.0
C2397 C 0.69061 0.58139 0.60299 0.0
H2398 H 0.6345 0.5615 0.58039 0.0
C2399 C 0.60711 0.56064 0.6323 0.0
C2400 C 0.58684 0.54753 0.62412 0.0
C2401 C 0.62748 0.56353 0.62622 0.0
C2402 C 0.64991 0.56624 0.58684 0.0
H2403 H 0.76908 0.62679 0.57911 0.0
H2404 H 0.7337 0.59264 0.58687 0.0
H2405 H 0.67028 0.58344 0.56683 0.0
H2406 H 0.57127 0.52541 0.6042 0.0
H2407 H 0.60656 0.52945 0.59397 0.0
H2408 H 0.67019 0.56509 0.62324 0.0
C2409 C 0.73292 0.60676 0.58169 0.0
C2410 C 0.67047 0.57902 0.57903 0.0
C2411 C 0.75306 0.62612 0.57716 0.0
C2412 C 0.58677 0.53547 0.61074 0.0
C2413 C 0.60702 0.53803 0.6048 0.0
C2414 C 0.66998 0.56856 0.61084 0.0
C2415 C 0.71205 0.60611 0.5802 0.0
C2416 C 0.69099 0.58763 0.5872 0.0
C2417 C 0.62778 0.55325 0.6119 0.0
C2418 C 0.64938 0.56171 0.60303 0.0
H2419 H 0.73094 0.65875 0.56508 0.0
H2420 H 0.69588 0.62491 0.57242 0.0
H2421 H 0.7062 0.58786 0.6096 0.0
H2422 H 0.60753 0.5704 0.64249 0.0
H2423 H 0.64309 0.5755 0.63198 0.0
C2424 C 0.37796 0.11284 0.56369 0.0
C2425 C 0.36962 0.12403 0.57303 0.0
C2426 C 0.39507 0.10913 0.56945 0.0
C2427 C 0.41123 0.09957 0.60833 0.0
H2428 H 0.44924 0.08318 0.58425 0.0
C2429 C 0.4164 0.02065 0.61988 0.0
C2430 C 0.43725 0.02127 0.61942 0.0
C2431 C 0.41508 0.03989 0.61635 0.0
C2432 C 0.43913 0.08815 0.59123 0.0
H2433 H 0.37401 0.14233 0.59472 0.0
H2434 H 0.40468 0.13701 0.60443 0.0
H2435 H 0.43634 0.10754 0.5724 0.0
H2436 H 0.47319 0.04239 0.61519 0.0
H2437 H 0.47078 0.07634 0.60845 0.0
H2438 H 0.41301 0.07926 0.6268 0.0
C2439 C 0.39763 0.13038 0.59295 0.0
C2440 C 0.43155 0.10189 0.58441 0.0
C2441 C 0.38026 0.13366 0.58734 0.0
C2442 C 0.45698 0.04168 0.61579 0.0
C2443 C 0.45558 0.06096 0.61185 0.0
C2444 C 0.41873 0.08587 0.61508 0.0
C2445 C 0.40418 0.11676 0.58457 0.0
C2446 C 0.41673 0.10698 0.59267 0.0
C2447 C 0.43453 0.06009 0.61197 0.0
C2448 C 0.43192 0.07922 0.60637 0.0
H2449 H 0.36974 0.10502 0.55271 0.0
H2450 H 0.39956 0.09849 0.56268 0.0
H2451 H 0.39966 0.10282 0.61506 0.0
H2452 H 0.40097 0.00505 0.62258 0.0
H2453 H 0.39861 0.03865 0.61633 0.0
C2454 C 0.95913 0.39951 0.63435 0.0
C2455 C 0.96583 0.41995 0.62652 0.0
C2456 C 0.94105 0.37934 0.62859 0.0
C2457 C 0.91816 0.35768 0.58964 0.0
H2458 H 0.88585 0.301 0.61234 0.0
C2459 C 0.91467 0.2769 0.56986 0.0
C2460 C 0.89541 0.25577 0.57247 0.0
C2461 C 0.91506 0.2967 0.5745 0.0
C2462 C 0.89426 0.31669 0.60577 0.0
H2463 H 0.95794 0.43606 0.60762 0.0
H2464 H 0.92566 0.40109 0.598 0.0
H2465 H 0.89977 0.33679 0.62645 0.0
H2466 H 0.86116 0.23848 0.5815 0.0
H2467 H 0.86199 0.27343 0.59009 0.0
H2468 H 0.91364 0.33763 0.56914 0.0
C2469 C 0.93458 0.40035 0.6083 0.0
C2470 C 0.90247 0.3372 0.61388 0.0
C2471 C 0.95286 0.42041 0.61391 0.0
C2472 C 0.87607 0.25471 0.57916 0.0
C2473 C 0.87661 0.27461 0.58417 0.0
C2474 C 0.90997 0.33724 0.58157 0.0
C2475 C 0.9294 0.37939 0.61492 0.0
C2476 C 0.91549 0.35795 0.60604 0.0
C2477 C 0.89634 0.29575 0.58218 0.0
C2478 C 0.89896 0.31658 0.58968 0.0
H2479 H 0.96921 0.39878 0.64393 0.0
H2480 H 0.93774 0.36358 0.63397 0.0
H2481 H 0.92822 0.3732 0.58314 0.0
H2482 H 0.92983 0.27804 0.56486 0.0
H2483 H 0.93063 0.31266 0.57302 0.0
C2484 C 0.9236 0.70758 0.78727 0.0
C2485 C 0.91555 0.68795 0.77801 0.0
C2486 C 0.94381 0.72728 0.78325 0.0
C2487 C 0.98807 0.75171 0.75134 0.0
H2488 H 0.02939 0.77611 0.78648 0.0
C2489 C 0.08098 0.77006 0.76605 0.0
C2490 C 0.09208 0.77892 0.7517 0.0
C2491 C 0.06057 0.76908 0.76945 0.0
C2492 C 0.01809 0.76955 0.77649 0.0
H2493 H 0.92173 0.6741 0.75678 0.0
H2494 H 0.95669 0.70753 0.75019 0.0
H2495 H 0.98904 0.7539 0.79139 0.0
H2496 H 0.09133 0.79544 0.73015 0.0
H2497 H 0.05544 0.79397 0.73618 0.0
H2498 H 0.01719 0.76502 0.73655 0.0
C2499 C 0.9475 0.70826 0.76035 0.0
C2500 C 0.99481 0.75706 0.77931 0.0
C2501 C 0.92747 0.68879 0.76431 0.0
C2502 C 0.08304 0.78829 0.74124 0.0
C2503 C 0.06244 0.78736 0.74469 0.0
C2504 C 0.01136 0.76371 0.74854 0.0
C2505 C 0.95627 0.72767 0.76989 0.0
C2506 C 0.97962 0.74669 0.76681 0.0
C2507 C 0.0506 0.77709 0.75866 0.0
C2508 C 0.02669 0.77144 0.76116 0.0
H2509 H 0.91469 0.70754 0.79783 0.0
H2510 H 0.94993 0.74198 0.7908 0.0
H2511 H 0.97678 0.74478 0.74137 0.0
H2512 H 0.08759 0.76296 0.77451 0.0
H2513 H 0.05199 0.76067 0.7802 0.0
C2514 C 0.22859 0.28985 0.7251 0.0
C2515 C 0.21542 0.29704 0.73323 0.0
C2516 C 0.23155 0.27245 0.73124 0.0
C2517 C 0.23422 0.25325 0.77078 0.0
H2518 H 0.25741 0.21953 0.74835 0.0
C2519 C 0.31357 0.25251 0.78849 0.0
C2520 C 0.31536 0.23303 0.78669 0.0
C2521 C 0.29379 0.25235 0.7842 0.0
C2522 C 0.25049 0.22837 0.75487 0.0
H2523 H 0.19311 0.29049 0.75305 0.0
H2524 H 0.19721 0.25932 0.76335 0.0
H2525 H 0.23397 0.2318 0.73449 0.0
H2526 H 0.29791 0.19787 0.77949 0.0
H2527 H 0.26311 0.1977 0.7715 0.0
H2528 H 0.25165 0.25081 0.7909 0.0
C2529 C 0.20586 0.26742 0.75254 0.0
C2530 C 0.23728 0.23562 0.74689 0.0
C2531 C 0.20327 0.28506 0.74657 0.0
C2532 C 0.29669 0.21299 0.78117 0.0
C2533 C 0.27694 0.21295 0.77651 0.0
C2534 C 0.24736 0.24602 0.7787 0.0
C2535 C 0.22124 0.26195 0.74556 0.0
C2536 C 0.2299 0.24909 0.75457 0.0
C2537 C 0.27553 0.23281 0.77771 0.0
C2538 C 0.25657 0.23451 0.77064 0.0
H2539 H 0.2384 0.29916 0.71494 0.0
H2540 H 0.24363 0.26886 0.72555 0.0
H2541 H 0.22908 0.26372 0.77714 0.0
H2542 H 0.32786 0.26818 0.7926 0.0
H2543 H 0.29337 0.268 0.78505 0.0
C2544 C 0.71017 0.91835 0.75364 0.0
C2545 C 0.70103 0.91604 0.73854 0.0
C2546 C 0.72828 0.939 0.75854 0.0
C2547 C 0.76843 0.99864 0.74586 0.0
H2548 H 0.75278 0.01248 0.78662 0.0
C2549 C 0.77903 0.08438 0.7624 0.0
C2550 C 0.78282 0.09181 0.77809 0.0
C2551 C 0.77762 0.06394 0.75822 0.0
C2552 C 0.75791 0.0089 0.77542 0.0
H2553 H 0.70442 0.93276 0.71631 0.0
H2554 H 0.73555 0.96926 0.72498 0.0
H2555 H 0.73443 0.97365 0.77764 0.0
H2556 H 0.78973 0.0845 0.80154 0.0
H2557 H 0.78693 0.04831 0.79425 0.0
H2558 H 0.79085 0.03437 0.74336 0.0
C2559 C 0.72926 0.95504 0.73298 0.0
C2560 C 0.74734 0.98651 0.77021 0.0
C2561 C 0.71139 0.93414 0.72796 0.0
C2562 C 0.78671 0.07912 0.78937 0.0
C2563 C 0.78503 0.05841 0.7852 0.0
C2564 C 0.77894 0.02112 0.75106 0.0
C2565 C 0.73719 0.95799 0.74859 0.0
C2566 C 0.75184 0.98114 0.75513 0.0
C2567 C 0.77977 0.0503 0.76966 0.0
C2568 C 0.77313 0.02655 0.76566 0.0
H2569 H 0.70246 0.9045 0.76197 0.0
H2570 H 0.73437 0.94042 0.77047 0.0
H2571 H 0.77265 0.9951 0.73432 0.0
H2572 H 0.77622 0.09395 0.75341 0.0
H2573 H 0.77332 0.05816 0.74619 0.0
C2574 C 0.22648 0.93603 0.23068 0.0
C2575 C 0.21451 0.9161 0.23944 0.0
C2576 C 0.2294 0.9565 0.23658 0.0
C2577 C 0.23548 0.98061 0.27569 0.0
H2578 H 0.25385 0.03571 0.25207 0.0
C2579 C 0.31443 0.06356 0.28908 0.0
C2580 C 0.31458 0.08415 0.2879 0.0
C2581 C 0.29496 0.04325 0.28552 0.0
C2582 C 0.2483 0.02045 0.25893 0.0
H2583 H 0.19436 0.90115 0.26029 0.0
H2584 H 0.19847 0.93662 0.27027 0.0
H2585 H 0.23012 0.99893 0.23952 0.0
H2586 H 0.29458 0.09987 0.28242 0.0
H2587 H 0.26027 0.06396 0.27563 0.0
H2588 H 0.25466 0.00207 0.29477 0.0
C2589 C 0.20611 0.93674 0.25908 0.0
C2590 C 0.23491 0.99939 0.2517 0.0
C2591 C 0.20352 0.91638 0.2533 0.0
C2592 C 0.29467 0.08409 0.2836 0.0
C2593 C 0.27519 0.06366 0.27964 0.0
C2594 C 0.24884 0.00158 0.28286 0.0
C2595 C 0.22031 0.95726 0.25131 0.0
C2596 C 0.22922 0.97922 0.25979 0.0
C2597 C 0.27533 0.04311 0.28036 0.0
C2598 C 0.25627 0.02166 0.27432 0.0
H2599 H 0.23542 0.93618 0.2201 0.0
H2600 H 0.24057 0.97193 0.2303 0.0
H2601 H 0.23169 0.96556 0.28231 0.0
H2602 H 0.32966 0.06326 0.29228 0.0
H2603 H 0.29569 0.02773 0.28597 0.0
C2604 C 0.92853 0.22175 0.29126 0.0
C2605 C 0.9161 0.2254 0.27964 0.0
C2606 C 0.94897 0.22265 0.28738 0.0
C2607 C 0.98595 0.22649 0.25357 0.0
H2608 H 0.03366 0.27209 0.27941 0.0
C2609 C 0.07182 0.29419 0.22945 0.0
C2610 C 0.09006 0.30515 0.23986 0.0
C2611 C 0.05127 0.27607 0.23472 0.0
C2612 C 0.02074 0.25887 0.27221 0.0
H2613 H 0.91403 0.23065 0.2547 0.0
H2614 H 0.94935 0.23226 0.24799 0.0
H2615 H 0.99498 0.25415 0.28856 0.0
H2616 H 0.10231 0.30453 0.26319 0.0
H2617 H 0.06698 0.27222 0.27215 0.0
H2618 H 0.01177 0.23218 0.23682 0.0
C2619 C 0.94358 0.22873 0.26006 0.0
C2620 C 0.99843 0.24853 0.27752 0.0
C2621 C 0.92343 0.22808 0.26395 0.0
C2622 C 0.08832 0.29634 0.25501 0.0
C2623 C 0.06803 0.27799 0.26017 0.0
C2624 C 0.00835 0.2368 0.24826 0.0
C2625 C 0.95704 0.22689 0.27179 0.0
C2626 C 0.98068 0.23298 0.26796 0.0
C2627 C 0.04884 0.26852 0.25041 0.0
C2628 C 0.02592 0.25382 0.25724 0.0
H2629 H 0.9232 0.21955 0.30344 0.0
H2630 H 0.95892 0.22101 0.29665 0.0
H2631 H 0.97263 0.21429 0.24604 0.0
H2632 H 0.07277 0.30089 0.21776 0.0
H2633 H 0.03687 0.26932 0.22688 0.0
C2634 C 0.78415 0.7098 0.29238 0.0
C2635 C 0.78067 0.69416 0.28043 0.0
C2636 C 0.78269 0.72917 0.28902 0.0
C2637 C 0.77717 0.7627 0.25619 0.0
H2638 H 0.73189 0.76335 0.28335 0.0
C2639 C 0.70795 0.78051 0.2346 0.0
C2640 C 0.69708 0.78724 0.24555 0.0
C2641 C 0.72641 0.7782 0.23925 0.0
C2642 C 0.74501 0.76406 0.27579 0.0
H2643 H 0.77516 0.68755 0.25541 0.0
H2644 H 0.77253 0.72096 0.24962 0.0
H2645 H 0.75063 0.74285 0.29139 0.0
H2646 H 0.69822 0.79933 0.26925 0.0
H2647 H 0.73107 0.79652 0.27714 0.0
H2648 H 0.77058 0.78301 0.2402 0.0
C2649 C 0.77637 0.7185 0.26155 0.0
C2650 C 0.75581 0.75222 0.28046 0.0
C2651 C 0.77761 0.69915 0.26492 0.0
C2652 C 0.70631 0.79394 0.26065 0.0
C2653 C 0.72498 0.79211 0.26519 0.0
C2654 C 0.76639 0.77465 0.25153 0.0
C2655 C 0.77801 0.7333 0.27364 0.0
C2656 C 0.77129 0.75057 0.27043 0.0
C2657 C 0.73438 0.78289 0.25486 0.0
C2658 C 0.74949 0.7747 0.261 0.0
H2659 H 0.78664 0.7064 0.30443 0.0
H2660 H 0.78422 0.74039 0.29857 0.0
H2661 H 0.7893 0.76202 0.2483 0.0
H2662 H 0.70096 0.77506 0.22294 0.0
H2663 H 0.7331 0.77094 0.23097 0.0
loop_
_geom_bond_atom_site_label_1
_geom_bond_atom_site_label_2
_geom_bond_distance
_geom_bond_site_symmetry_2
_ccdc_geom_bond_type
O0 Cd1 2.223 . S
O0 C8 1.315 . S
Cd1 O0 2.223 . S
Cd1 O4 2.297 . S
Cd1 O5 2.439 . S
Cd1 O11 2.240 . S
Cd2 O3 2.240 . S
Cd2 O10 2.223 . S
Cd2 O12 2.297 . S
Cd2 O13 2.439 . S
O3 Cd2 2.240 . S
O3 C8 1.279 . S
O4 Cd1 2.297 . S
O4 C6 1.247 . S
O5 Cd1 2.439 . S
O5 C6 1.208 . S
C6 O4 1.247 . S
C6 O5 1.208 . S
C7 O12 1.247 . S
C7 O13 1.208 . S
C8 O0 1.315 . S
C8 O3 1.279 . S
C9 O10 1.315 . S
C9 O11 1.279 . S
O10 Cd2 2.223 . S
O10 C9 1.315 . S
O11 Cd1 2.240 . S
O11 C9 1.279 . S
O12 Cd2 2.297 . S
O12 C7 1.247 . S
O13 Cd2 2.439 . S
O13 C7 1.208 . S
O14 Cd15 2.223 . S
O14 C22 1.315 . S
Cd15 O14 2.223 . S
Cd15 O18 2.297 . S
Cd15 O19 2.439 . S
Cd15 O25 2.240 . S
Cd16 O17 2.240 . S
Cd16 O24 2.223 . S
Cd16 O26 2.297 . S
Cd16 O27 2.439 . S
O17 Cd16 2.240 . S
O17 C22 1.279 . S
O18 Cd15 2.297 . S
O18 C20 1.247 . S
O19 Cd15 2.439 . S
O19 C20 1.208 . S
C20 O18 1.247 . S
C20 O19 1.208 . S
C21 O26 1.247 . S
C21 O27 1.208 . S
C22 O14 1.315 . S
C22 O17 1.279 . S
C23 O24 1.315 . S
C23 O25 1.279 . S
O24 Cd16 2.223 . S
O24 C23 1.315 . S
O25 Cd15 2.240 . S
O25 C23 1.279 . S
O26 Cd16 2.297 . S
O26 C21 1.247 . S
O27 Cd16 2.439 . S
O27 C21 1.208 . S
O28 Cd29 2.223 . S
O28 C36 1.315 . S
Cd29 O28 2.223 . S
Cd29 O32 2.297 . S
Cd29 O33 2.439 . S
Cd29 O39 2.240 . S
Cd30 O31 2.240 . S
Cd30 O38 2.223 . S
Cd30 O40 2.297 . S
Cd30 O41 2.439 . S
O31 Cd30 2.240 . S
O31 C36 1.279 . S
O32 Cd29 2.297 . S
O32 C34 1.247 . S
O33 Cd29 2.439 . S
O33 C34 1.208 . S
C34 O32 1.247 . S
C34 O33 1.208 . S
C35 O40 1.247 . S
C35 O41 1.208 . S
C36 O28 1.315 . S
C36 O31 1.279 . S
C37 O38 1.315 . S
C37 O39 1.279 . S
O38 Cd30 2.223 . S
O38 C37 1.315 . S
O39 Cd29 2.240 . S
O39 C37 1.279 . S
O40 Cd30 2.297 . S
O40 C35 1.247 . S
O41 Cd30 2.439 . S
O41 C35 1.208 . S
O42 Cd43 2.223 . S
O42 C50 1.315 . S
Cd43 O42 2.223 . S
Cd43 O46 2.297 . S
Cd43 O47 2.439 . S
Cd43 O53 2.240 . S
Cd44 O45 2.240 . S
Cd44 O52 2.223 . S
Cd44 O54 2.297 . S
Cd44 O55 2.439 . S
O45 Cd44 2.240 . S
O45 C50 1.279 . S
O46 Cd43 2.297 . S
O46 C48 1.247 . S
O47 Cd43 2.439 . S
O47 C48 1.208 . S
C48 O46 1.247 . S
C48 O47 1.208 . S
C49 O54 1.247 . S
C49 O55 1.208 . S
C50 O42 1.315 . S
C50 O45 1.279 . S
C51 O52 1.315 . S
C51 O53 1.279 . S
O52 Cd44 2.223 . S
O52 C51 1.315 . S
O53 Cd43 2.240 . S
O53 C51 1.279 . S
O54 Cd44 2.297 . S
O54 C49 1.247 . S
O55 Cd44 2.439 . S
O55 C49 1.208 . S
O56 Cd57 2.223 . S
O56 C64 1.315 . S
Cd57 O56 2.223 . S
Cd57 O60 2.297 . S
Cd57 O61 2.439 . S
Cd57 O67 2.240 . S
Cd58 O59 2.240 . S
Cd58 O66 2.223 . S
Cd58 O68 2.297 . S
Cd58 O69 2.439 . S
O59 Cd58 2.240 . S
O59 C64 1.279 . S
O60 Cd57 2.297 . S
O60 C62 1.247 . S
O61 Cd57 2.439 . S
O61 C62 1.208 . S
C62 O60 1.247 . S
C62 O61 1.208 . S
C63 O68 1.247 . S
C63 O69 1.208 . S
C64 O56 1.315 . S
C64 O59 1.279 . S
C65 O66 1.315 . S
C65 O67 1.279 . S
O66 Cd58 2.223 . S
O66 C65 1.315 . S
O67 Cd57 2.240 . S
O67 C65 1.279 . S
O68 Cd58 2.297 . S
O68 C63 1.247 . S
O69 Cd58 2.439 . S
O69 C63 1.208 . S
O70 Cd71 2.223 . S
O70 C78 1.315 . S
Cd71 O70 2.223 . S
Cd71 O74 2.297 . S
Cd71 O75 2.439 . S
Cd71 O81 2.240 . S
Cd72 O73 2.240 . S
Cd72 O80 2.223 . S
Cd72 O82 2.297 . S
Cd72 O83 2.439 . S
O73 Cd72 2.240 . S
O73 C78 1.279 . S
O74 Cd71 2.297 . S
O74 C76 1.247 . S
O75 Cd71 2.439 . S
O75 C76 1.208 . S
C76 O74 1.247 . S
C76 O75 1.208 . S
C77 O82 1.247 . S
C77 O83 1.208 . S
C78 O70 1.315 . S
C78 O73 1.279 . S
C79 O80 1.315 . S
C79 O81 1.279 . S
O80 Cd72 2.223 . S
O80 C79 1.315 . S
O81 Cd71 2.240 . S
O81 C79 1.279 . S
O82 Cd72 2.297 . S
O82 C77 1.247 . S
O83 Cd72 2.439 . S
O83 C77 1.208 . S
O84 Cd85 2.223 . S
O84 C92 1.315 . S
Cd85 O84 2.223 . S
Cd85 O88 2.297 . S
Cd85 O89 2.439 . S
Cd85 O95 2.240 . S
Cd86 O87 2.240 . S
Cd86 O94 2.223 . S
Cd86 O96 2.297 . S
Cd86 O97 2.439 . S
O87 Cd86 2.240 . S
O87 C92 1.279 . S
O88 Cd85 2.297 . S
O88 C90 1.247 . S
O89 Cd85 2.439 . S
O89 C90 1.208 . S
C90 O88 1.247 . S
C90 O89 1.208 . S
C91 O96 1.247 . S
C91 O97 1.208 . S
C92 O84 1.315 . S
C92 O87 1.279 . S
C93 O94 1.315 . S
C93 O95 1.279 . S
O94 Cd86 2.223 . S
O94 C93 1.315 . S
O95 Cd85 2.240 . S
O95 C93 1.279 . S
O96 Cd86 2.297 . S
O96 C91 1.247 . S
O97 Cd86 2.439 . S
O97 C91 1.208 . S
O98 Cd99 2.223 . S
O98 C106 1.315 . S
Cd99 O98 2.223 . S
Cd99 O102 2.297 . S
Cd99 O103 2.439 . S
Cd99 O109 2.240 . S
Cd100 O101 2.240 . S
Cd100 O108 2.223 . S
Cd100 O110 2.297 . S
Cd100 O111 2.439 . S
O101 Cd100 2.240 . S
O101 C106 1.279 . S
O102 Cd99 2.297 . S
O102 C104 1.247 . S
O103 Cd99 2.439 . S
O103 C104 1.208 . S
C104 O102 1.247 . S
C104 O103 1.208 . S
C105 O110 1.247 . S
C105 O111 1.208 . S
C106 O98 1.315 . S
C106 O101 1.279 . S
C107 O108 1.315 . S
C107 O109 1.279 . S
O108 Cd100 2.223 . S
O108 C107 1.315 . S
O109 Cd99 2.240 . S
O109 C107 1.279 . S
O110 Cd100 2.297 . S
O110 C105 1.247 . S
O111 Cd100 2.439 . S
O111 C105 1.208 . S
O112 Cd113 2.223 . S
O112 C120 1.315 . S
Cd113 O112 2.223 . S
Cd113 O116 2.297 . S
Cd113 O117 2.439 . S
Cd113 O123 2.240 . S
Cd114 O115 2.240 . S
Cd114 O122 2.223 . S
Cd114 O124 2.297 . S
Cd114 O125 2.439 . S
O115 Cd114 2.240 . S
O115 C120 1.279 . S
O116 Cd113 2.297 . S
O116 C118 1.247 . S
O117 Cd113 2.439 . S
O117 C118 1.208 . S
C118 O116 1.247 . S
C118 O117 1.208 . S
C119 O124 1.247 . S
C119 O125 1.208 . S
C120 O112 1.315 . S
C120 O115 1.279 . S
C121 O122 1.315 . S
C121 O123 1.279 . S
O122 Cd114 2.223 . S
O122 C121 1.315 . S
O123 Cd113 2.240 . S
O123 C121 1.279 . S
O124 Cd114 2.297 . S
O124 C119 1.247 . S
O125 Cd114 2.439 . S
O125 C119 1.208 . S
O126 Cd127 2.223 . S
O126 C134 1.315 . S
Cd127 O126 2.223 . S
Cd127 O130 2.297 . S
Cd127 O131 2.439 . S
Cd127 O137 2.240 . S
Cd128 O129 2.240 . S
Cd128 O136 2.223 . S
Cd128 O138 2.297 . S
Cd128 O139 2.439 . S
O129 Cd128 2.240 . S
O129 C134 1.279 . S
O130 Cd127 2.297 . S
O130 C132 1.247 . S
O131 Cd127 2.439 . S
O131 C132 1.208 . S
C132 O130 1.247 . S
C132 O131 1.208 . S
C133 O138 1.247 . S
C133 O139 1.208 . S
C134 O126 1.315 . S
C134 O129 1.279 . S
C135 O136 1.315 . S
C135 O137 1.279 . S
O136 Cd128 2.223 . S
O136 C135 1.315 . S
O137 Cd127 2.240 . S
O137 C135 1.279 . S
O138 Cd128 2.297 . S
O138 C133 1.247 . S
O139 Cd128 2.439 . S
O139 C133 1.208 . S
O140 Cd141 2.223 . S
O140 C148 1.315 . S
Cd141 O140 2.223 . S
Cd141 O144 2.297 . S
Cd141 O145 2.439 . S
Cd141 O151 2.240 . S
Cd142 O143 2.240 . S
Cd142 O150 2.223 . S
Cd142 O152 2.297 . S
Cd142 O153 2.439 . S
O143 Cd142 2.240 . S
O143 C148 1.279 . S
O144 Cd141 2.297 . S
O144 C146 1.247 . S
O145 Cd141 2.439 . S
O145 C146 1.208 . S
C146 O144 1.247 . S
C146 O145 1.208 . S
C147 O152 1.247 . S
C147 O153 1.208 . S
C148 O140 1.315 . S
C148 O143 1.279 . S
C149 O150 1.315 . S
C149 O151 1.279 . S
O150 Cd142 2.223 . S
O150 C149 1.315 . S
O151 Cd141 2.240 . S
O151 C149 1.279 . S
O152 Cd142 2.297 . S
O152 C147 1.247 . S
O153 Cd142 2.439 . S
O153 C147 1.208 . S
O154 Cd155 2.223 . S
O154 C162 1.315 . S
Cd155 O154 2.223 . S
Cd155 O158 2.297 . S
Cd155 O159 2.439 . S
Cd155 O165 2.240 . S
Cd156 O157 2.240 . S
Cd156 O164 2.223 . S
Cd156 O166 2.297 . S
Cd156 O167 2.439 . S
O157 Cd156 2.240 . S
O157 C162 1.279 . S
O158 Cd155 2.297 . S
O158 C160 1.247 . S
O159 Cd155 2.439 . S
O159 C160 1.208 . S
C160 O158 1.247 . S
C160 O159 1.208 . S
C161 O166 1.247 . S
C161 O167 1.208 . S
C162 O154 1.315 . S
C162 O157 1.279 . S
C163 O164 1.315 . S
C163 O165 1.279 . S
O164 Cd156 2.223 . S
O164 C163 1.315 . S
O165 Cd155 2.240 . S
O165 C163 1.279 . S
O166 Cd156 2.297 . S
O166 C161 1.247 . S
O167 Cd156 2.439 . S
O167 C161 1.208 . S
O168 Cd169 2.223 . S
O168 C176 1.315 . S
Cd169 O168 2.223 . S
Cd169 O172 2.297 . S
Cd169 O173 2.439 . S
Cd169 O179 2.240 . S
Cd170 O171 2.240 . S
Cd170 O178 2.223 . S
Cd170 O180 2.297 . S
Cd170 O181 2.439 . S
O171 Cd170 2.240 . S
O171 C176 1.279 . S
O172 Cd169 2.297 . S
O172 C174 1.247 . S
O173 Cd169 2.439 . S
O173 C174 1.208 . S
C174 O172 1.247 . S
C174 O173 1.208 . S
C175 O180 1.247 . S
C175 O181 1.208 . S
C176 O168 1.315 . S
C176 O171 1.279 . S
C177 O178 1.315 . S
C177 O179 1.279 . S
O178 Cd170 2.223 . S
O178 C177 1.315 . S
O179 Cd169 2.240 . S
O179 C177 1.279 . S
O180 Cd170 2.297 . S
O180 C175 1.247 . S
O181 Cd170 2.439 . S
O181 C175 1.208 . S
O182 Cd183 2.223 . S
O182 C190 1.315 . S
Cd183 O182 2.223 . S
Cd183 O186 2.297 . S
Cd183 O187 2.439 . S
Cd183 O193 2.240 . S
Cd184 O185 2.240 . S
Cd184 O192 2.223 . S
Cd184 O194 2.297 . S
Cd184 O195 2.439 . S
O185 Cd184 2.240 . S
O185 C190 1.279 . S
O186 Cd183 2.297 . S
O186 C188 1.247 . S
O187 Cd183 2.439 . S
O187 C188 1.208 . S
C188 O186 1.247 . S
C188 O187 1.208 . S
C189 O194 1.247 . S
C189 O195 1.208 . S
C190 O182 1.315 . S
C190 O185 1.279 . S
C191 O192 1.315 . S
C191 O193 1.279 . S
O192 Cd184 2.223 . S
O192 C191 1.315 . S
O193 Cd183 2.240 . S
O193 C191 1.279 . S
O194 Cd184 2.297 . S
O194 C189 1.247 . S
O195 Cd184 2.439 . S
O195 C189 1.208 . S
O196 Cd197 2.223 . S
O196 C204 1.315 . S
Cd197 O196 2.223 . S
Cd197 O200 2.297 . S
Cd197 O201 2.439 . S
Cd197 O207 2.240 . S
Cd198 O199 2.240 . S
Cd198 O206 2.223 . S
Cd198 O208 2.297 . S
Cd198 O209 2.439 . S
O199 Cd198 2.240 . S
O199 C204 1.279 . S
O200 Cd197 2.297 . S
O200 C202 1.247 . S
O201 Cd197 2.439 . S
O201 C202 1.208 . S
C202 O200 1.247 . S
C202 O201 1.208 . S
C203 O208 1.247 . S
C203 O209 1.208 . S
C204 O196 1.315 . S
C204 O199 1.279 . S
C205 O206 1.315 . S
C205 O207 1.279 . S
O206 Cd198 2.223 . S
O206 C205 1.315 . S
O207 Cd197 2.240 . S
O207 C205 1.279 . S
O208 Cd198 2.297 . S
O208 C203 1.247 . S
O209 Cd198 2.439 . S
O209 C203 1.208 . S
O210 Cd211 2.223 . S
O210 C218 1.315 . S
Cd211 O210 2.223 . S
Cd211 O214 2.297 . S
Cd211 O215 2.439 . S
Cd211 O221 2.240 . S
Cd212 O213 2.240 . S
Cd212 O220 2.223 . S
Cd212 O222 2.297 . S
Cd212 O223 2.439 . S
O213 Cd212 2.240 . S
O213 C218 1.279 . S
O214 Cd211 2.297 . S
O214 C216 1.247 . S
O215 Cd211 2.439 . S
O215 C216 1.208 . S
C216 O214 1.247 . S
C216 O215 1.208 . S
C217 O222 1.247 . S
C217 O223 1.208 . S
C218 O210 1.315 . S
C218 O213 1.279 . S
C219 O220 1.315 . S
C219 O221 1.279 . S
O220 Cd212 2.223 . S
O220 C219 1.315 . S
O221 Cd211 2.240 . S
O221 C219 1.279 . S
O222 Cd212 2.297 . S
O222 C217 1.247 . S
O223 Cd212 2.439 . S
O223 C217 1.208 . S
O224 Cd225 2.223 . S
O224 C232 1.315 . S
Cd225 O224 2.223 . S
Cd225 O228 2.297 . S
Cd225 O229 2.439 . S
Cd225 O235 2.240 . S
Cd226 O227 2.240 . S
Cd226 O234 2.223 . S
Cd226 O236 2.297 . S
Cd226 O237 2.439 . S
O227 Cd226 2.240 . S
O227 C232 1.279 . S
O228 Cd225 2.297 . S
O228 C230 1.247 . S
O229 Cd225 2.439 . S
O229 C230 1.208 . S
C230 O228 1.247 . S
C230 O229 1.208 . S
C231 O236 1.247 . S
C231 O237 1.208 . S
C232 O224 1.315 . S
C232 O227 1.279 . S
C233 O234 1.315 . S
C233 O235 1.279 . S
O234 Cd226 2.223 . S
O234 C233 1.315 . S
O235 Cd225 2.240 . S
O235 C233 1.279 . S
O236 Cd226 2.297 . S
O236 C231 1.247 . S
O237 Cd226 2.439 . S
O237 C231 1.208 . S
O238 Cd239 2.223 . S
O238 C246 1.315 . S
Cd239 O238 2.223 . S
Cd239 O242 2.297 . S
Cd239 O243 2.439 . S
Cd239 O249 2.240 . S
Cd240 O241 2.240 . S
Cd240 O248 2.223 . S
Cd240 O250 2.297 . S
Cd240 O251 2.439 . S
O241 Cd240 2.240 . S
O241 C246 1.279 . S
O242 Cd239 2.297 . S
O242 C244 1.247 . S
O243 Cd239 2.439 . S
O243 C244 1.208 . S
C244 O242 1.247 . S
C244 O243 1.208 . S
C245 O250 1.247 . S
C245 O251 1.208 . S
C246 O238 1.315 . S
C246 O241 1.279 . S
C247 O248 1.315 . S
C247 O249 1.279 . S
O248 Cd240 2.223 . S
O248 C247 1.315 . S
O249 Cd239 2.240 . S
O249 C247 1.279 . S
O250 Cd240 2.297 . S
O250 C245 1.247 . S
O251 Cd240 2.439 . S
O251 C245 1.208 . S
O252 Cd253 2.223 . S
O252 C260 1.315 . S
Cd253 O252 2.223 . S
Cd253 O256 2.297 . S
Cd253 O257 2.439 . S
Cd253 O263 2.240 . S
Cd254 O255 2.240 . S
Cd254 O262 2.223 . S
Cd254 O264 2.297 . S
Cd254 O265 2.439 . S
O255 Cd254 2.240 . S
O255 C260 1.279 . S
O256 Cd253 2.297 . S
O256 C258 1.247 . S
O257 Cd253 2.439 . S
O257 C258 1.208 . S
C258 O256 1.247 . S
C258 O257 1.208 . S
C259 O264 1.247 . S
C259 O265 1.208 . S
C260 O252 1.315 . S
C260 O255 1.279 . S
C261 O262 1.315 . S
C261 O263 1.279 . S
O262 Cd254 2.223 . S
O262 C261 1.315 . S
O263 Cd253 2.240 . S
O263 C261 1.279 . S
O264 Cd254 2.297 . S
O264 C259 1.247 . S
O265 Cd254 2.439 . S
O265 C259 1.208 . S
O266 Cd267 2.223 . S
O266 C274 1.315 . S
Cd267 O266 2.223 . S
Cd267 O270 2.297 . S
Cd267 O271 2.439 . S
Cd267 O277 2.240 . S
Cd268 O269 2.240 . S
Cd268 O276 2.223 . S
Cd268 O278 2.297 . S
Cd268 O279 2.439 . S
O269 Cd268 2.240 . S
O269 C274 1.279 . S
O270 Cd267 2.297 . S
O270 C272 1.247 . S
O271 Cd267 2.439 . S
O271 C272 1.208 . S
C272 O270 1.247 . S
C272 O271 1.208 . S
C273 O278 1.247 . S
C273 O279 1.208 . S
C274 O266 1.315 . S
C274 O269 1.279 . S
C275 O276 1.315 . S
C275 O277 1.279 . S
O276 Cd268 2.223 . S
O276 C275 1.315 . S
O277 Cd267 2.240 . S
O277 C275 1.279 . S
O278 Cd268 2.297 . S
O278 C273 1.247 . S
O279 Cd268 2.439 . S
O279 C273 1.208 . S
O280 Cd281 2.223 . S
O280 C288 1.315 . S
Cd281 O280 2.223 . S
Cd281 O284 2.297 . S
Cd281 O285 2.439 . S
Cd281 O291 2.240 . S
Cd282 O283 2.240 . S
Cd282 O290 2.223 . S
Cd282 O292 2.297 . S
Cd282 O293 2.439 . S
O283 Cd282 2.240 . S
O283 C288 1.279 . S
O284 Cd281 2.297 . S
O284 C286 1.247 . S
O285 Cd281 2.439 . S
O285 C286 1.208 . S
C286 O284 1.247 . S
C286 O285 1.208 . S
C287 O292 1.247 . S
C287 O293 1.208 . S
C288 O280 1.315 . S
C288 O283 1.279 . S
C289 O290 1.315 . S
C289 O291 1.279 . S
O290 Cd282 2.223 . S
O290 C289 1.315 . S
O291 Cd281 2.240 . S
O291 C289 1.279 . S
O292 Cd282 2.297 . S
O292 C287 1.247 . S
O293 Cd282 2.439 . S
O293 C287 1.208 . S
O294 Cd295 2.223 . S
O294 C302 1.315 . S
Cd295 O294 2.223 . S
Cd295 O298 2.297 . S
Cd295 O299 2.439 . S
Cd295 O305 2.240 . S
Cd296 O297 2.240 . S
Cd296 O304 2.223 . S
Cd296 O306 2.297 . S
Cd296 O307 2.439 . S
O297 Cd296 2.240 . S
O297 C302 1.279 . S
O298 Cd295 2.297 . S
O298 C300 1.247 . S
O299 Cd295 2.439 . S
O299 C300 1.208 . S
C300 O298 1.247 . S
C300 O299 1.208 . S
C301 O306 1.247 . S
C301 O307 1.208 . S
C302 O294 1.315 . S
C302 O297 1.279 . S
C303 O304 1.315 . S
C303 O305 1.279 . S
O304 Cd296 2.223 . S
O304 C303 1.315 . S
O305 Cd295 2.240 . S
O305 C303 1.279 . S
O306 Cd296 2.297 . S
O306 C301 1.247 . S
O307 Cd296 2.439 . S
O307 C301 1.208 . S
O308 Cd309 2.223 . S
O308 C316 1.315 . S
Cd309 O308 2.223 . S
Cd309 O312 2.297 . S
Cd309 O313 2.439 . S
Cd309 O319 2.240 . S
Cd310 O311 2.240 . S
Cd310 O318 2.223 . S
Cd310 O320 2.297 . S
Cd310 O321 2.439 . S
O311 Cd310 2.240 . S
O311 C316 1.279 . S
O312 Cd309 2.297 . S
O312 C314 1.247 . S
O313 Cd309 2.439 . S
O313 C314 1.208 . S
C314 O312 1.247 . S
C314 O313 1.208 . S
C315 O320 1.247 . S
C315 O321 1.208 . S
C316 O308 1.315 . S
C316 O311 1.279 . S
C317 O318 1.315 . S
C317 O319 1.279 . S
O318 Cd310 2.223 . S
O318 C317 1.315 . S
O319 Cd309 2.240 . S
O319 C317 1.279 . S
O320 Cd310 2.297 . S
O320 C315 1.247 . S
O321 Cd310 2.439 . S
O321 C315 1.208 . S
O322 Cd323 2.223 . S
O322 C330 1.315 . S
Cd323 O322 2.223 . S
Cd323 O326 2.297 . S
Cd323 O327 2.439 . S
Cd323 O333 2.240 . S
Cd324 O325 2.240 . S
Cd324 O332 2.223 . S
Cd324 O334 2.297 . S
Cd324 O335 2.439 . S
O325 Cd324 2.240 . S
O325 C330 1.279 . S
O326 Cd323 2.297 . S
O326 C328 1.247 . S
O327 Cd323 2.439 . S
O327 C328 1.208 . S
C328 O326 1.247 . S
C328 O327 1.208 . S
C329 O334 1.247 . S
C329 O335 1.208 . S
C330 O322 1.315 . S
C330 O325 1.279 . S
C331 O332 1.315 . S
C331 O333 1.279 . S
O332 Cd324 2.223 . S
O332 C331 1.315 . S
O333 Cd323 2.240 . S
O333 C331 1.279 . S
O334 Cd324 2.297 . S
O334 C329 1.247 . S
O335 Cd324 2.439 . S
O335 C329 1.208 . S
O336 Cd337 2.223 . S
O336 C344 1.315 . S
Cd337 O336 2.223 . S
Cd337 O340 2.297 . S
Cd337 O341 2.439 . S
Cd337 O347 2.240 . S
Cd338 O339 2.240 . S
Cd338 O346 2.223 . S
Cd338 O348 2.297 . S
Cd338 O349 2.439 . S
O339 Cd338 2.240 . S
O339 C344 1.279 . S
O340 Cd337 2.297 . S
O340 C342 1.247 . S
O341 Cd337 2.439 . S
O341 C342 1.208 . S
C342 O340 1.247 . S
C342 O341 1.208 . S
C343 O348 1.247 . S
C343 O349 1.208 . S
C344 O336 1.315 . S
C344 O339 1.279 . S
C345 O346 1.315 . S
C345 O347 1.279 . S
O346 Cd338 2.223 . S
O346 C345 1.315 . S
O347 Cd337 2.240 . S
O347 C345 1.279 . S
O348 Cd338 2.297 . S
O348 C343 1.247 . S
O349 Cd338 2.439 . S
O349 C343 1.208 . S
O350 Cd351 2.223 . S
O350 C358 1.315 . S
Cd351 O350 2.223 . S
Cd351 O354 2.297 . S
Cd351 O355 2.439 . S
Cd351 O361 2.240 . S
Cd352 O353 2.240 . S
Cd352 O360 2.223 . S
Cd352 O362 2.297 . S
Cd352 O363 2.439 . S
O353 Cd352 2.240 . S
O353 C358 1.279 . S
O354 Cd351 2.297 . S
O354 C356 1.247 . S
O355 Cd351 2.439 . S
O355 C356 1.208 . S
C356 O354 1.247 . S
C356 O355 1.208 . S
C357 O362 1.247 . S
C357 O363 1.208 . S
C358 O350 1.315 . S
C358 O353 1.279 . S
C359 O360 1.315 . S
C359 O361 1.279 . S
O360 Cd352 2.223 . S
O360 C359 1.315 . S
O361 Cd351 2.240 . S
O361 C359 1.279 . S
O362 Cd352 2.297 . S
O362 C357 1.247 . S
O363 Cd352 2.439 . S
O363 C357 1.208 . S
O364 Cd365 2.223 . S
O364 C372 1.315 . S
Cd365 O364 2.223 . S
Cd365 O368 2.297 . S
Cd365 O369 2.439 . S
Cd365 O375 2.240 . S
Cd366 O367 2.240 . S
Cd366 O374 2.223 . S
Cd366 O376 2.297 . S
Cd366 O377 2.439 . S
O367 Cd366 2.240 . S
O367 C372 1.279 . S
O368 Cd365 2.297 . S
O368 C370 1.247 . S
O369 Cd365 2.439 . S
O369 C370 1.208 . S
C370 O368 1.247 . S
C370 O369 1.208 . S
C371 O376 1.247 . S
C371 O377 1.208 . S
C372 O364 1.315 . S
C372 O367 1.279 . S
C373 O374 1.315 . S
C373 O375 1.279 . S
O374 Cd366 2.223 . S
O374 C373 1.315 . S
O375 Cd365 2.240 . S
O375 C373 1.279 . S
O376 Cd366 2.297 . S
O376 C371 1.247 . S
O377 Cd366 2.439 . S
O377 C371 1.208 . S
O378 Cd379 2.223 . S
O378 C386 1.315 . S
Cd379 O378 2.223 . S
Cd379 O382 2.297 . S
Cd379 O383 2.439 . S
Cd379 O389 2.240 . S
Cd380 O381 2.240 . S
Cd380 O388 2.223 . S
Cd380 O390 2.297 . S
Cd380 O391 2.439 . S
O381 Cd380 2.240 . S
O381 C386 1.279 . S
O382 Cd379 2.297 . S
O382 C384 1.247 . S
O383 Cd379 2.439 . S
O383 C384 1.208 . S
C384 O382 1.247 . S
C384 O383 1.208 . S
C385 O390 1.247 . S
C385 O391 1.208 . S
C386 O378 1.315 . S
C386 O381 1.279 . S
C387 O388 1.315 . S
C387 O389 1.279 . S
O388 Cd380 2.223 . S
O388 C387 1.315 . S
O389 Cd379 2.240 . S
O389 C387 1.279 . S
O390 Cd380 2.297 . S
O390 C385 1.247 . S
O391 Cd380 2.439 . S
O391 C385 1.208 . S
O392 Cd393 2.223 . S
O392 C400 1.315 . S
Cd393 O392 2.223 . S
Cd393 O396 2.297 . S
Cd393 O397 2.439 . S
Cd393 O403 2.240 . S
Cd394 O395 2.240 . S
Cd394 O402 2.223 . S
Cd394 O404 2.297 . S
Cd394 O405 2.439 . S
O395 Cd394 2.240 . S
O395 C400 1.279 . S
O396 Cd393 2.297 . S
O396 C398 1.247 . S
O397 Cd393 2.439 . S
O397 C398 1.208 . S
C398 O396 1.247 . S
C398 O397 1.208 . S
C399 O404 1.247 . S
C399 O405 1.208 . S
C400 O392 1.315 . S
C400 O395 1.279 . S
C401 O402 1.315 . S
C401 O403 1.279 . S
O402 Cd394 2.223 . S
O402 C401 1.315 . S
O403 Cd393 2.240 . S
O403 C401 1.279 . S
O404 Cd394 2.297 . S
O404 C399 1.247 . S
O405 Cd394 2.439 . S
O405 C399 1.208 . S
O406 Cd407 2.223 . S
O406 C414 1.315 . S
Cd407 O406 2.223 . S
Cd407 O410 2.297 . S
Cd407 O411 2.439 . S
Cd407 O417 2.240 . S
Cd408 O409 2.240 . S
Cd408 O416 2.223 . S
Cd408 O418 2.297 . S
Cd408 O419 2.439 . S
O409 Cd408 2.240 . S
O409 C414 1.279 . S
O410 Cd407 2.297 . S
O410 C412 1.247 . S
O411 Cd407 2.439 . S
O411 C412 1.208 . S
C412 O410 1.247 . S
C412 O411 1.208 . S
C413 O418 1.247 . S
C413 O419 1.208 . S
C414 O406 1.315 . S
C414 O409 1.279 . S
C415 O416 1.315 . S
C415 O417 1.279 . S
O416 Cd408 2.223 . S
O416 C415 1.315 . S
O417 Cd407 2.240 . S
O417 C415 1.279 . S
O418 Cd408 2.297 . S
O418 C413 1.247 . S
O419 Cd408 2.439 . S
O419 C413 1.208 . S
O420 Cd421 2.223 . S
O420 C428 1.315 . S
Cd421 O420 2.223 . S
Cd421 O424 2.297 . S
Cd421 O425 2.439 . S
Cd421 O431 2.240 . S
Cd422 O423 2.240 . S
Cd422 O430 2.223 . S
Cd422 O432 2.297 . S
Cd422 O433 2.439 . S
O423 Cd422 2.240 . S
O423 C428 1.279 . S
O424 Cd421 2.297 . S
O424 C426 1.247 . S
O425 Cd421 2.439 . S
O425 C426 1.208 . S
C426 O424 1.247 . S
C426 O425 1.208 . S
C427 O432 1.247 . S
C427 O433 1.208 . S
C428 O420 1.315 . S
C428 O423 1.279 . S
C429 O430 1.315 . S
C429 O431 1.279 . S
O430 Cd422 2.223 . S
O430 C429 1.315 . S
O431 Cd421 2.240 . S
O431 C429 1.279 . S
O432 Cd422 2.297 . S
O432 C427 1.247 . S
O433 Cd422 2.439 . S
O433 C427 1.208 . S
O434 Cd435 2.223 . S
O434 C442 1.315 . S
Cd435 O434 2.223 . S
Cd435 O438 2.297 . S
Cd435 O439 2.439 . S
Cd435 O445 2.240 . S
Cd436 O437 2.240 . S
Cd436 O444 2.223 . S
Cd436 O446 2.297 . S
Cd436 O447 2.439 . S
O437 Cd436 2.240 . S
O437 C442 1.279 . S
O438 Cd435 2.297 . S
O438 C440 1.247 . S
O439 Cd435 2.439 . S
O439 C440 1.208 . S
C440 O438 1.247 . S
C440 O439 1.208 . S
C441 O446 1.247 . S
C441 O447 1.208 . S
C442 O434 1.315 . S
C442 O437 1.279 . S
C443 O444 1.315 . S
C443 O445 1.279 . S
O444 Cd436 2.223 . S
O444 C443 1.315 . S
O445 Cd435 2.240 . S
O445 C443 1.279 . S
O446 Cd436 2.297 . S
O446 C441 1.247 . S
O447 Cd436 2.439 . S
O447 C441 1.208 . S
O448 Cd449 2.223 . S
O448 C456 1.315 . S
Cd449 O448 2.223 . S
Cd449 O452 2.297 . S
Cd449 O453 2.439 . S
Cd449 O459 2.240 . S
Cd450 O451 2.240 . S
Cd450 O458 2.223 . S
Cd450 O460 2.297 . S
Cd450 O461 2.439 . S
O451 Cd450 2.240 . S
O451 C456 1.279 . S
O452 Cd449 2.297 . S
O452 C454 1.247 . S
O453 Cd449 2.439 . S
O453 C454 1.208 . S
C454 O452 1.247 . S
C454 O453 1.208 . S
C455 O460 1.247 . S
C455 O461 1.208 . S
C456 O448 1.315 . S
C456 O451 1.279 . S
C457 O458 1.315 . S
C457 O459 1.279 . S
O458 Cd450 2.223 . S
O458 C457 1.315 . S
O459 Cd449 2.240 . S
O459 C457 1.279 . S
O460 Cd450 2.297 . S
O460 C455 1.247 . S
O461 Cd450 2.439 . S
O461 C455 1.208 . S
O462 Cd463 2.223 . S
O462 C470 1.315 . S
Cd463 O462 2.223 . S
Cd463 O466 2.297 . S
Cd463 O467 2.439 . S
Cd463 O473 2.240 . S
Cd464 O465 2.240 . S
Cd464 O472 2.223 . S
Cd464 O474 2.297 . S
Cd464 O475 2.439 . S
O465 Cd464 2.240 . S
O465 C470 1.279 . S
O466 Cd463 2.297 . S
O466 C468 1.247 . S
O467 Cd463 2.439 . S
O467 C468 1.208 . S
C468 O466 1.247 . S
C468 O467 1.208 . S
C469 O474 1.247 . S
C469 O475 1.208 . S
C470 O462 1.315 . S
C470 O465 1.279 . S
C471 O472 1.315 . S
C471 O473 1.279 . S
O472 Cd464 2.223 . S
O472 C471 1.315 . S
O473 Cd463 2.240 . S
O473 C471 1.279 . S
O474 Cd464 2.297 . S
O474 C469 1.247 . S
O475 Cd464 2.439 . S
O475 C469 1.208 . S
O476 Cd477 2.223 . S
O476 C484 1.315 . S
Cd477 O476 2.223 . S
Cd477 O480 2.297 . S
Cd477 O481 2.439 . S
Cd477 O487 2.240 . S
Cd478 O479 2.240 . S
Cd478 O486 2.223 . S
Cd478 O488 2.297 . S
Cd478 O489 2.439 . S
O479 Cd478 2.240 . S
O479 C484 1.279 . S
O480 Cd477 2.297 . S
O480 C482 1.247 . S
O481 Cd477 2.439 . S
O481 C482 1.208 . S
C482 O480 1.247 . S
C482 O481 1.208 . S
C483 O488 1.247 . S
C483 O489 1.208 . S
C484 O476 1.315 . S
C484 O479 1.279 . S
C485 O486 1.315 . S
C485 O487 1.279 . S
O486 Cd478 2.223 . S
O486 C485 1.315 . S
O487 Cd477 2.240 . S
O487 C485 1.279 . S
O488 Cd478 2.297 . S
O488 C483 1.247 . S
O489 Cd478 2.439 . S
O489 C483 1.208 . S
O490 Cd491 2.223 . S
O490 C498 1.315 . S
Cd491 O490 2.223 . S
Cd491 O494 2.297 . S
Cd491 O495 2.439 . S
Cd491 O501 2.240 . S
Cd492 O493 2.240 . S
Cd492 O500 2.223 . S
Cd492 O502 2.297 . S
Cd492 O503 2.439 . S
O493 Cd492 2.240 . S
O493 C498 1.279 . S
O494 Cd491 2.297 . S
O494 C496 1.247 . S
O495 Cd491 2.439 . S
O495 C496 1.208 . S
C496 O494 1.247 . S
C496 O495 1.208 . S
C497 O502 1.247 . S
C497 O503 1.208 . S
C498 O490 1.315 . S
C498 O493 1.279 . S
C499 O500 1.315 . S
C499 O501 1.279 . S
O500 Cd492 2.223 . S
O500 C499 1.315 . S
O501 Cd491 2.240 . S
O501 C499 1.279 . S
O502 Cd492 2.297 . S
O502 C497 1.247 . S
O503 Cd492 2.439 . S
O503 C497 1.208 . S
C504 C505 1.349 . S
C504 C506 1.327 . S
C504 H529 0.950 . S
C505 C504 1.349 . S
C505 C521 1.349 . S
C506 C504 1.327 . S
C506 C525 1.429 . S
C506 H530 0.950 . S
C507 C524 1.574 . S
C507 C526 1.368 . S
C507 H531 0.949 . S
H508 C512 0.949 . S
C509 C510 1.349 . S
C509 C511 1.327 . S
C509 H532 0.950 . S
C510 C509 1.349 . S
C510 C522 1.349 . S
C511 C509 1.327 . S
C511 C527 1.429 . S
C511 H533 0.950 . S
C512 H508 0.949 . S
C512 C520 1.574 . S
C512 C528 1.368 . S
H513 C521 0.950 . S
H514 C519 0.950 . S
H515 C520 0.949 . S
H516 C522 0.950 . S
H517 C523 0.950 . S
H518 C524 0.949 . S
C519 H514 0.950 . S
C519 C521 1.327 . S
C519 C525 1.429 . S
C520 C512 1.574 . S
C520 H515 0.949 . S
C520 C526 1.368 . S
C521 C505 1.349 . S
C521 H513 0.950 . S
C521 C519 1.327 . S
C522 C510 1.349 . S
C522 H516 0.950 . S
C522 C523 1.327 . S
C523 H517 0.950 . S
C523 C522 1.327 . S
C523 C527 1.429 . S
C524 C507 1.574 . S
C524 H518 0.949 . S
C524 C528 1.368 . S
C525 C506 1.429 . S
C525 C519 1.429 . S
C525 C526 1.523 . S
C526 C507 1.368 . S
C526 C520 1.368 . S
C526 C525 1.523 . S
C527 C511 1.429 . S
C527 C523 1.429 . S
C527 C528 1.523 . S
C528 C512 1.368 . S
C528 C524 1.368 . S
C528 C527 1.523 . S
H529 C504 0.950 . S
H530 C506 0.950 . S
H531 C507 0.949 . S
H532 C509 0.950 . S
H533 C511 0.950 . S
C534 C535 1.349 . S
C534 C536 1.327 . S
C534 H559 0.950 . S
C535 C534 1.349 . S
C535 C551 1.349 . S
C536 C534 1.327 . S
C536 C555 1.429 . S
C536 H560 0.950 . S
C537 C554 1.574 . S
C537 C556 1.368 . S
C537 H561 0.949 . S
H538 C542 0.949 . S
C539 C540 1.349 . S
C539 C541 1.327 . S
C539 H562 0.950 . S
C540 C539 1.349 . S
C540 C552 1.349 . S
C541 C539 1.327 . S
C541 C557 1.429 . S
C541 H563 0.950 . S
C542 H538 0.949 . S
C542 C550 1.574 . S
C542 C558 1.368 . S
H543 C551 0.950 . S
H544 C549 0.950 . S
H545 C550 0.949 . S
H546 C552 0.950 . S
H547 C553 0.950 . S
H548 C554 0.949 . S
C549 H544 0.950 . S
C549 C551 1.327 . S
C549 C555 1.429 . S
C550 C542 1.574 . S
C550 H545 0.949 . S
C550 C556 1.368 . S
C551 C535 1.349 . S
C551 H543 0.950 . S
C551 C549 1.327 . S
C552 C540 1.349 . S
C552 H546 0.950 . S
C552 C553 1.327 . S
C553 H547 0.950 . S
C553 C552 1.327 . S
C553 C557 1.429 . S
C554 C537 1.574 . S
C554 H548 0.949 . S
C554 C558 1.368 . S
C555 C536 1.429 . S
C555 C549 1.429 . S
C555 C556 1.523 . S
C556 C537 1.368 . S
C556 C550 1.368 . S
C556 C555 1.523 . S
C557 C541 1.429 . S
C557 C553 1.429 . S
C557 C558 1.523 . S
C558 C542 1.368 . S
C558 C554 1.368 . S
C558 C557 1.523 . S
H559 C534 0.950 . S
H560 C536 0.950 . S
H561 C537 0.949 . S
H562 C539 0.950 . S
H563 C541 0.950 . S
C564 C565 1.349 . S
C564 C566 1.327 . S
C564 H589 0.950 . S
C565 C564 1.349 . S
C565 C581 1.349 . S
C566 C564 1.327 . S
C566 C585 1.429 . S
C566 H590 0.950 . S
C567 C584 1.574 . S
C567 C586 1.368 . S
C567 H591 0.949 . S
H568 C572 0.949 . S
C569 C570 1.349 . S
C569 C571 1.327 . S
C569 H592 0.950 . S
C570 C569 1.349 . S
C570 C582 1.349 . S
C571 C569 1.327 . S
C571 C587 1.429 . S
C571 H593 0.950 . S
C572 H568 0.949 . S
C572 C580 1.574 . S
C572 C588 1.368 . S
H573 C581 0.950 . S
H574 C579 0.950 . S
H575 C580 0.949 . S
H576 C582 0.950 . S
H577 C583 0.950 . S
H578 C584 0.949 . S
C579 H574 0.950 . S
C579 C581 1.327 . S
C579 C585 1.429 . S
C580 C572 1.574 . S
C580 H575 0.949 . S
C580 C586 1.368 . S
C581 C565 1.349 . S
C581 H573 0.950 . S
C581 C579 1.327 . S
C582 C570 1.349 . S
C582 H576 0.950 . S
C582 C583 1.327 . S
C583 H577 0.950 . S
C583 C582 1.327 . S
C583 C587 1.429 . S
C584 C567 1.574 . S
C584 H578 0.949 . S
C584 C588 1.368 . S
C585 C566 1.429 . S
C585 C579 1.429 . S
C585 C586 1.523 . S
C586 C567 1.368 . S
C586 C580 1.368 . S
C586 C585 1.523 . S
C587 C571 1.429 . S
C587 C583 1.429 . S
C587 C588 1.523 . S
C588 C572 1.368 . S
C588 C584 1.368 . S
C588 C587 1.523 . S
H589 C564 0.950 . S
H590 C566 0.950 . S
H591 C567 0.949 . S
H592 C569 0.950 . S
H593 C571 0.950 . S
C594 C595 1.349 . S
C594 C596 1.327 . S
C594 H619 0.950 . S
C595 C594 1.349 . S
C595 C611 1.349 . S
C596 C594 1.327 . S
C596 C615 1.429 . S
C596 H620 0.950 . S
C597 C614 1.574 . S
C597 C616 1.368 . S
C597 H621 0.949 . S
H598 C602 0.949 . S
C599 C600 1.349 . S
C599 C601 1.327 . S
C599 H622 0.950 . S
C600 C599 1.349 . S
C600 C612 1.349 . S
C601 C599 1.327 . S
C601 C617 1.429 . S
C601 H623 0.950 . S
C602 H598 0.949 . S
C602 C610 1.574 . S
C602 C618 1.368 . S
H603 C611 0.950 . S
H604 C609 0.950 . S
H605 C610 0.949 . S
H606 C612 0.950 . S
H607 C613 0.950 . S
H608 C614 0.949 . S
C609 H604 0.950 . S
C609 C611 1.327 . S
C609 C615 1.429 . S
C610 C602 1.574 . S
C610 H605 0.949 . S
C610 C616 1.368 . S
C611 C595 1.349 . S
C611 H603 0.950 . S
C611 C609 1.327 . S
C612 C600 1.349 . S
C612 H606 0.950 . S
C612 C613 1.327 . S
C613 H607 0.950 . S
C613 C612 1.327 . S
C613 C617 1.429 . S
C614 C597 1.574 . S
C614 H608 0.949 . S
C614 C618 1.368 . S
C615 C596 1.429 . S
C615 C609 1.429 . S
C615 C616 1.523 . S
C616 C597 1.368 . S
C616 C610 1.368 . S
C616 C615 1.523 . S
C617 C601 1.429 . S
C617 C613 1.429 . S
C617 C618 1.523 . S
C618 C602 1.368 . S
C618 C614 1.368 . S
C618 C617 1.523 . S
H619 C594 0.950 . S
H620 C596 0.950 . S
H621 C597 0.949 . S
H622 C599 0.950 . S
H623 C601 0.950 . S
C624 C625 1.349 . S
C624 C626 1.327 . S
C624 H649 0.950 . S
C625 C624 1.349 . S
C625 C641 1.349 . S
C626 C624 1.327 . S
C626 C645 1.429 . S
C626 H650 0.950 . S
C627 C644 1.574 . S
C627 C646 1.368 . S
C627 H651 0.949 . S
H628 C632 0.949 . S
C629 C630 1.349 . S
C629 C631 1.327 . S
C629 H652 0.950 . S
C630 C629 1.349 . S
C630 C642 1.349 . S
C631 C629 1.327 . S
C631 C647 1.429 . S
C631 H653 0.950 . S
C632 H628 0.949 . S
C632 C640 1.574 . S
C632 C648 1.368 . S
H633 C641 0.950 . S
H634 C639 0.950 . S
H635 C640 0.949 . S
H636 C642 0.950 . S
H637 C643 0.950 . S
H638 C644 0.949 . S
C639 H634 0.950 . S
C639 C641 1.327 . S
C639 C645 1.429 . S
C640 C632 1.574 . S
C640 H635 0.949 . S
C640 C646 1.368 . S
C641 C625 1.349 . S
C641 H633 0.950 . S
C641 C639 1.327 . S
C642 C630 1.349 . S
C642 H636 0.950 . S
C642 C643 1.327 . S
C643 H637 0.950 . S
C643 C642 1.327 . S
C643 C647 1.429 . S
C644 C627 1.574 . S
C644 H638 0.949 . S
C644 C648 1.368 . S
C645 C626 1.429 . S
C645 C639 1.429 . S
C645 C646 1.523 . S
C646 C627 1.368 . S
C646 C640 1.368 . S
C646 C645 1.523 . S
C647 C631 1.429 . S
C647 C643 1.429 . S
C647 C648 1.523 . S
C648 C632 1.368 . S
C648 C644 1.368 . S
C648 C647 1.523 . S
H649 C624 0.950 . S
H650 C626 0.950 . S
H651 C627 0.949 . S
H652 C629 0.950 . S
H653 C631 0.950 . S
C654 C655 1.349 . S
C654 C656 1.327 . S
C654 H679 0.950 . S
C655 C654 1.349 . S
C655 C671 1.349 . S
C656 C654 1.327 . S
C656 C675 1.429 . S
C656 H680 0.950 . S
C657 C674 1.574 . S
C657 C676 1.368 . S
C657 H681 0.949 . S
H658 C662 0.949 . S
C659 C660 1.349 . S
C659 C661 1.327 . S
C659 H682 0.950 . S
C660 C659 1.349 . S
C660 C672 1.349 . S
C661 C659 1.327 . S
C661 C677 1.429 . S
C661 H683 0.950 . S
C662 H658 0.949 . S
C662 C670 1.574 . S
C662 C678 1.368 . S
H663 C671 0.950 . S
H664 C669 0.950 . S
H665 C670 0.949 . S
H666 C672 0.950 . S
H667 C673 0.950 . S
H668 C674 0.949 . S
C669 H664 0.950 . S
C669 C671 1.327 . S
C669 C675 1.429 . S
C670 C662 1.574 . S
C670 H665 0.949 . S
C670 C676 1.368 . S
C671 C655 1.349 . S
C671 H663 0.950 . S
C671 C669 1.327 . S
C672 C660 1.349 . S
C672 H666 0.950 . S
C672 C673 1.327 . S
C673 H667 0.950 . S
C673 C672 1.327 . S
C673 C677 1.429 . S
C674 C657 1.574 . S
C674 H668 0.949 . S
C674 C678 1.368 . S
C675 C656 1.429 . S
C675 C669 1.429 . S
C675 C676 1.523 . S
C676 C657 1.368 . S
C676 C670 1.368 . S
C676 C675 1.523 . S
C677 C661 1.429 . S
C677 C673 1.429 . S
C677 C678 1.523 . S
C678 C662 1.368 . S
C678 C674 1.368 . S
C678 C677 1.523 . S
H679 C654 0.950 . S
H680 C656 0.950 . S
H681 C657 0.949 . S
H682 C659 0.950 . S
H683 C661 0.950 . S
C684 C685 1.349 . S
C684 C686 1.327 . S
C684 H709 0.950 . S
C685 C684 1.349 . S
C685 C701 1.349 . S
C686 C684 1.327 . S
C686 C705 1.429 . S
C686 H710 0.950 . S
C687 C704 1.574 . S
C687 C706 1.368 . S
C687 H711 0.949 . S
H688 C692 0.949 . S
C689 C690 1.349 . S
C689 C691 1.327 . S
C689 H712 0.950 . S
C690 C689 1.349 . S
C690 C702 1.349 . S
C691 C689 1.327 . S
C691 C707 1.429 . S
C691 H713 0.950 . S
C692 H688 0.949 . S
C692 C700 1.574 . S
C692 C708 1.368 . S
H693 C701 0.950 . S
H694 C699 0.950 . S
H695 C700 0.949 . S
H696 C702 0.950 . S
H697 C703 0.950 . S
H698 C704 0.949 . S
C699 H694 0.950 . S
C699 C701 1.327 . S
C699 C705 1.429 . S
C700 C692 1.574 . S
C700 H695 0.949 . S
C700 C706 1.368 . S
C701 C685 1.349 . S
C701 H693 0.950 . S
C701 C699 1.327 . S
C702 C690 1.349 . S
C702 H696 0.950 . S
C702 C703 1.327 . S
C703 H697 0.950 . S
C703 C702 1.327 . S
C703 C707 1.429 . S
C704 C687 1.574 . S
C704 H698 0.949 . S
C704 C708 1.368 . S
C705 C686 1.429 . S
C705 C699 1.429 . S
C705 C706 1.523 . S
C706 C687 1.368 . S
C706 C700 1.368 . S
C706 C705 1.523 . S
C707 C691 1.429 . S
C707 C703 1.429 . S
C707 C708 1.523 . S
C708 C692 1.368 . S
C708 C704 1.368 . S
C708 C707 1.523 . S
H709 C684 0.950 . S
H710 C686 0.950 . S
H711 C687 0.949 . S
H712 C689 0.950 . S
H713 C691 0.950 . S
C714 C715 1.349 . S
C714 C716 1.327 . S
C714 H739 0.950 . S
C715 C714 1.349 . S
C715 C731 1.349 . S
C716 C714 1.327 . S
C716 C735 1.429 . S
C716 H740 0.950 . S
C717 C734 1.574 . S
C717 C736 1.368 . S
C717 H741 0.949 . S
H718 C722 0.949 . S
C719 C720 1.349 . S
C719 C721 1.327 . S
C719 H742 0.950 . S
C720 C719 1.349 . S
C720 C732 1.349 . S
C721 C719 1.327 . S
C721 C737 1.429 . S
C721 H743 0.950 . S
C722 H718 0.949 . S
C722 C730 1.574 . S
C722 C738 1.368 . S
H723 C731 0.950 . S
H724 C729 0.950 . S
H725 C730 0.949 . S
H726 C732 0.950 . S
H727 C733 0.950 . S
H728 C734 0.949 . S
C729 H724 0.950 . S
C729 C731 1.327 . S
C729 C735 1.429 . S
C730 C722 1.574 . S
C730 H725 0.949 . S
C730 C736 1.368 . S
C731 C715 1.349 . S
C731 H723 0.950 . S
C731 C729 1.327 . S
C732 C720 1.349 . S
C732 H726 0.950 . S
C732 C733 1.327 . S
C733 H727 0.950 . S
C733 C732 1.327 . S
C733 C737 1.429 . S
C734 C717 1.574 . S
C734 H728 0.949 . S
C734 C738 1.368 . S
C735 C716 1.429 . S
C735 C729 1.429 . S
C735 C736 1.523 . S
C736 C717 1.368 . S
C736 C730 1.368 . S
C736 C735 1.523 . S
C737 C721 1.429 . S
C737 C733 1.429 . S
C737 C738 1.523 . S
C738 C722 1.368 . S
C738 C734 1.368 . S
C738 C737 1.523 . S
H739 C714 0.950 . S
H740 C716 0.950 . S
H741 C717 0.949 . S
H742 C719 0.950 . S
H743 C721 0.950 . S
C744 C745 1.349 . S
C744 C746 1.327 . S
C744 H769 0.950 . S
C745 C744 1.349 . S
C745 C761 1.349 . S
C746 C744 1.327 . S
C746 C765 1.429 . S
C746 H770 0.950 . S
C747 C764 1.574 . S
C747 C766 1.368 . S
C747 H771 0.949 . S
H748 C752 0.949 . S
C749 C750 1.349 . S
C749 C751 1.327 . S
C749 H772 0.950 . S
C750 C749 1.349 . S
C750 C762 1.349 . S
C751 C749 1.327 . S
C751 C767 1.429 . S
C751 H773 0.950 . S
C752 H748 0.949 . S
C752 C760 1.574 . S
C752 C768 1.368 . S
H753 C761 0.950 . S
H754 C759 0.950 . S
H755 C760 0.949 . S
H756 C762 0.950 . S
H757 C763 0.950 . S
H758 C764 0.949 . S
C759 H754 0.950 . S
C759 C761 1.327 . S
C759 C765 1.429 . S
C760 C752 1.574 . S
C760 H755 0.949 . S
C760 C766 1.368 . S
C761 C745 1.349 . S
C761 H753 0.950 . S
C761 C759 1.327 . S
C762 C750 1.349 . S
C762 H756 0.950 . S
C762 C763 1.327 . S
C763 H757 0.950 . S
C763 C762 1.327 . S
C763 C767 1.429 . S
C764 C747 1.574 . S
C764 H758 0.949 . S
C764 C768 1.368 . S
C765 C746 1.429 . S
C765 C759 1.429 . S
C765 C766 1.523 . S
C766 C747 1.368 . S
C766 C760 1.368 . S
C766 C765 1.523 . S
C767 C751 1.429 . S
C767 C763 1.429 . S
C767 C768 1.523 . S
C768 C752 1.368 . S
C768 C764 1.368 . S
C768 C767 1.523 . S
H769 C744 0.950 . S
H770 C746 0.950 . S
H771 C747 0.949 . S
H772 C749 0.950 . S
H773 C751 0.950 . S
C774 C775 1.349 . S
C774 C776 1.327 . S
C774 H799 0.950 . S
C775 C774 1.349 . S
C775 C791 1.349 . S
C776 C774 1.327 . S
C776 C795 1.429 . S
C776 H800 0.950 . S
C777 C794 1.574 . S
C777 C796 1.368 . S
C777 H801 0.949 . S
H778 C782 0.949 . S
C779 C780 1.349 . S
C779 C781 1.327 . S
C779 H802 0.950 . S
C780 C779 1.349 . S
C780 C792 1.349 . S
C781 C779 1.327 . S
C781 C797 1.429 . S
C781 H803 0.950 . S
C782 H778 0.949 . S
C782 C790 1.574 . S
C782 C798 1.368 . S
H783 C791 0.950 . S
H784 C789 0.950 . S
H785 C790 0.949 . S
H786 C792 0.950 . S
H787 C793 0.950 . S
H788 C794 0.949 . S
C789 H784 0.950 . S
C789 C791 1.327 . S
C789 C795 1.429 . S
C790 C782 1.574 . S
C790 H785 0.949 . S
C790 C796 1.368 . S
C791 C775 1.349 . S
C791 H783 0.950 . S
C791 C789 1.327 . S
C792 C780 1.349 . S
C792 H786 0.950 . S
C792 C793 1.327 . S
C793 H787 0.950 . S
C793 C792 1.327 . S
C793 C797 1.429 . S
C794 C777 1.574 . S
C794 H788 0.949 . S
C794 C798 1.368 . S
C795 C776 1.429 . S
C795 C789 1.429 . S
C795 C796 1.523 . S
C796 C777 1.368 . S
C796 C790 1.368 . S
C796 C795 1.523 . S
C797 C781 1.429 . S
C797 C793 1.429 . S
C797 C798 1.523 . S
C798 C782 1.368 . S
C798 C794 1.368 . S
C798 C797 1.523 . S
H799 C774 0.950 . S
H800 C776 0.950 . S
H801 C777 0.949 . S
H802 C779 0.950 . S
H803 C781 0.950 . S
C804 C805 1.349 . S
C804 C806 1.327 . S
C804 H829 0.950 . S
C805 C804 1.349 . S
C805 C821 1.349 . S
C806 C804 1.327 . S
C806 C825 1.429 . S
C806 H830 0.950 . S
C807 C824 1.574 . S
C807 C826 1.368 . S
C807 H831 0.949 . S
H808 C812 0.949 . S
C809 C810 1.349 . S
C809 C811 1.327 . S
C809 H832 0.950 . S
C810 C809 1.349 . S
C810 C822 1.349 . S
C811 C809 1.327 . S
C811 C827 1.429 . S
C811 H833 0.950 . S
C812 H808 0.949 . S
C812 C820 1.574 . S
C812 C828 1.368 . S
H813 C821 0.950 . S
H814 C819 0.950 . S
H815 C820 0.949 . S
H816 C822 0.950 . S
H817 C823 0.950 . S
H818 C824 0.949 . S
C819 H814 0.950 . S
C819 C821 1.327 . S
C819 C825 1.429 . S
C820 C812 1.574 . S
C820 H815 0.949 . S
C820 C826 1.368 . S
C821 C805 1.349 . S
C821 H813 0.950 . S
C821 C819 1.327 . S
C822 C810 1.349 . S
C822 H816 0.950 . S
C822 C823 1.327 . S
C823 H817 0.950 . S
C823 C822 1.327 . S
C823 C827 1.429 . S
C824 C807 1.574 . S
C824 H818 0.949 . S
C824 C828 1.368 . S
C825 C806 1.429 . S
C825 C819 1.429 . S
C825 C826 1.523 . S
C826 C807 1.368 . S
C826 C820 1.368 . S
C826 C825 1.523 . S
C827 C811 1.429 . S
C827 C823 1.429 . S
C827 C828 1.523 . S
C828 C812 1.368 . S
C828 C824 1.368 . S
C828 C827 1.523 . S
H829 C804 0.950 . S
H830 C806 0.950 . S
H831 C807 0.949 . S
H832 C809 0.950 . S
H833 C811 0.950 . S
C834 C835 1.349 . S
C834 C836 1.327 . S
C834 H859 0.950 . S
C835 C834 1.349 . S
C835 C851 1.349 . S
C836 C834 1.327 . S
C836 C855 1.429 . S
C836 H860 0.950 . S
C837 C854 1.574 . S
C837 C856 1.368 . S
C837 H861 0.949 . S
H838 C842 0.949 . S
C839 C840 1.349 . S
C839 C841 1.327 . S
C839 H862 0.950 . S
C840 C839 1.349 . S
C840 C852 1.349 . S
C841 C839 1.327 . S
C841 C857 1.429 . S
C841 H863 0.950 . S
C842 H838 0.949 . S
C842 C850 1.574 . S
C842 C858 1.368 . S
H843 C851 0.950 . S
H844 C849 0.950 . S
H845 C850 0.949 . S
H846 C852 0.950 . S
H847 C853 0.950 . S
H848 C854 0.949 . S
C849 H844 0.950 . S
C849 C851 1.327 . S
C849 C855 1.429 . S
C850 C842 1.574 . S
C850 H845 0.949 . S
C850 C856 1.368 . S
C851 C835 1.349 . S
C851 H843 0.950 . S
C851 C849 1.327 . S
C852 C840 1.349 . S
C852 H846 0.950 . S
C852 C853 1.327 . S
C853 H847 0.950 . S
C853 C852 1.327 . S
C853 C857 1.429 . S
C854 C837 1.574 . S
C854 H848 0.949 . S
C854 C858 1.368 . S
C855 C836 1.429 . S
C855 C849 1.429 . S
C855 C856 1.523 . S
C856 C837 1.368 . S
C856 C850 1.368 . S
C856 C855 1.523 . S
C857 C841 1.429 . S
C857 C853 1.429 . S
C857 C858 1.523 . S
C858 C842 1.368 . S
C858 C854 1.368 . S
C858 C857 1.523 . S
H859 C834 0.950 . S
H860 C836 0.950 . S
H861 C837 0.949 . S
H862 C839 0.950 . S
H863 C841 0.950 . S
C864 C865 1.349 . S
C864 C866 1.327 . S
C864 H889 0.950 . S
C865 C864 1.349 . S
C865 C881 1.349 . S
C866 C864 1.327 . S
C866 C885 1.429 . S
C866 H890 0.950 . S
C867 C884 1.574 1_655 S
C867 C886 1.368 . S
C867 H891 0.949 . S
H868 C872 0.949 . S
C869 C870 1.349 . S
C869 C871 1.327 . S
C869 H892 0.950 . S
C870 C869 1.349 . S
C870 C882 1.349 . S
C871 C869 1.327 . S
C871 C887 1.429 . S
C871 H893 0.950 . S
C872 H868 0.949 . S
C872 C880 1.574 1_455 S
C872 C888 1.368 . S
H873 C881 0.950 . S
H874 C879 0.950 . S
H875 C880 0.949 . S
H876 C882 0.950 . S
H877 C883 0.950 . S
H878 C884 0.949 . S
C879 H874 0.950 . S
C879 C881 1.327 . S
C879 C885 1.429 . S
C880 C872 1.574 1_655 S
C880 H875 0.949 . S
C880 C886 1.368 . S
C881 C865 1.349 . S
C881 H873 0.950 . S
C881 C879 1.327 . S
C882 C870 1.349 . S
C882 H876 0.950 . S
C882 C883 1.327 . S
C883 H877 0.950 . S
C883 C882 1.327 . S
C883 C887 1.429 . S
C884 C867 1.574 1_455 S
C884 H878 0.949 . S
C884 C888 1.368 . S
C885 C866 1.429 . S
C885 C879 1.429 . S
C885 C886 1.523 . S
C886 C867 1.368 . S
C886 C880 1.368 . S
C886 C885 1.523 . S
C887 C871 1.429 . S
C887 C883 1.429 . S
C887 C888 1.523 . S
C888 C872 1.368 . S
C888 C884 1.368 . S
C888 C887 1.523 . S
H889 C864 0.950 . S
H890 C866 0.950 . S
H891 C867 0.949 . S
H892 C869 0.950 . S
H893 C871 0.950 . S
C894 C895 1.349 . S
C894 C896 1.327 . S
C894 H919 0.950 . S
C895 C894 1.349 . S
C895 C911 1.349 . S
C896 C894 1.327 . S
C896 C915 1.429 . S
C896 H920 0.950 . S
C897 C914 1.574 . S
C897 C916 1.368 . S
C897 H921 0.949 . S
H898 C902 0.949 . S
C899 C900 1.349 . S
C899 C901 1.327 . S
C899 H922 0.950 . S
C900 C899 1.349 . S
C900 C912 1.349 . S
C901 C899 1.327 . S
C901 C917 1.429 . S
C901 H923 0.950 . S
C902 H898 0.949 . S
C902 C910 1.574 . S
C902 C918 1.368 . S
H903 C911 0.950 . S
H904 C909 0.950 . S
H905 C910 0.949 . S
H906 C912 0.950 . S
H907 C913 0.950 . S
H908 C914 0.949 . S
C909 H904 0.950 . S
C909 C911 1.327 . S
C909 C915 1.429 . S
C910 C902 1.574 . S
C910 H905 0.949 . S
C910 C916 1.368 . S
C911 C895 1.349 . S
C911 H903 0.950 . S
C911 C909 1.327 . S
C912 C900 1.349 . S
C912 H906 0.950 . S
C912 C913 1.327 . S
C913 H907 0.950 . S
C913 C912 1.327 . S
C913 C917 1.429 . S
C914 C897 1.574 . S
C914 H908 0.949 . S
C914 C918 1.368 . S
C915 C896 1.429 . S
C915 C909 1.429 . S
C915 C916 1.523 . S
C916 C897 1.368 . S
C916 C910 1.368 . S
C916 C915 1.523 . S
C917 C901 1.429 . S
C917 C913 1.429 . S
C917 C918 1.523 . S
C918 C902 1.368 . S
C918 C914 1.368 . S
C918 C917 1.523 . S
H919 C894 0.950 . S
H920 C896 0.950 . S
H921 C897 0.949 . S
H922 C899 0.950 . S
H923 C901 0.950 . S
C924 C925 1.349 . S
C924 C926 1.327 . S
C924 H949 0.950 . S
C925 C924 1.349 . S
C925 C941 1.349 . S
C926 C924 1.327 . S
C926 C945 1.429 . S
C926 H950 0.950 1_545 S
C927 C944 1.574 . S
C927 C946 1.368 . S
C927 H951 0.949 . S
H928 C932 0.949 . S
C929 C930 1.349 . S
C929 C931 1.327 . S
C929 H952 0.950 . S
C930 C929 1.349 . S
C930 C942 1.349 . S
C931 C929 1.327 . S
C931 C947 1.429 . S
C931 H953 0.950 1_565 S
C932 H928 0.949 . S
C932 C940 1.574 . S
C932 C948 1.368 . S
H933 C941 0.950 . S
H934 C939 0.950 . S
H935 C940 0.949 . S
H936 C942 0.950 . S
H937 C943 0.950 . S
H938 C944 0.949 . S
C939 H934 0.950 . S
C939 C941 1.327 . S
C939 C945 1.429 . S
C940 C932 1.574 . S
C940 H935 0.949 . S
C940 C946 1.368 1_565 S
C941 C925 1.349 . S
C941 H933 0.950 . S
C941 C939 1.327 . S
C942 C930 1.349 . S
C942 H936 0.950 . S
C942 C943 1.327 . S
C943 H937 0.950 . S
C943 C942 1.327 . S
C943 C947 1.429 . S
C944 C927 1.574 . S
C944 H938 0.949 . S
C944 C948 1.368 1_545 S
C945 C926 1.429 . S
C945 C939 1.429 . S
C945 C946 1.523 . S
C946 C927 1.368 . S
C946 C940 1.368 1_545 S
C946 C945 1.523 . S
C947 C931 1.429 . S
C947 C943 1.429 . S
C947 C948 1.523 . S
C948 C932 1.368 . S
C948 C944 1.368 1_565 S
C948 C947 1.523 . S
H949 C924 0.950 . S
H950 C926 0.950 1_565 S
H951 C927 0.949 . S
H952 C929 0.950 . S
H953 C931 0.950 1_545 S
C954 C955 1.349 . S
C954 C956 1.327 . S
C954 H979 0.950 . S
C955 C954 1.349 . S
C955 C971 1.349 . S
C956 C954 1.327 . S
C956 C975 1.429 . S
C956 H980 0.950 1_545 S
C957 C974 1.591 . S
C957 C976 1.352 1_554 S
C957 H981 0.949 . S
H958 C962 0.949 . S
C959 C960 1.349 . S
C959 C961 1.327 . S
C959 H982 0.950 . S
C960 C959 1.349 . S
C960 C972 1.349 . S
C961 C959 1.327 . S
C961 C977 1.429 . S
C961 H983 0.950 1_565 S
C962 H958 0.949 . S
C962 C970 1.591 . S
C962 C978 1.352 1_556 S
H963 C971 0.950 . S
H964 C969 0.950 . S
H965 C970 0.949 . S
H966 C972 0.950 . S
H967 C973 0.950 . S
H968 C974 0.949 . S
C969 H964 0.950 . S
C969 C971 1.327 . S
C969 C975 1.429 . S
C970 C962 1.591 . S
C970 H965 0.949 . S
C970 C976 1.368 1_565 S
C971 C955 1.349 . S
C971 H963 0.950 . S
C971 C969 1.327 . S
C972 C960 1.349 . S
C972 H966 0.950 . S
C972 C973 1.327 . S
C973 H967 0.950 . S
C973 C972 1.327 . S
C973 C977 1.429 . S
C974 C957 1.591 . S
C974 H968 0.949 . S
C974 C978 1.368 1_545 S
C975 C956 1.429 . S
C975 C969 1.429 . S
C975 C976 1.523 . S
C976 C957 1.352 1_556 S
C976 C970 1.368 1_545 S
C976 C975 1.523 . S
C977 C961 1.429 . S
C977 C973 1.429 . S
C977 C978 1.523 . S
C978 C962 1.352 1_554 S
C978 C974 1.368 1_565 S
C978 C977 1.523 . S
H979 C954 0.950 . S
H980 C956 0.950 1_565 S
H981 C957 0.949 . S
H982 C959 0.950 . S
H983 C961 0.950 1_545 S
C984 C985 1.349 . S
C984 C986 1.327 . S
C984 H1009 0.950 . S
C985 C984 1.349 . S
C985 C1001 1.349 . S
C986 C984 1.327 . S
C986 C1005 1.429 . S
C986 H1010 0.950 . S
C987 C1004 1.574 1_656 S
C987 C1006 1.368 . S
C987 H1011 0.949 . S
H988 C992 0.949 . S
C989 C990 1.349 . S
C989 C991 1.327 . S
C989 H1012 0.950 . S
C990 C989 1.349 . S
C990 C1002 1.349 . S
C991 C989 1.327 . S
C991 C1007 1.429 . S
C991 H1013 0.950 . S
C992 H988 0.949 . S
C992 C1000 1.574 1_454 S
C992 C1008 1.368 . S
H993 C1001 0.950 . S
H994 C999 0.950 . S
H995 C1000 0.949 . S
H996 C1002 0.950 . S
H997 C1003 0.950 . S
H998 C1004 0.949 . S
C999 H994 0.950 . S
C999 C1001 1.327 . S
C999 C1005 1.429 . S
C1000 C992 1.574 1_656 S
C1000 H995 0.949 . S
C1000 C1006 1.368 . S
C1001 C985 1.349 . S
C1001 H993 0.950 . S
C1001 C999 1.327 . S
C1002 C990 1.349 . S
C1002 H996 0.950 . S
C1002 C1003 1.327 . S
C1003 H997 0.950 . S
C1003 C1002 1.327 . S
C1003 C1007 1.429 . S
C1004 C987 1.574 1_454 S
C1004 H998 0.949 . S
C1004 C1008 1.368 . S
C1005 C986 1.429 . S
C1005 C999 1.429 . S
C1005 C1006 1.523 . S
C1006 C987 1.368 . S
C1006 C1000 1.368 . S
C1006 C1005 1.523 . S
C1007 C991 1.429 . S
C1007 C1003 1.429 . S
C1007 C1008 1.523 . S
C1008 C992 1.368 . S
C1008 C1004 1.368 . S
C1008 C1007 1.523 . S
H1009 C984 0.950 . S
H1010 C986 0.950 . S
H1011 C987 0.949 . S
H1012 C989 0.950 . S
H1013 C991 0.950 . S
C1014 C1015 1.349 . S
C1014 C1016 1.327 . S
C1014 H1039 0.950 . S
C1015 C1014 1.349 . S
C1015 C1031 1.349 . S
C1016 C1014 1.327 . S
C1016 C1035 1.429 . S
C1016 H1040 0.950 . S
C1017 C1034 1.574 1_556 S
C1017 C1036 1.368 . S
C1017 H1041 0.949 . S
H1018 C1022 0.949 . S
C1019 C1020 1.349 . S
C1019 C1021 1.327 . S
C1019 H1042 0.950 . S
C1020 C1019 1.349 . S
C1020 C1032 1.349 . S
C1021 C1019 1.327 . S
C1021 C1037 1.429 . S
C1021 H1043 0.950 . S
C1022 H1018 0.949 . S
C1022 C1030 1.574 1_554 S
C1022 C1038 1.368 . S
H1023 C1031 0.950 . S
H1024 C1029 0.950 . S
H1025 C1030 0.949 . S
H1026 C1032 0.950 . S
H1027 C1033 0.950 . S
H1028 C1034 0.949 . S
C1029 H1024 0.950 . S
C1029 C1031 1.327 . S
C1029 C1035 1.429 . S
C1030 C1022 1.574 1_556 S
C1030 H1025 0.949 . S
C1030 C1036 1.368 . S
C1031 C1015 1.349 . S
C1031 H1023 0.950 . S
C1031 C1029 1.327 . S
C1032 C1020 1.349 . S
C1032 H1026 0.950 . S
C1032 C1033 1.327 . S
C1033 H1027 0.950 . S
C1033 C1032 1.327 . S
C1033 C1037 1.429 . S
C1034 C1017 1.574 1_554 S
C1034 H1028 0.949 . S
C1034 C1038 1.368 . S
C1035 C1016 1.429 . S
C1035 C1029 1.429 . S
C1035 C1036 1.523 . S
C1036 C1017 1.368 . S
C1036 C1030 1.368 . S
C1036 C1035 1.523 . S
C1037 C1021 1.429 . S
C1037 C1033 1.429 . S
C1037 C1038 1.523 . S
C1038 C1022 1.368 . S
C1038 C1034 1.368 . S
C1038 C1037 1.523 . S
H1039 C1014 0.950 . S
H1040 C1016 0.950 . S
H1041 C1017 0.949 . S
H1042 C1019 0.950 . S
H1043 C1021 0.950 . S
C1044 C1045 1.349 . S
C1044 C1046 1.327 . S
C1044 H1069 0.950 . S
C1045 C1044 1.349 . S
C1045 C1061 1.349 . S
C1046 C1044 1.327 . S
C1046 C1065 1.429 1_565 S
C1046 H1070 0.950 . S
C1047 C1064 1.574 . S
C1047 C1066 1.368 . S
C1047 H1071 0.949 . S
H1048 C1052 0.949 . S
C1049 C1050 1.349 . S
C1049 C1051 1.327 . S
C1049 H1072 0.950 . S
C1050 C1049 1.349 . S
C1050 C1062 1.349 . S
C1051 C1049 1.327 . S
C1051 C1067 1.429 . S
C1051 H1073 0.950 1_554 S
C1052 H1048 0.949 . S
C1052 C1060 1.574 1_554 S
C1052 C1068 1.368 . S
H1053 C1061 0.950 . S
H1054 C1059 0.987 . S
H1055 C1060 0.966 . S
H1056 C1062 0.950 . S
H1057 C1063 0.950 . S
H1058 C1064 0.949 . S
C1059 H1054 0.987 . S
C1059 C1061 1.296 1_545 S
C1059 C1065 1.424 . S
C1060 C1052 1.574 1_556 S
C1060 H1055 0.966 . S
C1060 C1066 1.368 . S
C1061 C1045 1.349 . S
C1061 H1053 0.950 . S
C1061 C1059 1.296 1_565 S
C1062 C1050 1.349 . S
C1062 H1056 0.950 . S
C1062 C1063 1.327 . S
C1063 H1057 0.950 . S
C1063 C1062 1.327 . S
C1063 C1067 1.429 . S
C1064 C1047 1.574 . S
C1064 H1058 0.949 . S
C1064 C1068 1.368 1_556 S
C1065 C1046 1.429 1_545 S
C1065 C1059 1.424 . S
C1065 C1066 1.523 . S
C1066 C1047 1.368 . S
C1066 C1060 1.368 . S
C1066 C1065 1.523 . S
C1067 C1051 1.429 . S
C1067 C1063 1.429 . S
C1067 C1068 1.523 . S
C1068 C1052 1.368 . S
C1068 C1064 1.368 1_554 S
C1068 C1067 1.523 . S
H1069 C1044 0.950 . S
H1070 C1046 0.950 . S
H1071 C1047 0.949 . S
H1072 C1049 0.950 . S
H1073 C1051 0.950 1_556 S
C1074 C1075 1.349 . S
C1074 C1076 1.327 . S
C1074 H1099 0.950 . S
C1075 C1074 1.349 . S
C1075 C1091 1.349 . S
C1076 C1074 1.327 . S
C1076 C1095 1.429 1_455 S
C1076 H1100 0.950 1_455 S
C1077 C1094 1.574 1_556 S
C1077 C1096 1.368 . S
C1077 H1101 0.949 . S
H1078 C1082 0.949 . S
C1079 C1080 1.349 . S
C1079 C1081 1.327 . S
C1079 H1102 0.950 . S
C1080 C1079 1.349 . S
C1080 C1092 1.349 . S
C1081 C1079 1.327 . S
C1081 C1097 1.429 . S
C1081 H1103 0.950 . S
C1082 H1078 0.949 . S
C1082 C1090 1.574 . S
C1082 C1098 1.368 1_556 S
H1083 C1091 0.950 . S
H1084 C1089 0.950 . S
H1085 C1090 0.949 . S
H1086 C1092 0.950 . S
H1087 C1093 0.950 . S
H1088 C1094 0.949 . S
C1089 H1084 0.950 . S
C1089 C1091 1.327 . S
C1089 C1095 1.429 1_455 S
C1090 C1082 1.574 . S
C1090 H1085 0.949 . S
C1090 C1096 1.368 . S
C1091 C1075 1.349 . S
C1091 H1083 0.950 . S
C1091 C1089 1.327 . S
C1092 C1080 1.349 . S
C1092 H1086 0.950 . S
C1092 C1093 1.327 . S
C1093 H1087 0.950 . S
C1093 C1092 1.327 . S
C1093 C1097 1.429 . S
C1094 C1077 1.574 1_554 S
C1094 H1088 0.949 . S
C1094 C1098 1.368 . S
C1095 C1076 1.429 1_655 S
C1095 C1089 1.429 1_655 S
C1095 C1096 1.523 . S
C1096 C1077 1.368 . S
C1096 C1090 1.368 . S
C1096 C1095 1.523 . S
C1097 C1081 1.429 . S
C1097 C1093 1.429 . S
C1097 C1098 1.523 . S
C1098 C1082 1.368 1_554 S
C1098 C1094 1.368 . S
C1098 C1097 1.523 . S
H1099 C1074 0.950 . S
H1100 C1076 0.950 1_655 S
H1101 C1077 0.949 . S
H1102 C1079 0.950 . S
H1103 C1081 0.950 . S
C1104 C1105 1.349 . S
C1104 C1106 1.327 . S
C1104 H1129 0.950 . S
C1105 C1104 1.349 . S
C1105 C1121 1.349 . S
C1106 C1104 1.327 . S
C1106 C1125 1.429 . S
C1106 H1130 0.950 1_554 S
C1107 C1124 1.574 1_554 S
C1107 C1126 1.368 . S
C1107 H1131 0.949 . S
H1108 C1112 0.949 . S
C1109 C1110 1.349 . S
C1109 C1111 1.327 . S
C1109 H1132 0.950 . S
C1110 C1109 1.349 . S
C1110 C1122 1.349 . S
C1111 C1109 1.327 . S
C1111 C1127 1.429 . S
C1111 H1133 0.950 . S
C1112 H1108 0.949 . S
C1112 C1120 1.574 . S
C1112 C1128 1.368 . S
H1113 C1121 0.950 . S
H1114 C1119 0.950 . S
H1115 C1120 0.949 . S
H1116 C1122 0.950 . S
H1117 C1123 0.950 . S
H1118 C1124 0.949 1_554 S
C1119 H1114 0.950 . S
C1119 C1121 1.327 . S
C1119 C1125 1.429 . S
C1120 C1112 1.574 . S
C1120 H1115 0.949 . S
C1120 C1126 1.368 1_556 S
C1121 C1105 1.349 . S
C1121 H1113 0.950 . S
C1121 C1119 1.327 . S
C1122 C1110 1.349 . S
C1122 H1116 0.950 . S
C1122 C1123 1.327 . S
C1123 H1117 0.950 . S
C1123 C1122 1.327 . S
C1123 C1127 1.429 . S
C1124 C1107 1.574 1_556 S
C1124 H1118 0.949 1_556 S
C1124 C1128 1.368 . S
C1125 C1106 1.429 . S
C1125 C1119 1.429 . S
C1125 C1126 1.523 . S
C1126 C1107 1.368 . S
C1126 C1120 1.368 1_554 S
C1126 C1125 1.523 . S
C1127 C1111 1.429 . S
C1127 C1123 1.429 . S
C1127 C1128 1.523 . S
C1128 C1112 1.368 . S
C1128 C1124 1.368 . S
C1128 C1127 1.523 . S
H1129 C1104 0.950 . S
H1130 C1106 0.950 1_556 S
H1131 C1107 0.949 . S
H1132 C1109 0.950 . S
H1133 C1111 0.950 . S
C1134 C1135 1.349 . S
C1134 C1136 1.327 . S
C1134 H1159 0.950 . S
C1135 C1134 1.349 . S
C1135 C1151 1.349 . S
C1136 C1134 1.327 . S
C1136 C1155 1.429 1_655 S
C1136 H1160 0.950 . S
C1137 C1154 1.574 . S
C1137 C1156 1.368 . S
C1137 H1161 0.949 . S
H1138 C1142 0.949 . S
C1139 C1140 1.349 . S
C1139 C1141 1.327 . S
C1139 H1162 0.950 . S
C1140 C1139 1.349 . S
C1140 C1152 1.349 . S
C1141 C1139 1.327 . S
C1141 C1157 1.429 . S
C1141 H1163 0.950 . S
C1142 H1138 0.949 . S
C1142 C1150 1.574 . S
C1142 C1158 1.368 . S
H1143 C1151 0.950 . S
H1144 C1149 0.950 . S
H1145 C1150 0.949 . S
H1146 C1152 0.950 . S
H1147 C1153 0.950 . S
H1148 C1154 0.949 . S
C1149 H1144 0.950 . S
C1149 C1151 1.327 1_455 S
C1149 C1155 1.429 . S
C1150 C1142 1.574 . S
C1150 H1145 0.949 . S
C1150 C1156 1.368 . S
C1151 C1135 1.349 . S
C1151 H1143 0.950 . S
C1151 C1149 1.327 1_655 S
C1152 C1140 1.349 . S
C1152 H1146 0.950 . S
C1152 C1153 1.327 . S
C1153 H1147 0.950 . S
C1153 C1152 1.327 . S
C1153 C1157 1.429 . S
C1154 C1137 1.574 . S
C1154 H1148 0.949 . S
C1154 C1158 1.368 . S
C1155 C1136 1.429 1_455 S
C1155 C1149 1.429 . S
C1155 C1156 1.523 . S
C1156 C1137 1.368 . S
C1156 C1150 1.368 . S
C1156 C1155 1.523 . S
C1157 C1141 1.429 . S
C1157 C1153 1.429 . S
C1157 C1158 1.523 . S
C1158 C1142 1.368 . S
C1158 C1154 1.368 . S
C1158 C1157 1.523 . S
H1159 C1134 0.950 . S
H1160 C1136 0.950 . S
H1161 C1137 0.949 . S
H1162 C1139 0.950 . S
H1163 C1141 0.950 . S
C1164 C1165 1.349 . S
C1164 C1166 1.327 . S
C1164 H1189 0.950 . S
C1165 C1164 1.349 . S
C1165 C1181 1.349 . S
C1166 C1164 1.327 . S
C1166 C1185 1.429 . S
C1166 H1190 0.950 . S
C1167 C1184 1.574 . S
C1167 C1186 1.368 . S
C1167 H1191 0.949 . S
H1168 C1172 0.949 . S
C1169 C1170 1.349 . S
C1169 C1171 1.327 . S
C1169 H1192 0.950 . S
C1170 C1169 1.349 . S
C1170 C1182 1.349 . S
C1171 C1169 1.327 . S
C1171 C1187 1.429 . S
C1171 H1193 0.950 . S
C1172 H1168 0.949 . S
C1172 C1180 1.574 . S
C1172 C1188 1.368 . S
H1173 C1181 0.950 . S
H1174 C1179 0.950 . S
H1175 C1180 0.949 . S
H1176 C1182 0.950 . S
H1177 C1183 0.950 . S
H1178 C1184 0.949 . S
C1179 H1174 0.950 . S
C1179 C1181 1.327 . S
C1179 C1185 1.429 . S
C1180 C1172 1.574 . S
C1180 H1175 0.949 . S
C1180 C1186 1.368 . S
C1181 C1165 1.349 . S
C1181 H1173 0.950 . S
C1181 C1179 1.327 . S
C1182 C1170 1.349 . S
C1182 H1176 0.950 . S
C1182 C1183 1.327 . S
C1183 H1177 0.950 . S
C1183 C1182 1.327 . S
C1183 C1187 1.429 . S
C1184 C1167 1.574 . S
C1184 H1178 0.949 . S
C1184 C1188 1.368 . S
C1185 C1166 1.429 . S
C1185 C1179 1.429 . S
C1185 C1186 1.523 . S
C1186 C1167 1.368 . S
C1186 C1180 1.368 . S
C1186 C1185 1.523 . S
C1187 C1171 1.429 . S
C1187 C1183 1.429 . S
C1187 C1188 1.523 . S
C1188 C1172 1.368 . S
C1188 C1184 1.368 . S
C1188 C1187 1.523 . S
H1189 C1164 0.950 . S
H1190 C1166 0.950 . S
H1191 C1167 0.949 . S
H1192 C1169 0.950 . S
H1193 C1171 0.950 . S
C1194 C1195 1.349 . S
C1194 C1196 1.327 1_545 S
C1194 H1219 0.950 . S
C1195 C1194 1.349 . S
C1195 C1211 1.349 . S
C1196 C1194 1.327 1_565 S
C1196 C1215 1.429 . S
C1196 H1220 0.950 . S
C1197 C1214 1.574 . S
C1197 C1216 1.368 . S
C1197 H1221 0.949 . S
H1198 C1202 0.949 . S
C1199 C1200 1.349 . S
C1199 C1201 1.327 . S
C1199 H1222 0.950 . S
C1200 C1199 1.349 . S
C1200 C1212 1.349 . S
C1201 C1199 1.327 . S
C1201 C1217 1.429 . S
C1201 H1223 0.950 . S
C1202 H1198 0.949 . S
C1202 C1210 1.574 . S
C1202 C1218 1.368 . S
H1203 C1211 0.950 . S
H1204 C1209 0.950 . S
H1205 C1210 0.949 . S
H1206 C1212 0.950 . S
H1207 C1213 0.950 . S
H1208 C1214 0.949 . S
C1209 H1204 0.950 . S
C1209 C1211 1.327 . S
C1209 C1215 1.429 1_545 S
C1210 C1202 1.574 . S
C1210 H1205 0.949 . S
C1210 C1216 1.368 . S
C1211 C1195 1.349 . S
C1211 H1203 0.950 . S
C1211 C1209 1.327 . S
C1212 C1200 1.349 . S
C1212 H1206 0.950 . S
C1212 C1213 1.327 . S
C1213 H1207 0.950 . S
C1213 C1212 1.327 . S
C1213 C1217 1.429 . S
C1214 C1197 1.574 . S
C1214 H1208 0.949 . S
C1214 C1218 1.368 . S
C1215 C1196 1.429 . S
C1215 C1209 1.429 1_565 S
C1215 C1216 1.523 . S
C1216 C1197 1.368 . S
C1216 C1210 1.368 . S
C1216 C1215 1.523 . S
C1217 C1201 1.429 . S
C1217 C1213 1.429 . S
C1217 C1218 1.523 . S
C1218 C1202 1.368 . S
C1218 C1214 1.368 . S
C1218 C1217 1.523 . S
H1219 C1194 0.950 . S
H1220 C1196 0.950 . S
H1221 C1197 0.949 . S
H1222 C1199 0.950 . S
H1223 C1201 0.950 . S
C1224 C1225 1.349 . S
C1224 C1226 1.327 . S
C1224 H1249 0.950 . S
C1225 C1224 1.349 . S
C1225 C1241 1.349 . S
C1226 C1224 1.327 . S
C1226 C1245 1.429 . S
C1226 H1250 0.950 . S
C1227 C1244 1.574 . S
C1227 C1246 1.368 1_554 S
C1227 H1251 0.949 . S
H1228 C1232 0.946 1_556 S
C1229 C1230 1.349 . S
C1229 C1231 1.327 1_545 S
C1229 H1252 0.950 . S
C1230 C1229 1.349 . S
C1230 C1242 1.349 . S
C1231 C1229 1.327 1_565 S
C1231 C1247 1.429 . S
C1231 H1253 0.950 . S
C1232 H1228 0.946 1_554 S
C1232 C1240 1.568 1_554 S
C1232 C1248 1.378 . S
H1233 C1241 0.950 . S
H1234 C1239 0.950 1_554 S
H1235 C1240 0.949 . S
H1236 C1242 0.950 . S
H1237 C1243 0.950 . S
H1238 C1244 0.949 . S
C1239 H1234 0.950 1_556 S
C1239 C1241 1.327 . S
C1239 C1245 1.429 . S
C1240 C1232 1.568 1_556 S
C1240 H1235 0.949 . S
C1240 C1246 1.368 . S
C1241 C1225 1.349 . S
C1241 H1233 0.950 . S
C1241 C1239 1.327 . S
C1242 C1230 1.349 . S
C1242 H1236 0.950 . S
C1242 C1243 1.327 . S
C1243 H1237 0.950 . S
C1243 C1242 1.327 . S
C1243 C1247 1.429 1_545 S
C1244 C1227 1.574 . S
C1244 H1238 0.949 . S
C1244 C1248 1.368 . S
C1245 C1226 1.429 . S
C1245 C1239 1.429 . S
C1245 C1246 1.523 . S
C1246 C1227 1.368 1_556 S
C1246 C1240 1.368 . S
C1246 C1245 1.523 . S
C1247 C1231 1.429 . S
C1247 C1243 1.429 1_565 S
C1247 C1248 1.523 . S
C1248 C1232 1.378 . S
C1248 C1244 1.368 . S
C1248 C1247 1.523 . S
H1249 C1224 0.950 . S
H1250 C1226 0.950 . S
H1251 C1227 0.949 . S
H1252 C1229 0.950 . S
H1253 C1231 0.950 . S
C1254 C1255 1.349 . S
C1254 C1256 1.327 . S
C1254 H1279 0.950 . S
C1255 C1254 1.349 . S
C1255 C1271 1.349 . S
C1256 C1254 1.327 . S
C1256 C1275 1.429 . S
C1256 H1280 0.950 . S
C1257 C1274 1.574 . S
C1257 C1276 1.368 1_554 S
C1257 H1281 0.949 . S
H1258 C1262 0.949 . S
C1259 C1260 1.349 . S
C1259 C1261 1.327 . S
C1259 H1282 0.950 . S
C1260 C1259 1.349 . S
C1260 C1272 1.349 . S
C1261 C1259 1.327 . S
C1261 C1277 1.429 1_655 S
C1261 H1283 0.950 . S
C1262 H1258 0.949 . S
C1262 C1270 1.551 1_554 S
C1262 C1278 1.368 . S
H1263 C1271 0.950 . S
H1264 C1269 0.950 . S
H1265 C1270 0.968 . S
H1266 C1272 0.950 . S
H1267 C1273 0.942 1_455 S
H1268 C1274 0.949 . S
C1269 H1264 0.950 . S
C1269 C1271 1.327 . S
C1269 C1275 1.429 . S
C1270 C1262 1.551 1_556 S
C1270 H1265 0.968 . S
C1270 C1276 1.371 . S
C1271 C1255 1.349 . S
C1271 H1263 0.950 . S
C1271 C1269 1.327 . S
C1272 C1260 1.349 . S
C1272 H1266 0.950 . S
C1272 C1273 1.327 . S
C1273 H1267 0.942 1_655 S
C1273 C1272 1.327 . S
C1273 C1277 1.429 1_655 S
C1274 C1257 1.574 . S
C1274 H1268 0.949 . S
C1274 C1278 1.368 . S
C1275 C1256 1.429 . S
C1275 C1269 1.429 . S
C1275 C1276 1.523 . S
C1276 C1257 1.368 1_556 S
C1276 C1270 1.371 . S
C1276 C1275 1.523 . S
C1277 C1261 1.429 1_455 S
C1277 C1273 1.429 1_455 S
C1277 C1278 1.523 . S
C1278 C1262 1.368 . S
C1278 C1274 1.368 . S
C1278 C1277 1.523 . S
H1279 C1254 0.950 . S
H1280 C1256 0.950 . S
H1281 C1257 0.949 . S
H1282 C1259 0.950 . S
H1283 C1261 0.950 . S
C1284 C1285 1.349 . S
C1284 C1286 1.327 . S
C1284 H1309 0.950 . S
C1285 C1284 1.349 . S
C1285 C1301 1.349 . S
C1286 C1284 1.327 . S
C1286 C1305 1.429 . S
C1286 H1310 0.950 . S
C1287 C1304 1.559 1_556 S
C1287 C1306 1.370 . S
C1287 H1311 0.961 . S
H1288 C1292 0.949 . S
C1289 C1290 1.349 . S
C1289 C1291 1.327 . S
C1289 H1312 0.950 . S
C1290 C1289 1.349 . S
C1290 C1302 1.349 . S
C1291 C1289 1.327 . S
C1291 C1307 1.429 . S
C1291 H1313 0.950 . S
C1292 H1288 0.949 . S
C1292 C1300 1.574 . S
C1292 C1308 1.368 . S
H1293 C1301 0.950 . S
H1294 C1299 0.950 . S
H1295 C1300 0.949 . S
H1296 C1302 0.950 . S
H1297 C1303 0.950 . S
H1298 C1304 0.949 . S
C1299 H1294 0.950 . S
C1299 C1301 1.327 . S
C1299 C1305 1.429 . S
C1300 C1292 1.574 . S
C1300 H1295 0.949 . S
C1300 C1306 1.368 1_554 S
C1301 C1285 1.349 . S
C1301 H1293 0.950 . S
C1301 C1299 1.327 . S
C1302 C1290 1.349 . S
C1302 H1296 0.950 . S
C1302 C1303 1.327 . S
C1303 H1297 0.950 . S
C1303 C1302 1.327 . S
C1303 C1307 1.429 . S
C1304 C1287 1.559 1_554 S
C1304 H1298 0.949 . S
C1304 C1308 1.368 . S
C1305 C1286 1.429 . S
C1305 C1299 1.429 . S
C1305 C1306 1.523 . S
C1306 C1287 1.370 . S
C1306 C1300 1.368 1_556 S
C1306 C1305 1.523 . S
C1307 C1291 1.429 . S
C1307 C1303 1.429 . S
C1307 C1308 1.523 . S
C1308 C1292 1.368 . S
C1308 C1304 1.368 . S
C1308 C1307 1.523 . S
H1309 C1284 0.950 . S
H1310 C1286 0.950 . S
H1311 C1287 0.961 . S
H1312 C1289 0.950 . S
H1313 C1291 0.950 . S
C1314 C1315 1.349 . S
C1314 C1316 1.327 . S
C1314 H1339 0.950 . S
C1315 C1314 1.349 . S
C1315 C1331 1.349 . S
C1316 C1314 1.327 . S
C1316 C1335 1.429 . S
C1316 H1340 0.950 . S
C1317 C1334 1.574 . S
C1317 C1336 1.368 . S
C1317 H1341 0.949 . S
H1318 C1322 0.949 . S
C1319 C1320 1.349 . S
C1319 C1321 1.327 . S
C1319 H1342 0.950 . S
C1320 C1319 1.349 . S
C1320 C1332 1.349 . S
C1321 C1319 1.327 . S
C1321 C1337 1.429 1_455 S
C1321 H1343 0.950 . S
C1322 H1318 0.949 . S
C1322 C1330 1.574 . S
C1322 C1338 1.368 . S
H1323 C1331 0.950 . S
H1324 C1329 0.950 . S
H1325 C1330 0.949 . S
H1326 C1332 0.950 . S
H1327 C1333 0.950 . S
H1328 C1334 0.949 . S
C1329 H1324 0.950 . S
C1329 C1331 1.327 . S
C1329 C1335 1.429 . S
C1330 C1322 1.574 . S
C1330 H1325 0.949 . S
C1330 C1336 1.368 . S
C1331 C1315 1.349 . S
C1331 H1323 0.950 . S
C1331 C1329 1.327 . S
C1332 C1320 1.349 . S
C1332 H1326 0.950 . S
C1332 C1333 1.327 1_455 S
C1333 H1327 0.950 . S
C1333 C1332 1.327 1_655 S
C1333 C1337 1.429 . S
C1334 C1317 1.574 . S
C1334 H1328 0.949 . S
C1334 C1338 1.368 . S
C1335 C1316 1.429 . S
C1335 C1329 1.429 . S
C1335 C1336 1.523 . S
C1336 C1317 1.368 . S
C1336 C1330 1.368 . S
C1336 C1335 1.523 . S
C1337 C1321 1.429 1_655 S
C1337 C1333 1.429 . S
C1337 C1338 1.523 . S
C1338 C1322 1.368 . S
C1338 C1334 1.368 . S
C1338 C1337 1.523 . S
H1339 C1314 0.950 . S
H1340 C1316 0.950 . S
H1341 C1317 0.949 . S
H1342 C1319 0.950 . S
H1343 C1321 0.950 . S
C1344 C1345 1.349 . S
C1344 C1346 1.327 . S
C1344 H1369 0.950 . S
C1345 C1344 1.349 . S
C1345 C1361 1.349 . S
C1346 C1344 1.327 . S
C1346 C1365 1.429 . S
C1346 H1370 0.950 . S
C1347 C1364 1.574 . S
C1347 C1366 1.368 . S
C1347 H1371 0.949 . S
H1348 C1352 0.949 . S
C1349 C1350 1.349 . S
C1349 C1351 1.327 . S
C1349 H1372 0.950 . S
C1350 C1349 1.349 . S
C1350 C1362 1.349 . S
C1351 C1349 1.327 . S
C1351 C1367 1.429 . S
C1351 H1373 0.950 . S
C1352 H1348 0.949 . S
C1352 C1360 1.574 . S
C1352 C1368 1.368 . S
H1353 C1361 0.950 . S
H1354 C1359 0.950 . S
H1355 C1360 0.949 . S
H1356 C1362 0.950 . S
H1357 C1363 0.950 . S
H1358 C1364 0.949 . S
C1359 H1354 0.950 . S
C1359 C1361 1.327 . S
C1359 C1365 1.429 . S
C1360 C1352 1.574 . S
C1360 H1355 0.949 . S
C1360 C1366 1.368 . S
C1361 C1345 1.349 . S
C1361 H1353 0.950 . S
C1361 C1359 1.327 . S
C1362 C1350 1.349 . S
C1362 H1356 0.950 . S
C1362 C1363 1.327 . S
C1363 H1357 0.950 . S
C1363 C1362 1.327 . S
C1363 C1367 1.429 . S
C1364 C1347 1.574 . S
C1364 H1358 0.949 . S
C1364 C1368 1.368 . S
C1365 C1346 1.429 . S
C1365 C1359 1.429 . S
C1365 C1366 1.523 . S
C1366 C1347 1.368 . S
C1366 C1360 1.368 . S
C1366 C1365 1.523 . S
C1367 C1351 1.429 . S
C1367 C1363 1.429 . S
C1367 C1368 1.523 . S
C1368 C1352 1.368 . S
C1368 C1364 1.368 . S
C1368 C1367 1.523 . S
H1369 C1344 0.950 . S
H1370 C1346 0.950 . S
H1371 C1347 0.949 . S
H1372 C1349 0.950 . S
H1373 C1351 0.950 . S
C1374 C1375 1.349 . S
C1374 C1376 1.327 . S
C1374 H1399 0.950 . S
C1375 C1374 1.349 . S
C1375 C1391 1.349 . S
C1376 C1374 1.327 . S
C1376 C1395 1.429 1_565 S
C1376 H1400 0.950 . S
C1377 C1394 1.574 . S
C1377 C1396 1.368 . S
C1377 H1401 0.949 . S
H1378 C1382 0.949 . S
C1379 C1380 1.349 . S
C1379 C1381 1.327 . S
C1379 H1402 0.950 . S
C1380 C1379 1.349 . S
C1380 C1392 1.349 . S
C1381 C1379 1.327 . S
C1381 C1397 1.429 . S
C1381 H1403 0.950 . S
C1382 H1378 0.949 . S
C1382 C1390 1.574 . S
C1382 C1398 1.368 . S
H1383 C1391 0.950 . S
H1384 C1389 0.950 1_545 S
H1385 C1390 0.949 . S
H1386 C1392 0.950 . S
H1387 C1393 0.950 . S
H1388 C1394 0.949 . S
C1389 H1384 0.950 1_565 S
C1389 C1391 1.327 . S
C1389 C1395 1.429 1_565 S
C1390 C1382 1.574 . S
C1390 H1385 0.949 . S
C1390 C1396 1.368 . S
C1391 C1375 1.349 . S
C1391 H1383 0.950 . S
C1391 C1389 1.327 . S
C1392 C1380 1.349 . S
C1392 H1386 0.950 . S
C1392 C1393 1.327 . S
C1393 H1387 0.950 . S
C1393 C1392 1.327 . S
C1393 C1397 1.429 . S
C1394 C1377 1.574 . S
C1394 H1388 0.949 . S
C1394 C1398 1.368 . S
C1395 C1376 1.429 1_545 S
C1395 C1389 1.429 1_545 S
C1395 C1396 1.523 . S
C1396 C1377 1.368 . S
C1396 C1390 1.368 . S
C1396 C1395 1.523 . S
C1397 C1381 1.429 . S
C1397 C1393 1.429 . S
C1397 C1398 1.523 . S
C1398 C1382 1.368 . S
C1398 C1394 1.368 . S
C1398 C1397 1.523 . S
H1399 C1374 0.950 . S
H1400 C1376 0.950 . S
H1401 C1377 0.949 . S
H1402 C1379 0.950 . S
H1403 C1381 0.950 . S
C1404 C1405 1.349 . S
C1404 C1406 1.327 . S
C1404 H1429 0.950 . S
C1405 C1404 1.349 . S
C1405 C1421 1.349 . S
C1406 C1404 1.327 . S
C1406 C1425 1.429 . S
C1406 H1430 0.950 . S
C1407 C1424 1.574 . S
C1407 C1426 1.368 . S
C1407 H1431 0.949 . S
H1408 C1412 0.949 . S
C1409 C1410 1.349 . S
C1409 C1411 1.327 . S
C1409 H1432 0.950 . S
C1410 C1409 1.349 . S
C1410 C1422 1.349 . S
C1411 C1409 1.327 . S
C1411 C1427 1.429 . S
C1411 H1433 0.950 . S
C1412 H1408 0.949 . S
C1412 C1420 1.574 . S
C1412 C1428 1.368 . S
H1413 C1421 0.950 . S
H1414 C1419 0.950 . S
H1415 C1420 0.949 . S
H1416 C1422 0.950 . S
H1417 C1423 0.950 . S
H1418 C1424 0.949 . S
C1419 H1414 0.950 . S
C1419 C1421 1.327 . S
C1419 C1425 1.429 . S
C1420 C1412 1.574 . S
C1420 H1415 0.949 . S
C1420 C1426 1.368 . S
C1421 C1405 1.349 . S
C1421 H1413 0.950 . S
C1421 C1419 1.327 . S
C1422 C1410 1.349 . S
C1422 H1416 0.950 . S
C1422 C1423 1.327 . S
C1423 H1417 0.950 . S
C1423 C1422 1.327 . S
C1423 C1427 1.429 . S
C1424 C1407 1.574 . S
C1424 H1418 0.949 . S
C1424 C1428 1.368 . S
C1425 C1406 1.429 . S
C1425 C1419 1.429 . S
C1425 C1426 1.523 . S
C1426 C1407 1.368 . S
C1426 C1420 1.368 . S
C1426 C1425 1.523 . S
C1427 C1411 1.429 . S
C1427 C1423 1.429 . S
C1427 C1428 1.523 . S
C1428 C1412 1.368 . S
C1428 C1424 1.368 . S
C1428 C1427 1.523 . S
H1429 C1404 0.950 . S
H1430 C1406 0.950 . S
H1431 C1407 0.949 . S
H1432 C1409 0.950 . S
H1433 C1411 0.950 . S
C1434 C1435 1.349 . S
C1434 C1436 1.327 . S
C1434 H1459 0.950 . S
C1435 C1434 1.349 . S
C1435 C1451 1.349 . S
C1436 C1434 1.327 . S
C1436 C1455 1.429 . S
C1436 H1460 0.950 . S
C1437 C1454 1.574 . S
C1437 C1456 1.368 . S
C1437 H1461 0.949 . S
H1438 C1442 0.949 . S
C1439 C1440 1.349 . S
C1439 C1441 1.327 . S
C1439 H1462 0.950 . S
C1440 C1439 1.349 . S
C1440 C1452 1.349 . S
C1441 C1439 1.327 . S
C1441 C1457 1.429 . S
C1441 H1463 0.950 . S
C1442 H1438 0.949 . S
C1442 C1450 1.574 . S
C1442 C1458 1.368 . S
H1443 C1451 0.950 . S
H1444 C1449 0.950 . S
H1445 C1450 0.949 . S
H1446 C1452 0.950 . S
H1447 C1453 0.950 . S
H1448 C1454 0.949 . S
C1449 H1444 0.950 . S
C1449 C1451 1.327 . S
C1449 C1455 1.429 . S
C1450 C1442 1.574 . S
C1450 H1445 0.949 . S
C1450 C1456 1.368 . S
C1451 C1435 1.349 . S
C1451 H1443 0.950 . S
C1451 C1449 1.327 . S
C1452 C1440 1.349 . S
C1452 H1446 0.950 . S
C1452 C1453 1.327 . S
C1453 H1447 0.950 . S
C1453 C1452 1.327 . S
C1453 C1457 1.429 . S
C1454 C1437 1.574 . S
C1454 H1448 0.949 . S
C1454 C1458 1.368 . S
C1455 C1436 1.429 . S
C1455 C1449 1.429 . S
C1455 C1456 1.523 . S
C1456 C1437 1.368 . S
C1456 C1450 1.368 . S
C1456 C1455 1.523 . S
C1457 C1441 1.429 . S
C1457 C1453 1.429 . S
C1457 C1458 1.523 . S
C1458 C1442 1.368 . S
C1458 C1454 1.368 . S
C1458 C1457 1.523 . S
H1459 C1434 0.950 . S
H1460 C1436 0.950 . S
H1461 C1437 0.949 . S
H1462 C1439 0.950 . S
H1463 C1441 0.950 . S
C1464 C1465 1.349 . S
C1464 C1466 1.327 . S
C1464 H1489 0.950 . S
C1465 C1464 1.349 . S
C1465 C1481 1.349 . S
C1466 C1464 1.327 . S
C1466 C1485 1.429 . S
C1466 H1490 0.950 . S
C1467 C1484 1.574 . S
C1467 C1486 1.368 . S
C1467 H1491 0.949 . S
H1468 C1472 0.949 . S
C1469 C1470 1.349 . S
C1469 C1471 1.327 . S
C1469 H1492 0.950 . S
C1470 C1469 1.349 . S
C1470 C1482 1.349 . S
C1471 C1469 1.327 . S
C1471 C1487 1.429 . S
C1471 H1493 0.950 . S
C1472 H1468 0.949 . S
C1472 C1480 1.574 . S
C1472 C1488 1.368 . S
H1473 C1481 0.950 . S
H1474 C1479 0.950 . S
H1475 C1480 0.949 . S
H1476 C1482 0.950 . S
H1477 C1483 0.950 . S
H1478 C1484 0.949 . S
C1479 H1474 0.950 . S
C1479 C1481 1.327 . S
C1479 C1485 1.429 . S
C1480 C1472 1.574 . S
C1480 H1475 0.949 . S
C1480 C1486 1.368 . S
C1481 C1465 1.349 . S
C1481 H1473 0.950 . S
C1481 C1479 1.327 . S
C1482 C1470 1.349 . S
C1482 H1476 0.950 . S
C1482 C1483 1.327 . S
C1483 H1477 0.950 . S
C1483 C1482 1.327 . S
C1483 C1487 1.429 . S
C1484 C1467 1.574 . S
C1484 H1478 0.949 . S
C1484 C1488 1.368 . S
C1485 C1466 1.429 . S
C1485 C1479 1.429 . S
C1485 C1486 1.523 . S
C1486 C1467 1.368 . S
C1486 C1480 1.368 . S
C1486 C1485 1.523 . S
C1487 C1471 1.429 . S
C1487 C1483 1.429 . S
C1487 C1488 1.523 . S
C1488 C1472 1.368 . S
C1488 C1484 1.368 . S
C1488 C1487 1.523 . S
H1489 C1464 0.950 . S
H1490 C1466 0.950 . S
H1491 C1467 0.949 . S
H1492 C1469 0.950 . S
H1493 C1471 0.950 . S
C1494 C1495 1.349 . S
C1494 C1496 1.327 . S
C1494 H1519 0.950 . S
C1495 C1494 1.349 . S
C1495 C1511 1.349 . S
C1496 C1494 1.327 . S
C1496 C1515 1.429 . S
C1496 H1520 0.950 . S
C1497 C1514 1.574 . S
C1497 C1516 1.368 . S
C1497 H1521 0.949 . S
H1498 C1502 0.949 . S
C1499 C1500 1.349 . S
C1499 C1501 1.327 . S
C1499 H1522 0.950 . S
C1500 C1499 1.349 . S
C1500 C1512 1.349 . S
C1501 C1499 1.327 . S
C1501 C1517 1.429 . S
C1501 H1523 0.950 . S
C1502 H1498 0.949 . S
C1502 C1510 1.574 . S
C1502 C1518 1.368 . S
H1503 C1511 0.950 . S
H1504 C1509 0.950 . S
H1505 C1510 0.949 . S
H1506 C1512 0.950 . S
H1507 C1513 0.950 . S
H1508 C1514 0.949 . S
C1509 H1504 0.950 . S
C1509 C1511 1.327 . S
C1509 C1515 1.429 . S
C1510 C1502 1.574 . S
C1510 H1505 0.949 . S
C1510 C1516 1.368 . S
C1511 C1495 1.349 . S
C1511 H1503 0.950 . S
C1511 C1509 1.327 . S
C1512 C1500 1.349 . S
C1512 H1506 0.950 . S
C1512 C1513 1.327 . S
C1513 H1507 0.950 . S
C1513 C1512 1.327 . S
C1513 C1517 1.429 . S
C1514 C1497 1.574 . S
C1514 H1508 0.949 . S
C1514 C1518 1.368 . S
C1515 C1496 1.429 . S
C1515 C1509 1.429 . S
C1515 C1516 1.523 . S
C1516 C1497 1.368 . S
C1516 C1510 1.368 . S
C1516 C1515 1.523 . S
C1517 C1501 1.429 . S
C1517 C1513 1.429 . S
C1517 C1518 1.523 . S
C1518 C1502 1.368 . S
C1518 C1514 1.368 . S
C1518 C1517 1.523 . S
H1519 C1494 0.950 . S
H1520 C1496 0.950 . S
H1521 C1497 0.949 . S
H1522 C1499 0.950 . S
H1523 C1501 0.950 . S
C1524 C1525 1.349 . S
C1524 C1526 1.327 . S
C1524 H1549 0.950 . S
C1525 C1524 1.349 . S
C1525 C1541 1.349 . S
C1526 C1524 1.327 . S
C1526 C1545 1.429 . S
C1526 H1550 0.950 . S
C1527 C1544 1.574 . S
C1527 C1546 1.368 . S
C1527 H1551 0.949 . S
H1528 C1532 0.949 . S
C1529 C1530 1.349 . S
C1529 C1531 1.327 . S
C1529 H1552 0.950 . S
C1530 C1529 1.349 . S
C1530 C1542 1.349 . S
C1531 C1529 1.327 . S
C1531 C1547 1.429 . S
C1531 H1553 0.950 . S
C1532 H1528 0.949 . S
C1532 C1540 1.574 . S
C1532 C1548 1.368 . S
H1533 C1541 0.950 . S
H1534 C1539 0.950 . S
H1535 C1540 0.949 . S
H1536 C1542 0.950 . S
H1537 C1543 0.950 . S
H1538 C1544 0.949 . S
C1539 H1534 0.950 . S
C1539 C1541 1.327 . S
C1539 C1545 1.429 . S
C1540 C1532 1.574 . S
C1540 H1535 0.949 . S
C1540 C1546 1.368 . S
C1541 C1525 1.349 . S
C1541 H1533 0.950 . S
C1541 C1539 1.327 . S
C1542 C1530 1.349 . S
C1542 H1536 0.950 . S
C1542 C1543 1.327 . S
C1543 H1537 0.950 . S
C1543 C1542 1.327 . S
C1543 C1547 1.429 . S
C1544 C1527 1.574 . S
C1544 H1538 0.949 . S
C1544 C1548 1.368 . S
C1545 C1526 1.429 . S
C1545 C1539 1.429 . S
C1545 C1546 1.523 . S
C1546 C1527 1.368 . S
C1546 C1540 1.368 . S
C1546 C1545 1.523 . S
C1547 C1531 1.429 . S
C1547 C1543 1.429 . S
C1547 C1548 1.523 . S
C1548 C1532 1.368 . S
C1548 C1544 1.368 . S
C1548 C1547 1.523 . S
H1549 C1524 0.950 . S
H1550 C1526 0.950 . S
H1551 C1527 0.949 . S
H1552 C1529 0.950 . S
H1553 C1531 0.950 . S
C1554 C1555 1.349 . S
C1554 C1556 1.327 . S
C1554 H1579 0.950 . S
C1555 C1554 1.349 . S
C1555 C1571 1.349 . S
C1556 C1554 1.327 . S
C1556 C1575 1.429 . S
C1556 H1580 0.950 . S
C1557 C1574 1.574 . S
C1557 C1576 1.368 . S
C1557 H1581 0.949 . S
H1558 C1562 0.949 . S
C1559 C1560 1.349 . S
C1559 C1561 1.327 . S
C1559 H1582 0.950 . S
C1560 C1559 1.349 . S
C1560 C1572 1.349 . S
C1561 C1559 1.327 . S
C1561 C1577 1.429 . S
C1561 H1583 0.950 . S
C1562 H1558 0.949 . S
C1562 C1570 1.574 . S
C1562 C1578 1.368 . S
H1563 C1571 0.950 . S
H1564 C1569 0.950 . S
H1565 C1570 0.949 . S
H1566 C1572 0.950 . S
H1567 C1573 0.950 . S
H1568 C1574 0.949 . S
C1569 H1564 0.950 . S
C1569 C1571 1.327 . S
C1569 C1575 1.429 . S
C1570 C1562 1.574 . S
C1570 H1565 0.949 . S
C1570 C1576 1.368 . S
C1571 C1555 1.349 . S
C1571 H1563 0.950 . S
C1571 C1569 1.327 . S
C1572 C1560 1.349 . S
C1572 H1566 0.950 . S
C1572 C1573 1.327 . S
C1573 H1567 0.950 . S
C1573 C1572 1.327 . S
C1573 C1577 1.429 . S
C1574 C1557 1.574 . S
C1574 H1568 0.949 . S
C1574 C1578 1.368 . S
C1575 C1556 1.429 . S
C1575 C1569 1.429 . S
C1575 C1576 1.523 . S
C1576 C1557 1.368 . S
C1576 C1570 1.368 . S
C1576 C1575 1.523 . S
C1577 C1561 1.429 . S
C1577 C1573 1.429 . S
C1577 C1578 1.523 . S
C1578 C1562 1.368 . S
C1578 C1574 1.368 . S
C1578 C1577 1.523 . S
H1579 C1554 0.950 . S
H1580 C1556 0.950 . S
H1581 C1557 0.949 . S
H1582 C1559 0.950 . S
H1583 C1561 0.950 . S
C1584 C1585 1.349 . S
C1584 C1586 1.327 . S
C1584 H1609 0.950 . S
C1585 C1584 1.349 . S
C1585 C1601 1.349 . S
C1586 C1584 1.327 . S
C1586 C1605 1.429 . S
C1586 H1610 0.950 . S
C1587 C1604 1.574 . S
C1587 C1606 1.368 . S
C1587 H1611 0.949 . S
H1588 C1592 0.949 . S
C1589 C1590 1.349 . S
C1589 C1591 1.327 . S
C1589 H1612 0.950 . S
C1590 C1589 1.349 . S
C1590 C1602 1.349 . S
C1591 C1589 1.327 . S
C1591 C1607 1.429 . S
C1591 H1613 0.950 . S
C1592 H1588 0.949 . S
C1592 C1600 1.574 . S
C1592 C1608 1.368 . S
H1593 C1601 0.950 . S
H1594 C1599 0.950 . S
H1595 C1600 0.949 . S
H1596 C1602 0.950 . S
H1597 C1603 0.950 . S
H1598 C1604 0.949 . S
C1599 H1594 0.950 . S
C1599 C1601 1.327 . S
C1599 C1605 1.429 . S
C1600 C1592 1.574 . S
C1600 H1595 0.949 . S
C1600 C1606 1.368 . S
C1601 C1585 1.349 . S
C1601 H1593 0.950 . S
C1601 C1599 1.327 . S
C1602 C1590 1.349 . S
C1602 H1596 0.950 . S
C1602 C1603 1.327 . S
C1603 H1597 0.950 . S
C1603 C1602 1.327 . S
C1603 C1607 1.429 . S
C1604 C1587 1.574 . S
C1604 H1598 0.949 . S
C1604 C1608 1.368 . S
C1605 C1586 1.429 . S
C1605 C1599 1.429 . S
C1605 C1606 1.523 . S
C1606 C1587 1.368 . S
C1606 C1600 1.368 . S
C1606 C1605 1.523 . S
C1607 C1591 1.429 . S
C1607 C1603 1.429 . S
C1607 C1608 1.523 . S
C1608 C1592 1.368 . S
C1608 C1604 1.368 . S
C1608 C1607 1.523 . S
H1609 C1584 0.950 . S
H1610 C1586 0.950 . S
H1611 C1587 0.949 . S
H1612 C1589 0.950 . S
H1613 C1591 0.950 . S
C1614 C1615 1.349 . S
C1614 C1616 1.327 . S
C1614 H1639 0.950 . S
C1615 C1614 1.349 . S
C1615 C1631 1.349 . S
C1616 C1614 1.327 . S
C1616 C1635 1.429 . S
C1616 H1640 0.950 . S
C1617 C1634 1.574 . S
C1617 C1636 1.368 . S
C1617 H1641 0.949 . S
H1618 C1622 0.949 . S
C1619 C1620 1.349 . S
C1619 C1621 1.327 . S
C1619 H1642 0.950 . S
C1620 C1619 1.349 . S
C1620 C1632 1.349 . S
C1621 C1619 1.327 . S
C1621 C1637 1.429 . S
C1621 H1643 0.950 . S
C1622 H1618 0.949 . S
C1622 C1630 1.574 . S
C1622 C1638 1.368 . S
H1623 C1631 0.950 . S
H1624 C1629 0.950 . S
H1625 C1630 0.949 . S
H1626 C1632 0.950 . S
H1627 C1633 0.950 . S
H1628 C1634 0.949 . S
C1629 H1624 0.950 . S
C1629 C1631 1.327 . S
C1629 C1635 1.429 . S
C1630 C1622 1.574 . S
C1630 H1625 0.949 . S
C1630 C1636 1.368 . S
C1631 C1615 1.349 . S
C1631 H1623 0.950 . S
C1631 C1629 1.327 . S
C1632 C1620 1.349 . S
C1632 H1626 0.950 . S
C1632 C1633 1.327 . S
C1633 H1627 0.950 . S
C1633 C1632 1.327 . S
C1633 C1637 1.429 . S
C1634 C1617 1.574 . S
C1634 H1628 0.949 . S
C1634 C1638 1.368 . S
C1635 C1616 1.429 . S
C1635 C1629 1.429 . S
C1635 C1636 1.523 . S
C1636 C1617 1.368 . S
C1636 C1630 1.368 . S
C1636 C1635 1.523 . S
C1637 C1621 1.429 . S
C1637 C1633 1.429 . S
C1637 C1638 1.523 . S
C1638 C1622 1.368 . S
C1638 C1634 1.368 . S
C1638 C1637 1.523 . S
H1639 C1614 0.950 . S
H1640 C1616 0.950 . S
H1641 C1617 0.949 . S
H1642 C1619 0.950 . S
H1643 C1621 0.950 . S
C1644 C1645 1.349 . S
C1644 C1646 1.327 . S
C1644 H1669 0.950 . S
C1645 C1644 1.349 . S
C1645 C1661 1.349 . S
C1646 C1644 1.327 . S
C1646 C1665 1.429 . S
C1646 H1670 0.950 . S
C1647 C1664 1.574 . S
C1647 C1666 1.368 . S
C1647 H1671 0.949 . S
H1648 C1652 0.949 . S
C1649 C1650 1.349 . S
C1649 C1651 1.327 . S
C1649 H1672 0.950 . S
C1650 C1649 1.349 . S
C1650 C1662 1.349 . S
C1651 C1649 1.327 . S
C1651 C1667 1.429 . S
C1651 H1673 0.950 . S
C1652 H1648 0.949 . S
C1652 C1660 1.574 . S
C1652 C1668 1.368 . S
H1653 C1661 0.950 . S
H1654 C1659 0.950 . S
H1655 C1660 0.949 . S
H1656 C1662 0.950 . S
H1657 C1663 0.950 . S
H1658 C1664 0.949 . S
C1659 H1654 0.950 . S
C1659 C1661 1.327 . S
C1659 C1665 1.429 . S
C1660 C1652 1.574 . S
C1660 H1655 0.949 . S
C1660 C1666 1.368 . S
C1661 C1645 1.349 . S
C1661 H1653 0.950 . S
C1661 C1659 1.327 . S
C1662 C1650 1.349 . S
C1662 H1656 0.950 . S
C1662 C1663 1.327 . S
C1663 H1657 0.950 . S
C1663 C1662 1.327 . S
C1663 C1667 1.429 . S
C1664 C1647 1.574 . S
C1664 H1658 0.949 . S
C1664 C1668 1.368 . S
C1665 C1646 1.429 . S
C1665 C1659 1.429 . S
C1665 C1666 1.523 . S
C1666 C1647 1.368 . S
C1666 C1660 1.368 . S
C1666 C1665 1.523 . S
C1667 C1651 1.429 . S
C1667 C1663 1.429 . S
C1667 C1668 1.523 . S
C1668 C1652 1.368 . S
C1668 C1664 1.368 . S
C1668 C1667 1.523 . S
H1669 C1644 0.950 . S
H1670 C1646 0.950 . S
H1671 C1647 0.949 . S
H1672 C1649 0.950 . S
H1673 C1651 0.950 . S
C1674 C1675 1.349 . S
C1674 C1676 1.327 . S
C1674 H1699 0.950 . S
C1675 C1674 1.349 . S
C1675 C1691 1.349 . S
C1676 C1674 1.327 . S
C1676 C1695 1.429 . S
C1676 H1700 0.950 . S
C1677 C1694 1.574 . S
C1677 C1696 1.368 . S
C1677 H1701 0.949 . S
H1678 C1682 0.949 . S
C1679 C1680 1.349 . S
C1679 C1681 1.327 . S
C1679 H1702 0.950 . S
C1680 C1679 1.349 . S
C1680 C1692 1.349 . S
C1681 C1679 1.327 . S
C1681 C1697 1.429 . S
C1681 H1703 0.950 . S
C1682 H1678 0.949 . S
C1682 C1690 1.574 . S
C1682 C1698 1.368 . S
H1683 C1691 0.950 . S
H1684 C1689 0.950 . S
H1685 C1690 0.949 . S
H1686 C1692 0.950 . S
H1687 C1693 0.950 . S
H1688 C1694 0.949 . S
C1689 H1684 0.950 . S
C1689 C1691 1.327 . S
C1689 C1695 1.429 . S
C1690 C1682 1.574 . S
C1690 H1685 0.949 . S
C1690 C1696 1.368 . S
C1691 C1675 1.349 . S
C1691 H1683 0.950 . S
C1691 C1689 1.327 . S
C1692 C1680 1.349 . S
C1692 H1686 0.950 . S
C1692 C1693 1.327 . S
C1693 H1687 0.950 . S
C1693 C1692 1.327 . S
C1693 C1697 1.429 . S
C1694 C1677 1.574 . S
C1694 H1688 0.949 . S
C1694 C1698 1.368 . S
C1695 C1676 1.429 . S
C1695 C1689 1.429 . S
C1695 C1696 1.523 . S
C1696 C1677 1.368 . S
C1696 C1690 1.368 . S
C1696 C1695 1.523 . S
C1697 C1681 1.429 . S
C1697 C1693 1.429 . S
C1697 C1698 1.523 . S
C1698 C1682 1.368 . S
C1698 C1694 1.368 . S
C1698 C1697 1.523 . S
H1699 C1674 0.950 . S
H1700 C1676 0.950 . S
H1701 C1677 0.949 . S
H1702 C1679 0.950 . S
H1703 C1681 0.950 . S
C1704 C1705 1.349 . S
C1704 C1706 1.327 . S
C1704 H1729 0.950 . S
C1705 C1704 1.349 . S
C1705 C1721 1.349 . S
C1706 C1704 1.327 . S
C1706 C1725 1.429 . S
C1706 H1730 0.950 . S
C1707 C1724 1.574 . S
C1707 C1726 1.368 . S
C1707 H1731 0.949 . S
H1708 C1712 0.949 . S
C1709 C1710 1.349 . S
C1709 C1711 1.327 . S
C1709 H1732 0.950 . S
C1710 C1709 1.349 . S
C1710 C1722 1.349 . S
C1711 C1709 1.327 . S
C1711 C1727 1.429 . S
C1711 H1733 0.950 . S
C1712 H1708 0.949 . S
C1712 C1720 1.574 . S
C1712 C1728 1.368 . S
H1713 C1721 0.950 . S
H1714 C1719 0.950 . S
H1715 C1720 0.949 . S
H1716 C1722 0.950 . S
H1717 C1723 0.950 . S
H1718 C1724 0.949 . S
C1719 H1714 0.950 . S
C1719 C1721 1.327 . S
C1719 C1725 1.429 . S
C1720 C1712 1.574 . S
C1720 H1715 0.949 . S
C1720 C1726 1.368 . S
C1721 C1705 1.349 . S
C1721 H1713 0.950 . S
C1721 C1719 1.327 . S
C1722 C1710 1.349 . S
C1722 H1716 0.950 . S
C1722 C1723 1.327 . S
C1723 H1717 0.950 . S
C1723 C1722 1.327 . S
C1723 C1727 1.429 . S
C1724 C1707 1.574 . S
C1724 H1718 0.949 . S
C1724 C1728 1.368 . S
C1725 C1706 1.429 . S
C1725 C1719 1.429 . S
C1725 C1726 1.523 . S
C1726 C1707 1.368 . S
C1726 C1720 1.368 . S
C1726 C1725 1.523 . S
C1727 C1711 1.429 . S
C1727 C1723 1.429 . S
C1727 C1728 1.523 . S
C1728 C1712 1.368 . S
C1728 C1724 1.368 . S
C1728 C1727 1.523 . S
H1729 C1704 0.950 . S
H1730 C1706 0.950 . S
H1731 C1707 0.949 . S
H1732 C1709 0.950 . S
H1733 C1711 0.950 . S
C1734 C1735 1.349 . S
C1734 C1736 1.327 . S
C1734 H1759 0.950 . S
C1735 C1734 1.349 . S
C1735 C1751 1.349 . S
C1736 C1734 1.327 . S
C1736 C1755 1.429 . S
C1736 H1760 0.950 . S
C1737 C1754 1.574 . S
C1737 C1756 1.368 . S
C1737 H1761 0.949 . S
H1738 C1742 0.949 . S
C1739 C1740 1.349 . S
C1739 C1741 1.327 . S
C1739 H1762 0.950 . S
C1740 C1739 1.349 . S
C1740 C1752 1.349 . S
C1741 C1739 1.327 . S
C1741 C1757 1.429 . S
C1741 H1763 0.950 . S
C1742 H1738 0.949 . S
C1742 C1750 1.574 . S
C1742 C1758 1.368 . S
H1743 C1751 0.950 . S
H1744 C1749 0.950 . S
H1745 C1750 0.949 . S
H1746 C1752 0.950 . S
H1747 C1753 0.950 . S
H1748 C1754 0.949 . S
C1749 H1744 0.950 . S
C1749 C1751 1.327 . S
C1749 C1755 1.429 . S
C1750 C1742 1.574 . S
C1750 H1745 0.949 . S
C1750 C1756 1.368 . S
C1751 C1735 1.349 . S
C1751 H1743 0.950 . S
C1751 C1749 1.327 . S
C1752 C1740 1.349 . S
C1752 H1746 0.950 . S
C1752 C1753 1.327 . S
C1753 H1747 0.950 . S
C1753 C1752 1.327 . S
C1753 C1757 1.429 . S
C1754 C1737 1.574 . S
C1754 H1748 0.949 . S
C1754 C1758 1.368 . S
C1755 C1736 1.429 . S
C1755 C1749 1.429 . S
C1755 C1756 1.523 . S
C1756 C1737 1.368 . S
C1756 C1750 1.368 . S
C1756 C1755 1.523 . S
C1757 C1741 1.429 . S
C1757 C1753 1.429 . S
C1757 C1758 1.523 . S
C1758 C1742 1.368 . S
C1758 C1754 1.368 . S
C1758 C1757 1.523 . S
H1759 C1734 0.950 . S
H1760 C1736 0.950 . S
H1761 C1737 0.949 . S
H1762 C1739 0.950 . S
H1763 C1741 0.950 . S
C1764 C1765 1.349 . S
C1764 C1766 1.327 . S
C1764 H1789 0.950 . S
C1765 C1764 1.349 . S
C1765 C1781 1.349 . S
C1766 C1764 1.327 . S
C1766 C1785 1.429 . S
C1766 H1790 0.950 . S
C1767 C1784 1.574 . S
C1767 C1786 1.368 . S
C1767 H1791 0.949 . S
H1768 C1772 0.949 . S
C1769 C1770 1.349 . S
C1769 C1771 1.327 . S
C1769 H1792 0.950 . S
C1770 C1769 1.349 . S
C1770 C1782 1.349 . S
C1771 C1769 1.327 . S
C1771 C1787 1.429 . S
C1771 H1793 0.950 . S
C1772 H1768 0.949 . S
C1772 C1780 1.574 . S
C1772 C1788 1.368 . S
H1773 C1781 0.950 . S
H1774 C1779 0.950 . S
H1775 C1780 0.949 . S
H1776 C1782 0.950 . S
H1777 C1783 0.950 . S
H1778 C1784 0.949 . S
C1779 H1774 0.950 . S
C1779 C1781 1.327 . S
C1779 C1785 1.429 . S
C1780 C1772 1.574 . S
C1780 H1775 0.949 . S
C1780 C1786 1.368 . S
C1781 C1765 1.349 . S
C1781 H1773 0.950 . S
C1781 C1779 1.327 . S
C1782 C1770 1.349 . S
C1782 H1776 0.950 . S
C1782 C1783 1.327 . S
C1783 H1777 0.950 . S
C1783 C1782 1.327 . S
C1783 C1787 1.429 . S
C1784 C1767 1.574 . S
C1784 H1778 0.949 . S
C1784 C1788 1.368 . S
C1785 C1766 1.429 . S
C1785 C1779 1.429 . S
C1785 C1786 1.523 . S
C1786 C1767 1.368 . S
C1786 C1780 1.368 . S
C1786 C1785 1.523 . S
C1787 C1771 1.429 . S
C1787 C1783 1.429 . S
C1787 C1788 1.523 . S
C1788 C1772 1.368 . S
C1788 C1784 1.368 . S
C1788 C1787 1.523 . S
H1789 C1764 0.950 . S
H1790 C1766 0.950 . S
H1791 C1767 0.949 . S
H1792 C1769 0.950 . S
H1793 C1771 0.950 . S
C1794 C1795 1.349 . S
C1794 C1796 1.327 . S
C1794 H1819 0.950 . S
C1795 C1794 1.349 . S
C1795 C1811 1.349 . S
C1796 C1794 1.327 . S
C1796 C1815 1.429 . S
C1796 H1820 0.950 . S
C1797 C1814 1.574 . S
C1797 C1816 1.368 . S
C1797 H1821 0.949 . S
H1798 C1802 0.949 . S
C1799 C1800 1.349 . S
C1799 C1801 1.327 . S
C1799 H1822 0.950 . S
C1800 C1799 1.349 . S
C1800 C1812 1.349 . S
C1801 C1799 1.327 . S
C1801 C1817 1.429 . S
C1801 H1823 0.950 . S
C1802 H1798 0.949 . S
C1802 C1810 1.574 . S
C1802 C1818 1.368 . S
H1803 C1811 0.950 . S
H1804 C1809 0.950 . S
H1805 C1810 0.949 . S
H1806 C1812 0.950 . S
H1807 C1813 0.950 . S
H1808 C1814 0.949 . S
C1809 H1804 0.950 . S
C1809 C1811 1.327 . S
C1809 C1815 1.429 . S
C1810 C1802 1.574 . S
C1810 H1805 0.949 . S
C1810 C1816 1.368 . S
C1811 C1795 1.349 . S
C1811 H1803 0.950 . S
C1811 C1809 1.327 . S
C1812 C1800 1.349 . S
C1812 H1806 0.950 . S
C1812 C1813 1.327 . S
C1813 H1807 0.950 . S
C1813 C1812 1.327 . S
C1813 C1817 1.429 . S
C1814 C1797 1.574 . S
C1814 H1808 0.949 . S
C1814 C1818 1.368 . S
C1815 C1796 1.429 . S
C1815 C1809 1.429 . S
C1815 C1816 1.523 . S
C1816 C1797 1.368 . S
C1816 C1810 1.368 . S
C1816 C1815 1.523 . S
C1817 C1801 1.429 . S
C1817 C1813 1.429 . S
C1817 C1818 1.523 . S
C1818 C1802 1.368 . S
C1818 C1814 1.368 . S
C1818 C1817 1.523 . S
H1819 C1794 0.950 . S
H1820 C1796 0.950 . S
H1821 C1797 0.949 . S
H1822 C1799 0.950 . S
H1823 C1801 0.950 . S
C1824 C1825 1.349 . S
C1824 C1826 1.327 . S
C1824 H1849 0.950 . S
C1825 C1824 1.349 . S
C1825 C1841 1.349 . S
C1826 C1824 1.327 . S
C1826 C1845 1.429 . S
C1826 H1850 0.950 . S
C1827 C1844 1.574 . S
C1827 C1846 1.368 . S
C1827 H1851 0.949 . S
H1828 C1832 0.949 . S
C1829 C1830 1.349 . S
C1829 C1831 1.327 . S
C1829 H1852 0.950 . S
C1830 C1829 1.349 . S
C1830 C1842 1.349 . S
C1831 C1829 1.327 . S
C1831 C1847 1.429 . S
C1831 H1853 0.950 . S
C1832 H1828 0.949 . S
C1832 C1840 1.574 . S
C1832 C1848 1.368 . S
H1833 C1841 0.950 . S
H1834 C1839 0.950 . S
H1835 C1840 0.949 . S
H1836 C1842 0.950 . S
H1837 C1843 0.950 . S
H1838 C1844 0.949 . S
C1839 H1834 0.950 . S
C1839 C1841 1.327 . S
C1839 C1845 1.429 . S
C1840 C1832 1.574 . S
C1840 H1835 0.949 . S
C1840 C1846 1.368 . S
C1841 C1825 1.349 . S
C1841 H1833 0.950 . S
C1841 C1839 1.327 . S
C1842 C1830 1.349 . S
C1842 H1836 0.950 . S
C1842 C1843 1.327 . S
C1843 H1837 0.950 . S
C1843 C1842 1.327 . S
C1843 C1847 1.429 . S
C1844 C1827 1.574 . S
C1844 H1838 0.949 . S
C1844 C1848 1.368 . S
C1845 C1826 1.429 . S
C1845 C1839 1.429 . S
C1845 C1846 1.523 . S
C1846 C1827 1.368 . S
C1846 C1840 1.368 . S
C1846 C1845 1.523 . S
C1847 C1831 1.429 . S
C1847 C1843 1.429 . S
C1847 C1848 1.523 . S
C1848 C1832 1.368 . S
C1848 C1844 1.368 . S
C1848 C1847 1.523 . S
H1849 C1824 0.950 . S
H1850 C1826 0.950 . S
H1851 C1827 0.949 . S
H1852 C1829 0.950 . S
H1853 C1831 0.950 . S
C1854 C1855 1.349 . S
C1854 C1856 1.327 . S
C1854 H1879 0.950 . S
C1855 C1854 1.349 . S
C1855 C1871 1.349 . S
C1856 C1854 1.327 . S
C1856 C1875 1.429 . S
C1856 H1880 0.950 . S
C1857 C1874 1.574 . S
C1857 C1876 1.368 . S
C1857 H1881 0.949 . S
H1858 C1862 0.949 . S
C1859 C1860 1.349 . S
C1859 C1861 1.327 . S
C1859 H1882 0.950 . S
C1860 C1859 1.349 . S
C1860 C1872 1.349 . S
C1861 C1859 1.327 . S
C1861 C1877 1.429 . S
C1861 H1883 0.950 . S
C1862 H1858 0.949 . S
C1862 C1870 1.574 . S
C1862 C1878 1.368 . S
H1863 C1871 0.950 . S
H1864 C1869 0.950 . S
H1865 C1870 0.949 . S
H1866 C1872 0.950 . S
H1867 C1873 0.950 . S
H1868 C1874 0.949 . S
C1869 H1864 0.950 . S
C1869 C1871 1.327 . S
C1869 C1875 1.429 . S
C1870 C1862 1.574 . S
C1870 H1865 0.949 . S
C1870 C1876 1.368 . S
C1871 C1855 1.349 . S
C1871 H1863 0.950 . S
C1871 C1869 1.327 . S
C1872 C1860 1.349 . S
C1872 H1866 0.950 . S
C1872 C1873 1.327 . S
C1873 H1867 0.950 . S
C1873 C1872 1.327 . S
C1873 C1877 1.429 . S
C1874 C1857 1.574 . S
C1874 H1868 0.949 . S
C1874 C1878 1.368 . S
C1875 C1856 1.429 . S
C1875 C1869 1.429 . S
C1875 C1876 1.523 . S
C1876 C1857 1.368 . S
C1876 C1870 1.368 . S
C1876 C1875 1.523 . S
C1877 C1861 1.429 . S
C1877 C1873 1.429 . S
C1877 C1878 1.523 . S
C1878 C1862 1.368 . S
C1878 C1874 1.368 . S
C1878 C1877 1.523 . S
H1879 C1854 0.950 . S
H1880 C1856 0.950 . S
H1881 C1857 0.949 . S
H1882 C1859 0.950 . S
H1883 C1861 0.950 . S
C1884 C1885 1.349 . S
C1884 C1886 1.327 . S
C1884 H1909 0.950 . S
C1885 C1884 1.349 . S
C1885 C1901 1.349 . S
C1886 C1884 1.327 . S
C1886 C1905 1.429 . S
C1886 H1910 0.950 . S
C1887 C1904 1.574 . S
C1887 C1906 1.368 . S
C1887 H1911 0.949 . S
H1888 C1892 0.949 . S
C1889 C1890 1.349 . S
C1889 C1891 1.327 . S
C1889 H1912 0.950 . S
C1890 C1889 1.349 . S
C1890 C1902 1.349 . S
C1891 C1889 1.327 . S
C1891 C1907 1.429 . S
C1891 H1913 0.950 . S
C1892 H1888 0.949 . S
C1892 C1900 1.574 . S
C1892 C1908 1.368 . S
H1893 C1901 0.950 . S
H1894 C1899 0.950 . S
H1895 C1900 0.949 . S
H1896 C1902 0.950 . S
H1897 C1903 0.950 . S
H1898 C1904 0.949 . S
C1899 H1894 0.950 . S
C1899 C1901 1.327 . S
C1899 C1905 1.429 . S
C1900 C1892 1.574 . S
C1900 H1895 0.949 . S
C1900 C1906 1.368 . S
C1901 C1885 1.349 . S
C1901 H1893 0.950 . S
C1901 C1899 1.327 . S
C1902 C1890 1.349 . S
C1902 H1896 0.950 . S
C1902 C1903 1.327 . S
C1903 H1897 0.950 . S
C1903 C1902 1.327 . S
C1903 C1907 1.429 . S
C1904 C1887 1.574 . S
C1904 H1898 0.949 . S
C1904 C1908 1.368 . S
C1905 C1886 1.429 . S
C1905 C1899 1.429 . S
C1905 C1906 1.523 . S
C1906 C1887 1.368 . S
C1906 C1900 1.368 . S
C1906 C1905 1.523 . S
C1907 C1891 1.429 . S
C1907 C1903 1.429 . S
C1907 C1908 1.523 . S
C1908 C1892 1.368 . S
C1908 C1904 1.368 . S
C1908 C1907 1.523 . S
H1909 C1884 0.950 . S
H1910 C1886 0.950 . S
H1911 C1887 0.949 . S
H1912 C1889 0.950 . S
H1913 C1891 0.950 . S
C1914 C1915 1.349 . S
C1914 C1916 1.327 . S
C1914 H1939 0.950 . S
C1915 C1914 1.349 . S
C1915 C1931 1.349 . S
C1916 C1914 1.327 . S
C1916 C1935 1.429 . S
C1916 H1940 0.950 . S
C1917 C1934 1.574 . S
C1917 C1936 1.368 . S
C1917 H1941 0.949 . S
H1918 C1922 0.949 . S
C1919 C1920 1.349 . S
C1919 C1921 1.327 . S
C1919 H1942 0.950 . S
C1920 C1919 1.349 . S
C1920 C1932 1.349 . S
C1921 C1919 1.327 . S
C1921 C1937 1.429 . S
C1921 H1943 0.950 . S
C1922 H1918 0.949 . S
C1922 C1930 1.574 . S
C1922 C1938 1.368 . S
H1923 C1931 0.950 . S
H1924 C1929 0.950 . S
H1925 C1930 0.949 . S
H1926 C1932 0.950 . S
H1927 C1933 0.950 . S
H1928 C1934 0.949 . S
C1929 H1924 0.950 . S
C1929 C1931 1.327 . S
C1929 C1935 1.429 . S
C1930 C1922 1.574 . S
C1930 H1925 0.949 . S
C1930 C1936 1.368 . S
C1931 C1915 1.349 . S
C1931 H1923 0.950 . S
C1931 C1929 1.327 . S
C1932 C1920 1.349 . S
C1932 H1926 0.950 . S
C1932 C1933 1.327 . S
C1933 H1927 0.950 . S
C1933 C1932 1.327 . S
C1933 C1937 1.429 . S
C1934 C1917 1.574 . S
C1934 H1928 0.949 . S
C1934 C1938 1.368 . S
C1935 C1916 1.429 . S
C1935 C1929 1.429 . S
C1935 C1936 1.523 . S
C1936 C1917 1.368 . S
C1936 C1930 1.368 . S
C1936 C1935 1.523 . S
C1937 C1921 1.429 . S
C1937 C1933 1.429 . S
C1937 C1938 1.523 . S
C1938 C1922 1.368 . S
C1938 C1934 1.368 . S
C1938 C1937 1.523 . S
H1939 C1914 0.950 . S
H1940 C1916 0.950 . S
H1941 C1917 0.949 . S
H1942 C1919 0.950 . S
H1943 C1921 0.950 . S
C1944 C1945 1.349 . S
C1944 C1946 1.327 . S
C1944 H1969 0.950 . S
C1945 C1944 1.349 . S
C1945 C1961 1.349 . S
C1946 C1944 1.327 . S
C1946 C1965 1.429 . S
C1946 H1970 0.950 . S
C1947 C1964 1.574 . S
C1947 C1966 1.368 . S
C1947 H1971 0.949 . S
H1948 C1952 0.949 . S
C1949 C1950 1.349 . S
C1949 C1951 1.327 . S
C1949 H1972 0.950 . S
C1950 C1949 1.349 . S
C1950 C1962 1.349 . S
C1951 C1949 1.327 . S
C1951 C1967 1.429 . S
C1951 H1973 0.950 . S
C1952 H1948 0.949 . S
C1952 C1960 1.574 . S
C1952 C1968 1.368 . S
H1953 C1961 0.950 . S
H1954 C1959 0.950 . S
H1955 C1960 0.949 . S
H1956 C1962 0.950 . S
H1957 C1963 0.950 . S
H1958 C1964 0.949 . S
C1959 H1954 0.950 . S
C1959 C1961 1.327 . S
C1959 C1965 1.429 . S
C1960 C1952 1.574 . S
C1960 H1955 0.949 . S
C1960 C1966 1.368 . S
C1961 C1945 1.349 . S
C1961 H1953 0.950 . S
C1961 C1959 1.327 . S
C1962 C1950 1.349 . S
C1962 H1956 0.950 . S
C1962 C1963 1.327 . S
C1963 H1957 0.950 . S
C1963 C1962 1.327 . S
C1963 C1967 1.429 . S
C1964 C1947 1.574 . S
C1964 H1958 0.949 . S
C1964 C1968 1.368 . S
C1965 C1946 1.429 . S
C1965 C1959 1.429 . S
C1965 C1966 1.523 . S
C1966 C1947 1.368 . S
C1966 C1960 1.368 . S
C1966 C1965 1.523 . S
C1967 C1951 1.429 . S
C1967 C1963 1.429 . S
C1967 C1968 1.523 . S
C1968 C1952 1.368 . S
C1968 C1964 1.368 . S
C1968 C1967 1.523 . S
H1969 C1944 0.950 . S
H1970 C1946 0.950 . S
H1971 C1947 0.949 . S
H1972 C1949 0.950 . S
H1973 C1951 0.950 . S
C1974 C1975 1.349 . S
C1974 C1976 1.327 . S
C1974 H1999 0.950 . S
C1975 C1974 1.349 . S
C1975 C1991 1.349 . S
C1976 C1974 1.327 . S
C1976 C1995 1.429 . S
C1976 H2000 0.950 . S
C1977 C1994 1.574 . S
C1977 C1996 1.368 . S
C1977 H2001 0.949 . S
H1978 C1982 0.949 . S
C1979 C1980 1.349 . S
C1979 C1981 1.327 . S
C1979 H2002 0.950 . S
C1980 C1979 1.349 . S
C1980 C1992 1.349 . S
C1981 C1979 1.327 . S
C1981 C1997 1.429 . S
C1981 H2003 0.950 . S
C1982 H1978 0.949 . S
C1982 C1990 1.574 . S
C1982 C1998 1.368 . S
H1983 C1991 0.950 . S
H1984 C1989 0.950 . S
H1985 C1990 0.949 . S
H1986 C1992 0.950 . S
H1987 C1993 0.950 . S
H1988 C1994 0.949 . S
C1989 H1984 0.950 . S
C1989 C1991 1.327 . S
C1989 C1995 1.429 . S
C1990 C1982 1.574 . S
C1990 H1985 0.949 . S
C1990 C1996 1.368 . S
C1991 C1975 1.349 . S
C1991 H1983 0.950 . S
C1991 C1989 1.327 . S
C1992 C1980 1.349 . S
C1992 H1986 0.950 . S
C1992 C1993 1.327 . S
C1993 H1987 0.950 . S
C1993 C1992 1.327 . S
C1993 C1997 1.429 . S
C1994 C1977 1.574 . S
C1994 H1988 0.949 . S
C1994 C1998 1.368 . S
C1995 C1976 1.429 . S
C1995 C1989 1.429 . S
C1995 C1996 1.523 . S
C1996 C1977 1.368 . S
C1996 C1990 1.368 . S
C1996 C1995 1.523 . S
C1997 C1981 1.429 . S
C1997 C1993 1.429 . S
C1997 C1998 1.523 . S
C1998 C1982 1.368 . S
C1998 C1994 1.368 . S
C1998 C1997 1.523 . S
H1999 C1974 0.950 . S
H2000 C1976 0.950 . S
H2001 C1977 0.949 . S
H2002 C1979 0.950 . S
H2003 C1981 0.950 . S
C2004 C2005 1.349 . S
C2004 C2006 1.327 . S
C2004 H2029 0.950 . S
C2005 C2004 1.349 . S
C2005 C2021 1.349 . S
C2006 C2004 1.327 . S
C2006 C2025 1.429 . S
C2006 H2030 0.950 . S
C2007 C2024 1.574 . S
C2007 C2026 1.368 . S
C2007 H2031 0.949 . S
H2008 C2012 0.949 . S
C2009 C2010 1.349 . S
C2009 C2011 1.327 . S
C2009 H2032 0.950 . S
C2010 C2009 1.349 . S
C2010 C2022 1.349 . S
C2011 C2009 1.327 . S
C2011 C2027 1.429 . S
C2011 H2033 0.950 . S
C2012 H2008 0.949 . S
C2012 C2020 1.574 . S
C2012 C2028 1.368 . S
H2013 C2021 0.950 . S
H2014 C2019 0.950 . S
H2015 C2020 0.949 . S
H2016 C2022 0.950 . S
H2017 C2023 0.950 . S
H2018 C2024 0.949 . S
C2019 H2014 0.950 . S
C2019 C2021 1.327 . S
C2019 C2025 1.429 . S
C2020 C2012 1.574 . S
C2020 H2015 0.949 . S
C2020 C2026 1.368 . S
C2021 C2005 1.349 . S
C2021 H2013 0.950 . S
C2021 C2019 1.327 . S
C2022 C2010 1.349 . S
C2022 H2016 0.950 . S
C2022 C2023 1.327 . S
C2023 H2017 0.950 . S
C2023 C2022 1.327 . S
C2023 C2027 1.429 . S
C2024 C2007 1.574 . S
C2024 H2018 0.949 . S
C2024 C2028 1.368 . S
C2025 C2006 1.429 . S
C2025 C2019 1.429 . S
C2025 C2026 1.523 . S
C2026 C2007 1.368 . S
C2026 C2020 1.368 . S
C2026 C2025 1.523 . S
C2027 C2011 1.429 . S
C2027 C2023 1.429 . S
C2027 C2028 1.523 . S
C2028 C2012 1.368 . S
C2028 C2024 1.368 . S
C2028 C2027 1.523 . S
H2029 C2004 0.950 . S
H2030 C2006 0.950 . S
H2031 C2007 0.949 . S
H2032 C2009 0.950 . S
H2033 C2011 0.950 . S
C2034 C2035 1.349 . S
C2034 C2036 1.327 . S
C2034 H2059 0.950 . S
C2035 C2034 1.349 . S
C2035 C2051 1.349 . S
C2036 C2034 1.327 . S
C2036 C2055 1.429 . S
C2036 H2060 0.950 . S
C2037 C2054 1.574 . S
C2037 C2056 1.368 . S
C2037 H2061 0.949 . S
H2038 C2042 0.949 . S
C2039 C2040 1.349 . S
C2039 C2041 1.327 . S
C2039 H2062 0.950 . S
C2040 C2039 1.349 . S
C2040 C2052 1.349 . S
C2041 C2039 1.327 . S
C2041 C2057 1.429 . S
C2041 H2063 0.950 . S
C2042 H2038 0.949 . S
C2042 C2050 1.574 . S
C2042 C2058 1.368 . S
H2043 C2051 0.950 . S
H2044 C2049 0.950 . S
H2045 C2050 0.949 . S
H2046 C2052 0.950 . S
H2047 C2053 0.950 . S
H2048 C2054 0.949 . S
C2049 H2044 0.950 . S
C2049 C2051 1.327 . S
C2049 C2055 1.429 . S
C2050 C2042 1.574 . S
C2050 H2045 0.949 . S
C2050 C2056 1.368 . S
C2051 C2035 1.349 . S
C2051 H2043 0.950 . S
C2051 C2049 1.327 . S
C2052 C2040 1.349 . S
C2052 H2046 0.950 . S
C2052 C2053 1.327 . S
C2053 H2047 0.950 . S
C2053 C2052 1.327 . S
C2053 C2057 1.429 . S
C2054 C2037 1.574 . S
C2054 H2048 0.949 . S
C2054 C2058 1.368 . S
C2055 C2036 1.429 . S
C2055 C2049 1.429 . S
C2055 C2056 1.523 . S
C2056 C2037 1.368 . S
C2056 C2050 1.368 . S
C2056 C2055 1.523 . S
C2057 C2041 1.429 . S
C2057 C2053 1.429 . S
C2057 C2058 1.523 . S
C2058 C2042 1.368 . S
C2058 C2054 1.368 . S
C2058 C2057 1.523 . S
H2059 C2034 0.950 . S
H2060 C2036 0.950 . S
H2061 C2037 0.949 . S
H2062 C2039 0.950 . S
H2063 C2041 0.950 . S
C2064 C2065 1.349 . S
C2064 C2066 1.327 . S
C2064 H2089 0.950 . S
C2065 C2064 1.349 . S
C2065 C2081 1.349 . S
C2066 C2064 1.327 . S
C2066 C2085 1.429 . S
C2066 H2090 0.950 . S
C2067 C2084 1.574 . S
C2067 C2086 1.368 . S
C2067 H2091 0.949 . S
H2068 C2072 0.949 . S
C2069 C2070 1.349 . S
C2069 C2071 1.327 . S
C2069 H2092 0.950 . S
C2070 C2069 1.349 . S
C2070 C2082 1.349 . S
C2071 C2069 1.327 . S
C2071 C2087 1.429 . S
C2071 H2093 0.950 . S
C2072 H2068 0.949 . S
C2072 C2080 1.574 . S
C2072 C2088 1.368 . S
H2073 C2081 0.950 . S
H2074 C2079 0.950 . S
H2075 C2080 0.949 . S
H2076 C2082 0.950 . S
H2077 C2083 0.950 . S
H2078 C2084 0.949 . S
C2079 H2074 0.950 . S
C2079 C2081 1.327 . S
C2079 C2085 1.429 . S
C2080 C2072 1.574 . S
C2080 H2075 0.949 . S
C2080 C2086 1.368 . S
C2081 C2065 1.349 . S
C2081 H2073 0.950 . S
C2081 C2079 1.327 . S
C2082 C2070 1.349 . S
C2082 H2076 0.950 . S
C2082 C2083 1.327 . S
C2083 H2077 0.950 . S
C2083 C2082 1.327 . S
C2083 C2087 1.429 . S
C2084 C2067 1.574 . S
C2084 H2078 0.949 . S
C2084 C2088 1.368 . S
C2085 C2066 1.429 . S
C2085 C2079 1.429 . S
C2085 C2086 1.523 . S
C2086 C2067 1.368 . S
C2086 C2080 1.368 . S
C2086 C2085 1.523 . S
C2087 C2071 1.429 . S
C2087 C2083 1.429 . S
C2087 C2088 1.523 . S
C2088 C2072 1.368 . S
C2088 C2084 1.368 . S
C2088 C2087 1.523 . S
H2089 C2064 0.950 . S
H2090 C2066 0.950 . S
H2091 C2067 0.949 . S
H2092 C2069 0.950 . S
H2093 C2071 0.950 . S
C2094 C2095 1.349 . S
C2094 C2096 1.327 . S
C2094 H2119 0.950 . S
C2095 C2094 1.349 . S
C2095 C2111 1.349 . S
C2096 C2094 1.327 . S
C2096 C2115 1.429 . S
C2096 H2120 0.950 . S
C2097 C2114 1.574 . S
C2097 C2116 1.368 . S
C2097 H2121 0.949 . S
H2098 C2102 0.949 . S
C2099 C2100 1.349 . S
C2099 C2101 1.327 . S
C2099 H2122 0.950 . S
C2100 C2099 1.349 . S
C2100 C2112 1.349 . S
C2101 C2099 1.327 . S
C2101 C2117 1.429 . S
C2101 H2123 0.950 . S
C2102 H2098 0.949 . S
C2102 C2110 1.574 . S
C2102 C2118 1.368 . S
H2103 C2111 0.950 . S
H2104 C2109 0.950 . S
H2105 C2110 0.949 . S
H2106 C2112 0.950 . S
H2107 C2113 0.950 . S
H2108 C2114 0.949 . S
C2109 H2104 0.950 . S
C2109 C2111 1.327 . S
C2109 C2115 1.429 . S
C2110 C2102 1.574 . S
C2110 H2105 0.949 . S
C2110 C2116 1.368 . S
C2111 C2095 1.349 . S
C2111 H2103 0.950 . S
C2111 C2109 1.327 . S
C2112 C2100 1.349 . S
C2112 H2106 0.950 . S
C2112 C2113 1.327 . S
C2113 H2107 0.950 . S
C2113 C2112 1.327 . S
C2113 C2117 1.429 . S
C2114 C2097 1.574 . S
C2114 H2108 0.949 . S
C2114 C2118 1.368 . S
C2115 C2096 1.429 . S
C2115 C2109 1.429 . S
C2115 C2116 1.523 . S
C2116 C2097 1.368 . S
C2116 C2110 1.368 . S
C2116 C2115 1.523 . S
C2117 C2101 1.429 . S
C2117 C2113 1.429 . S
C2117 C2118 1.523 . S
C2118 C2102 1.368 . S
C2118 C2114 1.368 . S
C2118 C2117 1.523 . S
H2119 C2094 0.950 . S
H2120 C2096 0.950 . S
H2121 C2097 0.949 . S
H2122 C2099 0.950 . S
H2123 C2101 0.950 . S
C2124 C2125 1.349 . S
C2124 C2126 1.327 . S
C2124 H2149 0.950 . S
C2125 C2124 1.349 . S
C2125 C2141 1.349 . S
C2126 C2124 1.327 . S
C2126 C2145 1.429 . S
C2126 H2150 0.950 . S
C2127 C2144 1.574 . S
C2127 C2146 1.368 . S
C2127 H2151 0.949 . S
H2128 C2132 0.949 . S
C2129 C2130 1.349 . S
C2129 C2131 1.327 . S
C2129 H2152 0.950 . S
C2130 C2129 1.349 . S
C2130 C2142 1.349 . S
C2131 C2129 1.327 . S
C2131 C2147 1.429 . S
C2131 H2153 0.950 . S
C2132 H2128 0.949 . S
C2132 C2140 1.574 . S
C2132 C2148 1.368 . S
H2133 C2141 0.950 . S
H2134 C2139 0.950 . S
H2135 C2140 0.949 . S
H2136 C2142 0.950 . S
H2137 C2143 0.950 . S
H2138 C2144 0.949 . S
C2139 H2134 0.950 . S
C2139 C2141 1.327 . S
C2139 C2145 1.429 . S
C2140 C2132 1.574 . S
C2140 H2135 0.949 . S
C2140 C2146 1.368 . S
C2141 C2125 1.349 . S
C2141 H2133 0.950 . S
C2141 C2139 1.327 . S
C2142 C2130 1.349 . S
C2142 H2136 0.950 . S
C2142 C2143 1.327 . S
C2143 H2137 0.950 . S
C2143 C2142 1.327 . S
C2143 C2147 1.429 . S
C2144 C2127 1.574 . S
C2144 H2138 0.949 . S
C2144 C2148 1.368 . S
C2145 C2126 1.429 . S
C2145 C2139 1.429 . S
C2145 C2146 1.523 . S
C2146 C2127 1.368 . S
C2146 C2140 1.368 . S
C2146 C2145 1.523 . S
C2147 C2131 1.429 . S
C2147 C2143 1.429 . S
C2147 C2148 1.523 . S
C2148 C2132 1.368 . S
C2148 C2144 1.368 . S
C2148 C2147 1.523 . S
H2149 C2124 0.950 . S
H2150 C2126 0.950 . S
H2151 C2127 0.949 . S
H2152 C2129 0.950 . S
H2153 C2131 0.950 . S
C2154 C2155 1.349 . S
C2154 C2156 1.327 . S
C2154 H2179 0.950 . S
C2155 C2154 1.349 . S
C2155 C2171 1.349 . S
C2156 C2154 1.327 . S
C2156 C2175 1.429 . S
C2156 H2180 0.951 1_565 S
C2157 C2174 1.574 . S
C2157 C2176 1.368 . S
C2157 H2181 0.949 . S
H2158 C2162 0.949 . S
C2159 C2160 1.349 . S
C2159 C2161 1.327 . S
C2159 H2182 0.950 . S
C2160 C2159 1.349 . S
C2160 C2172 1.349 . S
C2161 C2159 1.327 . S
C2161 C2177 1.429 . S
C2161 H2183 0.950 . S
C2162 H2158 0.949 . S
C2162 C2170 1.574 . S
C2162 C2178 1.368 . S
H2163 C2171 0.950 . S
H2164 C2169 0.950 . S
H2165 C2170 0.949 . S
H2166 C2172 0.950 . S
H2167 C2173 0.950 . S
H2168 C2174 0.949 . S
C2169 H2164 0.950 . S
C2169 C2171 1.327 . S
C2169 C2175 1.429 . S
C2170 C2162 1.574 . S
C2170 H2165 0.949 . S
C2170 C2176 1.368 . S
C2171 C2155 1.349 . S
C2171 H2163 0.950 . S
C2171 C2169 1.327 . S
C2172 C2160 1.349 . S
C2172 H2166 0.950 . S
C2172 C2173 1.327 . S
C2173 H2167 0.950 . S
C2173 C2172 1.327 . S
C2173 C2177 1.429 . S
C2174 C2157 1.574 . S
C2174 H2168 0.949 . S
C2174 C2178 1.368 . S
C2175 C2156 1.429 . S
C2175 C2169 1.429 . S
C2175 C2176 1.523 1_565 S
C2176 C2157 1.368 . S
C2176 C2170 1.368 . S
C2176 C2175 1.523 1_545 S
C2177 C2161 1.429 . S
C2177 C2173 1.429 . S
C2177 C2178 1.523 . S
C2178 C2162 1.368 . S
C2178 C2174 1.368 . S
C2178 C2177 1.523 . S
H2179 C2154 0.950 . S
H2180 C2156 0.951 1_545 S
H2181 C2157 0.949 . S
H2182 C2159 0.950 . S
H2183 C2161 0.950 . S
C2184 C2185 1.349 . S
C2184 C2186 1.327 . S
C2184 H2209 0.950 . S
C2185 C2184 1.349 . S
C2185 C2201 1.349 . S
C2186 C2184 1.327 . S
C2186 C2205 1.429 . S
C2186 H2210 0.950 . S
C2187 C2204 1.574 . S
C2187 C2206 1.368 . S
C2187 H2211 0.949 . S
H2188 C2192 0.949 . S
C2189 C2190 1.349 . S
C2189 C2191 1.327 . S
C2189 H2212 0.950 . S
C2190 C2189 1.349 . S
C2190 C2202 1.349 . S
C2191 C2189 1.327 . S
C2191 C2207 1.429 . S
C2191 H2213 0.950 . S
C2192 H2188 0.949 . S
C2192 C2200 1.574 . S
C2192 C2208 1.368 . S
H2193 C2201 0.950 . S
H2194 C2199 0.950 . S
H2195 C2200 0.949 . S
H2196 C2202 0.950 . S
H2197 C2203 0.950 . S
H2198 C2204 0.949 . S
C2199 H2194 0.950 . S
C2199 C2201 1.327 . S
C2199 C2205 1.429 . S
C2200 C2192 1.574 . S
C2200 H2195 0.949 . S
C2200 C2206 1.368 . S
C2201 C2185 1.349 . S
C2201 H2193 0.950 . S
C2201 C2199 1.327 . S
C2202 C2190 1.349 . S
C2202 H2196 0.950 . S
C2202 C2203 1.327 . S
C2203 H2197 0.950 . S
C2203 C2202 1.327 . S
C2203 C2207 1.429 . S
C2204 C2187 1.574 . S
C2204 H2198 0.949 . S
C2204 C2208 1.368 . S
C2205 C2186 1.429 . S
C2205 C2199 1.429 . S
C2205 C2206 1.523 . S
C2206 C2187 1.368 . S
C2206 C2200 1.368 . S
C2206 C2205 1.523 . S
C2207 C2191 1.429 . S
C2207 C2203 1.429 . S
C2207 C2208 1.523 1_455 S
C2208 C2192 1.368 . S
C2208 C2204 1.368 . S
C2208 C2207 1.523 1_655 S
H2209 C2184 0.950 . S
H2210 C2186 0.950 . S
H2211 C2187 0.949 . S
H2212 C2189 0.950 . S
H2213 C2191 0.950 . S
C2214 C2215 1.349 . S
C2214 C2216 1.327 . S
C2214 H2239 0.950 . S
C2215 C2214 1.349 . S
C2215 C2231 1.349 . S
C2216 C2214 1.327 . S
C2216 C2235 1.429 . S
C2216 H2240 0.950 . S
C2217 C2234 1.574 . S
C2217 C2236 1.368 . S
C2217 H2241 0.949 . S
H2218 C2222 0.949 . S
C2219 C2220 1.349 . S
C2219 C2221 1.327 . S
C2219 H2242 0.950 . S
C2220 C2219 1.349 . S
C2220 C2232 1.349 . S
C2221 C2219 1.327 . S
C2221 C2237 1.429 . S
C2221 H2243 0.950 . S
C2222 H2218 0.949 . S
C2222 C2230 1.574 . S
C2222 C2238 1.368 . S
H2223 C2231 0.950 . S
H2224 C2229 0.950 . S
H2225 C2230 0.949 . S
H2226 C2232 0.950 . S
H2227 C2233 0.950 . S
H2228 C2234 0.949 . S
C2229 H2224 0.950 . S
C2229 C2231 1.327 . S
C2229 C2235 1.429 . S
C2230 C2222 1.574 . S
C2230 H2225 0.949 . S
C2230 C2236 1.368 . S
C2231 C2215 1.349 . S
C2231 H2223 0.950 . S
C2231 C2229 1.327 . S
C2232 C2220 1.349 . S
C2232 H2226 0.950 . S
C2232 C2233 1.327 . S
C2233 H2227 0.950 . S
C2233 C2232 1.327 . S
C2233 C2237 1.429 . S
C2234 C2217 1.574 . S
C2234 H2228 0.949 . S
C2234 C2238 1.368 . S
C2235 C2216 1.429 . S
C2235 C2229 1.429 . S
C2235 C2236 1.523 . S
C2236 C2217 1.368 . S
C2236 C2230 1.368 . S
C2236 C2235 1.523 . S
C2237 C2221 1.429 . S
C2237 C2233 1.429 . S
C2237 C2238 1.523 . S
C2238 C2222 1.368 . S
C2238 C2234 1.368 . S
C2238 C2237 1.523 . S
H2239 C2214 0.950 . S
H2240 C2216 0.950 . S
H2241 C2217 0.949 . S
H2242 C2219 0.950 . S
H2243 C2221 0.950 . S
C2244 C2245 1.349 . S
C2244 C2246 1.327 . S
C2244 H2269 0.950 . S
C2245 C2244 1.349 . S
C2245 C2261 1.349 . S
C2246 C2244 1.327 . S
C2246 C2265 1.429 . S
C2246 H2270 0.950 . S
C2247 C2264 1.574 . S
C2247 C2266 1.368 . S
C2247 H2271 0.949 . S
H2248 C2252 0.949 . S
C2249 C2250 1.349 . S
C2249 C2251 1.327 . S
C2249 H2272 0.950 . S
C2250 C2249 1.349 . S
C2250 C2262 1.349 . S
C2251 C2249 1.327 . S
C2251 C2267 1.429 . S
C2251 H2273 0.950 . S
C2252 H2248 0.949 . S
C2252 C2260 1.574 . S
C2252 C2268 1.368 . S
H2253 C2261 0.950 . S
H2254 C2259 0.950 . S
H2255 C2260 0.949 . S
H2256 C2262 0.950 . S
H2257 C2263 0.950 . S
H2258 C2264 0.949 . S
C2259 H2254 0.950 . S
C2259 C2261 1.327 . S
C2259 C2265 1.429 . S
C2260 C2252 1.574 . S
C2260 H2255 0.949 . S
C2260 C2266 1.368 . S
C2261 C2245 1.349 . S
C2261 H2253 0.950 . S
C2261 C2259 1.327 . S
C2262 C2250 1.349 . S
C2262 H2256 0.950 . S
C2262 C2263 1.327 . S
C2263 H2257 0.950 . S
C2263 C2262 1.327 . S
C2263 C2267 1.429 . S
C2264 C2247 1.574 . S
C2264 H2258 0.949 . S
C2264 C2268 1.368 . S
C2265 C2246 1.429 . S
C2265 C2259 1.429 . S
C2265 C2266 1.523 1_545 S
C2266 C2247 1.368 . S
C2266 C2260 1.368 . S
C2266 C2265 1.523 1_565 S
C2267 C2251 1.429 . S
C2267 C2263 1.429 . S
C2267 C2268 1.523 . S
C2268 C2252 1.368 . S
C2268 C2264 1.368 . S
C2268 C2267 1.523 . S
H2269 C2244 0.950 . S
H2270 C2246 0.950 . S
H2271 C2247 0.949 . S
H2272 C2249 0.950 . S
H2273 C2251 0.950 . S
C2274 C2275 1.349 . S
C2274 C2276 1.327 . S
C2274 H2299 0.950 . S
C2275 C2274 1.349 . S
C2275 C2291 1.349 . S
C2276 C2274 1.327 . S
C2276 C2295 1.429 . S
C2276 H2300 0.950 . S
C2277 C2294 1.574 1_455 S
C2277 C2296 1.368 . S
C2277 H2301 0.949 . S
H2278 C2282 0.949 . S
C2279 C2280 1.349 . S
C2279 C2281 1.327 . S
C2279 H2302 0.950 . S
C2280 C2279 1.349 . S
C2280 C2292 1.349 . S
C2281 C2279 1.327 . S
C2281 C2297 1.429 . S
C2281 H2303 0.950 . S
C2282 H2278 0.949 . S
C2282 C2290 1.574 . S
C2282 C2298 1.368 . S
H2283 C2291 0.950 . S
H2284 C2289 0.950 . S
H2285 C2290 0.949 . S
H2286 C2292 0.950 . S
H2287 C2293 0.950 . S
H2288 C2294 0.949 . S
C2289 H2284 0.950 . S
C2289 C2291 1.327 . S
C2289 C2295 1.429 . S
C2290 C2282 1.574 . S
C2290 H2285 0.949 . S
C2290 C2296 1.368 . S
C2291 C2275 1.349 . S
C2291 H2283 0.950 . S
C2291 C2289 1.327 . S
C2292 C2280 1.349 . S
C2292 H2286 0.950 . S
C2292 C2293 1.327 1_655 S
C2293 H2287 0.950 . S
C2293 C2292 1.327 1_455 S
C2293 C2297 1.429 1_455 S
C2294 C2277 1.574 1_655 S
C2294 H2288 0.949 . S
C2294 C2298 1.368 1_655 S
C2295 C2276 1.429 . S
C2295 C2289 1.429 . S
C2295 C2296 1.523 . S
C2296 C2277 1.368 . S
C2296 C2290 1.368 . S
C2296 C2295 1.523 . S
C2297 C2281 1.429 . S
C2297 C2293 1.429 1_655 S
C2297 C2298 1.523 1_655 S
C2298 C2282 1.368 . S
C2298 C2294 1.368 1_455 S
C2298 C2297 1.523 1_455 S
H2299 C2274 0.950 . S
H2300 C2276 0.950 . S
H2301 C2277 0.949 . S
H2302 C2279 0.950 . S
H2303 C2281 0.950 . S
C2304 C2305 1.349 . S
C2304 C2306 1.327 . S
C2304 H2329 0.950 . S
C2305 C2304 1.349 . S
C2305 C2321 1.349 . S
C2306 C2304 1.327 . S
C2306 C2325 1.429 . S
C2306 H2330 0.950 . S
C2307 C2324 1.574 . S
C2307 C2326 1.368 . S
C2307 H2331 0.949 . S
H2308 C2312 0.949 . S
C2309 C2310 1.349 . S
C2309 C2311 1.327 . S
C2309 H2332 0.950 . S
C2310 C2309 1.349 . S
C2310 C2322 1.349 . S
C2311 C2309 1.327 . S
C2311 C2327 1.429 . S
C2311 H2333 0.950 . S
C2312 H2308 0.949 . S
C2312 C2320 1.574 . S
C2312 C2328 1.368 . S
H2313 C2321 0.950 . S
H2314 C2319 0.950 . S
H2315 C2320 0.949 . S
H2316 C2322 0.950 . S
H2317 C2323 0.950 . S
H2318 C2324 0.949 . S
C2319 H2314 0.950 . S
C2319 C2321 1.327 . S
C2319 C2325 1.429 . S
C2320 C2312 1.574 . S
C2320 H2315 0.949 . S
C2320 C2326 1.368 . S
C2321 C2305 1.349 . S
C2321 H2313 0.950 . S
C2321 C2319 1.327 . S
C2322 C2310 1.349 . S
C2322 H2316 0.950 . S
C2322 C2323 1.327 . S
C2323 H2317 0.950 . S
C2323 C2322 1.327 . S
C2323 C2327 1.429 . S
C2324 C2307 1.574 . S
C2324 H2318 0.949 . S
C2324 C2328 1.368 . S
C2325 C2306 1.429 . S
C2325 C2319 1.429 . S
C2325 C2326 1.523 . S
C2326 C2307 1.368 . S
C2326 C2320 1.368 . S
C2326 C2325 1.523 . S
C2327 C2311 1.429 . S
C2327 C2323 1.429 . S
C2327 C2328 1.523 . S
C2328 C2312 1.368 . S
C2328 C2324 1.368 . S
C2328 C2327 1.523 . S
H2329 C2304 0.950 . S
H2330 C2306 0.950 . S
H2331 C2307 0.949 . S
H2332 C2309 0.950 . S
H2333 C2311 0.950 . S
C2334 C2335 1.349 . S
C2334 C2336 1.327 . S
C2334 H2359 0.950 . S
C2335 C2334 1.349 . S
C2335 C2351 1.349 . S
C2336 C2334 1.327 . S
C2336 C2355 1.429 . S
C2336 H2360 0.950 . S
C2337 C2354 1.574 . S
C2337 C2356 1.368 . S
C2337 H2361 0.949 . S
H2338 C2342 0.949 . S
C2339 C2340 1.349 . S
C2339 C2341 1.327 . S
C2339 H2362 0.950 . S
C2340 C2339 1.349 . S
C2340 C2352 1.349 . S
C2341 C2339 1.327 . S
C2341 C2357 1.429 . S
C2341 H2363 0.950 . S
C2342 H2338 0.949 . S
C2342 C2350 1.574 . S
C2342 C2358 1.368 . S
H2343 C2351 0.950 . S
H2344 C2349 0.950 . S
H2345 C2350 0.949 . S
H2346 C2352 0.950 . S
H2347 C2353 0.950 . S
H2348 C2354 0.949 . S
C2349 H2344 0.950 . S
C2349 C2351 1.327 . S
C2349 C2355 1.429 . S
C2350 C2342 1.574 . S
C2350 H2345 0.949 . S
C2350 C2356 1.368 . S
C2351 C2335 1.349 . S
C2351 H2343 0.950 . S
C2351 C2349 1.327 . S
C2352 C2340 1.349 . S
C2352 H2346 0.950 . S
C2352 C2353 1.327 . S
C2353 H2347 0.950 . S
C2353 C2352 1.327 . S
C2353 C2357 1.429 . S
C2354 C2337 1.574 . S
C2354 H2348 0.949 . S
C2354 C2358 1.368 . S
C2355 C2336 1.429 . S
C2355 C2349 1.429 . S
C2355 C2356 1.523 . S
C2356 C2337 1.368 . S
C2356 C2350 1.368 . S
C2356 C2355 1.523 . S
C2357 C2341 1.429 . S
C2357 C2353 1.429 . S
C2357 C2358 1.523 1_545 S
C2358 C2342 1.368 . S
C2358 C2354 1.368 . S
C2358 C2357 1.523 1_565 S
H2359 C2334 0.950 . S
H2360 C2336 0.950 . S
H2361 C2337 0.949 . S
H2362 C2339 0.950 . S
H2363 C2341 0.950 . S
C2364 C2365 1.349 . S
C2364 C2366 1.327 . S
C2364 H2389 0.950 . S
C2365 C2364 1.349 . S
C2365 C2381 1.349 . S
C2366 C2364 1.327 . S
C2366 C2385 1.429 . S
C2366 H2390 0.950 . S
C2367 C2384 1.574 . S
C2367 C2386 1.368 . S
C2367 H2391 0.949 . S
H2368 C2372 0.949 1_655 S
C2369 C2370 1.349 . S
C2369 C2371 1.323 . S
C2369 H2392 0.950 . S
C2370 C2369 1.349 . S
C2370 C2382 1.349 . S
C2371 C2369 1.323 . S
C2371 C2387 1.430 . S
C2371 H2393 0.952 1_655 S
C2372 H2368 0.949 1_455 S
C2372 C2380 1.574 . S
C2372 C2388 1.368 . S
H2373 C2381 0.950 . S
H2374 C2379 0.950 . S
H2375 C2380 0.949 . S
H2376 C2382 0.950 . S
H2377 C2383 0.950 . S
H2378 C2384 0.949 . S
C2379 H2374 0.950 . S
C2379 C2381 1.327 . S
C2379 C2385 1.429 . S
C2380 C2372 1.574 . S
C2380 H2375 0.949 . S
C2380 C2386 1.368 . S
C2381 C2365 1.349 . S
C2381 H2373 0.950 . S
C2381 C2379 1.327 . S
C2382 C2370 1.349 . S
C2382 H2376 0.950 . S
C2382 C2383 1.327 . S
C2383 H2377 0.950 . S
C2383 C2382 1.327 . S
C2383 C2387 1.429 . S
C2384 C2367 1.574 . S
C2384 H2378 0.949 . S
C2384 C2388 1.368 . S
C2385 C2366 1.429 . S
C2385 C2379 1.429 . S
C2385 C2386 1.523 . S
C2386 C2367 1.368 . S
C2386 C2380 1.368 . S
C2386 C2385 1.523 . S
C2387 C2371 1.430 . S
C2387 C2383 1.429 . S
C2387 C2388 1.523 1_655 S
C2388 C2372 1.368 . S
C2388 C2384 1.368 . S
C2388 C2387 1.523 1_455 S
H2389 C2364 0.950 . S
H2390 C2366 0.950 . S
H2391 C2367 0.949 . S
H2392 C2369 0.950 . S
H2393 C2371 0.952 1_455 S
C2394 C2395 1.349 . S
C2394 C2396 1.327 . S
C2394 H2419 0.950 . S
C2395 C2394 1.349 . S
C2395 C2411 1.349 . S
C2396 C2394 1.327 . S
C2396 C2415 1.429 . S
C2396 H2420 0.950 . S
C2397 C2414 1.574 . S
C2397 C2416 1.368 . S
C2397 H2421 0.949 . S
H2398 C2402 0.949 . S
C2399 C2400 1.349 . S
C2399 C2401 1.327 . S
C2399 H2422 0.950 . S
C2400 C2399 1.349 . S
C2400 C2412 1.349 . S
C2401 C2399 1.327 . S
C2401 C2417 1.429 . S
C2401 H2423 0.950 . S
C2402 H2398 0.949 . S
C2402 C2410 1.574 . S
C2402 C2418 1.368 . S
H2403 C2411 0.950 . S
H2404 C2409 0.950 . S
H2405 C2410 0.949 . S
H2406 C2412 0.950 . S
H2407 C2413 0.950 . S
H2408 C2414 0.949 . S
C2409 H2404 0.950 . S
C2409 C2411 1.327 . S
C2409 C2415 1.429 . S
C2410 C2402 1.574 . S
C2410 H2405 0.949 . S
C2410 C2416 1.368 . S
C2411 C2395 1.349 . S
C2411 H2403 0.950 . S
C2411 C2409 1.327 . S
C2412 C2400 1.349 . S
C2412 H2406 0.950 . S
C2412 C2413 1.327 . S
C2413 H2407 0.950 . S
C2413 C2412 1.327 . S
C2413 C2417 1.429 . S
C2414 C2397 1.574 . S
C2414 H2408 0.949 . S
C2414 C2418 1.368 . S
C2415 C2396 1.429 . S
C2415 C2409 1.429 . S
C2415 C2416 1.523 . S
C2416 C2397 1.368 . S
C2416 C2410 1.368 . S
C2416 C2415 1.523 . S
C2417 C2401 1.429 . S
C2417 C2413 1.429 . S
C2417 C2418 1.523 . S
C2418 C2402 1.368 . S
C2418 C2414 1.368 . S
C2418 C2417 1.523 . S
H2419 C2394 0.950 . S
H2420 C2396 0.950 . S
H2421 C2397 0.949 . S
H2422 C2399 0.950 . S
H2423 C2401 0.950 . S
C2424 C2425 1.349 . S
C2424 C2426 1.327 . S
C2424 H2449 0.950 . S
C2425 C2424 1.349 . S
C2425 C2441 1.349 . S
C2426 C2424 1.327 . S
C2426 C2445 1.429 . S
C2426 H2450 0.950 . S
C2427 C2444 1.574 . S
C2427 C2446 1.368 . S
C2427 H2451 0.949 . S
H2428 C2432 0.949 . S
C2429 C2430 1.349 . S
C2429 C2431 1.327 . S
C2429 H2452 0.950 . S
C2430 C2429 1.349 . S
C2430 C2442 1.349 . S
C2431 C2429 1.327 . S
C2431 C2447 1.429 . S
C2431 H2453 0.950 . S
C2432 H2428 0.949 . S
C2432 C2440 1.574 . S
C2432 C2448 1.368 . S
H2433 C2441 0.950 . S
H2434 C2439 0.950 . S
H2435 C2440 0.949 . S
H2436 C2442 0.950 . S
H2437 C2443 0.950 1_545 S
H2438 C2444 0.949 1_565 S
C2439 H2434 0.950 . S
C2439 C2441 1.327 . S
C2439 C2445 1.429 . S
C2440 C2432 1.574 . S
C2440 H2435 0.949 . S
C2440 C2446 1.368 . S
C2441 C2425 1.349 . S
C2441 H2433 0.950 . S
C2441 C2439 1.327 . S
C2442 C2430 1.349 . S
C2442 H2436 0.950 . S
C2442 C2443 1.327 . S
C2443 H2437 0.950 1_565 S
C2443 C2442 1.327 . S
C2443 C2447 1.429 . S
C2444 C2427 1.574 . S
C2444 H2438 0.949 1_545 S
C2444 C2448 1.368 . S
C2445 C2426 1.429 . S
C2445 C2439 1.429 . S
C2445 C2446 1.523 . S
C2446 C2427 1.368 . S
C2446 C2440 1.368 . S
C2446 C2445 1.523 . S
C2447 C2431 1.429 . S
C2447 C2443 1.429 . S
C2447 C2448 1.523 1_565 S
C2448 C2432 1.368 . S
C2448 C2444 1.368 . S
C2448 C2447 1.523 1_545 S
H2449 C2424 0.950 . S
H2450 C2426 0.950 . S
H2451 C2427 0.949 . S
H2452 C2429 0.950 . S
H2453 C2431 0.950 . S
C2454 C2455 1.349 . S
C2454 C2456 1.327 . S
C2454 H2479 0.950 . S
C2455 C2454 1.349 . S
C2455 C2471 1.349 . S
C2456 C2454 1.327 . S
C2456 C2475 1.429 . S
C2456 H2480 0.950 . S
C2457 C2474 1.574 . S
C2457 C2476 1.368 . S
C2457 H2481 0.949 . S
H2458 C2462 0.949 . S
C2459 C2460 1.349 . S
C2459 C2461 1.327 . S
C2459 H2482 0.950 . S
C2460 C2459 1.349 . S
C2460 C2472 1.349 . S
C2461 C2459 1.327 . S
C2461 C2477 1.429 . S
C2461 H2483 0.950 . S
C2462 H2458 0.949 . S
C2462 C2470 1.574 . S
C2462 C2478 1.368 . S
H2463 C2471 0.950 . S
H2464 C2469 0.950 . S
H2465 C2470 0.949 . S
H2466 C2472 0.950 . S
H2467 C2473 0.950 . S
H2468 C2474 0.949 . S
C2469 H2464 0.950 . S
C2469 C2471 1.327 . S
C2469 C2475 1.429 . S
C2470 C2462 1.574 . S
C2470 H2465 0.949 . S
C2470 C2476 1.368 . S
C2471 C2455 1.349 . S
C2471 H2463 0.950 . S
C2471 C2469 1.327 . S
C2472 C2460 1.349 . S
C2472 H2466 0.950 . S
C2472 C2473 1.327 . S
C2473 H2467 0.950 . S
C2473 C2472 1.327 . S
C2473 C2477 1.429 . S
C2474 C2457 1.574 . S
C2474 H2468 0.949 . S
C2474 C2478 1.368 . S
C2475 C2456 1.429 . S
C2475 C2469 1.429 . S
C2475 C2476 1.523 1_455 S
C2476 C2457 1.368 . S
C2476 C2470 1.368 . S
C2476 C2475 1.523 1_655 S
C2477 C2461 1.429 . S
C2477 C2473 1.429 . S
C2477 C2478 1.523 . S
C2478 C2462 1.368 . S
C2478 C2474 1.368 . S
C2478 C2477 1.523 . S
H2479 C2454 0.950 . S
H2480 C2456 0.950 . S
H2481 C2457 0.949 . S
H2482 C2459 0.950 . S
H2483 C2461 0.950 . S
C2484 C2485 1.349 . S
C2484 C2486 1.327 . S
C2484 H2509 0.950 . S
C2485 C2484 1.349 . S
C2485 C2501 1.349 . S
C2486 C2484 1.327 . S
C2486 C2505 1.429 . S
C2486 H2510 0.950 . S
C2487 C2504 1.574 1_655 S
C2487 C2506 1.368 . S
C2487 H2511 0.949 . S
H2488 C2492 0.949 . S
C2489 C2490 1.349 . S
C2489 C2491 1.327 . S
C2489 H2512 0.950 . S
C2490 C2489 1.349 . S
C2490 C2502 1.349 . S
C2491 C2489 1.327 . S
C2491 C2507 1.429 . S
C2491 H2513 0.950 . S
C2492 H2488 0.949 . S
C2492 C2500 1.574 1_455 S
C2492 C2508 1.368 . S
H2493 C2501 0.950 . S
H2494 C2499 0.950 . S
H2495 C2500 0.949 . S
H2496 C2502 0.950 . S
H2497 C2503 0.950 . S
H2498 C2504 0.949 . S
C2499 H2494 0.950 . S
C2499 C2501 1.327 . S
C2499 C2505 1.429 . S
C2500 C2492 1.574 1_655 S
C2500 H2495 0.949 . S
C2500 C2506 1.368 . S
C2501 C2485 1.349 . S
C2501 H2493 0.950 . S
C2501 C2499 1.327 . S
C2502 C2490 1.349 . S
C2502 H2496 0.950 . S
C2502 C2503 1.327 . S
C2503 H2497 0.950 . S
C2503 C2502 1.327 . S
C2503 C2507 1.429 . S
C2504 C2487 1.574 1_455 S
C2504 H2498 0.949 . S
C2504 C2508 1.368 . S
C2505 C2486 1.429 . S
C2505 C2499 1.429 . S
C2505 C2506 1.523 . S
C2506 C2487 1.368 . S
C2506 C2500 1.368 . S
C2506 C2505 1.523 . S
C2507 C2491 1.429 . S
C2507 C2503 1.429 . S
C2507 C2508 1.523 . S
C2508 C2492 1.368 . S
C2508 C2504 1.368 . S
C2508 C2507 1.523 . S
H2509 C2484 0.950 . S
H2510 C2486 0.950 . S
H2511 C2487 0.949 . S
H2512 C2489 0.950 . S
H2513 C2491 0.950 . S
C2514 C2515 1.349 . S
C2514 C2516 1.327 . S
C2514 H2539 0.950 . S
C2515 C2514 1.349 . S
C2515 C2531 1.349 . S
C2516 C2514 1.327 . S
C2516 C2535 1.429 . S
C2516 H2540 0.950 . S
C2517 C2534 1.574 . S
C2517 C2536 1.368 . S
C2517 H2541 0.949 . S
H2518 C2522 0.949 . S
C2519 C2520 1.349 . S
C2519 C2521 1.327 . S
C2519 H2542 0.950 . S
C2520 C2519 1.349 . S
C2520 C2532 1.349 . S
C2521 C2519 1.327 . S
C2521 C2537 1.429 . S
C2521 H2543 0.950 . S
C2522 H2518 0.949 . S
C2522 C2530 1.574 . S
C2522 C2538 1.368 . S
H2523 C2531 0.950 . S
H2524 C2529 0.950 . S
H2525 C2530 0.949 . S
H2526 C2532 0.950 . S
H2527 C2533 0.950 . S
H2528 C2534 0.949 . S
C2529 H2524 0.950 . S
C2529 C2531 1.327 . S
C2529 C2535 1.429 . S
C2530 C2522 1.574 . S
C2530 H2525 0.949 . S
C2530 C2536 1.368 . S
C2531 C2515 1.349 . S
C2531 H2523 0.950 . S
C2531 C2529 1.327 . S
C2532 C2520 1.349 . S
C2532 H2526 0.950 . S
C2532 C2533 1.327 . S
C2533 H2527 0.950 . S
C2533 C2532 1.327 . S
C2533 C2537 1.429 . S
C2534 C2517 1.574 . S
C2534 H2528 0.949 . S
C2534 C2538 1.368 . S
C2535 C2516 1.429 . S
C2535 C2529 1.429 . S
C2535 C2536 1.523 . S
C2536 C2517 1.368 . S
C2536 C2530 1.368 . S
C2536 C2535 1.523 . S
C2537 C2521 1.429 . S
C2537 C2533 1.429 . S
C2537 C2538 1.523 . S
C2538 C2522 1.368 . S
C2538 C2534 1.368 . S
C2538 C2537 1.523 . S
H2539 C2514 0.950 . S
H2540 C2516 0.950 . S
H2541 C2517 0.949 . S
H2542 C2519 0.950 . S
H2543 C2521 0.950 . S
C2544 C2545 1.349 . S
C2544 C2546 1.327 . S
C2544 H2569 0.950 . S
C2545 C2544 1.349 . S
C2545 C2561 1.349 . S
C2546 C2544 1.327 . S
C2546 C2565 1.429 . S
C2546 H2570 0.950 . S
C2547 C2564 1.574 1_565 S
C2547 C2566 1.368 . S
C2547 H2571 0.949 . S
H2548 C2552 0.949 . S
C2549 C2550 1.349 . S
C2549 C2551 1.327 . S
C2549 H2572 0.950 . S
C2550 C2549 1.349 . S
C2550 C2562 1.349 . S
C2551 C2549 1.327 . S
C2551 C2567 1.429 . S
C2551 H2573 0.950 . S
C2552 H2548 0.949 . S
C2552 C2560 1.574 1_545 S
C2552 C2568 1.368 . S
H2553 C2561 0.950 . S
H2554 C2559 0.950 . S
H2555 C2560 0.949 . S
H2556 C2562 0.950 . S
H2557 C2563 0.950 . S
H2558 C2564 0.949 . S
C2559 H2554 0.950 . S
C2559 C2561 1.327 . S
C2559 C2565 1.429 . S
C2560 C2552 1.574 1_565 S
C2560 H2555 0.949 . S
C2560 C2566 1.368 . S
C2561 C2545 1.349 . S
C2561 H2553 0.950 . S
C2561 C2559 1.327 . S
C2562 C2550 1.349 . S
C2562 H2556 0.950 . S
C2562 C2563 1.327 . S
C2563 H2557 0.950 . S
C2563 C2562 1.327 . S
C2563 C2567 1.429 . S
C2564 C2547 1.574 1_545 S
C2564 H2558 0.949 . S
C2564 C2568 1.368 . S
C2565 C2546 1.429 . S
C2565 C2559 1.429 . S
C2565 C2566 1.523 . S
C2566 C2547 1.368 . S
C2566 C2560 1.368 . S
C2566 C2565 1.523 . S
C2567 C2551 1.429 . S
C2567 C2563 1.429 . S
C2567 C2568 1.523 . S
C2568 C2552 1.368 . S
C2568 C2564 1.368 . S
C2568 C2567 1.523 . S
H2569 C2544 0.950 . S
H2570 C2546 0.950 . S
H2571 C2547 0.949 . S
H2572 C2549 0.950 . S
H2573 C2551 0.950 . S
C2574 C2575 1.349 . S
C2574 C2576 1.327 . S
C2574 H2599 0.950 . S
C2575 C2574 1.349 . S
C2575 C2591 1.349 . S
C2576 C2574 1.327 . S
C2576 C2595 1.429 . S
C2576 H2600 0.950 . S
C2577 C2594 1.574 1_565 S
C2577 C2596 1.368 . S
C2577 H2601 0.949 . S
H2578 C2582 0.949 . S
C2579 C2580 1.349 . S
C2579 C2581 1.327 . S
C2579 H2602 0.950 . S
C2580 C2579 1.349 . S
C2580 C2592 1.349 . S
C2581 C2579 1.327 . S
C2581 C2597 1.429 . S
C2581 H2603 0.950 . S
C2582 H2578 0.949 . S
C2582 C2590 1.574 1_545 S
C2582 C2598 1.368 . S
H2583 C2591 0.950 . S
H2584 C2589 0.950 . S
H2585 C2590 0.949 . S
H2586 C2592 0.950 . S
H2587 C2593 0.950 . S
H2588 C2594 0.949 . S
C2589 H2584 0.950 . S
C2589 C2591 1.327 . S
C2589 C2595 1.429 . S
C2590 C2582 1.574 1_565 S
C2590 H2585 0.949 . S
C2590 C2596 1.368 . S
C2591 C2575 1.349 . S
C2591 H2583 0.950 . S
C2591 C2589 1.327 . S
C2592 C2580 1.349 . S
C2592 H2586 0.950 . S
C2592 C2593 1.327 . S
C2593 H2587 0.950 . S
C2593 C2592 1.327 . S
C2593 C2597 1.429 . S
C2594 C2577 1.574 1_545 S
C2594 H2588 0.949 . S
C2594 C2598 1.368 . S
C2595 C2576 1.429 . S
C2595 C2589 1.429 . S
C2595 C2596 1.523 . S
C2596 C2577 1.368 . S
C2596 C2590 1.368 . S
C2596 C2595 1.523 . S
C2597 C2581 1.429 . S
C2597 C2593 1.429 . S
C2597 C2598 1.523 . S
C2598 C2582 1.368 . S
C2598 C2594 1.368 . S
C2598 C2597 1.523 . S
H2599 C2574 0.950 . S
H2600 C2576 0.950 . S
H2601 C2577 0.949 . S
H2602 C2579 0.950 . S
H2603 C2581 0.950 . S
C2604 C2605 1.349 . S
C2604 C2606 1.327 . S
C2604 H2629 0.950 . S
C2605 C2604 1.349 . S
C2605 C2621 1.349 . S
C2606 C2604 1.327 . S
C2606 C2625 1.429 . S
C2606 H2630 0.950 . S
C2607 C2624 1.574 1_655 S
C2607 C2626 1.368 . S
C2607 H2631 0.949 . S
H2608 C2612 0.949 . S
C2609 C2610 1.349 . S
C2609 C2611 1.327 . S
C2609 H2632 0.950 . S
C2610 C2609 1.349 . S
C2610 C2622 1.349 . S
C2611 C2609 1.327 . S
C2611 C2627 1.429 . S
C2611 H2633 0.950 . S
C2612 H2608 0.949 . S
C2612 C2620 1.574 1_455 S
C2612 C2628 1.368 . S
H2613 C2621 0.950 . S
H2614 C2619 0.950 . S
H2615 C2620 0.949 . S
H2616 C2622 0.950 . S
H2617 C2623 0.950 . S
H2618 C2624 0.949 . S
C2619 H2614 0.950 . S
C2619 C2621 1.327 . S
C2619 C2625 1.429 . S
C2620 C2612 1.574 1_655 S
C2620 H2615 0.949 . S
C2620 C2626 1.368 . S
C2621 C2605 1.349 . S
C2621 H2613 0.950 . S
C2621 C2619 1.327 . S
C2622 C2610 1.349 . S
C2622 H2616 0.950 . S
C2622 C2623 1.327 . S
C2623 H2617 0.950 . S
C2623 C2622 1.327 . S
C2623 C2627 1.429 . S
C2624 C2607 1.574 1_455 S
C2624 H2618 0.949 . S
C2624 C2628 1.368 . S
C2625 C2606 1.429 . S
C2625 C2619 1.429 . S
C2625 C2626 1.523 . S
C2626 C2607 1.368 . S
C2626 C2620 1.368 . S
C2626 C2625 1.523 . S
C2627 C2611 1.429 . S
C2627 C2623 1.429 . S
C2627 C2628 1.523 . S
C2628 C2612 1.368 . S
C2628 C2624 1.368 . S
C2628 C2627 1.523 . S
H2629 C2604 0.950 . S
H2630 C2606 0.950 . S
H2631 C2607 0.949 . S
H2632 C2609 0.950 . S
H2633 C2611 0.950 . S
C2634 C2635 1.349 . S
C2634 C2636 1.327 . S
C2634 H2659 0.950 . S
C2635 C2634 1.349 . S
C2635 C2651 1.349 . S
C2636 C2634 1.327 . S
C2636 C2655 1.429 . S
C2636 H2660 0.950 . S
C2637 C2654 1.574 . S
C2637 C2656 1.368 . S
C2637 H2661 0.949 . S
H2638 C2642 0.949 . S
C2639 C2640 1.349 . S
C2639 C2641 1.327 . S
C2639 H2662 0.950 . S
C2640 C2639 1.349 . S
C2640 C2652 1.349 . S
C2641 C2639 1.327 . S
C2641 C2657 1.429 . S
C2641 H2663 0.950 . S
C2642 H2638 0.949 . S
C2642 C2650 1.574 . S
C2642 C2658 1.368 . S
H2643 C2651 0.950 . S
H2644 C2649 0.950 . S
H2645 C2650 0.949 . S
H2646 C2652 0.950 . S
H2647 C2653 0.950 . S
H2648 C2654 0.949 . S
C2649 H2644 0.950 . S
C2649 C2651 1.327 . S
C2649 C2655 1.429 . S
C2650 C2642 1.574 . S
C2650 H2645 0.949 . S
C2650 C2656 1.368 . S
C2651 C2635 1.349 . S
C2651 H2643 0.950 . S
C2651 C2649 1.327 . S
C2652 C2640 1.349 . S
C2652 H2646 0.950 . S
C2652 C2653 1.327 . S
C2653 H2647 0.950 . S
C2653 C2652 1.327 . S
C2653 C2657 1.429 . S
C2654 C2637 1.574 . S
C2654 H2648 0.949 . S
C2654 C2658 1.368 . S
C2655 C2636 1.429 . S
C2655 C2649 1.429 . S
C2655 C2656 1.523 . S
C2656 C2637 1.368 . S
C2656 C2650 1.368 . S
C2656 C2655 1.523 . S
C2657 C2641 1.429 . S
C2657 C2653 1.429 . S
C2657 C2658 1.523 . S
C2658 C2642 1.368 . S
C2658 C2654 1.368 . S
C2658 C2657 1.523 . S
H2659 C2634 0.950 . S
H2660 C2636 0.950 . S
H2661 C2637 0.949 . S
H2662 C2639 0.950 . S
H2663 C2641 0.950 . S
C505 C7 1.261 . S
C510 C259 1.261 . S
C535 C21 1.260 . S
C540 C273 1.260 . S
C565 C287 1.260 . S
C570 C35 1.260 . S
C595 C49 1.261 . S
C600 C469 1.261 . S
C625 C483 1.261 . S
C630 C63 1.261 . S
C655 C77 1.261 . S
C660 C497 1.261 . S
C685 C343 1.261 . S
C690 C91 1.261 . S
C715 C105 1.260 . S
C720 C357 1.260 . S
C745 C119 1.260 . S
C750 C371 1.260 . S
C775 C133 1.261 . S
C780 C217 1.261 . S
C805 C231 1.261 . S
C810 C147 1.261 . S
C835 C161 1.261 . S
C840 C245 1.261 . S
C865 C175 1.260 . S
C870 C427 1.260 . S
C895 C189 1.261 . S
C900 C441 1.261 . S
C925 C203 1.260 . S
C930 C455 1.260 . S
C955 C301 1.261 . S
C960 C385 1.261 . S
C985 C315 1.261 . S
C990 C399 1.261 . S
C1015 C329 1.261 . S
C1020 C413 1.261 . S
C1045 C106 1.369 . S
C1050 C6 1.406 . S
C1075 C120 1.370 . S
C1080 C20 1.406 . S
C1105 C34 1.406 . S
C1110 C92 1.369 . S
C1135 C162 1.369 . S
C1140 C48 1.406 . S
C1165 C134 1.369 . S
C1170 C62 1.406 . S
C1195 C148 1.369 . S
C1200 C76 1.406 . S
C1225 C90 1.406 . S
C1230 C22 1.369 . S
C1255 C104 1.406 . S
C1260 C36 1.370 . S
C1285 C118 1.406 . S
C1290 C8 1.369 . S
C1315 C132 1.406 . S
C1320 C78 1.369 . S
C1345 C50 1.369 . S
C1350 C146 1.406 . S
C1375 C64 1.369 . S
C1380 C160 1.406 . S
C1405 C174 1.406 . S
C1410 C274 1.370 . S
C1435 C188 1.406 . S
C1440 C288 1.369 . S
C1465 C202 1.406 . S
C1470 C260 1.369 . S
C1495 C330 1.369 . S
C1500 C216 1.406 . S
C1525 C230 1.406 . S
C1530 C302 1.369 . S
C1555 C316 1.369 . S
C1560 C244 1.406 . S
C1585 C258 1.406 . S
C1590 C190 1.369 . S
C1615 C204 1.370 . S
C1620 C272 1.406 . S
C1645 C176 1.369 . S
C1650 C286 1.406 . S
C1675 C300 1.406 . S
C1680 C246 1.369 . S
C1705 C314 1.406 . S
C1710 C218 1.369 . S
C1735 C328 1.406 . S
C1740 C232 1.369 . S
C1765 C442 1.369 . S
C1770 C342 1.406 . S
C1795 C356 1.406 . S
C1800 C456 1.370 . S
C1825 C370 1.406 . S
C1830 C428 1.369 . S
C1855 C498 1.369 . S
C1860 C384 1.406 . S
C1885 C470 1.369 . S
C1890 C398 1.406 . S
C1915 C484 1.369 . S
C1920 C412 1.406 . S
C1945 C358 1.370 . S
C1950 C426 1.406 . S
C1975 C372 1.369 . S
C1980 C440 1.406 . S
C2005 C344 1.369 . S
C2010 C454 1.406 . S
C2035 C468 1.406 . S
C2040 C414 1.369 . S
C2065 C386 1.369 . S
C2070 C482 1.406 . S
C2095 C496 1.406 . S
C2100 C400 1.369 . S
C2125 C9 1.034 . S
C2130 C415 1.034 . S
C2155 C387 1.034 . S
C2160 C23 1.034 . S
C2185 C37 1.034 . S
C2190 C401 1.034 . S
C2215 C51 1.034 . S
C2220 C191 1.034 . S
C2245 C205 1.034 . S
C2250 C65 1.034 . S
C2275 C79 1.034 . S
C2280 C177 1.034 . S
C2305 C331 1.034 . S
C2310 C93 1.034 . S
C2335 C107 1.034 . S
C2340 C303 1.034 . S
C2365 C121 1.034 . S
C2370 C317 1.034 . S
C2395 C135 1.034 . S
C2400 C443 1.034 . S
C2425 C149 1.034 . S
C2430 C457 1.034 . S
C2455 C429 1.034 . S
C2460 C163 1.034 . S
C2485 C219 1.034 . S
C2490 C359 1.034 . S
C2515 C373 1.033 . S
C2520 C233 1.033 . S
C2545 C345 1.034 . S
C2550 C247 1.034 . S
C2575 C499 1.034 . S
C2580 C261 1.034 . S
C2605 C275 1.034 . S
C2610 C471 1.034 . S
C2635 C289 1.033 . S
C2640 C485 1.033 . S
