# Generated by pormake.
# Topology umb, (4)-cn, num edge types: 1
# Building blocks:
#     Node 0, Type 0, BuildingBlock: CEKHIL_clean_sbu_0, # of connection points: 4
#     Node 1, Type 0, BuildingBlock: CEKHIL_clean_sbu_0, # of connection points: 4
#     Node 2, Type 0, BuildingBlock: CEKHIL_clean_sbu_0, # of connection points: 4
#     Node 3, Type 0, BuildingBlock: CEKHIL_clean_sbu_0, # of connection points: 4
#     Node 4, Type 0, BuildingBlock: CEKHIL_clean_sbu_0, # of connection points: 4
#     Node 5, Type 0, BuildingBlock: CEKHIL_clean_sbu_0, # of connection points: 4
#     Node 6, Type 0, BuildingBlock: CEKHIL_clean_sbu_0, # of connection points: 4
#     Node 7, Type 0, BuildingBlock: CEKHIL_clean_sbu_0, # of connection points: 4
#     Node 8, Type 0, BuildingBlock: CEKHIL_clean_sbu_0, # of connection points: 4
#     Node 9, Type 0, BuildingBlock: CEKHIL_clean_sbu_0, # of connection points: 4
#     Node 10, Type 0, BuildingBlock: CEKHIL_clean_sbu_0, # of connection points: 4
#     Node 11, Type 0, BuildingBlock: CEKHIL_clean_sbu_0, # of connection points: 4
#     Edge 12, Type (0, 0), BuildingBlock: EZIPEK_clean_linker_0, # of connection points: 2
#     Edge 13, Type (0, 0), BuildingBlock: EZIPEK_clean_linker_0, # of connection points: 2
#     Edge 14, Type (0, 0), BuildingBlock: EZIPEK_clean_linker_0, # of connection points: 2
#     Edge 15, Type (0, 0), BuildingBlock: EZIPEK_clean_linker_0, # of connection points: 2
#     Edge 16, Type (0, 0), BuildingBlock: EZIPEK_clean_linker_0, # of connection points: 2
#     Edge 17, Type (0, 0), BuildingBlock: EZIPEK_clean_linker_0, # of connection points: 2
#     Edge 18, Type (0, 0), BuildingBlock: EZIPEK_clean_linker_0, # of connection points: 2
#     Edge 19, Type (0, 0), BuildingBlock: EZIPEK_clean_linker_0, # of connection points: 2
#     Edge 20, Type (0, 0), BuildingBlock: EZIPEK_clean_linker_0, # of connection points: 2
#     Edge 21, Type (0, 0), BuildingBlock: EZIPEK_clean_linker_0, # of connection points: 2
#     Edge 22, Type (0, 0), BuildingBlock: EZIPEK_clean_linker_0, # of connection points: 2
#     Edge 23, Type (0, 0), BuildingBlock: EZIPEK_clean_linker_0, # of connection points: 2
#     Edge 24, Type (0, 0), BuildingBlock: EZIPEK_clean_linker_0, # of connection points: 2
#     Edge 25, Type (0, 0), BuildingBlock: EZIPEK_clean_linker_0, # of connection points: 2
#     Edge 26, Type (0, 0), BuildingBlock: EZIPEK_clean_linker_0, # of connection points: 2
#     Edge 27, Type (0, 0), BuildingBlock: EZIPEK_clean_linker_0, # of connection points: 2
#     Edge 28, Type (0, 0), BuildingBlock: EZIPEK_clean_linker_0, # of connection points: 2
#     Edge 29, Type (0, 0), BuildingBlock: EZIPEK_clean_linker_0, # of connection points: 2
#     Edge 30, Type (0, 0), BuildingBlock: EZIPEK_clean_linker_0, # of connection points: 2
#     Edge 31, Type (0, 0), BuildingBlock: EZIPEK_clean_linker_0, # of connection points: 2
#     Edge 32, Type (0, 0), BuildingBlock: EZIPEK_clean_linker_0, # of connection points: 2
#     Edge 33, Type (0, 0), BuildingBlock: EZIPEK_clean_linker_0, # of connection points: 2
#     Edge 34, Type (0, 0), BuildingBlock: EZIPEK_clean_linker_0, # of connection points: 2
#     Edge 35, Type (0, 0), BuildingBlock: EZIPEK_clean_linker_0, # of connection points: 2
# Relax obj value: 0.276
# Max RMSD: 0.250
# Mean RMSD: 0.250
data_MOF--net-umb--node1-CEKHIL_clean_sbu_0--edge1-EZIPEK_clean_linker_0
_symmetry_space_group_name_H-M    P1
_symmetry_Int_Tables_number       1
_symmetry_cell_setting            triclinic
loop_
_symmetry_equiv_pos_as_xyz
'x, y, z'
_cell_length_a     34.854501
_cell_length_b     34.772164
_cell_length_c     26.164947
_cell_angle_alpha  90.159694
_cell_angle_beta   89.653553
_cell_angle_gamma 120.19321
loop_
_atom_site_label
_atom_site_type_symbol
_atom_site_fract_x
_atom_site_fract_y
_atom_site_fract_z
_atom_type_partial_charge
Co0 Co 0.51854 0.16376 0.35612 0.0
O1 O 0.47086 0.10303 0.3527 0.0
O2 O 0.54238 0.12637 0.33902 0.0
C3 C 0.48743 0.19568 0.3063 0.0
O4 O 0.5759 0.22124 0.35359 0.0
Co5 Co 0.50543 0.23083 0.41424 0.0
O6 O 0.56703 0.27371 0.39278 0.0
C7 C 0.53093 0.17724 0.47419 0.0
C8 C 0.50162 0.09383 0.34079 0.0
C9 C 0.59068 0.26088 0.3694 0.0
O10 O 0.53019 0.1576 0.43192 0.0
O11 O 0.51789 0.20558 0.47662 0.0
O12 O 0.50692 0.1756 0.28705 0.0
O13 O 0.48139 0.19053 0.35571 0.0
Co14 Co 0.37406 0.51923 0.62658 0.0
O15 O 0.3889 0.47343 0.63528 0.0
O16 O 0.43681 0.5447 0.61838 0.0
C17 C 0.31557 0.48593 0.57174 0.0
O18 O 0.37071 0.57484 0.61553 0.0
Co19 Co 0.28595 0.50103 0.67595 0.0
O20 O 0.30339 0.55945 0.64474 0.0
C21 C 0.36301 0.53262 0.74257 0.0
C22 C 0.42974 0.50511 0.62851 0.0
C23 C 0.34104 0.58554 0.62441 0.0
O24 O 0.385 0.53484 0.70208 0.0
O25 O 0.32092 0.51664 0.74197 0.0
O26 O 0.35603 0.50111 0.55619 0.0
O27 O 0.31148 0.48241 0.6214 0.0
Co28 Co 0.81519 0.36627 1.01492 0.0
O29 O 0.87325 0.38916 0.98578 0.0
O30 O 0.83839 0.42744 0.99536 0.0
C31 C 0.7809 0.30081 0.96909 0.0
O32 O 0.75664 0.35522 0.04371 0.0
Co33 Co 0.77601 0.28793 0.08299 0.0
O34 O 0.72038 0.28946 0.08259 0.0
C35 C 0.82863 0.37568 0.13033 0.0
C36 C 0.87422 0.42689 0.98268 0.0
C37 C 0.72305 0.32557 0.06865 0.0
O38 O 0.84229 0.38971 0.0848 0.0
O39 O 0.80165 0.3345 0.13931 0.0
O40 O 0.7867 0.33802 0.95117 0.0
O41 O 0.79998 0.30412 1.01314 0.0
Co42 Co 0.45873 0.84888 0.29272 0.0
O43 O 0.50314 0.91056 0.29815 0.0
O44 O 0.43056 0.88424 0.29044 0.0
C45 C 0.48793 0.82345 0.23264 0.0
O46 O 0.40515 0.78728 0.28696 0.0
Co47 Co 0.48917 0.78805 0.34067 0.0
O48 O 0.42858 0.74291 0.32027 0.0
C49 C 0.45327 0.82745 0.40971 0.0
C50 C 0.47024 0.9181 0.29689 0.0
C51 C 0.39874 0.7489 0.30016 0.0
O52 O 0.44771 0.84489 0.36937 0.0
O53 O 0.47226 0.80414 0.40833 0.0
O54 O 0.47168 0.84831 0.21998 0.0
O55 O 0.49683 0.82555 0.28141 0.0
Co56 Co 0.62885 0.46274 0.69259 0.0
O57 O 0.61449 0.50594 0.66808 0.0
O58 O 0.56599 0.43423 0.68126 0.0
C59 C 0.68742 0.48096 0.63826 0.0
O60 O 0.63046 0.40866 0.71753 0.0
Co61 Co 0.71486 0.49217 0.74827 0.0
O62 O 0.69597 0.42857 0.75337 0.0
C63 C 0.63355 0.46825 0.80764 0.0
C64 C 0.57369 0.47338 0.66769 0.0
C65 C 0.65686 0.39912 0.74071 0.0
O66 O 0.61705 0.47291 0.76598 0.0
O67 O 0.67377 0.47679 0.80971 0.0
O68 O 0.64667 0.45524 0.62456 0.0
O69 O 0.69237 0.49971 0.68297 0.0
Co70 Co 0.12927 0.60918 0.95915 0.0
O71 O 0.0728 0.60557 0.96835 0.0
O72 O 0.08259 0.54859 0.94996 0.0
C73 C 0.16297 0.66882 0.9048 0.0
O74 O 0.18282 0.60187 0.94607 0.0
Co75 Co 0.21033 0.68982 1.00668 0.0
O76 O 0.24142 0.67026 0.9593 0.0
C77 C 0.15686 0.61271 0.07301 0.0
C78 C 0.0556 0.56331 0.95946 0.0
C79 C 0.22464 0.63031 0.94362 0.0
O80 O 0.13078 0.5949 0.03464 0.0
O81 O 0.19048 0.6522 0.07094 0.0
O82 O 0.13272 0.62993 0.8893 0.0
O83 O 0.16477 0.67223 0.95457 0.0
Co84 Co 0.852 0.47426 0.42248 0.0
O85 O 0.91038 0.51907 0.44292 0.0
O86 O 0.88955 0.44872 0.42474 0.0
C87 C 0.81298 0.48829 0.48313 0.0
O88 O 0.79558 0.41927 0.40014 0.0
Co89 Co 0.79154 0.50384 0.37638 0.0
O90 O 0.74688 0.44025 0.37753 0.0
C91 C 0.84765 0.48548 0.30723 0.0
C92 C 0.92108 0.48866 0.43608 0.0
C93 C 0.75731 0.41045 0.38418 0.0
O94 O 0.86874 0.48628 0.34754 0.0
O95 O 0.81484 0.49228 0.31022 0.0
O96 O 0.83134 0.46473 0.49303 0.0
O97 O 0.82391 0.50831 0.43884 0.0
Co98 Co 0.35283 0.8271 0.69847 0.0
O99 O 0.36898 0.88591 0.72136 0.0
O100 O 0.41588 0.86094 0.71074 0.0
C101 C 0.29251 0.78941 0.75282 0.0
O102 O 0.34935 0.76987 0.67593 0.0
Co103 Co 0.26651 0.77012 0.64356 0.0
O104 O 0.28158 0.72254 0.64611 0.0
C105 C 0.34637 0.82826 0.58169 0.0
C106 C 0.40942 0.89353 0.72292 0.0
C107 C 0.3209 0.73219 0.65694 0.0
O108 O 0.36616 0.84677 0.6238 0.0
O109 O 0.3058 0.79713 0.58198 0.0
O110 O 0.33281 0.80333 0.7674 0.0
O111 O 0.28952 0.80253 0.70716 0.0
Co112 Co 0.5111 0.37374 0.10436 0.0
O113 O 0.46244 0.38427 0.09727 0.0
O114 O 0.53205 0.43602 0.11466 0.0
C115 C 0.47698 0.31223 0.15626 0.0
O116 O 0.56865 0.37418 0.11515 0.0
Co117 Co 0.50332 0.29145 0.0541 0.0
O118 O 0.55293 0.30424 0.10009 0.0
C119 C 0.53546 0.37113 0.99069 0.0
C120 C 0.49155 0.42592 0.10438 0.0
C121 C 0.57873 0.34345 0.11637 0.0
O122 O 0.52724 0.38868 0.02935 0.0
O123 O 0.52696 0.33077 0.99138 0.0
O124 O 0.49385 0.35241 0.17384 0.0
O125 O 0.47586 0.31031 0.10642 0.0
Co126 Co 0.15781 0.51661 0.37925 0.0
O127 O 0.09657 0.4769 0.39608 0.0
O128 O 0.13076 0.55087 0.39814 0.0
C129 C 0.18876 0.48407 0.42673 0.0
O130 O 0.2198 0.56809 0.36706 0.0
Co131 Co 0.20477 0.48371 0.31245 0.0
O132 O 0.24604 0.54782 0.30082 0.0
C133 C 0.15654 0.51956 0.25982 0.0
C134 C 0.09465 0.51276 0.40424 0.0
C135 C 0.24791 0.57749 0.33083 0.0
O136 O 0.14132 0.52053 0.30457 0.0
O137 O 0.18273 0.50424 0.25351 0.0
O138 O 0.17633 0.51003 0.44696 0.0
O139 O 0.17576 0.4722 0.37961 0.0
Co140 Co 0.61476 0.13885 0.76907 0.0
O141 O 0.59907 0.07774 0.75875 0.0
O142 O 0.55199 0.10113 0.77798 0.0
C143 C 0.67477 0.16327 0.8231 0.0
O144 O 0.61767 0.19681 0.78219 0.0
Co145 Co 0.70307 0.21108 0.72202 0.0
O146 O 0.68371 0.25089 0.75231 0.0
C147 C 0.62647 0.16686 0.65419 0.0
C148 C 0.55831 0.06845 0.76613 0.0
C149 C 0.64595 0.23755 0.77313 0.0
O150 O 0.60355 0.14488 0.69351 0.0
O151 O 0.66865 0.19247 0.65608 0.0
O152 O 0.63414 0.13972 0.83942 0.0
O153 O 0.67745 0.16436 0.77343 0.0
Co154 Co 0.44878 0.62486 0.03442 0.0
O155 O 0.49068 0.60804 0.05706 0.0
O156 O 0.41854 0.56188 0.04561 0.0
C157 C 0.47014 0.68357 0.09008 0.0
O158 O 0.3955 0.62793 1.01047 0.0
Co159 Co 0.47846 0.71484 0.98408 0.0
O160 O 0.41482 0.69691 0.98571 0.0
C161 C 0.46341 0.63747 0.91879 0.0
C162 C 0.45705 0.5677 0.05829 0.0
C163 C 0.38583 0.65611 0.99218 0.0
O164 O 0.4578 0.61452 0.95964 0.0
O165 O 0.47348 0.67829 0.92142 0.0
O166 O 0.44353 0.64285 0.10396 0.0
O167 O 0.48675 0.68785 0.04442 0.0
C168 C 0.59087 0.2125 0.54163 0.0
C169 C 0.55508 0.17318 0.51993 0.0
C170 C 0.56994 0.12869 0.58222 0.0
C171 C 0.60222 0.1683 0.60713 0.0
N172 N 0.63514 0.24802 0.61633 0.0
N173 N 0.50687 0.09372 0.52443 0.0
C174 C 0.61038 0.21017 0.58835 0.0
C175 C 0.54371 0.13116 0.5415 0.0
N176 N 0.60781 0.25235 0.51671 0.0
N177 N 0.56536 0.08877 0.59623 0.0
H178 H 0.48692 0.09438 0.49528 0.0
H179 H 0.49396 0.06275 0.54191 0.0
H180 H 0.58424 0.08584 0.62511 0.0
H181 H 0.54573 0.05922 0.57652 0.0
H182 H 0.63728 0.28066 0.52731 0.0
H183 H 0.59574 0.2563 0.48206 0.0
H184 H 0.63868 0.2787 0.60683 0.0
H185 H 0.64827 0.24833 0.65206 0.0
C186 C 0.39701 0.60124 0.79714 0.0
C187 C 0.3895 0.55773 0.78869 0.0
C188 C 0.44193 0.57001 0.85909 0.0
C189 C 0.44838 0.6135 0.86739 0.0
N190 N 0.45262 0.67546 0.82092 0.0
N191 N 0.41127 0.50339 0.80526 0.0
C192 C 0.432 0.63076 0.82965 0.0
C193 C 0.41416 0.54295 0.8177 0.0
N194 N 0.37132 0.61518 0.77362 0.0
N195 N 0.46397 0.55558 0.88922 0.0
H196 H 0.39006 0.48256 0.77684 0.0
H197 H 0.43091 0.4919 0.82117 0.0
H198 H 0.48913 0.57687 0.91399 0.0
H199 H 0.45817 0.52318 0.88921 0.0
H200 H 0.37259 0.64476 0.7837 0.0
H201 H 0.34628 0.59588 0.74777 0.0
H202 H 0.44309 0.68921 0.79182 0.0
H203 H 0.48336 0.69774 0.83665 0.0
C204 C 0.83755 0.47301 0.21117 0.0
C205 C 0.85626 0.46842 0.25705 0.0
C206 C 0.8655 0.40921 0.21578 0.0
C207 C 0.84097 0.40949 0.17277 0.0
N208 N 0.80107 0.44091 0.13117 0.0
N209 N 0.90893 0.44888 0.28992 0.0
C210 C 0.82702 0.44174 0.17054 0.0
C211 C 0.87628 0.44122 0.25589 0.0
N212 N 0.83289 0.50945 0.20505 0.0
N213 N 0.87824 0.378 0.21871 0.0
H214 H 0.92361 0.47693 0.31314 0.0
H215 H 0.92677 0.43225 0.28929 0.0
H216 H 0.8738 0.35624 0.18883 0.0
H217 H 0.89073 0.37185 0.25181 0.0
H218 H 0.82357 0.51758 0.17084 0.0
H219 H 0.84429 0.53483 0.23223 0.0
H220 H 0.78445 0.45879 0.13122 0.0
H221 H 0.79326 0.41992 0.09991 0.0
C222 C 0.44756 0.86335 0.49238 0.0
C223 C 0.42841 0.82786 0.4566 0.0
C224 C 0.35459 0.8054 0.49153 0.0
C225 C 0.37343 0.83613 0.53258 0.0
N226 N 0.43602 0.90542 0.55941 0.0
N227 N 0.36477 0.75867 0.43125 0.0
C228 C 0.41977 0.86819 0.52979 0.0
C229 C 0.38231 0.79699 0.45912 0.0
N230 N 0.49243 0.8916 0.49111 0.0
N231 N 0.31068 0.78723 0.48004 0.0
H232 H 0.38415 0.75066 0.40803 0.0
H233 H 0.33209 0.73289 0.43598 0.0
H234 H 0.29091 0.79862 0.49653 0.0
H235 H 0.29609 0.7667 0.44847 0.0
H236 H 0.50987 0.91649 0.51784 0.0
H237 H 0.5129 0.88821 0.4644 0.0
H238 H 0.46883 0.93121 0.55922 0.0
H239 H 0.41489 0.91305 0.57955 0.0
C240 C 0.59692 0.44177 0.94764 0.0
C241 C 0.55707 0.3995 0.94391 0.0
C242 C 0.56425 0.40458 0.85011 0.0
C243 C 0.60375 0.44724 0.85365 0.0
N244 N 0.65001 0.51086 0.90564 0.0
N245 N 0.49635 0.34853 0.89108 0.0
C246 C 0.61762 0.46712 0.90247 0.0
C247 C 0.53886 0.38337 0.89496 0.0
N248 N 0.61654 0.45709 0.99401 0.0
N249 N 0.55175 0.38261 0.8045 0.0
H250 H 0.47631 0.33307 0.92291 0.0
H251 H 0.47936 0.33831 0.85656 0.0
H252 H 0.56715 0.3964 0.76998 0.0
H253 H 0.52756 0.34913 0.80143 0.0
H254 H 0.64824 0.48453 0.99831 0.0
H255 H 0.60287 0.44067 0.0282 0.0
H256 H 0.65858 0.52896 0.93957 0.0
H257 H 0.66507 0.53039 0.87336 0.0
C258 C 0.15131 0.58318 0.21536 0.0
C259 C 0.14667 0.53983 0.21376 0.0
C260 C 0.14495 0.54261 0.11939 0.0
C261 C 0.14893 0.5855 0.12114 0.0
N262 N 0.14168 0.63934 0.17168 0.0
N263 N 0.12408 0.47361 0.16402 0.0
C264 C 0.14769 0.60345 0.16945 0.0
C265 C 0.13877 0.51817 0.16561 0.0
N266 N 0.16161 0.60661 0.25994 0.0
N267 N 0.14949 0.52582 0.07398 0.0
H268 H 0.11743 0.45445 0.19704 0.0
H269 H 0.11359 0.45488 0.13057 0.0
H270 H 0.15438 0.54213 0.03925 0.0
H271 H 0.15232 0.49745 0.07135 0.0
H272 H 0.17162 0.6403 0.26166 0.0
H273 H 0.16302 0.59363 0.29493 0.0
H274 H 0.13553 0.65109 0.20563 0.0
H275 H 0.13789 0.65431 0.13908 0.0
C276 C 0.69715 0.36048 0.32684 0.0
C277 C 0.72367 0.36471 0.36964 0.0
C278 C 0.66875 0.28946 0.39566 0.0
C279 C 0.63792 0.29236 0.36306 0.0
N280 N 0.62233 0.32984 0.29598 0.0
N281 N 0.7377 0.32976 0.44169 0.0
C282 C 0.65207 0.32729 0.32747 0.0
C283 C 0.71106 0.32778 0.40251 0.0
N284 N 0.71531 0.38852 0.28613 0.0
N285 N 0.65755 0.25054 0.42026 0.0
H286 H 0.77057 0.35483 0.4456 0.0
H287 H 0.72667 0.30671 0.47141 0.0
H288 H 0.62647 0.22199 0.41704 0.0
H289 H 0.68022 0.2454 0.44052 0.0
H290 H 0.69814 0.38487 0.2523 0.0
H291 H 0.74912 0.412 0.28447 0.0
H292 H 0.63052 0.35765 0.27347 0.0
H293 H 0.58892 0.30514 0.29455 0.0
C294 C 0.36588 0.69434 0.67087 0.0
C295 C 0.33569 0.70084 0.64092 0.0
C296 C 0.32336 0.6393 0.58524 0.0
C297 C 0.35144 0.63153 0.61672 0.0
N298 N 0.41389 0.66257 0.67368 0.0
N299 N 0.30446 0.69335 0.55632 0.0
C300 C 0.37824 0.66337 0.65366 0.0
C301 C 0.32032 0.67776 0.59369 0.0
N302 N 0.38012 0.71481 0.71719 0.0
N303 N 0.29836 0.60906 0.54869 0.0
H304 H 0.3052 0.72356 0.55932 0.0
H305 H 0.29606 0.67924 0.51998 0.0
H306 H 0.3014 0.58134 0.54061 0.0
H307 H 0.27336 0.61049 0.5286 0.0
H308 H 0.40191 0.71081 0.74041 0.0
H309 H 0.36716 0.73255 0.73522 0.0
H310 H 0.43683 0.68743 0.69754 0.0
H311 H 0.42321 0.63979 0.66177 0.0
C312 C 0.65585 0.3828 0.08793 0.0
C313 C 0.6248 0.35477 0.12465 0.0
C314 C 0.67022 0.32098 0.13805 0.0
C315 C 0.69045 0.33719 0.08916 0.0
N316 N 0.6955 0.38064 1.01381 0.0
N317 N 0.60287 0.29666 0.18698 0.0
C318 C 0.68195 0.36794 0.06306 0.0
C319 C 0.63252 0.32408 0.15113 0.0
N320 N 0.65951 0.42254 0.07595 0.0
N321 N 0.68778 0.30506 0.17292 0.0
H322 H 0.57571 0.29967 0.19836 0.0
H323 H 0.6046 0.27025 0.20335 0.0
H324 H 0.7185 0.30733 0.16803 0.0
H325 H 0.67483 0.2957 0.20978 0.0
H326 H 0.68358 0.44486 0.05056 0.0
H327 H 0.64269 0.43511 0.09691 0.0
H328 H 0.68703 0.40111 0.99359 0.0
H329 H 0.70962 0.36631 0.9911 0.0
C330 C 0.35634 0.6694 0.28157 0.0
C331 C 0.35509 0.70824 0.29428 0.0
C332 C 0.27955 0.66167 0.32774 0.0
C333 C 0.28508 0.62369 0.32345 0.0
N334 N 0.33657 0.59685 0.31145 0.0
N335 N 0.31487 0.74194 0.33051 0.0
C336 C 0.32557 0.62902 0.30427 0.0
C337 C 0.31624 0.70468 0.3168 0.0
N338 N 0.38882 0.67163 0.25025 0.0
N339 N 0.23973 0.65739 0.34155 0.0
H340 H 0.339 0.77408 0.32049 0.0
H341 H 0.29042 0.74123 0.35423 0.0
H342 H 0.21295 0.62849 0.35565 0.0
H343 H 0.23235 0.6827 0.33674 0.0
H344 H 0.38868 0.64343 0.23628 0.0
H345 H 0.4135 0.70154 0.23501 0.0
H346 H 0.36754 0.60115 0.3017 0.0
H347 H 0.31734 0.56865 0.33346 0.0
C348 C 0.65416 0.34536 0.80527 0.0
C349 C 0.64088 0.35275 0.75662 0.0
C350 C 0.60628 0.27334 0.7392 0.0
C351 C 0.63202 0.27039 0.77884 0.0
N352 N 0.67767 0.30136 0.85305 0.0
N353 N 0.60196 0.32152 0.6765 0.0
C354 C 0.65461 0.30556 0.81353 0.0
C355 C 0.61511 0.31598 0.72374 0.0
N356 N 0.66514 0.3757 0.84369 0.0
N357 N 0.57497 0.23573 0.71512 0.0
H358 H 0.60843 0.35178 0.66147 0.0
H359 H 0.58704 0.29597 0.64981 0.0
H360 H 0.56813 0.20399 0.72553 0.0
H361 H 0.55262 0.23563 0.68878 0.0
H362 H 0.67205 0.37024 0.88079 0.0
H363 H 0.66177 0.40363 0.84002 0.0
H364 H 0.69916 0.32795 0.87614 0.0
H365 H 0.67647 0.27135 0.86106 0.0
C366 C 0.29509 0.64622 0.90468 0.0
C367 C 0.25714 0.61618 0.9328 0.0
C368 C 0.30224 0.60518 0.9946 0.0
C369 C 0.34112 0.63908 0.96988 0.0
N370 N 0.37339 0.677 0.8896 0.0
N371 N 0.22432 0.55034 0.98403 0.0
C372 C 0.33728 0.6548 0.92089 0.0
C373 C 0.26077 0.5895 0.97042 0.0
N374 N 0.29055 0.66876 0.86482 0.0
N375 N 0.30393 0.5902 0.04226 0.0
H376 H 0.19428 0.53839 0.96478 0.0
H377 H 0.22561 0.52798 1.00944 0.0
H378 H 0.33291 0.60257 0.06346 0.0
H379 H 0.27551 0.56848 0.06289 0.0
H380 H 0.31698 0.69578 0.84662 0.0
H381 H 0.25929 0.66087 0.8518 0.0
H382 H 0.37184 0.68753 0.85288 0.0
H383 H 0.40422 0.68091 0.89802 0.0
C384 C 0.50559 0.02699 0.3657 0.0
C385 C 0.49114 0.04797 0.33067 0.0
C386 C 0.46484 0.98471 0.27201 0.0
C387 C 0.47723 0.96274 0.30825 0.0
N388 N 0.50128 0.95883 0.39363 0.0
N389 N 0.45214 0.04577 0.25384 0.0
C390 C 0.49554 0.98279 0.35616 0.0
C391 C 0.46897 0.02636 0.28496 0.0
N392 N 0.52918 0.04942 0.40806 0.0
N393 N 0.45132 0.96682 0.22436 0.0
H394 H 0.45664 0.07734 0.26057 0.0
H395 H 0.43126 0.02959 0.22316 0.0
H396 H 0.44844 0.93663 0.21335 0.0
H397 H 0.44635 0.98334 0.19429 0.0
H398 H 0.54583 0.03833 0.43125 0.0
H399 H 0.53444 0.08061 0.41869 0.0
H400 H 0.50897 0.96956 0.43132 0.0
H401 H 0.49473 0.92645 0.38852 0.0
C402 C 0.49567 0.51879 0.67946 0.0
C403 C 0.46705 0.49749 0.6374 0.0
C404 C 0.51053 0.46265 0.61291 0.0
C405 C 0.53706 0.48154 0.6569 0.0
N406 N 0.55057 0.52076 0.73703 0.0
N407 N 0.44389 0.44621 0.56651 0.0
C408 C 0.52865 0.50796 0.6914 0.0
C409 C 0.47336 0.46833 0.60494 0.0
N410 N 0.4915 0.54945 0.70819 0.0
N411 N 0.52204 0.44091 0.57783 0.0
H412 H 0.41806 0.45183 0.55725 0.0
H413 H 0.44348 0.42059 0.54543 0.0
H414 H 0.54909 0.43619 0.58258 0.0
H415 H 0.50702 0.43039 0.54231 0.0
H416 H 0.51509 0.57036 0.73458 0.0
H417 H 0.46597 0.55639 0.70383 0.0
H418 H 0.54175 0.53481 0.76675 0.0
H419 H 0.57534 0.51395 0.74735 0.0
C420 C 0.93834 0.49859 1.01273 0.0
C421 C 0.91672 0.46801 0.9722 0.0
C422 C 0.98397 0.50702 0.91951 0.0
C423 C 0.00723 0.53271 0.96273 0.0
N424 N 0.00834 0.54952 0.05254 0.0
N425 N 0.91796 0.44223 0.88701 0.0
C426 C 0.98482 0.52814 1.00971 0.0
C427 C 0.93923 0.47217 0.92541 0.0
N428 N 0.91487 0.49906 0.05457 0.0
N429 N 0.00436 0.51678 0.87269 0.0
H430 H 0.88425 0.41838 0.88876 0.0
H431 H 0.93395 0.4398 0.85448 0.0
H432 H 0.03696 0.54249 0.86708 0.0
H433 H 0.98801 0.50215 0.83877 0.0
H434 H 0.92809 0.52386 0.08234 0.0
H435 H 0.88105 0.47737 0.05963 0.0
H436 H -0.00535 0.54298 0.08916 0.0
H437 H 0.04259 0.57095 0.05258 0.0
C438 C 0.0275 0.48687 0.45982 0.0
C439 C 0.05212 0.51025 0.41589 0.0
C440 C -0.00475 0.52857 0.39348 0.0
C441 C 0.96786 0.50014 0.43334 0.0
N442 N 0.95635 0.4508 0.50372 0.0
N443 N 0.05624 0.54664 0.33581 0.0
C444 C 0.98356 0.47885 0.46638 0.0
C445 C 0.03549 0.52982 0.38167 0.0
N446 N 0.04669 0.47366 0.49594 0.0
N447 N 0.98278 0.55387 0.36598 0.0
H448 H 0.08517 0.54718 0.32452 0.0
H449 H 0.04247 0.55598 0.30654 0.0
H450 H 0.95226 0.55215 0.36975 0.0
H451 H 0.00434 0.57933 0.34154 0.0
H452 H 0.03213 0.46027 0.53118 0.0
H453 H 0.07907 0.47959 0.49255 0.0
H454 H 0.9637 0.43005 0.52493 0.0
H455 H 0.9252 0.44673 0.51201 0.0
C456 C 0.4891 0.01845 0.71738 0.0
C457 C 0.52015 0.02355 0.75569 0.0
C458 C 0.47607 0.94385 0.77574 0.0
C459 C 0.4469 0.93835 0.73514 0.0
N460 N 0.42828 0.96892 0.66295 0.0
N461 N 0.5459 0.99127 0.81868 0.0
C462 C 0.45387 0.97529 0.7051 0.0
C463 C 0.51459 0.98621 0.78386 0.0
N464 N 0.49314 0.05484 0.69237 0.0
N465 N 0.46554 0.90917 0.80832 0.0
H466 H 0.57259 0.02215 0.82891 0.0
H467 H 0.54688 0.96473 0.83561 0.0
H468 H 0.43705 0.87805 0.80437 0.0
H469 H 0.48271 0.91203 0.84183 0.0
H470 H 0.46802 0.05421 0.67041 0.0
H471 H 0.52075 0.08655 0.69502 0.0
H472 H 0.43589 0.99304 0.63506 0.0
H473 H 0.40091 0.93846 0.65327 0.0
C474 C 0.45175 0.49532 0.03572 0.0
C475 C 0.46277 0.52973 0.07193 0.0
C476 C 0.48673 0.4923 0.13258 0.0
C477 C 0.48026 0.46078 0.09421 0.0
N478 N 0.46366 0.43643 1.00621 0.0
N479 N 0.49172 0.56252 0.15444 0.0
C480 C 0.46423 0.46307 0.04516 0.0
C481 C 0.48074 0.52877 0.12024 0.0
N482 N 0.42955 0.4933 0.99193 0.0
N483 N 0.49666 0.48619 0.18131 0.0
H484 H 0.48394 0.58751 0.14905 0.0
H485 H 0.51018 0.5669 0.18729 0.0
H486 H 0.50061 0.45945 0.1917 0.0
H487 H 0.49742 0.50528 0.2124 0.0
H488 H 0.41499 0.46545 0.96826 0.0
H489 H 0.42286 0.51792 0.98044 0.0
H490 H 0.45853 0.44111 0.96811 0.0
H491 H 0.47212 0.41195 1.01062 0.0
C492 C 0.46055 0.20383 0.21927 0.0
C493 C 0.4713 0.21925 0.27078 0.0
C494 C 0.46065 0.28155 0.24603 0.0
C495 C 0.46463 0.27398 0.19331 0.0
N496 N 0.45969 0.22099 0.1298 0.0
N497 N 0.47974 0.2752 0.33245 0.0
C498 C 0.46189 0.233 0.17978 0.0
C499 C 0.47036 0.2585 0.28416 0.0
N500 N 0.44587 0.1601 0.20867 0.0
N501 N 0.44496 0.30903 0.25994 0.0
H502 H 0.48316 0.2584 0.36287 0.0
H503 H 0.48571 0.30696 0.34157 0.0
H504 H 0.43291 0.32253 0.23321 0.0
H505 H 0.43795 0.31304 0.29773 0.0
H506 H 0.4341 0.14574 0.17299 0.0
H507 H 0.43974 0.13686 0.2373 0.0
H508 H 0.46552 0.1958 0.11766 0.0
H509 H 0.45124 0.23551 0.10065 0.0
C510 C 0.26258 0.49169 0.44597 0.0
C511 C 0.21709 0.47158 0.45779 0.0
C512 C 0.23386 0.45172 0.54244 0.0
C513 C 0.28025 0.48076 0.534 0.0
N514 N 0.33486 0.54041 0.47972 0.0
N515 N 0.15879 0.43319 0.51991 0.0
C516 C 0.29371 0.50379 0.48613 0.0
C517 C 0.20255 0.45182 0.50697 0.0
N518 N 0.27666 0.50039 0.39658 0.0
N519 N 0.21937 0.42282 0.58267 0.0
H520 H 0.13482 0.4299 0.49374 0.0
H521 H 0.14692 0.42302 0.55696 0.0
H522 H 0.24077 0.41969 0.60764 0.0
H523 H 0.1862 0.39851 0.58787 0.0
H524 H 0.30952 0.5112 0.38631 0.0
H525 H 0.25458 0.49095 0.36629 0.0
H526 H 0.34431 0.5591 0.4461 0.0
H527 H 0.35636 0.55675 0.50989 0.0
C528 C 0.77684 0.26554 0.88266 0.0
C529 C 0.76185 0.26036 0.93442 0.0
C530 C 0.70426 0.18342 0.9136 0.0
C531 C 0.71171 0.19267 0.86033 0.0
N532 N 0.76439 0.23768 0.79537 0.0
N533 N 0.71195 0.21201 0.99969 0.0
C534 C 0.75096 0.2323 0.84515 0.0
C535 C 0.72621 0.21837 0.95018 0.0
N536 N 0.81726 0.30128 0.87017 0.0
N537 N 0.67804 0.14043 0.92939 0.0
H538 H 0.72887 0.23519 0.02817 0.0
H539 H 0.68231 0.18457 1.01187 0.0
H540 H 0.66521 0.11377 0.90384 0.0
H541 H 0.6741 0.13071 0.96758 0.0
H542 H 0.83216 0.30642 0.83437 0.0
H543 H 0.83815 0.32414 0.89735 0.0
H544 H 0.78725 0.2681 0.77925 0.0
H545 H 0.75402 0.21074 0.77074 0.0
C546 C 0.51726 0.74877 0.14955 0.0
C547 C 0.47658 0.72179 0.12345 0.0
C548 C 0.44525 0.76377 0.16486 0.0
C549 C 0.48428 0.78797 0.19565 0.0
N550 N 0.557 0.80139 0.21813 0.0
N551 N 0.39884 0.69776 0.1157 0.0
C552 C 0.52009 0.77966 0.18829 0.0
C553 C 0.44004 0.72795 0.13349 0.0
N554 N 0.55335 0.745 0.13708 0.0
N555 N 0.41171 0.77338 0.16572 0.0
H556 H 0.3697 0.69636 0.12818 0.0
H557 H 0.39284 0.67123 0.0923 0.0
H558 H 0.40695 0.79185 0.1935 0.0
H559 H 0.38806 0.7632 0.13685 0.0
H560 H 0.58528 0.76643 0.15031 0.0
H561 H 0.55198 0.72202 0.11038 0.0
H562 H 0.58197 0.79333 0.21939 0.0
H563 H 0.56187 0.82635 0.24385 0.0
C564 C 0.75435 0.52725 0.57955 0.0
C565 C 0.72424 0.48599 0.60332 0.0
C566 C 0.74701 0.4475 0.54172 0.0
C567 C 0.78014 0.48874 0.52073 0.0
N568 N 0.81987 0.56886 0.52581 0.0
N569 N 0.70022 0.40832 0.61363 0.0
C570 C 0.78502 0.52899 0.54124 0.0
C571 C 0.72318 0.44671 0.58623 0.0
N572 N 0.75262 0.56448 0.59207 0.0
N573 N 0.73672 0.4085 0.51797 0.0
H574 H 0.68322 0.40668 0.64689 0.0
H575 H 0.70216 0.37981 0.60672 0.0
H576 H 0.75278 0.40723 0.48513 0.0
H577 H 0.70922 0.37792 0.52759 0.0
H578 H 0.7699 0.59437 0.57214 0.0
H579 H 0.73149 0.56459 0.62039 0.0
H580 H 0.82811 0.599 0.54321 0.0
H581 H 0.84266 0.57148 0.49808 0.0
C582 C 0.19985 0.68734 0.81668 0.0
C583 C 0.19602 0.7023 0.86656 0.0
C584 C 0.25453 0.77785 0.84001 0.0
C585 C 0.25398 0.76278 0.78907 0.0
N586 N 0.21077 0.70607 0.7273 0.0
N587 N 0.21353 0.76641 0.91928 0.0
C588 C 0.2215 0.71865 0.77683 0.0
C589 C 0.22168 0.74894 0.87659 0.0
N590 N 0.18633 0.64364 0.80736 0.0
N591 N 0.28586 0.82012 0.85341 0.0
H592 H 0.18822 0.74756 0.94519 0.0
H593 H 0.22856 0.8005 0.92595 0.0
H594 H 0.30728 0.84353 0.82684 0.0
H595 H 0.29163 0.83117 0.89116 0.0
H596 H 0.19112 0.63259 0.77209 0.0
H597 H 0.17853 0.62022 0.83617 0.0
H598 H 0.18521 0.67454 0.71691 0.0
H599 H 0.22218 0.72915 0.6979 0.0
loop_
_geom_bond_atom_site_label_1
_geom_bond_atom_site_label_2
_geom_bond_distance
_geom_bond_site_symmetry_2
_ccdc_geom_bond_type
Co0 O1 2.216 . S
Co0 O2 2.091 . S
Co0 O4 2.004 . S
Co0 O10 2.021 . S
Co0 O12 2.137 . S
Co0 O13 2.244 . S
O1 Co0 2.216 . S
O1 C8 1.247 . S
O2 Co0 2.091 . S
O2 C8 1.261 . S
C3 O12 1.247 . S
C3 O13 1.272 . S
O4 Co0 2.004 . S
O4 C9 1.259 . S
Co5 O6 2.061 . S
Co5 O11 2.052 . S
Co5 O13 2.135 . S
O6 Co5 2.061 . S
O6 C9 1.235 . S
C7 O10 1.238 . S
C7 O11 1.241 . S
C8 O1 1.247 . S
C8 O2 1.261 . S
C9 O4 1.259 . S
C9 O6 1.235 . S
O10 Co0 2.021 . S
O10 C7 1.238 . S
O11 Co5 2.052 . S
O11 C7 1.241 . S
O12 Co0 2.137 . S
O12 C3 1.247 . S
O13 Co0 2.244 . S
O13 C3 1.272 . S
O13 Co5 2.135 . S
Co14 O15 2.216 . S
Co14 O16 2.091 . S
Co14 O18 2.004 . S
Co14 O24 2.021 . S
Co14 O26 2.137 . S
Co14 O27 2.244 . S
O15 Co14 2.216 . S
O15 C22 1.247 . S
O16 Co14 2.091 . S
O16 C22 1.261 . S
C17 O26 1.247 . S
C17 O27 1.272 . S
O18 Co14 2.004 . S
O18 C23 1.259 . S
Co19 O20 2.061 . S
Co19 O25 2.052 . S
Co19 O27 2.135 . S
O20 Co19 2.061 . S
O20 C23 1.235 . S
C21 O24 1.238 . S
C21 O25 1.241 . S
C22 O15 1.247 . S
C22 O16 1.261 . S
C23 O18 1.259 . S
C23 O20 1.235 . S
O24 Co14 2.021 . S
O24 C21 1.238 . S
O25 Co19 2.052 . S
O25 C21 1.241 . S
O26 Co14 2.137 . S
O26 C17 1.247 . S
O27 Co14 2.244 . S
O27 C17 1.272 . S
O27 Co19 2.135 . S
Co28 O29 2.216 . S
Co28 O30 2.091 . S
Co28 O32 2.004 . S
Co28 O38 2.021 1_556 S
Co28 O40 2.137 . S
Co28 O41 2.244 . S
O29 Co28 2.216 . S
O29 C36 1.247 . S
O30 Co28 2.091 . S
O30 C36 1.261 . S
C31 O40 1.247 . S
C31 O41 1.272 . S
O32 Co28 2.004 . S
O32 C37 1.259 . S
Co33 O34 2.061 . S
Co33 O39 2.052 . S
Co33 O41 2.135 1_554 S
O34 Co33 2.061 . S
O34 C37 1.235 1_554 S
C35 O38 1.238 . S
C35 O39 1.241 . S
C36 O29 1.247 . S
C36 O30 1.261 . S
C37 O32 1.259 . S
C37 O34 1.235 1_556 S
O38 Co28 2.021 1_554 S
O38 C35 1.238 . S
O39 Co33 2.052 . S
O39 C35 1.241 . S
O40 Co28 2.137 . S
O40 C31 1.247 . S
O41 Co28 2.244 . S
O41 C31 1.272 . S
O41 Co33 2.135 1_556 S
Co42 O43 2.216 . S
Co42 O44 2.091 . S
Co42 O46 2.004 . S
Co42 O52 2.021 . S
Co42 O54 2.137 . S
Co42 O55 2.244 . S
O43 Co42 2.216 . S
O43 C50 1.247 . S
O44 Co42 2.091 . S
O44 C50 1.261 . S
C45 O54 1.247 . S
C45 O55 1.272 . S
O46 Co42 2.004 . S
O46 C51 1.259 . S
Co47 O48 2.061 . S
Co47 O53 2.052 . S
Co47 O55 2.135 . S
O48 Co47 2.061 . S
O48 C51 1.235 . S
C49 O52 1.238 . S
C49 O53 1.241 . S
C50 O43 1.247 . S
C50 O44 1.261 . S
C51 O46 1.259 . S
C51 O48 1.235 . S
O52 Co42 2.021 . S
O52 C49 1.238 . S
O53 Co47 2.052 . S
O53 C49 1.241 . S
O54 Co42 2.137 . S
O54 C45 1.247 . S
O55 Co42 2.244 . S
O55 C45 1.272 . S
O55 Co47 2.135 . S
Co56 O57 2.216 . S
Co56 O58 2.091 . S
Co56 O60 2.004 . S
Co56 O66 2.021 . S
Co56 O68 2.137 . S
Co56 O69 2.244 . S
O57 Co56 2.216 . S
O57 C64 1.247 . S
O58 Co56 2.091 . S
O58 C64 1.261 . S
C59 O68 1.247 . S
C59 O69 1.272 . S
O60 Co56 2.004 . S
O60 C65 1.259 . S
Co61 O62 2.061 . S
Co61 O67 2.052 . S
Co61 O69 2.135 . S
O62 Co61 2.061 . S
O62 C65 1.235 . S
C63 O66 1.238 . S
C63 O67 1.241 . S
C64 O57 1.247 . S
C64 O58 1.261 . S
C65 O60 1.259 . S
C65 O62 1.235 . S
O66 Co56 2.021 . S
O66 C63 1.238 . S
O67 Co61 2.052 . S
O67 C63 1.241 . S
O68 Co56 2.137 . S
O68 C59 1.247 . S
O69 Co56 2.244 . S
O69 C59 1.272 . S
O69 Co61 2.135 . S
Co70 O71 2.216 . S
Co70 O72 2.091 . S
Co70 O74 2.004 . S
Co70 O80 2.021 1_556 S
Co70 O82 2.137 . S
Co70 O83 2.244 . S
O71 Co70 2.216 . S
O71 C78 1.247 . S
O72 Co70 2.091 . S
O72 C78 1.261 . S
C73 O82 1.247 . S
C73 O83 1.272 . S
O74 Co70 2.004 . S
O74 C79 1.259 . S
Co75 O76 2.061 . S
Co75 O81 2.052 . S
Co75 O83 2.135 1_554 S
O76 Co75 2.061 . S
O76 C79 1.235 1_554 S
C77 O80 1.238 . S
C77 O81 1.241 . S
C78 O71 1.247 . S
C78 O72 1.261 . S
C79 O74 1.259 . S
C79 O76 1.235 1_556 S
O80 Co70 2.021 1_554 S
O80 C77 1.238 . S
O81 Co75 2.052 . S
O81 C77 1.241 . S
O82 Co70 2.137 . S
O82 C73 1.247 . S
O83 Co70 2.244 . S
O83 C73 1.272 . S
O83 Co75 2.135 1_556 S
Co84 O85 2.216 . S
Co84 O86 2.091 . S
Co84 O88 2.004 . S
Co84 O94 2.021 . S
Co84 O96 2.137 . S
Co84 O97 2.244 . S
O85 Co84 2.216 . S
O85 C92 1.247 . S
O86 Co84 2.091 . S
O86 C92 1.261 . S
C87 O96 1.247 . S
C87 O97 1.272 . S
O88 Co84 2.004 . S
O88 C93 1.259 . S
Co89 O90 2.061 . S
Co89 O95 2.052 . S
Co89 O97 2.135 . S
O90 Co89 2.061 . S
O90 C93 1.235 . S
C91 O94 1.238 . S
C91 O95 1.241 . S
C92 O85 1.247 . S
C92 O86 1.261 . S
C93 O88 1.259 . S
C93 O90 1.235 . S
O94 Co84 2.021 . S
O94 C91 1.238 . S
O95 Co89 2.052 . S
O95 C91 1.241 . S
O96 Co84 2.137 . S
O96 C87 1.247 . S
O97 Co84 2.244 . S
O97 C87 1.272 . S
O97 Co89 2.135 . S
Co98 O99 2.216 . S
Co98 O100 2.091 . S
Co98 O102 2.004 . S
Co98 O108 2.021 . S
Co98 O110 2.137 . S
Co98 O111 2.244 . S
O99 Co98 2.216 . S
O99 C106 1.247 . S
O100 Co98 2.091 . S
O100 C106 1.261 . S
C101 O110 1.247 . S
C101 O111 1.272 . S
O102 Co98 2.004 . S
O102 C107 1.259 . S
Co103 O104 2.061 . S
Co103 O109 2.052 . S
Co103 O111 2.135 . S
O104 Co103 2.061 . S
O104 C107 1.235 . S
C105 O108 1.238 . S
C105 O109 1.241 . S
C106 O99 1.247 . S
C106 O100 1.261 . S
C107 O102 1.259 . S
C107 O104 1.235 . S
O108 Co98 2.021 . S
O108 C105 1.238 . S
O109 Co103 2.052 . S
O109 C105 1.241 . S
O110 Co98 2.137 . S
O110 C101 1.247 . S
O111 Co98 2.244 . S
O111 C101 1.272 . S
O111 Co103 2.135 . S
Co112 O113 2.216 . S
Co112 O114 2.091 . S
Co112 O116 2.004 . S
Co112 O122 2.021 1_554 S
Co112 O124 2.137 . S
Co112 O125 2.244 . S
O113 Co112 2.216 . S
O113 C120 1.247 . S
O114 Co112 2.091 . S
O114 C120 1.261 . S
C115 O124 1.247 . S
C115 O125 1.272 . S
O116 Co112 2.004 . S
O116 C121 1.259 . S
Co117 O118 2.061 1_556 S
Co117 O123 2.052 . S
Co117 O125 2.135 1_556 S
O118 Co117 2.061 1_554 S
O118 C121 1.235 . S
C119 O122 1.238 . S
C119 O123 1.241 . S
C120 O113 1.247 . S
C120 O114 1.261 . S
C121 O116 1.259 . S
C121 O118 1.235 . S
O122 Co112 2.021 1_556 S
O122 C119 1.238 . S
O123 Co117 2.052 . S
O123 C119 1.241 . S
O124 Co112 2.137 . S
O124 C115 1.247 . S
O125 Co112 2.244 . S
O125 C115 1.272 . S
O125 Co117 2.135 1_554 S
Co126 O127 2.216 . S
Co126 O128 2.091 . S
Co126 O130 2.004 . S
Co126 O136 2.021 . S
Co126 O138 2.137 . S
Co126 O139 2.244 . S
O127 Co126 2.216 . S
O127 C134 1.247 . S
O128 Co126 2.091 . S
O128 C134 1.261 . S
C129 O138 1.247 . S
C129 O139 1.272 . S
O130 Co126 2.004 . S
O130 C135 1.259 . S
Co131 O132 2.061 . S
Co131 O137 2.052 . S
Co131 O139 2.135 . S
O132 Co131 2.061 . S
O132 C135 1.235 . S
C133 O136 1.238 . S
C133 O137 1.241 . S
C134 O127 1.247 . S
C134 O128 1.261 . S
C135 O130 1.259 . S
C135 O132 1.235 . S
O136 Co126 2.021 . S
O136 C133 1.238 . S
O137 Co131 2.052 . S
O137 C133 1.241 . S
O138 Co126 2.137 . S
O138 C129 1.247 . S
O139 Co126 2.244 . S
O139 C129 1.272 . S
O139 Co131 2.135 . S
Co140 O141 2.216 . S
Co140 O142 2.091 . S
Co140 O144 2.004 . S
Co140 O150 2.021 . S
Co140 O152 2.137 . S
Co140 O153 2.244 . S
O141 Co140 2.216 . S
O141 C148 1.247 . S
O142 Co140 2.091 . S
O142 C148 1.261 . S
C143 O152 1.247 . S
C143 O153 1.272 . S
O144 Co140 2.004 . S
O144 C149 1.259 . S
Co145 O146 2.061 . S
Co145 O151 2.052 . S
Co145 O153 2.135 . S
O146 Co145 2.061 . S
O146 C149 1.235 . S
C147 O150 1.238 . S
C147 O151 1.241 . S
C148 O141 1.247 . S
C148 O142 1.261 . S
C149 O144 1.259 . S
C149 O146 1.235 . S
O150 Co140 2.021 . S
O150 C147 1.238 . S
O151 Co145 2.052 . S
O151 C147 1.241 . S
O152 Co140 2.137 . S
O152 C143 1.247 . S
O153 Co140 2.244 . S
O153 C143 1.272 . S
O153 Co145 2.135 . S
Co154 O155 2.216 . S
Co154 O156 2.091 . S
Co154 O158 2.004 . S
Co154 O164 2.021 1_554 S
Co154 O166 2.137 . S
Co154 O167 2.244 . S
O155 Co154 2.216 . S
O155 C162 1.247 . S
O156 Co154 2.091 . S
O156 C162 1.261 . S
C157 O166 1.247 . S
C157 O167 1.272 . S
O158 Co154 2.004 . S
O158 C163 1.259 . S
Co159 O160 2.061 1_556 S
Co159 O165 2.052 . S
Co159 O167 2.135 1_556 S
O160 Co159 2.061 1_554 S
O160 C163 1.235 . S
C161 O164 1.238 . S
C161 O165 1.241 . S
C162 O155 1.247 . S
C162 O156 1.261 . S
C163 O158 1.259 . S
C163 O160 1.235 . S
O164 Co154 2.021 1_556 S
O164 C161 1.238 . S
O165 Co159 2.052 . S
O165 C161 1.241 . S
O166 Co154 2.137 . S
O166 C157 1.247 . S
O167 Co154 2.244 . S
O167 C157 1.272 . S
O167 Co159 2.135 1_554 S
C168 C169 1.363 . S
C168 C174 1.379 . S
C168 N176 1.356 . S
C169 C168 1.363 . S
C169 C175 1.363 . S
C170 C171 1.363 . S
C170 C175 1.379 . S
C170 N177 1.356 . S
C171 C170 1.363 . S
C171 C174 1.363 . S
N172 C174 1.356 . S
N172 H184 0.984 . S
N172 H185 0.985 . S
N173 C175 1.356 . S
N173 H178 0.984 . S
N173 H179 0.985 . S
C174 C168 1.379 . S
C174 C171 1.363 . S
C174 N172 1.356 . S
C175 C169 1.363 . S
C175 C170 1.379 . S
C175 N173 1.356 . S
N176 C168 1.356 . S
N176 H182 0.984 . S
N176 H183 0.984 . S
N177 C170 1.356 . S
N177 H180 0.984 . S
N177 H181 0.985 . S
H178 N173 0.984 . S
H179 N173 0.985 . S
H180 N177 0.984 . S
H181 N177 0.985 . S
H182 N176 0.984 . S
H183 N176 0.984 . S
H184 N172 0.984 . S
H185 N172 0.985 . S
C186 C187 1.363 . S
C186 C192 1.379 . S
C186 N194 1.356 . S
C187 C186 1.363 . S
C187 C193 1.363 . S
C188 C189 1.363 . S
C188 C193 1.379 . S
C188 N195 1.356 . S
C189 C188 1.363 . S
C189 C192 1.363 . S
N190 C192 1.356 . S
N190 H202 0.984 . S
N190 H203 0.985 . S
N191 C193 1.356 . S
N191 H196 0.984 . S
N191 H197 0.985 . S
C192 C186 1.379 . S
C192 C189 1.363 . S
C192 N190 1.356 . S
C193 C187 1.363 . S
C193 C188 1.379 . S
C193 N191 1.356 . S
N194 C186 1.356 . S
N194 H200 0.984 . S
N194 H201 0.984 . S
N195 C188 1.356 . S
N195 H198 0.984 . S
N195 H199 0.985 . S
H196 N191 0.984 . S
H197 N191 0.985 . S
H198 N195 0.984 . S
H199 N195 0.985 . S
H200 N194 0.984 . S
H201 N194 0.984 . S
H202 N190 0.984 . S
H203 N190 0.985 . S
C204 C205 1.363 . S
C204 C210 1.379 . S
C204 N212 1.356 . S
C205 C204 1.363 . S
C205 C211 1.363 . S
C206 C207 1.363 . S
C206 C211 1.379 . S
C206 N213 1.356 . S
C207 C206 1.363 . S
C207 C210 1.363 . S
N208 C210 1.356 . S
N208 H220 0.984 . S
N208 H221 0.985 . S
N209 C211 1.356 . S
N209 H214 0.984 . S
N209 H215 0.985 . S
C210 C204 1.379 . S
C210 C207 1.363 . S
C210 N208 1.356 . S
C211 C205 1.363 . S
C211 C206 1.379 . S
C211 N209 1.356 . S
N212 C204 1.356 . S
N212 H218 0.984 . S
N212 H219 0.984 . S
N213 C206 1.356 . S
N213 H216 0.984 . S
N213 H217 0.985 . S
H214 N209 0.984 . S
H215 N209 0.985 . S
H216 N213 0.984 . S
H217 N213 0.985 . S
H218 N212 0.984 . S
H219 N212 0.984 . S
H220 N208 0.984 . S
H221 N208 0.985 . S
C222 C223 1.363 . S
C222 C228 1.379 . S
C222 N230 1.356 . S
C223 C222 1.363 . S
C223 C229 1.363 . S
C224 C225 1.363 . S
C224 C229 1.379 . S
C224 N231 1.356 . S
C225 C224 1.363 . S
C225 C228 1.363 . S
N226 C228 1.356 . S
N226 H238 0.984 . S
N226 H239 0.985 . S
N227 C229 1.356 . S
N227 H232 0.984 . S
N227 H233 0.985 . S
C228 C222 1.379 . S
C228 C225 1.363 . S
C228 N226 1.356 . S
C229 C223 1.363 . S
C229 C224 1.379 . S
C229 N227 1.356 . S
N230 C222 1.356 . S
N230 H236 0.984 . S
N230 H237 0.984 . S
N231 C224 1.356 . S
N231 H234 0.984 . S
N231 H235 0.985 . S
H232 N227 0.984 . S
H233 N227 0.985 . S
H234 N231 0.984 . S
H235 N231 0.985 . S
H236 N230 0.984 . S
H237 N230 0.984 . S
H238 N226 0.984 . S
H239 N226 0.985 . S
C240 C241 1.363 . S
C240 C246 1.379 . S
C240 N248 1.356 . S
C241 C240 1.363 . S
C241 C247 1.363 . S
C242 C243 1.363 . S
C242 C247 1.379 . S
C242 N249 1.356 . S
C243 C242 1.363 . S
C243 C246 1.363 . S
N244 C246 1.356 . S
N244 H256 0.984 . S
N244 H257 0.985 . S
N245 C247 1.356 . S
N245 H250 0.984 . S
N245 H251 0.985 . S
C246 C240 1.379 . S
C246 C243 1.363 . S
C246 N244 1.356 . S
C247 C241 1.363 . S
C247 C242 1.379 . S
C247 N245 1.356 . S
N248 C240 1.356 . S
N248 H254 0.984 . S
N248 H255 0.984 . S
N249 C242 1.356 . S
N249 H252 0.984 . S
N249 H253 0.985 . S
H250 N245 0.984 . S
H251 N245 0.985 . S
H252 N249 0.984 . S
H253 N249 0.985 . S
H254 N248 0.984 . S
H255 N248 0.984 . S
H256 N244 0.984 . S
H257 N244 0.985 . S
C258 C259 1.363 . S
C258 C264 1.379 . S
C258 N266 1.356 . S
C259 C258 1.363 . S
C259 C265 1.363 . S
C260 C261 1.363 . S
C260 C265 1.379 . S
C260 N267 1.356 . S
C261 C260 1.363 . S
C261 C264 1.363 . S
N262 C264 1.356 . S
N262 H274 0.984 . S
N262 H275 0.985 . S
N263 C265 1.356 . S
N263 H268 0.984 . S
N263 H269 0.985 . S
C264 C258 1.379 . S
C264 C261 1.363 . S
C264 N262 1.356 . S
C265 C259 1.363 . S
C265 C260 1.379 . S
C265 N263 1.356 . S
N266 C258 1.356 . S
N266 H272 0.984 . S
N266 H273 0.984 . S
N267 C260 1.356 . S
N267 H270 0.984 . S
N267 H271 0.985 . S
H268 N263 0.984 . S
H269 N263 0.985 . S
H270 N267 0.984 . S
H271 N267 0.985 . S
H272 N266 0.984 . S
H273 N266 0.984 . S
H274 N262 0.984 . S
H275 N262 0.985 . S
C276 C277 1.363 . S
C276 C282 1.379 . S
C276 N284 1.356 . S
C277 C276 1.363 . S
C277 C283 1.363 . S
C278 C279 1.363 . S
C278 C283 1.379 . S
C278 N285 1.356 . S
C279 C278 1.363 . S
C279 C282 1.363 . S
N280 C282 1.356 . S
N280 H292 0.984 . S
N280 H293 0.985 . S
N281 C283 1.356 . S
N281 H286 0.984 . S
N281 H287 0.985 . S
C282 C276 1.379 . S
C282 C279 1.363 . S
C282 N280 1.356 . S
C283 C277 1.363 . S
C283 C278 1.379 . S
C283 N281 1.356 . S
N284 C276 1.356 . S
N284 H290 0.984 . S
N284 H291 0.984 . S
N285 C278 1.356 . S
N285 H288 0.984 . S
N285 H289 0.985 . S
H286 N281 0.984 . S
H287 N281 0.985 . S
H288 N285 0.984 . S
H289 N285 0.985 . S
H290 N284 0.984 . S
H291 N284 0.984 . S
H292 N280 0.984 . S
H293 N280 0.985 . S
C294 C295 1.363 . S
C294 C300 1.379 . S
C294 N302 1.356 . S
C295 C294 1.363 . S
C295 C301 1.363 . S
C296 C297 1.363 . S
C296 C301 1.379 . S
C296 N303 1.356 . S
C297 C296 1.363 . S
C297 C300 1.363 . S
N298 C300 1.356 . S
N298 H310 0.984 . S
N298 H311 0.985 . S
N299 C301 1.356 . S
N299 H304 0.984 . S
N299 H305 0.985 . S
C300 C294 1.379 . S
C300 C297 1.363 . S
C300 N298 1.356 . S
C301 C295 1.363 . S
C301 C296 1.379 . S
C301 N299 1.356 . S
N302 C294 1.356 . S
N302 H308 0.984 . S
N302 H309 0.984 . S
N303 C296 1.356 . S
N303 H306 0.984 . S
N303 H307 0.985 . S
H304 N299 0.984 . S
H305 N299 0.985 . S
H306 N303 0.984 . S
H307 N303 0.985 . S
H308 N302 0.984 . S
H309 N302 0.984 . S
H310 N298 0.984 . S
H311 N298 0.985 . S
C312 C313 1.363 1_556 S
C312 C318 1.379 . S
C312 N320 1.356 . S
C313 C312 1.363 1_554 S
C313 C319 1.363 . S
C314 C315 1.363 1_554 S
C314 C319 1.379 . S
C314 N321 1.356 . S
C315 C314 1.363 1_556 S
C315 C318 1.363 . S
N316 C318 1.356 . S
N316 H328 0.984 . S
N316 H329 0.985 . S
N317 C319 1.356 . S
N317 H322 0.984 . S
N317 H323 0.985 . S
C318 C312 1.379 . S
C318 C315 1.363 . S
C318 N316 1.356 . S
C319 C313 1.363 . S
C319 C314 1.379 . S
C319 N317 1.356 . S
N320 C312 1.356 . S
N320 H326 0.984 . S
N320 H327 0.984 1_556 S
N321 C314 1.356 . S
N321 H324 0.984 . S
N321 H325 0.985 . S
H322 N317 0.984 . S
H323 N317 0.985 . S
H324 N321 0.984 . S
H325 N321 0.985 . S
H326 N320 0.984 . S
H327 N320 0.984 1_554 S
H328 N316 0.984 . S
H329 N316 0.985 . S
C330 C331 1.363 . S
C330 C336 1.379 . S
C330 N338 1.356 . S
C331 C330 1.363 . S
C331 C337 1.363 . S
C332 C333 1.363 . S
C332 C337 1.379 . S
C332 N339 1.356 . S
C333 C332 1.363 . S
C333 C336 1.363 . S
N334 C336 1.356 . S
N334 H346 0.984 . S
N334 H347 0.985 . S
N335 C337 1.356 . S
N335 H340 0.984 . S
N335 H341 0.985 . S
C336 C330 1.379 . S
C336 C333 1.363 . S
C336 N334 1.356 . S
C337 C331 1.363 . S
C337 C332 1.379 . S
C337 N335 1.356 . S
N338 C330 1.356 . S
N338 H344 0.984 . S
N338 H345 0.984 . S
N339 C332 1.356 . S
N339 H342 0.984 . S
N339 H343 0.985 . S
H340 N335 0.984 . S
H341 N335 0.985 . S
H342 N339 0.984 . S
H343 N339 0.985 . S
H344 N338 0.984 . S
H345 N338 0.984 . S
H346 N334 0.984 . S
H347 N334 0.985 . S
C348 C349 1.363 . S
C348 C354 1.379 . S
C348 N356 1.356 . S
C349 C348 1.363 . S
C349 C355 1.363 . S
C350 C351 1.363 . S
C350 C355 1.379 . S
C350 N357 1.356 . S
C351 C350 1.363 . S
C351 C354 1.363 . S
N352 C354 1.356 . S
N352 H364 0.984 . S
N352 H365 0.985 . S
N353 C355 1.356 . S
N353 H358 0.984 . S
N353 H359 0.985 . S
C354 C348 1.379 . S
C354 C351 1.363 . S
C354 N352 1.356 . S
C355 C349 1.363 . S
C355 C350 1.379 . S
C355 N353 1.356 . S
N356 C348 1.356 . S
N356 H362 0.984 . S
N356 H363 0.984 . S
N357 C350 1.356 . S
N357 H360 0.984 . S
N357 H361 0.985 . S
H358 N353 0.984 . S
H359 N353 0.985 . S
H360 N357 0.984 . S
H361 N357 0.985 . S
H362 N356 0.984 . S
H363 N356 0.984 . S
H364 N352 0.984 . S
H365 N352 0.985 . S
C366 C367 1.363 . S
C366 C372 1.379 . S
C366 N374 1.356 . S
C367 C366 1.363 . S
C367 C373 1.363 1_556 S
C368 C369 1.363 . S
C368 C373 1.379 . S
C368 N375 1.356 . S
C369 C368 1.363 . S
C369 C372 1.363 1_554 S
N370 C372 1.356 . S
N370 H382 0.984 . S
N370 H383 0.985 1_556 S
N371 C373 1.356 . S
N371 H376 0.984 . S
N371 H377 0.985 . S
C372 C366 1.379 . S
C372 C369 1.363 1_556 S
C372 N370 1.356 . S
C373 C367 1.363 1_554 S
C373 C368 1.379 . S
C373 N371 1.356 . S
N374 C366 1.356 . S
N374 H380 0.984 . S
N374 H381 0.984 . S
N375 C368 1.356 . S
N375 H378 0.984 . S
N375 H379 0.985 . S
H376 N371 0.984 . S
H377 N371 0.985 . S
H378 N375 0.984 . S
H379 N375 0.985 . S
H380 N374 0.984 . S
H381 N374 0.984 . S
H382 N370 0.984 . S
H383 N370 0.985 1_554 S
C384 C385 1.363 . S
C384 C390 1.379 1_545 S
C384 N392 1.356 . S
C385 C384 1.363 . S
C385 C391 1.363 . S
C386 C387 1.363 . S
C386 C391 1.379 1_565 S
C386 N393 1.356 . S
C387 C386 1.363 . S
C387 C390 1.363 . S
N388 C390 1.356 . S
N388 H400 0.984 . S
N388 H401 0.985 . S
N389 C391 1.356 . S
N389 H394 0.984 . S
N389 H395 0.985 . S
C390 C384 1.379 1_565 S
C390 C387 1.363 . S
C390 N388 1.356 . S
C391 C385 1.363 . S
C391 C386 1.379 1_545 S
C391 N389 1.356 . S
N392 C384 1.356 . S
N392 H398 0.984 . S
N392 H399 0.984 . S
N393 C386 1.356 . S
N393 H396 0.984 . S
N393 H397 0.985 . S
H394 N389 0.984 . S
H395 N389 0.985 . S
H396 N393 0.984 . S
H397 N393 0.985 . S
H398 N392 0.984 . S
H399 N392 0.984 . S
H400 N388 0.984 . S
H401 N388 0.985 . S
C402 C403 1.363 . S
C402 C408 1.379 . S
C402 N410 1.356 . S
C403 C402 1.363 . S
C403 C409 1.363 . S
C404 C405 1.363 . S
C404 C409 1.379 . S
C404 N411 1.356 . S
C405 C404 1.363 . S
C405 C408 1.363 . S
N406 C408 1.356 . S
N406 H418 0.984 . S
N406 H419 0.985 . S
N407 C409 1.356 . S
N407 H412 0.984 . S
N407 H413 0.985 . S
C408 C402 1.379 . S
C408 C405 1.363 . S
C408 N406 1.356 . S
C409 C403 1.363 . S
C409 C404 1.379 . S
C409 N407 1.356 . S
N410 C402 1.356 . S
N410 H416 0.984 . S
N410 H417 0.984 . S
N411 C404 1.356 . S
N411 H414 0.984 . S
N411 H415 0.985 . S
H412 N407 0.984 . S
H413 N407 0.985 . S
H414 N411 0.984 . S
H415 N411 0.985 . S
H416 N410 0.984 . S
H417 N410 0.984 . S
H418 N406 0.984 . S
H419 N406 0.985 . S
C420 C421 1.363 1_554 S
C420 C426 1.379 1_655 S
C420 N428 1.356 . S
C421 C420 1.363 1_556 S
C421 C427 1.363 . S
C422 C423 1.363 . S
C422 C427 1.379 1_455 S
C422 N429 1.356 . S
C423 C422 1.363 . S
C423 C426 1.363 1_556 S
N424 C426 1.356 . S
N424 H436 0.984 . S
N424 H437 0.985 . S
N425 C427 1.356 . S
N425 H430 0.984 . S
N425 H431 0.985 . S
C426 C420 1.379 1_455 S
C426 C423 1.363 1_554 S
C426 N424 1.356 . S
C427 C421 1.363 . S
C427 C422 1.379 1_655 S
C427 N425 1.356 . S
N428 C420 1.356 . S
N428 H434 0.984 . S
N428 H435 0.984 . S
N429 C422 1.356 . S
N429 H432 0.984 . S
N429 H433 0.985 . S
H430 N425 0.984 . S
H431 N425 0.985 . S
H432 N429 0.984 . S
H433 N429 0.985 . S
H434 N428 0.984 . S
H435 N428 0.984 . S
H436 N424 0.984 . S
H437 N424 0.985 . S
C438 C439 1.363 . S
C438 C444 1.379 1_455 S
C438 N446 1.356 . S
C439 C438 1.363 . S
C439 C445 1.363 . S
C440 C441 1.363 . S
C440 C445 1.379 1_655 S
C440 N447 1.356 . S
C441 C440 1.363 . S
C441 C444 1.363 . S
N442 C444 1.356 . S
N442 H454 0.984 . S
N442 H455 0.985 . S
N443 C445 1.356 . S
N443 H448 0.984 . S
N443 H449 0.985 . S
C444 C438 1.379 1_655 S
C444 C441 1.363 . S
C444 N442 1.356 . S
C445 C439 1.363 . S
C445 C440 1.379 1_455 S
C445 N443 1.356 . S
N446 C438 1.356 . S
N446 H452 0.984 . S
N446 H453 0.984 . S
N447 C440 1.356 . S
N447 H450 0.984 . S
N447 H451 0.985 . S
H448 N443 0.984 . S
H449 N443 0.985 . S
H450 N447 0.984 . S
H451 N447 0.985 . S
H452 N446 0.984 . S
H453 N446 0.984 . S
H454 N442 0.984 . S
H455 N442 0.985 . S
C456 C457 1.363 . S
C456 C462 1.379 1_545 S
C456 N464 1.356 . S
C457 C456 1.363 . S
C457 C463 1.363 . S
C458 C459 1.363 . S
C458 C463 1.379 1_565 S
C458 N465 1.356 . S
C459 C458 1.363 . S
C459 C462 1.363 . S
N460 C462 1.356 . S
N460 H472 0.984 . S
N460 H473 0.985 . S
N461 C463 1.356 . S
N461 H466 0.984 . S
N461 H467 0.985 . S
C462 C456 1.379 1_565 S
C462 C459 1.363 . S
C462 N460 1.356 . S
C463 C457 1.363 . S
C463 C458 1.379 1_545 S
C463 N461 1.356 . S
N464 C456 1.356 . S
N464 H470 0.984 . S
N464 H471 0.984 . S
N465 C458 1.356 . S
N465 H468 0.984 . S
N465 H469 0.985 . S
H466 N461 0.984 . S
H467 N461 0.985 . S
H468 N465 0.984 . S
H469 N465 0.985 . S
H470 N464 0.984 . S
H471 N464 0.984 . S
H472 N460 0.984 . S
H473 N460 0.985 . S
C474 C475 1.363 . S
C474 C480 1.379 . S
C474 N482 1.356 1_554 S
C475 C474 1.363 . S
C475 C481 1.363 . S
C476 C477 1.363 . S
C476 C481 1.379 . S
C476 N483 1.356 . S
C477 C476 1.363 . S
C477 C480 1.363 . S
N478 C480 1.356 1_556 S
N478 H490 0.984 . S
N478 H491 0.985 . S
N479 C481 1.356 . S
N479 H484 0.984 . S
N479 H485 0.985 . S
C480 C474 1.379 . S
C480 C477 1.363 . S
C480 N478 1.356 1_554 S
C481 C475 1.363 . S
C481 C476 1.379 . S
C481 N479 1.356 . S
N482 C474 1.356 1_556 S
N482 H488 0.984 . S
N482 H489 0.984 . S
N483 C476 1.356 . S
N483 H486 0.984 . S
N483 H487 0.985 . S
H484 N479 0.984 . S
H485 N479 0.985 . S
H486 N483 0.984 . S
H487 N483 0.985 . S
H488 N482 0.984 . S
H489 N482 0.984 . S
H490 N478 0.984 . S
H491 N478 0.985 . S
C492 C493 1.363 . S
C492 C498 1.379 . S
C492 N500 1.356 . S
C493 C492 1.363 . S
C493 C499 1.363 . S
C494 C495 1.363 . S
C494 C499 1.379 . S
C494 N501 1.356 . S
C495 C494 1.363 . S
C495 C498 1.363 . S
N496 C498 1.356 . S
N496 H508 0.984 . S
N496 H509 0.985 . S
N497 C499 1.356 . S
N497 H502 0.984 . S
N497 H503 0.985 . S
C498 C492 1.379 . S
C498 C495 1.363 . S
C498 N496 1.356 . S
C499 C493 1.363 . S
C499 C494 1.379 . S
C499 N497 1.356 . S
N500 C492 1.356 . S
N500 H506 0.984 . S
N500 H507 0.984 . S
N501 C494 1.356 . S
N501 H504 0.984 . S
N501 H505 0.985 . S
H502 N497 0.984 . S
H503 N497 0.985 . S
H504 N501 0.984 . S
H505 N501 0.985 . S
H506 N500 0.984 . S
H507 N500 0.984 . S
H508 N496 0.984 . S
H509 N496 0.985 . S
C510 C511 1.363 . S
C510 C516 1.379 . S
C510 N518 1.356 . S
C511 C510 1.363 . S
C511 C517 1.363 . S
C512 C513 1.363 . S
C512 C517 1.379 . S
C512 N519 1.356 . S
C513 C512 1.363 . S
C513 C516 1.363 . S
N514 C516 1.356 . S
N514 H526 0.984 . S
N514 H527 0.985 . S
N515 C517 1.356 . S
N515 H520 0.984 . S
N515 H521 0.985 . S
C516 C510 1.379 . S
C516 C513 1.363 . S
C516 N514 1.356 . S
C517 C511 1.363 . S
C517 C512 1.379 . S
C517 N515 1.356 . S
N518 C510 1.356 . S
N518 H524 0.984 . S
N518 H525 0.984 . S
N519 C512 1.356 . S
N519 H522 0.984 . S
N519 H523 0.985 . S
H520 N515 0.984 . S
H521 N515 0.985 . S
H522 N519 0.984 . S
H523 N519 0.985 . S
H524 N518 0.984 . S
H525 N518 0.984 . S
H526 N514 0.984 . S
H527 N514 0.985 . S
C528 C529 1.363 . S
C528 C534 1.379 . S
C528 N536 1.356 . S
C529 C528 1.363 . S
C529 C535 1.363 . S
C530 C531 1.363 . S
C530 C535 1.379 . S
C530 N537 1.356 . S
C531 C530 1.363 . S
C531 C534 1.363 . S
N532 C534 1.356 . S
N532 H544 0.984 . S
N532 H545 0.985 . S
N533 C535 1.356 . S
N533 H538 0.984 . S
N533 H539 0.985 . S
C534 C528 1.379 . S
C534 C531 1.363 . S
C534 N532 1.356 . S
C535 C529 1.363 . S
C535 C530 1.379 . S
C535 N533 1.356 . S
N536 C528 1.356 . S
N536 H542 0.984 . S
N536 H543 0.984 . S
N537 C530 1.356 . S
N537 H540 0.984 . S
N537 H541 0.985 . S
H538 N533 0.984 . S
H539 N533 0.985 . S
H540 N537 0.984 . S
H541 N537 0.985 . S
H542 N536 0.984 . S
H543 N536 0.984 . S
H544 N532 0.984 . S
H545 N532 0.985 . S
C546 C547 1.363 . S
C546 C552 1.379 . S
C546 N554 1.356 . S
C547 C546 1.363 . S
C547 C553 1.363 . S
C548 C549 1.363 . S
C548 C553 1.379 . S
C548 N555 1.356 . S
C549 C548 1.363 . S
C549 C552 1.363 . S
N550 C552 1.356 . S
N550 H562 0.984 . S
N550 H563 0.985 . S
N551 C553 1.356 . S
N551 H556 0.984 . S
N551 H557 0.985 . S
C552 C546 1.379 . S
C552 C549 1.363 . S
C552 N550 1.356 . S
C553 C547 1.363 . S
C553 C548 1.379 . S
C553 N551 1.356 . S
N554 C546 1.356 . S
N554 H560 0.984 . S
N554 H561 0.984 . S
N555 C548 1.356 . S
N555 H558 0.984 . S
N555 H559 0.985 . S
H556 N551 0.984 . S
H557 N551 0.985 . S
H558 N555 0.984 . S
H559 N555 0.985 . S
H560 N554 0.984 . S
H561 N554 0.984 . S
H562 N550 0.984 . S
H563 N550 0.985 . S
C564 C565 1.363 . S
C564 C570 1.379 . S
C564 N572 1.356 . S
C565 C564 1.363 . S
C565 C571 1.363 . S
C566 C567 1.363 . S
C566 C571 1.379 . S
C566 N573 1.356 . S
C567 C566 1.363 . S
C567 C570 1.363 . S
N568 C570 1.356 . S
N568 H580 0.984 . S
N568 H581 0.985 . S
N569 C571 1.356 . S
N569 H574 0.984 . S
N569 H575 0.985 . S
C570 C564 1.379 . S
C570 C567 1.363 . S
C570 N568 1.356 . S
C571 C565 1.363 . S
C571 C566 1.379 . S
C571 N569 1.356 . S
N572 C564 1.356 . S
N572 H578 0.984 . S
N572 H579 0.984 . S
N573 C566 1.356 . S
N573 H576 0.984 . S
N573 H577 0.985 . S
H574 N569 0.984 . S
H575 N569 0.985 . S
H576 N573 0.984 . S
H577 N573 0.985 . S
H578 N572 0.984 . S
H579 N572 0.984 . S
H580 N568 0.984 . S
H581 N568 0.985 . S
C582 C583 1.363 . S
C582 C588 1.379 . S
C582 N590 1.356 . S
C583 C582 1.363 . S
C583 C589 1.363 . S
C584 C585 1.363 . S
C584 C589 1.379 . S
C584 N591 1.356 . S
C585 C584 1.363 . S
C585 C588 1.363 . S
N586 C588 1.356 . S
N586 H598 0.984 . S
N586 H599 0.985 . S
N587 C589 1.356 . S
N587 H592 0.984 . S
N587 H593 0.985 . S
C588 C582 1.379 . S
C588 C585 1.363 . S
C588 N586 1.356 . S
C589 C583 1.363 . S
C589 C584 1.379 . S
C589 N587 1.356 . S
N590 C582 1.356 . S
N590 H596 0.984 . S
N590 H597 0.984 . S
N591 C584 1.356 . S
N591 H594 0.984 . S
N591 H595 0.985 . S
H592 N587 0.984 . S
H593 N587 0.985 . S
H594 N591 0.984 . S
H595 N591 0.985 . S
H596 N590 0.984 . S
H597 N590 0.984 . S
H598 N586 0.984 . S
H599 N586 0.985 . S
C169 C7 1.808 . S
C171 C147 1.808 . S
C187 C21 1.808 . S
C189 C161 1.808 . S
C205 C91 1.808 . S
C207 C35 1.808 . S
C223 C49 1.808 . S
C225 C105 1.808 . S
C241 C119 1.808 . S
C243 C63 1.808 . S
C259 C133 1.808 . S
C261 C77 1.808 . S
C277 C93 0.754 . S
C279 C9 0.754 . S
C295 C107 0.753 . S
C297 C23 0.753 . S
C313 C121 0.753 . S
C315 C37 0.753 . S
C331 C51 0.754 . S
C333 C135 0.754 . S
C349 C65 0.753 . S
C351 C149 0.753 . S
C367 C79 0.753 . S
C369 C163 0.753 . S
C385 C8 1.515 . S
C387 C50 1.515 . S
C403 C22 1.516 . S
C405 C64 1.516 . S
C421 C36 1.515 . S
C423 C78 1.515 . S
C439 C134 1.516 . S
C441 C92 1.516 . S
C457 C148 1.516 . S
C459 C106 1.516 . S
C475 C162 1.515 . S
C477 C120 1.515 . S
C493 C3 1.624 . S
C495 C115 1.624 . S
C511 C129 1.624 . S
C513 C17 1.624 . S
C529 C31 1.624 . S
C531 C143 1.624 . S
C547 C157 1.624 . S
C549 C45 1.624 . S
C565 C59 1.624 . S
C567 C87 1.624 . S
C583 C73 1.624 . S
C585 C101 1.624 . S
