# Generated by pormake.
# Topology crb, (4)-cn, num edge types: 1
# Building blocks:
#     Node 0, Type 0, BuildingBlock: QUQFOY_clean_sbu_3, # of connection points: 4
#     Node 1, Type 0, BuildingBlock: QUQFOY_clean_sbu_3, # of connection points: 4
#     Node 2, Type 0, BuildingBlock: QUQFOY_clean_sbu_3, # of connection points: 4
#     Node 3, Type 0, BuildingBlock: QUQFOY_clean_sbu_3, # of connection points: 4
#     Node 4, Type 0, BuildingBlock: QUQFOY_clean_sbu_3, # of connection points: 4
#     Node 5, Type 0, BuildingBlock: QUQFOY_clean_sbu_3, # of connection points: 4
#     Node 6, Type 0, BuildingBlock: QUQFOY_clean_sbu_3, # of connection points: 4
#     Node 7, Type 0, BuildingBlock: QUQFOY_clean_sbu_3, # of connection points: 4
#     Edge 8, Type (0, 0), BuildingBlock: AJUNOK_clean_linker_0, # of connection points: 2
#     Edge 9, Type (0, 0), BuildingBlock: AJUNOK_clean_linker_0, # of connection points: 2
#     Edge 10, Type (0, 0), BuildingBlock: AJUNOK_clean_linker_0, # of connection points: 2
#     Edge 11, Type (0, 0), BuildingBlock: AJUNOK_clean_linker_0, # of connection points: 2
#     Edge 12, Type (0, 0), BuildingBlock: AJUNOK_clean_linker_0, # of connection points: 2
#     Edge 13, Type (0, 0), BuildingBlock: AJUNOK_clean_linker_0, # of connection points: 2
#     Edge 14, Type (0, 0), BuildingBlock: AJUNOK_clean_linker_0, # of connection points: 2
#     Edge 15, Type (0, 0), BuildingBlock: AJUNOK_clean_linker_0, # of connection points: 2
#     Edge 16, Type (0, 0), BuildingBlock: AJUNOK_clean_linker_0, # of connection points: 2
#     Edge 17, Type (0, 0), BuildingBlock: AJUNOK_clean_linker_0, # of connection points: 2
#     Edge 18, Type (0, 0), BuildingBlock: AJUNOK_clean_linker_0, # of connection points: 2
#     Edge 19, Type (0, 0), BuildingBlock: AJUNOK_clean_linker_0, # of connection points: 2
#     Edge 20, Type (0, 0), BuildingBlock: AJUNOK_clean_linker_0, # of connection points: 2
#     Edge 21, Type (0, 0), BuildingBlock: AJUNOK_clean_linker_0, # of connection points: 2
#     Edge 22, Type (0, 0), BuildingBlock: AJUNOK_clean_linker_0, # of connection points: 2
#     Edge 23, Type (0, 0), BuildingBlock: AJUNOK_clean_linker_0, # of connection points: 2
# Relax obj value: 0.113
# Max RMSD: 0.155
# Mean RMSD: 0.155
data_MOF--net-crb--node1-QUQFOY_clean_sbu_3--edge1-AJUNOK_clean_linker_0
_symmetry_space_group_name_H-M    P1
_symmetry_Int_Tables_number       1
_symmetry_cell_setting            triclinic
loop_
_symmetry_equiv_pos_as_xyz
'x, y, z'
_cell_length_a     34.752599
_cell_length_b     34.100946
_cell_length_c     18.408733
_cell_angle_alpha  90.271692
_cell_angle_beta   90.454941
_cell_angle_gamma 89.480013
loop_
_atom_site_label
_atom_site_type_symbol
_atom_site_fract_x
_atom_site_fract_y
_atom_site_fract_z
_atom_type_partial_charge
C0 C 0.39111 0.30292 0.07174 0.0
O1 O 0.38334 0.31245 0.13675 0.0
Cd2 Cd 0.31961 0.32346 0.17944 0.0
O3 O 0.36413 0.29805 0.02515 0.0
Cd4 Cd 0.2923 0.30087 0.02385 0.0
C5 C 0.29357 0.39769 0.06503 0.0
O6 O 0.28509 0.2667 0.13782 0.0
O7 O 0.23307 0.29359 0.09731 0.0
O8 O 0.29197 0.24904 0.93007 0.0
C9 C 0.24903 0.27078 0.1428 0.0
O10 O 0.30081 0.38786 0.13038 0.0
C11 C 0.26661 0.26602 0.89095 0.0
O12 O 0.29112 0.37168 0.01568 0.0
O13 O 0.25411 0.29891 0.91352 0.0
C14 C 0.55041 0.30494 0.977 0.0
O15 O 0.55626 0.31621 0.91241 0.0
Cd16 Cd 0.61895 0.3275 0.86535 0.0
O17 O 0.57872 0.29832 0.01988 0.0
Cd18 Cd 0.65029 0.30043 0.01526 0.0
C19 C 0.64803 0.39826 -0.01538 0.0
O20 O 0.65472 0.26914 0.8971 0.0
O21 O 0.70781 0.29323 0.93726 0.0
O22 O 0.65153 0.24673 0.10433 0.0
C23 C 0.69072 0.2723 0.89025 0.0
O24 O 0.63905 0.39031 0.91903 0.0
C25 C 0.67817 0.26181 0.14268 0.0
O26 O 0.65186 0.37089 0.03065 0.0
O27 O 0.6911 0.2945 0.12175 0.0
C28 C 0.55224 0.65764 0.07028 0.0
O29 O 0.55841 0.64847 0.13614 0.0
Cd30 Cd 0.62139 0.63721 0.1847 0.0
O31 O 0.58036 0.66233 0.02712 0.0
Cd32 Cd 0.652 0.65937 0.03209 0.0
C33 C 0.64939 0.56272 0.07164 0.0
O34 O 0.65772 0.69328 0.14755 0.0
O35 O 0.70999 0.66584 0.11032 0.0
O36 O 0.65325 0.71162 0.94035 0.0
C37 C 0.69366 0.68864 0.15529 0.0
O38 O 0.64087 0.57278 0.13627 0.0
C39 C 0.6793 0.69516 0.90261 0.0
O40 O 0.65294 0.58854 0.02271 0.0
O41 O 0.69186 0.66227 0.92489 0.0
C42 C 0.39296 0.65596 0.97078 0.0
O43 O 0.38583 0.64376 0.90687 0.0
Cd44 Cd 0.32303 0.63221 0.85946 0.0
O45 O 0.3656 0.66292 0.01507 0.0
Cd46 Cd 0.29372 0.65979 0.01027 0.0
C47 C 0.29538 0.56171 0.97759 0.0
O48 O 0.28874 0.69109 0.89275 0.0
O49 O 0.23569 0.66732 0.93131 0.0
O50 O 0.28926 0.71302 0.10161 0.0
C51 C 0.25271 0.68832 0.88522 0.0
O52 O 0.30325 0.56938 0.91178 0.0
C53 C 0.26345 0.69597 0.13814 0.0
O54 O 0.29255 0.58928 0.0238 0.0
O55 O 0.25315 0.66243 0.11583 0.0
C56 C 0.89372 0.80269 0.57829 0.0
O57 O 0.88665 0.81215 0.64363 0.0
Cd58 Cd 0.82331 0.82227 0.68916 0.0
O59 O 0.86624 0.79722 0.53304 0.0
Cd60 Cd 0.79443 0.79862 0.53526 0.0
C61 C 0.79471 0.89558 0.57483 0.0
O62 O 0.78873 0.76501 0.65034 0.0
O63 O 0.73623 0.79147 0.61106 0.0
O64 O 0.79347 0.7461 0.44291 0.0
C65 C 0.7527 0.76899 0.65647 0.0
O66 O 0.80282 0.88613 0.64003 0.0
C67 C 0.76742 0.76247 0.40452 0.0
O68 O 0.79216 0.86935 0.52589 0.0
O69 O 0.75488 0.79542 0.42671 0.0
C70 C 0.05163 0.8077 0.47605 0.0
O71 O 0.05655 0.81881 0.41107 0.0
Cd72 Cd 0.11874 0.8297 0.36145 0.0
O73 O 0.08054 0.80128 0.51757 0.0
Cd74 Cd 0.15203 0.80338 0.50988 0.0
C75 C 0.14954 0.90108 0.47785 0.0
O76 O 0.15409 0.77094 0.39282 0.0
O77 O 0.20828 0.79441 0.42873 0.0
O78 O 0.15296 0.75041 0.60028 0.0
C79 C 0.19005 0.77297 0.38411 0.0
O80 O 0.13951 0.8928 0.41294 0.0
C81 C 0.18052 0.76488 0.63702 0.0
O82 O 0.15414 0.87393 0.52409 0.0
O83 O 0.19423 0.79692 0.61455 0.0
C84 C 0.05147 0.15927 0.56888 0.0
O85 O 0.06003 0.15031 0.63389 0.0
Cd86 Cd 0.12411 0.14046 0.6769 0.0
O87 O 0.07787 0.16419 0.52198 0.0
Cd88 Cd 0.14983 0.16245 0.5206 0.0
C89 C 0.15035 0.06592 0.56252 0.0
O90 O 0.15732 0.19727 0.63446 0.0
O91 O 0.20931 0.17035 0.59511 0.0
O92 O 0.14963 0.21409 0.42715 0.0
C93 C 0.19339 0.19337 0.64021 0.0
O94 O 0.14357 0.07615 0.62781 0.0
C95 C 0.17507 0.19722 0.38852 0.0
O96 O 0.15187 0.09156 0.51284 0.0
O97 O 0.18766 0.16437 0.41091 0.0
C98 C 0.89103 0.15353 0.47714 0.0
O99 O 0.88454 0.14133 0.41297 0.0
Cd100 Cd 0.82162 0.12933 0.36608 0.0
O101 O 0.86315 0.16046 0.52021 0.0
Cd102 Cd 0.79146 0.15738 0.51596 0.0
C103 C 0.79393 0.0593 0.48579 0.0
O104 O 0.78664 0.18811 0.39798 0.0
O105 O 0.73353 0.16457 0.437 0.0
O106 O 0.79016 0.21111 0.60604 0.0
C107 C 0.7506 0.18527 0.3905 0.0
O108 O 0.80227 0.0668 0.42011 0.0
C109 C 0.76352 0.19599 0.64327 0.0
O110 O 0.79043 0.08701 0.53157 0.0
O111 O 0.75069 0.16326 0.62138 0.0
C112 C 0.29223 0.4504 0.97089 0.0
C113 C 0.29059 0.43973 0.04466 0.0
C114 C 0.29284 0.48979 0.94976 0.0
C115 C 0.29156 0.52031 0.00138 0.0
H116 H 0.29413 0.42817 0.92883 0.0
H117 H 0.295 0.49624 0.89239 0.0
S118 S 0.2838 0.50826 0.20146 0.0
N119 N 0.28538 0.46303 0.16931 0.0
N120 N 0.28628 0.53704 0.12987 0.0
C121 C 0.28843 0.51011 0.07531 0.0
C122 C 0.28804 0.4699 0.09685 0.0
C123 C 0.4412 0.30213 0.97499 0.0
C124 C 0.43188 0.29979 0.04902 0.0
C125 C 0.47955 0.30291 0.95235 0.0
C126 C 0.51024 0.30101 0.00271 0.0
H127 H 0.41873 0.30458 0.93409 0.0
H128 H 0.48507 0.30562 0.89477 0.0
S129 S 0.50134 0.2911 0.20273 0.0
N130 N 0.45652 0.29307 0.17257 0.0
N131 N 0.52858 0.29435 0.13002 0.0
C132 C 0.50136 0.29708 0.07679 0.0
C133 C 0.46223 0.29655 0.09992 0.0
C134 C 0.65031 0.47 0.95663 0.0
C135 C 0.65185 0.43979 0.00838 0.0
C136 C 0.6508 0.50952 0.97765 0.0
C137 C 0.65253 0.5206 0.05141 0.0
H138 H 0.64803 0.4632 0.89922 0.0
H139 H 0.64868 0.53151 0.93551 0.0
S140 S 0.65999 0.45307 0.20857 0.0
N141 N 0.65748 0.42384 0.13702 0.0
N142 N 0.65814 0.4981 0.17624 0.0
C143 C 0.65534 0.49078 0.10375 0.0
C144 C 0.65511 0.45044 0.08234 0.0
C145 C 0.4429 0.65959 0.06914 0.0
C146 C 0.43356 0.66017 -0.00528 0.0
C147 C 0.48129 0.65978 0.09293 0.0
C148 C 0.51194 0.66092 0.04332 0.0
H149 H 0.42047 0.65771 0.10947 0.0
H150 H 0.48689 0.65831 0.15082 0.0
S151 S 0.50272 0.66668 0.84244 0.0
N152 N 0.45798 0.66472 0.87148 0.0
N153 N 0.53005 0.66525 0.91611 0.0
C154 C 0.50293 0.66323 0.96875 0.0
C155 C 0.46381 0.66276 0.9445 0.0
C156 C 0.79249 0.94796 0.48018 0.0
C157 C 0.79093 0.93748 0.55403 0.0
C158 C 0.79246 -0.01271 0.45866 0.0
C159 C 0.79056 0.01793 0.50998 0.0
H160 H 0.7949 0.92563 0.43836 0.0
H161 H 0.79465 -0.00639 0.40125 0.0
S162 S 0.78253 0.00629 0.71009 0.0
N163 N 0.78499 0.961 0.6784 0.0
N164 N 0.78467 0.03493 0.63824 0.0
C165 C 0.78742 0.00788 0.58398 0.0
C166 C 0.7877 0.96773 0.6059 0.0
C167 C -0.01952 0.80513 0.45479 0.0
C168 C 0.01186 0.80334 0.50363 0.0
C169 C 0.94248 0.80354 0.47921 0.0
C170 C 0.9342 0.80045 0.5536 0.0
H171 H -0.01482 0.80833 0.39703 0.0
H172 H 0.91943 0.80592 0.43946 0.0
S173 S 0.00579 0.79178 0.70378 0.0
N174 N 0.03198 0.79604 0.6299 0.0
N175 N 0.96057 0.79325 0.67578 0.0
C176 C 0.96525 0.7974 0.60297 0.0
C177 C 0.00403 0.79875 0.57803 0.0
C178 C 0.15096 0.01234 0.46919 0.0
C179 C 0.15382 0.02376 0.54267 0.0
C180 C 0.15065 0.97274 0.44873 0.0
C181 C 0.15347 0.94275 0.50077 0.0
H182 H 0.1478 0.03413 0.42688 0.0
H183 H 0.14743 0.96568 0.39158 0.0
S184 S 0.16499 0.95692 0.70021 0.0
N185 N 0.16196 0.00181 0.66742 0.0
N186 N 0.16162 0.92738 0.62922 0.0
C187 C 0.15793 0.95373 0.57435 0.0
C188 C 0.158 -0.00583 0.59521 0.0
C189 C 0.96154 0.15576 0.45116 0.0
C190 C 0.93148 0.1584 0.50195 0.0
C191 C 0.00016 0.1575 0.47301 0.0
C192 C 0.01041 0.16159 0.54665 0.0
H193 H 0.95531 0.15171 0.39389 0.0
H194 H 0.02213 0.15438 0.43191 0.0
S195 S 0.94291 0.17304 0.701 0.0
N196 N 0.91475 0.16779 0.62907 0.0
N197 N -0.01266 0.17087 0.67015 0.0
C198 C -0.0193 0.16563 0.59789 0.0
C199 C 0.94129 0.16412 0.57556 0.0
C200 C 0.22665 0.20132 0.29593 0.0
C201 C 0.19144 0.21558 0.32301 0.0
C202 C 0.24459 0.21923 0.23724 0.0
C203 C 0.22784 0.25181 0.20232 0.0
H204 H 0.2411 0.1766 0.32131 0.0
H205 H 0.27199 0.20744 0.21933 0.0
S206 S 0.13484 0.29943 0.24932 0.0
N207 N 0.13975 0.26362 0.3089 0.0
N208 N 0.17329 0.29694 0.19727 0.0
C209 C 0.19207 0.26579 0.22723 0.0
C210 C 0.17396 0.2478 0.28795 0.0
C211 C 0.73128 0.25345 0.23276 0.0
C212 C 0.69486 0.24196 0.20708 0.0
C213 C 0.7488 0.23485 0.29201 0.0
C214 C 0.73042 0.20433 0.32886 0.0
H215 H 0.74681 0.2767 0.20622 0.0
H216 H 0.77702 0.24466 0.30917 0.0
S217 S 0.63419 0.1639 0.28494 0.0
N218 N 0.64058 0.19845 0.22371 0.0
N219 N 0.67336 0.1638 0.33638 0.0
C220 C 0.69367 0.19288 0.30473 0.0
C221 C 0.67597 0.21156 0.24345 0.0
C222 C 0.7152 0.75748 0.31175 0.0
C223 C 0.7507 0.74365 0.339 0.0
C224 C 0.69732 0.73953 0.25219 0.0
C225 C 0.71441 0.70731 0.21662 0.0
H226 H 0.70057 0.78201 0.33743 0.0
H227 H 0.66977 0.75108 0.23395 0.0
S228 S 0.80803 0.66062 0.26445 0.0
N229 N 0.80286 0.69622 0.32484 0.0
N230 N 0.76942 0.66277 0.21168 0.0
C231 C 0.75035 0.69361 0.24208 0.0
C232 C 0.76841 0.71166 0.30362 0.0
C233 C 0.24448 0.76569 0.29619 0.0
C234 C 0.20912 0.75246 0.32302 0.0
C235 C 0.26201 0.7473 0.23638 0.0
C236 C 0.24514 0.71458 0.20224 0.0
H237 H 0.25836 0.79088 0.32063 0.0
H238 H 0.28897 0.75877 0.21688 0.0
S239 S 0.15342 0.66747 0.25418 0.0
N240 N 0.15838 0.70409 0.31228 0.0
N241 N 0.19137 0.66927 0.20106 0.0
C242 C 0.21014 0.70063 0.22969 0.0
C243 C 0.19212 0.71964 0.28973 0.0
C244 C 0.23407 0.75576 0.726 0.0
C245 C 0.1972 0.74506 0.70149 0.0
C246 C 0.25149 0.73717 0.78538 0.0
C247 C 0.2326 0.70744 0.8235 0.0
H248 H 0.25001 0.77837 0.69846 0.0
H249 H 0.28007 0.74637 0.80158 0.0
S250 S 0.13502 0.66936 0.78301 0.0
N251 N 0.1419 0.70321 0.72068 0.0
N252 N 0.17454 0.66857 0.83347 0.0
C253 C 0.19541 0.6968 0.80052 0.0
C254 C 0.17777 0.71548 0.73917 0.0
C255 C 0.21544 0.2624 0.79593 0.0
C256 C 0.2504 0.24784 0.82434 0.0
C257 C 0.19773 0.24478 0.73587 0.0
C258 C 0.21448 0.21219 0.70092 0.0
H259 H 0.20099 0.28715 0.82126 0.0
H260 H 0.17048 0.25676 0.71695 0.0
S261 S 0.30695 0.16389 0.75115 0.0
N262 N 0.30192 0.19956 0.81144 0.0
N263 N 0.26879 0.16674 0.69729 0.0
C264 C 0.25004 0.19793 0.72717 0.0
C265 C 0.26792 0.21563 0.78925 0.0
C266 C 0.69263 0.22281 0.79068 0.0
C267 C 0.71091 0.25334 0.82874 0.0
C268 C 0.71025 0.20425 0.73167 0.0
C269 C 0.74669 0.21581 0.70743 0.0
H270 H 0.66441 0.21293 0.80672 0.0
H271 H 0.6948 0.18098 0.70417 0.0
S272 S 0.80712 0.29397 0.78876 0.0
N273 N 0.76791 0.29398 0.83887 0.0
N274 N 0.80086 0.25943 0.72668 0.0
C275 C 0.76547 0.24625 0.74498 0.0
C276 C 0.74766 0.26488 0.80601 0.0
C277 C 0.73167 0.70039 0.81177 0.0
C278 C 0.69595 0.71387 0.83774 0.0
C279 C 0.74945 0.71835 0.75294 0.0
C280 C 0.73204 0.7502 0.71684 0.0
H281 H 0.74654 0.67616 0.83796 0.0
H282 H 0.7772 0.70711 0.73571 0.0
S283 S 0.63769 0.79578 0.76122 0.0
N284 N 0.6432 0.76051 0.82169 0.0
N285 N 0.67645 0.79395 0.70993 0.0
C286 C 0.69586 0.7635 0.74096 0.0
C287 C 0.67791 0.74547 0.80176 0.0
loop_
_geom_bond_atom_site_label_1
_geom_bond_atom_site_label_2
_geom_bond_distance
_geom_bond_site_symmetry_2
_ccdc_geom_bond_type
C0 O1 1.306 . S
C0 O3 1.160 1_554 S
O1 C0 1.306 . S
O1 Cd2 2.228 . S
Cd2 O1 2.228 . S
Cd2 O6 2.273 . S
Cd2 O10 2.277 . S
O3 C0 1.160 1_556 S
O3 Cd4 2.203 1_556 S
Cd4 O3 2.203 1_554 S
Cd4 O6 2.411 . S
Cd4 O7 2.333 . S
Cd4 O8 2.352 1_554 S
Cd4 O12 2.277 1_554 S
Cd4 O13 2.356 1_554 S
C5 O10 1.209 . S
C5 O12 1.226 1_554 S
O6 Cd2 2.273 . S
O6 Cd4 2.411 . S
O6 C9 1.320 . S
O7 Cd4 2.333 . S
O7 C9 1.214 . S
O8 Cd4 2.352 1_556 S
O8 C11 1.258 . S
C9 O6 1.320 . S
C9 O7 1.214 . S
O10 Cd2 2.277 . S
O10 C5 1.209 . S
C11 O8 1.258 . S
C11 O13 1.282 . S
O12 Cd4 2.277 1_556 S
O12 C5 1.226 1_556 S
O13 Cd4 2.356 1_556 S
O13 C11 1.282 . S
C14 O15 1.306 1_554 S
C14 O17 1.160 . S
O15 C14 1.306 1_556 S
O15 Cd16 2.228 . S
Cd16 O15 2.228 . S
Cd16 O20 2.273 . S
Cd16 O24 2.277 . S
O17 C14 1.160 . S
O17 Cd18 2.203 . S
Cd18 O17 2.203 . S
Cd18 O20 2.411 1_554 S
Cd18 O21 2.333 1_554 S
Cd18 O22 2.352 . S
Cd18 O26 2.277 . S
Cd18 O27 2.356 . S
C19 O24 1.209 1_554 S
C19 O26 1.226 . S
O20 Cd16 2.273 . S
O20 Cd18 2.411 1_556 S
O20 C23 1.320 . S
O21 Cd18 2.333 1_556 S
O21 C23 1.214 . S
O22 Cd18 2.352 . S
O22 C25 1.258 . S
C23 O20 1.320 . S
C23 O21 1.214 . S
O24 Cd16 2.277 . S
O24 C19 1.209 1_556 S
C25 O22 1.258 . S
C25 O27 1.282 . S
O26 Cd18 2.277 . S
O26 C19 1.226 . S
O27 Cd18 2.356 . S
O27 C25 1.282 . S
C28 O29 1.306 . S
C28 O31 1.160 1_554 S
O29 C28 1.306 . S
O29 Cd30 2.228 . S
Cd30 O29 2.228 . S
Cd30 O34 2.273 . S
Cd30 O38 2.277 . S
O31 C28 1.160 1_556 S
O31 Cd32 2.203 1_556 S
Cd32 O31 2.203 1_554 S
Cd32 O34 2.411 . S
Cd32 O35 2.333 . S
Cd32 O36 2.352 1_554 S
Cd32 O40 2.277 1_554 S
Cd32 O41 2.356 1_554 S
C33 O38 1.209 . S
C33 O40 1.226 1_554 S
O34 Cd30 2.273 . S
O34 Cd32 2.411 . S
O34 C37 1.320 . S
O35 Cd32 2.333 . S
O35 C37 1.214 . S
O36 Cd32 2.352 1_556 S
O36 C39 1.258 . S
C37 O34 1.320 . S
C37 O35 1.214 . S
O38 Cd30 2.277 . S
O38 C33 1.209 . S
C39 O36 1.258 . S
C39 O41 1.282 . S
O40 Cd32 2.277 1_556 S
O40 C33 1.226 1_556 S
O41 Cd32 2.356 1_556 S
O41 C39 1.282 . S
C42 O43 1.306 1_554 S
C42 O45 1.160 . S
O43 C42 1.306 1_556 S
O43 Cd44 2.228 . S
Cd44 O43 2.228 . S
Cd44 O48 2.273 . S
Cd44 O52 2.277 . S
O45 C42 1.160 . S
O45 Cd46 2.203 . S
Cd46 O45 2.203 . S
Cd46 O48 2.411 1_554 S
Cd46 O49 2.333 1_554 S
Cd46 O50 2.352 . S
Cd46 O54 2.277 . S
Cd46 O55 2.356 . S
C47 O52 1.209 1_554 S
C47 O54 1.226 . S
O48 Cd44 2.273 . S
O48 Cd46 2.411 1_556 S
O48 C51 1.320 . S
O49 Cd46 2.333 1_556 S
O49 C51 1.214 . S
O50 Cd46 2.352 . S
O50 C53 1.258 . S
C51 O48 1.320 . S
C51 O49 1.214 . S
O52 Cd44 2.277 . S
O52 C47 1.209 1_556 S
C53 O50 1.258 . S
C53 O55 1.282 . S
O54 Cd46 2.277 . S
O54 C47 1.226 . S
O55 Cd46 2.356 . S
O55 C53 1.282 . S
C56 O57 1.306 . S
C56 O59 1.160 . S
O57 C56 1.306 . S
O57 Cd58 2.228 . S
Cd58 O57 2.228 . S
Cd58 O62 2.273 . S
Cd58 O66 2.277 . S
O59 C56 1.160 . S
O59 Cd60 2.203 . S
Cd60 O59 2.203 . S
Cd60 O62 2.411 . S
Cd60 O63 2.333 . S
Cd60 O64 2.352 . S
Cd60 O68 2.277 . S
Cd60 O69 2.356 . S
C61 O66 1.209 . S
C61 O68 1.226 . S
O62 Cd58 2.273 . S
O62 Cd60 2.411 . S
O62 C65 1.320 . S
O63 Cd60 2.333 . S
O63 C65 1.214 . S
O64 Cd60 2.352 . S
O64 C67 1.258 . S
C65 O62 1.320 . S
C65 O63 1.214 . S
O66 Cd58 2.277 . S
O66 C61 1.209 . S
C67 O64 1.258 . S
C67 O69 1.282 . S
O68 Cd60 2.277 . S
O68 C61 1.226 . S
O69 Cd60 2.356 . S
O69 C67 1.282 . S
C70 O71 1.306 . S
C70 O73 1.160 . S
O71 C70 1.306 . S
O71 Cd72 2.228 . S
Cd72 O71 2.228 . S
Cd72 O76 2.273 . S
Cd72 O80 2.277 . S
O73 C70 1.160 . S
O73 Cd74 2.203 . S
Cd74 O73 2.203 . S
Cd74 O76 2.411 . S
Cd74 O77 2.333 . S
Cd74 O78 2.352 . S
Cd74 O82 2.277 . S
Cd74 O83 2.356 . S
C75 O80 1.209 . S
C75 O82 1.226 . S
O76 Cd72 2.273 . S
O76 Cd74 2.411 . S
O76 C79 1.320 . S
O77 Cd74 2.333 . S
O77 C79 1.214 . S
O78 Cd74 2.352 . S
O78 C81 1.258 . S
C79 O76 1.320 . S
C79 O77 1.214 . S
O80 Cd72 2.277 . S
O80 C75 1.209 . S
C81 O78 1.258 . S
C81 O83 1.282 . S
O82 Cd74 2.277 . S
O82 C75 1.226 . S
O83 Cd74 2.356 . S
O83 C81 1.282 . S
C84 O85 1.306 . S
C84 O87 1.160 . S
O85 C84 1.306 . S
O85 Cd86 2.228 . S
Cd86 O85 2.228 . S
Cd86 O90 2.273 . S
Cd86 O94 2.277 . S
O87 C84 1.160 . S
O87 Cd88 2.203 . S
Cd88 O87 2.203 . S
Cd88 O90 2.411 . S
Cd88 O91 2.333 . S
Cd88 O92 2.352 . S
Cd88 O96 2.277 . S
Cd88 O97 2.356 . S
C89 O94 1.209 . S
C89 O96 1.226 . S
O90 Cd86 2.273 . S
O90 Cd88 2.411 . S
O90 C93 1.320 . S
O91 Cd88 2.333 . S
O91 C93 1.214 . S
O92 Cd88 2.352 . S
O92 C95 1.258 . S
C93 O90 1.320 . S
C93 O91 1.214 . S
O94 Cd86 2.277 . S
O94 C89 1.209 . S
C95 O92 1.258 . S
C95 O97 1.282 . S
O96 Cd88 2.277 . S
O96 C89 1.226 . S
O97 Cd88 2.356 . S
O97 C95 1.282 . S
C98 O99 1.306 . S
C98 O101 1.160 . S
O99 C98 1.306 . S
O99 Cd100 2.228 . S
Cd100 O99 2.228 . S
Cd100 O104 2.273 . S
Cd100 O108 2.277 . S
O101 C98 1.160 . S
O101 Cd102 2.203 . S
Cd102 O101 2.203 . S
Cd102 O104 2.411 . S
Cd102 O105 2.333 . S
Cd102 O106 2.352 . S
Cd102 O110 2.277 . S
Cd102 O111 2.356 . S
C103 O108 1.209 . S
C103 O110 1.226 . S
O104 Cd100 2.273 . S
O104 Cd102 2.411 . S
O104 C107 1.320 . S
O105 Cd102 2.333 . S
O105 C107 1.214 . S
O106 Cd102 2.352 . S
O106 C109 1.258 . S
C107 O104 1.320 . S
C107 O105 1.214 . S
O108 Cd100 2.277 . S
O108 C103 1.209 . S
C109 O106 1.258 . S
C109 O111 1.282 . S
O110 Cd102 2.277 . S
O110 C103 1.226 . S
O111 Cd102 2.356 . S
O111 C109 1.282 . S
C112 C113 1.369 . S
C112 C114 1.419 . S
C112 H116 0.930 . S
C113 C112 1.369 . S
C113 C122 1.429 . S
C114 C112 1.419 . S
C114 C115 1.363 . S
C114 H117 0.929 . S
C115 C114 1.363 . S
C115 C121 1.428 . S
H116 C112 0.930 . S
H117 C114 0.929 . S
S118 N119 1.613 . S
S118 N120 1.610 . S
N119 S118 1.613 . S
N119 C122 1.350 . S
N120 S118 1.610 . S
N120 C121 1.351 . S
C121 C115 1.428 . S
C121 N120 1.351 . S
C121 C122 1.434 . S
C122 C113 1.429 . S
C122 N119 1.350 . S
C122 C121 1.434 . S
C123 C124 1.369 . S
C123 C125 1.419 . S
C123 H127 0.930 1_554 S
C124 C123 1.369 . S
C124 C133 1.429 . S
C125 C123 1.419 . S
C125 C126 1.363 . S
C125 H128 0.929 . S
C126 C125 1.363 . S
C126 C132 1.428 . S
H127 C123 0.930 1_556 S
H128 C125 0.929 . S
S129 N130 1.613 . S
S129 N131 1.610 . S
N130 S129 1.613 . S
N130 C133 1.350 . S
N131 S129 1.610 . S
N131 C132 1.351 . S
C132 C126 1.428 . S
C132 N131 1.351 . S
C132 C133 1.434 . S
C133 C124 1.429 . S
C133 N130 1.350 . S
C133 C132 1.434 . S
C134 C135 1.369 1_556 S
C134 C136 1.419 . S
C134 H138 0.930 . S
C135 C134 1.369 1_554 S
C135 C144 1.429 . S
C136 C134 1.419 . S
C136 C137 1.363 1_556 S
C136 H139 0.929 . S
C137 C136 1.363 1_554 S
C137 C143 1.428 . S
H138 C134 0.930 . S
H139 C136 0.929 . S
S140 N141 1.613 . S
S140 N142 1.610 . S
N141 S140 1.613 . S
N141 C144 1.350 . S
N142 S140 1.610 . S
N142 C143 1.351 . S
C143 C137 1.428 . S
C143 N142 1.351 . S
C143 C144 1.434 . S
C144 C135 1.429 . S
C144 N141 1.350 . S
C144 C143 1.434 . S
C145 C146 1.369 . S
C145 C147 1.419 . S
C145 H149 0.930 . S
C146 C145 1.369 . S
C146 C155 1.429 . S
C147 C145 1.419 . S
C147 C148 1.363 . S
C147 H150 0.929 . S
C148 C147 1.363 . S
C148 C154 1.428 1_554 S
H149 C145 0.930 . S
H150 C147 0.929 . S
S151 N152 1.613 . S
S151 N153 1.610 . S
N152 S151 1.613 . S
N152 C155 1.350 1_556 S
N153 S151 1.610 . S
N153 C154 1.351 . S
C154 C148 1.428 1_556 S
C154 N153 1.351 . S
C154 C155 1.434 1_556 S
C155 C146 1.429 . S
C155 N152 1.350 1_554 S
C155 C154 1.434 1_554 S
C156 C157 1.369 . S
C156 C158 1.419 1_565 S
C156 H160 0.930 . S
C157 C156 1.369 . S
C157 C166 1.429 . S
C158 C156 1.419 1_545 S
C158 C159 1.363 . S
C158 H161 0.929 . S
C159 C158 1.363 . S
C159 C165 1.428 . S
H160 C156 0.930 . S
H161 C158 0.929 . S
S162 N163 1.613 1_545 S
S162 N164 1.610 . S
N163 S162 1.613 1_565 S
N163 C166 1.350 . S
N164 S162 1.610 . S
N164 C165 1.351 . S
C165 C159 1.428 . S
C165 N164 1.351 . S
C165 C166 1.434 1_545 S
C166 C157 1.429 . S
C166 N163 1.350 . S
C166 C165 1.434 1_565 S
C167 C168 1.369 . S
C167 C169 1.419 1_455 S
C167 H171 0.930 . S
C168 C167 1.369 . S
C168 C177 1.429 . S
C169 C167 1.419 1_655 S
C169 C170 1.363 . S
C169 H172 0.929 . S
C170 C169 1.363 . S
C170 C176 1.428 . S
H171 C167 0.930 . S
H172 C169 0.929 . S
S173 N174 1.613 1_655 S
S173 N175 1.610 . S
N174 S173 1.613 1_455 S
N174 C177 1.350 . S
N175 S173 1.610 . S
N175 C176 1.351 . S
C176 C170 1.428 . S
C176 N175 1.351 . S
C176 C177 1.434 1_655 S
C177 C168 1.429 . S
C177 N174 1.350 . S
C177 C176 1.434 1_455 S
C178 C179 1.369 . S
C178 C180 1.419 1_545 S
C178 H182 0.930 . S
C179 C178 1.369 . S
C179 C188 1.429 . S
C180 C178 1.419 1_565 S
C180 C181 1.363 . S
C180 H183 0.929 . S
C181 C180 1.363 . S
C181 C187 1.428 . S
H182 C178 0.930 . S
H183 C180 0.929 . S
S184 N185 1.613 1_565 S
S184 N186 1.610 . S
N185 S184 1.613 1_545 S
N185 C188 1.350 . S
N186 S184 1.610 . S
N186 C187 1.351 . S
C187 C181 1.428 . S
C187 N186 1.351 . S
C187 C188 1.434 1_565 S
C188 C179 1.429 . S
C188 N185 1.350 . S
C188 C187 1.434 1_545 S
C189 C190 1.369 . S
C189 C191 1.419 1_655 S
C189 H193 0.930 . S
C190 C189 1.369 . S
C190 C199 1.429 . S
C191 C189 1.419 1_455 S
C191 C192 1.363 . S
C191 H194 0.929 . S
C192 C191 1.363 . S
C192 C198 1.428 . S
H193 C189 0.930 . S
H194 C191 0.929 . S
S195 N196 1.613 1_455 S
S195 N197 1.610 . S
N196 S195 1.613 1_655 S
N196 C199 1.350 . S
N197 S195 1.610 . S
N197 C198 1.351 . S
C198 C192 1.428 . S
C198 N197 1.351 . S
C198 C199 1.434 1_455 S
C199 C190 1.429 . S
C199 N196 1.350 . S
C199 C198 1.434 1_655 S
C200 C201 1.369 . S
C200 C202 1.419 . S
C200 H204 0.930 . S
C201 C200 1.369 . S
C201 C210 1.429 . S
C202 C200 1.419 . S
C202 C203 1.363 . S
C202 H205 0.929 . S
C203 C202 1.363 . S
C203 C209 1.428 . S
H204 C200 0.930 . S
H205 C202 0.929 . S
S206 N207 1.613 . S
S206 N208 1.610 . S
N207 S206 1.613 . S
N207 C210 1.350 . S
N208 S206 1.610 . S
N208 C209 1.351 . S
C209 C203 1.428 . S
C209 N208 1.351 . S
C209 C210 1.434 . S
C210 C201 1.429 . S
C210 N207 1.350 . S
C210 C209 1.434 . S
C211 C212 1.369 . S
C211 C213 1.419 . S
C211 H215 0.930 . S
C212 C211 1.369 . S
C212 C221 1.429 . S
C213 C211 1.419 . S
C213 C214 1.363 . S
C213 H216 0.929 . S
C214 C213 1.363 . S
C214 C220 1.428 . S
H215 C211 0.930 . S
H216 C213 0.929 . S
S217 N218 1.613 . S
S217 N219 1.610 . S
N218 S217 1.613 . S
N218 C221 1.350 . S
N219 S217 1.610 . S
N219 C220 1.351 . S
C220 C214 1.428 . S
C220 N219 1.351 . S
C220 C221 1.434 . S
C221 C212 1.429 . S
C221 N218 1.350 . S
C221 C220 1.434 . S
C222 C223 1.369 . S
C222 C224 1.419 . S
C222 H226 0.930 . S
C223 C222 1.369 . S
C223 C232 1.429 . S
C224 C222 1.419 . S
C224 C225 1.363 . S
C224 H227 0.929 . S
C225 C224 1.363 . S
C225 C231 1.428 . S
H226 C222 0.930 . S
H227 C224 0.929 . S
S228 N229 1.613 . S
S228 N230 1.610 . S
N229 S228 1.613 . S
N229 C232 1.350 . S
N230 S228 1.610 . S
N230 C231 1.351 . S
C231 C225 1.428 . S
C231 N230 1.351 . S
C231 C232 1.434 . S
C232 C223 1.429 . S
C232 N229 1.350 . S
C232 C231 1.434 . S
C233 C234 1.369 . S
C233 C235 1.419 . S
C233 H237 0.930 . S
C234 C233 1.369 . S
C234 C243 1.429 . S
C235 C233 1.419 . S
C235 C236 1.363 . S
C235 H238 0.929 . S
C236 C235 1.363 . S
C236 C242 1.428 . S
H237 C233 0.930 . S
H238 C235 0.929 . S
S239 N240 1.613 . S
S239 N241 1.610 . S
N240 S239 1.613 . S
N240 C243 1.350 . S
N241 S239 1.610 . S
N241 C242 1.351 . S
C242 C236 1.428 . S
C242 N241 1.351 . S
C242 C243 1.434 . S
C243 C234 1.429 . S
C243 N240 1.350 . S
C243 C242 1.434 . S
C244 C245 1.369 . S
C244 C246 1.419 . S
C244 H248 0.930 . S
C245 C244 1.369 . S
C245 C254 1.429 . S
C246 C244 1.419 . S
C246 C247 1.363 . S
C246 H249 0.929 . S
C247 C246 1.363 . S
C247 C253 1.428 . S
H248 C244 0.930 . S
H249 C246 0.929 . S
S250 N251 1.613 . S
S250 N252 1.610 . S
N251 S250 1.613 . S
N251 C254 1.350 . S
N252 S250 1.610 . S
N252 C253 1.351 . S
C253 C247 1.428 . S
C253 N252 1.351 . S
C253 C254 1.434 . S
C254 C245 1.429 . S
C254 N251 1.350 . S
C254 C253 1.434 . S
C255 C256 1.369 . S
C255 C257 1.419 . S
C255 H259 0.930 . S
C256 C255 1.369 . S
C256 C265 1.429 . S
C257 C255 1.419 . S
C257 C258 1.363 . S
C257 H260 0.929 . S
C258 C257 1.363 . S
C258 C264 1.428 . S
H259 C255 0.930 . S
H260 C257 0.929 . S
S261 N262 1.613 . S
S261 N263 1.610 . S
N262 S261 1.613 . S
N262 C265 1.350 . S
N263 S261 1.610 . S
N263 C264 1.351 . S
C264 C258 1.428 . S
C264 N263 1.351 . S
C264 C265 1.434 . S
C265 C256 1.429 . S
C265 N262 1.350 . S
C265 C264 1.434 . S
C266 C267 1.369 . S
C266 C268 1.419 . S
C266 H270 0.930 . S
C267 C266 1.369 . S
C267 C276 1.429 . S
C268 C266 1.419 . S
C268 C269 1.363 . S
C268 H271 0.929 . S
C269 C268 1.363 . S
C269 C275 1.428 . S
H270 C266 0.930 . S
H271 C268 0.929 . S
S272 N273 1.613 . S
S272 N274 1.610 . S
N273 S272 1.613 . S
N273 C276 1.350 . S
N274 S272 1.610 . S
N274 C275 1.351 . S
C275 C269 1.428 . S
C275 N274 1.351 . S
C275 C276 1.434 . S
C276 C267 1.429 . S
C276 N273 1.350 . S
C276 C275 1.434 . S
C277 C278 1.369 . S
C277 C279 1.419 . S
C277 H281 0.930 . S
C278 C277 1.369 . S
C278 C287 1.429 . S
C279 C277 1.419 . S
C279 C280 1.363 . S
C279 H282 0.929 . S
C280 C279 1.363 . S
C280 C286 1.428 . S
H281 C277 0.930 . S
H282 C279 0.929 . S
S283 N284 1.613 . S
S283 N285 1.610 . S
N284 S283 1.613 . S
N284 C287 1.350 . S
N285 S283 1.610 . S
N285 C286 1.351 . S
C286 C280 1.428 . S
C286 N285 1.351 . S
C286 C287 1.434 . S
C287 C278 1.429 . S
C287 N284 1.350 . S
C287 C286 1.434 . S
C113 C5 1.564 . S
C115 C47 1.562 . S
C124 C0 1.515 . S
C126 C14 1.515 . S
C135 C19 1.561 . S
C137 C33 1.565 . S
C146 C42 1.514 . S
C148 C28 1.517 . S
C157 C61 1.566 . S
C159 C103 1.561 . S
C168 C70 1.520 . S
C170 C56 1.513 . S
C179 C89 1.566 . S
C181 C75 1.561 . S
C190 C98 1.521 . S
C192 C84 1.514 . S
C201 C95 1.494 . S
C203 C9 1.507 . S
C212 C25 1.494 . S
C214 C107 1.507 . S
C223 C67 1.496 . S
C225 C37 1.507 . S
C234 C79 1.507 . S
C236 C53 1.492 . S
C245 C81 1.492 . S
C247 C51 1.507 . S
C256 C11 1.494 . S
C258 C93 1.507 . S
C267 C23 1.507 . S
C269 C109 1.494 . S
C278 C39 1.495 . S
C280 C65 1.508 . S
