# Generated by pormake.
# Topology nbo, (4)-cn, num edge types: 1
# Building blocks:
#     Node 0, Type 0, BuildingBlock: ESEHIV_clean_sbu_0, # of connection points: 4
#     Node 1, Type 0, BuildingBlock: ESEHIV_clean_sbu_0, # of connection points: 4
#     Node 2, Type 0, BuildingBlock: ESEHIV_clean_sbu_0, # of connection points: 4
#     Node 3, Type 0, BuildingBlock: ESEHIV_clean_sbu_0, # of connection points: 4
#     Node 4, Type 0, BuildingBlock: ESEHIV_clean_sbu_0, # of connection points: 4
#     Node 5, Type 0, BuildingBlock: ESEHIV_clean_sbu_0, # of connection points: 4
#     Edge 6, Type (0, 0), BuildingBlock: KIFKEQ_clean_linker_1, # of connection points: 2
#     Edge 7, Type (0, 0), BuildingBlock: KIFKEQ_clean_linker_1, # of connection points: 2
#     Edge 8, Type (0, 0), BuildingBlock: KIFKEQ_clean_linker_1, # of connection points: 2
#     Edge 9, Type (0, 0), BuildingBlock: KIFKEQ_clean_linker_1, # of connection points: 2
#     Edge 10, Type (0, 0), BuildingBlock: KIFKEQ_clean_linker_1, # of connection points: 2
#     Edge 11, Type (0, 0), BuildingBlock: KIFKEQ_clean_linker_1, # of connection points: 2
#     Edge 12, Type (0, 0), BuildingBlock: KIFKEQ_clean_linker_1, # of connection points: 2
#     Edge 13, Type (0, 0), BuildingBlock: KIFKEQ_clean_linker_1, # of connection points: 2
#     Edge 14, Type (0, 0), BuildingBlock: KIFKEQ_clean_linker_1, # of connection points: 2
#     Edge 15, Type (0, 0), BuildingBlock: KIFKEQ_clean_linker_1, # of connection points: 2
#     Edge 16, Type (0, 0), BuildingBlock: KIFKEQ_clean_linker_1, # of connection points: 2
#     Edge 17, Type (0, 0), BuildingBlock: KIFKEQ_clean_linker_1, # of connection points: 2
# Relax obj value: 0.000
# Max RMSD: 0.094
# Mean RMSD: 0.094
data_MOF--net-nbo--node1-ESEHIV_clean_sbu_0--edge1-KIFKEQ_clean_linker_1
_symmetry_space_group_name_H-M    P1
_symmetry_Int_Tables_number       1
_symmetry_cell_setting            triclinic
loop_
_symmetry_equiv_pos_as_xyz
'x, y, z'
_cell_length_a     29.725354
_cell_length_b     34.719041
_cell_length_c     32.377806
_cell_angle_alpha  103.78528
_cell_angle_beta   103.71655
_cell_angle_gamma 103.55021
loop_
_atom_site_label
_atom_site_type_symbol
_atom_site_fract_x
_atom_site_fract_y
_atom_site_fract_z
_atom_type_partial_charge
Cu0 Cu 0.09592 0.1315 0.56231 0.0
N1 N 0.11391 0.18916 0.59178 0.0
N2 N 0.11475 0.25551 0.60074 0.0
C3 C 0.10124 0.21663 0.57173 0.0
C4 C 0.13721 0.25228 0.64072 0.0
C5 C 0.13664 0.21138 0.6351 0.0
O6 O 0.02735 0.11499 0.52737 0.0
C7 C 0.18617 0.13481 0.55434 0.0
O8 O 0.1962 0.15517 0.59685 0.0
H9 H 0.08053 0.20763 0.53674 0.0
H10 H 0.15092 0.19866 0.66091 0.0
N11 N 0.09832 0.09722 0.59907 0.0
N12 N 0.09257 0.03659 0.61389 0.0
C13 C 0.09622 0.05701 0.58353 0.0
C14 C 0.09585 0.10278 0.64093 0.0
C15 C 0.09243 0.06545 0.65021 0.0
C16 C 1.00084 0.12903 0.54907 0.0
O17 O 1.02119 0.15249 0.59099 0.0
H18 H 0.09499 0.0426 0.54957 0.0
H19 H 0.09483 0.13137 0.66255 0.0
O20 O 0.14179 0.12157 0.52969 0.0
H21 H 0.15275 0.27754 0.67195 0.0
H22 H 0.0893 0.05996 0.68109 0.0
Cu23 Cu 0.51207 0.99528 0.98656 0.0
N24 N 0.47484 0.94074 0.97848 0.0
N25 N 0.46119 0.87626 0.98457 0.0
C26 C 0.49464 0.91333 0.99297 0.0
C27 C 0.41839 0.88053 0.96362 0.0
C28 C 0.42689 0.92038 0.96005 0.0
O29 O 0.55961 1.00813 0.04531 0.0
C30 C 0.50395 0.98052 0.89738 0.0
O31 O 0.45824 0.96922 0.89643 0.0
H32 H 0.53325 0.92053 1.00901 0.0
H33 H 0.40001 0.93349 0.94521 0.0
N34 N 0.47665 0.03368 0.98898 0.0
N35 N 0.46252 0.09538 0.99627 0.0
C36 C 0.49318 0.07319 0.98843 0.0
C37 C 0.43367 0.0304 0.99677 0.0
C38 C 0.42481 0.06825 1.00116 0.0
C39 C 0.56137 0.03585 0.08007 0.0
O40 O 0.54261 0.06577 0.07529 0.0
H41 H 0.52852 0.08597 0.9851 0.0
H42 H 0.41125 1.00298 1.00074 0.0
O43 O 0.53695 0.99405 0.93536 0.0
H44 H 0.3833 0.85685 0.95222 0.0
H45 H 0.39339 0.07531 1.00837 0.0
Cu46 Cu 0.06054 0.5829 0.01732 0.0
N47 N 0.07393 0.62023 0.98478 0.0
N48 N 0.09593 0.64632 0.9327 0.0
C49 C 0.10252 0.62082 0.95792 0.0
C50 C 0.06261 0.66304 0.94514 0.0
C51 C 0.04915 0.64689 0.97695 0.0
O52 O 0.10089 0.54586 1.00964 0.0
C53 C 0.96292 0.54113 0.01648 0.0
O54 O 0.98443 0.53697 0.05483 0.0
H55 H 0.12633 0.60176 0.95566 0.0
H56 H 1.02099 0.65223 0.99137 0.0
N57 N 0.07916 0.61275 0.07882 0.0
N58 N 0.09825 0.62882 0.15371 0.0
C59 C 0.08517 0.59806 0.11428 0.0
C60 C 0.08894 0.65412 0.0965 0.0
C61 C 0.10068 0.66409 0.14238 0.0
C62 C 0.10366 0.52616 0.97208 0.0
O63 O 0.07217 0.52442 0.93502 0.0
H64 H 0.08023 0.5655 0.11116 0.0
H65 H 0.08727 0.6756 0.07729 0.0
O66 O 0.9891 0.55671 0.99482 0.0
H67 H 0.0464 0.68328 0.93018 0.0
H68 H 0.10925 0.69493 0.16549 0.0
Cu69 Cu 0.52831 0.50299 1.00296 0.0
N70 N 0.54182 0.55891 0.03632 0.0
N71 N 0.53831 0.6244 0.04823 0.0
C72 C 0.52035 0.58481 0.02034 0.0
C73 C 0.57236 0.62318 0.08356 0.0
C74 C 0.57459 0.58279 0.07604 0.0
O75 O 0.45868 0.48687 0.96883 0.0
C76 C 0.61123 0.5296 0.9729 0.0
O77 O 0.60756 0.56718 0.98654 0.0
H78 H 0.49247 0.57465 0.98826 0.0
H79 H 0.59946 0.57203 0.09726 0.0
N80 N 0.53355 0.46638 0.03697 0.0
N81 N 0.5284 0.40494 0.04975 0.0
C82 C 0.52147 0.42474 0.01861 0.0
C83 C 0.54883 0.47348 0.08145 0.0
C84 C 0.54559 0.43566 0.08943 0.0
C85 C 0.43123 0.48462 0.99386 0.0
O86 O 0.45156 0.49073 0.03655 0.0
H87 H 0.50714 0.40934 0.98289 0.0
H88 H 0.56127 0.50385 0.10631 0.0
O89 O 0.57751 0.49837 0.97178 0.0
H90 H 0.59538 0.6498 0.11205 0.0
H91 H 0.55573 0.43133 0.12198 0.0
Cu92 Cu 0.09138 0.62928 0.5417 0.0
N93 N 0.05606 0.57281 0.5281 0.0
N94 N 0.04316 0.50692 0.52985 0.0
C95 C 0.07424 0.54617 0.5459 0.0
C96 C 1.00368 0.50901 0.50051 0.0
C97 C 1.01173 0.54968 0.49951 0.0
O98 O 0.13227 0.64446 0.60401 0.0
C99 C 0.12122 0.60542 0.46331 0.0
O100 O 0.10744 0.56747 0.46581 0.0
H101 H 0.11041 0.55542 0.56935 0.0
H102 H 0.98736 0.56131 0.47892 0.0
N103 N 0.05375 0.66581 0.54243 0.0
N104 N 0.03914 0.72745 0.5524 0.0
C105 C 0.0732 0.70748 0.55367 0.0
C106 C 1.0055 0.65882 0.53374 0.0
C107 C 0.99638 0.69676 0.53987 0.0
C108 C 0.10642 0.63798 0.62958 0.0
O109 O 0.05881 0.62431 0.61221 0.0
H110 H 0.11195 0.72275 0.56332 0.0
H111 H 0.97887 0.62845 0.52387 0.0
O112 O 0.12231 0.63599 0.49511 0.0
H113 H 0.97124 0.48311 0.48108 0.0
H114 H 0.96088 0.70118 0.53495 0.0
Cu115 Cu 0.54677 1.01753 0.49357 0.0
N116 N 0.5287 0.9878 0.43245 0.0
N117 N 0.52963 0.97642 0.36149 0.0
C118 C 0.54343 1.00457 0.40259 0.0
C119 C 0.50448 0.94046 0.36572 0.0
C120 C 0.50405 0.94755 0.4095 0.0
O121 O 0.61475 0.05026 0.50825 0.0
C122 C 0.45688 0.02773 0.48867 0.0
O123 O 0.44567 0.98698 0.4729 0.0
H124 H 0.56454 0.03693 0.41135 0.0
H125 H 0.48779 0.92478 0.4237 0.0
N126 N 0.5441 0.98391 0.53119 0.0
N127 N 0.54351 0.96585 0.59325 0.0
C128 C 0.54323 0.99627 0.57376 0.0
C129 C 0.54528 0.9444 0.52349 0.0
C130 C 0.54467 0.93313 0.56153 0.0
C131 C 0.64133 0.02912 0.49498 0.0
O132 O 0.62215 0.98859 0.47629 0.0
H133 H 0.54219 0.027 0.58996 0.0
H134 H 0.54733 0.92533 0.4927 0.0
O135 O 0.50155 0.04947 0.5008 0.0
H136 H 0.48861 0.91078 0.33949 0.0
H137 H 0.54605 0.90337 0.56571 0.0
H138 H 0.09784 0.27052 0.52063 0.0
H139 H 0.10853 0.32369 0.65882 0.0
H140 H 0.07927 0.33086 0.50397 0.0
H141 H 0.08977 0.38404 0.64214 0.0
H142 H 0.10496 0.50534 0.60585 0.0
H143 H 0.12259 0.44487 0.62287 0.0
H144 H 1.0171 0.36465 0.4969 0.0
H145 H 1.00088 0.42544 0.47907 0.0
C146 C 0.09586 0.29486 0.54747 0.0
C147 C 0.10471 0.29194 0.59113 0.0
C148 C 0.08508 0.32957 0.53786 0.0
C149 C 0.08279 0.36249 0.57161 0.0
C150 C 0.09185 0.35968 0.61534 0.0
C151 C 0.10268 0.32495 0.62496 0.0
C152 C 0.08574 0.47491 0.58152 0.0
C153 C 0.0517 0.47056 0.54083 0.0
C154 C 0.09547 0.44003 0.59158 0.0
C155 C 0.07144 0.39966 0.56128 0.0
C156 C 0.03688 0.39522 0.52084 0.0
C157 C 0.02711 0.43015 0.51079 0.0
H158 H 0.94491 0.17893 0.56239 0.0
H159 H 0.93684 0.05314 0.49538 0.0
H160 H 0.85668 0.15857 0.54374 0.0
H161 H 0.84857 0.03166 0.47888 0.0
H162 H 0.68718 1.00421 0.43565 0.0
H163 H 0.7722 0.03138 0.44106 0.0
H164 H 0.79602 0.1237 0.56695 0.0
H165 H 0.70981 0.09772 0.55967 0.0
C166 C 0.92395 0.14689 0.54315 0.0
C167 C 0.9475 0.11757 0.53018 0.0
C168 C 0.87336 0.13502 0.53296 0.0
C169 C 0.84503 0.09322 0.51049 0.0
C170 C 0.86872 0.06426 0.49575 0.0
C171 C 0.91943 0.07644 0.50514 0.0
C172 C 0.71061 0.03065 0.46425 0.0
C173 C 0.69209 0.04874 0.49745 0.0
C174 C 0.75956 0.04607 0.46756 0.0
C175 C 0.79167 0.07949 0.50473 0.0
C176 C 0.77258 0.09834 0.53741 0.0
C177 C 0.72317 0.0834 0.53352 0.0
H178 H 0.11785 0.78591 0.55165 0.0
H179 H 0.97888 0.77113 0.57575 0.0
H180 H 0.13213 0.86055 0.56924 0.0
H181 H 0.99229 0.84587 0.5914 0.0
H182 H 0.05168 0.98751 0.65813 0.0
H183 H 0.03973 0.9131 0.6448 0.0
H184 H 0.10591 0.91059 0.53937 0.0
H185 H 0.11976 0.98499 0.55399 0.0
C186 C 0.09025 0.79841 0.56077 0.0
C187 C 0.04716 0.77202 0.56229 0.0
C188 C 0.09824 0.84143 0.57037 0.0
C189 C 0.06335 0.85956 0.58165 0.0
C190 C 1.02029 0.83326 0.58334 0.0
C191 C 1.0123 0.79014 0.57377 0.0
C192 C 0.06427 0.97127 0.6325 0.0
C193 C 0.08662 0.9926 0.60711 0.0
C194 C 0.05684 0.92834 0.62444 0.0
C195 C 0.07165 0.9055 0.59085 0.0
C196 C 0.09443 0.92698 0.56585 0.0
C197 C 0.10187 0.9698 0.5739 0.0
H198 H 0.35982 0.98761 0.46531 0.0
H199 H 0.46458 0.11077 0.52159 0.0
H200 H 0.29525 1.01677 0.47571 0.0
H201 H 0.3992 0.14037 0.53101 0.0
H202 H 0.28331 0.16543 0.59841 0.0
H203 H 0.34831 0.14255 0.57807 0.0
H204 H 0.24532 0.05777 0.4529 0.0
H205 H 0.17943 0.08008 0.47408 0.0
C206 C 0.36909 1.02108 0.47949 0.0
C207 C 0.41763 0.0468 0.49297 0.0
C208 C 0.33175 0.03789 0.48504 0.0
C209 C 0.34173 0.081 0.50417 0.0
C210 C 0.39016 0.10695 0.51664 0.0
C211 C 0.42769 0.09004 0.51111 0.0
C212 C 0.27438 0.14219 0.56626 0.0
C213 C 0.22591 0.12431 0.53806 0.0
C214 C 0.31196 0.12929 0.55442 0.0
C215 C 0.30229 0.09808 0.51393 0.0
C216 C 0.25407 0.08143 0.4847 0.0
C217 C 0.21629 0.09443 0.49662 0.0
H218 H 0.60242 0.03922 0.35845 0.0
H219 H 0.48279 0.92952 0.27438 0.0
H220 H 0.61841 0.05311 0.29232 0.0
H221 H 0.49959 0.9432 0.20823 0.0
H222 H 0.56267 0.96233 0.09739 0.0
H223 H 0.56047 0.94663 0.16671 0.0
H224 H 0.5766 0.07541 0.23106 0.0
H225 H 0.5789 0.09112 0.162 0.0
C226 C 0.57928 1.01806 0.32601 0.0
C227 C 0.54073 0.98345 0.32211 0.0
C228 C 0.58874 0.02599 0.28798 0.0
C229 C 0.56027 0.99937 0.24492 0.0
C230 C 0.52266 0.96409 0.24091 0.0
C231 C 0.51294 0.95628 0.27896 0.0
C232 C 0.56705 0.98754 0.12664 0.0
C233 C 0.57092 0.02804 0.12406 0.0
C234 C 0.56518 0.9784 0.16624 0.0
C235 C 0.5678 1.00964 0.20433 0.0
C236 C 0.57473 0.05062 0.20249 0.0
C237 C 0.57604 0.05965 0.16283 0.0
H238 H 0.05999 0.5613 0.1776 0.0
H239 H 0.15478 0.68835 0.2322 0.0
H240 H 0.0702 0.55677 0.25309 0.0
H241 H 0.16555 0.68379 0.30762 0.0
H242 H 0.1274 0.67557 0.43647 0.0
H243 H 0.12452 0.6811 0.36218 0.0
H244 H 0.12462 0.5535 0.31803 0.0
H245 H 0.12622 0.54774 0.39179 0.0
C246 C 0.08356 0.58811 0.20562 0.0
C247 C 0.1063 0.62525 0.1985 0.0
C248 C 0.08955 0.58555 0.24914 0.0
C249 C 0.11869 0.61996 0.28693 0.0
C250 C 0.14209 0.65684 0.27967 0.0
C251 C 0.13595 0.65945 0.2362 0.0
C252 C 0.12756 0.64889 0.41113 0.0
C253 C 0.12692 0.61118 0.42032 0.0
C254 C 0.12592 0.65203 0.36834 0.0
C255 C 0.12378 0.6176 0.33353 0.0
C256 C 0.12511 0.58045 0.34341 0.0
C257 C 0.12655 0.57727 0.38605 0.0
H258 H 0.57621 0.03457 0.66694 0.0
H259 H 0.50852 0.90122 0.62219 0.0
H260 H 0.57131 0.03753 0.74199 0.0
H261 H 0.50456 0.9041 0.6971 0.0
H262 H 0.44325 0.93466 0.81423 0.0
H263 H 0.45672 0.93116 0.7426 0.0
H264 H 0.6025 1.01549 0.80991 0.0
H265 H 0.58885 1.0191 0.88264 0.0
C266 C 0.56036 1.00588 0.67303 0.0
C267 C 0.54243 0.96767 0.63821 0.0
C268 C 0.55811 1.00753 0.71624 0.0
C269 C 0.5374 0.97108 0.72563 0.0
C270 C 0.52033 0.93285 0.69102 0.0
C271 C 0.52293 0.93115 0.64802 0.0
C272 C 0.4784 0.95238 0.81404 0.0
C273 C 0.51497 0.97722 0.85435 0.0
C274 C 0.4862 0.95013 0.77278 0.0
C275 C 0.53072 0.97293 0.77034 0.0
C276 C 0.56766 0.9977 0.81061 0.0
C277 C 0.56001 0.99955 0.85225 0.0
H278 H 0.09313 0.57469 0.6639 0.0
H279 H 0.16104 0.70724 0.70127 0.0
H280 H 0.10301 0.57957 0.74182 0.0
H281 H 0.17201 0.71256 0.78031 0.0
H282 H 0.09974 0.70791 0.89374 0.0
H283 H 0.11675 0.70772 0.82389 0.0
H284 H 0.15154 0.59277 0.81647 0.0
H285 H 0.13221 0.59182 0.88511 0.0
C286 C 0.11211 0.60472 0.68924 0.0
C287 C 0.12694 0.64048 0.67671 0.0
C288 C 0.11779 0.60761 0.73408 0.0
C289 C 0.13799 0.64654 0.7677 0.0
C290 C 0.15576 0.68211 0.75534 0.0
C291 C 0.15028 0.67909 0.7102 0.0
C292 C 0.11112 0.68259 0.87741 0.0
C293 C 0.11349 0.64947 0.89504 0.0
C294 C 0.12164 0.68281 0.83747 0.0
C295 C 0.1351 0.64999 0.81399 0.0
C296 C 0.14047 0.61823 0.83308 0.0
C297 C 0.12976 0.61791 0.87293 0.0
H298 H 0.13328 0.50045 0.89871 0.0
H299 H 0.17398 0.52178 0.04136 0.0
H300 H 0.20881 0.48435 0.897 0.0
H301 H 0.24933 0.5062 0.03972 0.0
H302 H 0.36254 0.4455 0.02418 0.0
H303 H 0.28045 0.44983 0.01432 0.0
H304 H 0.29804 0.51931 0.92186 0.0
H305 H 0.38082 0.51419 0.93136 0.0
C306 C 0.15797 0.5012 0.92965 0.0
C307 C 0.1472 0.51218 0.97019 0.0
C308 C 0.20157 0.49235 0.92868 0.0
C309 C 0.23535 0.49382 0.96814 0.0
C310 C 0.224 0.50404 1.00847 0.0
C311 C 0.1807 0.51316 1.00949 0.0
C312 C 0.34858 0.46092 1.00092 0.0
C313 C 0.37829 0.47957 0.97862 0.0
C314 C 0.30156 0.46378 0.99562 0.0
C315 C 0.28276 0.48574 0.96811 0.0
C316 C 0.31124 0.5021 0.94333 0.0
C317 C 0.35861 0.49902 0.94853 0.0
H318 H 0.51199 0.36136 0.10726 0.0
H319 H 0.52378 0.34675 0.97436 0.0
H320 H 0.4965 0.2867 0.09402 0.0
H321 H 0.50626 0.27198 0.96048 0.0
H322 H 0.52358 0.14566 0.96643 0.0
H323 H 0.54038 0.22043 0.9801 0.0
H324 H 0.43581 0.22077 0.05266 0.0
H325 H 0.42059 0.14647 0.04074 0.0
C326 C 0.51135 0.34237 0.07522 0.0
C327 C 0.51915 0.36047 0.04195 0.0
C328 C 0.50184 0.2993 0.06739 0.0
C329 C 0.4999 0.27299 0.02606 0.0
C330 C 0.50792 0.29112 0.99288 0.0
C331 C 0.51741 0.33416 1.0007 0.0
C332 C 0.50437 0.1616 0.98559 0.0
C333 C 0.47077 0.13958 1.00252 0.0
C334 C 0.51365 0.2046 0.99305 0.0
C335 C 0.48958 0.22695 0.01762 0.0
C336 C 0.45563 0.20489 0.03414 0.0
C337 C 0.44637 0.16192 0.02673 0.0
H338 H 0.89613 0.50123 0.05024 0.0
H339 H 0.90686 0.56219 0.94971 0.0
H340 H 0.80954 0.49396 0.03231 0.0
H341 H 0.81988 0.55467 0.93154 0.0
H342 H 0.685 0.58729 0.96321 0.0
H343 H 0.76734 0.58534 0.96749 0.0
H344 H 0.72871 0.4605 0.97663 0.0
H345 H 0.64605 0.46257 0.97261 0.0
C346 C 0.87994 0.51259 0.02383 0.0
C347 C 0.90884 0.53244 1.00158 0.0
C348 C 0.83001 0.50819 0.01334 0.0
C349 C 0.80738 0.52383 0.98053 0.0
C350 C 0.83599 0.54262 0.95734 0.0
C351 C 0.88592 0.54668 0.96756 0.0
C352 C 0.69367 0.55906 0.9653 0.0
C353 C 0.65861 0.52512 0.96762 0.0
C354 C 0.74107 0.5579 0.96763 0.0
C355 C 0.75514 0.52289 0.97277 0.0
C356 C 0.71951 0.48823 0.97327 0.0
C357 C 0.67185 0.48924 0.97049 0.0
H358 H 0.54899 0.69724 0.11013 0.0
H359 H 0.49928 0.63416 0.96785 0.0
H360 H 0.52822 0.75799 0.09624 0.0
H361 H 0.47875 0.69458 0.95403 0.0
H362 H 0.40638 0.79501 0.94372 0.0
H363 H 0.4229 0.73402 0.96083 0.0
H364 H 0.55365 0.81393 0.06675 0.0
H365 H 0.5361 0.87482 0.05081 0.0
C366 C 0.53389 0.6963 0.0759 0.0
C367 C 0.52573 0.66048 0.04023 0.0
C368 C 0.52195 0.73121 0.06789 0.0
C369 C 0.50158 0.73133 0.02395 0.0
C370 C 0.49341 0.69548 0.98835 0.0
C371 C 0.50528 0.66065 0.99634 0.0
C372 C 0.43832 0.79965 0.971 0.0
C373 C 0.47001 0.84002 0.99556 0.0
C374 C 0.44814 0.76457 0.98055 0.0
C375 C 0.48987 0.76884 0.01504 0.0
C376 C 0.52099 0.80928 0.04019 0.0
C377 C 0.51122 0.84431 0.0306 0.0
loop_
_geom_bond_atom_site_label_1
_geom_bond_atom_site_label_2
_geom_bond_distance
_geom_bond_site_symmetry_2
_ccdc_geom_bond_type
Cu0 N1 1.999 . S
Cu0 O6 1.974 1_455 S
Cu0 N11 1.985 1_545 S
Cu0 O20 1.959 . S
N1 Cu0 1.999 . S
N1 C3 1.263 . S
N1 C5 1.389 . S
N2 C3 1.358 . S
N2 C4 1.400 . S
C3 N1 1.263 . S
C3 N2 1.358 . S
C3 H9 0.930 1_455 S
C4 N2 1.400 . S
C4 C5 1.351 . S
C4 H21 0.930 . S
C5 N1 1.389 . S
C5 C4 1.351 . S
C5 H10 0.930 . S
O6 Cu0 1.974 1_655 S
O6 C16 1.282 . S
C7 O8 1.261 . S
C7 O20 1.251 . S
O8 C7 1.261 . S
H9 C3 0.930 1_655 S
H10 C5 0.930 . S
N11 Cu0 1.985 1_565 S
N11 C13 1.335 . S
N11 C14 1.390 1_455 S
N12 C13 1.345 . S
N12 C15 1.336 1_455 S
C13 N11 1.335 . S
C13 N12 1.345 . S
C13 H18 0.930 . S
C14 N11 1.390 1_655 S
C14 C15 1.346 . S
C14 H19 0.930 . S
C15 N12 1.336 1_655 S
C15 C14 1.346 . S
C15 H22 0.929 . S
C16 O6 1.282 . S
C16 O17 1.216 . S
O17 C16 1.216 . S
H18 C13 0.930 . S
H19 C14 0.930 . S
O20 Cu0 1.959 . S
O20 C7 1.251 . S
H21 C4 0.930 . S
H22 C15 0.929 . S
Cu23 N24 1.999 1_545 S
Cu23 O29 1.974 . S
Cu23 N34 1.985 . S
Cu23 O43 1.959 1_554 S
N24 Cu23 1.999 1_565 S
N24 C26 1.263 . S
N24 C28 1.389 1_554 S
N25 C26 1.358 . S
N25 C27 1.400 1_554 S
C26 N24 1.263 . S
C26 N25 1.358 . S
C26 H32 0.930 . S
C27 N25 1.400 1_556 S
C27 C28 1.351 . S
C27 H44 0.930 . S
C28 N24 1.389 1_556 S
C28 C27 1.351 . S
C28 H33 0.930 . S
O29 Cu23 1.974 . S
O29 C39 1.282 . S
C30 O31 1.261 . S
C30 O43 1.251 . S
O31 C30 1.261 . S
H32 C26 0.930 . S
H33 C28 0.930 . S
N34 Cu23 1.985 . S
N34 C36 1.335 . S
N34 C37 1.390 . S
N35 C36 1.345 . S
N35 C38 1.336 . S
C36 N34 1.335 . S
C36 N35 1.345 . S
C36 H41 0.930 1_554 S
C37 N34 1.390 . S
C37 C38 1.346 . S
C37 H42 0.930 . S
C38 N35 1.336 . S
C38 C37 1.346 . S
C38 H45 0.929 . S
C39 O29 1.282 . S
C39 O40 1.216 . S
O40 C39 1.216 . S
H41 C36 0.930 1_556 S
H42 C37 0.930 . S
O43 Cu23 1.959 1_556 S
O43 C30 1.251 . S
H44 C27 0.930 . S
H45 C38 0.929 . S
Cu46 N47 1.999 1_554 S
Cu46 O52 1.974 . S
Cu46 N57 1.985 . S
Cu46 O66 1.959 1_455 S
N47 Cu46 1.999 1_556 S
N47 C49 1.263 . S
N47 C51 1.389 1_455 S
N48 C49 1.358 . S
N48 C50 1.400 1_455 S
C49 N47 1.263 . S
C49 N48 1.358 . S
C49 H55 0.930 . S
C50 N48 1.400 1_655 S
C50 C51 1.351 . S
C50 H67 0.930 . S
C51 N47 1.389 1_655 S
C51 C50 1.351 . S
C51 H56 0.930 . S
O52 Cu46 1.974 . S
O52 C62 1.282 . S
C53 O54 1.261 1_554 S
C53 O66 1.251 . S
O54 C53 1.261 1_556 S
H55 C49 0.930 . S
H56 C51 0.930 . S
N57 Cu46 1.985 . S
N57 C59 1.335 . S
N57 C60 1.390 . S
N58 C59 1.345 . S
N58 C61 1.336 . S
C59 N57 1.335 . S
C59 N58 1.345 . S
C59 H64 0.930 1_455 S
C60 N57 1.390 . S
C60 C61 1.346 . S
C60 H65 0.930 . S
C61 N58 1.336 . S
C61 C60 1.346 . S
C61 H68 0.929 . S
C62 O52 1.282 . S
C62 O63 1.216 1_554 S
O63 C62 1.216 1_556 S
H64 C59 0.930 1_655 S
H65 C60 0.930 . S
O66 Cu46 1.959 1_655 S
O66 C53 1.251 . S
H67 C50 0.930 . S
H68 C61 0.929 . S
Cu69 N70 1.999 . S
Cu69 O75 1.974 . S
Cu69 N80 1.985 . S
Cu69 O89 1.959 . S
N70 Cu69 1.999 . S
N70 C72 1.267 . S
N70 C74 1.389 . S
N71 C72 1.365 . S
N71 C73 1.400 . S
C72 N70 1.267 . S
C72 N71 1.365 . S
C72 H78 0.919 1_556 S
C73 N71 1.400 . S
C73 C74 1.351 . S
C73 H90 0.930 . S
C74 N70 1.389 . S
C74 C73 1.351 . S
C74 H79 0.930 . S
O75 Cu69 1.974 . S
O75 C85 1.282 1_556 S
C76 O77 1.261 . S
C76 O89 1.251 1_554 S
O77 C76 1.261 . S
H78 C72 0.919 1_554 S
H79 C74 0.930 . S
N80 Cu69 1.985 . S
N80 C82 1.335 . S
N80 C83 1.390 1_556 S
N81 C82 1.355 . S
N81 C84 1.327 1_556 S
C82 N80 1.335 . S
C82 N81 1.355 . S
C82 H87 0.930 . S
C83 N80 1.390 1_554 S
C83 C84 1.346 . S
C83 H88 0.930 . S
C84 N81 1.327 1_554 S
C84 C83 1.346 . S
C84 H91 0.929 . S
C85 O75 1.282 1_554 S
C85 O86 1.216 . S
O86 C85 1.216 . S
H87 C82 0.930 . S
H88 C83 0.930 . S
O89 Cu69 1.959 . S
O89 C76 1.251 1_556 S
H90 C73 0.930 . S
H91 C84 0.929 . S
Cu92 N93 1.999 . S
Cu92 O98 1.974 . S
Cu92 N103 1.985 . S
Cu92 O112 1.959 . S
N93 Cu92 1.999 . S
N93 C95 1.263 . S
N93 C97 1.389 . S
N94 C95 1.358 . S
N94 C96 1.400 . S
C95 N93 1.263 . S
C95 N94 1.358 . S
C95 H101 0.930 . S
C96 N94 1.400 . S
C96 C97 1.351 . S
C96 H113 0.930 . S
C97 N93 1.389 . S
C97 C96 1.351 . S
C97 H102 0.930 . S
O98 Cu92 1.974 . S
O98 C108 1.282 . S
C99 O100 1.261 1_455 S
C99 O112 1.251 . S
O100 C99 1.261 1_655 S
H101 C95 0.930 . S
H102 C97 0.930 . S
N103 Cu92 1.985 . S
N103 C105 1.335 . S
N103 C106 1.390 . S
N104 C105 1.345 . S
N104 C107 1.336 . S
C105 N103 1.335 . S
C105 N104 1.345 . S
C105 H110 0.930 . S
C106 N103 1.390 . S
C106 C107 1.346 . S
C106 H111 0.930 . S
C107 N104 1.336 . S
C107 C106 1.346 . S
C107 H114 0.929 . S
C108 O98 1.282 . S
C108 O109 1.216 1_455 S
O109 C108 1.216 1_655 S
H110 C105 0.930 . S
H111 C106 0.930 . S
O112 Cu92 1.959 . S
O112 C99 1.251 . S
H113 C96 0.930 . S
H114 C107 0.929 . S
Cu115 N116 1.999 . S
Cu115 O121 1.974 . S
Cu115 N126 1.985 . S
Cu115 O135 1.959 . S
N116 Cu115 1.999 . S
N116 C118 1.263 . S
N116 C120 1.389 . S
N117 C118 1.358 . S
N117 C119 1.400 . S
C118 N116 1.263 . S
C118 N117 1.358 . S
C118 H124 0.930 . S
C119 N117 1.400 . S
C119 C120 1.351 . S
C119 H136 0.930 . S
C120 N116 1.389 . S
C120 C119 1.351 . S
C120 H125 0.930 . S
O121 Cu115 1.974 . S
O121 C131 1.282 . S
C122 O123 1.261 1_545 S
C122 O135 1.251 . S
O123 C122 1.261 1_565 S
H124 C118 0.930 . S
H125 C120 0.930 . S
N126 Cu115 1.985 . S
N126 C128 1.335 . S
N126 C129 1.390 . S
N127 C128 1.345 . S
N127 C130 1.336 . S
C128 N126 1.335 . S
C128 N127 1.345 . S
C128 H133 0.930 . S
C129 N126 1.390 . S
C129 C130 1.346 . S
C129 H134 0.930 . S
C130 N127 1.336 . S
C130 C129 1.346 . S
C130 H137 0.929 . S
C131 O121 1.282 . S
C131 O132 1.216 1_545 S
O132 C131 1.216 1_565 S
H133 C128 0.930 . S
H134 C129 0.930 . S
O135 Cu115 1.959 . S
O135 C122 1.251 . S
H136 C119 0.930 . S
H137 C130 0.929 . S
H138 C146 0.950 . S
H139 C151 0.950 . S
H140 C148 0.950 . S
H141 C150 0.950 . S
H142 C152 0.950 . S
H143 C154 0.950 . S
H144 C156 0.950 . S
H145 C157 0.950 . S
C146 H138 0.950 . S
C146 C147 1.386 1_655 S
C146 C148 1.391 . S
C147 C146 1.386 1_455 S
C147 C151 1.393 . S
C148 H140 0.950 . S
C148 C146 1.391 . S
C148 C149 1.400 1_655 S
C149 C148 1.400 1_455 S
C149 C150 1.398 . S
C149 C155 1.491 . S
C150 H141 0.950 . S
C150 C149 1.398 . S
C150 C151 1.391 . S
C151 H139 0.950 . S
C151 C147 1.393 . S
C151 C150 1.391 . S
C152 H142 0.950 . S
C152 C153 1.386 . S
C152 C154 1.391 . S
C153 C152 1.386 . S
C153 C157 1.393 1_455 S
C154 H143 0.950 . S
C154 C152 1.391 . S
C154 C155 1.400 . S
C155 C149 1.491 . S
C155 C154 1.400 . S
C155 C156 1.398 1_455 S
C156 H144 0.950 . S
C156 C155 1.398 1_655 S
C156 C157 1.391 . S
C157 H145 0.950 . S
C157 C153 1.393 1_655 S
C157 C156 1.391 . S
H158 C166 0.950 . S
H159 C171 0.951 1_565 S
H160 C168 0.950 . S
H161 C170 0.950 . S
H162 C172 0.950 . S
H163 C174 0.950 . S
H164 C176 0.950 . S
H165 C177 0.950 . S
C166 H158 0.950 . S
C166 C167 1.386 . S
C166 C168 1.391 . S
C167 C166 1.386 . S
C167 C171 1.392 . S
C168 H160 0.950 . S
C168 C166 1.391 . S
C168 C169 1.400 . S
C169 C168 1.400 . S
C169 C170 1.398 1_545 S
C169 C175 1.491 . S
C170 H161 0.950 . S
C170 C169 1.398 1_565 S
C170 C171 1.390 1_565 S
C171 H159 0.951 1_545 S
C171 C167 1.392 . S
C171 C170 1.390 1_545 S
C172 H162 0.950 . S
C172 C173 1.386 1_565 S
C172 C174 1.391 . S
C173 C172 1.386 1_545 S
C173 C177 1.393 . S
C174 H163 0.950 . S
C174 C172 1.391 . S
C174 C175 1.400 1_565 S
C175 C169 1.491 . S
C175 C174 1.400 1_545 S
C175 C176 1.398 . S
C176 H164 0.950 . S
C176 C175 1.398 . S
C176 C177 1.391 . S
C177 H165 0.950 . S
C177 C173 1.393 . S
C177 C176 1.391 . S
H178 C186 0.950 . S
H179 C191 0.950 . S
H180 C188 0.950 . S
H181 C190 0.950 . S
H182 C192 0.950 . S
H183 C194 0.950 . S
H184 C196 0.950 . S
H185 C197 0.950 . S
C186 H178 0.950 . S
C186 C187 1.386 . S
C186 C188 1.391 . S
C187 C186 1.386 . S
C187 C191 1.393 1_455 S
C188 H180 0.950 . S
C188 C186 1.391 . S
C188 C189 1.400 . S
C189 C188 1.400 . S
C189 C190 1.398 1_455 S
C189 C195 1.491 . S
C190 H181 0.950 . S
C190 C189 1.398 1_655 S
C190 C191 1.391 . S
C191 H179 0.950 . S
C191 C187 1.393 1_655 S
C191 C190 1.391 . S
C192 H182 0.950 . S
C192 C193 1.386 1_655 S
C192 C194 1.391 . S
C193 C192 1.386 1_455 S
C193 C197 1.393 . S
C194 H183 0.950 . S
C194 C192 1.391 . S
C194 C195 1.400 1_655 S
C195 C189 1.491 . S
C195 C194 1.400 1_455 S
C195 C196 1.398 . S
C196 H184 0.950 . S
C196 C195 1.398 . S
C196 C197 1.391 . S
C197 H185 0.950 . S
C197 C193 1.393 . S
C197 C196 1.391 . S
H198 C206 0.950 . S
H199 C211 0.950 . S
H200 C208 0.950 . S
H201 C210 0.950 . S
H202 C212 0.950 . S
H203 C214 0.950 . S
H204 C216 0.950 . S
H205 C217 0.950 . S
C206 H198 0.950 . S
C206 C207 1.386 1_565 S
C206 C208 1.391 . S
C207 C206 1.386 1_545 S
C207 C211 1.393 . S
C208 H200 0.950 . S
C208 C206 1.391 . S
C208 C209 1.400 1_565 S
C209 C208 1.400 1_545 S
C209 C210 1.398 . S
C209 C215 1.491 . S
C210 H201 0.950 . S
C210 C209 1.398 . S
C210 C211 1.391 . S
C211 H199 0.950 . S
C211 C207 1.393 . S
C211 C210 1.391 . S
C212 H202 0.950 . S
C212 C213 1.386 . S
C212 C214 1.391 . S
C213 C212 1.386 . S
C213 C217 1.393 1_545 S
C214 H203 0.950 . S
C214 C212 1.391 . S
C214 C215 1.400 . S
C215 C209 1.491 . S
C215 C214 1.400 . S
C215 C216 1.398 1_545 S
C216 H204 0.950 . S
C216 C215 1.398 1_565 S
C216 C217 1.391 . S
C217 H205 0.950 . S
C217 C213 1.393 1_565 S
C217 C216 1.391 . S
H218 C226 0.950 . S
H219 C231 0.950 . S
H220 C228 0.950 . S
H221 C230 0.950 . S
H222 C232 0.950 1_565 S
H223 C234 0.950 1_565 S
H224 C236 0.950 . S
H225 C237 0.950 . S
C226 H218 0.950 . S
C226 C227 1.386 . S
C226 C228 1.391 . S
C227 C226 1.386 . S
C227 C231 1.393 . S
C228 H220 0.950 . S
C228 C226 1.391 . S
C228 C229 1.400 . S
C229 C228 1.400 . S
C229 C230 1.398 . S
C229 C235 1.491 . S
C230 H221 0.950 . S
C230 C229 1.398 . S
C230 C231 1.391 . S
C231 H219 0.950 . S
C231 C227 1.393 . S
C231 C230 1.391 . S
C232 H222 0.950 1_545 S
C232 C233 1.386 . S
C232 C234 1.391 . S
C233 C232 1.386 . S
C233 C237 1.393 . S
C234 H223 0.950 1_545 S
C234 C232 1.391 . S
C234 C235 1.400 . S
C235 C229 1.491 . S
C235 C234 1.400 . S
C235 C236 1.398 . S
C236 H224 0.950 . S
C236 C235 1.398 . S
C236 C237 1.391 . S
C237 H225 0.950 . S
C237 C233 1.393 . S
C237 C236 1.391 . S
H238 C246 0.950 . S
H239 C251 0.950 . S
H240 C248 0.950 . S
H241 C250 0.950 . S
H242 C252 0.950 . S
H243 C254 0.950 . S
H244 C256 0.950 . S
H245 C257 0.950 . S
C246 H238 0.950 . S
C246 C247 1.386 . S
C246 C248 1.391 . S
C247 C246 1.386 . S
C247 C251 1.393 . S
C248 H240 0.950 . S
C248 C246 1.391 . S
C248 C249 1.400 . S
C249 C248 1.400 . S
C249 C250 1.398 . S
C249 C255 1.491 . S
C250 H241 0.950 . S
C250 C249 1.398 . S
C250 C251 1.391 . S
C251 H239 0.950 . S
C251 C247 1.393 . S
C251 C250 1.391 . S
C252 H242 0.950 . S
C252 C253 1.386 . S
C252 C254 1.391 . S
C253 C252 1.386 . S
C253 C257 1.393 . S
C254 H243 0.950 . S
C254 C252 1.391 . S
C254 C255 1.400 . S
C255 C249 1.491 . S
C255 C254 1.400 . S
C255 C256 1.398 . S
C256 H244 0.950 . S
C256 C255 1.398 . S
C256 C257 1.391 . S
C257 H245 0.950 . S
C257 C253 1.393 . S
C257 C256 1.391 . S
H258 C266 0.950 . S
H259 C271 0.950 1_565 S
H260 C268 0.950 . S
H261 C270 0.950 1_565 S
H262 C272 0.953 . S
H263 C274 0.950 1_565 S
H264 C276 0.950 . S
H265 C277 0.950 . S
C266 H258 0.950 . S
C266 C267 1.386 . S
C266 C268 1.391 . S
C267 C266 1.386 . S
C267 C271 1.393 . S
C268 H260 0.950 . S
C268 C266 1.391 . S
C268 C269 1.400 . S
C269 C268 1.400 . S
C269 C270 1.398 . S
C269 C275 1.491 . S
C270 H261 0.950 1_545 S
C270 C269 1.398 . S
C270 C271 1.391 . S
C271 H259 0.950 1_545 S
C271 C267 1.393 . S
C271 C270 1.391 . S
C272 H262 0.953 . S
C272 C273 1.384 1_565 S
C272 C274 1.390 1_565 S
C273 C272 1.384 1_545 S
C273 C277 1.393 . S
C274 H263 0.950 1_545 S
C274 C272 1.390 1_545 S
C274 C275 1.400 . S
C275 C269 1.491 . S
C275 C274 1.400 . S
C275 C276 1.398 . S
C276 H264 0.950 . S
C276 C275 1.398 . S
C276 C277 1.391 . S
C277 H265 0.950 . S
C277 C273 1.393 . S
C277 C276 1.391 . S
H278 C286 0.950 . S
H279 C291 0.950 . S
H280 C288 0.950 . S
H281 C290 0.950 . S
H282 C292 0.950 . S
H283 C294 0.950 . S
H284 C296 0.950 . S
H285 C297 0.950 . S
C286 H278 0.950 . S
C286 C287 1.386 . S
C286 C288 1.391 . S
C287 C286 1.386 . S
C287 C291 1.393 1_455 S
C288 H280 0.950 . S
C288 C286 1.391 . S
C288 C289 1.400 . S
C289 C288 1.400 . S
C289 C290 1.398 1_455 S
C289 C295 1.491 . S
C290 H281 0.950 . S
C290 C289 1.398 1_655 S
C290 C291 1.391 . S
C291 H279 0.950 . S
C291 C287 1.393 1_655 S
C291 C290 1.391 . S
C292 H282 0.950 . S
C292 C293 1.386 1_655 S
C292 C294 1.391 . S
C293 C292 1.386 1_455 S
C293 C297 1.393 . S
C294 H283 0.950 . S
C294 C292 1.391 . S
C294 C295 1.400 1_655 S
C295 C289 1.491 . S
C295 C294 1.400 1_455 S
C295 C296 1.398 . S
C296 H284 0.950 . S
C296 C295 1.398 . S
C296 C297 1.391 . S
C297 H285 0.950 . S
C297 C293 1.393 . S
C297 C296 1.391 . S
H298 C306 0.950 . S
H299 C311 0.950 . S
H300 C308 0.950 . S
H301 C310 0.950 . S
H302 C312 0.950 . S
H303 C314 0.950 . S
H304 C316 0.950 . S
H305 C317 0.950 . S
C306 H298 0.950 . S
C306 C307 1.386 1_556 S
C306 C308 1.391 . S
C307 C306 1.386 1_554 S
C307 C311 1.393 . S
C308 H300 0.950 . S
C308 C306 1.391 . S
C308 C309 1.400 1_556 S
C309 C308 1.400 1_554 S
C309 C310 1.398 . S
C309 C315 1.491 . S
C310 H301 0.950 . S
C310 C309 1.398 . S
C310 C311 1.391 . S
C311 H299 0.950 . S
C311 C307 1.393 . S
C311 C310 1.391 . S
C312 H302 0.950 . S
C312 C313 1.386 . S
C312 C314 1.391 . S
C313 C312 1.386 . S
C313 C317 1.393 1_554 S
C314 H303 0.950 . S
C314 C312 1.391 . S
C314 C315 1.400 . S
C315 C309 1.491 . S
C315 C314 1.400 . S
C315 C316 1.398 1_554 S
C316 H304 0.950 . S
C316 C315 1.398 1_556 S
C316 C317 1.391 . S
C317 H305 0.950 . S
C317 C313 1.393 1_556 S
C317 C316 1.391 . S
H318 C326 0.950 . S
H319 C331 0.950 . S
H320 C328 0.950 . S
H321 C330 0.950 . S
H322 C332 0.950 . S
H323 C334 0.950 . S
H324 C336 0.950 . S
H325 C337 0.950 . S
C326 H318 0.950 . S
C326 C327 1.386 1_554 S
C326 C328 1.391 . S
C327 C326 1.386 1_556 S
C327 C331 1.393 . S
C328 H320 0.950 . S
C328 C326 1.391 . S
C328 C329 1.400 . S
C329 C328 1.400 . S
C329 C330 1.398 1_554 S
C329 C335 1.491 . S
C330 H321 0.950 . S
C330 C329 1.398 1_556 S
C330 C331 1.391 . S
C331 H319 0.950 . S
C331 C327 1.393 . S
C331 C330 1.391 . S
C332 H322 0.950 . S
C332 C333 1.386 1_556 S
C332 C334 1.391 . S
C333 C332 1.386 1_554 S
C333 C337 1.393 . S
C334 H323 0.950 . S
C334 C332 1.391 . S
C334 C335 1.400 1_556 S
C335 C329 1.491 . S
C335 C334 1.400 1_554 S
C335 C336 1.398 . S
C336 H324 0.950 . S
C336 C335 1.398 . S
C336 C337 1.391 . S
C337 H325 0.950 . S
C337 C333 1.393 . S
C337 C336 1.391 . S
H338 C346 0.951 . S
H339 C351 0.950 . S
H340 C348 0.954 1_556 S
H341 C350 0.950 . S
H342 C352 0.950 . S
H343 C354 0.950 . S
H344 C356 0.950 1_556 S
H345 C357 0.950 1_556 S
C346 H338 0.951 . S
C346 C347 1.388 1_556 S
C346 C348 1.382 1_556 S
C347 C346 1.388 1_554 S
C347 C351 1.393 . S
C348 H340 0.954 1_554 S
C348 C346 1.382 1_554 S
C348 C349 1.403 . S
C349 C348 1.403 . S
C349 C350 1.398 . S
C349 C355 1.491 . S
C350 H341 0.950 . S
C350 C349 1.398 . S
C350 C351 1.391 . S
C351 H339 0.950 . S
C351 C347 1.393 . S
C351 C350 1.391 . S
C352 H342 0.950 . S
C352 C353 1.386 . S
C352 C354 1.391 . S
C353 C352 1.386 . S
C353 C357 1.393 . S
C354 H343 0.950 . S
C354 C352 1.391 . S
C354 C355 1.400 . S
C355 C349 1.491 . S
C355 C354 1.400 . S
C355 C356 1.398 . S
C356 H344 0.950 1_554 S
C356 C355 1.398 . S
C356 C357 1.391 . S
C357 H345 0.950 1_554 S
C357 C353 1.393 . S
C357 C356 1.391 . S
H358 C366 0.950 . S
H359 C371 0.950 . S
H360 C368 0.950 . S
H361 C370 0.950 . S
H362 C372 0.950 . S
H363 C374 0.950 . S
H364 C376 0.950 . S
H365 C377 0.950 . S
C366 H358 0.950 . S
C366 C367 1.386 1_554 S
C366 C368 1.391 . S
C367 C366 1.386 1_556 S
C367 C371 1.393 . S
C368 H360 0.950 . S
C368 C366 1.391 . S
C368 C369 1.400 . S
C369 C368 1.400 . S
C369 C370 1.398 1_554 S
C369 C375 1.491 . S
C370 H361 0.950 . S
C370 C369 1.398 1_556 S
C370 C371 1.391 . S
C371 H359 0.950 . S
C371 C367 1.393 . S
C371 C370 1.391 . S
C372 H362 0.950 . S
C372 C373 1.386 1_556 S
C372 C374 1.391 . S
C373 C372 1.386 1_554 S
C373 C377 1.393 . S
C374 H363 0.950 . S
C374 C372 1.391 . S
C374 C375 1.400 1_556 S
C375 C369 1.491 . S
C375 C374 1.400 1_554 S
C375 C376 1.398 . S
C376 H364 0.950 . S
C376 C375 1.398 . S
C376 C377 1.391 . S
C377 H365 0.950 . S
C377 C373 1.393 . S
C377 C376 1.391 . S
C147 N2 1.501 . S
C153 N94 1.482 . S
C167 C16 1.468 . S
C173 C131 1.466 . S
C187 N104 1.463 . S
C193 N12 1.452 . S
C207 C122 1.520 . S
C213 C7 1.518 . S
C227 N117 1.466 . S
C233 C39 1.490 . S
C247 N58 1.462 . S
C253 C99 1.504 . S
C267 N127 1.479 . S
C273 C30 1.501 . S
C287 C108 1.488 . S
C293 N48 1.472 . S
C307 C62 1.471 . S
C313 C85 1.463 . S
C327 N81 1.442 . S
C333 N35 1.466 . S
C347 C53 1.520 . S
C353 C76 1.518 . S
C367 N71 1.484 . S
C373 N25 1.500 . S
