# Generated by pormake.
# Topology fno, (5)-cn, num edge types: 1
# Building blocks:
#     Node 0, Type 0, BuildingBlock: XOMCOT_clean_sbu_1, # of connection points: 5
#     Node 1, Type 0, BuildingBlock: XOMCOT_clean_sbu_1, # of connection points: 5
#     Node 2, Type 0, BuildingBlock: XOMCOT_clean_sbu_1, # of connection points: 5
#     Node 3, Type 0, BuildingBlock: XOMCOT_clean_sbu_1, # of connection points: 5
#     Node 4, Type 0, BuildingBlock: XOMCOT_clean_sbu_1, # of connection points: 5
#     Node 5, Type 0, BuildingBlock: XOMCOT_clean_sbu_1, # of connection points: 5
#     Node 6, Type 0, BuildingBlock: XOMCOT_clean_sbu_1, # of connection points: 5
#     Node 7, Type 0, BuildingBlock: XOMCOT_clean_sbu_1, # of connection points: 5
#     Node 8, Type 0, BuildingBlock: XOMCOT_clean_sbu_1, # of connection points: 5
#     Node 9, Type 0, BuildingBlock: XOMCOT_clean_sbu_1, # of connection points: 5
#     Node 10, Type 0, BuildingBlock: XOMCOT_clean_sbu_1, # of connection points: 5
#     Node 11, Type 0, BuildingBlock: XOMCOT_clean_sbu_1, # of connection points: 5
#     Node 12, Type 0, BuildingBlock: XOMCOT_clean_sbu_1, # of connection points: 5
#     Node 13, Type 0, BuildingBlock: XOMCOT_clean_sbu_1, # of connection points: 5
#     Node 14, Type 0, BuildingBlock: XOMCOT_clean_sbu_1, # of connection points: 5
#     Node 15, Type 0, BuildingBlock: XOMCOT_clean_sbu_1, # of connection points: 5
#     Node 16, Type 0, BuildingBlock: XOMCOT_clean_sbu_1, # of connection points: 5
#     Node 17, Type 0, BuildingBlock: XOMCOT_clean_sbu_1, # of connection points: 5
#     Node 18, Type 0, BuildingBlock: XOMCOT_clean_sbu_1, # of connection points: 5
#     Node 19, Type 0, BuildingBlock: XOMCOT_clean_sbu_1, # of connection points: 5
#     Node 20, Type 0, BuildingBlock: XOMCOT_clean_sbu_1, # of connection points: 5
#     Node 21, Type 0, BuildingBlock: XOMCOT_clean_sbu_1, # of connection points: 5
#     Node 22, Type 0, BuildingBlock: XOMCOT_clean_sbu_1, # of connection points: 5
#     Node 23, Type 0, BuildingBlock: XOMCOT_clean_sbu_1, # of connection points: 5
#     Node 24, Type 0, BuildingBlock: XOMCOT_clean_sbu_1, # of connection points: 5
#     Node 25, Type 0, BuildingBlock: XOMCOT_clean_sbu_1, # of connection points: 5
#     Node 26, Type 0, BuildingBlock: XOMCOT_clean_sbu_1, # of connection points: 5
#     Node 27, Type 0, BuildingBlock: XOMCOT_clean_sbu_1, # of connection points: 5
#     Node 28, Type 0, BuildingBlock: XOMCOT_clean_sbu_1, # of connection points: 5
#     Node 29, Type 0, BuildingBlock: XOMCOT_clean_sbu_1, # of connection points: 5
#     Node 30, Type 0, BuildingBlock: XOMCOT_clean_sbu_1, # of connection points: 5
#     Node 31, Type 0, BuildingBlock: XOMCOT_clean_sbu_1, # of connection points: 5
#     Node 32, Type 0, BuildingBlock: XOMCOT_clean_sbu_1, # of connection points: 5
#     Node 33, Type 0, BuildingBlock: XOMCOT_clean_sbu_1, # of connection points: 5
#     Node 34, Type 0, BuildingBlock: XOMCOT_clean_sbu_1, # of connection points: 5
#     Node 35, Type 0, BuildingBlock: XOMCOT_clean_sbu_1, # of connection points: 5
#     Node 36, Type 0, BuildingBlock: XOMCOT_clean_sbu_1, # of connection points: 5
#     Node 37, Type 0, BuildingBlock: XOMCOT_clean_sbu_1, # of connection points: 5
#     Node 38, Type 0, BuildingBlock: XOMCOT_clean_sbu_1, # of connection points: 5
#     Node 39, Type 0, BuildingBlock: XOMCOT_clean_sbu_1, # of connection points: 5
#     Node 40, Type 0, BuildingBlock: XOMCOT_clean_sbu_1, # of connection points: 5
#     Node 41, Type 0, BuildingBlock: XOMCOT_clean_sbu_1, # of connection points: 5
#     Node 42, Type 0, BuildingBlock: XOMCOT_clean_sbu_1, # of connection points: 5
#     Node 43, Type 0, BuildingBlock: XOMCOT_clean_sbu_1, # of connection points: 5
#     Node 44, Type 0, BuildingBlock: XOMCOT_clean_sbu_1, # of connection points: 5
#     Node 45, Type 0, BuildingBlock: XOMCOT_clean_sbu_1, # of connection points: 5
#     Node 46, Type 0, BuildingBlock: XOMCOT_clean_sbu_1, # of connection points: 5
#     Node 47, Type 0, BuildingBlock: XOMCOT_clean_sbu_1, # of connection points: 5
#     Edge 48, Type (0, 0), BuildingBlock: XUDNAN_clean_linker_2, # of connection points: 2
#     Edge 49, Type (0, 0), BuildingBlock: XUDNAN_clean_linker_2, # of connection points: 2
#     Edge 50, Type (0, 0), BuildingBlock: XUDNAN_clean_linker_2, # of connection points: 2
#     Edge 51, Type (0, 0), BuildingBlock: XUDNAN_clean_linker_2, # of connection points: 2
#     Edge 52, Type (0, 0), BuildingBlock: XUDNAN_clean_linker_2, # of connection points: 2
#     Edge 53, Type (0, 0), BuildingBlock: XUDNAN_clean_linker_2, # of connection points: 2
#     Edge 54, Type (0, 0), BuildingBlock: XUDNAN_clean_linker_2, # of connection points: 2
#     Edge 55, Type (0, 0), BuildingBlock: XUDNAN_clean_linker_2, # of connection points: 2
#     Edge 56, Type (0, 0), BuildingBlock: XUDNAN_clean_linker_2, # of connection points: 2
#     Edge 57, Type (0, 0), BuildingBlock: XUDNAN_clean_linker_2, # of connection points: 2
#     Edge 58, Type (0, 0), BuildingBlock: XUDNAN_clean_linker_2, # of connection points: 2
#     Edge 59, Type (0, 0), BuildingBlock: XUDNAN_clean_linker_2, # of connection points: 2
#     Edge 60, Type (0, 0), BuildingBlock: XUDNAN_clean_linker_2, # of connection points: 2
#     Edge 61, Type (0, 0), BuildingBlock: XUDNAN_clean_linker_2, # of connection points: 2
#     Edge 62, Type (0, 0), BuildingBlock: XUDNAN_clean_linker_2, # of connection points: 2
#     Edge 63, Type (0, 0), BuildingBlock: XUDNAN_clean_linker_2, # of connection points: 2
#     Edge 64, Type (0, 0), BuildingBlock: XUDNAN_clean_linker_2, # of connection points: 2
#     Edge 65, Type (0, 0), BuildingBlock: XUDNAN_clean_linker_2, # of connection points: 2
#     Edge 66, Type (0, 0), BuildingBlock: XUDNAN_clean_linker_2, # of connection points: 2
#     Edge 67, Type (0, 0), BuildingBlock: XUDNAN_clean_linker_2, # of connection points: 2
#     Edge 68, Type (0, 0), BuildingBlock: XUDNAN_clean_linker_2, # of connection points: 2
#     Edge 69, Type (0, 0), BuildingBlock: XUDNAN_clean_linker_2, # of connection points: 2
#     Edge 70, Type (0, 0), BuildingBlock: XUDNAN_clean_linker_2, # of connection points: 2
#     Edge 71, Type (0, 0), BuildingBlock: XUDNAN_clean_linker_2, # of connection points: 2
#     Edge 72, Type (0, 0), BuildingBlock: XUDNAN_clean_linker_2, # of connection points: 2
#     Edge 73, Type (0, 0), BuildingBlock: XUDNAN_clean_linker_2, # of connection points: 2
#     Edge 74, Type (0, 0), BuildingBlock: XUDNAN_clean_linker_2, # of connection points: 2
#     Edge 75, Type (0, 0), BuildingBlock: XUDNAN_clean_linker_2, # of connection points: 2
#     Edge 76, Type (0, 0), BuildingBlock: XUDNAN_clean_linker_2, # of connection points: 2
#     Edge 77, Type (0, 0), BuildingBlock: XUDNAN_clean_linker_2, # of connection points: 2
#     Edge 78, Type (0, 0), BuildingBlock: XUDNAN_clean_linker_2, # of connection points: 2
#     Edge 79, Type (0, 0), BuildingBlock: XUDNAN_clean_linker_2, # of connection points: 2
#     Edge 80, Type (0, 0), BuildingBlock: XUDNAN_clean_linker_2, # of connection points: 2
#     Edge 81, Type (0, 0), BuildingBlock: XUDNAN_clean_linker_2, # of connection points: 2
#     Edge 82, Type (0, 0), BuildingBlock: XUDNAN_clean_linker_2, # of connection points: 2
#     Edge 83, Type (0, 0), BuildingBlock: XUDNAN_clean_linker_2, # of connection points: 2
#     Edge 84, Type (0, 0), BuildingBlock: XUDNAN_clean_linker_2, # of connection points: 2
#     Edge 85, Type (0, 0), BuildingBlock: XUDNAN_clean_linker_2, # of connection points: 2
#     Edge 86, Type (0, 0), BuildingBlock: XUDNAN_clean_linker_2, # of connection points: 2
#     Edge 87, Type (0, 0), BuildingBlock: XUDNAN_clean_linker_2, # of connection points: 2
#     Edge 88, Type (0, 0), BuildingBlock: XUDNAN_clean_linker_2, # of connection points: 2
#     Edge 89, Type (0, 0), BuildingBlock: XUDNAN_clean_linker_2, # of connection points: 2
#     Edge 90, Type (0, 0), BuildingBlock: XUDNAN_clean_linker_2, # of connection points: 2
#     Edge 91, Type (0, 0), BuildingBlock: XUDNAN_clean_linker_2, # of connection points: 2
#     Edge 92, Type (0, 0), BuildingBlock: XUDNAN_clean_linker_2, # of connection points: 2
#     Edge 93, Type (0, 0), BuildingBlock: XUDNAN_clean_linker_2, # of connection points: 2
#     Edge 94, Type (0, 0), BuildingBlock: XUDNAN_clean_linker_2, # of connection points: 2
#     Edge 95, Type (0, 0), BuildingBlock: XUDNAN_clean_linker_2, # of connection points: 2
#     Edge 96, Type (0, 0), BuildingBlock: XUDNAN_clean_linker_2, # of connection points: 2
#     Edge 97, Type (0, 0), BuildingBlock: XUDNAN_clean_linker_2, # of connection points: 2
#     Edge 98, Type (0, 0), BuildingBlock: XUDNAN_clean_linker_2, # of connection points: 2
#     Edge 99, Type (0, 0), BuildingBlock: XUDNAN_clean_linker_2, # of connection points: 2
#     Edge 100, Type (0, 0), BuildingBlock: XUDNAN_clean_linker_2, # of connection points: 2
#     Edge 101, Type (0, 0), BuildingBlock: XUDNAN_clean_linker_2, # of connection points: 2
#     Edge 102, Type (0, 0), BuildingBlock: XUDNAN_clean_linker_2, # of connection points: 2
#     Edge 103, Type (0, 0), BuildingBlock: XUDNAN_clean_linker_2, # of connection points: 2
#     Edge 104, Type (0, 0), BuildingBlock: XUDNAN_clean_linker_2, # of connection points: 2
#     Edge 105, Type (0, 0), BuildingBlock: XUDNAN_clean_linker_2, # of connection points: 2
#     Edge 106, Type (0, 0), BuildingBlock: XUDNAN_clean_linker_2, # of connection points: 2
#     Edge 107, Type (0, 0), BuildingBlock: XUDNAN_clean_linker_2, # of connection points: 2
#     Edge 108, Type (0, 0), BuildingBlock: XUDNAN_clean_linker_2, # of connection points: 2
#     Edge 109, Type (0, 0), BuildingBlock: XUDNAN_clean_linker_2, # of connection points: 2
#     Edge 110, Type (0, 0), BuildingBlock: XUDNAN_clean_linker_2, # of connection points: 2
#     Edge 111, Type (0, 0), BuildingBlock: XUDNAN_clean_linker_2, # of connection points: 2
#     Edge 112, Type (0, 0), BuildingBlock: XUDNAN_clean_linker_2, # of connection points: 2
#     Edge 113, Type (0, 0), BuildingBlock: XUDNAN_clean_linker_2, # of connection points: 2
#     Edge 114, Type (0, 0), BuildingBlock: XUDNAN_clean_linker_2, # of connection points: 2
#     Edge 115, Type (0, 0), BuildingBlock: XUDNAN_clean_linker_2, # of connection points: 2
#     Edge 116, Type (0, 0), BuildingBlock: XUDNAN_clean_linker_2, # of connection points: 2
#     Edge 117, Type (0, 0), BuildingBlock: XUDNAN_clean_linker_2, # of connection points: 2
#     Edge 118, Type (0, 0), BuildingBlock: XUDNAN_clean_linker_2, # of connection points: 2
#     Edge 119, Type (0, 0), BuildingBlock: XUDNAN_clean_linker_2, # of connection points: 2
#     Edge 120, Type (0, 0), BuildingBlock: XUDNAN_clean_linker_2, # of connection points: 2
#     Edge 121, Type (0, 0), BuildingBlock: XUDNAN_clean_linker_2, # of connection points: 2
#     Edge 122, Type (0, 0), BuildingBlock: XUDNAN_clean_linker_2, # of connection points: 2
#     Edge 123, Type (0, 0), BuildingBlock: XUDNAN_clean_linker_2, # of connection points: 2
#     Edge 124, Type (0, 0), BuildingBlock: XUDNAN_clean_linker_2, # of connection points: 2
#     Edge 125, Type (0, 0), BuildingBlock: XUDNAN_clean_linker_2, # of connection points: 2
#     Edge 126, Type (0, 0), BuildingBlock: XUDNAN_clean_linker_2, # of connection points: 2
#     Edge 127, Type (0, 0), BuildingBlock: XUDNAN_clean_linker_2, # of connection points: 2
#     Edge 128, Type (0, 0), BuildingBlock: XUDNAN_clean_linker_2, # of connection points: 2
#     Edge 129, Type (0, 0), BuildingBlock: XUDNAN_clean_linker_2, # of connection points: 2
#     Edge 130, Type (0, 0), BuildingBlock: XUDNAN_clean_linker_2, # of connection points: 2
#     Edge 131, Type (0, 0), BuildingBlock: XUDNAN_clean_linker_2, # of connection points: 2
#     Edge 132, Type (0, 0), BuildingBlock: XUDNAN_clean_linker_2, # of connection points: 2
#     Edge 133, Type (0, 0), BuildingBlock: XUDNAN_clean_linker_2, # of connection points: 2
#     Edge 134, Type (0, 0), BuildingBlock: XUDNAN_clean_linker_2, # of connection points: 2
#     Edge 135, Type (0, 0), BuildingBlock: XUDNAN_clean_linker_2, # of connection points: 2
#     Edge 136, Type (0, 0), BuildingBlock: XUDNAN_clean_linker_2, # of connection points: 2
#     Edge 137, Type (0, 0), BuildingBlock: XUDNAN_clean_linker_2, # of connection points: 2
#     Edge 138, Type (0, 0), BuildingBlock: XUDNAN_clean_linker_2, # of connection points: 2
#     Edge 139, Type (0, 0), BuildingBlock: XUDNAN_clean_linker_2, # of connection points: 2
#     Edge 140, Type (0, 0), BuildingBlock: XUDNAN_clean_linker_2, # of connection points: 2
#     Edge 141, Type (0, 0), BuildingBlock: XUDNAN_clean_linker_2, # of connection points: 2
#     Edge 142, Type (0, 0), BuildingBlock: XUDNAN_clean_linker_2, # of connection points: 2
#     Edge 143, Type (0, 0), BuildingBlock: XUDNAN_clean_linker_2, # of connection points: 2
#     Edge 144, Type (0, 0), BuildingBlock: XUDNAN_clean_linker_2, # of connection points: 2
#     Edge 145, Type (0, 0), BuildingBlock: XUDNAN_clean_linker_2, # of connection points: 2
#     Edge 146, Type (0, 0), BuildingBlock: XUDNAN_clean_linker_2, # of connection points: 2
#     Edge 147, Type (0, 0), BuildingBlock: XUDNAN_clean_linker_2, # of connection points: 2
#     Edge 148, Type (0, 0), BuildingBlock: XUDNAN_clean_linker_2, # of connection points: 2
#     Edge 149, Type (0, 0), BuildingBlock: XUDNAN_clean_linker_2, # of connection points: 2
#     Edge 150, Type (0, 0), BuildingBlock: XUDNAN_clean_linker_2, # of connection points: 2
#     Edge 151, Type (0, 0), BuildingBlock: XUDNAN_clean_linker_2, # of connection points: 2
#     Edge 152, Type (0, 0), BuildingBlock: XUDNAN_clean_linker_2, # of connection points: 2
#     Edge 153, Type (0, 0), BuildingBlock: XUDNAN_clean_linker_2, # of connection points: 2
#     Edge 154, Type (0, 0), BuildingBlock: XUDNAN_clean_linker_2, # of connection points: 2
#     Edge 155, Type (0, 0), BuildingBlock: XUDNAN_clean_linker_2, # of connection points: 2
#     Edge 156, Type (0, 0), BuildingBlock: XUDNAN_clean_linker_2, # of connection points: 2
#     Edge 157, Type (0, 0), BuildingBlock: XUDNAN_clean_linker_2, # of connection points: 2
#     Edge 158, Type (0, 0), BuildingBlock: XUDNAN_clean_linker_2, # of connection points: 2
#     Edge 159, Type (0, 0), BuildingBlock: XUDNAN_clean_linker_2, # of connection points: 2
#     Edge 160, Type (0, 0), BuildingBlock: XUDNAN_clean_linker_2, # of connection points: 2
#     Edge 161, Type (0, 0), BuildingBlock: XUDNAN_clean_linker_2, # of connection points: 2
#     Edge 162, Type (0, 0), BuildingBlock: XUDNAN_clean_linker_2, # of connection points: 2
#     Edge 163, Type (0, 0), BuildingBlock: XUDNAN_clean_linker_2, # of connection points: 2
#     Edge 164, Type (0, 0), BuildingBlock: XUDNAN_clean_linker_2, # of connection points: 2
#     Edge 165, Type (0, 0), BuildingBlock: XUDNAN_clean_linker_2, # of connection points: 2
#     Edge 166, Type (0, 0), BuildingBlock: XUDNAN_clean_linker_2, # of connection points: 2
#     Edge 167, Type (0, 0), BuildingBlock: XUDNAN_clean_linker_2, # of connection points: 2
# Relax obj value: 0.381
# Max RMSD: 0.268
# Mean RMSD: 0.180
data_MOF--net-fno--node1-XOMCOT_clean_sbu_1--edge1-XUDNAN_clean_linker_2
_symmetry_space_group_name_H-M    P1
_symmetry_Int_Tables_number       1
_symmetry_cell_setting            triclinic
loop_
_symmetry_equiv_pos_as_xyz
'x, y, z'
_cell_length_a     58.291383
_cell_length_b     57.382427
_cell_length_c     57.833417
_cell_angle_alpha  92.038951
_cell_angle_beta   90.824361
_cell_angle_gamma 93.41937
loop_
_atom_site_label
_atom_site_type_symbol
_atom_site_fract_x
_atom_site_fract_y
_atom_site_fract_z
_atom_type_partial_charge
C0 C 0.1082 0.3251 0.07128 0.0
C1 C 0.11272 0.32832 0.04831 0.0
N2 N 0.11603 0.35141 0.04531 0.0
N3 N 0.1092 0.34607 0.0826 0.0
C4 C 0.11345 0.36173 0.06623 0.0
H5 H 0.10734 0.30854 0.07968 0.0
Co6 Co 0.11491 0.34934 0.11377 0.0
C7 C 0.11682 0.40112 0.12561 0.0
O8 O 0.13155 0.39788 0.14242 0.0
N9 N 0.12071 0.35068 0.14576 0.0
C10 C 0.13308 0.34003 0.18008 0.0
C11 C 0.13522 0.33708 0.15677 0.0
C12 C 0.10907 0.36095 0.16306 0.0
N13 N 0.11666 0.35501 0.18403 0.0
O14 O 0.08324 0.3407 0.11962 0.0
H15 H 0.14585 0.32451 0.14881 0.0
H16 H 0.09509 0.3722 0.16034 0.0
O17 O 0.10843 0.38338 0.11337 0.0
C18 C 0.08045 0.31995 0.12671 0.0
O19 O 0.0984 0.3073 0.12849 0.0
N20 N 0.14653 0.35609 0.1077 0.0
C21 C 0.1937 0.36411 0.11072 0.0
C22 C 0.18003 0.38176 0.10368 0.0
C23 C 0.15638 0.37725 0.10182 0.0
C24 C 0.16007 0.33768 0.10982 0.0
C25 C 0.18387 0.34146 0.11254 0.0
H26 H 0.14634 0.39118 0.09634 0.0
H27 H 0.1522 0.32026 0.11136 0.0
H28 H 0.11817 0.37994 0.06996 0.0
H29 H 0.11617 0.31479 0.03552 0.0
H30 H 0.14285 0.3317 0.19318 0.0
H31 H 0.1874 0.39921 0.10094 0.0
H32 H 0.19427 0.32716 0.11687 0.0
C33 C 0.94321 0.85409 0.32293 0.0
C34 C 0.93448 0.8549 0.30066 0.0
N35 N 0.91472 0.8415 0.29901 0.0
N36 N 0.92875 0.84064 0.33553 0.0
C37 C 0.91204 0.83267 0.32022 0.0
H38 H 0.95768 0.86478 0.33012 0.0
Co39 Co 0.92774 0.84118 0.36819 0.0
C40 C 0.87712 0.84037 0.37842 0.0
O41 O 0.88194 0.85188 0.39809 0.0
N42 N 0.92673 0.84178 0.4018 0.0
C43 C 0.92011 0.82905 0.43745 0.0
C44 C 0.91914 0.82327 0.41407 0.0
C45 C 0.93218 0.85869 0.41857 0.0
N46 N 0.92808 0.85142 0.44019 0.0
O47 O 0.93543 0.808 0.36743 0.0
H48 H 0.91294 0.80654 0.40647 0.0
H49 H 0.93925 0.87602 0.41553 0.0
O50 O 0.89372 0.833 0.36624 0.0
C51 C 0.95448 0.80216 0.37632 0.0
O52 O 0.96739 0.81807 0.38813 0.0
N53 N 0.92245 0.87342 0.3675 0.0
C54 C 0.91396 0.92072 0.37125 0.0
C55 C 0.89825 0.90457 0.35977 0.0
C56 C 0.90331 0.8813 0.35726 0.0
C57 C 0.93966 0.88922 0.37477 0.0
C58 C 0.93566 0.913 0.37727 0.0
H59 H 0.89141 0.86962 0.34747 0.0
H60 H 0.95614 0.88318 0.37996 0.0
H61 H 0.8971 0.82211 0.32492 0.0
H62 H 0.94075 0.86658 0.28755 0.0
H63 H 0.91521 0.81775 0.45136 0.0
H64 H 0.88156 0.90918 0.35373 0.0
H65 H 0.94913 0.92492 0.38463 0.0
C66 C 0.44927 0.66384 0.67372 0.0
C67 C 0.44766 0.66328 0.69738 0.0
N68 N 0.42631 0.6688 0.70319 0.0
N69 N 0.42905 0.6697 0.66474 0.0
C70 C 0.41553 0.67308 0.68315 0.0
H71 H 0.46382 0.65904 0.66358 0.0
Co72 Co 0.42272 0.6693 0.6333 0.0
C73 C 0.37322 0.66158 0.62639 0.0
O74 O 0.37898 0.64739 0.60937 0.0
N75 N 0.41732 0.67037 0.60098 0.0
C76 C 0.40509 0.6872 0.56932 0.0
C77 C 0.40528 0.68794 0.59289 0.0
C78 C 0.42463 0.65931 0.58153 0.0
N79 N 0.41726 0.66928 0.5622 0.0
O80 O 0.43009 0.70231 0.63344 0.0
H81 H 0.39726 0.70087 0.6036 0.0
H82 H 0.43592 0.64512 0.58118 0.0
O83 O 0.38913 0.6732 0.6384 0.0
C84 C 0.4514 0.70604 0.62952 0.0
O85 O 0.46421 0.6881 0.62682 0.0
N86 N 0.41716 0.63631 0.63423 0.0
C87 C 0.40927 0.58834 0.63826 0.0
C88 C 0.39751 0.60379 0.65206 0.0
C89 C 0.40176 0.62757 0.6499 0.0
C90 C 0.43055 0.62139 0.62241 0.0
C91 C 0.42624 0.59714 0.62343 0.0
H92 H 0.39218 0.63884 0.66088 0.0
H93 H 0.44484 0.62814 0.61254 0.0
H94 H 0.39771 0.67726 0.68185 0.0
H95 H 0.46062 0.65767 0.70921 0.0
H96 H 0.39685 0.69908 0.55816 0.0
H97 H 0.38443 0.59755 0.66387 0.0
H98 H 0.4361 0.58544 0.61298 0.0
C99 C 0.61367 0.18728 0.91962 0.0
C100 C 0.61702 0.18403 0.94299 0.0
N101 N 0.60696 0.16313 0.94812 0.0
N102 N 0.60156 0.1685 0.91009 0.0
C103 C 0.59704 0.15461 0.9281 0.0
H104 H 0.62178 0.20111 0.90981 0.0
Co105 Co 0.60129 0.15875 0.87872 0.0
C106 C 0.58543 0.10654 0.88051 0.0
O107 O 0.57315 0.10602 0.86126 0.0
N108 N 0.60221 0.14795 0.8471 0.0
C109 C 0.61471 0.12487 0.81874 0.0
C110 C 0.61408 0.12888 0.84197 0.0
C111 C 0.5964 0.15574 0.82593 0.0
N112 N 0.60363 0.14159 0.80847 0.0
O113 O 0.56793 0.16463 0.87679 0.0
H114 H 0.6226 0.11861 0.8544 0.0
H115 H 0.58753 0.17148 0.82331 0.0
O116 O 0.59574 0.12571 0.88801 0.0
C117 C 0.5634 0.18491 0.86964 0.0
O118 O 0.58043 0.1982 0.86171 0.0
N119 N 0.63341 0.15614 0.88072 0.0
C120 C 0.68089 0.15231 0.87753 0.0
C121 C 0.66763 0.13819 0.89234 0.0
C122 C 0.64396 0.14052 0.89388 0.0
C123 C 0.6461 0.17097 0.86731 0.0
C124 C 0.66984 0.16924 0.8653 0.0
H125 H 0.63413 0.1293 0.90517 0.0
H126 H 0.63757 0.18371 0.85746 0.0
H127 H 0.58821 0.13756 0.92642 0.0
H128 H 0.62796 0.19504 0.95467 0.0
H129 H 0.62342 0.11107 0.80989 0.0
H130 H 0.67525 0.1248 0.90211 0.0
H131 H 0.67937 0.18088 0.85409 0.0
C132 C 0.09209 0.68432 0.42268 0.0
C133 C 0.09421 0.68213 0.44627 0.0
N134 N 0.10024 0.66033 0.45035 0.0
N135 N 0.09689 0.66403 0.41186 0.0
C136 C 0.10167 0.64972 0.42927 0.0
H137 H 0.08895 0.70023 0.41402 0.0
Co138 Co 0.10292 0.65956 0.38029 0.0
C139 C 0.10012 0.60652 0.37201 0.0
O140 O 0.10279 0.60742 0.34957 0.0
N141 N 0.11007 0.65508 0.34771 0.0
C142 C 0.13089 0.64801 0.31623 0.0
C143 C 0.13097 0.64953 0.33973 0.0
C144 C 0.09743 0.65663 0.3278 0.0
N145 N 0.10994 0.65242 0.30863 0.0
O146 O 0.07027 0.66254 0.37285 0.0
H147 H 0.14581 0.64598 0.34981 0.0
H148 H 0.0795 0.66048 0.32727 0.0
O149 O 0.09891 0.6254 0.3843 0.0
C150 C 0.06643 0.68384 0.36877 0.0
O151 O 0.08404 0.69916 0.36824 0.0
N152 N 0.13423 0.66008 0.38807 0.0
C153 C 0.18149 0.66509 0.38305 0.0
C154 C 0.1711 0.64402 0.39076 0.0
C155 C 0.14722 0.64192 0.3935 0.0
C156 C 0.14439 0.6816 0.38448 0.0
C157 C 0.16808 0.68452 0.38189 0.0
H158 H 0.13925 0.62509 0.39737 0.0
H159 H 0.13377 0.69598 0.38113 0.0
H160 H 0.10819 0.6326 0.42661 0.0
H161 H 0.0927 0.69589 0.45936 0.0
H162 H 0.1451 0.64352 0.3054 0.0
H163 H 0.18079 0.62861 0.39229 0.0
H164 H 0.17549 0.70136 0.37701 0.0
C165 C 0.63145 0.82634 0.57397 0.0
C166 C 0.6373 0.83108 0.55154 0.0
N167 N 0.627 0.85043 0.5455 0.0
N168 N 0.61772 0.84282 0.58191 0.0
C169 C 0.61441 0.85645 0.56382 0.0
H170 H 0.63895 0.8136 0.58465 0.0
Co171 Co 0.61265 0.8508 0.61259 0.0
C172 C 0.61687 0.90288 0.61535 0.0
O173 O 0.62812 0.90173 0.63508 0.0
N174 N 0.60658 0.8588 0.6437 0.0
C175 C 0.5893 0.87506 0.67385 0.0
C176 C 0.58867 0.87133 0.65026 0.0
C177 C 0.6172 0.85436 0.66382 0.0
N178 N 0.60748 0.86454 0.68221 0.0
O179 O 0.58045 0.84247 0.60793 0.0
H180 H 0.57629 0.87803 0.63847 0.0
H181 H 0.63163 0.84376 0.66553 0.0
O182 O 0.60894 0.88405 0.60463 0.0
C183 C 0.57592 0.82249 0.61628 0.0
O184 O 0.59293 0.81159 0.6253 0.0
N185 N 0.64494 0.85695 0.61688 0.0
C186 C 0.69141 0.86844 0.62575 0.0
C187 C 0.67949 0.87966 0.60861 0.0
C188 C 0.65652 0.87306 0.60395 0.0
C189 C 0.65722 0.84319 0.6306 0.0
C190 C 0.68031 0.8493 0.63622 0.0
H191 H 0.64799 0.88094 0.58993 0.0
H192 H 0.64907 0.82754 0.63742 0.0
H193 H 0.60504 0.87213 0.56479 0.0
H194 H 0.65033 0.82272 0.54162 0.0
H195 H 0.5779 0.88548 0.68392 0.0
H196 H 0.68765 0.89372 0.59909 0.0
H197 H 0.68943 0.83905 0.64831 0.0
C198 C 0.44642 0.34711 0.82058 0.0
C199 C 0.4394 0.34765 0.79774 0.0
N200 N 0.41831 0.33677 0.79539 0.0
N201 N 0.42975 0.33622 0.83288 0.0
C202 C 0.41338 0.32909 0.81673 0.0
H203 H 0.46117 0.357 0.82823 0.0
Co204 Co 0.42502 0.34391 0.8647 0.0
C205 C 0.37215 0.33399 0.86846 0.0
O206 O 0.37152 0.32741 0.88998 0.0
N207 N 0.41922 0.35305 0.89663 0.0
C208 C 0.40166 0.37414 0.92355 0.0
C209 C 0.40257 0.36814 0.90066 0.0
C210 C 0.42852 0.35049 0.91821 0.0
N211 N 0.41781 0.36315 0.93488 0.0
O212 O 0.43021 0.31097 0.87281 0.0
H213 H 0.39165 0.37497 0.8876 0.0
H214 H 0.44267 0.33966 0.92163 0.0
O215 O 0.39152 0.33857 0.85904 0.0
C216 C 0.45121 0.30568 0.86988 0.0
O217 O 0.46598 0.32208 0.86299 0.0
N218 N 0.42273 0.37529 0.8566 0.0
C219 C 0.41594 0.42234 0.85133 0.0
C220 C 0.40292 0.40515 0.83826 0.0
C221 C 0.40658 0.38175 0.84112 0.0
C222 C 0.43732 0.39177 0.86751 0.0
C223 C 0.43392 0.41554 0.86549 0.0
H224 H 0.39556 0.36894 0.83161 0.0
H225 H 0.45056 0.38642 0.87914 0.0
H226 H 0.39679 0.3212 0.82097 0.0
H227 H 0.44822 0.35726 0.7844 0.0
H228 H 0.38992 0.38592 0.93139 0.0
H229 H 0.38877 0.40954 0.82721 0.0
H230 H 0.44447 0.42837 0.8757 0.0
C231 C 0.94666 0.16872 0.17301 0.0
C232 C 0.94377 0.16131 0.19516 0.0
N233 N 0.92105 0.15831 0.19897 0.0
N234 N 0.9259 0.17032 0.16291 0.0
C235 C 0.91059 0.16431 0.17929 0.0
H236 H 0.96285 0.17134 0.16427 0.0
Co237 Co 0.92234 0.17411 0.13157 0.0
C238 C 0.87221 0.17339 0.1212 0.0
O239 O 0.87696 0.165 0.10055 0.0
N240 N 0.91992 0.17839 0.0992 0.0
C241 C 0.91119 0.1938 0.06558 0.0
C242 C 0.91306 0.19779 0.08915 0.0
C243 C 0.92297 0.16329 0.08115 0.0
N244 N 0.91718 0.17189 0.0606 0.0
O245 O 0.9309 0.2067 0.13644 0.0
H246 H 0.90833 0.21341 0.09848 0.0
H247 H 0.92866 0.146 0.08281 0.0
O248 O 0.88884 0.17938 0.13547 0.0
C249 C 0.95147 0.21158 0.13024 0.0
O250 O 0.96309 0.19504 0.12053 0.0
N251 N 0.9161 0.14141 0.128 0.0
C252 C 0.91077 0.09289 0.12417 0.0
C253 C 0.89329 0.10593 0.13318 0.0
C254 C 0.89647 0.12999 0.13543 0.0
C255 C 0.93414 0.1288 0.12119 0.0
C256 C 0.93159 0.10444 0.1183 0.0
H257 H 0.88317 0.13896 0.14396 0.0
H258 H 0.95038 0.13782 0.11726 0.0
H259 H 0.89221 0.16249 0.17635 0.0
H260 H 0.95732 0.15732 0.20711 0.0
H261 H 0.90466 0.20569 0.05332 0.0
H262 H 0.8771 0.0976 0.13842 0.0
H263 H 0.9457 0.09478 0.11182 0.0
C264 C 0.14336 0.06653 0.3693 0.0
C265 C 0.16687 0.07045 0.36815 0.0
N266 N 0.17138 0.0925 0.36164 0.0
N267 N 0.13326 0.08626 0.36406 0.0
C268 C 0.15081 0.10161 0.35905 0.0
H269 H 0.13433 0.05112 0.3757 0.0
Co270 Co 0.10304 0.09226 0.37085 0.0
C271 C 0.09865 0.14445 0.36256 0.0
O272 O 0.07727 0.1412 0.35509 0.0
N273 N 0.07189 0.09882 0.37873 0.0
C274 C 0.04506 0.11574 0.39948 0.0
C275 C 0.06797 0.11347 0.39698 0.0
C276 C 0.05032 0.09262 0.3702 0.0
N277 N 0.03378 0.10289 0.38266 0.0
O278 O 0.09513 0.0848 0.33868 0.0
H279 H 0.08099 0.12297 0.40759 0.0
H280 H 0.04684 0.08163 0.35482 0.0
O281 O 0.11006 0.12667 0.36718 0.0
C282 C 0.08981 0.06268 0.33778 0.0
O283 O 0.08464 0.0527 0.35729 0.0
N284 N 0.11164 0.09523 0.40175 0.0
C285 C 0.11543 0.09838 0.44943 0.0
C286 C 0.12794 0.11443 0.43593 0.0
C287 C 0.12587 0.11249 0.41189 0.0
C288 C 0.10216 0.07767 0.41436 0.0
C289 C 0.10357 0.07903 0.43835 0.0
H290 H 0.13469 0.12548 0.40164 0.0
H291 H 0.09187 0.06354 0.40575 0.0
H292 H 0.14893 0.11985 0.35595 0.0
H293 H 0.17967 0.05871 0.37346 0.0
H294 H 0.0372 0.12683 0.41227 0.0
H295 H 0.13806 0.1291 0.44386 0.0
H296 H 0.0938 0.0661 0.44796 0.0
C297 C 0.19847 0.96404 0.6064 0.0
C298 C 0.18913 0.98464 0.61358 0.0
N299 N 0.16695 0.98392 0.60663 0.0
N300 N 0.18224 0.94999 0.5952 0.0
C301 C 0.16335 0.96286 0.5954 0.0
H302 H 0.21531 0.95866 0.61121 0.0
Co303 Co 0.18437 0.917 0.59073 0.0
C304 C 0.13591 0.89693 0.58272 0.0
O305 O 0.14195 0.87674 0.58984 0.0
N306 N 0.18666 0.88335 0.58658 0.0
C307 C 0.18544 0.84786 0.56903 0.0
C308 C 0.18583 0.87152 0.56587 0.0
C309 C 0.18681 0.86592 0.60204 0.0
N310 N 0.1858 0.84417 0.59188 0.0
O311 O 0.19526 0.92098 0.55871 0.0
H312 H 0.18422 0.87936 0.54926 0.0
H313 H 0.18564 0.8688 0.62043 0.0
O314 O 0.15117 0.91387 0.58094 0.0
C315 C 0.21663 0.91705 0.5566 0.0
O316 O 0.22824 0.91238 0.57536 0.0
N317 N 0.17662 0.91406 0.62198 0.0
C318 C 0.16858 0.90771 0.66876 0.0
C319 C 0.15135 0.91541 0.65421 0.0
C320 C 0.15578 0.91866 0.63096 0.0
C321 C 0.19442 0.9096 0.63641 0.0
C322 C 0.19064 0.90563 0.6598 0.0
H323 H 0.14245 0.92519 0.62046 0.0
H324 H 0.21132 0.90763 0.62936 0.0
H325 H 0.14674 0.95633 0.58909 0.0
H326 H 0.1974 0.99813 0.62493 0.0
H327 H 0.18415 0.83449 0.55534 0.0
H328 H 0.13448 0.91883 0.66067 0.0
H329 H 0.20465 0.90019 0.67043 0.0
C330 C 0.41006 0.91035 0.84455 0.0
C331 C 0.43333 0.90855 0.84767 0.0
N332 N 0.43922 0.91692 0.8691 0.0
N333 N 0.40128 0.91956 0.86403 0.0
C334 C 0.41957 0.92363 0.87861 0.0
H335 H 0.39994 0.90391 0.82959 0.0
Co336 Co 0.36992 0.92008 0.86981 0.0
C337 C 0.38062 0.93582 0.92427 0.0
O338 O 0.38899 0.95723 0.92909 0.0
N339 N 0.33809 0.92059 0.87586 0.0
C340 C 0.30517 0.93145 0.8907 0.0
C341 C 0.32851 0.93654 0.8898 0.0
C342 C 0.32005 0.90628 0.86811 0.0
N343 N 0.29987 0.91227 0.87712 0.0
O344 O 0.36958 0.95182 0.85835 0.0
H345 H 0.33792 0.95092 0.89895 0.0
H346 H 0.32139 0.89185 0.85584 0.0
O347 O 0.37642 0.92961 0.90294 0.0
C348 C 0.36302 0.94721 0.83727 0.0
O349 O 0.35937 0.92514 0.83073 0.0
N350 N 0.36971 0.88879 0.87644 0.0
C351 C 0.36072 0.84139 0.88133 0.0
C352 C 0.37251 0.85499 0.89895 0.0
C353 C 0.37761 0.87873 0.89571 0.0
C354 C 0.36158 0.87522 0.85801 0.0
C355 C 0.35663 0.8515 0.86013 0.0
H356 H 0.38765 0.88888 0.9086 0.0
H357 H 0.35771 0.88309 0.84185 0.0
H358 H 0.41846 0.92965 0.89643 0.0
H359 H 0.44485 0.90067 0.83556 0.0
H360 H 0.29316 0.9408 0.90107 0.0
H361 H 0.37709 0.84769 0.91526 0.0
H362 H 0.34904 0.84137 0.8455 0.0
C363 C 0.3441 0.07428 0.10344 0.0
C364 C 0.34573 0.05046 0.104 0.0
N365 N 0.36814 0.04613 0.10475 0.0
N366 N 0.3654 0.08484 0.10333 0.0
C367 C 0.37972 0.06715 0.1043 0.0
H368 H 0.32835 0.08325 0.10251 0.0
Co369 Co 0.37183 0.11677 0.10009 0.0
C370 C 0.4228 0.12368 0.10198 0.0
O371 O 0.42015 0.14395 0.11256 0.0
N372 N 0.37802 0.14912 0.09593 0.0
C373 C 0.39174 0.18152 0.07939 0.0
C374 C 0.3875 0.15778 0.07654 0.0
C375 C 0.37619 0.16824 0.11001 0.0
N376 N 0.38485 0.18793 0.10061 0.0
O377 O 0.36347 0.11348 0.06706 0.0
H378 H 0.39231 0.14732 0.06167 0.0
H379 H 0.3694 0.16815 0.12714 0.0
O380 O 0.40498 0.11117 0.09463 0.0
C381 C 0.34251 0.11845 0.06405 0.0
O382 O 0.3305 0.12338 0.08245 0.0
N383 N 0.37711 0.12009 0.13285 0.0
C384 C 0.38369 0.13333 0.17959 0.0
C385 C 0.39899 0.11888 0.1684 0.0
C386 C 0.39508 0.11199 0.14508 0.0
C387 C 0.3601 0.13042 0.14463 0.0
C388 C 0.36345 0.13813 0.16774 0.0
H389 H 0.40683 0.10059 0.1369 0.0
H390 H 0.34471 0.13469 0.1354 0.0
H391 H 0.39826 0.06937 0.10375 0.0
H392 H 0.33162 0.03729 0.10338 0.0
H393 H 0.40055 0.19287 0.06739 0.0
H394 H 0.41425 0.1137 0.17728 0.0
H395 H 0.3506 0.14825 0.17609 0.0
C396 C 0.15249 0.93855 0.17711 0.0
C397 C 0.17541 0.94461 0.17478 0.0
N398 N 0.18756 0.93033 0.18752 0.0
N399 N 0.14992 0.92009 0.19082 0.0
C400 C 0.17156 0.91648 0.19806 0.0
H401 H 0.13856 0.94621 0.16814 0.0
Co402 Co 0.12097 0.90444 0.19438 0.0
C403 C 0.15055 0.85896 0.19243 0.0
O404 O 0.17127 0.86834 0.19003 0.0
N405 N 0.09129 0.88942 0.19773 0.0
C406 C 0.06226 0.86244 0.19459 0.0
C407 C 0.08548 0.86629 0.19833 0.0
C408 C 0.07093 0.89918 0.19471 0.0
N409 N 0.05301 0.88315 0.19176 0.0
O410 O 0.12339 0.91163 0.22754 0.0
H411 H 0.09726 0.85258 0.19969 0.0
H412 H 0.06959 0.9177 0.19318 0.0
O413 O 0.13347 0.87205 0.1945 0.0
C414 C 0.11469 0.93171 0.22935 0.0
O415 O 0.10567 0.94004 0.21067 0.0
N416 N 0.11784 0.90125 0.16227 0.0
C417 C 0.11278 0.90179 0.11454 0.0
C418 C 0.13059 0.89009 0.1246 0.0
C419 C 0.13294 0.89019 0.14851 0.0
C420 C 0.10169 0.91433 0.15265 0.0
C421 C 0.09846 0.91443 0.12881 0.0
H422 H 0.14756 0.88234 0.15567 0.0
H423 H 0.09172 0.92546 0.16339 0.0
H424 H 0.17566 0.90384 0.21062 0.0
H425 H 0.18255 0.95722 0.16296 0.0
H426 H 0.05342 0.84539 0.19235 0.0
H427 H 0.14279 0.88112 0.11409 0.0
H428 H 0.08481 0.92415 0.12171 0.0
C429 C 0.37848 0.84076 0.43572 0.0
C430 C 0.37589 0.8171 0.43006 0.0
N431 N 0.36447 0.81414 0.40963 0.0
N432 N 0.36925 0.8528 0.41863 0.0
C433 C 0.35948 0.83595 0.40394 0.0
H434 H 0.38848 0.84872 0.45013 0.0
Co435 Co 0.37302 0.88564 0.41406 0.0
C436 C 0.37559 0.86745 0.36359 0.0
O437 O 0.38926 0.85132 0.36929 0.0
N438 N 0.37549 0.91837 0.40899 0.0
C439 C 0.38492 0.95046 0.39005 0.0
C440 C 0.38255 0.92677 0.38861 0.0
C441 C 0.37387 0.93789 0.42288 0.0
N442 N 0.38011 0.95769 0.4117 0.0
O443 O 0.34002 0.88847 0.42072 0.0
H444 H 0.38843 0.91644 0.37426 0.0
H445 H 0.36993 0.93745 0.4411 0.0
O446 O 0.36712 0.88065 0.3794 0.0
C447 C 0.33494 0.88708 0.44221 0.0
O448 O 0.35129 0.88237 0.45689 0.0
N449 N 0.40674 0.884 0.41016 0.0
C450 C 0.4527 0.8874 0.39501 0.0
C451 C 0.44046 0.86562 0.39618 0.0
C452 C 0.41784 0.86427 0.40425 0.0
C453 C 0.42041 0.90403 0.41436 0.0
C454 C 0.44267 0.90653 0.40579 0.0
H455 H 0.40926 0.84718 0.40436 0.0
H456 H 0.41412 0.91892 0.42354 0.0
H457 H 0.35004 0.83954 0.3884 0.0
H458 H 0.38386 0.80343 0.43913 0.0
H459 H 0.39109 0.96147 0.37637 0.0
H460 H 0.4479 0.84962 0.39048 0.0
H461 H 0.45126 0.92373 0.40712 0.0
C462 C 0.41154 0.10114 0.71321 0.0
C463 C 0.43503 0.10403 0.71215 0.0
N464 N 0.44203 0.09258 0.69296 0.0
N465 N 0.40377 0.08781 0.69482 0.0
C466 C 0.42281 0.08083 0.68448 0.0
H467 H 0.40074 0.11092 0.72456 0.0
Co468 Co 0.37393 0.08785 0.68264 0.0
C469 C 0.39963 0.08961 0.63351 0.0
O470 O 0.42071 0.0966 0.63964 0.0
N471 N 0.34389 0.08824 0.67028 0.0
C472 C 0.31677 0.09851 0.64595 0.0
C473 C 0.33967 0.0999 0.65088 0.0
C474 C 0.32279 0.08037 0.67725 0.0
N475 N 0.30613 0.08624 0.66238 0.0
O476 O 0.37034 0.05456 0.68686 0.0
H477 H 0.35232 0.10993 0.64135 0.0
H478 H 0.31967 0.07097 0.69289 0.0
O479 O 0.38409 0.08599 0.64888 0.0
C480 C 0.36601 0.05445 0.70863 0.0
O481 O 0.36346 0.07453 0.71965 0.0
N482 N 0.37629 0.12023 0.68278 0.0
C483 C 0.37249 0.16807 0.68467 0.0
C484 C 0.39054 0.15831 0.67264 0.0
C485 C 0.3922 0.1342 0.67201 0.0
C486 C 0.36046 0.12967 0.69682 0.0
C487 C 0.358 0.15355 0.69776 0.0
H488 H 0.40606 0.12697 0.66282 0.0
H489 H 0.34885 0.11839 0.70641 0.0
H490 H 0.42239 0.06977 0.66898 0.0
H491 H 0.44548 0.11715 0.72211 0.0
H492 H 0.30834 0.10676 0.63185 0.0
H493 H 0.40261 0.16908 0.66296 0.0
H494 H 0.34381 0.1602 0.70733 0.0
C495 C 0.17944 0.208 0.94056 0.0
C496 C 0.17905 0.23079 0.93371 0.0
N497 N 0.19152 0.23297 0.91435 0.0
N498 N 0.19202 0.19579 0.92556 0.0
C499 C 0.19982 0.21169 0.9104 0.0
H500 H 0.16919 0.20027 0.95407 0.0
Co501 Co 0.1903 0.16316 0.92107 0.0
C502 C 0.20094 0.16623 0.86652 0.0
O503 O 0.22062 0.17435 0.8583 0.0
N504 N 0.18895 0.13017 0.91589 0.0
C505 C 0.19877 0.09602 0.90059 0.0
C506 C 0.20432 0.11957 0.90245 0.0
C507 C 0.17467 0.11224 0.9227 0.0
N508 N 0.17999 0.09141 0.91325 0.0
O509 O 0.22246 0.16186 0.93093 0.0
H510 H 0.21877 0.12844 0.89427 0.0
H511 H 0.16039 0.11406 0.93406 0.0
O512 O 0.19894 0.16589 0.88854 0.0
C513 C 0.22425 0.1538 0.95117 0.0
O514 O 0.20519 0.14901 0.96239 0.0
N515 N 0.15886 0.16452 0.91357 0.0
C516 C 0.11265 0.15871 0.90135 0.0
C517 C 0.12751 0.17354 0.88888 0.0
C518 C 0.15066 0.17657 0.8956 0.0
C519 C 0.14377 0.15439 0.9285 0.0
C520 C 0.12064 0.15028 0.92223 0.0
H521 H 0.16216 0.18739 0.88548 0.0
H522 H 0.14994 0.14849 0.94487 0.0
H523 H 0.21 0.20731 0.89562 0.0
H524 H 0.16854 0.24399 0.94111 0.0
H525 H 0.20788 0.08328 0.89067 0.0
H526 H 0.1218 0.18135 0.8732 0.0
H527 H 0.1093 0.14014 0.93325 0.0
C528 C 0.88772 0.33901 0.93252 0.0
C529 C 0.88775 0.316 0.92473 0.0
N530 N 0.87235 0.31242 0.90707 0.0
N531 N 0.87249 0.35005 0.91982 0.0
C532 C 0.86287 0.33329 0.90512 0.0
H533 H 0.89942 0.34759 0.94526 0.0
Co534 Co 0.87084 0.3824 0.91792 0.0
C535 C 0.86722 0.39044 0.86716 0.0
O536 O 0.87886 0.41054 0.87111 0.0
N537 N 0.86839 0.41493 0.91617 0.0
C538 C 0.85193 0.44784 0.9082 0.0
C539 C 0.84929 0.42395 0.90746 0.0
C540 C 0.88205 0.43394 0.92292 0.0
N541 N 0.8726 0.45404 0.91785 0.0
O542 O 0.83875 0.38011 0.92995 0.0
H543 H 0.83442 0.41369 0.90055 0.0
H544 H 0.89863 0.4335 0.93119 0.0
O545 O 0.8606 0.37829 0.88447 0.0
C546 C 0.83535 0.39054 0.94958 0.0
O547 O 0.85307 0.40136 0.96046 0.0
N548 N 0.90258 0.38414 0.90799 0.0
C549 C 0.94811 0.38651 0.89172 0.0
C550 C 0.93044 0.37311 0.8799 0.0
C551 C 0.90841 0.37131 0.88882 0.0
C552 C 0.91988 0.39541 0.92107 0.0
C553 C 0.94263 0.39738 0.91299 0.0
H554 H 0.89606 0.35926 0.8801 0.0
H555 H 0.91629 0.40245 0.9381 0.0
H556 H 0.85014 0.33691 0.89227 0.0
H557 H 0.89945 0.3035 0.93071 0.0
H558 H 0.83963 0.45973 0.90212 0.0
H559 H 0.93335 0.36389 0.86366 0.0
H560 H 0.95582 0.4068 0.92358 0.0
C561 C 0.91258 0.59697 0.20738 0.0
C562 C 0.93562 0.59391 0.20464 0.0
N563 N 0.93806 0.5801 0.18562 0.0
N564 N 0.90079 0.58574 0.18969 0.0
C565 C 0.91668 0.57508 0.17722 0.0
H566 H 0.90517 0.60859 0.21996 0.0
Co567 Co 0.87075 0.58969 0.18117 0.0
C568 C 0.8813 0.57648 0.12669 0.0
O569 O 0.8878 0.55531 0.12209 0.0
N570 N 0.83977 0.59388 0.17214 0.0
C571 C 0.80946 0.60976 0.15655 0.0
C572 C 0.83231 0.61291 0.16171 0.0
C573 C 0.82061 0.57928 0.17306 0.0
N574 N 0.80217 0.58871 0.16362 0.0
O575 O 0.86362 0.55769 0.18958 0.0
H576 H 0.84261 0.62836 0.15749 0.0
H577 H 0.82009 0.56213 0.18027 0.0
O578 O 0.87702 0.5824 0.14782 0.0
C579 C 0.85838 0.56056 0.21096 0.0
O580 O 0.85297 0.58153 0.21802 0.0
N581 N 0.87865 0.62096 0.17741 0.0
C582 C 0.88418 0.66894 0.17498 0.0
C583 C 0.89472 0.65441 0.15877 0.0
C584 C 0.89206 0.63027 0.16054 0.0
C585 C 0.87065 0.63477 0.19478 0.0
C586 C 0.87304 0.65892 0.19381 0.0
H587 H 0.90019 0.61922 0.14803 0.0
H588 H 0.86115 0.62691 0.20872 0.0
H589 H 0.91317 0.56613 0.16071 0.0
H590 H 0.9496 0.60329 0.2142 0.0
H591 H 0.79886 0.62202 0.14826 0.0
H592 H 0.90374 0.6615 0.1441 0.0
H593 H 0.8652 0.66961 0.20696 0.0
C594 C 0.69137 0.71325 0.44473 0.0
C595 C 0.69387 0.73659 0.43966 0.0
N596 N 0.70197 0.73828 0.41803 0.0
N597 N 0.69729 0.70023 0.42613 0.0
C598 C 0.70462 0.71608 0.41056 0.0
H599 H 0.68305 0.70621 0.45978 0.0
Co600 Co 0.68762 0.66861 0.42011 0.0
C601 C 0.68072 0.67826 0.36881 0.0
O602 O 0.65943 0.68338 0.37166 0.0
N603 N 0.67809 0.63664 0.41272 0.0
C604 C 0.65974 0.60729 0.39247 0.0
C605 C 0.66419 0.63077 0.39421 0.0
C606 C 0.68153 0.61575 0.42227 0.0
N607 N 0.67064 0.59764 0.40997 0.0
O608 O 0.71942 0.65978 0.42528 0.0
H609 H 0.65622 0.64277 0.38328 0.0
H610 H 0.69157 0.6138 0.43788 0.0
O611 O 0.69304 0.67201 0.38587 0.0
C612 C 0.72218 0.65448 0.44649 0.0
O613 O 0.70439 0.65568 0.4601 0.0
N614 N 0.65576 0.67709 0.41909 0.0
C615 C 0.60888 0.68028 0.41079 0.0
C616 C 0.62433 0.69932 0.40673 0.0
C617 C 0.64774 0.69773 0.41197 0.0
C618 C 0.6403 0.66138 0.42844 0.0
C619 C 0.61682 0.66216 0.42379 0.0
H620 H 0.65938 0.71183 0.40686 0.0
H621 H 0.64613 0.64699 0.43805 0.0
H622 H 0.709 0.71162 0.39294 0.0
H623 H 0.68809 0.75102 0.45017 0.0
H624 H 0.64834 0.59804 0.37984 0.0
H625 H 0.61891 0.71431 0.39771 0.0
H626 H 0.60522 0.648 0.42916 0.0
C627 C 0.90532 0.40013 0.34197 0.0
C628 C 0.92884 0.39966 0.34185 0.0
N629 N 0.93795 0.41594 0.35735 0.0
N630 N 0.89926 0.41647 0.3576 0.0
C631 C 0.91952 0.427 0.36528 0.0
H632 H 0.89335 0.38828 0.33227 0.0
Co633 Co 0.86878 0.42005 0.36724 0.0
C634 C 0.89515 0.42168 0.41575 0.0
O635 O 0.91468 0.41396 0.40875 0.0
N636 N 0.83752 0.42386 0.37665 0.0
C637 C 0.8078 0.43099 0.39922 0.0
C638 C 0.83129 0.4326 0.39751 0.0
C639 C 0.81699 0.41763 0.36579 0.0
N640 N 0.7987 0.42145 0.37933 0.0
O641 O 0.8722 0.45273 0.35988 0.0
H642 H 0.84291 0.43957 0.41108 0.0
H643 H 0.81524 0.41061 0.34824 0.0
O644 O 0.87867 0.4244 0.40115 0.0
C645 C 0.86548 0.45179 0.33858 0.0
O646 O 0.85786 0.43135 0.32965 0.0
N647 N 0.86441 0.38783 0.37049 0.0
C648 C 0.85098 0.34056 0.37222 0.0
C649 C 0.86911 0.35046 0.38636 0.0
C650 C 0.87548 0.37417 0.38528 0.0
C651 C 0.84938 0.37777 0.35436 0.0
C652 C 0.84161 0.35452 0.35551 0.0
H653 H 0.88956 0.38108 0.39594 0.0
H654 H 0.84308 0.38796 0.34061 0.0
H655 H 0.9206 0.44129 0.37804 0.0
H656 H 0.93826 0.38715 0.33198 0.0
H657 H 0.79814 0.43592 0.41429 0.0
H658 H 0.87837 0.34018 0.39828 0.0
H659 H 0.82803 0.34799 0.34365 0.0
C660 C 0.64005 0.57281 0.87048 0.0
C661 C 0.66329 0.57818 0.87292 0.0
N662 N 0.66733 0.60119 0.8696 0.0
N663 N 0.6294 0.59229 0.86555 0.0
C664 C 0.64651 0.60919 0.86477 0.0
H665 H 0.63136 0.55604 0.87346 0.0
Co666 Co 0.59756 0.59474 0.86546 0.0
C667 C 0.59106 0.6457 0.87073 0.0
O668 O 0.57445 0.63996 0.88492 0.0
N669 N 0.56471 0.59679 0.86494 0.0
C670 C 0.52995 0.60312 0.85044 0.0
C671 C 0.55313 0.60362 0.84616 0.0
C672 C 0.54783 0.59242 0.88053 0.0
N673 N 0.52662 0.59613 0.87214 0.0
O674 O 0.59642 0.58549 0.83314 0.0
H675 H 0.56107 0.60903 0.83029 0.0
H676 H 0.55062 0.58674 0.89782 0.0
O677 O 0.60151 0.62941 0.86006 0.0
C678 C 0.59369 0.56316 0.83322 0.0
O679 O 0.59089 0.55328 0.85321 0.0
N680 N 0.59969 0.59988 0.89724 0.0
C681 C 0.60183 0.60244 0.94501 0.0
C682 C 0.61385 0.61933 0.93219 0.0
C683 C 0.61267 0.61764 0.90823 0.0
C684 C 0.59161 0.5813 0.90934 0.0
C685 C 0.59161 0.58256 0.93338 0.0
H686 H 0.6222 0.63067 0.8987 0.0
H687 H 0.58397 0.56591 0.90021 0.0
H688 H 0.64359 0.62739 0.86255 0.0
H689 H 0.67602 0.56616 0.87768 0.0
H690 H 0.51665 0.60818 0.83871 0.0
H691 H 0.6234 0.63415 0.94054 0.0
H692 H 0.5827 0.56869 0.94252 0.0
C693 C 0.89747 0.69778 0.95955 0.0
C694 C 0.89507 0.6949 0.98299 0.0
N695 N 0.89882 0.67257 0.9878 0.0
N696 N 0.90278 0.67743 0.94924 0.0
C697 C 0.90409 0.66257 0.96709 0.0
H698 H 0.89381 0.71327 0.9504 0.0
Co699 Co 0.90119 0.67077 0.91652 0.0
C700 C 0.89117 0.6194 0.92541 0.0
O701 O 0.86883 0.62049 0.92424 0.0
N702 N 0.8997 0.6627 0.88367 0.0
C703 C 0.88924 0.64145 0.85173 0.0
C704 C 0.88809 0.64302 0.87523 0.0
C705 C 0.90733 0.67326 0.86418 0.0
N706 N 0.90128 0.66037 0.84455 0.0
O707 O 0.93431 0.67583 0.91461 0.0
H708 H 0.87791 0.63096 0.8851 0.0
H709 H 0.91674 0.6901 0.86434 0.0
O710 O 0.90458 0.63742 0.92225 0.0
C711 C 0.93954 0.69771 0.91345 0.0
O712 O 0.92287 0.71212 0.91435 0.0
N713 N 0.86825 0.66954 0.9176 0.0
C714 C 0.82038 0.66915 0.91293 0.0
C715 C 0.83063 0.66099 0.93296 0.0
C716 C 0.85463 0.66203 0.93528 0.0
C717 C 0.85839 0.68076 0.89989 0.0
C718 C 0.83464 0.6801 0.89679 0.0
H719 H 0.862 0.65528 0.95068 0.0
H720 H 0.86892 0.68993 0.88754 0.0
H721 H 0.90665 0.64416 0.96482 0.0
H722 H 0.88971 0.70804 0.99533 0.0
H723 H 0.88073 0.62794 0.84057 0.0
H724 H 0.82026 0.65342 0.94649 0.0
H725 H 0.82771 0.68737 0.88134 0.0
C726 C 0.08954 0.1875 0.62749 0.0
C727 C 0.08802 0.18393 0.60387 0.0
N728 N 0.07484 0.16414 0.5991 0.0
N729 N 0.07758 0.16991 0.63749 0.0
C730 C 0.06796 0.15663 0.61986 0.0
H731 H 0.10037 0.20075 0.6368 0.0
Co732 Co 0.07882 0.16299 0.66842 0.0
C733 C 0.08092 0.11073 0.6699 0.0
O734 O 0.09463 0.11544 0.68788 0.0
N735 N 0.07895 0.15661 0.70058 0.0
C736 C 0.06676 0.14122 0.73343 0.0
C737 C 0.06159 0.14412 0.71047 0.0
C738 C 0.09395 0.16199 0.7184 0.0
N739 N 0.08734 0.15234 0.7385 0.0
O740 O 0.04702 0.1725 0.67074 0.0
H741 H 0.04639 0.1368 0.70128 0.0
H742 H 0.10937 0.17288 0.71694 0.0
O743 O 0.07075 0.12773 0.66061 0.0
C744 C 0.04832 0.19461 0.67541 0.0
O745 O 0.06878 0.20484 0.67975 0.0
N746 N 0.11057 0.15683 0.66488 0.0
C747 C 0.15561 0.14394 0.65803 0.0
C748 C 0.13732 0.13401 0.64447 0.0
C749 C 0.11549 0.14142 0.64742 0.0
C750 C 0.12844 0.16921 0.6761 0.0
C751 C 0.15115 0.16249 0.67358 0.0
H752 H 0.10237 0.13423 0.63565 0.0
H753 H 0.12534 0.18462 0.68652 0.0
H754 H 0.05788 0.14051 0.62227 0.0
H755 H 0.09794 0.19373 0.59141 0.0
H756 H 0.05628 0.13109 0.74514 0.0
H757 H 0.13942 0.12008 0.63185 0.0
H758 H 0.16494 0.17187 0.68339 0.0
C759 C 0.56876 0.37429 0.34271 0.0
C760 C 0.57164 0.37566 0.31918 0.0
N761 N 0.58741 0.36059 0.31271 0.0
N762 N 0.58317 0.35892 0.35094 0.0
C763 C 0.59369 0.35033 0.33216 0.0
H764 H 0.55861 0.38545 0.35341 0.0
Co765 Co 0.59176 0.35594 0.38157 0.0
C766 C 0.64326 0.34485 0.36527 0.0
O767 O 0.64392 0.32376 0.35579 0.0
N768 N 0.60041 0.35279 0.41234 0.0
C769 C 0.62083 0.3517 0.44494 0.0
C770 C 0.62186 0.35179 0.42137 0.0
C771 C 0.58659 0.35303 0.43089 0.0
N772 N 0.59871 0.35242 0.45074 0.0
O773 O 0.58238 0.32239 0.37933 0.0
H774 H 0.6376 0.35198 0.41188 0.0
H775 H 0.56824 0.35484 0.42997 0.0
O776 O 0.62404 0.35178 0.37259 0.0
C777 C 0.56138 0.31941 0.38553 0.0
O778 O 0.55024 0.33813 0.39059 0.0
N779 N 0.59863 0.38865 0.38462 0.0
C780 C 0.61219 0.43549 0.3952 0.0
C781 C 0.62109 0.42359 0.37594 0.0
C782 C 0.61369 0.40034 0.37066 0.0
C783 C 0.58783 0.40064 0.40166 0.0
C784 C 0.59453 0.42394 0.40744 0.0
H785 H 0.62111 0.39137 0.35609 0.0
H786 H 0.5743 0.392 0.4113 0.0
H787 H 0.60744 0.33857 0.33293 0.0
H788 H 0.56424 0.38812 0.30807 0.0
H789 H 0.63523 0.35214 0.45702 0.0
H790 H 0.63448 0.43164 0.3656 0.0
H791 H 0.58612 0.43266 0.42159 0.0
C792 C 0.39317 0.81288 0.08943 0.0
C793 C 0.38931 0.81434 0.06587 0.0
N794 N 0.39778 0.83538 0.05898 0.0
N795 N 0.40413 0.83283 0.09766 0.0
C796 C 0.40741 0.84571 0.0785 0.0
H797 H 0.38629 0.79918 0.10018 0.0
Co798 Co 0.40386 0.8444 0.12897 0.0
C799 C 0.42755 0.89284 0.12554 0.0
O800 O 0.4402 0.89167 0.14441 0.0
N801 N 0.40272 0.8581 0.16009 0.0
C802 C 0.39194 0.8863 0.18444 0.0
C803 C 0.39287 0.87888 0.16208 0.0
C804 C 0.40751 0.85328 0.1826 0.0
N805 N 0.40131 0.87057 0.19768 0.0
O806 O 0.43516 0.83367 0.1341 0.0
H807 H 0.38616 0.88841 0.14799 0.0
H808 H 0.41519 0.83759 0.18789 0.0
O809 O 0.41462 0.87518 0.11854 0.0
C810 C 0.43554 0.81467 0.14528 0.0
O811 O 0.41619 0.80612 0.15382 0.0
N812 N 0.37298 0.85149 0.12451 0.0
C813 C 0.3294 0.86802 0.13037 0.0
C814 C 0.34358 0.87601 0.11243 0.0
C815 C 0.36545 0.86762 0.10986 0.0
C816 C 0.35818 0.84087 0.13945 0.0
C817 C 0.33644 0.84918 0.14303 0.0
H818 H 0.37678 0.87539 0.09732 0.0
H819 H 0.36421 0.82755 0.15043 0.0
H820 H 0.41468 0.86336 0.07907 0.0
H821 H 0.37953 0.80141 0.05512 0.0
H822 H 0.38416 0.902 0.19054 0.0
H823 H 0.33848 0.8897 0.10138 0.0
H824 H 0.32621 0.84213 0.1569 0.0
C825 C 0.917 0.32717 0.58962 0.0
C826 C 0.91611 0.33452 0.56713 0.0
N827 N 0.91041 0.35694 0.56755 0.0
N828 N 0.91194 0.34487 0.60432 0.0
C829 C 0.90805 0.36272 0.59023 0.0
H830 H 0.91993 0.30963 0.59461 0.0
Co831 Co 0.90458 0.34425 0.63616 0.0
C832 C 0.91354 0.39544 0.65286 0.0
O833 O 0.90627 0.39198 0.67389 0.0
N834 N 0.89617 0.34364 0.66849 0.0
C835 C 0.87375 0.34151 0.69952 0.0
C836 C 0.87432 0.34017 0.67599 0.0
C837 C 0.90875 0.34637 0.68865 0.0
N838 N 0.89525 0.34547 0.70761 0.0
O839 O 0.93518 0.33409 0.64438 0.0
H840 H 0.85911 0.33687 0.66549 0.0
H841 H 0.92725 0.34948 0.6894 0.0
O842 O 0.91453 0.37802 0.63849 0.0
C843 C 0.93556 0.3117 0.64332 0.0
O844 O 0.91668 0.29945 0.63681 0.0
N845 N 0.87453 0.35079 0.62772 0.0
C846 C 0.82716 0.35073 0.62907 0.0
C847 C 0.84051 0.37187 0.6307 0.0
C848 C 0.86436 0.37155 0.63001 0.0
C849 C 0.86167 0.33072 0.62193 0.0
C850 C 0.83774 0.33016 0.62303 0.0
H851 H 0.87424 0.38776 0.63312 0.0
H852 H 0.87008 0.31451 0.61962 0.0
H853 H 0.90184 0.37917 0.59632 0.0
H854 H 0.9189 0.32396 0.55166 0.0
H855 H 0.85857 0.33973 0.71007 0.0
H856 H 0.8328 0.38818 0.63496 0.0
H857 H 0.82786 0.31357 0.62141 0.0
C858 C 0.39355 0.19603 0.46268 0.0
C859 C 0.39289 0.18858 0.48517 0.0
N860 N 0.39951 0.16641 0.48546 0.0
N861 N 0.40065 0.17881 0.44857 0.0
C862 C 0.4046 0.16129 0.46308 0.0
H863 H 0.38748 0.21228 0.45677 0.0
Co864 Co 0.39692 0.17621 0.41572 0.0
C865 C 0.40658 0.12576 0.4072 0.0
O866 O 0.41996 0.13014 0.38959 0.0
N867 N 0.39239 0.17203 0.38286 0.0
C868 C 0.37663 0.15544 0.35046 0.0
C869 C 0.37556 0.15685 0.37399 0.0
C870 C 0.40367 0.17963 0.36379 0.0
N871 N 0.39435 0.16952 0.34391 0.0
O872 O 0.43035 0.18067 0.41158 0.0
H873 H 0.36352 0.14654 0.38402 0.0
H874 H 0.41886 0.19144 0.36448 0.0
O875 O 0.39726 0.14247 0.41779 0.0
C876 C 0.43672 0.20245 0.41389 0.0
O877 O 0.42108 0.21709 0.41964 0.0
N878 N 0.36489 0.17493 0.41941 0.0
C879 C 0.31777 0.17045 0.41105 0.0
C880 C 0.32849 0.15443 0.42481 0.0
C881 C 0.35219 0.15718 0.42907 0.0
C882 C 0.35432 0.19247 0.4091 0.0
C883 C 0.33071 0.19049 0.40453 0.0
H884 H 0.36045 0.14419 0.43862 0.0
H885 H 0.36459 0.20696 0.40238 0.0
H886 H 0.40969 0.14442 0.45706 0.0
H887 H 0.38677 0.19847 0.49984 0.0
H888 H 0.36554 0.1444 0.33892 0.0
H889 H 0.31912 0.1389 0.43061 0.0
H890 H 0.32297 0.20369 0.39457 0.0
C891 C 0.58774 0.68822 0.12413 0.0
C892 C 0.58385 0.68569 0.10067 0.0
N893 N 0.56893 0.66704 0.09656 0.0
N894 N 0.57551 0.67107 0.13447 0.0
C895 C 0.56323 0.65938 0.11752 0.0
H896 H 0.60045 0.70009 0.13282 0.0
Co897 Co 0.57946 0.66246 0.16419 0.0
C898 C 0.56725 0.60681 0.15165 0.0
O899 O 0.54714 0.59605 0.14683 0.0
N900 N 0.58322 0.65459 0.19525 0.0
C901 C 0.58757 0.63528 0.22751 0.0
C902 C 0.57745 0.63454 0.20583 0.0
C903 C 0.59552 0.6677 0.21143 0.0
N904 N 0.59949 0.65603 0.23087 0.0
O905 O 0.54846 0.67334 0.16985 0.0
H906 H 0.56751 0.61973 0.19812 0.0
H907 H 0.60255 0.6851 0.20832 0.0
O908 O 0.56757 0.62912 0.15634 0.0
C909 C 0.54653 0.69466 0.17681 0.0
O910 O 0.56478 0.70625 0.18587 0.0
N911 N 0.6097 0.65397 0.15696 0.0
C912 C 0.65286 0.63732 0.14812 0.0
C913 C 0.63414 0.6312 0.13321 0.0
C914 C 0.61287 0.63998 0.13777 0.0
C915 C 0.62854 0.6634 0.16895 0.0
C916 C 0.65021 0.65498 0.16517 0.0
H917 H 0.59864 0.63405 0.12655 0.0
H918 H 0.6271 0.67742 0.18153 0.0
H919 H 0.55232 0.64386 0.12022 0.0
H920 H 0.59357 0.6949 0.08765 0.0
H921 H 0.58688 0.62109 0.23934 0.0
H922 H 0.63507 0.61818 0.11932 0.0
H923 H 0.66458 0.66199 0.17583 0.0
C924 C 0.0702 0.8623 0.83861 0.0
C925 C 0.07638 0.86658 0.81617 0.0
N926 N 0.09862 0.86186 0.81383 0.0
N927 N 0.08849 0.85495 0.85016 0.0
C928 C 0.10534 0.85438 0.83449 0.0
H929 H 0.05399 0.8659 0.84646 0.0
Co930 Co 0.09071 0.85232 0.88174 0.0
C931 C 0.1405 0.85567 0.89327 0.0
O932 O 0.13527 0.86831 0.91162 0.0
N933 N 0.09262 0.84882 0.91382 0.0
C934 C 0.103 0.83338 0.94676 0.0
C935 C 0.10241 0.83052 0.92318 0.0
C936 C 0.0864 0.86196 0.93222 0.0
N937 N 0.09308 0.85335 0.95247 0.0
O938 O 0.08125 0.81922 0.87849 0.0
H939 H 0.10979 0.8165 0.91337 0.0
H940 H 0.07735 0.87762 0.93108 0.0
O941 O 0.12432 0.84664 0.87979 0.0
C942 C 0.06031 0.81638 0.88464 0.0
O943 O 0.04932 0.83512 0.89008 0.0
N944 N 0.09762 0.88538 0.88439 0.0
C945 C 0.10729 0.93347 0.89198 0.0
C946 C 0.12221 0.91988 0.87923 0.0
C947 C 0.11665 0.89615 0.87492 0.0
C948 C 0.08133 0.89889 0.89362 0.0
C949 C 0.08607 0.92284 0.89832 0.0
H950 H 0.12812 0.88648 0.86436 0.0
H951 H 0.06474 0.89092 0.89796 0.0
H952 H 0.12272 0.85001 0.8384 0.0
H953 H 0.06592 0.87425 0.80318 0.0
H954 H 0.11122 0.82212 0.95852 0.0
H955 H 0.13847 0.92718 0.87312 0.0
H956 H 0.07328 0.93286 0.90686 0.0
C957 C 0.96094 0.93042 0.67162 0.0
C958 C 0.98442 0.92907 0.67004 0.0
N959 N 0.99072 0.93479 0.64856 0.0
N960 N 0.95249 0.93641 0.65101 0.0
C961 C 0.97112 0.93952 0.63758 0.0
H962 H 0.95047 0.92473 0.68588 0.0
Co963 Co 0.92187 0.93206 0.64138 0.0
C964 C 0.92415 0.93982 0.58918 0.0
O965 O 0.90741 0.95418 0.58925 0.0
N966 N 0.89099 0.92695 0.63135 0.0
C967 C 0.86178 0.9091 0.61138 0.0
C968 C 0.88503 0.91238 0.61307 0.0
C969 C 0.87064 0.93178 0.64096 0.0
N970 N 0.85258 0.92125 0.62886 0.0
O971 O 0.91939 0.96587 0.64389 0.0
H972 H 0.89688 0.90312 0.60246 0.0
H973 H 0.86905 0.94186 0.65695 0.0
O974 O 0.93116 0.93207 0.60837 0.0
C975 C 0.91256 0.97252 0.66393 0.0
O976 O 0.90662 0.95648 0.67871 0.0
N977 N 0.9242 0.89944 0.64139 0.0
C978 C 0.9172 0.85153 0.63386 0.0
C979 C 0.93519 0.86395 0.62296 0.0
C980 C 0.93855 0.88797 0.62713 0.0
C981 C 0.90897 0.88716 0.65474 0.0
C982 C 0.90497 0.86302 0.65104 0.0
H983 H 0.95159 0.89747 0.61763 0.0
H984 H 0.8983 0.89641 0.66667 0.0
H985 H 0.97027 0.94214 0.61919 0.0
H986 H 0.99552 0.92174 0.68271 0.0
H987 H 0.85241 0.89723 0.59916 0.0
H988 H 0.94537 0.85547 0.60998 0.0
H989 H 0.89107 0.85394 0.65994 0.0
C990 C 0.79339 0.06766 0.40536 0.0
C991 C 0.79634 0.0443 0.40831 0.0
N992 N 0.81535 0.04233 0.4216 0.0
N993 N 0.81083 0.08016 0.41627 0.0
C994 C 0.8223 0.0645 0.42783 0.0
H995 H 0.78113 0.07483 0.39377 0.0
Co996 Co 0.8204 0.11124 0.41321 0.0
C997 C 0.86893 0.08964 0.40982 0.0
O998 O 0.8614 0.06877 0.40219 0.0
N999 N 0.82956 0.14278 0.41131 0.0
C1000 C 0.84921 0.17518 0.40162 0.0
C1001 C 0.84941 0.15143 0.40228 0.0
C1002 C 0.8173 0.16168 0.41551 0.0
N1003 N 0.82907 0.18154 0.40995 0.0
O1004 O 0.81693 0.11549 0.44677 0.0
H1005 H 0.86188 0.14106 0.39388 0.0
H1006 H 0.79953 0.16083 0.42066 0.0
O1007 O 0.85459 0.1051 0.41557 0.0
C1008 C 0.79637 0.12012 0.45213 0.0
O1009 O 0.78134 0.12229 0.43532 0.0
N1010 N 0.82184 0.10727 0.3797 0.0
C1011 C 0.83465 0.10667 0.33314 0.0
C1012 C 0.83471 0.08639 0.34595 0.0
C1013 C 0.82842 0.08711 0.3691 0.0
C1014 C 0.81701 0.12545 0.36605 0.0
C1015 C 0.82416 0.12595 0.34303 0.0
H1016 H 0.82943 0.07133 0.3783 0.0
H1017 H 0.80909 0.14056 0.3732 0.0
H1018 H 0.83762 0.06927 0.43809 0.0
H1019 H 0.78687 0.03 0.39904 0.0
H1020 H 0.86175 0.18667 0.39333 0.0
H1021 H 0.84069 0.07028 0.3386 0.0
H1022 H 0.82267 0.14186 0.33378 0.0
C1023 C 0.60558 0.11975 0.17297 0.0
C1024 C 0.58201 0.11625 0.17257 0.0
N1025 N 0.57598 0.09728 0.15884 0.0
N1026 N 0.61461 0.10332 0.15927 0.0
C1027 C 0.59628 0.0891 0.15208 0.0
H1028 H 0.61533 0.13449 0.18118 0.0
Co1029 Co 0.64518 0.10346 0.14881 0.0
C1030 C 0.61705 0.10113 0.10217 0.0
O1031 O 0.5975 0.10774 0.11027 0.0
N1032 N 0.67592 0.10337 0.13804 0.0
C1033 C 0.70501 0.10817 0.11395 0.0
C1034 C 0.68185 0.10432 0.11557 0.0
C1035 C 0.69636 0.10634 0.14975 0.0
N1036 N 0.71442 0.10968 0.1354 0.0
O1037 O 0.64556 0.06977 0.15422 0.0
H1038 H 0.67032 0.10399 0.10081 0.0
H1039 H 0.69776 0.10738 0.16844 0.0
O1040 O 0.63421 0.09877 0.11587 0.0
C1041 C 0.64909 0.06603 0.17572 0.0
O1042 O 0.65092 0.08411 0.19034 0.0
N1043 N 0.6466 0.1368 0.14618 0.0
C1044 C 0.65707 0.18505 0.14198 0.0
C1045 C 0.63829 0.17358 0.12996 0.0
C1046 C 0.63328 0.1496 0.13244 0.0
C1047 C 0.66345 0.14812 0.15968 0.0
C1048 C 0.66939 0.1719 0.15742 0.0
H1049 H 0.61844 0.14179 0.12359 0.0
H1050 H 0.67283 0.13854 0.17202 0.0
H1051 H 0.59773 0.07439 0.14006 0.0
H1052 H 0.57024 0.12823 0.17999 0.0
H1053 H 0.71385 0.11147 0.09798 0.0
H1054 H 0.62731 0.18299 0.11881 0.0
H1055 H 0.68391 0.17961 0.16743 0.0
C1056 C 0.66322 0.92461 0.91604 0.0
C1057 C 0.66028 0.94787 0.91242 0.0
N1058 N 0.63964 0.95316 0.92056 0.0
N1059 N 0.64444 0.91494 0.92621 0.0
C1060 C 0.63046 0.93297 0.92905 0.0
H1061 H 0.67763 0.91499 0.91034 0.0
Co1062 Co 0.63911 0.88199 0.92839 0.0
C1063 C 0.58871 0.87346 0.92478 0.0
O1064 O 0.59199 0.85385 0.91326 0.0
N1065 N 0.63403 0.84815 0.93038 0.0
C1066 C 0.62367 0.81359 0.94514 0.0
C1067 C 0.62696 0.83733 0.94964 0.0
C1068 C 0.63488 0.83008 0.91439 0.0
N1069 N 0.62857 0.80887 0.92283 0.0
O1070 O 0.6454 0.8846 0.96131 0.0
H1071 H 0.62352 0.84616 0.96593 0.0
H1072 H 0.63931 0.83222 0.8966 0.0
O1073 O 0.60609 0.88611 0.93272 0.0
C1074 C 0.66708 0.8839 0.96428 0.0
O1075 O 0.67979 0.8819 0.9458 0.0
N1076 N 0.63579 0.88028 0.89641 0.0
C1077 C 0.63823 0.88021 0.84842 0.0
C1078 C 0.62043 0.891 0.85999 0.0
C1079 C 0.61959 0.89098 0.88403 0.0
C1080 C 0.6544 0.87193 0.88568 0.0
C1081 C 0.65555 0.87084 0.86168 0.0
H1082 H 0.6065 0.90045 0.89259 0.0
H1083 H 0.66815 0.86543 0.89593 0.0
H1084 H 0.61332 0.93111 0.93586 0.0
H1085 H 0.67218 0.95986 0.90395 0.0
H1086 H 0.61729 0.80099 0.95732 0.0
H1087 H 0.60746 0.89982 0.85068 0.0
H1088 H 0.66978 0.86248 0.85377 0.0
C1089 C 0.85915 0.07945 0.82803 0.0
C1090 C 0.83599 0.07613 0.83161 0.0
N1091 N 0.82533 0.09445 0.82339 0.0
N1092 N 0.86327 0.09979 0.81757 0.0
C1093 C 0.84218 0.10719 0.81295 0.0
H1094 H 0.87235 0.06938 0.83544 0.0
Co1095 Co 0.89225 0.1159 0.81962 0.0
C1096 C 0.86266 0.16173 0.82349 0.0
O1097 O 0.84187 0.15383 0.82865 0.0
N1098 N 0.92188 0.13156 0.82192 0.0
C1099 C 0.94928 0.15892 0.83155 0.0
C1100 C 0.92645 0.15459 0.82672 0.0
C1101 C 0.94276 0.12237 0.82348 0.0
N1102 N 0.95978 0.1387 0.82965 0.0
O1103 O 0.89449 0.11364 0.78603 0.0
H1104 H 0.91413 0.16772 0.82812 0.0
H1105 H 0.94514 0.10387 0.82144 0.0
O1106 O 0.87895 0.14775 0.82043 0.0
C1107 C 0.903 0.09408 0.78072 0.0
O1108 O 0.90844 0.08053 0.79753 0.0
N1109 N 0.8912 0.11548 0.85218 0.0
C1110 C 0.89411 0.11553 0.90018 0.0
C1111 C 0.87599 0.12584 0.88918 0.0
C1112 C 0.87459 0.12517 0.86512 0.0
C1113 C 0.9077 0.10347 0.86271 0.0
C1114 C 0.90964 0.10347 0.88679 0.0
H1115 H 0.86 0.13219 0.85714 0.0
H1116 H 0.91963 0.09405 0.85241 0.0
H1117 H 0.83927 0.12253 0.80344 0.0
H1118 H 0.82814 0.06318 0.84269 0.0
H1119 H 0.95703 0.17563 0.83769 0.0
H1120 H 0.86313 0.13448 0.89911 0.0
H1121 H 0.92358 0.09485 0.89482 0.0
C1122 C 0.64102 0.18594 0.57463 0.0
C1123 C 0.64345 0.20942 0.58035 0.0
N1124 N 0.65613 0.21267 0.60009 0.0
N1125 N 0.65167 0.17401 0.59083 0.0
C1126 C 0.66213 0.19087 0.60507 0.0
H1127 H 0.62996 0.17792 0.56102 0.0
Co1128 Co 0.64527 0.14154 0.59514 0.0
C1129 C 0.64305 0.16032 0.64717 0.0
O1130 O 0.63779 0.18169 0.6433 0.0
N1131 N 0.63853 0.10916 0.60021 0.0
C1132 C 0.61966 0.07981 0.61725 0.0
C1133 C 0.62368 0.10333 0.61706 0.0
C1134 C 0.64301 0.08823 0.58994 0.0
N1135 N 0.63142 0.06998 0.60001 0.0
O1136 O 0.67812 0.13638 0.59272 0.0
H1137 H 0.61491 0.11561 0.62781 0.0
H1138 H 0.65376 0.08652 0.57495 0.0
O1139 O 0.64654 0.14586 0.63019 0.0
C1140 C 0.68345 0.13698 0.57125 0.0
O1141 O 0.66721 0.1409 0.55614 0.0
N1142 N 0.61305 0.14567 0.59381 0.0
C1143 C 0.56524 0.14291 0.59554 0.0
C1144 C 0.57822 0.16126 0.60711 0.0
C1145 C 0.60207 0.16251 0.60567 0.0
C1146 C 0.60053 0.13004 0.57949 0.0
C1147 C 0.57658 0.12785 0.58063 0.0
H1148 H 0.61144 0.17706 0.61402 0.0
H1149 H 0.60921 0.11799 0.56834 0.0
H1150 H 0.67231 0.18702 0.62007 0.0
H1151 H 0.63431 0.22266 0.57186 0.0
H1152 H 0.6085 0.07084 0.62924 0.0
H1153 H 0.57023 0.17387 0.61827 0.0
H1154 H 0.56716 0.11398 0.57066 0.0
C1155 C 0.72298 0.94907 0.32915 0.0
C1156 C 0.7452 0.94205 0.32936 0.0
N1157 N 0.74458 0.91914 0.32343 0.0
N1158 N 0.70834 0.93052 0.3237 0.0
C1159 C 0.72216 0.91268 0.31973 0.0
H1160 H 0.71765 0.96589 0.33535 0.0
Co1161 Co 0.67743 0.92949 0.3324 0.0
C1162 C 0.66221 0.87798 0.33733 0.0
O1163 O 0.64201 0.88297 0.34509 0.0
N1164 N 0.64547 0.92909 0.34221 0.0
C1165 C 0.61534 0.92889 0.36576 0.0
C1166 C 0.63856 0.92936 0.36456 0.0
C1167 C 0.62505 0.92737 0.33011 0.0
N1168 N 0.60659 0.9275 0.34425 0.0
O1169 O 0.66835 0.93314 0.29985 0.0
H1170 H 0.64893 0.92735 0.3797 0.0
H1171 H 0.62367 0.92525 0.31147 0.0
O1172 O 0.67586 0.89432 0.32968 0.0
C1173 C 0.66262 0.95361 0.29465 0.0
O1174 O 0.66011 0.9691 0.31153 0.0
N1175 N 0.68808 0.92861 0.36333 0.0
C1176 C 0.69286 0.92533 0.4107 0.0
C1177 C 0.70106 0.90804 0.3957 0.0
C1178 C 0.69811 0.90982 0.37198 0.0
C1179 C 0.68653 0.94827 0.37711 0.0
C1180 C 0.68781 0.94674 0.40122 0.0
H1181 H 0.703 0.89554 0.36086 0.0
H1182 H 0.68068 0.96397 0.36969 0.0
H1183 H 0.71596 0.89478 0.31679 0.0
H1184 H 0.76039 0.95244 0.33534 0.0
H1185 H 0.60546 0.9276 0.38145 0.0
H1186 H 0.70767 0.89223 0.40214 0.0
H1187 H 0.68241 0.96121 0.41189 0.0
C1188 C 0.82116 0.83188 0.08317 0.0
C1189 C 0.82586 0.80876 0.08389 0.0
N1190 N 0.82396 0.80221 0.10593 0.0
N1191 N 0.81669 0.83979 0.10473 0.0
C1192 C 0.81758 0.82111 0.11804 0.0
H1193 H 0.82373 0.84288 0.06852 0.0
Co1194 Co 0.81858 0.87104 0.11295 0.0
C1195 C 0.82689 0.87511 0.16401 0.0
O1196 O 0.84113 0.893 0.15979 0.0
N1197 N 0.81974 0.90329 0.12018 0.0
C1198 C 0.81199 0.93807 0.13553 0.0
C1199 C 0.80602 0.91447 0.13503 0.0
C1200 C 0.83277 0.92064 0.11087 0.0
N1201 N 0.82883 0.94175 0.1202 0.0
O1202 O 0.78575 0.8719 0.10761 0.0
H1203 H 0.79282 0.9059 0.14524 0.0
H1204 H 0.84508 0.91828 0.09752 0.0
O1205 O 0.8155 0.86431 0.14712 0.0
C1206 C 0.78385 0.87862 0.08686 0.0
O1207 O 0.80292 0.88367 0.07573 0.0
N1208 N 0.85128 0.86971 0.11538 0.0
C1209 C 0.89895 0.87265 0.12113 0.0
C1210 C 0.88513 0.8584 0.1351 0.0
C1211 C 0.86149 0.85656 0.13134 0.0
C1212 C 0.8647 0.87979 0.0989 0.0
C1213 C 0.88862 0.88242 0.10196 0.0
H1214 H 0.85145 0.84495 0.14174 0.0
H1215 H 0.85686 0.88625 0.08355 0.0
H1216 H 0.8172 0.82209 0.13675 0.0
H1217 H 0.8331 0.79853 0.07001 0.0
H1218 H 0.80466 0.95141 0.14633 0.0
H1219 H 0.89224 0.84949 0.14949 0.0
H1220 H 0.89883 0.89216 0.08967 0.0
C1221 C 0.13177 0.6851 0.07632 0.0
C1222 C 0.13389 0.70854 0.08262 0.0
N1223 N 0.15027 0.71206 0.09936 0.0
N1224 N 0.14641 0.67344 0.0892 0.0
C1225 C 0.15862 0.69054 0.10164 0.0
H1226 H 0.11861 0.67687 0.06486 0.0
Co1227 Co 0.14387 0.64077 0.09482 0.0
C1228 C 0.14035 0.66224 0.14551 0.0
O1229 O 0.13541 0.68337 0.14006 0.0
N1230 N 0.14066 0.60792 0.10133 0.0
C1231 C 0.12478 0.57779 0.12004 0.0
C1232 C 0.12606 0.60138 0.11823 0.0
C1233 C 0.14763 0.58712 0.09255 0.0
N1234 N 0.13829 0.5686 0.10401 0.0
O1235 O 0.17707 0.63997 0.09344 0.0
H1236 H 0.11568 0.61301 0.12803 0.0
H1237 H 0.15896 0.58545 0.07802 0.0
O1238 O 0.14401 0.64676 0.12955 0.0
C1239 C 0.18199 0.63253 0.07304 0.0
O1240 O 0.16501 0.62624 0.05854 0.0
N1241 N 0.11174 0.64056 0.09261 0.0
C1242 C 0.06584 0.62545 0.09255 0.0
C1243 C 0.07406 0.64405 0.1074 0.0
C1244 C 0.09722 0.65148 0.10708 0.0
C1245 C 0.10321 0.62533 0.07552 0.0
C1246 C 0.08028 0.61704 0.07548 0.0
H1247 H 0.10344 0.66483 0.11936 0.0
H1248 H 0.11484 0.61761 0.06344 0.0
H1249 H 0.17132 0.68657 0.11447 0.0
H1250 H 0.12253 0.72141 0.07676 0.0
H1251 H 0.11388 0.56794 0.13168 0.0
H1252 H 0.06329 0.65128 0.12063 0.0
H1253 H 0.07437 0.60299 0.06344 0.0
C1254 C 0.2199 0.4534 0.84369 0.0
C1255 C 0.24293 0.44958 0.8428 0.0
N1256 N 0.24586 0.43181 0.8275 0.0
N1257 N 0.20805 0.43752 0.82966 0.0
C1258 C 0.22457 0.42618 0.81847 0.0
H1259 H 0.21211 0.4648 0.85622 0.0
Co1260 Co 0.17678 0.42801 0.83494 0.0
C1261 C 0.19631 0.37732 0.83144 0.0
O1262 O 0.21857 0.38202 0.83222 0.0
N1263 N 0.14546 0.41825 0.84115 0.0
C1264 C 0.11811 0.39749 0.85938 0.0
C1265 C 0.14114 0.40111 0.8563 0.0
C1266 C 0.12411 0.42462 0.83503 0.0
N1267 N 0.10727 0.41223 0.84618 0.0
O1268 O 0.16966 0.4308 0.80189 0.0
H1269 H 0.15404 0.39174 0.86499 0.0
H1270 H 0.12093 0.43775 0.82259 0.0
O1271 O 0.18224 0.39374 0.83216 0.0
C1272 C 0.1655 0.4523 0.79946 0.0
O1273 O 0.1659 0.4658 0.81834 0.0
N1274 N 0.1832 0.42832 0.86686 0.0
C1275 C 0.18432 0.42658 0.91477 0.0
C1276 C 0.19874 0.41308 0.90126 0.0
C1277 C 0.19823 0.41458 0.87732 0.0
C1278 C 0.17117 0.44361 0.87972 0.0
C1279 C 0.17145 0.44303 0.90379 0.0
H1280 H 0.20938 0.40412 0.86734 0.0
H1281 H 0.16023 0.45534 0.87116 0.0
H1282 H 0.22082 0.41208 0.80584 0.0
H1283 H 0.25611 0.45739 0.85452 0.0
H1284 H 0.10977 0.38453 0.87013 0.0
H1285 H 0.20925 0.4003 0.90879 0.0
H1286 H 0.16073 0.45446 0.91355 0.0
C1287 C 0.30974 0.31974 0.58516 0.0
C1288 C 0.30441 0.29706 0.59076 0.0
N1289 N 0.30263 0.29633 0.61396 0.0
N1290 N 0.31122 0.33319 0.6047 0.0
C1291 C 0.30561 0.31873 0.62174 0.0
H1292 H 0.31402 0.32578 0.56817 0.0
Co1293 Co 0.32193 0.36385 0.60514 0.0
C1294 C 0.33763 0.3751 0.65398 0.0
O1295 O 0.35528 0.3866 0.64491 0.0
N1296 N 0.33156 0.39543 0.60311 0.0
C1297 C 0.34236 0.42793 0.58542 0.0
C1298 C 0.33808 0.40435 0.58278 0.0
C1299 C 0.33026 0.41446 0.61745 0.0
N1300 N 0.33761 0.43433 0.60734 0.0
O1301 O 0.29033 0.37245 0.60116 0.0
H1302 H 0.33935 0.39439 0.5667 0.0
H1303 H 0.32375 0.41395 0.63484 0.0
O1304 O 0.3213 0.36619 0.64041 0.0
C1305 C 0.28519 0.37399 0.5797 0.0
O1306 O 0.30107 0.37016 0.56439 0.0
N1307 N 0.35324 0.35426 0.60762 0.0
C1308 C 0.39941 0.34798 0.61781 0.0
C1309 C 0.38214 0.33628 0.63008 0.0
C1310 C 0.35919 0.3394 0.62453 0.0
C1311 C 0.36996 0.36253 0.5932 0.0
C1312 C 0.39321 0.36026 0.59841 0.0
H1313 H 0.34649 0.33152 0.63556 0.0
H1314 H 0.36573 0.37163 0.578 0.0
H1315 H 0.30662 0.32403 0.6398 0.0
H1316 H 0.30426 0.28204 0.57889 0.0
H1317 H 0.34913 0.43933 0.57232 0.0
H1318 H 0.38627 0.32635 0.64503 0.0
H1319 H 0.40623 0.36878 0.58792 0.0
C1320 C 0.10444 0.61424 0.67069 0.0
C1321 C 0.081 0.6148 0.66788 0.0
N1322 N 0.07465 0.60241 0.64839 0.0
N1323 N 0.11291 0.60186 0.65287 0.0
C1324 C 0.09425 0.59455 0.63972 0.0
H1325 H 0.11483 0.6232 0.68428 0.0
Co1326 Co 0.14426 0.59979 0.64758 0.0
C1327 C 0.13232 0.58343 0.59544 0.0
O1328 O 0.12423 0.56159 0.59583 0.0
N1329 N 0.1759 0.59734 0.64209 0.0
C1330 C 0.20768 0.58524 0.62579 0.0
C1331 C 0.18418 0.58193 0.6266 0.0
C1332 C 0.19495 0.60923 0.6511 0.0
N1333 N 0.21442 0.60254 0.64115 0.0
O1334 O 0.14191 0.56648 0.65487 0.0
H1335 H 0.17378 0.56911 0.61631 0.0
H1336 H 0.19485 0.62291 0.66432 0.0
O1337 O 0.13843 0.59448 0.61432 0.0
C1338 C 0.14577 0.56551 0.67671 0.0
O1339 O 0.1497 0.58547 0.68837 0.0
N1340 N 0.1468 0.63267 0.64313 0.0
C1341 C 0.15397 0.68147 0.63943 0.0
C1342 C 0.14058 0.66784 0.62289 0.0
C1343 C 0.13703 0.64361 0.62518 0.0
C1344 C 0.1575 0.64584 0.66061 0.0
C1345 C 0.16209 0.66991 0.65874 0.0
H1346 H 0.12602 0.63386 0.61268 0.0
H1347 H 0.16283 0.63754 0.67612 0.0
H1348 H 0.09499 0.58478 0.62348 0.0
H1349 H 0.06956 0.62421 0.6789 0.0
H1350 H 0.21891 0.57577 0.61461 0.0
H1351 H 0.13253 0.6757 0.60837 0.0
H1352 H 0.17222 0.67906 0.67238 0.0
C1353 C 0.46223 0.42696 0.17169 0.0
C1354 C 0.48555 0.43156 0.17038 0.0
N1355 N 0.48981 0.44439 0.15162 0.0
N1356 N 0.45194 0.43655 0.15365 0.0
C1357 C 0.46891 0.44842 0.14286 0.0
H1358 H 0.45357 0.41551 0.18367 0.0
Co1359 Co 0.4221 0.42942 0.14334 0.0
C1360 C 0.44525 0.42747 0.09294 0.0
O1361 O 0.4673 0.42764 0.09793 0.0
N1362 N 0.39195 0.42157 0.13301 0.0
C1363 C 0.36462 0.40112 0.11266 0.0
C1364 C 0.38764 0.40482 0.11623 0.0
C1365 C 0.37086 0.42734 0.13994 0.0
N1366 N 0.35398 0.41524 0.12747 0.0
O1367 O 0.41674 0.46265 0.14473 0.0
H1368 H 0.40048 0.39496 0.10768 0.0
H1369 H 0.3679 0.4396 0.15408 0.0
O1370 O 0.43057 0.4286 0.10937 0.0
C1371 C 0.41225 0.46597 0.1662 0.0
O1372 O 0.40978 0.44738 0.17881 0.0
N1373 N 0.42673 0.39768 0.14545 0.0
C1374 C 0.42505 0.34962 0.14833 0.0
C1375 C 0.4404 0.36085 0.13333 0.0
C1376 C 0.4413 0.38511 0.13246 0.0
C1377 C 0.41337 0.38718 0.16171 0.0
C1378 C 0.41217 0.36302 0.16339 0.0
H1379 H 0.45316 0.39354 0.12094 0.0
H1380 H 0.40259 0.39757 0.1725 0.0
H1381 H 0.46607 0.45803 0.12747 0.0
H1382 H 0.49837 0.42418 0.18117 0.0
H1383 H 0.35626 0.38804 0.10091 0.0
H1384 H 0.451 0.3509 0.12187 0.0
H1385 H 0.40023 0.35485 0.17526 0.0
C1386 C 0.70629 0.46156 0.12426 0.0
C1387 C 0.70172 0.48397 0.13109 0.0
N1388 N 0.68419 0.49103 0.11812 0.0
N1389 N 0.69146 0.45348 0.10733 0.0
C1390 C 0.67933 0.47262 0.10288 0.0
H1391 H 0.7189 0.45141 0.13239 0.0
Co1392 Co 0.6868 0.42004 0.0995 0.0
C1393 C 0.6385 0.43609 0.09747 0.0
O1394 O 0.64177 0.44828 0.11702 0.0
N1395 N 0.68222 0.38765 0.09221 0.0
C1396 C 0.66687 0.35392 0.07719 0.0
C1397 C 0.66844 0.37779 0.07519 0.0
C1398 C 0.68923 0.36926 0.10399 0.0
N1399 N 0.67984 0.34841 0.09548 0.0
O1400 O 0.69742 0.42443 0.0678 0.0
H1401 H 0.65927 0.3874 0.06263 0.0
H1402 H 0.70051 0.37126 0.11899 0.0
O1403 O 0.65447 0.42393 0.0894 0.0
C1404 C 0.71849 0.42004 0.06464 0.0
O1405 O 0.73131 0.41624 0.08282 0.0
N1406 N 0.67876 0.41375 0.13073 0.0
C1407 C 0.67143 0.39798 0.17537 0.0
C1408 C 0.65301 0.40032 0.16018 0.0
C1409 C 0.65718 0.40703 0.13769 0.0
C1410 C 0.69702 0.41102 0.14533 0.0
C1411 C 0.69377 0.40304 0.16778 0.0
H1412 H 0.64321 0.40489 0.12567 0.0
H1413 H 0.71432 0.41338 0.139 0.0
H1414 H 0.66598 0.47259 0.08972 0.0
H1415 H 0.70975 0.49349 0.14582 0.0
H1416 H 0.65601 0.34178 0.06655 0.0
H1417 H 0.63559 0.39542 0.16519 0.0
H1418 H 0.70848 0.40017 0.17874 0.0
C1419 C 0.84502 0.57997 0.61858 0.0
C1420 C 0.84802 0.5569 0.62304 0.0
N1421 N 0.86721 0.55045 0.61244 0.0
N1422 N 0.86232 0.58819 0.60537 0.0
C1423 C 0.8754 0.56968 0.60163 0.0
H1424 H 0.83157 0.59038 0.62528 0.0
Co1425 Co 0.86753 0.61959 0.59789 0.0
C1426 C 0.9181 0.62777 0.59766 0.0
O1427 O 0.91493 0.64858 0.60687 0.0
N1428 N 0.87275 0.65111 0.58948 0.0
C1429 C 0.88459 0.67951 0.5664 0.0
C1430 C 0.88229 0.65592 0.56887 0.0
C1431 C 0.86933 0.6725 0.59922 0.0
N1432 N 0.87644 0.68999 0.58546 0.0
O1433 O 0.85786 0.6122 0.56546 0.0
H1434 H 0.888 0.64299 0.55653 0.0
H1435 H 0.86183 0.67555 0.61589 0.0
O1436 O 0.9005 0.61408 0.59202 0.0
C1437 C 0.83622 0.6138 0.56205 0.0
O1438 O 0.82327 0.61617 0.5803 0.0
N1439 N 0.8742 0.62711 0.62998 0.0
C1440 C 0.8804 0.64047 0.67711 0.0
C1441 C 0.89558 0.62579 0.6659 0.0
C1442 C 0.89186 0.61886 0.64256 0.0
C1443 C 0.85804 0.63929 0.64118 0.0
C1444 C 0.86103 0.64662 0.66447 0.0
H1445 H 0.90323 0.60678 0.63475 0.0
H1446 H 0.84275 0.64365 0.63185 0.0
H1447 H 0.89122 0.57051 0.59209 0.0
H1448 H 0.83712 0.54585 0.63364 0.0
H1449 H 0.89237 0.68831 0.55196 0.0
H1450 H 0.91043 0.61988 0.67494 0.0
H1451 H 0.84809 0.65681 0.67253 0.0
C1452 C 0.66703 0.4321 0.69565 0.0
C1453 C 0.68941 0.42653 0.69853 0.0
N1454 N 0.68982 0.40316 0.69939 0.0
N1455 N 0.6533 0.41232 0.69457 0.0
C1456 C 0.6677 0.39502 0.6976 0.0
H1457 H 0.66162 0.4493 0.69213 0.0
Co1458 Co 0.62267 0.41079 0.68446 0.0
C1459 C 0.61252 0.3601 0.67262 0.0
O1460 O 0.60011 0.36736 0.65546 0.0
N1461 N 0.59099 0.4104 0.67487 0.0
C1462 C 0.55805 0.42255 0.66103 0.0
C1463 C 0.58106 0.42788 0.66412 0.0
C1464 C 0.57287 0.39544 0.6797 0.0
N1465 N 0.55283 0.40197 0.67063 0.0
O1466 O 0.61297 0.41933 0.7155 0.0
H1467 H 0.5895 0.44424 0.65954 0.0
H1468 H 0.57429 0.38001 0.6897 0.0
O1469 O 0.62076 0.37534 0.68803 0.0
C1470 C 0.61233 0.44145 0.71293 0.0
O1471 O 0.61947 0.44985 0.69328 0.0
N1472 N 0.6327 0.40659 0.65353 0.0
C1473 C 0.6334 0.39713 0.60649 0.0
C1474 C 0.64546 0.38346 0.6216 0.0
C1475 C 0.64507 0.38867 0.64529 0.0
C1476 C 0.62729 0.42347 0.63877 0.0
C1477 C 0.62641 0.41869 0.61499 0.0
H1478 H 0.6527 0.37685 0.65677 0.0
H1479 H 0.62228 0.44011 0.64538 0.0
H1480 H 0.6626 0.37662 0.69556 0.0
H1481 H 0.70442 0.43843 0.69714 0.0
H1482 H 0.54619 0.433 0.65203 0.0
H1483 H 0.65312 0.36771 0.61551 0.0
H1484 H 0.61852 0.43084 0.60389 0.0
C1485 C 0.29087 0.56916 0.897 0.0
C1486 C 0.29388 0.54677 0.88877 0.0
N1487 N 0.31427 0.54031 0.89685 0.0
N1488 N 0.30944 0.57676 0.90987 0.0
C1489 C 0.32279 0.55842 0.91042 0.0
H1490 H 0.27763 0.58023 0.89138 0.0
Co1491 Co 0.3182 0.608 0.91477 0.0
C1492 C 0.36915 0.61185 0.91525 0.0
O1493 O 0.36741 0.63012 0.9024 0.0
N1494 N 0.32644 0.63988 0.92058 0.0
C1495 C 0.34143 0.67162 0.93984 0.0
C1496 C 0.33855 0.64776 0.93971 0.0
C1497 C 0.32145 0.65952 0.90984 0.0
N1498 N 0.33069 0.67894 0.92097 0.0
O1499 O 0.30893 0.60643 0.94692 0.0
H1500 H 0.34501 0.63674 0.95281 0.0
H1501 H 0.3113 0.66 0.89425 0.0
O1502 O 0.35085 0.60085 0.92245 0.0
C1503 C 0.28995 0.61578 0.95091 0.0
O1504 O 0.27876 0.62424 0.93353 0.0
N1505 N 0.32556 0.60925 0.88249 0.0
C1506 C 0.34169 0.61782 0.83849 0.0
C1507 C 0.35046 0.60005 0.85121 0.0
C1508 C 0.34177 0.59565 0.873 0.0
C1509 C 0.31342 0.62258 0.86817 0.0
C1510 C 0.32181 0.62799 0.84624 0.0
H1511 H 0.34955 0.58252 0.88279 0.0
H1512 H 0.29788 0.62999 0.87413 0.0
H1513 H 0.34021 0.55957 0.91725 0.0
H1514 H 0.28334 0.5372 0.87564 0.0
H1515 H 0.35054 0.6827 0.95291 0.0
H1516 H 0.36515 0.59098 0.84517 0.0
H1517 H 0.31383 0.64103 0.83627 0.0
C1518 C 0.16373 0.42296 0.41966 0.0
C1519 C 0.16243 0.44654 0.41689 0.0
N1520 N 0.14144 0.45262 0.42333 0.0
N1521 N 0.14364 0.41391 0.42772 0.0
C1522 C 0.13045 0.43259 0.43016 0.0
H1523 H 0.17788 0.41271 0.41444 0.0
Co1524 Co 0.13676 0.3812 0.42742 0.0
C1525 C 0.08641 0.37484 0.42162 0.0
O1526 O 0.09064 0.35638 0.40865 0.0
N1527 N 0.13057 0.34743 0.42728 0.0
C1528 C 0.1151 0.31327 0.43914 0.0
C1529 C 0.11799 0.33698 0.44393 0.0
C1530 C 0.13593 0.32906 0.41301 0.0
N1531 N 0.1264 0.30825 0.4197 0.0
O1532 O 0.14369 0.38108 0.46043 0.0
H1533 H 0.11068 0.34621 0.45843 0.0
H1534 H 0.1462 0.33057 0.39774 0.0
O1535 O 0.10331 0.38625 0.43232 0.0
C1536 C 0.1654 0.38084 0.46387 0.0
O1537 O 0.17868 0.37983 0.44574 0.0
N1538 N 0.13237 0.38242 0.3952 0.0
C1539 C 0.13016 0.3876 0.34766 0.0
C1540 C 0.11518 0.39902 0.36212 0.0
C1541 C 0.11687 0.3966 0.38582 0.0
C1542 C 0.14861 0.37318 0.38151 0.0
C1543 C 0.14739 0.37489 0.3575 0.0
H1544 H 0.10593 0.40676 0.3965 0.0
H1545 H 0.16285 0.36491 0.38927 0.0
H1546 H 0.11254 0.43125 0.43483 0.0
H1547 H 0.17554 0.45815 0.40964 0.0
H1548 H 0.10548 0.30064 0.44923 0.0
H1549 H 0.10202 0.40949 0.35518 0.0
H1550 H 0.15989 0.36663 0.34678 0.0
C1551 C 0.34856 0.59167 0.31825 0.0
C1552 C 0.32573 0.59617 0.31774 0.0
N1553 N 0.32408 0.6193 0.31575 0.0
N1554 N 0.36135 0.6119 0.31676 0.0
C1555 C 0.34588 0.6284 0.3146 0.0
H1556 H 0.35536 0.57505 0.32187 0.0
Co1557 Co 0.39284 0.61418 0.32339 0.0
C1558 C 0.40006 0.6639 0.34025 0.0
O1559 O 0.41175 0.65628 0.35777 0.0
N1560 N 0.42523 0.61519 0.32945 0.0
C1561 C 0.45912 0.60158 0.33838 0.0
C1562 C 0.43644 0.59576 0.33338 0.0
C1563 C 0.44226 0.63245 0.33029 0.0
N1564 N 0.46288 0.62483 0.33678 0.0
O1565 O 0.39903 0.61095 0.29034 0.0
H1566 H 0.42862 0.57822 0.33315 0.0
H1567 H 0.43975 0.65029 0.32609 0.0
O1568 O 0.39285 0.64946 0.32377 0.0
C1569 C 0.39953 0.58882 0.2867 0.0
O1570 O 0.39551 0.57548 0.30436 0.0
N1571 N 0.38607 0.61428 0.35577 0.0
C1572 C 0.38569 0.62051 0.40348 0.0
C1573 C 0.37109 0.63283 0.38968 0.0
C1574 C 0.37125 0.62918 0.36575 0.0
C1575 C 0.39605 0.59858 0.36935 0.0
C1576 C 0.39669 0.6018 0.3934 0.0
H1577 H 0.36147 0.64043 0.35546 0.0
H1578 H 0.4046 0.5842 0.36175 0.0
H1579 H 0.35038 0.64699 0.31527 0.0
H1580 H 0.3115 0.58379 0.32107 0.0
H1581 H 0.47152 0.58945 0.34364 0.0
H1582 H 0.36145 0.64676 0.39709 0.0
H1583 H 0.40726 0.59108 0.4037 0.0
H1584 H 0.10244 0.37969 0.01245 0.0
H1585 H 0.16122 0.34729 0.04077 0.0
H1586 H 0.18685 0.36874 0.01384 0.0
H1587 H 0.1193 0.37608 0.954 0.0
H1588 H 0.10825 0.40364 0.94677 0.0
H1589 H 0.09561 0.38727 0.96977 0.0
H1590 H 0.10302 0.42354 0.99762 0.0
H1591 H 0.11633 0.43975 0.97473 0.0
H1592 H 0.13182 0.43648 1.00151 0.0
H1593 H 0.20548 0.39273 0.98333 0.0
H1594 H 0.21524 0.4122 0.94715 0.0
H1595 H 0.1435 0.42681 0.93745 0.0
C1596 C 0.1207 0.37715 0.0127 0.0
C1597 C 0.13009 0.3618 0.02809 0.0
C1598 C 0.15398 0.35879 0.02852 0.0
C1599 C 0.16857 0.37113 0.01365 0.0
C1600 C 0.15885 0.38636 0.99863 0.0
C1601 C 0.13543 0.38914 0.99779 0.0
C1602 C 0.12911 0.40499 0.97873 0.0
C1603 C 0.11208 0.39222 0.96128 0.0
C1604 C 0.1195 0.42753 0.98875 0.0
C1605 C 0.15249 0.40987 0.96833 0.0
C1606 C 0.16951 0.39962 0.98053 0.0
C1607 C 0.19231 0.40084 0.97359 0.0
C1608 C 0.19765 0.41181 0.95294 0.0
C1609 C 0.18012 0.42083 0.93921 0.0
C1610 C 0.15746 0.42059 0.94761 0.0
H1611 H 0.90623 0.82063 0.25632 0.0
H1612 H 0.8818 0.87152 0.30562 0.0
H1613 H 0.85129 0.88098 0.27791 0.0
H1614 H 0.89888 0.85217 0.20632 0.0
H1615 H 0.88908 0.82746 0.18791 0.0
H1616 H 0.90727 0.82329 0.21258 0.0
H1617 H 0.87668 0.79282 0.22734 0.0
H1618 H 0.85835 0.79749 0.20276 0.0
H1619 H 0.84766 0.80109 0.23168 0.0
H1620 H 0.82746 0.88906 0.243 0.0
H1621 H 0.81226 0.89504 0.20369 0.0
H1622 H 0.84877 0.83624 0.17767 0.0
C1623 C 0.8941 0.83339 0.26128 0.0
C1624 C 0.89612 0.84527 0.28312 0.0
C1625 C 0.88026 0.86214 0.28905 0.0
C1626 C 0.8629 0.86756 0.27342 0.0
C1627 C 0.86133 0.85572 0.25193 0.0
C1628 C 0.87635 0.83879 0.24588 0.0
C1629 C 0.87157 0.82961 0.22117 0.0
C1630 C 0.89297 0.83338 0.20612 0.0
C1631 C 0.86306 0.80371 0.22072 0.0
C1632 C 0.85242 0.84488 0.21395 0.0
C1633 C 0.84661 0.85962 0.23205 0.0
C1634 C 0.83132 0.8771 0.2289 0.0
C1635 C 0.8225 0.88022 0.20653 0.0
C1636 C 0.8286 0.86576 0.18755 0.0
C1637 C 0.84309 0.84727 0.19166 0.0
H1638 H 0.40977 0.62704 0.54002 0.0
H1639 H 0.43309 0.69912 0.53101 0.0
H1640 H 0.43062 0.69286 0.48867 0.0
H1641 H 0.4383 0.60296 0.48474 0.0
H1642 H 0.41444 0.58195 0.47928 0.0
H1643 H 0.42293 0.59051 0.50862 0.0
H1644 H 0.38136 0.6018 0.51647 0.0
H1645 H 0.37288 0.59406 0.48704 0.0
H1646 H 0.36868 0.62301 0.49873 0.0
H1647 H 0.41812 0.68195 0.44928 0.0
H1648 H 0.40224 0.66463 0.41256 0.0
H1649 H 0.38749 0.59867 0.44533 0.0
C1650 C 0.41542 0.64102 0.52897 0.0
C1651 C 0.42175 0.66352 0.53849 0.0
C1652 C 0.42833 0.6818 0.52379 0.0
C1653 C 0.42696 0.67839 0.49981 0.0
C1654 C 0.41926 0.65647 0.49085 0.0
C1655 C 0.41421 0.63782 0.5048 0.0
C1656 C 0.40445 0.6167 0.49049 0.0
C1657 C 0.42102 0.59685 0.49081 0.0
C1658 C 0.38041 0.60842 0.49868 0.0
C1659 C 0.40336 0.62702 0.46674 0.0
C1660 C 0.41224 0.64991 0.46745 0.0
C1661 C 0.41162 0.66387 0.44833 0.0
C1662 C 0.4022 0.65402 0.42768 0.0
C1663 C 0.39345 0.63046 0.42629 0.0
C1664 C 0.39413 0.61671 0.44603 0.0
H1665 H 0.64471 0.18738 0.68714 0.0
H1666 H 0.63406 0.11534 0.66206 0.0
H1667 H 0.61761 0.1048 0.69952 0.0
H1668 H 0.66311 0.17122 0.74564 0.0
H1669 H 0.65085 0.19625 0.75923 0.0
H1670 H 0.66135 0.19778 0.73015 0.0
H1671 H 0.62156 0.21037 0.71658 0.0
H1672 H 0.61067 0.20807 0.74546 0.0
H1673 H 0.59622 0.19182 0.7217 0.0
H1674 H 0.59831 0.10316 0.73785 0.0
H1675 H 0.58892 0.1068 0.7792 0.0
H1676 H 0.61673 0.17853 0.78199 0.0
C1677 C 0.63923 0.16928 0.6896 0.0
C1678 C 0.63963 0.15238 0.67112 0.0
C1679 C 0.63297 0.12883 0.67537 0.0
C1680 C 0.6236 0.12267 0.69669 0.0
C1681 C 0.62193 0.14012 0.71391 0.0
C1682 C 0.63059 0.16269 0.71103 0.0
C1683 C 0.62845 0.17763 0.73304 0.0
C1684 C 0.65236 0.18622 0.74259 0.0
C1685 C 0.61332 0.19819 0.72893 0.0
C1686 C 0.61673 0.16001 0.74866 0.0
C1687 C 0.61267 0.13866 0.73694 0.0
C1688 C 0.60173 0.11965 0.7473 0.0
C1689 C 0.59619 0.12197 0.77067 0.0
C1690 C 0.60202 0.14291 0.78371 0.0
C1691 C 0.61167 0.1625 0.77234 0.0
H1692 H 0.09013 0.61774 0.46836 0.0
H1693 H 0.12877 0.68388 0.48128 0.0
H1694 H 0.14352 0.66975 0.51821 0.0
H1695 H 0.07264 0.61096 0.52711 0.0
H1696 H 0.0745 0.57969 0.52654 0.0
H1697 H 0.06847 0.59422 0.50024 0.0
H1698 H 0.10331 0.57598 0.48091 0.0
H1699 H 0.10953 0.56147 0.50722 0.0
H1700 H 0.13134 0.58033 0.49448 0.0
H1701 H 0.15483 0.64835 0.55306 0.0
H1702 H 0.15778 0.62346 0.58662 0.0
H1703 H 0.10864 0.57228 0.55399 0.0
C1704 C 0.1018 0.62909 0.479 0.0
C1705 C 0.10838 0.6519 0.47202 0.0
C1706 C 0.12343 0.66645 0.48642 0.0
C1707 C 0.13203 0.65849 0.50731 0.0
C1708 C 0.1252 0.63598 0.51377 0.0
C1709 C 0.11015 0.62157 0.50027 0.0
C1710 C 0.10436 0.59879 0.51217 0.0
C1711 C 0.07845 0.59575 0.51679 0.0
C1712 C 0.11263 0.57791 0.49784 0.0
C1713 C 0.11825 0.60281 0.5346 0.0
C1714 C 0.13053 0.62418 0.5348 0.0
C1715 C 0.14498 0.63177 0.55327 0.0
C1716 C 0.14637 0.61756 0.57239 0.0
C1717 C 0.13282 0.59629 0.57344 0.0
C1718 C 0.11904 0.58855 0.55391 0.0
H1719 H 0.6012 0.87618 0.81836 0.0
H1720 H 0.676 0.88063 0.82002 0.0
H1721 H 0.67603 0.8754 0.77763 0.0
H1722 H 0.59178 0.83489 0.77256 0.0
H1723 H 0.56824 0.84916 0.75974 0.0
H1724 H 0.57395 0.85255 0.79038 0.0
H1725 H 0.5772 0.89761 0.78738 0.0
H1726 H 0.5712 0.8944 0.75675 0.0
H1727 H 0.5969 0.9107 0.76716 0.0
H1728 H 0.66792 0.86888 0.73524 0.0
H1729 H 0.65229 0.86498 0.69538 0.0
H1730 H 0.58305 0.86774 0.72153 0.0
C1731 C 0.61768 0.87651 0.80996 0.0
C1732 C 0.63858 0.87856 0.82277 0.0
C1733 C 0.65968 0.87845 0.81081 0.0
C1734 C 0.65992 0.87569 0.78668 0.0
C1735 C 0.63897 0.87355 0.77474 0.0
C1736 C 0.61828 0.87436 0.78594 0.0
C1737 C 0.59818 0.87266 0.76906 0.0
C1738 C 0.5821 0.85102 0.77318 0.0
C1739 C 0.5851 0.89518 0.77015 0.0
C1740 C 0.6108 0.8702 0.74659 0.0
C1741 C 0.63431 0.87069 0.75025 0.0
C1742 C 0.64955 0.86855 0.73213 0.0
C1743 C 0.64048 0.86614 0.7096 0.0
C1744 C 0.61644 0.86598 0.70546 0.0
C1745 C 0.60148 0.86798 0.72423 0.0
H1746 H 0.45659 0.37632 0.96139 0.0
H1747 H 0.38395 0.35616 0.9648 0.0
H1748 H 0.38317 0.37182 1.00493 0.0
H1749 H 0.4689 0.36167 0.02418 0.0
H1750 H 0.49034 0.38552 0.02793 0.0
H1751 H 0.48578 0.37101 0.99994 0.0
H1752 H 0.4791 0.41094 0.9823 0.0
H1753 H 0.48299 0.42544 0.01034 0.0
H1754 H 0.45695 0.42844 0.99381 0.0
H1755 H 0.38804 0.39769 0.04053 0.0
H1756 H 0.40086 0.42008 0.0759 0.0
H1757 H 0.47169 0.41715 0.05459 0.0
C1758 C 0.44085 0.37425 0.971 0.0
C1759 C 0.42025 0.36497 0.95986 0.0
C1760 C 0.39987 0.36311 0.97296 0.0
C1761 C 0.3992 0.3722 0.9957 0.0
C1762 C 0.41929 0.38256 1.00568 0.0
C1763 C 0.44002 0.38266 0.99431 0.0
C1764 C 0.45905 0.39453 0.00976 0.0
C1765 C 0.47708 0.37714 0.01581 0.0
C1766 C 0.47017 0.41611 0.99836 0.0
C1767 C 0.44554 0.40158 0.03104 0.0
C1768 C 0.42254 0.39499 0.02793 0.0
C1769 C 0.40619 0.40179 0.04378 0.0
C1770 C 0.41366 0.41435 0.06405 0.0
C1771 C 0.43736 0.41902 0.0691 0.0
C1772 C 0.45344 0.4132 0.05182 0.0
H1773 H 0.87939 0.16605 0.21745 0.0
H1774 H 0.93833 0.12375 0.22316 0.0
H1775 H 0.92026 0.10332 0.25554 0.0
H1776 H 0.87073 0.17384 0.27748 0.0
H1777 H 0.83977 0.17214 0.27559 0.0
H1778 H 0.85637 0.1822 0.2515 0.0
H1779 H 0.83552 0.15027 0.22472 0.0
H1780 H 0.81887 0.14006 0.24878 0.0
H1781 H 0.8356 0.12009 0.23236 0.0
H1782 H 0.89793 0.08967 0.2885 0.0
H1783 H 0.87337 0.08428 0.32188 0.0
H1784 H 0.82701 0.13394 0.29496 0.0
C1785 C 0.88831 0.15232 0.22543 0.0
C1786 C 0.91034 0.14661 0.21795 0.0
C1787 C 0.92166 0.12871 0.22889 0.0
C1788 C 0.91141 0.11681 0.2471 0.0
C1789 C 0.8898 0.12296 0.25418 0.0
C1790 C 0.87833 0.1403 0.2438 0.0
C1791 C 0.85589 0.14437 0.25588 0.0
C1792 C 0.85569 0.16964 0.26569 0.0
C1793 C 0.83525 0.13833 0.23945 0.0
C1794 C 0.85694 0.12703 0.27505 0.0
C1795 C 0.87653 0.11471 0.27341 0.0
C1796 C 0.88227 0.09883 0.28977 0.0
C1797 C 0.86791 0.09573 0.30867 0.0
C1798 C 0.84778 0.10832 0.31118 0.0
C1799 C 0.84213 0.12394 0.29377 0.0
H1800 H 0.90339 0.06005 0.40029 0.0
H1801 H 0.89231 0.13325 0.4145 0.0
H1802 H 0.93145 0.14384 0.40138 0.0
H1803 H 0.96127 0.06492 0.42437 0.0
H1804 H 0.97162 0.04322 0.40443 0.0
H1805 H 0.94185 0.04179 0.41244 0.0
H1806 H 0.93007 0.04172 0.36911 0.0
H1807 H 0.95985 0.04377 0.36102 0.0
H1808 H 0.94073 0.06522 0.35157 0.0
H1809 H 0.9708 0.14666 0.38444 0.0
H1810 H 0.01188 0.14188 0.37748 0.0
H1811 H 1.00058 0.06682 0.38059 0.0
C1812 C 0.90912 0.07837 0.40068 0.0
C1813 C 0.894 0.09597 0.40711 0.0
C1814 C 0.90274 0.11954 0.40826 0.0
C1815 C 0.92512 0.12571 0.40094 0.0
C1816 C 0.939 0.10803 0.39345 0.0
C1817 C 0.93173 0.08478 0.39431 0.0
C1818 C 0.95113 0.06913 0.38816 0.0
C1819 C 0.95681 0.05387 0.40857 0.0
C1820 C 0.94508 0.05407 0.36615 0.0
C1821 C 0.97056 0.08729 0.38386 0.0
C1822 C 0.96276 0.10957 0.38618 0.0
C1823 C 0.97714 0.12934 0.38289 0.0
C1824 C 1.00039 0.12645 0.3787 0.0
C1825 C 0.00941 0.10405 0.3785 0.0
C1826 C 0.99411 0.08409 0.38024 0.0
H1827 H 0.17263 0.80107 0.57174 0.0
H1828 H 0.19253 0.83563 0.63776 0.0
H1829 H 0.18576 0.79834 0.65692 0.0
H1830 H 0.12825 0.76212 0.593 0.0
H1831 H 0.13484 0.73793 0.57401 0.0
H1832 H 0.14088 0.76746 0.56527 0.0
H1833 H 0.1835 0.75887 0.55877 0.0
H1834 H 0.17751 0.72928 0.5673 0.0
H1835 H 0.19991 0.7474 0.58198 0.0
H1836 H 0.17473 0.7574 0.66942 0.0
H1837 H 0.16394 0.71593 0.67382 0.0
H1838 H 0.15546 0.70688 0.59907 0.0
C1839 C 0.17585 0.80102 0.59018 0.0
C1840 C 0.18295 0.82184 0.60306 0.0
C1841 C 0.18668 0.82039 0.62729 0.0
C1842 C 0.18297 0.79913 0.63843 0.0
C1843 C 0.17572 0.77919 0.62521 0.0
C1844 C 0.17247 0.77989 0.60157 0.0
C1845 C 0.16496 0.75583 0.59131 0.0
C1846 C 0.1408 0.75585 0.58024 0.0
C1847 C 0.18252 0.74735 0.57381 0.0
C1848 C 0.16468 0.74146 0.61286 0.0
C1849 C 0.1706 0.75535 0.63226 0.0
C1850 C 0.17052 0.74628 0.65426 0.0
C1851 C 0.16455 0.72239 0.65651 0.0
C1852 C 0.15918 0.70735 0.63682 0.0
C1853 C 0.15923 0.7174 0.61469 0.0
H1854 H 0.46474 0.87927 0.86811 0.0
H1855 H 0.46194 0.94951 0.8973 0.0
H1856 H 0.4993 0.9456 0.91769 0.0
H1857 H 0.48947 0.85504 0.9197 0.0
H1858 H 0.50649 0.83543 0.90317 0.0
H1859 H 0.47952 0.84394 0.89154 0.0
H1860 H 0.5001 0.85877 0.85489 0.0
H1861 H 0.52703 0.85012 0.86632 0.0
H1862 H 0.52425 0.87984 0.85809 0.0
H1863 H 0.53851 0.93404 0.93296 0.0
H1864 H 0.57514 0.91616 0.94164 0.0
H1865 H 0.55026 0.85296 0.9035 0.0
C1866 C 0.4721 0.89383 0.87872 0.0
C1867 C 0.46079 0.91481 0.88097 0.0
C1868 C 0.47054 0.93336 0.8954 0.0
C1869 C 0.49165 0.93124 0.90701 0.0
C1870 C 0.50243 0.91024 0.90439 0.0
C1871 C 0.4928 0.89181 0.89074 0.0
C1872 C 0.50757 0.87106 0.8907 0.0
C1873 C 0.49501 0.85013 0.90195 0.0
C1874 C 0.51519 0.86458 0.86604 0.0
C1875 C 0.52754 0.88092 0.90568 0.0
C1876 C 0.52429 0.90345 0.91364 0.0
C1877 C 0.54109 0.91632 0.92697 0.0
C1878 C 0.56187 0.90602 0.93181 0.0
C1879 C 0.56571 0.88316 0.92321 0.0
C1880 C 0.54796 0.8704 0.9105 0.0
H1881 H 0.41285 0.32453 0.10925 0.0
H1882 H 0.42547 0.31804 0.18273 0.0
H1883 H 0.41505 0.27549 0.17875 0.0
H1884 H 0.36339 0.2835 0.10576 0.0
H1885 H 0.3701 0.27247 0.07724 0.0
H1886 H 0.37871 0.30218 0.08604 0.0
H1887 H 0.42103 0.29477 0.07642 0.0
H1888 H 0.41255 0.26511 0.06747 0.0
H1889 H 0.43458 0.27092 0.08947 0.0
H1890 H 0.40407 0.23389 0.16629 0.0
H1891 H 0.39379 0.19592 0.1465 0.0
H1892 H 0.38695 0.23031 0.08133 0.0
C1893 C 0.41372 0.31404 0.12442 0.0
C1894 C 0.4203 0.32421 0.14621 0.0
C1895 C 0.42063 0.31028 0.16588 0.0
C1896 C 0.41469 0.28625 0.16377 0.0
C1897 C 0.40815 0.27675 0.14197 0.0
C1898 C 0.40754 0.29023 0.12268 0.0
C1899 C 0.39957 0.27594 0.1013 0.0
C1900 C 0.37658 0.284 0.09205 0.0
C1901 C 0.41804 0.27673 0.08257 0.0
C1902 C 0.39656 0.25206 0.11139 0.0
C1903 C 0.40132 0.25294 0.13491 0.0
C1904 C 0.40008 0.23301 0.14793 0.0
C1905 C 0.39406 0.21155 0.13654 0.0
C1906 C 0.38939 0.21023 0.11237 0.0
C1907 C 0.3905 0.23082 0.09977 0.0
H1908 H 0.01704 0.85045 0.18438 0.0
H1909 H 0.03669 0.92416 0.17688 0.0
H1910 H 1.0002 0.92899 0.15666 0.0
H1911 H 0.99147 0.84119 0.12844 0.0
H1912 H 0.96873 0.82121 0.1378 0.0
H1913 H 0.99597 0.8235 0.15306 0.0
H1914 H 0.97549 0.83289 0.19153 0.0
H1915 H 0.94818 0.83025 0.17643 0.0
H1916 H 0.95659 0.85664 0.19299 0.0
H1917 H 0.96169 0.92575 0.13597 0.0
H1918 H 0.92302 0.91498 0.11948 0.0
H1919 H 0.92998 0.84318 0.13844 0.0
C1920 C 0.01395 0.8677 0.17863 0.0
C1921 C 0.03037 0.88677 0.18227 0.0
C1922 C 0.02484 0.90905 0.17453 0.0
C1923 C 1.00405 0.91204 0.16282 0.0
C1924 C 0.98883 0.89266 0.15885 0.0
C1925 C 0.99343 0.87097 0.16671 0.0
C1926 C 0.97433 0.85285 0.15996 0.0
C1927 C 0.98316 0.83355 0.14386 0.0
C1928 C 0.96298 0.84257 0.18151 0.0
C1929 C 0.95822 0.86781 0.14718 0.0
C1930 C 0.96688 0.89071 0.14665 0.0
C1931 C 0.95477 0.90784 0.1362 0.0
C1932 C 0.93293 0.9015 0.12664 0.0
C1933 C 0.92344 0.87823 0.12763 0.0
C1934 C 0.93661 0.86115 0.13756 0.0
H1935 H 0.36032 0.76825 0.42076 0.0
H1936 H 0.36889 0.81335 0.36269 0.0
H1937 H 0.37663 0.77965 0.33727 0.0
H1938 H 0.4013 0.72939 0.4096 0.0
H1939 H 0.3842 0.70343 0.41655 0.0
H1940 H 0.37779 0.73115 0.42943 0.0
H1941 H 0.33586 0.72482 0.41359 0.0
H1942 H 0.34255 0.69714 0.40038 0.0
H1943 H 0.33082 0.71917 0.38304 0.0
H1944 H 0.3879 0.74054 0.31884 0.0
H1945 H 0.3991 0.70003 0.30968 0.0
H1946 H 0.38085 0.68078 0.37903 0.0
C1947 C 0.36343 0.77094 0.40262 0.0
C1948 C 0.3646 0.79374 0.39402 0.0
C1949 C 0.36836 0.79636 0.37001 0.0
C1950 C 0.37265 0.77716 0.35527 0.0
C1951 C 0.37212 0.75505 0.36445 0.0
C1952 C 0.3669 0.75178 0.38745 0.0
C1953 C 0.36714 0.7262 0.39298 0.0
C1954 C 0.38362 0.72234 0.41333 0.0
C1955 C 0.34264 0.71625 0.39779 0.0
C1956 C 0.3756 0.71606 0.37031 0.0
C1957 C 0.37771 0.73272 0.35372 0.0
C1958 C 0.38588 0.72727 0.33161 0.0
C1959 C 0.39216 0.70426 0.32648 0.0
C1960 C 0.39068 0.68725 0.34357 0.0
C1961 C 0.38202 0.69334 0.36555 0.0
H1962 H 0.54323 0.10053 0.60356 0.0
H1963 H 0.53248 0.17465 0.60209 0.0
H1964 H 0.49691 0.16834 0.62394 0.0
H1965 H 0.47698 0.08195 0.60181 0.0
H1966 H 0.48212 0.05774 0.6198 0.0
H1967 H 0.50314 0.06695 0.59889 0.0
H1968 H 0.53395 0.07113 0.63162 0.0
H1969 H 0.51304 0.06296 0.65282 0.0
H1970 H 0.52969 0.0904 0.65633 0.0
H1971 H 0.47003 0.15653 0.65385 0.0
H1972 H 0.44695 0.13832 0.68414 0.0
H1973 H 0.47226 0.07078 0.66524 0.0
C1974 C 0.53272 0.11521 0.60672 0.0
C1975 C 0.54079 0.13815 0.60146 0.0
C1976 C 0.52682 0.15701 0.60631 0.0
C1977 C 0.50652 0.15357 0.6186 0.0
C1978 C 0.50006 0.13106 0.62524 0.0
C1979 C 0.51211 0.11197 0.61867 0.0
C1980 C 0.50234 0.09 0.62983 0.0
C1981 C 0.49044 0.07316 0.61149 0.0
C1982 C 0.52087 0.07794 0.64346 0.0
C1983 C 0.48487 0.10033 0.64576 0.0
C1984 C 0.48357 0.12395 0.64234 0.0
C1985 C 0.47043 0.13795 0.65629 0.0
C1986 C 0.45779 0.1275 0.67383 0.0
C1987 C 0.45827 0.10319 0.67742 0.0
C1988 C 0.47189 0.08941 0.66304 0.0
H1989 H 0.18322 0.27894 0.92367 0.0
H1990 H 0.19842 0.22981 0.8678 0.0
H1991 H 0.1968 0.2609 0.84009 0.0
H1992 H 0.14284 0.31143 0.88983 0.0
H1993 H 0.15215 0.33935 0.90312 0.0
H1994 H 0.1538 0.31314 0.91919 0.0
H1995 H 0.1973 0.32263 0.92697 0.0
H1996 H 0.19555 0.34906 0.91136 0.0
H1997 H 0.21598 0.32809 0.90292 0.0
H1998 H 0.19586 0.29737 0.8183 0.0
H1999 H 0.19776 0.33781 0.80465 0.0
H2000 H 0.18134 0.36345 0.87337 0.0
C2001 C 0.18607 0.27466 0.90561 0.0
C2002 C 0.19123 0.25174 0.89822 0.0
C2003 C 0.19499 0.24712 0.87432 0.0
C2004 C 0.19377 0.26468 0.85822 0.0
C2005 C 0.18852 0.28689 0.86604 0.0
C2006 C 0.18479 0.29204 0.88916 0.0
C2007 C 0.18026 0.31771 0.89295 0.0
C2008 C 0.1558 0.32056 0.9018 0.0
C2009 C 0.19836 0.33009 0.90952 0.0
C2010 C 0.1827 0.32616 0.86844 0.0
C2011 C 0.18717 0.30799 0.85317 0.0
C2012 C 0.19184 0.31167 0.82994 0.0
C2013 C 0.19268 0.33462 0.82226 0.0
C2014 C 0.18862 0.35351 0.83766 0.0
C2015 C 0.1832 0.34916 0.86094 0.0
H2016 H 0.43176 0.93624 0.14807 0.0
H2017 H 0.41016 0.90156 0.08277 0.0
H2018 H 0.39434 0.93765 0.07001 0.0
H2019 H 0.38297 0.96836 0.15497 0.0
H2020 H 0.39774 0.99456 0.16713 0.0
H2021 H 0.40972 0.96668 0.17069 0.0
H2022 H 0.44767 0.98205 0.15227 0.0
H2023 H 0.43587 0.01007 0.14883 0.0
H2024 H 0.44687 0.99455 0.12412 0.0
H2025 H 0.37671 0.97559 0.06582 0.0
H2026 H 0.36134 0.01489 0.06941 0.0
H2027 H 0.39556 0.02668 0.13604 0.0
C2028 C 0.42445 0.93647 0.13076 0.0
C2029 C 0.42245 0.91591 0.11637 0.0
C2030 C 0.41205 0.91688 0.09414 0.0
C2031 C 0.40295 0.9374 0.08668 0.0
C2032 C 0.40452 0.95706 0.10151 0.0
C2033 C 0.41529 0.95698 0.12296 0.0
C2034 C 0.41348 0.98032 0.1359 0.0
C2035 C 0.40019 0.97729 0.15851 0.0
C2036 C 0.4374 0.99247 0.14055 0.0
C2037 C 0.39985 0.99331 0.11845 0.0
C2038 C 0.39476 0.97944 0.0988 0.0
C2039 C 0.38095 0.9868 0.08091 0.0
C2040 C 0.37223 1.009 0.08308 0.0
C2041 C 0.37758 0.02364 0.1028 0.0
C2042 C 0.39167 0.0158 0.12064 0.0
H2043 H 0.88189 0.58693 0.89213 0.0
H2044 H 0.91765 0.5994 0.95785 0.0
H2045 H 0.92206 0.55677 0.96056 0.0
H2046 H 0.84838 0.54197 0.90839 0.0
H2047 H 0.84767 0.52517 0.88143 0.0
H2048 H 0.85292 0.5563 0.88145 0.0
H2049 H 0.8912 0.5519 0.85998 0.0
H2050 H 0.88584 0.52061 0.85924 0.0
H2051 H 0.91239 0.53362 0.87151 0.0
H2052 H 0.91572 0.51255 0.9591 0.0
H2053 H 0.90038 0.47146 0.95325 0.0
H2054 H 0.86775 0.4892 0.88901 0.0
C2055 C 0.89165 0.58069 0.90649 0.0
C2056 C 0.89991 0.59611 0.92453 0.0
C2057 C 0.91183 0.58764 0.94361 0.0
C2058 C 0.91427 0.56352 0.94528 0.0
C2059 C 0.90481 0.54849 0.92762 0.0
C2060 C 0.89404 0.55688 0.9084 0.0
C2061 C 0.88235 0.53747 0.89345 0.0
C2062 C 0.85631 0.54041 0.89107 0.0
C2063 C 0.89363 0.5358 0.86964 0.0
C2064 C 0.88727 0.51682 0.90771 0.0
C2065 C 0.90059 0.52331 0.92713 0.0
C2066 C 0.90573 0.50723 0.94369 0.0
C2067 C 0.89694 0.484 0.94029 0.0
C2068 C 0.88288 0.47733 0.92072 0.0
C2069 C 0.87836 0.49392 0.90417 0.0
H2070 H 0.77035 0.59483 0.19531 0.0
H2071 H 0.78179 0.56713 0.12647 0.0
H2072 H 0.74104 0.57129 0.11611 0.0
H2073 H 0.70504 0.57311 0.19871 0.0
H2074 H 0.69948 0.5999 0.2143 0.0
H2075 H 0.72647 0.58669 0.21848 0.0
H2076 H 0.74752 0.62593 0.20834 0.0
H2077 H 0.72082 0.63888 0.2028 0.0
H2078 H 0.74215 0.63809 0.18058 0.0
H2079 H 0.70477 0.59056 0.10976 0.0
H2080 H 0.67186 0.61533 0.11007 0.0
H2081 H 0.68232 0.62887 0.18407 0.0
C2082 C 0.76361 0.58786 0.17877 0.0
C2083 C 0.77875 0.58007 0.16183 0.0
C2084 C 0.77008 0.57238 0.13978 0.0
C2085 C 0.74705 0.575 0.13373 0.0
C2086 C 0.733 0.58501 0.15014 0.0
C2087 C 0.74066 0.5905 0.17257 0.0
C2088 C 0.72343 0.60435 0.18577 0.0
C2089 C 0.71298 0.59015 0.20548 0.0
C2090 C 0.73414 0.62821 0.19488 0.0
C2091 C 0.70584 0.60725 0.16681 0.0
C2092 C 0.71155 0.59588 0.14646 0.0
C2093 C 0.69952 0.59867 0.12586 0.0
C2094 C 0.68078 0.61287 0.12624 0.0
C2095 C 0.67401 0.62398 0.14717 0.0
C2096 C 0.68687 0.62094 0.16766 0.0
H2097 H 0.62927 0.47095 0.36814 0.0
H2098 H 0.6171 0.45435 0.4398 0.0
H2099 H 0.63414 0.49323 0.45233 0.0
H2100 H 0.68472 0.50134 0.3785 0.0
H2101 H 0.68005 0.52251 0.35688 0.0
H2102 H 0.66652 0.4935 0.35362 0.0
H2103 H 0.62642 0.5106 0.35036 0.0
H2104 H 0.63988 0.53961 0.35312 0.0
H2105 H 0.61756 0.53067 0.37274 0.0
H2106 H 0.65149 0.53566 0.45668 0.0
H2107 H 0.66518 0.57704 0.45152 0.0
H2108 H 0.66944 0.56286 0.37776 0.0
C2109 C 0.63043 0.47517 0.38652 0.0
C2110 C 0.62176 0.45933 0.40287 0.0
C2111 C 0.62321 0.46617 0.42675 0.0
C2112 C 0.63315 0.48818 0.43412 0.0
C2113 C 0.64189 0.50313 0.41749 0.0
C2114 C 0.6406 0.49681 0.39418 0.0
C2115 C 0.65081 0.51597 0.37959 0.0
C2116 C 0.67177 0.50784 0.36637 0.0
C2117 C 0.63258 0.52473 0.36299 0.0
C2118 C 0.65784 0.53422 0.39824 0.0
C2119 C 0.65261 0.52669 0.42006 0.0
C2120 C 0.65597 0.54158 0.43968 0.0
C2121 C 0.66397 0.56496 0.43669 0.0
C2122 C 0.66844 0.57305 0.41427 0.0
C2123 C 0.66624 0.55709 0.39511 0.0
H2124 H 0.28848 0.85124 0.14991 0.0
H2125 H 0.32499 0.91521 0.12895 0.0
H2126 H 0.29393 0.93797 0.14409 0.0
H2127 H 0.23124 0.86798 0.13785 0.0
H2128 H 0.21902 0.85461 0.16296 0.0
H2129 H 0.2439 0.84302 0.14975 0.0
H2130 H 0.26567 0.84766 0.18913 0.0
H2131 H 0.24094 0.85965 0.20235 0.0
H2132 H 0.2684 0.87588 0.20396 0.0
H2133 H 0.25939 0.9543 0.16154 0.0
H2134 H 0.22136 0.96247 0.177 0.0
H2135 H 0.2084 0.88885 0.18939 0.0
C2136 C 0.29005 0.87003 0.14851 0.0
C2137 C 0.30929 0.88124 0.13786 0.0
C2138 C 0.31031 0.90591 0.13632 0.0
C2139 C 0.29286 0.91916 0.14524 0.0
C2140 C 0.27452 0.90764 0.15601 0.0
C2141 C 0.27286 0.88364 0.15761 0.0
C2142 C 0.25112 0.87573 0.17 0.0
C2143 C 0.23539 0.85938 0.15419 0.0
C2144 C 0.25689 0.86404 0.19271 0.0
C2145 C 0.24074 0.89907 0.17465 0.0
C2146 C 0.25465 0.91721 0.16659 0.0
C2147 C 0.24833 0.94024 0.16796 0.0
C2148 C 0.22671 0.94473 0.17682 0.0
C2149 C 0.21155 0.92631 0.18412 0.0
C2150 C 0.21926 0.90335 0.18392 0.0
H2151 H 0.1512 0.02448 0.59072 0.0
H2152 H 0.14384 0.97559 0.64567 0.0
H2153 H 0.11568 1.00037 0.66482 0.0
H2154 H 0.14861 0.07722 0.62488 0.0
H2155 H 0.13241 0.09118 0.60294 0.0
H2156 H 0.15077 0.06839 0.5948 0.0
H2157 H 0.11498 0.04786 0.57369 0.0
H2158 H 0.09656 0.06973 0.58454 0.0
H2159 H 0.08997 0.03947 0.59019 0.0
H2160 H 0.09099 0.03245 0.67977 0.0
H2161 H 0.0741 0.06961 0.69058 0.0
H2162 H 0.09512 0.09758 0.62501 0.0
C2163 C 0.14335 0.01895 0.60661 0.0
C2164 C 0.1495 0.99799 0.61667 0.0
C2165 C 0.13917 0.99145 0.63765 0.0
C2166 C 0.12314 1.00543 0.64859 0.0
C2167 C 0.11739 0.02604 0.63832 0.0
C2168 C 0.12715 0.03277 0.61776 0.0
C2169 C 0.11861 0.05616 0.61087 0.0
C2170 C 0.13881 0.07432 0.60828 0.0
C2171 C 0.10418 0.05308 0.58846 0.0
C2172 C 0.1036 0.06229 0.6314 0.0
C2173 C 0.10278 0.04436 0.64676 0.0
C2174 C 0.09125 0.0464 0.66764 0.0
C2175 C 0.08138 0.06758 0.67354 0.0
C2176 C 0.08277 0.0868 0.65875 0.0
C2177 C 0.09328 0.08353 0.63685 0.0
H2178 H 0.68674 0.33768 0.34801 0.0
H2179 H 0.65001 0.38631 0.3905 0.0
H2180 H 0.68415 0.41335 0.3928 0.0
H2181 H 0.73804 0.34583 0.38325 0.0
H2182 H 0.75749 0.34219 0.35961 0.0
H2183 H 0.72904 0.32809 0.35801 0.0
H2184 H 0.72146 0.34802 0.31939 0.0
H2185 H 0.74984 0.36236 0.32103 0.0
H2186 H 0.725 0.37938 0.31826 0.0
H2187 H 0.72238 0.4348 0.39202 0.0
H2188 H 0.7637 0.4467 0.39347 0.0
H2189 H 0.77856 0.38288 0.35571 0.0
C2190 C 0.68577 0.35417 0.35752 0.0
C2191 C 0.66485 0.36044 0.36774 0.0
C2192 C 0.66491 0.38175 0.38091 0.0
C2193 C 0.68451 0.39715 0.38267 0.0
C2194 C 0.70454 0.39073 0.37197 0.0
C2195 C 0.70559 0.3695 0.36015 0.0
C2196 C 0.73016 0.36578 0.35278 0.0
C2197 C 0.73922 0.3442 0.36409 0.0
C2198 C 0.7317 0.36377 0.32629 0.0
C2199 C 0.74269 0.38822 0.3624 0.0
C2200 C 0.72735 0.40246 0.37302 0.0
C2201 C 0.73456 0.42376 0.38384 0.0
C2202 C 0.7581 0.43037 0.38462 0.0
C2203 C 0.77444 0.41575 0.37485 0.0
C2204 C 0.7665 0.3946 0.36306 0.0
H2205 H 0.79292 0.63017 0.9221 0.0
H2206 H 0.7912 0.69821 0.89173 0.0
H2207 H 0.75162 0.68819 0.87756 0.0
H2208 H 0.7633 0.59775 0.87854 0.0
H2209 H 0.7471 0.57864 0.8972 0.0
H2210 H 0.77461 0.59168 0.90673 0.0
H2211 H 0.75629 0.60962 0.9433 0.0
H2212 H 0.72876 0.5962 0.93415 0.0
H2213 H 0.73194 0.62727 0.94017 0.0
H2214 H 0.71378 0.66925 0.86339 0.0
H2215 H 0.67877 0.64443 0.85376 0.0
H2216 H 0.7044 0.58977 0.89547 0.0
C2217 C 0.78405 0.64329 0.91309 0.0
C2218 C 0.79534 0.66492 0.90789 0.0
C2219 C 0.78313 0.68135 0.8956 0.0
C2220 C 0.76058 0.67587 0.88756 0.0
C2221 C 0.75032 0.65405 0.89225 0.0
C2222 C 0.76147 0.63821 0.90513 0.0
C2223 C 0.74676 0.61577 0.90734 0.0
C2224 C 0.75866 0.59473 0.89681 0.0
C2225 C 0.74057 0.612 0.93275 0.0
C2226 C 0.72588 0.62122 0.89311 0.0
C2227 C 0.72825 0.64339 0.8846 0.0
C2228 C 0.71153 0.65201 0.87032 0.0
C2229 C 0.69165 0.63774 0.86497 0.0
C2230 C 0.68854 0.61511 0.87396 0.0
C2231 C 0.7061 0.60682 0.8881 0.0
H2232 H 0.90733 0.57762 0.08679 0.0
H2233 H 0.85432 0.61368 0.12237 0.0
H2234 H 0.85329 0.64173 0.09117 0.0
H2235 H 0.93732 0.62951 0.06505 0.0
H2236 H 0.94412 0.61599 0.0376 0.0
H2237 H 0.94087 0.5985 0.06274 0.0
H2238 H 0.90996 0.57147 0.04118 0.0
H2239 H 0.91311 0.58875 0.01588 0.0
H2240 H 0.88523 0.5839 0.02854 0.0
H2241 H 0.85771 0.66585 0.05587 0.0
H2242 H 0.86727 0.6847 0.01946 0.0
H2243 H 0.91772 0.63365 1.0052 0.0
C2244 C 0.89548 0.59142 0.08802 0.0
C2245 C 0.88101 0.59357 0.10754 0.0
C2246 C 0.86588 0.61193 0.10822 0.0
C2247 C 0.86509 0.62786 0.09033 0.0
C2248 C 0.8796 0.62537 0.07153 0.0
C2249 C 0.89457 0.60763 0.0702 0.0
C2250 C 0.90845 0.60913 0.04803 0.0
C2251 C 0.93422 0.61355 0.0537 0.0
C2252 C 0.90391 0.58699 0.03249 0.0
C2253 C 0.89876 0.63033 0.03705 0.0
C2254 C 0.88218 0.63938 0.05104 0.0
C2255 C 0.87079 0.65898 0.0449 0.0
C2256 C 0.87652 0.66973 0.02413 0.0
C2257 C 0.89354 0.66105 0.00934 0.0
C2258 C 0.90465 0.64084 0.01597 0.0
H2259 H 0.19675 0.17845 0.8215 0.0
H2260 H 0.16235 0.1365 0.87296 0.0
H2261 H 0.1283 0.1302 0.8468 0.0
H2262 H 0.15084 0.20525 0.79669 0.0
H2263 H 0.15979 0.20127 0.76717 0.0
H2264 H 0.18086 0.20318 0.79031 0.0
H2265 H 0.19557 0.16321 0.77682 0.0
H2266 H 0.17469 0.16135 0.75345 0.0
H2267 H 0.17551 0.13812 0.77354 0.0
H2268 H 0.09647 0.13223 0.81552 0.0
H2269 H 0.07329 0.13465 0.77993 0.0
H2270 H 0.1317 0.17 0.74719 0.0
C2271 C 0.18213 0.16784 0.82733 0.0
C2272 C 0.18161 0.1593 0.84999 0.0
C2273 C 0.16256 0.14452 0.85631 0.0
C2274 C 0.14323 0.14064 0.84144 0.0
C2275 C 0.14384 0.15048 0.81969 0.0
C2276 C 0.16324 0.16292 0.81234 0.0
C2277 C 0.16052 0.1698 0.78744 0.0
C2278 C 0.16315 0.19646 0.7853 0.0
C2279 C 0.17758 0.15739 0.7719 0.0
C2280 C 0.13608 0.16047 0.78228 0.0
C2281 C 0.12665 0.14947 0.80108 0.0
C2282 C 0.10395 0.1403 0.80053 0.0
C2283 C 0.09085 0.14181 0.78005 0.0
C2284 C 0.10044 0.15225 0.76013 0.0
C2285 C 0.12342 0.16183 0.76166 0.0
H2286 H 0.6261 0.41968 0.56559 0.0
H2287 H 0.61918 0.35194 0.59644 0.0
H2288 H 0.60099 0.3349 0.56112 0.0
H2289 H 0.57011 0.41179 0.53229 0.0
H2290 H 0.58165 0.42712 0.50797 0.0
H2291 H 0.59208 0.43501 0.53689 0.0
H2292 H 0.63394 0.42844 0.52463 0.0
H2293 H 0.62363 0.42136 0.49569 0.0
H2294 H 0.64027 0.40096 0.51076 0.0
H2295 H 0.58739 0.32404 0.52213 0.0
H2296 H 0.58533 0.31924 0.47951 0.0
H2297 H 0.59841 0.39356 0.4734 0.0
C2298 C 0.62051 0.40134 0.56502 0.0
C2299 C 0.62445 0.3871 0.58392 0.0
C2300 C 0.6171 0.36311 0.58219 0.0
C2301 C 0.60613 0.35334 0.5623 0.0
C2302 C 0.60209 0.36789 0.54425 0.0
C2303 C 0.60922 0.39132 0.54525 0.0
C2304 C 0.60471 0.40247 0.52246 0.0
C2305 C 0.58603 0.42015 0.52506 0.0
C2306 C 0.62696 0.41395 0.51282 0.0
C2307 C 0.59591 0.38112 0.50804 0.0
C2308 C 0.59356 0.36156 0.5213 0.0
C2309 C 0.58845 0.33925 0.51157 0.0
C2310 C 0.58714 0.33663 0.48748 0.0
C2311 C 0.59111 0.35614 0.4737 0.0
C2312 C 0.5944 0.37871 0.48398 0.0
H2313 H 0.39748 0.83619 0.23004 0.0
H2314 H 0.40767 0.91107 0.22251 0.0
H2315 H 0.39748 0.91793 0.26302 0.0
H2316 H 0.35225 0.83443 0.26876 0.0
H2317 H 0.363 0.81325 0.28781 0.0
H2318 H 0.37138 0.81317 0.25794 0.0
H2319 H 0.41444 0.81712 0.27015 0.0
H2320 H 0.40611 0.81633 0.30001 0.0
H2321 H 0.42443 0.84033 0.29031 0.0
H2322 H 0.3789 0.91712 0.30178 0.0
H2323 H 0.36847 0.90886 0.34197 0.0
H2324 H 0.37817 0.83532 0.32794 0.0
C2325 C 0.39818 0.85394 0.23711 0.0
C2326 C 0.40229 0.87312 0.22268 0.0
C2327 C 0.40351 0.89609 0.23286 0.0
C2328 C 0.39771 0.90025 0.2559 0.0
C2329 C 0.39186 0.8812 0.26914 0.0
C2330 C 0.39342 0.85848 0.26067 0.0
C2331 C 0.38824 0.8414 0.27967 0.0
C2332 C 0.36748 0.82457 0.27314 0.0
C2333 C 0.40958 0.82801 0.28537 0.0
C2334 C 0.38266 0.85814 0.29951 0.0
C2335 C 0.38427 0.88095 0.29282 0.0
C2336 C 0.37848 0.89939 0.3076 0.0
C2337 C 0.37254 0.89454 0.33046 0.0
C2338 C 0.37354 0.87165 0.33852 0.0
C2339 C 0.37765 0.85313 0.32246 0.0
H2340 H 0.88042 0.38199 0.43636 0.0
H2341 H 0.90273 0.4543 0.45114 0.0
H2342 H 0.90577 0.44619 0.49293 0.0
H2343 H 0.84909 0.37108 0.4918 0.0
H2344 H 0.85902 0.34197 0.49289 0.0
H2345 H 0.85412 0.35473 0.46535 0.0
H2346 H 0.89573 0.34698 0.45381 0.0
H2347 H 0.90102 0.33467 0.4814 0.0
H2348 H 0.91938 0.35875 0.47193 0.0
H2349 H 0.91074 0.42875 0.53257 0.0
H2350 H 0.91716 0.40409 0.566 0.0
H2351 H 0.89383 0.34255 0.52457 0.0
C2352 C 0.88488 0.39635 0.44852 0.0
C2353 C 0.89046 0.41902 0.44065 0.0
C2354 C 0.89748 0.43708 0.45695 0.0
C2355 C 0.89945 0.43252 0.48068 0.0
C2356 C 0.89458 0.40973 0.48779 0.0
C2357 C 0.88724 0.39198 0.47214 0.0
C2358 C 0.8855 0.36853 0.48359 0.0
C2359 C 0.86044 0.35849 0.4834 0.0
C2360 C 0.90136 0.35123 0.47199 0.0
C2361 C 0.89378 0.37565 0.50797 0.0
C2362 C 0.8985 0.39954 0.51019 0.0
C2363 C 0.90686 0.41008 0.53101 0.0
C2364 C 0.91046 0.39591 0.54995 0.0
C2365 C 0.90611 0.37133 0.548 0.0
C2366 C 0.89756 0.36121 0.52664 0.0
H2367 H 0.40446 0.13345 0.316 0.0
H2368 H 0.39786 0.20808 0.31806 0.0
H2369 H 0.39824 0.20776 0.27505 0.0
H2370 H 0.44078 0.13018 0.26221 0.0
H2371 H 0.42611 0.10281 0.25297 0.0
H2372 H 0.43001 0.11016 0.28339 0.0
H2373 H 0.38608 0.10367 0.28876 0.0
H2374 H 0.38193 0.09693 0.25834 0.0
H2375 H 0.36681 0.12009 0.27198 0.0
H2376 H 0.39174 0.19752 0.23197 0.0
H2377 H 0.38368 0.17943 0.19296 0.0
H2378 H 0.39539 0.1113 0.21923 0.0
C2379 C 0.40421 0.14985 0.30732 0.0
C2380 C 0.40157 0.17087 0.32025 0.0
C2381 C 0.4005 0.19195 0.30846 0.0
C2382 C 0.40046 0.19181 0.28405 0.0
C2383 C 0.40182 0.17047 0.27178 0.0
C2384 C 0.40426 0.14994 0.28312 0.0
C2385 C 0.40338 0.12901 0.26627 0.0
C2386 C 0.42645 0.11736 0.26621 0.0
C2387 C 0.38336 0.1114 0.27166 0.0
C2388 C 0.3992 0.14072 0.24367 0.0
C2389 C 0.39842 0.16466 0.24715 0.0
C2390 C 0.39283 0.17889 0.22907 0.0
C2391 C 0.38808 0.16844 0.20701 0.0
C2392 C 0.38903 0.14399 0.20307 0.0
C2393 C 0.39491 0.13007 0.22166 0.0
H2394 H 0.59469 0.64454 0.96566 0.0
H2395 H 0.59845 0.57099 0.98009 0.0
H2396 H 0.58608 0.57922 0.02011 0.0
H2397 H 0.61825 0.66578 0.02106 0.0
H2398 H 0.60068 0.69058 0.02177 0.0
H2399 H 0.60941 0.67831 0.99445 0.0
H2400 H 0.56669 0.67328 0.98122 0.0
H2401 H 0.55766 0.68486 1.00874 0.0
H2402 H 0.54647 0.65642 0.9982 0.0
H2403 H 0.57337 0.59567 0.05809 0.0
H2404 H 0.56623 0.61944 0.09293 0.0
H2405 H 0.57131 0.68224 0.05308 0.0
C2406 C 0.5935 0.63012 0.97725 0.0
C2407 C 0.59752 0.6071 0.96973 0.0
C2408 C 0.59515 0.58874 0.98542 0.0
C2409 C 0.58815 0.59323 1.00813 0.0
C2410 C 0.5838 0.61612 0.01468 0.0
C2411 C 0.58684 0.63428 0.99983 0.0
C2412 C 0.58206 0.65747 0.01124 0.0
C2413 C 0.6039 0.674 0.01219 0.0
C2414 C 0.56202 0.66865 0.99912 0.0
C2415 C 0.57556 0.64952 0.03492 0.0
C2416 C 0.57653 0.6256 0.03652 0.0
C2417 C 0.57234 0.61437 0.05703 0.0
C2418 C 0.56799 0.62811 0.0767 0.0
C2419 C 0.56798 0.65283 0.07565 0.0
C2420 C 0.57106 0.66345 0.05429 0.0
H2421 H 0.12871 0.88618 0.68377 0.0
H2422 H 0.19591 0.9144 0.70814 0.0
H2423 H 0.18598 0.90355 0.74791 0.0
H2424 H 0.0978 0.90792 0.73161 0.0
H2425 H 0.07763 0.88286 0.73181 0.0
H2426 H 0.09077 0.89129 0.70515 0.0
H2427 H 0.10564 0.8498 0.69939 0.0
H2428 H 0.09256 0.84125 0.72607 0.0
H2429 H 0.12282 0.83811 0.72189 0.0
H2430 H 0.16803 0.89076 0.78514 0.0
H2431 H 0.14318 0.87834 0.81714 0.0
H2432 H 0.0873 0.86013 0.76826 0.0
C2433 C 0.14135 0.89033 0.69743 0.0
C2434 C 0.16309 0.90125 0.69278 0.0
C2435 C 0.17925 0.90582 0.71118 0.0
C2436 C 0.17373 0.8998 0.73383 0.0
C2437 C 0.15201 0.8893 0.73774 0.0
C2438 C 0.13607 0.8847 0.72004 0.0
C2439 C 0.11359 0.87418 0.72883 0.0
C2440 C 0.09378 0.89001 0.72407 0.0
C2441 C 0.10836 0.84936 0.71843 0.0
C2442 C 0.11925 0.87378 0.75436 0.0
C2443 C 0.14156 0.88233 0.75914 0.0
C2444 C 0.1506 0.88389 0.78158 0.0
C2445 C 0.13639 0.87663 0.7996 0.0
C2446 C 0.11337 0.86807 0.79507 0.0
C2447 C 0.1048 0.86662 0.77214 0.0
H2448 H 0.11475 0.93766 0.59455 0.0
H2449 H 0.10055 0.86462 0.5748 0.0
H2450 H 0.0606 0.86737 0.58744 0.0
H2451 H 0.08621 0.93597 0.6456 0.0
H2452 H 0.07564 0.96483 0.64443 0.0
H2453 H 0.10149 0.95815 0.62962 0.0
H2454 H 0.08385 0.97169 0.59132 0.0
H2455 H 0.05786 0.97813 0.60613 0.0
H2456 H 0.05656 0.95854 0.58101 0.0
H2457 H 0.02477 0.87593 0.608 0.0
H2458 H 0.99341 0.89129 0.63141 0.0
H2459 H 0.03074 0.95868 0.6385 0.0
C2460 C 0.1032 0.92253 0.59181 0.0
C2461 C 0.11099 0.90097 0.58346 0.0
C2462 C 0.09502 0.8814 0.58096 0.0
C2463 C 0.07229 0.88276 0.58821 0.0
C2464 C 0.0657 0.90387 0.59782 0.0
C2465 C 0.08053 0.92356 0.59927 0.0
C2466 C 0.06987 0.94346 0.61245 0.0
C2467 C 0.08414 0.95104 0.63433 0.0
C2468 C 0.06685 0.96418 0.59678 0.0
C2469 C 0.04692 0.93168 0.6186 0.0
C2470 C 0.04491 0.90885 0.60992 0.0
C2471 C 0.02597 0.89388 0.61451 0.0
C2472 C 0.0084 0.9026 0.62793 0.0
C2473 C 0.00992 0.92598 0.63662 0.0
C2474 C 0.02937 0.94074 0.63195 0.0
H2475 H 0.85172 0.31524 0.41179 0.0
H2476 H 0.82931 0.30978 0.33953 0.0
H2477 H 0.8122 0.27054 0.34569 0.0
H2478 H 0.87238 0.2593 0.40969 0.0
H2479 H 0.86608 0.25394 0.43952 0.0
H2480 H 0.8719 0.28333 0.43059 0.0
H2481 H 0.83291 0.29447 0.44753 0.0
H2482 H 0.82659 0.26481 0.45582 0.0
H2483 H 0.8067 0.27882 0.43749 0.0
H2484 H 0.80051 0.2308 0.35828 0.0
H2485 H 0.80327 0.19126 0.37344 0.0
H2486 H 0.83758 0.22092 0.43526 0.0
C2487 C 0.84334 0.30601 0.39707 0.0
C2488 C 0.84154 0.31623 0.37528 0.0
C2489 C 0.83023 0.30308 0.35673 0.0
C2490 C 0.82041 0.28061 0.36001 0.0
C2491 C 0.82243 0.27128 0.38177 0.0
C2492 C 0.83423 0.28333 0.39975 0.0
C2493 C 0.83772 0.26804 0.42007 0.0
C2494 C 0.86354 0.26603 0.42525 0.0
C2495 C 0.82522 0.27708 0.44149 0.0
C2496 C 0.82645 0.24526 0.4105 0.0
C2497 C 0.81698 0.24772 0.38869 0.0
C2498 C 0.80745 0.22869 0.37548 0.0
C2499 C 0.80885 0.2064 0.38424 0.0
C2500 C 0.82009 0.20351 0.40564 0.0
C2501 C 0.82816 0.2231 0.41929 0.0
H2502 H 0.53471 0.1072 0.17692 0.0
H2503 H 0.56534 0.07578 0.11639 0.0
H2504 H 0.5282 0.07565 0.09548 0.0
H2505 H 0.47629 0.07603 0.16746 0.0
H2506 H 0.46223 0.10117 0.17844 0.0
H2507 H 0.49021 0.09505 0.18957 0.0
H2508 H 0.50573 0.13663 0.1792 0.0
H2509 H 0.47796 0.14273 0.16788 0.0
H2510 H 0.50286 0.14578 0.14984 0.0
H2511 H 0.48761 0.08375 0.07942 0.0
H2512 H 0.4489 0.09827 0.0714 0.0
H2513 H 0.44666 0.12506 0.14223 0.0
C2514 C 0.5336 0.09988 0.15942 0.0
C2515 C 0.55335 0.09208 0.14831 0.0
C2516 C 0.55078 0.08221 0.12544 0.0
C2517 C 0.5296 0.082 0.11332 0.0
C2518 C 0.51084 0.09112 0.12443 0.0
C2519 C 0.51262 0.09939 0.1472 0.0
C2520 C 0.49051 0.10949 0.15501 0.0
C2521 C 0.47914 0.09455 0.17373 0.0
C2522 C 0.49452 0.13518 0.16346 0.0
C2523 C 0.47659 0.10719 0.1327 0.0
C2524 C 0.48813 0.09592 0.11532 0.0
C2525 C 0.4784 0.09235 0.09307 0.0
C2526 C 0.45645 0.10064 0.0886 0.0
C2527 C 0.44491 0.11288 0.10614 0.0
C2528 C 0.45514 0.11588 0.12842 0.0
H2529 H 0.62445 0.76526 0.94122 0.0
H2530 H 0.62635 0.80013 0.87577 0.0
H2531 H 0.6206 0.76198 0.855 0.0
H2532 H 0.65289 0.71297 0.92107 0.0
H2533 H 0.63515 0.6938 0.93833 0.0
H2534 H 0.64164 0.72369 0.94803 0.0
H2535 H 0.59814 0.73004 0.95103 0.0
H2536 H 0.59164 0.70015 0.94155 0.0
H2537 H 0.5796 0.72344 0.92614 0.0
H2538 H 0.61305 0.71881 0.84093 0.0
H2539 H 0.60163 0.67638 0.83599 0.0
H2540 H 0.60239 0.67071 0.91046 0.0
C2541 C 0.62371 0.76509 0.92253 0.0
C2542 C 0.62602 0.7862 0.9104 0.0
C2543 C 0.62506 0.78458 0.8858 0.0
C2544 C 0.6217 0.76281 0.87371 0.0
C2545 C 0.61932 0.7425 0.88626 0.0
C2546 C 0.62025 0.74352 0.91018 0.0
C2547 C 0.61616 0.71933 0.91974 0.0
C2548 C 0.63775 0.71202 0.93255 0.0
C2549 C 0.59513 0.71818 0.93553 0.0
C2550 C 0.61177 0.70467 0.89755 0.0
C2551 C 0.61428 0.71815 0.87832 0.0
C2552 C 0.61109 0.70817 0.85593 0.0
C2553 C 0.60471 0.68404 0.85322 0.0
C2554 C 0.60109 0.67025 0.87277 0.0
C2555 C 0.605 0.6808 0.89514 0.0
H2556 H 0.99436 0.17252 0.83545 0.0
H2557 H 0.97901 0.09791 0.84087 0.0
H2558 H 0.01732 0.09444 0.85888 0.0
H2559 H 0.05533 0.17304 0.82613 0.0
H2560 H 0.06099 0.19881 0.84455 0.0
H2561 H 0.03392 0.19434 0.82918 0.0
H2562 H 0.01266 0.19865 0.86813 0.0
H2563 H 0.0397 0.20257 0.88364 0.0
H2564 H 0.01896 0.1797 0.89129 0.0
H2565 H 0.05652 0.10018 0.87958 0.0
H2566 H 0.09338 0.1141 0.89859 0.0
H2567 H 0.08045 0.18528 0.88196 0.0
C2568 C 0.99879 0.15533 0.84031 0.0
C2569 C 0.98324 0.13556 0.83692 0.0
C2570 C 0.99043 0.1134 0.84313 0.0
C2571 C 0.01217 0.11127 0.85355 0.0
C2572 C 0.0264 0.13146 0.85776 0.0
C2573 C 0.01996 0.15303 0.85119 0.0
C2574 C 0.03727 0.17242 0.85915 0.0
C2575 C 0.04748 0.1854 0.83851 0.0
C2576 C 0.02651 0.18933 0.87658 0.0
C2577 C 0.05489 0.15842 0.87084 0.0
C2578 C 0.04833 0.13483 0.87003 0.0
C2579 C 0.06177 0.1186 0.88023 0.0
C2580 C 0.08255 0.1267 0.89117 0.0
C2581 C 0.08969 0.15078 0.89176 0.0
C2582 C 0.07552 0.16677 0.8816 0.0
H2583 H 0.64769 0.25696 0.58846 0.0
H2584 H 0.66574 0.21655 0.64725 0.0
H2585 H 0.65798 0.24989 0.67357 0.0
H2586 H 0.67214 0.31304 0.61291 0.0
H2587 H 0.65015 0.32844 0.59901 0.0
H2588 H 0.65931 0.30181 0.58592 0.0
H2589 H 0.6171 0.28493 0.58498 0.0
H2590 H 0.60738 0.31082 0.59909 0.0
H2591 H 0.60155 0.28288 0.61163 0.0
H2592 H 0.64492 0.2896 0.69406 0.0
H2593 H 0.62946 0.32838 0.70414 0.0
H2594 H 0.61886 0.33905 0.63129 0.0
C2595 C 0.65012 0.25489 0.60682 0.0
C2596 C 0.65648 0.23344 0.61548 0.0
C2597 C 0.66023 0.2323 0.63981 0.0
C2598 C 0.65594 0.25136 0.65505 0.0
C2599 C 0.6484 0.27181 0.64582 0.0
C2600 C 0.64593 0.27356 0.62213 0.0
C2601 C 0.63729 0.29682 0.61598 0.0
C2602 C 0.6558 0.31086 0.60269 0.0
C2603 C 0.61449 0.29366 0.60211 0.0
C2604 C 0.63397 0.30758 0.63986 0.0
C2605 C 0.64097 0.29346 0.6571 0.0
C2606 C 0.63947 0.30067 0.68051 0.0
C2607 C 0.63061 0.32271 0.68616 0.0
C2608 C 0.6227 0.33689 0.66849 0.0
C2609 C 0.62459 0.32884 0.64524 0.0
H2610 H 0.57301 0.95098 0.36298 0.0
H2611 H 0.58599 0.89145 0.31832 0.0
H2612 H 0.54587 0.87558 0.32365 0.0
H2613 H 0.54679 0.91954 0.40384 0.0
H2614 H 0.52624 0.94036 0.41233 0.0
H2615 H 0.55297 0.95029 0.39989 0.0
H2616 H 0.53137 0.97082 0.36763 0.0
H2617 H 0.50447 0.96159 0.38043 0.0
H2618 H 0.50952 0.95446 0.35041 0.0
H2619 H 0.50545 0.86407 0.33879 0.0
H2620 H 0.46965 0.85853 0.3603 0.0
H2621 H 0.48739 0.92312 0.40004 0.0
C2622 C 0.56693 0.93525 0.35332 0.0
C2623 C 0.58235 0.92271 0.3398 0.0
C2624 C 0.57422 0.90169 0.32811 0.0
C2625 C 0.55155 0.89244 0.33136 0.0
C2626 C 0.53735 0.90447 0.34637 0.0
C2627 C 0.54477 0.92561 0.35694 0.0
C2628 C 0.52793 0.93358 0.37484 0.0
C2629 C 0.53916 0.93607 0.39915 0.0
C2630 C 0.51771 0.95647 0.3679 0.0
C2631 C 0.51003 0.91341 0.3732 0.0
C2632 C 0.51538 0.89702 0.35638 0.0
C2633 C 0.50119 0.87689 0.35197 0.0
C2634 C 0.48091 0.87373 0.36472 0.0
C2635 C 0.4751 0.89024 0.38234 0.0
C2636 C 0.49036 0.91018 0.38658 0.0
H2637 H 0.80845 0.76925 0.13478 0.0
H2638 H 0.86911 0.79763 0.10093 0.0
H2639 H 0.89298 0.77043 0.12133 0.0
H2640 H 0.83675 0.75702 0.19049 0.0
H2641 H 0.81978 0.73004 0.19354 0.0
H2642 H 0.80793 0.75373 0.1786 0.0
H2643 H 0.79936 0.72644 0.14232 0.0
H2644 H 0.81072 0.70273 0.15742 0.0
H2645 H 0.82231 0.71068 0.12986 0.0
H2646 H 0.90945 0.73855 0.1424 0.0
H2647 H 0.9168 0.70063 0.15908 0.0
H2648 H 0.84526 0.69238 0.17866 0.0
C2649 C 0.82675 0.76954 0.1318 0.0
C2650 C 0.83707 0.78495 0.11614 0.0
C2651 C 0.86103 0.78534 0.11253 0.0
C2652 C 0.87469 0.77033 0.12432 0.0
C2653 C 0.86406 0.7552 0.13968 0.0
C2654 C 0.8406 0.75447 0.14327 0.0
C2655 C 0.83315 0.73488 0.15877 0.0
C2656 C 0.82386 0.7445 0.18171 0.0
C2657 C 0.81536 0.71766 0.14634 0.0
C2658 C 0.85593 0.7241 0.16241 0.0
C2659 C 0.87364 0.7365 0.15182 0.0
C2660 C 0.89585 0.7288 0.15105 0.0
C2661 C 0.89985 0.70726 0.16046 0.0
C2662 C 0.88164 0.69371 0.1702 0.0
C2663 C 0.85967 0.70268 0.17191 0.0
H2664 H 0.60571 0.06969 0.8593 0.0
H2665 H 0.57942 0.0934 0.92514 0.0
H2666 H 0.5896 0.05635 0.94245 0.0
H2667 H 0.58869 1.00849 0.8622 0.0
H2668 H 0.61471 0.99864 0.84967 0.0
H2669 H 0.60458 0.02654 0.84233 0.0
H2670 H 0.6437 0.04685 0.85534 0.0
H2671 H 0.65399 0.01901 0.86264 0.0
H2672 H 0.65469 0.04263 0.88409 0.0
H2673 H 0.60078 0.0151 0.95184 0.0
H2674 H 0.61665 0.97598 0.95395 0.0
H2675 H 0.63912 0.98074 0.88317 0.0
C2676 C 0.60191 0.06691 0.87731 0.0
C2677 C 0.59135 0.08422 0.89084 0.0
C2678 C 0.58728 0.0803 0.91448 0.0
C2679 C 0.59297 0.05926 0.9244 0.0
C2680 C 0.6032 0.04242 0.91058 0.0
C2681 C 0.60804 0.04624 0.88763 0.0
C2682 C 0.62036 0.02596 0.87691 0.0
C2683 C 0.60623 0.01421 0.85657 0.0
C2684 C 0.64462 0.0341 0.8693 0.0
C2685 C 0.62133 0.00993 0.89724 0.0
C2686 C 0.61106 0.01959 0.91643 0.0
C2687 C 0.60906 1.00754 0.93697 0.0
C2688 C 0.618 0.98529 0.93802 0.0
C2689 C 0.62925 0.97539 0.91885 0.0
C2690 C 0.63085 0.98799 0.89821 0.0
H2691 H 0.12631 0.44158 0.15074 0.0
H2692 H 0.10598 0.41581 0.08168 0.0
H2693 H 0.11304 0.45567 0.06714 0.0
H2694 H 0.09997 0.49754 0.14663 0.0
H2695 H 0.12235 0.51252 0.16427 0.0
H2696 H 0.11474 0.4821 0.1684 0.0
H2697 H 0.15733 0.47299 0.16238 0.0
H2698 H 0.16494 0.50325 0.15741 0.0
H2699 H 0.17128 0.48108 0.13596 0.0
H2700 H 0.12439 0.49971 0.0603 0.0
H2701 H 0.1325 0.54286 0.0635 0.0
H2702 H 0.14537 0.53811 0.13693 0.0
C2703 C 0.12301 0.4443 0.13258 0.0
C2704 C 0.11589 0.42538 0.11733 0.0
C2705 C 0.11158 0.42987 0.09374 0.0
C2706 C 0.11571 0.45251 0.08529 0.0
C2707 C 0.12379 0.47057 0.10071 0.0
C2708 C 0.12681 0.46667 0.12399 0.0
C2709 C 0.13491 0.48881 0.13736 0.0
C2710 C 0.11693 0.49564 0.15521 0.0
C2711 C 0.15852 0.48637 0.14895 0.0
C2712 C 0.13649 0.50585 0.11801 0.0
C2713 C 0.13008 0.4952 0.0969 0.0
C2714 C 0.12946 0.5081 0.0768 0.0
C2715 C 0.13442 0.53254 0.07863 0.0
C2716 C 0.13986 0.54373 0.1004 0.0
C2717 C 0.14161 0.52993 0.12003 0.0
H2718 H 0.33791 0.3569 0.89027 0.0
H2719 H 0.36067 0.33517 0.82226 0.0
H2720 H 0.33034 0.357 0.80422 0.0
H2721 H 0.27579 0.35628 0.87606 0.0
H2722 H 0.27183 0.38202 0.89396 0.0
H2723 H 0.29376 0.36261 0.9014 0.0
H2724 H 0.32433 0.39733 0.90155 0.0
H2725 H 0.30256 0.41677 0.89385 0.0
H2726 H 0.32757 0.41445 0.87613 0.0
H2727 H 0.29746 0.38256 0.79342 0.0
H2728 H 0.26632 0.4103 0.79133 0.0
H2729 H 0.26673 0.417 0.86614 0.0
C2730 C 0.33605 0.35611 0.87159 0.0
C2731 C 0.35152 0.34382 0.85772 0.0
C2732 C 0.34899 0.34412 0.83332 0.0
C2733 C 0.33175 0.35655 0.82288 0.0
C2734 C 0.31713 0.36889 0.83702 0.0
C2735 C 0.31911 0.36873 0.86088 0.0
C2736 C 0.30225 0.38464 0.87217 0.0
C2737 C 0.28488 0.37055 0.88676 0.0
C2738 C 0.31494 0.40447 0.88678 0.0
C2739 C 0.29069 0.39394 0.85099 0.0
C2740 C 0.29923 0.38444 0.83084 0.0
C2741 C 0.29076 0.39017 0.80913 0.0
C2742 C 0.27315 0.40596 0.80804 0.0
C2743 C 0.2645 0.41624 0.82846 0.0
C2744 C 0.27344 0.40997 0.85017 0.0
H2745 H 0.38996 0.56293 0.60225 0.0
H2746 H 0.40951 0.55919 0.6745 0.0
H2747 H 0.38929 0.51998 0.67589 0.0
H2748 H 0.33333 0.53656 0.60818 0.0
H2749 H 0.33304 0.52129 0.58039 0.0
H2750 H 0.34995 0.54844 0.58484 0.0
H2751 H 0.38677 0.52854 0.57193 0.0
H2752 H 0.36981 0.50158 0.56673 0.0
H2753 H 0.39461 0.50243 0.58578 0.0
H2754 H 0.36741 0.48092 0.6687 0.0
H2755 H 0.3488 0.44394 0.65268 0.0
H2756 H 0.34049 0.47571 0.58635 0.0
C2757 C 0.39049 0.5535 0.61814 0.0
C2758 C 0.40167 0.56352 0.63809 0.0
C2759 C 0.40137 0.5513 0.65893 0.0
C2760 C 0.38973 0.52927 0.65993 0.0
C2761 C 0.37819 0.52013 0.64006 0.0
C2762 C 0.37859 0.53183 0.61955 0.0
C2763 C 0.36466 0.51846 0.60072 0.0
C2764 C 0.34402 0.532 0.5931 0.0
C2765 C 0.37987 0.51238 0.58008 0.0
C2766 C 0.35698 0.497 0.61358 0.0
C2767 C 0.36472 0.49832 0.63631 0.0
C2768 C 0.36106 0.47977 0.651 0.0
C2769 C 0.35028 0.45889 0.6418 0.0
C2770 C 0.34338 0.45688 0.61818 0.0
C2771 C 0.34581 0.47661 0.60437 0.0
H2772 H 0.79075 0.11865 0.80447 0.0
H2773 H 0.81788 0.09497 0.86925 0.0
H2774 H 0.78662 0.1124 0.89028 0.0
H2775 H 0.76942 0.17458 0.83117 0.0
H2776 H 0.74419 0.17341 0.81269 0.0
H2777 H 0.77037 0.16176 0.80232 0.0
H2778 H 0.74859 0.12181 0.79287 0.0
H2779 H 0.72242 0.13345 0.80296 0.0
H2780 H 0.73252 0.10742 0.81525 0.0
H2781 H 0.75151 0.12902 0.90444 0.0
H2782 H 0.71242 0.14164 0.91051 0.0
H2783 H 0.70586 0.15417 0.83714 0.0
C2784 C 0.79001 0.11726 0.82306 0.0
C2785 C 0.8064 0.10475 0.83507 0.0
C2786 C 0.80513 0.10366 0.8595 0.0
C2787 C 0.78763 0.11389 0.87172 0.0
C2788 C 0.77147 0.12556 0.85946 0.0
C2789 C 0.77239 0.12744 0.83571 0.0
C2790 C 0.75174 0.13979 0.82693 0.0
C2791 C 0.75939 0.1638 0.81773 0.0
C2792 C 0.738 0.1247 0.80842 0.0
C2793 C 0.73831 0.14256 0.84916 0.0
C2794 C 0.75058 0.13508 0.86779 0.0
C2795 C 0.74171 0.13501 0.89002 0.0
C2796 C 0.71935 0.142 0.89325 0.0
C2797 C 0.70579 0.14855 0.8743 0.0
C2798 C 0.71577 0.14948 0.85206 0.0
H2799 H 0.88069 0.94697 0.35174 0.0
H2800 H 0.92958 0.94787 0.40941 0.0
H2801 H 0.91079 0.9808 0.42755 0.0
H2802 H 0.86869 1.00912 0.35231 0.0
H2803 H 0.83842 1.00238 0.34703 0.0
H2804 H 0.8591 0.98294 0.33589 0.0
H2805 H 0.83816 0.94862 0.35694 0.0
H2806 H 0.81771 0.9682 0.36819 0.0
H2807 H 0.83397 0.95158 0.38775 0.0
H2808 H 0.88256 1.00906 0.44292 0.0
H2809 H 0.85001 0.03356 0.45144 0.0
H2810 H 0.81804 0.01078 0.38556 0.0
C2811 C 0.88772 0.95397 0.36811 0.0
C2812 C 0.90654 0.94417 0.37915 0.0
C2813 C 0.91541 0.95489 0.40021 0.0
C2814 C 0.90465 0.97356 0.41091 0.0
C2815 C 0.8849 0.9812 0.40052 0.0
C2816 C 0.87669 0.97192 0.37943 0.0
C2817 C 0.85369 0.98107 0.37317 0.0
C2818 C 0.85508 0.9947 0.35078 0.0
C2819 C 0.83478 0.96117 0.37138 0.0
C2820 C 0.85021 0.99691 0.39406 0.0
C2821 C 0.86835 0.99683 0.40965 0.0
C2822 C 0.86838 1.00944 0.43069 0.0
C2823 C 0.8497 0.02309 0.43549 0.0
C2824 C 0.83128 0.02411 0.41929 0.0
C2825 C 0.83148 0.01029 0.39858 0.0
H2826 H 0.3373 0.6458 0.59931 0.0
H2827 H 0.35443 0.67127 0.66931 0.0
H2828 H 0.31456 0.65989 0.68112 0.0
H2829 H 0.27786 0.66092 0.59669 0.0
H2830 H 0.26909 0.63443 0.58042 0.0
H2831 H 0.29777 0.64738 0.57761 0.0
H2832 H 0.31434 0.60822 0.58857 0.0
H2833 H 0.28575 0.59525 0.59182 0.0
H2834 H 0.30625 0.59533 0.61546 0.0
H2835 H 0.27254 0.64295 0.68501 0.0
H2836 H 0.23364 0.62307 0.68061 0.0
H2837 H 0.24678 0.60723 0.60837 0.0
C2838 C 0.33263 0.64954 0.61707 0.0
C2839 C 0.34888 0.65971 0.63335 0.0
C2840 C 0.34209 0.66397 0.65644 0.0
C2841 C 0.31956 0.65735 0.66331 0.0
C2842 C 0.30424 0.64647 0.64684 0.0
C2843 C 0.31062 0.64274 0.62417 0.0
C2844 C 0.29198 0.62931 0.60995 0.0
C2845 C 0.28368 0.64389 0.59 0.0
C2846 C 0.30007 0.60564 0.60094 0.0
C2847 C 0.27381 0.62609 0.62804 0.0
C2848 C 0.281 0.63612 0.64923 0.0
C2849 C 0.26681 0.63515 0.66845 0.0
C2850 C 0.24476 0.62387 0.6658 0.0
C2851 C 0.23724 0.61349 0.64418 0.0
C2852 C 0.25212 0.61463 0.6252 0.0
H2853 H 0.32244 0.41033 0.09341 0.0
H2854 H 0.33081 0.41608 0.16792 0.0
H2855 H 0.28954 0.40367 0.17213 0.0
H2856 H 0.26309 0.42777 0.08846 0.0
H2857 H 0.2564 0.40632 0.06544 0.0
H2858 H 0.28524 0.41915 0.06903 0.0
H2859 H 0.30023 0.3776 0.07111 0.0
H2860 H 0.27138 0.36466 0.06831 0.0
H2861 H 0.28917 0.35827 0.09275 0.0
H2862 H 0.2486 0.38578 0.16757 0.0
H2863 H 0.21007 0.36905 0.15473 0.0
H2864 H 0.22997 0.3742 0.08318 0.0
C2865 C 0.31538 0.40963 0.1106 0.0
C2866 C 0.32958 0.41418 0.13035 0.0
C2867 C 0.31998 0.41298 0.15262 0.0
C2868 C 0.29671 0.40569 0.15511 0.0
C2869 C 0.28355 0.39982 0.13514 0.0
C2870 C 0.29251 0.40213 0.11331 0.0
C2871 C 0.27561 0.39318 0.09455 0.0
C2872 C 0.26973 0.41278 0.07843 0.0
C2873 C 0.28465 0.37219 0.08089 0.0
C2874 C 0.25548 0.38569 0.10914 0.0
C2875 C 0.2604 0.38937 0.13253 0.0
C2876 C 0.24455 0.38301 0.14933 0.0
C2877 C 0.2229 0.37332 0.14194 0.0
C2878 C 0.2175 0.37024 0.11807 0.0
C2879 C 0.23398 0.37627 0.10151 0.0
H2880 H 0.67831 0.88204 0.42495 0.0
H2881 H 0.68881 0.95429 0.45015 0.0
H2882 H 0.67103 0.9433 0.48711 0.0
H2883 H 0.62413 0.86918 0.45215 0.0
H2884 H 0.63199 0.83955 0.45547 0.0
H2885 H 0.64364 0.85661 0.4323 0.0
H2886 H 0.68476 0.84595 0.44882 0.0
H2887 H 0.67125 0.83158 0.4727 0.0
H2888 H 0.69248 0.85536 0.4781 0.0
H2889 H 0.6501 0.92396 0.52068 0.0
H2890 H 0.63269 0.89777 0.54926 0.0
H2891 H 0.6391 0.83828 0.502 0.0
C2892 C 0.67783 0.89569 0.43828 0.0
C2893 C 0.68542 0.9191 0.43441 0.0
C2894 C 0.68313 0.93624 0.45242 0.0
C2895 C 0.67306 0.93016 0.47352 0.0
C2896 C 0.66559 0.90689 0.47638 0.0
C2897 C 0.66823 0.88995 0.45931 0.0
C2898 C 0.65892 0.86617 0.46631 0.0
C2899 C 0.63846 0.8573 0.45065 0.0
C2900 C 0.67798 0.84873 0.46649 0.0
C2901 C 0.65105 0.87208 0.49035 0.0
C2902 C 0.65449 0.89575 0.49571 0.0
C2903 C 0.64757 0.90541 0.51667 0.0
C2904 C 0.63748 0.89038 0.53272 0.0
C2905 C 0.63463 0.86593 0.52782 0.0
C2906 C 0.64127 0.85682 0.50622 0.0
H2907 H 0.36484 0.39761 0.68739 0.0
H2908 H 0.3189 0.336 0.67578 0.0
H2909 H 0.3329 0.32021 0.71229 0.0
H2910 H 0.41142 0.37087 0.70651 0.0
H2911 H 0.42076 0.39254 0.72852 0.0
H2912 H 0.40435 0.40084 0.70393 0.0
H2913 H 0.37383 0.41778 0.73084 0.0
H2914 H 0.39042 0.41004 0.75567 0.0
H2915 H 0.36069 0.39975 0.75248 0.0
H2916 H 0.35596 0.30922 0.74857 0.0
H2917 H 0.38398 0.30522 0.78075 0.0
H2918 H 0.41499 0.37384 0.76752 0.0
C2919 C 0.35713 0.3811 0.69283 0.0
C2920 C 0.34069 0.36809 0.67848 0.0
C2921 C 0.33131 0.34647 0.68631 0.0
C2922 C 0.3393 0.3373 0.7071 0.0
C2923 C 0.35642 0.3501 0.72017 0.0
C2924 C 0.36484 0.37182 0.71348 0.0
C2925 C 0.38411 0.38165 0.72959 0.0
C2926 C 0.40647 0.38675 0.71634 0.0
C2927 C 0.37683 0.4036 0.74294 0.0
C2928 C 0.38624 0.36154 0.74565 0.0
C2929 C 0.36981 0.34368 0.74036 0.0
C2930 C 0.36875 0.32323 0.75284 0.0
C2931 C 0.38478 0.32103 0.77106 0.0
C2932 C 0.40201 0.33896 0.77646 0.0
C2933 C 0.40246 0.35953 0.76357 0.0
H2934 H 0.91449 0.19003 0.01772 0.0
H2935 H 0.91399 0.12443 0.05316 0.0
H2936 H 0.90902 0.10285 0.01594 0.0
H2937 H 0.87008 0.17169 0.97684 0.0
H2938 H 0.88286 0.18744 0.95337 0.0
H2939 H 0.88796 0.19801 0.98279 0.0
H2940 H 0.93198 0.19752 0.97682 0.0
H2941 H 0.92689 0.18706 0.94734 0.0
H2942 H 0.94406 0.17092 0.96658 0.0
H2943 H 0.90395 0.08804 0.97455 0.0
H2944 H 0.89771 0.08178 0.93216 0.0
H2945 H 0.89874 0.1567 0.92449 0.0
C2946 C 0.91333 0.17116 0.01778 0.0
C2947 C 0.91497 0.15915 0.0386 0.0
C2948 C 0.91343 0.13431 0.03763 0.0
C2949 C 0.91039 0.12176 0.01648 0.0
C2950 C 0.90872 0.13419 0.9964 0.0
C2951 C 0.91004 0.15834 0.99686 0.0
C2952 C 0.907 0.1675 0.97288 0.0
C2953 C 0.8857 0.18201 0.9714 0.0
C2954 C 0.92878 0.18158 0.96548 0.0
C2955 C 0.90353 0.14474 0.95896 0.0
C2956 C 0.90485 0.12569 0.97275 0.0
C2957 C 0.90278 0.10282 0.96357 0.0
C2958 C 0.89928 0.09941 0.9396 0.0
C2959 C 0.89755 0.11878 0.92536 0.0
C2960 C 0.89967 0.14164 0.93519 0.0
H2961 H 0.13844 0.69157 0.18361 0.0
H2962 H 0.13341 0.61798 0.16312 0.0
H2963 H 0.11821 0.60856 0.20147 0.0
H2964 H 0.15905 0.68135 0.24189 0.0
H2965 H 0.14497 0.70593 0.25416 0.0
H2966 H 0.15435 0.70625 0.22466 0.0
H2967 H 0.1129 0.71408 0.21156 0.0
H2968 H 0.10319 0.71291 0.24095 0.0
H2969 H 0.08942 0.69388 0.21875 0.0
H2970 H 0.10202 0.60753 0.24209 0.0
H2971 H 0.09594 0.61363 0.28414 0.0
H2972 H 0.11429 0.68724 0.27893 0.0
C2973 C 0.13424 0.67341 0.18714 0.0
C2974 C 0.13618 0.65561 0.16982 0.0
C2975 C 0.13122 0.63206 0.17557 0.0
C2976 C 0.12254 0.62654 0.19741 0.0
C2977 C 0.11957 0.6447 0.21359 0.0
C2978 C 0.12613 0.66756 0.20898 0.0
C2979 C 0.12335 0.68364 0.22998 0.0
C2980 C 0.14682 0.69495 0.23816 0.0
C2981 C 0.10619 0.70222 0.225 0.0
C2982 C 0.1138 0.66634 0.24712 0.0
C2983 C 0.11136 0.64401 0.2372 0.0
C2984 C 0.10373 0.62496 0.24994 0.0
C2985 C 0.09986 0.62861 0.27369 0.0
C2986 C 0.10381 0.65102 0.28451 0.0
C2987 C 0.11011 0.67019 0.27083 0.0
H2988 H 0.61248 0.18002 0.99263 0.0
H2989 H 0.61121 0.11629 0.94989 0.0
H2990 H 0.61748 0.09353 0.98446 0.0
H2991 H 0.65698 0.16324 0.034 0.0
H2992 H 0.64348 0.17684 0.05842 0.0
H2993 H 0.64051 0.18846 0.03005 0.0
H2994 H 0.59612 0.18442 0.03317 0.0
H2995 H 0.59906 0.17305 0.06157 0.0
H2996 H 0.58232 0.15647 0.03953 0.0
H2997 H 0.62183 0.07714 0.02441 0.0
H2998 H 0.62159 0.06899 0.06639 0.0
H2999 H 0.62033 0.14315 0.08261 0.0
C3000 C 0.61375 0.16132 0.99056 0.0
C3001 C 0.61094 0.14998 0.96853 0.0
C3002 C 0.61263 0.1254 0.96659 0.0
C3003 C 0.61655 0.11229 0.98614 0.0
C3004 C 0.61898 0.12396 1.00763 0.0
C3005 C 0.61766 0.14794 0.00996 0.0
C3006 C 0.61962 0.15608 0.03515 0.0
C3007 C 0.64145 0.1721 0.03966 0.0
C3008 C 0.59799 0.16821 0.0428 0.0
C3009 C 0.62147 0.13289 0.04661 0.0
C3010 C 0.62152 0.11456 0.03049 0.0
C3011 C 0.62208 0.0914 0.03718 0.0
C3012 C 0.62204 0.08689 0.06098 0.0
C3013 C 0.62126 0.10545 0.07759 0.0
C3014 C 0.62134 0.12867 0.07025 0.0
H3015 H 0.11336 0.33029 0.22228 0.0
H3016 H 0.1076 0.3995 0.19621 0.0
H3017 H 0.10757 0.41593 0.23647 0.0
H3018 H 0.0807 0.33814 0.27703 0.0
H3019 H 0.10039 0.321 0.29245 0.0
H3020 H 0.09444 0.31475 0.26213 0.0
H3021 H 0.13818 0.31915 0.25441 0.0
H3022 H 0.14425 0.32628 0.28447 0.0
H3023 H 0.15404 0.34614 0.26275 0.0
H3024 H 0.11442 0.42498 0.2793 0.0
H3025 H 0.12404 0.42556 0.32122 0.0
H3026 H 0.12775 0.35027 0.31774 0.0
C3027 C 0.11131 0.34879 0.22513 0.0
C3028 C 0.11048 0.36372 0.2064 0.0
C3029 C 0.10791 0.38785 0.21051 0.0
C3030 C 0.10808 0.39727 0.23325 0.0
C3031 C 0.11061 0.38217 0.25138 0.0
C3032 C 0.11178 0.35836 0.24751 0.0
C3033 C 0.11704 0.34609 0.26942 0.0
C3034 C 0.09694 0.32899 0.27563 0.0
C3035 C 0.13972 0.3337 0.26764 0.0
C3036 C 0.11934 0.36675 0.28622 0.0
C3037 C 0.11533 0.38741 0.27566 0.0
C3038 C 0.11725 0.40887 0.28779 0.0
C3039 C 0.12284 0.40905 0.31146 0.0
C3040 C 0.12671 0.38794 0.32247 0.0
C3041 C 0.12515 0.36665 0.30961 0.0
H3042 H 0.90174 0.93855 0.54645 0.0
H3043 H 0.96105 0.91307 0.58157 0.0
H3044 H 0.969 0.88873 0.54693 0.0
H3045 H 0.88343 0.88506 0.51739 0.0
H3046 H 0.87455 0.89805 0.49104 0.0
H3047 H 0.87412 0.91448 0.51813 0.0
H3048 H 0.90015 0.94751 0.50109 0.0
H3049 H 0.90062 0.93122 0.47389 0.0
H3050 H 0.92721 0.94072 0.48858 0.0
H3051 H 0.96887 0.86461 0.50932 0.0
H3052 H 0.96179 0.84449 0.47094 0.0
H3053 H 0.90392 0.88652 0.45894 0.0
C3054 C 0.91671 0.92826 0.54672 0.0
C3055 C 0.93073 0.92781 0.56699 0.0
C3056 C 0.94988 0.91368 0.56653 0.0
C3057 C 0.9546 0.89978 0.54682 0.0
C3058 C 0.94016 0.90023 0.52739 0.0
C3059 C 0.92174 0.9143 0.52707 0.0
C3060 C 0.90856 0.91105 0.50412 0.0
C3061 C 0.88369 0.9016 0.50791 0.0
C3062 C 0.90918 0.93399 0.49115 0.0
C3063 C 0.92236 0.89288 0.49164 0.0
C3064 C 0.94047 0.88681 0.50546 0.0
C3065 C 0.95495 0.86951 0.49827 0.0
C3066 C 0.95085 0.85815 0.47649 0.0
C3067 C 0.93261 0.86422 0.46194 0.0
C3068 C 0.91826 0.88191 0.4696 0.0
H3069 H 0.38304 0.65137 0.71178 0.0
H3070 H 0.44684 0.67871 0.74469 0.0
H3071 H 0.43088 0.67005 0.78302 0.0
H3072 H 0.34394 0.67179 0.75625 0.0
H3073 H 0.32519 0.64565 0.75366 0.0
H3074 H 0.34102 0.65558 0.72897 0.0
H3075 H 0.35854 0.61534 0.72451 0.0
H3076 H 0.34294 0.60528 0.74926 0.0
H3077 H 0.37376 0.60405 0.74863 0.0
H3078 H 0.40969 0.65612 0.81684 0.0
H3079 H 0.38358 0.63875 0.8455 0.0
H3080 H 0.33262 0.62061 0.79143 0.0
C3081 C 0.39338 0.6561 0.72712 0.0
C3082 C 0.41609 0.66596 0.72542 0.0
C3083 C 0.42942 0.6712 0.74576 0.0
C3084 C 0.42048 0.66639 0.76752 0.0
C3085 C 0.39821 0.65629 0.76858 0.0
C3086 C 0.38475 0.65125 0.749 0.0
C3087 C 0.36181 0.63922 0.755 0.0
C3088 C 0.3418 0.65395 0.74807 0.0
C3089 C 0.35912 0.61451 0.74368 0.0
C3090 C 0.36448 0.63839 0.7811 0.0
C3091 C 0.38572 0.64827 0.7884 0.0
C3092 C 0.39292 0.64862 0.81143 0.0
C3093 C 0.37803 0.63868 0.82753 0.0
C3094 C 0.35615 0.6286 0.82059 0.0
C3095 C 0.34916 0.62855 0.79711 0.0
H3096 H 0.48421 0.58425 0.8535 0.0
H3097 H 0.51988 0.60467 0.91799 0.0
H3098 H 0.48268 0.60477 0.93799 0.0
H3099 H 0.43848 0.61938 0.85962 0.0
H3100 H 0.41696 0.59853 0.84727 0.0
H3101 H 0.44645 0.59706 0.83903 0.0
H3102 H 0.44565 0.55397 0.85127 0.0
H3103 H 0.41613 0.55548 0.85983 0.0
H3104 H 0.43741 0.54687 0.88022 0.0
H3105 H 0.44108 0.6074 0.94992 0.0
H3106 H 0.39932 0.61347 0.95195 0.0
H3107 H 0.39115 0.591 0.87997 0.0
C3108 C 0.48419 0.58845 0.87189 0.0
C3109 C 0.50502 0.59439 0.88418 0.0
C3110 C 0.50424 0.59972 0.90826 0.0
C3111 C 0.48315 0.59984 0.91977 0.0
C3112 C 0.46291 0.59418 0.90709 0.0
C3113 C 0.4633 0.58838 0.88368 0.0
C3114 C 0.43913 0.58438 0.87368 0.0
C3115 C 0.43502 0.60082 0.85374 0.0
C3116 C 0.43431 0.55865 0.86578 0.0
C3117 C 0.42512 0.59036 0.89474 0.0
C3118 C 0.43905 0.59536 0.91403 0.0
C3119 C 0.42998 0.60296 0.93506 0.0
C3120 C 0.40623 0.60619 0.93617 0.0
C3121 C 0.39193 0.60195 0.91637 0.0
C3122 C 0.40151 0.59351 0.89561 0.0
H3123 H 0.66583 0.30562 0.07538 0.0
H3124 H 0.69597 0.33846 0.13855 0.0
H3125 H 0.69516 0.3002 0.15627 0.0
H3126 H 0.62679 0.26655 0.10321 0.0
H3127 H 0.62922 0.24268 0.08245 0.0
H3128 H 0.63393 0.27234 0.07365 0.0
H3129 H 0.67419 0.26314 0.05864 0.0
H3130 H 0.66945 0.23339 0.06725 0.0
H3131 H 0.69445 0.25075 0.07783 0.0
H3132 H 0.68796 0.25886 0.16867 0.0
H3133 H 0.67661 0.21754 0.17406 0.0
H3134 H 0.65203 0.21087 0.10264 0.0
C3135 C 0.67238 0.30497 0.0929 0.0
C3136 C 0.68097 0.32553 0.10538 0.0
C3137 C 0.68951 0.32332 0.12828 0.0
C3138 C 0.68903 0.30153 0.13865 0.0
C3139 C 0.67998 0.28188 0.12602 0.0
C3140 C 0.67195 0.28334 0.10358 0.0
C3141 C 0.66223 0.25965 0.09415 0.0
C3142 C 0.63652 0.26036 0.08801 0.0
C3143 C 0.67591 0.25124 0.07323 0.0
C3144 C 0.66587 0.24473 0.1149 0.0
C3145 C 0.67612 0.25792 0.13308 0.0
C3146 C 0.68027 0.24829 0.1544 0.0
C3147 C 0.67386 0.22459 0.15722 0.0
C3148 C 0.66356 0.21046 0.13877 0.0
C3149 C 0.65964 0.22092 0.11729 0.0
H3150 H 0.96886 0.38209 0.35345 0.0
H3151 H 0.95921 0.44974 0.38674 0.0
H3152 H 0.99592 0.44708 0.40837 0.0
H3153 H 0.99041 0.35531 0.40148 0.0
H3154 H 0.01047 0.33881 0.38523 0.0
H3155 H 0.98444 0.3471 0.37152 0.0
H3156 H 0.00808 0.3677 0.33957 0.0
H3157 H 0.03417 0.35906 0.35296 0.0
H3158 H 0.0306 0.38943 0.3478 0.0
H3159 H 0.03516 0.43549 0.42711 0.0
H3160 H 0.07084 0.41703 0.43908 0.0
H3161 H 0.05124 0.35695 0.39391 0.0
C3162 C 0.97436 0.39676 0.3648 0.0
C3163 C 0.96076 0.41621 0.36805 0.0
C3164 C 0.96903 0.43455 0.38377 0.0
C3165 C 0.98997 0.43319 0.3962 0.0
C3166 C 1.00254 0.41337 0.39283 0.0
C3167 C 0.99491 0.39562 0.37733 0.0
C3168 C 0.01079 0.37577 0.37689 0.0
C3169 C 0.99827 0.35291 0.38422 0.0
C3170 C 0.02155 0.37283 0.35289 0.0
C3171 C 0.02852 0.3848 0.39481 0.0
C3172 C 0.02387 0.4066 0.4038 0.0
C3173 C 0.03875 0.41835 0.42016 0.0
C3174 C 0.05893 0.40768 0.42701 0.0
C3175 C 0.06392 0.38538 0.41768 0.0
C3176 C 0.04809 0.37387 0.4017 0.0
H3177 H 0.90857 0.80971 0.65589 0.0
H3178 H 0.90564 0.842 0.58925 0.0
H3179 H 0.89043 0.80477 0.57109 0.0
H3180 H 0.92822 0.75585 0.63486 0.0
H3181 H 0.91152 0.73772 0.65402 0.0
H3182 H 0.91992 0.76748 0.66268 0.0
H3183 H 0.87728 0.77553 0.66959 0.0
H3184 H 0.86875 0.74578 0.66074 0.0
H3185 H 0.85643 0.76962 0.64648 0.0
H3186 H 0.87746 0.76497 0.55946 0.0
H3187 H 0.87079 0.72246 0.55382 0.0
H3188 H 0.88323 0.71379 0.62708 0.0
C3189 C 0.90451 0.80883 0.63754 0.0
C3190 C 0.90841 0.8286 0.62386 0.0
C3191 C 0.90307 0.82693 0.5999 0.0
C3192 C 0.89418 0.80596 0.58949 0.0
C3193 C 0.89068 0.78674 0.60325 0.0
C3194 C 0.89581 0.78775 0.62669 0.0
C3195 C 0.89194 0.76377 0.63684 0.0
C3196 C 0.91423 0.75574 0.64773 0.0
C3197 C 0.87244 0.76368 0.65446 0.0
C3198 C 0.8848 0.74914 0.6152 0.0
C3199 C 0.88364 0.76303 0.59624 0.0
C3200 C 0.87824 0.75385 0.57414 0.0
C3201 C 0.8746 0.72968 0.57109 0.0
C3202 C 0.87669 0.71483 0.58993 0.0
C3203 C 0.88125 0.72475 0.61243 0.0
H3204 H 0.51117 0.41972 0.66535 0.0
H3205 H 0.54469 0.35462 0.67059 0.0
H3206 H 0.50788 0.33268 0.66026 0.0
H3207 H 0.45367 0.39901 0.68499 0.0
H3208 H 0.43958 0.41638 0.66436 0.0
H3209 H 0.46734 0.42626 0.67629 0.0
H3210 H 0.48315 0.42941 0.63472 0.0
H3211 H 0.45562 0.41917 0.62267 0.0
H3212 H 0.4809 0.40407 0.61529 0.0
H3213 H 0.46739 0.31821 0.64555 0.0
H3214 H 0.42799 0.31311 0.62824 0.0
H3215 H 0.4236 0.38821 0.62966 0.0
C3216 C 0.5108 0.40084 0.66467 0.0
C3217 C 0.53089 0.38894 0.66872 0.0
C3218 C 0.52948 0.36416 0.66787 0.0
C3219 C 0.50866 0.35156 0.66187 0.0
C3220 C 0.48945 0.36401 0.65684 0.0
C3221 C 0.4904 0.38814 0.6584 0.0
C3222 C 0.46823 0.39771 0.65021 0.0
C3223 C 0.45652 0.4106 0.67016 0.0
C3224 C 0.47223 0.41351 0.6295 0.0
C3225 C 0.45481 0.37528 0.64305 0.0
C3226 C 0.467 0.35591 0.6474 0.0
C3227 C 0.45776 0.3333 0.6421 0.0
C3228 C 0.43551 0.33054 0.63218 0.0
C3229 C 0.42316 0.35032 0.62721 0.0
C3230 C 0.43297 0.37285 0.63282 0.0
H3231 H 0.89319 0.27052 0.90913 0.0
H3232 H 0.84494 0.30744 0.86793 0.0
H3233 H 0.84253 0.27503 0.83946 0.0
H3234 H 0.92216 0.24297 0.86008 0.0
H3235 H 0.92496 0.21593 0.87451 0.0
H3236 H 0.92495 0.2431 0.89116 0.0
H3237 H 0.89109 0.22657 0.91534 0.0
H3238 H 0.89126 0.1993 0.89905 0.0
H3239 H 0.86522 0.21468 0.90074 0.0
H3240 H 0.84334 0.23808 0.81593 0.0
H3241 H 0.84391 0.19699 0.80172 0.0
H3242 H 0.89014 0.18273 0.85809 0.0
C3243 C 0.88223 0.2721 0.89412 0.0
C3244 C 0.86972 0.29231 0.89097 0.0
C3245 C 0.85523 0.29283 0.87102 0.0
C3246 C 0.85372 0.27434 0.85448 0.0
C3247 C 0.86659 0.2551 0.85796 0.0
C3248 C 0.88034 0.25363 0.87742 0.0
C3249 C 0.89107 0.23012 0.8777 0.0
C3250 C 0.91734 0.23322 0.87575 0.0
C3251 C 0.88423 0.21689 0.89949 0.0
C3252 C 0.88033 0.2183 0.85585 0.0
C3253 C 0.86679 0.23334 0.84443 0.0
C3254 C 0.85417 0.22624 0.82448 0.0
C3255 C 0.85472 0.20294 0.81641 0.0
C3256 C 0.86781 0.18699 0.82817 0.0
C3257 C 0.88101 0.19488 0.848 0.0
H3258 H 0.02423 0.64274 0.10175 0.0
H3259 H 0.06003 0.57869 0.09792 0.0
H3260 H 0.02846 0.55837 0.11852 0.0
H3261 H 0.00851 0.63997 0.15597 0.0
H3262 H 0.98014 0.65064 0.1534 0.0
H3263 H 1.0017 0.65881 0.13284 0.0
H3264 H 0.97545 0.6423 0.09868 0.0
H3265 H 0.95335 0.63501 0.11917 0.0
H3266 H 0.96303 0.61282 0.09943 0.0
H3267 H 0.99714 0.54726 0.14602 0.0
H3268 H 0.96596 0.54557 0.17503 0.0
H3269 H 0.95201 0.6171 0.16197 0.0
C3270 C 0.02483 0.62418 0.10435 0.0
C3271 C 0.04432 0.6122 0.09813 0.0
C3272 C 0.04493 0.58803 0.10212 0.0
C3273 C 0.02716 0.57637 0.11395 0.0
C3274 C 0.00883 0.58909 0.12126 0.0
C3275 C 1.00721 0.61232 0.11607 0.0
C3276 C 0.98715 0.62275 0.12803 0.0
C3277 C 0.99486 0.6443 0.14347 0.0
C3278 C 0.96865 0.62857 0.11027 0.0
C3279 C 0.97898 0.60241 0.14221 0.0
C3280 C 0.99123 0.58292 0.13767 0.0
C3281 C 0.98721 0.56231 0.14949 0.0
C3282 C 0.96984 0.56153 0.16606 0.0
C3283 C 0.95738 0.58141 0.17084 0.0
C3284 C 0.96192 0.60197 0.15877 0.0
H3285 H 0.66555 0.76492 0.41331 0.0
H3286 H 0.73405 0.75502 0.38846 0.0
H3287 H 0.73058 0.78805 0.36213 0.0
H3288 H 0.64178 0.77918 0.3566 0.0
H3289 H 0.62281 0.7997 0.36909 0.0
H3290 H 0.63078 0.77504 0.38523 0.0
H3291 H 0.64606 0.80285 0.41923 0.0
H3292 H 0.63726 0.82707 0.40307 0.0
H3293 H 0.66665 0.82651 0.41328 0.0
H3294 H 0.71971 0.82396 0.33993 0.0
H3295 H 0.70308 0.85893 0.32458 0.0
H3296 H 0.64125 0.8442 0.36364 0.0
C3297 C 0.67988 0.76991 0.40247 0.0
C3298 C 0.70033 0.7579 0.40327 0.0
C3299 C 0.71843 0.76432 0.38828 0.0
C3300 C 0.71651 0.78292 0.37323 0.0
C3301 C 0.6961 0.79452 0.37294 0.0
C3302 C 0.67803 0.78803 0.38702 0.0
C3303 C 0.65788 0.80305 0.38341 0.0
C3304 C 0.63709 0.78836 0.37296 0.0
C3305 C 0.65162 0.81562 0.40612 0.0
C3306 C 0.66784 0.82001 0.36614 0.0
C3307 C 0.68974 0.81458 0.35993 0.0
C3308 C 0.70254 0.82827 0.34469 0.0
C3309 C 0.69298 0.8483 0.33611 0.0
C3310 C 0.67092 0.85477 0.34297 0.0
C3311 C 0.6581 0.83991 0.35779 0.0
H3312 H 0.89676 0.43424 0.67411 0.0
H3313 H 0.92865 0.41109 0.6107 0.0
H3314 H 0.92167 0.44902 0.59354 0.0
H3315 H 0.85224 0.46194 0.64833 0.0
H3316 H 0.85204 0.48577 0.66948 0.0
H3317 H 0.86195 0.45806 0.67761 0.0
H3318 H 0.90084 0.47816 0.69191 0.0
H3319 H 0.89093 0.50603 0.68416 0.0
H3320 H 0.91741 0.49626 0.67262 0.0
H3321 H 0.90882 0.48962 0.58271 0.0
H3322 H 0.89143 0.52788 0.57951 0.0
H3323 H 0.86718 0.52301 0.64972 0.0
C3324 C 0.90288 0.43725 0.65682 0.0
C3325 C 0.91334 0.41952 0.64382 0.0
C3326 C 0.92058 0.42428 0.62105 0.0
C3327 C 0.9167 0.44584 0.61116 0.0
C3328 C 0.90564 0.46261 0.62427 0.0
C3329 C 0.89902 0.45855 0.6467 0.0
C3330 C 0.88628 0.4787 0.65681 0.0
C3331 C 0.86167 0.47063 0.66343 0.0
C3332 C 0.89967 0.49048 0.67761 0.0
C3333 C 0.88626 0.49459 0.63647 0.0
C3334 C 0.89778 0.48527 0.61791 0.0
C3335 C 0.89987 0.49703 0.59722 0.0
C3336 C 0.88998 0.51877 0.59555 0.0
C3337 C 0.87779 0.52838 0.61429 0.0
C3338 C 0.87607 0.51602 0.63497 0.0
H3339 H 0.41341 0.98836 0.39778 0.0
H3340 H 0.35643 0.98139 0.44479 0.0
H3341 H 0.35978 0.02445 0.45277 0.0
H3342 H 0.44586 0.03926 0.42523 0.0
H3343 H 0.45245 0.05104 0.39745 0.0
H3344 H 0.44883 0.01988 0.40036 0.0
H3345 H 0.41772 0.01782 0.3677 0.0
H3346 H 0.42076 0.04896 0.36505 0.0
H3347 H 0.39299 0.03503 0.37077 0.0
H3348 H 0.36753 0.06952 0.45165 0.0
H3349 H 0.37719 0.11016 0.44117 0.0
H3350 H 0.42505 0.0859 0.39026 0.0
C3351 C 0.4017 0.99571 0.40999 0.0
C3352 C 0.38439 0.98151 0.42039 0.0
C3353 C 0.36986 0.99191 0.43668 0.0
C3354 C 0.37163 0.01635 0.44118 0.0
C3355 C 0.38796 0.02996 0.4292 0.0
C3356 C 0.40276 0.0198 0.41398 0.0
C3357 C 0.41669 0.03779 0.40073 0.0
C3358 C 0.44249 0.03693 0.40629 0.0
C3359 C 0.41174 0.03471 0.37452 0.0
C3360 C 0.40733 0.05993 0.4105 0.0
C3361 C 0.39116 0.05524 0.42727 0.0
C3362 C 0.38012 0.0732 0.43849 0.0
C3363 C 0.38562 0.09633 0.43224 0.0
C3364 C 0.40163 0.10137 0.41453 0.0
C3365 C 0.41267 0.08278 0.40375 0.0
H3366 H 0.27869 0.10196 0.69632 0.0
H3367 H 0.27901 0.06594 0.62936 0.0
H3368 H 0.23924 0.07611 0.62189 0.0
H3369 H 0.21309 0.08623 0.70649 0.0
H3370 H 0.21038 0.11402 0.72141 0.0
H3371 H 0.2368 0.09938 0.72368 0.0
H3372 H 0.25878 0.13671 0.70976 0.0
H3373 H 0.2324 0.15105 0.70634 0.0
H3374 H 0.25128 0.14806 0.68214 0.0
H3375 H 0.20712 0.10074 0.6165 0.0
H3376 H 0.17466 0.12565 0.61866 0.0
H3377 H 0.18968 0.14072 0.69176 0.0
C3378 C 0.2697 0.09488 0.68088 0.0
C3379 C 0.28165 0.08305 0.66339 0.0
C3380 C 0.26985 0.07472 0.64295 0.0
C3381 C 0.24742 0.08067 0.63848 0.0
C3382 C 0.2368 0.09422 0.65507 0.0
C3383 C 0.24686 0.10016 0.67643 0.0
C3384 C 0.23164 0.11574 0.69055 0.0
C3385 C 0.22243 0.10308 0.71179 0.0
C3386 C 0.2443 0.13928 0.6976 0.0
C3387 C 0.21252 0.11889 0.67307 0.0
C3388 C 0.21619 0.10656 0.65266 0.0
C3389 C 0.20308 0.10923 0.63282 0.0
C3390 C 0.18459 0.12348 0.6343 0.0
C3391 C 0.17855 0.13405 0.65577 0.0
C3392 C 0.19333 0.13242 0.67523 0.0
H3393 H 0.13294 0.96566 0.86728 0.0
H3394 H 0.09778 0.95751 0.93248 0.0
H3395 H 0.11185 0.99751 0.94497 0.0
H3396 H 0.18343 0.99534 0.89202 0.0
H3397 H 0.18801 0.01389 0.86781 0.0
H3398 H 0.17373 0.98534 0.86344 0.0
H3399 H 0.13876 1.00379 0.84461 0.0
H3400 H 0.15301 0.03237 0.84882 0.0
H3401 H 0.12474 0.02649 0.86029 0.0
H3402 H 0.13115 0.03848 0.95072 0.0
H3403 H 0.15365 0.07633 0.94895 0.0
H3404 H 0.17711 0.0561 0.8807 0.0
C3405 C 0.12818 0.97211 0.88425 0.0
C3406 C 0.11416 0.95826 0.89883 0.0
C3407 C 0.10813 0.96781 0.92074 0.0
C3408 C 0.11622 0.99048 0.9281 0.0
C3409 C 0.13042 1.00337 0.91343 0.0
C3410 C 0.13632 0.99447 0.89197 0.0
C3411 C 0.15246 0.01138 0.87973 0.0
C3412 C 0.17578 1.00086 0.87551 0.0
C3413 C 0.14158 0.01896 0.85702 0.0
C3414 C 0.15465 0.03132 0.89758 0.0
C3415 C 0.14181 0.02646 0.91691 0.0
C3416 C 0.1412 0.04244 0.93562 0.0
C3417 C 0.15396 0.06394 0.93443 0.0
C3418 C 0.16724 0.0692 0.91473 0.0
C3419 C 0.16749 0.05253 0.89616 0.0
H3420 H 0.7913 0.3762 0.6164 0.0
H3421 H 0.81166 0.32483 0.66456 0.0
H3422 H 0.77639 0.33019 0.68688 0.0
H3423 H 0.77189 0.41511 0.65526 0.0
H3424 H 0.74744 0.42348 0.63873 0.0
H3425 H 0.77178 0.41252 0.62408 0.0
H3426 H 0.74556 0.37999 0.60314 0.0
H3427 H 0.72096 0.39115 0.6174 0.0
H3428 H 0.72717 0.36095 0.61992 0.0
H3429 H 0.74152 0.34542 0.7069 0.0
H3430 H 0.70889 0.36784 0.72117 0.0
H3431 H 0.71225 0.40889 0.65989 0.0
C3432 C 0.78778 0.36544 0.6311 0.0
C3433 C 0.80382 0.34983 0.63857 0.0
C3434 C 0.79915 0.33643 0.65825 0.0
C3435 C 0.77928 0.33947 0.67112 0.0
C3436 C 0.76413 0.35567 0.66378 0.0
C3437 C 0.76793 0.36807 0.64393 0.0
C3438 C 0.74999 0.38562 0.64063 0.0
C3439 C 0.76095 0.41065 0.63963 0.0
C3440 C 0.73504 0.37903 0.61899 0.0
C3441 C 0.73645 0.38226 0.66242 0.0
C3442 C 0.74446 0.36462 0.6754 0.0
C3443 C 0.73493 0.35907 0.69671 0.0
C3444 C 0.71663 0.37188 0.70477 0.0
C3445 C 0.70864 0.39017 0.69172 0.0
C3446 C 0.71851 0.39518 0.67027 0.0
H3447 H 0.57298 0.56834 0.12294 0.0
H3448 H 0.60809 0.61037 0.17788 0.0
H3449 H 0.64218 0.58693 0.17324 0.0
H3450 H 0.59543 0.51349 0.14244 0.0
H3451 H 0.5965 0.50085 0.11353 0.0
H3452 H 0.57541 0.52159 0.12052 0.0
H3453 H 0.59007 0.54715 0.08716 0.0
H3454 H 0.61138 0.52661 0.08032 0.0
H3455 H 0.62003 0.55691 0.08649 0.0
H3456 H 0.67408 0.56087 0.15957 0.0
H3457 H 0.69774 0.52966 0.1453 0.0
H3458 H 0.6401 0.50005 0.10322 0.0
C3459 C 0.5879 0.57281 0.13394 0.0
C3460 C 0.58813 0.59235 0.14994 0.0
C3461 C 0.60764 0.59646 0.16476 0.0
C3462 C 0.62715 0.58309 0.16225 0.0
C3463 C 0.62672 0.56485 0.14547 0.0
C3464 C 0.60723 0.55912 0.13217 0.0
C3465 C 0.61038 0.5372 0.117 0.0
C3466 C 0.59342 0.5171 0.12378 0.0
C3467 C 0.60781 0.54229 0.09121 0.0
C3468 C 0.63503 0.53197 0.12315 0.0
C3469 C 0.64417 0.54834 0.13941 0.0
C3470 C 0.66684 0.54772 0.14724 0.0
C3471 C 0.6802 0.52961 0.13901 0.0
C3472 C 0.67098 0.51153 0.12341 0.0
C3473 C 0.64801 0.51323 0.1151 0.0
H3474 H 0.25796 0.93042 0.88091 0.0
H3475 H 0.29113 0.86574 0.86756 0.0
H3476 H 0.25317 0.8441 0.86584 0.0
H3477 H 0.21726 0.90901 0.9188 0.0
H3478 H 0.19435 0.92603 0.90871 0.0
H3479 H 0.22374 0.93659 0.9056 0.0
H3480 H 0.21687 0.93996 0.86151 0.0
H3481 H 0.18739 0.9293 0.86458 0.0
H3482 H 0.20567 0.91475 0.84454 0.0
H3483 H 0.21096 0.829 0.86851 0.0
H3484 H 0.16945 0.82232 0.87747 0.0
H3485 H 0.16537 0.89664 0.89118 0.0
C3486 C 0.25727 0.91175 0.87739 0.0
C3487 C 0.27761 0.89986 0.87427 0.0
C3488 C 0.27584 0.87536 0.86961 0.0
C3489 C 0.25431 0.86288 0.86865 0.0
C3490 C 0.23461 0.87512 0.87217 0.0
C3491 C 0.23596 0.89907 0.87634 0.0
C3492 C 0.21251 0.90801 0.88106 0.0
C3493 C 0.21195 0.92063 0.90497 0.0
C3494 C 0.20518 0.92395 0.86177 0.0
C3495 C 0.19799 0.88523 0.88026 0.0
C3496 C 0.21077 0.86646 0.8744 0.0
C3497 C 0.20079 0.84363 0.87296 0.0
C3498 C 0.17726 0.83994 0.87802 0.0
C3499 C 0.16432 0.85893 0.885 0.0
C3500 C 0.17485 0.88178 0.88582 0.0
H3501 H 0.27928 0.15049 0.43168 0.0
H3502 H 0.30446 0.1756 0.36625 0.0
H3503 H 0.26855 0.16033 0.34685 0.0
H3504 H 0.25456 0.09784 0.41115 0.0
H3505 H 0.22942 0.09754 0.42898 0.0
H3506 H 0.25545 0.11354 0.43876 0.0
H3507 H 0.23364 0.1514 0.44358 0.0
H3508 H 0.20738 0.13545 0.43414 0.0
H3509 H 0.2173 0.16126 0.4195 0.0
H3510 H 0.23153 0.13904 0.33364 0.0
H3511 H 0.19521 0.11429 0.32834 0.0
H3512 H 0.19482 0.10177 0.40163 0.0
C3513 C 0.27702 0.15317 0.41337 0.0
C3514 C 0.29464 0.16446 0.40057 0.0
C3515 C 0.29105 0.16752 0.37658 0.0
C3516 C 0.27074 0.15875 0.36533 0.0
C3517 C 0.25403 0.14712 0.37829 0.0
C3518 C 0.25676 0.14461 0.40185 0.0
C3519 C 0.23661 0.13037 0.41151 0.0
C3520 C 0.2445 0.10853 0.42328 0.0
C3521 C 0.22292 0.14552 0.42817 0.0
C3522 C 0.22294 0.12403 0.38949 0.0
C3523 C 0.23297 0.13433 0.37058 0.0
C3524 C 0.22346 0.13098 0.34833 0.0
C3525 C 0.20303 0.11686 0.34541 0.0
C3526 C 0.19279 0.10595 0.3645 0.0
C3527 C 0.20279 0.10964 0.38678 0.0
H3528 H 0.38067 0.12785 0.61612 0.0
H3529 H 0.40782 0.06175 0.59584 0.0
H3530 H 0.40795 0.07324 0.55496 0.0
H3531 H 0.34482 0.13434 0.56111 0.0
H3532 H 0.3513 0.16547 0.56191 0.0
H3533 H 0.34926 0.15006 0.5885 0.0
H3534 H 0.38999 0.16712 0.60026 0.0
H3535 H 0.3924 0.18196 0.57346 0.0
H3536 H 0.41374 0.16208 0.58144 0.0
H3537 H 0.4104 0.09416 0.51739 0.0
H3538 H 0.41282 0.12119 0.4857 0.0
H3539 H 0.3839 0.17457 0.5299 0.0
C3540 C 0.38536 0.11528 0.60287 0.0
C3541 C 0.39324 0.09339 0.60903 0.0
C3542 C 0.40086 0.07813 0.5914 0.0
C3543 C 0.40116 0.08465 0.56815 0.0
C3544 C 0.39393 0.10662 0.56272 0.0
C3545 C 0.38578 0.12159 0.57953 0.0
C3546 C 0.38086 0.14497 0.5694 0.0
C3547 C 0.35502 0.14894 0.57028 0.0
C3548 C 0.39511 0.16521 0.58189 0.0
C3549 C 0.38855 0.14121 0.54457 0.0
C3550 C 0.3957 0.11886 0.54105 0.0
C3551 C 0.40447 0.11157 0.51989 0.0
C3552 C 0.40582 0.12733 0.50181 0.0
C3553 C 0.39847 0.15046 0.50468 0.0
C3554 C 0.38969 0.15725 0.52661 0.0
H3555 H 0.6747 0.63866 0.34293 0.0
H3556 H 0.69609 0.71189 0.34063 0.0
H3557 H 0.68037 0.71294 0.30096 0.0
H3558 H 0.67836 0.62371 0.27652 0.0
H3559 H 0.65279 0.60464 0.27833 0.0
H3560 H 0.67302 0.60759 0.30229 0.0
H3561 H 0.63977 0.61837 0.32904 0.0
H3562 H 0.61965 0.6168 0.30517 0.0
H3563 H 0.62363 0.64332 0.32279 0.0
H3564 H 0.65217 0.7093 0.26816 0.0
H3565 H 0.62093 0.69922 0.24008 0.0
H3566 H 0.61709 0.62789 0.26338 0.0
C3567 C 0.67787 0.65431 0.33325 0.0
C3568 C 0.68706 0.67507 0.34458 0.0
C3569 C 0.68982 0.69565 0.33195 0.0
C3570 C 0.68045 0.69649 0.30953 0.0
C3571 C 0.66885 0.67641 0.2999 0.0
C3572 C 0.66823 0.6554 0.31099 0.0
C3573 C 0.6517 0.63742 0.29871 0.0
C3574 C 0.66475 0.61714 0.28834 0.0
C3575 C 0.63258 0.62848 0.3149 0.0
C3576 C 0.64217 0.65199 0.2799 0.0
C3577 C 0.6524 0.67433 0.28075 0.0
C3578 C 0.64473 0.69157 0.2667 0.0
C3579 C 0.62677 0.68562 0.25077 0.0
C3580 C 0.61655 0.66253 0.24884 0.0
C3581 C 0.62439 0.64565 0.26394 0.0
H3582 H 0.11534 0.86295 0.08704 0.0
H3583 H 0.1007 0.9362 0.08543 0.0
H3584 H 0.09244 0.93158 0.04334 0.0
H3585 H 0.14432 0.86125 0.03235 0.0
H3586 H 0.13347 0.83174 0.02536 0.0
H3587 H 0.13811 0.84131 0.05514 0.0
H3588 H 0.09576 0.82884 0.06388 0.0
H3589 H 0.09078 0.81948 0.03411 0.0
H3590 H 0.07293 0.84062 0.0474 0.0
H3591 H 0.08655 0.91857 1.00138 0.0
H3592 H 0.08413 0.89894 0.96301 0.0
H3593 H 0.10165 0.83402 0.99372 0.0
C3594 C 0.11074 0.87816 0.07784 0.0
C3595 C 0.1087 0.89991 0.08938 0.0
C3596 C 0.10214 0.91928 0.07684 0.0
C3597 C 0.09753 0.91686 0.053 0.0
C3598 C 0.09965 0.89502 0.04221 0.0
C3599 C 0.10624 0.8761 0.05425 0.0
C3600 C 0.10752 0.85455 0.03883 0.0
C3601 C 0.13233 0.84676 0.03786 0.0
C3602 C 0.09074 0.83471 0.04651 0.0
C3603 C 0.10012 0.86411 0.01617 0.0
C3604 C 0.09588 0.8875 0.01835 0.0
C3605 C 0.08967 0.9002 0.99947 0.0
C3606 C 0.08816 0.88872 0.97769 0.0
C3607 C 0.09264 0.86469 0.97506 0.0
C3608 C 0.09828 0.85233 0.99479 0.0
H3609 H 0.90115 0.38569 0.73333 0.0
H3610 H 0.89747 0.31051 0.73663 0.0
H3611 H 0.88986 0.31367 0.77856 0.0
H3612 H 0.92757 0.39749 0.79434 0.0
H3613 H 0.91146 0.42312 0.79843 0.0
H3614 H 0.9209 0.41474 0.76995 0.0
H3615 H 0.87884 0.41483 0.75502 0.0
H3616 H 0.86909 0.42223 0.78358 0.0
H3617 H 0.85693 0.39642 0.7682 0.0
H3618 H 0.87485 0.3249 0.81795 0.0
H3619 H 0.86274 0.34355 0.85448 0.0
H3620 H 0.87777 0.4118 0.82655 0.0
C3621 C 0.90022 0.37005 0.74328 0.0
C3622 C 0.90062 0.34782 0.73195 0.0
C3623 C 0.89802 0.32762 0.74521 0.0
C3624 C 0.89332 0.32929 0.76894 0.0
C3625 C 0.89156 0.3514 0.77932 0.0
C3626 C 0.89579 0.3715 0.76715 0.0
C3627 C 0.89169 0.39306 0.78221 0.0
C3628 C 0.91425 0.40798 0.78649 0.0
C3629 C 0.87303 0.40747 0.7716 0.0
C3630 C 0.88348 0.38189 0.80427 0.0
C3631 C 0.88345 0.35785 0.80223 0.0
C3632 C 0.87532 0.34375 0.81989 0.0
C3633 C 0.8681 0.35452 0.84055 0.0
C3634 C 0.86934 0.37916 0.84366 0.0
C3635 C 0.87666 0.39291 0.82491 0.0
H3636 H 0.40821 0.93422 0.9634 0.0
H3637 H 0.34823 0.89948 0.92926 0.0
H3638 H 0.34699 0.86963 0.95921 0.0
H3639 H 0.43522 0.8837 0.98157 0.0
H3640 H 0.44468 0.89604 0.00944 0.0
H3641 H 0.44085 0.91483 0.98557 0.0
H3642 H 0.41291 0.93885 0.00975 0.0
H3643 H 0.41696 0.92025 0.03375 0.0
H3644 H 0.38842 0.92408 0.02271 0.0
H3645 H 0.35343 0.84239 0.99205 0.0
H3646 H 0.36409 0.82214 0.02692 0.0
H3647 H 0.41934 0.87511 0.04139 0.0
C3648 C 0.39469 0.92041 0.96231 0.0
C3649 C 0.37869 0.91882 0.94343 0.0
C3650 C 0.36106 0.90072 0.94305 0.0
C3651 C 0.3602 0.88371 0.96008 0.0
C3652 C 0.37671 0.88531 0.97794 0.0
C3653 C 0.39338 0.90346 0.97945 0.0
C3654 C 0.40872 0.90139 1.0008 0.0
C3655 C 0.43386 0.89883 0.99392 0.0
C3656 C 0.40662 0.92239 0.01775 0.0
C3657 C 0.39836 0.87898 0.01082 0.0
C3658 C 0.37995 0.87001 0.99729 0.0
C3659 C 0.36775 0.84937 1.00279 0.0
C3660 C 0.37417 0.83779 0.02272 0.0
C3661 C 0.3927 0.84669 0.03735 0.0
C3662 C 0.40499 0.86765 0.03097 0.0
H3663 H 0.91406 0.6305 0.81097 0.0
H3664 H 0.89191 0.70038 0.8233 0.0
H3665 H 0.88616 0.70419 0.78092 0.0
H3666 H 0.94298 0.641 0.75457 0.0
H3667 H 0.93342 0.61235 0.74319 0.0
H3668 H 0.93909 0.61707 0.77377 0.0
H3669 H 0.89793 0.6002 0.7821 0.0
H3670 H 0.89197 0.59588 0.7516 0.0
H3671 H 0.87362 0.61315 0.76921 0.0
H3672 H 0.87821 0.6978 0.73716 0.0
H3673 H 0.87182 0.68356 0.69664 0.0
H3674 H 0.89828 0.61709 0.71375 0.0
C3675 C 0.90884 0.64693 0.80463 0.0
C3676 C 0.90382 0.66533 0.82036 0.0
C3677 C 0.89644 0.68636 0.81153 0.0
C3678 C 0.8929 0.6885 0.7875 0.0
C3679 C 0.89704 0.66953 0.77255 0.0
C3680 C 0.90527 0.64929 0.78084 0.0
C3681 C 0.90697 0.63079 0.76163 0.0
C3682 C 0.93211 0.62496 0.75808 0.0
C3683 C 0.89171 0.60871 0.76643 0.0
C3684 C 0.89783 0.64343 0.7412 0.0
C3685 C 0.89231 0.66581 0.74775 0.0
C3686 C 0.88273 0.68039 0.73192 0.0
C3687 C 0.87894 0.67202 0.7089 0.0
C3688 C 0.88455 0.64913 0.70174 0.0
C3689 C 0.89416 0.63479 0.71833 0.0
H3690 H 0.10904 0.14119 0.46941 0.0
H3691 H 0.11134 0.06785 0.48511 0.0
H3692 H 0.09661 0.07653 0.52413 0.0
H3693 H 0.12872 0.16375 0.52576 0.0
H3694 H 0.11068 0.18817 0.52506 0.0
H3695 H 0.12104 0.17569 0.49849 0.0
H3696 H 0.07902 0.1696 0.48311 0.0
H3697 H 0.06844 0.18141 0.50991 0.0
H3698 H 0.05825 0.15266 0.49934 0.0
H3699 H 0.0791 0.0929 0.55983 0.0
H3700 H 0.07058 0.1165 0.59451 0.0
H3701 H 0.08079 0.17963 0.55564 0.0
C3702 C 0.10708 0.12697 0.48117 0.0
C3703 C 0.11123 0.1038 0.47413 0.0
C3704 C 0.10795 0.08569 0.49002 0.0
C3705 C 0.09949 0.09042 0.51213 0.0
C3706 C 0.09462 0.11332 0.51804 0.0
C3707 C 0.09889 0.13138 0.50327 0.0
C3708 C 0.09321 0.15461 0.51417 0.0
C3709 C 0.11469 0.17155 0.51599 0.0
C3710 C 0.07356 0.16519 0.50084 0.0
C3711 C 0.08552 0.14688 0.53766 0.0
C3712 C 0.08585 0.12295 0.53926 0.0
C3713 C 0.07942 0.11169 0.55919 0.0
C3714 C 0.07417 0.12536 0.57867 0.0
C3715 C 0.07528 0.15013 0.57798 0.0
C3716 C 0.08012 0.16083 0.55685 0.0
H3717 H 0.66107 0.42096 0.21535 0.0
H3718 H 0.66859 0.35203 0.18465 0.0
H3719 H 0.64971 0.33424 0.21841 0.0
H3720 H 0.66783 0.40286 0.2783 0.0
H3721 H 0.64717 0.42319 0.28767 0.0
H3722 H 0.66557 0.42988 0.2637 0.0
H3723 H 0.62947 0.43582 0.23839 0.0
H3724 H 0.61096 0.42841 0.26194 0.0
H3725 H 0.60763 0.41231 0.23463 0.0
H3726 H 0.62513 0.32446 0.25272 0.0
H3727 H 0.5992 0.32354 0.28647 0.0
H3728 H 0.60681 0.39892 0.29368 0.0
C3729 C 0.6597 0.40212 0.2164 0.0
C3730 C 0.66666 0.38773 0.19789 0.0
C3731 C 0.66384 0.36317 0.19911 0.0
C3732 C 0.65304 0.35298 0.21811 0.0
C3733 C 0.64539 0.36767 0.23573 0.0
C3734 C 0.64907 0.39172 0.23531 0.0
C3735 C 0.63754 0.40366 0.2554 0.0
C3736 C 0.6556 0.4156 0.27226 0.0
C3737 C 0.62038 0.42106 0.24707 0.0
C3738 C 0.62541 0.38278 0.26612 0.0
C3739 C 0.6306 0.36211 0.25495 0.0
C3740 C 0.62113 0.34054 0.26171 0.0
C3741 C 0.60632 0.34014 0.28064 0.0
C3742 C 0.60075 0.36117 0.29211 0.0
C3743 C 0.6104 0.38269 0.28472 0.0
H3744 H 0.60891 0.40196 0.11165 0.0
H3745 H 0.61405 0.46223 0.06879 0.0
H3746 H 0.57253 0.46713 0.07358 0.0
H3747 H 0.54592 0.38257 0.10522 0.0
H3748 H 0.54459 0.37872 0.13599 0.0
H3749 H 0.5707 0.37358 0.12084 0.0
H3750 H 0.59262 0.40263 0.14969 0.0
H3751 H 0.56658 0.409 0.16418 0.0
H3752 H 0.58426 0.43233 0.15231 0.0
H3753 H 0.5346 0.47241 0.0919 0.0
H3754 H 0.50198 0.47496 0.11843 0.0
H3755 H 0.52473 0.41497 0.1542 0.0
C3756 C 0.60115 0.41542 0.10224 0.0
C3757 C 0.61459 0.43162 0.08971 0.0
C3758 C 0.60383 0.4493 0.078 0.0
C3759 C 0.58032 0.45235 0.08092 0.0
C3760 C 0.56823 0.43795 0.09609 0.0
C3761 C 0.57829 0.41961 0.10641 0.0
C3762 C 0.5642 0.41051 0.12631 0.0
C3763 C 0.55584 0.38482 0.12179 0.0
C3764 C 0.57772 0.41382 0.14946 0.0
C3765 C 0.54464 0.42655 0.12559 0.0
C3766 C 0.54712 0.44211 0.10799 0.0
C3767 C 0.53218 0.45992 0.10536 0.0
C3768 C 0.51382 0.46137 0.12065 0.0
C3769 C 0.51061 0.44516 0.13843 0.0
C3770 C 0.52655 0.42778 0.14099 0.0
H3771 H 0.36324 0.71378 0.92975 0.0
H3772 H 0.2976 0.69728 0.89477 0.0
H3773 H 0.2981 0.7374 0.88063 0.0
H3774 H 0.35176 0.77282 0.94804 0.0
H3775 H 0.38093 0.78386 0.94377 0.0
H3776 H 0.37512 0.75392 0.95134 0.0
H3777 H 0.39678 0.73996 0.91495 0.0
H3778 H 0.40263 0.76984 0.90729 0.0
H3779 H 0.38814 0.74931 0.88686 0.0
H3780 H 0.30566 0.77933 0.87093 0.0
H3781 H 0.32008 0.81991 0.86539 0.0
H3782 H 0.38145 0.80808 0.90583 0.0
C3783 C 0.34879 0.71867 0.91944 0.0
C3784 C 0.33035 0.70247 0.91344 0.0
C3785 C 0.312 0.70938 0.89941 0.0
C3786 C 0.31207 0.73213 0.89142 0.0
C3787 C 0.33059 0.74763 0.89766 0.0
C3788 C 0.3486 0.7412 0.91134 0.0
C3789 C 0.36661 0.761 0.91532 0.0
C3790 C 0.36872 0.76833 0.94115 0.0
C3791 C 0.38991 0.75464 0.90551 0.0
C3792 C 0.35605 0.77956 0.90154 0.0
C3793 C 0.3352 0.77158 0.89164 0.0
C3794 C 0.32206 0.78572 0.87842 0.0
C3795 C 0.33052 0.80867 0.87523 0.0
C3796 C 0.35207 0.8171 0.88496 0.0
C3797 C 0.36489 0.80227 0.89831 0.0
H3798 H 0.95725 0.65292 0.61129 0.0
H3799 H 0.9323 0.58303 0.58841 0.0
H3800 H 0.97083 0.56876 0.59673 0.0
H3801 H 0.01621 0.65032 0.5906 0.0
H3802 H 0.02783 0.66703 0.6155 0.0
H3803 H 0.99933 0.67172 0.60485 0.0
H3804 H 0.98305 0.66367 0.64549 0.0
H3805 H 0.01139 0.65868 0.65621 0.0
H3806 H 0.98841 0.63652 0.65878 0.0
H3807 H 0.01273 0.56227 0.61004 0.0
H3808 H 0.052 0.56421 0.62779 0.0
H3809 H 0.04696 0.63793 0.64381 0.0
C3810 C 0.95984 0.63465 0.60753 0.0
C3811 C 0.94165 0.61914 0.59904 0.0
C3812 C 0.94595 0.59534 0.5947 0.0
C3813 C 0.96781 0.58708 0.59944 0.0
C3814 C 0.98514 0.60285 0.6085 0.0
C3815 C 0.98127 0.62618 0.61239 0.0
C3816 C 1.00187 0.63949 0.62369 0.0
C3817 C 0.0119 0.65825 0.6077 0.0
C3818 C 0.99581 0.65021 0.64744 0.0
C3819 C 0.01792 0.62001 0.62613 0.0
C3820 C 0.0083 0.59902 0.61692 0.0
C3821 C 0.02031 0.57866 0.61725 0.0
C3822 C 0.04255 0.57988 0.62732 0.0
C3823 C 0.05226 0.60115 0.63736 0.0
C3824 C 0.03975 0.62138 0.63657 0.0
H3825 H 0.09072 0.27947 0.40323 0.0
H3826 H 0.16463 0.28453 0.41223 0.0
H3827 H 0.16626 0.2433 0.39774 0.0
H3828 H 0.07994 0.22136 0.41985 0.0
H3829 H 0.05798 0.21381 0.39814 0.0
H3830 H 0.06295 0.24369 0.40843 0.0
H3831 H 0.06945 0.25667 0.36647 0.0
H3832 H 0.06429 0.22683 0.35602 0.0
H3833 H 0.09061 0.24296 0.34907 0.0
H3834 H 0.15877 0.1996 0.38523 0.0
H3835 H 0.14375 0.15985 0.37248 0.0
H3836 H 0.0749 0.1844 0.3688 0.0
C3837 C 0.10725 0.27191 0.40181 0.0
C3838 C 0.1276 0.28519 0.40878 0.0
C3839 C 0.14891 0.27475 0.40675 0.0
C3840 C 0.14993 0.25129 0.39865 0.0
C3841 C 0.12948 0.23854 0.39214 0.0
C3842 C 0.10858 0.24873 0.39319 0.0
C3843 C 0.08914 0.2315 0.38482 0.0
C3844 C 0.07146 0.22734 0.40395 0.0
C3845 C 0.07769 0.24 0.36279 0.0
C3846 C 0.10214 0.20976 0.37958 0.0
C3847 C 0.1254 0.21409 0.38396 0.0
C3848 C 0.14062 0.19626 0.38139 0.0
C3849 C 0.13191 0.17362 0.37411 0.0
C3850 C 0.10815 0.16881 0.36913 0.0
C3851 C 0.09322 0.18737 0.37192 0.0
H3852 H 0.58818 0.64058 0.39095 0.0
H3853 H 0.57769 0.71414 0.40363 0.0
H3854 H 0.54005 0.70891 0.38294 0.0
H3855 H 0.56246 0.63485 0.33412 0.0
H3856 H 0.54989 0.60593 0.33864 0.0
H3857 H 0.5761 0.61597 0.35367 0.0
H3858 H 0.55724 0.60711 0.39301 0.0
H3859 H 0.53104 0.59689 0.37811 0.0
H3860 H 0.53058 0.61979 0.40022 0.0
H3861 H 0.50204 0.69431 0.36262 0.0
H3862 H 0.46797 0.67222 0.34557 0.0
H3863 H 0.50538 0.60892 0.34516 0.0
C3864 C 0.57791 0.65562 0.38972 0.0
C3865 C 0.58578 0.67771 0.3993 0.0
C3866 C 0.57202 0.69702 0.39654 0.0
C3867 C 0.55063 0.6942 0.38479 0.0
C3868 C 0.5434 0.67205 0.37571 0.0
C3869 C 0.55675 0.65315 0.37805 0.0
C3870 C 0.54515 0.63102 0.36734 0.0
C3871 C 0.55924 0.62139 0.34725 0.0
C3872 C 0.54074 0.61263 0.38576 0.0
C3873 C 0.52295 0.64026 0.35876 0.0
C3874 C 0.52215 0.66392 0.36367 0.0
C3875 C 0.50264 0.67581 0.3585 0.0
C3876 C 0.48333 0.66305 0.34863 0.0
C3877 C 0.48362 0.63859 0.34393 0.0
C3878 C 0.50411 0.62742 0.34859 0.0
H3879 H 0.12488 0.83841 0.15562 0.0
H3880 H 0.17147 0.82331 0.21139 0.0
H3881 H 0.17563 0.78387 0.19402 0.0
H3882 H 0.09783 0.77728 0.14661 0.0
H3883 H 0.09651 0.77967 0.11564 0.0
H3884 H 0.09434 0.80529 0.13425 0.0
H3885 H 0.12829 0.82571 0.11305 0.0
H3886 H 0.13082 0.80004 0.09468 0.0
H3887 H 0.1553 0.81203 0.11147 0.0
H3888 H 0.17864 0.74803 0.16846 0.0
H3889 H 0.17744 0.71659 0.13873 0.0
H3890 H 0.12932 0.75428 0.09815 0.0
C3891 C 0.13509 0.82638 0.16469 0.0
C3892 C 0.14727 0.83371 0.18541 0.0
C3893 C 0.16145 0.81785 0.19601 0.0
C3894 C 0.1641 0.79547 0.1861 0.0
C3895 C 0.15264 0.78907 0.16529 0.0
C3896 C 0.13814 0.80389 0.1548 0.0
C3897 C 0.12914 0.79311 0.13166 0.0
C3898 C 0.1029 0.78856 0.13207 0.0
C3899 C 0.13632 0.80865 0.11153 0.0
C3900 C 0.14124 0.77024 0.13067 0.0
C3901 C 0.15462 0.76832 0.1503 0.0
C3902 C 0.16793 0.74921 0.15315 0.0
C3903 C 0.16717 0.7313 0.13587 0.0
C3904 C 0.15302 0.73217 0.11572 0.0
C3905 C 0.14018 0.75239 0.11316 0.0
H3906 H 0.07617 0.44025 0.86571 0.0
H3907 H 0.08344 0.37843 0.82213 0.0
H3908 H 0.04285 0.36591 0.82841 0.0
H3909 H 0.04262 0.41638 0.90705 0.0
H3910 H 0.02306 0.43929 0.91119 0.0
H3911 H 0.05144 0.44604 0.9005 0.0
H3912 H 0.03447 0.46434 0.86426 0.0
H3913 H 1.00599 0.45835 0.87521 0.0
H3914 H 0.01311 0.44769 0.84668 0.0
H3915 H 1.00568 0.35573 0.84634 0.0
H3916 H 0.96921 0.35253 0.86661 0.0
H3917 H 0.9821 0.42322 0.89544 0.0
C3918 C 0.0687 0.42486 0.85642 0.0
C3919 C 0.08272 0.41055 0.84286 0.0
C3920 C 0.07275 0.3899 0.83189 0.0
C3921 C 0.04982 0.38253 0.83566 0.0
C3922 C 0.0368 0.3963 0.85008 0.0
C3923 C 0.04544 0.41752 0.85957 0.0
C3924 C 0.02759 0.42841 0.87494 0.0
C3925 C 0.03674 0.43277 0.89989 0.0
C3926 C 0.01983 0.45104 0.86466 0.0
C3927 C 0.00825 0.40932 0.87363 0.0
C3928 C 0.01415 0.39099 0.85924 0.0
C3929 C 1.00035 0.37043 0.85676 0.0
C3930 C 0.97945 0.36888 0.86835 0.0
C3931 C 0.97191 0.38799 0.88194 0.0
C3932 C 0.98693 0.40836 0.88495 0.0
H3933 H 0.3735 0.18902 0.6434 0.0
H3934 H 0.35524 0.2002 0.71532 0.0
H3935 H 0.3338 0.23419 0.70457 0.0
H3936 H 0.37922 0.25245 0.6296 0.0
H3937 H 0.36803 0.24587 0.60074 0.0
H3938 H 0.38448 0.22495 0.61518 0.0
H3939 H 0.35081 0.19399 0.60791 0.0
H3940 H 0.33368 0.21496 0.59453 0.0
H3941 H 0.3228 0.19942 0.61901 0.0
H3942 H 0.31004 0.26317 0.68494 0.0
H3943 H 0.29186 0.29023 0.6589 0.0
H3944 H 0.32693 0.25945 0.60065 0.0
C3945 C 0.36596 0.19918 0.65715 0.0
C3946 C 0.3659 0.19191 0.68017 0.0
C3947 C 0.35524 0.20539 0.6975 0.0
C3948 C 0.34301 0.22465 0.69157 0.0
C3949 C 0.34205 0.23027 0.66838 0.0
C3950 C 0.35385 0.21839 0.65158 0.0
C3951 C 0.34938 0.22718 0.62777 0.0
C3952 C 0.37159 0.23829 0.61775 0.0
C3953 C 0.33851 0.20772 0.61136 0.0
C3954 C 0.3325 0.24529 0.6337 0.0
C3955 C 0.32849 0.2469 0.65716 0.0
C3956 C 0.3133 0.26233 0.66657 0.0
C3957 C 0.30291 0.27743 0.65166 0.0
C3958 C 0.30793 0.277 0.62775 0.0
C3959 C 0.3223 0.26009 0.61869 0.0
H3960 H 0.14746 0.4797 0.38616 0.0
H3961 H 0.11378 0.47605 0.45226 0.0
H3962 H 0.09897 0.51527 0.44668 0.0
H3963 H 0.16426 0.54086 0.38896 0.0
H3964 H 0.15866 0.54478 0.35866 0.0
H3965 H 0.16664 0.51686 0.36833 0.0
H3966 H 0.12975 0.49704 0.34902 0.0
H3967 H 0.12163 0.52492 0.33933 0.0
H3968 H 0.10213 0.50744 0.35649 0.0
H3969 H 0.08991 0.55658 0.43422 0.0
H3970 H 0.08444 0.59373 0.41477 0.0
H3971 H 0.12185 0.56838 0.35564 0.0
C3972 C 0.13702 0.4872 0.39949 0.0
C3973 C 0.13192 0.47496 0.41979 0.0
C3974 C 0.11783 0.48515 0.43662 0.0
C3975 C 0.10946 0.50743 0.4336 0.0
C3976 C 0.11497 0.51912 0.41341 0.0
C3977 C 0.12819 0.50913 0.39652 0.0
C3978 C 0.13119 0.52482 0.37609 0.0
C3979 C 0.1567 0.53227 0.37283 0.0
C3980 C 0.12053 0.51284 0.35392 0.0
C3981 C 0.11772 0.54534 0.38408 0.0
C3982 C 0.10871 0.54194 0.40578 0.0
C3983 C 0.09661 0.55918 0.41709 0.0
C3984 C 0.09359 0.58026 0.40592 0.0
C3985 C 0.10231 0.58387 0.38348 0.0
C3986 C 0.11446 0.56602 0.37253 0.0
H3987 H 0.59013 0.9395 0.62282 0.0
H3988 H 0.6489 0.91816 0.58424 0.0
H3989 H 0.65657 0.95818 0.57178 0.0
H3990 H 0.57253 0.98532 0.5824 0.0
H3991 H 0.56493 1.00432 0.60621 0.0
H3992 H 0.56196 0.97308 0.60877 0.0
H3993 H 0.58756 0.97673 0.64588 0.0
H3994 H 0.59092 1.00787 0.6433 0.0
H3995 H 0.61593 0.99093 0.64471 0.0
H3996 H 0.66177 1.00244 0.56901 0.0
H3997 H 0.662 0.04554 0.57459 0.0
H3998 H 0.59837 0.03725 0.61243 0.0
C3999 C 0.60396 0.94313 0.61092 0.0
C4000 C 0.61828 0.92543 0.60379 0.0
C4001 C 0.637 0.93102 0.58919 0.0
C4002 C 0.64169 0.95393 0.58214 0.0
C4003 C 0.62754 0.97118 0.58986 0.0
C4004 C 0.60881 0.96594 0.60365 0.0
C4005 C 0.59745 0.98785 0.61128 0.0
C4006 C 0.57275 0.98763 0.60157 0.0
C4007 C 0.59801 0.99102 0.63786 0.0
C4008 C 0.61301 1.00619 0.60018 0.0
C4009 C 0.63033 0.9964 0.58791 0.0
C4010 C 0.64795 0.0103 0.57816 0.0
C4011 C 0.64795 0.0348 0.58136 0.0
C4012 C 0.63043 0.04513 0.59419 0.0
C4013 C 0.61243 0.03036 0.60294 0.0
H4014 H 0.83996 0.86097 0.39741 0.0
H4015 H 0.86211 0.82808 0.33359 0.0
H4016 H 0.82958 0.84339 0.31275 0.0
H4017 H 0.7761 0.85075 0.38294 0.0
H4018 H 0.77001 0.87795 0.39745 0.0
H4019 H 0.79327 0.86146 0.40767 0.0
H4020 H 0.82067 0.898 0.40437 0.0
H4021 H 0.79837 0.91471 0.39266 0.0
H4022 H 0.82436 0.911 0.37668 0.0
H4023 H 0.7968 0.86641 0.29788 0.0
H4024 H 0.76524 0.89286 0.29124 0.0
H4025 H 0.76419 0.91025 0.36457 0.0
C4026 C 0.83765 0.85627 0.3792 0.0
C4027 C 0.85425 0.84365 0.36715 0.0
C4028 C 0.85028 0.83807 0.34329 0.0
C4029 C 0.8316 0.84662 0.33124 0.0
C4030 C 0.81637 0.86009 0.34342 0.0
C4031 C 0.8188 0.86427 0.36703 0.0
C4032 C 0.80063 0.88006 0.37594 0.0
C4033 C 0.78402 0.86677 0.39195 0.0
C4034 C 0.81165 0.90228 0.38814 0.0
C4035 C 0.78866 0.88543 0.35345 0.0
C4036 C 0.7976 0.87329 0.33492 0.0
C4037 C 0.7895 0.87574 0.31233 0.0
C4038 C 0.77171 0.89081 0.30865 0.0
C4039 C 0.76262 0.90359 0.32735 0.0
C4040 C 0.77114 0.90076 0.35001 0.0
H4041 H 0.84068 0.97632 0.15187 0.0
H4042 H 0.84784 0.9548 0.07985 0.0
H4043 H 0.8746 0.98907 0.0742 0.0
H4044 H 0.84036 0.03737 0.14277 0.0
H4045 H 0.85616 0.04552 0.16913 0.0
H4046 H 0.83847 0.01874 0.1672 0.0
H4047 H 0.8738 0.99598 0.17879 0.0
H4048 H 0.89172 0.0227 0.18016 0.0
H4049 H 0.89947 0.99846 0.16181 0.0
H4050 H 0.89924 0.0266 0.07612 0.0
H4051 H 0.91629 0.06664 0.08455 0.0
H4052 H 0.89379 0.06261 0.15548 0.0
C4053 C 0.84768 0.97899 0.13488 0.0
C4054 C 0.8423 0.96296 0.11632 0.0
C4055 C 0.85201 0.96682 0.09436 0.0
C4056 C 0.86726 0.98614 0.09101 0.0
C4057 C 0.87269 1.00132 0.10985 0.0
C4058 C 0.86302 0.99808 0.13129 0.0
C4059 C 0.87084 0.01746 0.14844 0.0
C4060 C 0.85024 0.03055 0.15739 0.0
C4061 C 0.88479 1.00808 0.16848 0.0
C4062 C 0.88593 0.03244 0.13315 0.0
C4063 C 0.88709 0.02272 0.11102 0.0
C4064 C 0.89873 0.03428 0.09345 0.0
C4065 C 0.90853 0.05686 0.09841 0.0
C4066 C 0.90637 0.06748 0.12064 0.0
C4067 C 0.89579 0.05471 0.13839 0.0
H4068 H 0.30243 0.61477 0.35603 0.0
H4069 H 0.30275 0.65208 0.29235 0.0
H4070 H 0.26793 0.67195 0.30487 0.0
H4071 H 0.24377 0.60316 0.35982 0.0
H4072 H 0.24255 0.60744 0.3908 0.0
H4073 H 0.26855 0.59849 0.37771 0.0
H4074 H 0.29133 0.63417 0.39749 0.0
H4075 H 0.26534 0.64327 0.4107 0.0
H4076 H 0.28207 0.66314 0.39324 0.0
H4077 H 0.23088 0.68382 0.32275 0.0
H4078 H 0.19489 0.68719 0.34387 0.0
H4079 H 0.21997 0.64309 0.39703 0.0
C4080 C 0.29517 0.62728 0.34487 0.0
C4081 C 0.30482 0.63184 0.32317 0.0
C4082 C 0.29533 0.64846 0.309 0.0
C4083 C 0.27572 0.65979 0.31603 0.0
C4084 C 0.26631 0.65455 0.33747 0.0
C4085 C 0.27592 0.63886 0.35177 0.0
C4086 C 0.26209 0.63538 0.37344 0.0
C4087 C 0.25375 0.60959 0.37554 0.0
C4088 C 0.27604 0.64454 0.39499 0.0
C4089 C 0.24239 0.65057 0.36861 0.0
C4090 C 0.24535 0.66182 0.34799 0.0
C4091 C 0.22866 0.67554 0.33916 0.0
C4092 C 0.20828 0.67747 0.35146 0.0
C4093 C 0.20463 0.6657 0.37242 0.0
C4094 C 0.22221 0.65244 0.38121 0.0
H4095 H 0.34494 0.51432 0.91779 0.0
H4096 H 0.31696 0.53063 0.85087 0.0
H4097 H 0.34586 0.50734 0.83154 0.0
H4098 H 0.40524 0.51503 0.90057 0.0
H4099 H 0.41162 0.49085 0.91817 0.0
H4100 H 0.3898 0.51018 0.92691 0.0
H4101 H 0.35961 0.47511 0.92862 0.0
H4102 H 0.38155 0.45575 0.92074 0.0
H4103 H 0.35536 0.4554 0.90373 0.0
H4104 H 0.37674 0.48161 0.81957 0.0
H4105 H 0.4022 0.44889 0.81584 0.0
H4106 H 0.40972 0.44866 0.89054 0.0
C4107 C 0.34488 0.51275 0.89908 0.0
C4108 C 0.32861 0.52392 0.88581 0.0
C4109 C 0.32897 0.52172 0.86135 0.0
C4110 C 0.34561 0.50895 0.85023 0.0
C4111 C 0.36176 0.49859 0.86383 0.0
C4112 C 0.36128 0.49997 0.88772 0.0
C4113 C 0.37936 0.4856 0.8983 0.0
C4114 C 0.39758 0.50136 0.91178 0.0
C4115 C 0.36831 0.46685 0.91374 0.0
C4116 C 0.3893 0.47496 0.8766 0.0
C4117 C 0.37947 0.48336 0.85691 0.0
C4118 C 0.38468 0.47498 0.83483 0.0
C4119 C 0.39917 0.45644 0.83287 0.0
C4120 C 0.40783 0.44625 0.8529 0.0
C4121 C 0.40377 0.45645 0.87493 0.0
H4122 H 0.75032 0.10816 0.10624 0.0
H4123 H 0.73293 0.12933 0.17627 0.0
H4124 H 0.77225 0.14802 0.18189 0.0
H4125 H 0.81026 0.09968 0.11392 0.0
H4126 H 0.81726 0.11244 0.08669 0.0
H4127 H 0.7895 0.09775 0.09041 0.0
H4128 H 0.77008 0.1351 0.07827 0.0
H4129 H 0.79778 0.15006 0.07495 0.0
H4130 H 0.77708 0.16237 0.09396 0.0
H4131 H 0.81513 0.16599 0.17805 0.0
H4132 H 0.85372 0.18078 0.16507 0.0
H4133 H 0.83684 0.15271 0.09584 0.0
C4134 C 0.75444 0.1167 0.12285 0.0
C4135 C 0.73813 0.11744 0.14064 0.0
C4136 C 0.74499 0.12833 0.16229 0.0
C4137 C 0.76731 0.13918 0.16558 0.0
C4138 C 0.78239 0.13927 0.14696 0.0
C4139 C 0.77595 0.12829 0.12602 0.0
C4140 C 0.79376 0.13237 0.10777 0.0
C4141 C 0.80326 0.10918 0.09921 0.0
C4142 C 0.7841 0.14577 0.08756 0.0
C4143 C 0.81154 0.14727 0.12159 0.0
C4144 C 0.80519 0.15091 0.14429 0.0
C4145 C 0.82 0.16341 0.1602 0.0
C4146 C 0.84182 0.17194 0.15266 0.0
C4147 C 0.84837 0.16825 0.12933 0.0
C4148 C 0.83258 0.15621 0.11374 0.0
H4149 H 0.72583 0.87957 0.59612 0.0
H4150 H 0.71094 0.87583 0.66916 0.0
H4151 H 0.75027 0.89277 0.67885 0.0
H4152 H 0.78404 0.86423 0.60049 0.0
H4153 H 0.79349 0.8834 0.57805 0.0
H4154 H 0.76438 0.87105 0.57771 0.0
H4155 H 0.74952 0.91276 0.57662 0.0
H4156 H 0.77861 0.92526 0.57737 0.0
H4157 H 0.7586 0.93421 0.59895 0.0
H4158 H 0.79249 0.90955 0.67978 0.0
H4159 H 0.83327 0.92118 0.67168 0.0
H4160 H 0.81761 0.91631 0.59817 0.0
C4161 C 0.73075 0.88243 0.61418 0.0
C4162 C 0.71538 0.87655 0.6319 0.0
C4163 C 0.72262 0.88008 0.65532 0.0
C4164 C 0.74479 0.8899 0.66096 0.0
C4165 C 0.75937 0.89605 0.64294 0.0
C4166 C 0.75257 0.89223 0.62003 0.0
C4167 C 0.77137 0.89947 0.60371 0.0
C4168 C 0.77875 0.87828 0.58914 0.0
C4169 C 0.76408 0.9191 0.58826 0.0
C4170 C 0.78989 0.90816 0.6209 0.0
C4171 C 0.78289 0.90605 0.64349 0.0
C4172 C 0.79803 0.91148 0.66214 0.0
C4173 C 0.82108 0.9183 0.65743 0.0
C4174 C 0.82855 0.91957 0.63428 0.0
C4175 C 0.81241 0.91538 0.61602 0.0
H4176 H 0.96261 0.24885 0.10396 0.0
H4177 H 0.97103 0.22152 0.17211 0.0
H4178 H 1.00192 0.25197 0.18126 0.0
H4179 H 0.01764 0.25883 0.09177 0.0
H4180 H 0.01597 0.2861 0.07746 0.0
H4181 H 0.99113 0.26608 0.07805 0.0
H4182 H 0.96742 0.29823 0.09688 0.0
H4183 H 0.99218 0.31859 0.09608 0.0
H4184 H 0.97795 0.31348 0.12305 0.0
H4185 H 0.03702 0.2783 0.1794 0.0
H4186 H 0.07187 0.30148 0.16811 0.0
H4187 H 0.03989 0.31448 0.10218 0.0
C4188 C 0.97015 0.25024 0.12122 0.0
C4189 C 0.96411 0.23348 0.13767 0.0
C4190 C 0.97498 0.23482 0.15969 0.0
C4191 C 0.99259 0.25197 0.16495 0.0
C4192 C 0.99878 0.26789 0.14811 0.0
C4193 C 0.9875 0.26761 0.12688 0.0
C4194 C 0.99901 0.28516 0.11106 0.0
C4195 C 1.00638 0.27332 0.08826 0.0
C4196 C 0.98319 0.30505 0.1065 0.0
C4197 C 0.01958 0.29389 0.12594 0.0
C4198 C 0.01888 0.28398 0.14741 0.0
C4199 C 0.03734 0.28689 0.16304 0.0
C4200 C 0.05707 0.3 0.15648 0.0
C4201 C 0.05813 0.31022 0.1346 0.0
C4202 C 0.039 0.3076 0.11936 0.0
H4203 H 0.04132 0.70399 0.4025 0.0
H4204 H 0.04106 0.68712 0.32906 0.0
H4205 H 0.00819 0.71202 0.32346 0.0
H4206 H 0.97659 0.70924 0.40736 0.0
H4207 H 0.98078 0.73301 0.42849 0.0
H4208 H 1.0009 0.71033 0.42705 0.0
H4209 H 0.03423 0.74161 0.4224 0.0
H4210 H 0.01428 0.7643 0.4236 0.0
H4211 H 0.03293 0.76167 0.39916 0.0
H4212 H 0.97771 0.74285 0.32563 0.0
H4213 H 0.95501 0.77712 0.33495 0.0
H4214 H 0.97693 0.7754 0.40667 0.0
C4215 C 0.03352 0.70461 0.38544 0.0
C4216 C 0.04305 0.6927 0.36635 0.0
C4217 C 0.03335 0.69515 0.34405 0.0
C4218 C 0.01476 0.70947 0.34072 0.0
C4219 C 1.006 0.72137 0.35987 0.0
C4220 C 0.015 0.71888 0.38187 0.0
C4221 C 1.00418 0.73522 0.39927 0.0
C4222 C 0.98976 0.72111 0.41657 0.0
C4223 C 0.0225 0.75168 0.41183 0.0
C4224 C 0.98883 0.74843 0.38353 0.0
C4225 C 0.98945 0.73969 0.36097 0.0
C4226 C 0.97695 0.74953 0.34332 0.0
C4227 C 0.96393 0.76895 0.34877 0.0
C4228 C 0.96392 0.77881 0.37157 0.0
C4229 C 0.97636 0.7681 0.38913 0.0
H4230 H 0.56016 0.79149 0.64723 0.0
H4231 H 0.53866 0.82846 0.58736 0.0
H4232 H 0.50082 0.806 0.58735 0.0
H4233 H 0.53771 0.73728 0.63035 0.0
H4234 H 0.529 0.72867 0.65874 0.0
H4235 H 0.55243 0.75006 0.6558 0.0
H4236 H 0.53166 0.77932 0.68223 0.0
H4237 H 0.50805 0.75793 0.68519 0.0
H4238 H 0.5028 0.78644 0.67491 0.0
H4239 H 0.46697 0.77536 0.59162 0.0
H4240 H 0.44195 0.73984 0.59905 0.0
H4241 H 0.48685 0.72397 0.6558 0.0
C4242 C 0.54736 0.79521 0.63433 0.0
C4243 C 0.55229 0.81165 0.61726 0.0
C4244 C 0.53511 0.81604 0.60071 0.0
C4245 C 0.5136 0.80337 0.60061 0.0
C4246 C 0.50951 0.78681 0.61748 0.0
C4247 C 0.52595 0.78299 0.63417 0.0
C4248 C 0.51838 0.76322 0.64943 0.0
C4249 C 0.53538 0.74366 0.64849 0.0
C4250 C 0.51503 0.77227 0.67442 0.0
C4251 C 0.49564 0.75549 0.63799 0.0
C4252 C 0.49038 0.76955 0.61993 0.0
C4253 C 0.47074 0.76461 0.60604 0.0
C4254 C 0.45655 0.74455 0.61043 0.0
C4255 C 0.46238 0.72966 0.62829 0.0
C4256 C 0.48186 0.73548 0.6424 0.0
H4257 H 0.4751 0.2806 0.83859 0.0
H4258 H 0.4497 0.27804 0.90839 0.0
H4259 H 0.47262 0.24358 0.91516 0.0
H4260 H 0.47694 0.21514 0.82927 0.0
H4261 H 0.50218 0.21844 0.81178 0.0
H4262 H 0.48137 0.24047 0.81196 0.0
H4263 H 0.51345 0.27199 0.82365 0.0
H4264 H 0.53428 0.25013 0.82366 0.0
H4265 H 0.53078 0.26841 0.84923 0.0
H4266 H 0.50269 0.2108 0.91487 0.0
H4267 H 0.53531 0.18554 0.90785 0.0
H4268 H 0.54089 0.21058 0.83836 0.0
C4269 C 0.4737 0.27228 0.85507 0.0
C4270 C 0.46003 0.2818 0.87276 0.0
C4271 C 0.45933 0.27073 0.89429 0.0
C4272 C 0.47253 0.25119 0.89831 0.0
C4273 C 0.48622 0.24254 0.88055 0.0
C4274 C 0.48649 0.25266 0.85919 0.0
C4275 C 0.50323 0.24106 0.84314 0.0
C4276 C 0.49016 0.22801 0.82283 0.0
C4277 C 0.52152 0.25897 0.83443 0.0
C4278 C 0.51367 0.22391 0.85912 0.0
C4279 C 0.50325 0.2244 0.88047 0.0
C4280 C 0.51058 0.21019 0.89805 0.0
C4281 C 0.52906 0.19565 0.89386 0.0
C4282 C 0.54052 0.19557 0.87238 0.0
C4283 C 0.53233 0.20982 0.85483 0.0
H4284 H 0.08888 0.93867 0.26846 0.0
H4285 H 0.14842 0.9657 0.23192 0.0
H4286 H 0.14773 1.0031 0.25436 0.0
H4287 H 0.0591 0.98843 0.27133 0.0
H4288 H 0.04882 0.98593 0.30044 0.0
H4289 H 0.0554 0.96013 0.28383 0.0
H4290 H 0.08384 0.94878 0.31566 0.0
H4291 H 0.07678 0.97413 0.33279 0.0
H4292 H 0.1063 0.96974 0.32589 0.0
H4293 H 0.137 0.03989 0.27703 0.0
H4294 H 0.12232 0.06987 0.30406 0.0
H4295 H 0.071 0.01858 0.32747 0.0
C4296 C 0.10252 0.952 0.26615 0.0
C4297 C 0.11927 0.94888 0.24897 0.0
C4298 C 0.13603 0.96731 0.2456 0.0
C4299 C 0.13551 0.98882 0.25801 0.0
C4300 C 0.11823 0.99174 0.27411 0.0
C4301 C 0.10252 0.97353 0.27884 0.0
C4302 C 0.08564 0.98135 0.29695 0.0
C4303 C 0.06077 0.97881 0.28756 0.0
C4304 C 0.0883 0.9677 0.31914 0.0
C4305 C 0.0937 1.00695 0.3009 0.0
C4306 C 0.11245 0.01267 0.28748 0.0
C4307 C 0.12248 0.03547 0.28782 0.0
C4308 C 0.1138 0.05256 0.30298 0.0
C4309 C 0.09532 0.04682 0.31777 0.0
C4310 C 0.08501 0.02371 0.31626 0.0
H4311 H 0.31287 0.86492 0.47716 0.0
H4312 H 0.30577 0.92145 0.43051 0.0
H4313 H 0.27186 0.93383 0.45244 0.0
H4314 H 0.24938 0.85294 0.48567 0.0
H4315 H 0.25395 0.84553 0.51533 0.0
H4316 H 0.27542 0.83981 0.49406 0.0
H4317 H 0.30599 0.86387 0.51935 0.0
H4318 H 0.28466 0.86977 0.54054 0.0
H4319 H 0.30101 0.89364 0.52796 0.0
H4320 H 0.24018 0.94212 0.48332 0.0
H4321 H 0.21575 0.94488 0.51821 0.0
H4322 H 0.24458 0.8828 0.54382 0.0
C4323 C 0.30379 0.87953 0.47113 0.0
C4324 C 0.31188 0.892 0.45185 0.0
C4325 C 0.29966 0.91125 0.44482 0.0
C4326 C 0.28043 0.91849 0.45735 0.0
C4327 C 0.27325 0.90606 0.47668 0.0
C4328 C 0.28446 0.88668 0.48318 0.0
C4329 C 0.27426 0.87668 0.50498 0.0
C4330 C 0.26256 0.85229 0.4997 0.0
C4331 C 0.29257 0.87597 0.52434 0.0
C4332 C 0.25657 0.89425 0.51076 0.0
C4333 C 0.25567 0.91081 0.49403 0.0
C4334 C 0.24071 0.92901 0.49627 0.0
C4335 C 0.22676 0.93044 0.51612 0.0
C4336 C 0.22814 0.91405 0.53376 0.0
C4337 C 0.24307 0.89562 0.53067 0.0
H4338 H 0.39133 0.04843 0.74733 0.0
H4339 H 0.33725 0.01485 0.70355 0.0
H4340 H 0.32905 0.98595 0.73379 0.0
H4341 H 0.41166 0.99462 0.7718 0.0
H4342 H 0.41766 1.00859 0.79983 0.0
H4343 H 0.41972 0.02545 0.77418 0.0
H4344 H 0.39125 0.05381 0.79185 0.0
H4345 H 0.38857 0.03665 0.81727 0.0
H4346 H 0.36331 0.04254 0.80063 0.0
H4347 H 0.3242 0.96374 0.77028 0.0
H4348 H 0.3281 0.94329 0.80656 0.0
H4349 H 0.38727 0.98939 0.82671 0.0
C4350 C 0.37828 0.03445 0.74382 0.0
C4351 C 0.36523 0.03347 0.72286 0.0
C4352 C 0.34787 0.01545 0.71911 0.0
C4353 C 0.34289 0.99926 0.73639 0.0
C4354 C 0.35556 1.00127 0.7572 0.0
C4355 C 0.37334 0.01801 0.76074 0.0
C4356 C 0.38445 0.01625 0.78459 0.0
C4357 C 0.40988 0.0109 0.78247 0.0
C4358 C 0.38173 0.03865 0.79946 0.0
C4359 C 0.37023 0.99573 0.79402 0.0
C4360 C 0.35332 0.98784 0.77803 0.0
C4361 C 0.33759 0.96955 0.78269 0.0
C4362 C 0.33989 0.95815 0.80352 0.0
C4363 C 0.35803 0.9646 0.81958 0.0
C4364 C 0.37304 0.9842 0.81505 0.0
H4365 H 0.23032 0.12632 0.98776 0.0
H4366 H 0.26894 0.16894 0.93972 0.0
H4367 H 0.30515 0.16101 0.96066 0.0
H4368 H 0.26048 0.1446 0.03776 0.0
H4369 H 0.25866 0.11634 0.0505 0.0
H4370 H 0.23693 0.1238 0.03017 0.0
H4371 H 0.24455 0.08702 1.00475 0.0
H4372 H 0.26647 0.07948 0.02499 0.0
H4373 H 0.27324 0.0827 0.99492 0.0
H4374 H 0.33737 0.14994 0.99034 0.0
H4375 H 0.36001 0.13904 0.02477 0.0
H4376 H 0.29885 0.1042 0.052 0.0
C4377 C 0.24636 0.13392 0.9814 0.0
C4378 C 0.24667 0.1484 0.9621 0.0
C4379 C 0.26819 0.15775 0.95441 0.0
C4380 C 0.28885 0.15328 0.96623 0.0
C4381 C 0.28778 0.13912 0.98551 0.0
C4382 C 0.26692 0.12951 0.99279 0.0
C4383 C 0.26968 0.11577 0.0144 0.0
C4384 C 0.25562 0.12574 0.03438 0.0
C4385 C 0.2631 0.0897 0.00946 0.0
C4386 C 0.29524 0.11985 0.01897 0.0
C4387 C 0.30569 0.13293 1.00199 0.0
C4388 C 0.32925 0.13945 1.00347 0.0
C4389 C 0.34208 0.13302 0.02299 0.0
C4390 C 0.33127 0.12048 0.04093 0.0
C4391 C 0.30769 0.11351 0.03844 0.0
H4392 H 0.75075 0.4457 0.04076 0.0
H4393 H 0.7096 0.38042 0.03768 0.0
H4394 H 0.73244 0.36646 1.0046 0.0
H4395 H 0.7591 0.44783 0.97556 0.0
H4396 H 0.78766 0.46129 0.97966 0.0
H4397 H 0.76571 0.467 1.00042 0.0
H4398 H 0.792 0.45346 0.03317 0.0
H4399 H 0.81388 0.44746 0.01261 0.0
H4400 H 0.80295 0.42474 0.03097 0.0
H4401 H 0.76384 0.35809 0.97407 0.0
H4402 H 0.79921 0.3567 0.95057 0.0
H4403 H 0.81938 0.42753 0.97411 0.0
C4404 C 0.74595 0.42888 0.03244 0.0
C4405 C 0.72788 0.41447 0.04134 0.0
C4406 C 0.72277 0.39212 0.03062 0.0
C4407 C 0.73583 0.38398 0.0119 0.0
C4408 C 0.75389 0.39847 1.00376 0.0
C4409 C 0.7586 0.42068 0.01351 0.0
C4410 C 0.77957 0.43247 1.00259 0.0
C4411 C 0.7726 0.45339 0.98874 0.0
C4412 C 0.7982 0.43995 0.02094 0.0
C4413 C 0.78709 0.41294 0.9865 0.0
C4414 C 0.77177 0.39363 0.9868 0.0
C4415 C 0.7757 0.37331 0.97359 0.0
C4416 C 0.79583 0.37265 0.96016 0.0
C4417 C 0.81214 0.39198 0.96035 0.0
C4418 C 0.8073 0.41242 0.9735 0.0
H4419 H 0.84531 0.51366 0.21813 0.0
H4420 H 0.88698 0.57329 0.24646 0.0
H4421 H 0.89373 0.55248 0.28216 0.0
H4422 H 0.81777 0.4989 0.26929 0.0
H4423 H 0.81818 0.46765 0.26507 0.0
H4424 H 0.81841 0.48598 0.24044 0.0
H4425 H 0.85575 0.46841 0.22597 0.0
H4426 H 0.85538 0.44967 0.25034 0.0
H4427 H 0.88041 0.46862 0.24517 0.0
H4428 H 0.89293 0.52666 0.3169 0.0
H4429 H 0.88794 0.49568 0.34569 0.0
H4430 H 0.84725 0.4529 0.29498 0.0
C4431 C 0.85646 0.52194 0.23154 0.0
C4432 C 0.86581 0.54504 0.22936 0.0
C4433 C 0.87979 0.55552 0.24764 0.0
C4434 C 0.88366 0.54389 0.26811 0.0
C4435 C 0.87356 0.52154 0.27022 0.0
C4436 C 0.86062 0.51043 0.25228 0.0
C4437 C 0.85127 0.48655 0.25943 0.0
C4438 C 0.82484 0.48468 0.2585 0.0
C4439 C 0.8613 0.46717 0.24433 0.0
C4440 C 0.86037 0.48639 0.28421 0.0
C4441 C 0.87327 0.50667 0.29015 0.0
C4442 C 0.88304 0.51055 0.31234 0.0
C4443 C 0.88 0.49296 0.32869 0.0
C4444 C 0.86728 0.47179 0.32275 0.0
C4445 C 0.8572 0.4688 0.30022 0.0
H4446 H 0.72634 0.62511 0.48183 0.0
H4447 H 0.76766 0.66673 0.43518 0.0
H4448 H 0.80292 0.65757 0.45715 0.0
H4449 H 0.75498 0.64224 0.53261 0.0
H4450 H 0.7523 0.61403 0.54541 0.0
H4451 H 0.73144 0.62171 0.52426 0.0
H4452 H 0.73946 0.58482 0.4992 0.0
H4453 H 0.76039 0.57697 0.52036 0.0
H4454 H 0.76845 0.58002 0.4906 0.0
H4455 H 0.83381 0.64605 0.48826 0.0
H4456 H 0.855 0.6346 0.52335 0.0
H4457 H 0.79223 0.60099 0.5485 0.0
C4458 C 0.74284 0.632 0.47589 0.0
C4459 C 0.74414 0.64662 0.45665 0.0
C4460 C 0.76615 0.65525 0.44961 0.0
C4461 C 0.78628 0.65017 0.46212 0.0
C4462 C 0.78422 0.63609 0.48144 0.0
C4463 C 0.7629 0.62694 0.48796 0.0
C4464 C 0.76464 0.61321 0.50977 0.0
C4465 C 0.74998 0.62342 0.52915 0.0
C4466 C 0.75783 0.58721 0.50468 0.0
C4467 C 0.79009 0.61686 0.51539 0.0
C4468 C 0.80139 0.62969 0.49873 0.0
C4469 C 0.825 0.63575 0.50111 0.0
C4470 C 0.83702 0.62901 0.52107 0.0
C4471 C 0.82542 0.61661 0.53867 0.0
C4472 C 0.80174 0.61021 0.53533 0.0
H4473 H 0.60528 0.51787 0.83073 0.0
H4474 H 0.58339 0.57352 0.78822 0.0
H4475 H 0.5817 0.54612 0.75397 0.0
H4476 H 0.6423 0.49291 0.78917 0.0
H4477 H 0.63556 0.46322 0.79714 0.0
H4478 H 0.63368 0.48681 0.81826 0.0
H4479 H 0.59143 0.47297 0.82581 0.0
H4480 H 0.59308 0.44955 0.8044 0.0
H4481 H 0.57104 0.47011 0.802 0.0
H4482 H 0.58109 0.51266 0.72517 0.0
H4483 H 0.58887 0.47805 0.7012 0.0
H4484 H 0.61441 0.44417 0.76153 0.0
C4485 C 0.60003 0.5243 0.81421 0.0
C4486 C 0.59418 0.5478 0.81211 0.0
C4487 C 0.58788 0.55565 0.79017 0.0
C4488 C 0.58668 0.54013 0.77074 0.0
C4489 C 0.59209 0.51696 0.77357 0.0
C4490 C 0.59911 0.50918 0.79464 0.0
C4491 C 0.60546 0.48384 0.79267 0.0
C4492 C 0.63076 0.48157 0.79972 0.0
C4493 C 0.58929 0.46819 0.80708 0.0
C4494 C 0.60143 0.47863 0.76698 0.0
C4495 C 0.59306 0.49787 0.75657 0.0
C4496 C 0.58782 0.49763 0.7331 0.0
C4497 C 0.59229 0.47777 0.71966 0.0
C4498 C 0.60247 0.45841 0.72943 0.0
C4499 C 0.60641 0.45852 0.75361 0.0
H4500 H 0.9588 0.73693 0.93447 0.0
H4501 H 0.97298 0.68232 0.88409 0.0
H4502 H 0.00882 0.7049 0.87336 0.0
H4503 H 0.97397 0.78351 0.90251 0.0
H4504 H 0.98693 0.80166 0.92582 0.0
H4505 H 0.96505 0.77946 0.9319 0.0
H4506 H 0.99256 0.76111 0.96077 0.0
H4507 H 0.01454 0.78348 0.95495 0.0
H4508 H 0.02046 0.75311 0.95133 0.0
H4509 H 0.04105 0.73716 0.86502 0.0
H4510 H 0.06511 0.77409 0.86074 0.0
H4511 H 0.02844 0.80634 0.91681 0.0
C4512 C 0.96986 0.72935 0.9217 0.0
C4513 C 0.96332 0.70776 0.91032 0.0
C4514 C 0.97797 0.69859 0.8934 0.0
C4515 C 0.99828 0.7114 0.88712 0.0
C4516 C 1.00385 0.73314 0.89824 0.0
C4517 C 0.99013 0.74173 0.91551 0.0
C4518 C 0.99864 0.76602 0.92393 0.0
C4519 C 0.98004 0.78369 0.92083 0.0
C4520 C 1.00705 0.76592 0.94925 0.0
C4521 C 0.0185 0.77049 0.90784 0.0
C4522 C 0.02175 0.75128 0.89341 0.0
C4523 C 0.03874 0.75211 0.8765 0.0
C4524 C 0.05237 0.77312 0.87417 0.0
C4525 C 0.04859 0.7931 0.88836 0.0
C4526 C 0.0317 0.79141 0.9056 0.0
H4527 H 0.95459 0.27517 0.62036 0.0
H4528 H 0.96039 0.31731 0.68404 0.0
H4529 H 0.98742 0.28988 0.69995 0.0
H4530 H 0.95622 0.21958 0.64335 0.0
H4531 H 0.97424 0.20736 0.62154 0.0
H4532 H 0.95632 0.23072 0.61459 0.0
H4533 H 0.99168 0.25574 0.60113 0.0
H4534 H 0.00964 0.23219 0.60741 0.0
H4535 H 0.01625 0.26091 0.6203 0.0
H4536 H 0.0117 0.25612 0.70984 0.0
H4537 H 0.03672 0.22293 0.71091 0.0
H4538 H 0.01697 0.20292 0.64016 0.0
C4539 C 0.96202 0.2789 0.63746 0.0
C4540 C 0.95557 0.2986 0.6509 0.0
C4541 C 0.96543 0.30272 0.67327 0.0
C4542 C 0.98058 0.28701 0.68252 0.0
C4543 C 0.98607 0.26741 0.66906 0.0
C4544 C 0.97763 0.2637 0.64672 0.0
C4545 C 0.98689 0.24172 0.6356 0.0
C4546 C 0.96724 0.22379 0.62835 0.0
C4547 C 1.00201 0.24801 0.61489 0.0
C4548 C 1.00122 0.23308 0.65544 0.0
C4549 C 1.00039 0.24819 0.67459 0.0
C4550 C 0.01244 0.24427 0.69493 0.0
C4551 C 0.02644 0.22515 0.69547 0.0
C4552 C 0.02837 0.20982 0.67593 0.0
C4553 C 0.01522 0.2137 0.65571 0.0
H4554 H 0.45847 0.24064 0.43518 0.0
H4555 H 0.46797 0.18824 0.38103 0.0
H4556 H 0.50382 0.21035 0.36947 0.0
H4557 H 0.47438 0.28917 0.40488 0.0
H4558 H 0.48889 0.30517 0.42876 0.0
H4559 H 0.46621 0.28357 0.43421 0.0
H4560 H 0.49364 0.26211 0.46068 0.0
H4561 H 0.51645 0.28376 0.45535 0.0
H4562 H 0.52064 0.25326 0.44958 0.0
H4563 H 0.53763 0.242 0.36175 0.0
H4564 H 0.56351 0.27797 0.35909 0.0
H4565 H 0.53039 0.30848 0.41843 0.0
C4566 C 0.46838 0.23343 0.42124 0.0
C4567 C 0.46046 0.21249 0.40921 0.0
C4568 C 0.47387 0.20392 0.39087 0.0
C4569 C 0.49422 0.21652 0.3841 0.0
C4570 C 0.5012 0.23752 0.39606 0.0
C4571 C 0.48867 0.2456 0.4145 0.0
C4572 C 0.4987 0.26903 0.42404 0.0
C4573 C 0.48099 0.28783 0.42288 0.0
C4574 C 0.5079 0.26691 0.44889 0.0
C4575 C 0.51821 0.27364 0.40747 0.0
C4576 C 0.51988 0.2552 0.39165 0.0
C4577 C 0.53647 0.2563 0.3743 0.0
C4578 C 0.55124 0.27677 0.37294 0.0
C4579 C 0.54909 0.29607 0.38857 0.0
C4580 C 0.53256 0.29406 0.4062 0.0
H4581 H 0.51511 0.72012 0.20118 0.0
H4582 H 0.53728 0.7032 0.13178 0.0
H4583 H 0.5137 0.73385 0.11649 0.0
H4584 H 0.45493 0.73076 0.18294 0.0
H4585 H 0.45248 0.75359 0.20484 0.0
H4586 H 0.47075 0.72999 0.20989 0.0
H4587 H 0.50483 0.76018 0.21846 0.0
H4588 H 0.48682 0.78384 0.21278 0.0
H4589 H 0.513 0.78099 0.19697 0.0
H4590 H 0.49066 0.77007 0.10936 0.0
H4591 H 0.46338 0.8017 0.10966 0.0
H4592 H 0.45237 0.7923 0.18272 0.0
C4593 C 0.51443 0.72242 0.18269 0.0
C4594 C 0.52786 0.70887 0.16764 0.0
C4595 C 0.52682 0.71286 0.14361 0.0
C4596 C 0.51366 0.73053 0.13479 0.0
C4597 C 0.50108 0.74396 0.15011 0.0
C4598 C 0.50069 0.73952 0.17346 0.0
C4599 C 0.48485 0.75578 0.18604 0.0
C4600 C 0.46455 0.74169 0.19654 0.0
C4601 C 0.49818 0.7711 0.20466 0.0
C4602 C 0.47684 0.7704 0.16628 0.0
C4603 C 0.48676 0.76364 0.14575 0.0
C4604 C 0.48262 0.77524 0.12534 0.0
C4605 C 0.46731 0.79347 0.12569 0.0
C4606 C 0.45586 0.79979 0.1462 0.0
C4607 C 0.461 0.78812 0.16677 0.0
H4608 H 0.87233 0.07188 0.74983 0.0
H4609 H 0.94416 0.09376 0.75962 0.0
H4610 H 0.95389 0.0691 0.72559 0.0
H4611 H 0.87946 0.0149 0.7384 0.0
H4612 H 0.85722 0.00972 0.71651 0.0
H4613 H 0.85525 0.03304 0.73779 0.0
H4614 H 0.85208 0.06273 0.70537 0.0
H4615 H 0.85385 0.03938 0.68387 0.0
H4616 H 0.8738 0.06459 0.68354 0.0
H4617 H 0.95638 0.03748 0.69372 0.0
H4618 H 0.95149 1.00119 0.66909 0.0
H4619 H 0.87838 0.99818 0.68142 0.0
C4620 C 0.88989 0.07249 0.74391 0.0
C4621 C 0.90736 0.08568 0.75667 0.0
C4622 C 0.9304 0.08471 0.74943 0.0
C4623 C 0.93609 0.07056 0.73019 0.0
C4624 C 0.91855 0.05727 0.71826 0.0
C4625 C 0.89585 0.05828 0.72476 0.0
C4626 C 0.8806 0.04028 0.71089 0.0
C4627 C 0.86737 0.02349 0.72686 0.0
C4628 C 0.8641 0.05247 0.69498 0.0
C4629 C 0.89835 0.02789 0.69679 0.0
C4630 C 0.92007 0.03847 0.70063 0.0
C4631 C 0.93935 0.02944 0.69024 0.0
C4632 C 0.93643 1.00891 0.67607 0.0
C4633 C 0.91448 0.99726 0.67273 0.0
C4634 C 0.89524 1.00713 0.68306 0.0
H4635 H 0.77321 0.15515 0.47181 0.0
H4636 H 0.79854 0.0877 0.48592 0.0
H4637 H 0.77585 0.08651 0.522 0.0
H4638 H 0.77126 0.17618 0.53483 0.0
H4639 H 0.74593 0.19176 0.52926 0.0
H4640 H 0.76701 0.1886 0.50701 0.0
H4641 H 0.7353 0.17024 0.47904 0.0
H4642 H 0.71422 0.17316 0.50112 0.0
H4643 H 0.71809 0.14491 0.48757 0.0
H4644 H 0.74513 0.09081 0.55405 0.0
H4645 H 0.71127 0.10026 0.57758 0.0
H4646 H 0.70712 0.16505 0.54218 0.0
C4647 C 0.77469 0.14056 0.48302 0.0
C4648 C 0.78807 0.12176 0.47635 0.0
C4649 C 0.78901 0.10262 0.49106 0.0
C4650 C 0.776 0.10177 0.51152 0.0
C4651 C 0.76245 0.12041 0.51732 0.0
C4652 C 0.76218 0.13968 0.50361 0.0
C4653 C 0.74531 0.15686 0.51258 0.0
C4654 C 0.75814 0.17971 0.52144 0.0
C4655 C 0.72716 0.16153 0.49397 0.0
C4656 C 0.73484 0.14363 0.53248 0.0
C4657 C 0.74524 0.12288 0.53545 0.0
C4658 C 0.73733 0.1073 0.55212 0.0
C4659 C 0.71818 0.11286 0.56561 0.0
C4660 C 0.70691 0.13368 0.56217 0.0
C4661 C 0.71573 0.14929 0.54563 0.0
H4662 H 0.61989 0.03162 0.19329 0.0
H4663 H 0.6916 0.05059 0.18168 0.0
H4664 H 0.70284 0.01908 0.20686 0.0
H4665 H 0.62317 0.02183 0.25019 0.0
H4666 H 0.60349 0.99639 0.25086 0.0
H4667 H 0.60093 0.01679 0.22826 0.0
H4668 H 0.60429 0.98354 0.19728 0.0
H4669 H 0.60668 0.9629 0.21989 0.0
H4670 H 0.62852 0.96551 0.19826 0.0
H4671 H 0.70639 0.98916 0.2378 0.0
H4672 H 0.70186 0.96464 0.27199 0.0
H4673 H 0.62793 0.96545 0.26499 0.0
C4674 C 0.6379 0.02826 0.1951 0.0
C4675 C 0.65488 0.04298 0.18465 0.0
C4676 C 0.67831 0.03893 0.18861 0.0
C4677 C 0.68485 0.02112 0.20307 0.0
C4678 C 0.66775 1.0072 0.21353 0.0
C4679 C 0.6447 0.01032 0.20944 0.0
C4680 C 0.62982 0.99429 0.22434 0.0
C4681 C 0.6134 1.00817 0.23931 0.0
C4682 C 0.61653 0.97545 0.20904 0.0
C4683 C 0.648 0.98337 0.23898 0.0
C4684 C 0.66979 0.99033 0.23179 0.0
C4685 C 0.68938 0.98322 0.24315 0.0
C4686 C 0.68667 0.96909 0.2625 0.0
C4687 C 0.66457 0.96243 0.27074 0.0
C4688 C 0.64501 0.96958 0.25863 0.0
H4689 H 0.71121 0.89821 0.97373 0.0
H4690 H 0.64944 0.87123 1.00681 0.0
H4691 H 0.67164 0.86878 0.04373 0.0
H4692 H 0.74911 0.86205 0.99938 0.0
H4693 H 0.77257 0.88397 1.00173 0.0
H4694 H 0.75113 0.88534 0.97925 0.0
H4695 H 0.7429 0.92741 0.99337 0.0
H4696 H 0.76447 0.92622 0.01585 0.0
H4697 H 0.73557 0.9329 0.02317 0.0
H4698 H 0.70337 0.86621 0.0766 0.0
H4699 H 0.73923 0.86541 0.10052 0.0
H4700 H 0.77805 0.89499 0.04407 0.0
C4701 C 0.70216 0.89207 0.98879 0.0
C4702 C 0.6786 0.88491 0.9874 0.0
C4703 C 0.66747 0.87702 1.00756 0.0
C4704 C 0.68 0.87549 0.02854 0.0
C4705 C 0.70351 0.8822 0.02908 0.0
C4706 C 0.71425 0.89062 0.00963 0.0
C4707 C 0.73964 0.896 0.01383 0.0
C4708 C 0.75394 0.88094 0.99759 0.0
C4709 C 0.74601 0.92219 0.01142 0.0
C4710 C 0.74185 0.88898 0.0386 0.0
C4711 C 0.72101 0.88106 0.0474 0.0
C4712 C 0.71965 0.87266 0.06983 0.0
C4713 C 0.74009 0.87227 0.08333 0.0
C4714 C 0.76153 0.88017 0.07428 0.0
C4715 C 0.76206 0.88885 0.05173 0.0
H4716 H 0.26795 0.586 0.98063 0.0
H4717 H 0.29188 0.65809 0.97311 0.0
H4718 H 0.27181 0.66937 1.00887 0.0
H4719 H 0.21334 0.59669 0.99596 0.0
H4720 H 0.20963 0.57409 0.01669 0.0
H4721 H 0.22976 0.57107 0.99372 0.0
H4722 H 0.26229 0.56581 0.02372 0.0
H4723 H 0.24219 0.56883 0.0469 0.0
H4724 H 0.26804 0.58766 0.04655 0.0
H4725 H 0.24508 0.67351 0.04282 0.0
H4726 H 0.2119 0.67058 0.06915 0.0
H4727 H 0.20358 0.59627 0.05335 0.0
C4728 C 0.26975 0.60394 0.98719 0.0
C4729 C 0.28212 0.62108 0.97466 0.0
C4730 C 0.2831 0.64463 0.98295 0.0
C4731 C 0.27171 0.65118 1.00323 0.0
C4732 C 0.25925 0.63397 0.01508 0.0
C4733 C 0.25824 0.61079 1.00735 0.0
C4734 C 0.24146 0.59619 0.02153 0.0
C4735 C 0.22242 0.58381 1.00605 0.0
C4736 C 0.25426 0.57858 0.0355 0.0
C4737 C 0.23212 0.61493 0.03742 0.0
C4738 C 0.24319 0.63648 0.03404 0.0
C4739 C 0.23665 0.65662 0.04594 0.0
C4740 C 0.21792 0.65481 0.06107 0.0
C4741 C 0.20563 0.63311 0.06382 0.0
C4742 C 0.21317 0.61293 0.05214 0.0
H4743 H 0.14506 0.56178 0.72328 0.0
H4744 H 0.14852 0.51904 0.66028 0.0
H4745 H 0.15279 0.48403 0.68405 0.0
H4746 H 0.1872 0.53465 0.75512 0.0
H4747 H 0.1726 0.53791 0.7822 0.0
H4748 H 0.16874 0.55842 0.75986 0.0
H4749 H 0.12459 0.5497 0.76089 0.0
H4750 H 0.12833 0.5292 0.78329 0.0
H4751 H 0.11292 0.51999 0.75698 0.0
H4752 H 0.15889 0.45331 0.71749 0.0
H4753 H 0.16476 0.43263 0.75416 0.0
H4754 H 0.1566 0.49754 0.79299 0.0
C4755 C 0.14655 0.5451 0.71424 0.0
C4756 C 0.14645 0.54335 0.68975 0.0
C4757 C 0.1484 0.52096 0.67897 0.0
C4758 C 0.15092 0.50097 0.69242 0.0
C4759 C 0.15132 0.50356 0.71667 0.0
C4760 C 0.149 0.52526 0.72726 0.0
C4761 C 0.15033 0.52428 0.75332 0.0
C4762 C 0.17094 0.53972 0.76319 0.0
C4763 C 0.1277 0.5312 0.76426 0.0
C4764 C 0.15392 0.49866 0.75612 0.0
C4765 C 0.1545 0.48669 0.73499 0.0
C4766 C 0.15829 0.46273 0.73399 0.0
C4767 C 0.16161 0.45104 0.75494 0.0
C4768 C 0.16113 0.46327 0.77669 0.0
C4769 C 0.15705 0.48737 0.77689 0.0
H4770 H 0.27544 0.40128 0.54431 0.0
H4771 H 0.24298 0.35574 0.59386 0.0
H4772 H 0.20594 0.35649 0.57206 0.0
H4773 H 0.22329 0.43559 0.53208 0.0
H4774 H 0.23103 0.4378 0.50215 0.0
H4775 H 0.25313 0.43704 0.5242 0.0
H4776 H 0.26977 0.40179 0.50242 0.0
H4777 H 0.24767 0.40221 0.48053 0.0
H4778 H 0.25142 0.37589 0.49593 0.0
H4779 H 0.17376 0.35788 0.54057 0.0
H4780 H 0.15092 0.36004 0.50407 0.0
H4781 H 0.20564 0.40424 0.47589 0.0
C4782 C 0.2603 0.39217 0.55106 0.0
C4783 C 0.26194 0.37872 0.57093 0.0
C4784 C 0.24193 0.36661 0.57899 0.0
C4785 C 0.22088 0.36685 0.56659 0.0
C4786 C 0.22007 0.37963 0.54643 0.0
C4787 C 0.23929 0.39243 0.53906 0.0
C4788 C 0.23488 0.40321 0.51602 0.0
C4789 C 0.23562 0.43 0.51878 0.0
C4790 C 0.25193 0.39528 0.49766 0.0
C4791 C 0.21068 0.39326 0.51068 0.0
C4792 C 0.20204 0.38019 0.52858 0.0
C4793 C 0.1803 0.36843 0.5267 0.0
C4794 C 0.16737 0.36979 0.50596 0.0
C4795 C 0.17647 0.38239 0.48723 0.0
C4796 C 0.19819 0.39456 0.48997 0.0
H4797 H 0.41234 0.54482 0.28059 0.0
H4798 H 0.39732 0.6053 0.24154 0.0
H4799 H 0.40125 0.58162 0.20487 0.0
H4800 H 0.45331 0.52003 0.24179 0.0
H4801 H 0.4428 0.49065 0.24749 0.0
H4802 H 0.44115 0.51348 0.26947 0.0
H4803 H 0.3973 0.50381 0.27238 0.0
H4804 H 0.39872 0.48112 0.2503 0.0
H4805 H 0.37939 0.50415 0.24674 0.0
H4806 H 0.40463 0.54785 0.1718 0.0
H4807 H 0.40662 0.51043 0.14865 0.0
H4808 H 0.41786 0.47446 0.21209 0.0
C4809 C 0.41007 0.5534 0.2644 0.0
C4810 C 0.40442 0.57699 0.26404 0.0
C4811 C 0.40178 0.5873 0.24232 0.0
C4812 C 0.40391 0.57389 0.22142 0.0
C4813 C 0.40879 0.55029 0.22259 0.0
C4814 C 0.41195 0.54041 0.24378 0.0
C4815 C 0.41571 0.51467 0.24132 0.0
C4816 C 0.43967 0.50941 0.25056 0.0
C4817 C 0.39664 0.5001 0.25339 0.0
C4818 C 0.41398 0.51117 0.21538 0.0
C4819 C 0.41019 0.5317 0.20452 0.0
C4820 C 0.40766 0.53182 0.18035 0.0
C4821 C 0.40883 0.5105 0.16727 0.0
C4822 C 0.41219 0.48935 0.17846 0.0
C4823 C 0.41503 0.49011 0.20279 0.0
loop_
_geom_bond_atom_site_label_1
_geom_bond_atom_site_label_2
_geom_bond_distance
_geom_bond_site_symmetry_2
_ccdc_geom_bond_type
C0 C1 1.351 . S
C0 N3 1.368 . S
C0 H5 0.931 . S
C1 C0 1.351 . S
C1 N2 1.373 . S
C1 H29 0.930 . S
N2 C1 1.373 . S
N2 C4 1.340 . S
N3 C0 1.368 . S
N3 C4 1.321 . S
N3 Co6 2.135 . S
C4 N2 1.340 . S
C4 N3 1.321 . S
C4 H28 0.930 . S
H5 C0 0.931 . S
Co6 N3 2.135 . S
Co6 N9 2.121 . S
Co6 O14 2.055 . S
Co6 O17 2.039 . S
Co6 N20 2.140 . S
C7 O8 1.227 . S
C7 O17 1.265 . S
O8 C7 1.227 . S
N9 Co6 2.121 . S
N9 C11 1.375 . S
N9 C12 1.313 . S
C10 C11 1.338 . S
C10 N13 1.377 . S
C10 H30 0.930 . S
C11 N9 1.375 . S
C11 C10 1.338 . S
C11 H15 0.931 . S
C12 N9 1.313 . S
C12 N13 1.344 . S
C12 H16 0.930 . S
N13 C10 1.377 . S
N13 C12 1.344 . S
O14 Co6 2.055 . S
O14 C18 1.253 . S
H15 C11 0.931 . S
H16 C12 0.930 . S
O17 Co6 2.039 . S
O17 C7 1.265 . S
C18 O14 1.253 . S
C18 O19 1.227 . S
O19 C18 1.227 . S
N20 Co6 2.140 . S
N20 C23 1.346 . S
N20 C24 1.345 . S
C21 C22 1.387 . S
C21 C25 1.391 . S
C22 C21 1.387 . S
C22 C23 1.369 . S
C22 H31 0.929 . S
C23 N20 1.346 . S
C23 C22 1.369 . S
C23 H26 0.928 . S
C24 N20 1.345 . S
C24 C25 1.371 . S
C24 H27 0.931 . S
C25 C21 1.391 . S
C25 C24 1.371 . S
C25 H32 0.930 . S
H26 C23 0.928 . S
H27 C24 0.931 . S
H28 C4 0.930 . S
H29 C1 0.930 . S
H30 C10 0.930 . S
H31 C22 0.929 . S
H32 C25 0.930 . S
C33 C34 1.351 . S
C33 N36 1.368 . S
C33 H38 0.931 . S
C34 C33 1.351 . S
C34 N35 1.373 . S
C34 H62 0.930 . S
N35 C34 1.373 . S
N35 C37 1.340 . S
N36 C33 1.368 . S
N36 C37 1.321 . S
N36 Co39 2.135 . S
C37 N35 1.340 . S
C37 N36 1.321 . S
C37 H61 0.930 . S
H38 C33 0.931 . S
Co39 N36 2.135 . S
Co39 N42 2.121 . S
Co39 O47 2.055 . S
Co39 O50 2.039 . S
Co39 N53 2.140 . S
C40 O41 1.227 . S
C40 O50 1.265 . S
O41 C40 1.227 . S
N42 Co39 2.121 . S
N42 C44 1.375 . S
N42 C45 1.313 . S
C43 C44 1.338 . S
C43 N46 1.377 . S
C43 H63 0.930 . S
C44 N42 1.375 . S
C44 C43 1.338 . S
C44 H48 0.931 . S
C45 N42 1.313 . S
C45 N46 1.344 . S
C45 H49 0.930 . S
N46 C43 1.377 . S
N46 C45 1.344 . S
O47 Co39 2.055 . S
O47 C51 1.253 . S
H48 C44 0.931 . S
H49 C45 0.930 . S
O50 Co39 2.039 . S
O50 C40 1.265 . S
C51 O47 1.253 . S
C51 O52 1.227 . S
O52 C51 1.227 . S
N53 Co39 2.140 . S
N53 C56 1.346 . S
N53 C57 1.345 . S
C54 C55 1.387 . S
C54 C58 1.391 . S
C55 C54 1.387 . S
C55 C56 1.369 . S
C55 H64 0.929 . S
C56 N53 1.346 . S
C56 C55 1.369 . S
C56 H59 0.928 . S
C57 N53 1.345 . S
C57 C58 1.371 . S
C57 H60 0.931 . S
C58 C54 1.391 . S
C58 C57 1.371 . S
C58 H65 0.930 . S
H59 C56 0.928 . S
H60 C57 0.931 . S
H61 C37 0.930 . S
H62 C34 0.930 . S
H63 C43 0.930 . S
H64 C55 0.929 . S
H65 C58 0.930 . S
C66 C67 1.351 . S
C66 N69 1.368 . S
C66 H71 0.931 . S
C67 C66 1.351 . S
C67 N68 1.373 . S
C67 H95 0.930 . S
N68 C67 1.373 . S
N68 C70 1.340 . S
N69 C66 1.368 . S
N69 C70 1.321 . S
N69 Co72 2.135 . S
C70 N68 1.340 . S
C70 N69 1.321 . S
C70 H94 0.930 . S
H71 C66 0.931 . S
Co72 N69 2.135 . S
Co72 N75 2.121 . S
Co72 O80 2.055 . S
Co72 O83 2.039 . S
Co72 N86 2.140 . S
C73 O74 1.227 . S
C73 O83 1.265 . S
O74 C73 1.227 . S
N75 Co72 2.121 . S
N75 C77 1.375 . S
N75 C78 1.313 . S
C76 C77 1.338 . S
C76 N79 1.377 . S
C76 H96 0.930 . S
C77 N75 1.375 . S
C77 C76 1.338 . S
C77 H81 0.931 . S
C78 N75 1.313 . S
C78 N79 1.344 . S
C78 H82 0.930 . S
N79 C76 1.377 . S
N79 C78 1.344 . S
O80 Co72 2.055 . S
O80 C84 1.253 . S
H81 C77 0.931 . S
H82 C78 0.930 . S
O83 Co72 2.039 . S
O83 C73 1.265 . S
C84 O80 1.253 . S
C84 O85 1.227 . S
O85 C84 1.227 . S
N86 Co72 2.140 . S
N86 C89 1.346 . S
N86 C90 1.345 . S
C87 C88 1.387 . S
C87 C91 1.391 . S
C88 C87 1.387 . S
C88 C89 1.369 . S
C88 H97 0.929 . S
C89 N86 1.346 . S
C89 C88 1.369 . S
C89 H92 0.928 . S
C90 N86 1.345 . S
C90 C91 1.371 . S
C90 H93 0.931 . S
C91 C87 1.391 . S
C91 C90 1.371 . S
C91 H98 0.930 . S
H92 C89 0.928 . S
H93 C90 0.931 . S
H94 C70 0.930 . S
H95 C67 0.930 . S
H96 C76 0.930 . S
H97 C88 0.929 . S
H98 C91 0.930 . S
C99 C100 1.351 . S
C99 N102 1.368 . S
C99 H104 0.931 . S
C100 C99 1.351 . S
C100 N101 1.373 . S
C100 H128 0.930 . S
N101 C100 1.373 . S
N101 C103 1.340 . S
N102 C99 1.368 . S
N102 C103 1.321 . S
N102 Co105 2.135 . S
C103 N101 1.340 . S
C103 N102 1.321 . S
C103 H127 0.930 . S
H104 C99 0.931 . S
Co105 N102 2.135 . S
Co105 N108 2.121 . S
Co105 O113 2.055 . S
Co105 O116 2.039 . S
Co105 N119 2.140 . S
C106 O107 1.227 . S
C106 O116 1.265 . S
O107 C106 1.227 . S
N108 Co105 2.121 . S
N108 C110 1.375 . S
N108 C111 1.313 . S
C109 C110 1.338 . S
C109 N112 1.377 . S
C109 H129 0.930 . S
C110 N108 1.375 . S
C110 C109 1.338 . S
C110 H114 0.931 . S
C111 N108 1.313 . S
C111 N112 1.344 . S
C111 H115 0.930 . S
N112 C109 1.377 . S
N112 C111 1.344 . S
O113 Co105 2.055 . S
O113 C117 1.253 . S
H114 C110 0.931 . S
H115 C111 0.930 . S
O116 Co105 2.039 . S
O116 C106 1.265 . S
C117 O113 1.253 . S
C117 O118 1.227 . S
O118 C117 1.227 . S
N119 Co105 2.140 . S
N119 C122 1.346 . S
N119 C123 1.345 . S
C120 C121 1.387 . S
C120 C124 1.391 . S
C121 C120 1.387 . S
C121 C122 1.369 . S
C121 H130 0.929 . S
C122 N119 1.346 . S
C122 C121 1.369 . S
C122 H125 0.928 . S
C123 N119 1.345 . S
C123 C124 1.371 . S
C123 H126 0.931 . S
C124 C120 1.391 . S
C124 C123 1.371 . S
C124 H131 0.930 . S
H125 C122 0.928 . S
H126 C123 0.931 . S
H127 C103 0.930 . S
H128 C100 0.930 . S
H129 C109 0.930 . S
H130 C121 0.929 . S
H131 C124 0.930 . S
C132 C133 1.351 . S
C132 N135 1.368 . S
C132 H137 0.931 . S
C133 C132 1.351 . S
C133 N134 1.373 . S
C133 H161 0.930 . S
N134 C133 1.373 . S
N134 C136 1.340 . S
N135 C132 1.368 . S
N135 C136 1.321 . S
N135 Co138 2.135 . S
C136 N134 1.340 . S
C136 N135 1.321 . S
C136 H160 0.930 . S
H137 C132 0.931 . S
Co138 N135 2.135 . S
Co138 N141 2.121 . S
Co138 O146 2.055 . S
Co138 O149 2.039 . S
Co138 N152 2.140 . S
C139 O140 1.227 . S
C139 O149 1.265 . S
O140 C139 1.227 . S
N141 Co138 2.121 . S
N141 C143 1.375 . S
N141 C144 1.313 . S
C142 C143 1.338 . S
C142 N145 1.377 . S
C142 H162 0.930 . S
C143 N141 1.375 . S
C143 C142 1.338 . S
C143 H147 0.931 . S
C144 N141 1.313 . S
C144 N145 1.344 . S
C144 H148 0.930 . S
N145 C142 1.377 . S
N145 C144 1.344 . S
O146 Co138 2.055 . S
O146 C150 1.253 . S
H147 C143 0.931 . S
H148 C144 0.930 . S
O149 Co138 2.039 . S
O149 C139 1.265 . S
C150 O146 1.253 . S
C150 O151 1.227 . S
O151 C150 1.227 . S
N152 Co138 2.140 . S
N152 C155 1.346 . S
N152 C156 1.345 . S
C153 C154 1.387 . S
C153 C157 1.391 . S
C154 C153 1.387 . S
C154 C155 1.369 . S
C154 H163 0.929 . S
C155 N152 1.346 . S
C155 C154 1.369 . S
C155 H158 0.928 . S
C156 N152 1.345 . S
C156 C157 1.371 . S
C156 H159 0.931 . S
C157 C153 1.391 . S
C157 C156 1.371 . S
C157 H164 0.930 . S
H158 C155 0.928 . S
H159 C156 0.931 . S
H160 C136 0.930 . S
H161 C133 0.930 . S
H162 C142 0.930 . S
H163 C154 0.929 . S
H164 C157 0.930 . S
C165 C166 1.351 . S
C165 N168 1.368 . S
C165 H170 0.931 . S
C166 C165 1.351 . S
C166 N167 1.373 . S
C166 H194 0.930 . S
N167 C166 1.373 . S
N167 C169 1.340 . S
N168 C165 1.368 . S
N168 C169 1.321 . S
N168 Co171 2.135 . S
C169 N167 1.340 . S
C169 N168 1.321 . S
C169 H193 0.930 . S
H170 C165 0.931 . S
Co171 N168 2.135 . S
Co171 N174 2.121 . S
Co171 O179 2.055 . S
Co171 O182 2.039 . S
Co171 N185 2.140 . S
C172 O173 1.227 . S
C172 O182 1.265 . S
O173 C172 1.227 . S
N174 Co171 2.121 . S
N174 C176 1.375 . S
N174 C177 1.313 . S
C175 C176 1.338 . S
C175 N178 1.377 . S
C175 H195 0.930 . S
C176 N174 1.375 . S
C176 C175 1.338 . S
C176 H180 0.931 . S
C177 N174 1.313 . S
C177 N178 1.344 . S
C177 H181 0.930 . S
N178 C175 1.377 . S
N178 C177 1.344 . S
O179 Co171 2.055 . S
O179 C183 1.253 . S
H180 C176 0.931 . S
H181 C177 0.930 . S
O182 Co171 2.039 . S
O182 C172 1.265 . S
C183 O179 1.253 . S
C183 O184 1.227 . S
O184 C183 1.227 . S
N185 Co171 2.140 . S
N185 C188 1.346 . S
N185 C189 1.345 . S
C186 C187 1.387 . S
C186 C190 1.391 . S
C187 C186 1.387 . S
C187 C188 1.369 . S
C187 H196 0.929 . S
C188 N185 1.346 . S
C188 C187 1.369 . S
C188 H191 0.928 . S
C189 N185 1.345 . S
C189 C190 1.371 . S
C189 H192 0.931 . S
C190 C186 1.391 . S
C190 C189 1.371 . S
C190 H197 0.930 . S
H191 C188 0.928 . S
H192 C189 0.931 . S
H193 C169 0.930 . S
H194 C166 0.930 . S
H195 C175 0.930 . S
H196 C187 0.929 . S
H197 C190 0.930 . S
C198 C199 1.351 . S
C198 N201 1.368 . S
C198 H203 0.931 . S
C199 C198 1.351 . S
C199 N200 1.373 . S
C199 H227 0.930 . S
N200 C199 1.373 . S
N200 C202 1.340 . S
N201 C198 1.368 . S
N201 C202 1.321 . S
N201 Co204 2.135 . S
C202 N200 1.340 . S
C202 N201 1.321 . S
C202 H226 0.930 . S
H203 C198 0.931 . S
Co204 N201 2.135 . S
Co204 N207 2.121 . S
Co204 O212 2.055 . S
Co204 O215 2.039 . S
Co204 N218 2.140 . S
C205 O206 1.227 . S
C205 O215 1.265 . S
O206 C205 1.227 . S
N207 Co204 2.121 . S
N207 C209 1.375 . S
N207 C210 1.313 . S
C208 C209 1.338 . S
C208 N211 1.377 . S
C208 H228 0.930 . S
C209 N207 1.375 . S
C209 C208 1.338 . S
C209 H213 0.931 . S
C210 N207 1.313 . S
C210 N211 1.344 . S
C210 H214 0.930 . S
N211 C208 1.377 . S
N211 C210 1.344 . S
O212 Co204 2.055 . S
O212 C216 1.253 . S
H213 C209 0.931 . S
H214 C210 0.930 . S
O215 Co204 2.039 . S
O215 C205 1.265 . S
C216 O212 1.253 . S
C216 O217 1.227 . S
O217 C216 1.227 . S
N218 Co204 2.140 . S
N218 C221 1.346 . S
N218 C222 1.345 . S
C219 C220 1.387 . S
C219 C223 1.391 . S
C220 C219 1.387 . S
C220 C221 1.369 . S
C220 H229 0.929 . S
C221 N218 1.346 . S
C221 C220 1.369 . S
C221 H224 0.928 . S
C222 N218 1.345 . S
C222 C223 1.371 . S
C222 H225 0.931 . S
C223 C219 1.391 . S
C223 C222 1.371 . S
C223 H230 0.930 . S
H224 C221 0.928 . S
H225 C222 0.931 . S
H226 C202 0.930 . S
H227 C199 0.930 . S
H228 C208 0.930 . S
H229 C220 0.929 . S
H230 C223 0.930 . S
C231 C232 1.351 . S
C231 N234 1.368 . S
C231 H236 0.931 . S
C232 C231 1.351 . S
C232 N233 1.373 . S
C232 H260 0.930 . S
N233 C232 1.373 . S
N233 C235 1.340 . S
N234 C231 1.368 . S
N234 C235 1.321 . S
N234 Co237 2.135 . S
C235 N233 1.340 . S
C235 N234 1.321 . S
C235 H259 0.930 . S
H236 C231 0.931 . S
Co237 N234 2.135 . S
Co237 N240 2.121 . S
Co237 O245 2.055 . S
Co237 O248 2.039 . S
Co237 N251 2.140 . S
C238 O239 1.227 . S
C238 O248 1.265 . S
O239 C238 1.227 . S
N240 Co237 2.121 . S
N240 C242 1.375 . S
N240 C243 1.313 . S
C241 C242 1.338 . S
C241 N244 1.377 . S
C241 H261 0.930 . S
C242 N240 1.375 . S
C242 C241 1.338 . S
C242 H246 0.931 . S
C243 N240 1.313 . S
C243 N244 1.344 . S
C243 H247 0.930 . S
N244 C241 1.377 . S
N244 C243 1.344 . S
O245 Co237 2.055 . S
O245 C249 1.253 . S
H246 C242 0.931 . S
H247 C243 0.930 . S
O248 Co237 2.039 . S
O248 C238 1.265 . S
C249 O245 1.253 . S
C249 O250 1.227 . S
O250 C249 1.227 . S
N251 Co237 2.140 . S
N251 C254 1.346 . S
N251 C255 1.345 . S
C252 C253 1.387 . S
C252 C256 1.391 . S
C253 C252 1.387 . S
C253 C254 1.369 . S
C253 H262 0.929 . S
C254 N251 1.346 . S
C254 C253 1.369 . S
C254 H257 0.928 . S
C255 N251 1.345 . S
C255 C256 1.371 . S
C255 H258 0.931 . S
C256 C252 1.391 . S
C256 C255 1.371 . S
C256 H263 0.930 . S
H257 C254 0.928 . S
H258 C255 0.931 . S
H259 C235 0.930 . S
H260 C232 0.930 . S
H261 C241 0.930 . S
H262 C253 0.929 . S
H263 C256 0.930 . S
C264 C265 1.351 . S
C264 N267 1.368 . S
C264 H269 0.931 . S
C265 C264 1.351 . S
C265 N266 1.373 . S
C265 H293 0.930 . S
N266 C265 1.373 . S
N266 C268 1.340 . S
N267 C264 1.368 . S
N267 C268 1.321 . S
N267 Co270 2.135 . S
C268 N266 1.340 . S
C268 N267 1.321 . S
C268 H292 0.930 . S
H269 C264 0.931 . S
Co270 N267 2.135 . S
Co270 N273 2.121 . S
Co270 O278 2.055 . S
Co270 O281 2.039 . S
Co270 N284 2.140 . S
C271 O272 1.227 . S
C271 O281 1.265 . S
O272 C271 1.227 . S
N273 Co270 2.121 . S
N273 C275 1.375 . S
N273 C276 1.313 . S
C274 C275 1.338 . S
C274 N277 1.377 . S
C274 H294 0.930 . S
C275 N273 1.375 . S
C275 C274 1.338 . S
C275 H279 0.931 . S
C276 N273 1.313 . S
C276 N277 1.344 . S
C276 H280 0.930 . S
N277 C274 1.377 . S
N277 C276 1.344 . S
O278 Co270 2.055 . S
O278 C282 1.253 . S
H279 C275 0.931 . S
H280 C276 0.930 . S
O281 Co270 2.039 . S
O281 C271 1.265 . S
C282 O278 1.253 . S
C282 O283 1.227 . S
O283 C282 1.227 . S
N284 Co270 2.140 . S
N284 C287 1.346 . S
N284 C288 1.345 . S
C285 C286 1.387 . S
C285 C289 1.391 . S
C286 C285 1.387 . S
C286 C287 1.369 . S
C286 H295 0.929 . S
C287 N284 1.346 . S
C287 C286 1.369 . S
C287 H290 0.928 . S
C288 N284 1.345 . S
C288 C289 1.371 . S
C288 H291 0.931 . S
C289 C285 1.391 . S
C289 C288 1.371 . S
C289 H296 0.930 . S
H290 C287 0.928 . S
H291 C288 0.931 . S
H292 C268 0.930 . S
H293 C265 0.930 . S
H294 C274 0.930 . S
H295 C286 0.929 . S
H296 C289 0.930 . S
C297 C298 1.351 . S
C297 N300 1.368 . S
C297 H302 0.931 . S
C298 C297 1.351 . S
C298 N299 1.373 . S
C298 H326 0.930 . S
N299 C298 1.373 . S
N299 C301 1.340 . S
N300 C297 1.368 . S
N300 C301 1.321 . S
N300 Co303 2.135 . S
C301 N299 1.340 . S
C301 N300 1.321 . S
C301 H325 0.930 . S
H302 C297 0.931 . S
Co303 N300 2.135 . S
Co303 N306 2.121 . S
Co303 O311 2.055 . S
Co303 O314 2.039 . S
Co303 N317 2.140 . S
C304 O305 1.227 . S
C304 O314 1.265 . S
O305 C304 1.227 . S
N306 Co303 2.121 . S
N306 C308 1.375 . S
N306 C309 1.313 . S
C307 C308 1.338 . S
C307 N310 1.377 . S
C307 H327 0.930 . S
C308 N306 1.375 . S
C308 C307 1.338 . S
C308 H312 0.931 . S
C309 N306 1.313 . S
C309 N310 1.344 . S
C309 H313 0.930 . S
N310 C307 1.377 . S
N310 C309 1.344 . S
O311 Co303 2.055 . S
O311 C315 1.253 . S
H312 C308 0.931 . S
H313 C309 0.930 . S
O314 Co303 2.039 . S
O314 C304 1.265 . S
C315 O311 1.253 . S
C315 O316 1.227 . S
O316 C315 1.227 . S
N317 Co303 2.140 . S
N317 C320 1.346 . S
N317 C321 1.345 . S
C318 C319 1.387 . S
C318 C322 1.391 . S
C319 C318 1.387 . S
C319 C320 1.369 . S
C319 H328 0.929 . S
C320 N317 1.346 . S
C320 C319 1.369 . S
C320 H323 0.928 . S
C321 N317 1.345 . S
C321 C322 1.371 . S
C321 H324 0.931 . S
C322 C318 1.391 . S
C322 C321 1.371 . S
C322 H329 0.930 . S
H323 C320 0.928 . S
H324 C321 0.931 . S
H325 C301 0.930 . S
H326 C298 0.930 . S
H327 C307 0.930 . S
H328 C319 0.929 . S
H329 C322 0.930 . S
C330 C331 1.351 . S
C330 N333 1.368 . S
C330 H335 0.931 . S
C331 C330 1.351 . S
C331 N332 1.373 . S
C331 H359 0.930 . S
N332 C331 1.373 . S
N332 C334 1.340 . S
N333 C330 1.368 . S
N333 C334 1.321 . S
N333 Co336 2.135 . S
C334 N332 1.340 . S
C334 N333 1.321 . S
C334 H358 0.930 . S
H335 C330 0.931 . S
Co336 N333 2.135 . S
Co336 N339 2.121 . S
Co336 O344 2.055 . S
Co336 O347 2.039 . S
Co336 N350 2.140 . S
C337 O338 1.227 . S
C337 O347 1.265 . S
O338 C337 1.227 . S
N339 Co336 2.121 . S
N339 C341 1.375 . S
N339 C342 1.313 . S
C340 C341 1.338 . S
C340 N343 1.377 . S
C340 H360 0.930 . S
C341 N339 1.375 . S
C341 C340 1.338 . S
C341 H345 0.931 . S
C342 N339 1.313 . S
C342 N343 1.344 . S
C342 H346 0.930 . S
N343 C340 1.377 . S
N343 C342 1.344 . S
O344 Co336 2.055 . S
O344 C348 1.253 . S
H345 C341 0.931 . S
H346 C342 0.930 . S
O347 Co336 2.039 . S
O347 C337 1.265 . S
C348 O344 1.253 . S
C348 O349 1.227 . S
O349 C348 1.227 . S
N350 Co336 2.140 . S
N350 C353 1.346 . S
N350 C354 1.345 . S
C351 C352 1.387 . S
C351 C355 1.391 . S
C352 C351 1.387 . S
C352 C353 1.369 . S
C352 H361 0.929 . S
C353 N350 1.346 . S
C353 C352 1.369 . S
C353 H356 0.928 . S
C354 N350 1.345 . S
C354 C355 1.371 . S
C354 H357 0.931 . S
C355 C351 1.391 . S
C355 C354 1.371 . S
C355 H362 0.930 . S
H356 C353 0.928 . S
H357 C354 0.931 . S
H358 C334 0.930 . S
H359 C331 0.930 . S
H360 C340 0.930 . S
H361 C352 0.929 . S
H362 C355 0.930 . S
C363 C364 1.351 . S
C363 N366 1.368 . S
C363 H368 0.931 . S
C364 C363 1.351 . S
C364 N365 1.373 . S
C364 H392 0.930 . S
N365 C364 1.373 . S
N365 C367 1.340 . S
N366 C363 1.368 . S
N366 C367 1.321 . S
N366 Co369 2.135 . S
C367 N365 1.340 . S
C367 N366 1.321 . S
C367 H391 0.930 . S
H368 C363 0.931 . S
Co369 N366 2.135 . S
Co369 N372 2.121 . S
Co369 O377 2.055 . S
Co369 O380 2.039 . S
Co369 N383 2.140 . S
C370 O371 1.227 . S
C370 O380 1.265 . S
O371 C370 1.227 . S
N372 Co369 2.121 . S
N372 C374 1.375 . S
N372 C375 1.313 . S
C373 C374 1.338 . S
C373 N376 1.377 . S
C373 H393 0.930 . S
C374 N372 1.375 . S
C374 C373 1.338 . S
C374 H378 0.931 . S
C375 N372 1.313 . S
C375 N376 1.344 . S
C375 H379 0.930 . S
N376 C373 1.377 . S
N376 C375 1.344 . S
O377 Co369 2.055 . S
O377 C381 1.253 . S
H378 C374 0.931 . S
H379 C375 0.930 . S
O380 Co369 2.039 . S
O380 C370 1.265 . S
C381 O377 1.253 . S
C381 O382 1.227 . S
O382 C381 1.227 . S
N383 Co369 2.140 . S
N383 C386 1.346 . S
N383 C387 1.345 . S
C384 C385 1.387 . S
C384 C388 1.391 . S
C385 C384 1.387 . S
C385 C386 1.369 . S
C385 H394 0.929 . S
C386 N383 1.346 . S
C386 C385 1.369 . S
C386 H389 0.928 . S
C387 N383 1.345 . S
C387 C388 1.371 . S
C387 H390 0.931 . S
C388 C384 1.391 . S
C388 C387 1.371 . S
C388 H395 0.930 . S
H389 C386 0.928 . S
H390 C387 0.931 . S
H391 C367 0.930 . S
H392 C364 0.930 . S
H393 C373 0.930 . S
H394 C385 0.929 . S
H395 C388 0.930 . S
C396 C397 1.351 . S
C396 N399 1.368 . S
C396 H401 0.931 . S
C397 C396 1.351 . S
C397 N398 1.373 . S
C397 H425 0.930 . S
N398 C397 1.373 . S
N398 C400 1.340 . S
N399 C396 1.368 . S
N399 C400 1.321 . S
N399 Co402 2.135 . S
C400 N398 1.340 . S
C400 N399 1.321 . S
C400 H424 0.930 . S
H401 C396 0.931 . S
Co402 N399 2.135 . S
Co402 N405 2.121 . S
Co402 O410 2.055 . S
Co402 O413 2.039 . S
Co402 N416 2.140 . S
C403 O404 1.227 . S
C403 O413 1.265 . S
O404 C403 1.227 . S
N405 Co402 2.121 . S
N405 C407 1.375 . S
N405 C408 1.313 . S
C406 C407 1.338 . S
C406 N409 1.377 . S
C406 H426 0.930 . S
C407 N405 1.375 . S
C407 C406 1.338 . S
C407 H411 0.931 . S
C408 N405 1.313 . S
C408 N409 1.344 . S
C408 H412 0.930 . S
N409 C406 1.377 . S
N409 C408 1.344 . S
O410 Co402 2.055 . S
O410 C414 1.253 . S
H411 C407 0.931 . S
H412 C408 0.930 . S
O413 Co402 2.039 . S
O413 C403 1.265 . S
C414 O410 1.253 . S
C414 O415 1.227 . S
O415 C414 1.227 . S
N416 Co402 2.140 . S
N416 C419 1.346 . S
N416 C420 1.345 . S
C417 C418 1.387 . S
C417 C421 1.391 . S
C418 C417 1.387 . S
C418 C419 1.369 . S
C418 H427 0.929 . S
C419 N416 1.346 . S
C419 C418 1.369 . S
C419 H422 0.928 . S
C420 N416 1.345 . S
C420 C421 1.371 . S
C420 H423 0.931 . S
C421 C417 1.391 . S
C421 C420 1.371 . S
C421 H428 0.930 . S
H422 C419 0.928 . S
H423 C420 0.931 . S
H424 C400 0.930 . S
H425 C397 0.930 . S
H426 C406 0.930 . S
H427 C418 0.929 . S
H428 C421 0.930 . S
C429 C430 1.351 . S
C429 N432 1.368 . S
C429 H434 0.931 . S
C430 C429 1.351 . S
C430 N431 1.373 . S
C430 H458 0.930 . S
N431 C430 1.373 . S
N431 C433 1.340 . S
N432 C429 1.368 . S
N432 C433 1.321 . S
N432 Co435 2.135 . S
C433 N431 1.340 . S
C433 N432 1.321 . S
C433 H457 0.930 . S
H434 C429 0.931 . S
Co435 N432 2.135 . S
Co435 N438 2.121 . S
Co435 O443 2.055 . S
Co435 O446 2.039 . S
Co435 N449 2.140 . S
C436 O437 1.227 . S
C436 O446 1.265 . S
O437 C436 1.227 . S
N438 Co435 2.121 . S
N438 C440 1.375 . S
N438 C441 1.313 . S
C439 C440 1.338 . S
C439 N442 1.377 . S
C439 H459 0.930 . S
C440 N438 1.375 . S
C440 C439 1.338 . S
C440 H444 0.931 . S
C441 N438 1.313 . S
C441 N442 1.344 . S
C441 H445 0.930 . S
N442 C439 1.377 . S
N442 C441 1.344 . S
O443 Co435 2.055 . S
O443 C447 1.253 . S
H444 C440 0.931 . S
H445 C441 0.930 . S
O446 Co435 2.039 . S
O446 C436 1.265 . S
C447 O443 1.253 . S
C447 O448 1.227 . S
O448 C447 1.227 . S
N449 Co435 2.140 . S
N449 C452 1.346 . S
N449 C453 1.345 . S
C450 C451 1.387 . S
C450 C454 1.391 . S
C451 C450 1.387 . S
C451 C452 1.369 . S
C451 H460 0.929 . S
C452 N449 1.346 . S
C452 C451 1.369 . S
C452 H455 0.928 . S
C453 N449 1.345 . S
C453 C454 1.371 . S
C453 H456 0.931 . S
C454 C450 1.391 . S
C454 C453 1.371 . S
C454 H461 0.930 . S
H455 C452 0.928 . S
H456 C453 0.931 . S
H457 C433 0.930 . S
H458 C430 0.930 . S
H459 C439 0.930 . S
H460 C451 0.929 . S
H461 C454 0.930 . S
C462 C463 1.351 . S
C462 N465 1.368 . S
C462 H467 0.931 . S
C463 C462 1.351 . S
C463 N464 1.373 . S
C463 H491 0.930 . S
N464 C463 1.373 . S
N464 C466 1.340 . S
N465 C462 1.368 . S
N465 C466 1.321 . S
N465 Co468 2.135 . S
C466 N464 1.340 . S
C466 N465 1.321 . S
C466 H490 0.930 . S
H467 C462 0.931 . S
Co468 N465 2.135 . S
Co468 N471 2.121 . S
Co468 O476 2.055 . S
Co468 O479 2.039 . S
Co468 N482 2.140 . S
C469 O470 1.227 . S
C469 O479 1.265 . S
O470 C469 1.227 . S
N471 Co468 2.121 . S
N471 C473 1.375 . S
N471 C474 1.313 . S
C472 C473 1.338 . S
C472 N475 1.377 . S
C472 H492 0.930 . S
C473 N471 1.375 . S
C473 C472 1.338 . S
C473 H477 0.931 . S
C474 N471 1.313 . S
C474 N475 1.344 . S
C474 H478 0.930 . S
N475 C472 1.377 . S
N475 C474 1.344 . S
O476 Co468 2.055 . S
O476 C480 1.253 . S
H477 C473 0.931 . S
H478 C474 0.930 . S
O479 Co468 2.039 . S
O479 C469 1.265 . S
C480 O476 1.253 . S
C480 O481 1.227 . S
O481 C480 1.227 . S
N482 Co468 2.140 . S
N482 C485 1.346 . S
N482 C486 1.345 . S
C483 C484 1.387 . S
C483 C487 1.391 . S
C484 C483 1.387 . S
C484 C485 1.369 . S
C484 H493 0.929 . S
C485 N482 1.346 . S
C485 C484 1.369 . S
C485 H488 0.928 . S
C486 N482 1.345 . S
C486 C487 1.371 . S
C486 H489 0.931 . S
C487 C483 1.391 . S
C487 C486 1.371 . S
C487 H494 0.930 . S
H488 C485 0.928 . S
H489 C486 0.931 . S
H490 C466 0.930 . S
H491 C463 0.930 . S
H492 C472 0.930 . S
H493 C484 0.929 . S
H494 C487 0.930 . S
C495 C496 1.351 . S
C495 N498 1.368 . S
C495 H500 0.931 . S
C496 C495 1.351 . S
C496 N497 1.373 . S
C496 H524 0.930 . S
N497 C496 1.373 . S
N497 C499 1.340 . S
N498 C495 1.368 . S
N498 C499 1.321 . S
N498 Co501 2.135 . S
C499 N497 1.340 . S
C499 N498 1.321 . S
C499 H523 0.930 . S
H500 C495 0.931 . S
Co501 N498 2.135 . S
Co501 N504 2.121 . S
Co501 O509 2.055 . S
Co501 O512 2.039 . S
Co501 N515 2.140 . S
C502 O503 1.227 . S
C502 O512 1.265 . S
O503 C502 1.227 . S
N504 Co501 2.121 . S
N504 C506 1.375 . S
N504 C507 1.313 . S
C505 C506 1.338 . S
C505 N508 1.377 . S
C505 H525 0.930 . S
C506 N504 1.375 . S
C506 C505 1.338 . S
C506 H510 0.931 . S
C507 N504 1.313 . S
C507 N508 1.344 . S
C507 H511 0.930 . S
N508 C505 1.377 . S
N508 C507 1.344 . S
O509 Co501 2.055 . S
O509 C513 1.253 . S
H510 C506 0.931 . S
H511 C507 0.930 . S
O512 Co501 2.039 . S
O512 C502 1.265 . S
C513 O509 1.253 . S
C513 O514 1.227 . S
O514 C513 1.227 . S
N515 Co501 2.140 . S
N515 C518 1.346 . S
N515 C519 1.345 . S
C516 C517 1.387 . S
C516 C520 1.391 . S
C517 C516 1.387 . S
C517 C518 1.369 . S
C517 H526 0.929 . S
C518 N515 1.346 . S
C518 C517 1.369 . S
C518 H521 0.928 . S
C519 N515 1.345 . S
C519 C520 1.371 . S
C519 H522 0.931 . S
C520 C516 1.391 . S
C520 C519 1.371 . S
C520 H527 0.930 . S
H521 C518 0.928 . S
H522 C519 0.931 . S
H523 C499 0.930 . S
H524 C496 0.930 . S
H525 C505 0.930 . S
H526 C517 0.929 . S
H527 C520 0.930 . S
C528 C529 1.351 . S
C528 N531 1.368 . S
C528 H533 0.931 . S
C529 C528 1.351 . S
C529 N530 1.373 . S
C529 H557 0.930 . S
N530 C529 1.373 . S
N530 C532 1.340 . S
N531 C528 1.368 . S
N531 C532 1.321 . S
N531 Co534 2.135 . S
C532 N530 1.340 . S
C532 N531 1.321 . S
C532 H556 0.930 . S
H533 C528 0.931 . S
Co534 N531 2.135 . S
Co534 N537 2.121 . S
Co534 O542 2.055 . S
Co534 O545 2.039 . S
Co534 N548 2.140 . S
C535 O536 1.227 . S
C535 O545 1.265 . S
O536 C535 1.227 . S
N537 Co534 2.121 . S
N537 C539 1.375 . S
N537 C540 1.313 . S
C538 C539 1.338 . S
C538 N541 1.377 . S
C538 H558 0.930 . S
C539 N537 1.375 . S
C539 C538 1.338 . S
C539 H543 0.931 . S
C540 N537 1.313 . S
C540 N541 1.344 . S
C540 H544 0.930 . S
N541 C538 1.377 . S
N541 C540 1.344 . S
O542 Co534 2.055 . S
O542 C546 1.253 . S
H543 C539 0.931 . S
H544 C540 0.930 . S
O545 Co534 2.039 . S
O545 C535 1.265 . S
C546 O542 1.253 . S
C546 O547 1.227 . S
O547 C546 1.227 . S
N548 Co534 2.140 . S
N548 C551 1.346 . S
N548 C552 1.345 . S
C549 C550 1.387 . S
C549 C553 1.391 . S
C550 C549 1.387 . S
C550 C551 1.369 . S
C550 H559 0.929 . S
C551 N548 1.346 . S
C551 C550 1.369 . S
C551 H554 0.928 . S
C552 N548 1.345 . S
C552 C553 1.371 . S
C552 H555 0.931 . S
C553 C549 1.391 . S
C553 C552 1.371 . S
C553 H560 0.930 . S
H554 C551 0.928 . S
H555 C552 0.931 . S
H556 C532 0.930 . S
H557 C529 0.930 . S
H558 C538 0.930 . S
H559 C550 0.929 . S
H560 C553 0.930 . S
C561 C562 1.351 . S
C561 N564 1.368 . S
C561 H566 0.931 . S
C562 C561 1.351 . S
C562 N563 1.373 . S
C562 H590 0.930 . S
N563 C562 1.373 . S
N563 C565 1.340 . S
N564 C561 1.368 . S
N564 C565 1.321 . S
N564 Co567 2.135 . S
C565 N563 1.340 . S
C565 N564 1.321 . S
C565 H589 0.930 . S
H566 C561 0.931 . S
Co567 N564 2.135 . S
Co567 N570 2.121 . S
Co567 O575 2.055 . S
Co567 O578 2.039 . S
Co567 N581 2.140 . S
C568 O569 1.227 . S
C568 O578 1.265 . S
O569 C568 1.227 . S
N570 Co567 2.121 . S
N570 C572 1.375 . S
N570 C573 1.313 . S
C571 C572 1.338 . S
C571 N574 1.377 . S
C571 H591 0.930 . S
C572 N570 1.375 . S
C572 C571 1.338 . S
C572 H576 0.931 . S
C573 N570 1.313 . S
C573 N574 1.344 . S
C573 H577 0.930 . S
N574 C571 1.377 . S
N574 C573 1.344 . S
O575 Co567 2.055 . S
O575 C579 1.253 . S
H576 C572 0.931 . S
H577 C573 0.930 . S
O578 Co567 2.039 . S
O578 C568 1.265 . S
C579 O575 1.253 . S
C579 O580 1.227 . S
O580 C579 1.227 . S
N581 Co567 2.140 . S
N581 C584 1.346 . S
N581 C585 1.345 . S
C582 C583 1.387 . S
C582 C586 1.391 . S
C583 C582 1.387 . S
C583 C584 1.369 . S
C583 H592 0.929 . S
C584 N581 1.346 . S
C584 C583 1.369 . S
C584 H587 0.928 . S
C585 N581 1.345 . S
C585 C586 1.371 . S
C585 H588 0.931 . S
C586 C582 1.391 . S
C586 C585 1.371 . S
C586 H593 0.930 . S
H587 C584 0.928 . S
H588 C585 0.931 . S
H589 C565 0.930 . S
H590 C562 0.930 . S
H591 C571 0.930 . S
H592 C583 0.929 . S
H593 C586 0.930 . S
C594 C595 1.351 . S
C594 N597 1.368 . S
C594 H599 0.931 . S
C595 C594 1.351 . S
C595 N596 1.373 . S
C595 H623 0.930 . S
N596 C595 1.373 . S
N596 C598 1.340 . S
N597 C594 1.368 . S
N597 C598 1.321 . S
N597 Co600 2.135 . S
C598 N596 1.340 . S
C598 N597 1.321 . S
C598 H622 0.930 . S
H599 C594 0.931 . S
Co600 N597 2.135 . S
Co600 N603 2.121 . S
Co600 O608 2.055 . S
Co600 O611 2.039 . S
Co600 N614 2.140 . S
C601 O602 1.227 . S
C601 O611 1.265 . S
O602 C601 1.227 . S
N603 Co600 2.121 . S
N603 C605 1.375 . S
N603 C606 1.313 . S
C604 C605 1.338 . S
C604 N607 1.377 . S
C604 H624 0.930 . S
C605 N603 1.375 . S
C605 C604 1.338 . S
C605 H609 0.931 . S
C606 N603 1.313 . S
C606 N607 1.344 . S
C606 H610 0.930 . S
N607 C604 1.377 . S
N607 C606 1.344 . S
O608 Co600 2.055 . S
O608 C612 1.253 . S
H609 C605 0.931 . S
H610 C606 0.930 . S
O611 Co600 2.039 . S
O611 C601 1.265 . S
C612 O608 1.253 . S
C612 O613 1.227 . S
O613 C612 1.227 . S
N614 Co600 2.140 . S
N614 C617 1.346 . S
N614 C618 1.345 . S
C615 C616 1.387 . S
C615 C619 1.391 . S
C616 C615 1.387 . S
C616 C617 1.369 . S
C616 H625 0.929 . S
C617 N614 1.346 . S
C617 C616 1.369 . S
C617 H620 0.928 . S
C618 N614 1.345 . S
C618 C619 1.371 . S
C618 H621 0.931 . S
C619 C615 1.391 . S
C619 C618 1.371 . S
C619 H626 0.930 . S
H620 C617 0.928 . S
H621 C618 0.931 . S
H622 C598 0.930 . S
H623 C595 0.930 . S
H624 C604 0.930 . S
H625 C616 0.929 . S
H626 C619 0.930 . S
C627 C628 1.351 . S
C627 N630 1.368 . S
C627 H632 0.931 . S
C628 C627 1.351 . S
C628 N629 1.373 . S
C628 H656 0.930 . S
N629 C628 1.373 . S
N629 C631 1.340 . S
N630 C627 1.368 . S
N630 C631 1.321 . S
N630 Co633 2.135 . S
C631 N629 1.340 . S
C631 N630 1.321 . S
C631 H655 0.930 . S
H632 C627 0.931 . S
Co633 N630 2.135 . S
Co633 N636 2.121 . S
Co633 O641 2.055 . S
Co633 O644 2.039 . S
Co633 N647 2.140 . S
C634 O635 1.227 . S
C634 O644 1.265 . S
O635 C634 1.227 . S
N636 Co633 2.121 . S
N636 C638 1.375 . S
N636 C639 1.313 . S
C637 C638 1.338 . S
C637 N640 1.377 . S
C637 H657 0.930 . S
C638 N636 1.375 . S
C638 C637 1.338 . S
C638 H642 0.931 . S
C639 N636 1.313 . S
C639 N640 1.344 . S
C639 H643 0.930 . S
N640 C637 1.377 . S
N640 C639 1.344 . S
O641 Co633 2.055 . S
O641 C645 1.253 . S
H642 C638 0.931 . S
H643 C639 0.930 . S
O644 Co633 2.039 . S
O644 C634 1.265 . S
C645 O641 1.253 . S
C645 O646 1.227 . S
O646 C645 1.227 . S
N647 Co633 2.140 . S
N647 C650 1.346 . S
N647 C651 1.345 . S
C648 C649 1.387 . S
C648 C652 1.391 . S
C649 C648 1.387 . S
C649 C650 1.369 . S
C649 H658 0.929 . S
C650 N647 1.346 . S
C650 C649 1.369 . S
C650 H653 0.928 . S
C651 N647 1.345 . S
C651 C652 1.371 . S
C651 H654 0.931 . S
C652 C648 1.391 . S
C652 C651 1.371 . S
C652 H659 0.930 . S
H653 C650 0.928 . S
H654 C651 0.931 . S
H655 C631 0.930 . S
H656 C628 0.930 . S
H657 C637 0.930 . S
H658 C649 0.929 . S
H659 C652 0.930 . S
C660 C661 1.351 . S
C660 N663 1.368 . S
C660 H665 0.931 . S
C661 C660 1.351 . S
C661 N662 1.373 . S
C661 H689 0.930 . S
N662 C661 1.373 . S
N662 C664 1.340 . S
N663 C660 1.368 . S
N663 C664 1.321 . S
N663 Co666 2.135 . S
C664 N662 1.340 . S
C664 N663 1.321 . S
C664 H688 0.930 . S
H665 C660 0.931 . S
Co666 N663 2.135 . S
Co666 N669 2.121 . S
Co666 O674 2.055 . S
Co666 O677 2.039 . S
Co666 N680 2.140 . S
C667 O668 1.227 . S
C667 O677 1.265 . S
O668 C667 1.227 . S
N669 Co666 2.121 . S
N669 C671 1.375 . S
N669 C672 1.313 . S
C670 C671 1.338 . S
C670 N673 1.377 . S
C670 H690 0.930 . S
C671 N669 1.375 . S
C671 C670 1.338 . S
C671 H675 0.931 . S
C672 N669 1.313 . S
C672 N673 1.344 . S
C672 H676 0.930 . S
N673 C670 1.377 . S
N673 C672 1.344 . S
O674 Co666 2.055 . S
O674 C678 1.253 . S
H675 C671 0.931 . S
H676 C672 0.930 . S
O677 Co666 2.039 . S
O677 C667 1.265 . S
C678 O674 1.253 . S
C678 O679 1.227 . S
O679 C678 1.227 . S
N680 Co666 2.140 . S
N680 C683 1.346 . S
N680 C684 1.345 . S
C681 C682 1.387 . S
C681 C685 1.391 . S
C682 C681 1.387 . S
C682 C683 1.369 . S
C682 H691 0.929 . S
C683 N680 1.346 . S
C683 C682 1.369 . S
C683 H686 0.928 . S
C684 N680 1.345 . S
C684 C685 1.371 . S
C684 H687 0.931 . S
C685 C681 1.391 . S
C685 C684 1.371 . S
C685 H692 0.930 . S
H686 C683 0.928 . S
H687 C684 0.931 . S
H688 C664 0.930 . S
H689 C661 0.930 . S
H690 C670 0.930 . S
H691 C682 0.929 . S
H692 C685 0.930 . S
C693 C694 1.351 . S
C693 N696 1.368 . S
C693 H698 0.931 . S
C694 C693 1.351 . S
C694 N695 1.373 . S
C694 H722 0.930 . S
N695 C694 1.373 . S
N695 C697 1.340 . S
N696 C693 1.368 . S
N696 C697 1.321 . S
N696 Co699 2.135 . S
C697 N695 1.340 . S
C697 N696 1.321 . S
C697 H721 0.930 . S
H698 C693 0.931 . S
Co699 N696 2.135 . S
Co699 N702 2.121 . S
Co699 O707 2.055 . S
Co699 O710 2.039 . S
Co699 N713 2.140 . S
C700 O701 1.227 . S
C700 O710 1.265 . S
O701 C700 1.227 . S
N702 Co699 2.121 . S
N702 C704 1.375 . S
N702 C705 1.313 . S
C703 C704 1.338 . S
C703 N706 1.377 . S
C703 H723 0.930 . S
C704 N702 1.375 . S
C704 C703 1.338 . S
C704 H708 0.931 . S
C705 N702 1.313 . S
C705 N706 1.344 . S
C705 H709 0.930 . S
N706 C703 1.377 . S
N706 C705 1.344 . S
O707 Co699 2.055 . S
O707 C711 1.253 . S
H708 C704 0.931 . S
H709 C705 0.930 . S
O710 Co699 2.039 . S
O710 C700 1.265 . S
C711 O707 1.253 . S
C711 O712 1.227 . S
O712 C711 1.227 . S
N713 Co699 2.140 . S
N713 C716 1.346 . S
N713 C717 1.345 . S
C714 C715 1.387 . S
C714 C718 1.391 . S
C715 C714 1.387 . S
C715 C716 1.369 . S
C715 H724 0.929 . S
C716 N713 1.346 . S
C716 C715 1.369 . S
C716 H719 0.928 . S
C717 N713 1.345 . S
C717 C718 1.371 . S
C717 H720 0.931 . S
C718 C714 1.391 . S
C718 C717 1.371 . S
C718 H725 0.930 . S
H719 C716 0.928 . S
H720 C717 0.931 . S
H721 C697 0.930 . S
H722 C694 0.930 . S
H723 C703 0.930 . S
H724 C715 0.929 . S
H725 C718 0.930 . S
C726 C727 1.351 . S
C726 N729 1.368 . S
C726 H731 0.931 . S
C727 C726 1.351 . S
C727 N728 1.373 . S
C727 H755 0.930 . S
N728 C727 1.373 . S
N728 C730 1.340 . S
N729 C726 1.368 . S
N729 C730 1.321 . S
N729 Co732 2.135 . S
C730 N728 1.340 . S
C730 N729 1.321 . S
C730 H754 0.930 . S
H731 C726 0.931 . S
Co732 N729 2.135 . S
Co732 N735 2.121 . S
Co732 O740 2.055 . S
Co732 O743 2.039 . S
Co732 N746 2.140 . S
C733 O734 1.227 . S
C733 O743 1.265 . S
O734 C733 1.227 . S
N735 Co732 2.121 . S
N735 C737 1.375 . S
N735 C738 1.313 . S
C736 C737 1.338 . S
C736 N739 1.377 . S
C736 H756 0.930 . S
C737 N735 1.375 . S
C737 C736 1.338 . S
C737 H741 0.931 . S
C738 N735 1.313 . S
C738 N739 1.344 . S
C738 H742 0.930 . S
N739 C736 1.377 . S
N739 C738 1.344 . S
O740 Co732 2.055 . S
O740 C744 1.253 . S
H741 C737 0.931 . S
H742 C738 0.930 . S
O743 Co732 2.039 . S
O743 C733 1.265 . S
C744 O740 1.253 . S
C744 O745 1.227 . S
O745 C744 1.227 . S
N746 Co732 2.140 . S
N746 C749 1.346 . S
N746 C750 1.345 . S
C747 C748 1.387 . S
C747 C751 1.391 . S
C748 C747 1.387 . S
C748 C749 1.369 . S
C748 H757 0.929 . S
C749 N746 1.346 . S
C749 C748 1.369 . S
C749 H752 0.928 . S
C750 N746 1.345 . S
C750 C751 1.371 . S
C750 H753 0.931 . S
C751 C747 1.391 . S
C751 C750 1.371 . S
C751 H758 0.930 . S
H752 C749 0.928 . S
H753 C750 0.931 . S
H754 C730 0.930 . S
H755 C727 0.930 . S
H756 C736 0.930 . S
H757 C748 0.929 . S
H758 C751 0.930 . S
C759 C760 1.351 . S
C759 N762 1.368 . S
C759 H764 0.931 . S
C760 C759 1.351 . S
C760 N761 1.373 . S
C760 H788 0.930 . S
N761 C760 1.373 . S
N761 C763 1.340 . S
N762 C759 1.368 . S
N762 C763 1.321 . S
N762 Co765 2.135 . S
C763 N761 1.340 . S
C763 N762 1.321 . S
C763 H787 0.930 . S
H764 C759 0.931 . S
Co765 N762 2.135 . S
Co765 N768 2.121 . S
Co765 O773 2.055 . S
Co765 O776 2.039 . S
Co765 N779 2.140 . S
C766 O767 1.227 . S
C766 O776 1.265 . S
O767 C766 1.227 . S
N768 Co765 2.121 . S
N768 C770 1.375 . S
N768 C771 1.313 . S
C769 C770 1.338 . S
C769 N772 1.377 . S
C769 H789 0.930 . S
C770 N768 1.375 . S
C770 C769 1.338 . S
C770 H774 0.931 . S
C771 N768 1.313 . S
C771 N772 1.344 . S
C771 H775 0.930 . S
N772 C769 1.377 . S
N772 C771 1.344 . S
O773 Co765 2.055 . S
O773 C777 1.253 . S
H774 C770 0.931 . S
H775 C771 0.930 . S
O776 Co765 2.039 . S
O776 C766 1.265 . S
C777 O773 1.253 . S
C777 O778 1.227 . S
O778 C777 1.227 . S
N779 Co765 2.140 . S
N779 C782 1.346 . S
N779 C783 1.345 . S
C780 C781 1.387 . S
C780 C784 1.391 . S
C781 C780 1.387 . S
C781 C782 1.369 . S
C781 H790 0.929 . S
C782 N779 1.346 . S
C782 C781 1.369 . S
C782 H785 0.928 . S
C783 N779 1.345 . S
C783 C784 1.371 . S
C783 H786 0.931 . S
C784 C780 1.391 . S
C784 C783 1.371 . S
C784 H791 0.930 . S
H785 C782 0.928 . S
H786 C783 0.931 . S
H787 C763 0.930 . S
H788 C760 0.930 . S
H789 C769 0.930 . S
H790 C781 0.929 . S
H791 C784 0.930 . S
C792 C793 1.351 . S
C792 N795 1.368 . S
C792 H797 0.931 . S
C793 C792 1.351 . S
C793 N794 1.373 . S
C793 H821 0.930 . S
N794 C793 1.373 . S
N794 C796 1.340 . S
N795 C792 1.368 . S
N795 C796 1.321 . S
N795 Co798 2.135 . S
C796 N794 1.340 . S
C796 N795 1.321 . S
C796 H820 0.930 . S
H797 C792 0.931 . S
Co798 N795 2.135 . S
Co798 N801 2.121 . S
Co798 O806 2.055 . S
Co798 O809 2.039 . S
Co798 N812 2.140 . S
C799 O800 1.227 . S
C799 O809 1.265 . S
O800 C799 1.227 . S
N801 Co798 2.121 . S
N801 C803 1.375 . S
N801 C804 1.313 . S
C802 C803 1.338 . S
C802 N805 1.377 . S
C802 H822 0.930 . S
C803 N801 1.375 . S
C803 C802 1.338 . S
C803 H807 0.931 . S
C804 N801 1.313 . S
C804 N805 1.344 . S
C804 H808 0.930 . S
N805 C802 1.377 . S
N805 C804 1.344 . S
O806 Co798 2.055 . S
O806 C810 1.253 . S
H807 C803 0.931 . S
H808 C804 0.930 . S
O809 Co798 2.039 . S
O809 C799 1.265 . S
C810 O806 1.253 . S
C810 O811 1.227 . S
O811 C810 1.227 . S
N812 Co798 2.140 . S
N812 C815 1.346 . S
N812 C816 1.345 . S
C813 C814 1.387 . S
C813 C817 1.391 . S
C814 C813 1.387 . S
C814 C815 1.369 . S
C814 H823 0.929 . S
C815 N812 1.346 . S
C815 C814 1.369 . S
C815 H818 0.928 . S
C816 N812 1.345 . S
C816 C817 1.371 . S
C816 H819 0.931 . S
C817 C813 1.391 . S
C817 C816 1.371 . S
C817 H824 0.930 . S
H818 C815 0.928 . S
H819 C816 0.931 . S
H820 C796 0.930 . S
H821 C793 0.930 . S
H822 C802 0.930 . S
H823 C814 0.929 . S
H824 C817 0.930 . S
C825 C826 1.351 . S
C825 N828 1.368 . S
C825 H830 0.931 . S
C826 C825 1.351 . S
C826 N827 1.373 . S
C826 H854 0.930 . S
N827 C826 1.373 . S
N827 C829 1.340 . S
N828 C825 1.368 . S
N828 C829 1.321 . S
N828 Co831 2.135 . S
C829 N827 1.340 . S
C829 N828 1.321 . S
C829 H853 0.930 . S
H830 C825 0.931 . S
Co831 N828 2.135 . S
Co831 N834 2.121 . S
Co831 O839 2.055 . S
Co831 O842 2.039 . S
Co831 N845 2.140 . S
C832 O833 1.227 . S
C832 O842 1.265 . S
O833 C832 1.227 . S
N834 Co831 2.121 . S
N834 C836 1.375 . S
N834 C837 1.313 . S
C835 C836 1.338 . S
C835 N838 1.377 . S
C835 H855 0.930 . S
C836 N834 1.375 . S
C836 C835 1.338 . S
C836 H840 0.931 . S
C837 N834 1.313 . S
C837 N838 1.344 . S
C837 H841 0.930 . S
N838 C835 1.377 . S
N838 C837 1.344 . S
O839 Co831 2.055 . S
O839 C843 1.253 . S
H840 C836 0.931 . S
H841 C837 0.930 . S
O842 Co831 2.039 . S
O842 C832 1.265 . S
C843 O839 1.253 . S
C843 O844 1.227 . S
O844 C843 1.227 . S
N845 Co831 2.140 . S
N845 C848 1.346 . S
N845 C849 1.345 . S
C846 C847 1.387 . S
C846 C850 1.391 . S
C847 C846 1.387 . S
C847 C848 1.369 . S
C847 H856 0.929 . S
C848 N845 1.346 . S
C848 C847 1.369 . S
C848 H851 0.928 . S
C849 N845 1.345 . S
C849 C850 1.371 . S
C849 H852 0.931 . S
C850 C846 1.391 . S
C850 C849 1.371 . S
C850 H857 0.930 . S
H851 C848 0.928 . S
H852 C849 0.931 . S
H853 C829 0.930 . S
H854 C826 0.930 . S
H855 C835 0.930 . S
H856 C847 0.929 . S
H857 C850 0.930 . S
C858 C859 1.351 . S
C858 N861 1.368 . S
C858 H863 0.931 . S
C859 C858 1.351 . S
C859 N860 1.373 . S
C859 H887 0.930 . S
N860 C859 1.373 . S
N860 C862 1.340 . S
N861 C858 1.368 . S
N861 C862 1.321 . S
N861 Co864 2.135 . S
C862 N860 1.340 . S
C862 N861 1.321 . S
C862 H886 0.930 . S
H863 C858 0.931 . S
Co864 N861 2.135 . S
Co864 N867 2.121 . S
Co864 O872 2.055 . S
Co864 O875 2.039 . S
Co864 N878 2.140 . S
C865 O866 1.227 . S
C865 O875 1.265 . S
O866 C865 1.227 . S
N867 Co864 2.121 . S
N867 C869 1.375 . S
N867 C870 1.313 . S
C868 C869 1.338 . S
C868 N871 1.377 . S
C868 H888 0.930 . S
C869 N867 1.375 . S
C869 C868 1.338 . S
C869 H873 0.931 . S
C870 N867 1.313 . S
C870 N871 1.344 . S
C870 H874 0.930 . S
N871 C868 1.377 . S
N871 C870 1.344 . S
O872 Co864 2.055 . S
O872 C876 1.253 . S
H873 C869 0.931 . S
H874 C870 0.930 . S
O875 Co864 2.039 . S
O875 C865 1.265 . S
C876 O872 1.253 . S
C876 O877 1.227 . S
O877 C876 1.227 . S
N878 Co864 2.140 . S
N878 C881 1.346 . S
N878 C882 1.345 . S
C879 C880 1.387 . S
C879 C883 1.391 . S
C880 C879 1.387 . S
C880 C881 1.369 . S
C880 H889 0.929 . S
C881 N878 1.346 . S
C881 C880 1.369 . S
C881 H884 0.928 . S
C882 N878 1.345 . S
C882 C883 1.371 . S
C882 H885 0.931 . S
C883 C879 1.391 . S
C883 C882 1.371 . S
C883 H890 0.930 . S
H884 C881 0.928 . S
H885 C882 0.931 . S
H886 C862 0.930 . S
H887 C859 0.930 . S
H888 C868 0.930 . S
H889 C880 0.929 . S
H890 C883 0.930 . S
C891 C892 1.351 . S
C891 N894 1.368 . S
C891 H896 0.931 . S
C892 C891 1.351 . S
C892 N893 1.373 . S
C892 H920 0.930 . S
N893 C892 1.373 . S
N893 C895 1.340 . S
N894 C891 1.368 . S
N894 C895 1.321 . S
N894 Co897 2.135 . S
C895 N893 1.340 . S
C895 N894 1.321 . S
C895 H919 0.930 . S
H896 C891 0.931 . S
Co897 N894 2.135 . S
Co897 N900 2.121 . S
Co897 O905 2.055 . S
Co897 O908 2.039 . S
Co897 N911 2.140 . S
C898 O899 1.227 . S
C898 O908 1.265 . S
O899 C898 1.227 . S
N900 Co897 2.121 . S
N900 C902 1.375 . S
N900 C903 1.313 . S
C901 C902 1.338 . S
C901 N904 1.377 . S
C901 H921 0.930 . S
C902 N900 1.375 . S
C902 C901 1.338 . S
C902 H906 0.931 . S
C903 N900 1.313 . S
C903 N904 1.344 . S
C903 H907 0.930 . S
N904 C901 1.377 . S
N904 C903 1.344 . S
O905 Co897 2.055 . S
O905 C909 1.253 . S
H906 C902 0.931 . S
H907 C903 0.930 . S
O908 Co897 2.039 . S
O908 C898 1.265 . S
C909 O905 1.253 . S
C909 O910 1.227 . S
O910 C909 1.227 . S
N911 Co897 2.140 . S
N911 C914 1.346 . S
N911 C915 1.345 . S
C912 C913 1.387 . S
C912 C916 1.391 . S
C913 C912 1.387 . S
C913 C914 1.369 . S
C913 H922 0.929 . S
C914 N911 1.346 . S
C914 C913 1.369 . S
C914 H917 0.928 . S
C915 N911 1.345 . S
C915 C916 1.371 . S
C915 H918 0.931 . S
C916 C912 1.391 . S
C916 C915 1.371 . S
C916 H923 0.930 . S
H917 C914 0.928 . S
H918 C915 0.931 . S
H919 C895 0.930 . S
H920 C892 0.930 . S
H921 C901 0.930 . S
H922 C913 0.929 . S
H923 C916 0.930 . S
C924 C925 1.351 . S
C924 N927 1.368 . S
C924 H929 0.931 . S
C925 C924 1.351 . S
C925 N926 1.373 . S
C925 H953 0.930 . S
N926 C925 1.373 . S
N926 C928 1.340 . S
N927 C924 1.368 . S
N927 C928 1.321 . S
N927 Co930 2.135 . S
C928 N926 1.340 . S
C928 N927 1.321 . S
C928 H952 0.930 . S
H929 C924 0.931 . S
Co930 N927 2.135 . S
Co930 N933 2.121 . S
Co930 O938 2.055 . S
Co930 O941 2.039 . S
Co930 N944 2.140 . S
C931 O932 1.227 . S
C931 O941 1.265 . S
O932 C931 1.227 . S
N933 Co930 2.121 . S
N933 C935 1.375 . S
N933 C936 1.313 . S
C934 C935 1.338 . S
C934 N937 1.377 . S
C934 H954 0.930 . S
C935 N933 1.375 . S
C935 C934 1.338 . S
C935 H939 0.931 . S
C936 N933 1.313 . S
C936 N937 1.344 . S
C936 H940 0.930 . S
N937 C934 1.377 . S
N937 C936 1.344 . S
O938 Co930 2.055 . S
O938 C942 1.253 . S
H939 C935 0.931 . S
H940 C936 0.930 . S
O941 Co930 2.039 . S
O941 C931 1.265 . S
C942 O938 1.253 . S
C942 O943 1.227 . S
O943 C942 1.227 . S
N944 Co930 2.140 . S
N944 C947 1.346 . S
N944 C948 1.345 . S
C945 C946 1.387 . S
C945 C949 1.391 . S
C946 C945 1.387 . S
C946 C947 1.369 . S
C946 H955 0.929 . S
C947 N944 1.346 . S
C947 C946 1.369 . S
C947 H950 0.928 . S
C948 N944 1.345 . S
C948 C949 1.371 . S
C948 H951 0.931 . S
C949 C945 1.391 . S
C949 C948 1.371 . S
C949 H956 0.930 . S
H950 C947 0.928 . S
H951 C948 0.931 . S
H952 C928 0.930 . S
H953 C925 0.930 . S
H954 C934 0.930 . S
H955 C946 0.929 . S
H956 C949 0.930 . S
C957 C958 1.351 . S
C957 N960 1.368 . S
C957 H962 0.931 . S
C958 C957 1.351 . S
C958 N959 1.373 . S
C958 H986 0.930 . S
N959 C958 1.373 . S
N959 C961 1.340 . S
N960 C957 1.368 . S
N960 C961 1.321 . S
N960 Co963 2.135 . S
C961 N959 1.340 . S
C961 N960 1.321 . S
C961 H985 0.930 . S
H962 C957 0.931 . S
Co963 N960 2.135 . S
Co963 N966 2.121 . S
Co963 O971 2.055 . S
Co963 O974 2.039 . S
Co963 N977 2.140 . S
C964 O965 1.227 . S
C964 O974 1.265 . S
O965 C964 1.227 . S
N966 Co963 2.121 . S
N966 C968 1.375 . S
N966 C969 1.313 . S
C967 C968 1.338 . S
C967 N970 1.377 . S
C967 H987 0.930 . S
C968 N966 1.375 . S
C968 C967 1.338 . S
C968 H972 0.931 . S
C969 N966 1.313 . S
C969 N970 1.344 . S
C969 H973 0.930 . S
N970 C967 1.377 . S
N970 C969 1.344 . S
O971 Co963 2.055 . S
O971 C975 1.253 . S
H972 C968 0.931 . S
H973 C969 0.930 . S
O974 Co963 2.039 . S
O974 C964 1.265 . S
C975 O971 1.253 . S
C975 O976 1.227 . S
O976 C975 1.227 . S
N977 Co963 2.140 . S
N977 C980 1.346 . S
N977 C981 1.345 . S
C978 C979 1.387 . S
C978 C982 1.391 . S
C979 C978 1.387 . S
C979 C980 1.369 . S
C979 H988 0.929 . S
C980 N977 1.346 . S
C980 C979 1.369 . S
C980 H983 0.928 . S
C981 N977 1.345 . S
C981 C982 1.371 . S
C981 H984 0.931 . S
C982 C978 1.391 . S
C982 C981 1.371 . S
C982 H989 0.930 . S
H983 C980 0.928 . S
H984 C981 0.931 . S
H985 C961 0.930 . S
H986 C958 0.930 . S
H987 C967 0.930 . S
H988 C979 0.929 . S
H989 C982 0.930 . S
C990 C991 1.351 . S
C990 N993 1.368 . S
C990 H995 0.931 . S
C991 C990 1.351 . S
C991 N992 1.373 . S
C991 H1019 0.930 . S
N992 C991 1.373 . S
N992 C994 1.340 . S
N993 C990 1.368 . S
N993 C994 1.321 . S
N993 Co996 2.135 . S
C994 N992 1.340 . S
C994 N993 1.321 . S
C994 H1018 0.930 . S
H995 C990 0.931 . S
Co996 N993 2.135 . S
Co996 N999 2.121 . S
Co996 O1004 2.055 . S
Co996 O1007 2.039 . S
Co996 N1010 2.140 . S
C997 O998 1.227 . S
C997 O1007 1.265 . S
O998 C997 1.227 . S
N999 Co996 2.121 . S
N999 C1001 1.375 . S
N999 C1002 1.313 . S
C1000 C1001 1.338 . S
C1000 N1003 1.377 . S
C1000 H1020 0.930 . S
C1001 N999 1.375 . S
C1001 C1000 1.338 . S
C1001 H1005 0.931 . S
C1002 N999 1.313 . S
C1002 N1003 1.344 . S
C1002 H1006 0.930 . S
N1003 C1000 1.377 . S
N1003 C1002 1.344 . S
O1004 Co996 2.055 . S
O1004 C1008 1.253 . S
H1005 C1001 0.931 . S
H1006 C1002 0.930 . S
O1007 Co996 2.039 . S
O1007 C997 1.265 . S
C1008 O1004 1.253 . S
C1008 O1009 1.227 . S
O1009 C1008 1.227 . S
N1010 Co996 2.140 . S
N1010 C1013 1.346 . S
N1010 C1014 1.345 . S
C1011 C1012 1.387 . S
C1011 C1015 1.391 . S
C1012 C1011 1.387 . S
C1012 C1013 1.369 . S
C1012 H1021 0.929 . S
C1013 N1010 1.346 . S
C1013 C1012 1.369 . S
C1013 H1016 0.928 . S
C1014 N1010 1.345 . S
C1014 C1015 1.371 . S
C1014 H1017 0.931 . S
C1015 C1011 1.391 . S
C1015 C1014 1.371 . S
C1015 H1022 0.930 . S
H1016 C1013 0.928 . S
H1017 C1014 0.931 . S
H1018 C994 0.930 . S
H1019 C991 0.930 . S
H1020 C1000 0.930 . S
H1021 C1012 0.929 . S
H1022 C1015 0.930 . S
C1023 C1024 1.351 . S
C1023 N1026 1.368 . S
C1023 H1028 0.931 . S
C1024 C1023 1.351 . S
C1024 N1025 1.373 . S
C1024 H1052 0.930 . S
N1025 C1024 1.373 . S
N1025 C1027 1.340 . S
N1026 C1023 1.368 . S
N1026 C1027 1.321 . S
N1026 Co1029 2.135 . S
C1027 N1025 1.340 . S
C1027 N1026 1.321 . S
C1027 H1051 0.930 . S
H1028 C1023 0.931 . S
Co1029 N1026 2.135 . S
Co1029 N1032 2.121 . S
Co1029 O1037 2.055 . S
Co1029 O1040 2.039 . S
Co1029 N1043 2.140 . S
C1030 O1031 1.227 . S
C1030 O1040 1.265 . S
O1031 C1030 1.227 . S
N1032 Co1029 2.121 . S
N1032 C1034 1.375 . S
N1032 C1035 1.313 . S
C1033 C1034 1.338 . S
C1033 N1036 1.377 . S
C1033 H1053 0.930 . S
C1034 N1032 1.375 . S
C1034 C1033 1.338 . S
C1034 H1038 0.931 . S
C1035 N1032 1.313 . S
C1035 N1036 1.344 . S
C1035 H1039 0.930 . S
N1036 C1033 1.377 . S
N1036 C1035 1.344 . S
O1037 Co1029 2.055 . S
O1037 C1041 1.253 . S
H1038 C1034 0.931 . S
H1039 C1035 0.930 . S
O1040 Co1029 2.039 . S
O1040 C1030 1.265 . S
C1041 O1037 1.253 . S
C1041 O1042 1.227 . S
O1042 C1041 1.227 . S
N1043 Co1029 2.140 . S
N1043 C1046 1.346 . S
N1043 C1047 1.345 . S
C1044 C1045 1.387 . S
C1044 C1048 1.391 . S
C1045 C1044 1.387 . S
C1045 C1046 1.369 . S
C1045 H1054 0.929 . S
C1046 N1043 1.346 . S
C1046 C1045 1.369 . S
C1046 H1049 0.928 . S
C1047 N1043 1.345 . S
C1047 C1048 1.371 . S
C1047 H1050 0.931 . S
C1048 C1044 1.391 . S
C1048 C1047 1.371 . S
C1048 H1055 0.930 . S
H1049 C1046 0.928 . S
H1050 C1047 0.931 . S
H1051 C1027 0.930 . S
H1052 C1024 0.930 . S
H1053 C1033 0.930 . S
H1054 C1045 0.929 . S
H1055 C1048 0.930 . S
C1056 C1057 1.351 . S
C1056 N1059 1.368 . S
C1056 H1061 0.931 . S
C1057 C1056 1.351 . S
C1057 N1058 1.373 . S
C1057 H1085 0.930 . S
N1058 C1057 1.373 . S
N1058 C1060 1.340 . S
N1059 C1056 1.368 . S
N1059 C1060 1.321 . S
N1059 Co1062 2.135 . S
C1060 N1058 1.340 . S
C1060 N1059 1.321 . S
C1060 H1084 0.930 . S
H1061 C1056 0.931 . S
Co1062 N1059 2.135 . S
Co1062 N1065 2.121 . S
Co1062 O1070 2.055 . S
Co1062 O1073 2.039 . S
Co1062 N1076 2.140 . S
C1063 O1064 1.227 . S
C1063 O1073 1.265 . S
O1064 C1063 1.227 . S
N1065 Co1062 2.121 . S
N1065 C1067 1.375 . S
N1065 C1068 1.313 . S
C1066 C1067 1.338 . S
C1066 N1069 1.377 . S
C1066 H1086 0.930 . S
C1067 N1065 1.375 . S
C1067 C1066 1.338 . S
C1067 H1071 0.931 . S
C1068 N1065 1.313 . S
C1068 N1069 1.344 . S
C1068 H1072 0.930 . S
N1069 C1066 1.377 . S
N1069 C1068 1.344 . S
O1070 Co1062 2.055 . S
O1070 C1074 1.253 . S
H1071 C1067 0.931 . S
H1072 C1068 0.930 . S
O1073 Co1062 2.039 . S
O1073 C1063 1.265 . S
C1074 O1070 1.253 . S
C1074 O1075 1.227 . S
O1075 C1074 1.227 . S
N1076 Co1062 2.140 . S
N1076 C1079 1.346 . S
N1076 C1080 1.345 . S
C1077 C1078 1.387 . S
C1077 C1081 1.391 . S
C1078 C1077 1.387 . S
C1078 C1079 1.369 . S
C1078 H1087 0.929 . S
C1079 N1076 1.346 . S
C1079 C1078 1.369 . S
C1079 H1082 0.928 . S
C1080 N1076 1.345 . S
C1080 C1081 1.371 . S
C1080 H1083 0.931 . S
C1081 C1077 1.391 . S
C1081 C1080 1.371 . S
C1081 H1088 0.930 . S
H1082 C1079 0.928 . S
H1083 C1080 0.931 . S
H1084 C1060 0.930 . S
H1085 C1057 0.930 . S
H1086 C1066 0.930 . S
H1087 C1078 0.929 . S
H1088 C1081 0.930 . S
C1089 C1090 1.351 . S
C1089 N1092 1.368 . S
C1089 H1094 0.931 . S
C1090 C1089 1.351 . S
C1090 N1091 1.373 . S
C1090 H1118 0.930 . S
N1091 C1090 1.373 . S
N1091 C1093 1.340 . S
N1092 C1089 1.368 . S
N1092 C1093 1.321 . S
N1092 Co1095 2.135 . S
C1093 N1091 1.340 . S
C1093 N1092 1.321 . S
C1093 H1117 0.930 . S
H1094 C1089 0.931 . S
Co1095 N1092 2.135 . S
Co1095 N1098 2.121 . S
Co1095 O1103 2.055 . S
Co1095 O1106 2.039 . S
Co1095 N1109 2.140 . S
C1096 O1097 1.227 . S
C1096 O1106 1.265 . S
O1097 C1096 1.227 . S
N1098 Co1095 2.121 . S
N1098 C1100 1.375 . S
N1098 C1101 1.313 . S
C1099 C1100 1.338 . S
C1099 N1102 1.377 . S
C1099 H1119 0.930 . S
C1100 N1098 1.375 . S
C1100 C1099 1.338 . S
C1100 H1104 0.931 . S
C1101 N1098 1.313 . S
C1101 N1102 1.344 . S
C1101 H1105 0.930 . S
N1102 C1099 1.377 . S
N1102 C1101 1.344 . S
O1103 Co1095 2.055 . S
O1103 C1107 1.253 . S
H1104 C1100 0.931 . S
H1105 C1101 0.930 . S
O1106 Co1095 2.039 . S
O1106 C1096 1.265 . S
C1107 O1103 1.253 . S
C1107 O1108 1.227 . S
O1108 C1107 1.227 . S
N1109 Co1095 2.140 . S
N1109 C1112 1.346 . S
N1109 C1113 1.345 . S
C1110 C1111 1.387 . S
C1110 C1114 1.391 . S
C1111 C1110 1.387 . S
C1111 C1112 1.369 . S
C1111 H1120 0.929 . S
C1112 N1109 1.346 . S
C1112 C1111 1.369 . S
C1112 H1115 0.928 . S
C1113 N1109 1.345 . S
C1113 C1114 1.371 . S
C1113 H1116 0.931 . S
C1114 C1110 1.391 . S
C1114 C1113 1.371 . S
C1114 H1121 0.930 . S
H1115 C1112 0.928 . S
H1116 C1113 0.931 . S
H1117 C1093 0.930 . S
H1118 C1090 0.930 . S
H1119 C1099 0.930 . S
H1120 C1111 0.929 . S
H1121 C1114 0.930 . S
C1122 C1123 1.351 . S
C1122 N1125 1.368 . S
C1122 H1127 0.931 . S
C1123 C1122 1.351 . S
C1123 N1124 1.373 . S
C1123 H1151 0.930 . S
N1124 C1123 1.373 . S
N1124 C1126 1.340 . S
N1125 C1122 1.368 . S
N1125 C1126 1.321 . S
N1125 Co1128 2.135 . S
C1126 N1124 1.340 . S
C1126 N1125 1.321 . S
C1126 H1150 0.930 . S
H1127 C1122 0.931 . S
Co1128 N1125 2.135 . S
Co1128 N1131 2.121 . S
Co1128 O1136 2.055 . S
Co1128 O1139 2.039 . S
Co1128 N1142 2.140 . S
C1129 O1130 1.227 . S
C1129 O1139 1.265 . S
O1130 C1129 1.227 . S
N1131 Co1128 2.121 . S
N1131 C1133 1.375 . S
N1131 C1134 1.313 . S
C1132 C1133 1.338 . S
C1132 N1135 1.377 . S
C1132 H1152 0.930 . S
C1133 N1131 1.375 . S
C1133 C1132 1.338 . S
C1133 H1137 0.931 . S
C1134 N1131 1.313 . S
C1134 N1135 1.344 . S
C1134 H1138 0.930 . S
N1135 C1132 1.377 . S
N1135 C1134 1.344 . S
O1136 Co1128 2.055 . S
O1136 C1140 1.253 . S
H1137 C1133 0.931 . S
H1138 C1134 0.930 . S
O1139 Co1128 2.039 . S
O1139 C1129 1.265 . S
C1140 O1136 1.253 . S
C1140 O1141 1.227 . S
O1141 C1140 1.227 . S
N1142 Co1128 2.140 . S
N1142 C1145 1.346 . S
N1142 C1146 1.345 . S
C1143 C1144 1.387 . S
C1143 C1147 1.391 . S
C1144 C1143 1.387 . S
C1144 C1145 1.369 . S
C1144 H1153 0.929 . S
C1145 N1142 1.346 . S
C1145 C1144 1.369 . S
C1145 H1148 0.928 . S
C1146 N1142 1.345 . S
C1146 C1147 1.371 . S
C1146 H1149 0.931 . S
C1147 C1143 1.391 . S
C1147 C1146 1.371 . S
C1147 H1154 0.930 . S
H1148 C1145 0.928 . S
H1149 C1146 0.931 . S
H1150 C1126 0.930 . S
H1151 C1123 0.930 . S
H1152 C1132 0.930 . S
H1153 C1144 0.929 . S
H1154 C1147 0.930 . S
C1155 C1156 1.351 . S
C1155 N1158 1.368 . S
C1155 H1160 0.931 . S
C1156 C1155 1.351 . S
C1156 N1157 1.373 . S
C1156 H1184 0.930 . S
N1157 C1156 1.373 . S
N1157 C1159 1.340 . S
N1158 C1155 1.368 . S
N1158 C1159 1.321 . S
N1158 Co1161 2.135 . S
C1159 N1157 1.340 . S
C1159 N1158 1.321 . S
C1159 H1183 0.930 . S
H1160 C1155 0.931 . S
Co1161 N1158 2.135 . S
Co1161 N1164 2.121 . S
Co1161 O1169 2.055 . S
Co1161 O1172 2.039 . S
Co1161 N1175 2.140 . S
C1162 O1163 1.227 . S
C1162 O1172 1.265 . S
O1163 C1162 1.227 . S
N1164 Co1161 2.121 . S
N1164 C1166 1.375 . S
N1164 C1167 1.313 . S
C1165 C1166 1.338 . S
C1165 N1168 1.377 . S
C1165 H1185 0.930 . S
C1166 N1164 1.375 . S
C1166 C1165 1.338 . S
C1166 H1170 0.931 . S
C1167 N1164 1.313 . S
C1167 N1168 1.344 . S
C1167 H1171 0.930 . S
N1168 C1165 1.377 . S
N1168 C1167 1.344 . S
O1169 Co1161 2.055 . S
O1169 C1173 1.253 . S
H1170 C1166 0.931 . S
H1171 C1167 0.930 . S
O1172 Co1161 2.039 . S
O1172 C1162 1.265 . S
C1173 O1169 1.253 . S
C1173 O1174 1.227 . S
O1174 C1173 1.227 . S
N1175 Co1161 2.140 . S
N1175 C1178 1.346 . S
N1175 C1179 1.345 . S
C1176 C1177 1.387 . S
C1176 C1180 1.391 . S
C1177 C1176 1.387 . S
C1177 C1178 1.369 . S
C1177 H1186 0.929 . S
C1178 N1175 1.346 . S
C1178 C1177 1.369 . S
C1178 H1181 0.928 . S
C1179 N1175 1.345 . S
C1179 C1180 1.371 . S
C1179 H1182 0.931 . S
C1180 C1176 1.391 . S
C1180 C1179 1.371 . S
C1180 H1187 0.930 . S
H1181 C1178 0.928 . S
H1182 C1179 0.931 . S
H1183 C1159 0.930 . S
H1184 C1156 0.930 . S
H1185 C1165 0.930 . S
H1186 C1177 0.929 . S
H1187 C1180 0.930 . S
C1188 C1189 1.351 . S
C1188 N1191 1.368 . S
C1188 H1193 0.931 . S
C1189 C1188 1.351 . S
C1189 N1190 1.373 . S
C1189 H1217 0.930 . S
N1190 C1189 1.373 . S
N1190 C1192 1.340 . S
N1191 C1188 1.368 . S
N1191 C1192 1.321 . S
N1191 Co1194 2.135 . S
C1192 N1190 1.340 . S
C1192 N1191 1.321 . S
C1192 H1216 0.930 . S
H1193 C1188 0.931 . S
Co1194 N1191 2.135 . S
Co1194 N1197 2.121 . S
Co1194 O1202 2.055 . S
Co1194 O1205 2.039 . S
Co1194 N1208 2.140 . S
C1195 O1196 1.227 . S
C1195 O1205 1.265 . S
O1196 C1195 1.227 . S
N1197 Co1194 2.121 . S
N1197 C1199 1.375 . S
N1197 C1200 1.313 . S
C1198 C1199 1.338 . S
C1198 N1201 1.377 . S
C1198 H1218 0.930 . S
C1199 N1197 1.375 . S
C1199 C1198 1.338 . S
C1199 H1203 0.931 . S
C1200 N1197 1.313 . S
C1200 N1201 1.344 . S
C1200 H1204 0.930 . S
N1201 C1198 1.377 . S
N1201 C1200 1.344 . S
O1202 Co1194 2.055 . S
O1202 C1206 1.253 . S
H1203 C1199 0.931 . S
H1204 C1200 0.930 . S
O1205 Co1194 2.039 . S
O1205 C1195 1.265 . S
C1206 O1202 1.253 . S
C1206 O1207 1.227 . S
O1207 C1206 1.227 . S
N1208 Co1194 2.140 . S
N1208 C1211 1.346 . S
N1208 C1212 1.345 . S
C1209 C1210 1.387 . S
C1209 C1213 1.391 . S
C1210 C1209 1.387 . S
C1210 C1211 1.369 . S
C1210 H1219 0.929 . S
C1211 N1208 1.346 . S
C1211 C1210 1.369 . S
C1211 H1214 0.928 . S
C1212 N1208 1.345 . S
C1212 C1213 1.371 . S
C1212 H1215 0.931 . S
C1213 C1209 1.391 . S
C1213 C1212 1.371 . S
C1213 H1220 0.930 . S
H1214 C1211 0.928 . S
H1215 C1212 0.931 . S
H1216 C1192 0.930 . S
H1217 C1189 0.930 . S
H1218 C1198 0.930 . S
H1219 C1210 0.929 . S
H1220 C1213 0.930 . S
C1221 C1222 1.351 . S
C1221 N1224 1.368 . S
C1221 H1226 0.931 . S
C1222 C1221 1.351 . S
C1222 N1223 1.373 . S
C1222 H1250 0.930 . S
N1223 C1222 1.373 . S
N1223 C1225 1.340 . S
N1224 C1221 1.368 . S
N1224 C1225 1.321 . S
N1224 Co1227 2.135 . S
C1225 N1223 1.340 . S
C1225 N1224 1.321 . S
C1225 H1249 0.930 . S
H1226 C1221 0.931 . S
Co1227 N1224 2.135 . S
Co1227 N1230 2.121 . S
Co1227 O1235 2.055 . S
Co1227 O1238 2.039 . S
Co1227 N1241 2.140 . S
C1228 O1229 1.227 . S
C1228 O1238 1.265 . S
O1229 C1228 1.227 . S
N1230 Co1227 2.121 . S
N1230 C1232 1.375 . S
N1230 C1233 1.313 . S
C1231 C1232 1.338 . S
C1231 N1234 1.377 . S
C1231 H1251 0.930 . S
C1232 N1230 1.375 . S
C1232 C1231 1.338 . S
C1232 H1236 0.931 . S
C1233 N1230 1.313 . S
C1233 N1234 1.344 . S
C1233 H1237 0.930 . S
N1234 C1231 1.377 . S
N1234 C1233 1.344 . S
O1235 Co1227 2.055 . S
O1235 C1239 1.253 . S
H1236 C1232 0.931 . S
H1237 C1233 0.930 . S
O1238 Co1227 2.039 . S
O1238 C1228 1.265 . S
C1239 O1235 1.253 . S
C1239 O1240 1.227 . S
O1240 C1239 1.227 . S
N1241 Co1227 2.140 . S
N1241 C1244 1.346 . S
N1241 C1245 1.345 . S
C1242 C1243 1.387 . S
C1242 C1246 1.391 . S
C1243 C1242 1.387 . S
C1243 C1244 1.369 . S
C1243 H1252 0.929 . S
C1244 N1241 1.346 . S
C1244 C1243 1.369 . S
C1244 H1247 0.928 . S
C1245 N1241 1.345 . S
C1245 C1246 1.371 . S
C1245 H1248 0.931 . S
C1246 C1242 1.391 . S
C1246 C1245 1.371 . S
C1246 H1253 0.930 . S
H1247 C1244 0.928 . S
H1248 C1245 0.931 . S
H1249 C1225 0.930 . S
H1250 C1222 0.930 . S
H1251 C1231 0.930 . S
H1252 C1243 0.929 . S
H1253 C1246 0.930 . S
C1254 C1255 1.351 . S
C1254 N1257 1.368 . S
C1254 H1259 0.931 . S
C1255 C1254 1.351 . S
C1255 N1256 1.373 . S
C1255 H1283 0.930 . S
N1256 C1255 1.373 . S
N1256 C1258 1.340 . S
N1257 C1254 1.368 . S
N1257 C1258 1.321 . S
N1257 Co1260 2.135 . S
C1258 N1256 1.340 . S
C1258 N1257 1.321 . S
C1258 H1282 0.930 . S
H1259 C1254 0.931 . S
Co1260 N1257 2.135 . S
Co1260 N1263 2.121 . S
Co1260 O1268 2.055 . S
Co1260 O1271 2.039 . S
Co1260 N1274 2.140 . S
C1261 O1262 1.227 . S
C1261 O1271 1.265 . S
O1262 C1261 1.227 . S
N1263 Co1260 2.121 . S
N1263 C1265 1.375 . S
N1263 C1266 1.313 . S
C1264 C1265 1.338 . S
C1264 N1267 1.377 . S
C1264 H1284 0.930 . S
C1265 N1263 1.375 . S
C1265 C1264 1.338 . S
C1265 H1269 0.931 . S
C1266 N1263 1.313 . S
C1266 N1267 1.344 . S
C1266 H1270 0.930 . S
N1267 C1264 1.377 . S
N1267 C1266 1.344 . S
O1268 Co1260 2.055 . S
O1268 C1272 1.253 . S
H1269 C1265 0.931 . S
H1270 C1266 0.930 . S
O1271 Co1260 2.039 . S
O1271 C1261 1.265 . S
C1272 O1268 1.253 . S
C1272 O1273 1.227 . S
O1273 C1272 1.227 . S
N1274 Co1260 2.140 . S
N1274 C1277 1.346 . S
N1274 C1278 1.345 . S
C1275 C1276 1.387 . S
C1275 C1279 1.391 . S
C1276 C1275 1.387 . S
C1276 C1277 1.369 . S
C1276 H1285 0.929 . S
C1277 N1274 1.346 . S
C1277 C1276 1.369 . S
C1277 H1280 0.928 . S
C1278 N1274 1.345 . S
C1278 C1279 1.371 . S
C1278 H1281 0.931 . S
C1279 C1275 1.391 . S
C1279 C1278 1.371 . S
C1279 H1286 0.930 . S
H1280 C1277 0.928 . S
H1281 C1278 0.931 . S
H1282 C1258 0.930 . S
H1283 C1255 0.930 . S
H1284 C1264 0.930 . S
H1285 C1276 0.929 . S
H1286 C1279 0.930 . S
C1287 C1288 1.351 . S
C1287 N1290 1.368 . S
C1287 H1292 0.931 . S
C1288 C1287 1.351 . S
C1288 N1289 1.373 . S
C1288 H1316 0.930 . S
N1289 C1288 1.373 . S
N1289 C1291 1.340 . S
N1290 C1287 1.368 . S
N1290 C1291 1.321 . S
N1290 Co1293 2.135 . S
C1291 N1289 1.340 . S
C1291 N1290 1.321 . S
C1291 H1315 0.930 . S
H1292 C1287 0.931 . S
Co1293 N1290 2.135 . S
Co1293 N1296 2.121 . S
Co1293 O1301 2.055 . S
Co1293 O1304 2.039 . S
Co1293 N1307 2.140 . S
C1294 O1295 1.227 . S
C1294 O1304 1.265 . S
O1295 C1294 1.227 . S
N1296 Co1293 2.121 . S
N1296 C1298 1.375 . S
N1296 C1299 1.313 . S
C1297 C1298 1.338 . S
C1297 N1300 1.377 . S
C1297 H1317 0.930 . S
C1298 N1296 1.375 . S
C1298 C1297 1.338 . S
C1298 H1302 0.931 . S
C1299 N1296 1.313 . S
C1299 N1300 1.344 . S
C1299 H1303 0.930 . S
N1300 C1297 1.377 . S
N1300 C1299 1.344 . S
O1301 Co1293 2.055 . S
O1301 C1305 1.253 . S
H1302 C1298 0.931 . S
H1303 C1299 0.930 . S
O1304 Co1293 2.039 . S
O1304 C1294 1.265 . S
C1305 O1301 1.253 . S
C1305 O1306 1.227 . S
O1306 C1305 1.227 . S
N1307 Co1293 2.140 . S
N1307 C1310 1.346 . S
N1307 C1311 1.345 . S
C1308 C1309 1.387 . S
C1308 C1312 1.391 . S
C1309 C1308 1.387 . S
C1309 C1310 1.369 . S
C1309 H1318 0.929 . S
C1310 N1307 1.346 . S
C1310 C1309 1.369 . S
C1310 H1313 0.928 . S
C1311 N1307 1.345 . S
C1311 C1312 1.371 . S
C1311 H1314 0.931 . S
C1312 C1308 1.391 . S
C1312 C1311 1.371 . S
C1312 H1319 0.930 . S
H1313 C1310 0.928 . S
H1314 C1311 0.931 . S
H1315 C1291 0.930 . S
H1316 C1288 0.930 . S
H1317 C1297 0.930 . S
H1318 C1309 0.929 . S
H1319 C1312 0.930 . S
C1320 C1321 1.351 . S
C1320 N1323 1.368 . S
C1320 H1325 0.931 . S
C1321 C1320 1.351 . S
C1321 N1322 1.373 . S
C1321 H1349 0.930 . S
N1322 C1321 1.373 . S
N1322 C1324 1.340 . S
N1323 C1320 1.368 . S
N1323 C1324 1.321 . S
N1323 Co1326 2.135 . S
C1324 N1322 1.340 . S
C1324 N1323 1.321 . S
C1324 H1348 0.930 . S
H1325 C1320 0.931 . S
Co1326 N1323 2.135 . S
Co1326 N1329 2.121 . S
Co1326 O1334 2.055 . S
Co1326 O1337 2.039 . S
Co1326 N1340 2.140 . S
C1327 O1328 1.227 . S
C1327 O1337 1.265 . S
O1328 C1327 1.227 . S
N1329 Co1326 2.121 . S
N1329 C1331 1.375 . S
N1329 C1332 1.313 . S
C1330 C1331 1.338 . S
C1330 N1333 1.377 . S
C1330 H1350 0.930 . S
C1331 N1329 1.375 . S
C1331 C1330 1.338 . S
C1331 H1335 0.931 . S
C1332 N1329 1.313 . S
C1332 N1333 1.344 . S
C1332 H1336 0.930 . S
N1333 C1330 1.377 . S
N1333 C1332 1.344 . S
O1334 Co1326 2.055 . S
O1334 C1338 1.253 . S
H1335 C1331 0.931 . S
H1336 C1332 0.930 . S
O1337 Co1326 2.039 . S
O1337 C1327 1.265 . S
C1338 O1334 1.253 . S
C1338 O1339 1.227 . S
O1339 C1338 1.227 . S
N1340 Co1326 2.140 . S
N1340 C1343 1.346 . S
N1340 C1344 1.345 . S
C1341 C1342 1.387 . S
C1341 C1345 1.391 . S
C1342 C1341 1.387 . S
C1342 C1343 1.369 . S
C1342 H1351 0.929 . S
C1343 N1340 1.346 . S
C1343 C1342 1.369 . S
C1343 H1346 0.928 . S
C1344 N1340 1.345 . S
C1344 C1345 1.371 . S
C1344 H1347 0.931 . S
C1345 C1341 1.391 . S
C1345 C1344 1.371 . S
C1345 H1352 0.930 . S
H1346 C1343 0.928 . S
H1347 C1344 0.931 . S
H1348 C1324 0.930 . S
H1349 C1321 0.930 . S
H1350 C1330 0.930 . S
H1351 C1342 0.929 . S
H1352 C1345 0.930 . S
C1353 C1354 1.351 . S
C1353 N1356 1.368 . S
C1353 H1358 0.931 . S
C1354 C1353 1.351 . S
C1354 N1355 1.373 . S
C1354 H1382 0.930 . S
N1355 C1354 1.373 . S
N1355 C1357 1.340 . S
N1356 C1353 1.368 . S
N1356 C1357 1.321 . S
N1356 Co1359 2.135 . S
C1357 N1355 1.340 . S
C1357 N1356 1.321 . S
C1357 H1381 0.930 . S
H1358 C1353 0.931 . S
Co1359 N1356 2.135 . S
Co1359 N1362 2.121 . S
Co1359 O1367 2.055 . S
Co1359 O1370 2.039 . S
Co1359 N1373 2.140 . S
C1360 O1361 1.227 . S
C1360 O1370 1.265 . S
O1361 C1360 1.227 . S
N1362 Co1359 2.121 . S
N1362 C1364 1.375 . S
N1362 C1365 1.313 . S
C1363 C1364 1.338 . S
C1363 N1366 1.377 . S
C1363 H1383 0.930 . S
C1364 N1362 1.375 . S
C1364 C1363 1.338 . S
C1364 H1368 0.931 . S
C1365 N1362 1.313 . S
C1365 N1366 1.344 . S
C1365 H1369 0.930 . S
N1366 C1363 1.377 . S
N1366 C1365 1.344 . S
O1367 Co1359 2.055 . S
O1367 C1371 1.253 . S
H1368 C1364 0.931 . S
H1369 C1365 0.930 . S
O1370 Co1359 2.039 . S
O1370 C1360 1.265 . S
C1371 O1367 1.253 . S
C1371 O1372 1.227 . S
O1372 C1371 1.227 . S
N1373 Co1359 2.140 . S
N1373 C1376 1.346 . S
N1373 C1377 1.345 . S
C1374 C1375 1.387 . S
C1374 C1378 1.391 . S
C1375 C1374 1.387 . S
C1375 C1376 1.369 . S
C1375 H1384 0.929 . S
C1376 N1373 1.346 . S
C1376 C1375 1.369 . S
C1376 H1379 0.928 . S
C1377 N1373 1.345 . S
C1377 C1378 1.371 . S
C1377 H1380 0.931 . S
C1378 C1374 1.391 . S
C1378 C1377 1.371 . S
C1378 H1385 0.930 . S
H1379 C1376 0.928 . S
H1380 C1377 0.931 . S
H1381 C1357 0.930 . S
H1382 C1354 0.930 . S
H1383 C1363 0.930 . S
H1384 C1375 0.929 . S
H1385 C1378 0.930 . S
C1386 C1387 1.351 . S
C1386 N1389 1.368 . S
C1386 H1391 0.931 . S
C1387 C1386 1.351 . S
C1387 N1388 1.373 . S
C1387 H1415 0.930 . S
N1388 C1387 1.373 . S
N1388 C1390 1.340 . S
N1389 C1386 1.368 . S
N1389 C1390 1.321 . S
N1389 Co1392 2.135 . S
C1390 N1388 1.340 . S
C1390 N1389 1.321 . S
C1390 H1414 0.930 . S
H1391 C1386 0.931 . S
Co1392 N1389 2.135 . S
Co1392 N1395 2.121 . S
Co1392 O1400 2.055 . S
Co1392 O1403 2.039 . S
Co1392 N1406 2.140 . S
C1393 O1394 1.227 . S
C1393 O1403 1.265 . S
O1394 C1393 1.227 . S
N1395 Co1392 2.121 . S
N1395 C1397 1.375 . S
N1395 C1398 1.313 . S
C1396 C1397 1.338 . S
C1396 N1399 1.377 . S
C1396 H1416 0.930 . S
C1397 N1395 1.375 . S
C1397 C1396 1.338 . S
C1397 H1401 0.931 . S
C1398 N1395 1.313 . S
C1398 N1399 1.344 . S
C1398 H1402 0.930 . S
N1399 C1396 1.377 . S
N1399 C1398 1.344 . S
O1400 Co1392 2.055 . S
O1400 C1404 1.253 . S
H1401 C1397 0.931 . S
H1402 C1398 0.930 . S
O1403 Co1392 2.039 . S
O1403 C1393 1.265 . S
C1404 O1400 1.253 . S
C1404 O1405 1.227 . S
O1405 C1404 1.227 . S
N1406 Co1392 2.140 . S
N1406 C1409 1.346 . S
N1406 C1410 1.345 . S
C1407 C1408 1.387 . S
C1407 C1411 1.391 . S
C1408 C1407 1.387 . S
C1408 C1409 1.369 . S
C1408 H1417 0.929 . S
C1409 N1406 1.346 . S
C1409 C1408 1.369 . S
C1409 H1412 0.928 . S
C1410 N1406 1.345 . S
C1410 C1411 1.371 . S
C1410 H1413 0.931 . S
C1411 C1407 1.391 . S
C1411 C1410 1.371 . S
C1411 H1418 0.930 . S
H1412 C1409 0.928 . S
H1413 C1410 0.931 . S
H1414 C1390 0.930 . S
H1415 C1387 0.930 . S
H1416 C1396 0.930 . S
H1417 C1408 0.929 . S
H1418 C1411 0.930 . S
C1419 C1420 1.351 . S
C1419 N1422 1.368 . S
C1419 H1424 0.931 . S
C1420 C1419 1.351 . S
C1420 N1421 1.373 . S
C1420 H1448 0.930 . S
N1421 C1420 1.373 . S
N1421 C1423 1.340 . S
N1422 C1419 1.368 . S
N1422 C1423 1.321 . S
N1422 Co1425 2.135 . S
C1423 N1421 1.340 . S
C1423 N1422 1.321 . S
C1423 H1447 0.930 . S
H1424 C1419 0.931 . S
Co1425 N1422 2.135 . S
Co1425 N1428 2.121 . S
Co1425 O1433 2.055 . S
Co1425 O1436 2.039 . S
Co1425 N1439 2.140 . S
C1426 O1427 1.227 . S
C1426 O1436 1.265 . S
O1427 C1426 1.227 . S
N1428 Co1425 2.121 . S
N1428 C1430 1.375 . S
N1428 C1431 1.313 . S
C1429 C1430 1.338 . S
C1429 N1432 1.377 . S
C1429 H1449 0.930 . S
C1430 N1428 1.375 . S
C1430 C1429 1.338 . S
C1430 H1434 0.931 . S
C1431 N1428 1.313 . S
C1431 N1432 1.344 . S
C1431 H1435 0.930 . S
N1432 C1429 1.377 . S
N1432 C1431 1.344 . S
O1433 Co1425 2.055 . S
O1433 C1437 1.253 . S
H1434 C1430 0.931 . S
H1435 C1431 0.930 . S
O1436 Co1425 2.039 . S
O1436 C1426 1.265 . S
C1437 O1433 1.253 . S
C1437 O1438 1.227 . S
O1438 C1437 1.227 . S
N1439 Co1425 2.140 . S
N1439 C1442 1.346 . S
N1439 C1443 1.345 . S
C1440 C1441 1.387 . S
C1440 C1444 1.391 . S
C1441 C1440 1.387 . S
C1441 C1442 1.369 . S
C1441 H1450 0.929 . S
C1442 N1439 1.346 . S
C1442 C1441 1.369 . S
C1442 H1445 0.928 . S
C1443 N1439 1.345 . S
C1443 C1444 1.371 . S
C1443 H1446 0.931 . S
C1444 C1440 1.391 . S
C1444 C1443 1.371 . S
C1444 H1451 0.930 . S
H1445 C1442 0.928 . S
H1446 C1443 0.931 . S
H1447 C1423 0.930 . S
H1448 C1420 0.930 . S
H1449 C1429 0.930 . S
H1450 C1441 0.929 . S
H1451 C1444 0.930 . S
C1452 C1453 1.351 . S
C1452 N1455 1.368 . S
C1452 H1457 0.931 . S
C1453 C1452 1.351 . S
C1453 N1454 1.373 . S
C1453 H1481 0.930 . S
N1454 C1453 1.373 . S
N1454 C1456 1.340 . S
N1455 C1452 1.368 . S
N1455 C1456 1.321 . S
N1455 Co1458 2.135 . S
C1456 N1454 1.340 . S
C1456 N1455 1.321 . S
C1456 H1480 0.930 . S
H1457 C1452 0.931 . S
Co1458 N1455 2.135 . S
Co1458 N1461 2.121 . S
Co1458 O1466 2.055 . S
Co1458 O1469 2.039 . S
Co1458 N1472 2.140 . S
C1459 O1460 1.227 . S
C1459 O1469 1.265 . S
O1460 C1459 1.227 . S
N1461 Co1458 2.121 . S
N1461 C1463 1.375 . S
N1461 C1464 1.313 . S
C1462 C1463 1.338 . S
C1462 N1465 1.377 . S
C1462 H1482 0.930 . S
C1463 N1461 1.375 . S
C1463 C1462 1.338 . S
C1463 H1467 0.931 . S
C1464 N1461 1.313 . S
C1464 N1465 1.344 . S
C1464 H1468 0.930 . S
N1465 C1462 1.377 . S
N1465 C1464 1.344 . S
O1466 Co1458 2.055 . S
O1466 C1470 1.253 . S
H1467 C1463 0.931 . S
H1468 C1464 0.930 . S
O1469 Co1458 2.039 . S
O1469 C1459 1.265 . S
C1470 O1466 1.253 . S
C1470 O1471 1.227 . S
O1471 C1470 1.227 . S
N1472 Co1458 2.140 . S
N1472 C1475 1.346 . S
N1472 C1476 1.345 . S
C1473 C1474 1.387 . S
C1473 C1477 1.391 . S
C1474 C1473 1.387 . S
C1474 C1475 1.369 . S
C1474 H1483 0.929 . S
C1475 N1472 1.346 . S
C1475 C1474 1.369 . S
C1475 H1478 0.928 . S
C1476 N1472 1.345 . S
C1476 C1477 1.371 . S
C1476 H1479 0.931 . S
C1477 C1473 1.391 . S
C1477 C1476 1.371 . S
C1477 H1484 0.930 . S
H1478 C1475 0.928 . S
H1479 C1476 0.931 . S
H1480 C1456 0.930 . S
H1481 C1453 0.930 . S
H1482 C1462 0.930 . S
H1483 C1474 0.929 . S
H1484 C1477 0.930 . S
C1485 C1486 1.351 . S
C1485 N1488 1.368 . S
C1485 H1490 0.931 . S
C1486 C1485 1.351 . S
C1486 N1487 1.373 . S
C1486 H1514 0.930 . S
N1487 C1486 1.373 . S
N1487 C1489 1.340 . S
N1488 C1485 1.368 . S
N1488 C1489 1.321 . S
N1488 Co1491 2.135 . S
C1489 N1487 1.340 . S
C1489 N1488 1.321 . S
C1489 H1513 0.930 . S
H1490 C1485 0.931 . S
Co1491 N1488 2.135 . S
Co1491 N1494 2.121 . S
Co1491 O1499 2.055 . S
Co1491 O1502 2.039 . S
Co1491 N1505 2.140 . S
C1492 O1493 1.227 . S
C1492 O1502 1.265 . S
O1493 C1492 1.227 . S
N1494 Co1491 2.121 . S
N1494 C1496 1.375 . S
N1494 C1497 1.313 . S
C1495 C1496 1.338 . S
C1495 N1498 1.377 . S
C1495 H1515 0.930 . S
C1496 N1494 1.375 . S
C1496 C1495 1.338 . S
C1496 H1500 0.931 . S
C1497 N1494 1.313 . S
C1497 N1498 1.344 . S
C1497 H1501 0.930 . S
N1498 C1495 1.377 . S
N1498 C1497 1.344 . S
O1499 Co1491 2.055 . S
O1499 C1503 1.253 . S
H1500 C1496 0.931 . S
H1501 C1497 0.930 . S
O1502 Co1491 2.039 . S
O1502 C1492 1.265 . S
C1503 O1499 1.253 . S
C1503 O1504 1.227 . S
O1504 C1503 1.227 . S
N1505 Co1491 2.140 . S
N1505 C1508 1.346 . S
N1505 C1509 1.345 . S
C1506 C1507 1.387 . S
C1506 C1510 1.391 . S
C1507 C1506 1.387 . S
C1507 C1508 1.369 . S
C1507 H1516 0.929 . S
C1508 N1505 1.346 . S
C1508 C1507 1.369 . S
C1508 H1511 0.928 . S
C1509 N1505 1.345 . S
C1509 C1510 1.371 . S
C1509 H1512 0.931 . S
C1510 C1506 1.391 . S
C1510 C1509 1.371 . S
C1510 H1517 0.930 . S
H1511 C1508 0.928 . S
H1512 C1509 0.931 . S
H1513 C1489 0.930 . S
H1514 C1486 0.930 . S
H1515 C1495 0.930 . S
H1516 C1507 0.929 . S
H1517 C1510 0.930 . S
C1518 C1519 1.351 . S
C1518 N1521 1.368 . S
C1518 H1523 0.931 . S
C1519 C1518 1.351 . S
C1519 N1520 1.373 . S
C1519 H1547 0.930 . S
N1520 C1519 1.373 . S
N1520 C1522 1.340 . S
N1521 C1518 1.368 . S
N1521 C1522 1.321 . S
N1521 Co1524 2.135 . S
C1522 N1520 1.340 . S
C1522 N1521 1.321 . S
C1522 H1546 0.930 . S
H1523 C1518 0.931 . S
Co1524 N1521 2.135 . S
Co1524 N1527 2.121 . S
Co1524 O1532 2.055 . S
Co1524 O1535 2.039 . S
Co1524 N1538 2.140 . S
C1525 O1526 1.227 . S
C1525 O1535 1.265 . S
O1526 C1525 1.227 . S
N1527 Co1524 2.121 . S
N1527 C1529 1.375 . S
N1527 C1530 1.313 . S
C1528 C1529 1.338 . S
C1528 N1531 1.377 . S
C1528 H1548 0.930 . S
C1529 N1527 1.375 . S
C1529 C1528 1.338 . S
C1529 H1533 0.931 . S
C1530 N1527 1.313 . S
C1530 N1531 1.344 . S
C1530 H1534 0.930 . S
N1531 C1528 1.377 . S
N1531 C1530 1.344 . S
O1532 Co1524 2.055 . S
O1532 C1536 1.253 . S
H1533 C1529 0.931 . S
H1534 C1530 0.930 . S
O1535 Co1524 2.039 . S
O1535 C1525 1.265 . S
C1536 O1532 1.253 . S
C1536 O1537 1.227 . S
O1537 C1536 1.227 . S
N1538 Co1524 2.140 . S
N1538 C1541 1.346 . S
N1538 C1542 1.345 . S
C1539 C1540 1.387 . S
C1539 C1543 1.391 . S
C1540 C1539 1.387 . S
C1540 C1541 1.369 . S
C1540 H1549 0.929 . S
C1541 N1538 1.346 . S
C1541 C1540 1.369 . S
C1541 H1544 0.928 . S
C1542 N1538 1.345 . S
C1542 C1543 1.371 . S
C1542 H1545 0.931 . S
C1543 C1539 1.391 . S
C1543 C1542 1.371 . S
C1543 H1550 0.930 . S
H1544 C1541 0.928 . S
H1545 C1542 0.931 . S
H1546 C1522 0.930 . S
H1547 C1519 0.930 . S
H1548 C1528 0.930 . S
H1549 C1540 0.929 . S
H1550 C1543 0.930 . S
C1551 C1552 1.351 . S
C1551 N1554 1.368 . S
C1551 H1556 0.931 . S
C1552 C1551 1.351 . S
C1552 N1553 1.373 . S
C1552 H1580 0.930 . S
N1553 C1552 1.373 . S
N1553 C1555 1.340 . S
N1554 C1551 1.368 . S
N1554 C1555 1.321 . S
N1554 Co1557 2.135 . S
C1555 N1553 1.340 . S
C1555 N1554 1.321 . S
C1555 H1579 0.930 . S
H1556 C1551 0.931 . S
Co1557 N1554 2.135 . S
Co1557 N1560 2.121 . S
Co1557 O1565 2.055 . S
Co1557 O1568 2.039 . S
Co1557 N1571 2.140 . S
C1558 O1559 1.227 . S
C1558 O1568 1.265 . S
O1559 C1558 1.227 . S
N1560 Co1557 2.121 . S
N1560 C1562 1.375 . S
N1560 C1563 1.313 . S
C1561 C1562 1.338 . S
C1561 N1564 1.377 . S
C1561 H1581 0.930 . S
C1562 N1560 1.375 . S
C1562 C1561 1.338 . S
C1562 H1566 0.931 . S
C1563 N1560 1.313 . S
C1563 N1564 1.344 . S
C1563 H1567 0.930 . S
N1564 C1561 1.377 . S
N1564 C1563 1.344 . S
O1565 Co1557 2.055 . S
O1565 C1569 1.253 . S
H1566 C1562 0.931 . S
H1567 C1563 0.930 . S
O1568 Co1557 2.039 . S
O1568 C1558 1.265 . S
C1569 O1565 1.253 . S
C1569 O1570 1.227 . S
O1570 C1569 1.227 . S
N1571 Co1557 2.140 . S
N1571 C1574 1.346 . S
N1571 C1575 1.345 . S
C1572 C1573 1.387 . S
C1572 C1576 1.391 . S
C1573 C1572 1.387 . S
C1573 C1574 1.369 . S
C1573 H1582 0.929 . S
C1574 N1571 1.346 . S
C1574 C1573 1.369 . S
C1574 H1577 0.928 . S
C1575 N1571 1.345 . S
C1575 C1576 1.371 . S
C1575 H1578 0.931 . S
C1576 C1572 1.391 . S
C1576 C1575 1.371 . S
C1576 H1583 0.930 . S
H1577 C1574 0.928 . S
H1578 C1575 0.931 . S
H1579 C1555 0.930 . S
H1580 C1552 0.930 . S
H1581 C1561 0.930 . S
H1582 C1573 0.929 . S
H1583 C1576 0.930 . S
H1584 C1596 0.930 . S
H1585 C1598 0.930 . S
H1586 C1599 0.930 . S
H1587 C1603 0.959 . S
H1588 C1603 0.959 . S
H1589 C1603 0.961 . S
H1590 C1604 0.960 1_554 S
H1591 C1604 0.961 . S
H1592 C1604 0.959 . S
H1593 C1607 0.929 . S
H1594 C1608 0.931 . S
H1595 C1610 0.930 . S
C1596 H1584 0.930 . S
C1596 C1597 1.399 . S
C1596 C1601 1.399 1_554 S
C1597 C1596 1.399 . S
C1597 C1598 1.376 . S
C1598 H1585 0.930 . S
C1598 C1597 1.376 . S
C1598 C1599 1.388 . S
C1599 H1586 0.930 . S
C1599 C1598 1.388 . S
C1599 C1600 1.390 1_554 S
C1600 C1599 1.390 1_556 S
C1600 C1601 1.394 . S
C1600 C1606 1.465 . S
C1601 C1596 1.399 1_556 S
C1601 C1600 1.394 . S
C1601 C1602 1.516 . S
C1602 C1601 1.516 . S
C1602 C1603 1.502 . S
C1602 C1604 1.561 . S
C1602 C1605 1.526 . S
C1603 H1587 0.959 . S
C1603 H1588 0.959 . S
C1603 H1589 0.961 . S
C1603 C1602 1.502 . S
C1604 H1590 0.960 1_556 S
C1604 H1591 0.961 . S
C1604 H1592 0.959 . S
C1604 C1602 1.561 . S
C1605 C1602 1.526 . S
C1605 C1606 1.396 . S
C1605 C1610 1.390 . S
C1606 C1600 1.465 . S
C1606 C1605 1.396 . S
C1606 C1607 1.399 . S
C1607 H1593 0.929 . S
C1607 C1606 1.399 . S
C1607 C1608 1.385 . S
C1608 H1594 0.931 . S
C1608 C1607 1.385 . S
C1608 C1609 1.389 . S
C1609 C1608 1.389 . S
C1609 C1610 1.387 . S
C1610 H1595 0.930 . S
C1610 C1605 1.390 . S
C1610 C1609 1.387 . S
H1611 C1623 0.930 . S
H1612 C1625 0.930 . S
H1613 C1626 0.930 . S
H1614 C1630 0.959 . S
H1615 C1630 0.959 . S
H1616 C1630 0.961 . S
H1617 C1631 0.960 . S
H1618 C1631 0.961 . S
H1619 C1631 0.959 . S
H1620 C1634 0.929 . S
H1621 C1635 0.931 . S
H1622 C1637 0.930 . S
C1623 H1611 0.930 . S
C1623 C1624 1.399 . S
C1623 C1628 1.399 . S
C1624 C1623 1.399 . S
C1624 C1625 1.376 . S
C1625 H1612 0.930 . S
C1625 C1624 1.376 . S
C1625 C1626 1.388 . S
C1626 H1613 0.930 . S
C1626 C1625 1.388 . S
C1626 C1627 1.390 . S
C1627 C1626 1.390 . S
C1627 C1628 1.394 . S
C1627 C1633 1.465 . S
C1628 C1623 1.399 . S
C1628 C1627 1.394 . S
C1628 C1629 1.516 . S
C1629 C1628 1.516 . S
C1629 C1630 1.502 . S
C1629 C1631 1.561 . S
C1629 C1632 1.526 . S
C1630 H1614 0.959 . S
C1630 H1615 0.959 . S
C1630 H1616 0.961 . S
C1630 C1629 1.502 . S
C1631 H1617 0.960 . S
C1631 H1618 0.961 . S
C1631 H1619 0.959 . S
C1631 C1629 1.561 . S
C1632 C1629 1.526 . S
C1632 C1633 1.396 . S
C1632 C1637 1.390 . S
C1633 C1627 1.465 . S
C1633 C1632 1.396 . S
C1633 C1634 1.399 . S
C1634 H1620 0.929 . S
C1634 C1633 1.399 . S
C1634 C1635 1.385 . S
C1635 H1621 0.931 . S
C1635 C1634 1.385 . S
C1635 C1636 1.389 . S
C1636 C1635 1.389 . S
C1636 C1637 1.387 . S
C1637 H1622 0.930 . S
C1637 C1632 1.390 . S
C1637 C1636 1.387 . S
H1638 C1650 0.930 . S
H1639 C1652 0.930 . S
H1640 C1653 0.930 . S
H1641 C1657 0.959 . S
H1642 C1657 0.959 . S
H1643 C1657 0.961 . S
H1644 C1658 0.960 . S
H1645 C1658 0.961 . S
H1646 C1658 0.959 . S
H1647 C1661 0.929 . S
H1648 C1662 0.931 . S
H1649 C1664 0.930 . S
C1650 H1638 0.930 . S
C1650 C1651 1.399 . S
C1650 C1655 1.399 . S
C1651 C1650 1.399 . S
C1651 C1652 1.376 . S
C1652 H1639 0.930 . S
C1652 C1651 1.376 . S
C1652 C1653 1.388 . S
C1653 H1640 0.930 . S
C1653 C1652 1.388 . S
C1653 C1654 1.390 . S
C1654 C1653 1.390 . S
C1654 C1655 1.394 . S
C1654 C1660 1.465 . S
C1655 C1650 1.399 . S
C1655 C1654 1.394 . S
C1655 C1656 1.516 . S
C1656 C1655 1.516 . S
C1656 C1657 1.502 . S
C1656 C1658 1.561 . S
C1656 C1659 1.526 . S
C1657 H1641 0.959 . S
C1657 H1642 0.959 . S
C1657 H1643 0.961 . S
C1657 C1656 1.502 . S
C1658 H1644 0.960 . S
C1658 H1645 0.961 . S
C1658 H1646 0.959 . S
C1658 C1656 1.561 . S
C1659 C1656 1.526 . S
C1659 C1660 1.396 . S
C1659 C1664 1.390 . S
C1660 C1654 1.465 . S
C1660 C1659 1.396 . S
C1660 C1661 1.399 . S
C1661 H1647 0.929 . S
C1661 C1660 1.399 . S
C1661 C1662 1.385 . S
C1662 H1648 0.931 . S
C1662 C1661 1.385 . S
C1662 C1663 1.389 . S
C1663 C1662 1.389 . S
C1663 C1664 1.387 . S
C1664 H1649 0.930 . S
C1664 C1659 1.390 . S
C1664 C1663 1.387 . S
H1665 C1677 0.930 . S
H1666 C1679 0.930 . S
H1667 C1680 0.930 . S
H1668 C1684 0.959 . S
H1669 C1684 0.959 . S
H1670 C1684 0.961 . S
H1671 C1685 0.960 . S
H1672 C1685 0.961 . S
H1673 C1685 0.959 . S
H1674 C1688 0.929 . S
H1675 C1689 0.931 . S
H1676 C1691 0.930 . S
C1677 H1665 0.930 . S
C1677 C1678 1.399 . S
C1677 C1682 1.399 . S
C1678 C1677 1.399 . S
C1678 C1679 1.376 . S
C1679 H1666 0.930 . S
C1679 C1678 1.376 . S
C1679 C1680 1.388 . S
C1680 H1667 0.930 . S
C1680 C1679 1.388 . S
C1680 C1681 1.390 . S
C1681 C1680 1.390 . S
C1681 C1682 1.394 . S
C1681 C1687 1.465 . S
C1682 C1677 1.399 . S
C1682 C1681 1.394 . S
C1682 C1683 1.516 . S
C1683 C1682 1.516 . S
C1683 C1684 1.502 . S
C1683 C1685 1.561 . S
C1683 C1686 1.526 . S
C1684 H1668 0.959 . S
C1684 H1669 0.959 . S
C1684 H1670 0.961 . S
C1684 C1683 1.502 . S
C1685 H1671 0.960 . S
C1685 H1672 0.961 . S
C1685 H1673 0.959 . S
C1685 C1683 1.561 . S
C1686 C1683 1.526 . S
C1686 C1687 1.396 . S
C1686 C1691 1.390 . S
C1687 C1681 1.465 . S
C1687 C1686 1.396 . S
C1687 C1688 1.399 . S
C1688 H1674 0.929 . S
C1688 C1687 1.399 . S
C1688 C1689 1.385 . S
C1689 H1675 0.931 . S
C1689 C1688 1.385 . S
C1689 C1690 1.389 . S
C1690 C1689 1.389 . S
C1690 C1691 1.387 . S
C1691 H1676 0.930 . S
C1691 C1686 1.390 . S
C1691 C1690 1.387 . S
H1692 C1704 0.930 . S
H1693 C1706 0.930 . S
H1694 C1707 0.930 . S
H1695 C1711 0.959 . S
H1696 C1711 0.959 . S
H1697 C1711 0.961 . S
H1698 C1712 0.960 . S
H1699 C1712 0.961 . S
H1700 C1712 0.959 . S
H1701 C1715 0.929 . S
H1702 C1716 0.931 . S
H1703 C1718 0.930 . S
C1704 H1692 0.930 . S
C1704 C1705 1.399 . S
C1704 C1709 1.399 . S
C1705 C1704 1.399 . S
C1705 C1706 1.376 . S
C1706 H1693 0.930 . S
C1706 C1705 1.376 . S
C1706 C1707 1.388 . S
C1707 H1694 0.930 . S
C1707 C1706 1.388 . S
C1707 C1708 1.390 . S
C1708 C1707 1.390 . S
C1708 C1709 1.394 . S
C1708 C1714 1.465 . S
C1709 C1704 1.399 . S
C1709 C1708 1.394 . S
C1709 C1710 1.516 . S
C1710 C1709 1.516 . S
C1710 C1711 1.502 . S
C1710 C1712 1.561 . S
C1710 C1713 1.526 . S
C1711 H1695 0.959 . S
C1711 H1696 0.959 . S
C1711 H1697 0.961 . S
C1711 C1710 1.502 . S
C1712 H1698 0.960 . S
C1712 H1699 0.961 . S
C1712 H1700 0.959 . S
C1712 C1710 1.561 . S
C1713 C1710 1.526 . S
C1713 C1714 1.396 . S
C1713 C1718 1.390 . S
C1714 C1708 1.465 . S
C1714 C1713 1.396 . S
C1714 C1715 1.399 . S
C1715 H1701 0.929 . S
C1715 C1714 1.399 . S
C1715 C1716 1.385 . S
C1716 H1702 0.931 . S
C1716 C1715 1.385 . S
C1716 C1717 1.389 . S
C1717 C1716 1.389 . S
C1717 C1718 1.387 . S
C1718 H1703 0.930 . S
C1718 C1713 1.390 . S
C1718 C1717 1.387 . S
H1719 C1731 0.930 . S
H1720 C1733 0.930 . S
H1721 C1734 0.930 . S
H1722 C1738 0.959 . S
H1723 C1738 0.959 . S
H1724 C1738 0.961 . S
H1725 C1739 0.960 . S
H1726 C1739 0.961 . S
H1727 C1739 0.959 . S
H1728 C1742 0.929 . S
H1729 C1743 0.931 . S
H1730 C1745 0.930 . S
C1731 H1719 0.930 . S
C1731 C1732 1.399 . S
C1731 C1736 1.399 . S
C1732 C1731 1.399 . S
C1732 C1733 1.376 . S
C1733 H1720 0.930 . S
C1733 C1732 1.376 . S
C1733 C1734 1.388 . S
C1734 H1721 0.930 . S
C1734 C1733 1.388 . S
C1734 C1735 1.390 . S
C1735 C1734 1.390 . S
C1735 C1736 1.394 . S
C1735 C1741 1.465 . S
C1736 C1731 1.399 . S
C1736 C1735 1.394 . S
C1736 C1737 1.516 . S
C1737 C1736 1.516 . S
C1737 C1738 1.502 . S
C1737 C1739 1.561 . S
C1737 C1740 1.526 . S
C1738 H1722 0.959 . S
C1738 H1723 0.959 . S
C1738 H1724 0.961 . S
C1738 C1737 1.502 . S
C1739 H1725 0.960 . S
C1739 H1726 0.961 . S
C1739 H1727 0.959 . S
C1739 C1737 1.561 . S
C1740 C1737 1.526 . S
C1740 C1741 1.396 . S
C1740 C1745 1.390 . S
C1741 C1735 1.465 . S
C1741 C1740 1.396 . S
C1741 C1742 1.399 . S
C1742 H1728 0.929 . S
C1742 C1741 1.399 . S
C1742 C1743 1.385 . S
C1743 H1729 0.931 . S
C1743 C1742 1.385 . S
C1743 C1744 1.389 . S
C1744 C1743 1.389 . S
C1744 C1745 1.387 . S
C1745 H1730 0.930 . S
C1745 C1740 1.390 . S
C1745 C1744 1.387 . S
H1746 C1758 0.930 . S
H1747 C1760 0.930 . S
H1748 C1761 0.930 . S
H1749 C1765 0.959 . S
H1750 C1765 0.959 . S
H1751 C1765 0.961 1_556 S
H1752 C1766 0.960 . S
H1753 C1766 0.973 . S
H1754 C1766 0.959 . S
H1755 C1769 0.929 . S
H1756 C1770 0.931 . S
H1757 C1772 0.930 . S
C1758 H1746 0.930 . S
C1758 C1759 1.399 . S
C1758 C1763 1.399 . S
C1759 C1758 1.399 . S
C1759 C1760 1.376 . S
C1760 H1747 0.930 . S
C1760 C1759 1.376 . S
C1760 C1761 1.388 . S
C1761 H1748 0.930 . S
C1761 C1760 1.388 . S
C1761 C1762 1.390 . S
C1762 C1761 1.390 . S
C1762 C1763 1.394 . S
C1762 C1768 1.465 1_556 S
C1763 C1758 1.399 . S
C1763 C1762 1.394 . S
C1763 C1764 1.520 . S
C1764 C1763 1.520 . S
C1764 C1765 1.500 1_556 S
C1764 C1766 1.564 . S
C1764 C1767 1.522 1_556 S
C1765 H1749 0.959 . S
C1765 H1750 0.959 . S
C1765 H1751 0.961 1_554 S
C1765 C1764 1.500 1_554 S
C1766 H1752 0.960 . S
C1766 H1753 0.973 . S
C1766 H1754 0.959 . S
C1766 C1764 1.564 . S
C1767 C1764 1.522 1_554 S
C1767 C1768 1.396 . S
C1767 C1772 1.390 . S
C1768 C1762 1.465 1_554 S
C1768 C1767 1.396 . S
C1768 C1769 1.399 . S
C1769 H1755 0.929 . S
C1769 C1768 1.399 . S
C1769 C1770 1.385 . S
C1770 H1756 0.931 . S
C1770 C1769 1.385 . S
C1770 C1771 1.389 . S
C1771 C1770 1.389 . S
C1771 C1772 1.387 . S
C1772 H1757 0.930 . S
C1772 C1767 1.390 . S
C1772 C1771 1.387 . S
H1773 C1785 0.930 . S
H1774 C1787 0.930 . S
H1775 C1788 0.930 . S
H1776 C1792 0.959 . S
H1777 C1792 0.959 . S
H1778 C1792 0.961 . S
H1779 C1793 0.960 . S
H1780 C1793 0.961 . S
H1781 C1793 0.959 . S
H1782 C1796 0.929 . S
H1783 C1797 0.931 . S
H1784 C1799 0.930 . S
C1785 H1773 0.930 . S
C1785 C1786 1.399 . S
C1785 C1790 1.399 . S
C1786 C1785 1.399 . S
C1786 C1787 1.376 . S
C1787 H1774 0.930 . S
C1787 C1786 1.376 . S
C1787 C1788 1.388 . S
C1788 H1775 0.930 . S
C1788 C1787 1.388 . S
C1788 C1789 1.390 . S
C1789 C1788 1.390 . S
C1789 C1790 1.394 . S
C1789 C1795 1.465 . S
C1790 C1785 1.399 . S
C1790 C1789 1.394 . S
C1790 C1791 1.516 . S
C1791 C1790 1.516 . S
C1791 C1792 1.502 . S
C1791 C1793 1.561 . S
C1791 C1794 1.526 . S
C1792 H1776 0.959 . S
C1792 H1777 0.959 . S
C1792 H1778 0.961 . S
C1792 C1791 1.502 . S
C1793 H1779 0.960 . S
C1793 H1780 0.961 . S
C1793 H1781 0.959 . S
C1793 C1791 1.561 . S
C1794 C1791 1.526 . S
C1794 C1795 1.396 . S
C1794 C1799 1.390 . S
C1795 C1789 1.465 . S
C1795 C1794 1.396 . S
C1795 C1796 1.399 . S
C1796 H1782 0.929 . S
C1796 C1795 1.399 . S
C1796 C1797 1.385 . S
C1797 H1783 0.931 . S
C1797 C1796 1.385 . S
C1797 C1798 1.389 . S
C1798 C1797 1.389 . S
C1798 C1799 1.387 . S
C1799 H1784 0.930 . S
C1799 C1794 1.390 . S
C1799 C1798 1.387 . S
H1800 C1812 0.930 . S
H1801 C1814 0.930 . S
H1802 C1815 0.930 . S
H1803 C1819 0.959 . S
H1804 C1819 0.959 . S
H1805 C1819 0.961 . S
H1806 C1820 0.960 . S
H1807 C1820 0.961 . S
H1808 C1820 0.959 . S
H1809 C1823 0.929 . S
H1810 C1824 0.931 . S
H1811 C1826 0.930 . S
C1812 H1800 0.930 . S
C1812 C1813 1.399 . S
C1812 C1817 1.399 . S
C1813 C1812 1.399 . S
C1813 C1814 1.376 . S
C1814 H1801 0.930 . S
C1814 C1813 1.376 . S
C1814 C1815 1.388 . S
C1815 H1802 0.930 . S
C1815 C1814 1.388 . S
C1815 C1816 1.390 . S
C1816 C1815 1.390 . S
C1816 C1817 1.394 . S
C1816 C1822 1.465 . S
C1817 C1812 1.399 . S
C1817 C1816 1.394 . S
C1817 C1818 1.516 . S
C1818 C1817 1.516 . S
C1818 C1819 1.502 . S
C1818 C1820 1.561 . S
C1818 C1821 1.526 . S
C1819 H1803 0.959 . S
C1819 H1804 0.959 . S
C1819 H1805 0.961 . S
C1819 C1818 1.502 . S
C1820 H1806 0.960 . S
C1820 H1807 0.961 . S
C1820 H1808 0.959 . S
C1820 C1818 1.561 . S
C1821 C1818 1.526 . S
C1821 C1822 1.396 . S
C1821 C1826 1.390 . S
C1822 C1816 1.465 . S
C1822 C1821 1.396 . S
C1822 C1823 1.399 . S
C1823 H1809 0.929 . S
C1823 C1822 1.399 . S
C1823 C1824 1.385 1_655 S
C1824 H1810 0.931 . S
C1824 C1823 1.385 1_455 S
C1824 C1825 1.389 . S
C1825 C1824 1.389 . S
C1825 C1826 1.387 1_455 S
C1826 H1811 0.930 . S
C1826 C1821 1.390 . S
C1826 C1825 1.387 1_655 S
H1827 C1839 0.930 . S
H1828 C1841 0.930 . S
H1829 C1842 0.930 . S
H1830 C1846 0.959 . S
H1831 C1846 0.959 . S
H1832 C1846 0.961 . S
H1833 C1847 0.960 . S
H1834 C1847 0.961 . S
H1835 C1847 0.959 . S
H1836 C1850 0.929 . S
H1837 C1851 0.931 . S
H1838 C1853 0.930 . S
C1839 H1827 0.930 . S
C1839 C1840 1.399 . S
C1839 C1844 1.399 . S
C1840 C1839 1.399 . S
C1840 C1841 1.376 . S
C1841 H1828 0.930 . S
C1841 C1840 1.376 . S
C1841 C1842 1.388 . S
C1842 H1829 0.930 . S
C1842 C1841 1.388 . S
C1842 C1843 1.390 . S
C1843 C1842 1.390 . S
C1843 C1844 1.394 . S
C1843 C1849 1.465 . S
C1844 C1839 1.399 . S
C1844 C1843 1.394 . S
C1844 C1845 1.516 . S
C1845 C1844 1.516 . S
C1845 C1846 1.502 . S
C1845 C1847 1.561 . S
C1845 C1848 1.526 . S
C1846 H1830 0.959 . S
C1846 H1831 0.959 . S
C1846 H1832 0.961 . S
C1846 C1845 1.502 . S
C1847 H1833 0.960 . S
C1847 H1834 0.961 . S
C1847 H1835 0.959 . S
C1847 C1845 1.561 . S
C1848 C1845 1.526 . S
C1848 C1849 1.396 . S
C1848 C1853 1.390 . S
C1849 C1843 1.465 . S
C1849 C1848 1.396 . S
C1849 C1850 1.399 . S
C1850 H1836 0.929 . S
C1850 C1849 1.399 . S
C1850 C1851 1.385 . S
C1851 H1837 0.931 . S
C1851 C1850 1.385 . S
C1851 C1852 1.389 . S
C1852 C1851 1.389 . S
C1852 C1853 1.387 . S
C1853 H1838 0.930 . S
C1853 C1848 1.390 . S
C1853 C1852 1.387 . S
H1854 C1866 0.930 . S
H1855 C1868 0.930 . S
H1856 C1869 0.930 . S
H1857 C1873 0.959 . S
H1858 C1873 0.959 . S
H1859 C1873 0.961 . S
H1860 C1874 0.960 . S
H1861 C1874 0.961 . S
H1862 C1874 0.959 . S
H1863 C1877 0.929 . S
H1864 C1878 0.931 . S
H1865 C1880 0.930 . S
C1866 H1854 0.930 . S
C1866 C1867 1.399 . S
C1866 C1871 1.399 . S
C1867 C1866 1.399 . S
C1867 C1868 1.376 . S
C1868 H1855 0.930 . S
C1868 C1867 1.376 . S
C1868 C1869 1.388 . S
C1869 H1856 0.930 . S
C1869 C1868 1.388 . S
C1869 C1870 1.390 . S
C1870 C1869 1.390 . S
C1870 C1871 1.394 . S
C1870 C1876 1.465 . S
C1871 C1866 1.399 . S
C1871 C1870 1.394 . S
C1871 C1872 1.516 . S
C1872 C1871 1.516 . S
C1872 C1873 1.502 . S
C1872 C1874 1.561 . S
C1872 C1875 1.526 . S
C1873 H1857 0.959 . S
C1873 H1858 0.959 . S
C1873 H1859 0.961 . S
C1873 C1872 1.502 . S
C1874 H1860 0.960 . S
C1874 H1861 0.961 . S
C1874 H1862 0.959 . S
C1874 C1872 1.561 . S
C1875 C1872 1.526 . S
C1875 C1876 1.396 . S
C1875 C1880 1.390 . S
C1876 C1870 1.465 . S
C1876 C1875 1.396 . S
C1876 C1877 1.399 . S
C1877 H1863 0.929 . S
C1877 C1876 1.399 . S
C1877 C1878 1.385 . S
C1878 H1864 0.931 . S
C1878 C1877 1.385 . S
C1878 C1879 1.389 . S
C1879 C1878 1.389 . S
C1879 C1880 1.387 . S
C1880 H1865 0.930 . S
C1880 C1875 1.390 . S
C1880 C1879 1.387 . S
H1881 C1893 0.930 . S
H1882 C1895 0.930 . S
H1883 C1896 0.930 . S
H1884 C1900 0.959 . S
H1885 C1900 0.959 . S
H1886 C1900 0.961 . S
H1887 C1901 0.960 . S
H1888 C1901 0.961 . S
H1889 C1901 0.959 . S
H1890 C1904 0.929 . S
H1891 C1905 0.931 . S
H1892 C1907 0.930 . S
C1893 H1881 0.930 . S
C1893 C1894 1.399 . S
C1893 C1898 1.399 . S
C1894 C1893 1.399 . S
C1894 C1895 1.376 . S
C1895 H1882 0.930 . S
C1895 C1894 1.376 . S
C1895 C1896 1.388 . S
C1896 H1883 0.930 . S
C1896 C1895 1.388 . S
C1896 C1897 1.390 . S
C1897 C1896 1.390 . S
C1897 C1898 1.394 . S
C1897 C1903 1.465 . S
C1898 C1893 1.399 . S
C1898 C1897 1.394 . S
C1898 C1899 1.516 . S
C1899 C1898 1.516 . S
C1899 C1900 1.502 . S
C1899 C1901 1.561 . S
C1899 C1902 1.526 . S
C1900 H1884 0.959 . S
C1900 H1885 0.959 . S
C1900 H1886 0.961 . S
C1900 C1899 1.502 . S
C1901 H1887 0.960 . S
C1901 H1888 0.961 . S
C1901 H1889 0.959 . S
C1901 C1899 1.561 . S
C1902 C1899 1.526 . S
C1902 C1903 1.396 . S
C1902 C1907 1.390 . S
C1903 C1897 1.465 . S
C1903 C1902 1.396 . S
C1903 C1904 1.399 . S
C1904 H1890 0.929 . S
C1904 C1903 1.399 . S
C1904 C1905 1.385 . S
C1905 H1891 0.931 . S
C1905 C1904 1.385 . S
C1905 C1906 1.389 . S
C1906 C1905 1.389 . S
C1906 C1907 1.387 . S
C1907 H1892 0.930 . S
C1907 C1902 1.390 . S
C1907 C1906 1.387 . S
H1908 C1920 0.930 . S
H1909 C1922 0.930 . S
H1910 C1923 0.930 . S
H1911 C1927 0.959 . S
H1912 C1927 0.959 . S
H1913 C1927 0.961 . S
H1914 C1928 0.960 . S
H1915 C1928 0.961 . S
H1916 C1928 0.959 . S
H1917 C1931 0.929 . S
H1918 C1932 0.931 . S
H1919 C1934 0.930 . S
C1920 H1908 0.930 . S
C1920 C1921 1.399 . S
C1920 C1925 1.399 1_455 S
C1921 C1920 1.399 . S
C1921 C1922 1.376 . S
C1922 H1909 0.930 . S
C1922 C1921 1.376 . S
C1922 C1923 1.388 1_455 S
C1923 H1910 0.930 . S
C1923 C1922 1.388 1_655 S
C1923 C1924 1.390 . S
C1924 C1923 1.390 . S
C1924 C1925 1.394 . S
C1924 C1930 1.465 . S
C1925 C1920 1.399 1_655 S
C1925 C1924 1.394 . S
C1925 C1926 1.516 . S
C1926 C1925 1.516 . S
C1926 C1927 1.502 . S
C1926 C1928 1.561 . S
C1926 C1929 1.526 . S
C1927 H1911 0.959 . S
C1927 H1912 0.959 . S
C1927 H1913 0.961 . S
C1927 C1926 1.502 . S
C1928 H1914 0.960 . S
C1928 H1915 0.961 . S
C1928 H1916 0.959 . S
C1928 C1926 1.561 . S
C1929 C1926 1.526 . S
C1929 C1930 1.396 . S
C1929 C1934 1.390 . S
C1930 C1924 1.465 . S
C1930 C1929 1.396 . S
C1930 C1931 1.399 . S
C1931 H1917 0.929 . S
C1931 C1930 1.399 . S
C1931 C1932 1.385 . S
C1932 H1918 0.931 . S
C1932 C1931 1.385 . S
C1932 C1933 1.389 . S
C1933 C1932 1.389 . S
C1933 C1934 1.387 . S
C1934 H1919 0.930 . S
C1934 C1929 1.390 . S
C1934 C1933 1.387 . S
H1935 C1947 0.930 . S
H1936 C1949 0.930 . S
H1937 C1950 0.930 . S
H1938 C1954 0.959 . S
H1939 C1954 0.959 . S
H1940 C1954 0.961 . S
H1941 C1955 0.960 . S
H1942 C1955 0.961 . S
H1943 C1955 0.959 . S
H1944 C1958 0.929 . S
H1945 C1959 0.931 . S
H1946 C1961 0.930 . S
C1947 H1935 0.930 . S
C1947 C1948 1.399 . S
C1947 C1952 1.399 . S
C1948 C1947 1.399 . S
C1948 C1949 1.376 . S
C1949 H1936 0.930 . S
C1949 C1948 1.376 . S
C1949 C1950 1.388 . S
C1950 H1937 0.930 . S
C1950 C1949 1.388 . S
C1950 C1951 1.390 . S
C1951 C1950 1.390 . S
C1951 C1952 1.394 . S
C1951 C1957 1.465 . S
C1952 C1947 1.399 . S
C1952 C1951 1.394 . S
C1952 C1953 1.516 . S
C1953 C1952 1.516 . S
C1953 C1954 1.502 . S
C1953 C1955 1.561 . S
C1953 C1956 1.526 . S
C1954 H1938 0.959 . S
C1954 H1939 0.959 . S
C1954 H1940 0.961 . S
C1954 C1953 1.502 . S
C1955 H1941 0.960 . S
C1955 H1942 0.961 . S
C1955 H1943 0.959 . S
C1955 C1953 1.561 . S
C1956 C1953 1.526 . S
C1956 C1957 1.396 . S
C1956 C1961 1.390 . S
C1957 C1951 1.465 . S
C1957 C1956 1.396 . S
C1957 C1958 1.399 . S
C1958 H1944 0.929 . S
C1958 C1957 1.399 . S
C1958 C1959 1.385 . S
C1959 H1945 0.931 . S
C1959 C1958 1.385 . S
C1959 C1960 1.389 . S
C1960 C1959 1.389 . S
C1960 C1961 1.387 . S
C1961 H1946 0.930 . S
C1961 C1956 1.390 . S
C1961 C1960 1.387 . S
H1962 C1974 0.930 . S
H1963 C1976 0.930 . S
H1964 C1977 0.930 . S
H1965 C1981 0.959 . S
H1966 C1981 0.959 . S
H1967 C1981 0.961 . S
H1968 C1982 0.960 . S
H1969 C1982 0.961 . S
H1970 C1982 0.959 . S
H1971 C1985 0.929 . S
H1972 C1986 0.931 . S
H1973 C1988 0.930 . S
C1974 H1962 0.930 . S
C1974 C1975 1.399 . S
C1974 C1979 1.399 . S
C1975 C1974 1.399 . S
C1975 C1976 1.376 . S
C1976 H1963 0.930 . S
C1976 C1975 1.376 . S
C1976 C1977 1.388 . S
C1977 H1964 0.930 . S
C1977 C1976 1.388 . S
C1977 C1978 1.390 . S
C1978 C1977 1.390 . S
C1978 C1979 1.394 . S
C1978 C1984 1.465 . S
C1979 C1974 1.399 . S
C1979 C1978 1.394 . S
C1979 C1980 1.516 . S
C1980 C1979 1.516 . S
C1980 C1981 1.502 . S
C1980 C1982 1.561 . S
C1980 C1983 1.526 . S
C1981 H1965 0.959 . S
C1981 H1966 0.959 . S
C1981 H1967 0.961 . S
C1981 C1980 1.502 . S
C1982 H1968 0.960 . S
C1982 H1969 0.961 . S
C1982 H1970 0.959 . S
C1982 C1980 1.561 . S
C1983 C1980 1.526 . S
C1983 C1984 1.396 . S
C1983 C1988 1.390 . S
C1984 C1978 1.465 . S
C1984 C1983 1.396 . S
C1984 C1985 1.399 . S
C1985 H1971 0.929 . S
C1985 C1984 1.399 . S
C1985 C1986 1.385 . S
C1986 H1972 0.931 . S
C1986 C1985 1.385 . S
C1986 C1987 1.389 . S
C1987 C1986 1.389 . S
C1987 C1988 1.387 . S
C1988 H1973 0.930 . S
C1988 C1983 1.390 . S
C1988 C1987 1.387 . S
H1989 C2001 0.930 . S
H1990 C2003 0.930 . S
H1991 C2004 0.930 . S
H1992 C2008 0.959 . S
H1993 C2008 0.959 . S
H1994 C2008 0.961 . S
H1995 C2009 0.960 . S
H1996 C2009 0.961 . S
H1997 C2009 0.959 . S
H1998 C2012 0.929 . S
H1999 C2013 0.931 . S
H2000 C2015 0.930 . S
C2001 H1989 0.930 . S
C2001 C2002 1.399 . S
C2001 C2006 1.399 . S
C2002 C2001 1.399 . S
C2002 C2003 1.376 . S
C2003 H1990 0.930 . S
C2003 C2002 1.376 . S
C2003 C2004 1.388 . S
C2004 H1991 0.930 . S
C2004 C2003 1.388 . S
C2004 C2005 1.390 . S
C2005 C2004 1.390 . S
C2005 C2006 1.394 . S
C2005 C2011 1.465 . S
C2006 C2001 1.399 . S
C2006 C2005 1.394 . S
C2006 C2007 1.516 . S
C2007 C2006 1.516 . S
C2007 C2008 1.502 . S
C2007 C2009 1.561 . S
C2007 C2010 1.526 . S
C2008 H1992 0.959 . S
C2008 H1993 0.959 . S
C2008 H1994 0.961 . S
C2008 C2007 1.502 . S
C2009 H1995 0.960 . S
C2009 H1996 0.961 . S
C2009 H1997 0.959 . S
C2009 C2007 1.561 . S
C2010 C2007 1.526 . S
C2010 C2011 1.396 . S
C2010 C2015 1.390 . S
C2011 C2005 1.465 . S
C2011 C2010 1.396 . S
C2011 C2012 1.399 . S
C2012 H1998 0.929 . S
C2012 C2011 1.399 . S
C2012 C2013 1.385 . S
C2013 H1999 0.931 . S
C2013 C2012 1.385 . S
C2013 C2014 1.389 . S
C2014 C2013 1.389 . S
C2014 C2015 1.387 . S
C2015 H2000 0.930 . S
C2015 C2010 1.390 . S
C2015 C2014 1.387 . S
H2016 C2028 0.930 . S
H2017 C2030 0.930 . S
H2018 C2031 0.930 . S
H2019 C2035 0.959 . S
H2020 C2035 0.959 1_545 S
H2021 C2035 0.961 . S
H2022 C2036 0.960 . S
H2023 C2036 0.961 1_545 S
H2024 C2036 0.959 . S
H2025 C2039 0.929 . S
H2026 C2040 0.931 . S
H2027 C2042 0.930 . S
C2028 H2016 0.930 . S
C2028 C2029 1.399 . S
C2028 C2033 1.399 . S
C2029 C2028 1.399 . S
C2029 C2030 1.376 . S
C2030 H2017 0.930 . S
C2030 C2029 1.376 . S
C2030 C2031 1.388 . S
C2031 H2018 0.930 . S
C2031 C2030 1.388 . S
C2031 C2032 1.390 . S
C2032 C2031 1.390 . S
C2032 C2033 1.394 . S
C2032 C2038 1.465 . S
C2033 C2028 1.399 . S
C2033 C2032 1.394 . S
C2033 C2034 1.516 . S
C2034 C2033 1.516 . S
C2034 C2035 1.502 . S
C2034 C2036 1.561 . S
C2034 C2037 1.526 . S
C2035 H2019 0.959 . S
C2035 H2020 0.959 1_565 S
C2035 H2021 0.961 . S
C2035 C2034 1.502 . S
C2036 H2022 0.960 . S
C2036 H2023 0.961 1_565 S
C2036 H2024 0.959 . S
C2036 C2034 1.561 . S
C2037 C2034 1.526 . S
C2037 C2038 1.396 . S
C2037 C2042 1.390 1_565 S
C2038 C2032 1.465 . S
C2038 C2037 1.396 . S
C2038 C2039 1.399 . S
C2039 H2025 0.929 . S
C2039 C2038 1.399 . S
C2039 C2040 1.385 1_565 S
C2040 H2026 0.931 . S
C2040 C2039 1.385 1_545 S
C2040 C2041 1.389 . S
C2041 C2040 1.389 . S
C2041 C2042 1.387 . S
C2042 H2027 0.930 . S
C2042 C2037 1.390 1_545 S
C2042 C2041 1.387 . S
H2043 C2055 0.930 . S
H2044 C2057 0.930 . S
H2045 C2058 0.930 . S
H2046 C2062 0.959 . S
H2047 C2062 0.959 . S
H2048 C2062 0.961 . S
H2049 C2063 0.960 . S
H2050 C2063 0.961 . S
H2051 C2063 0.959 . S
H2052 C2066 0.929 . S
H2053 C2067 0.931 . S
H2054 C2069 0.930 . S
C2055 H2043 0.930 . S
C2055 C2056 1.399 . S
C2055 C2060 1.399 . S
C2056 C2055 1.399 . S
C2056 C2057 1.376 . S
C2057 H2044 0.930 . S
C2057 C2056 1.376 . S
C2057 C2058 1.388 . S
C2058 H2045 0.930 . S
C2058 C2057 1.388 . S
C2058 C2059 1.390 . S
C2059 C2058 1.390 . S
C2059 C2060 1.394 . S
C2059 C2065 1.465 . S
C2060 C2055 1.399 . S
C2060 C2059 1.394 . S
C2060 C2061 1.516 . S
C2061 C2060 1.516 . S
C2061 C2062 1.502 . S
C2061 C2063 1.561 . S
C2061 C2064 1.526 . S
C2062 H2046 0.959 . S
C2062 H2047 0.959 . S
C2062 H2048 0.961 . S
C2062 C2061 1.502 . S
C2063 H2049 0.960 . S
C2063 H2050 0.961 . S
C2063 H2051 0.959 . S
C2063 C2061 1.561 . S
C2064 C2061 1.526 . S
C2064 C2065 1.396 . S
C2064 C2069 1.390 . S
C2065 C2059 1.465 . S
C2065 C2064 1.396 . S
C2065 C2066 1.399 . S
C2066 H2052 0.929 . S
C2066 C2065 1.399 . S
C2066 C2067 1.385 . S
C2067 H2053 0.931 . S
C2067 C2066 1.385 . S
C2067 C2068 1.389 . S
C2068 C2067 1.389 . S
C2068 C2069 1.387 . S
C2069 H2054 0.930 . S
C2069 C2064 1.390 . S
C2069 C2068 1.387 . S
H2070 C2082 0.930 . S
H2071 C2084 0.930 . S
H2072 C2085 0.930 . S
H2073 C2089 0.959 . S
H2074 C2089 0.959 . S
H2075 C2089 0.961 . S
H2076 C2090 0.960 . S
H2077 C2090 0.961 . S
H2078 C2090 0.959 . S
H2079 C2093 0.929 . S
H2080 C2094 0.931 . S
H2081 C2096 0.930 . S
C2082 H2070 0.930 . S
C2082 C2083 1.399 . S
C2082 C2087 1.399 . S
C2083 C2082 1.399 . S
C2083 C2084 1.376 . S
C2084 H2071 0.930 . S
C2084 C2083 1.376 . S
C2084 C2085 1.388 . S
C2085 H2072 0.930 . S
C2085 C2084 1.388 . S
C2085 C2086 1.390 . S
C2086 C2085 1.390 . S
C2086 C2087 1.394 . S
C2086 C2092 1.465 . S
C2087 C2082 1.399 . S
C2087 C2086 1.394 . S
C2087 C2088 1.516 . S
C2088 C2087 1.516 . S
C2088 C2089 1.502 . S
C2088 C2090 1.561 . S
C2088 C2091 1.526 . S
C2089 H2073 0.959 . S
C2089 H2074 0.959 . S
C2089 H2075 0.961 . S
C2089 C2088 1.502 . S
C2090 H2076 0.960 . S
C2090 H2077 0.961 . S
C2090 H2078 0.959 . S
C2090 C2088 1.561 . S
C2091 C2088 1.526 . S
C2091 C2092 1.396 . S
C2091 C2096 1.390 . S
C2092 C2086 1.465 . S
C2092 C2091 1.396 . S
C2092 C2093 1.399 . S
C2093 H2079 0.929 . S
C2093 C2092 1.399 . S
C2093 C2094 1.385 . S
C2094 H2080 0.931 . S
C2094 C2093 1.385 . S
C2094 C2095 1.389 . S
C2095 C2094 1.389 . S
C2095 C2096 1.387 . S
C2096 H2081 0.930 . S
C2096 C2091 1.390 . S
C2096 C2095 1.387 . S
H2097 C2109 0.930 . S
H2098 C2111 0.930 . S
H2099 C2112 0.930 . S
H2100 C2116 0.959 . S
H2101 C2116 0.959 . S
H2102 C2116 0.961 . S
H2103 C2117 0.960 . S
H2104 C2117 0.961 . S
H2105 C2117 0.959 . S
H2106 C2120 0.929 . S
H2107 C2121 0.931 . S
H2108 C2123 0.930 . S
C2109 H2097 0.930 . S
C2109 C2110 1.399 . S
C2109 C2114 1.399 . S
C2110 C2109 1.399 . S
C2110 C2111 1.376 . S
C2111 H2098 0.930 . S
C2111 C2110 1.376 . S
C2111 C2112 1.388 . S
C2112 H2099 0.930 . S
C2112 C2111 1.388 . S
C2112 C2113 1.390 . S
C2113 C2112 1.390 . S
C2113 C2114 1.394 . S
C2113 C2119 1.465 . S
C2114 C2109 1.399 . S
C2114 C2113 1.394 . S
C2114 C2115 1.516 . S
C2115 C2114 1.516 . S
C2115 C2116 1.502 . S
C2115 C2117 1.561 . S
C2115 C2118 1.526 . S
C2116 H2100 0.959 . S
C2116 H2101 0.959 . S
C2116 H2102 0.961 . S
C2116 C2115 1.502 . S
C2117 H2103 0.960 . S
C2117 H2104 0.961 . S
C2117 H2105 0.959 . S
C2117 C2115 1.561 . S
C2118 C2115 1.526 . S
C2118 C2119 1.396 . S
C2118 C2123 1.390 . S
C2119 C2113 1.465 . S
C2119 C2118 1.396 . S
C2119 C2120 1.399 . S
C2120 H2106 0.929 . S
C2120 C2119 1.399 . S
C2120 C2121 1.385 . S
C2121 H2107 0.931 . S
C2121 C2120 1.385 . S
C2121 C2122 1.389 . S
C2122 C2121 1.389 . S
C2122 C2123 1.387 . S
C2123 H2108 0.930 . S
C2123 C2118 1.390 . S
C2123 C2122 1.387 . S
H2124 C2136 0.930 . S
H2125 C2138 0.930 . S
H2126 C2139 0.930 . S
H2127 C2143 0.959 . S
H2128 C2143 0.959 . S
H2129 C2143 0.961 . S
H2130 C2144 0.960 . S
H2131 C2144 0.961 . S
H2132 C2144 0.959 . S
H2133 C2147 0.929 . S
H2134 C2148 0.931 . S
H2135 C2150 0.930 . S
C2136 H2124 0.930 . S
C2136 C2137 1.399 . S
C2136 C2141 1.399 . S
C2137 C2136 1.399 . S
C2137 C2138 1.376 . S
C2138 H2125 0.930 . S
C2138 C2137 1.376 . S
C2138 C2139 1.388 . S
C2139 H2126 0.930 . S
C2139 C2138 1.388 . S
C2139 C2140 1.390 . S
C2140 C2139 1.390 . S
C2140 C2141 1.394 . S
C2140 C2146 1.465 . S
C2141 C2136 1.399 . S
C2141 C2140 1.394 . S
C2141 C2142 1.516 . S
C2142 C2141 1.516 . S
C2142 C2143 1.502 . S
C2142 C2144 1.561 . S
C2142 C2145 1.526 . S
C2143 H2127 0.959 . S
C2143 H2128 0.959 . S
C2143 H2129 0.961 . S
C2143 C2142 1.502 . S
C2144 H2130 0.960 . S
C2144 H2131 0.961 . S
C2144 H2132 0.959 . S
C2144 C2142 1.561 . S
C2145 C2142 1.526 . S
C2145 C2146 1.396 . S
C2145 C2150 1.390 . S
C2146 C2140 1.465 . S
C2146 C2145 1.396 . S
C2146 C2147 1.399 . S
C2147 H2133 0.929 . S
C2147 C2146 1.399 . S
C2147 C2148 1.385 . S
C2148 H2134 0.931 . S
C2148 C2147 1.385 . S
C2148 C2149 1.389 . S
C2149 C2148 1.389 . S
C2149 C2150 1.387 . S
C2150 H2135 0.930 . S
C2150 C2145 1.390 . S
C2150 C2149 1.387 . S
H2151 C2163 0.938 . S
H2152 C2165 0.930 . S
H2153 C2166 0.930 . S
H2154 C2170 0.959 . S
H2155 C2170 0.959 . S
H2156 C2170 0.961 . S
H2157 C2171 0.960 . S
H2158 C2171 0.961 . S
H2159 C2171 0.959 . S
H2160 C2174 0.929 . S
H2161 C2175 0.931 . S
H2162 C2177 0.930 . S
C2163 H2151 0.938 . S
C2163 C2164 1.399 . S
C2163 C2168 1.399 1_565 S
C2164 C2163 1.399 . S
C2164 C2165 1.376 . S
C2165 H2152 0.930 . S
C2165 C2164 1.376 . S
C2165 C2166 1.388 . S
C2166 H2153 0.930 . S
C2166 C2165 1.388 . S
C2166 C2167 1.390 1_565 S
C2167 C2166 1.390 1_545 S
C2167 C2168 1.394 . S
C2167 C2173 1.465 . S
C2168 C2163 1.399 1_545 S
C2168 C2167 1.394 . S
C2168 C2169 1.516 . S
C2169 C2168 1.516 . S
C2169 C2170 1.502 . S
C2169 C2171 1.561 . S
C2169 C2172 1.526 . S
C2170 H2154 0.959 . S
C2170 H2155 0.959 . S
C2170 H2156 0.961 . S
C2170 C2169 1.502 . S
C2171 H2157 0.960 . S
C2171 H2158 0.961 . S
C2171 H2159 0.959 . S
C2171 C2169 1.561 . S
C2172 C2169 1.526 . S
C2172 C2173 1.396 . S
C2172 C2177 1.390 . S
C2173 C2167 1.465 . S
C2173 C2172 1.396 . S
C2173 C2174 1.399 . S
C2174 H2160 0.929 . S
C2174 C2173 1.399 . S
C2174 C2175 1.385 . S
C2175 H2161 0.931 . S
C2175 C2174 1.385 . S
C2175 C2176 1.389 . S
C2176 C2175 1.389 . S
C2176 C2177 1.387 . S
C2177 H2162 0.930 . S
C2177 C2172 1.390 . S
C2177 C2176 1.387 . S
H2178 C2190 0.930 . S
H2179 C2192 0.930 . S
H2180 C2193 0.930 . S
H2181 C2197 0.959 . S
H2182 C2197 0.959 . S
H2183 C2197 0.961 . S
H2184 C2198 0.960 . S
H2185 C2198 0.961 . S
H2186 C2198 0.959 . S
H2187 C2201 0.929 . S
H2188 C2202 0.931 . S
H2189 C2204 0.930 . S
C2190 H2178 0.930 . S
C2190 C2191 1.399 . S
C2190 C2195 1.399 . S
C2191 C2190 1.399 . S
C2191 C2192 1.376 . S
C2192 H2179 0.930 . S
C2192 C2191 1.376 . S
C2192 C2193 1.388 . S
C2193 H2180 0.930 . S
C2193 C2192 1.388 . S
C2193 C2194 1.390 . S
C2194 C2193 1.390 . S
C2194 C2195 1.394 . S
C2194 C2200 1.465 . S
C2195 C2190 1.399 . S
C2195 C2194 1.394 . S
C2195 C2196 1.516 . S
C2196 C2195 1.516 . S
C2196 C2197 1.502 . S
C2196 C2198 1.561 . S
C2196 C2199 1.526 . S
C2197 H2181 0.959 . S
C2197 H2182 0.959 . S
C2197 H2183 0.961 . S
C2197 C2196 1.502 . S
C2198 H2184 0.960 . S
C2198 H2185 0.961 . S
C2198 H2186 0.959 . S
C2198 C2196 1.561 . S
C2199 C2196 1.526 . S
C2199 C2200 1.396 . S
C2199 C2204 1.390 . S
C2200 C2194 1.465 . S
C2200 C2199 1.396 . S
C2200 C2201 1.399 . S
C2201 H2187 0.929 . S
C2201 C2200 1.399 . S
C2201 C2202 1.385 . S
C2202 H2188 0.931 . S
C2202 C2201 1.385 . S
C2202 C2203 1.389 . S
C2203 C2202 1.389 . S
C2203 C2204 1.387 . S
C2204 H2189 0.930 . S
C2204 C2199 1.390 . S
C2204 C2203 1.387 . S
H2205 C2217 0.930 . S
H2206 C2219 0.930 . S
H2207 C2220 0.930 . S
H2208 C2224 0.959 . S
H2209 C2224 0.959 . S
H2210 C2224 0.961 . S
H2211 C2225 0.960 . S
H2212 C2225 0.961 . S
H2213 C2225 0.959 . S
H2214 C2228 0.929 . S
H2215 C2229 0.931 . S
H2216 C2231 0.930 . S
C2217 H2205 0.930 . S
C2217 C2218 1.399 . S
C2217 C2222 1.399 . S
C2218 C2217 1.399 . S
C2218 C2219 1.376 . S
C2219 H2206 0.930 . S
C2219 C2218 1.376 . S
C2219 C2220 1.388 . S
C2220 H2207 0.930 . S
C2220 C2219 1.388 . S
C2220 C2221 1.390 . S
C2221 C2220 1.390 . S
C2221 C2222 1.394 . S
C2221 C2227 1.465 . S
C2222 C2217 1.399 . S
C2222 C2221 1.394 . S
C2222 C2223 1.516 . S
C2223 C2222 1.516 . S
C2223 C2224 1.502 . S
C2223 C2225 1.561 . S
C2223 C2226 1.526 . S
C2224 H2208 0.959 . S
C2224 H2209 0.959 . S
C2224 H2210 0.961 . S
C2224 C2223 1.502 . S
C2225 H2211 0.960 . S
C2225 H2212 0.961 . S
C2225 H2213 0.959 . S
C2225 C2223 1.561 . S
C2226 C2223 1.526 . S
C2226 C2227 1.396 . S
C2226 C2231 1.390 . S
C2227 C2221 1.465 . S
C2227 C2226 1.396 . S
C2227 C2228 1.399 . S
C2228 H2214 0.929 . S
C2228 C2227 1.399 . S
C2228 C2229 1.385 . S
C2229 H2215 0.931 . S
C2229 C2228 1.385 . S
C2229 C2230 1.389 . S
C2230 C2229 1.389 . S
C2230 C2231 1.387 . S
C2231 H2216 0.930 . S
C2231 C2226 1.390 . S
C2231 C2230 1.387 . S
H2232 C2244 0.930 . S
H2233 C2246 0.930 . S
H2234 C2247 0.930 . S
H2235 C2251 0.959 . S
H2236 C2251 0.959 . S
H2237 C2251 0.961 . S
H2238 C2252 0.960 . S
H2239 C2252 0.965 1_556 S
H2240 C2252 0.959 . S
H2241 C2255 0.929 . S
H2242 C2256 0.931 . S
H2243 C2258 0.930 . S
C2244 H2232 0.930 . S
C2244 C2245 1.399 . S
C2244 C2249 1.399 . S
C2245 C2244 1.399 . S
C2245 C2246 1.376 . S
C2246 H2233 0.930 . S
C2246 C2245 1.376 . S
C2246 C2247 1.388 . S
C2247 H2234 0.930 . S
C2247 C2246 1.388 . S
C2247 C2248 1.390 . S
C2248 C2247 1.390 . S
C2248 C2249 1.394 . S
C2248 C2254 1.465 . S
C2249 C2244 1.399 . S
C2249 C2248 1.394 . S
C2249 C2250 1.516 . S
C2250 C2249 1.516 . S
C2250 C2251 1.502 . S
C2250 C2252 1.561 . S
C2250 C2253 1.526 . S
C2251 H2235 0.959 . S
C2251 H2236 0.959 . S
C2251 H2237 0.961 . S
C2251 C2250 1.502 . S
C2252 H2238 0.960 . S
C2252 H2239 0.965 1_554 S
C2252 H2240 0.959 . S
C2252 C2250 1.561 . S
C2253 C2250 1.526 . S
C2253 C2254 1.396 . S
C2253 C2258 1.390 1_554 S
C2254 C2248 1.465 . S
C2254 C2253 1.396 . S
C2254 C2255 1.399 . S
C2255 H2241 0.929 . S
C2255 C2254 1.399 . S
C2255 C2256 1.385 1_554 S
C2256 H2242 0.931 . S
C2256 C2255 1.385 1_556 S
C2256 C2257 1.389 . S
C2257 C2256 1.389 . S
C2257 C2258 1.387 . S
C2258 H2243 0.930 . S
C2258 C2253 1.390 1_556 S
C2258 C2257 1.387 . S
H2259 C2271 0.930 . S
H2260 C2273 0.930 . S
H2261 C2274 0.930 . S
H2262 C2278 0.959 . S
H2263 C2278 0.959 . S
H2264 C2278 0.961 . S
H2265 C2279 0.960 . S
H2266 C2279 0.961 . S
H2267 C2279 0.959 . S
H2268 C2282 0.929 . S
H2269 C2283 0.931 . S
H2270 C2285 0.930 . S
C2271 H2259 0.930 . S
C2271 C2272 1.399 . S
C2271 C2276 1.399 . S
C2272 C2271 1.399 . S
C2272 C2273 1.376 . S
C2273 H2260 0.930 . S
C2273 C2272 1.376 . S
C2273 C2274 1.388 . S
C2274 H2261 0.930 . S
C2274 C2273 1.388 . S
C2274 C2275 1.390 . S
C2275 C2274 1.390 . S
C2275 C2276 1.394 . S
C2275 C2281 1.465 . S
C2276 C2271 1.399 . S
C2276 C2275 1.394 . S
C2276 C2277 1.516 . S
C2277 C2276 1.516 . S
C2277 C2278 1.502 . S
C2277 C2279 1.561 . S
C2277 C2280 1.526 . S
C2278 H2262 0.959 . S
C2278 H2263 0.959 . S
C2278 H2264 0.961 . S
C2278 C2277 1.502 . S
C2279 H2265 0.960 . S
C2279 H2266 0.961 . S
C2279 H2267 0.959 . S
C2279 C2277 1.561 . S
C2280 C2277 1.526 . S
C2280 C2281 1.396 . S
C2280 C2285 1.390 . S
C2281 C2275 1.465 . S
C2281 C2280 1.396 . S
C2281 C2282 1.399 . S
C2282 H2268 0.929 . S
C2282 C2281 1.399 . S
C2282 C2283 1.385 . S
C2283 H2269 0.931 . S
C2283 C2282 1.385 . S
C2283 C2284 1.389 . S
C2284 C2283 1.389 . S
C2284 C2285 1.387 . S
C2285 H2270 0.930 . S
C2285 C2280 1.390 . S
C2285 C2284 1.387 . S
H2286 C2298 0.930 . S
H2287 C2300 0.930 . S
H2288 C2301 0.930 . S
H2289 C2305 0.959 . S
H2290 C2305 0.959 . S
H2291 C2305 0.961 . S
H2292 C2306 0.960 . S
H2293 C2306 0.961 . S
H2294 C2306 0.959 . S
H2295 C2309 0.929 . S
H2296 C2310 0.931 . S
H2297 C2312 0.930 . S
C2298 H2286 0.930 . S
C2298 C2299 1.399 . S
C2298 C2303 1.399 . S
C2299 C2298 1.399 . S
C2299 C2300 1.376 . S
C2300 H2287 0.930 . S
C2300 C2299 1.376 . S
C2300 C2301 1.388 . S
C2301 H2288 0.930 . S
C2301 C2300 1.388 . S
C2301 C2302 1.390 . S
C2302 C2301 1.390 . S
C2302 C2303 1.394 . S
C2302 C2308 1.465 . S
C2303 C2298 1.399 . S
C2303 C2302 1.394 . S
C2303 C2304 1.516 . S
C2304 C2303 1.516 . S
C2304 C2305 1.502 . S
C2304 C2306 1.561 . S
C2304 C2307 1.526 . S
C2305 H2289 0.959 . S
C2305 H2290 0.959 . S
C2305 H2291 0.961 . S
C2305 C2304 1.502 . S
C2306 H2292 0.960 . S
C2306 H2293 0.961 . S
C2306 H2294 0.959 . S
C2306 C2304 1.561 . S
C2307 C2304 1.526 . S
C2307 C2308 1.396 . S
C2307 C2312 1.390 . S
C2308 C2302 1.465 . S
C2308 C2307 1.396 . S
C2308 C2309 1.399 . S
C2309 H2295 0.929 . S
C2309 C2308 1.399 . S
C2309 C2310 1.385 . S
C2310 H2296 0.931 . S
C2310 C2309 1.385 . S
C2310 C2311 1.389 . S
C2311 C2310 1.389 . S
C2311 C2312 1.387 . S
C2312 H2297 0.930 . S
C2312 C2307 1.390 . S
C2312 C2311 1.387 . S
H2313 C2325 0.930 . S
H2314 C2327 0.930 . S
H2315 C2328 0.930 . S
H2316 C2332 0.959 . S
H2317 C2332 0.959 . S
H2318 C2332 0.961 . S
H2319 C2333 0.960 . S
H2320 C2333 0.961 . S
H2321 C2333 0.959 . S
H2322 C2336 0.929 . S
H2323 C2337 0.931 . S
H2324 C2339 0.930 . S
C2325 H2313 0.930 . S
C2325 C2326 1.399 . S
C2325 C2330 1.399 . S
C2326 C2325 1.399 . S
C2326 C2327 1.376 . S
C2327 H2314 0.930 . S
C2327 C2326 1.376 . S
C2327 C2328 1.388 . S
C2328 H2315 0.930 . S
C2328 C2327 1.388 . S
C2328 C2329 1.390 . S
C2329 C2328 1.390 . S
C2329 C2330 1.394 . S
C2329 C2335 1.465 . S
C2330 C2325 1.399 . S
C2330 C2329 1.394 . S
C2330 C2331 1.516 . S
C2331 C2330 1.516 . S
C2331 C2332 1.502 . S
C2331 C2333 1.561 . S
C2331 C2334 1.526 . S
C2332 H2316 0.959 . S
C2332 H2317 0.959 . S
C2332 H2318 0.961 . S
C2332 C2331 1.502 . S
C2333 H2319 0.960 . S
C2333 H2320 0.961 . S
C2333 H2321 0.959 . S
C2333 C2331 1.561 . S
C2334 C2331 1.526 . S
C2334 C2335 1.396 . S
C2334 C2339 1.390 . S
C2335 C2329 1.465 . S
C2335 C2334 1.396 . S
C2335 C2336 1.399 . S
C2336 H2322 0.929 . S
C2336 C2335 1.399 . S
C2336 C2337 1.385 . S
C2337 H2323 0.931 . S
C2337 C2336 1.385 . S
C2337 C2338 1.389 . S
C2338 C2337 1.389 . S
C2338 C2339 1.387 . S
C2339 H2324 0.930 . S
C2339 C2334 1.390 . S
C2339 C2338 1.387 . S
H2340 C2352 0.930 . S
H2341 C2354 0.930 . S
H2342 C2355 0.930 . S
H2343 C2359 0.959 . S
H2344 C2359 0.959 . S
H2345 C2359 0.961 . S
H2346 C2360 0.960 . S
H2347 C2360 0.961 . S
H2348 C2360 0.959 . S
H2349 C2363 0.929 . S
H2350 C2364 0.931 . S
H2351 C2366 0.930 . S
C2352 H2340 0.930 . S
C2352 C2353 1.399 . S
C2352 C2357 1.399 . S
C2353 C2352 1.399 . S
C2353 C2354 1.376 . S
C2354 H2341 0.930 . S
C2354 C2353 1.376 . S
C2354 C2355 1.388 . S
C2355 H2342 0.930 . S
C2355 C2354 1.388 . S
C2355 C2356 1.390 . S
C2356 C2355 1.390 . S
C2356 C2357 1.394 . S
C2356 C2362 1.465 . S
C2357 C2352 1.399 . S
C2357 C2356 1.394 . S
C2357 C2358 1.516 . S
C2358 C2357 1.516 . S
C2358 C2359 1.502 . S
C2358 C2360 1.561 . S
C2358 C2361 1.526 . S
C2359 H2343 0.959 . S
C2359 H2344 0.959 . S
C2359 H2345 0.961 . S
C2359 C2358 1.502 . S
C2360 H2346 0.960 . S
C2360 H2347 0.961 . S
C2360 H2348 0.959 . S
C2360 C2358 1.561 . S
C2361 C2358 1.526 . S
C2361 C2362 1.396 . S
C2361 C2366 1.390 . S
C2362 C2356 1.465 . S
C2362 C2361 1.396 . S
C2362 C2363 1.399 . S
C2363 H2349 0.929 . S
C2363 C2362 1.399 . S
C2363 C2364 1.385 . S
C2364 H2350 0.931 . S
C2364 C2363 1.385 . S
C2364 C2365 1.389 . S
C2365 C2364 1.389 . S
C2365 C2366 1.387 . S
C2366 H2351 0.930 . S
C2366 C2361 1.390 . S
C2366 C2365 1.387 . S
H2367 C2379 0.930 . S
H2368 C2381 0.930 . S
H2369 C2382 0.930 . S
H2370 C2386 0.959 . S
H2371 C2386 0.959 . S
H2372 C2386 0.961 . S
H2373 C2387 0.960 . S
H2374 C2387 0.961 . S
H2375 C2387 0.959 . S
H2376 C2390 0.929 . S
H2377 C2391 0.931 . S
H2378 C2393 0.930 . S
C2379 H2367 0.930 . S
C2379 C2380 1.399 . S
C2379 C2384 1.399 . S
C2380 C2379 1.399 . S
C2380 C2381 1.376 . S
C2381 H2368 0.930 . S
C2381 C2380 1.376 . S
C2381 C2382 1.388 . S
C2382 H2369 0.930 . S
C2382 C2381 1.388 . S
C2382 C2383 1.390 . S
C2383 C2382 1.390 . S
C2383 C2384 1.394 . S
C2383 C2389 1.465 . S
C2384 C2379 1.399 . S
C2384 C2383 1.394 . S
C2384 C2385 1.516 . S
C2385 C2384 1.516 . S
C2385 C2386 1.502 . S
C2385 C2387 1.561 . S
C2385 C2388 1.526 . S
C2386 H2370 0.959 . S
C2386 H2371 0.959 . S
C2386 H2372 0.961 . S
C2386 C2385 1.502 . S
C2387 H2373 0.960 . S
C2387 H2374 0.961 . S
C2387 H2375 0.959 . S
C2387 C2385 1.561 . S
C2388 C2385 1.526 . S
C2388 C2389 1.396 . S
C2388 C2393 1.390 . S
C2389 C2383 1.465 . S
C2389 C2388 1.396 . S
C2389 C2390 1.399 . S
C2390 H2376 0.929 . S
C2390 C2389 1.399 . S
C2390 C2391 1.385 . S
C2391 H2377 0.931 . S
C2391 C2390 1.385 . S
C2391 C2392 1.389 . S
C2392 C2391 1.389 . S
C2392 C2393 1.387 . S
C2393 H2378 0.930 . S
C2393 C2388 1.390 . S
C2393 C2392 1.387 . S
H2394 C2406 0.930 . S
H2395 C2408 0.930 . S
H2396 C2409 0.930 1_554 S
H2397 C2413 0.959 . S
H2398 C2413 0.959 . S
H2399 C2413 0.961 1_556 S
H2400 C2414 0.966 . S
H2401 C2414 0.958 1_554 S
H2402 C2414 0.958 1_554 S
H2403 C2417 0.929 . S
H2404 C2418 0.931 . S
H2405 C2420 0.930 . S
C2406 H2394 0.930 . S
C2406 C2407 1.399 . S
C2406 C2411 1.399 . S
C2407 C2406 1.399 . S
C2407 C2408 1.376 . S
C2408 H2395 0.930 . S
C2408 C2407 1.376 . S
C2408 C2409 1.388 . S
C2409 H2396 0.930 1_556 S
C2409 C2408 1.388 . S
C2409 C2410 1.390 1_556 S
C2410 C2409 1.390 1_554 S
C2410 C2411 1.394 1_554 S
C2410 C2416 1.465 . S
C2411 C2406 1.399 . S
C2411 C2410 1.394 1_556 S
C2411 C2412 1.516 1_556 S
C2412 C2411 1.516 1_554 S
C2412 C2413 1.502 . S
C2412 C2414 1.560 1_554 S
C2412 C2415 1.526 . S
C2413 H2397 0.959 . S
C2413 H2398 0.959 . S
C2413 H2399 0.961 1_554 S
C2413 C2412 1.502 . S
C2414 H2400 0.966 . S
C2414 H2401 0.958 1_556 S
C2414 H2402 0.958 1_556 S
C2414 C2412 1.560 1_556 S
C2415 C2412 1.526 . S
C2415 C2416 1.396 . S
C2415 C2420 1.390 . S
C2416 C2410 1.465 . S
C2416 C2415 1.396 . S
C2416 C2417 1.399 . S
C2417 H2403 0.929 . S
C2417 C2416 1.399 . S
C2417 C2418 1.385 . S
C2418 H2404 0.931 . S
C2418 C2417 1.385 . S
C2418 C2419 1.389 . S
C2419 C2418 1.389 . S
C2419 C2420 1.387 . S
C2420 H2405 0.930 . S
C2420 C2415 1.390 . S
C2420 C2419 1.387 . S
H2421 C2433 0.930 . S
H2422 C2435 0.930 . S
H2423 C2436 0.930 . S
H2424 C2440 0.959 . S
H2425 C2440 0.959 . S
H2426 C2440 0.961 . S
H2427 C2441 0.960 . S
H2428 C2441 0.961 . S
H2429 C2441 0.959 . S
H2430 C2444 0.929 . S
H2431 C2445 0.931 . S
H2432 C2447 0.930 . S
C2433 H2421 0.930 . S
C2433 C2434 1.399 . S
C2433 C2438 1.399 . S
C2434 C2433 1.399 . S
C2434 C2435 1.376 . S
C2435 H2422 0.930 . S
C2435 C2434 1.376 . S
C2435 C2436 1.388 . S
C2436 H2423 0.930 . S
C2436 C2435 1.388 . S
C2436 C2437 1.390 . S
C2437 C2436 1.390 . S
C2437 C2438 1.394 . S
C2437 C2443 1.465 . S
C2438 C2433 1.399 . S
C2438 C2437 1.394 . S
C2438 C2439 1.516 . S
C2439 C2438 1.516 . S
C2439 C2440 1.502 . S
C2439 C2441 1.561 . S
C2439 C2442 1.526 . S
C2440 H2424 0.959 . S
C2440 H2425 0.959 . S
C2440 H2426 0.961 . S
C2440 C2439 1.502 . S
C2441 H2427 0.960 . S
C2441 H2428 0.961 . S
C2441 H2429 0.959 . S
C2441 C2439 1.561 . S
C2442 C2439 1.526 . S
C2442 C2443 1.396 . S
C2442 C2447 1.390 . S
C2443 C2437 1.465 . S
C2443 C2442 1.396 . S
C2443 C2444 1.399 . S
C2444 H2430 0.929 . S
C2444 C2443 1.399 . S
C2444 C2445 1.385 . S
C2445 H2431 0.931 . S
C2445 C2444 1.385 . S
C2445 C2446 1.389 . S
C2446 C2445 1.389 . S
C2446 C2447 1.387 . S
C2447 H2432 0.930 . S
C2447 C2442 1.390 . S
C2447 C2446 1.387 . S
H2448 C2460 0.930 . S
H2449 C2462 0.930 . S
H2450 C2463 0.930 . S
H2451 C2467 0.959 . S
H2452 C2467 0.959 . S
H2453 C2467 0.961 . S
H2454 C2468 0.960 . S
H2455 C2468 0.961 . S
H2456 C2468 0.959 . S
H2457 C2471 0.929 . S
H2458 C2472 0.931 . S
H2459 C2474 0.930 . S
C2460 H2448 0.930 . S
C2460 C2461 1.399 . S
C2460 C2465 1.399 . S
C2461 C2460 1.399 . S
C2461 C2462 1.376 . S
C2462 H2449 0.930 . S
C2462 C2461 1.376 . S
C2462 C2463 1.388 . S
C2463 H2450 0.930 . S
C2463 C2462 1.388 . S
C2463 C2464 1.390 . S
C2464 C2463 1.390 . S
C2464 C2465 1.394 . S
C2464 C2470 1.465 . S
C2465 C2460 1.399 . S
C2465 C2464 1.394 . S
C2465 C2466 1.516 . S
C2466 C2465 1.516 . S
C2466 C2467 1.502 . S
C2466 C2468 1.561 . S
C2466 C2469 1.526 . S
C2467 H2451 0.959 . S
C2467 H2452 0.959 . S
C2467 H2453 0.961 . S
C2467 C2466 1.502 . S
C2468 H2454 0.960 . S
C2468 H2455 0.961 . S
C2468 H2456 0.959 . S
C2468 C2466 1.561 . S
C2469 C2466 1.526 . S
C2469 C2470 1.396 . S
C2469 C2474 1.390 . S
C2470 C2464 1.465 . S
C2470 C2469 1.396 . S
C2470 C2471 1.399 . S
C2471 H2457 0.929 . S
C2471 C2470 1.399 . S
C2471 C2472 1.385 1_455 S
C2472 H2458 0.931 . S
C2472 C2471 1.385 1_655 S
C2472 C2473 1.389 . S
C2473 C2472 1.389 . S
C2473 C2474 1.387 1_655 S
C2474 H2459 0.930 . S
C2474 C2469 1.390 . S
C2474 C2473 1.387 1_455 S
H2475 C2487 0.930 . S
H2476 C2489 0.930 . S
H2477 C2490 0.930 . S
H2478 C2494 0.959 . S
H2479 C2494 0.959 . S
H2480 C2494 0.961 . S
H2481 C2495 0.960 . S
H2482 C2495 0.961 . S
H2483 C2495 0.959 . S
H2484 C2498 0.929 . S
H2485 C2499 0.931 . S
H2486 C2501 0.930 . S
C2487 H2475 0.930 . S
C2487 C2488 1.399 . S
C2487 C2492 1.399 . S
C2488 C2487 1.399 . S
C2488 C2489 1.376 . S
C2489 H2476 0.930 . S
C2489 C2488 1.376 . S
C2489 C2490 1.388 . S
C2490 H2477 0.930 . S
C2490 C2489 1.388 . S
C2490 C2491 1.390 . S
C2491 C2490 1.390 . S
C2491 C2492 1.394 . S
C2491 C2497 1.465 . S
C2492 C2487 1.399 . S
C2492 C2491 1.394 . S
C2492 C2493 1.516 . S
C2493 C2492 1.516 . S
C2493 C2494 1.502 . S
C2493 C2495 1.561 . S
C2493 C2496 1.526 . S
C2494 H2478 0.959 . S
C2494 H2479 0.959 . S
C2494 H2480 0.961 . S
C2494 C2493 1.502 . S
C2495 H2481 0.960 . S
C2495 H2482 0.961 . S
C2495 H2483 0.959 . S
C2495 C2493 1.561 . S
C2496 C2493 1.526 . S
C2496 C2497 1.396 . S
C2496 C2501 1.390 . S
C2497 C2491 1.465 . S
C2497 C2496 1.396 . S
C2497 C2498 1.399 . S
C2498 H2484 0.929 . S
C2498 C2497 1.399 . S
C2498 C2499 1.385 . S
C2499 H2485 0.931 . S
C2499 C2498 1.385 . S
C2499 C2500 1.389 . S
C2500 C2499 1.389 . S
C2500 C2501 1.387 . S
C2501 H2486 0.930 . S
C2501 C2496 1.390 . S
C2501 C2500 1.387 . S
H2502 C2514 0.930 . S
H2503 C2516 0.930 . S
H2504 C2517 0.930 . S
H2505 C2521 0.959 . S
H2506 C2521 0.959 . S
H2507 C2521 0.961 . S
H2508 C2522 0.960 . S
H2509 C2522 0.961 . S
H2510 C2522 0.959 . S
H2511 C2525 0.929 . S
H2512 C2526 0.931 . S
H2513 C2528 0.930 . S
C2514 H2502 0.930 . S
C2514 C2515 1.399 . S
C2514 C2519 1.399 . S
C2515 C2514 1.399 . S
C2515 C2516 1.376 . S
C2516 H2503 0.930 . S
C2516 C2515 1.376 . S
C2516 C2517 1.388 . S
C2517 H2504 0.930 . S
C2517 C2516 1.388 . S
C2517 C2518 1.390 . S
C2518 C2517 1.390 . S
C2518 C2519 1.394 . S
C2518 C2524 1.465 . S
C2519 C2514 1.399 . S
C2519 C2518 1.394 . S
C2519 C2520 1.516 . S
C2520 C2519 1.516 . S
C2520 C2521 1.502 . S
C2520 C2522 1.561 . S
C2520 C2523 1.526 . S
C2521 H2505 0.959 . S
C2521 H2506 0.959 . S
C2521 H2507 0.961 . S
C2521 C2520 1.502 . S
C2522 H2508 0.960 . S
C2522 H2509 0.961 . S
C2522 H2510 0.959 . S
C2522 C2520 1.561 . S
C2523 C2520 1.526 . S
C2523 C2524 1.396 . S
C2523 C2528 1.390 . S
C2524 C2518 1.465 . S
C2524 C2523 1.396 . S
C2524 C2525 1.399 . S
C2525 H2511 0.929 . S
C2525 C2524 1.399 . S
C2525 C2526 1.385 . S
C2526 H2512 0.931 . S
C2526 C2525 1.385 . S
C2526 C2527 1.389 . S
C2527 C2526 1.389 . S
C2527 C2528 1.387 . S
C2528 H2513 0.930 . S
C2528 C2523 1.390 . S
C2528 C2527 1.387 . S
H2529 C2541 0.930 . S
H2530 C2543 0.930 . S
H2531 C2544 0.930 . S
H2532 C2548 0.959 . S
H2533 C2548 0.959 . S
H2534 C2548 0.961 . S
H2535 C2549 0.960 . S
H2536 C2549 0.961 . S
H2537 C2549 0.959 . S
H2538 C2552 0.929 . S
H2539 C2553 0.931 . S
H2540 C2555 0.930 . S
C2541 H2529 0.930 . S
C2541 C2542 1.399 . S
C2541 C2546 1.399 . S
C2542 C2541 1.399 . S
C2542 C2543 1.376 . S
C2543 H2530 0.930 . S
C2543 C2542 1.376 . S
C2543 C2544 1.388 . S
C2544 H2531 0.930 . S
C2544 C2543 1.388 . S
C2544 C2545 1.390 . S
C2545 C2544 1.390 . S
C2545 C2546 1.394 . S
C2545 C2551 1.465 . S
C2546 C2541 1.399 . S
C2546 C2545 1.394 . S
C2546 C2547 1.516 . S
C2547 C2546 1.516 . S
C2547 C2548 1.502 . S
C2547 C2549 1.561 . S
C2547 C2550 1.526 . S
C2548 H2532 0.959 . S
C2548 H2533 0.959 . S
C2548 H2534 0.961 . S
C2548 C2547 1.502 . S
C2549 H2535 0.960 . S
C2549 H2536 0.961 . S
C2549 H2537 0.959 . S
C2549 C2547 1.561 . S
C2550 C2547 1.526 . S
C2550 C2551 1.396 . S
C2550 C2555 1.390 . S
C2551 C2545 1.465 . S
C2551 C2550 1.396 . S
C2551 C2552 1.399 . S
C2552 H2538 0.929 . S
C2552 C2551 1.399 . S
C2552 C2553 1.385 . S
C2553 H2539 0.931 . S
C2553 C2552 1.385 . S
C2553 C2554 1.389 . S
C2554 C2553 1.389 . S
C2554 C2555 1.387 . S
C2555 H2540 0.930 . S
C2555 C2550 1.390 . S
C2555 C2554 1.387 . S
H2556 C2568 0.930 . S
H2557 C2570 0.930 . S
H2558 C2571 0.930 . S
H2559 C2575 0.959 . S
H2560 C2575 0.959 . S
H2561 C2575 0.961 . S
H2562 C2576 0.960 1_655 S
H2563 C2576 0.961 . S
H2564 C2576 0.959 1_655 S
H2565 C2579 0.929 . S
H2566 C2580 0.931 . S
H2567 C2582 0.930 . S
C2568 H2556 0.930 . S
C2568 C2569 1.399 . S
C2568 C2573 1.399 1_655 S
C2569 C2568 1.399 . S
C2569 C2570 1.376 . S
C2570 H2557 0.930 . S
C2570 C2569 1.376 . S
C2570 C2571 1.388 1_655 S
C2571 H2558 0.930 . S
C2571 C2570 1.388 1_455 S
C2571 C2572 1.390 . S
C2572 C2571 1.390 . S
C2572 C2573 1.394 . S
C2572 C2578 1.465 . S
C2573 C2568 1.399 1_455 S
C2573 C2572 1.394 . S
C2573 C2574 1.516 . S
C2574 C2573 1.516 . S
C2574 C2575 1.502 . S
C2574 C2576 1.561 . S
C2574 C2577 1.526 . S
C2575 H2559 0.959 . S
C2575 H2560 0.959 . S
C2575 H2561 0.961 . S
C2575 C2574 1.502 . S
C2576 H2562 0.960 1_455 S
C2576 H2563 0.961 . S
C2576 H2564 0.959 1_455 S
C2576 C2574 1.561 . S
C2577 C2574 1.526 . S
C2577 C2578 1.396 . S
C2577 C2582 1.390 . S
C2578 C2572 1.465 . S
C2578 C2577 1.396 . S
C2578 C2579 1.399 . S
C2579 H2565 0.929 . S
C2579 C2578 1.399 . S
C2579 C2580 1.385 . S
C2580 H2566 0.931 . S
C2580 C2579 1.385 . S
C2580 C2581 1.389 . S
C2581 C2580 1.389 . S
C2581 C2582 1.387 . S
C2582 H2567 0.930 . S
C2582 C2577 1.390 . S
C2582 C2581 1.387 . S
H2583 C2595 0.930 . S
H2584 C2597 0.930 . S
H2585 C2598 0.930 . S
H2586 C2602 0.959 . S
H2587 C2602 0.959 . S
H2588 C2602 0.961 . S
H2589 C2603 0.960 . S
H2590 C2603 0.961 . S
H2591 C2603 0.959 . S
H2592 C2606 0.929 . S
H2593 C2607 0.931 . S
H2594 C2609 0.930 . S
C2595 H2583 0.930 . S
C2595 C2596 1.399 . S
C2595 C2600 1.399 . S
C2596 C2595 1.399 . S
C2596 C2597 1.376 . S
C2597 H2584 0.930 . S
C2597 C2596 1.376 . S
C2597 C2598 1.388 . S
C2598 H2585 0.930 . S
C2598 C2597 1.388 . S
C2598 C2599 1.390 . S
C2599 C2598 1.390 . S
C2599 C2600 1.394 . S
C2599 C2605 1.465 . S
C2600 C2595 1.399 . S
C2600 C2599 1.394 . S
C2600 C2601 1.516 . S
C2601 C2600 1.516 . S
C2601 C2602 1.502 . S
C2601 C2603 1.561 . S
C2601 C2604 1.526 . S
C2602 H2586 0.959 . S
C2602 H2587 0.959 . S
C2602 H2588 0.961 . S
C2602 C2601 1.502 . S
C2603 H2589 0.960 . S
C2603 H2590 0.961 . S
C2603 H2591 0.959 . S
C2603 C2601 1.561 . S
C2604 C2601 1.526 . S
C2604 C2605 1.396 . S
C2604 C2609 1.390 . S
C2605 C2599 1.465 . S
C2605 C2604 1.396 . S
C2605 C2606 1.399 . S
C2606 H2592 0.929 . S
C2606 C2605 1.399 . S
C2606 C2607 1.385 . S
C2607 H2593 0.931 . S
C2607 C2606 1.385 . S
C2607 C2608 1.389 . S
C2608 C2607 1.389 . S
C2608 C2609 1.387 . S
C2609 H2594 0.930 . S
C2609 C2604 1.390 . S
C2609 C2608 1.387 . S
H2610 C2622 0.930 . S
H2611 C2624 0.930 . S
H2612 C2625 0.930 . S
H2613 C2629 0.959 . S
H2614 C2629 0.959 . S
H2615 C2629 0.961 . S
H2616 C2630 0.960 . S
H2617 C2630 0.961 . S
H2618 C2630 0.959 . S
H2619 C2633 0.929 . S
H2620 C2634 0.931 . S
H2621 C2636 0.930 . S
C2622 H2610 0.930 . S
C2622 C2623 1.399 . S
C2622 C2627 1.399 . S
C2623 C2622 1.399 . S
C2623 C2624 1.376 . S
C2624 H2611 0.930 . S
C2624 C2623 1.376 . S
C2624 C2625 1.388 . S
C2625 H2612 0.930 . S
C2625 C2624 1.388 . S
C2625 C2626 1.390 . S
C2626 C2625 1.390 . S
C2626 C2627 1.394 . S
C2626 C2632 1.465 . S
C2627 C2622 1.399 . S
C2627 C2626 1.394 . S
C2627 C2628 1.516 . S
C2628 C2627 1.516 . S
C2628 C2629 1.502 . S
C2628 C2630 1.561 . S
C2628 C2631 1.526 . S
C2629 H2613 0.959 . S
C2629 H2614 0.959 . S
C2629 H2615 0.961 . S
C2629 C2628 1.502 . S
C2630 H2616 0.960 . S
C2630 H2617 0.961 . S
C2630 H2618 0.959 . S
C2630 C2628 1.561 . S
C2631 C2628 1.526 . S
C2631 C2632 1.396 . S
C2631 C2636 1.390 . S
C2632 C2626 1.465 . S
C2632 C2631 1.396 . S
C2632 C2633 1.399 . S
C2633 H2619 0.929 . S
C2633 C2632 1.399 . S
C2633 C2634 1.385 . S
C2634 H2620 0.931 . S
C2634 C2633 1.385 . S
C2634 C2635 1.389 . S
C2635 C2634 1.389 . S
C2635 C2636 1.387 . S
C2636 H2621 0.930 . S
C2636 C2631 1.390 . S
C2636 C2635 1.387 . S
H2637 C2649 0.930 . S
H2638 C2651 0.930 . S
H2639 C2652 0.930 . S
H2640 C2656 0.959 . S
H2641 C2656 0.959 . S
H2642 C2656 0.961 . S
H2643 C2657 0.960 . S
H2644 C2657 0.961 . S
H2645 C2657 0.959 . S
H2646 C2660 0.929 . S
H2647 C2661 0.931 . S
H2648 C2663 0.930 . S
C2649 H2637 0.930 . S
C2649 C2650 1.399 . S
C2649 C2654 1.399 . S
C2650 C2649 1.399 . S
C2650 C2651 1.376 . S
C2651 H2638 0.930 . S
C2651 C2650 1.376 . S
C2651 C2652 1.388 . S
C2652 H2639 0.930 . S
C2652 C2651 1.388 . S
C2652 C2653 1.390 . S
C2653 C2652 1.390 . S
C2653 C2654 1.394 . S
C2653 C2659 1.465 . S
C2654 C2649 1.399 . S
C2654 C2653 1.394 . S
C2654 C2655 1.516 . S
C2655 C2654 1.516 . S
C2655 C2656 1.502 . S
C2655 C2657 1.561 . S
C2655 C2658 1.526 . S
C2656 H2640 0.959 . S
C2656 H2641 0.959 . S
C2656 H2642 0.961 . S
C2656 C2655 1.502 . S
C2657 H2643 0.960 . S
C2657 H2644 0.961 . S
C2657 H2645 0.959 . S
C2657 C2655 1.561 . S
C2658 C2655 1.526 . S
C2658 C2659 1.396 . S
C2658 C2663 1.390 . S
C2659 C2653 1.465 . S
C2659 C2658 1.396 . S
C2659 C2660 1.399 . S
C2660 H2646 0.929 . S
C2660 C2659 1.399 . S
C2660 C2661 1.385 . S
C2661 H2647 0.931 . S
C2661 C2660 1.385 . S
C2661 C2662 1.389 . S
C2662 C2661 1.389 . S
C2662 C2663 1.387 . S
C2663 H2648 0.930 . S
C2663 C2658 1.390 . S
C2663 C2662 1.387 . S
H2664 C2676 0.930 . S
H2665 C2678 0.930 . S
H2666 C2679 0.930 . S
H2667 C2683 0.960 1_565 S
H2668 C2683 0.962 1_565 S
H2669 C2683 0.958 . S
H2670 C2684 0.960 . S
H2671 C2684 0.925 1_565 S
H2672 C2684 0.959 . S
H2673 C2687 0.929 . S
H2674 C2688 0.931 . S
H2675 C2690 0.930 . S
C2676 H2664 0.930 . S
C2676 C2677 1.399 . S
C2676 C2681 1.399 . S
C2677 C2676 1.399 . S
C2677 C2678 1.376 . S
C2678 H2665 0.930 . S
C2678 C2677 1.376 . S
C2678 C2679 1.388 . S
C2679 H2666 0.930 . S
C2679 C2678 1.388 . S
C2679 C2680 1.390 . S
C2680 C2679 1.390 . S
C2680 C2681 1.394 . S
C2680 C2686 1.465 . S
C2681 C2676 1.399 . S
C2681 C2680 1.394 . S
C2681 C2682 1.516 . S
C2682 C2681 1.516 . S
C2682 C2683 1.501 . S
C2682 C2684 1.561 . S
C2682 C2685 1.526 1_545 S
C2683 H2667 0.960 1_545 S
C2683 H2668 0.962 1_545 S
C2683 H2669 0.958 . S
C2683 C2682 1.501 . S
C2684 H2670 0.960 . S
C2684 H2671 0.925 1_545 S
C2684 H2672 0.959 . S
C2684 C2682 1.561 . S
C2685 C2682 1.526 1_565 S
C2685 C2686 1.396 1_565 S
C2685 C2690 1.390 . S
C2686 C2680 1.465 . S
C2686 C2685 1.396 1_545 S
C2686 C2687 1.399 . S
C2687 H2673 0.929 . S
C2687 C2686 1.399 . S
C2687 C2688 1.385 1_545 S
C2688 H2674 0.931 . S
C2688 C2687 1.385 1_565 S
C2688 C2689 1.389 . S
C2689 C2688 1.389 . S
C2689 C2690 1.387 . S
C2690 H2675 0.930 . S
C2690 C2685 1.390 . S
C2690 C2689 1.387 . S
H2691 C2703 0.930 . S
H2692 C2705 0.930 . S
H2693 C2706 0.930 . S
H2694 C2710 0.959 . S
H2695 C2710 0.959 . S
H2696 C2710 0.961 . S
H2697 C2711 0.960 . S
H2698 C2711 0.961 . S
H2699 C2711 0.959 . S
H2700 C2714 0.929 . S
H2701 C2715 0.931 . S
H2702 C2717 0.930 . S
C2703 H2691 0.930 . S
C2703 C2704 1.399 . S
C2703 C2708 1.399 . S
C2704 C2703 1.399 . S
C2704 C2705 1.376 . S
C2705 H2692 0.930 . S
C2705 C2704 1.376 . S
C2705 C2706 1.388 . S
C2706 H2693 0.930 . S
C2706 C2705 1.388 . S
C2706 C2707 1.390 . S
C2707 C2706 1.390 . S
C2707 C2708 1.394 . S
C2707 C2713 1.465 . S
C2708 C2703 1.399 . S
C2708 C2707 1.394 . S
C2708 C2709 1.516 . S
C2709 C2708 1.516 . S
C2709 C2710 1.502 . S
C2709 C2711 1.561 . S
C2709 C2712 1.526 . S
C2710 H2694 0.959 . S
C2710 H2695 0.959 . S
C2710 H2696 0.961 . S
C2710 C2709 1.502 . S
C2711 H2697 0.960 . S
C2711 H2698 0.961 . S
C2711 H2699 0.959 . S
C2711 C2709 1.561 . S
C2712 C2709 1.526 . S
C2712 C2713 1.396 . S
C2712 C2717 1.390 . S
C2713 C2707 1.465 . S
C2713 C2712 1.396 . S
C2713 C2714 1.399 . S
C2714 H2700 0.929 . S
C2714 C2713 1.399 . S
C2714 C2715 1.385 . S
C2715 H2701 0.931 . S
C2715 C2714 1.385 . S
C2715 C2716 1.389 . S
C2716 C2715 1.389 . S
C2716 C2717 1.387 . S
C2717 H2702 0.930 . S
C2717 C2712 1.390 . S
C2717 C2716 1.387 . S
H2718 C2730 0.930 . S
H2719 C2732 0.930 . S
H2720 C2733 0.930 . S
H2721 C2737 0.959 . S
H2722 C2737 0.959 . S
H2723 C2737 0.961 . S
H2724 C2738 0.960 . S
H2725 C2738 0.961 . S
H2726 C2738 0.959 . S
H2727 C2741 0.929 . S
H2728 C2742 0.931 . S
H2729 C2744 0.930 . S
C2730 H2718 0.930 . S
C2730 C2731 1.399 . S
C2730 C2735 1.399 . S
C2731 C2730 1.399 . S
C2731 C2732 1.376 . S
C2732 H2719 0.930 . S
C2732 C2731 1.376 . S
C2732 C2733 1.388 . S
C2733 H2720 0.930 . S
C2733 C2732 1.388 . S
C2733 C2734 1.390 . S
C2734 C2733 1.390 . S
C2734 C2735 1.394 . S
C2734 C2740 1.465 . S
C2735 C2730 1.399 . S
C2735 C2734 1.394 . S
C2735 C2736 1.516 . S
C2736 C2735 1.516 . S
C2736 C2737 1.502 . S
C2736 C2738 1.561 . S
C2736 C2739 1.526 . S
C2737 H2721 0.959 . S
C2737 H2722 0.959 . S
C2737 H2723 0.961 . S
C2737 C2736 1.502 . S
C2738 H2724 0.960 . S
C2738 H2725 0.961 . S
C2738 H2726 0.959 . S
C2738 C2736 1.561 . S
C2739 C2736 1.526 . S
C2739 C2740 1.396 . S
C2739 C2744 1.390 . S
C2740 C2734 1.465 . S
C2740 C2739 1.396 . S
C2740 C2741 1.399 . S
C2741 H2727 0.929 . S
C2741 C2740 1.399 . S
C2741 C2742 1.385 . S
C2742 H2728 0.931 . S
C2742 C2741 1.385 . S
C2742 C2743 1.389 . S
C2743 C2742 1.389 . S
C2743 C2744 1.387 . S
C2744 H2729 0.930 . S
C2744 C2739 1.390 . S
C2744 C2743 1.387 . S
H2745 C2757 0.930 . S
H2746 C2759 0.930 . S
H2747 C2760 0.930 . S
H2748 C2764 0.959 . S
H2749 C2764 0.959 . S
H2750 C2764 0.961 . S
H2751 C2765 0.960 . S
H2752 C2765 0.961 . S
H2753 C2765 0.959 . S
H2754 C2768 0.929 . S
H2755 C2769 0.931 . S
H2756 C2771 0.930 . S
C2757 H2745 0.930 . S
C2757 C2758 1.399 . S
C2757 C2762 1.399 . S
C2758 C2757 1.399 . S
C2758 C2759 1.376 . S
C2759 H2746 0.930 . S
C2759 C2758 1.376 . S
C2759 C2760 1.388 . S
C2760 H2747 0.930 . S
C2760 C2759 1.388 . S
C2760 C2761 1.390 . S
C2761 C2760 1.390 . S
C2761 C2762 1.394 . S
C2761 C2767 1.465 . S
C2762 C2757 1.399 . S
C2762 C2761 1.394 . S
C2762 C2763 1.516 . S
C2763 C2762 1.516 . S
C2763 C2764 1.502 . S
C2763 C2765 1.561 . S
C2763 C2766 1.526 . S
C2764 H2748 0.959 . S
C2764 H2749 0.959 . S
C2764 H2750 0.961 . S
C2764 C2763 1.502 . S
C2765 H2751 0.960 . S
C2765 H2752 0.961 . S
C2765 H2753 0.959 . S
C2765 C2763 1.561 . S
C2766 C2763 1.526 . S
C2766 C2767 1.396 . S
C2766 C2771 1.390 . S
C2767 C2761 1.465 . S
C2767 C2766 1.396 . S
C2767 C2768 1.399 . S
C2768 H2754 0.929 . S
C2768 C2767 1.399 . S
C2768 C2769 1.385 . S
C2769 H2755 0.931 . S
C2769 C2768 1.385 . S
C2769 C2770 1.389 . S
C2770 C2769 1.389 . S
C2770 C2771 1.387 . S
C2771 H2756 0.930 . S
C2771 C2766 1.390 . S
C2771 C2770 1.387 . S
H2772 C2784 0.930 . S
H2773 C2786 0.930 . S
H2774 C2787 0.930 . S
H2775 C2791 0.959 . S
H2776 C2791 0.959 . S
H2777 C2791 0.961 . S
H2778 C2792 0.960 . S
H2779 C2792 0.961 . S
H2780 C2792 0.959 . S
H2781 C2795 0.929 . S
H2782 C2796 0.931 . S
H2783 C2798 0.930 . S
C2784 H2772 0.930 . S
C2784 C2785 1.399 . S
C2784 C2789 1.399 . S
C2785 C2784 1.399 . S
C2785 C2786 1.376 . S
C2786 H2773 0.930 . S
C2786 C2785 1.376 . S
C2786 C2787 1.388 . S
C2787 H2774 0.930 . S
C2787 C2786 1.388 . S
C2787 C2788 1.390 . S
C2788 C2787 1.390 . S
C2788 C2789 1.394 . S
C2788 C2794 1.465 . S
C2789 C2784 1.399 . S
C2789 C2788 1.394 . S
C2789 C2790 1.516 . S
C2790 C2789 1.516 . S
C2790 C2791 1.502 . S
C2790 C2792 1.561 . S
C2790 C2793 1.526 . S
C2791 H2775 0.959 . S
C2791 H2776 0.959 . S
C2791 H2777 0.961 . S
C2791 C2790 1.502 . S
C2792 H2778 0.960 . S
C2792 H2779 0.961 . S
C2792 H2780 0.959 . S
C2792 C2790 1.561 . S
C2793 C2790 1.526 . S
C2793 C2794 1.396 . S
C2793 C2798 1.390 . S
C2794 C2788 1.465 . S
C2794 C2793 1.396 . S
C2794 C2795 1.399 . S
C2795 H2781 0.929 . S
C2795 C2794 1.399 . S
C2795 C2796 1.385 . S
C2796 H2782 0.931 . S
C2796 C2795 1.385 . S
C2796 C2797 1.389 . S
C2797 C2796 1.389 . S
C2797 C2798 1.387 . S
C2798 H2783 0.930 . S
C2798 C2793 1.390 . S
C2798 C2797 1.387 . S
H2799 C2811 0.930 . S
H2800 C2813 0.930 . S
H2801 C2814 0.930 . S
H2802 C2818 0.959 . S
H2803 C2818 0.959 . S
H2804 C2818 0.961 . S
H2805 C2819 0.960 . S
H2806 C2819 0.961 . S
H2807 C2819 0.959 . S
H2808 C2822 0.929 . S
H2809 C2823 0.931 . S
H2810 C2825 0.930 1_565 S
C2811 H2799 0.930 . S
C2811 C2812 1.399 . S
C2811 C2816 1.399 . S
C2812 C2811 1.399 . S
C2812 C2813 1.376 . S
C2813 H2800 0.930 . S
C2813 C2812 1.376 . S
C2813 C2814 1.388 . S
C2814 H2801 0.930 . S
C2814 C2813 1.388 . S
C2814 C2815 1.390 . S
C2815 C2814 1.390 . S
C2815 C2816 1.394 . S
C2815 C2821 1.465 . S
C2816 C2811 1.399 . S
C2816 C2815 1.394 . S
C2816 C2817 1.516 . S
C2817 C2816 1.516 . S
C2817 C2818 1.502 . S
C2817 C2819 1.561 . S
C2817 C2820 1.526 . S
C2818 H2802 0.959 . S
C2818 H2803 0.959 . S
C2818 H2804 0.961 . S
C2818 C2817 1.502 . S
C2819 H2805 0.960 . S
C2819 H2806 0.961 . S
C2819 H2807 0.959 . S
C2819 C2817 1.561 . S
C2820 C2817 1.526 . S
C2820 C2821 1.396 . S
C2820 C2825 1.390 1_565 S
C2821 C2815 1.465 . S
C2821 C2820 1.396 . S
C2821 C2822 1.399 1_565 S
C2822 H2808 0.929 . S
C2822 C2821 1.399 1_545 S
C2822 C2823 1.385 . S
C2823 H2809 0.931 . S
C2823 C2822 1.385 . S
C2823 C2824 1.389 . S
C2824 C2823 1.389 . S
C2824 C2825 1.387 . S
C2825 H2810 0.930 1_545 S
C2825 C2820 1.390 1_545 S
C2825 C2824 1.387 . S
H2826 C2838 0.930 . S
H2827 C2840 0.930 . S
H2828 C2841 0.930 . S
H2829 C2845 0.959 . S
H2830 C2845 0.959 . S
H2831 C2845 0.961 . S
H2832 C2846 0.960 . S
H2833 C2846 0.961 . S
H2834 C2846 0.959 . S
H2835 C2849 0.929 . S
H2836 C2850 0.931 . S
H2837 C2852 0.930 . S
C2838 H2826 0.930 . S
C2838 C2839 1.399 . S
C2838 C2843 1.399 . S
C2839 C2838 1.399 . S
C2839 C2840 1.376 . S
C2840 H2827 0.930 . S
C2840 C2839 1.376 . S
C2840 C2841 1.388 . S
C2841 H2828 0.930 . S
C2841 C2840 1.388 . S
C2841 C2842 1.390 . S
C2842 C2841 1.390 . S
C2842 C2843 1.394 . S
C2842 C2848 1.465 . S
C2843 C2838 1.399 . S
C2843 C2842 1.394 . S
C2843 C2844 1.516 . S
C2844 C2843 1.516 . S
C2844 C2845 1.502 . S
C2844 C2846 1.561 . S
C2844 C2847 1.526 . S
C2845 H2829 0.959 . S
C2845 H2830 0.959 . S
C2845 H2831 0.961 . S
C2845 C2844 1.502 . S
C2846 H2832 0.960 . S
C2846 H2833 0.961 . S
C2846 H2834 0.959 . S
C2846 C2844 1.561 . S
C2847 C2844 1.526 . S
C2847 C2848 1.396 . S
C2847 C2852 1.390 . S
C2848 C2842 1.465 . S
C2848 C2847 1.396 . S
C2848 C2849 1.399 . S
C2849 H2835 0.929 . S
C2849 C2848 1.399 . S
C2849 C2850 1.385 . S
C2850 H2836 0.931 . S
C2850 C2849 1.385 . S
C2850 C2851 1.389 . S
C2851 C2850 1.389 . S
C2851 C2852 1.387 . S
C2852 H2837 0.930 . S
C2852 C2847 1.390 . S
C2852 C2851 1.387 . S
H2853 C2865 0.930 . S
H2854 C2867 0.930 . S
H2855 C2868 0.930 . S
H2856 C2872 0.959 . S
H2857 C2872 0.959 . S
H2858 C2872 0.961 . S
H2859 C2873 0.960 . S
H2860 C2873 0.961 . S
H2861 C2873 0.959 . S
H2862 C2876 0.929 . S
H2863 C2877 0.931 . S
H2864 C2879 0.930 . S
C2865 H2853 0.930 . S
C2865 C2866 1.399 . S
C2865 C2870 1.399 . S
C2866 C2865 1.399 . S
C2866 C2867 1.376 . S
C2867 H2854 0.930 . S
C2867 C2866 1.376 . S
C2867 C2868 1.388 . S
C2868 H2855 0.930 . S
C2868 C2867 1.388 . S
C2868 C2869 1.390 . S
C2869 C2868 1.390 . S
C2869 C2870 1.394 . S
C2869 C2875 1.465 . S
C2870 C2865 1.399 . S
C2870 C2869 1.394 . S
C2870 C2871 1.516 . S
C2871 C2870 1.516 . S
C2871 C2872 1.502 . S
C2871 C2873 1.561 . S
C2871 C2874 1.526 . S
C2872 H2856 0.959 . S
C2872 H2857 0.959 . S
C2872 H2858 0.961 . S
C2872 C2871 1.502 . S
C2873 H2859 0.960 . S
C2873 H2860 0.961 . S
C2873 H2861 0.959 . S
C2873 C2871 1.561 . S
C2874 C2871 1.526 . S
C2874 C2875 1.396 . S
C2874 C2879 1.390 . S
C2875 C2869 1.465 . S
C2875 C2874 1.396 . S
C2875 C2876 1.399 . S
C2876 H2862 0.929 . S
C2876 C2875 1.399 . S
C2876 C2877 1.385 . S
C2877 H2863 0.931 . S
C2877 C2876 1.385 . S
C2877 C2878 1.389 . S
C2878 C2877 1.389 . S
C2878 C2879 1.387 . S
C2879 H2864 0.930 . S
C2879 C2874 1.390 . S
C2879 C2878 1.387 . S
H2880 C2892 0.930 . S
H2881 C2894 0.930 . S
H2882 C2895 0.930 . S
H2883 C2899 0.959 . S
H2884 C2899 0.959 . S
H2885 C2899 0.961 . S
H2886 C2900 0.960 . S
H2887 C2900 0.961 . S
H2888 C2900 0.959 . S
H2889 C2903 0.929 . S
H2890 C2904 0.931 . S
H2891 C2906 0.930 . S
C2892 H2880 0.930 . S
C2892 C2893 1.399 . S
C2892 C2897 1.399 . S
C2893 C2892 1.399 . S
C2893 C2894 1.376 . S
C2894 H2881 0.930 . S
C2894 C2893 1.376 . S
C2894 C2895 1.388 . S
C2895 H2882 0.930 . S
C2895 C2894 1.388 . S
C2895 C2896 1.390 . S
C2896 C2895 1.390 . S
C2896 C2897 1.394 . S
C2896 C2902 1.465 . S
C2897 C2892 1.399 . S
C2897 C2896 1.394 . S
C2897 C2898 1.516 . S
C2898 C2897 1.516 . S
C2898 C2899 1.502 . S
C2898 C2900 1.561 . S
C2898 C2901 1.526 . S
C2899 H2883 0.959 . S
C2899 H2884 0.959 . S
C2899 H2885 0.961 . S
C2899 C2898 1.502 . S
C2900 H2886 0.960 . S
C2900 H2887 0.961 . S
C2900 H2888 0.959 . S
C2900 C2898 1.561 . S
C2901 C2898 1.526 . S
C2901 C2902 1.396 . S
C2901 C2906 1.390 . S
C2902 C2896 1.465 . S
C2902 C2901 1.396 . S
C2902 C2903 1.399 . S
C2903 H2889 0.929 . S
C2903 C2902 1.399 . S
C2903 C2904 1.385 . S
C2904 H2890 0.931 . S
C2904 C2903 1.385 . S
C2904 C2905 1.389 . S
C2905 C2904 1.389 . S
C2905 C2906 1.387 . S
C2906 H2891 0.930 . S
C2906 C2901 1.390 . S
C2906 C2905 1.387 . S
H2907 C2919 0.930 . S
H2908 C2921 0.930 . S
H2909 C2922 0.930 . S
H2910 C2926 0.959 . S
H2911 C2926 0.959 . S
H2912 C2926 0.961 . S
H2913 C2927 0.960 . S
H2914 C2927 0.961 . S
H2915 C2927 0.959 . S
H2916 C2930 0.929 . S
H2917 C2931 0.931 . S
H2918 C2933 0.930 . S
C2919 H2907 0.930 . S
C2919 C2920 1.399 . S
C2919 C2924 1.399 . S
C2920 C2919 1.399 . S
C2920 C2921 1.376 . S
C2921 H2908 0.930 . S
C2921 C2920 1.376 . S
C2921 C2922 1.388 . S
C2922 H2909 0.930 . S
C2922 C2921 1.388 . S
C2922 C2923 1.390 . S
C2923 C2922 1.390 . S
C2923 C2924 1.394 . S
C2923 C2929 1.465 . S
C2924 C2919 1.399 . S
C2924 C2923 1.394 . S
C2924 C2925 1.516 . S
C2925 C2924 1.516 . S
C2925 C2926 1.502 . S
C2925 C2927 1.561 . S
C2925 C2928 1.526 . S
C2926 H2910 0.959 . S
C2926 H2911 0.959 . S
C2926 H2912 0.961 . S
C2926 C2925 1.502 . S
C2927 H2913 0.960 . S
C2927 H2914 0.961 . S
C2927 H2915 0.959 . S
C2927 C2925 1.561 . S
C2928 C2925 1.526 . S
C2928 C2929 1.396 . S
C2928 C2933 1.390 . S
C2929 C2923 1.465 . S
C2929 C2928 1.396 . S
C2929 C2930 1.399 . S
C2930 H2916 0.929 . S
C2930 C2929 1.399 . S
C2930 C2931 1.385 . S
C2931 H2917 0.931 . S
C2931 C2930 1.385 . S
C2931 C2932 1.389 . S
C2932 C2931 1.389 . S
C2932 C2933 1.387 . S
C2933 H2918 0.930 . S
C2933 C2928 1.390 . S
C2933 C2932 1.387 . S
H2934 C2946 0.930 . S
H2935 C2948 0.930 . S
H2936 C2949 0.930 . S
H2937 C2953 0.959 . S
H2938 C2953 0.959 . S
H2939 C2953 0.961 . S
H2940 C2954 0.960 . S
H2941 C2954 0.961 . S
H2942 C2954 0.959 . S
H2943 C2957 0.929 . S
H2944 C2958 0.931 . S
H2945 C2960 0.930 . S
C2946 H2934 0.930 . S
C2946 C2947 1.399 . S
C2946 C2951 1.399 1_554 S
C2947 C2946 1.399 . S
C2947 C2948 1.376 . S
C2948 H2935 0.930 . S
C2948 C2947 1.376 . S
C2948 C2949 1.388 . S
C2949 H2936 0.930 . S
C2949 C2948 1.388 . S
C2949 C2950 1.390 1_554 S
C2950 C2949 1.390 1_556 S
C2950 C2951 1.394 . S
C2950 C2956 1.465 . S
C2951 C2946 1.399 1_556 S
C2951 C2950 1.394 . S
C2951 C2952 1.516 . S
C2952 C2951 1.516 . S
C2952 C2953 1.502 . S
C2952 C2954 1.561 . S
C2952 C2955 1.526 . S
C2953 H2937 0.959 . S
C2953 H2938 0.959 . S
C2953 H2939 0.961 . S
C2953 C2952 1.502 . S
C2954 H2940 0.960 . S
C2954 H2941 0.961 . S
C2954 H2942 0.959 . S
C2954 C2952 1.561 . S
C2955 C2952 1.526 . S
C2955 C2956 1.396 . S
C2955 C2960 1.390 . S
C2956 C2950 1.465 . S
C2956 C2955 1.396 . S
C2956 C2957 1.399 . S
C2957 H2943 0.929 . S
C2957 C2956 1.399 . S
C2957 C2958 1.385 . S
C2958 H2944 0.931 . S
C2958 C2957 1.385 . S
C2958 C2959 1.389 . S
C2959 C2958 1.389 . S
C2959 C2960 1.387 . S
C2960 H2945 0.930 . S
C2960 C2955 1.390 . S
C2960 C2959 1.387 . S
H2961 C2973 0.930 . S
H2962 C2975 0.930 . S
H2963 C2976 0.930 . S
H2964 C2980 0.959 . S
H2965 C2980 0.959 . S
H2966 C2980 0.961 . S
H2967 C2981 0.960 . S
H2968 C2981 0.961 . S
H2969 C2981 0.959 . S
H2970 C2984 0.929 . S
H2971 C2985 0.931 . S
H2972 C2987 0.930 . S
C2973 H2961 0.930 . S
C2973 C2974 1.399 . S
C2973 C2978 1.399 . S
C2974 C2973 1.399 . S
C2974 C2975 1.376 . S
C2975 H2962 0.930 . S
C2975 C2974 1.376 . S
C2975 C2976 1.388 . S
C2976 H2963 0.930 . S
C2976 C2975 1.388 . S
C2976 C2977 1.390 . S
C2977 C2976 1.390 . S
C2977 C2978 1.394 . S
C2977 C2983 1.465 . S
C2978 C2973 1.399 . S
C2978 C2977 1.394 . S
C2978 C2979 1.516 . S
C2979 C2978 1.516 . S
C2979 C2980 1.502 . S
C2979 C2981 1.561 . S
C2979 C2982 1.526 . S
C2980 H2964 0.959 . S
C2980 H2965 0.959 . S
C2980 H2966 0.961 . S
C2980 C2979 1.502 . S
C2981 H2967 0.960 . S
C2981 H2968 0.961 . S
C2981 H2969 0.959 . S
C2981 C2979 1.561 . S
C2982 C2979 1.526 . S
C2982 C2983 1.396 . S
C2982 C2987 1.390 . S
C2983 C2977 1.465 . S
C2983 C2982 1.396 . S
C2983 C2984 1.399 . S
C2984 H2970 0.929 . S
C2984 C2983 1.399 . S
C2984 C2985 1.385 . S
C2985 H2971 0.931 . S
C2985 C2984 1.385 . S
C2985 C2986 1.389 . S
C2986 C2985 1.389 . S
C2986 C2987 1.387 . S
C2987 H2972 0.930 . S
C2987 C2982 1.390 . S
C2987 C2986 1.387 . S
H2988 C3000 0.930 . S
H2989 C3002 0.930 . S
H2990 C3003 0.930 . S
H2991 C3007 0.959 . S
H2992 C3007 0.959 . S
H2993 C3007 0.961 . S
H2994 C3008 0.960 . S
H2995 C3008 0.961 . S
H2996 C3008 0.959 . S
H2997 C3011 0.929 . S
H2998 C3012 0.931 . S
H2999 C3014 0.930 . S
C3000 H2988 0.930 . S
C3000 C3001 1.399 . S
C3000 C3005 1.399 . S
C3001 C3000 1.399 . S
C3001 C3002 1.376 . S
C3002 H2989 0.930 . S
C3002 C3001 1.376 . S
C3002 C3003 1.388 . S
C3003 H2990 0.930 . S
C3003 C3002 1.388 . S
C3003 C3004 1.390 . S
C3004 C3003 1.390 . S
C3004 C3005 1.394 . S
C3004 C3010 1.465 1_556 S
C3005 C3000 1.399 . S
C3005 C3004 1.394 . S
C3005 C3006 1.516 1_556 S
C3006 C3005 1.516 1_554 S
C3006 C3007 1.502 . S
C3006 C3008 1.561 . S
C3006 C3009 1.526 . S
C3007 H2991 0.959 . S
C3007 H2992 0.959 . S
C3007 H2993 0.961 . S
C3007 C3006 1.502 . S
C3008 H2994 0.960 . S
C3008 H2995 0.961 . S
C3008 H2996 0.959 . S
C3008 C3006 1.561 . S
C3009 C3006 1.526 . S
C3009 C3010 1.396 . S
C3009 C3014 1.390 . S
C3010 C3004 1.465 1_554 S
C3010 C3009 1.396 . S
C3010 C3011 1.399 . S
C3011 H2997 0.929 . S
C3011 C3010 1.399 . S
C3011 C3012 1.385 . S
C3012 H2998 0.931 . S
C3012 C3011 1.385 . S
C3012 C3013 1.389 . S
C3013 C3012 1.389 . S
C3013 C3014 1.387 . S
C3014 H2999 0.930 . S
C3014 C3009 1.390 . S
C3014 C3013 1.387 . S
H3015 C3027 0.930 . S
H3016 C3029 0.930 . S
H3017 C3030 0.930 . S
H3018 C3034 0.959 . S
H3019 C3034 0.959 . S
H3020 C3034 0.961 . S
H3021 C3035 0.960 . S
H3022 C3035 0.961 . S
H3023 C3035 0.959 . S
H3024 C3038 0.929 . S
H3025 C3039 0.931 . S
H3026 C3041 0.930 . S
C3027 H3015 0.930 . S
C3027 C3028 1.399 . S
C3027 C3032 1.399 . S
C3028 C3027 1.399 . S
C3028 C3029 1.376 . S
C3029 H3016 0.930 . S
C3029 C3028 1.376 . S
C3029 C3030 1.388 . S
C3030 H3017 0.930 . S
C3030 C3029 1.388 . S
C3030 C3031 1.390 . S
C3031 C3030 1.390 . S
C3031 C3032 1.394 . S
C3031 C3037 1.465 . S
C3032 C3027 1.399 . S
C3032 C3031 1.394 . S
C3032 C3033 1.516 . S
C3033 C3032 1.516 . S
C3033 C3034 1.502 . S
C3033 C3035 1.561 . S
C3033 C3036 1.526 . S
C3034 H3018 0.959 . S
C3034 H3019 0.959 . S
C3034 H3020 0.961 . S
C3034 C3033 1.502 . S
C3035 H3021 0.960 . S
C3035 H3022 0.961 . S
C3035 H3023 0.959 . S
C3035 C3033 1.561 . S
C3036 C3033 1.526 . S
C3036 C3037 1.396 . S
C3036 C3041 1.390 . S
C3037 C3031 1.465 . S
C3037 C3036 1.396 . S
C3037 C3038 1.399 . S
C3038 H3024 0.929 . S
C3038 C3037 1.399 . S
C3038 C3039 1.385 . S
C3039 H3025 0.931 . S
C3039 C3038 1.385 . S
C3039 C3040 1.389 . S
C3040 C3039 1.389 . S
C3040 C3041 1.387 . S
C3041 H3026 0.930 . S
C3041 C3036 1.390 . S
C3041 C3040 1.387 . S
H3042 C3054 0.930 . S
H3043 C3056 0.930 . S
H3044 C3057 0.930 . S
H3045 C3061 0.959 . S
H3046 C3061 0.959 . S
H3047 C3061 0.961 . S
H3048 C3062 0.960 . S
H3049 C3062 0.961 . S
H3050 C3062 0.959 . S
H3051 C3065 0.929 . S
H3052 C3066 0.931 . S
H3053 C3068 0.930 . S
C3054 H3042 0.930 . S
C3054 C3055 1.399 . S
C3054 C3059 1.399 . S
C3055 C3054 1.399 . S
C3055 C3056 1.376 . S
C3056 H3043 0.930 . S
C3056 C3055 1.376 . S
C3056 C3057 1.388 . S
C3057 H3044 0.930 . S
C3057 C3056 1.388 . S
C3057 C3058 1.390 . S
C3058 C3057 1.390 . S
C3058 C3059 1.394 . S
C3058 C3064 1.465 . S
C3059 C3054 1.399 . S
C3059 C3058 1.394 . S
C3059 C3060 1.516 . S
C3060 C3059 1.516 . S
C3060 C3061 1.502 . S
C3060 C3062 1.561 . S
C3060 C3063 1.526 . S
C3061 H3045 0.959 . S
C3061 H3046 0.959 . S
C3061 H3047 0.961 . S
C3061 C3060 1.502 . S
C3062 H3048 0.960 . S
C3062 H3049 0.961 . S
C3062 H3050 0.959 . S
C3062 C3060 1.561 . S
C3063 C3060 1.526 . S
C3063 C3064 1.396 . S
C3063 C3068 1.390 . S
C3064 C3058 1.465 . S
C3064 C3063 1.396 . S
C3064 C3065 1.399 . S
C3065 H3051 0.929 . S
C3065 C3064 1.399 . S
C3065 C3066 1.385 . S
C3066 H3052 0.931 . S
C3066 C3065 1.385 . S
C3066 C3067 1.389 . S
C3067 C3066 1.389 . S
C3067 C3068 1.387 . S
C3068 H3053 0.930 . S
C3068 C3063 1.390 . S
C3068 C3067 1.387 . S
H3069 C3081 0.930 . S
H3070 C3083 0.930 . S
H3071 C3084 0.930 . S
H3072 C3088 0.959 . S
H3073 C3088 0.959 . S
H3074 C3088 0.961 . S
H3075 C3089 0.960 . S
H3076 C3089 0.961 . S
H3077 C3089 0.959 . S
H3078 C3092 0.929 . S
H3079 C3093 0.931 . S
H3080 C3095 0.930 . S
C3081 H3069 0.930 . S
C3081 C3082 1.399 . S
C3081 C3086 1.399 . S
C3082 C3081 1.399 . S
C3082 C3083 1.376 . S
C3083 H3070 0.930 . S
C3083 C3082 1.376 . S
C3083 C3084 1.388 . S
C3084 H3071 0.930 . S
C3084 C3083 1.388 . S
C3084 C3085 1.390 . S
C3085 C3084 1.390 . S
C3085 C3086 1.394 . S
C3085 C3091 1.465 . S
C3086 C3081 1.399 . S
C3086 C3085 1.394 . S
C3086 C3087 1.516 . S
C3087 C3086 1.516 . S
C3087 C3088 1.502 . S
C3087 C3089 1.561 . S
C3087 C3090 1.526 . S
C3088 H3072 0.959 . S
C3088 H3073 0.959 . S
C3088 H3074 0.961 . S
C3088 C3087 1.502 . S
C3089 H3075 0.960 . S
C3089 H3076 0.961 . S
C3089 H3077 0.959 . S
C3089 C3087 1.561 . S
C3090 C3087 1.526 . S
C3090 C3091 1.396 . S
C3090 C3095 1.390 . S
C3091 C3085 1.465 . S
C3091 C3090 1.396 . S
C3091 C3092 1.399 . S
C3092 H3078 0.929 . S
C3092 C3091 1.399 . S
C3092 C3093 1.385 . S
C3093 H3079 0.931 . S
C3093 C3092 1.385 . S
C3093 C3094 1.389 . S
C3094 C3093 1.389 . S
C3094 C3095 1.387 . S
C3095 H3080 0.930 . S
C3095 C3090 1.390 . S
C3095 C3094 1.387 . S
H3096 C3108 0.930 . S
H3097 C3110 0.930 . S
H3098 C3111 0.930 . S
H3099 C3115 0.959 . S
H3100 C3115 0.959 . S
H3101 C3115 0.961 . S
H3102 C3116 0.960 . S
H3103 C3116 0.961 . S
H3104 C3116 0.959 . S
H3105 C3119 0.929 . S
H3106 C3120 0.931 . S
H3107 C3122 0.930 . S
C3108 H3096 0.930 . S
C3108 C3109 1.399 . S
C3108 C3113 1.399 . S
C3109 C3108 1.399 . S
C3109 C3110 1.376 . S
C3110 H3097 0.930 . S
C3110 C3109 1.376 . S
C3110 C3111 1.388 . S
C3111 H3098 0.930 . S
C3111 C3110 1.388 . S
C3111 C3112 1.390 . S
C3112 C3111 1.390 . S
C3112 C3113 1.394 . S
C3112 C3118 1.465 . S
C3113 C3108 1.399 . S
C3113 C3112 1.394 . S
C3113 C3114 1.516 . S
C3114 C3113 1.516 . S
C3114 C3115 1.502 . S
C3114 C3116 1.561 . S
C3114 C3117 1.526 . S
C3115 H3099 0.959 . S
C3115 H3100 0.959 . S
C3115 H3101 0.961 . S
C3115 C3114 1.502 . S
C3116 H3102 0.960 . S
C3116 H3103 0.961 . S
C3116 H3104 0.959 . S
C3116 C3114 1.561 . S
C3117 C3114 1.526 . S
C3117 C3118 1.396 . S
C3117 C3122 1.390 . S
C3118 C3112 1.465 . S
C3118 C3117 1.396 . S
C3118 C3119 1.399 . S
C3119 H3105 0.929 . S
C3119 C3118 1.399 . S
C3119 C3120 1.385 . S
C3120 H3106 0.931 . S
C3120 C3119 1.385 . S
C3120 C3121 1.389 . S
C3121 C3120 1.389 . S
C3121 C3122 1.387 . S
C3122 H3107 0.930 . S
C3122 C3117 1.390 . S
C3122 C3121 1.387 . S
H3123 C3135 0.930 . S
H3124 C3137 0.930 . S
H3125 C3138 0.930 . S
H3126 C3142 0.959 . S
H3127 C3142 0.959 . S
H3128 C3142 0.961 . S
H3129 C3143 0.960 . S
H3130 C3143 0.961 . S
H3131 C3143 0.959 . S
H3132 C3146 0.929 . S
H3133 C3147 0.931 . S
H3134 C3149 0.930 . S
C3135 H3123 0.930 . S
C3135 C3136 1.399 . S
C3135 C3140 1.399 . S
C3136 C3135 1.399 . S
C3136 C3137 1.376 . S
C3137 H3124 0.930 . S
C3137 C3136 1.376 . S
C3137 C3138 1.388 . S
C3138 H3125 0.930 . S
C3138 C3137 1.388 . S
C3138 C3139 1.390 . S
C3139 C3138 1.390 . S
C3139 C3140 1.394 . S
C3139 C3145 1.465 . S
C3140 C3135 1.399 . S
C3140 C3139 1.394 . S
C3140 C3141 1.516 . S
C3141 C3140 1.516 . S
C3141 C3142 1.502 . S
C3141 C3143 1.561 . S
C3141 C3144 1.526 . S
C3142 H3126 0.959 . S
C3142 H3127 0.959 . S
C3142 H3128 0.961 . S
C3142 C3141 1.502 . S
C3143 H3129 0.960 . S
C3143 H3130 0.961 . S
C3143 H3131 0.959 . S
C3143 C3141 1.561 . S
C3144 C3141 1.526 . S
C3144 C3145 1.396 . S
C3144 C3149 1.390 . S
C3145 C3139 1.465 . S
C3145 C3144 1.396 . S
C3145 C3146 1.399 . S
C3146 H3132 0.929 . S
C3146 C3145 1.399 . S
C3146 C3147 1.385 . S
C3147 H3133 0.931 . S
C3147 C3146 1.385 . S
C3147 C3148 1.389 . S
C3148 C3147 1.389 . S
C3148 C3149 1.387 . S
C3149 H3134 0.930 . S
C3149 C3144 1.390 . S
C3149 C3148 1.387 . S
H3150 C3162 0.930 . S
H3151 C3164 0.930 . S
H3152 C3165 0.930 . S
H3153 C3169 0.959 . S
H3154 C3169 0.959 1_455 S
H3155 C3169 0.961 . S
H3156 C3170 0.960 1_655 S
H3157 C3170 0.961 . S
H3158 C3170 0.959 . S
H3159 C3173 0.929 . S
H3160 C3174 0.931 . S
H3161 C3176 0.930 . S
C3162 H3150 0.930 . S
C3162 C3163 1.399 . S
C3162 C3167 1.399 . S
C3163 C3162 1.399 . S
C3163 C3164 1.376 . S
C3164 H3151 0.930 . S
C3164 C3163 1.376 . S
C3164 C3165 1.388 . S
C3165 H3152 0.930 . S
C3165 C3164 1.388 . S
C3165 C3166 1.390 . S
C3166 C3165 1.390 . S
C3166 C3167 1.394 . S
C3166 C3172 1.465 1_655 S
C3167 C3162 1.399 . S
C3167 C3166 1.394 . S
C3167 C3168 1.516 1_655 S
C3168 C3167 1.516 1_455 S
C3168 C3169 1.502 1_455 S
C3168 C3170 1.561 . S
C3168 C3171 1.526 . S
C3169 H3153 0.959 . S
C3169 H3154 0.959 1_655 S
C3169 H3155 0.961 . S
C3169 C3168 1.502 1_655 S
C3170 H3156 0.960 1_455 S
C3170 H3157 0.961 . S
C3170 H3158 0.959 . S
C3170 C3168 1.561 . S
C3171 C3168 1.526 . S
C3171 C3172 1.396 . S
C3171 C3176 1.390 . S
C3172 C3166 1.465 1_455 S
C3172 C3171 1.396 . S
C3172 C3173 1.399 . S
C3173 H3159 0.929 . S
C3173 C3172 1.399 . S
C3173 C3174 1.385 . S
C3174 H3160 0.931 . S
C3174 C3173 1.385 . S
C3174 C3175 1.389 . S
C3175 C3174 1.389 . S
C3175 C3176 1.387 . S
C3176 H3161 0.930 . S
C3176 C3171 1.390 . S
C3176 C3175 1.387 . S
H3177 C3189 0.930 . S
H3178 C3191 0.930 . S
H3179 C3192 0.930 . S
H3180 C3196 0.959 . S
H3181 C3196 0.959 . S
H3182 C3196 0.961 . S
H3183 C3197 0.960 . S
H3184 C3197 0.961 . S
H3185 C3197 0.959 . S
H3186 C3200 0.929 . S
H3187 C3201 0.931 . S
H3188 C3203 0.930 . S
C3189 H3177 0.930 . S
C3189 C3190 1.399 . S
C3189 C3194 1.399 . S
C3190 C3189 1.399 . S
C3190 C3191 1.376 . S
C3191 H3178 0.930 . S
C3191 C3190 1.376 . S
C3191 C3192 1.388 . S
C3192 H3179 0.930 . S
C3192 C3191 1.388 . S
C3192 C3193 1.390 . S
C3193 C3192 1.390 . S
C3193 C3194 1.394 . S
C3193 C3199 1.465 . S
C3194 C3189 1.399 . S
C3194 C3193 1.394 . S
C3194 C3195 1.516 . S
C3195 C3194 1.516 . S
C3195 C3196 1.502 . S
C3195 C3197 1.561 . S
C3195 C3198 1.526 . S
C3196 H3180 0.959 . S
C3196 H3181 0.959 . S
C3196 H3182 0.961 . S
C3196 C3195 1.502 . S
C3197 H3183 0.960 . S
C3197 H3184 0.961 . S
C3197 H3185 0.959 . S
C3197 C3195 1.561 . S
C3198 C3195 1.526 . S
C3198 C3199 1.396 . S
C3198 C3203 1.390 . S
C3199 C3193 1.465 . S
C3199 C3198 1.396 . S
C3199 C3200 1.399 . S
C3200 H3186 0.929 . S
C3200 C3199 1.399 . S
C3200 C3201 1.385 . S
C3201 H3187 0.931 . S
C3201 C3200 1.385 . S
C3201 C3202 1.389 . S
C3202 C3201 1.389 . S
C3202 C3203 1.387 . S
C3203 H3188 0.930 . S
C3203 C3198 1.390 . S
C3203 C3202 1.387 . S
H3204 C3216 0.930 . S
H3205 C3218 0.930 . S
H3206 C3219 0.930 . S
H3207 C3223 0.959 . S
H3208 C3223 0.959 . S
H3209 C3223 0.961 . S
H3210 C3224 0.960 . S
H3211 C3224 0.961 . S
H3212 C3224 0.959 . S
H3213 C3227 0.929 . S
H3214 C3228 0.931 . S
H3215 C3230 0.930 . S
C3216 H3204 0.930 . S
C3216 C3217 1.399 . S
C3216 C3221 1.399 . S
C3217 C3216 1.399 . S
C3217 C3218 1.376 . S
C3218 H3205 0.930 . S
C3218 C3217 1.376 . S
C3218 C3219 1.388 . S
C3219 H3206 0.930 . S
C3219 C3218 1.388 . S
C3219 C3220 1.390 . S
C3220 C3219 1.390 . S
C3220 C3221 1.394 . S
C3220 C3226 1.465 . S
C3221 C3216 1.399 . S
C3221 C3220 1.394 . S
C3221 C3222 1.516 . S
C3222 C3221 1.516 . S
C3222 C3223 1.502 . S
C3222 C3224 1.561 . S
C3222 C3225 1.526 . S
C3223 H3207 0.959 . S
C3223 H3208 0.959 . S
C3223 H3209 0.961 . S
C3223 C3222 1.502 . S
C3224 H3210 0.960 . S
C3224 H3211 0.961 . S
C3224 H3212 0.959 . S
C3224 C3222 1.561 . S
C3225 C3222 1.526 . S
C3225 C3226 1.396 . S
C3225 C3230 1.390 . S
C3226 C3220 1.465 . S
C3226 C3225 1.396 . S
C3226 C3227 1.399 . S
C3227 H3213 0.929 . S
C3227 C3226 1.399 . S
C3227 C3228 1.385 . S
C3228 H3214 0.931 . S
C3228 C3227 1.385 . S
C3228 C3229 1.389 . S
C3229 C3228 1.389 . S
C3229 C3230 1.387 . S
C3230 H3215 0.930 . S
C3230 C3225 1.390 . S
C3230 C3229 1.387 . S
H3231 C3243 0.930 . S
H3232 C3245 0.930 . S
H3233 C3246 0.930 . S
H3234 C3250 0.959 . S
H3235 C3250 0.959 . S
H3236 C3250 0.961 . S
H3237 C3251 0.960 . S
H3238 C3251 0.961 . S
H3239 C3251 0.959 . S
H3240 C3254 0.929 . S
H3241 C3255 0.931 . S
H3242 C3257 0.930 . S
C3243 H3231 0.930 . S
C3243 C3244 1.399 . S
C3243 C3248 1.399 . S
C3244 C3243 1.399 . S
C3244 C3245 1.376 . S
C3245 H3232 0.930 . S
C3245 C3244 1.376 . S
C3245 C3246 1.388 . S
C3246 H3233 0.930 . S
C3246 C3245 1.388 . S
C3246 C3247 1.390 . S
C3247 C3246 1.390 . S
C3247 C3248 1.394 . S
C3247 C3253 1.465 . S
C3248 C3243 1.399 . S
C3248 C3247 1.394 . S
C3248 C3249 1.516 . S
C3249 C3248 1.516 . S
C3249 C3250 1.502 . S
C3249 C3251 1.561 . S
C3249 C3252 1.526 . S
C3250 H3234 0.959 . S
C3250 H3235 0.959 . S
C3250 H3236 0.961 . S
C3250 C3249 1.502 . S
C3251 H3237 0.960 . S
C3251 H3238 0.961 . S
C3251 H3239 0.959 . S
C3251 C3249 1.561 . S
C3252 C3249 1.526 . S
C3252 C3253 1.396 . S
C3252 C3257 1.390 . S
C3253 C3247 1.465 . S
C3253 C3252 1.396 . S
C3253 C3254 1.399 . S
C3254 H3240 0.929 . S
C3254 C3253 1.399 . S
C3254 C3255 1.385 . S
C3255 H3241 0.931 . S
C3255 C3254 1.385 . S
C3255 C3256 1.389 . S
C3256 C3255 1.389 . S
C3256 C3257 1.387 . S
C3257 H3242 0.930 . S
C3257 C3252 1.390 . S
C3257 C3256 1.387 . S
H3258 C3270 0.930 . S
H3259 C3272 0.930 . S
H3260 C3273 0.930 . S
H3261 C3277 0.959 . S
H3262 C3277 0.959 . S
H3263 C3277 0.961 . S
H3264 C3278 0.960 . S
H3265 C3278 0.961 . S
H3266 C3278 0.959 . S
H3267 C3281 0.929 . S
H3268 C3282 0.931 . S
H3269 C3284 0.930 . S
C3270 H3258 0.930 . S
C3270 C3271 1.399 . S
C3270 C3275 1.399 1_455 S
C3271 C3270 1.399 . S
C3271 C3272 1.376 . S
C3272 H3259 0.930 . S
C3272 C3271 1.376 . S
C3272 C3273 1.388 . S
C3273 H3260 0.930 . S
C3273 C3272 1.388 . S
C3273 C3274 1.396 . S
C3274 C3273 1.396 . S
C3274 C3275 1.393 1_455 S
C3274 C3280 1.459 1_455 S
C3275 C3270 1.399 1_655 S
C3275 C3274 1.393 1_655 S
C3275 C3276 1.516 . S
C3276 C3275 1.516 . S
C3276 C3277 1.502 . S
C3276 C3278 1.561 . S
C3276 C3279 1.526 . S
C3277 H3261 0.959 . S
C3277 H3262 0.959 . S
C3277 H3263 0.961 . S
C3277 C3276 1.502 . S
C3278 H3264 0.960 . S
C3278 H3265 0.961 . S
C3278 H3266 0.959 . S
C3278 C3276 1.561 . S
C3279 C3276 1.526 . S
C3279 C3280 1.396 . S
C3279 C3284 1.390 . S
C3280 C3274 1.459 1_655 S
C3280 C3279 1.396 . S
C3280 C3281 1.399 . S
C3281 H3267 0.929 . S
C3281 C3280 1.399 . S
C3281 C3282 1.385 . S
C3282 H3268 0.931 . S
C3282 C3281 1.385 . S
C3282 C3283 1.389 . S
C3283 C3282 1.389 . S
C3283 C3284 1.387 . S
C3284 H3269 0.930 . S
C3284 C3279 1.390 . S
C3284 C3283 1.387 . S
H3285 C3297 0.930 . S
H3286 C3299 0.930 . S
H3287 C3300 0.930 . S
H3288 C3304 0.959 . S
H3289 C3304 0.959 . S
H3290 C3304 0.961 . S
H3291 C3305 0.960 . S
H3292 C3305 0.961 . S
H3293 C3305 0.959 . S
H3294 C3308 0.929 . S
H3295 C3309 0.931 . S
H3296 C3311 0.930 . S
C3297 H3285 0.930 . S
C3297 C3298 1.399 . S
C3297 C3302 1.399 . S
C3298 C3297 1.399 . S
C3298 C3299 1.376 . S
C3299 H3286 0.930 . S
C3299 C3298 1.376 . S
C3299 C3300 1.388 . S
C3300 H3287 0.930 . S
C3300 C3299 1.388 . S
C3300 C3301 1.390 . S
C3301 C3300 1.390 . S
C3301 C3302 1.394 . S
C3301 C3307 1.465 . S
C3302 C3297 1.399 . S
C3302 C3301 1.394 . S
C3302 C3303 1.516 . S
C3303 C3302 1.516 . S
C3303 C3304 1.502 . S
C3303 C3305 1.561 . S
C3303 C3306 1.526 . S
C3304 H3288 0.959 . S
C3304 H3289 0.959 . S
C3304 H3290 0.961 . S
C3304 C3303 1.502 . S
C3305 H3291 0.960 . S
C3305 H3292 0.961 . S
C3305 H3293 0.959 . S
C3305 C3303 1.561 . S
C3306 C3303 1.526 . S
C3306 C3307 1.396 . S
C3306 C3311 1.390 . S
C3307 C3301 1.465 . S
C3307 C3306 1.396 . S
C3307 C3308 1.399 . S
C3308 H3294 0.929 . S
C3308 C3307 1.399 . S
C3308 C3309 1.385 . S
C3309 H3295 0.931 . S
C3309 C3308 1.385 . S
C3309 C3310 1.389 . S
C3310 C3309 1.389 . S
C3310 C3311 1.387 . S
C3311 H3296 0.930 . S
C3311 C3306 1.390 . S
C3311 C3310 1.387 . S
H3312 C3324 0.930 . S
H3313 C3326 0.930 . S
H3314 C3327 0.930 . S
H3315 C3331 0.959 . S
H3316 C3331 0.959 . S
H3317 C3331 0.961 . S
H3318 C3332 0.960 . S
H3319 C3332 0.961 . S
H3320 C3332 0.959 . S
H3321 C3335 0.929 . S
H3322 C3336 0.931 . S
H3323 C3338 0.930 . S
C3324 H3312 0.930 . S
C3324 C3325 1.399 . S
C3324 C3329 1.399 . S
C3325 C3324 1.399 . S
C3325 C3326 1.376 . S
C3326 H3313 0.930 . S
C3326 C3325 1.376 . S
C3326 C3327 1.388 . S
C3327 H3314 0.930 . S
C3327 C3326 1.388 . S
C3327 C3328 1.390 . S
C3328 C3327 1.390 . S
C3328 C3329 1.394 . S
C3328 C3334 1.465 . S
C3329 C3324 1.399 . S
C3329 C3328 1.394 . S
C3329 C3330 1.516 . S
C3330 C3329 1.516 . S
C3330 C3331 1.502 . S
C3330 C3332 1.561 . S
C3330 C3333 1.526 . S
C3331 H3315 0.959 . S
C3331 H3316 0.959 . S
C3331 H3317 0.961 . S
C3331 C3330 1.502 . S
C3332 H3318 0.960 . S
C3332 H3319 0.961 . S
C3332 H3320 0.959 . S
C3332 C3330 1.561 . S
C3333 C3330 1.526 . S
C3333 C3334 1.396 . S
C3333 C3338 1.390 . S
C3334 C3328 1.465 . S
C3334 C3333 1.396 . S
C3334 C3335 1.399 . S
C3335 H3321 0.929 . S
C3335 C3334 1.399 . S
C3335 C3336 1.385 . S
C3336 H3322 0.931 . S
C3336 C3335 1.385 . S
C3336 C3337 1.389 . S
C3337 C3336 1.389 . S
C3337 C3338 1.387 . S
C3338 H3323 0.930 . S
C3338 C3333 1.390 . S
C3338 C3337 1.387 . S
H3339 C3351 0.930 . S
H3340 C3353 0.930 . S
H3341 C3354 0.930 . S
H3342 C3358 0.959 . S
H3343 C3358 0.959 . S
H3344 C3358 0.961 . S
H3345 C3359 0.960 . S
H3346 C3359 0.961 . S
H3347 C3359 0.959 . S
H3348 C3362 0.929 . S
H3349 C3363 0.931 . S
H3350 C3365 0.930 . S
C3351 H3339 0.930 . S
C3351 C3352 1.399 . S
C3351 C3356 1.399 1_565 S
C3352 C3351 1.399 . S
C3352 C3353 1.376 . S
C3353 H3340 0.930 . S
C3353 C3352 1.376 . S
C3353 C3354 1.388 1_565 S
C3354 H3341 0.930 . S
C3354 C3353 1.388 1_545 S
C3354 C3355 1.390 . S
C3355 C3354 1.390 . S
C3355 C3356 1.394 . S
C3355 C3361 1.465 . S
C3356 C3351 1.399 1_545 S
C3356 C3355 1.394 . S
C3356 C3357 1.516 . S
C3357 C3356 1.516 . S
C3357 C3358 1.502 . S
C3357 C3359 1.561 . S
C3357 C3360 1.526 . S
C3358 H3342 0.959 . S
C3358 H3343 0.959 . S
C3358 H3344 0.961 . S
C3358 C3357 1.502 . S
C3359 H3345 0.960 . S
C3359 H3346 0.961 . S
C3359 H3347 0.959 . S
C3359 C3357 1.561 . S
C3360 C3357 1.526 . S
C3360 C3361 1.396 . S
C3360 C3365 1.390 . S
C3361 C3355 1.465 . S
C3361 C3360 1.396 . S
C3361 C3362 1.399 . S
C3362 H3348 0.929 . S
C3362 C3361 1.399 . S
C3362 C3363 1.385 . S
C3363 H3349 0.931 . S
C3363 C3362 1.385 . S
C3363 C3364 1.389 . S
C3364 C3363 1.389 . S
C3364 C3365 1.387 . S
C3365 H3350 0.930 . S
C3365 C3360 1.390 . S
C3365 C3364 1.387 . S
H3366 C3378 0.930 . S
H3367 C3380 0.930 . S
H3368 C3381 0.930 . S
H3369 C3385 0.959 . S
H3370 C3385 0.959 . S
H3371 C3385 0.961 . S
H3372 C3386 0.960 . S
H3373 C3386 0.961 . S
H3374 C3386 0.959 . S
H3375 C3389 0.929 . S
H3376 C3390 0.931 . S
H3377 C3392 0.930 . S
C3378 H3366 0.930 . S
C3378 C3379 1.399 . S
C3378 C3383 1.399 . S
C3379 C3378 1.399 . S
C3379 C3380 1.376 . S
C3380 H3367 0.930 . S
C3380 C3379 1.376 . S
C3380 C3381 1.388 . S
C3381 H3368 0.930 . S
C3381 C3380 1.388 . S
C3381 C3382 1.390 . S
C3382 C3381 1.390 . S
C3382 C3383 1.394 . S
C3382 C3388 1.465 . S
C3383 C3378 1.399 . S
C3383 C3382 1.394 . S
C3383 C3384 1.516 . S
C3384 C3383 1.516 . S
C3384 C3385 1.502 . S
C3384 C3386 1.561 . S
C3384 C3387 1.526 . S
C3385 H3369 0.959 . S
C3385 H3370 0.959 . S
C3385 H3371 0.961 . S
C3385 C3384 1.502 . S
C3386 H3372 0.960 . S
C3386 H3373 0.961 . S
C3386 H3374 0.959 . S
C3386 C3384 1.561 . S
C3387 C3384 1.526 . S
C3387 C3388 1.396 . S
C3387 C3392 1.390 . S
C3388 C3382 1.465 . S
C3388 C3387 1.396 . S
C3388 C3389 1.399 . S
C3389 H3375 0.929 . S
C3389 C3388 1.399 . S
C3389 C3390 1.385 . S
C3390 H3376 0.931 . S
C3390 C3389 1.385 . S
C3390 C3391 1.389 . S
C3391 C3390 1.389 . S
C3391 C3392 1.387 . S
C3392 H3377 0.930 . S
C3392 C3387 1.390 . S
C3392 C3391 1.387 . S
H3393 C3405 0.930 . S
H3394 C3407 0.930 . S
H3395 C3408 0.930 1_545 S
H3396 C3412 0.959 . S
H3397 C3412 0.959 1_545 S
H3398 C3412 0.961 . S
H3399 C3413 0.960 . S
H3400 C3413 0.961 . S
H3401 C3413 0.959 . S
H3402 C3416 0.929 . S
H3403 C3417 0.931 . S
H3404 C3419 0.930 . S
C3405 H3393 0.930 . S
C3405 C3406 1.399 . S
C3405 C3410 1.399 . S
C3406 C3405 1.399 . S
C3406 C3407 1.376 . S
C3407 H3394 0.930 . S
C3407 C3406 1.376 . S
C3407 C3408 1.388 . S
C3408 H3395 0.930 1_565 S
C3408 C3407 1.388 . S
C3408 C3409 1.390 1_565 S
C3409 C3408 1.390 1_545 S
C3409 C3410 1.394 1_545 S
C3409 C3415 1.465 . S
C3410 C3405 1.399 . S
C3410 C3409 1.394 1_565 S
C3410 C3411 1.516 1_565 S
C3411 C3410 1.516 1_545 S
C3411 C3412 1.502 1_545 S
C3411 C3413 1.561 . S
C3411 C3414 1.526 . S
C3412 H3396 0.959 . S
C3412 H3397 0.959 1_565 S
C3412 H3398 0.961 . S
C3412 C3411 1.502 1_565 S
C3413 H3399 0.960 . S
C3413 H3400 0.961 . S
C3413 H3401 0.959 . S
C3413 C3411 1.561 . S
C3414 C3411 1.526 . S
C3414 C3415 1.396 . S
C3414 C3419 1.390 . S
C3415 C3409 1.465 . S
C3415 C3414 1.396 . S
C3415 C3416 1.399 . S
C3416 H3402 0.929 . S
C3416 C3415 1.399 . S
C3416 C3417 1.385 . S
C3417 H3403 0.931 . S
C3417 C3416 1.385 . S
C3417 C3418 1.389 . S
C3418 C3417 1.389 . S
C3418 C3419 1.387 . S
C3419 H3404 0.930 . S
C3419 C3414 1.390 . S
C3419 C3418 1.387 . S
H3420 C3432 0.930 . S
H3421 C3434 0.930 . S
H3422 C3435 0.930 . S
H3423 C3439 0.959 . S
H3424 C3439 0.959 . S
H3425 C3439 0.961 . S
H3426 C3440 0.960 . S
H3427 C3440 0.961 . S
H3428 C3440 0.959 . S
H3429 C3443 0.929 . S
H3430 C3444 0.931 . S
H3431 C3446 0.930 . S
C3432 H3420 0.930 . S
C3432 C3433 1.399 . S
C3432 C3437 1.399 . S
C3433 C3432 1.399 . S
C3433 C3434 1.376 . S
C3434 H3421 0.930 . S
C3434 C3433 1.376 . S
C3434 C3435 1.388 . S
C3435 H3422 0.930 . S
C3435 C3434 1.388 . S
C3435 C3436 1.390 . S
C3436 C3435 1.390 . S
C3436 C3437 1.394 . S
C3436 C3442 1.465 . S
C3437 C3432 1.399 . S
C3437 C3436 1.394 . S
C3437 C3438 1.516 . S
C3438 C3437 1.516 . S
C3438 C3439 1.502 . S
C3438 C3440 1.561 . S
C3438 C3441 1.526 . S
C3439 H3423 0.959 . S
C3439 H3424 0.959 . S
C3439 H3425 0.961 . S
C3439 C3438 1.502 . S
C3440 H3426 0.960 . S
C3440 H3427 0.961 . S
C3440 H3428 0.959 . S
C3440 C3438 1.561 . S
C3441 C3438 1.526 . S
C3441 C3442 1.396 . S
C3441 C3446 1.390 . S
C3442 C3436 1.465 . S
C3442 C3441 1.396 . S
C3442 C3443 1.399 . S
C3443 H3429 0.929 . S
C3443 C3442 1.399 . S
C3443 C3444 1.385 . S
C3444 H3430 0.931 . S
C3444 C3443 1.385 . S
C3444 C3445 1.389 . S
C3445 C3444 1.389 . S
C3445 C3446 1.387 . S
C3446 H3431 0.930 . S
C3446 C3441 1.390 . S
C3446 C3445 1.387 . S
H3447 C3459 0.930 . S
H3448 C3461 0.930 . S
H3449 C3462 0.930 . S
H3450 C3466 0.959 . S
H3451 C3466 0.959 . S
H3452 C3466 0.961 . S
H3453 C3467 0.960 . S
H3454 C3467 0.961 . S
H3455 C3467 0.959 . S
H3456 C3470 0.929 . S
H3457 C3471 0.931 . S
H3458 C3473 0.930 . S
C3459 H3447 0.930 . S
C3459 C3460 1.399 . S
C3459 C3464 1.399 . S
C3460 C3459 1.399 . S
C3460 C3461 1.376 . S
C3461 H3448 0.930 . S
C3461 C3460 1.376 . S
C3461 C3462 1.388 . S
C3462 H3449 0.930 . S
C3462 C3461 1.388 . S
C3462 C3463 1.390 . S
C3463 C3462 1.390 . S
C3463 C3464 1.394 . S
C3463 C3469 1.465 . S
C3464 C3459 1.399 . S
C3464 C3463 1.394 . S
C3464 C3465 1.516 . S
C3465 C3464 1.516 . S
C3465 C3466 1.502 . S
C3465 C3467 1.561 . S
C3465 C3468 1.526 . S
C3466 H3450 0.959 . S
C3466 H3451 0.959 . S
C3466 H3452 0.961 . S
C3466 C3465 1.502 . S
C3467 H3453 0.960 . S
C3467 H3454 0.961 . S
C3467 H3455 0.959 . S
C3467 C3465 1.561 . S
C3468 C3465 1.526 . S
C3468 C3469 1.396 . S
C3468 C3473 1.390 . S
C3469 C3463 1.465 . S
C3469 C3468 1.396 . S
C3469 C3470 1.399 . S
C3470 H3456 0.929 . S
C3470 C3469 1.399 . S
C3470 C3471 1.385 . S
C3471 H3457 0.931 . S
C3471 C3470 1.385 . S
C3471 C3472 1.389 . S
C3472 C3471 1.389 . S
C3472 C3473 1.387 . S
C3473 H3458 0.930 . S
C3473 C3468 1.390 . S
C3473 C3472 1.387 . S
H3474 C3486 0.930 . S
H3475 C3488 0.930 . S
H3476 C3489 0.930 . S
H3477 C3493 0.959 . S
H3478 C3493 0.959 . S
H3479 C3493 0.961 . S
H3480 C3494 0.960 . S
H3481 C3494 0.961 . S
H3482 C3494 0.959 . S
H3483 C3497 0.929 . S
H3484 C3498 0.931 . S
H3485 C3500 0.930 . S
C3486 H3474 0.930 . S
C3486 C3487 1.399 . S
C3486 C3491 1.399 . S
C3487 C3486 1.399 . S
C3487 C3488 1.376 . S
C3488 H3475 0.930 . S
C3488 C3487 1.376 . S
C3488 C3489 1.388 . S
C3489 H3476 0.930 . S
C3489 C3488 1.388 . S
C3489 C3490 1.390 . S
C3490 C3489 1.390 . S
C3490 C3491 1.394 . S
C3490 C3496 1.465 . S
C3491 C3486 1.399 . S
C3491 C3490 1.394 . S
C3491 C3492 1.516 . S
C3492 C3491 1.516 . S
C3492 C3493 1.502 . S
C3492 C3494 1.561 . S
C3492 C3495 1.526 . S
C3493 H3477 0.959 . S
C3493 H3478 0.959 . S
C3493 H3479 0.961 . S
C3493 C3492 1.502 . S
C3494 H3480 0.960 . S
C3494 H3481 0.961 . S
C3494 H3482 0.959 . S
C3494 C3492 1.561 . S
C3495 C3492 1.526 . S
C3495 C3496 1.396 . S
C3495 C3500 1.390 . S
C3496 C3490 1.465 . S
C3496 C3495 1.396 . S
C3496 C3497 1.399 . S
C3497 H3483 0.929 . S
C3497 C3496 1.399 . S
C3497 C3498 1.385 . S
C3498 H3484 0.931 . S
C3498 C3497 1.385 . S
C3498 C3499 1.389 . S
C3499 C3498 1.389 . S
C3499 C3500 1.387 . S
C3500 H3485 0.930 . S
C3500 C3495 1.390 . S
C3500 C3499 1.387 . S
H3501 C3513 0.930 . S
H3502 C3515 0.930 . S
H3503 C3516 0.930 . S
H3504 C3520 0.959 . S
H3505 C3520 0.959 . S
H3506 C3520 0.961 . S
H3507 C3521 0.960 . S
H3508 C3521 0.961 . S
H3509 C3521 0.959 . S
H3510 C3524 0.929 . S
H3511 C3525 0.931 . S
H3512 C3527 0.930 . S
C3513 H3501 0.930 . S
C3513 C3514 1.399 . S
C3513 C3518 1.399 . S
C3514 C3513 1.399 . S
C3514 C3515 1.376 . S
C3515 H3502 0.930 . S
C3515 C3514 1.376 . S
C3515 C3516 1.388 . S
C3516 H3503 0.930 . S
C3516 C3515 1.388 . S
C3516 C3517 1.390 . S
C3517 C3516 1.390 . S
C3517 C3518 1.394 . S
C3517 C3523 1.465 . S
C3518 C3513 1.399 . S
C3518 C3517 1.394 . S
C3518 C3519 1.516 . S
C3519 C3518 1.516 . S
C3519 C3520 1.502 . S
C3519 C3521 1.561 . S
C3519 C3522 1.526 . S
C3520 H3504 0.959 . S
C3520 H3505 0.959 . S
C3520 H3506 0.961 . S
C3520 C3519 1.502 . S
C3521 H3507 0.960 . S
C3521 H3508 0.961 . S
C3521 H3509 0.959 . S
C3521 C3519 1.561 . S
C3522 C3519 1.526 . S
C3522 C3523 1.396 . S
C3522 C3527 1.390 . S
C3523 C3517 1.465 . S
C3523 C3522 1.396 . S
C3523 C3524 1.399 . S
C3524 H3510 0.929 . S
C3524 C3523 1.399 . S
C3524 C3525 1.385 . S
C3525 H3511 0.931 . S
C3525 C3524 1.385 . S
C3525 C3526 1.389 . S
C3526 C3525 1.389 . S
C3526 C3527 1.387 . S
C3527 H3512 0.930 . S
C3527 C3522 1.390 . S
C3527 C3526 1.387 . S
H3528 C3540 0.930 . S
H3529 C3542 0.930 . S
H3530 C3543 0.930 . S
H3531 C3547 0.959 . S
H3532 C3547 0.959 . S
H3533 C3547 0.961 . S
H3534 C3548 0.960 . S
H3535 C3548 0.961 . S
H3536 C3548 0.959 . S
H3537 C3551 0.929 . S
H3538 C3552 0.931 . S
H3539 C3554 0.930 . S
C3540 H3528 0.930 . S
C3540 C3541 1.399 . S
C3540 C3545 1.399 . S
C3541 C3540 1.399 . S
C3541 C3542 1.376 . S
C3542 H3529 0.930 . S
C3542 C3541 1.376 . S
C3542 C3543 1.388 . S
C3543 H3530 0.930 . S
C3543 C3542 1.388 . S
C3543 C3544 1.390 . S
C3544 C3543 1.390 . S
C3544 C3545 1.394 . S
C3544 C3550 1.465 . S
C3545 C3540 1.399 . S
C3545 C3544 1.394 . S
C3545 C3546 1.516 . S
C3546 C3545 1.516 . S
C3546 C3547 1.502 . S
C3546 C3548 1.561 . S
C3546 C3549 1.526 . S
C3547 H3531 0.959 . S
C3547 H3532 0.959 . S
C3547 H3533 0.961 . S
C3547 C3546 1.502 . S
C3548 H3534 0.960 . S
C3548 H3535 0.961 . S
C3548 H3536 0.959 . S
C3548 C3546 1.561 . S
C3549 C3546 1.526 . S
C3549 C3550 1.396 . S
C3549 C3554 1.390 . S
C3550 C3544 1.465 . S
C3550 C3549 1.396 . S
C3550 C3551 1.399 . S
C3551 H3537 0.929 . S
C3551 C3550 1.399 . S
C3551 C3552 1.385 . S
C3552 H3538 0.931 . S
C3552 C3551 1.385 . S
C3552 C3553 1.389 . S
C3553 C3552 1.389 . S
C3553 C3554 1.387 . S
C3554 H3539 0.930 . S
C3554 C3549 1.390 . S
C3554 C3553 1.387 . S
H3555 C3567 0.930 . S
H3556 C3569 0.930 . S
H3557 C3570 0.930 . S
H3558 C3574 0.959 . S
H3559 C3574 0.959 . S
H3560 C3574 0.961 . S
H3561 C3575 0.960 . S
H3562 C3575 0.961 . S
H3563 C3575 0.959 . S
H3564 C3578 0.929 . S
H3565 C3579 0.931 . S
H3566 C3581 0.930 . S
C3567 H3555 0.930 . S
C3567 C3568 1.399 . S
C3567 C3572 1.399 . S
C3568 C3567 1.399 . S
C3568 C3569 1.376 . S
C3569 H3556 0.930 . S
C3569 C3568 1.376 . S
C3569 C3570 1.388 . S
C3570 H3557 0.930 . S
C3570 C3569 1.388 . S
C3570 C3571 1.390 . S
C3571 C3570 1.390 . S
C3571 C3572 1.394 . S
C3571 C3577 1.465 . S
C3572 C3567 1.399 . S
C3572 C3571 1.394 . S
C3572 C3573 1.516 . S
C3573 C3572 1.516 . S
C3573 C3574 1.502 . S
C3573 C3575 1.561 . S
C3573 C3576 1.526 . S
C3574 H3558 0.959 . S
C3574 H3559 0.959 . S
C3574 H3560 0.961 . S
C3574 C3573 1.502 . S
C3575 H3561 0.960 . S
C3575 H3562 0.961 . S
C3575 H3563 0.959 . S
C3575 C3573 1.561 . S
C3576 C3573 1.526 . S
C3576 C3577 1.396 . S
C3576 C3581 1.390 . S
C3577 C3571 1.465 . S
C3577 C3576 1.396 . S
C3577 C3578 1.399 . S
C3578 H3564 0.929 . S
C3578 C3577 1.399 . S
C3578 C3579 1.385 . S
C3579 H3565 0.931 . S
C3579 C3578 1.385 . S
C3579 C3580 1.389 . S
C3580 C3579 1.389 . S
C3580 C3581 1.387 . S
C3581 H3566 0.930 . S
C3581 C3576 1.390 . S
C3581 C3580 1.387 . S
H3582 C3594 0.930 . S
H3583 C3596 0.930 . S
H3584 C3597 0.930 . S
H3585 C3601 0.959 . S
H3586 C3601 0.959 . S
H3587 C3601 0.961 . S
H3588 C3602 0.960 . S
H3589 C3602 0.961 . S
H3590 C3602 0.959 . S
H3591 C3605 0.929 . S
H3592 C3606 0.931 . S
H3593 C3608 0.930 . S
C3594 H3582 0.930 . S
C3594 C3595 1.399 . S
C3594 C3599 1.399 . S
C3595 C3594 1.399 . S
C3595 C3596 1.376 . S
C3596 H3583 0.930 . S
C3596 C3595 1.376 . S
C3596 C3597 1.388 . S
C3597 H3584 0.930 . S
C3597 C3596 1.388 . S
C3597 C3598 1.390 . S
C3598 C3597 1.390 . S
C3598 C3599 1.394 . S
C3598 C3604 1.465 . S
C3599 C3594 1.399 . S
C3599 C3598 1.394 . S
C3599 C3600 1.516 . S
C3600 C3599 1.516 . S
C3600 C3601 1.502 . S
C3600 C3602 1.561 . S
C3600 C3603 1.526 . S
C3601 H3585 0.959 . S
C3601 H3586 0.959 . S
C3601 H3587 0.961 . S
C3601 C3600 1.502 . S
C3602 H3588 0.960 . S
C3602 H3589 0.961 . S
C3602 H3590 0.959 . S
C3602 C3600 1.561 . S
C3603 C3600 1.526 . S
C3603 C3604 1.396 . S
C3603 C3608 1.390 1_554 S
C3604 C3598 1.465 . S
C3604 C3603 1.396 . S
C3604 C3605 1.399 1_554 S
C3605 H3591 0.929 . S
C3605 C3604 1.399 1_556 S
C3605 C3606 1.385 . S
C3606 H3592 0.931 . S
C3606 C3605 1.385 . S
C3606 C3607 1.389 . S
C3607 C3606 1.389 . S
C3607 C3608 1.387 . S
C3608 H3593 0.930 . S
C3608 C3603 1.390 1_556 S
C3608 C3607 1.387 . S
H3609 C3621 0.930 . S
H3610 C3623 0.930 . S
H3611 C3624 0.930 . S
H3612 C3628 0.959 . S
H3613 C3628 0.959 . S
H3614 C3628 0.961 . S
H3615 C3629 0.960 . S
H3616 C3629 0.961 . S
H3617 C3629 0.959 . S
H3618 C3632 0.929 . S
H3619 C3633 0.931 . S
H3620 C3635 0.930 . S
C3621 H3609 0.930 . S
C3621 C3622 1.399 . S
C3621 C3626 1.399 . S
C3622 C3621 1.399 . S
C3622 C3623 1.376 . S
C3623 H3610 0.930 . S
C3623 C3622 1.376 . S
C3623 C3624 1.388 . S
C3624 H3611 0.930 . S
C3624 C3623 1.388 . S
C3624 C3625 1.390 . S
C3625 C3624 1.390 . S
C3625 C3626 1.394 . S
C3625 C3631 1.465 . S
C3626 C3621 1.399 . S
C3626 C3625 1.394 . S
C3626 C3627 1.516 . S
C3627 C3626 1.516 . S
C3627 C3628 1.502 . S
C3627 C3629 1.561 . S
C3627 C3630 1.526 . S
C3628 H3612 0.959 . S
C3628 H3613 0.959 . S
C3628 H3614 0.961 . S
C3628 C3627 1.502 . S
C3629 H3615 0.960 . S
C3629 H3616 0.961 . S
C3629 H3617 0.959 . S
C3629 C3627 1.561 . S
C3630 C3627 1.526 . S
C3630 C3631 1.396 . S
C3630 C3635 1.390 . S
C3631 C3625 1.465 . S
C3631 C3630 1.396 . S
C3631 C3632 1.399 . S
C3632 H3618 0.929 . S
C3632 C3631 1.399 . S
C3632 C3633 1.385 . S
C3633 H3619 0.931 . S
C3633 C3632 1.385 . S
C3633 C3634 1.389 . S
C3634 C3633 1.389 . S
C3634 C3635 1.387 . S
C3635 H3620 0.930 . S
C3635 C3630 1.390 . S
C3635 C3634 1.387 . S
H3636 C3648 0.930 . S
H3637 C3650 0.930 . S
H3638 C3651 0.930 . S
H3639 C3655 0.959 1_556 S
H3640 C3655 0.959 . S
H3641 C3655 0.961 1_556 S
H3642 C3656 0.960 . S
H3643 C3656 0.961 . S
H3644 C3656 0.959 . S
H3645 C3659 0.929 . S
H3646 C3660 0.931 . S
H3647 C3662 0.930 . S
C3648 H3636 0.930 . S
C3648 C3649 1.399 . S
C3648 C3653 1.399 . S
C3649 C3648 1.399 . S
C3649 C3650 1.376 . S
C3650 H3637 0.930 . S
C3650 C3649 1.376 . S
C3650 C3651 1.388 . S
C3651 H3638 0.930 . S
C3651 C3650 1.388 . S
C3651 C3652 1.390 . S
C3652 C3651 1.390 . S
C3652 C3653 1.394 . S
C3652 C3658 1.465 1_556 S
C3653 C3648 1.399 . S
C3653 C3652 1.394 . S
C3653 C3654 1.516 1_556 S
C3654 C3653 1.516 1_554 S
C3654 C3655 1.502 . S
C3654 C3656 1.561 . S
C3654 C3657 1.526 . S
C3655 H3639 0.959 1_554 S
C3655 H3640 0.959 . S
C3655 H3641 0.961 1_554 S
C3655 C3654 1.502 . S
C3656 H3642 0.960 . S
C3656 H3643 0.961 . S
C3656 H3644 0.959 . S
C3656 C3654 1.561 . S
C3657 C3654 1.526 . S
C3657 C3658 1.396 . S
C3657 C3662 1.390 . S
C3658 C3652 1.465 1_554 S
C3658 C3657 1.396 . S
C3658 C3659 1.399 . S
C3659 H3645 0.929 . S
C3659 C3658 1.399 . S
C3659 C3660 1.385 . S
C3660 H3646 0.931 . S
C3660 C3659 1.385 . S
C3660 C3661 1.389 . S
C3661 C3660 1.389 . S
C3661 C3662 1.387 . S
C3662 H3647 0.930 . S
C3662 C3657 1.390 . S
C3662 C3661 1.387 . S
H3663 C3675 0.930 . S
H3664 C3677 0.930 . S
H3665 C3678 0.930 . S
H3666 C3682 0.959 . S
H3667 C3682 0.959 . S
H3668 C3682 0.961 . S
H3669 C3683 0.960 . S
H3670 C3683 0.961 . S
H3671 C3683 0.959 . S
H3672 C3686 0.929 . S
H3673 C3687 0.931 . S
H3674 C3689 0.930 . S
C3675 H3663 0.930 . S
C3675 C3676 1.399 . S
C3675 C3680 1.399 . S
C3676 C3675 1.399 . S
C3676 C3677 1.376 . S
C3677 H3664 0.930 . S
C3677 C3676 1.376 . S
C3677 C3678 1.388 . S
C3678 H3665 0.930 . S
C3678 C3677 1.388 . S
C3678 C3679 1.390 . S
C3679 C3678 1.390 . S
C3679 C3680 1.394 . S
C3679 C3685 1.465 . S
C3680 C3675 1.399 . S
C3680 C3679 1.394 . S
C3680 C3681 1.516 . S
C3681 C3680 1.516 . S
C3681 C3682 1.502 . S
C3681 C3683 1.561 . S
C3681 C3684 1.526 . S
C3682 H3666 0.959 . S
C3682 H3667 0.959 . S
C3682 H3668 0.961 . S
C3682 C3681 1.502 . S
C3683 H3669 0.960 . S
C3683 H3670 0.961 . S
C3683 H3671 0.959 . S
C3683 C3681 1.561 . S
C3684 C3681 1.526 . S
C3684 C3685 1.396 . S
C3684 C3689 1.390 . S
C3685 C3679 1.465 . S
C3685 C3684 1.396 . S
C3685 C3686 1.399 . S
C3686 H3672 0.929 . S
C3686 C3685 1.399 . S
C3686 C3687 1.385 . S
C3687 H3673 0.931 . S
C3687 C3686 1.385 . S
C3687 C3688 1.389 . S
C3688 C3687 1.389 . S
C3688 C3689 1.387 . S
C3689 H3674 0.930 . S
C3689 C3684 1.390 . S
C3689 C3688 1.387 . S
H3690 C3702 0.930 . S
H3691 C3704 0.930 . S
H3692 C3705 0.930 . S
H3693 C3709 0.959 . S
H3694 C3709 0.959 . S
H3695 C3709 0.961 . S
H3696 C3710 0.960 . S
H3697 C3710 0.961 . S
H3698 C3710 0.959 . S
H3699 C3713 0.929 . S
H3700 C3714 0.931 . S
H3701 C3716 0.930 . S
C3702 H3690 0.930 . S
C3702 C3703 1.399 . S
C3702 C3707 1.399 . S
C3703 C3702 1.399 . S
C3703 C3704 1.376 . S
C3704 H3691 0.930 . S
C3704 C3703 1.376 . S
C3704 C3705 1.388 . S
C3705 H3692 0.930 . S
C3705 C3704 1.388 . S
C3705 C3706 1.390 . S
C3706 C3705 1.390 . S
C3706 C3707 1.394 . S
C3706 C3712 1.465 . S
C3707 C3702 1.399 . S
C3707 C3706 1.394 . S
C3707 C3708 1.516 . S
C3708 C3707 1.516 . S
C3708 C3709 1.502 . S
C3708 C3710 1.561 . S
C3708 C3711 1.526 . S
C3709 H3693 0.959 . S
C3709 H3694 0.959 . S
C3709 H3695 0.961 . S
C3709 C3708 1.502 . S
C3710 H3696 0.960 . S
C3710 H3697 0.961 . S
C3710 H3698 0.959 . S
C3710 C3708 1.561 . S
C3711 C3708 1.526 . S
C3711 C3712 1.396 . S
C3711 C3716 1.390 . S
C3712 C3706 1.465 . S
C3712 C3711 1.396 . S
C3712 C3713 1.399 . S
C3713 H3699 0.929 . S
C3713 C3712 1.399 . S
C3713 C3714 1.385 . S
C3714 H3700 0.931 . S
C3714 C3713 1.385 . S
C3714 C3715 1.389 . S
C3715 C3714 1.389 . S
C3715 C3716 1.387 . S
C3716 H3701 0.930 . S
C3716 C3711 1.390 . S
C3716 C3715 1.387 . S
H3717 C3729 0.930 . S
H3718 C3731 0.930 . S
H3719 C3732 0.930 . S
H3720 C3736 0.959 . S
H3721 C3736 0.959 . S
H3722 C3736 0.961 . S
H3723 C3737 0.960 . S
H3724 C3737 0.961 . S
H3725 C3737 0.959 . S
H3726 C3740 0.929 . S
H3727 C3741 0.931 . S
H3728 C3743 0.930 . S
C3729 H3717 0.930 . S
C3729 C3730 1.399 . S
C3729 C3734 1.399 . S
C3730 C3729 1.399 . S
C3730 C3731 1.376 . S
C3731 H3718 0.930 . S
C3731 C3730 1.376 . S
C3731 C3732 1.388 . S
C3732 H3719 0.930 . S
C3732 C3731 1.388 . S
C3732 C3733 1.390 . S
C3733 C3732 1.390 . S
C3733 C3734 1.394 . S
C3733 C3739 1.465 . S
C3734 C3729 1.399 . S
C3734 C3733 1.394 . S
C3734 C3735 1.516 . S
C3735 C3734 1.516 . S
C3735 C3736 1.502 . S
C3735 C3737 1.561 . S
C3735 C3738 1.526 . S
C3736 H3720 0.959 . S
C3736 H3721 0.959 . S
C3736 H3722 0.961 . S
C3736 C3735 1.502 . S
C3737 H3723 0.960 . S
C3737 H3724 0.961 . S
C3737 H3725 0.959 . S
C3737 C3735 1.561 . S
C3738 C3735 1.526 . S
C3738 C3739 1.396 . S
C3738 C3743 1.390 . S
C3739 C3733 1.465 . S
C3739 C3738 1.396 . S
C3739 C3740 1.399 . S
C3740 H3726 0.929 . S
C3740 C3739 1.399 . S
C3740 C3741 1.385 . S
C3741 H3727 0.931 . S
C3741 C3740 1.385 . S
C3741 C3742 1.389 . S
C3742 C3741 1.389 . S
C3742 C3743 1.387 . S
C3743 H3728 0.930 . S
C3743 C3738 1.390 . S
C3743 C3742 1.387 . S
H3744 C3756 0.930 . S
H3745 C3758 0.930 . S
H3746 C3759 0.930 . S
H3747 C3763 0.959 . S
H3748 C3763 0.959 . S
H3749 C3763 0.961 . S
H3750 C3764 0.960 . S
H3751 C3764 0.961 . S
H3752 C3764 0.959 . S
H3753 C3767 0.929 . S
H3754 C3768 0.931 . S
H3755 C3770 0.930 . S
C3756 H3744 0.930 . S
C3756 C3757 1.399 . S
C3756 C3761 1.399 . S
C3757 C3756 1.399 . S
C3757 C3758 1.376 . S
C3758 H3745 0.930 . S
C3758 C3757 1.376 . S
C3758 C3759 1.388 . S
C3759 H3746 0.930 . S
C3759 C3758 1.388 . S
C3759 C3760 1.390 . S
C3760 C3759 1.390 . S
C3760 C3761 1.394 . S
C3760 C3766 1.465 . S
C3761 C3756 1.399 . S
C3761 C3760 1.394 . S
C3761 C3762 1.516 . S
C3762 C3761 1.516 . S
C3762 C3763 1.502 . S
C3762 C3764 1.561 . S
C3762 C3765 1.526 . S
C3763 H3747 0.959 . S
C3763 H3748 0.959 . S
C3763 H3749 0.961 . S
C3763 C3762 1.502 . S
C3764 H3750 0.960 . S
C3764 H3751 0.961 . S
C3764 H3752 0.959 . S
C3764 C3762 1.561 . S
C3765 C3762 1.526 . S
C3765 C3766 1.396 . S
C3765 C3770 1.390 . S
C3766 C3760 1.465 . S
C3766 C3765 1.396 . S
C3766 C3767 1.399 . S
C3767 H3753 0.929 . S
C3767 C3766 1.399 . S
C3767 C3768 1.385 . S
C3768 H3754 0.931 . S
C3768 C3767 1.385 . S
C3768 C3769 1.389 . S
C3769 C3768 1.389 . S
C3769 C3770 1.387 . S
C3770 H3755 0.930 . S
C3770 C3765 1.390 . S
C3770 C3769 1.387 . S
H3771 C3783 0.930 . S
H3772 C3785 0.930 . S
H3773 C3786 0.930 . S
H3774 C3790 0.959 . S
H3775 C3790 0.959 . S
H3776 C3790 0.961 . S
H3777 C3791 0.960 . S
H3778 C3791 0.961 . S
H3779 C3791 0.959 . S
H3780 C3794 0.929 . S
H3781 C3795 0.931 . S
H3782 C3797 0.930 . S
C3783 H3771 0.930 . S
C3783 C3784 1.399 . S
C3783 C3788 1.399 . S
C3784 C3783 1.399 . S
C3784 C3785 1.376 . S
C3785 H3772 0.930 . S
C3785 C3784 1.376 . S
C3785 C3786 1.388 . S
C3786 H3773 0.930 . S
C3786 C3785 1.388 . S
C3786 C3787 1.390 . S
C3787 C3786 1.390 . S
C3787 C3788 1.394 . S
C3787 C3793 1.465 . S
C3788 C3783 1.399 . S
C3788 C3787 1.394 . S
C3788 C3789 1.516 . S
C3789 C3788 1.516 . S
C3789 C3790 1.502 . S
C3789 C3791 1.561 . S
C3789 C3792 1.526 . S
C3790 H3774 0.959 . S
C3790 H3775 0.959 . S
C3790 H3776 0.961 . S
C3790 C3789 1.502 . S
C3791 H3777 0.960 . S
C3791 H3778 0.961 . S
C3791 H3779 0.959 . S
C3791 C3789 1.561 . S
C3792 C3789 1.526 . S
C3792 C3793 1.396 . S
C3792 C3797 1.390 . S
C3793 C3787 1.465 . S
C3793 C3792 1.396 . S
C3793 C3794 1.399 . S
C3794 H3780 0.929 . S
C3794 C3793 1.399 . S
C3794 C3795 1.385 . S
C3795 H3781 0.931 . S
C3795 C3794 1.385 . S
C3795 C3796 1.389 . S
C3796 C3795 1.389 . S
C3796 C3797 1.387 . S
C3797 H3782 0.930 . S
C3797 C3792 1.390 . S
C3797 C3796 1.387 . S
H3798 C3810 0.930 . S
H3799 C3812 0.930 . S
H3800 C3813 0.930 . S
H3801 C3817 0.959 . S
H3802 C3817 0.959 . S
H3803 C3817 0.924 1_655 S
H3804 C3818 0.953 1_655 S
H3805 C3818 0.968 . S
H3806 C3818 0.957 1_655 S
H3807 C3821 0.929 . S
H3808 C3822 0.931 . S
H3809 C3824 0.930 . S
C3810 H3798 0.930 . S
C3810 C3811 1.399 . S
C3810 C3815 1.399 . S
C3811 C3810 1.399 . S
C3811 C3812 1.376 . S
C3812 H3799 0.930 . S
C3812 C3811 1.376 . S
C3812 C3813 1.388 . S
C3813 H3800 0.930 . S
C3813 C3812 1.388 . S
C3813 C3814 1.390 . S
C3814 C3813 1.390 . S
C3814 C3815 1.394 . S
C3814 C3820 1.465 1_655 S
C3815 C3810 1.399 . S
C3815 C3814 1.394 . S
C3815 C3816 1.516 1_655 S
C3816 C3815 1.516 1_455 S
C3816 C3817 1.502 . S
C3816 C3818 1.563 . S
C3816 C3819 1.526 . S
C3817 H3801 0.959 . S
C3817 H3802 0.959 . S
C3817 H3803 0.924 1_455 S
C3817 C3816 1.502 . S
C3818 H3804 0.953 1_455 S
C3818 H3805 0.968 . S
C3818 H3806 0.957 1_455 S
C3818 C3816 1.563 . S
C3819 C3816 1.526 . S
C3819 C3820 1.396 . S
C3819 C3824 1.390 . S
C3820 C3814 1.465 1_455 S
C3820 C3819 1.396 . S
C3820 C3821 1.399 . S
C3821 H3807 0.929 . S
C3821 C3820 1.399 . S
C3821 C3822 1.385 . S
C3822 H3808 0.931 . S
C3822 C3821 1.385 . S
C3822 C3823 1.389 . S
C3823 C3822 1.389 . S
C3823 C3824 1.387 . S
C3824 H3809 0.930 . S
C3824 C3819 1.390 . S
C3824 C3823 1.387 . S
H3825 C3837 0.930 . S
H3826 C3839 0.930 . S
H3827 C3840 0.930 . S
H3828 C3844 0.959 . S
H3829 C3844 0.959 . S
H3830 C3844 0.961 . S
H3831 C3845 0.960 . S
H3832 C3845 0.961 . S
H3833 C3845 0.959 . S
H3834 C3848 0.929 . S
H3835 C3849 0.931 . S
H3836 C3851 0.930 . S
C3837 H3825 0.930 . S
C3837 C3838 1.399 . S
C3837 C3842 1.399 . S
C3838 C3837 1.399 . S
C3838 C3839 1.376 . S
C3839 H3826 0.930 . S
C3839 C3838 1.376 . S
C3839 C3840 1.388 . S
C3840 H3827 0.930 . S
C3840 C3839 1.388 . S
C3840 C3841 1.390 . S
C3841 C3840 1.390 . S
C3841 C3842 1.394 . S
C3841 C3847 1.465 . S
C3842 C3837 1.399 . S
C3842 C3841 1.394 . S
C3842 C3843 1.516 . S
C3843 C3842 1.516 . S
C3843 C3844 1.502 . S
C3843 C3845 1.561 . S
C3843 C3846 1.526 . S
C3844 H3828 0.959 . S
C3844 H3829 0.959 . S
C3844 H3830 0.961 . S
C3844 C3843 1.502 . S
C3845 H3831 0.960 . S
C3845 H3832 0.961 . S
C3845 H3833 0.959 . S
C3845 C3843 1.561 . S
C3846 C3843 1.526 . S
C3846 C3847 1.396 . S
C3846 C3851 1.390 . S
C3847 C3841 1.465 . S
C3847 C3846 1.396 . S
C3847 C3848 1.399 . S
C3848 H3834 0.929 . S
C3848 C3847 1.399 . S
C3848 C3849 1.385 . S
C3849 H3835 0.931 . S
C3849 C3848 1.385 . S
C3849 C3850 1.389 . S
C3850 C3849 1.389 . S
C3850 C3851 1.387 . S
C3851 H3836 0.930 . S
C3851 C3846 1.390 . S
C3851 C3850 1.387 . S
H3852 C3864 0.930 . S
H3853 C3866 0.930 . S
H3854 C3867 0.930 . S
H3855 C3871 0.959 . S
H3856 C3871 0.959 . S
H3857 C3871 0.961 . S
H3858 C3872 0.960 . S
H3859 C3872 0.961 . S
H3860 C3872 0.959 . S
H3861 C3875 0.929 . S
H3862 C3876 0.931 . S
H3863 C3878 0.930 . S
C3864 H3852 0.930 . S
C3864 C3865 1.399 . S
C3864 C3869 1.399 . S
C3865 C3864 1.399 . S
C3865 C3866 1.376 . S
C3866 H3853 0.930 . S
C3866 C3865 1.376 . S
C3866 C3867 1.388 . S
C3867 H3854 0.930 . S
C3867 C3866 1.388 . S
C3867 C3868 1.390 . S
C3868 C3867 1.390 . S
C3868 C3869 1.394 . S
C3868 C3874 1.465 . S
C3869 C3864 1.399 . S
C3869 C3868 1.394 . S
C3869 C3870 1.516 . S
C3870 C3869 1.516 . S
C3870 C3871 1.502 . S
C3870 C3872 1.561 . S
C3870 C3873 1.526 . S
C3871 H3855 0.959 . S
C3871 H3856 0.959 . S
C3871 H3857 0.961 . S
C3871 C3870 1.502 . S
C3872 H3858 0.960 . S
C3872 H3859 0.961 . S
C3872 H3860 0.959 . S
C3872 C3870 1.561 . S
C3873 C3870 1.526 . S
C3873 C3874 1.396 . S
C3873 C3878 1.390 . S
C3874 C3868 1.465 . S
C3874 C3873 1.396 . S
C3874 C3875 1.399 . S
C3875 H3861 0.929 . S
C3875 C3874 1.399 . S
C3875 C3876 1.385 . S
C3876 H3862 0.931 . S
C3876 C3875 1.385 . S
C3876 C3877 1.389 . S
C3877 C3876 1.389 . S
C3877 C3878 1.387 . S
C3878 H3863 0.930 . S
C3878 C3873 1.390 . S
C3878 C3877 1.387 . S
H3879 C3891 0.930 . S
H3880 C3893 0.930 . S
H3881 C3894 0.930 . S
H3882 C3898 0.959 . S
H3883 C3898 0.959 . S
H3884 C3898 0.961 . S
H3885 C3899 0.960 . S
H3886 C3899 0.961 . S
H3887 C3899 0.959 . S
H3888 C3902 0.929 . S
H3889 C3903 0.931 . S
H3890 C3905 0.930 . S
C3891 H3879 0.930 . S
C3891 C3892 1.399 . S
C3891 C3896 1.399 . S
C3892 C3891 1.399 . S
C3892 C3893 1.376 . S
C3893 H3880 0.930 . S
C3893 C3892 1.376 . S
C3893 C3894 1.388 . S
C3894 H3881 0.930 . S
C3894 C3893 1.388 . S
C3894 C3895 1.390 . S
C3895 C3894 1.390 . S
C3895 C3896 1.394 . S
C3895 C3901 1.465 . S
C3896 C3891 1.399 . S
C3896 C3895 1.394 . S
C3896 C3897 1.516 . S
C3897 C3896 1.516 . S
C3897 C3898 1.502 . S
C3897 C3899 1.561 . S
C3897 C3900 1.526 . S
C3898 H3882 0.959 . S
C3898 H3883 0.959 . S
C3898 H3884 0.961 . S
C3898 C3897 1.502 . S
C3899 H3885 0.960 . S
C3899 H3886 0.961 . S
C3899 H3887 0.959 . S
C3899 C3897 1.561 . S
C3900 C3897 1.526 . S
C3900 C3901 1.396 . S
C3900 C3905 1.390 . S
C3901 C3895 1.465 . S
C3901 C3900 1.396 . S
C3901 C3902 1.399 . S
C3902 H3888 0.929 . S
C3902 C3901 1.399 . S
C3902 C3903 1.385 . S
C3903 H3889 0.931 . S
C3903 C3902 1.385 . S
C3903 C3904 1.389 . S
C3904 C3903 1.389 . S
C3904 C3905 1.387 . S
C3905 H3890 0.930 . S
C3905 C3900 1.390 . S
C3905 C3904 1.387 . S
H3906 C3918 0.930 . S
H3907 C3920 0.930 . S
H3908 C3921 0.930 . S
H3909 C3925 0.959 . S
H3910 C3925 0.959 . S
H3911 C3925 0.961 . S
H3912 C3926 0.984 . S
H3913 C3926 0.930 1_655 S
H3914 C3926 0.945 1_655 S
H3915 C3929 0.929 1_455 S
H3916 C3930 0.931 . S
H3917 C3932 0.930 . S
C3918 H3906 0.930 . S
C3918 C3919 1.399 . S
C3918 C3923 1.399 . S
C3919 C3918 1.399 . S
C3919 C3920 1.376 . S
C3920 H3907 0.930 . S
C3920 C3919 1.376 . S
C3920 C3921 1.388 . S
C3921 H3908 0.930 . S
C3921 C3920 1.388 . S
C3921 C3922 1.390 . S
C3922 C3921 1.390 . S
C3922 C3923 1.394 . S
C3922 C3928 1.465 . S
C3923 C3918 1.399 . S
C3923 C3922 1.394 . S
C3923 C3924 1.516 . S
C3924 C3923 1.516 . S
C3924 C3925 1.502 . S
C3924 C3926 1.584 . S
C3924 C3927 1.532 . S
C3925 H3909 0.959 . S
C3925 H3910 0.959 . S
C3925 H3911 0.961 . S
C3925 C3924 1.502 . S
C3926 H3912 0.984 . S
C3926 H3913 0.930 1_455 S
C3926 H3914 0.945 1_455 S
C3926 C3924 1.584 . S
C3927 C3924 1.532 . S
C3927 C3928 1.401 . S
C3927 C3932 1.380 1_455 S
C3928 C3922 1.465 . S
C3928 C3927 1.401 . S
C3928 C3929 1.399 1_455 S
C3929 H3915 0.929 1_655 S
C3929 C3928 1.399 1_655 S
C3929 C3930 1.385 . S
C3930 H3916 0.931 . S
C3930 C3929 1.385 . S
C3930 C3931 1.389 . S
C3931 C3930 1.389 . S
C3931 C3932 1.387 . S
C3932 H3917 0.930 . S
C3932 C3927 1.380 1_655 S
C3932 C3931 1.387 . S
H3933 C3945 0.930 . S
H3934 C3947 0.930 . S
H3935 C3948 0.930 . S
H3936 C3952 0.959 . S
H3937 C3952 0.959 . S
H3938 C3952 0.961 . S
H3939 C3953 0.960 . S
H3940 C3953 0.961 . S
H3941 C3953 0.959 . S
H3942 C3956 0.929 . S
H3943 C3957 0.931 . S
H3944 C3959 0.930 . S
C3945 H3933 0.930 . S
C3945 C3946 1.399 . S
C3945 C3950 1.399 . S
C3946 C3945 1.399 . S
C3946 C3947 1.376 . S
C3947 H3934 0.930 . S
C3947 C3946 1.376 . S
C3947 C3948 1.388 . S
C3948 H3935 0.930 . S
C3948 C3947 1.388 . S
C3948 C3949 1.390 . S
C3949 C3948 1.390 . S
C3949 C3950 1.394 . S
C3949 C3955 1.465 . S
C3950 C3945 1.399 . S
C3950 C3949 1.394 . S
C3950 C3951 1.516 . S
C3951 C3950 1.516 . S
C3951 C3952 1.502 . S
C3951 C3953 1.561 . S
C3951 C3954 1.526 . S
C3952 H3936 0.959 . S
C3952 H3937 0.959 . S
C3952 H3938 0.961 . S
C3952 C3951 1.502 . S
C3953 H3939 0.960 . S
C3953 H3940 0.961 . S
C3953 H3941 0.959 . S
C3953 C3951 1.561 . S
C3954 C3951 1.526 . S
C3954 C3955 1.396 . S
C3954 C3959 1.390 . S
C3955 C3949 1.465 . S
C3955 C3954 1.396 . S
C3955 C3956 1.399 . S
C3956 H3942 0.929 . S
C3956 C3955 1.399 . S
C3956 C3957 1.385 . S
C3957 H3943 0.931 . S
C3957 C3956 1.385 . S
C3957 C3958 1.389 . S
C3958 C3957 1.389 . S
C3958 C3959 1.387 . S
C3959 H3944 0.930 . S
C3959 C3954 1.390 . S
C3959 C3958 1.387 . S
H3960 C3972 0.930 . S
H3961 C3974 0.930 . S
H3962 C3975 0.930 . S
H3963 C3979 0.959 . S
H3964 C3979 0.959 . S
H3965 C3979 0.961 . S
H3966 C3980 0.960 . S
H3967 C3980 0.961 . S
H3968 C3980 0.959 . S
H3969 C3983 0.929 . S
H3970 C3984 0.931 . S
H3971 C3986 0.930 . S
C3972 H3960 0.930 . S
C3972 C3973 1.399 . S
C3972 C3977 1.399 . S
C3973 C3972 1.399 . S
C3973 C3974 1.376 . S
C3974 H3961 0.930 . S
C3974 C3973 1.376 . S
C3974 C3975 1.388 . S
C3975 H3962 0.930 . S
C3975 C3974 1.388 . S
C3975 C3976 1.390 . S
C3976 C3975 1.390 . S
C3976 C3977 1.394 . S
C3976 C3982 1.465 . S
C3977 C3972 1.399 . S
C3977 C3976 1.394 . S
C3977 C3978 1.516 . S
C3978 C3977 1.516 . S
C3978 C3979 1.502 . S
C3978 C3980 1.561 . S
C3978 C3981 1.526 . S
C3979 H3963 0.959 . S
C3979 H3964 0.959 . S
C3979 H3965 0.961 . S
C3979 C3978 1.502 . S
C3980 H3966 0.960 . S
C3980 H3967 0.961 . S
C3980 H3968 0.959 . S
C3980 C3978 1.561 . S
C3981 C3978 1.526 . S
C3981 C3982 1.396 . S
C3981 C3986 1.390 . S
C3982 C3976 1.465 . S
C3982 C3981 1.396 . S
C3982 C3983 1.399 . S
C3983 H3969 0.929 . S
C3983 C3982 1.399 . S
C3983 C3984 1.385 . S
C3984 H3970 0.931 . S
C3984 C3983 1.385 . S
C3984 C3985 1.389 . S
C3985 C3984 1.389 . S
C3985 C3986 1.387 . S
C3986 H3971 0.930 . S
C3986 C3981 1.390 . S
C3986 C3985 1.387 . S
H3987 C3999 0.930 . S
H3988 C4001 0.930 . S
H3989 C4002 0.930 . S
H3990 C4006 0.959 . S
H3991 C4006 0.959 1_545 S
H3992 C4006 0.961 . S
H3993 C4007 0.960 . S
H3994 C4007 0.961 1_545 S
H3995 C4007 0.959 . S
H3996 C4010 0.929 1_565 S
H3997 C4011 0.931 . S
H3998 C4013 0.930 . S
C3999 H3987 0.930 . S
C3999 C4000 1.399 . S
C3999 C4004 1.399 . S
C4000 C3999 1.399 . S
C4000 C4001 1.376 . S
C4001 H3988 0.930 . S
C4001 C4000 1.376 . S
C4001 C4002 1.388 . S
C4002 H3989 0.930 . S
C4002 C4001 1.388 . S
C4002 C4003 1.390 . S
C4003 C4002 1.390 . S
C4003 C4004 1.394 . S
C4003 C4009 1.465 . S
C4004 C3999 1.399 . S
C4004 C4003 1.394 . S
C4004 C4005 1.516 . S
C4005 C4004 1.516 . S
C4005 C4006 1.502 . S
C4005 C4007 1.561 . S
C4005 C4008 1.526 1_565 S
C4006 H3990 0.959 . S
C4006 H3991 0.959 1_565 S
C4006 H3992 0.961 . S
C4006 C4005 1.502 . S
C4007 H3993 0.960 . S
C4007 H3994 0.961 1_565 S
C4007 H3995 0.959 . S
C4007 C4005 1.561 . S
C4008 C4005 1.526 1_545 S
C4008 C4009 1.396 1_545 S
C4008 C4013 1.390 . S
C4009 C4003 1.465 . S
C4009 C4008 1.396 1_565 S
C4009 C4010 1.399 1_565 S
C4010 H3996 0.929 1_545 S
C4010 C4009 1.399 1_545 S
C4010 C4011 1.385 . S
C4011 H3997 0.931 . S
C4011 C4010 1.385 . S
C4011 C4012 1.389 . S
C4012 C4011 1.389 . S
C4012 C4013 1.387 . S
C4013 H3998 0.930 . S
C4013 C4008 1.390 . S
C4013 C4012 1.387 . S
H4014 C4026 0.930 . S
H4015 C4028 0.930 . S
H4016 C4029 0.930 . S
H4017 C4033 0.959 . S
H4018 C4033 0.959 . S
H4019 C4033 0.961 . S
H4020 C4034 0.960 . S
H4021 C4034 0.961 . S
H4022 C4034 0.959 . S
H4023 C4037 0.929 . S
H4024 C4038 0.931 . S
H4025 C4040 0.930 . S
C4026 H4014 0.930 . S
C4026 C4027 1.399 . S
C4026 C4031 1.399 . S
C4027 C4026 1.399 . S
C4027 C4028 1.376 . S
C4028 H4015 0.930 . S
C4028 C4027 1.376 . S
C4028 C4029 1.388 . S
C4029 H4016 0.930 . S
C4029 C4028 1.388 . S
C4029 C4030 1.390 . S
C4030 C4029 1.390 . S
C4030 C4031 1.394 . S
C4030 C4036 1.465 . S
C4031 C4026 1.399 . S
C4031 C4030 1.394 . S
C4031 C4032 1.516 . S
C4032 C4031 1.516 . S
C4032 C4033 1.502 . S
C4032 C4034 1.561 . S
C4032 C4035 1.526 . S
C4033 H4017 0.959 . S
C4033 H4018 0.959 . S
C4033 H4019 0.961 . S
C4033 C4032 1.502 . S
C4034 H4020 0.960 . S
C4034 H4021 0.961 . S
C4034 H4022 0.959 . S
C4034 C4032 1.561 . S
C4035 C4032 1.526 . S
C4035 C4036 1.396 . S
C4035 C4040 1.390 . S
C4036 C4030 1.465 . S
C4036 C4035 1.396 . S
C4036 C4037 1.399 . S
C4037 H4023 0.929 . S
C4037 C4036 1.399 . S
C4037 C4038 1.385 . S
C4038 H4024 0.931 . S
C4038 C4037 1.385 . S
C4038 C4039 1.389 . S
C4039 C4038 1.389 . S
C4039 C4040 1.387 . S
C4040 H4025 0.930 . S
C4040 C4035 1.390 . S
C4040 C4039 1.387 . S
H4041 C4053 0.930 . S
H4042 C4055 0.930 . S
H4043 C4056 0.930 . S
H4044 C4060 0.959 . S
H4045 C4060 0.959 . S
H4046 C4060 0.961 . S
H4047 C4061 0.960 . S
H4048 C4061 0.961 1_545 S
H4049 C4061 0.959 . S
H4050 C4064 0.929 . S
H4051 C4065 0.931 . S
H4052 C4067 0.930 . S
C4053 H4041 0.930 . S
C4053 C4054 1.399 . S
C4053 C4058 1.399 . S
C4054 C4053 1.399 . S
C4054 C4055 1.376 . S
C4055 H4042 0.930 . S
C4055 C4054 1.376 . S
C4055 C4056 1.388 . S
C4056 H4043 0.930 . S
C4056 C4055 1.388 . S
C4056 C4057 1.390 . S
C4057 C4056 1.390 . S
C4057 C4058 1.394 . S
C4057 C4063 1.465 1_565 S
C4058 C4053 1.399 . S
C4058 C4057 1.394 . S
C4058 C4059 1.516 1_565 S
C4059 C4058 1.516 1_545 S
C4059 C4060 1.502 . S
C4059 C4061 1.561 1_545 S
C4059 C4062 1.526 . S
C4060 H4044 0.959 . S
C4060 H4045 0.959 . S
C4060 H4046 0.961 . S
C4060 C4059 1.502 . S
C4061 H4047 0.960 . S
C4061 H4048 0.961 1_565 S
C4061 H4049 0.959 . S
C4061 C4059 1.561 1_565 S
C4062 C4059 1.526 . S
C4062 C4063 1.396 . S
C4062 C4067 1.390 . S
C4063 C4057 1.465 1_545 S
C4063 C4062 1.396 . S
C4063 C4064 1.399 . S
C4064 H4050 0.929 . S
C4064 C4063 1.399 . S
C4064 C4065 1.385 . S
C4065 H4051 0.931 . S
C4065 C4064 1.385 . S
C4065 C4066 1.389 . S
C4066 C4065 1.389 . S
C4066 C4067 1.387 . S
C4067 H4052 0.930 . S
C4067 C4062 1.390 . S
C4067 C4066 1.387 . S
H4068 C4080 0.930 . S
H4069 C4082 0.930 . S
H4070 C4083 0.930 . S
H4071 C4087 0.959 . S
H4072 C4087 0.959 . S
H4073 C4087 0.961 . S
H4074 C4088 0.960 . S
H4075 C4088 0.961 . S
H4076 C4088 0.959 . S
H4077 C4091 0.929 . S
H4078 C4092 0.931 . S
H4079 C4094 0.930 . S
C4080 H4068 0.930 . S
C4080 C4081 1.399 . S
C4080 C4085 1.399 . S
C4081 C4080 1.399 . S
C4081 C4082 1.376 . S
C4082 H4069 0.930 . S
C4082 C4081 1.376 . S
C4082 C4083 1.388 . S
C4083 H4070 0.930 . S
C4083 C4082 1.388 . S
C4083 C4084 1.390 . S
C4084 C4083 1.390 . S
C4084 C4085 1.394 . S
C4084 C4090 1.465 . S
C4085 C4080 1.399 . S
C4085 C4084 1.394 . S
C4085 C4086 1.516 . S
C4086 C4085 1.516 . S
C4086 C4087 1.502 . S
C4086 C4088 1.561 . S
C4086 C4089 1.526 . S
C4087 H4071 0.959 . S
C4087 H4072 0.959 . S
C4087 H4073 0.961 . S
C4087 C4086 1.502 . S
C4088 H4074 0.960 . S
C4088 H4075 0.961 . S
C4088 H4076 0.959 . S
C4088 C4086 1.561 . S
C4089 C4086 1.526 . S
C4089 C4090 1.396 . S
C4089 C4094 1.390 . S
C4090 C4084 1.465 . S
C4090 C4089 1.396 . S
C4090 C4091 1.399 . S
C4091 H4077 0.929 . S
C4091 C4090 1.399 . S
C4091 C4092 1.385 . S
C4092 H4078 0.931 . S
C4092 C4091 1.385 . S
C4092 C4093 1.389 . S
C4093 C4092 1.389 . S
C4093 C4094 1.387 . S
C4094 H4079 0.930 . S
C4094 C4089 1.390 . S
C4094 C4093 1.387 . S
H4095 C4107 0.930 . S
H4096 C4109 0.930 . S
H4097 C4110 0.930 . S
H4098 C4114 0.959 . S
H4099 C4114 0.959 . S
H4100 C4114 0.961 . S
H4101 C4115 0.960 . S
H4102 C4115 0.961 . S
H4103 C4115 0.959 . S
H4104 C4118 0.929 . S
H4105 C4119 0.931 . S
H4106 C4121 0.930 . S
C4107 H4095 0.930 . S
C4107 C4108 1.399 . S
C4107 C4112 1.399 . S
C4108 C4107 1.399 . S
C4108 C4109 1.376 . S
C4109 H4096 0.930 . S
C4109 C4108 1.376 . S
C4109 C4110 1.388 . S
C4110 H4097 0.930 . S
C4110 C4109 1.388 . S
C4110 C4111 1.390 . S
C4111 C4110 1.390 . S
C4111 C4112 1.394 . S
C4111 C4117 1.465 . S
C4112 C4107 1.399 . S
C4112 C4111 1.394 . S
C4112 C4113 1.516 . S
C4113 C4112 1.516 . S
C4113 C4114 1.502 . S
C4113 C4115 1.561 . S
C4113 C4116 1.526 . S
C4114 H4098 0.959 . S
C4114 H4099 0.959 . S
C4114 H4100 0.961 . S
C4114 C4113 1.502 . S
C4115 H4101 0.960 . S
C4115 H4102 0.961 . S
C4115 H4103 0.959 . S
C4115 C4113 1.561 . S
C4116 C4113 1.526 . S
C4116 C4117 1.396 . S
C4116 C4121 1.390 . S
C4117 C4111 1.465 . S
C4117 C4116 1.396 . S
C4117 C4118 1.399 . S
C4118 H4104 0.929 . S
C4118 C4117 1.399 . S
C4118 C4119 1.385 . S
C4119 H4105 0.931 . S
C4119 C4118 1.385 . S
C4119 C4120 1.389 . S
C4120 C4119 1.389 . S
C4120 C4121 1.387 . S
C4121 H4106 0.930 . S
C4121 C4116 1.390 . S
C4121 C4120 1.387 . S
H4122 C4134 0.930 . S
H4123 C4136 0.930 . S
H4124 C4137 0.930 . S
H4125 C4141 0.959 . S
H4126 C4141 0.959 . S
H4127 C4141 0.961 . S
H4128 C4142 0.960 . S
H4129 C4142 0.961 . S
H4130 C4142 0.959 . S
H4131 C4145 0.929 . S
H4132 C4146 0.931 . S
H4133 C4148 0.930 . S
C4134 H4122 0.930 . S
C4134 C4135 1.399 . S
C4134 C4139 1.399 . S
C4135 C4134 1.399 . S
C4135 C4136 1.376 . S
C4136 H4123 0.930 . S
C4136 C4135 1.376 . S
C4136 C4137 1.388 . S
C4137 H4124 0.930 . S
C4137 C4136 1.388 . S
C4137 C4138 1.390 . S
C4138 C4137 1.390 . S
C4138 C4139 1.394 . S
C4138 C4144 1.465 . S
C4139 C4134 1.399 . S
C4139 C4138 1.394 . S
C4139 C4140 1.516 . S
C4140 C4139 1.516 . S
C4140 C4141 1.502 . S
C4140 C4142 1.561 . S
C4140 C4143 1.526 . S
C4141 H4125 0.959 . S
C4141 H4126 0.959 . S
C4141 H4127 0.961 . S
C4141 C4140 1.502 . S
C4142 H4128 0.960 . S
C4142 H4129 0.961 . S
C4142 H4130 0.959 . S
C4142 C4140 1.561 . S
C4143 C4140 1.526 . S
C4143 C4144 1.396 . S
C4143 C4148 1.390 . S
C4144 C4138 1.465 . S
C4144 C4143 1.396 . S
C4144 C4145 1.399 . S
C4145 H4131 0.929 . S
C4145 C4144 1.399 . S
C4145 C4146 1.385 . S
C4146 H4132 0.931 . S
C4146 C4145 1.385 . S
C4146 C4147 1.389 . S
C4147 C4146 1.389 . S
C4147 C4148 1.387 . S
C4148 H4133 0.930 . S
C4148 C4143 1.390 . S
C4148 C4147 1.387 . S
H4149 C4161 0.930 . S
H4150 C4163 0.930 . S
H4151 C4164 0.930 . S
H4152 C4168 0.959 . S
H4153 C4168 0.959 . S
H4154 C4168 0.961 . S
H4155 C4169 0.960 . S
H4156 C4169 0.961 . S
H4157 C4169 0.959 . S
H4158 C4172 0.929 . S
H4159 C4173 0.931 . S
H4160 C4175 0.930 . S
C4161 H4149 0.930 . S
C4161 C4162 1.399 . S
C4161 C4166 1.399 . S
C4162 C4161 1.399 . S
C4162 C4163 1.376 . S
C4163 H4150 0.930 . S
C4163 C4162 1.376 . S
C4163 C4164 1.388 . S
C4164 H4151 0.930 . S
C4164 C4163 1.388 . S
C4164 C4165 1.390 . S
C4165 C4164 1.390 . S
C4165 C4166 1.394 . S
C4165 C4171 1.465 . S
C4166 C4161 1.399 . S
C4166 C4165 1.394 . S
C4166 C4167 1.516 . S
C4167 C4166 1.516 . S
C4167 C4168 1.502 . S
C4167 C4169 1.561 . S
C4167 C4170 1.526 . S
C4168 H4152 0.959 . S
C4168 H4153 0.959 . S
C4168 H4154 0.961 . S
C4168 C4167 1.502 . S
C4169 H4155 0.960 . S
C4169 H4156 0.961 . S
C4169 H4157 0.959 . S
C4169 C4167 1.561 . S
C4170 C4167 1.526 . S
C4170 C4171 1.396 . S
C4170 C4175 1.390 . S
C4171 C4165 1.465 . S
C4171 C4170 1.396 . S
C4171 C4172 1.399 . S
C4172 H4158 0.929 . S
C4172 C4171 1.399 . S
C4172 C4173 1.385 . S
C4173 H4159 0.931 . S
C4173 C4172 1.385 . S
C4173 C4174 1.389 . S
C4174 C4173 1.389 . S
C4174 C4175 1.387 . S
C4175 H4160 0.930 . S
C4175 C4170 1.390 . S
C4175 C4174 1.387 . S
H4176 C4188 0.930 . S
H4177 C4190 0.930 . S
H4178 C4191 0.930 . S
H4179 C4195 0.959 1_455 S
H4180 C4195 0.959 . S
H4181 C4195 0.961 . S
H4182 C4196 0.960 . S
H4183 C4196 0.961 . S
H4184 C4196 0.959 . S
H4185 C4199 0.929 . S
H4186 C4200 0.931 . S
H4187 C4202 0.930 . S
C4188 H4176 0.930 . S
C4188 C4189 1.399 . S
C4188 C4193 1.399 . S
C4189 C4188 1.399 . S
C4189 C4190 1.376 . S
C4190 H4177 0.930 . S
C4190 C4189 1.376 . S
C4190 C4191 1.388 1_655 S
C4191 H4178 0.930 . S
C4191 C4190 1.388 1_455 S
C4191 C4192 1.390 . S
C4192 C4191 1.390 . S
C4192 C4193 1.394 1_455 S
C4192 C4198 1.465 . S
C4193 C4188 1.399 . S
C4193 C4192 1.394 1_655 S
C4193 C4194 1.516 . S
C4194 C4193 1.516 . S
C4194 C4195 1.502 . S
C4194 C4196 1.561 . S
C4194 C4197 1.526 1_655 S
C4195 H4179 0.959 1_655 S
C4195 H4180 0.959 . S
C4195 H4181 0.961 . S
C4195 C4194 1.502 . S
C4196 H4182 0.960 . S
C4196 H4183 0.961 . S
C4196 H4184 0.959 . S
C4196 C4194 1.561 . S
C4197 C4194 1.526 1_455 S
C4197 C4198 1.396 . S
C4197 C4202 1.390 . S
C4198 C4192 1.465 . S
C4198 C4197 1.396 . S
C4198 C4199 1.399 . S
C4199 H4185 0.929 . S
C4199 C4198 1.399 . S
C4199 C4200 1.385 . S
C4200 H4186 0.931 . S
C4200 C4199 1.385 . S
C4200 C4201 1.389 . S
C4201 C4200 1.389 . S
C4201 C4202 1.387 . S
C4202 H4187 0.930 . S
C4202 C4197 1.390 . S
C4202 C4201 1.387 . S
H4203 C4215 0.930 . S
H4204 C4217 0.930 . S
H4205 C4218 0.930 . S
H4206 C4222 0.959 . S
H4207 C4222 0.959 . S
H4208 C4222 0.961 . S
H4209 C4223 0.960 . S
H4210 C4223 0.961 1_655 S
H4211 C4223 0.959 . S
H4212 C4226 0.929 . S
H4213 C4227 0.931 . S
H4214 C4229 0.930 . S
C4215 H4203 0.930 . S
C4215 C4216 1.399 . S
C4215 C4220 1.399 . S
C4216 C4215 1.399 . S
C4216 C4217 1.376 . S
C4217 H4204 0.930 . S
C4217 C4216 1.376 . S
C4217 C4218 1.388 . S
C4218 H4205 0.930 . S
C4218 C4217 1.388 . S
C4218 C4219 1.390 . S
C4219 C4218 1.390 . S
C4219 C4220 1.394 . S
C4219 C4225 1.465 . S
C4220 C4215 1.399 . S
C4220 C4219 1.394 . S
C4220 C4221 1.516 1_455 S
C4221 C4220 1.516 1_655 S
C4221 C4222 1.502 . S
C4221 C4223 1.561 1_655 S
C4221 C4224 1.526 . S
C4222 H4206 0.959 . S
C4222 H4207 0.959 . S
C4222 H4208 0.961 . S
C4222 C4221 1.502 . S
C4223 H4209 0.960 . S
C4223 H4210 0.961 1_455 S
C4223 H4211 0.959 . S
C4223 C4221 1.561 1_455 S
C4224 C4221 1.526 . S
C4224 C4225 1.396 1_655 S
C4224 C4229 1.390 . S
C4225 C4219 1.465 . S
C4225 C4224 1.396 1_455 S
C4225 C4226 1.399 . S
C4226 H4212 0.929 . S
C4226 C4225 1.399 . S
C4226 C4227 1.385 1_455 S
C4227 H4213 0.931 . S
C4227 C4226 1.385 1_655 S
C4227 C4228 1.389 . S
C4228 C4227 1.389 . S
C4228 C4229 1.387 . S
C4229 H4214 0.930 . S
C4229 C4224 1.390 . S
C4229 C4228 1.387 . S
H4230 C4242 0.930 . S
H4231 C4244 0.930 . S
H4232 C4245 0.930 . S
H4233 C4249 0.959 . S
H4234 C4249 0.959 . S
H4235 C4249 0.961 . S
H4236 C4250 0.960 . S
H4237 C4250 0.961 . S
H4238 C4250 0.959 . S
H4239 C4253 0.929 . S
H4240 C4254 0.931 . S
H4241 C4256 0.930 . S
C4242 H4230 0.930 . S
C4242 C4243 1.399 . S
C4242 C4247 1.399 . S
C4243 C4242 1.399 . S
C4243 C4244 1.376 . S
C4244 H4231 0.930 . S
C4244 C4243 1.376 . S
C4244 C4245 1.388 . S
C4245 H4232 0.930 . S
C4245 C4244 1.388 . S
C4245 C4246 1.390 . S
C4246 C4245 1.390 . S
C4246 C4247 1.394 . S
C4246 C4252 1.465 . S
C4247 C4242 1.399 . S
C4247 C4246 1.394 . S
C4247 C4248 1.516 . S
C4248 C4247 1.516 . S
C4248 C4249 1.502 . S
C4248 C4250 1.561 . S
C4248 C4251 1.526 . S
C4249 H4233 0.959 . S
C4249 H4234 0.959 . S
C4249 H4235 0.961 . S
C4249 C4248 1.502 . S
C4250 H4236 0.960 . S
C4250 H4237 0.961 . S
C4250 H4238 0.959 . S
C4250 C4248 1.561 . S
C4251 C4248 1.526 . S
C4251 C4252 1.396 . S
C4251 C4256 1.390 . S
C4252 C4246 1.465 . S
C4252 C4251 1.396 . S
C4252 C4253 1.399 . S
C4253 H4239 0.929 . S
C4253 C4252 1.399 . S
C4253 C4254 1.385 . S
C4254 H4240 0.931 . S
C4254 C4253 1.385 . S
C4254 C4255 1.389 . S
C4255 C4254 1.389 . S
C4255 C4256 1.387 . S
C4256 H4241 0.930 . S
C4256 C4251 1.390 . S
C4256 C4255 1.387 . S
H4257 C4269 0.930 . S
H4258 C4271 0.930 . S
H4259 C4272 0.930 . S
H4260 C4276 0.959 . S
H4261 C4276 0.959 . S
H4262 C4276 0.961 . S
H4263 C4277 0.960 . S
H4264 C4277 0.961 . S
H4265 C4277 0.959 . S
H4266 C4280 0.929 . S
H4267 C4281 0.931 . S
H4268 C4283 0.930 . S
C4269 H4257 0.930 . S
C4269 C4270 1.399 . S
C4269 C4274 1.399 . S
C4270 C4269 1.399 . S
C4270 C4271 1.376 . S
C4271 H4258 0.930 . S
C4271 C4270 1.376 . S
C4271 C4272 1.388 . S
C4272 H4259 0.930 . S
C4272 C4271 1.388 . S
C4272 C4273 1.390 . S
C4273 C4272 1.390 . S
C4273 C4274 1.394 . S
C4273 C4279 1.465 . S
C4274 C4269 1.399 . S
C4274 C4273 1.394 . S
C4274 C4275 1.516 . S
C4275 C4274 1.516 . S
C4275 C4276 1.502 . S
C4275 C4277 1.561 . S
C4275 C4278 1.526 . S
C4276 H4260 0.959 . S
C4276 H4261 0.959 . S
C4276 H4262 0.961 . S
C4276 C4275 1.502 . S
C4277 H4263 0.960 . S
C4277 H4264 0.961 . S
C4277 H4265 0.959 . S
C4277 C4275 1.561 . S
C4278 C4275 1.526 . S
C4278 C4279 1.396 . S
C4278 C4283 1.390 . S
C4279 C4273 1.465 . S
C4279 C4278 1.396 . S
C4279 C4280 1.399 . S
C4280 H4266 0.929 . S
C4280 C4279 1.399 . S
C4280 C4281 1.385 . S
C4281 H4267 0.931 . S
C4281 C4280 1.385 . S
C4281 C4282 1.389 . S
C4282 C4281 1.389 . S
C4282 C4283 1.387 . S
C4283 H4268 0.930 . S
C4283 C4278 1.390 . S
C4283 C4282 1.387 . S
H4284 C4296 0.930 . S
H4285 C4298 0.930 . S
H4286 C4299 0.930 . S
H4287 C4303 0.959 . S
H4288 C4303 0.959 . S
H4289 C4303 0.961 . S
H4290 C4304 0.960 . S
H4291 C4304 0.961 . S
H4292 C4304 0.959 . S
H4293 C4307 0.929 . S
H4294 C4308 0.931 . S
H4295 C4310 0.930 1_565 S
C4296 H4284 0.930 . S
C4296 C4297 1.399 . S
C4296 C4301 1.399 . S
C4297 C4296 1.399 . S
C4297 C4298 1.376 . S
C4298 H4285 0.930 . S
C4298 C4297 1.376 . S
C4298 C4299 1.388 . S
C4299 H4286 0.930 . S
C4299 C4298 1.388 . S
C4299 C4300 1.390 . S
C4300 C4299 1.390 . S
C4300 C4301 1.394 . S
C4300 C4306 1.465 . S
C4301 C4296 1.399 . S
C4301 C4300 1.394 . S
C4301 C4302 1.516 . S
C4302 C4301 1.516 . S
C4302 C4303 1.502 . S
C4302 C4304 1.561 . S
C4302 C4305 1.526 . S
C4303 H4287 0.959 . S
C4303 H4288 0.959 . S
C4303 H4289 0.961 . S
C4303 C4302 1.502 . S
C4304 H4290 0.960 . S
C4304 H4291 0.961 . S
C4304 H4292 0.959 . S
C4304 C4302 1.561 . S
C4305 C4302 1.526 . S
C4305 C4306 1.396 . S
C4305 C4310 1.390 1_565 S
C4306 C4300 1.465 . S
C4306 C4305 1.396 . S
C4306 C4307 1.399 1_565 S
C4307 H4293 0.929 . S
C4307 C4306 1.399 1_545 S
C4307 C4308 1.385 . S
C4308 H4294 0.931 . S
C4308 C4307 1.385 . S
C4308 C4309 1.389 . S
C4309 C4308 1.389 . S
C4309 C4310 1.387 . S
C4310 H4295 0.930 1_545 S
C4310 C4305 1.390 1_545 S
C4310 C4309 1.387 . S
H4311 C4323 0.930 . S
H4312 C4325 0.930 . S
H4313 C4326 0.930 . S
H4314 C4330 0.959 . S
H4315 C4330 0.959 . S
H4316 C4330 0.961 . S
H4317 C4331 0.960 . S
H4318 C4331 0.961 . S
H4319 C4331 0.959 . S
H4320 C4334 0.929 . S
H4321 C4335 0.931 . S
H4322 C4337 0.930 . S
C4323 H4311 0.930 . S
C4323 C4324 1.399 . S
C4323 C4328 1.399 . S
C4324 C4323 1.399 . S
C4324 C4325 1.376 . S
C4325 H4312 0.930 . S
C4325 C4324 1.376 . S
C4325 C4326 1.388 . S
C4326 H4313 0.930 . S
C4326 C4325 1.388 . S
C4326 C4327 1.390 . S
C4327 C4326 1.390 . S
C4327 C4328 1.394 . S
C4327 C4333 1.465 . S
C4328 C4323 1.399 . S
C4328 C4327 1.394 . S
C4328 C4329 1.516 . S
C4329 C4328 1.516 . S
C4329 C4330 1.502 . S
C4329 C4331 1.561 . S
C4329 C4332 1.526 . S
C4330 H4314 0.959 . S
C4330 H4315 0.959 . S
C4330 H4316 0.961 . S
C4330 C4329 1.502 . S
C4331 H4317 0.960 . S
C4331 H4318 0.961 . S
C4331 H4319 0.959 . S
C4331 C4329 1.561 . S
C4332 C4329 1.526 . S
C4332 C4333 1.396 . S
C4332 C4337 1.390 . S
C4333 C4327 1.465 . S
C4333 C4332 1.396 . S
C4333 C4334 1.399 . S
C4334 H4320 0.929 . S
C4334 C4333 1.399 . S
C4334 C4335 1.385 . S
C4335 H4321 0.931 . S
C4335 C4334 1.385 . S
C4335 C4336 1.389 . S
C4336 C4335 1.389 . S
C4336 C4337 1.387 . S
C4337 H4322 0.930 . S
C4337 C4332 1.390 . S
C4337 C4336 1.387 . S
H4338 C4350 0.930 . S
H4339 C4352 0.930 . S
H4340 C4353 0.930 . S
H4341 C4357 0.959 . S
H4342 C4357 0.959 . S
H4343 C4357 0.961 . S
H4344 C4358 0.960 . S
H4345 C4358 0.961 . S
H4346 C4358 0.959 . S
H4347 C4361 0.929 . S
H4348 C4362 0.931 . S
H4349 C4364 0.930 . S
C4350 H4338 0.930 . S
C4350 C4351 1.399 . S
C4350 C4355 1.399 . S
C4351 C4350 1.399 . S
C4351 C4352 1.376 . S
C4352 H4339 0.930 . S
C4352 C4351 1.376 . S
C4352 C4353 1.388 1_545 S
C4353 H4340 0.930 . S
C4353 C4352 1.388 1_565 S
C4353 C4354 1.390 . S
C4354 C4353 1.390 . S
C4354 C4355 1.394 1_565 S
C4354 C4360 1.465 . S
C4355 C4350 1.399 . S
C4355 C4354 1.394 1_545 S
C4355 C4356 1.516 . S
C4356 C4355 1.516 . S
C4356 C4357 1.502 . S
C4356 C4358 1.561 . S
C4356 C4359 1.526 1_545 S
C4357 H4341 0.959 . S
C4357 H4342 0.959 . S
C4357 H4343 0.961 . S
C4357 C4356 1.502 . S
C4358 H4344 0.960 . S
C4358 H4345 0.961 . S
C4358 H4346 0.959 . S
C4358 C4356 1.561 . S
C4359 C4356 1.526 1_565 S
C4359 C4360 1.396 . S
C4359 C4364 1.390 . S
C4360 C4354 1.465 . S
C4360 C4359 1.396 . S
C4360 C4361 1.399 . S
C4361 H4347 0.929 . S
C4361 C4360 1.399 . S
C4361 C4362 1.385 . S
C4362 H4348 0.931 . S
C4362 C4361 1.385 . S
C4362 C4363 1.389 . S
C4363 C4362 1.389 . S
C4363 C4364 1.387 . S
C4364 H4349 0.930 . S
C4364 C4359 1.390 . S
C4364 C4363 1.387 . S
H4365 C4377 0.930 . S
H4366 C4379 0.930 . S
H4367 C4380 0.930 . S
H4368 C4384 0.959 . S
H4369 C4384 0.959 . S
H4370 C4384 0.961 . S
H4371 C4385 0.960 . S
H4372 C4385 0.961 1_554 S
H4373 C4385 0.959 . S
H4374 C4388 0.929 1_556 S
H4375 C4389 0.931 . S
H4376 C4391 0.930 . S
C4377 H4365 0.930 . S
C4377 C4378 1.399 . S
C4377 C4382 1.399 . S
C4378 C4377 1.399 . S
C4378 C4379 1.376 . S
C4379 H4366 0.930 . S
C4379 C4378 1.376 . S
C4379 C4380 1.388 . S
C4380 H4367 0.930 . S
C4380 C4379 1.388 . S
C4380 C4381 1.390 . S
C4381 C4380 1.390 . S
C4381 C4382 1.394 . S
C4381 C4387 1.499 . S
C4382 C4377 1.399 . S
C4382 C4381 1.394 . S
C4382 C4383 1.516 1_556 S
C4383 C4382 1.516 1_554 S
C4383 C4384 1.502 . S
C4383 C4385 1.561 1_554 S
C4383 C4386 1.526 . S
C4384 H4368 0.959 . S
C4384 H4369 0.959 . S
C4384 H4370 0.961 . S
C4384 C4383 1.502 . S
C4385 H4371 0.960 . S
C4385 H4372 0.961 1_556 S
C4385 H4373 0.959 . S
C4385 C4383 1.561 1_556 S
C4386 C4383 1.526 . S
C4386 C4387 1.367 1_554 S
C4386 C4391 1.390 . S
C4387 C4381 1.499 . S
C4387 C4386 1.367 1_556 S
C4387 C4388 1.393 1_556 S
C4388 H4374 0.929 1_554 S
C4388 C4387 1.393 1_554 S
C4388 C4389 1.385 . S
C4389 H4375 0.931 . S
C4389 C4388 1.385 . S
C4389 C4390 1.389 . S
C4390 C4389 1.389 . S
C4390 C4391 1.387 . S
C4391 H4376 0.930 . S
C4391 C4386 1.390 . S
C4391 C4390 1.387 . S
H4392 C4404 0.930 . S
H4393 C4406 0.930 . S
H4394 C4407 0.930 . S
H4395 C4411 0.959 . S
H4396 C4411 0.959 . S
H4397 C4411 0.961 . S
H4398 C4412 0.960 . S
H4399 C4412 0.961 . S
H4400 C4412 0.959 . S
H4401 C4415 0.905 1_554 S
H4402 C4416 0.931 . S
H4403 C4418 0.930 . S
C4404 H4392 0.930 . S
C4404 C4405 1.399 . S
C4404 C4409 1.399 . S
C4405 C4404 1.399 . S
C4405 C4406 1.376 . S
C4406 H4393 0.930 . S
C4406 C4405 1.376 . S
C4406 C4407 1.388 . S
C4407 H4394 0.930 . S
C4407 C4406 1.388 . S
C4407 C4408 1.390 . S
C4408 C4407 1.390 . S
C4408 C4409 1.394 . S
C4408 C4414 1.462 . S
C4409 C4404 1.399 . S
C4409 C4408 1.394 . S
C4409 C4410 1.514 1_554 S
C4410 C4409 1.514 1_556 S
C4410 C4411 1.504 . S
C4410 C4412 1.560 1_556 S
C4410 C4413 1.527 . S
C4411 H4395 0.959 . S
C4411 H4396 0.959 . S
C4411 H4397 0.961 . S
C4411 C4410 1.504 . S
C4412 H4398 0.960 . S
C4412 H4399 0.961 . S
C4412 H4400 0.959 . S
C4412 C4410 1.560 1_554 S
C4413 C4410 1.527 . S
C4413 C4414 1.399 1_556 S
C4413 C4418 1.390 . S
C4414 C4408 1.462 . S
C4414 C4413 1.399 1_554 S
C4414 C4415 1.400 1_554 S
C4415 H4401 0.905 1_556 S
C4415 C4414 1.400 1_556 S
C4415 C4416 1.385 . S
C4416 H4402 0.931 . S
C4416 C4415 1.385 . S
C4416 C4417 1.389 . S
C4417 C4416 1.389 . S
C4417 C4418 1.387 . S
C4418 H4403 0.930 . S
C4418 C4413 1.390 . S
C4418 C4417 1.387 . S
H4419 C4431 0.930 . S
H4420 C4433 0.930 . S
H4421 C4434 0.930 . S
H4422 C4438 0.959 . S
H4423 C4438 0.959 . S
H4424 C4438 0.961 . S
H4425 C4439 0.960 . S
H4426 C4439 0.961 . S
H4427 C4439 0.959 . S
H4428 C4442 0.929 . S
H4429 C4443 0.931 . S
H4430 C4445 0.930 . S
C4431 H4419 0.930 . S
C4431 C4432 1.399 . S
C4431 C4436 1.399 . S
C4432 C4431 1.399 . S
C4432 C4433 1.376 . S
C4433 H4420 0.930 . S
C4433 C4432 1.376 . S
C4433 C4434 1.388 . S
C4434 H4421 0.930 . S
C4434 C4433 1.388 . S
C4434 C4435 1.390 . S
C4435 C4434 1.390 . S
C4435 C4436 1.394 . S
C4435 C4441 1.465 . S
C4436 C4431 1.399 . S
C4436 C4435 1.394 . S
C4436 C4437 1.516 . S
C4437 C4436 1.516 . S
C4437 C4438 1.502 . S
C4437 C4439 1.561 . S
C4437 C4440 1.526 . S
C4438 H4422 0.959 . S
C4438 H4423 0.959 . S
C4438 H4424 0.961 . S
C4438 C4437 1.502 . S
C4439 H4425 0.960 . S
C4439 H4426 0.961 . S
C4439 H4427 0.959 . S
C4439 C4437 1.561 . S
C4440 C4437 1.526 . S
C4440 C4441 1.396 . S
C4440 C4445 1.390 . S
C4441 C4435 1.465 . S
C4441 C4440 1.396 . S
C4441 C4442 1.399 . S
C4442 H4428 0.929 . S
C4442 C4441 1.399 . S
C4442 C4443 1.385 . S
C4443 H4429 0.931 . S
C4443 C4442 1.385 . S
C4443 C4444 1.389 . S
C4444 C4443 1.389 . S
C4444 C4445 1.387 . S
C4445 H4430 0.930 . S
C4445 C4440 1.390 . S
C4445 C4444 1.387 . S
H4446 C4458 0.930 . S
H4447 C4460 0.930 . S
H4448 C4461 0.930 . S
H4449 C4465 0.959 . S
H4450 C4465 0.959 . S
H4451 C4465 0.961 . S
H4452 C4466 0.960 . S
H4453 C4466 0.961 . S
H4454 C4466 0.959 . S
H4455 C4469 0.929 . S
H4456 C4470 0.931 . S
H4457 C4472 0.930 . S
C4458 H4446 0.930 . S
C4458 C4459 1.399 . S
C4458 C4463 1.399 . S
C4459 C4458 1.399 . S
C4459 C4460 1.376 . S
C4460 H4447 0.930 . S
C4460 C4459 1.376 . S
C4460 C4461 1.388 . S
C4461 H4448 0.930 . S
C4461 C4460 1.388 . S
C4461 C4462 1.390 . S
C4462 C4461 1.390 . S
C4462 C4463 1.394 . S
C4462 C4468 1.465 . S
C4463 C4458 1.399 . S
C4463 C4462 1.394 . S
C4463 C4464 1.516 . S
C4464 C4463 1.516 . S
C4464 C4465 1.502 . S
C4464 C4466 1.561 . S
C4464 C4467 1.526 . S
C4465 H4449 0.959 . S
C4465 H4450 0.959 . S
C4465 H4451 0.961 . S
C4465 C4464 1.502 . S
C4466 H4452 0.960 . S
C4466 H4453 0.961 . S
C4466 H4454 0.959 . S
C4466 C4464 1.561 . S
C4467 C4464 1.526 . S
C4467 C4468 1.396 . S
C4467 C4472 1.390 . S
C4468 C4462 1.465 . S
C4468 C4467 1.396 . S
C4468 C4469 1.399 . S
C4469 H4455 0.929 . S
C4469 C4468 1.399 . S
C4469 C4470 1.385 . S
C4470 H4456 0.931 . S
C4470 C4469 1.385 . S
C4470 C4471 1.389 . S
C4471 C4470 1.389 . S
C4471 C4472 1.387 . S
C4472 H4457 0.930 . S
C4472 C4467 1.390 . S
C4472 C4471 1.387 . S
H4473 C4485 0.930 . S
H4474 C4487 0.930 . S
H4475 C4488 0.930 . S
H4476 C4492 0.959 . S
H4477 C4492 0.959 . S
H4478 C4492 0.961 . S
H4479 C4493 0.960 . S
H4480 C4493 0.961 . S
H4481 C4493 0.959 . S
H4482 C4496 0.929 . S
H4483 C4497 0.931 . S
H4484 C4499 0.930 . S
C4485 H4473 0.930 . S
C4485 C4486 1.399 . S
C4485 C4490 1.399 . S
C4486 C4485 1.399 . S
C4486 C4487 1.376 . S
C4487 H4474 0.930 . S
C4487 C4486 1.376 . S
C4487 C4488 1.388 . S
C4488 H4475 0.930 . S
C4488 C4487 1.388 . S
C4488 C4489 1.390 . S
C4489 C4488 1.390 . S
C4489 C4490 1.394 . S
C4489 C4495 1.465 . S
C4490 C4485 1.399 . S
C4490 C4489 1.394 . S
C4490 C4491 1.516 . S
C4491 C4490 1.516 . S
C4491 C4492 1.502 . S
C4491 C4493 1.561 . S
C4491 C4494 1.526 . S
C4492 H4476 0.959 . S
C4492 H4477 0.959 . S
C4492 H4478 0.961 . S
C4492 C4491 1.502 . S
C4493 H4479 0.960 . S
C4493 H4480 0.961 . S
C4493 H4481 0.959 . S
C4493 C4491 1.561 . S
C4494 C4491 1.526 . S
C4494 C4495 1.396 . S
C4494 C4499 1.390 . S
C4495 C4489 1.465 . S
C4495 C4494 1.396 . S
C4495 C4496 1.399 . S
C4496 H4482 0.929 . S
C4496 C4495 1.399 . S
C4496 C4497 1.385 . S
C4497 H4483 0.931 . S
C4497 C4496 1.385 . S
C4497 C4498 1.389 . S
C4498 C4497 1.389 . S
C4498 C4499 1.387 . S
C4499 H4484 0.930 . S
C4499 C4494 1.390 . S
C4499 C4498 1.387 . S
H4500 C4512 0.930 . S
H4501 C4514 0.930 . S
H4502 C4515 0.930 . S
H4503 C4519 0.959 . S
H4504 C4519 0.959 . S
H4505 C4519 0.961 . S
H4506 C4520 0.960 1_655 S
H4507 C4520 0.961 . S
H4508 C4520 0.959 . S
H4509 C4523 0.929 . S
H4510 C4524 0.931 . S
H4511 C4526 0.930 . S
C4512 H4500 0.930 . S
C4512 C4513 1.399 . S
C4512 C4517 1.399 . S
C4513 C4512 1.399 . S
C4513 C4514 1.376 . S
C4514 H4501 0.930 . S
C4514 C4513 1.376 . S
C4514 C4515 1.388 . S
C4515 H4502 0.930 . S
C4515 C4514 1.388 . S
C4515 C4516 1.390 . S
C4516 C4515 1.390 . S
C4516 C4517 1.394 . S
C4516 C4522 1.445 1_655 S
C4517 C4512 1.399 . S
C4517 C4516 1.394 . S
C4517 C4518 1.516 . S
C4518 C4517 1.516 . S
C4518 C4519 1.502 . S
C4518 C4520 1.561 1_655 S
C4518 C4521 1.526 1_655 S
C4519 H4503 0.959 . S
C4519 H4504 0.959 . S
C4519 H4505 0.961 . S
C4519 C4518 1.502 . S
C4520 H4506 0.960 1_455 S
C4520 H4507 0.961 . S
C4520 H4508 0.959 . S
C4520 C4518 1.561 1_455 S
C4521 C4518 1.526 1_455 S
C4521 C4522 1.400 . S
C4521 C4526 1.390 . S
C4522 C4516 1.445 1_455 S
C4522 C4521 1.400 . S
C4522 C4523 1.415 . S
C4523 H4509 0.929 . S
C4523 C4522 1.415 . S
C4523 C4524 1.385 . S
C4524 H4510 0.931 . S
C4524 C4523 1.385 . S
C4524 C4525 1.389 . S
C4525 C4524 1.389 . S
C4525 C4526 1.387 . S
C4526 H4511 0.930 . S
C4526 C4521 1.390 . S
C4526 C4525 1.387 . S
H4527 C4539 0.930 . S
H4528 C4541 0.930 . S
H4529 C4542 0.930 . S
H4530 C4546 0.959 . S
H4531 C4546 0.959 . S
H4532 C4546 0.961 . S
H4533 C4547 0.960 1_655 S
H4534 C4547 0.961 . S
H4535 C4547 0.959 . S
H4536 C4550 0.929 . S
H4537 C4551 0.931 . S
H4538 C4553 0.930 . S
C4539 H4527 0.930 . S
C4539 C4540 1.399 . S
C4539 C4544 1.399 . S
C4540 C4539 1.399 . S
C4540 C4541 1.376 . S
C4541 H4528 0.930 . S
C4541 C4540 1.376 . S
C4541 C4542 1.388 . S
C4542 H4529 0.930 . S
C4542 C4541 1.388 . S
C4542 C4543 1.390 . S
C4543 C4542 1.390 . S
C4543 C4544 1.394 . S
C4543 C4549 1.469 1_655 S
C4544 C4539 1.399 . S
C4544 C4543 1.394 . S
C4544 C4545 1.516 . S
C4545 C4544 1.516 . S
C4545 C4546 1.502 . S
C4545 C4547 1.561 1_655 S
C4545 C4548 1.526 1_655 S
C4546 H4530 0.959 . S
C4546 H4531 0.959 . S
C4546 H4532 0.961 . S
C4546 C4545 1.502 . S
C4547 H4533 0.960 1_455 S
C4547 H4534 0.961 . S
C4547 H4535 0.959 . S
C4547 C4545 1.561 1_455 S
C4548 C4545 1.526 1_455 S
C4548 C4549 1.396 . S
C4548 C4553 1.390 . S
C4549 C4543 1.469 1_455 S
C4549 C4548 1.396 . S
C4549 C4550 1.396 . S
C4550 H4536 0.929 . S
C4550 C4549 1.396 . S
C4550 C4551 1.385 . S
C4551 H4537 0.931 . S
C4551 C4550 1.385 . S
C4551 C4552 1.389 . S
C4552 C4551 1.389 . S
C4552 C4553 1.387 . S
C4553 H4538 0.930 . S
C4553 C4548 1.390 . S
C4553 C4552 1.387 . S
H4554 C4566 0.930 . S
H4555 C4568 0.930 . S
H4556 C4569 0.930 . S
H4557 C4573 0.959 . S
H4558 C4573 0.959 . S
H4559 C4573 0.961 . S
H4560 C4574 0.960 . S
H4561 C4574 0.961 . S
H4562 C4574 0.959 . S
H4563 C4577 0.929 . S
H4564 C4578 0.931 . S
H4565 C4580 0.930 . S
C4566 H4554 0.930 . S
C4566 C4567 1.399 . S
C4566 C4571 1.399 . S
C4567 C4566 1.399 . S
C4567 C4568 1.376 . S
C4568 H4555 0.930 . S
C4568 C4567 1.376 . S
C4568 C4569 1.388 . S
C4569 H4556 0.930 . S
C4569 C4568 1.388 . S
C4569 C4570 1.390 . S
C4570 C4569 1.390 . S
C4570 C4571 1.394 . S
C4570 C4576 1.465 . S
C4571 C4566 1.399 . S
C4571 C4570 1.394 . S
C4571 C4572 1.516 . S
C4572 C4571 1.516 . S
C4572 C4573 1.502 . S
C4572 C4574 1.561 . S
C4572 C4575 1.526 . S
C4573 H4557 0.959 . S
C4573 H4558 0.959 . S
C4573 H4559 0.961 . S
C4573 C4572 1.502 . S
C4574 H4560 0.960 . S
C4574 H4561 0.961 . S
C4574 H4562 0.959 . S
C4574 C4572 1.561 . S
C4575 C4572 1.526 . S
C4575 C4576 1.396 . S
C4575 C4580 1.390 . S
C4576 C4570 1.465 . S
C4576 C4575 1.396 . S
C4576 C4577 1.399 . S
C4577 H4563 0.929 . S
C4577 C4576 1.399 . S
C4577 C4578 1.385 . S
C4578 H4564 0.931 . S
C4578 C4577 1.385 . S
C4578 C4579 1.389 . S
C4579 C4578 1.389 . S
C4579 C4580 1.387 . S
C4580 H4565 0.930 . S
C4580 C4575 1.390 . S
C4580 C4579 1.387 . S
H4581 C4593 0.930 . S
H4582 C4595 0.930 . S
H4583 C4596 0.930 . S
H4584 C4600 0.959 . S
H4585 C4600 0.959 . S
H4586 C4600 0.961 . S
H4587 C4601 0.960 . S
H4588 C4601 0.961 . S
H4589 C4601 0.959 . S
H4590 C4604 0.929 . S
H4591 C4605 0.931 . S
H4592 C4607 0.930 . S
C4593 H4581 0.930 . S
C4593 C4594 1.399 . S
C4593 C4598 1.399 . S
C4594 C4593 1.399 . S
C4594 C4595 1.376 . S
C4595 H4582 0.930 . S
C4595 C4594 1.376 . S
C4595 C4596 1.388 . S
C4596 H4583 0.930 . S
C4596 C4595 1.388 . S
C4596 C4597 1.390 . S
C4597 C4596 1.390 . S
C4597 C4598 1.394 . S
C4597 C4603 1.465 . S
C4598 C4593 1.399 . S
C4598 C4597 1.394 . S
C4598 C4599 1.516 . S
C4599 C4598 1.516 . S
C4599 C4600 1.502 . S
C4599 C4601 1.561 . S
C4599 C4602 1.526 . S
C4600 H4584 0.959 . S
C4600 H4585 0.959 . S
C4600 H4586 0.961 . S
C4600 C4599 1.502 . S
C4601 H4587 0.960 . S
C4601 H4588 0.961 . S
C4601 H4589 0.959 . S
C4601 C4599 1.561 . S
C4602 C4599 1.526 . S
C4602 C4603 1.396 . S
C4602 C4607 1.390 . S
C4603 C4597 1.465 . S
C4603 C4602 1.396 . S
C4603 C4604 1.399 . S
C4604 H4590 0.929 . S
C4604 C4603 1.399 . S
C4604 C4605 1.385 . S
C4605 H4591 0.931 . S
C4605 C4604 1.385 . S
C4605 C4606 1.389 . S
C4606 C4605 1.389 . S
C4606 C4607 1.387 . S
C4607 H4592 0.930 . S
C4607 C4602 1.390 . S
C4607 C4606 1.387 . S
H4608 C4620 0.930 . S
H4609 C4622 0.930 . S
H4610 C4623 0.930 . S
H4611 C4627 0.959 . S
H4612 C4627 0.959 . S
H4613 C4627 0.961 . S
H4614 C4628 0.960 . S
H4615 C4628 0.961 . S
H4616 C4628 0.959 . S
H4617 C4631 0.929 . S
H4618 C4632 0.931 . S
H4619 C4634 0.930 . S
C4620 H4608 0.930 . S
C4620 C4621 1.399 . S
C4620 C4625 1.399 . S
C4621 C4620 1.399 . S
C4621 C4622 1.376 . S
C4622 H4609 0.930 . S
C4622 C4621 1.376 . S
C4622 C4623 1.388 . S
C4623 H4610 0.930 . S
C4623 C4622 1.388 . S
C4623 C4624 1.390 . S
C4624 C4623 1.390 . S
C4624 C4625 1.394 . S
C4624 C4630 1.465 . S
C4625 C4620 1.399 . S
C4625 C4624 1.394 . S
C4625 C4626 1.516 . S
C4626 C4625 1.516 . S
C4626 C4627 1.502 . S
C4626 C4628 1.561 . S
C4626 C4629 1.526 . S
C4627 H4611 0.959 . S
C4627 H4612 0.959 . S
C4627 H4613 0.961 . S
C4627 C4626 1.502 . S
C4628 H4614 0.960 . S
C4628 H4615 0.961 . S
C4628 H4616 0.959 . S
C4628 C4626 1.561 . S
C4629 C4626 1.526 . S
C4629 C4630 1.396 . S
C4629 C4634 1.390 1_545 S
C4630 C4624 1.465 . S
C4630 C4629 1.396 . S
C4630 C4631 1.399 1_545 S
C4631 H4617 0.929 . S
C4631 C4630 1.399 1_565 S
C4631 C4632 1.385 . S
C4632 H4618 0.931 . S
C4632 C4631 1.385 . S
C4632 C4633 1.389 . S
C4633 C4632 1.389 . S
C4633 C4634 1.387 . S
C4634 H4619 0.930 . S
C4634 C4629 1.390 1_565 S
C4634 C4633 1.387 . S
H4635 C4647 0.930 . S
H4636 C4649 0.930 . S
H4637 C4650 0.930 . S
H4638 C4654 0.959 . S
H4639 C4654 0.959 . S
H4640 C4654 0.961 . S
H4641 C4655 0.960 . S
H4642 C4655 0.961 . S
H4643 C4655 0.959 . S
H4644 C4658 0.929 . S
H4645 C4659 0.931 . S
H4646 C4661 0.930 . S
C4647 H4635 0.930 . S
C4647 C4648 1.399 . S
C4647 C4652 1.399 . S
C4648 C4647 1.399 . S
C4648 C4649 1.376 . S
C4649 H4636 0.930 . S
C4649 C4648 1.376 . S
C4649 C4650 1.388 . S
C4650 H4637 0.930 . S
C4650 C4649 1.388 . S
C4650 C4651 1.390 . S
C4651 C4650 1.390 . S
C4651 C4652 1.394 . S
C4651 C4657 1.465 . S
C4652 C4647 1.399 . S
C4652 C4651 1.394 . S
C4652 C4653 1.516 . S
C4653 C4652 1.516 . S
C4653 C4654 1.502 . S
C4653 C4655 1.561 . S
C4653 C4656 1.526 . S
C4654 H4638 0.959 . S
C4654 H4639 0.959 . S
C4654 H4640 0.961 . S
C4654 C4653 1.502 . S
C4655 H4641 0.960 . S
C4655 H4642 0.961 . S
C4655 H4643 0.959 . S
C4655 C4653 1.561 . S
C4656 C4653 1.526 . S
C4656 C4657 1.396 . S
C4656 C4661 1.390 . S
C4657 C4651 1.465 . S
C4657 C4656 1.396 . S
C4657 C4658 1.399 . S
C4658 H4644 0.929 . S
C4658 C4657 1.399 . S
C4658 C4659 1.385 . S
C4659 H4645 0.931 . S
C4659 C4658 1.385 . S
C4659 C4660 1.389 . S
C4660 C4659 1.389 . S
C4660 C4661 1.387 . S
C4661 H4646 0.930 . S
C4661 C4656 1.390 . S
C4661 C4660 1.387 . S
H4662 C4674 0.930 . S
H4663 C4676 0.930 . S
H4664 C4677 0.930 . S
H4665 C4681 0.959 . S
H4666 C4681 0.959 . S
H4667 C4681 0.961 . S
H4668 C4682 0.960 . S
H4669 C4682 0.961 . S
H4670 C4682 0.959 . S
H4671 C4685 0.929 . S
H4672 C4686 0.931 . S
H4673 C4688 0.930 . S
C4674 H4662 0.930 . S
C4674 C4675 1.399 . S
C4674 C4679 1.399 . S
C4675 C4674 1.399 . S
C4675 C4676 1.376 . S
C4676 H4663 0.930 . S
C4676 C4675 1.376 . S
C4676 C4677 1.388 . S
C4677 H4664 0.930 . S
C4677 C4676 1.388 . S
C4677 C4678 1.390 . S
C4678 C4677 1.390 . S
C4678 C4679 1.394 . S
C4678 C4684 1.465 . S
C4679 C4674 1.399 . S
C4679 C4678 1.394 . S
C4679 C4680 1.516 1_545 S
C4680 C4679 1.516 1_565 S
C4680 C4681 1.502 . S
C4680 C4682 1.561 . S
C4680 C4683 1.526 . S
C4681 H4665 0.959 . S
C4681 H4666 0.959 . S
C4681 H4667 0.961 . S
C4681 C4680 1.502 . S
C4682 H4668 0.960 . S
C4682 H4669 0.961 . S
C4682 H4670 0.959 . S
C4682 C4680 1.561 . S
C4683 C4680 1.526 . S
C4683 C4684 1.396 1_565 S
C4683 C4688 1.390 . S
C4684 C4678 1.465 . S
C4684 C4683 1.396 1_545 S
C4684 C4685 1.399 . S
C4685 H4671 0.929 . S
C4685 C4684 1.399 . S
C4685 C4686 1.385 1_545 S
C4686 H4672 0.931 . S
C4686 C4685 1.385 1_565 S
C4686 C4687 1.389 . S
C4687 C4686 1.389 . S
C4687 C4688 1.387 . S
C4688 H4673 0.930 . S
C4688 C4683 1.390 . S
C4688 C4687 1.387 . S
H4689 C4701 0.930 . S
H4690 C4703 0.930 . S
H4691 C4704 0.930 . S
H4692 C4708 0.959 . S
H4693 C4708 0.959 . S
H4694 C4708 0.961 . S
H4695 C4709 0.960 . S
H4696 C4709 0.961 . S
H4697 C4709 0.959 1_554 S
H4698 C4712 0.929 . S
H4699 C4713 0.931 . S
H4700 C4715 0.930 . S
C4701 H4689 0.930 . S
C4701 C4702 1.399 . S
C4701 C4706 1.399 . S
C4702 C4701 1.399 . S
C4702 C4703 1.376 . S
C4703 H4690 0.930 . S
C4703 C4702 1.376 . S
C4703 C4704 1.388 1_556 S
C4704 H4691 0.930 . S
C4704 C4703 1.388 1_554 S
C4704 C4705 1.390 . S
C4705 C4704 1.390 . S
C4705 C4706 1.394 1_554 S
C4705 C4711 1.465 . S
C4706 C4701 1.399 . S
C4706 C4705 1.394 1_556 S
C4706 C4707 1.516 . S
C4707 C4706 1.516 . S
C4707 C4708 1.502 . S
C4707 C4709 1.561 . S
C4707 C4710 1.526 1_556 S
C4708 H4692 0.959 . S
C4708 H4693 0.959 . S
C4708 H4694 0.961 . S
C4708 C4707 1.502 . S
C4709 H4695 0.960 . S
C4709 H4696 0.961 . S
C4709 H4697 0.959 1_556 S
C4709 C4707 1.561 . S
C4710 C4707 1.526 1_554 S
C4710 C4711 1.396 . S
C4710 C4715 1.390 . S
C4711 C4705 1.465 . S
C4711 C4710 1.396 . S
C4711 C4712 1.399 . S
C4712 H4698 0.929 . S
C4712 C4711 1.399 . S
C4712 C4713 1.385 . S
C4713 H4699 0.931 . S
C4713 C4712 1.385 . S
C4713 C4714 1.389 . S
C4714 C4713 1.389 . S
C4714 C4715 1.387 . S
C4715 H4700 0.930 . S
C4715 C4710 1.390 . S
C4715 C4714 1.387 . S
H4716 C4728 0.930 . S
H4717 C4730 0.930 . S
H4718 C4731 0.930 . S
H4719 C4735 0.959 . S
H4720 C4735 0.959 1_554 S
H4721 C4735 0.961 . S
H4722 C4736 0.960 . S
H4723 C4736 0.961 . S
H4724 C4736 0.959 . S
H4725 C4739 0.929 . S
H4726 C4740 0.931 . S
H4727 C4742 0.930 . S
C4728 H4716 0.930 . S
C4728 C4729 1.399 . S
C4728 C4733 1.399 . S
C4729 C4728 1.399 . S
C4729 C4730 1.376 . S
C4730 H4717 0.930 . S
C4730 C4729 1.376 . S
C4730 C4731 1.388 . S
C4731 H4718 0.930 . S
C4731 C4730 1.388 . S
C4731 C4732 1.390 . S
C4732 C4731 1.390 . S
C4732 C4733 1.394 . S
C4732 C4738 1.465 . S
C4733 C4728 1.399 . S
C4733 C4732 1.394 . S
C4733 C4734 1.516 . S
C4734 C4733 1.516 . S
C4734 C4735 1.502 . S
C4734 C4736 1.561 1_556 S
C4734 C4737 1.526 1_556 S
C4735 H4719 0.959 . S
C4735 H4720 0.959 1_556 S
C4735 H4721 0.961 . S
C4735 C4734 1.502 . S
C4736 H4722 0.960 . S
C4736 H4723 0.961 . S
C4736 H4724 0.959 . S
C4736 C4734 1.561 1_554 S
C4737 C4734 1.526 1_554 S
C4737 C4738 1.396 1_554 S
C4737 C4742 1.390 . S
C4738 C4732 1.465 . S
C4738 C4737 1.396 1_556 S
C4738 C4739 1.399 . S
C4739 H4725 0.929 . S
C4739 C4738 1.399 . S
C4739 C4740 1.385 1_556 S
C4740 H4726 0.931 . S
C4740 C4739 1.385 1_554 S
C4740 C4741 1.389 . S
C4741 C4740 1.389 . S
C4741 C4742 1.387 . S
C4742 H4727 0.930 . S
C4742 C4737 1.390 . S
C4742 C4741 1.387 . S
H4743 C4755 0.930 . S
H4744 C4757 0.930 . S
H4745 C4758 0.930 . S
H4746 C4762 0.959 . S
H4747 C4762 0.959 . S
H4748 C4762 0.961 . S
H4749 C4763 0.960 . S
H4750 C4763 0.961 . S
H4751 C4763 0.959 . S
H4752 C4766 0.929 . S
H4753 C4767 0.931 . S
H4754 C4769 0.930 . S
C4755 H4743 0.930 . S
C4755 C4756 1.399 . S
C4755 C4760 1.399 . S
C4756 C4755 1.399 . S
C4756 C4757 1.376 . S
C4757 H4744 0.930 . S
C4757 C4756 1.376 . S
C4757 C4758 1.388 . S
C4758 H4745 0.930 . S
C4758 C4757 1.388 . S
C4758 C4759 1.390 . S
C4759 C4758 1.390 . S
C4759 C4760 1.394 . S
C4759 C4765 1.465 . S
C4760 C4755 1.399 . S
C4760 C4759 1.394 . S
C4760 C4761 1.516 . S
C4761 C4760 1.516 . S
C4761 C4762 1.502 . S
C4761 C4763 1.561 . S
C4761 C4764 1.526 . S
C4762 H4746 0.959 . S
C4762 H4747 0.959 . S
C4762 H4748 0.961 . S
C4762 C4761 1.502 . S
C4763 H4749 0.960 . S
C4763 H4750 0.961 . S
C4763 H4751 0.959 . S
C4763 C4761 1.561 . S
C4764 C4761 1.526 . S
C4764 C4765 1.396 . S
C4764 C4769 1.390 . S
C4765 C4759 1.465 . S
C4765 C4764 1.396 . S
C4765 C4766 1.399 . S
C4766 H4752 0.929 . S
C4766 C4765 1.399 . S
C4766 C4767 1.385 . S
C4767 H4753 0.931 . S
C4767 C4766 1.385 . S
C4767 C4768 1.389 . S
C4768 C4767 1.389 . S
C4768 C4769 1.387 . S
C4769 H4754 0.930 . S
C4769 C4764 1.390 . S
C4769 C4768 1.387 . S
H4770 C4782 0.930 . S
H4771 C4784 0.930 . S
H4772 C4785 0.930 . S
H4773 C4789 0.959 . S
H4774 C4789 0.959 . S
H4775 C4789 0.961 . S
H4776 C4790 0.960 . S
H4777 C4790 0.961 . S
H4778 C4790 0.959 . S
H4779 C4793 0.929 . S
H4780 C4794 0.931 . S
H4781 C4796 0.930 . S
C4782 H4770 0.930 . S
C4782 C4783 1.399 . S
C4782 C4787 1.399 . S
C4783 C4782 1.399 . S
C4783 C4784 1.376 . S
C4784 H4771 0.930 . S
C4784 C4783 1.376 . S
C4784 C4785 1.388 . S
C4785 H4772 0.930 . S
C4785 C4784 1.388 . S
C4785 C4786 1.390 . S
C4786 C4785 1.390 . S
C4786 C4787 1.394 . S
C4786 C4792 1.465 . S
C4787 C4782 1.399 . S
C4787 C4786 1.394 . S
C4787 C4788 1.516 . S
C4788 C4787 1.516 . S
C4788 C4789 1.502 . S
C4788 C4790 1.561 . S
C4788 C4791 1.526 . S
C4789 H4773 0.959 . S
C4789 H4774 0.959 . S
C4789 H4775 0.961 . S
C4789 C4788 1.502 . S
C4790 H4776 0.960 . S
C4790 H4777 0.961 . S
C4790 H4778 0.959 . S
C4790 C4788 1.561 . S
C4791 C4788 1.526 . S
C4791 C4792 1.396 . S
C4791 C4796 1.390 . S
C4792 C4786 1.465 . S
C4792 C4791 1.396 . S
C4792 C4793 1.399 . S
C4793 H4779 0.929 . S
C4793 C4792 1.399 . S
C4793 C4794 1.385 . S
C4794 H4780 0.931 . S
C4794 C4793 1.385 . S
C4794 C4795 1.389 . S
C4795 C4794 1.389 . S
C4795 C4796 1.387 . S
C4796 H4781 0.930 . S
C4796 C4791 1.390 . S
C4796 C4795 1.387 . S
H4797 C4809 0.930 . S
H4798 C4811 0.930 . S
H4799 C4812 0.930 . S
H4800 C4816 0.959 . S
H4801 C4816 0.959 . S
H4802 C4816 0.961 . S
H4803 C4817 0.960 . S
H4804 C4817 0.961 . S
H4805 C4817 0.959 . S
H4806 C4820 0.929 . S
H4807 C4821 0.931 . S
H4808 C4823 0.930 . S
C4809 H4797 0.930 . S
C4809 C4810 1.399 . S
C4809 C4814 1.399 . S
C4810 C4809 1.399 . S
C4810 C4811 1.376 . S
C4811 H4798 0.930 . S
C4811 C4810 1.376 . S
C4811 C4812 1.388 . S
C4812 H4799 0.930 . S
C4812 C4811 1.388 . S
C4812 C4813 1.390 . S
C4813 C4812 1.390 . S
C4813 C4814 1.394 . S
C4813 C4819 1.465 . S
C4814 C4809 1.399 . S
C4814 C4813 1.394 . S
C4814 C4815 1.516 . S
C4815 C4814 1.516 . S
C4815 C4816 1.502 . S
C4815 C4817 1.561 . S
C4815 C4818 1.526 . S
C4816 H4800 0.959 . S
C4816 H4801 0.959 . S
C4816 H4802 0.961 . S
C4816 C4815 1.502 . S
C4817 H4803 0.960 . S
C4817 H4804 0.961 . S
C4817 H4805 0.959 . S
C4817 C4815 1.561 . S
C4818 C4815 1.526 . S
C4818 C4819 1.396 . S
C4818 C4823 1.390 . S
C4819 C4813 1.465 . S
C4819 C4818 1.396 . S
C4819 C4820 1.399 . S
C4820 H4806 0.929 . S
C4820 C4819 1.399 . S
C4820 C4821 1.385 . S
C4821 H4807 0.931 . S
C4821 C4820 1.385 . S
C4821 C4822 1.389 . S
C4822 C4821 1.389 . S
C4822 C4823 1.387 . S
C4823 H4808 0.930 . S
C4823 C4818 1.390 . S
C4823 C4822 1.387 . S
C1597 N2 0.827 . S
C1609 C1275 0.827 . S
C1624 N35 0.709 . S
C1636 C1195 0.809 . S
C1651 N79 0.717 . S
C1663 C1572 0.617 . S
C1678 C1129 1.122 . S
C1690 N112 1.135 . S
C1705 N134 0.950 . S
C1717 C1327 0.853 . S
C1732 C1077 1.004 . S
C1744 N178 0.891 . S
C1759 N211 0.959 . S
C1771 C1360 1.052 . S
C1786 N233 0.708 . S
C1798 C1011 0.679 . S
C1813 C997 0.875 . S
C1825 N277 0.835 . S
C1840 N310 1.032 . S
C1852 C1341 1.113 . S
C1867 N332 1.017 . S
C1879 C1063 0.980 . S
C1894 C1374 0.897 . S
C1906 N376 0.725 . S
C1921 N409 0.883 . S
C1933 C1209 0.767 . S
C1948 N431 0.810 . S
C1960 C1558 0.878 . S
C1975 C1143 0.733 . S
C1987 N464 0.822 . S
C2002 N497 0.761 . S
C2014 C1261 0.838 . S
C2029 C799 0.993 . S
C2041 N365 1.065 . S
C2056 C700 0.876 . S
C2068 N541 0.838 . S
C2083 N574 0.774 . S
C2095 C912 0.949 . S
C2110 C780 0.838 . S
C2122 N607 0.856 . S
C2137 C813 0.929 . S
C2149 N398 0.998 . S
C2164 N299 1.110 . S
C2176 C733 1.061 . S
C2191 C766 0.602 . S
C2203 N640 0.745 . S
C2218 C714 0.932 . S
C2230 N662 0.890 . S
C2245 C568 0.976 . S
C2257 N695 1.042 . S
C2272 C502 0.743 . S
C2284 N739 0.950 . S
C2299 C1473 0.648 . S
C2311 N772 0.728 . S
C2326 N805 0.751 . S
C2338 C436 0.882 . S
C2353 C634 1.108 . S
C2365 N827 1.142 . S
C2380 N871 1.058 . S
C2392 C384 1.104 . S
C2407 C681 0.691 . S
C2419 N893 0.616 . S
C2434 C318 0.954 . S
C2446 N926 0.914 . S
C2461 C304 0.697 . S
C2473 N959 0.579 . S
C2488 C648 0.968 . S
C2500 N1003 0.869 . S
C2515 N1025 0.848 . S
C2527 C370 0.880 . S
C2542 N1069 1.148 . S
C2554 C667 1.277 . S
C2569 N1102 0.979 . S
C2581 C516 0.945 . S
C2596 N1124 0.794 . S
C2608 C1459 0.873 . S
C2623 N1168 1.139 . S
C2635 C450 1.127 . S
C2650 N1190 0.573 . S
C2662 C582 0.606 . S
C2677 C106 1.058 . S
C2689 N1058 1.159 . S
C2704 C7 0.768 . S
C2716 N1234 0.908 . S
C2731 C205 0.786 . S
C2743 N1256 0.918 . S
C2758 C87 0.896 . S
C2770 N1300 0.738 . S
C2785 N1091 0.893 . S
C2797 C120 0.881 . S
C2812 C54 0.963 . S
C2824 N992 0.948 . S
C2839 C73 0.746 . S
C2851 N1333 0.832 . S
C2866 N1366 0.951 . S
C2878 C21 0.893 . S
C2893 C1176 0.908 . S
C2905 N167 0.834 . S
C2920 C1294 0.787 . S
C2932 N200 0.710 . S
C2947 N244 0.667 . S
C2959 C1110 0.776 . S
C2974 C1228 1.126 . S
C2986 N145 1.129 . S
C3001 N101 0.947 . S
C3013 C1030 0.978 . S
C3028 N13 0.848 . S
C3040 C1539 0.976 . S
C3055 C964 0.991 . S
C3067 N46 1.103 . S
C3082 N68 0.718 . S
C3094 C1506 0.619 . S
C3109 N673 0.814 . S
C3121 C1492 0.970 . S
C3136 N1399 1.030 . S
C3148 C1044 1.113 . S
C3163 N629 1.036 . S
C3175 C1525 1.022 . S
C3190 C978 0.749 . S
C3202 N1432 0.896 . S
C3217 N1465 0.674 . S
C3229 C1308 0.845 . S
C3244 N530 0.795 . S
C3256 C1096 0.832 . S
C3271 C1242 0.777 . S
C3283 N563 0.810 . S
C3298 N596 0.752 . S
C3310 C1162 0.782 . S
C3325 C832 1.032 . S
C3337 N1421 1.075 . S
C3352 N442 0.876 . S
C3364 C865 0.760 . S
C3379 N475 0.775 . S
C3391 C747 0.947 . S
C3406 C945 0.874 . S
C3418 N508 0.806 . S
C3433 C846 1.020 . S
C3445 N1454 1.017 . S
C3460 C898 0.896 . S
C3472 N1388 1.146 . S
C3487 N343 0.631 . S
C3499 C931 0.798 . S
C3514 C879 0.873 . S
C3526 N266 0.868 . S
C3541 C469 0.990 . S
C3553 N860 1.040 . S
C3568 C601 0.766 . S
C3580 N904 0.941 . S
C3595 C417 0.751 . S
C3607 N937 0.688 . S
C3622 N838 0.878 . S
C3634 C535 0.797 . S
C3649 C337 1.058 . S
C3661 N794 1.143 . S
C3676 N706 1.049 . S
C3688 C1440 1.109 . S
C3703 C285 0.686 . S
C3715 N728 0.614 . S
C3730 C1407 0.806 . S
C3742 N761 0.908 . S
C3757 C1393 0.642 . S
C3769 N1355 0.600 . S
C3784 N1498 0.878 . S
C3796 C351 0.961 . S
C3811 C1426 0.774 . S
C3823 N1322 0.817 . S
C3838 N1531 1.255 . S
C3850 C271 1.196 . S
C3865 C615 1.019 . S
C3877 N1564 0.880 . S
C3892 C403 0.810 . S
C3904 N1223 0.787 . S
C3919 N1267 1.099 . S
C3931 C549 1.159 . S
C3946 C483 0.684 . S
C3958 N1289 0.616 . S
C3973 N1520 1.173 . S
C3985 C139 1.120 . S
C4000 C172 0.767 . S
C4012 N1135 0.893 . S
C4027 C40 0.799 . S
C4039 N1157 0.917 . S
C4054 N1201 0.795 . S
C4066 C252 0.889 . S
C4081 N1553 0.931 . S
C4093 C153 0.907 . S
C4108 N1487 0.999 . S
C4120 C219 0.880 . S
C4135 N1036 0.821 . S
C4147 C238 0.761 . S
C4162 C186 0.856 . S
C4174 N970 0.977 . S
C4189 C249 2.838 . S
C4201 C18 2.839 . S
C4216 C150 2.653 . S
C4228 C51 2.653 . S
C4243 C183 2.833 . S
C4255 C84 2.838 . S
C4270 C216 2.655 . S
C4282 C117 2.651 . S
C4297 C414 2.683 . S
C4309 C282 2.680 . S
C4324 C447 2.731 . S
C4336 C315 2.732 . S
C4351 C480 2.741 . S
C4363 C348 2.733 . S
C4378 C513 2.844 . S
C4390 C381 2.842 . S
C4405 C1404 2.730 . S
C4417 C546 2.732 . S
C4432 C579 2.731 . S
C4444 C645 2.742 . S
C4459 C612 2.844 . S
C4471 C1437 2.841 . S
C4486 C678 2.685 . S
C4498 C1470 2.681 . S
C4513 C711 2.683 . S
C4525 C942 2.690 . S
C4540 C843 2.864 . S
C4552 C744 2.863 . S
C4567 C876 2.683 . S
C4579 C777 2.690 . S
C4594 C909 2.852 . S
C4606 C810 2.867 . S
C4621 C1107 2.810 . S
C4633 C975 2.815 . S
C4648 C1008 2.747 . S
C4660 C1140 2.744 . S
C4675 C1041 2.701 . S
C4687 C1173 2.706 . S
C4702 C1074 2.684 . S
C4714 C1206 2.684 . S
C4729 C1503 2.741 . S
C4741 C1239 2.748 . S
C4756 C1338 2.706 . S
C4768 C1272 2.701 . S
C4783 C1305 2.683 . S
C4795 C1536 2.683 . S
C4810 C1569 2.814 . S
C4822 C1371 2.813 . S
