# Generated by pormake.
# Topology qtz-e, (6)-cn, num edge types: 1
# Building blocks:
#     Node 0, Type 0, BuildingBlock: BETDAH_clean_sbu_0, # of connection points: 6
#     Node 1, Type 0, BuildingBlock: BETDAH_clean_sbu_0, # of connection points: 6
#     Node 2, Type 0, BuildingBlock: BETDAH_clean_sbu_0, # of connection points: 6
#     Node 3, Type 0, BuildingBlock: BETDAH_clean_sbu_0, # of connection points: 6
#     Node 4, Type 0, BuildingBlock: BETDAH_clean_sbu_0, # of connection points: 6
#     Node 5, Type 0, BuildingBlock: BETDAH_clean_sbu_0, # of connection points: 6
#     Edge 6, Type (0, 0), BuildingBlock: KIFKEQ_clean_linker_1, # of connection points: 2
#     Edge 7, Type (0, 0), BuildingBlock: KIFKEQ_clean_linker_1, # of connection points: 2
#     Edge 8, Type (0, 0), BuildingBlock: KIFKEQ_clean_linker_1, # of connection points: 2
#     Edge 9, Type (0, 0), BuildingBlock: KIFKEQ_clean_linker_1, # of connection points: 2
#     Edge 10, Type (0, 0), BuildingBlock: KIFKEQ_clean_linker_1, # of connection points: 2
#     Edge 11, Type (0, 0), BuildingBlock: KIFKEQ_clean_linker_1, # of connection points: 2
#     Edge 12, Type (0, 0), BuildingBlock: KIFKEQ_clean_linker_1, # of connection points: 2
#     Edge 13, Type (0, 0), BuildingBlock: KIFKEQ_clean_linker_1, # of connection points: 2
#     Edge 14, Type (0, 0), BuildingBlock: KIFKEQ_clean_linker_1, # of connection points: 2
#     Edge 15, Type (0, 0), BuildingBlock: KIFKEQ_clean_linker_1, # of connection points: 2
#     Edge 16, Type (0, 0), BuildingBlock: KIFKEQ_clean_linker_1, # of connection points: 2
#     Edge 17, Type (0, 0), BuildingBlock: KIFKEQ_clean_linker_1, # of connection points: 2
#     Edge 18, Type (0, 0), BuildingBlock: KIFKEQ_clean_linker_1, # of connection points: 2
#     Edge 19, Type (0, 0), BuildingBlock: KIFKEQ_clean_linker_1, # of connection points: 2
#     Edge 20, Type (0, 0), BuildingBlock: KIFKEQ_clean_linker_1, # of connection points: 2
#     Edge 21, Type (0, 0), BuildingBlock: KIFKEQ_clean_linker_1, # of connection points: 2
#     Edge 22, Type (0, 0), BuildingBlock: KIFKEQ_clean_linker_1, # of connection points: 2
#     Edge 23, Type (0, 0), BuildingBlock: KIFKEQ_clean_linker_1, # of connection points: 2
# Relax obj value: 0.097
# Max RMSD: 0.178
# Mean RMSD: 0.178
data_MOF--net-qtz-e--node1-BETDAH_clean_sbu_0--edge1-KIFKEQ_clean_linker_1
_symmetry_space_group_name_H-M    P1
_symmetry_Int_Tables_number       1
_symmetry_cell_setting            triclinic
loop_
_symmetry_equiv_pos_as_xyz
'x, y, z'
_cell_length_a     26.547022
_cell_length_b     26.405206
_cell_length_c     52.036136
_cell_angle_alpha  89.863463
_cell_angle_beta   90.214011
_cell_angle_gamma 120.39698
loop_
_atom_site_label
_atom_site_type_symbol
_atom_site_fract_x
_atom_site_fract_y
_atom_site_fract_z
_atom_type_partial_charge
Ho0 Ho 0.19079 0.48607 0.06385 0.0
Ho1 Ho 0.17638 0.36668 0.05086 0.0
C2 C 0.1389 0.37902 0.10681 0.0
C3 C 0.17531 0.56849 0.08126 0.0
C4 C 0.17687 0.58629 0.10802 0.0
C5 C 0.19139 0.55874 0.12735 0.0
C6 C 0.19249 0.57404 0.15299 0.0
C7 C 0.18018 0.61802 0.15975 0.0
C8 C 0.16653 0.64641 0.14036 0.0
C9 C 0.16445 0.63025 0.11457 0.0
C10 C 0.28747 0.48044 0.07111 0.0
C11 C 0.22719 0.47303 1.00818 0.0
C12 C 0.18923 0.28454 0.03046 0.0
C13 C 0.20111 0.27452 1.00371 0.0
C14 C 0.22607 0.23974 0.99877 0.0
C15 C 0.23878 0.23142 0.97351 0.0
C16 C 0.22703 0.25799 0.95259 0.0
C17 C 0.20186 0.29278 0.95771 0.0
C18 C 0.18898 0.30084 0.98294 0.0
C19 C 0.08463 0.38163 0.04154 0.0
O20 O 0.14285 0.4281 0.09801 0.0
O21 O 0.15679 0.349 0.09297 0.0
O22 O 0.22537 0.57783 0.07244 0.0
O23 O 0.13211 0.51604 0.07557 0.0
O24 O 0.2872 0.52727 0.06401 0.0
O25 O 0.23641 0.43936 0.07628 0.0
O26 O 0.22776 0.42644 1.01742 0.0
O27 O 0.20444 0.49905 1.02156 0.0
O28 O 0.13833 0.27961 0.03448 0.0
O29 O 0.23159 0.33032 0.04205 0.0
O30 O 0.07836 0.33407 0.05194 0.0
O31 O 0.13713 0.41642 0.03726 0.0
H32 H 0.20226 0.52553 0.12261 0.0
H33 H 0.20397 0.55214 0.16753 0.0
H34 H 0.15682 0.68045 0.14519 0.0
H35 H 0.15334 0.65201 0.09983 0.0
H36 H 0.23614 0.21931 1.01449 0.0
H37 H 0.25885 0.20503 0.97042 0.0
H38 H 0.19154 0.31343 0.94218 0.0
H39 H 0.16967 0.32787 0.98623 0.0
Ho40 Ho 0.68921 0.19892 0.39799 0.0
Ho41 Ho 0.79631 0.18972 0.38353 0.0
C42 C 0.74869 0.14884 0.43966 0.0
C43 C 0.58848 0.17523 0.41502 0.0
C44 C 0.56491 0.16641 0.44139 0.0
C45 C 0.5619 0.12187 0.45736 0.0
C46 C 0.54738 0.11934 0.48332 0.0
C47 C 0.53543 0.16116 0.49382 0.0
C48 C 0.53574 0.20388 0.47751 0.0
C49 C 0.55027 0.20641 0.45158 0.0
C50 C 0.7905 0.29708 0.40618 0.0
C51 C 0.74404 0.24769 0.34381 0.0
C52 C 0.89128 0.20449 0.36248 0.0
C53 C 0.918 0.22282 0.33654 0.0
C54 C 0.9233 0.27267 0.32414 0.0
C55 C 0.94668 0.28797 0.2993 0.0
C56 C 0.96564 0.25395 0.28619 0.0
C57 C 0.96064 0.20431 0.29879 0.0
C58 C 0.93709 0.18898 0.3236 0.0
C59 C 0.68929 0.09708 0.37299 0.0
O60 O 0.70259 0.15218 0.43197 0.0
O61 O 0.79559 0.16757 0.42506 0.0
O62 O 0.63034 0.22861 0.40971 0.0
O63 O 0.59898 0.13518 0.40608 0.0
O64 O 0.74267 0.29594 0.39988 0.0
O65 O 0.78162 0.24591 0.4102 0.0
O66 O 0.79085 0.24822 0.35305 0.0
O67 O 0.69357 0.22065 0.35612 0.0
O68 O 0.84297 0.15368 0.36372 0.0
O69 O 0.88933 0.24427 0.37674 0.0
O70 O 0.73033 0.09088 0.3834 0.0
O71 O 0.70708 0.15012 0.36976 0.0
H72 H 0.57265 0.09012 0.45007 0.0
H73 H 0.54768 0.08597 0.49536 0.0
H74 H 0.52547 0.23593 0.48488 0.0
H75 H 0.55185 0.24087 0.43964 0.0
H76 H 0.9093 0.29988 0.33362 0.0
H77 H 0.95047 0.32695 0.2905 0.0
H78 H 0.97393 0.17651 0.2893 0.0
H79 H 0.9333 0.15019 0.33264 0.0
Ho80 Ho 0.50571 0.73804 0.73451 0.0
Ho81 Ho 0.63071 0.82333 0.71686 0.0
C82 C 0.6136 0.76992 0.77263 0.0
C83 C 0.40489 0.65255 0.74754 0.0
C84 C 0.38265 0.63248 0.77356 0.0
C85 C 0.4193 0.66102 0.79459 0.0
C86 C 0.40019 0.64227 0.81954 0.0
C87 C 0.34385 0.59457 0.82401 0.0
C88 C 0.30718 0.56561 0.80288 0.0
C89 C 0.32652 0.58456 0.77775 0.0
C90 C 0.55147 0.84845 0.75331 0.0
C91 C 0.52152 0.79579 0.67875 0.0
C92 C 0.72063 0.90481 0.69293 0.0
C93 C 0.72578 0.93068 0.66698 0.0
C94 C 0.75959 -0.00842 0.66316 0.0
C95 C 0.7634 0.01597 0.6387 0.0
C96 C 0.73337 0.97993 0.61749 0.0
C97 C 0.69977 0.91888 0.62146 0.0
C98 C 0.69593 0.89466 0.64582 0.0
C99 C 0.58918 0.70714 0.71008 0.0
O100 O 0.56312 0.72728 0.7635 0.0
O101 O 0.64609 0.8186 0.7592 0.0
O102 O 0.41398 0.70481 0.74155 0.0
O103 O 0.44861 0.64539 0.74121 0.0
O104 O 0.51985 0.80083 0.76628 0.0
O105 O 0.55831 0.8344 0.731 0.0
O106 O 0.57817 0.82617 0.68358 0.0
O107 O 0.48376 0.75636 0.69503 0.0
O108 O 0.70702 0.84983 0.6934 0.0
O109 O 0.6921 0.91625 0.71026 0.0
O110 O 0.64163 0.7429 0.71841 0.0
O111 O 0.56333 0.73484 0.70624 0.0
H112 H 0.46307 0.69766 0.7917 0.0
H113 H 0.4299 0.66475 0.83533 0.0
H114 H 0.26344 0.52888 0.80579 0.0
H115 H 0.29786 0.56189 0.76168 0.0
H116 H 0.78277 0.02037 0.67913 0.0
H117 H 0.78909 0.0632 0.63655 0.0
H118 H 0.67664 0.88944 0.60567 0.0
H119 H 0.6692 0.8475 0.64806 0.0
Ho120 Ho 0.76511 0.48611 0.06265 0.0
Ho121 Ho 0.77328 0.60422 0.05177 0.0
C122 C 0.81043 0.58833 0.10777 0.0
C123 C 0.78744 0.40675 0.07809 0.0
C124 C 0.78784 0.3848 0.10425 0.0
C125 C 0.83796 0.41325 0.11987 0.0
C126 C 0.83549 0.39791 0.14576 0.0
C127 C 0.78293 0.3537 0.15654 0.0
C128 C 0.73374 0.3233 0.14055 0.0
C129 C 0.73627 0.33842 0.1147 0.0
C130 C 0.66556 0.48573 0.07049 0.0
C131 C 0.72766 0.50168 1.00725 0.0
C132 C 0.75474 0.68416 0.03284 0.0
C133 C 0.74351 0.69629 1.0062 0.0
C134 C 0.70791 0.72057 1.00174 0.0
C135 C 0.69566 0.73049 0.97656 0.0
C136 C 0.71883 0.71641 0.95522 0.0
C137 C 0.75465 0.69219 0.95983 0.0
C138 C 0.76671 0.68212 0.98498 0.0
C139 C 0.8687 0.59629 0.04212 0.0
O140 O 0.80802 0.54034 0.09846 0.0
O141 O 0.79206 0.61856 0.09418 0.0
O142 O 0.7363 0.39471 0.06925 0.0
O143 O 0.82827 0.46082 0.07309 0.0
O144 O 0.6681 0.44051 0.06276 0.0
O145 O 0.71582 0.52791 0.07598 0.0
O146 O 0.7259 0.54716 1.017 0.0
O147 O 0.75091 0.47548 1.02028 0.0
O148 O 0.80693 0.69261 0.0375 0.0
O149 O 0.71359 0.63563 0.04326 0.0
O150 O 0.87207 0.64197 0.05309 0.0
O151 O 0.81682 0.55957 0.03735 0.0
H152 H 0.87864 0.44869 0.11234 0.0
H153 H 0.87453 0.42133 0.15741 0.0
H154 H 0.69242 0.28933 0.1482 0.0
H155 H 0.69699 0.31522 0.10316 0.0
H156 H 0.68934 0.73166 1.01775 0.0
H157 H 0.66837 0.74969 0.97383 0.0
H158 H 0.77246 0.6798 0.94396 0.0
H159 H 0.79368 0.66258 0.98784 0.0
Ho160 Ho 0.26424 0.78021 0.40005 0.0
Ho161 Ho 0.15303 0.78411 0.38603 0.0
C162 C 0.20002 0.82319 0.44251 0.0
C163 C 0.36711 0.80935 0.4167 0.0
C164 C 0.39243 0.82163 0.4428 0.0
C165 C 0.382 0.85625 0.46002 0.0
C166 C 0.39833 0.86019 0.48583 0.0
C167 C 0.42623 0.83038 0.49479 0.0
C168 C 0.43949 0.79839 0.47725 0.0
C169 C 0.42243 0.79381 0.4515 0.0
C170 C 0.16527 0.67941 0.4076 0.0
C171 C 0.21005 0.73271 0.34553 0.0
C172 C 0.05571 0.76309 0.3647 0.0
C173 C 0.03111 0.74558 0.33837 0.0
C174 C 0.97125 0.7227 0.33402 0.0
C175 C 0.94764 0.70656 0.30917 0.0
C176 C -0.01664 0.71276 0.28799 0.0
C177 C 0.04344 0.73544 0.29254 0.0
C178 C 0.06699 0.75173 0.31739 0.0
C179 C 0.25755 0.88017 0.37594 0.0
O180 O 0.24719 0.8221 0.43472 0.0
O181 O 0.15308 0.80433 0.42776 0.0
O182 O 0.32629 0.75487 0.41252 0.0
O183 O 0.35393 0.84713 0.40715 0.0
O184 O 0.21401 0.68278 0.4011 0.0
O185 O 0.17217 0.72965 0.41199 0.0
O186 O 0.16234 0.72962 0.35496 0.0
O187 O 0.26041 0.76011 0.35804 0.0
O188 O 0.10143 0.81567 0.36702 0.0
O189 O 0.06116 0.72395 0.37797 0.0
O190 O 0.21475 0.88382 0.38587 0.0
O191 O 0.24242 0.82778 0.37255 0.0
H192 H 0.35956 0.87881 0.45378 0.0
H193 H 0.38836 0.88583 0.49888 0.0
H194 H 0.46083 0.77484 0.48369 0.0
H195 H 0.43086 0.76685 0.43857 0.0
H196 H 0.94263 0.71731 0.34989 0.0
H197 H 0.90113 0.68847 0.30663 0.0
H198 H 0.07265 0.7416 0.27683 0.0
H199 H 0.1134 0.76957 0.32016 0.0
Ho200 Ho 0.44938 0.23774 0.73428 0.0
Ho201 Ho 0.3242 0.151 0.71685 0.0
C202 C 0.34214 0.20615 0.77239 0.0
C203 C 0.55114 0.32384 0.74603 0.0
C204 C 0.58003 0.34754 0.77105 0.0
C205 C 0.59186 0.40342 0.77884 0.0
C206 C 0.61195 0.42352 0.80372 0.0
C207 C 0.62124 0.38838 0.82119 0.0
C208 C 0.61175 0.33351 0.81305 0.0
C209 C 0.59111 0.31315 0.78827 0.0
C210 C 0.40552 0.12763 0.75309 0.0
C211 C 0.43192 0.18034 0.67816 0.0
C212 C 0.23214 0.06719 0.69487 0.0
C213 C 0.22333 0.03279 0.67108 0.0
C214 C 0.26191 0.01337 0.66418 0.0
C215 C 0.25701 0.98713 0.64019 0.0
C216 C 0.2135 0.97979 0.62248 0.0
C217 C 0.17398 -0.00214 0.62981 0.0
C218 C 0.17893 0.02408 0.65379 0.0
C219 C 0.36376 0.26691 0.71037 0.0
O220 O 0.39294 0.24862 0.76353 0.0
O221 O 0.30987 0.15734 0.75905 0.0
O222 O 0.54187 0.2718 0.73949 0.0
O223 O 0.50627 0.33038 0.74118 0.0
O224 O 0.4371 0.17539 0.76602 0.0
O225 O 0.39783 0.14128 0.73077 0.0
O226 O 0.37567 0.14782 0.68342 0.0
O227 O 0.46948 0.22032 0.69437 0.0
O228 O 0.25052 0.12281 0.69117 0.0
O229 O 0.25868 0.05847 0.71422 0.0
O230 O 0.31155 0.23045 0.71868 0.0
O231 O 0.39017 0.23993 0.70638 0.0
H232 H 0.58375 0.43081 0.76593 0.0
H233 H 0.61956 0.46628 0.8094 0.0
H234 H 0.61809 0.3053 0.82617 0.0
H235 H 0.58214 0.26971 0.78296 0.0
H236 H 0.29694 0.01992 0.67701 0.0
H237 H 0.28778 0.97314 0.63542 0.0
H238 H 0.14036 -0.00635 0.61666 0.0
H239 H 0.14901 0.0392 0.65854 0.0
H240 H 0.1125 0.65577 0.31915 0.0
H241 H 0.30023 0.7617 0.31219 0.0
H242 H 0.10517 0.628 0.27412 0.0
H243 H 0.29262 0.73347 0.2669 0.0
H244 H 0.23895 0.72759 0.18078 0.0
H245 H 0.24783 0.75326 0.22648 0.0
H246 H 0.13637 0.57016 0.24569 0.0
H247 H 0.12757 0.5446 0.20012 0.0
C248 C 0.15229 0.67257 0.30808 0.0
C249 C 0.20701 0.71085 0.3192 0.0
C250 C 0.14801 0.65654 0.28232 0.0
C251 C 0.19829 0.67882 0.26709 0.0
C252 C 0.25318 0.71617 0.27826 0.0
C253 C 0.25756 0.73178 0.30418 0.0
C254 C 0.21601 0.69307 0.19482 0.0
C255 C 0.18255 0.63422 0.18705 0.0
C256 C 0.22159 0.7076 0.22089 0.0
C257 C 0.19308 0.66358 0.23952 0.0
C258 C 0.15868 0.60488 0.23167 0.0
C259 C 0.15377 0.5903 0.20568 0.0
H260 H 0.36523 0.10631 0.63983 0.0
H261 H 0.5429 0.23924 0.65795 0.0
H262 H 0.39422 0.09949 0.59655 0.0
H263 H 0.57227 0.23154 0.61429 0.0
H264 H 0.57768 0.25611 0.52572 0.0
H265 H 0.55675 0.25775 0.57114 0.0
H266 H 0.44975 0.06852 0.57098 0.0
H267 H 0.46905 0.06708 0.52524 0.0
C268 C 0.41078 0.13343 0.63477 0.0
C269 C 0.4517 0.17341 0.65248 0.0
C270 C 0.42745 0.12922 0.60987 0.0
C271 C 0.48555 0.16485 0.60193 0.0
C272 C 0.52698 0.20389 0.61976 0.0
C273 C 0.51023 0.2081 0.64481 0.0
C274 C 0.54939 0.21487 0.53534 0.0
C275 C 0.52443 0.16152 0.52178 0.0
C276 C 0.53813 0.21575 0.56148 0.0
C277 C 0.50158 0.1633 0.57471 0.0
C278 C 0.47767 0.10978 0.56129 0.0
C279 C 0.48904 0.10889 0.53513 0.0
H280 H 0.2214 0.55868 0.98124 0.0
H281 H 0.27471 0.42933 0.97444 0.0
H282 H 0.24695 0.58607 0.93651 0.0
H283 H 0.30092 0.45733 0.92964 0.0
H284 H 0.28405 0.48249 0.84318 0.0
H285 H 0.25544 0.45262 0.88778 0.0
H286 H 0.33298 0.63479 0.9098 0.0
H287 H 0.35953 0.66431 0.86531 0.0
C288 C 0.23901 0.53638 0.97028 0.0
C289 C 0.24597 0.49178 0.98143 0.0
C290 C 0.25378 0.55219 0.94463 0.0
C291 C 0.27594 0.52386 0.92952 0.0
C292 C 0.28322 0.47944 0.94068 0.0
C293 C 0.26854 0.46367 0.9664 0.0
C294 C 0.29421 0.51598 0.85753 0.0
C295 C 0.32409 0.57572 0.85076 0.0
C296 C 0.27849 0.49896 0.8831 0.0
C297 C 0.29208 0.54138 0.90232 0.0
C298 C 0.32134 0.60101 0.89543 0.0
C299 C 0.33707 0.61796 0.86997 0.0
H300 H 0.84136 0.3305 0.31922 0.0
H301 H 0.65515 0.21749 0.30949 0.0
H302 H 0.85049 0.35858 0.27408 0.0
H303 H 0.6642 0.2464 0.26426 0.0
H304 H 0.72297 0.24655 0.18029 0.0
H305 H 0.71094 0.22624 0.22626 0.0
H306 H 0.82094 0.41119 0.24225 0.0
H307 H 0.83189 0.432 0.19623 0.0
C308 C 0.8023 0.3122 0.30748 0.0
C309 C 0.74764 0.27134 0.31777 0.0
C310 C 0.8075 0.32862 0.28169 0.0
C311 C 0.75813 0.30425 0.26565 0.0
C312 C 0.70305 0.26526 0.27618 0.0
C313 C 0.69779 0.24919 0.30208 0.0
C314 C 0.74415 0.28301 0.19356 0.0
C315 C 0.77835 0.34091 0.18453 0.0
C316 C 0.73715 0.27134 0.21989 0.0
C317 C 0.76461 0.3172 0.23777 0.0
C318 C 0.79952 0.37499 0.22884 0.0
C319 C 0.80611 0.38678 0.20249 0.0
H320 H 0.41809 0.72434 0.65342 0.0
H321 H 0.58051 0.88935 0.64695 0.0
H322 H 0.39283 0.73629 0.6093 0.0
H323 H 0.55503 0.9011 0.60333 0.0
H324 H 0.52826 0.8512 0.51698 0.0
H325 H 0.54747 0.84582 0.56258 0.0
H326 H 0.37158 0.80283 0.58079 0.0
H327 H 0.35239 0.80832 0.53507 0.0
C328 C 0.44794 0.76342 0.64277 0.0
C329 C 0.50176 0.80529 0.6535 0.0
C330 C 0.43349 0.77029 0.61755 0.0
C331 C 0.47264 0.8191 0.60275 0.0
C332 C 0.5249 0.86228 0.61403 0.0
C333 C 0.5393 0.85551 0.63907 0.0
C334 C 0.49383 0.84079 0.53075 0.0
C335 C 0.43891 0.83018 0.52254 0.0
C336 C 0.50486 0.83803 0.55683 0.0
C337 C 0.46092 0.82383 0.57521 0.0
C338 C 0.40605 0.81349 0.56702 0.0
C339 C 0.39529 0.81711 0.54093 0.0
H340 H 0.69469 0.55626 0.97183 0.0
H341 H 0.71828 0.40701 0.98171 0.0
H342 H 0.6709 0.53113 0.92673 0.0
H343 H 0.69203 0.38035 0.9369 0.0
H344 H 0.70523 0.38398 0.84996 0.0
H345 H 0.73015 0.41182 0.89489 0.0
H346 H 0.5982 0.46159 0.89849 0.0
H347 H 0.57453 0.43508 0.8534 0.0
C348 C 0.69427 0.51776 0.96446 0.0
C349 C 0.70887 0.48394 0.98034 0.0
C350 C 0.68024 0.5031 0.93859 0.0
C351 C 0.67986 0.45386 0.92807 0.0
C352 C 0.69312 0.41929 0.94417 0.0
C353 C 0.70769 0.43429 0.96996 0.0
C354 C 0.68169 0.40095 0.8604 0.0
C355 C 0.63807 0.40749 0.84819 0.0
C356 C 0.69569 0.41664 0.88618 0.0
C357 C 0.66596 0.43867 0.90042 0.0
C358 C 0.62262 0.44562 0.88806 0.0
C359 C 0.60899 0.4304 0.86222 0.0
H360 H 0.30104 0.39021 0.08915 0.0
H361 H 0.39633 0.5695 0.06211 0.0
H362 H 0.39343 0.39095 0.09395 0.0
H363 H 0.4874 0.56999 0.06633 0.0
H364 H 0.55756 0.39597 0.05964 0.0
H365 H 0.46516 0.39312 0.06422 0.0
H366 H 0.55575 0.56795 0.09655 0.0
H367 H 0.64898 0.57121 0.09131 0.0
C368 C 0.34166 0.42965 0.08437 0.0
C369 C 0.34176 0.47964 0.07519 0.0
C370 C 0.39438 0.43017 0.08707 0.0
C371 C 0.44768 0.48069 0.08062 0.0
C372 C 0.44735 0.53084 0.07196 0.0
C373 C 0.39501 0.5303 0.06929 0.0
C374 C 0.5577 0.43365 0.06792 0.0
C375 C 0.61025 0.48409 0.07491 0.0
C376 C 0.50468 0.43173 0.07079 0.0
C377 C 0.50316 0.48024 0.08075 0.0
C378 C 0.55572 0.53011 0.08855 0.0
C379 C 0.60896 0.53206 0.08559 0.0
H380 H 0.06183 0.66109 0.42694 0.0
H381 H 0.14715 0.5719 0.39627 0.0
H382 H 0.9711 0.5667 0.43123 0.0
H383 H 0.05678 0.47835 0.3998 0.0
H384 H 0.81056 0.40579 0.39657 0.0
H385 H 0.90159 0.49804 0.40074 0.0
H386 H -0.01377 0.40548 0.42904 0.0
H387 H 0.89432 0.312 0.42416 0.0
C388 C 0.06106 0.62129 0.4212 0.0
C389 C 0.11099 0.62346 0.41116 0.0
C390 C 0.00936 0.56742 0.4236 0.0
C391 C 0.00694 0.51519 0.41582 0.0
C392 C 0.05751 0.51762 0.40636 0.0
C393 C 0.10907 0.57126 0.40411 0.0
C394 C 0.84849 0.40509 0.40386 0.0
C395 C 0.84578 0.35199 0.40997 0.0
C396 C 0.90051 0.45805 0.40649 0.0
C397 C 0.95091 0.45905 0.41538 0.0
C398 C 0.94801 0.40587 0.42197 0.0
C399 C 0.89567 0.35255 0.41923 0.0
H400 H 0.38537 0.04046 0.71938 0.0
H401 H 0.44775 0.10324 0.79621 0.0
H402 H 0.42631 0.97617 0.72204 0.0
H403 H 0.48947 0.03955 0.79869 0.0
H404 H 0.51082 0.87373 0.79649 0.0
H405 H 0.46908 0.93737 0.79888 0.0
H406 H 0.52951 -0.00079 0.72187 0.0
H407 H 0.57045 0.93496 0.71931 0.0
C408 C 0.40656 0.03945 0.73706 0.0
C409 C 0.41423 0.07746 0.75744 0.0
C410 C 0.43079 0.00338 0.73843 0.0
C411 C 0.4627 0.0044 0.76025 0.0
C412 C 0.46562 0.03834 0.78154 0.0
C413 C 0.44149 0.07455 0.78015 0.0
C414 C 0.5165 0.90209 0.78033 0.0
C415 C 0.543 0.89875 0.75756 0.0
C416 C 0.49234 0.93827 0.78167 0.0
C417 C 0.49447 0.97174 0.76026 0.0
C418 C 0.52564 0.97236 0.73836 0.0
C419 C 0.5499 0.93633 0.73704 0.0
H420 H 0.48248 0.63515 0.69028 0.0
H421 H 0.62623 0.63396 0.72892 0.0
H422 H 0.42563 0.52843 0.69216 0.0
H423 H 0.5693 0.5259 0.73 0.0
H424 H 0.4698 0.33945 0.69049 0.0
H425 H 0.52601 0.44606 0.69223 0.0
H426 H 0.38226 0.44774 0.72988 0.0
H427 H 0.32591 0.33956 0.72899 0.0
C428 C 0.50199 0.61192 0.69913 0.0
C429 C 0.55854 0.64264 0.70969 0.0
C430 C 0.46921 0.55097 0.70034 0.0
C431 C 0.49287 0.51938 0.71154 0.0
C432 C 0.55016 0.54973 0.72143 0.0
C433 C 0.58275 0.61119 0.72067 0.0
C434 C 0.45008 0.36241 0.69927 0.0
C435 C 0.39372 0.3314 0.70987 0.0
C436 C 0.48252 0.42335 0.70039 0.0
C437 C 0.45869 0.45469 0.7115 0.0
C438 C 0.40151 0.42408 0.72137 0.0
C439 C 0.36926 0.36257 0.72073 0.0
H440 H 0.00619 0.37392 0.07787 0.0
H441 H 0.07435 0.43961 1.00225 0.0
H442 H 0.9594 0.43424 0.07819 0.0
H443 H 0.02991 0.50024 1.0027 0.0
H444 H 0.94397 0.60157 0.07966 0.0
H445 H -0.00703 0.54339 0.07961 0.0
H446 H 0.93464 0.48974 1.00147 0.0
H447 H 0.88766 0.54805 1.00153 0.0
C448 C 0.00918 0.39949 0.06103 0.0
C449 C 0.04241 0.40141 0.03978 0.0
C450 C -0.01608 0.43505 0.06145 0.0
C451 C -0.00833 0.47239 0.04057 0.0
C452 C 0.02275 0.47171 1.01897 0.0
C453 C 0.04769 0.43657 1.01859 0.0
C454 C 0.94433 0.57944 0.06221 0.0
C455 C 0.91349 0.58 0.04038 0.0
C456 C 0.97086 0.54504 0.06237 0.0
C457 C 0.96691 0.51151 0.04063 0.0
C458 C 0.93883 0.51531 1.01844 0.0
C459 C 0.91247 0.54918 1.01834 0.0
H460 H 0.33006 0.95907 0.41212 0.0
H461 H 0.32264 0.89779 0.33467 0.0
H462 H 0.4375 0.00796 0.41117 0.0
H463 H 0.4283 0.94522 0.33368 0.0
H464 H 0.62109 0.08702 0.33368 0.0
H465 H 0.51565 0.04227 0.33426 0.0
H466 H 0.51032 0.97028 0.40956 0.0
H467 H 0.6176 0.01663 0.40898 0.0
C468 C 0.3516 0.95848 0.39457 0.0
C469 C 0.31873 0.926 0.37325 0.0
C470 C 0.41267 0.98494 0.39423 0.0
C471 C 0.44102 0.97948 0.37248 0.0
C472 C 0.40783 0.95034 0.35067 0.0
C473 C 0.3474 0.92382 0.3511 0.0
C474 C 0.59717 0.05981 0.34996 0.0
C475 C 0.62693 0.05408 0.37103 0.0
C476 C 0.53691 0.03479 0.35043 0.0
C477 C 0.50491 0.00352 0.37209 0.0
C478 C 0.53425 -0.00499 0.39278 0.0
C479 C 0.59517 0.02002 0.39221 0.0
H480 H 0.24316 0.12843 0.79902 0.0
H481 H 0.39631 0.30132 0.80438 0.0
H482 H 0.21309 0.14074 0.84179 0.0
H483 H 0.36691 0.31307 0.84711 0.0
H484 H 0.27223 0.33969 0.91371 0.0
H485 H 0.29603 0.32674 0.86993 0.0
H486 H 0.24033 0.1456 0.88662 0.0
H487 H 0.21444 0.15794 0.93015 0.0
C488 C 0.2704 0.16908 0.80924 0.0
C489 C 0.32218 0.21382 0.79811 0.0
C490 C 0.25334 0.17602 0.83389 0.0
C491 C 0.28751 0.22794 0.84805 0.0
C492 C 0.33895 0.27282 0.83675 0.0
C493 C 0.35603 0.26587 0.81219 0.0
C494 C 0.26435 0.29684 0.90801 0.0
C495 C 0.2414 0.2499 0.92563 0.0
C496 C 0.27866 0.28957 0.8829 0.0
C497 C 0.27039 0.23512 0.87462 0.0
C498 C 0.24685 0.18802 0.89215 0.0
C499 C 0.23266 0.19532 0.91729 0.0
H500 H 0.05714 0.24688 0.26523 0.0
H501 H 0.93 0.29739 0.24639 0.0
H502 H 0.09787 0.27443 0.22208 0.0
H503 H 0.97079 0.32502 0.20336 0.0
H504 H 0.09745 0.43045 0.13941 0.0
H505 H 0.0564 0.39924 0.18197 0.0
H506 H 0.07993 0.2493 0.17665 0.0
H507 H 0.12267 0.28153 0.13385 0.0
C508 C 0.0374 0.26329 0.25186 0.0
C509 C -0.00972 0.27007 0.25954 0.0
C510 C 0.06084 0.2791 0.22702 0.0
C511 C 0.03798 0.3023 0.20911 0.0
C512 C -0.00958 0.30841 0.2167 0.0
C513 C 0.96698 0.29258 0.24149 0.0
C514 C 0.09414 0.3908 0.14718 0.0
C515 C 0.11362 0.3586 0.13299 0.0
C516 C 0.06998 0.37258 0.17167 0.0
C517 C 0.06426 0.3214 0.18287 0.0
C518 C 0.08401 0.28921 0.1688 0.0
C519 C 0.10829 0.30752 0.14416 0.0
H520 H 0.64614 0.94437 0.58135 0.0
H521 H 0.82776 0.07339 0.59403 0.0
H522 H 0.65096 0.98426 0.53873 0.0
H523 H 0.83204 0.11478 0.55154 0.0
H524 H 0.83342 0.13407 0.46327 0.0
H525 H 0.83039 0.09375 0.50593 0.0
H526 H 0.65862 0.06944 0.51798 0.0
H527 H 0.66126 0.10866 0.4754 0.0
C528 C 0.68718 0.98129 0.57513 0.0
C529 C 0.73647 0.00552 0.59138 0.0
C530 C 0.68979 0.00466 0.55067 0.0
C531 C 0.74186 0.05303 0.5416 0.0
C532 C 0.79131 0.07724 0.55774 0.0
C533 C 0.78862 0.0539 0.5823 0.0
C534 C 0.79497 0.12008 0.475 0.0
C535 C 0.74749 0.12454 0.46572 0.0
C536 C 0.79338 0.09725 0.49957 0.0
C537 C 0.7442 0.07811 0.51549 0.0
C538 C 0.69688 0.08279 0.50619 0.0
C539 C 0.69852 0.10566 0.48171 0.0
H540 H 0.71568 0.84353 0.79883 0.0
H541 H 0.55269 0.67956 0.80631 0.0
H542 H 0.74223 0.83204 0.84271 0.0
H543 H 0.57934 0.66803 0.84971 0.0
H544 H 0.61389 0.69623 0.93582 0.0
H545 H 0.59086 0.71096 0.89203 0.0
H546 H 0.76879 0.77168 0.86939 0.0
H547 H 0.79226 0.75834 0.91345 0.0
C548 C 0.68567 0.80492 0.8097 0.0
C549 C 0.63201 0.76259 0.79888 0.0
C550 C 0.70098 0.7982 0.83486 0.0
C551 C 0.66281 0.74924 0.84992 0.0
C552 C 0.6095 0.70677 0.83894 0.0
C553 C 0.5944 0.71326 0.81385 0.0
C554 C 0.64835 0.71331 0.92161 0.0
C555 C 0.705 0.72605 0.92831 0.0
C556 C 0.63496 0.72118 0.89636 0.0
C557 C 0.67786 0.74231 0.87701 0.0
C558 C 0.73471 0.75574 0.88375 0.0
C559 C 0.74802 0.74749 0.90901 0.0
H560 H 0.01224 0.65981 0.24983 0.0
H561 H 0.89709 0.72693 0.26542 0.0
H562 H 0.97172 0.63251 0.20666 0.0
H563 H 0.85478 0.6973 0.22256 0.0
H564 H 0.83046 0.68737 0.1344 0.0
H565 H 0.87264 0.71854 0.17738 0.0
H566 H 0.88586 0.56265 0.18446 0.0
H567 H 0.84529 0.53241 0.14162 0.0
C568 C -0.02164 0.66895 0.2441 0.0
C569 C 0.95812 0.69568 0.26136 0.0
C570 C 0.95448 0.65254 0.21932 0.0
C571 C 0.90952 0.66228 0.21093 0.0
C572 C 0.8896 0.68944 0.22811 0.0
C573 C 0.91345 0.7058 0.25292 0.0
C574 C 0.84232 0.65974 0.14514 0.0
C575 C 0.83446 0.60742 0.13432 0.0
C576 C 0.86633 0.67749 0.16991 0.0
C577 C 0.88319 0.64342 0.18456 0.0
C578 C 0.87467 0.59083 0.17375 0.0
C579 C 0.85084 0.5732 0.14908 0.0
H580 H 0.11597 0.90432 0.59432 0.0
H581 H 0.30438 0.00015 0.5908 0.0
H582 H 0.11157 0.86625 0.55118 0.0
H583 H 0.30003 0.96243 0.54773 0.0
H584 H 0.27371 0.83737 0.48218 0.0
H585 H 0.27634 0.87415 0.52519 0.0
H586 H 0.12852 0.89392 0.50642 0.0
H587 H 0.1258 0.85645 0.46318 0.0
C588 C 0.1565 0.91766 0.58432 0.0
C589 C 0.21056 0.95532 0.59621 0.0
C590 C 0.15396 0.89585 0.55949 0.0
C591 C 0.2054 0.91108 0.54583 0.0
C592 C 0.25943 0.94878 0.55774 0.0
C593 C 0.26196 0.97049 0.58254 0.0
C594 C 0.24217 0.85017 0.48704 0.0
C595 C 0.20012 0.84468 0.46898 0.0
C596 C 0.24363 0.87133 0.51182 0.0
C597 C 0.20295 0.88761 0.51939 0.0
C598 C 0.16026 0.88135 0.50143 0.0
C599 C 0.15881 0.86006 0.47656 0.0
loop_
_geom_bond_atom_site_label_1
_geom_bond_atom_site_label_2
_geom_bond_distance
_geom_bond_site_symmetry_2
_ccdc_geom_bond_type
Ho0 C3 2.811 . S
Ho0 O20 2.322 . S
Ho0 O22 2.378 . S
Ho0 O23 2.524 . S
Ho0 O24 2.381 . S
Ho0 O25 2.669 . S
Ho0 O27 2.346 . S
Ho0 O31 2.305 . S
Ho1 C12 2.811 1_554 S
Ho1 O21 2.346 . S
Ho1 O25 2.305 . S
Ho1 O26 2.322 1_554 S
Ho1 O28 2.378 1_554 S
Ho1 O29 2.524 1_554 S
Ho1 O30 2.381 . S
Ho1 O31 2.669 . S
C2 O20 1.259 . S
C2 O21 1.268 . S
C3 Ho0 2.811 . S
C3 C4 1.488 . S
C3 O22 1.215 . S
C3 O23 1.289 . S
C4 C3 1.488 . S
C4 C5 1.348 . S
C4 C9 1.413 . S
C5 C4 1.348 . S
C5 C6 1.442 . S
C5 H32 0.930 . S
C6 C5 1.442 . S
C6 C7 1.381 . S
C6 H33 0.931 . S
C7 C6 1.381 . S
C7 C8 1.321 . S
C8 C7 1.321 . S
C8 C9 1.403 . S
C8 H34 0.934 . S
C9 C4 1.413 . S
C9 C8 1.403 . S
C9 H35 0.930 . S
C10 O24 1.275 . S
C10 O25 1.256 . S
C11 O26 1.259 . S
C11 O27 1.268 1_556 S
C12 Ho1 2.811 1_556 S
C12 C13 1.488 . S
C12 O28 1.215 . S
C12 O29 1.289 . S
C13 C12 1.488 . S
C13 C14 1.348 . S
C13 C18 1.413 . S
C14 C13 1.348 . S
C14 C15 1.442 . S
C14 H36 0.930 . S
C15 C14 1.442 . S
C15 C16 1.381 . S
C15 H37 0.931 . S
C16 C15 1.381 . S
C16 C17 1.321 . S
C17 C16 1.321 . S
C17 C18 1.403 . S
C17 H38 0.934 . S
C18 C13 1.413 . S
C18 C17 1.403 . S
C18 H39 0.930 . S
C19 O30 1.275 . S
C19 O31 1.256 . S
O20 Ho0 2.322 . S
O20 C2 1.259 . S
O21 Ho1 2.346 . S
O21 C2 1.268 . S
O22 Ho0 2.378 . S
O22 C3 1.215 . S
O23 Ho0 2.524 . S
O23 C3 1.289 . S
O24 Ho0 2.381 . S
O24 C10 1.275 . S
O25 Ho0 2.669 . S
O25 Ho1 2.305 . S
O25 C10 1.256 . S
O26 Ho1 2.322 1_556 S
O26 C11 1.259 . S
O27 Ho0 2.346 . S
O27 C11 1.268 1_554 S
O28 Ho1 2.378 1_556 S
O28 C12 1.215 . S
O29 Ho1 2.524 1_556 S
O29 C12 1.289 . S
O30 Ho1 2.381 . S
O30 C19 1.275 . S
O31 Ho0 2.305 . S
O31 Ho1 2.669 . S
O31 C19 1.256 . S
H32 C5 0.930 . S
H33 C6 0.931 . S
H34 C8 0.934 . S
H35 C9 0.930 . S
H36 C14 0.930 . S
H37 C15 0.931 . S
H38 C17 0.934 . S
H39 C18 0.930 . S
Ho40 C43 2.811 . S
Ho40 O60 2.322 . S
Ho40 O62 2.378 . S
Ho40 O63 2.524 . S
Ho40 O64 2.381 . S
Ho40 O65 2.669 . S
Ho40 O67 2.346 . S
Ho40 O71 2.305 . S
Ho41 C52 2.811 . S
Ho41 O61 2.346 . S
Ho41 O65 2.305 . S
Ho41 O66 2.322 . S
Ho41 O68 2.378 . S
Ho41 O69 2.524 . S
Ho41 O70 2.381 . S
Ho41 O71 2.669 . S
C42 O60 1.259 . S
C42 O61 1.268 . S
C43 Ho40 2.811 . S
C43 C44 1.488 . S
C43 O62 1.215 . S
C43 O63 1.289 . S
C44 C43 1.488 . S
C44 C45 1.348 . S
C44 C49 1.413 . S
C45 C44 1.348 . S
C45 C46 1.442 . S
C45 H72 0.930 . S
C46 C45 1.442 . S
C46 C47 1.381 . S
C46 H73 0.931 . S
C47 C46 1.381 . S
C47 C48 1.321 . S
C48 C47 1.321 . S
C48 C49 1.403 . S
C48 H74 0.934 . S
C49 C44 1.413 . S
C49 C48 1.403 . S
C49 H75 0.930 . S
C50 O64 1.275 . S
C50 O65 1.256 . S
C51 O66 1.259 . S
C51 O67 1.268 . S
C52 Ho41 2.811 . S
C52 C53 1.488 . S
C52 O68 1.215 . S
C52 O69 1.289 . S
C53 C52 1.488 . S
C53 C54 1.348 . S
C53 C58 1.413 . S
C54 C53 1.348 . S
C54 C55 1.442 . S
C54 H76 0.930 . S
C55 C54 1.442 . S
C55 C56 1.381 . S
C55 H77 0.931 1_655 S
C56 C55 1.381 . S
C56 C57 1.321 . S
C57 C56 1.321 . S
C57 C58 1.403 . S
C57 H78 0.934 . S
C58 C53 1.413 . S
C58 C57 1.403 . S
C58 H79 0.930 . S
C59 O70 1.275 . S
C59 O71 1.256 . S
O60 Ho40 2.322 . S
O60 C42 1.259 . S
O61 Ho41 2.346 . S
O61 C42 1.268 . S
O62 Ho40 2.378 . S
O62 C43 1.215 . S
O63 Ho40 2.524 . S
O63 C43 1.289 . S
O64 Ho40 2.381 . S
O64 C50 1.275 . S
O65 Ho40 2.669 . S
O65 Ho41 2.305 . S
O65 C50 1.256 . S
O66 Ho41 2.322 . S
O66 C51 1.259 . S
O67 Ho40 2.346 . S
O67 C51 1.268 . S
O68 Ho41 2.378 . S
O68 C52 1.215 . S
O69 Ho41 2.524 . S
O69 C52 1.289 . S
O70 Ho41 2.381 . S
O70 C59 1.275 . S
O71 Ho40 2.305 . S
O71 Ho41 2.669 . S
O71 C59 1.256 . S
H72 C45 0.930 . S
H73 C46 0.931 . S
H74 C48 0.934 . S
H75 C49 0.930 . S
H76 C54 0.930 . S
H77 C55 0.931 1_455 S
H78 C57 0.934 . S
H79 C58 0.930 . S
Ho80 C83 2.811 . S
Ho80 O100 2.322 . S
Ho80 O102 2.378 . S
Ho80 O103 2.524 . S
Ho80 O104 2.381 . S
Ho80 O105 2.669 . S
Ho80 O107 2.346 . S
Ho80 O111 2.305 . S
Ho81 C92 2.811 . S
Ho81 O101 2.346 . S
Ho81 O105 2.305 . S
Ho81 O106 2.322 . S
Ho81 O108 2.378 . S
Ho81 O109 2.524 . S
Ho81 O110 2.381 . S
Ho81 O111 2.669 . S
C82 O100 1.259 . S
C82 O101 1.268 . S
C83 Ho80 2.811 . S
C83 C84 1.488 . S
C83 O102 1.215 . S
C83 O103 1.289 . S
C84 C83 1.488 . S
C84 C85 1.348 . S
C84 C89 1.413 . S
C85 C84 1.348 . S
C85 C86 1.442 . S
C85 H112 0.930 . S
C86 C85 1.442 . S
C86 C87 1.381 . S
C86 H113 0.931 . S
C87 C86 1.381 . S
C87 C88 1.321 . S
C88 C87 1.321 . S
C88 C89 1.403 . S
C88 H114 0.934 . S
C89 C84 1.413 . S
C89 C88 1.403 . S
C89 H115 0.930 . S
C90 O104 1.275 . S
C90 O105 1.256 . S
C91 O106 1.259 . S
C91 O107 1.268 . S
C92 Ho81 2.811 . S
C92 C93 1.488 . S
C92 O108 1.215 . S
C92 O109 1.289 . S
C93 C92 1.488 . S
C93 C94 1.348 . S
C93 C98 1.413 . S
C94 C93 1.348 . S
C94 C95 1.442 . S
C94 H116 0.930 . S
C95 C94 1.442 . S
C95 C96 1.381 . S
C95 H117 0.931 1_565 S
C96 C95 1.381 . S
C96 C97 1.321 . S
C97 C96 1.321 . S
C97 C98 1.403 . S
C97 H118 0.934 . S
C98 C93 1.413 . S
C98 C97 1.403 . S
C98 H119 0.930 . S
C99 O110 1.275 . S
C99 O111 1.256 . S
O100 Ho80 2.322 . S
O100 C82 1.259 . S
O101 Ho81 2.346 . S
O101 C82 1.268 . S
O102 Ho80 2.378 . S
O102 C83 1.215 . S
O103 Ho80 2.524 . S
O103 C83 1.289 . S
O104 Ho80 2.381 . S
O104 C90 1.275 . S
O105 Ho80 2.669 . S
O105 Ho81 2.305 . S
O105 C90 1.256 . S
O106 Ho81 2.322 . S
O106 C91 1.259 . S
O107 Ho80 2.346 . S
O107 C91 1.268 . S
O108 Ho81 2.378 . S
O108 C92 1.215 . S
O109 Ho81 2.524 . S
O109 C92 1.289 . S
O110 Ho81 2.381 . S
O110 C99 1.275 . S
O111 Ho80 2.305 . S
O111 Ho81 2.669 . S
O111 C99 1.256 . S
H112 C85 0.930 . S
H113 C86 0.931 . S
H114 C88 0.934 . S
H115 C89 0.930 . S
H116 C94 0.930 . S
H117 C95 0.931 1_545 S
H118 C97 0.934 . S
H119 C98 0.930 . S
Ho120 C123 2.811 . S
Ho120 O140 2.322 . S
Ho120 O142 2.378 . S
Ho120 O143 2.524 . S
Ho120 O144 2.381 . S
Ho120 O145 2.669 . S
Ho120 O147 2.346 . S
Ho120 O151 2.305 . S
Ho121 C132 2.811 1_554 S
Ho121 O141 2.346 . S
Ho121 O145 2.305 . S
Ho121 O146 2.322 1_554 S
Ho121 O148 2.378 1_554 S
Ho121 O149 2.524 1_554 S
Ho121 O150 2.381 . S
Ho121 O151 2.669 . S
C122 O140 1.259 . S
C122 O141 1.268 . S
C123 Ho120 2.811 . S
C123 C124 1.488 . S
C123 O142 1.215 . S
C123 O143 1.289 . S
C124 C123 1.488 . S
C124 C125 1.348 . S
C124 C129 1.413 . S
C125 C124 1.348 . S
C125 C126 1.442 . S
C125 H152 0.930 . S
C126 C125 1.442 . S
C126 C127 1.381 . S
C126 H153 0.931 . S
C127 C126 1.381 . S
C127 C128 1.321 . S
C128 C127 1.321 . S
C128 C129 1.403 . S
C128 H154 0.934 . S
C129 C124 1.413 . S
C129 C128 1.403 . S
C129 H155 0.930 . S
C130 O144 1.275 . S
C130 O145 1.256 . S
C131 O146 1.259 . S
C131 O147 1.268 1_556 S
C132 Ho121 2.811 1_556 S
C132 C133 1.488 . S
C132 O148 1.215 . S
C132 O149 1.289 . S
C133 C132 1.488 . S
C133 C134 1.348 . S
C133 C138 1.413 . S
C134 C133 1.348 . S
C134 C135 1.442 . S
C134 H156 0.930 . S
C135 C134 1.442 . S
C135 C136 1.381 . S
C135 H157 0.931 . S
C136 C135 1.381 . S
C136 C137 1.321 . S
C137 C136 1.321 . S
C137 C138 1.403 . S
C137 H158 0.934 . S
C138 C133 1.413 . S
C138 C137 1.403 . S
C138 H159 0.930 . S
C139 O150 1.275 . S
C139 O151 1.256 . S
O140 Ho120 2.322 . S
O140 C122 1.259 . S
O141 Ho121 2.346 . S
O141 C122 1.268 . S
O142 Ho120 2.378 . S
O142 C123 1.215 . S
O143 Ho120 2.524 . S
O143 C123 1.289 . S
O144 Ho120 2.381 . S
O144 C130 1.275 . S
O145 Ho120 2.669 . S
O145 Ho121 2.305 . S
O145 C130 1.256 . S
O146 Ho121 2.322 1_556 S
O146 C131 1.259 . S
O147 Ho120 2.346 . S
O147 C131 1.268 1_554 S
O148 Ho121 2.378 1_556 S
O148 C132 1.215 . S
O149 Ho121 2.524 1_556 S
O149 C132 1.289 . S
O150 Ho121 2.381 . S
O150 C139 1.275 . S
O151 Ho120 2.305 . S
O151 Ho121 2.669 . S
O151 C139 1.256 . S
H152 C125 0.930 . S
H153 C126 0.931 . S
H154 C128 0.934 . S
H155 C129 0.930 . S
H156 C134 0.930 . S
H157 C135 0.931 . S
H158 C137 0.934 . S
H159 C138 0.930 . S
Ho160 C163 2.811 . S
Ho160 O180 2.322 . S
Ho160 O182 2.378 . S
Ho160 O183 2.524 . S
Ho160 O184 2.381 . S
Ho160 O185 2.669 . S
Ho160 O187 2.346 . S
Ho160 O191 2.305 . S
Ho161 C172 2.811 . S
Ho161 O181 2.346 . S
Ho161 O185 2.305 . S
Ho161 O186 2.322 . S
Ho161 O188 2.378 . S
Ho161 O189 2.524 . S
Ho161 O190 2.381 . S
Ho161 O191 2.669 . S
C162 O180 1.259 . S
C162 O181 1.268 . S
C163 Ho160 2.811 . S
C163 C164 1.488 . S
C163 O182 1.215 . S
C163 O183 1.289 . S
C164 C163 1.488 . S
C164 C165 1.348 . S
C164 C169 1.413 . S
C165 C164 1.348 . S
C165 C166 1.442 . S
C165 H192 0.930 . S
C166 C165 1.442 . S
C166 C167 1.381 . S
C166 H193 0.931 . S
C167 C166 1.381 . S
C167 C168 1.321 . S
C168 C167 1.321 . S
C168 C169 1.403 . S
C168 H194 0.934 . S
C169 C164 1.413 . S
C169 C168 1.403 . S
C169 H195 0.930 . S
C170 O184 1.275 . S
C170 O185 1.256 . S
C171 O186 1.259 . S
C171 O187 1.268 . S
C172 Ho161 2.811 . S
C172 C173 1.488 . S
C172 O188 1.215 . S
C172 O189 1.289 . S
C173 C172 1.488 . S
C173 C174 1.348 . S
C173 C178 1.413 . S
C174 C173 1.348 . S
C174 C175 1.442 . S
C174 H196 0.930 . S
C175 C174 1.442 . S
C175 C176 1.381 . S
C175 H197 0.931 1_455 S
C176 C175 1.381 . S
C176 C177 1.321 . S
C177 C176 1.321 . S
C177 C178 1.403 . S
C177 H198 0.934 . S
C178 C173 1.413 . S
C178 C177 1.403 . S
C178 H199 0.930 . S
C179 O190 1.275 . S
C179 O191 1.256 . S
O180 Ho160 2.322 . S
O180 C162 1.259 . S
O181 Ho161 2.346 . S
O181 C162 1.268 . S
O182 Ho160 2.378 . S
O182 C163 1.215 . S
O183 Ho160 2.524 . S
O183 C163 1.289 . S
O184 Ho160 2.381 . S
O184 C170 1.275 . S
O185 Ho160 2.669 . S
O185 Ho161 2.305 . S
O185 C170 1.256 . S
O186 Ho161 2.322 . S
O186 C171 1.259 . S
O187 Ho160 2.346 . S
O187 C171 1.268 . S
O188 Ho161 2.378 . S
O188 C172 1.215 . S
O189 Ho161 2.524 . S
O189 C172 1.289 . S
O190 Ho161 2.381 . S
O190 C179 1.275 . S
O191 Ho160 2.305 . S
O191 Ho161 2.669 . S
O191 C179 1.256 . S
H192 C165 0.930 . S
H193 C166 0.931 . S
H194 C168 0.934 . S
H195 C169 0.930 . S
H196 C174 0.930 . S
H197 C175 0.931 1_655 S
H198 C177 0.934 . S
H199 C178 0.930 . S
Ho200 C203 2.811 . S
Ho200 O220 2.322 . S
Ho200 O222 2.378 . S
Ho200 O223 2.524 . S
Ho200 O224 2.381 . S
Ho200 O225 2.669 . S
Ho200 O227 2.346 . S
Ho200 O231 2.305 . S
Ho201 C212 2.811 . S
Ho201 O221 2.346 . S
Ho201 O225 2.305 . S
Ho201 O226 2.322 . S
Ho201 O228 2.378 . S
Ho201 O229 2.524 . S
Ho201 O230 2.381 . S
Ho201 O231 2.669 . S
C202 O220 1.259 . S
C202 O221 1.268 . S
C203 Ho200 2.811 . S
C203 C204 1.488 . S
C203 O222 1.215 . S
C203 O223 1.289 . S
C204 C203 1.488 . S
C204 C205 1.348 . S
C204 C209 1.413 . S
C205 C204 1.348 . S
C205 C206 1.442 . S
C205 H232 0.930 . S
C206 C205 1.442 . S
C206 C207 1.381 . S
C206 H233 0.931 . S
C207 C206 1.381 . S
C207 C208 1.321 . S
C208 C207 1.321 . S
C208 C209 1.403 . S
C208 H234 0.934 . S
C209 C204 1.413 . S
C209 C208 1.403 . S
C209 H235 0.930 . S
C210 O224 1.275 . S
C210 O225 1.256 . S
C211 O226 1.259 . S
C211 O227 1.268 . S
C212 Ho201 2.811 . S
C212 C213 1.488 . S
C212 O228 1.215 . S
C212 O229 1.289 . S
C213 C212 1.488 . S
C213 C214 1.348 . S
C213 C218 1.413 . S
C214 C213 1.348 . S
C214 C215 1.442 . S
C214 H236 0.930 . S
C215 C214 1.442 . S
C215 C216 1.381 . S
C215 H237 0.931 1_545 S
C216 C215 1.381 . S
C216 C217 1.321 . S
C217 C216 1.321 . S
C217 C218 1.403 . S
C217 H238 0.934 . S
C218 C213 1.413 . S
C218 C217 1.403 . S
C218 H239 0.930 . S
C219 O230 1.275 . S
C219 O231 1.256 . S
O220 Ho200 2.322 . S
O220 C202 1.259 . S
O221 Ho201 2.346 . S
O221 C202 1.268 . S
O222 Ho200 2.378 . S
O222 C203 1.215 . S
O223 Ho200 2.524 . S
O223 C203 1.289 . S
O224 Ho200 2.381 . S
O224 C210 1.275 . S
O225 Ho200 2.669 . S
O225 Ho201 2.305 . S
O225 C210 1.256 . S
O226 Ho201 2.322 . S
O226 C211 1.259 . S
O227 Ho200 2.346 . S
O227 C211 1.268 . S
O228 Ho201 2.378 . S
O228 C212 1.215 . S
O229 Ho201 2.524 . S
O229 C212 1.289 . S
O230 Ho201 2.381 . S
O230 C219 1.275 . S
O231 Ho200 2.305 . S
O231 Ho201 2.669 . S
O231 C219 1.256 . S
H232 C205 0.930 . S
H233 C206 0.931 . S
H234 C208 0.934 . S
H235 C209 0.930 . S
H236 C214 0.930 . S
H237 C215 0.931 1_565 S
H238 C217 0.934 . S
H239 C218 0.930 . S
H240 C248 0.950 . S
H241 C253 0.950 . S
H242 C250 0.950 . S
H243 C252 0.950 . S
H244 C254 0.950 . S
H245 C256 0.950 . S
H246 C258 0.950 . S
H247 C259 0.950 . S
C248 H240 0.950 . S
C248 C249 1.386 . S
C248 C250 1.391 . S
C249 C248 1.386 . S
C249 C253 1.393 . S
C250 H242 0.950 . S
C250 C248 1.391 . S
C250 C251 1.400 . S
C251 C250 1.400 . S
C251 C252 1.398 . S
C251 C257 1.491 . S
C252 H243 0.950 . S
C252 C251 1.398 . S
C252 C253 1.391 . S
C253 H241 0.950 . S
C253 C249 1.393 . S
C253 C252 1.391 . S
C254 H244 0.950 . S
C254 C255 1.386 . S
C254 C256 1.391 . S
C255 C254 1.386 . S
C255 C259 1.393 . S
C256 H245 0.950 . S
C256 C254 1.391 . S
C256 C257 1.400 . S
C257 C251 1.491 . S
C257 C256 1.400 . S
C257 C258 1.398 . S
C258 H246 0.950 . S
C258 C257 1.398 . S
C258 C259 1.391 . S
C259 H247 0.950 . S
C259 C255 1.393 . S
C259 C258 1.391 . S
H260 C268 0.950 . S
H261 C273 0.950 . S
H262 C270 0.950 . S
H263 C272 0.950 . S
H264 C274 0.950 . S
H265 C276 0.950 . S
H266 C278 0.950 . S
H267 C279 0.950 . S
C268 H260 0.950 . S
C268 C269 1.386 . S
C268 C270 1.391 . S
C269 C268 1.386 . S
C269 C273 1.393 . S
C270 H262 0.950 . S
C270 C268 1.391 . S
C270 C271 1.400 . S
C271 C270 1.400 . S
C271 C272 1.398 . S
C271 C277 1.491 . S
C272 H263 0.950 . S
C272 C271 1.398 . S
C272 C273 1.391 . S
C273 H261 0.950 . S
C273 C269 1.393 . S
C273 C272 1.391 . S
C274 H264 0.950 . S
C274 C275 1.386 . S
C274 C276 1.391 . S
C275 C274 1.386 . S
C275 C279 1.393 . S
C276 H265 0.950 . S
C276 C274 1.391 . S
C276 C277 1.400 . S
C277 C271 1.491 . S
C277 C276 1.400 . S
C277 C278 1.398 . S
C278 H266 0.950 . S
C278 C277 1.398 . S
C278 C279 1.391 . S
C279 H267 0.950 . S
C279 C275 1.393 . S
C279 C278 1.391 . S
H280 C288 0.950 . S
H281 C293 0.950 . S
H282 C290 0.950 . S
H283 C292 0.950 . S
H284 C294 0.950 . S
H285 C296 0.950 . S
H286 C298 0.950 . S
H287 C299 0.950 . S
C288 H280 0.950 . S
C288 C289 1.386 . S
C288 C290 1.391 . S
C289 C288 1.386 . S
C289 C293 1.393 . S
C290 H282 0.950 . S
C290 C288 1.391 . S
C290 C291 1.400 . S
C291 C290 1.400 . S
C291 C292 1.398 . S
C291 C297 1.491 . S
C292 H283 0.950 . S
C292 C291 1.398 . S
C292 C293 1.391 . S
C293 H281 0.950 . S
C293 C289 1.393 . S
C293 C292 1.391 . S
C294 H284 0.950 . S
C294 C295 1.386 . S
C294 C296 1.391 . S
C295 C294 1.386 . S
C295 C299 1.393 . S
C296 H285 0.950 . S
C296 C294 1.391 . S
C296 C297 1.400 . S
C297 C291 1.491 . S
C297 C296 1.400 . S
C297 C298 1.398 . S
C298 H286 0.950 . S
C298 C297 1.398 . S
C298 C299 1.391 . S
C299 H287 0.950 . S
C299 C295 1.393 . S
C299 C298 1.391 . S
H300 C308 0.950 . S
H301 C313 0.950 . S
H302 C310 0.950 . S
H303 C312 0.950 . S
H304 C314 0.950 . S
H305 C316 0.950 . S
H306 C318 0.950 . S
H307 C319 0.950 . S
C308 H300 0.950 . S
C308 C309 1.386 . S
C308 C310 1.391 . S
C309 C308 1.386 . S
C309 C313 1.393 . S
C310 H302 0.950 . S
C310 C308 1.391 . S
C310 C311 1.400 . S
C311 C310 1.400 . S
C311 C312 1.398 . S
C311 C317 1.491 . S
C312 H303 0.950 . S
C312 C311 1.398 . S
C312 C313 1.391 . S
C313 H301 0.950 . S
C313 C309 1.393 . S
C313 C312 1.391 . S
C314 H304 0.950 . S
C314 C315 1.386 . S
C314 C316 1.391 . S
C315 C314 1.386 . S
C315 C319 1.393 . S
C316 H305 0.950 . S
C316 C314 1.391 . S
C316 C317 1.400 . S
C317 C311 1.491 . S
C317 C316 1.400 . S
C317 C318 1.398 . S
C318 H306 0.950 . S
C318 C317 1.398 . S
C318 C319 1.391 . S
C319 H307 0.950 . S
C319 C315 1.393 . S
C319 C318 1.391 . S
H320 C328 0.950 . S
H321 C333 0.950 . S
H322 C330 0.950 . S
H323 C332 0.950 . S
H324 C334 0.950 . S
H325 C336 0.950 . S
H326 C338 0.950 . S
H327 C339 0.950 . S
C328 H320 0.950 . S
C328 C329 1.386 . S
C328 C330 1.391 . S
C329 C328 1.386 . S
C329 C333 1.393 . S
C330 H322 0.950 . S
C330 C328 1.391 . S
C330 C331 1.400 . S
C331 C330 1.400 . S
C331 C332 1.398 . S
C331 C337 1.491 . S
C332 H323 0.950 . S
C332 C331 1.398 . S
C332 C333 1.391 . S
C333 H321 0.950 . S
C333 C329 1.393 . S
C333 C332 1.391 . S
C334 H324 0.950 . S
C334 C335 1.386 . S
C334 C336 1.391 . S
C335 C334 1.386 . S
C335 C339 1.393 . S
C336 H325 0.950 . S
C336 C334 1.391 . S
C336 C337 1.400 . S
C337 C331 1.491 . S
C337 C336 1.400 . S
C337 C338 1.398 . S
C338 H326 0.950 . S
C338 C337 1.398 . S
C338 C339 1.391 . S
C339 H327 0.950 . S
C339 C335 1.393 . S
C339 C338 1.391 . S
H340 C348 0.950 . S
H341 C353 0.950 . S
H342 C350 0.950 . S
H343 C352 0.950 . S
H344 C354 0.950 . S
H345 C356 0.950 . S
H346 C358 0.950 . S
H347 C359 0.950 . S
C348 H340 0.950 . S
C348 C349 1.386 . S
C348 C350 1.391 . S
C349 C348 1.386 . S
C349 C353 1.393 . S
C350 H342 0.950 . S
C350 C348 1.391 . S
C350 C351 1.400 . S
C351 C350 1.400 . S
C351 C352 1.398 . S
C351 C357 1.491 . S
C352 H343 0.950 . S
C352 C351 1.398 . S
C352 C353 1.391 . S
C353 H341 0.950 . S
C353 C349 1.393 . S
C353 C352 1.391 . S
C354 H344 0.950 . S
C354 C355 1.386 . S
C354 C356 1.391 . S
C355 C354 1.386 . S
C355 C359 1.393 . S
C356 H345 0.950 . S
C356 C354 1.391 . S
C356 C357 1.400 . S
C357 C351 1.491 . S
C357 C356 1.400 . S
C357 C358 1.398 . S
C358 H346 0.950 . S
C358 C357 1.398 . S
C358 C359 1.391 . S
C359 H347 0.950 . S
C359 C355 1.393 . S
C359 C358 1.391 . S
H360 C368 0.950 . S
H361 C373 0.950 . S
H362 C370 0.950 . S
H363 C372 0.950 . S
H364 C374 0.950 . S
H365 C376 0.950 . S
H366 C378 0.950 . S
H367 C379 0.950 . S
C368 H360 0.950 . S
C368 C369 1.386 . S
C368 C370 1.391 . S
C369 C368 1.386 . S
C369 C373 1.393 . S
C370 H362 0.950 . S
C370 C368 1.391 . S
C370 C371 1.400 . S
C371 C370 1.400 . S
C371 C372 1.398 . S
C371 C377 1.491 . S
C372 H363 0.950 . S
C372 C371 1.398 . S
C372 C373 1.391 . S
C373 H361 0.950 . S
C373 C369 1.393 . S
C373 C372 1.391 . S
C374 H364 0.950 . S
C374 C375 1.386 . S
C374 C376 1.391 . S
C375 C374 1.386 . S
C375 C379 1.393 . S
C376 H365 0.950 . S
C376 C374 1.391 . S
C376 C377 1.400 . S
C377 C371 1.491 . S
C377 C376 1.400 . S
C377 C378 1.398 . S
C378 H366 0.950 . S
C378 C377 1.398 . S
C378 C379 1.391 . S
C379 H367 0.950 . S
C379 C375 1.393 . S
C379 C378 1.391 . S
H380 C388 0.950 . S
H381 C393 0.950 . S
H382 C390 0.950 . S
H383 C392 0.950 . S
H384 C394 0.950 . S
H385 C396 0.950 . S
H386 C398 0.950 . S
H387 C399 0.950 . S
C388 H380 0.950 . S
C388 C389 1.386 . S
C388 C390 1.391 . S
C389 C388 1.386 . S
C389 C393 1.393 . S
C390 H382 0.950 . S
C390 C388 1.391 . S
C390 C391 1.400 . S
C391 C390 1.400 . S
C391 C392 1.398 1_455 S
C391 C397 1.491 1_455 S
C392 H383 0.950 . S
C392 C391 1.398 1_655 S
C392 C393 1.391 1_655 S
C393 H381 0.950 . S
C393 C389 1.393 . S
C393 C392 1.391 1_455 S
C394 H384 0.950 . S
C394 C395 1.386 . S
C394 C396 1.391 . S
C395 C394 1.386 . S
C395 C399 1.393 . S
C396 H385 0.950 . S
C396 C394 1.391 . S
C396 C397 1.400 . S
C397 C391 1.491 1_655 S
C397 C396 1.400 . S
C397 C398 1.398 1_655 S
C398 H386 0.950 . S
C398 C397 1.398 1_455 S
C398 C399 1.391 1_455 S
C399 H387 0.950 . S
C399 C395 1.393 . S
C399 C398 1.391 1_655 S
H400 C408 0.950 1_565 S
H401 C413 0.950 . S
H402 C410 0.950 . S
H403 C412 0.950 . S
H404 C414 0.950 1_545 S
H405 C416 0.950 . S
H406 C418 0.950 . S
H407 C419 0.950 . S
C408 H400 0.950 1_545 S
C408 C409 1.386 . S
C408 C410 1.391 1_545 S
C409 C408 1.386 . S
C409 C413 1.393 . S
C410 H402 0.950 . S
C410 C408 1.391 1_565 S
C410 C411 1.400 1_565 S
C411 C410 1.400 1_545 S
C411 C412 1.398 . S
C411 C417 1.491 1_545 S
C412 H403 0.950 . S
C412 C411 1.398 . S
C412 C413 1.391 . S
C413 H401 0.950 . S
C413 C409 1.393 . S
C413 C412 1.391 . S
C414 H404 0.950 1_565 S
C414 C415 1.386 . S
C414 C416 1.391 1_565 S
C415 C414 1.386 . S
C415 C419 1.393 . S
C416 H405 0.950 . S
C416 C414 1.391 1_545 S
C416 C417 1.400 1_545 S
C417 C411 1.491 1_565 S
C417 C416 1.400 1_565 S
C417 C418 1.398 . S
C418 H406 0.950 . S
C418 C417 1.398 . S
C418 C419 1.391 . S
C419 H407 0.950 . S
C419 C415 1.393 . S
C419 C418 1.391 . S
H420 C428 0.950 . S
H421 C433 0.950 . S
H422 C430 0.950 . S
H423 C432 0.950 . S
H424 C434 0.950 . S
H425 C436 0.950 . S
H426 C438 0.950 . S
H427 C439 0.950 . S
C428 H420 0.950 . S
C428 C429 1.386 . S
C428 C430 1.391 . S
C429 C428 1.386 . S
C429 C433 1.393 . S
C430 H422 0.950 . S
C430 C428 1.391 . S
C430 C431 1.400 . S
C431 C430 1.400 . S
C431 C432 1.398 . S
C431 C437 1.491 . S
C432 H423 0.950 . S
C432 C431 1.398 . S
C432 C433 1.391 . S
C433 H421 0.950 . S
C433 C429 1.393 . S
C433 C432 1.391 . S
C434 H424 0.950 . S
C434 C435 1.386 . S
C434 C436 1.391 . S
C435 C434 1.386 . S
C435 C439 1.393 . S
C436 H425 0.950 . S
C436 C434 1.391 . S
C436 C437 1.400 . S
C437 C431 1.491 . S
C437 C436 1.400 . S
C437 C438 1.398 . S
C438 H426 0.950 . S
C438 C437 1.398 . S
C438 C439 1.391 . S
C439 H427 0.950 . S
C439 C435 1.393 . S
C439 C438 1.391 . S
H440 C448 0.950 1_655 S
H441 C453 0.950 . S
H442 C450 0.950 . S
H443 C452 0.950 . S
H444 C454 0.950 1_455 S
H445 C456 0.950 . S
H446 C458 0.950 . S
H447 C459 0.950 . S
C448 H440 0.950 1_455 S
C448 C449 1.386 . S
C448 C450 1.391 1_455 S
C449 C448 1.386 . S
C449 C453 1.393 . S
C450 H442 0.950 . S
C450 C448 1.391 1_655 S
C450 C451 1.400 1_655 S
C451 C450 1.400 1_455 S
C451 C452 1.398 . S
C451 C457 1.491 1_455 S
C452 H443 0.950 . S
C452 C451 1.398 . S
C452 C453 1.391 . S
C453 H441 0.950 . S
C453 C449 1.393 . S
C453 C452 1.391 . S
C454 H444 0.950 1_655 S
C454 C455 1.386 . S
C454 C456 1.391 1_655 S
C455 C454 1.386 . S
C455 C459 1.393 . S
C456 H445 0.950 . S
C456 C454 1.391 1_455 S
C456 C457 1.400 1_455 S
C457 C451 1.491 1_655 S
C457 C456 1.400 1_655 S
C457 C458 1.398 . S
C458 H446 0.950 . S
C458 C457 1.398 . S
C458 C459 1.391 . S
C459 H447 0.950 . S
C459 C455 1.393 . S
C459 C458 1.391 . S
H460 C468 0.950 . S
H461 C473 0.950 . S
H462 C470 0.950 . S
H463 C472 0.950 . S
H464 C474 0.950 . S
H465 C476 0.950 . S
H466 C478 0.950 . S
H467 C479 0.950 . S
C468 H460 0.950 . S
C468 C469 1.386 . S
C468 C470 1.391 . S
C469 C468 1.386 . S
C469 C473 1.393 . S
C470 H462 0.950 . S
C470 C468 1.391 . S
C470 C471 1.400 . S
C471 C470 1.400 . S
C471 C472 1.398 . S
C471 C477 1.491 1_565 S
C472 H463 0.950 . S
C472 C471 1.398 . S
C472 C473 1.391 . S
C473 H461 0.950 . S
C473 C469 1.393 . S
C473 C472 1.391 . S
C474 H464 0.950 . S
C474 C475 1.386 . S
C474 C476 1.391 . S
C475 C474 1.386 . S
C475 C479 1.393 . S
C476 H465 0.950 . S
C476 C474 1.391 . S
C476 C477 1.400 . S
C477 C471 1.491 1_545 S
C477 C476 1.400 . S
C477 C478 1.398 . S
C478 H466 0.950 . S
C478 C477 1.398 . S
C478 C479 1.391 . S
C479 H467 0.950 . S
C479 C475 1.393 . S
C479 C478 1.391 . S
H480 C488 0.950 . S
H481 C493 0.950 . S
H482 C490 0.950 . S
H483 C492 0.950 . S
H484 C494 0.950 . S
H485 C496 0.950 . S
H486 C498 0.950 . S
H487 C499 0.950 . S
C488 H480 0.950 . S
C488 C489 1.386 . S
C488 C490 1.391 . S
C489 C488 1.386 . S
C489 C493 1.393 . S
C490 H482 0.950 . S
C490 C488 1.391 . S
C490 C491 1.400 . S
C491 C490 1.400 . S
C491 C492 1.398 . S
C491 C497 1.491 . S
C492 H483 0.950 . S
C492 C491 1.398 . S
C492 C493 1.391 . S
C493 H481 0.950 . S
C493 C489 1.393 . S
C493 C492 1.391 . S
C494 H484 0.950 . S
C494 C495 1.386 . S
C494 C496 1.391 . S
C495 C494 1.386 . S
C495 C499 1.393 . S
C496 H485 0.950 . S
C496 C494 1.391 . S
C496 C497 1.400 . S
C497 C491 1.491 . S
C497 C496 1.400 . S
C497 C498 1.398 . S
C498 H486 0.950 . S
C498 C497 1.398 . S
C498 C499 1.391 . S
C499 H487 0.950 . S
C499 C495 1.393 . S
C499 C498 1.391 . S
H500 C508 0.950 . S
H501 C513 0.950 . S
H502 C510 0.950 . S
H503 C512 0.950 1_655 S
H504 C514 0.950 . S
H505 C516 0.950 . S
H506 C518 0.950 . S
H507 C519 0.950 . S
C508 H500 0.950 . S
C508 C509 1.386 1_455 S
C508 C510 1.391 . S
C509 C508 1.386 1_655 S
C509 C513 1.393 . S
C510 H502 0.950 . S
C510 C508 1.391 . S
C510 C511 1.400 . S
C511 C510 1.400 . S
C511 C512 1.398 . S
C511 C517 1.491 . S
C512 H503 0.950 1_455 S
C512 C511 1.398 . S
C512 C513 1.391 1_455 S
C513 H501 0.950 . S
C513 C509 1.393 . S
C513 C512 1.391 1_655 S
C514 H504 0.950 . S
C514 C515 1.386 . S
C514 C516 1.391 . S
C515 C514 1.386 . S
C515 C519 1.393 . S
C516 H505 0.950 . S
C516 C514 1.391 . S
C516 C517 1.400 . S
C517 C511 1.491 . S
C517 C516 1.400 . S
C517 C518 1.398 . S
C518 H506 0.950 . S
C518 C517 1.398 . S
C518 C519 1.391 . S
C519 H507 0.950 . S
C519 C515 1.393 . S
C519 C518 1.391 . S
H520 C528 0.950 . S
H521 C533 0.950 . S
H522 C530 0.950 . S
H523 C532 0.950 . S
H524 C534 0.950 . S
H525 C536 0.950 . S
H526 C538 0.940 1_565 S
H527 C539 0.950 . S
C528 H520 0.950 . S
C528 C529 1.386 . S
C528 C530 1.391 . S
C529 C528 1.386 . S
C529 C533 1.393 1_565 S
C530 H522 0.950 . S
C530 C528 1.391 . S
C530 C531 1.400 1_565 S
C531 C530 1.400 1_545 S
C531 C532 1.398 . S
C531 C537 1.491 . S
C532 H523 0.950 . S
C532 C531 1.398 . S
C532 C533 1.391 . S
C533 H521 0.950 . S
C533 C529 1.393 1_545 S
C533 C532 1.391 . S
C534 H524 0.950 . S
C534 C535 1.386 . S
C534 C536 1.391 . S
C535 C534 1.386 . S
C535 C539 1.393 . S
C536 H525 0.950 . S
C536 C534 1.391 . S
C536 C537 1.400 . S
C537 C531 1.491 . S
C537 C536 1.400 . S
C537 C538 1.398 . S
C538 H526 0.940 1_545 S
C538 C537 1.398 . S
C538 C539 1.391 . S
C539 H527 0.950 . S
C539 C535 1.393 . S
C539 C538 1.391 . S
H540 C548 0.950 . S
H541 C553 0.950 . S
H542 C550 0.950 . S
H543 C552 0.950 . S
H544 C554 0.950 . S
H545 C556 0.950 . S
H546 C558 0.950 . S
H547 C559 0.950 . S
C548 H540 0.950 . S
C548 C549 1.386 . S
C548 C550 1.391 . S
C549 C548 1.386 . S
C549 C553 1.393 . S
C550 H542 0.950 . S
C550 C548 1.391 . S
C550 C551 1.400 . S
C551 C550 1.400 . S
C551 C552 1.398 . S
C551 C557 1.491 . S
C552 H543 0.950 . S
C552 C551 1.398 . S
C552 C553 1.391 . S
C553 H541 0.950 . S
C553 C549 1.393 . S
C553 C552 1.391 . S
C554 H544 0.950 . S
C554 C555 1.386 . S
C554 C556 1.391 . S
C555 C554 1.386 . S
C555 C559 1.393 . S
C556 H545 0.950 . S
C556 C554 1.391 . S
C556 C557 1.400 . S
C557 C551 1.491 . S
C557 C556 1.400 . S
C557 C558 1.398 . S
C558 H546 0.950 . S
C558 C557 1.398 . S
C558 C559 1.391 . S
C559 H547 0.950 . S
C559 C555 1.393 . S
C559 C558 1.391 . S
H560 C568 0.950 . S
H561 C573 0.950 . S
H562 C570 0.950 . S
H563 C572 0.950 . S
H564 C574 0.950 . S
H565 C576 0.950 . S
H566 C578 0.950 . S
H567 C579 0.950 . S
C568 H560 0.950 . S
C568 C569 1.386 . S
C568 C570 1.391 . S
C569 C568 1.386 . S
C569 C573 1.393 1_455 S
C570 H562 0.950 . S
C570 C568 1.391 . S
C570 C571 1.400 1_455 S
C571 C570 1.400 1_655 S
C571 C572 1.398 . S
C571 C577 1.491 . S
C572 H563 0.950 . S
C572 C571 1.398 . S
C572 C573 1.391 . S
C573 H561 0.950 . S
C573 C569 1.393 1_655 S
C573 C572 1.391 . S
C574 H564 0.950 . S
C574 C575 1.386 . S
C574 C576 1.391 . S
C575 C574 1.386 . S
C575 C579 1.393 . S
C576 H565 0.950 . S
C576 C574 1.391 . S
C576 C577 1.400 . S
C577 C571 1.491 . S
C577 C576 1.400 . S
C577 C578 1.398 . S
C578 H566 0.950 . S
C578 C577 1.398 . S
C578 C579 1.391 . S
C579 H567 0.950 . S
C579 C575 1.393 . S
C579 C578 1.391 . S
H580 C588 0.950 . S
H581 C593 0.950 . S
H582 C590 0.950 . S
H583 C592 0.956 1_545 S
H584 C594 0.950 . S
H585 C596 0.950 . S
H586 C598 0.950 . S
H587 C599 0.950 . S
C588 H580 0.950 . S
C588 C589 1.386 1_565 S
C588 C590 1.391 . S
C589 C588 1.386 1_545 S
C589 C593 1.393 . S
C590 H582 0.950 . S
C590 C588 1.391 . S
C590 C591 1.400 . S
C591 C590 1.400 . S
C591 C592 1.398 . S
C591 C597 1.491 . S
C592 H583 0.956 1_565 S
C592 C591 1.398 . S
C592 C593 1.391 1_565 S
C593 H581 0.950 . S
C593 C589 1.393 . S
C593 C592 1.391 1_545 S
C594 H584 0.950 . S
C594 C595 1.386 . S
C594 C596 1.391 . S
C595 C594 1.386 . S
C595 C599 1.393 . S
C596 H585 0.950 . S
C596 C594 1.391 . S
C596 C597 1.400 . S
C597 C591 1.491 . S
C597 C596 1.400 . S
C597 C598 1.398 . S
C598 H586 0.950 . S
C598 C597 1.398 . S
C598 C599 1.391 . S
C599 H587 0.950 . S
C599 C595 1.393 . S
C599 C598 1.391 . S
C249 C171 1.177 . S
C255 C7 1.189 . S
C269 C211 1.178 . S
C275 C47 1.190 . S
C289 C11 1.186 . S
C295 C87 1.188 . S
C309 C51 1.181 . S
C315 C127 1.188 . S
C329 C91 1.186 . S
C335 C167 1.188 . S
C349 C131 1.181 . S
C355 C207 1.188 . S
C369 C10 0.938 . S
C375 C130 0.943 . S
C389 C170 0.937 . S
C395 C50 0.941 . S
C409 C210 0.900 . S
C415 C90 0.894 . S
C429 C99 1.007 . S
C435 C219 1.013 . S
C449 C19 1.012 . S
C455 C139 1.006 . S
C469 C179 1.002 . S
C475 C59 1.004 . S
C489 C202 1.314 . S
C495 C16 1.298 . S
C509 C56 1.291 . S
C515 C2 1.310 . S
C529 C96 1.275 . S
C535 C42 1.309 . S
C549 C82 1.312 . S
C555 C136 1.296 . S
C569 C176 1.278 . S
C575 C122 1.312 . S
C589 C216 1.290 . S
C595 C162 1.310 . S
