# Generated by pormake.
# Topology unb, (4)-cn, num edge types: 1
# Building blocks:
#     Node 0, Type 0, BuildingBlock: NAHDIM_clean_sbu_0, # of connection points: 4
#     Node 1, Type 0, BuildingBlock: NAHDIM_clean_sbu_0, # of connection points: 4
#     Node 2, Type 0, BuildingBlock: NAHDIM_clean_sbu_0, # of connection points: 4
#     Node 3, Type 0, BuildingBlock: NAHDIM_clean_sbu_0, # of connection points: 4
#     Node 4, Type 0, BuildingBlock: NAHDIM_clean_sbu_0, # of connection points: 4
#     Node 5, Type 0, BuildingBlock: NAHDIM_clean_sbu_0, # of connection points: 4
#     Node 6, Type 0, BuildingBlock: NAHDIM_clean_sbu_0, # of connection points: 4
#     Node 7, Type 0, BuildingBlock: NAHDIM_clean_sbu_0, # of connection points: 4
#     Node 8, Type 0, BuildingBlock: NAHDIM_clean_sbu_0, # of connection points: 4
#     Node 9, Type 0, BuildingBlock: NAHDIM_clean_sbu_0, # of connection points: 4
#     Node 10, Type 0, BuildingBlock: NAHDIM_clean_sbu_0, # of connection points: 4
#     Node 11, Type 0, BuildingBlock: NAHDIM_clean_sbu_0, # of connection points: 4
#     Node 12, Type 0, BuildingBlock: NAHDIM_clean_sbu_0, # of connection points: 4
#     Node 13, Type 0, BuildingBlock: NAHDIM_clean_sbu_0, # of connection points: 4
#     Node 14, Type 0, BuildingBlock: NAHDIM_clean_sbu_0, # of connection points: 4
#     Node 15, Type 0, BuildingBlock: NAHDIM_clean_sbu_0, # of connection points: 4
#     Node 16, Type 0, BuildingBlock: NAHDIM_clean_sbu_0, # of connection points: 4
#     Node 17, Type 0, BuildingBlock: NAHDIM_clean_sbu_0, # of connection points: 4
#     Edge 18, Type (0, 0), BuildingBlock: XIVTED_clean_linker_0, # of connection points: 2
#     Edge 19, Type (0, 0), BuildingBlock: XIVTED_clean_linker_0, # of connection points: 2
#     Edge 20, Type (0, 0), BuildingBlock: XIVTED_clean_linker_0, # of connection points: 2
#     Edge 21, Type (0, 0), BuildingBlock: XIVTED_clean_linker_0, # of connection points: 2
#     Edge 22, Type (0, 0), BuildingBlock: XIVTED_clean_linker_0, # of connection points: 2
#     Edge 23, Type (0, 0), BuildingBlock: XIVTED_clean_linker_0, # of connection points: 2
#     Edge 24, Type (0, 0), BuildingBlock: XIVTED_clean_linker_0, # of connection points: 2
#     Edge 25, Type (0, 0), BuildingBlock: XIVTED_clean_linker_0, # of connection points: 2
#     Edge 26, Type (0, 0), BuildingBlock: XIVTED_clean_linker_0, # of connection points: 2
#     Edge 27, Type (0, 0), BuildingBlock: XIVTED_clean_linker_0, # of connection points: 2
#     Edge 28, Type (0, 0), BuildingBlock: XIVTED_clean_linker_0, # of connection points: 2
#     Edge 29, Type (0, 0), BuildingBlock: XIVTED_clean_linker_0, # of connection points: 2
#     Edge 30, Type (0, 0), BuildingBlock: XIVTED_clean_linker_0, # of connection points: 2
#     Edge 31, Type (0, 0), BuildingBlock: XIVTED_clean_linker_0, # of connection points: 2
#     Edge 32, Type (0, 0), BuildingBlock: XIVTED_clean_linker_0, # of connection points: 2
#     Edge 33, Type (0, 0), BuildingBlock: XIVTED_clean_linker_0, # of connection points: 2
#     Edge 34, Type (0, 0), BuildingBlock: XIVTED_clean_linker_0, # of connection points: 2
#     Edge 35, Type (0, 0), BuildingBlock: XIVTED_clean_linker_0, # of connection points: 2
#     Edge 36, Type (0, 0), BuildingBlock: XIVTED_clean_linker_0, # of connection points: 2
#     Edge 37, Type (0, 0), BuildingBlock: XIVTED_clean_linker_0, # of connection points: 2
#     Edge 38, Type (0, 0), BuildingBlock: XIVTED_clean_linker_0, # of connection points: 2
#     Edge 39, Type (0, 0), BuildingBlock: XIVTED_clean_linker_0, # of connection points: 2
#     Edge 40, Type (0, 0), BuildingBlock: XIVTED_clean_linker_0, # of connection points: 2
#     Edge 41, Type (0, 0), BuildingBlock: XIVTED_clean_linker_0, # of connection points: 2
#     Edge 42, Type (0, 0), BuildingBlock: XIVTED_clean_linker_0, # of connection points: 2
#     Edge 43, Type (0, 0), BuildingBlock: XIVTED_clean_linker_0, # of connection points: 2
#     Edge 44, Type (0, 0), BuildingBlock: XIVTED_clean_linker_0, # of connection points: 2
#     Edge 45, Type (0, 0), BuildingBlock: XIVTED_clean_linker_0, # of connection points: 2
#     Edge 46, Type (0, 0), BuildingBlock: XIVTED_clean_linker_0, # of connection points: 2
#     Edge 47, Type (0, 0), BuildingBlock: XIVTED_clean_linker_0, # of connection points: 2
#     Edge 48, Type (0, 0), BuildingBlock: XIVTED_clean_linker_0, # of connection points: 2
#     Edge 49, Type (0, 0), BuildingBlock: XIVTED_clean_linker_0, # of connection points: 2
#     Edge 50, Type (0, 0), BuildingBlock: XIVTED_clean_linker_0, # of connection points: 2
#     Edge 51, Type (0, 0), BuildingBlock: XIVTED_clean_linker_0, # of connection points: 2
#     Edge 52, Type (0, 0), BuildingBlock: XIVTED_clean_linker_0, # of connection points: 2
#     Edge 53, Type (0, 0), BuildingBlock: XIVTED_clean_linker_0, # of connection points: 2
# Relax obj value: 0.066
# Max RMSD: 0.063
# Mean RMSD: 0.063
data_MOF--net-unb--node1-NAHDIM_clean_sbu_0--edge1-XIVTED_clean_linker_0
_symmetry_space_group_name_H-M    P1
_symmetry_Int_Tables_number       1
_symmetry_cell_setting            triclinic
loop_
_symmetry_equiv_pos_as_xyz
'x, y, z'
_cell_length_a     65.351731
_cell_length_b     65.263264
_cell_length_c     25.91454
_cell_angle_alpha  89.932364
_cell_angle_beta   89.975192
_cell_angle_gamma 119.89786
loop_
_atom_site_label
_atom_site_type_symbol
_atom_site_fract_x
_atom_site_fract_y
_atom_site_fract_z
_atom_type_partial_charge
C0 C 0.13946 0.2881 0.15663 0.0
O1 O 0.12851 0.294 0.1223 0.0
O2 O 0.14829 0.23477 0.06514 0.0
Zn3 Zn 0.13498 0.25654 0.07574 0.0
O4 O 0.09943 0.23862 0.0688 0.0
C5 C 0.15623 0.27865 0.97856 0.0
O6 O 0.15618 0.2587 0.97136 0.0
O7 O 0.14418 0.27192 0.14564 0.0
C8 C 0.09028 0.23485 0.02404 0.0
O9 O 0.10417 0.24255 0.9835 0.0
C10 C 0.13604 0.21346 0.05017 0.0
O11 O 0.11315 0.20418 0.04435 0.0
O12 O 0.14844 0.28196 0.02086 0.0
C13 C 0.71147 0.86441 0.15183 0.0
O14 O 0.70722 0.87767 0.12044 0.0
O15 O 0.76398 0.90193 0.06314 0.0
Zn16 Zn 0.74219 0.86671 0.06882 0.0
O17 O 0.76015 0.84943 0.05744 0.0
C18 C 0.71404 0.87226 0.99015 0.0
O19 O 0.72394 0.89386 0.00848 0.0
O20 O 0.72593 0.85779 0.13803 0.0
C21 C 0.76451 0.84594 0.01148 0.0
O22 O 0.75753 0.85402 0.97288 0.0
C23 C 0.78565 0.91166 0.05061 0.0
O24 O 0.79559 0.89858 0.04509 0.0
O25 O 0.71832 0.85725 0.01153 0.0
C26 C 0.13718 0.84782 0.17783 0.0
O27 O 0.15282 0.85324 0.14087 0.0
O28 O 0.07897 0.8464 0.08628 0.0
Zn29 Zn 0.11369 0.85983 0.09937 0.0
O30 O 0.13082 0.89538 0.09332 0.0
C31 C 0.12432 0.85302 0.99683 0.0
O32 O 0.11715 0.86828 0.9883 0.0
O33 O 0.11891 0.84948 0.16916 0.0
C34 C 0.1518 0.90655 0.07595 0.0
O35 O 0.1628 0.89485 0.06518 0.0
C36 C 0.07093 0.85786 0.06216 0.0
O37 O 0.08537 0.87995 0.04912 0.0
O38 O 0.12491 0.84663 0.04293 0.0
C39 C 0.28337 0.14972 0.83869 0.0
O40 O 0.27976 0.16495 0.86449 0.0
O41 O 0.23875 0.13591 0.93299 0.0
Zn42 Zn 0.25901 0.12084 0.9258 0.0
O43 O 0.24015 0.08553 0.93628 0.0
C44 C 0.27804 0.13992 0.02502 0.0
O45 O 0.2572 0.13805 0.03047 0.0
O46 O 0.27569 0.12909 0.8571 0.0
C47 C 0.22543 0.07698 0.97327 0.0
O48 O 0.22174 0.09128 0.00238 0.0
C49 C 0.21687 0.12671 0.92336 0.0
O50 O 0.2053 0.10532 0.90388 0.0
O51 O 0.28325 0.13392 0.9825 0.0
C52 C 0.84421 0.13036 0.83117 0.0
O53 O 0.82729 0.12124 0.86585 0.0
O54 O 0.85719 0.08969 0.91978 0.0
Zn55 Zn 0.87127 0.12493 0.91271 0.0
O56 O 0.90649 0.1417 0.92336 0.0
C57 C 0.84882 0.12354 0.00896 0.0
O58 O 0.84917 0.10368 0.01377 0.0
O59 O 0.86443 0.13333 0.84249 0.0
C60 C 0.91519 0.14362 0.96816 0.0
O61 O 0.90095 0.13405 0.00769 0.0
C62 C 0.86914 0.07927 0.92447 0.0
O63 O 0.89223 0.09153 0.92031 0.0
O64 O 0.85707 0.1358 0.9681 0.0
C65 C 0.83822 0.7016 0.80093 0.0
O66 O 0.82089 0.70035 0.82906 0.0
O67 O 0.89905 0.74851 0.90431 0.0
Zn68 Zn 0.86453 0.72828 0.88802 0.0
O69 O 0.84878 0.74791 0.8939 0.0
C70 C 0.86273 0.69595 0.96595 0.0
O71 O 0.88442 0.70331 0.95024 0.0
O72 O 0.85919 0.71309 0.8181 0.0
C73 C 0.84805 0.75525 0.9389 0.0
O74 O 0.85773 0.74998 0.97734 0.0
C75 C 0.91038 0.77091 0.90106 0.0
O76 O 0.89985 0.78197 0.88227 0.0
O77 O 0.85046 0.70339 0.94322 0.0
C78 C 0.80067 0.61272 0.46622 0.0
O79 O 0.81705 0.61017 0.44264 0.0
O80 O 0.78387 0.56083 0.38588 0.0
Zn81 Zn 0.77221 0.58417 0.38144 0.0
O82 O 0.737 0.56723 0.36994 0.0
C83 C 0.80811 0.61099 0.30418 0.0
O84 O 0.82055 0.60344 0.32926 0.0
O85 O 0.78004 0.60315 0.44703 0.0
C86 C 0.72877 0.56278 0.3243 0.0
O87 O 0.74338 0.56908 0.28501 0.0
C88 C 0.78341 0.54923 0.34608 0.0
O89 O 0.77439 0.55196 0.30313 0.0
O90 O 0.78774 0.60567 0.3207 0.0
C91 C 0.37839 0.20191 0.51154 0.0
O92 O 0.3799 0.21959 0.48423 0.0
O93 O 0.42454 0.23512 0.41771 0.0
Zn94 Zn 0.40568 0.19982 0.4271 0.0
O95 O 0.42646 0.18539 0.41926 0.0
C96 C 0.39003 0.19009 0.32361 0.0
O97 O 0.41286 0.19938 0.31637 0.0
O98 O 0.38848 0.19083 0.49509 0.0
C99 C 0.41763 0.16419 0.40379 0.0
O100 O 0.39472 0.15151 0.39666 0.0
C101 C 0.44513 0.2453 0.39811 0.0
O102 O 0.45537 0.23282 0.38791 0.0
O103 O 0.38217 0.18798 0.36934 0.0
C104 C 0.81544 0.18438 0.48946 0.0
O105 O 0.83251 0.19384 0.45517 0.0
O106 O 0.75514 0.18045 0.40007 0.0
Zn107 Zn 0.78997 0.19355 0.41055 0.0
O108 O 0.80671 0.22911 0.40787 0.0
C109 C 0.79949 0.18718 0.30631 0.0
O110 O 0.79146 0.20181 0.29876 0.0
O111 O 0.79557 0.18246 0.47888 0.0
C112 C 0.8266 0.24135 0.38585 0.0
O113 O 0.8374 0.23073 0.36627 0.0
C114 C 0.747 0.19183 0.37598 0.0
O115 O 0.76155 0.21345 0.36009 0.0
O116 O 0.80098 0.18108 0.35215 0.0
C117 C 0.94829 0.46703 0.19948 0.0
O118 O 0.95208 0.45271 0.22843 0.0
O119 O 0.89026 0.46958 0.28648 0.0
Zn120 Zn 0.91512 0.45989 0.28027 0.0
O121 O 0.89994 0.42442 0.28253 0.0
C122 C 0.94735 0.49353 0.35615 0.0
O123 O 0.94453 0.50925 0.33017 0.0
O124 O 0.93317 0.47265 0.21398 0.0
C125 C 0.89033 0.41432 0.32483 0.0
O126 O 0.89011 0.42721 0.36344 0.0
C127 C 0.88411 0.47393 0.32984 0.0
O128 O 0.89394 0.47187 0.37223 0.0
O129 O 0.93712 0.47223 0.34077 0.0
C130 C 0.50311 0.47769 0.15031 0.0
O131 O 0.51412 0.49451 0.18459 0.0
O132 O 0.49657 0.41664 0.24335 0.0
Zn133 Zn 0.50863 0.45126 0.23061 0.0
O134 O 0.5442 0.46965 0.23666 0.0
C135 C 0.4962 0.45651 0.33249 0.0
O136 O 0.50638 0.44389 0.34185 0.0
O137 O 0.49861 0.45685 0.1611 0.0
C138 C 0.55475 0.48821 0.26408 0.0
O139 O 0.54242 0.49637 0.28732 0.0
C140 C 0.51018 0.40833 0.25184 0.0
O141 O 0.53312 0.42232 0.24825 0.0
O142 O 0.49467 0.46199 0.28614 0.0
C143 C 0.50487 0.02844 0.18437 0.0
O144 O 0.48779 0.02121 0.21857 0.0
O145 O 0.56492 0.08221 0.27851 0.0
Zn146 Zn 0.53031 0.06152 0.26479 0.0
O147 O 0.51268 0.07951 0.271 0.0
C148 C 0.51997 0.04457 0.3669 0.0
O149 O 0.52879 0.06732 0.37452 0.0
O150 O 0.525 0.04587 0.19532 0.0
C151 C 0.52128 0.09937 0.29368 0.0
O152 O 0.54302 0.1095 0.31107 0.0
C153 C 0.57932 0.101 0.25485 0.0
O154 O 0.57186 0.10851 0.21605 0.0
O155 O 0.51836 0.03702 0.32103 0.0
C156 C 0.47897 0.94547 0.84406 0.0
O157 O 0.49581 0.95283 0.80926 0.0
O158 O 0.46729 0.89208 0.75778 0.0
Zn159 Zn 0.45202 0.91229 0.76395 0.0
O160 O 0.41673 0.89297 0.75355 0.0
C161 C 0.4742 0.93338 0.66723 0.0
O162 O 0.47452 0.91349 0.6629 0.0
O163 O 0.45874 0.9281 0.83347 0.0
C164 C 0.40814 0.88839 0.70822 0.0
O165 O 0.42249 0.89589 0.66842 0.0
C166 C 0.45646 0.87078 0.74217 0.0
O167 O 0.43358 0.86024 0.73448 0.0
O168 O 0.46567 0.93718 0.70788 0.0
C169 C 0.03172 0.52723 0.8604 0.0
O170 O 0.0281 0.54171 0.83161 0.0
O171 O 0.08184 0.56373 0.76646 0.0
Zn172 Zn 0.06 0.52862 0.77317 0.0
O173 O 0.07712 0.5109 0.7579 0.0
C174 C 0.03099 0.53429 0.69671 0.0
O175 O 0.04133 0.55603 0.7144 0.0
O176 O 0.04492 0.51959 0.84348 0.0
C177 C 0.08597 0.51296 0.7132 0.0
O178 O 0.08448 0.52727 0.67964 0.0
C179 C 0.10419 0.57419 0.76286 0.0
O180 O 0.1151 0.56201 0.76843 0.0
O181 O 0.03535 0.51928 0.71779 0.0
C182 C 0.45385 0.5127 0.80966 0.0
O183 O 0.44239 0.49599 0.77542 0.0
O184 O 0.41565 0.52758 0.72389 0.0
Zn185 Zn 0.45078 0.54131 0.72952 0.0
O186 O 0.46793 0.57657 0.71791 0.0
C187 C 0.45376 0.52727 0.6277 0.0
O188 O 0.4427 0.53907 0.61862 0.0
O189 O 0.45931 0.53381 0.79874 0.0
C190 C 0.4872 0.58663 0.69275 0.0
O191 O 0.49625 0.57392 0.67561 0.0
C192 C 0.40617 0.53871 0.70433 0.0
O193 O 0.41956 0.5609 0.69055 0.0
O194 O 0.45964 0.52583 0.67372 0.0
C195 C 0.62815 0.8101 0.49288 0.0
O196 O 0.63308 0.79745 0.52462 0.0
O197 O 0.57535 0.81781 0.59043 0.0
Zn198 Zn 0.59686 0.80475 0.57532 0.0
O199 O 0.57872 0.76932 0.58056 0.0
C200 C 0.62824 0.83629 0.65248 0.0
O201 O 0.62136 0.85051 0.63323 0.0
O202 O 0.61273 0.81555 0.5061 0.0
C203 C 0.56802 0.76078 0.62297 0.0
O204 O 0.56899 0.77528 0.65926 0.0
C205 C 0.55305 0.80644 0.58537 0.0
O206 O 0.54278 0.78517 0.56515 0.0
O207 O 0.6209 0.81612 0.6321 0.0
C208 C 0.16331 0.79274 0.52097 0.0
O209 O 0.14764 0.78711 0.55797 0.0
O210 O 0.17413 0.74912 0.61037 0.0
Zn211 Zn 0.18914 0.78441 0.60095 0.0
O212 O 0.22438 0.80022 0.61092 0.0
C213 C 0.16747 0.78508 0.69714 0.0
O214 O 0.16633 0.76454 0.70277 0.0
O215 O 0.18226 0.79245 0.53026 0.0
C216 C 0.23281 0.8018 0.65589 0.0
O217 O 0.21832 0.79265 0.69518 0.0
C218 C 0.18571 0.73841 0.61673 0.0
O219 O 0.20881 0.75021 0.6124 0.0
O220 O 0.17619 0.79684 0.65588 0.0
C221 C 0.18955 0.37217 0.49718 0.0
O222 O 0.20062 0.3665 0.53168 0.0
O223 O 0.22826 0.42652 0.58252 0.0
Zn224 Zn 0.19327 0.40446 0.57686 0.0
O225 O 0.17587 0.42229 0.58891 0.0
C226 C 0.18997 0.38846 0.67949 0.0
O227 O 0.19915 0.41125 0.68745 0.0
O228 O 0.18464 0.38825 0.50777 0.0
C229 C 0.15644 0.41298 0.61345 0.0
O230 O 0.14702 0.39098 0.62924 0.0
C231 C 0.23768 0.44876 0.58796 0.0
O232 O 0.22441 0.45861 0.58579 0.0
O233 O 0.18523 0.38063 0.63359 0.0
H234 H 0.19685 0.33668 0.46245 0.0
H235 H 0.13227 0.32355 0.19175 0.0
H236 H 0.16612 0.3792 0.41756 0.0
H237 H 0.16287 0.28084 0.23613 0.0
H238 H 0.1445 0.34405 0.27439 0.0
H239 H 0.18464 0.31605 0.37983 0.0
C240 C 0.18756 0.34171 0.43523 0.0
C241 C 0.18251 0.35971 0.44702 0.0
C242 C 0.14854 0.33019 0.26611 0.0
C243 C 0.16843 0.33612 0.35228 0.0
C244 C 0.14154 0.31845 0.21888 0.0
C245 C 0.14655 0.30043 0.20692 0.0
C246 C 0.16065 0.32391 0.30177 0.0
C247 C 0.15863 0.29462 0.24366 0.0
C248 C 0.18057 0.3299 0.38804 0.0
C249 C 0.1704 0.36545 0.41018 0.0
N250 N 0.16527 0.30632 0.2894 0.0
N251 N 0.16378 0.35369 0.36454 0.0
H252 H 0.66155 0.80102 0.45264 0.0
H253 H 0.67894 0.87468 0.1928 0.0
H254 H 0.62306 0.83731 0.41877 0.0
H255 H 0.71612 0.83699 0.22588 0.0
H256 H 0.65864 0.86163 0.27576 0.0
H257 H 0.68197 0.81441 0.37003 0.0
C258 C 0.65737 0.81181 0.42785 0.0
C259 C 0.64054 0.81804 0.44272 0.0
C260 C 0.67124 0.85622 0.26488 0.0
C261 C 0.66393 0.83348 0.3479 0.0
C262 C 0.68287 0.86368 0.2175 0.0
C263 C 0.69926 0.85692 0.20228 0.0
C264 C 0.67604 0.84189 0.29738 0.0
C265 C 0.70362 0.84265 0.23595 0.0
C266 C 0.66906 0.81945 0.38062 0.0
C267 C 0.63588 0.83206 0.40891 0.0
N268 N 0.69208 0.83561 0.28184 0.0
N269 N 0.64752 0.8393 0.36312 0.0
H270 H 0.19212 0.80571 0.43599 0.0
H271 H 0.10801 0.83439 0.26236 0.0
H272 H 0.12549 0.79676 0.48893 0.0
H273 H 0.17418 0.8423 0.20904 0.0
H274 H 0.11402 0.82048 0.34551 0.0
H275 H 0.18568 0.81888 0.35242 0.0
C276 C 0.1761 0.80646 0.43004 0.0
C277 C 0.15933 0.80013 0.46963 0.0
C278 C 0.12722 0.82526 0.31562 0.0
C279 C 0.15188 0.81529 0.3739 0.0
C280 C 0.12381 0.83323 0.26811 0.0
C281 C 0.14062 0.83955 0.2286 0.0
C282 C 0.1476 0.82359 0.3238 0.0
C283 C 0.16074 0.83764 0.23833 0.0
C284 C 0.17244 0.81401 0.38227 0.0
C285 C 0.13891 0.80146 0.45959 0.0
N286 N 0.16366 0.82985 0.28491 0.0
N287 N 0.13578 0.80893 0.41279 0.0
H288 H 0.35766 0.22381 0.56164 0.0
H289 H 0.29845 0.12458 0.78086 0.0
H290 H 0.36735 0.16315 0.57164 0.0
H291 H 0.29906 0.19102 0.78497 0.0
H292 H 0.32157 0.13719 0.70117 0.0
H293 H 0.33419 0.21095 0.64074 0.0
C294 C 0.35489 0.2078 0.58048 0.0
C295 C 0.36452 0.19455 0.55997 0.0
C296 C 0.31664 0.149 0.71952 0.0
C297 C 0.33755 0.17966 0.65048 0.0
C298 C 0.30338 0.14179 0.76496 0.0
C299 C 0.29683 0.15678 0.78971 0.0
C300 C 0.3233 0.17132 0.69847 0.0
C301 C 0.30376 0.1789 0.76732 0.0
C302 C 0.34149 0.20047 0.62569 0.0
C303 C 0.36033 0.17395 0.58611 0.0
N304 N 0.31658 0.18548 0.72297 0.0
N305 N 0.3471 0.16711 0.62991 0.0
H306 H 0.78384 0.16363 0.56869 0.0
H307 H 0.87541 0.15009 0.75095 0.0
H308 H 0.85571 0.18595 0.52483 0.0
H309 H 0.80348 0.12748 0.79476 0.0
H310 H 0.86836 0.1629 0.66755 0.0
H311 H 0.79058 0.14996 0.65136 0.0
C312 C 0.80105 0.16566 0.57641 0.0
C313 C 0.81925 0.17599 0.53971 0.0
C314 C 0.8541 0.15511 0.69536 0.0
C315 C 0.82707 0.16034 0.63443 0.0
C316 C 0.85811 0.14777 0.74303 0.0
C317 C 0.84001 0.13771 0.78001 0.0
C318 C 0.83184 0.1524 0.68446 0.0
C319 C 0.81796 0.13515 0.76749 0.0
C320 C 0.80487 0.15784 0.62366 0.0
C321 C 0.84116 0.17813 0.55191 0.0
N322 N 0.81451 0.14248 0.72082 0.0
N323 N 0.84446 0.17039 0.59821 0.0
H324 H 0.86943 0.69842 0.7352 0.0
H325 H 0.77048 0.61978 0.52727 0.0
H326 H 0.79564 0.67675 0.75196 0.0
H327 H 0.84318 0.63671 0.51604 0.0
H328 H 0.77973 0.64195 0.60791 0.0
H329 H 0.86053 0.67733 0.65305 0.0
C330 C 0.85137 0.68928 0.72158 0.0
C331 C 0.83325 0.68934 0.7506 0.0
C332 C 0.79367 0.64084 0.58781 0.0
C333 C 0.82294 0.66513 0.65654 0.0
C334 C 0.78841 0.62818 0.54169 0.0
C335 C 0.80607 0.62634 0.51483 0.0
C336 C 0.8168 0.6518 0.60726 0.0
C337 C 0.82898 0.63762 0.53545 0.0
C338 C 0.84629 0.67721 0.67468 0.0
C339 C 0.81017 0.67717 0.73099 0.0
N340 N 0.83368 0.64986 0.58041 0.0
N341 N 0.80569 0.66556 0.68524 0.0
H342 H 0.98069 0.45742 0.15532 0.0
H343 H 0.00168 0.5393 0.90764 0.0
H344 H 0.94553 0.49782 0.13163 0.0
H345 H 0.03505 0.49709 0.92915 0.0
H346 H 0.98184 0.52523 0.99078 0.0
H347 H 0.00159 0.47263 0.07368 0.0
C348 C 0.97737 0.46952 0.13302 0.0
C349 C 0.96128 0.47631 0.15037 0.0
C350 C -0.00647 0.51907 0.97735 0.0
C351 C 0.9852 0.49383 0.05675 0.0
C352 C 0.00489 0.52712 0.92986 0.0
C353 C 0.02003 0.51934 0.91128 0.0
C354 C -0.00267 0.50312 0.00657 0.0
C355 C 0.02351 0.50355 0.94185 0.0
C356 C 0.98932 0.4782 0.08635 0.0
C357 C 0.95773 0.49205 0.11977 0.0
N358 N 0.01223 0.49595 0.9879 0.0
N359 N 0.96957 0.50025 0.07448 0.0
H360 H 0.51039 0.52038 0.1154 0.0
H361 H 0.44561 0.46962 0.84484 0.0
H362 H 0.47943 0.44714 0.07101 0.0
H363 H 0.47769 0.543 0.889 0.0
H364 H 0.45747 0.4609 0.92767 0.0
H365 H 0.49826 0.52886 0.03281 0.0
C366 C 0.50104 0.50606 0.08829 0.0
C367 C 0.49593 0.483 0.10019 0.0
C368 C 0.4619 0.47891 0.91925 0.0
C369 C 0.48194 0.49261 0.00539 0.0
C370 C 0.45512 0.48391 0.87195 0.0
C371 C 0.46066 0.50709 0.8599 0.0
C372 C 0.47432 0.49721 0.95483 0.0
C373 C 0.47303 0.52487 0.89658 0.0
C374 C 0.49411 0.51093 0.04108 0.0
C375 C 0.48376 0.46518 0.06348 0.0
N376 N 0.47944 0.51956 0.94233 0.0
N377 N 0.47718 0.47036 0.01775 0.0
H378 H 0.46413 0.99041 0.14927 0.0
H379 H 0.51993 0.9834 0.879 0.0
H380 H 0.53636 0.03837 0.1052 0.0
H381 H 0.44784 0.93537 0.92389 0.0
H382 H 0.52639 0.00367 0.9617 0.0
H383 H 0.45788 0.97006 0.06685 0.0
C384 C 0.47868 -0.00331 0.12226 0.0
C385 C 0.50081 0.01615 0.13423 0.0
C386 C 0.50916 0.98868 0.95348 0.0
C387 C 0.49377 0.99286 0.03964 0.0
C388 C 0.50546 0.97707 0.90625 0.0
C389 C 0.4833 0.95764 0.89442 0.0
C390 C 0.49057 0.98083 0.98922 0.0
C391 C 0.46521 0.95026 0.9313 0.0
C392 C 0.4751 0.98504 0.07516 0.0
C393 C 0.519 0.02346 0.09765 0.0
N394 N 0.46925 0.96187 0.97695 0.0
N395 N 0.51508 0.01181 0.05205 0.0
H396 H 0.16181 0.32314 0.98145 0.0
H397 H 0.17764 0.34176 0.67637 0.0
H398 H 0.1656 0.27322 0.87832 0.0
H399 H 0.1919 0.39829 0.7825 0.0
H400 H 0.17052 0.31545 0.74974 0.0
H401 H 0.17062 0.35027 0.90878 0.0
C402 C 0.16461 0.31793 0.94361 0.0
C403 C 0.16294 0.29587 0.93593 0.0
C404 C 0.17527 0.33363 0.75695 0.0
C405 C 0.17278 0.32669 0.85266 0.0
C406 C 0.17923 0.34863 0.7151 0.0
C407 C 0.18537 0.37225 0.72335 0.0
C408 C 0.17722 0.34225 0.80741 0.0
C409 C 0.18726 0.38022 0.77437 0.0
C410 C 0.16964 0.33343 0.90218 0.0
C411 C 0.16675 0.29005 0.88607 0.0
N412 N 0.18311 0.36522 0.81449 0.0
N413 N 0.17133 0.3053 0.84628 0.0
H414 H 0.64577 0.87728 0.70812 0.0
H415 H 0.69464 0.83064 0.93637 0.0
H416 H 0.64208 0.80935 0.70712 0.0
H417 H 0.70217 0.90024 0.93358 0.0
H418 H 0.6743 0.82213 0.85348 0.0
H419 H 0.66615 0.88594 0.79106 0.0
C420 C 0.64938 0.86424 0.72514 0.0
C421 C 0.64218 0.84254 0.70063 0.0
C422 C 0.68035 0.83924 0.87105 0.0
C423 C 0.66531 0.85226 0.79581 0.0
C424 C 0.69187 0.84408 0.91853 0.0
C425 C 0.70015 0.8662 0.94196 0.0
C426 C 0.67703 0.85663 0.84679 0.0
C427 C 0.69612 0.88295 0.91693 0.0
C428 C 0.66096 0.86918 0.7726 0.0
C429 C 0.64731 0.82632 0.72458 0.0
N430 N 0.68489 0.87783 0.87065 0.0
N431 N 0.65848 0.83148 0.7709 0.0
H432 H 0.13457 0.81712 -0.00126 0.0
H433 H 0.16438 0.82549 0.69741 0.0
H434 H 0.1295 0.86637 0.89548 0.0
H435 H 0.1546 0.76755 0.79481 0.0
H436 H 0.15405 0.84232 0.77047 0.0
H437 H 0.14477 0.80045 0.92534 0.0
C438 C 0.13567 0.82448 0.96066 0.0
C439 C 0.13113 0.84313 0.95319 0.0
C440 C 0.15409 0.82588 0.77573 0.0
C441 C 0.14279 0.82415 0.86908 0.0
C442 C 0.16 0.81628 0.73408 0.0
C443 C 0.16036 0.79509 0.74002 0.0
C444 C 0.14871 0.81431 0.82373 0.0
C445 C 0.15451 0.7839 0.78841 0.0
C446 C 0.1414 0.8149 0.91876 0.0
C447 C 0.13278 0.85194 0.90299 0.0
N448 N 0.14904 0.7937 0.82844 0.0
N449 N 0.13851 0.8424 0.86284 0.0
H450 H 0.40043 0.18802 0.22218 0.0
H451 H 0.27031 0.14933 0.12346 0.0
H452 H 0.34278 0.17521 0.32359 0.0
H453 H 0.32372 0.14877 0.02626 0.0
H454 H 0.29761 0.1616 0.19603 0.0
H455 H 0.37344 0.17619 0.14881 0.0
C456 C 0.38209 0.1827 0.22904 0.0
C457 C 0.37383 0.18259 0.27909 0.0
C458 C 0.30337 0.15879 0.15885 0.0
C459 C 0.34291 0.16916 0.1953 0.0
C460 C 0.28781 0.15186 0.11731 0.0
C461 C 0.29473 0.14798 0.06871 0.0
C462 C 0.32609 0.16203 0.15176 0.0
C463 C 0.31763 0.15151 0.06309 0.0
C464 C 0.3667 0.17593 0.18713 0.0
C465 C 0.3499 0.17551 0.28569 0.0
N466 N 0.33252 0.15836 0.10415 0.0
N467 N 0.3353 0.16915 0.24424 0.0
H468 H 0.83602 0.10466 0.10561 0.0
H469 H 0.80336 0.20067 0.20522 0.0
H470 H 0.84272 0.16219 0.01094 0.0
H471 H 0.81174 0.15269 0.30623 0.0
H472 H 0.81469 0.18489 0.13204 0.0
H473 H 0.82372 0.11996 0.17783 0.0
C474 C 0.83481 0.12047 0.09991 0.0
C475 C 0.84046 0.13221 0.05216 0.0
C476 C 0.81409 0.17785 0.17023 0.0
C477 C 0.8264 0.14982 0.13482 0.0
C478 C 0.80759 0.18681 0.21203 0.0
C479 C 0.80662 0.17798 0.26193 0.0
C480 C 0.81948 0.1598 0.1783 0.0
C481 C 0.81231 0.16006 0.26845 0.0
C482 C 0.82787 0.12924 0.14127 0.0
C483 C 0.83859 0.15263 0.04711 0.0
N484 N 0.81843 0.1515 0.22707 0.0
N485 N 0.8317 0.16079 0.08797 0.0
H486 H 0.81962 0.67968 0.0118 0.0
H487 H 0.85009 0.6241 0.25535 0.0
H488 H 0.88529 0.67953 0.02834 0.0
H489 H 0.78562 0.62668 0.23991 0.0
H490 H 0.86303 0.64355 0.17145 0.0
H491 H 0.80628 0.65875 0.0938 0.0
C492 C 0.83118 0.67509 0.03247 0.0
C493 C 0.85365 0.68145 0.01321 0.0
C494 C 0.84607 0.63989 0.18648 0.0
C495 C 0.83854 0.65762 0.10748 0.0
C496 C 0.8387 0.62885 0.23446 0.0
C497 C 0.81675 0.62379 0.25476 0.0
C498 C 0.83137 0.64588 0.15856 0.0
C499 C 0.8027 0.63028 0.22587 0.0
C500 C 0.82358 0.6632 0.07943 0.0
C501 C 0.86785 0.67502 0.04173 0.0
N502 N 0.81024 0.64095 0.17925 0.0
N503 N 0.86009 0.66354 0.08755 0.0
H504 H 0.9558 0.46492 0.4189 0.0
H505 H 0.02084 0.56288 0.63744 0.0
H506 H 0.96771 0.53606 0.40705 0.0
H507 H 0.00916 0.49176 0.64658 0.0
H508 H 0.00038 0.55323 0.55446 0.0
H509 H 0.97492 0.47453 0.50299 0.0
C510 C 0.96254 0.48262 0.43386 0.0
C511 C 0.96016 0.49973 0.4058 0.0
C512 C 0.00221 0.53972 0.57475 0.0
C513 C 0.98198 0.51081 0.50253 0.0
C514 C 0.01381 0.54518 0.62225 0.0
C515 C 0.01679 0.52812 0.64897 0.0
C516 C -0.00645 0.51705 0.55381 0.0
C517 C 0.00732 0.50549 0.62735 0.0
C518 C 0.97341 0.48808 0.48204 0.0
C519 C 0.96921 0.52234 0.42727 0.0
N520 N -0.00378 0.50066 0.58098 0.0
N521 N 0.9797 0.52722 0.47444 0.0
H522 H 0.47498 0.5002 0.63302 0.0
H523 H 0.47475 0.48336 0.32711 0.0
H524 H 0.44533 0.52864 0.52479 0.0
H525 H 0.49989 0.45079 0.43598 0.0
H526 H 0.46361 0.49991 0.39909 0.0
H527 H 0.48425 0.48193 0.5613 0.0
C528 C 0.47041 0.5026 0.59419 0.0
C529 C 0.45941 0.51601 0.58487 0.0
C530 C 0.47148 0.48907 0.40724 0.0
C531 C 0.46995 0.49514 0.50262 0.0
C532 C 0.47784 0.4796 0.36615 0.0
C533 C 0.48832 0.46572 0.37555 0.0
C534 C 0.47572 0.4847 0.4581 0.0
C535 C 0.49188 0.46142 0.42692 0.0
C536 C 0.47567 0.49213 0.55325 0.0
C537 C 0.45384 0.51848 0.53377 0.0
N538 N 0.48567 0.47095 0.46626 0.0
N539 N 0.45922 0.50818 0.49457 0.0
H540 H 0.48659 0.92708 0.5704 0.0
H541 H 0.51619 0.05434 0.46772 0.0
H542 H 0.47895 0.97757 0.66401 0.0
H543 H 0.50762 -0.00221 0.36752 0.0
H544 H 0.50545 0.02757 0.54142 0.0
H545 H 0.49758 0.95406 0.49717 0.0
C546 C 0.48732 0.94389 0.57566 0.0
C547 C 0.48181 0.95007 0.62342 0.0
C548 C 0.50585 0.02101 0.50329 0.0
C549 C 0.49435 0.98102 0.5396 0.0
C550 C 0.51202 0.03628 0.46118 0.0
C551 C 0.51281 0.02827 0.41138 0.0
C552 C 0.50064 -0.00239 0.49565 0.0
C553 C 0.50718 0.00468 0.40522 0.0
C554 C 0.4935 0.95924 0.53371 0.0
C555 C 0.48301 0.97207 0.62786 0.0
N556 N 0.50143 0.9902 0.44693 0.0
N557 N 0.48919 0.98678 0.58645 0.0
H558 H 0.18316 0.22795 0.05354 0.0
H559 H 0.16929 0.11112 0.91947 0.0
H560 H 0.11582 0.16875 0.00973 0.0
H561 H 0.23598 0.17102 0.96416 0.0
H562 H 0.14915 0.13175 0.95153 0.0
H563 H 0.20259 0.20685 0.02162 0.0
C564 C 0.17242 0.21044 0.0375 0.0
C565 C 0.14781 0.20013 0.03428 0.0
C566 C 0.1682 0.14037 0.95414 0.0
C567 C 0.17001 0.17587 0.99718 0.0
C568 C 0.17971 0.12864 0.93567 0.0
C569 C 0.20436 0.13933 0.93916 0.0
C570 C 0.18146 0.16292 0.97622 0.0
C571 C 0.21695 0.16204 0.9607 0.0
C572 C 0.18355 0.19841 0.01909 0.0
C573 C 0.13484 0.17739 0.013 0.0
N574 N 0.20536 0.17302 0.97846 0.0
N575 N 0.14611 0.16604 0.99512 0.0
H576 H 0.88874 0.05102 0.93903 0.0
H577 H 0.76884 0.94253 0.04759 0.0
H578 H 0.82248 0.05048 0.94762 0.0
H579 H 0.83179 0.93832 0.0196 0.0
H580 H 0.78931 0.98317 0.0163 0.0
H581 H 0.869 0.01043 0.97188 0.0
C582 C 0.87003 0.04234 0.94747 0.0
C583 C 0.85725 0.05419 0.94052 0.0
C584 C 0.79869 0.9734 0.01711 0.0
C585 C 0.83465 0.00789 0.97864 0.0
C586 C 0.78704 0.9502 0.03526 0.0
C587 C 0.79859 0.93695 0.03611 0.0
C588 C 0.82211 0.98352 -0.00024 0.0
C589 C 0.82218 0.94786 0.01954 0.0
C590 C 0.85879 0.0192 0.96635 0.0
C591 C 0.83305 0.04207 0.95224 0.0
N592 N 0.83316 0.97051 0.00192 0.0
N593 N 0.82258 0.01965 0.97089 0.0
H594 H 0.94021 0.81895 0.90122 0.0
H595 H 0.0377 0.8112 0.07393 0.0
H596 H 0.93501 0.75351 0.9524 0.0
H597 H 0.04826 0.87622 0.00595 0.0
H598 H -0.00142 0.79031 0.03496 0.0
H599 H 0.97883 0.8407 0.94302 0.0
C600 C 0.94722 0.80915 0.92098 0.0
C601 C 0.93436 0.78437 0.92322 0.0
C602 C 0.00941 0.80917 0.02868 0.0
C603 C 0.97837 0.80913 0.97155 0.0
C604 C 0.03173 0.82114 0.05116 0.0
C605 C 0.04635 0.8455 0.04303 0.0
C606 C 0.00157 0.8216 -0.00213 0.0
C607 C 0.03762 0.85743 0.01314 0.0
C608 C 0.96924 0.82158 0.94493 0.0
C609 C 0.9443 0.7726 0.94951 0.0
N610 N 0.01582 0.84534 0.99148 0.0
N611 N 0.96565 0.78509 0.97274 0.0
H612 H 0.8275 0.77074 0.86828 0.0
H613 H 0.78362 0.82889 0.08188 0.0
H614 H 0.84166 0.77148 0.0312 0.0
H615 H 0.77459 0.83354 0.91805 0.0
H616 H 0.80441 0.80725 0.06403 0.0
H617 H 0.80752 0.79325 0.88565 0.0
C618 C 0.82644 0.77565 0.90768 0.0
C619 C 0.83625 0.76919 0.94835 0.0
C620 C 0.79791 0.81304 0.03197 0.0
C621 C 0.81337 0.79489 0.96852 0.0
C622 C 0.78602 0.82537 0.04215 0.0
C623 C 0.77733 0.83302 0.0014 0.0
C624 C 0.80109 0.80823 0.98068 0.0
C625 C 0.78098 0.82799 0.95068 0.0
C626 C 0.81504 0.78852 0.91757 0.0
C627 C 0.83436 0.77607 -0.00137 0.0
N628 N 0.79254 0.81587 0.94176 0.0
N629 N 0.82311 0.78849 0.00729 0.0
H630 H 0.13598 0.93713 0.10028 0.0
H631 H 0.23487 0.04368 0.93341 0.0
H632 H 0.19244 0.9337 0.02159 0.0
H633 H 0.18979 0.05236 0.0424 0.0
H634 H 0.21702 0.00219 0.95901 0.0
H635 H 0.15339 0.97854 0.07423 0.0
C636 C 0.15209 0.94511 0.07775 0.0
C637 C 0.1628 0.93195 0.06317 0.0
C638 C 0.21103 0.01318 0.97726 0.0
C639 C 0.18263 0.9792 0.03274 0.0
C640 C 0.22112 0.03683 0.96247 0.0
C641 C 0.21385 0.05152 0.9859 0.0
C642 C 0.19341 0.0041 0.01543 0.0
C643 C 0.19599 0.0417 0.02345 0.0
C644 C 0.16201 0.96873 0.06287 0.0
C645 C 0.18364 0.94319 0.03388 0.0
N646 N 0.18637 0.0186 0.03703 0.0
N647 N 0.1928 0.96613 0.01941 0.0
H648 H 0.94976 0.16473 0.89487 0.0
H649 H 0.05596 0.21464 0.09857 0.0
H650 H 0.9395 0.15247 0.05905 0.0
H651 H 0.06563 0.22435 0.9337 0.0
H652 H 0.01323 0.19214 0.08534 0.0
H653 H 0.99234 0.18689 0.90874 0.0
C654 C 0.95645 0.16667 0.93385 0.0
C655 C 0.94103 0.15674 0.97586 0.0
C656 C 0.02472 0.1992 0.05209 0.0
C657 C 0.9898 0.18215 0.99206 0.0
C658 C 0.04911 0.21206 0.05962 0.0
C659 C 0.0644 0.22139 0.01718 0.0
C660 C 0.01557 0.19567 0.00177 0.0
C661 C 0.05454 0.21749 0.96758 0.0
C662 C 0.98078 0.17934 0.94176 0.0
C663 C 0.95073 0.15982 0.02551 0.0
N664 N 0.03078 0.20494 0.96127 0.0
N665 N 0.9745 0.17228 0.03224 0.0
H666 H 0.80474 0.54035 0.42734 0.0
H667 H 0.8592 0.47901 0.25059 0.0
H668 H 0.78929 0.52582 0.26514 0.0
H669 H 0.86971 0.48788 0.41534 0.0
H670 H 0.83225 0.49469 0.25578 0.0
H671 H 0.82717 0.51958 0.42459 0.0
C672 C 0.8059 0.53263 0.39125 0.0
C673 C 0.79525 0.53497 0.34632 0.0
C674 C 0.84034 0.49308 0.29084 0.0
C675 C 0.82103 0.51133 0.3428 0.0
C676 C 0.85577 0.48416 0.28789 0.0
C677 C 0.86685 0.48226 0.33255 0.0
C678 C 0.83605 0.50029 0.33876 0.0
C679 C 0.86164 0.48911 0.37986 0.0
C680 C 0.81872 0.52079 0.38968 0.0
C681 C 0.79729 0.52455 0.30068 0.0
N682 N 0.84673 0.49795 0.38167 0.0
N683 N 0.81008 0.51335 0.30001 0.0
H684 H 0.46451 0.37719 0.27907 0.0
H685 H 0.48943 0.27325 0.35818 0.0
H686 H 0.53358 0.38393 0.2697 0.0
H687 H 0.4254 0.27373 0.39693 0.0
H688 H 0.50556 0.31296 0.32186 0.0
H689 H 0.44921 0.33796 0.31679 0.0
C690 C 0.47645 0.37036 0.28458 0.0
C691 C 0.50039 0.38389 0.27121 0.0
C692 C 0.48804 0.30441 0.33861 0.0
C693 C 0.48297 0.33899 0.31474 0.0
C694 C 0.47883 0.28176 0.35943 0.0
C695 C 0.45601 0.27012 0.38056 0.0
C696 C 0.47424 0.3154 0.33847 0.0
C697 C 0.44308 0.28202 0.38111 0.0
C698 C 0.46771 0.348 0.30645 0.0
C699 C 0.51501 0.37413 0.27948 0.0
N700 N 0.45232 0.30393 0.36005 0.0
N701 N 0.50607 0.35226 0.3007 0.0
H702 H 0.60016 0.08892 0.331 0.0
H703 H 0.72485 0.20818 0.31204 0.0
H704 H 0.61451 0.14442 0.22141 0.0
H705 H 0.71181 0.14816 0.406 0.0
H706 H 0.68377 0.18669 0.28313 0.0
H707 H 0.64039 0.11183 0.36286 0.0
C708 C 0.61179 0.10594 0.31351 0.0
C709 C 0.60394 0.11474 0.2733 0.0
C710 C 0.6899 0.17828 0.31021 0.0
C711 C 0.65018 0.14117 0.30995 0.0
C712 C 0.71332 0.19057 0.32694 0.0
C713 C 0.72181 0.17991 0.36136 0.0
C714 C 0.67488 0.15523 0.32823 0.0
C715 C 0.70608 0.15705 0.37929 0.0
C716 C 0.6348 0.11903 0.33181 0.0
C717 C 0.61984 0.13693 0.25232 0.0
N718 N 0.68341 0.14547 0.36242 0.0
N719 N 0.64224 0.14941 0.27093 0.0
H720 H 0.47406 0.08056 0.27407 0.0
H721 H 0.46569 0.18559 0.41336 0.0
H722 H 0.53387 0.14133 0.3417 0.0
H723 H 0.40503 0.12136 0.36005 0.0
H724 H 0.49119 0.17042 0.38436 0.0
H725 H 0.44881 0.09635 0.30086 0.0
C726 C 0.48193 0.09731 0.2942 0.0
C727 C 0.50612 0.10961 0.3058 0.0
C728 C 0.4723 0.15962 0.37914 0.0
C729 C 0.47726 0.1277 0.33689 0.0
C730 C 0.45771 0.16824 0.39581 0.0
C731 C 0.43317 0.1547 0.38921 0.0
C732 C 0.46229 0.13734 0.35547 0.0
C733 C 0.42384 0.13239 0.36606 0.0
C734 C 0.46747 0.10626 0.3097 0.0
C735 C 0.51531 0.13122 0.33205 0.0
N736 N 0.43842 0.12443 0.34991 0.0
N737 N 0.50086 0.13954 0.34682 0.0
H738 H 0.81293 0.27 0.4333 0.0
H739 H 0.89578 0.38349 0.2622 0.0
H740 H 0.86243 0.27105 0.32144 0.0
H741 H 0.86269 0.38676 0.4038 0.0
H742 H 0.88056 0.34126 0.27742 0.0
H743 H 0.82819 0.31209 0.41769 0.0
C744 C 0.82707 0.2791 0.40559 0.0
C745 C 0.83647 0.26702 0.3787 0.0
C746 C 0.87666 0.35127 0.30509 0.0
C747 C 0.8538 0.31509 0.36025 0.0
C748 C 0.88521 0.37531 0.2963 0.0
C749 C 0.88051 0.38865 0.33184 0.0
C750 C 0.8631 0.34049 0.34938 0.0
C751 C 0.86681 0.37717 0.37548 0.0
C752 C 0.83578 0.30312 0.39673 0.0
C753 C 0.85476 0.27971 0.34322 0.0
N754 N 0.85854 0.35375 0.38295 0.0
N755 N 0.86275 0.30305 0.33477 0.0
H756 H 0.58092 0.52055 0.33793 0.0
H757 H 0.70494 0.54196 0.2356 0.0
H758 H 0.5871 0.48195 0.20935 0.0
H759 H 0.69422 0.55742 0.39196 0.0
H760 H 0.66249 0.52379 0.22028 0.0
H761 H 0.62335 0.53847 0.35299 0.0
C762 C 0.59122 0.51594 0.31268 0.0
C763 C 0.58048 0.49973 0.2723 0.0
C764 C 0.66945 0.5311 0.25796 0.0
C765 C 0.62897 0.52022 0.2893 0.0
C766 C 0.69365 0.54153 0.26672 0.0
C767 C 0.7031 0.55121 0.31515 0.0
C768 C 0.65464 0.53069 0.29766 0.0
C769 C 0.68766 0.55009 0.35411 0.0
C770 C 0.61539 0.52607 0.32151 0.0
C771 C 0.59467 0.49432 0.24099 0.0
N772 N 0.66418 0.54015 0.3444 0.0
N773 N 0.61823 0.50463 0.25 0.0
H774 H 0.56887 0.84901 0.63325 0.0
H775 H 0.43972 0.8271 0.69823 0.0
H776 H 0.50478 0.78587 0.58895 0.0
H777 H 0.50433 0.88914 0.74475 0.0
H778 H 0.463 0.81102 0.66025 0.0
H779 H 0.54526 0.86373 0.67469 0.0
C780 C 0.54981 0.83828 0.63195 0.0
C781 C 0.53879 0.81616 0.60749 0.0
C782 C 0.47206 0.82809 0.67905 0.0
C783 C 0.5116 0.83289 0.6554 0.0
C784 C 0.45878 0.83724 0.70098 0.0
C785 C 0.47008 0.85956 0.72457 0.0
C786 C 0.49682 0.84137 0.68063 0.0
C787 C 0.49484 0.87189 0.72689 0.0
C788 C 0.53633 0.84667 0.65586 0.0
C789 C 0.51403 0.80303 0.60724 0.0
N790 N 0.50735 0.86269 0.70494 0.0
N791 N 0.50126 0.81159 0.63091 0.0
H792 H 0.13859 0.70993 0.63617 0.0
H793 H 0.1515 0.6015 0.74145 0.0
H794 H 0.20501 0.71067 0.64081 0.0
H795 H 0.08644 0.6035 0.74343 0.0
H796 H 0.17164 0.64139 0.70474 0.0
H797 H 0.1192 0.67041 0.67364 0.0
C798 C 0.1491 0.70172 0.64469 0.0
C799 C 0.1735 0.71367 0.63532 0.0
C800 C 0.15298 0.63311 0.71346 0.0
C801 C 0.15137 0.66838 0.67882 0.0
C802 C 0.14149 0.61038 0.73463 0.0
C803 C 0.11723 0.59909 0.74545 0.0
C804 C 0.14009 0.64459 0.70293 0.0
C805 C 0.10515 0.61145 0.73565 0.0
C806 C 0.13801 0.67916 0.66636 0.0
C807 C 0.18617 0.70212 0.64734 0.0
N808 N 0.11668 0.63345 0.71478 0.0
N809 N 0.17496 0.68013 0.66859 0.0
H810 H 0.37508 0.49139 0.71391 0.0
H811 H 0.26473 0.49695 0.59747 0.0
H812 H 0.37948 0.55661 0.66387 0.0
H813 H 0.26784 0.43267 0.61273 0.0
H814 H 0.30561 0.51945 0.6278 0.0
H815 H 0.33418 0.46989 0.68502 0.0
C816 C 0.3674 0.50124 0.69723 0.0
C817 C 0.38078 0.52585 0.69115 0.0
C818 C 0.29733 0.50043 0.62424 0.0
C819 C 0.33391 0.50126 0.65764 0.0
C820 C 0.27403 0.48758 0.60689 0.0
C821 C 0.26284 0.46289 0.60253 0.0
C822 C 0.3094 0.48844 0.63783 0.0
C823 C 0.27574 0.45167 0.61533 0.0
C824 C 0.34407 0.48891 0.68043 0.0
C825 C 0.36985 0.53763 0.66917 0.0
N826 N 0.29826 0.46452 0.63265 0.0
N827 N 0.34703 0.52521 0.65313 0.0
H828 H 0.1205 0.40191 0.68179 0.0
H829 H 0.11306 0.51844 0.62819 0.0
H830 H 0.1673 0.45658 0.57634 0.0
H831 H 0.08386 0.47521 0.76426 0.0
H832 H 0.13009 0.49399 0.60293 0.0
H833 H 0.10351 0.42643 0.70634 0.0
C834 C 0.12712 0.41901 0.66357 0.0
C835 C 0.14536 0.42722 0.62697 0.0
C836 C 0.12002 0.48993 0.63839 0.0
C837 C 0.12598 0.45534 0.65491 0.0
C838 C 0.11026 0.50383 0.65279 0.0
C839 C 0.09703 0.49885 0.69842 0.0
C840 C 0.11626 0.47072 0.66948 0.0
C841 C 0.094 0.47974 0.72887 0.0
C842 C 0.1175 0.43304 0.67783 0.0
C843 C 0.1533 0.44958 0.60481 0.0
N844 N 0.10343 0.46628 0.71369 0.0
N845 N 0.14351 0.46284 0.61902 0.0
H846 H 0.52388 0.61204 0.62645 0.0
H847 H 0.5375 0.73672 0.70154 0.0
H848 H 0.47737 0.61948 0.73353 0.0
H849 H 0.56933 0.72621 0.56555 0.0
H850 H 0.51739 0.69421 0.71802 0.0
H851 H 0.54301 0.65436 0.60802 0.0
C852 C 0.51772 0.62258 0.64619 0.0
C853 C 0.49902 0.61223 0.68166 0.0
C854 C 0.52869 0.7012 0.68446 0.0
C855 C 0.52087 0.66064 0.66078 0.0
C856 C 0.54023 0.72546 0.67508 0.0
C857 C 0.55515 0.73501 0.63213 0.0
C858 C 0.5323 0.68639 0.651 0.0
C859 C 0.55796 0.71958 0.59906 0.0
C860 C 0.52858 0.64671 0.63545 0.0
C861 C 0.4917 0.62673 0.70588 0.0
N862 N 0.54675 0.69603 0.60937 0.0
N863 N 0.50273 0.65023 0.69517 0.0
H864 H 0.25643 0.80951 0.74731 0.0
H865 H 0.38439 0.87694 0.61651 0.0
H866 H 0.26795 0.82146 0.58329 0.0
H867 H 0.3731 0.86913 0.78125 0.0
H868 H 0.34177 0.85528 0.60353 0.0
H869 H 0.29908 0.82993 0.76036 0.0
C870 C 0.26792 0.81639 0.714 0.0
C871 C 0.2586 0.81381 0.66411 0.0
C872 C 0.34859 0.85827 0.64253 0.0
C873 C 0.30747 0.83722 0.67883 0.0
C874 C 0.37295 0.87063 0.65001 0.0
C875 C 0.38234 0.8749 0.70009 0.0
C876 C 0.33345 0.85006 0.68543 0.0
C877 C 0.36664 0.86628 0.74197 0.0
C878 C 0.29229 0.82807 0.72151 0.0
C879 C 0.27435 0.82308 0.62243 0.0
N880 N 0.34296 0.85428 0.73369 0.0
N881 N 0.29801 0.83439 0.63074 0.0
loop_
_geom_bond_atom_site_label_1
_geom_bond_atom_site_label_2
_geom_bond_distance
_geom_bond_site_symmetry_2
_ccdc_geom_bond_type
C0 O1 1.160 . S
C0 O7 1.185 . S
O1 C0 1.160 . S
O2 Zn3 1.899 . S
O2 C10 1.284 . S
Zn3 O2 1.899 . S
Zn3 O4 2.032 . S
Zn3 O7 2.086 . S
Zn3 O12 1.977 . S
O4 Zn3 2.032 . S
O4 C8 1.278 . S
C5 O6 1.203 . S
C5 O12 1.267 1_556 S
O6 C5 1.203 . S
O7 C0 1.185 . S
O7 Zn3 2.086 . S
C8 O4 1.278 . S
C8 O9 1.211 1_554 S
O9 C8 1.211 1_556 S
C10 O2 1.284 . S
C10 O11 1.273 . S
O11 C10 1.273 . S
O12 Zn3 1.977 . S
O12 C5 1.267 1_554 S
C13 O14 1.160 . S
C13 O20 1.185 . S
O14 C13 1.160 . S
O15 Zn16 1.899 . S
O15 C23 1.284 . S
Zn16 O15 1.899 . S
Zn16 O17 2.032 . S
Zn16 O20 2.086 . S
Zn16 O25 1.977 . S
O17 Zn16 2.032 . S
O17 C21 1.278 . S
C18 O19 1.203 . S
C18 O25 1.267 1_556 S
O19 C18 1.203 . S
O20 C13 1.185 . S
O20 Zn16 2.086 . S
C21 O17 1.278 . S
C21 O22 1.211 1_554 S
O22 C21 1.211 1_556 S
C23 O15 1.284 . S
C23 O24 1.273 . S
O24 C23 1.273 . S
O25 Zn16 1.977 . S
O25 C18 1.267 1_554 S
C26 O27 1.160 . S
C26 O33 1.185 . S
O27 C26 1.160 . S
O28 Zn29 1.899 . S
O28 C36 1.284 . S
Zn29 O28 1.899 . S
Zn29 O30 2.032 . S
Zn29 O33 2.086 . S
Zn29 O38 1.977 . S
O30 Zn29 2.032 . S
O30 C34 1.278 . S
C31 O32 1.203 . S
C31 O38 1.267 1_556 S
O32 C31 1.203 . S
O33 C26 1.185 . S
O33 Zn29 2.086 . S
C34 O30 1.278 . S
C34 O35 1.211 1_554 S
O35 C34 1.211 1_556 S
C36 O28 1.284 . S
C36 O37 1.273 . S
O37 C36 1.273 . S
O38 Zn29 1.977 . S
O38 C31 1.267 1_554 S
C39 O40 1.160 . S
C39 O46 1.185 . S
O40 C39 1.160 . S
O41 Zn42 1.899 . S
O41 C49 1.284 . S
Zn42 O41 1.899 . S
Zn42 O43 2.032 . S
Zn42 O46 2.086 . S
Zn42 O51 1.977 . S
O43 Zn42 2.032 . S
O43 C47 1.278 . S
C44 O45 1.203 . S
C44 O51 1.267 1_554 S
O45 C44 1.203 . S
O46 C39 1.185 . S
O46 Zn42 2.086 . S
C47 O43 1.278 . S
C47 O48 1.211 1_556 S
O48 C47 1.211 1_554 S
C49 O41 1.284 . S
C49 O50 1.273 . S
O50 C49 1.273 . S
O51 Zn42 1.977 . S
O51 C44 1.267 1_556 S
C52 O53 1.160 . S
C52 O59 1.185 . S
O53 C52 1.160 . S
O54 Zn55 1.899 . S
O54 C62 1.284 . S
Zn55 O54 1.899 . S
Zn55 O56 2.032 . S
Zn55 O59 2.086 . S
Zn55 O64 1.977 . S
O56 Zn55 2.032 . S
O56 C60 1.278 . S
C57 O58 1.203 . S
C57 O64 1.267 1_554 S
O58 C57 1.203 . S
O59 C52 1.185 . S
O59 Zn55 2.086 . S
C60 O56 1.278 . S
C60 O61 1.211 1_556 S
O61 C60 1.211 1_554 S
C62 O54 1.284 . S
C62 O63 1.273 . S
O63 C62 1.273 . S
O64 Zn55 1.977 . S
O64 C57 1.267 1_556 S
C65 O66 1.160 . S
C65 O72 1.185 . S
O66 C65 1.160 . S
O67 Zn68 1.899 . S
O67 C75 1.284 . S
Zn68 O67 1.899 . S
Zn68 O69 2.032 . S
Zn68 O72 2.086 . S
Zn68 O77 1.977 . S
O69 Zn68 2.032 . S
O69 C73 1.278 . S
C70 O71 1.203 . S
C70 O77 1.267 1_554 S
O71 C70 1.203 . S
O72 C65 1.185 . S
O72 Zn68 2.086 . S
C73 O69 1.278 . S
C73 O74 1.211 1_556 S
O74 C73 1.211 1_554 S
C75 O67 1.284 . S
C75 O76 1.273 . S
O76 C75 1.273 . S
O77 Zn68 1.977 . S
O77 C70 1.267 1_556 S
C78 O79 1.160 . S
C78 O85 1.185 . S
O79 C78 1.160 . S
O80 Zn81 1.899 . S
O80 C88 1.284 . S
Zn81 O80 1.899 . S
Zn81 O82 2.032 . S
Zn81 O85 2.086 . S
Zn81 O90 1.977 . S
O82 Zn81 2.032 . S
O82 C86 1.278 . S
C83 O84 1.203 . S
C83 O90 1.267 . S
O84 C83 1.203 . S
O85 C78 1.185 . S
O85 Zn81 2.086 . S
C86 O82 1.278 . S
C86 O87 1.211 . S
O87 C86 1.211 . S
C88 O80 1.284 . S
C88 O89 1.273 . S
O89 C88 1.273 . S
O90 Zn81 1.977 . S
O90 C83 1.267 . S
C91 O92 1.160 . S
C91 O98 1.185 . S
O92 C91 1.160 . S
O93 Zn94 1.899 . S
O93 C101 1.284 . S
Zn94 O93 1.899 . S
Zn94 O95 2.032 . S
Zn94 O98 2.086 . S
Zn94 O103 1.977 . S
O95 Zn94 2.032 . S
O95 C99 1.278 . S
C96 O97 1.203 . S
C96 O103 1.267 . S
O97 C96 1.203 . S
O98 C91 1.185 . S
O98 Zn94 2.086 . S
C99 O95 1.278 . S
C99 O100 1.211 . S
O100 C99 1.211 . S
C101 O93 1.284 . S
C101 O102 1.273 . S
O102 C101 1.273 . S
O103 Zn94 1.977 . S
O103 C96 1.267 . S
C104 O105 1.160 . S
C104 O111 1.185 . S
O105 C104 1.160 . S
O106 Zn107 1.899 . S
O106 C114 1.284 . S
Zn107 O106 1.899 . S
Zn107 O108 2.032 . S
Zn107 O111 2.086 . S
Zn107 O116 1.977 . S
O108 Zn107 2.032 . S
O108 C112 1.278 . S
C109 O110 1.203 . S
C109 O116 1.267 . S
O110 C109 1.203 . S
O111 C104 1.185 . S
O111 Zn107 2.086 . S
C112 O108 1.278 . S
C112 O113 1.211 . S
O113 C112 1.211 . S
C114 O106 1.284 . S
C114 O115 1.273 . S
O115 C114 1.273 . S
O116 Zn107 1.977 . S
O116 C109 1.267 . S
C117 O118 1.160 . S
C117 O124 1.185 . S
O118 C117 1.160 . S
O119 Zn120 1.899 . S
O119 C127 1.284 . S
Zn120 O119 1.899 . S
Zn120 O121 2.032 . S
Zn120 O124 2.086 . S
Zn120 O129 1.977 . S
O121 Zn120 2.032 . S
O121 C125 1.278 . S
C122 O123 1.203 . S
C122 O129 1.267 . S
O123 C122 1.203 . S
O124 C117 1.185 . S
O124 Zn120 2.086 . S
C125 O121 1.278 . S
C125 O126 1.211 . S
O126 C125 1.211 . S
C127 O119 1.284 . S
C127 O128 1.273 . S
O128 C127 1.273 . S
O129 Zn120 1.977 . S
O129 C122 1.267 . S
C130 O131 1.160 . S
C130 O137 1.185 . S
O131 C130 1.160 . S
O132 Zn133 1.899 . S
O132 C140 1.284 . S
Zn133 O132 1.899 . S
Zn133 O134 2.032 . S
Zn133 O137 2.086 . S
Zn133 O142 1.977 . S
O134 Zn133 2.032 . S
O134 C138 1.278 . S
C135 O136 1.203 . S
C135 O142 1.267 . S
O136 C135 1.203 . S
O137 C130 1.185 . S
O137 Zn133 2.086 . S
C138 O134 1.278 . S
C138 O139 1.211 . S
O139 C138 1.211 . S
C140 O132 1.284 . S
C140 O141 1.273 . S
O141 C140 1.273 . S
O142 Zn133 1.977 . S
O142 C135 1.267 . S
C143 O144 1.160 . S
C143 O150 1.185 . S
O144 C143 1.160 . S
O145 Zn146 1.899 . S
O145 C153 1.284 . S
Zn146 O145 1.899 . S
Zn146 O147 2.032 . S
Zn146 O150 2.086 . S
Zn146 O155 1.977 . S
O147 Zn146 2.032 . S
O147 C151 1.278 . S
C148 O149 1.203 . S
C148 O155 1.267 . S
O149 C148 1.203 . S
O150 C143 1.185 . S
O150 Zn146 2.086 . S
C151 O147 1.278 . S
C151 O152 1.211 . S
O152 C151 1.211 . S
C153 O145 1.284 . S
C153 O154 1.273 . S
O154 C153 1.273 . S
O155 Zn146 1.977 . S
O155 C148 1.267 . S
C156 O157 1.160 . S
C156 O163 1.185 . S
O157 C156 1.160 . S
O158 Zn159 1.899 . S
O158 C166 1.284 . S
Zn159 O158 1.899 . S
Zn159 O160 2.032 . S
Zn159 O163 2.086 . S
Zn159 O168 1.977 . S
O160 Zn159 2.032 . S
O160 C164 1.278 . S
C161 O162 1.203 . S
C161 O168 1.267 . S
O162 C161 1.203 . S
O163 C156 1.185 . S
O163 Zn159 2.086 . S
C164 O160 1.278 . S
C164 O165 1.211 . S
O165 C164 1.211 . S
C166 O158 1.284 . S
C166 O167 1.273 . S
O167 C166 1.273 . S
O168 Zn159 1.977 . S
O168 C161 1.267 . S
C169 O170 1.160 . S
C169 O176 1.185 . S
O170 C169 1.160 . S
O171 Zn172 1.899 . S
O171 C179 1.284 . S
Zn172 O171 1.899 . S
Zn172 O173 2.032 . S
Zn172 O176 2.086 . S
Zn172 O181 1.977 . S
O173 Zn172 2.032 . S
O173 C177 1.278 . S
C174 O175 1.203 . S
C174 O181 1.267 . S
O175 C174 1.203 . S
O176 C169 1.185 . S
O176 Zn172 2.086 . S
C177 O173 1.278 . S
C177 O178 1.211 . S
O178 C177 1.211 . S
C179 O171 1.284 . S
C179 O180 1.273 . S
O180 C179 1.273 . S
O181 Zn172 1.977 . S
O181 C174 1.267 . S
C182 O183 1.160 . S
C182 O189 1.185 . S
O183 C182 1.160 . S
O184 Zn185 1.899 . S
O184 C192 1.284 . S
Zn185 O184 1.899 . S
Zn185 O186 2.032 . S
Zn185 O189 2.086 . S
Zn185 O194 1.977 . S
O186 Zn185 2.032 . S
O186 C190 1.278 . S
C187 O188 1.203 . S
C187 O194 1.267 . S
O188 C187 1.203 . S
O189 C182 1.185 . S
O189 Zn185 2.086 . S
C190 O186 1.278 . S
C190 O191 1.211 . S
O191 C190 1.211 . S
C192 O184 1.284 . S
C192 O193 1.273 . S
O193 C192 1.273 . S
O194 Zn185 1.977 . S
O194 C187 1.267 . S
C195 O196 1.160 . S
C195 O202 1.185 . S
O196 C195 1.160 . S
O197 Zn198 1.899 . S
O197 C205 1.284 . S
Zn198 O197 1.899 . S
Zn198 O199 2.032 . S
Zn198 O202 2.086 . S
Zn198 O207 1.977 . S
O199 Zn198 2.032 . S
O199 C203 1.278 . S
C200 O201 1.203 . S
C200 O207 1.267 . S
O201 C200 1.203 . S
O202 C195 1.185 . S
O202 Zn198 2.086 . S
C203 O199 1.278 . S
C203 O204 1.211 . S
O204 C203 1.211 . S
C205 O197 1.284 . S
C205 O206 1.273 . S
O206 C205 1.273 . S
O207 Zn198 1.977 . S
O207 C200 1.267 . S
C208 O209 1.160 . S
C208 O215 1.185 . S
O209 C208 1.160 . S
O210 Zn211 1.899 . S
O210 C218 1.284 . S
Zn211 O210 1.899 . S
Zn211 O212 2.032 . S
Zn211 O215 2.086 . S
Zn211 O220 1.977 . S
O212 Zn211 2.032 . S
O212 C216 1.278 . S
C213 O214 1.203 . S
C213 O220 1.267 . S
O214 C213 1.203 . S
O215 C208 1.185 . S
O215 Zn211 2.086 . S
C216 O212 1.278 . S
C216 O217 1.211 . S
O217 C216 1.211 . S
C218 O210 1.284 . S
C218 O219 1.273 . S
O219 C218 1.273 . S
O220 Zn211 1.977 . S
O220 C213 1.267 . S
C221 O222 1.160 . S
C221 O228 1.185 . S
O222 C221 1.160 . S
O223 Zn224 1.899 . S
O223 C231 1.284 . S
Zn224 O223 1.899 . S
Zn224 O225 2.032 . S
Zn224 O228 2.086 . S
Zn224 O233 1.977 . S
O225 Zn224 2.032 . S
O225 C229 1.278 . S
C226 O227 1.203 . S
C226 O233 1.267 . S
O227 C226 1.203 . S
O228 C221 1.185 . S
O228 Zn224 2.086 . S
C229 O225 1.278 . S
C229 O230 1.211 . S
O230 C229 1.211 . S
C231 O223 1.284 . S
C231 O232 1.273 . S
O232 C231 1.273 . S
O233 Zn224 1.977 . S
O233 C226 1.267 . S
H234 C240 0.930 . S
H235 C244 0.930 . S
H236 C249 0.929 . S
H237 C247 0.929 . S
H238 C242 0.929 . S
H239 C248 0.929 . S
C240 H234 0.930 . S
C240 C241 1.367 . S
C240 C248 1.378 . S
C241 C240 1.367 . S
C241 C249 1.433 . S
C242 H238 0.929 . S
C242 C244 1.378 . S
C242 C246 1.350 . S
C243 C246 1.463 . S
C243 C248 1.350 . S
C243 N251 1.427 . S
C244 H235 0.930 . S
C244 C242 1.378 . S
C244 C245 1.367 . S
C245 C244 1.367 . S
C245 C247 1.433 . S
C246 C242 1.350 . S
C246 C243 1.463 . S
C246 N250 1.427 . S
C247 H237 0.929 . S
C247 C245 1.433 . S
C247 N250 1.384 . S
C248 H239 0.929 . S
C248 C240 1.378 . S
C248 C243 1.350 . S
C249 H236 0.929 . S
C249 C241 1.433 . S
C249 N251 1.384 . S
N250 C246 1.427 . S
N250 C247 1.384 . S
N251 C243 1.427 . S
N251 C249 1.384 . S
H252 C258 0.930 . S
H253 C262 0.930 . S
H254 C267 0.929 . S
H255 C265 0.929 . S
H256 C260 0.929 . S
H257 C266 0.929 . S
C258 H252 0.930 . S
C258 C259 1.367 . S
C258 C266 1.378 . S
C259 C258 1.367 . S
C259 C267 1.433 . S
C260 H256 0.929 . S
C260 C262 1.378 . S
C260 C264 1.350 . S
C261 C264 1.463 . S
C261 C266 1.350 . S
C261 N269 1.427 . S
C262 H253 0.930 . S
C262 C260 1.378 . S
C262 C263 1.367 . S
C263 C262 1.367 . S
C263 C265 1.433 . S
C264 C260 1.350 . S
C264 C261 1.463 . S
C264 N268 1.427 . S
C265 H255 0.929 . S
C265 C263 1.433 . S
C265 N268 1.384 . S
C266 H257 0.929 . S
C266 C258 1.378 . S
C266 C261 1.350 . S
C267 H254 0.929 . S
C267 C259 1.433 . S
C267 N269 1.384 . S
N268 C264 1.427 . S
N268 C265 1.384 . S
N269 C261 1.427 . S
N269 C267 1.384 . S
H270 C276 0.930 . S
H271 C280 0.930 . S
H272 C285 0.929 . S
H273 C283 0.929 . S
H274 C278 0.929 . S
H275 C284 0.929 . S
C276 H270 0.930 . S
C276 C277 1.367 . S
C276 C284 1.378 . S
C277 C276 1.367 . S
C277 C285 1.433 . S
C278 H274 0.929 . S
C278 C280 1.378 . S
C278 C282 1.350 . S
C279 C282 1.463 . S
C279 C284 1.350 . S
C279 N287 1.427 . S
C280 H271 0.930 . S
C280 C278 1.378 . S
C280 C281 1.367 . S
C281 C280 1.367 . S
C281 C283 1.433 . S
C282 C278 1.350 . S
C282 C279 1.463 . S
C282 N286 1.427 . S
C283 H273 0.929 . S
C283 C281 1.433 . S
C283 N286 1.384 . S
C284 H275 0.929 . S
C284 C276 1.378 . S
C284 C279 1.350 . S
C285 H272 0.929 . S
C285 C277 1.433 . S
C285 N287 1.384 . S
N286 C282 1.427 . S
N286 C283 1.384 . S
N287 C279 1.427 . S
N287 C285 1.384 . S
H288 C294 0.930 . S
H289 C298 0.930 . S
H290 C303 0.929 . S
H291 C301 0.929 . S
H292 C296 0.929 . S
H293 C302 0.929 . S
C294 H288 0.930 . S
C294 C295 1.367 . S
C294 C302 1.378 . S
C295 C294 1.367 . S
C295 C303 1.433 . S
C296 H292 0.929 . S
C296 C298 1.378 . S
C296 C300 1.350 . S
C297 C300 1.463 . S
C297 C302 1.350 . S
C297 N305 1.427 . S
C298 H289 0.930 . S
C298 C296 1.378 . S
C298 C299 1.367 . S
C299 C298 1.367 . S
C299 C301 1.433 . S
C300 C296 1.350 . S
C300 C297 1.463 . S
C300 N304 1.427 . S
C301 H291 0.929 . S
C301 C299 1.433 . S
C301 N304 1.384 . S
C302 H293 0.929 . S
C302 C294 1.378 . S
C302 C297 1.350 . S
C303 H290 0.929 . S
C303 C295 1.433 . S
C303 N305 1.384 . S
N304 C300 1.427 . S
N304 C301 1.384 . S
N305 C297 1.427 . S
N305 C303 1.384 . S
H306 C312 0.930 . S
H307 C316 0.930 . S
H308 C321 0.929 . S
H309 C319 0.929 . S
H310 C314 0.929 . S
H311 C320 0.929 . S
C312 H306 0.930 . S
C312 C313 1.367 . S
C312 C320 1.378 . S
C313 C312 1.367 . S
C313 C321 1.433 . S
C314 H310 0.929 . S
C314 C316 1.378 . S
C314 C318 1.350 . S
C315 C318 1.463 . S
C315 C320 1.350 . S
C315 N323 1.427 . S
C316 H307 0.930 . S
C316 C314 1.378 . S
C316 C317 1.367 . S
C317 C316 1.367 . S
C317 C319 1.433 . S
C318 C314 1.350 . S
C318 C315 1.463 . S
C318 N322 1.427 . S
C319 H309 0.929 . S
C319 C317 1.433 . S
C319 N322 1.384 . S
C320 H311 0.929 . S
C320 C312 1.378 . S
C320 C315 1.350 . S
C321 H308 0.929 . S
C321 C313 1.433 . S
C321 N323 1.384 . S
N322 C318 1.427 . S
N322 C319 1.384 . S
N323 C315 1.427 . S
N323 C321 1.384 . S
H324 C330 0.930 . S
H325 C334 0.930 . S
H326 C339 0.929 . S
H327 C337 0.929 . S
H328 C332 0.929 . S
H329 C338 0.929 . S
C330 H324 0.930 . S
C330 C331 1.367 . S
C330 C338 1.378 . S
C331 C330 1.367 . S
C331 C339 1.433 . S
C332 H328 0.929 . S
C332 C334 1.378 . S
C332 C336 1.350 . S
C333 C336 1.463 . S
C333 C338 1.350 . S
C333 N341 1.427 . S
C334 H325 0.930 . S
C334 C332 1.378 . S
C334 C335 1.367 . S
C335 C334 1.367 . S
C335 C337 1.433 . S
C336 C332 1.350 . S
C336 C333 1.463 . S
C336 N340 1.427 . S
C337 H327 0.929 . S
C337 C335 1.433 . S
C337 N340 1.384 . S
C338 H329 0.929 . S
C338 C330 1.378 . S
C338 C333 1.350 . S
C339 H326 0.929 . S
C339 C331 1.433 . S
C339 N341 1.384 . S
N340 C336 1.427 . S
N340 C337 1.384 . S
N341 C333 1.427 . S
N341 C339 1.384 . S
H342 C348 0.930 . S
H343 C352 0.930 . S
H344 C357 0.929 . S
H345 C355 0.929 . S
H346 C350 0.929 1_554 S
H347 C356 0.929 1_556 S
C348 H342 0.930 . S
C348 C349 1.367 . S
C348 C356 1.378 . S
C349 C348 1.367 . S
C349 C357 1.433 . S
C350 H346 0.929 1_556 S
C350 C352 1.378 . S
C350 C354 1.350 . S
C351 C354 1.463 1_654 S
C351 C356 1.350 . S
C351 N359 1.427 1_655 S
C352 H343 0.930 . S
C352 C350 1.378 . S
C352 C353 1.367 . S
C353 C352 1.367 . S
C353 C355 1.433 . S
C354 C350 1.350 . S
C354 C351 1.463 1_456 S
C354 N358 1.427 1_455 S
C355 H345 0.929 . S
C355 C353 1.433 . S
C355 N358 1.384 1_455 S
C356 H347 0.929 1_554 S
C356 C348 1.378 . S
C356 C351 1.350 . S
C357 H344 0.929 . S
C357 C349 1.433 . S
C357 N359 1.384 1_655 S
N358 C354 1.427 1_655 S
N358 C355 1.384 1_655 S
N359 C351 1.427 1_455 S
N359 C357 1.384 1_455 S
H360 C366 0.930 . S
H361 C370 0.930 . S
H362 C375 0.929 . S
H363 C373 0.929 . S
H364 C368 0.929 1_554 S
H365 C374 0.929 1_556 S
C366 H360 0.930 . S
C366 C367 1.367 . S
C366 C374 1.378 . S
C367 C366 1.367 . S
C367 C375 1.433 . S
C368 H364 0.929 1_556 S
C368 C370 1.378 . S
C368 C372 1.350 . S
C369 C372 1.463 1_554 S
C369 C374 1.350 . S
C369 N377 1.427 . S
C370 H361 0.930 . S
C370 C368 1.378 . S
C370 C371 1.367 . S
C371 C370 1.367 . S
C371 C373 1.433 . S
C372 C368 1.350 . S
C372 C369 1.463 1_556 S
C372 N376 1.427 . S
C373 H363 0.929 . S
C373 C371 1.433 . S
C373 N376 1.384 . S
C374 H365 0.929 1_554 S
C374 C366 1.378 . S
C374 C369 1.350 . S
C375 H362 0.929 . S
C375 C367 1.433 . S
C375 N377 1.384 . S
N376 C372 1.427 . S
N376 C373 1.384 . S
N377 C369 1.427 . S
N377 C375 1.384 . S
H378 C384 0.930 . S
H379 C388 0.930 . S
H380 C393 0.929 . S
H381 C391 0.929 . S
H382 C386 0.929 1_554 S
H383 C392 0.929 1_556 S
C384 H378 0.930 . S
C384 C385 1.367 . S
C384 C392 1.378 . S
C385 C384 1.367 . S
C385 C393 1.433 . S
C386 H382 0.929 1_556 S
C386 C388 1.378 . S
C386 C390 1.350 . S
C387 C390 1.463 1_544 S
C387 C392 1.350 . S
C387 N395 1.414 1_545 S
C388 H379 0.930 . S
C388 C386 1.378 . S
C388 C389 1.367 . S
C389 C388 1.367 . S
C389 C391 1.433 . S
C390 C386 1.350 . S
C390 C387 1.463 1_566 S
C390 N394 1.414 1_565 S
C391 H381 0.929 . S
C391 C389 1.433 . S
C391 N394 1.371 1_565 S
C392 H383 0.929 1_554 S
C392 C384 1.378 . S
C392 C387 1.350 . S
C393 H380 0.929 . S
C393 C385 1.433 . S
C393 N395 1.371 1_545 S
N394 C390 1.414 1_545 S
N394 C391 1.371 1_545 S
N395 C387 1.414 1_565 S
N395 C393 1.371 1_565 S
H396 C402 0.930 . S
H397 C406 0.930 . S
H398 C411 0.929 . S
H399 C409 0.929 . S
H400 C404 0.929 . S
H401 C410 0.929 . S
C402 H396 0.930 . S
C402 C403 1.367 . S
C402 C410 1.378 . S
C403 C402 1.367 . S
C403 C411 1.433 . S
C404 H400 0.929 . S
C404 C406 1.378 . S
C404 C408 1.350 . S
C405 C408 1.463 . S
C405 C410 1.350 . S
C405 N413 1.427 . S
C406 H397 0.930 . S
C406 C404 1.378 . S
C406 C407 1.367 . S
C407 C406 1.367 . S
C407 C409 1.433 . S
C408 C404 1.350 . S
C408 C405 1.463 . S
C408 N412 1.427 . S
C409 H399 0.929 . S
C409 C407 1.433 . S
C409 N412 1.384 . S
C410 H401 0.929 . S
C410 C402 1.378 . S
C410 C405 1.350 . S
C411 H398 0.929 . S
C411 C403 1.433 . S
C411 N413 1.384 . S
N412 C408 1.427 . S
N412 C409 1.384 . S
N413 C405 1.427 . S
N413 C411 1.384 . S
H414 C420 0.930 . S
H415 C424 0.930 . S
H416 C429 0.929 . S
H417 C427 0.929 . S
H418 C422 0.929 . S
H419 C428 0.929 . S
C420 H414 0.930 . S
C420 C421 1.367 . S
C420 C428 1.378 . S
C421 C420 1.367 . S
C421 C429 1.433 . S
C422 H418 0.929 . S
C422 C424 1.378 . S
C422 C426 1.350 . S
C423 C426 1.463 . S
C423 C428 1.350 . S
C423 N431 1.427 . S
C424 H415 0.930 . S
C424 C422 1.378 . S
C424 C425 1.367 . S
C425 C424 1.367 . S
C425 C427 1.433 . S
C426 C422 1.350 . S
C426 C423 1.463 . S
C426 N430 1.427 . S
C427 H417 0.929 . S
C427 C425 1.433 . S
C427 N430 1.384 . S
C428 H419 0.929 . S
C428 C420 1.378 . S
C428 C423 1.350 . S
C429 H416 0.929 . S
C429 C421 1.433 . S
C429 N431 1.384 . S
N430 C426 1.427 . S
N430 C427 1.384 . S
N431 C423 1.427 . S
N431 C429 1.384 . S
H432 C438 0.930 . S
H433 C442 0.930 . S
H434 C447 0.929 . S
H435 C445 0.929 . S
H436 C440 0.929 . S
H437 C446 0.929 . S
C438 H432 0.930 . S
C438 C439 1.367 . S
C438 C446 1.378 . S
C439 C438 1.367 . S
C439 C447 1.433 . S
C440 H436 0.929 . S
C440 C442 1.378 . S
C440 C444 1.350 . S
C441 C444 1.463 . S
C441 C446 1.350 . S
C441 N449 1.427 . S
C442 H433 0.930 . S
C442 C440 1.378 . S
C442 C443 1.367 . S
C443 C442 1.367 . S
C443 C445 1.433 . S
C444 C440 1.350 . S
C444 C441 1.463 . S
C444 N448 1.427 . S
C445 H435 0.929 . S
C445 C443 1.433 . S
C445 N448 1.384 . S
C446 H437 0.929 . S
C446 C438 1.378 . S
C446 C441 1.350 . S
C447 H434 0.929 . S
C447 C439 1.433 . S
C447 N449 1.384 . S
N448 C444 1.427 . S
N448 C445 1.384 . S
N449 C441 1.427 . S
N449 C447 1.384 . S
H450 C456 0.930 . S
H451 C460 0.930 . S
H452 C465 0.929 . S
H453 C463 0.929 . S
H454 C458 0.929 . S
H455 C464 0.929 . S
C456 H450 0.930 . S
C456 C457 1.367 . S
C456 C464 1.378 . S
C457 C456 1.367 . S
C457 C465 1.433 . S
C458 H454 0.929 . S
C458 C460 1.378 . S
C458 C462 1.350 . S
C459 C462 1.463 . S
C459 C464 1.350 . S
C459 N467 1.427 . S
C460 H451 0.930 . S
C460 C458 1.378 . S
C460 C461 1.367 . S
C461 C460 1.367 . S
C461 C463 1.433 . S
C462 C458 1.350 . S
C462 C459 1.463 . S
C462 N466 1.427 . S
C463 H453 0.929 . S
C463 C461 1.433 . S
C463 N466 1.384 . S
C464 H455 0.929 . S
C464 C456 1.378 . S
C464 C459 1.350 . S
C465 H452 0.929 . S
C465 C457 1.433 . S
C465 N467 1.384 . S
N466 C462 1.427 . S
N466 C463 1.384 . S
N467 C459 1.427 . S
N467 C465 1.384 . S
H468 C474 0.930 . S
H469 C478 0.930 . S
H470 C483 0.929 . S
H471 C481 0.929 . S
H472 C476 0.929 . S
H473 C482 0.929 . S
C474 H468 0.930 . S
C474 C475 1.367 . S
C474 C482 1.378 . S
C475 C474 1.367 . S
C475 C483 1.433 . S
C476 H472 0.929 . S
C476 C478 1.378 . S
C476 C480 1.350 . S
C477 C480 1.463 . S
C477 C482 1.350 . S
C477 N485 1.427 . S
C478 H469 0.930 . S
C478 C476 1.378 . S
C478 C479 1.367 . S
C479 C478 1.367 . S
C479 C481 1.433 . S
C480 C476 1.350 . S
C480 C477 1.463 . S
C480 N484 1.427 . S
C481 H471 0.929 . S
C481 C479 1.433 . S
C481 N484 1.384 . S
C482 H473 0.929 . S
C482 C474 1.378 . S
C482 C477 1.350 . S
C483 H470 0.929 . S
C483 C475 1.433 . S
C483 N485 1.384 . S
N484 C480 1.427 . S
N484 C481 1.384 . S
N485 C477 1.427 . S
N485 C483 1.384 . S
H486 C492 0.930 . S
H487 C496 0.930 . S
H488 C501 0.929 . S
H489 C499 0.929 . S
H490 C494 0.929 . S
H491 C500 0.929 . S
C492 H486 0.930 . S
C492 C493 1.367 . S
C492 C500 1.378 . S
C493 C492 1.367 . S
C493 C501 1.433 . S
C494 H490 0.929 . S
C494 C496 1.378 . S
C494 C498 1.350 . S
C495 C498 1.463 . S
C495 C500 1.350 . S
C495 N503 1.427 . S
C496 H487 0.930 . S
C496 C494 1.378 . S
C496 C497 1.367 . S
C497 C496 1.367 . S
C497 C499 1.433 . S
C498 C494 1.350 . S
C498 C495 1.463 . S
C498 N502 1.427 . S
C499 H489 0.929 . S
C499 C497 1.433 . S
C499 N502 1.384 . S
C500 H491 0.929 . S
C500 C492 1.378 . S
C500 C495 1.350 . S
C501 H488 0.929 . S
C501 C493 1.433 . S
C501 N503 1.384 . S
N502 C498 1.427 . S
N502 C499 1.384 . S
N503 C495 1.427 . S
N503 C501 1.384 . S
H504 C510 0.930 . S
H505 C514 0.930 . S
H506 C519 0.929 . S
H507 C517 0.929 . S
H508 C512 0.929 1_655 S
H509 C518 0.929 1_455 S
C510 H504 0.930 . S
C510 C511 1.367 . S
C510 C518 1.378 . S
C511 C510 1.367 . S
C511 C519 1.433 . S
C512 H508 0.929 1_455 S
C512 C514 1.378 . S
C512 C516 1.350 . S
C513 C516 1.463 1_655 S
C513 C518 1.350 . S
C513 N521 1.427 . S
C514 H505 0.930 . S
C514 C512 1.378 . S
C514 C515 1.367 . S
C515 C514 1.367 . S
C515 C517 1.433 . S
C516 C512 1.350 . S
C516 C513 1.463 1_455 S
C516 N520 1.427 . S
C517 H507 0.929 . S
C517 C515 1.433 . S
C517 N520 1.384 . S
C518 H509 0.929 1_655 S
C518 C510 1.378 . S
C518 C513 1.350 . S
C519 H506 0.929 . S
C519 C511 1.433 . S
C519 N521 1.384 . S
N520 C516 1.427 . S
N520 C517 1.384 . S
N521 C513 1.427 . S
N521 C519 1.384 . S
H522 C528 0.930 . S
H523 C532 0.930 . S
H524 C537 0.929 . S
H525 C535 0.929 . S
H526 C530 0.929 . S
H527 C536 0.929 . S
C528 H522 0.930 . S
C528 C529 1.367 . S
C528 C536 1.378 . S
C529 C528 1.367 . S
C529 C537 1.433 . S
C530 H526 0.929 . S
C530 C532 1.378 . S
C530 C534 1.350 . S
C531 C534 1.463 . S
C531 C536 1.350 . S
C531 N539 1.427 . S
C532 H523 0.930 . S
C532 C530 1.378 . S
C532 C533 1.367 . S
C533 C532 1.367 . S
C533 C535 1.433 . S
C534 C530 1.350 . S
C534 C531 1.463 . S
C534 N538 1.427 . S
C535 H525 0.929 . S
C535 C533 1.433 . S
C535 N538 1.384 . S
C536 H527 0.929 . S
C536 C528 1.378 . S
C536 C531 1.350 . S
C537 H524 0.929 . S
C537 C529 1.433 . S
C537 N539 1.384 . S
N538 C534 1.427 . S
N538 C535 1.384 . S
N539 C531 1.427 . S
N539 C537 1.384 . S
H540 C546 0.930 . S
H541 C550 0.930 . S
H542 C555 0.929 . S
H543 C553 0.929 . S
H544 C548 0.929 . S
H545 C554 0.929 . S
C546 H540 0.930 . S
C546 C547 1.367 . S
C546 C554 1.378 . S
C547 C546 1.367 . S
C547 C555 1.433 . S
C548 H544 0.929 . S
C548 C550 1.378 . S
C548 C552 1.350 . S
C549 C552 1.463 1_565 S
C549 C554 1.350 . S
C549 N557 1.427 1_565 S
C550 H541 0.930 . S
C550 C548 1.378 . S
C550 C551 1.367 . S
C551 C550 1.367 . S
C551 C553 1.433 . S
C552 C548 1.350 . S
C552 C549 1.463 1_545 S
C552 N556 1.427 1_545 S
C553 H543 0.929 . S
C553 C551 1.433 . S
C553 N556 1.384 1_545 S
C554 H545 0.929 . S
C554 C546 1.378 . S
C554 C549 1.350 . S
C555 H542 0.929 . S
C555 C547 1.433 . S
C555 N557 1.384 1_565 S
N556 C552 1.427 1_565 S
N556 C553 1.384 1_565 S
N557 C549 1.427 1_545 S
N557 C555 1.384 1_545 S
H558 C564 0.930 . S
H559 C568 0.930 . S
H560 C573 0.929 . S
H561 C571 0.929 . S
H562 C566 0.929 . S
H563 C572 0.929 . S
C564 H558 0.930 . S
C564 C565 1.367 . S
C564 C572 1.378 . S
C565 C564 1.367 . S
C565 C573 1.433 1_554 S
C566 H562 0.929 . S
C566 C568 1.378 . S
C566 C570 1.350 . S
C567 C570 1.463 1_554 S
C567 C572 1.350 . S
C567 N575 1.427 1_554 S
C568 H559 0.930 . S
C568 C566 1.378 . S
C568 C569 1.367 . S
C569 C568 1.367 . S
C569 C571 1.433 1_556 S
C570 C566 1.350 . S
C570 C567 1.463 1_556 S
C570 N574 1.427 1_556 S
C571 H561 0.929 . S
C571 C569 1.433 1_554 S
C571 N574 1.384 . S
C572 H563 0.929 . S
C572 C564 1.378 . S
C572 C567 1.350 . S
C573 H560 0.929 . S
C573 C565 1.433 1_556 S
C573 N575 1.384 . S
N574 C570 1.427 1_554 S
N574 C571 1.384 . S
N575 C567 1.427 1_556 S
N575 C573 1.384 . S
H576 C582 0.930 . S
H577 C586 0.930 . S
H578 C591 0.929 1_554 S
H579 C589 0.929 1_556 S
H580 C584 0.929 . S
H581 C590 0.929 . S
C582 H576 0.930 . S
C582 C583 1.367 . S
C582 C590 1.378 . S
C583 C582 1.367 . S
C583 C591 1.433 . S
C584 H580 0.929 . S
C584 C586 1.378 . S
C584 C588 1.350 . S
C585 C588 1.463 1_546 S
C585 C590 1.350 . S
C585 N593 1.427 1_556 S
C586 H577 0.930 . S
C586 C584 1.378 . S
C586 C587 1.367 . S
C587 C586 1.367 . S
C587 C589 1.433 . S
C588 C584 1.350 . S
C588 C585 1.463 1_564 S
C588 N592 1.427 1_554 S
C589 H579 0.929 1_554 S
C589 C587 1.433 . S
C589 N592 1.384 1_554 S
C590 H581 0.929 . S
C590 C582 1.378 . S
C590 C585 1.350 . S
C591 H578 0.929 1_556 S
C591 C583 1.433 . S
C591 N593 1.384 1_556 S
N592 C588 1.427 1_556 S
N592 C589 1.384 1_556 S
N593 C585 1.427 1_554 S
N593 C591 1.384 1_554 S
H594 C600 0.930 . S
H595 C604 0.930 . S
H596 C609 0.929 . S
H597 C607 0.929 . S
H598 C602 0.929 . S
H599 C608 0.929 . S
C600 H594 0.930 . S
C600 C601 1.367 . S
C600 C608 1.378 . S
C601 C600 1.367 . S
C601 C609 1.433 1_556 S
C602 H598 0.929 . S
C602 C604 1.378 . S
C602 C606 1.350 . S
C603 C606 1.463 1_656 S
C603 C608 1.350 . S
C603 N611 1.427 1_556 S
C604 H595 0.930 . S
C604 C602 1.378 . S
C604 C605 1.367 . S
C605 C604 1.367 . S
C605 C607 1.433 1_554 S
C606 C602 1.350 . S
C606 C603 1.463 1_454 S
C606 N610 1.427 1_554 S
C607 H597 0.929 . S
C607 C605 1.433 1_556 S
C607 N610 1.384 . S
C608 H599 0.929 . S
C608 C600 1.378 . S
C608 C603 1.350 . S
C609 H596 0.929 . S
C609 C601 1.433 1_554 S
C609 N611 1.384 . S
N610 C606 1.427 1_556 S
N610 C607 1.384 . S
N611 C603 1.427 1_554 S
N611 C609 1.384 . S
H612 C618 0.930 . S
H613 C622 0.930 . S
H614 C627 0.929 . S
H615 C625 0.929 . S
H616 C620 0.929 . S
H617 C626 0.929 . S
C618 H612 0.930 . S
C618 C619 1.367 . S
C618 C626 1.378 . S
C619 C618 1.367 . S
C619 C627 1.433 1_556 S
C620 H616 0.929 . S
C620 C622 1.378 . S
C620 C624 1.350 . S
C621 C624 1.463 1_556 S
C621 C626 1.350 . S
C621 N629 1.427 1_556 S
C622 H613 0.930 . S
C622 C620 1.378 . S
C622 C623 1.367 . S
C623 C622 1.367 . S
C623 C625 1.433 1_554 S
C624 C620 1.350 . S
C624 C621 1.463 1_554 S
C624 N628 1.427 1_554 S
C625 H615 0.929 . S
C625 C623 1.433 1_556 S
C625 N628 1.384 . S
C626 H617 0.929 . S
C626 C618 1.378 . S
C626 C621 1.350 . S
C627 H614 0.929 . S
C627 C619 1.433 1_554 S
C627 N629 1.384 . S
N628 C624 1.427 1_556 S
N628 C625 1.384 . S
N629 C621 1.427 1_554 S
N629 C627 1.384 . S
H630 C636 0.930 . S
H631 C640 0.930 . S
H632 C645 0.929 . S
H633 C643 0.929 . S
H634 C638 0.929 . S
H635 C644 0.929 . S
C636 H630 0.930 . S
C636 C637 1.367 . S
C636 C644 1.378 . S
C637 C636 1.367 . S
C637 C645 1.433 1_554 S
C638 H634 0.929 . S
C638 C640 1.378 . S
C638 C642 1.350 . S
C639 C642 1.463 1_564 S
C639 C644 1.350 . S
C639 N647 1.427 1_554 S
C640 H631 0.930 . S
C640 C638 1.378 . S
C640 C641 1.367 . S
C641 C640 1.367 . S
C641 C643 1.433 1_556 S
C642 C638 1.350 . S
C642 C639 1.463 1_546 S
C642 N646 1.427 1_556 S
C643 H633 0.929 . S
C643 C641 1.433 1_554 S
C643 N646 1.384 . S
C644 H635 0.929 . S
C644 C636 1.378 . S
C644 C639 1.350 . S
C645 H632 0.929 . S
C645 C637 1.433 1_556 S
C645 N647 1.384 . S
N646 C642 1.427 1_554 S
N646 C643 1.384 . S
N647 C639 1.427 1_556 S
N647 C645 1.384 . S
H648 C654 0.930 . S
H649 C658 0.930 . S
H650 C663 0.929 . S
H651 C661 0.929 . S
H652 C656 0.929 . S
H653 C662 0.929 . S
C654 H648 0.930 . S
C654 C655 1.367 . S
C654 C662 1.378 . S
C655 C654 1.367 . S
C655 C663 1.433 1_556 S
C656 H652 0.929 . S
C656 C658 1.378 . S
C656 C660 1.350 . S
C657 C660 1.463 1_656 S
C657 C662 1.350 . S
C657 N665 1.427 1_556 S
C658 H649 0.930 . S
C658 C656 1.378 . S
C658 C659 1.367 . S
C659 C658 1.367 . S
C659 C661 1.433 1_554 S
C660 C656 1.350 . S
C660 C657 1.463 1_454 S
C660 N664 1.427 1_554 S
C661 H651 0.929 . S
C661 C659 1.433 1_556 S
C661 N664 1.384 . S
C662 H653 0.929 . S
C662 C654 1.378 . S
C662 C657 1.350 . S
C663 H650 0.929 . S
C663 C655 1.433 1_554 S
C663 N665 1.384 . S
N664 C660 1.427 1_556 S
N664 C661 1.384 . S
N665 C657 1.427 1_554 S
N665 C663 1.384 . S
H666 C672 0.930 . S
H667 C676 0.930 . S
H668 C681 0.929 . S
H669 C679 0.929 . S
H670 C674 0.929 . S
H671 C680 0.929 . S
C672 H666 0.930 . S
C672 C673 1.367 . S
C672 C680 1.378 . S
C673 C672 1.367 . S
C673 C681 1.433 . S
C674 H670 0.929 . S
C674 C676 1.378 . S
C674 C678 1.350 . S
C675 C678 1.463 . S
C675 C680 1.350 . S
C675 N683 1.427 . S
C676 H667 0.930 . S
C676 C674 1.378 . S
C676 C677 1.367 . S
C677 C676 1.367 . S
C677 C679 1.433 . S
C678 C674 1.350 . S
C678 C675 1.463 . S
C678 N682 1.427 . S
C679 H669 0.929 . S
C679 C677 1.433 . S
C679 N682 1.384 . S
C680 H671 0.929 . S
C680 C672 1.378 . S
C680 C675 1.350 . S
C681 H668 0.929 . S
C681 C673 1.433 . S
C681 N683 1.384 . S
N682 C678 1.427 . S
N682 C679 1.384 . S
N683 C675 1.427 . S
N683 C681 1.384 . S
H684 C690 0.930 . S
H685 C694 0.930 . S
H686 C699 0.929 . S
H687 C697 0.929 . S
H688 C692 0.929 . S
H689 C698 0.929 . S
C690 H684 0.930 . S
C690 C691 1.367 . S
C690 C698 1.378 . S
C691 C690 1.367 . S
C691 C699 1.433 . S
C692 H688 0.929 . S
C692 C694 1.378 . S
C692 C696 1.350 . S
C693 C696 1.463 . S
C693 C698 1.350 . S
C693 N701 1.427 . S
C694 H685 0.930 . S
C694 C692 1.378 . S
C694 C695 1.367 . S
C695 C694 1.367 . S
C695 C697 1.433 . S
C696 C692 1.350 . S
C696 C693 1.463 . S
C696 N700 1.427 . S
C697 H687 0.929 . S
C697 C695 1.433 . S
C697 N700 1.384 . S
C698 H689 0.929 . S
C698 C690 1.378 . S
C698 C693 1.350 . S
C699 H686 0.929 . S
C699 C691 1.433 . S
C699 N701 1.384 . S
N700 C696 1.427 . S
N700 C697 1.384 . S
N701 C693 1.427 . S
N701 C699 1.384 . S
H702 C708 0.930 . S
H703 C712 0.930 . S
H704 C717 0.929 . S
H705 C715 0.929 . S
H706 C710 0.929 . S
H707 C716 0.929 . S
C708 H702 0.930 . S
C708 C709 1.367 . S
C708 C716 1.378 . S
C709 C708 1.367 . S
C709 C717 1.433 . S
C710 H706 0.929 . S
C710 C712 1.378 . S
C710 C714 1.350 . S
C711 C714 1.463 . S
C711 C716 1.350 . S
C711 N719 1.427 . S
C712 H703 0.930 . S
C712 C710 1.378 . S
C712 C713 1.367 . S
C713 C712 1.367 . S
C713 C715 1.433 . S
C714 C710 1.350 . S
C714 C711 1.463 . S
C714 N718 1.427 . S
C715 H705 0.929 . S
C715 C713 1.433 . S
C715 N718 1.384 . S
C716 H707 0.929 . S
C716 C708 1.378 . S
C716 C711 1.350 . S
C717 H704 0.929 . S
C717 C709 1.433 . S
C717 N719 1.384 . S
N718 C714 1.427 . S
N718 C715 1.384 . S
N719 C711 1.427 . S
N719 C717 1.384 . S
H720 C726 0.930 . S
H721 C730 0.930 . S
H722 C735 0.929 . S
H723 C733 0.929 . S
H724 C728 0.929 . S
H725 C734 0.929 . S
C726 H720 0.930 . S
C726 C727 1.367 . S
C726 C734 1.378 . S
C727 C726 1.367 . S
C727 C735 1.433 . S
C728 H724 0.929 . S
C728 C730 1.378 . S
C728 C732 1.350 . S
C729 C732 1.463 . S
C729 C734 1.350 . S
C729 N737 1.427 . S
C730 H721 0.930 . S
C730 C728 1.378 . S
C730 C731 1.367 . S
C731 C730 1.367 . S
C731 C733 1.433 . S
C732 C728 1.350 . S
C732 C729 1.463 . S
C732 N736 1.427 . S
C733 H723 0.929 . S
C733 C731 1.433 . S
C733 N736 1.384 . S
C734 H725 0.929 . S
C734 C726 1.378 . S
C734 C729 1.350 . S
C735 H722 0.929 . S
C735 C727 1.433 . S
C735 N737 1.384 . S
N736 C732 1.427 . S
N736 C733 1.384 . S
N737 C729 1.427 . S
N737 C735 1.384 . S
H738 C744 0.930 . S
H739 C748 0.930 . S
H740 C753 0.929 . S
H741 C751 0.929 . S
H742 C746 0.929 . S
H743 C752 0.929 . S
C744 H738 0.930 . S
C744 C745 1.367 . S
C744 C752 1.378 . S
C745 C744 1.367 . S
C745 C753 1.433 . S
C746 H742 0.929 . S
C746 C748 1.378 . S
C746 C750 1.350 . S
C747 C750 1.463 . S
C747 C752 1.350 . S
C747 N755 1.427 . S
C748 H739 0.930 . S
C748 C746 1.378 . S
C748 C749 1.367 . S
C749 C748 1.367 . S
C749 C751 1.433 . S
C750 C746 1.350 . S
C750 C747 1.463 . S
C750 N754 1.427 . S
C751 H741 0.929 . S
C751 C749 1.433 . S
C751 N754 1.384 . S
C752 H743 0.929 . S
C752 C744 1.378 . S
C752 C747 1.350 . S
C753 H740 0.929 . S
C753 C745 1.433 . S
C753 N755 1.384 . S
N754 C750 1.427 . S
N754 C751 1.384 . S
N755 C747 1.427 . S
N755 C753 1.384 . S
H756 C762 0.930 . S
H757 C766 0.930 . S
H758 C771 0.929 . S
H759 C769 0.929 . S
H760 C764 0.929 . S
H761 C770 0.929 . S
C762 H756 0.930 . S
C762 C763 1.367 . S
C762 C770 1.378 . S
C763 C762 1.367 . S
C763 C771 1.433 . S
C764 H760 0.929 . S
C764 C766 1.378 . S
C764 C768 1.350 . S
C765 C768 1.463 . S
C765 C770 1.350 . S
C765 N773 1.427 . S
C766 H757 0.930 . S
C766 C764 1.378 . S
C766 C767 1.367 . S
C767 C766 1.367 . S
C767 C769 1.433 . S
C768 C764 1.350 . S
C768 C765 1.463 . S
C768 N772 1.427 . S
C769 H759 0.929 . S
C769 C767 1.433 . S
C769 N772 1.384 . S
C770 H761 0.929 . S
C770 C762 1.378 . S
C770 C765 1.350 . S
C771 H758 0.929 . S
C771 C763 1.433 . S
C771 N773 1.384 . S
N772 C768 1.427 . S
N772 C769 1.384 . S
N773 C765 1.427 . S
N773 C771 1.384 . S
H774 C780 0.930 . S
H775 C784 0.930 . S
H776 C789 0.929 . S
H777 C787 0.929 . S
H778 C782 0.929 . S
H779 C788 0.929 . S
C780 H774 0.930 . S
C780 C781 1.367 . S
C780 C788 1.378 . S
C781 C780 1.367 . S
C781 C789 1.433 . S
C782 H778 0.929 . S
C782 C784 1.378 . S
C782 C786 1.350 . S
C783 C786 1.463 . S
C783 C788 1.350 . S
C783 N791 1.427 . S
C784 H775 0.930 . S
C784 C782 1.378 . S
C784 C785 1.367 . S
C785 C784 1.367 . S
C785 C787 1.433 . S
C786 C782 1.350 . S
C786 C783 1.463 . S
C786 N790 1.427 . S
C787 H777 0.929 . S
C787 C785 1.433 . S
C787 N790 1.384 . S
C788 H779 0.929 . S
C788 C780 1.378 . S
C788 C783 1.350 . S
C789 H776 0.929 . S
C789 C781 1.433 . S
C789 N791 1.384 . S
N790 C786 1.427 . S
N790 C787 1.384 . S
N791 C783 1.427 . S
N791 C789 1.384 . S
H792 C798 0.930 . S
H793 C802 0.930 . S
H794 C807 0.929 . S
H795 C805 0.929 . S
H796 C800 0.929 . S
H797 C806 0.929 . S
C798 H792 0.930 . S
C798 C799 1.367 . S
C798 C806 1.378 . S
C799 C798 1.367 . S
C799 C807 1.433 . S
C800 H796 0.929 . S
C800 C802 1.378 . S
C800 C804 1.350 . S
C801 C804 1.463 . S
C801 C806 1.350 . S
C801 N809 1.427 . S
C802 H793 0.930 . S
C802 C800 1.378 . S
C802 C803 1.367 . S
C803 C802 1.367 . S
C803 C805 1.433 . S
C804 C800 1.350 . S
C804 C801 1.463 . S
C804 N808 1.427 . S
C805 H795 0.929 . S
C805 C803 1.433 . S
C805 N808 1.384 . S
C806 H797 0.929 . S
C806 C798 1.378 . S
C806 C801 1.350 . S
C807 H794 0.929 . S
C807 C799 1.433 . S
C807 N809 1.384 . S
N808 C804 1.427 . S
N808 C805 1.384 . S
N809 C801 1.427 . S
N809 C807 1.384 . S
H810 C816 0.930 . S
H811 C820 0.930 . S
H812 C825 0.929 . S
H813 C823 0.929 . S
H814 C818 0.929 . S
H815 C824 0.929 . S
C816 H810 0.930 . S
C816 C817 1.367 . S
C816 C824 1.378 . S
C817 C816 1.367 . S
C817 C825 1.433 . S
C818 H814 0.929 . S
C818 C820 1.378 . S
C818 C822 1.350 . S
C819 C822 1.463 . S
C819 C824 1.350 . S
C819 N827 1.427 . S
C820 H811 0.930 . S
C820 C818 1.378 . S
C820 C821 1.367 . S
C821 C820 1.367 . S
C821 C823 1.433 . S
C822 C818 1.350 . S
C822 C819 1.463 . S
C822 N826 1.427 . S
C823 H813 0.929 . S
C823 C821 1.433 . S
C823 N826 1.384 . S
C824 H815 0.929 . S
C824 C816 1.378 . S
C824 C819 1.350 . S
C825 H812 0.929 . S
C825 C817 1.433 . S
C825 N827 1.384 . S
N826 C822 1.427 . S
N826 C823 1.384 . S
N827 C819 1.427 . S
N827 C825 1.384 . S
H828 C834 0.930 . S
H829 C838 0.930 . S
H830 C843 0.929 . S
H831 C841 0.929 . S
H832 C836 0.929 . S
H833 C842 0.929 . S
C834 H828 0.930 . S
C834 C835 1.367 . S
C834 C842 1.378 . S
C835 C834 1.367 . S
C835 C843 1.433 . S
C836 H832 0.929 . S
C836 C838 1.378 . S
C836 C840 1.350 . S
C837 C840 1.463 . S
C837 C842 1.350 . S
C837 N845 1.427 . S
C838 H829 0.930 . S
C838 C836 1.378 . S
C838 C839 1.367 . S
C839 C838 1.367 . S
C839 C841 1.433 . S
C840 C836 1.350 . S
C840 C837 1.463 . S
C840 N844 1.427 . S
C841 H831 0.929 . S
C841 C839 1.433 . S
C841 N844 1.384 . S
C842 H833 0.929 . S
C842 C834 1.378 . S
C842 C837 1.350 . S
C843 H830 0.929 . S
C843 C835 1.433 . S
C843 N845 1.384 . S
N844 C840 1.427 . S
N844 C841 1.384 . S
N845 C837 1.427 . S
N845 C843 1.384 . S
H846 C852 0.930 . S
H847 C856 0.930 . S
H848 C861 0.929 . S
H849 C859 0.929 . S
H850 C854 0.929 . S
H851 C860 0.929 . S
C852 H846 0.930 . S
C852 C853 1.367 . S
C852 C860 1.378 . S
C853 C852 1.367 . S
C853 C861 1.433 . S
C854 H850 0.929 . S
C854 C856 1.378 . S
C854 C858 1.350 . S
C855 C858 1.463 . S
C855 C860 1.350 . S
C855 N863 1.427 . S
C856 H847 0.930 . S
C856 C854 1.378 . S
C856 C857 1.367 . S
C857 C856 1.367 . S
C857 C859 1.433 . S
C858 C854 1.350 . S
C858 C855 1.463 . S
C858 N862 1.427 . S
C859 H849 0.929 . S
C859 C857 1.433 . S
C859 N862 1.384 . S
C860 H851 0.929 . S
C860 C852 1.378 . S
C860 C855 1.350 . S
C861 H848 0.929 . S
C861 C853 1.433 . S
C861 N863 1.384 . S
N862 C858 1.427 . S
N862 C859 1.384 . S
N863 C855 1.427 . S
N863 C861 1.384 . S
H864 C870 0.930 . S
H865 C874 0.930 . S
H866 C879 0.929 . S
H867 C877 0.929 . S
H868 C872 0.929 . S
H869 C878 0.929 . S
C870 H864 0.930 . S
C870 C871 1.367 . S
C870 C878 1.378 . S
C871 C870 1.367 . S
C871 C879 1.433 . S
C872 H868 0.929 . S
C872 C874 1.378 . S
C872 C876 1.350 . S
C873 C876 1.463 . S
C873 C878 1.350 . S
C873 N881 1.427 . S
C874 H865 0.930 . S
C874 C872 1.378 . S
C874 C875 1.367 . S
C875 C874 1.367 . S
C875 C877 1.433 . S
C876 C872 1.350 . S
C876 C873 1.463 . S
C876 N880 1.427 . S
C877 H867 0.929 . S
C877 C875 1.433 . S
C877 N880 1.384 . S
C878 H869 0.929 . S
C878 C870 1.378 . S
C878 C873 1.350 . S
C879 H866 0.929 . S
C879 C871 1.433 . S
C879 N881 1.384 . S
N880 C876 1.427 . S
N880 C877 1.384 . S
N881 C873 1.427 . S
N881 C879 1.384 . S
C241 C221 1.822 . S
C245 C0 1.827 . S
C259 C195 1.828 . S
C263 C13 1.822 . S
C277 C208 1.829 . S
C281 C26 1.821 . S
C295 C91 1.821 . S
C299 C39 1.829 . S
C313 C104 1.823 . S
C317 C52 1.828 . S
C331 C65 1.821 . S
C335 C78 1.829 . S
C349 C117 1.826 . S
C353 C169 1.823 . S
C367 C130 1.825 . S
C371 C182 1.825 . S
C385 C143 1.827 . S
C389 C156 1.822 . S
C403 C5 0.868 . S
C407 C226 0.867 . S
C421 C200 0.857 . S
C425 C18 0.865 . S
C439 C31 0.867 . S
C443 C213 0.868 . S
C457 C96 0.850 . S
C461 C44 0.855 . S
C475 C57 0.849 . S
C479 C109 0.851 . S
C493 C70 0.867 . S
C497 C83 0.861 . S
C511 C122 0.866 . S
C515 C174 0.859 . S
C529 C187 0.868 . S
C533 C135 0.866 . S
C547 C161 0.849 . S
C551 C148 0.851 . S
C565 C10 1.470 . S
C569 C49 1.466 . S
C583 C62 1.465 . S
C587 C23 1.470 . S
C601 C75 1.466 . S
C605 C36 1.470 . S
C619 C73 1.430 . S
C623 C21 1.433 . S
C637 C34 1.431 . S
C641 C47 1.433 . S
C655 C60 1.433 . S
C659 C8 1.430 . S
C673 C88 1.470 . S
C677 C127 1.468 . S
C691 C140 1.469 . S
C695 C101 1.463 . S
C709 C153 1.467 . S
C713 C114 1.462 . S
C727 C151 1.428 . S
C731 C99 1.432 . S
C745 C112 1.430 . S
C749 C125 1.433 . S
C763 C138 1.417 . S
C767 C86 1.422 . S
C781 C205 1.469 . S
C785 C166 1.464 . S
C799 C218 1.466 . S
C803 C179 1.462 . S
C817 C192 1.467 . S
C821 C231 1.463 . S
C835 C229 1.416 . S
C839 C177 1.418 . S
C853 C190 1.419 . S
C857 C203 1.424 . S
C871 C216 1.416 . S
C875 C164 1.416 . S
