# Generated by pormake.
# Topology xfh, (7)-cn, num edge types: 1
# Building blocks:
#     Node 0, Type 0, BuildingBlock: HICVOG_clean_sbu_0, # of connection points: 7
#     Node 1, Type 0, BuildingBlock: HICVOG_clean_sbu_0, # of connection points: 7
#     Node 2, Type 0, BuildingBlock: HICVOG_clean_sbu_0, # of connection points: 7
#     Node 3, Type 0, BuildingBlock: HICVOG_clean_sbu_0, # of connection points: 7
#     Node 4, Type 0, BuildingBlock: HICVOG_clean_sbu_0, # of connection points: 7
#     Node 5, Type 0, BuildingBlock: HICVOG_clean_sbu_0, # of connection points: 7
#     Node 6, Type 0, BuildingBlock: HICVOG_clean_sbu_0, # of connection points: 7
#     Node 7, Type 0, BuildingBlock: HICVOG_clean_sbu_0, # of connection points: 7
#     Node 8, Type 0, BuildingBlock: HICVOG_clean_sbu_0, # of connection points: 7
#     Node 9, Type 0, BuildingBlock: HICVOG_clean_sbu_0, # of connection points: 7
#     Node 10, Type 0, BuildingBlock: HICVOG_clean_sbu_0, # of connection points: 7
#     Node 11, Type 0, BuildingBlock: HICVOG_clean_sbu_0, # of connection points: 7
#     Node 12, Type 0, BuildingBlock: HICVOG_clean_sbu_0, # of connection points: 7
#     Node 13, Type 0, BuildingBlock: HICVOG_clean_sbu_0, # of connection points: 7
#     Node 14, Type 0, BuildingBlock: HICVOG_clean_sbu_0, # of connection points: 7
#     Node 15, Type 0, BuildingBlock: HICVOG_clean_sbu_0, # of connection points: 7
#     Edge 16, Type (0, 0), BuildingBlock: OJICUG_clean_linker_0, # of connection points: 2
#     Edge 17, Type (0, 0), BuildingBlock: OJICUG_clean_linker_0, # of connection points: 2
#     Edge 18, Type (0, 0), BuildingBlock: OJICUG_clean_linker_0, # of connection points: 2
#     Edge 19, Type (0, 0), BuildingBlock: OJICUG_clean_linker_0, # of connection points: 2
#     Edge 20, Type (0, 0), BuildingBlock: OJICUG_clean_linker_0, # of connection points: 2
#     Edge 21, Type (0, 0), BuildingBlock: OJICUG_clean_linker_0, # of connection points: 2
#     Edge 22, Type (0, 0), BuildingBlock: OJICUG_clean_linker_0, # of connection points: 2
#     Edge 23, Type (0, 0), BuildingBlock: OJICUG_clean_linker_0, # of connection points: 2
#     Edge 24, Type (0, 0), BuildingBlock: OJICUG_clean_linker_0, # of connection points: 2
#     Edge 25, Type (0, 0), BuildingBlock: OJICUG_clean_linker_0, # of connection points: 2
#     Edge 26, Type (0, 0), BuildingBlock: OJICUG_clean_linker_0, # of connection points: 2
#     Edge 27, Type (0, 0), BuildingBlock: OJICUG_clean_linker_0, # of connection points: 2
#     Edge 28, Type (0, 0), BuildingBlock: OJICUG_clean_linker_0, # of connection points: 2
#     Edge 29, Type (0, 0), BuildingBlock: OJICUG_clean_linker_0, # of connection points: 2
#     Edge 30, Type (0, 0), BuildingBlock: OJICUG_clean_linker_0, # of connection points: 2
#     Edge 31, Type (0, 0), BuildingBlock: OJICUG_clean_linker_0, # of connection points: 2
#     Edge 32, Type (0, 0), BuildingBlock: OJICUG_clean_linker_0, # of connection points: 2
#     Edge 33, Type (0, 0), BuildingBlock: OJICUG_clean_linker_0, # of connection points: 2
#     Edge 34, Type (0, 0), BuildingBlock: OJICUG_clean_linker_0, # of connection points: 2
#     Edge 35, Type (0, 0), BuildingBlock: OJICUG_clean_linker_0, # of connection points: 2
#     Edge 36, Type (0, 0), BuildingBlock: OJICUG_clean_linker_0, # of connection points: 2
#     Edge 37, Type (0, 0), BuildingBlock: OJICUG_clean_linker_0, # of connection points: 2
#     Edge 38, Type (0, 0), BuildingBlock: OJICUG_clean_linker_0, # of connection points: 2
#     Edge 39, Type (0, 0), BuildingBlock: OJICUG_clean_linker_0, # of connection points: 2
#     Edge 40, Type (0, 0), BuildingBlock: OJICUG_clean_linker_0, # of connection points: 2
#     Edge 41, Type (0, 0), BuildingBlock: OJICUG_clean_linker_0, # of connection points: 2
#     Edge 42, Type (0, 0), BuildingBlock: OJICUG_clean_linker_0, # of connection points: 2
#     Edge 43, Type (0, 0), BuildingBlock: OJICUG_clean_linker_0, # of connection points: 2
#     Edge 44, Type (0, 0), BuildingBlock: OJICUG_clean_linker_0, # of connection points: 2
#     Edge 45, Type (0, 0), BuildingBlock: OJICUG_clean_linker_0, # of connection points: 2
#     Edge 46, Type (0, 0), BuildingBlock: OJICUG_clean_linker_0, # of connection points: 2
#     Edge 47, Type (0, 0), BuildingBlock: OJICUG_clean_linker_0, # of connection points: 2
#     Edge 48, Type (0, 0), BuildingBlock: OJICUG_clean_linker_0, # of connection points: 2
#     Edge 49, Type (0, 0), BuildingBlock: OJICUG_clean_linker_0, # of connection points: 2
#     Edge 50, Type (0, 0), BuildingBlock: OJICUG_clean_linker_0, # of connection points: 2
#     Edge 51, Type (0, 0), BuildingBlock: OJICUG_clean_linker_0, # of connection points: 2
#     Edge 52, Type (0, 0), BuildingBlock: OJICUG_clean_linker_0, # of connection points: 2
#     Edge 53, Type (0, 0), BuildingBlock: OJICUG_clean_linker_0, # of connection points: 2
#     Edge 54, Type (0, 0), BuildingBlock: OJICUG_clean_linker_0, # of connection points: 2
#     Edge 55, Type (0, 0), BuildingBlock: OJICUG_clean_linker_0, # of connection points: 2
#     Edge 56, Type (0, 0), BuildingBlock: OJICUG_clean_linker_0, # of connection points: 2
#     Edge 57, Type (0, 0), BuildingBlock: OJICUG_clean_linker_0, # of connection points: 2
#     Edge 58, Type (0, 0), BuildingBlock: OJICUG_clean_linker_0, # of connection points: 2
#     Edge 59, Type (0, 0), BuildingBlock: OJICUG_clean_linker_0, # of connection points: 2
#     Edge 60, Type (0, 0), BuildingBlock: OJICUG_clean_linker_0, # of connection points: 2
#     Edge 61, Type (0, 0), BuildingBlock: OJICUG_clean_linker_0, # of connection points: 2
#     Edge 62, Type (0, 0), BuildingBlock: OJICUG_clean_linker_0, # of connection points: 2
#     Edge 63, Type (0, 0), BuildingBlock: OJICUG_clean_linker_0, # of connection points: 2
#     Edge 64, Type (0, 0), BuildingBlock: OJICUG_clean_linker_0, # of connection points: 2
#     Edge 65, Type (0, 0), BuildingBlock: OJICUG_clean_linker_0, # of connection points: 2
#     Edge 66, Type (0, 0), BuildingBlock: OJICUG_clean_linker_0, # of connection points: 2
#     Edge 67, Type (0, 0), BuildingBlock: OJICUG_clean_linker_0, # of connection points: 2
#     Edge 68, Type (0, 0), BuildingBlock: OJICUG_clean_linker_0, # of connection points: 2
#     Edge 69, Type (0, 0), BuildingBlock: OJICUG_clean_linker_0, # of connection points: 2
#     Edge 70, Type (0, 0), BuildingBlock: OJICUG_clean_linker_0, # of connection points: 2
#     Edge 71, Type (0, 0), BuildingBlock: OJICUG_clean_linker_0, # of connection points: 2
# Relax obj value: 0.256
# Max RMSD: 0.230
# Mean RMSD: 0.230
data_MOF--net-xfh--node1-HICVOG_clean_sbu_0--edge1-OJICUG_clean_linker_0
_symmetry_space_group_name_H-M    P1
_symmetry_Int_Tables_number       1
_symmetry_cell_setting            triclinic
loop_
_symmetry_equiv_pos_as_xyz
'x, y, z'
_cell_length_a     21.229834
_cell_length_b     21.562393
_cell_length_c     52.125575
_cell_angle_alpha  90.059616
_cell_angle_beta   90.152131
_cell_angle_gamma 90.240551
loop_
_atom_site_label
_atom_site_type_symbol
_atom_site_fract_x
_atom_site_fract_y
_atom_site_fract_z
_atom_type_partial_charge
Zn0 Zn 0.43884 0.13707 0.07819 0.0
C1 C 0.55057 0.17961 0.02044 0.0
N2 N 0.59528 0.18374 0.03886 0.0
C3 C 0.56326 0.17724 0.06076 0.0
N4 N 0.50197 0.16942 0.05626 0.0
N5 N 0.49195 0.17475 0.03147 0.0
C6 C 0.33746 0.26727 -0.01116 0.0
O7 O 0.29418 0.2703 0.00676 0.0
O8 O 0.47437 0.11374 0.11233 0.0
Zn9 Zn 0.41308 0.22717 0.03103 0.0
N10 N 0.40347 1.06437 0.06151 0.0
C11 C 0.36109 1.00922 0.02564 0.0
C12 C 0.39109 1.06148 0.03587 0.0
C13 C 0.38784 1.01676 0.07713 0.0
N14 N 0.34425 0.96203 0.04146 0.0
C15 C 0.35755 0.96446 0.06696 0.0
O16 O 0.33266 0.18375 0.04685 0.0
C17 C 0.32239 0.18497 0.07099 0.0
O18 O 0.36855 0.19585 0.08569 0.0
H19 H 0.40223 0.09994 0.02348 0.0
H20 H 0.39683 1.02077 0.09751 0.0
C21 C 0.3855 0.33518 0.06585 0.0
C22 C 0.40471 0.38662 0.08104 0.0
C23 C 0.50865 0.37519 0.06495 0.0
C24 C 0.48967 0.32461 0.05023 0.0
N25 N 0.42907 0.30431 0.05119 0.0
N26 N 0.4662 0.40451 0.08006 0.0
H27 H 0.33711 0.31931 0.06618 0.0
C28 C 0.48423 0.15682 0.1285 0.0
O29 O 0.47377 0.21457 0.12173 0.0
O30 O 0.39292 0.25058 -0.00519 0.0
H31 H 0.52343 0.30125 0.0382 0.0
H32 H 0.35023 1.00671 0.00538 0.0
H33 H 0.55696 0.39103 0.06431 0.0
Zn34 Zn 0.72405 0.6604 0.27871 0.0
C35 C 0.77516 0.80835 0.30797 0.0
N36 N 0.7675 0.83933 0.28596 0.0
C37 C 0.77162 0.79495 0.26774 0.0
N38 N 0.77754 0.73774 0.27902 0.0
N39 N 0.78384 0.74806 0.30369 0.0
C40 C 0.81728 0.73271 0.37629 0.0
O41 O 0.75573 0.72827 0.37426 0.0
O42 O 0.70313 0.64263 0.24215 0.0
Zn43 Zn 0.81761 0.68552 0.32474 0.0
N44 N 0.64537 0.67642 0.29829 0.0
C45 C 0.57366 0.75418 0.31218 0.0
C46 C 0.62475 0.73594 0.29734 0.0
C47 C 0.61441 0.6333 0.31305 0.0
N48 N 0.54423 0.71208 0.32737 0.0
C49 C 0.5625 0.65171 0.32832 0.0
O50 O 0.75771 0.61734 0.33414 0.0
C51 C 0.76628 0.57134 0.31947 0.0
O52 O 0.76633 0.58095 0.29523 0.0
H53 H 0.64836 0.76945 0.28532 0.0
H54 H 0.63072 0.58585 0.31345 0.0
C55 C 0.93505 0.63155 0.32306 0.0
C56 C 0.98774 0.60088 0.31351 0.0
C57 C 0.94384 0.6043 0.27182 0.0
C58 C 0.89126 0.6354 0.28149 0.0
N59 N 0.88802 0.64821 0.30705 0.0
N60 N 0.99085 0.58716 0.28808 0.0
H61 H 0.93035 0.64024 0.34339 0.0
C62 C 0.6835 0.58995 0.23468 0.0
O63 O 0.67407 0.54593 0.25167 0.0
O64 O 0.85149 0.72023 0.35713 0.0
H65 H 0.85288 0.64722 0.26883 0.0
H66 H 0.55761 0.80167 0.31163 0.0
H67 H 0.9468 0.5931 0.25163 0.0
Zn68 Zn 0.26587 1.04714 0.57602 0.0
C69 C 0.14977 1.0177 0.51859 0.0
N70 N 0.10476 1.01833 0.53687 0.0
C71 C 0.13729 1.01921 0.55894 0.0
N72 N 0.1991 1.02036 0.55466 0.0
N73 N 0.20849 1.01656 0.52983 0.0
C74 C 0.35477 0.92566 0.48306 0.0
O75 O 0.39846 0.91152 0.49995 0.0
O76 O 0.23583 1.07722 0.61001 0.0
Zn77 Zn 0.2868 0.96426 0.52759 0.0
N78 N 0.30554 0.11723 0.55948 0.0
C79 C 0.34429 0.18154 0.52582 0.0
C80 C 0.31222 0.12822 0.53391 0.0
C81 C 0.33082 0.156 0.57697 0.0
N82 N 0.3679 0.22164 0.54361 0.0
C83 C 0.36124 0.21015 0.56912 0.0
O84 O 0.36885 1.00357 0.54442 0.0
C85 C 0.38007 0.9991 0.56849 0.0
O86 O 0.3342 0.98569 0.58297 0.0
H87 H 0.29476 0.09549 0.51993 0.0
H88 H 0.32802 0.14364 0.59702 0.0
C89 C 0.31277 0.85173 0.56001 0.0
C90 C 0.29263 0.79829 0.57359 0.0
C91 C 0.19046 0.81041 0.55574 0.0
C92 C 0.20997 0.86354 0.54282 0.0
N93 N 0.27025 0.88415 0.54534 0.0
N94 N 0.23178 0.77966 0.57089 0.0
H95 H 0.36094 0.86782 0.56161 0.0
C96 C 0.22638 1.04174 0.629 0.0
O97 O 0.2289 0.98134 0.62587 0.0
O98 O 0.30294 0.94799 0.49072 0.0
H99 H 0.17695 0.88867 0.53097 0.0
H100 H 0.35035 0.19092 0.5056 0.0
H101 H 0.1427 0.79366 0.55384 0.0
Zn102 Zn 0.88538 0.48042 0.83167 0.0
C103 C 0.93659 0.39475 0.76965 0.0
N104 N 0.95051 0.34806 0.78595 0.0
C105 C 0.94735 0.37395 0.80929 0.0
N106 N 0.93198 0.4337 0.80758 0.0
N107 N 0.92769 0.4487 0.78319 0.0
C108 C 1.0021 0.60542 0.73797 0.0
O109 O 1.01321 0.64953 0.75482 0.0
O110 O 0.87737 0.439 0.86565 0.0
Zn111 Zn 0.96853 0.53211 0.78252 0.0
N112 N 0.8015 0.48681 0.81774 0.0
C113 C 0.71771 0.44953 0.79133 0.0
C114 C 0.77996 0.44607 0.79977 0.0
C115 C 0.76315 0.53049 0.82776 0.0
N116 N 0.67871 0.492 0.80198 0.0
C117 C 0.69999 0.53282 0.81997 0.0
O118 O 0.91719 0.6037 0.79984 0.0
C119 C 0.91235 0.61171 0.82409 0.0
O120 O 0.9188 0.56608 0.8392 0.0
H121 H 0.8102 0.41031 0.79243 0.0
H122 H 0.78091 0.56036 0.84287 0.0
C123 C 1.07731 0.56958 0.81714 0.0
C124 C 0.13381 0.55531 0.83056 0.0
C125 C 0.1348 0.45677 0.81019 0.0
C126 C 1.0798 0.47098 0.797 0.0
N127 N 1.05088 0.52621 0.80094 0.0
N128 N 0.16026 0.49876 0.82664 0.0
H129 H 1.05442 0.6138 0.81995 0.0
C130 C 0.92107 0.44358 0.8822 0.0
O131 O 0.97432 0.47067 0.87581 0.0
O132 O 0.98362 0.55261 0.7457 0.0
H133 H 1.05966 0.43756 0.78386 0.0
H134 H 0.69999 0.41734 0.77708 0.0
H135 H 0.15703 0.41245 0.80728 0.0
Zn136 Zn 0.7727 1.0552 0.88326 0.0
C137 C 0.65085 1.02225 0.93897 0.0
N138 N 0.60732 1.02575 0.9201 0.0
C139 C 0.64139 1.03315 0.89878 0.0
N140 N 0.70298 1.03319 0.90397 0.0
N141 N 0.71052 1.02348 0.92867 0.0
C142 C 0.85107 0.91858 0.97317 0.0
O143 O 0.89567 0.90843 0.95626 0.0
O144 O 0.74524 1.08385 0.84916 0.0
Zn145 Zn 0.78554 0.96596 0.92947 0.0
N146 N 0.81472 0.12406 0.89976 0.0
C147 C 0.85546 0.185 0.93425 0.0
C148 C 0.82264 0.13265 0.92545 0.0
C149 C 0.83815 0.16511 0.88278 0.0
N150 N 0.8778 0.22706 0.91704 0.0
C151 C 0.86907 0.21836 0.89143 0.0
O152 O 0.87099 1.00429 0.91525 0.0
C153 C 0.88312 1.00011 0.89129 0.0
O154 O 0.83714 0.98982 0.8764 0.0
H155 H 0.80497 0.0989 0.93895 0.0
H156 H 0.83273 0.15603 0.86249 0.0
C157 C 0.8091 0.85719 0.89468 0.0
C158 C 0.78795 0.8114 0.87706 0.0
C159 C 0.68236 0.83491 0.88822 0.0
C160 C 0.70327 0.87972 0.90551 0.0
N161 N 0.76585 0.8918 0.90799 0.0
N162 N 0.72489 0.80254 0.87435 0.0
H163 H 0.8589 0.86643 0.89707 0.0
C164 C 0.72146 1.05085 0.83149 0.0
O165 O 0.71096 0.99152 0.83543 0.0
O166 O 0.79894 0.94086 0.96572 0.0
H167 H 0.66962 0.90563 0.91658 0.0
H168 H 0.86272 0.19232 0.95458 0.0
H169 H 0.63261 0.82579 0.88574 0.0
Zn170 Zn 0.4731 0.52637 0.67243 0.0
C171 C 0.4502 0.36682 0.64973 0.0
N172 N 0.45437 0.34389 0.67356 0.0
C173 C 0.43833 0.39163 0.68896 0.0
N174 N 0.4288 0.44397 0.67438 0.0
N175 N 0.43369 0.42647 0.65026 0.0
C176 C 0.42216 0.43703 0.5746 0.0
O177 O 0.47305 0.46808 0.58124 0.0
O178 O 0.49392 0.55502 0.70778 0.0
Zn179 Zn 0.38648 0.47007 0.62504 0.0
N180 N 0.55365 0.51542 0.6534 0.0
C181 C 0.63542 0.44364 0.64384 0.0
C182 C 0.5812 0.45938 0.65723 0.0
C183 C 0.58103 0.5582 0.63735 0.0
N184 N 0.66172 0.48523 0.62754 0.0
C185 C 0.63687 0.54262 0.62391 0.0
O186 O 0.41651 0.5563 0.61603 0.0
C187 C 0.4141 0.60357 0.63046 0.0
O188 O 0.42232 0.59784 0.65465 0.0
H189 H 0.56095 0.42674 0.67058 0.0
H190 H 0.55954 0.60321 0.63484 0.0
C191 C 0.26499 0.52072 0.6296 0.0
C192 C 0.20195 0.52274 0.63731 0.0
C193 C 0.21849 0.43538 0.66387 0.0
C194 C 0.28072 0.43235 0.65549 0.0
N195 N 0.30268 0.47522 0.63858 0.0
N196 N 0.18001 0.4797 0.65417 0.0
H197 H 0.28307 0.5524 0.61527 0.0
C198 C 0.44845 0.55527 0.72346 0.0
O199 O 0.39239 0.53763 0.7156 0.0
O200 O 0.37972 0.42718 0.59124 0.0
H201 H 0.31085 0.39569 0.66217 0.0
H202 H 0.6568 0.39874 0.64663 0.0
H203 H 0.20038 0.40157 0.67732 0.0
Zn204 Zn 0.91656 0.22594 0.42465 0.0
C205 C 1.0678 0.17454 0.39595 0.0
N206 N 1.09947 0.17948 0.41811 0.0
C207 C 1.05418 0.17614 0.43621 0.0
N208 N 0.99575 0.17297 0.4247 0.0
N209 N 1.00621 0.16808 0.39996 0.0
C210 C 0.98815 0.15593 0.32743 0.0
O211 O 0.97774 0.2137 0.33422 0.0
O212 O 0.89381 0.25201 0.46023 0.0
Zn213 Zn 0.94301 0.13619 0.37768 0.0
N214 N 0.93284 0.30245 0.40425 0.0
C215 C 1.01236 0.37307 0.39044 0.0
C216 C 0.99362 0.32231 0.40503 0.0
C217 C 0.88895 0.33385 0.38988 0.0
N218 N 0.96956 0.40291 0.37561 0.0
C219 C 0.90794 0.3854 0.3748 0.0
O220 O 0.87244 0.19476 0.37003 0.0
C221 C 0.82618 0.18393 0.38459 0.0
O222 O 0.83631 0.18269 0.40875 0.0
H223 H 1.02762 0.29861 0.41689 0.0
H224 H 0.8404 0.31843 0.38975 0.0
C225 C 0.8916 1.01606 0.37831 0.0
C226 C 0.8611 0.96378 0.38828 0.0
C227 C 0.8646 1.00818 0.42971 0.0
C228 C 0.89483 1.06039 0.41968 0.0
N229 N 0.90738 1.06345 0.39409 0.0
N230 N 0.84769 0.96118 0.41374 0.0
H231 H 0.90066 1.02024 0.35796 0.0
C232 C 0.90972 0.21747 0.47876 0.0
O233 O 0.93982 0.16577 0.47416 0.0
O234 O 0.97857 0.11291 0.34359 0.0
H235 H 0.90604 0.09867 0.43217 0.0
H236 H 1.06073 0.38876 0.39105 0.0
H237 H 0.85365 1.00557 0.44993 0.0
Zn238 Zn 0.3121 0.68645 0.13016 0.0
C239 C 0.27035 0.79688 0.18758 0.0
N240 N 0.26635 0.84117 0.16935 0.0
C241 C 0.27212 0.80989 0.14731 0.0
N242 N 0.27967 0.74941 0.15157 0.0
N243 N 0.27488 0.73943 0.17632 0.0
C244 C 0.18291 0.59241 0.22174 0.0
O245 O 0.17235 0.54851 0.20474 0.0
O246 O 0.33676 0.72107 0.09637 0.0
Zn247 Zn 0.22261 0.66138 0.17752 0.0
N248 N 0.38536 0.65217 0.14713 0.0
C249 C 0.44143 0.6103 0.18284 0.0
C250 C 0.38865 0.64026 0.17277 0.0
C251 C 0.43287 0.63586 0.13136 0.0
N252 N 0.48851 0.59278 0.16684 0.0
C253 C 0.48554 0.60548 0.14134 0.0
O254 O 0.2653 0.58157 0.16149 0.0
C255 C 0.26367 0.57104 0.13733 0.0
O256 O 0.25279 0.61625 0.12255 0.0
H257 H 0.34996 0.65151 0.18526 0.0
H258 H 0.42824 0.64414 0.11097 0.0
C259 C 0.11227 0.63245 0.1434 0.0
C260 C 1.06018 0.65042 0.12805 0.0
C261 C 1.07109 0.75321 0.14398 0.0
C262 C 0.1224 0.73544 0.15887 0.0
N263 N 0.14325 0.67598 0.15805 0.0
N264 N 1.04169 0.71074 0.12886 0.0
H265 H 0.12876 0.58507 0.14311 0.0
C266 C 0.29324 0.73183 0.08028 0.0
O267 O 0.23432 0.72239 0.08696 0.0
O268 O 0.20296 0.64484 0.21424 0.0
H269 H 0.14609 0.76928 0.17078 0.0
H270 H 0.44426 0.59984 0.2031 0.0
H271 H 1.05493 0.80067 0.1444 0.0
Zn272 Zn 0.9373 0.63345 0.57921 0.0
C273 C 1.05743 0.66689 0.52253 0.0
N274 N 1.10106 0.66241 0.54133 0.0
C275 C 1.06706 0.65709 0.56281 0.0
N276 N 1.0055 0.65868 0.55781 0.0
N277 N 0.99779 0.66754 0.53302 0.0
C278 C 0.9161 0.71636 0.47753 0.0
O279 O 0.94171 0.66238 0.48225 0.0
O280 O 0.96537 0.61363 0.61494 0.0
Zn281 Zn 0.92036 0.72289 0.53161 0.0
N282 N 0.90154 0.56063 0.56301 0.0
C283 C 0.8632 0.50359 0.52691 0.0
C284 C 0.89226 0.55629 0.53719 0.0
C285 C 0.88427 0.5139 0.57875 0.0
N286 N 0.84499 0.45706 0.54281 0.0
C287 C 0.8556 0.4609 0.56848 0.0
O288 O 0.83664 0.68129 0.54498 0.0
C289 C 0.82348 0.684 0.56883 0.0
O290 O 0.86819 0.6953 0.5842 0.0
H291 H 0.90563 0.59379 0.52467 0.0
H292 H 0.89161 0.51872 0.59922 0.0
C293 C 0.8926 0.8307 0.56658 0.0
C294 C 0.91215 0.87919 0.58327 0.0
C295 C 1.01829 0.85992 0.57148 0.0
C296 C 0.99888 0.81237 0.5552 0.0
N297 N 0.9369 0.79723 0.55337 0.0
N298 N 0.97487 0.8917 0.58519 0.0
H299 H 0.84323 0.81892 0.56468 0.0
C300 C 0.98296 0.65686 0.62993 0.0
O301 O 0.98477 0.71414 0.62136 0.0
O302 O 0.90266 0.75197 0.49602 0.0
H303 H 1.03322 0.78712 0.54418 0.0
H304 H 0.85472 0.49996 0.50649 0.0
H305 H 1.06767 0.87147 0.57318 0.0
Zn306 Zn 0.23234 0.15619 0.78435 0.0
C307 C 0.25291 0.31607 0.8067 0.0
N308 N 0.24954 0.33932 0.78292 0.0
C309 C 0.26662 0.2919 0.76753 0.0
N310 N 0.27608 0.2394 0.78205 0.0
N311 N 0.27052 0.25679 0.80616 0.0
C312 C 0.27834 0.2517 0.88194 0.0
O313 O 0.22655 0.22177 0.87557 0.0
O314 O 0.20962 0.12649 0.74908 0.0
Zn315 Zn 0.31607 0.21347 0.83194 0.0
N316 N 0.15228 0.1654 0.8042 0.0
C317 C 1.07057 0.23668 0.81428 0.0
C318 C 0.1243 0.22124 0.80057 0.0
C319 C 0.12548 0.12233 0.82036 0.0
N320 N 1.04489 0.19498 0.83071 0.0
C321 C 1.06994 0.13763 0.83417 0.0
O322 O 0.28396 0.12802 0.84083 0.0
C323 C 0.29027 1.08098 0.82647 0.0
O324 O 0.28506 1.08659 0.80214 0.0
H325 H 0.14388 0.254 0.7871 0.0
H326 H 0.14711 1.07733 0.82269 0.0
C327 C 0.43893 0.1636 0.82996 0.0
C328 C 0.50272 0.16221 0.82324 0.0
C329 C 0.48656 0.24571 0.7946 0.0
C330 C 0.42357 0.24829 0.802 0.0
N331 N 0.40099 0.20704 0.81945 0.0
N332 N 0.52513 0.20358 0.80578 0.0
H333 H 0.42036 0.13325 0.84468 0.0
C334 C 0.25079 0.13319 0.73174 0.0
O335 O 0.30565 0.15743 0.7377 0.0
O336 O 0.32157 0.2583 0.86538 0.0
H337 H 0.3934 0.28365 0.79425 0.0
H338 H 1.04918 0.28153 0.81163 0.0
H339 H 0.50512 0.27831 0.78075 0.0
Zn340 Zn 0.75961 0.55456 0.07768 0.0
C341 C 0.64778 0.51304 0.01962 0.0
N342 N 0.60286 0.50966 0.03789 0.0
C343 C 0.63483 0.51531 0.05992 0.0
N344 N 0.69628 0.52221 0.05566 0.0
N345 N 0.70641 0.5171 0.03088 0.0
C346 C 0.86146 0.42496 -0.01119 0.0
O347 O 0.90464 0.42182 0.00685 0.0
O348 O 0.72422 0.57833 0.11179 0.0
Zn349 Zn 0.78554 0.4648 0.03075 0.0
N350 N 0.79509 0.62674 0.06077 0.0
C351 C 0.83763 0.68081 0.02478 0.0
C352 C 0.80738 0.62898 0.03513 0.0
C353 C 0.81111 0.67459 0.07625 0.0
N354 N 0.85491 0.72821 0.04047 0.0
C355 C 0.84174 0.7264 0.06596 0.0
O356 O 0.86614 0.50819 0.04686 0.0
C357 C 0.87633 0.50697 0.07103 0.0
O358 O 0.83006 0.49604 0.08556 0.0
H359 H 0.79617 0.59027 0.02284 0.0
H360 H 0.80227 0.67107 0.09665 0.0
C361 C 0.81344 0.35643 0.06531 0.0
C362 C 0.79439 0.3051 0.08052 0.0
C363 C 0.68994 0.3174 0.06488 0.0
C364 C 0.70877 0.36782 0.05012 0.0
N365 N 0.76958 0.38765 0.05085 0.0
N366 N 0.73272 0.28772 0.07978 0.0
H367 H 0.86195 0.37197 0.06547 0.0
C368 C 0.71516 0.53504 0.12789 0.0
O369 O 0.7261 0.47746 0.12097 0.0
O370 O 0.80593 0.44148 -0.00535 0.0
H371 H 0.67474 0.39146 0.03826 0.0
H372 H 0.84842 0.68277 0.00453 0.0
H373 H 0.64146 0.30195 0.06446 0.0
Zn374 Zn 0.39049 1.00505 0.32671 0.0
C375 C 0.43182 0.89469 0.26927 0.0
N376 N 0.4364 0.85048 0.28751 0.0
C377 C 0.43116 0.88183 0.30957 0.0
N378 N 0.42343 0.94227 0.3053 0.0
N379 N 0.42733 0.95214 0.28052 0.0
C380 C 0.51801 0.09981 0.23502 0.0
O381 O 0.52924 0.14329 0.25213 0.0
O382 O 0.36604 0.97035 0.36065 0.0
Zn383 Zn 0.47902 1.03043 0.27914 0.0
N384 N 0.31743 1.03881 0.30937 0.0
C385 C 0.26228 1.08055 0.27339 0.0
C386 C 0.31491 1.05092 0.28372 0.0
C387 C 0.26926 1.05464 0.32487 0.0
N388 N 0.21458 0.0977 0.28913 0.0
C389 C 0.2168 1.08481 0.31462 0.0
O390 O 0.43676 0.11039 0.2955 0.0
C391 C 0.43824 0.12099 0.31965 0.0
O392 O 0.4491 1.07582 0.33445 0.0
H393 H 0.35408 1.04017 0.27142 0.0
H394 H 0.27326 1.04625 0.34528 0.0
C395 C 0.5898 1.0587 0.31281 0.0
C396 C 0.64244 1.04067 0.32779 0.0
C397 C 0.63206 0.93832 0.31137 0.0
C398 C 0.58019 0.95617 0.29681 0.0
N399 N 0.55885 1.01543 0.29806 0.0
N400 N 0.66148 0.98056 0.32659 0.0
H401 H 0.57291 0.10593 0.31344 0.0
C402 C 0.41008 0.95997 0.37657 0.0
O403 O 0.46871 0.9699 0.3696 0.0
O404 O 0.49769 1.04738 0.24239 0.0
H405 H 0.55648 0.92253 0.2848 0.0
H406 H 0.26008 1.09116 0.25312 0.0
H407 H 0.64869 0.89104 0.31062 0.0
Zn408 Zn 0.28891 0.4668 0.42563 0.0
C409 C 0.13665 0.51935 0.39711 0.0
N410 N 0.10566 0.51469 0.41938 0.0
C411 C 0.15177 0.51618 0.43732 0.0
N412 N 0.20977 0.51905 0.4256 0.0
N413 N 0.19852 0.52465 0.40091 0.0
C414 C 0.21671 0.537 0.32841 0.0
O415 O 0.22835 0.47945 0.33515 0.0
O416 O 0.30922 0.4426 0.46165 0.0
Zn417 Zn 0.26149 0.55666 0.37872 0.0
N418 N 0.273 0.38975 0.40522 0.0
C419 C 0.19332 0.31926 0.39116 0.0
C420 C 0.2122 0.36991 0.40588 0.0
C421 C 0.31676 0.35846 0.39077 0.0
N422 N 0.23598 0.28954 0.37629 0.0
C423 C 0.29761 0.307 0.37553 0.0
O424 O 0.33219 0.49831 0.37095 0.0
C425 C 0.37873 0.50937 0.38544 0.0
O426 O 0.36907 0.51057 0.40963 0.0
H427 H 0.17824 0.39365 0.4177 0.0
H428 H 0.36527 0.37401 0.39064 0.0
C429 C 0.31323 0.67669 0.37984 0.0
C430 C 0.34413 0.72864 0.39001 0.0
C431 C 0.34043 0.68384 0.4313 0.0
C432 C 0.30991 0.63188 0.42108 0.0
N433 N 0.29726 0.62918 0.39544 0.0
N434 N 0.35762 0.7309 0.41549 0.0
H435 H 0.30412 0.6728 0.35946 0.0
C436 C 0.36466 0.42577 0.46755 0.0
O437 O 0.40805 0.42347 0.44965 0.0
O438 O 0.22545 0.58016 0.34465 0.0
H439 H 0.29869 0.59346 0.43347 0.0
H440 H 0.14492 0.30362 0.39162 0.0
H441 H 0.35148 0.68617 0.45155 0.0
Zn442 Zn 0.97792 1.02961 0.1766 0.0
C443 C 0.92971 0.88066 0.14614 0.0
N444 N 0.93605 0.84959 0.16821 0.0
C445 C 0.93181 0.89396 0.18642 0.0
N446 N 0.92659 0.9512 0.17511 0.0
N447 N 0.92163 0.9411 0.15036 0.0
C448 C 0.90705 0.95695 0.07929 0.0
O449 O 0.96569 0.96749 0.08624 0.0
O450 O 0.99721 1.04659 0.21335 0.0
Zn451 Zn 0.88783 1.00351 0.12894 0.0
N452 N 1.05743 1.01516 0.15756 0.0
C453 C 0.13087 0.93849 0.14417 0.0
C454 C 1.07918 0.95605 0.15879 0.0
C455 C 1.08778 1.05855 0.14276 0.0
N456 N 0.1597 0.98082 0.12891 0.0
C457 C 0.14022 1.0408 0.12771 0.0
O458 O 0.94631 1.07427 0.12128 0.0
C459 C 0.93592 0.1195 0.13613 0.0
O460 O 0.93503 0.10908 0.1603 0.0
H461 H 1.05593 0.92233 0.17082 0.0
H462 H 1.07055 0.10566 0.14215 0.0
C463 C 0.76658 1.05382 0.13079 0.0
C464 C 0.7146 1.08447 0.14116 0.0
C465 C 0.76079 1.07936 0.18235 0.0
C466 C 0.81295 1.04936 0.1719 0.0
N467 N 0.81489 1.0374 0.14623 0.0
N468 N 0.71299 0.09711 0.16669 0.0
H469 H 0.77014 1.04559 0.11036 0.0
C470 C 1.01821 0.09883 0.22074 0.0
O471 O 1.02956 0.14218 0.20365 0.0
O472 O 0.86307 0.96804 0.09507 0.0
H473 H 0.85227 1.03826 0.18413 0.0
H474 H 0.1478 0.89132 0.14494 0.0
H475 H 0.75906 1.08983 0.20264 0.0
Zn476 Zn 0.42692 0.63941 0.88017 0.0
C477 C 0.55135 0.66662 0.93579 0.0
N478 N 0.59443 0.66258 0.91687 0.0
C479 C 0.55977 0.65811 0.89546 0.0
N480 N 0.49827 0.65981 0.90063 0.0
N481 N 0.49157 0.66782 0.92549 0.0
C482 C 0.35156 0.76316 0.97407 0.0
O483 O 0.30975 0.7815 0.9571 0.0
O484 O 0.44791 0.61237 0.84478 0.0
Zn485 Zn 0.41469 0.72168 0.92945 0.0
N486 N 0.38536 0.57013 0.89659 0.0
C487 C 0.34781 0.5068 0.93081 0.0
C488 C 0.37999 0.55965 0.92225 0.0
C489 C 0.35959 0.53068 0.87945 0.0
N490 N 0.3238 0.46599 0.91338 0.0
C491 C 0.32975 0.47669 0.8878 0.0
O492 O 0.32952 0.68607 0.91361 0.0
C493 C 0.31734 0.69309 0.88976 0.0
O494 O 0.36317 0.70614 0.87528 0.0
H495 H 0.39908 0.59231 0.93593 0.0
H496 H 0.36265 0.54139 0.85924 0.0
C497 C 0.391 0.83559 0.89785 0.0
C498 C 0.41191 0.88982 0.88514 0.0
C499 C 0.51205 0.87824 0.90483 0.0
C500 C 0.49204 0.82378 0.91666 0.0
N501 N 0.43239 0.80261 0.91279 0.0
N502 N 0.47206 0.90929 0.88919 0.0
H503 H 0.3431 0.81947 0.89539 0.0
C504 C 0.47124 0.64458 0.82683 0.0
O505 O 0.49012 0.70168 0.83131 0.0
O506 O 0.40132 0.73651 0.96651 0.0
H507 H 0.52407 0.7982 0.9288 0.0
H508 H 0.34263 0.49798 0.95113 0.0
H509 H 0.55914 0.89575 0.90795 0.0
Zn510 Zn 0.81931 0.18343 0.63183 0.0
C511 C 0.77239 0.29263 0.6891 0.0
N512 N 0.76612 0.33632 0.67074 0.0
C513 C 0.77415 0.30502 0.64884 0.0
N514 N 0.78468 0.24512 0.65328 0.0
N515 N 0.77885 0.23495 0.67798 0.0
C516 C 0.72981 0.14844 0.73024 0.0
O517 O 0.78135 0.18039 0.7261 0.0
O518 O 0.85124 0.21937 0.59948 0.0
Zn519 Zn 0.72496 0.15599 0.67633 0.0
N520 N 0.89092 0.14714 0.64922 0.0
C521 C 0.94752 0.10378 0.68443 0.0
C522 C 0.89445 0.13412 0.67473 0.0
C523 C 0.93825 0.13152 0.63324 0.0
N524 N 0.99479 1.08759 0.66822 0.0
C525 C 0.99151 0.10157 0.64283 0.0
O526 O 0.76995 1.07792 0.66061 0.0
C527 C 0.77004 1.0683 0.63641 0.0
O528 O 0.76097 0.11421 0.62179 0.0
H529 H 0.85597 0.14525 0.68734 0.0
H530 H 0.93331 0.14044 0.61293 0.0
C531 C 0.61717 0.12631 0.64066 0.0
C532 C 0.56711 0.14412 0.62413 0.0
C533 C 0.58218 0.24862 0.63744 0.0
C534 C 0.63056 0.23082 0.65378 0.0
N535 N 0.64892 0.17067 0.65467 0.0
N536 N 0.55195 0.20532 0.62299 0.0
H537 H 0.6314 1.07829 0.64187 0.0
C538 C 0.81539 0.23045 0.5806 0.0
O539 O 0.75418 0.22371 0.58315 0.0
O540 O 0.69611 0.13153 0.7114 0.0
H541 H 0.65384 0.26517 0.66553 0.0
H542 H 0.95066 1.09241 0.7046 0.0
H543 H 0.56895 0.29682 0.6364 0.0
C544 C 0.27077 0.49291 0.10148 0.0
C545 C 0.29176 0.5141 0.12567 0.0
H546 H 0.28848 0.43458 0.06875 0.0
C547 C 0.34604 0.48695 0.13622 0.0
H548 H 0.22951 0.51334 0.09267 0.0
C549 C 0.3807 0.44303 0.12218 0.0
C550 C 0.36106 0.42359 0.09757 0.0
H551 H 0.36422 0.50272 0.15454 0.0
H552 H 0.42434 0.42582 0.13023 0.0
C553 C 0.30446 0.44761 0.08776 0.0
C554 C 0.46316 0.59204 0.38394 0.0
C555 C 0.43569 0.5382 0.37349 0.0
H556 H 0.52427 0.67025 0.37767 0.0
C557 C 0.45632 0.51811 0.34917 0.0
H558 H 0.44781 0.60944 0.40237 0.0
C559 C 0.50139 0.55219 0.33523 0.0
C560 C 0.52565 0.60825 0.34496 0.0
H561 H 0.43561 0.47718 0.34045 0.0
H562 H 0.51404 0.5368 0.31615 0.0
C563 C 0.50679 0.62707 0.36968 0.0
C564 C 0.38521 0.72719 0.57977 0.0
C565 C 0.3344 0.75997 0.59027 0.0
H566 H 0.45013 0.65174 0.58432 0.0
C567 C 0.31586 0.74607 0.61558 0.0
H568 H 0.39967 0.73577 0.56017 0.0
C569 C 0.34574 0.69894 0.6297 0.0
C570 C 0.39351 0.66313 0.61851 0.0
H571 H 0.276 0.7697 0.62401 0.0
H572 H 0.3281 0.68738 0.64859 0.0
C573 C 0.41385 0.67885 0.5936 0.0
C574 C 0.22831 0.61444 0.88781 0.0
C575 C 0.25917 0.66654 0.87743 0.0
H576 H 0.16515 0.53787 0.88088 0.0
C577 C 0.24044 0.68681 0.85283 0.0
H578 H 0.24179 0.59691 0.90649 0.0
C579 C 0.19482 0.65409 0.83848 0.0
C580 C 0.16771 0.59931 0.84808 0.0
H581 H 0.2634 0.72648 0.84414 0.0
H582 H 0.18431 0.66907 0.81911 0.0
C583 C 0.18422 0.58056 0.87311 0.0
C584 C 0.90834 0.68771 0.86074 0.0
C585 C 0.89085 0.6716 0.83544 0.0
H586 H 0.89121 0.74588 0.89353 0.0
C587 C 0.84567 0.70818 0.82293 0.0
H588 H 0.94288 0.6603 0.87097 0.0
C589 C 0.8153 0.75649 0.83607 0.0
C590 C 0.83049 0.77057 0.8618 0.0
H591 H 0.83048 0.69667 0.80365 0.0
H592 H 0.77766 0.7811 0.82645 0.0
C593 C 0.87904 0.73703 0.87366 0.0
C594 C 0.69473 0.6434 0.61669 0.0
C595 C 0.67223 0.58658 0.60705 0.0
H596 H 0.7606 0.71857 0.61212 0.0
C597 C 0.69392 0.5667 0.58287 0.0
H598 H 0.68005 0.65941 0.63544 0.0
C599 C 0.73878 0.60146 0.56914 0.0
C600 C 0.76486 0.65587 0.57969 0.0
H601 H 0.67816 0.52267 0.57509 0.0
H602 H 0.75639 0.58322 0.55119 0.0
C603 C 0.74109 0.67715 0.60334 0.0
C604 C 0.80857 0.4483 0.369 0.0
C605 C 0.86387 0.42295 0.35865 0.0
H606 H 0.7346 0.51542 0.36473 0.0
C607 C 0.88203 0.44159 0.33381 0.0
H608 H 0.79381 0.43591 0.38821 0.0
C609 C 0.84713 0.48584 0.32003 0.0
C610 C 0.79423 0.51425 0.33107 0.0
H611 H 0.92475 0.42345 0.32537 0.0
H612 H 0.86416 0.50085 0.30147 0.0
C613 C 0.77475 0.49401 0.35554 0.0
C614 C 0.95431 0.51623 0.1073 0.0
C615 C 0.93346 0.53593 0.08293 0.0
H616 H 1.01216 0.53556 0.14036 0.0
C617 C 0.9608 0.58963 0.07241 0.0
H618 H 0.93371 0.47541 0.11608 0.0
C619 C 1.00445 0.62496 0.08665 0.0
C620 C 1.02344 0.60658 0.11144 0.0
H621 H 0.94528 0.60673 0.05393 0.0
H622 H 1.02181 0.66803 0.0786 0.0
C623 C 0.99939 0.55061 0.12123 0.0
C624 C 0.84903 0.98135 0.63691 0.0
C625 C 0.7982 1.01131 0.62493 0.0
H626 H 0.92499 0.91664 0.63299 0.0
C627 C 0.78074 0.99204 0.60004 0.0
H628 H 0.86446 0.99559 0.65586 0.0
C629 C 0.81459 0.9456 0.58709 0.0
C630 C 0.86785 0.91846 0.59848 0.0
H631 H 0.74216 1.01462 0.59017 0.0
H632 H 0.8015 0.93388 0.56758 0.0
C633 C 0.88391 0.93623 0.62372 0.0
C634 C 1.00857 1.03872 0.84145 0.0
C635 C 1.03504 0.09366 0.85131 0.0
H636 H 0.93968 0.96631 0.84636 0.0
C637 C 1.01704 0.11257 0.87614 0.0
H638 H 1.02019 1.02357 0.82223 0.0
C639 C 0.97218 1.07873 0.89035 0.0
C640 C 0.94206 1.02646 0.87966 0.0
H641 H 1.0356 0.15533 0.88412 0.0
H642 H 0.9576 0.09638 0.90885 0.0
C643 C 0.96216 1.00606 0.85529 0.0
C644 C 0.85408 0.20411 0.13534 0.0
C645 C 0.90782 0.17659 0.12458 0.0
H646 H 0.77613 0.26591 0.12971 0.0
C647 C 0.92817 0.19768 0.10035 0.0
H648 H 0.83638 0.18839 0.15369 0.0
C649 C 0.89439 0.24329 0.08681 0.0
C650 C 0.83832 0.26774 0.09684 0.0
H651 H 0.96899 0.17698 0.09139 0.0
H652 H 0.90984 0.25626 0.06776 0.0
C653 C 0.81935 0.24837 0.12149 0.0
C654 C 0.74781 0.17495 0.34852 0.0
C655 C 0.7691 0.15496 0.37277 0.0
H656 H 0.6895 0.15581 0.31559 0.0
C657 C 0.74223 0.10101 0.38326 0.0
H658 H 0.76808 0.21599 0.33979 0.0
C659 C 0.6986 1.06565 0.36907 0.0
C660 C 0.67915 1.08435 0.3444 0.0
H661 H 0.75811 1.08376 0.40167 0.0
H662 H 0.68166 1.02233 0.37704 0.0
C663 C 0.70269 0.14057 0.33465 0.0
C664 C 0.43108 0.19937 0.3555 0.0
C665 C 0.41028 0.17814 0.33128 0.0
H666 H 0.41342 0.25812 0.38813 0.0
C667 C 0.3563 0.20563 0.32062 0.0
H668 H 0.47208 0.1787 0.36442 0.0
C669 C 0.32185 0.24998 0.33452 0.0
C670 C 0.34131 0.26954 0.35916 0.0
H671 H 0.3382 0.18984 0.30229 0.0
H672 H 0.27844 0.26745 0.32636 0.0
C673 C 0.39757 0.24507 0.3691 0.0
C674 C 0.19567 1.06597 0.0864 0.0
C675 C 0.17633 1.08467 0.11107 0.0
H676 H 0.25472 1.08429 0.05381 0.0
C677 C 0.19946 0.14118 0.12077 0.0
H678 H 0.17898 1.02245 0.07844 0.0
C679 C 0.24411 0.17584 0.1069 0.0
C680 C 0.26539 0.15582 0.08267 0.0
H681 H 0.18635 0.15647 0.13982 0.0
H682 H 0.26414 0.21709 0.11562 0.0
C683 C 0.23885 0.10158 0.07219 0.0
C684 C 0.31807 0.95821 0.87744 0.0
C685 C 0.37141 0.92774 0.86789 0.0
H686 H 0.25066 1.03099 0.87171 0.0
C687 C 0.39248 0.94269 0.84304 0.0
H688 H 0.3015 0.94857 0.89667 0.0
C689 C 0.36246 0.98878 0.82844 0.0
C690 C 0.31193 1.02238 0.83874 0.0
H691 H 0.43415 0.92063 0.83536 0.0
H692 H 0.38184 1.00132 0.80994 0.0
C693 C 0.28919 1.00555 0.86316 0.0
C694 C 0.45558 1.01178 0.60575 0.0
C695 C 0.4372 1.0283 0.58062 0.0
H696 H 0.51226 1.03375 0.6389 0.0
C697 C 0.46792 1.07898 0.56907 0.0
H698 H 0.43268 0.97332 0.61535 0.0
C699 C 0.51217 0.11469 0.58288 0.0
C700 C 0.52891 0.09945 0.60831 0.0
H701 H 0.45465 0.09374 0.54996 0.0
H702 H 0.53189 0.15567 0.57391 0.0
C703 C 0.5014 1.04632 0.61927 0.0
C704 C 0.35256 0.28176 0.91704 0.0
C705 C 0.29082 0.268 0.90898 0.0
H706 H 0.41582 0.29192 0.94881 0.0
C707 C 0.24302 0.26269 0.92743 0.0
H708 H 0.39039 0.28673 0.90328 0.0
C709 C 0.25755 0.2665 0.95355 0.0
C710 C 0.32024 0.27478 0.9616 0.0
H711 H 0.19489 0.25277 0.92176 0.0
H712 H 0.22028 0.25928 0.96739 0.0
C713 C 0.36724 0.28453 0.94312 0.0
C714 C 0.68778 0.62454 0.18902 0.0
C715 C 0.68081 0.57634 0.20695 0.0
H716 H 0.70334 0.64929 0.14984 0.0
C717 C 0.6775 0.51482 0.19816 0.0
H718 H 0.68967 0.67252 0.19517 0.0
C719 C 0.68578 0.50149 0.17216 0.0
C720 C 0.69711 0.54947 0.15452 0.0
H721 H 0.67167 0.47672 0.21148 0.0
H722 H 0.68569 0.45344 0.16607 0.0
C723 C 0.69561 0.61124 0.16304 0.0
C724 C 0.43039 0.91915 0.44649 0.0
C725 C 0.36821 0.92402 0.45535 0.0
H726 H 0.49253 0.92672 0.41438 0.0
C727 C 0.31929 0.93326 0.43757 0.0
H728 H 0.469 0.91158 0.45974 0.0
C729 C 0.33269 0.94165 0.41165 0.0
C730 C 0.39532 0.94152 0.40308 0.0
H731 H 0.27076 0.93636 0.4438 0.0
H732 H 0.29416 0.95106 0.39858 0.0
C733 C 0.44387 0.92807 0.42055 0.0
C734 C 1.0126 0.67894 0.70098 0.0
C735 C 1.00501 0.61812 0.71015 0.0
H736 H 1.01179 0.73901 0.6683 0.0
C737 C 0.99614 0.56961 0.69244 0.0
H738 H 1.01987 0.71725 0.71413 0.0
C739 C 0.99171 0.58201 0.66625 0.0
C740 C 0.99576 0.64323 0.6572 0.0
H741 H 0.99086 0.52209 0.69885 0.0
H742 H 0.9831 0.54373 0.65321 0.0
C743 C 1.00795 0.6914 0.67473 0.0
C744 C 0.82947 0.93384 0.04453 0.0
C745 C 0.89226 0.93633 0.053 0.0
H746 H 0.76711 0.92547 0.01248 0.0
C747 C 0.94085 0.92331 0.03559 0.0
H748 H 0.79092 0.94262 0.0576 0.0
C749 C 0.92716 0.91294 0.00972 0.0
C750 C 0.86471 0.91585 0.00088 0.0
H751 H 0.98966 0.92377 0.04169 0.0
H752 H 0.96579 0.90629 -0.00352 0.0
C753 C 0.81582 0.92391 0.01868 0.0
C754 C 0.41875 0.55209 0.76937 0.0
C755 C 0.4578 0.57572 0.75006 0.0
H756 H 0.39353 0.55457 0.8089 0.0
C757 C 0.50408 0.62009 0.7563 0.0
H758 H 0.38317 0.51739 0.76505 0.0
C759 C 0.50934 0.64243 0.78142 0.0
C760 C 0.46945 0.61942 0.80062 0.0
H761 H 0.53476 0.63887 0.74164 0.0
H762 H 0.5442 0.67776 0.78578 0.0
C763 C 0.42501 0.57318 0.79447 0.0
C764 C 0.80785 0.2622 0.53466 0.0
C765 C 0.84339 0.23846 0.55512 0.0
H766 H 0.80218 0.27545 0.49396 0.0
C767 C 0.90418 0.21551 0.55051 0.0
H768 H 0.76112 0.28063 0.53785 0.0
C769 C 0.92684 0.21131 0.52558 0.0
C770 C 0.88985 0.23155 0.50497 0.0
H771 H 0.93278 0.19705 0.56594 0.0
H772 H 0.9724 0.19023 0.52233 0.0
C773 C 0.83135 0.25944 0.50968 0.0
C774 C 0.17736 0.51725 0.25818 0.0
C775 C 0.18091 0.57877 0.24946 0.0
H776 H 0.18585 0.45572 0.29016 0.0
C777 C 0.1887 0.62687 0.26743 0.0
H778 H 0.1709 0.47923 0.24482 0.0
C779 C 0.19701 0.61344 0.29339 0.0
C780 C 0.19824 0.55163 0.30182 0.0
H781 H 0.19081 0.67485 0.26133 0.0
H782 H 0.20535 0.65139 0.30662 0.0
C783 C 0.18618 0.50378 0.28414 0.0
C784 C 0.9066 0.71283 0.40582 0.0
C785 C 0.84721 0.73954 0.40154 0.0
H786 H 0.97459 0.68395 0.43364 0.0
C787 C 0.81457 0.76617 0.42212 0.0
H788 H 0.93294 0.69204 0.39027 0.0
C789 C 0.83935 0.76273 0.44693 0.0
C790 C 0.89613 0.73124 0.45136 0.0
H791 H 0.769 0.78749 0.41918 0.0
H792 H 0.81221 0.78107 0.46277 0.0
C793 C 0.93043 0.70794 0.4306 0.0
C794 C 0.19512 1.03784 0.67519 0.0
C795 C 0.22529 1.06858 0.6549 0.0
H796 H 0.17831 1.03551 0.71576 0.0
C797 C 0.25973 0.12307 0.65989 0.0
H798 H 0.16817 0.99587 0.67171 0.0
C799 C 0.26689 0.14459 0.68491 0.0
C800 C 0.23832 0.11299 0.7053 0.0
H801 H 0.28381 0.14746 0.6446 0.0
H802 H 0.29556 0.1855 0.68836 0.0
C803 C 0.20082 1.06051 0.70025 0.0
C804 C 0.95619 0.43137 0.92775 0.0
C805 C 0.90839 0.42699 0.90915 0.0
H806 H 0.97883 0.43319 0.96778 0.0
C807 C 0.84659 0.41311 0.91694 0.0
H808 H 1.00438 0.44127 0.92227 0.0
C809 C 0.83186 0.4093 0.94295 0.0
C810 C 0.87884 0.41819 0.9616 0.0
H811 H 0.80879 0.40866 0.90305 0.0
H812 H 0.78325 0.40179 0.94845 0.0
C813 C 0.94158 0.4266 0.95379 0.0
C814 C 0.50359 1.07991 0.16335 0.0
C815 C 0.50261 0.14184 0.15506 0.0
H816 H 0.50962 1.01802 0.19524 0.0
C817 C 0.51485 0.18941 0.17285 0.0
H818 H 0.49514 1.04216 0.15003 0.0
C819 C 0.52362 0.17554 0.19878 0.0
C820 C 0.51987 0.1139 0.20734 0.0
H821 H 0.51533 0.23755 0.16694 0.0
H822 H 0.53023 0.21334 0.21223 0.0
C823 C 0.51188 1.06609 0.18926 0.0
C824 C 0.33448 0.406 0.51301 0.0
C825 C 0.38161 0.41724 0.49474 0.0
H826 H 0.31082 0.40165 0.55278 0.0
C827 C 0.44404 0.4261 0.50297 0.0
H828 H 0.28609 0.39817 0.50714 0.0
C829 C 0.45813 0.42895 0.52914 0.0
C830 C 0.41015 0.42205 0.54742 0.0
H831 H 0.48138 0.43452 0.48927 0.0
H832 H 0.50603 0.4393 0.535 0.0
C833 C 0.34873 0.40778 0.53914 0.0
C834 C 1.0058 1.07892 0.29244 0.0
C835 C 1.00571 0.14084 0.30081 0.0
H836 H 1.01016 1.01704 0.26045 0.0
C837 C 1.01782 0.18833 0.28303 0.0
H838 H 0.99738 1.04121 0.30573 0.0
C839 C 1.02562 0.17443 0.25706 0.0
C840 C 1.02098 0.11285 0.24844 0.0
H841 H 1.01895 0.23645 0.28901 0.0
H842 H 1.03217 0.2122 0.24364 0.0
C843 C 1.01309 1.06507 0.26648 0.0
C844 C 0.26143 0.76511 0.03626 0.0
C845 C 0.30909 0.74973 0.05385 0.0
H846 H 0.23773 0.78242 -0.00301 0.0
C847 C 0.37179 0.74692 0.04546 0.0
H848 H 0.21279 0.76852 0.04231 0.0
C849 C 0.38595 0.75446 0.01958 0.0
C850 C 0.33777 0.76565 0.0017 0.0
H851 H 0.40967 0.73592 0.05864 0.0
H852 H 0.43438 0.74921 0.01347 0.0
C853 C 0.27572 0.77333 0.01036 0.0
C854 C 0.68859 1.06907 0.76071 0.0
C855 C 0.7159 0.1275 0.7563 0.0
H856 H 0.66926 0.99811 0.78842 0.0
C857 C 0.73682 0.16337 0.77705 0.0
H858 H 0.67203 1.04079 0.74486 0.0
C859 C 0.73454 0.13959 0.80176 0.0
C860 C 0.71248 1.07892 0.80607 0.0
H861 H 0.75727 0.20894 0.77406 0.0
H862 H 0.75334 0.16773 0.81724 0.0
C863 C 0.68731 1.04463 0.78553 0.0
C864 C 0.57069 1.04513 0.97315 0.0
C865 C 0.63116 1.05671 0.96276 0.0
H866 H 0.49643 1.07491 -0.00171 0.0
C867 C 0.6614 0.11217 0.97007 0.0
H868 H 0.54473 1.00405 0.96734 0.0
C869 C 0.63238 0.15412 -0.01289 0.0
C870 C 0.57182 0.14267 -0.00255 0.0
H871 H 0.7064 0.12459 0.9618 0.0
H872 H 0.65812 0.19552 -0.00733 0.0
C873 C 0.54169 1.08706 -0.00977 0.0
C874 C 0.86472 0.78605 0.23749 0.0
C875 C 0.80839 0.8155 0.24458 0.0
H876 H 0.94908 0.78934 0.21483 0.0
C877 C 0.79645 0.87463 0.23391 0.0
H878 H 0.87727 0.74191 0.24583 0.0
C879 C 0.83888 0.90308 0.21675 0.0
C880 C 0.89518 0.87361 0.20964 0.0
H881 H 0.75449 0.89978 0.2394 0.0
H882 H 0.82632 0.94721 0.20842 0.0
C883 C 0.90714 0.8145 0.22032 0.0
C884 C 1.04812 1.07893 0.46384 0.0
C885 C 1.07399 0.13814 0.45917 0.0
H886 H 1.05307 0.99395 0.4854 0.0
C887 C 0.13038 0.15344 0.47225 0.0
H888 H 1.00677 1.06365 0.4534 0.0
C889 C 0.15878 0.11212 0.4898 0.0
C890 C 0.13241 1.0533 0.49474 0.0
H891 H 0.15323 0.19757 0.46859 0.0
H892 H 0.19987 0.12757 0.50032 0.0
C893 C 1.07627 1.03779 0.48153 0.0
C894 C 0.8698 0.28814 0.71762 0.0
C895 C 0.81149 0.31529 0.71156 0.0
H896 H 0.95532 0.29298 0.73958 0.0
C897 C 0.79869 0.37396 0.72264 0.0
H898 H 0.88371 0.24516 0.7086 0.0
C899 C 0.84155 0.40335 0.73961 0.0
C900 C 0.89866 0.3748 0.74645 0.0
H901 H 0.75563 0.39796 0.71767 0.0
H902 H 0.82888 0.44751 0.74797 0.0
C903 C 0.91211 0.31698 0.73483 0.0
C904 C 0.29442 0.36893 0.73263 0.0
C905 C 0.30811 0.31248 0.74539 0.0
H906 H 0.32423 0.44004 0.70637 0.0
C907 C 0.36777 0.28655 0.74083 0.0
H908 H 0.24973 0.39165 0.73591 0.0
C909 C 0.4114 0.31555 0.72424 0.0
C910 C 0.39757 0.37182 0.71139 0.0
H911 H 0.38181 0.24462 0.75058 0.0
H912 H 0.45604 0.29278 0.72093 0.0
C913 C 0.33814 0.39803 0.71609 0.0
C914 C 0.36279 0.78668 0.21833 0.0
C915 C 0.30724 0.81711 0.21087 0.0
H916 H 0.4469 0.78883 0.24135 0.0
C917 C 0.29637 0.8767 0.22133 0.0
H918 H 0.37452 0.74209 0.21021 0.0
C919 C 0.33913 0.90472 0.23861 0.0
C920 C 0.39471 0.8743 0.24606 0.0
H921 H 0.25504 0.90258 0.21559 0.0
H922 H 0.32743 0.94932 0.24672 0.0
C923 C 0.40555 0.81469 0.23562 0.0
C924 C 0.1338 0.64776 0.48629 0.0
C925 C 1.07615 0.63274 0.49841 0.0
H926 H 0.20434 0.62289 0.45849 0.0
C927 C 1.04861 0.57517 0.49207 0.0
H928 H 0.15816 0.69029 0.4914 0.0
C929 C 1.07632 0.53548 0.47373 0.0
C930 C 0.13364 0.55072 0.46142 0.0
H931 H 1.00641 0.55979 0.50182 0.0
H932 H 1.05202 0.49283 0.46876 0.0
C933 C 0.16177 0.60785 0.46803 0.0
C934 C 0.56583 0.53913 -0.0138 0.0
C935 C 0.62721 0.549 -0.00381 0.0
H936 H 0.49227 0.56911 0.96062 0.0
C937 C 0.65954 0.60235 -0.01215 0.0
H938 H 0.53846 0.4995 -0.00748 0.0
C939 C 0.63183 0.64355 0.97006 0.0
C940 C 0.5705 0.63358 0.96006 0.0
H941 H 0.70565 0.6133 -0.00449 0.0
H942 H 0.65942 0.68277 0.96345 0.0
C943 C 0.53808 0.58042 0.96849 0.0
C944 C 0.35832 0.85329 0.12185 0.0
C945 C 0.29395 0.84048 0.12417 0.0
H946 H 0.42934 0.90245 0.10108 0.0
C947 C 0.25133 0.86209 0.10573 0.0
H948 H 0.39156 0.83669 0.13607 0.0
C949 C 0.27294 0.89893 0.08555 0.0
C950 C 0.33693 0.91506 0.0842 0.0
H951 H 0.20153 0.85176 0.10727 0.0
H952 H 0.23937 0.91777 0.07198 0.0
C953 C 0.37976 0.89048 0.10195 0.0
C954 C 1.09333 0.60317 0.37086 0.0
C955 C 0.10587 0.53999 0.37373 0.0
H956 H 1.04745 0.67249 0.34845 0.0
C957 C 1.08702 0.49766 0.35476 0.0
H958 H 0.10836 0.63629 0.38531 0.0
C959 C 1.05244 0.51826 0.3336 0.0
C960 C 1.03662 0.58113 0.33154 0.0
H961 H 1.09811 0.44892 0.35649 0.0
H962 H 1.03517 0.48483 0.31971 0.0
C963 C 1.05916 0.62372 0.3498 0.0
C964 C 0.44198 0.28504 0.58586 0.0
C965 C 0.38428 0.25376 0.58864 0.0
H966 H 0.50882 0.34718 0.60353 0.0
C967 C 0.34935 0.26114 0.61127 0.0
H968 H 0.46947 0.28018 0.5685 0.0
C969 C 0.37309 0.2959 0.63133 0.0
C970 C 0.43055 0.32687 0.62874 0.0
H971 H 0.30366 0.23941 0.61368 0.0
H972 H 0.34589 0.29923 0.64883 0.0
C973 C 0.46487 0.32216 0.60589 0.0
C974 C 0.67117 0.63207 0.84126 0.0
C975 C 0.6554 0.57101 0.83434 0.0
H976 H 0.65094 0.70835 0.86621 0.0
C977 C 0.60213 0.54257 0.84506 0.0
H978 H 0.71222 0.65468 0.83319 0.0
C979 C 0.56844 0.57275 0.86421 0.0
C980 C 0.58608 0.63257 0.87197 0.0
H981 H 0.58979 0.49514 0.84025 0.0
H982 H 0.53068 0.54818 0.87386 0.0
C983 C 0.63656 0.66263 0.86005 0.0
C984 C 0.95033 0.28895 0.87244 0.0
C985 C 0.88887 0.26469 0.87256 0.0
H986 H 1.01796 0.34384 0.85159 0.0
C987 C 0.84713 0.27933 0.85257 0.0
H988 H 0.98312 0.27791 0.88771 0.0
C989 C 0.86738 0.31427 0.83197 0.0
C990 C 0.92897 0.33712 0.83137 0.0
H991 H 0.79918 0.26185 0.85245 0.0
H992 H 0.83494 0.32286 0.81634 0.0
C993 C 0.97037 0.32551 0.8518 0.0
C994 C 0.10726 0.53468 0.61055 0.0
C995 C 0.15807 0.56255 0.62337 0.0
H996 H 1.03959 0.54334 0.58033 0.0
C997 C 0.17333 0.62487 0.61853 0.0
H998 H 1.09544 0.48637 0.61377 0.0
C999 C 0.14068 0.65766 0.59974 0.0
C1000 C 1.09301 0.62819 0.58568 0.0
H1001 H 0.21257 0.64691 0.62829 0.0
H1002 H 0.15413 0.70493 0.59549 0.0
C1003 C 1.07574 0.56697 0.5914 0.0
C1004 C 0.88305 0.89072 0.35293 0.0
C1005 C 0.84048 0.9145 0.3709 0.0
H1006 H 0.89445 0.83735 0.31866 0.0
C1007 C 0.77669 0.89742 0.36976 0.0
H1008 H 0.93249 0.90334 0.35365 0.0
C1009 C 0.75494 0.86031 0.34961 0.0
C1010 C 0.79726 0.83946 0.33099 0.0
H1011 H 0.7433 0.91575 0.38347 0.0
H1012 H 0.70523 0.84932 0.34819 0.0
C1013 C 0.86147 0.85338 0.33304 0.0
C1014 C 0.59351 0.60177 0.08504 0.0
C1015 C 0.60466 0.5381 0.08298 0.0
H1016 H 0.5477 0.67356 0.10609 0.0
C1017 C 0.58365 0.49742 0.10208 0.0
H1018 H 0.61002 0.63354 0.0704 0.0
C1019 C 0.54865 0.52028 0.12262 0.0
C1020 C 0.53411 0.58361 0.12379 0.0
H1021 H 0.59328 0.44826 0.10087 0.0
H1022 H 0.52999 0.48822 0.1367 0.0
C1023 C 0.55844 0.62449 0.10538 0.0
C1024 C 0.87939 0.38767 0.60337 0.0
C1025 C 0.83586 0.41126 0.58568 0.0
H1026 H 0.89264 0.33451 0.63754 0.0
C1027 C 0.7722 0.39402 0.58714 0.0
H1028 H 0.92872 0.40061 0.60241 0.0
C1029 C 0.75157 0.35674 0.60735 0.0
C1030 C 0.79489 0.33613 0.62572 0.0
H1031 H 0.73813 0.41235 0.57366 0.0
H1032 H 0.70199 0.34551 0.60905 0.0
C1033 C 0.85893 0.35033 0.62335 0.0
C1034 C 0.56745 1.03031 0.86198 0.0
C1035 C 0.61422 1.06138 0.87598 0.0
H1036 H 0.49539 1.03835 0.83331 0.0
C1037 C 0.62851 0.12346 0.87051 0.0
H1038 H 0.55595 0.98249 0.86617 0.0
C1039 C 0.59571 0.15459 0.85136 0.0
C1040 C 0.54645 0.12467 0.83832 0.0
H1041 H 0.6636 0.14842 0.88165 0.0
H1042 H 0.6057 0.20327 0.8481 0.0
C1043 C 0.53344 1.06192 0.84322 0.0
C1044 C 0.84285 0.83813 0.12065 0.0
C1045 C 0.90744 0.84978 0.12311 0.0
H1046 H 0.77096 0.79014 0.09973 0.0
C1047 C 0.94971 0.82724 0.1048 0.0
H1048 H 0.80991 0.85552 0.13477 0.0
C1049 C 0.92744 0.79063 0.0846 0.0
C1050 C 0.86316 0.77574 0.0831 0.0
H1051 H 0.99966 0.83676 0.10643 0.0
H1052 H 0.96065 0.77104 0.07113 0.0
C1053 C 0.82075 0.80122 0.10072 0.0
C1054 C 0.14259 1.06558 0.35003 0.0
C1055 C 0.1679 0.1067 0.33194 0.0
H1056 H 1.09053 1.05625 0.38488 0.0
C1057 C 0.15461 0.17025 0.33346 0.0
H1058 H 0.15249 1.01637 0.34904 0.0
C1059 C 0.1199 0.19302 0.35409 0.0
C1060 C 1.09802 0.15203 0.3729 0.0
H1061 H 0.17415 0.20246 0.31965 0.0
H1062 H 0.11121 0.2423 0.3556 0.0
C1063 C 0.10784 1.08823 0.37046 0.0
C1064 C 0.34461 0.8396 0.3351 0.0
C1065 C 0.40916 0.85138 0.33268 0.0
H1066 H 0.27299 0.79168 0.35601 0.0
C1067 C 0.4516 0.82921 0.35107 0.0
H1068 H 0.31151 0.8567 0.32093 0.0
C1069 C 0.42957 0.79282 0.37131 0.0
C1070 C 0.36534 0.77772 0.37276 0.0
H1071 H 0.50154 0.83877 0.34945 0.0
H1072 H 0.46294 0.7735 0.38484 0.0
C1073 C 0.32275 0.80287 0.35506 0.0
C1074 C 0.60356 1.09002 0.08569 0.0
C1075 C 0.59364 0.15393 0.08372 0.0
H1076 H 0.64919 1.01741 0.10636 0.0
C1077 C 0.61655 0.19425 0.10265 0.0
H1078 H 0.58567 1.05855 0.07114 0.0
C1079 C 0.65212 0.17073 0.12296 0.0
C1080 C 0.66547 0.10712 0.12398 0.0
H1081 H 0.60804 0.24362 0.10148 0.0
H1082 H 0.67224 0.20245 0.1369 0.0
C1083 C 0.63932 1.06666 0.10575 0.0
C1084 C 0.34984 0.41924 0.8479 0.0
C1085 C 0.3096 0.43103 0.86863 0.0
H1086 H 0.36096 0.37647 0.81148 0.0
C1087 C 0.24969 0.40329 0.86939 0.0
H1088 H 0.39671 0.43925 0.84706 0.0
C1089 C 0.22987 0.36536 0.84905 0.0
C1090 C 0.26998 0.35585 0.82809 0.0
H1091 H 0.21805 0.41211 0.88523 0.0
H1092 H 0.18362 0.34396 0.84956 0.0
C1093 C 0.32969 0.38307 0.82761 0.0
C1094 C 1.09553 0.10376 0.58521 0.0
C1095 C 0.10939 1.04074 0.58274 0.0
H1096 H 1.04867 0.17307 0.60723 0.0
C1097 C 1.09277 0.99906 0.6022 0.0
H1098 H 0.10878 0.13641 0.57035 0.0
C1099 C 1.05847 1.01989 0.62334 0.0
C1100 C 1.0407 1.08236 0.62489 0.0
H1101 H 0.10459 0.95046 0.60067 0.0
H1102 H 1.04245 0.9867 0.63751 0.0
C1103 C 1.06167 0.12457 0.60625 0.0
loop_
_geom_bond_atom_site_label_1
_geom_bond_atom_site_label_2
_geom_bond_distance
_geom_bond_site_symmetry_2
_ccdc_geom_bond_type
Zn0 N4 2.020 1_565 S
Zn0 O8 2.019 . S
Zn0 N10 2.119 . S
Zn0 O18 1.975 1_565 S
C1 N2 1.334 . S
C1 N5 1.336 . S
N2 C1 1.334 . S
N2 C3 1.334 . S
C3 N2 1.334 . S
C3 N4 1.336 . S
N4 Zn0 2.020 1_545 S
N4 C3 1.336 . S
N4 N5 1.354 . S
N5 C1 1.336 . S
N5 N4 1.354 . S
N5 Zn9 2.020 . S
C6 O7 1.244 . S
C6 O30 1.257 . S
O7 C6 1.244 . S
O8 Zn0 2.019 . S
O8 C28 1.257 . S
Zn9 N5 2.020 . S
Zn9 O16 1.975 . S
Zn9 N25 2.119 . S
Zn9 O30 2.019 . S
N10 Zn0 2.119 . S
N10 C12 1.334 . S
N10 C13 1.328 . S
C11 C12 1.391 . S
C11 N14 1.329 . S
C11 H32 0.930 . S
C12 N10 1.334 . S
C12 C11 1.391 . S
C12 H19 0.930 . S
C13 N10 1.328 . S
C13 C15 1.392 . S
C13 H20 0.930 . S
N14 C11 1.329 . S
N14 C15 1.331 . S
C15 C13 1.392 . S
C15 N14 1.331 . S
O16 Zn9 1.975 . S
O16 C17 1.252 . S
C17 O16 1.252 . S
C17 O18 1.252 . S
O18 Zn0 1.975 1_545 S
O18 C17 1.252 . S
H19 C12 0.930 . S
H20 C13 0.930 . S
C21 C22 1.392 . S
C21 N25 1.328 . S
C21 H27 0.930 . S
C22 C21 1.392 . S
C22 N26 1.331 . S
C23 C24 1.391 . S
C23 N26 1.329 . S
C23 H33 0.930 . S
C24 C23 1.391 . S
C24 N25 1.334 . S
C24 H31 0.930 . S
N25 Zn9 2.119 . S
N25 C21 1.328 . S
N25 C24 1.334 . S
N26 C22 1.331 . S
N26 C23 1.329 . S
H27 C21 0.930 . S
C28 O8 1.257 . S
C28 O29 1.244 1_565 S
O29 C28 1.244 1_545 S
O30 C6 1.257 . S
O30 Zn9 2.019 . S
H31 C24 0.930 . S
H32 C11 0.930 . S
H33 C23 0.930 . S
Zn34 N38 2.020 . S
Zn34 O42 2.019 . S
Zn34 N44 2.119 . S
Zn34 O52 1.975 . S
C35 N36 1.334 . S
C35 N39 1.336 . S
N36 C35 1.334 . S
N36 C37 1.334 . S
C37 N36 1.334 . S
C37 N38 1.336 . S
N38 Zn34 2.020 . S
N38 C37 1.336 . S
N38 N39 1.354 . S
N39 C35 1.336 . S
N39 N38 1.354 . S
N39 Zn43 2.020 . S
C40 O41 1.244 . S
C40 O64 1.257 . S
O41 C40 1.244 . S
O42 Zn34 2.019 . S
O42 C62 1.257 . S
Zn43 N39 2.020 . S
Zn43 O50 1.975 . S
Zn43 N59 2.119 . S
Zn43 O64 2.019 . S
N44 Zn34 2.119 . S
N44 C46 1.334 . S
N44 C47 1.328 . S
C45 C46 1.391 . S
C45 N48 1.329 . S
C45 H66 0.930 . S
C46 N44 1.334 . S
C46 C45 1.391 . S
C46 H53 0.930 . S
C47 N44 1.328 . S
C47 C49 1.392 . S
C47 H54 0.930 . S
N48 C45 1.329 . S
N48 C49 1.331 . S
C49 C47 1.392 . S
C49 N48 1.331 . S
O50 Zn43 1.975 . S
O50 C51 1.252 . S
C51 O50 1.252 . S
C51 O52 1.252 . S
O52 Zn34 1.975 . S
O52 C51 1.252 . S
H53 C46 0.930 . S
H54 C47 0.930 . S
C55 C56 1.392 . S
C55 N59 1.328 . S
C55 H61 0.930 . S
C56 C55 1.392 . S
C56 N60 1.331 . S
C57 C58 1.391 . S
C57 N60 1.329 . S
C57 H67 0.930 . S
C58 C57 1.391 . S
C58 N59 1.334 . S
C58 H65 0.930 . S
N59 Zn43 2.119 . S
N59 C55 1.328 . S
N59 C58 1.334 . S
N60 C56 1.331 . S
N60 C57 1.329 . S
H61 C55 0.930 . S
C62 O42 1.257 . S
C62 O63 1.244 . S
O63 C62 1.244 . S
O64 C40 1.257 . S
O64 Zn43 2.019 . S
H65 C58 0.930 . S
H66 C45 0.930 . S
H67 C57 0.930 . S
Zn68 N72 2.020 1_545 S
Zn68 O76 2.019 . S
Zn68 N78 2.119 . S
Zn68 O86 1.975 1_545 S
C69 N70 1.334 . S
C69 N73 1.336 . S
N70 C69 1.334 . S
N70 C71 1.334 . S
C71 N70 1.334 . S
C71 N72 1.336 . S
N72 Zn68 2.020 1_565 S
N72 C71 1.336 . S
N72 N73 1.354 . S
N73 C69 1.336 . S
N73 N72 1.354 . S
N73 Zn77 2.020 . S
C74 O75 1.244 . S
C74 O98 1.257 . S
O75 C74 1.244 . S
O76 Zn68 2.019 . S
O76 C96 1.257 . S
Zn77 N73 2.020 . S
Zn77 O84 1.975 . S
Zn77 N93 2.119 . S
Zn77 O98 2.019 . S
N78 Zn68 2.119 . S
N78 C80 1.334 . S
N78 C81 1.328 . S
C79 C80 1.391 . S
C79 N82 1.329 . S
C79 H100 0.930 . S
C80 N78 1.334 . S
C80 C79 1.391 . S
C80 H87 0.930 . S
C81 N78 1.328 . S
C81 C83 1.392 . S
C81 H88 0.930 . S
N82 C79 1.329 . S
N82 C83 1.331 . S
C83 C81 1.392 . S
C83 N82 1.331 . S
O84 Zn77 1.975 . S
O84 C85 1.252 . S
C85 O84 1.252 . S
C85 O86 1.252 . S
O86 Zn68 1.975 1_565 S
O86 C85 1.252 . S
H87 C80 0.930 . S
H88 C81 0.930 . S
C89 C90 1.392 . S
C89 N93 1.328 . S
C89 H95 0.930 . S
C90 C89 1.392 . S
C90 N94 1.331 . S
C91 C92 1.391 . S
C91 N94 1.329 . S
C91 H101 0.930 . S
C92 C91 1.391 . S
C92 N93 1.334 . S
C92 H99 0.930 . S
N93 Zn77 2.119 . S
N93 C89 1.328 . S
N93 C92 1.334 . S
N94 C90 1.331 . S
N94 C91 1.329 . S
H95 C89 0.930 . S
C96 O76 1.257 . S
C96 O97 1.244 1_545 S
O97 C96 1.244 1_565 S
O98 C74 1.257 . S
O98 Zn77 2.019 . S
H99 C92 0.930 . S
H100 C79 0.930 . S
H101 C91 0.930 . S
Zn102 N106 2.020 . S
Zn102 O110 2.019 . S
Zn102 N112 2.119 . S
Zn102 O120 1.975 . S
C103 N104 1.334 . S
C103 N107 1.336 . S
N104 C103 1.334 . S
N104 C105 1.334 . S
C105 N104 1.334 . S
C105 N106 1.336 . S
N106 Zn102 2.020 . S
N106 C105 1.336 . S
N106 N107 1.354 . S
N107 C103 1.336 . S
N107 N106 1.354 . S
N107 Zn111 2.020 . S
C108 O109 1.244 . S
C108 O132 1.257 . S
O109 C108 1.244 . S
O110 Zn102 2.019 . S
O110 C130 1.257 . S
Zn111 N107 2.020 . S
Zn111 O118 1.975 . S
Zn111 N127 2.119 . S
Zn111 O132 2.019 . S
N112 Zn102 2.119 . S
N112 C114 1.334 . S
N112 C115 1.328 . S
C113 C114 1.391 . S
C113 N116 1.329 . S
C113 H134 0.930 . S
C114 N112 1.334 . S
C114 C113 1.391 . S
C114 H121 0.930 . S
C115 N112 1.328 . S
C115 C117 1.392 . S
C115 H122 0.930 . S
N116 C113 1.329 . S
N116 C117 1.331 . S
C117 C115 1.392 . S
C117 N116 1.331 . S
O118 Zn111 1.975 . S
O118 C119 1.252 . S
C119 O118 1.252 . S
C119 O120 1.252 . S
O120 Zn102 1.975 . S
O120 C119 1.252 . S
H121 C114 0.930 . S
H122 C115 0.930 . S
C123 C124 1.392 . S
C123 N127 1.328 . S
C123 H129 0.930 . S
C124 C123 1.392 . S
C124 N128 1.331 1_655 S
C125 C126 1.391 . S
C125 N128 1.329 1_655 S
C125 H135 0.930 . S
C126 C125 1.391 . S
C126 N127 1.334 . S
C126 H133 0.930 . S
N127 Zn111 2.119 . S
N127 C123 1.328 . S
N127 C126 1.334 . S
N128 C124 1.331 1_455 S
N128 C125 1.329 1_455 S
H129 C123 0.930 . S
C130 O110 1.257 . S
C130 O131 1.244 . S
O131 C130 1.244 . S
O132 C108 1.257 . S
O132 Zn111 2.019 . S
H133 C126 0.930 . S
H134 C113 0.930 . S
H135 C125 0.930 . S
Zn136 N140 2.020 1_545 S
Zn136 O144 2.019 . S
Zn136 N146 2.119 . S
Zn136 O154 1.975 1_545 S
C137 N138 1.334 . S
C137 N141 1.336 . S
N138 C137 1.334 . S
N138 C139 1.334 . S
C139 N138 1.334 . S
C139 N140 1.336 . S
N140 Zn136 2.020 1_565 S
N140 C139 1.336 . S
N140 N141 1.354 . S
N141 C137 1.336 . S
N141 N140 1.354 . S
N141 Zn145 2.020 . S
C142 O143 1.244 . S
C142 O166 1.257 . S
O143 C142 1.244 . S
O144 Zn136 2.019 . S
O144 C164 1.257 . S
Zn145 N141 2.020 . S
Zn145 O152 1.975 . S
Zn145 N161 2.119 . S
Zn145 O166 2.019 . S
N146 Zn136 2.119 . S
N146 C148 1.334 . S
N146 C149 1.328 . S
C147 C148 1.391 . S
C147 N150 1.329 . S
C147 H168 0.930 . S
C148 N146 1.334 . S
C148 C147 1.391 . S
C148 H155 0.930 . S
C149 N146 1.328 . S
C149 C151 1.392 . S
C149 H156 0.930 . S
N150 C147 1.329 . S
N150 C151 1.331 . S
C151 C149 1.392 . S
C151 N150 1.331 . S
O152 Zn145 1.975 . S
O152 C153 1.252 . S
C153 O152 1.252 . S
C153 O154 1.252 . S
O154 Zn136 1.975 1_565 S
O154 C153 1.252 . S
H155 C148 0.930 . S
H156 C149 0.930 . S
C157 C158 1.392 . S
C157 N161 1.328 . S
C157 H163 0.930 . S
C158 C157 1.392 . S
C158 N162 1.331 . S
C159 C160 1.391 . S
C159 N162 1.329 . S
C159 H169 0.930 . S
C160 C159 1.391 . S
C160 N161 1.334 . S
C160 H167 0.930 . S
N161 Zn145 2.119 . S
N161 C157 1.328 . S
N161 C160 1.334 . S
N162 C158 1.331 . S
N162 C159 1.329 . S
H163 C157 0.930 . S
C164 O144 1.257 . S
C164 O165 1.244 1_545 S
O165 C164 1.244 1_565 S
O166 C142 1.257 . S
O166 Zn145 2.019 . S
H167 C160 0.930 . S
H168 C147 0.930 . S
H169 C159 0.930 . S
Zn170 N174 2.020 . S
Zn170 O178 2.019 . S
Zn170 N180 2.119 . S
Zn170 O188 1.975 . S
C171 N172 1.334 . S
C171 N175 1.336 . S
N172 C171 1.334 . S
N172 C173 1.334 . S
C173 N172 1.334 . S
C173 N174 1.336 . S
N174 Zn170 2.020 . S
N174 C173 1.336 . S
N174 N175 1.354 . S
N175 C171 1.336 . S
N175 N174 1.354 . S
N175 Zn179 2.020 . S
C176 O177 1.244 . S
C176 O200 1.257 . S
O177 C176 1.244 . S
O178 Zn170 2.019 . S
O178 C198 1.257 . S
Zn179 N175 2.020 . S
Zn179 O186 1.975 . S
Zn179 N195 2.119 . S
Zn179 O200 2.019 . S
N180 Zn170 2.119 . S
N180 C182 1.334 . S
N180 C183 1.328 . S
C181 C182 1.391 . S
C181 N184 1.329 . S
C181 H202 0.930 . S
C182 N180 1.334 . S
C182 C181 1.391 . S
C182 H189 0.930 . S
C183 N180 1.328 . S
C183 C185 1.392 . S
C183 H190 0.930 . S
N184 C181 1.329 . S
N184 C185 1.331 . S
C185 C183 1.392 . S
C185 N184 1.331 . S
O186 Zn179 1.975 . S
O186 C187 1.252 . S
C187 O186 1.252 . S
C187 O188 1.252 . S
O188 Zn170 1.975 . S
O188 C187 1.252 . S
H189 C182 0.930 . S
H190 C183 0.930 . S
C191 C192 1.392 . S
C191 N195 1.328 . S
C191 H197 0.930 . S
C192 C191 1.392 . S
C192 N196 1.331 . S
C193 C194 1.391 . S
C193 N196 1.329 . S
C193 H203 0.930 . S
C194 C193 1.391 . S
C194 N195 1.334 . S
C194 H201 0.930 . S
N195 Zn179 2.119 . S
N195 C191 1.328 . S
N195 C194 1.334 . S
N196 C192 1.331 . S
N196 C193 1.329 . S
H197 C191 0.930 . S
C198 O178 1.257 . S
C198 O199 1.244 . S
O199 C198 1.244 . S
O200 C176 1.257 . S
O200 Zn179 2.019 . S
H201 C194 0.930 . S
H202 C181 0.930 . S
H203 C193 0.930 . S
Zn204 N208 2.020 . S
Zn204 O212 2.019 . S
Zn204 N214 2.119 . S
Zn204 O222 1.975 . S
C205 N206 1.334 . S
C205 N209 1.336 . S
N206 C205 1.334 . S
N206 C207 1.334 . S
C207 N206 1.334 . S
C207 N208 1.336 . S
N208 Zn204 2.020 . S
N208 C207 1.336 . S
N208 N209 1.354 . S
N209 C205 1.336 . S
N209 N208 1.354 . S
N209 Zn213 2.020 1_545 S
C210 O211 1.244 1_565 S
C210 O234 1.257 . S
O211 C210 1.244 1_545 S
O212 Zn204 2.019 . S
O212 C232 1.257 . S
Zn213 N209 2.020 1_565 S
Zn213 O220 1.975 1_565 S
Zn213 N229 2.119 . S
Zn213 O234 2.019 . S
N214 Zn204 2.119 . S
N214 C216 1.334 . S
N214 C217 1.328 . S
C215 C216 1.391 . S
C215 N218 1.329 . S
C215 H236 0.930 . S
C216 N214 1.334 . S
C216 C215 1.391 . S
C216 H223 0.930 . S
C217 N214 1.328 . S
C217 C219 1.392 . S
C217 H224 0.930 . S
N218 C215 1.329 . S
N218 C219 1.331 . S
C219 C217 1.392 . S
C219 N218 1.331 . S
O220 Zn213 1.975 1_545 S
O220 C221 1.252 . S
C221 O220 1.252 . S
C221 O222 1.252 . S
O222 Zn204 1.975 . S
O222 C221 1.252 . S
H223 C216 0.930 . S
H224 C217 0.930 . S
C225 C226 1.392 . S
C225 N229 1.328 . S
C225 H231 0.930 . S
C226 C225 1.392 . S
C226 N230 1.331 . S
C227 C228 1.391 . S
C227 N230 1.329 . S
C227 H237 0.930 . S
C228 C227 1.391 . S
C228 N229 1.334 . S
C228 H235 0.930 . S
N229 Zn213 2.119 . S
N229 C225 1.328 . S
N229 C228 1.334 . S
N230 C226 1.331 . S
N230 C227 1.329 . S
H231 C225 0.930 . S
C232 O212 1.257 . S
C232 O233 1.244 . S
O233 C232 1.244 . S
O234 C210 1.257 . S
O234 Zn213 2.019 . S
H235 C228 0.930 . S
H236 C215 0.930 . S
H237 C227 0.930 . S
Zn238 N242 2.020 . S
Zn238 O246 2.019 . S
Zn238 N248 2.119 . S
Zn238 O256 1.975 . S
C239 N240 1.334 . S
C239 N243 1.336 . S
N240 C239 1.334 . S
N240 C241 1.334 . S
C241 N240 1.334 . S
C241 N242 1.336 . S
N242 Zn238 2.020 . S
N242 C241 1.336 . S
N242 N243 1.354 . S
N243 C239 1.336 . S
N243 N242 1.354 . S
N243 Zn247 2.020 . S
C244 O245 1.244 . S
C244 O268 1.257 . S
O245 C244 1.244 . S
O246 Zn238 2.019 . S
O246 C266 1.257 . S
Zn247 N243 2.020 . S
Zn247 O254 1.975 . S
Zn247 N263 2.119 . S
Zn247 O268 2.019 . S
N248 Zn238 2.119 . S
N248 C250 1.334 . S
N248 C251 1.328 . S
C249 C250 1.391 . S
C249 N252 1.329 . S
C249 H270 0.930 . S
C250 N248 1.334 . S
C250 C249 1.391 . S
C250 H257 0.930 . S
C251 N248 1.328 . S
C251 C253 1.392 . S
C251 H258 0.930 . S
N252 C249 1.329 . S
N252 C253 1.331 . S
C253 C251 1.392 . S
C253 N252 1.331 . S
O254 Zn247 1.975 . S
O254 C255 1.252 . S
C255 O254 1.252 . S
C255 O256 1.252 . S
O256 Zn238 1.975 . S
O256 C255 1.252 . S
H257 C250 0.930 . S
H258 C251 0.930 . S
C259 C260 1.392 . S
C259 N263 1.328 . S
C259 H265 0.930 . S
C260 C259 1.392 . S
C260 N264 1.331 1_455 S
C261 C262 1.391 . S
C261 N264 1.329 1_455 S
C261 H271 0.930 . S
C262 C261 1.391 . S
C262 N263 1.334 . S
C262 H269 0.930 . S
N263 Zn247 2.119 . S
N263 C259 1.328 . S
N263 C262 1.334 . S
N264 C260 1.331 1_655 S
N264 C261 1.329 1_655 S
H265 C259 0.930 . S
C266 O246 1.257 . S
C266 O267 1.244 . S
O267 C266 1.244 . S
O268 C244 1.257 . S
O268 Zn247 2.019 . S
H269 C262 0.930 . S
H270 C249 0.930 . S
H271 C261 0.930 . S
Zn272 N276 2.020 . S
Zn272 O280 2.019 . S
Zn272 N282 2.119 . S
Zn272 O290 1.975 . S
C273 N274 1.334 . S
C273 N277 1.336 . S
N274 C273 1.334 . S
N274 C275 1.334 . S
C275 N274 1.334 . S
C275 N276 1.336 . S
N276 Zn272 2.020 . S
N276 C275 1.336 . S
N276 N277 1.354 . S
N277 C273 1.336 . S
N277 N276 1.354 . S
N277 Zn281 2.020 . S
C278 O279 1.244 . S
C278 O302 1.257 . S
O279 C278 1.244 . S
O280 Zn272 2.019 . S
O280 C300 1.257 . S
Zn281 N277 2.020 . S
Zn281 O288 1.975 . S
Zn281 N297 2.119 . S
Zn281 O302 2.019 . S
N282 Zn272 2.119 . S
N282 C284 1.334 . S
N282 C285 1.328 . S
C283 C284 1.391 . S
C283 N286 1.329 . S
C283 H304 0.930 . S
C284 N282 1.334 . S
C284 C283 1.391 . S
C284 H291 0.930 . S
C285 N282 1.328 . S
C285 C287 1.392 . S
C285 H292 0.930 . S
N286 C283 1.329 . S
N286 C287 1.331 . S
C287 C285 1.392 . S
C287 N286 1.331 . S
O288 Zn281 1.975 . S
O288 C289 1.252 . S
C289 O288 1.252 . S
C289 O290 1.252 . S
O290 Zn272 1.975 . S
O290 C289 1.252 . S
H291 C284 0.930 . S
H292 C285 0.930 . S
C293 C294 1.392 . S
C293 N297 1.328 . S
C293 H299 0.930 . S
C294 C293 1.392 . S
C294 N298 1.331 . S
C295 C296 1.391 . S
C295 N298 1.329 . S
C295 H305 0.930 . S
C296 C295 1.391 . S
C296 N297 1.334 . S
C296 H303 0.930 . S
N297 Zn281 2.119 . S
N297 C293 1.328 . S
N297 C296 1.334 . S
N298 C294 1.331 . S
N298 C295 1.329 . S
H299 C293 0.930 . S
C300 O280 1.257 . S
C300 O301 1.244 . S
O301 C300 1.244 . S
O302 C278 1.257 . S
O302 Zn281 2.019 . S
H303 C296 0.930 . S
H304 C283 0.930 . S
H305 C295 0.930 . S
Zn306 N310 2.020 . S
Zn306 O314 2.019 . S
Zn306 N316 2.119 . S
Zn306 O324 1.975 . S
C307 N308 1.334 . S
C307 N311 1.336 . S
N308 C307 1.334 . S
N308 C309 1.334 . S
C309 N308 1.334 . S
C309 N310 1.336 . S
N310 Zn306 2.020 . S
N310 C309 1.336 . S
N310 N311 1.354 . S
N311 C307 1.336 . S
N311 N310 1.354 . S
N311 Zn315 2.020 . S
C312 O313 1.244 . S
C312 O336 1.257 . S
O313 C312 1.244 . S
O314 Zn306 2.019 . S
O314 C334 1.257 . S
Zn315 N311 2.020 . S
Zn315 O322 1.975 . S
Zn315 N331 2.119 . S
Zn315 O336 2.019 . S
N316 Zn306 2.119 . S
N316 C318 1.334 . S
N316 C319 1.328 . S
C317 C318 1.391 . S
C317 N320 1.329 1_455 S
C317 H338 0.930 . S
C318 N316 1.334 . S
C318 C317 1.391 . S
C318 H325 0.930 . S
C319 N316 1.328 . S
C319 C321 1.392 . S
C319 H326 0.930 . S
N320 C317 1.329 1_655 S
N320 C321 1.331 1_655 S
C321 C319 1.392 . S
C321 N320 1.331 1_455 S
O322 Zn315 1.975 . S
O322 C323 1.252 1_545 S
C323 O322 1.252 1_565 S
C323 O324 1.252 1_565 S
O324 Zn306 1.975 . S
O324 C323 1.252 1_545 S
H325 C318 0.930 . S
H326 C319 0.930 . S
C327 C328 1.392 . S
C327 N331 1.328 . S
C327 H333 0.930 . S
C328 C327 1.392 . S
C328 N332 1.331 . S
C329 C330 1.391 . S
C329 N332 1.329 . S
C329 H339 0.930 . S
C330 C329 1.391 . S
C330 N331 1.334 . S
C330 H337 0.930 . S
N331 Zn315 2.119 . S
N331 C327 1.328 . S
N331 C330 1.334 . S
N332 C328 1.331 . S
N332 C329 1.329 . S
H333 C327 0.930 . S
C334 O314 1.257 . S
C334 O335 1.244 . S
O335 C334 1.244 . S
O336 C312 1.257 . S
O336 Zn315 2.019 . S
H337 C330 0.930 . S
H338 C317 0.930 . S
H339 C329 0.930 . S
Zn340 N344 2.020 . S
Zn340 O348 2.019 . S
Zn340 N350 2.119 . S
Zn340 O358 1.975 . S
C341 N342 1.334 . S
C341 N345 1.336 . S
N342 C341 1.334 . S
N342 C343 1.334 . S
C343 N342 1.334 . S
C343 N344 1.336 . S
N344 Zn340 2.020 . S
N344 C343 1.336 . S
N344 N345 1.354 . S
N345 C341 1.336 . S
N345 N344 1.354 . S
N345 Zn349 2.020 . S
C346 O347 1.244 . S
C346 O370 1.257 . S
O347 C346 1.244 . S
O348 Zn340 2.019 . S
O348 C368 1.257 . S
Zn349 N345 2.020 . S
Zn349 O356 1.975 . S
Zn349 N365 2.119 . S
Zn349 O370 2.019 . S
N350 Zn340 2.119 . S
N350 C352 1.334 . S
N350 C353 1.328 . S
C351 C352 1.391 . S
C351 N354 1.329 . S
C351 H372 0.930 . S
C352 N350 1.334 . S
C352 C351 1.391 . S
C352 H359 0.930 . S
C353 N350 1.328 . S
C353 C355 1.392 . S
C353 H360 0.930 . S
N354 C351 1.329 . S
N354 C355 1.331 . S
C355 C353 1.392 . S
C355 N354 1.331 . S
O356 Zn349 1.975 . S
O356 C357 1.252 . S
C357 O356 1.252 . S
C357 O358 1.252 . S
O358 Zn340 1.975 . S
O358 C357 1.252 . S
H359 C352 0.930 . S
H360 C353 0.930 . S
C361 C362 1.392 . S
C361 N365 1.328 . S
C361 H367 0.930 . S
C362 C361 1.392 . S
C362 N366 1.331 . S
C363 C364 1.391 . S
C363 N366 1.329 . S
C363 H373 0.930 . S
C364 C363 1.391 . S
C364 N365 1.334 . S
C364 H371 0.930 . S
N365 Zn349 2.119 . S
N365 C361 1.328 . S
N365 C364 1.334 . S
N366 C362 1.331 . S
N366 C363 1.329 . S
H367 C361 0.930 . S
C368 O348 1.257 . S
C368 O369 1.244 . S
O369 C368 1.244 . S
O370 C346 1.257 . S
O370 Zn349 2.019 . S
H371 C364 0.930 . S
H372 C351 0.930 . S
H373 C363 0.930 . S
Zn374 N378 2.020 . S
Zn374 O382 2.019 . S
Zn374 N384 2.119 . S
Zn374 O392 1.975 . S
C375 N376 1.334 . S
C375 N379 1.336 . S
N376 C375 1.334 . S
N376 C377 1.334 . S
C377 N376 1.334 . S
C377 N378 1.336 . S
N378 Zn374 2.020 . S
N378 C377 1.336 . S
N378 N379 1.354 . S
N379 C375 1.336 . S
N379 N378 1.354 . S
N379 Zn383 2.020 . S
C380 O381 1.244 . S
C380 O404 1.257 . S
O381 C380 1.244 . S
O382 Zn374 2.019 . S
O382 C402 1.257 . S
Zn383 N379 2.020 . S
Zn383 O390 1.975 . S
Zn383 N399 2.119 . S
Zn383 O404 2.019 . S
N384 Zn374 2.119 . S
N384 C386 1.334 . S
N384 C387 1.328 . S
C385 C386 1.391 . S
C385 N388 1.329 . S
C385 H406 0.930 . S
C386 N384 1.334 . S
C386 C385 1.391 . S
C386 H393 0.930 . S
C387 N384 1.328 . S
C387 C389 1.392 . S
C387 H394 0.930 . S
N388 C385 1.329 . S
N388 C389 1.331 . S
C389 C387 1.392 . S
C389 N388 1.331 . S
O390 Zn383 1.975 . S
O390 C391 1.252 1_565 S
C391 O390 1.252 1_545 S
C391 O392 1.252 1_545 S
O392 Zn374 1.975 . S
O392 C391 1.252 1_565 S
H393 C386 0.930 . S
H394 C387 0.930 . S
C395 C396 1.392 . S
C395 N399 1.328 . S
C395 H401 0.930 . S
C396 C395 1.392 . S
C396 N400 1.331 . S
C397 C398 1.391 . S
C397 N400 1.329 . S
C397 H407 0.930 . S
C398 C397 1.391 . S
C398 N399 1.334 . S
C398 H405 0.930 . S
N399 Zn383 2.119 . S
N399 C395 1.328 . S
N399 C398 1.334 . S
N400 C396 1.331 . S
N400 C397 1.329 . S
H401 C395 0.930 . S
C402 O382 1.257 . S
C402 O403 1.244 . S
O403 C402 1.244 . S
O404 C380 1.257 . S
O404 Zn383 2.019 . S
H405 C398 0.930 . S
H406 C385 0.930 . S
H407 C397 0.930 . S
Zn408 N412 2.020 . S
Zn408 O416 2.019 . S
Zn408 N418 2.119 . S
Zn408 O426 1.975 . S
C409 N410 1.334 . S
C409 N413 1.336 . S
N410 C409 1.334 . S
N410 C411 1.334 . S
C411 N410 1.334 . S
C411 N412 1.336 . S
N412 Zn408 2.020 . S
N412 C411 1.336 . S
N412 N413 1.354 . S
N413 C409 1.336 . S
N413 N412 1.354 . S
N413 Zn417 2.020 . S
C414 O415 1.244 . S
C414 O438 1.257 . S
O415 C414 1.244 . S
O416 Zn408 2.019 . S
O416 C436 1.257 . S
Zn417 N413 2.020 . S
Zn417 O424 1.975 . S
Zn417 N433 2.119 . S
Zn417 O438 2.019 . S
N418 Zn408 2.119 . S
N418 C420 1.334 . S
N418 C421 1.328 . S
C419 C420 1.391 . S
C419 N422 1.329 . S
C419 H440 0.930 . S
C420 N418 1.334 . S
C420 C419 1.391 . S
C420 H427 0.930 . S
C421 N418 1.328 . S
C421 C423 1.392 . S
C421 H428 0.930 . S
N422 C419 1.329 . S
N422 C423 1.331 . S
C423 C421 1.392 . S
C423 N422 1.331 . S
O424 Zn417 1.975 . S
O424 C425 1.252 . S
C425 O424 1.252 . S
C425 O426 1.252 . S
O426 Zn408 1.975 . S
O426 C425 1.252 . S
H427 C420 0.930 . S
H428 C421 0.930 . S
C429 C430 1.392 . S
C429 N433 1.328 . S
C429 H435 0.930 . S
C430 C429 1.392 . S
C430 N434 1.331 . S
C431 C432 1.391 . S
C431 N434 1.329 . S
C431 H441 0.930 . S
C432 C431 1.391 . S
C432 N433 1.334 . S
C432 H439 0.930 . S
N433 Zn417 2.119 . S
N433 C429 1.328 . S
N433 C432 1.334 . S
N434 C430 1.331 . S
N434 C431 1.329 . S
H435 C429 0.930 . S
C436 O416 1.257 . S
C436 O437 1.244 . S
O437 C436 1.244 . S
O438 C414 1.257 . S
O438 Zn417 2.019 . S
H439 C432 0.930 . S
H440 C419 0.930 . S
H441 C431 0.930 . S
Zn442 N446 2.020 . S
Zn442 O450 2.019 . S
Zn442 N452 2.119 . S
Zn442 O460 1.975 . S
C443 N444 1.334 . S
C443 N447 1.336 . S
N444 C443 1.334 . S
N444 C445 1.334 . S
C445 N444 1.334 . S
C445 N446 1.336 . S
N446 Zn442 2.020 . S
N446 C445 1.336 . S
N446 N447 1.354 . S
N447 C443 1.336 . S
N447 N446 1.354 . S
N447 Zn451 2.020 . S
C448 O449 1.244 . S
C448 O472 1.257 . S
O449 C448 1.244 . S
O450 Zn442 2.019 . S
O450 C470 1.257 . S
Zn451 N447 2.020 . S
Zn451 O458 1.975 . S
Zn451 N467 2.119 . S
Zn451 O472 2.019 . S
N452 Zn442 2.119 . S
N452 C454 1.334 . S
N452 C455 1.328 . S
C453 C454 1.391 . S
C453 N456 1.329 1_655 S
C453 H474 0.930 . S
C454 N452 1.334 . S
C454 C453 1.391 . S
C454 H461 0.930 . S
C455 N452 1.328 . S
C455 C457 1.392 . S
C455 H462 0.930 . S
N456 C453 1.329 1_455 S
N456 C457 1.331 1_455 S
C457 C455 1.392 . S
C457 N456 1.331 1_655 S
O458 Zn451 1.975 . S
O458 C459 1.252 1_565 S
C459 O458 1.252 1_545 S
C459 O460 1.252 1_545 S
O460 Zn442 1.975 . S
O460 C459 1.252 1_565 S
H461 C454 0.930 . S
H462 C455 0.930 . S
C463 C464 1.392 . S
C463 N467 1.328 . S
C463 H469 0.930 . S
C464 C463 1.392 . S
C464 N468 1.331 . S
C465 C466 1.391 . S
C465 N468 1.329 . S
C465 H475 0.930 . S
C466 C465 1.391 . S
C466 N467 1.334 . S
C466 H473 0.930 . S
N467 Zn451 2.119 . S
N467 C463 1.328 . S
N467 C466 1.334 . S
N468 C464 1.331 . S
N468 C465 1.329 . S
H469 C463 0.930 . S
C470 O450 1.257 . S
C470 O471 1.244 . S
O471 C470 1.244 . S
O472 C448 1.257 . S
O472 Zn451 2.019 . S
H473 C466 0.930 . S
H474 C453 0.930 . S
H475 C465 0.930 . S
Zn476 N480 2.020 . S
Zn476 O484 2.019 . S
Zn476 N486 2.119 . S
Zn476 O494 1.975 . S
C477 N478 1.334 . S
C477 N481 1.336 . S
N478 C477 1.334 . S
N478 C479 1.334 . S
C479 N478 1.334 . S
C479 N480 1.336 . S
N480 Zn476 2.020 . S
N480 C479 1.336 . S
N480 N481 1.354 . S
N481 C477 1.336 . S
N481 N480 1.354 . S
N481 Zn485 2.020 . S
C482 O483 1.244 . S
C482 O506 1.257 . S
O483 C482 1.244 . S
O484 Zn476 2.019 . S
O484 C504 1.257 . S
Zn485 N481 2.020 . S
Zn485 O492 1.975 . S
Zn485 N501 2.119 . S
Zn485 O506 2.019 . S
N486 Zn476 2.119 . S
N486 C488 1.334 . S
N486 C489 1.328 . S
C487 C488 1.391 . S
C487 N490 1.329 . S
C487 H508 0.930 . S
C488 N486 1.334 . S
C488 C487 1.391 . S
C488 H495 0.930 . S
C489 N486 1.328 . S
C489 C491 1.392 . S
C489 H496 0.930 . S
N490 C487 1.329 . S
N490 C491 1.331 . S
C491 C489 1.392 . S
C491 N490 1.331 . S
O492 Zn485 1.975 . S
O492 C493 1.252 . S
C493 O492 1.252 . S
C493 O494 1.252 . S
O494 Zn476 1.975 . S
O494 C493 1.252 . S
H495 C488 0.930 . S
H496 C489 0.930 . S
C497 C498 1.392 . S
C497 N501 1.328 . S
C497 H503 0.930 . S
C498 C497 1.392 . S
C498 N502 1.331 . S
C499 C500 1.391 . S
C499 N502 1.329 . S
C499 H509 0.930 . S
C500 C499 1.391 . S
C500 N501 1.334 . S
C500 H507 0.930 . S
N501 Zn485 2.119 . S
N501 C497 1.328 . S
N501 C500 1.334 . S
N502 C498 1.331 . S
N502 C499 1.329 . S
H503 C497 0.930 . S
C504 O484 1.257 . S
C504 O505 1.244 . S
O505 C504 1.244 . S
O506 C482 1.257 . S
O506 Zn485 2.019 . S
H507 C500 0.930 . S
H508 C487 0.930 . S
H509 C499 0.930 . S
Zn510 N514 2.020 . S
Zn510 O518 2.019 . S
Zn510 N520 2.119 . S
Zn510 O528 1.975 . S
C511 N512 1.334 . S
C511 N515 1.336 . S
N512 C511 1.334 . S
N512 C513 1.334 . S
C513 N512 1.334 . S
C513 N514 1.336 . S
N514 Zn510 2.020 . S
N514 C513 1.336 . S
N514 N515 1.354 . S
N515 C511 1.336 . S
N515 N514 1.354 . S
N515 Zn519 2.020 . S
C516 O517 1.244 . S
C516 O540 1.257 . S
O517 C516 1.244 . S
O518 Zn510 2.019 . S
O518 C538 1.257 . S
Zn519 N515 2.020 . S
Zn519 O526 1.975 . S
Zn519 N535 2.119 . S
Zn519 O540 2.019 . S
N520 Zn510 2.119 . S
N520 C522 1.334 . S
N520 C523 1.328 . S
C521 C522 1.391 . S
C521 N524 1.329 . S
C521 H542 0.930 . S
C522 N520 1.334 . S
C522 C521 1.391 . S
C522 H529 0.930 . S
C523 N520 1.328 . S
C523 C525 1.392 . S
C523 H530 0.930 . S
N524 C521 1.329 . S
N524 C525 1.331 . S
C525 C523 1.392 . S
C525 N524 1.331 . S
O526 Zn519 1.975 . S
O526 C527 1.252 1_545 S
C527 O526 1.252 1_565 S
C527 O528 1.252 1_565 S
O528 Zn510 1.975 . S
O528 C527 1.252 1_545 S
H529 C522 0.930 . S
H530 C523 0.930 . S
C531 C532 1.392 . S
C531 N535 1.328 . S
C531 H537 0.930 . S
C532 C531 1.392 . S
C532 N536 1.331 . S
C533 C534 1.391 . S
C533 N536 1.329 . S
C533 H543 0.930 . S
C534 C533 1.391 . S
C534 N535 1.334 . S
C534 H541 0.930 . S
N535 Zn519 2.119 . S
N535 C531 1.328 . S
N535 C534 1.334 . S
N536 C532 1.331 . S
N536 C533 1.329 . S
H537 C531 0.930 . S
C538 O518 1.257 . S
C538 O539 1.244 . S
O539 C538 1.244 . S
O540 C516 1.257 . S
O540 Zn519 2.019 . S
H541 C534 0.930 . S
H542 C521 0.930 . S
H543 C533 0.930 . S
C544 C545 1.387 . S
C544 H548 0.950 . S
C544 C553 1.390 . S
C545 C544 1.387 . S
C545 C547 1.387 . S
H546 C553 0.950 . S
C547 C545 1.387 . S
C547 C549 1.390 . S
C547 H551 0.950 . S
H548 C544 0.950 . S
C549 C547 1.390 . S
C549 C550 1.387 . S
C549 H552 0.950 . S
C550 C549 1.387 . S
C550 C553 1.387 . S
H551 C547 0.950 . S
H552 C549 0.950 . S
C553 C544 1.390 . S
C553 H546 0.950 . S
C553 C550 1.387 . S
C554 C555 1.387 . S
C554 H558 0.950 . S
C554 C563 1.390 . S
C555 C554 1.387 . S
C555 C557 1.387 . S
H556 C563 0.950 . S
C557 C555 1.387 . S
C557 C559 1.390 . S
C557 H561 0.950 . S
H558 C554 0.950 . S
C559 C557 1.390 . S
C559 C560 1.387 . S
C559 H562 0.950 . S
C560 C559 1.387 . S
C560 C563 1.387 . S
H561 C557 0.950 . S
H562 C559 0.950 . S
C563 C554 1.390 . S
C563 H556 0.950 . S
C563 C560 1.387 . S
C564 C565 1.387 . S
C564 H568 0.950 . S
C564 C573 1.390 . S
C565 C564 1.387 . S
C565 C567 1.387 . S
H566 C573 0.950 . S
C567 C565 1.387 . S
C567 C569 1.390 . S
C567 H571 0.950 . S
H568 C564 0.950 . S
C569 C567 1.390 . S
C569 C570 1.387 . S
C569 H572 0.950 . S
C570 C569 1.387 . S
C570 C573 1.387 . S
H571 C567 0.950 . S
H572 C569 0.950 . S
C573 C564 1.390 . S
C573 H566 0.950 . S
C573 C570 1.387 . S
C574 C575 1.387 . S
C574 H578 0.950 . S
C574 C583 1.390 . S
C575 C574 1.387 . S
C575 C577 1.387 . S
H576 C583 0.950 . S
C577 C575 1.387 . S
C577 C579 1.390 . S
C577 H581 0.950 . S
H578 C574 0.950 . S
C579 C577 1.390 . S
C579 C580 1.387 . S
C579 H582 0.950 . S
C580 C579 1.387 . S
C580 C583 1.387 . S
H581 C577 0.950 . S
H582 C579 0.950 . S
C583 C574 1.390 . S
C583 H576 0.950 . S
C583 C580 1.387 . S
C584 C585 1.387 . S
C584 H588 0.950 . S
C584 C593 1.390 . S
C585 C584 1.387 . S
C585 C587 1.387 . S
H586 C593 0.950 . S
C587 C585 1.387 . S
C587 C589 1.390 . S
C587 H591 0.950 . S
H588 C584 0.950 . S
C589 C587 1.390 . S
C589 C590 1.387 . S
C589 H592 0.950 . S
C590 C589 1.387 . S
C590 C593 1.387 . S
H591 C587 0.950 . S
H592 C589 0.950 . S
C593 C584 1.390 . S
C593 H586 0.950 . S
C593 C590 1.387 . S
C594 C595 1.387 . S
C594 H598 0.950 . S
C594 C603 1.390 . S
C595 C594 1.387 . S
C595 C597 1.387 . S
H596 C603 0.950 . S
C597 C595 1.387 . S
C597 C599 1.390 . S
C597 H601 0.950 . S
H598 C594 0.950 . S
C599 C597 1.390 . S
C599 C600 1.387 . S
C599 H602 0.950 . S
C600 C599 1.387 . S
C600 C603 1.387 . S
H601 C597 0.950 . S
H602 C599 0.950 . S
C603 C594 1.390 . S
C603 H596 0.950 . S
C603 C600 1.387 . S
C604 C605 1.387 . S
C604 H608 0.950 . S
C604 C613 1.390 . S
C605 C604 1.387 . S
C605 C607 1.387 . S
H606 C613 0.950 . S
C607 C605 1.387 . S
C607 C609 1.390 . S
C607 H611 0.950 . S
H608 C604 0.950 . S
C609 C607 1.390 . S
C609 C610 1.387 . S
C609 H612 0.950 . S
C610 C609 1.387 . S
C610 C613 1.387 . S
H611 C607 0.950 . S
H612 C609 0.950 . S
C613 C604 1.390 . S
C613 H606 0.950 . S
C613 C610 1.387 . S
C614 C615 1.387 . S
C614 H618 0.950 . S
C614 C623 1.390 . S
C615 C614 1.387 . S
C615 C617 1.387 . S
H616 C623 0.950 . S
C617 C615 1.387 . S
C617 C619 1.390 . S
C617 H621 0.950 . S
H618 C614 0.950 . S
C619 C617 1.390 . S
C619 C620 1.387 . S
C619 H622 0.950 . S
C620 C619 1.387 . S
C620 C623 1.387 . S
H621 C617 0.950 . S
H622 C619 0.950 . S
C623 C614 1.390 . S
C623 H616 0.950 . S
C623 C620 1.387 . S
C624 C625 1.387 . S
C624 H628 0.950 . S
C624 C633 1.390 . S
C625 C624 1.387 . S
C625 C627 1.387 . S
H626 C633 0.950 . S
C627 C625 1.387 . S
C627 C629 1.390 . S
C627 H631 0.950 . S
H628 C624 0.950 . S
C629 C627 1.390 . S
C629 C630 1.387 . S
C629 H632 0.950 . S
C630 C629 1.387 . S
C630 C633 1.387 . S
H631 C627 0.950 . S
H632 C629 0.950 . S
C633 C624 1.390 . S
C633 H626 0.950 . S
C633 C630 1.387 . S
C634 C635 1.387 . S
C634 H638 0.950 . S
C634 C643 1.390 . S
C635 C634 1.387 . S
C635 C637 1.387 1_545 S
H636 C643 0.950 . S
C637 C635 1.387 1_565 S
C637 C639 1.390 . S
C637 H641 0.950 . S
H638 C634 0.950 . S
C639 C637 1.390 . S
C639 C640 1.387 . S
C639 H642 0.950 . S
C640 C639 1.387 . S
C640 C643 1.387 1_565 S
H641 C637 0.950 . S
H642 C639 0.950 . S
C643 C634 1.390 . S
C643 H636 0.950 . S
C643 C640 1.387 1_545 S
C644 C645 1.387 . S
C644 H648 0.950 . S
C644 C653 1.390 . S
C645 C644 1.387 . S
C645 C647 1.387 . S
H646 C653 0.950 . S
C647 C645 1.387 . S
C647 C649 1.390 . S
C647 H651 0.950 . S
H648 C644 0.950 . S
C649 C647 1.390 . S
C649 C650 1.387 . S
C649 H652 0.950 . S
C650 C649 1.387 . S
C650 C653 1.387 . S
H651 C647 0.950 . S
H652 C649 0.950 . S
C653 C644 1.390 . S
C653 H646 0.950 . S
C653 C650 1.387 . S
C654 C655 1.387 1_565 S
C654 H658 0.950 . S
C654 C663 1.390 . S
C655 C654 1.387 1_545 S
C655 C657 1.387 . S
H656 C663 0.950 . S
C657 C655 1.387 . S
C657 C659 1.390 . S
C657 H661 0.950 . S
H658 C654 0.950 . S
C659 C657 1.390 . S
C659 C660 1.387 1_545 S
C659 H662 0.950 . S
C660 C659 1.387 1_565 S
C660 C663 1.387 . S
H661 C657 0.950 . S
H662 C659 0.950 . S
C663 C654 1.390 . S
C663 H656 0.950 . S
C663 C660 1.387 . S
C664 C665 1.387 . S
C664 H668 0.950 . S
C664 C673 1.390 . S
C665 C664 1.387 . S
C665 C667 1.387 . S
H666 C673 0.950 . S
C667 C665 1.387 . S
C667 C669 1.390 . S
C667 H671 0.950 . S
H668 C664 0.950 . S
C669 C667 1.390 . S
C669 C670 1.387 . S
C669 H672 0.950 . S
C670 C669 1.387 . S
C670 C673 1.387 . S
H671 C667 0.950 . S
H672 C669 0.950 . S
C673 C664 1.390 . S
C673 H666 0.950 . S
C673 C670 1.387 . S
C674 C675 1.387 1_545 S
C674 H678 0.950 . S
C674 C683 1.390 . S
C675 C674 1.387 1_565 S
C675 C677 1.387 . S
H676 C683 0.950 . S
C677 C675 1.387 . S
C677 C679 1.390 . S
C677 H681 0.950 . S
H678 C674 0.950 . S
C679 C677 1.390 . S
C679 C680 1.387 1_565 S
C679 H682 0.950 . S
C680 C679 1.387 1_545 S
C680 C683 1.387 . S
H681 C677 0.950 . S
H682 C679 0.950 . S
C683 C674 1.390 . S
C683 H676 0.950 . S
C683 C680 1.387 . S
C684 C685 1.387 . S
C684 H688 0.950 . S
C684 C693 1.390 . S
C685 C684 1.387 . S
C685 C687 1.387 . S
H686 C693 0.950 . S
C687 C685 1.387 . S
C687 C689 1.390 . S
C687 H691 0.950 . S
H688 C684 0.950 . S
C689 C687 1.390 . S
C689 C690 1.387 . S
C689 H692 0.950 . S
C690 C689 1.387 . S
C690 C693 1.387 . S
H691 C687 0.950 . S
H692 C689 0.950 . S
C693 C684 1.390 . S
C693 H686 0.950 . S
C693 C690 1.387 . S
C694 C695 1.387 1_545 S
C694 H698 0.950 . S
C694 C703 1.390 . S
C695 C694 1.387 1_565 S
C695 C697 1.387 . S
H696 C703 0.950 . S
C697 C695 1.387 . S
C697 C699 1.390 . S
C697 H701 0.950 . S
H698 C694 0.950 . S
C699 C697 1.390 . S
C699 C700 1.387 1_565 S
C699 H702 0.950 . S
C700 C699 1.387 1_545 S
C700 C703 1.387 . S
H701 C697 0.950 . S
H702 C699 0.950 . S
C703 C694 1.390 . S
C703 H696 0.950 . S
C703 C700 1.387 . S
C704 C705 1.387 . S
C704 H708 0.950 . S
C704 C713 1.390 . S
C705 C704 1.387 . S
C705 C707 1.387 . S
H706 C713 0.950 1_554 S
C707 C705 1.387 . S
C707 C709 1.390 . S
C707 H711 0.950 . S
H708 C704 0.950 . S
C709 C707 1.390 . S
C709 C710 1.387 1_556 S
C709 H712 0.950 . S
C710 C709 1.387 1_554 S
C710 C713 1.387 1_554 S
H711 C707 0.950 . S
H712 C709 0.950 . S
C713 C704 1.390 . S
C713 H706 0.950 1_556 S
C713 C710 1.387 1_556 S
C714 C715 1.387 . S
C714 H718 0.950 . S
C714 C723 1.390 . S
C715 C714 1.387 . S
C715 C717 1.387 . S
H716 C723 0.950 . S
C717 C715 1.387 . S
C717 C719 1.390 . S
C717 H721 0.950 . S
H718 C714 0.950 . S
C719 C717 1.390 . S
C719 C720 1.387 . S
C719 H722 0.950 . S
C720 C719 1.387 . S
C720 C723 1.387 . S
H721 C717 0.950 . S
H722 C719 0.950 . S
C723 C714 1.390 . S
C723 H716 0.950 . S
C723 C720 1.387 . S
C724 C725 1.387 . S
C724 H728 0.950 . S
C724 C733 1.390 . S
C725 C724 1.387 . S
C725 C727 1.387 . S
H726 C733 0.950 . S
C727 C725 1.387 . S
C727 C729 1.390 . S
C727 H731 0.950 . S
H728 C724 0.950 . S
C729 C727 1.390 . S
C729 C730 1.387 . S
C729 H732 0.950 . S
C730 C729 1.387 . S
C730 C733 1.387 . S
H731 C727 0.950 . S
H732 C729 0.950 . S
C733 C724 1.390 . S
C733 H726 0.950 . S
C733 C730 1.387 . S
C734 C735 1.387 . S
C734 H738 0.950 . S
C734 C743 1.390 . S
C735 C734 1.387 . S
C735 C737 1.387 . S
H736 C743 0.950 . S
C737 C735 1.387 . S
C737 C739 1.390 . S
C737 H741 0.950 . S
H738 C734 0.950 . S
C739 C737 1.390 . S
C739 C740 1.387 . S
C739 H742 0.950 . S
C740 C739 1.387 . S
C740 C743 1.387 . S
H741 C737 0.950 . S
H742 C739 0.950 . S
C743 C734 1.390 . S
C743 H736 0.950 . S
C743 C740 1.387 . S
C744 C745 1.387 . S
C744 H748 0.950 . S
C744 C753 1.390 . S
C745 C744 1.387 . S
C745 C747 1.387 . S
H746 C753 0.950 . S
C747 C745 1.387 . S
C747 C749 1.390 . S
C747 H751 0.950 . S
H748 C744 0.950 . S
C749 C747 1.390 . S
C749 C750 1.387 1_554 S
C749 H752 0.934 1_554 S
C750 C749 1.387 1_556 S
C750 C753 1.387 1_556 S
H751 C747 0.950 . S
H752 C749 0.934 1_556 S
C753 C744 1.390 . S
C753 H746 0.950 . S
C753 C750 1.387 1_554 S
C754 C755 1.387 . S
C754 H758 0.950 . S
C754 C763 1.390 . S
C755 C754 1.387 . S
C755 C757 1.387 . S
H756 C763 0.950 . S
C757 C755 1.387 . S
C757 C759 1.390 . S
C757 H761 0.950 . S
H758 C754 0.950 . S
C759 C757 1.390 . S
C759 C760 1.387 . S
C759 H762 0.950 . S
C760 C759 1.387 . S
C760 C763 1.387 . S
H761 C757 0.950 . S
H762 C759 0.950 . S
C763 C754 1.390 . S
C763 H756 0.950 . S
C763 C760 1.387 . S
C764 C765 1.387 . S
C764 H768 0.950 . S
C764 C773 1.390 . S
C765 C764 1.387 . S
C765 C767 1.387 . S
H766 C773 0.950 . S
C767 C765 1.387 . S
C767 C769 1.390 . S
C767 H771 0.950 . S
H768 C764 0.950 . S
C769 C767 1.390 . S
C769 C770 1.387 . S
C769 H772 0.950 . S
C770 C769 1.387 . S
C770 C773 1.387 . S
H771 C767 0.950 . S
H772 C769 0.950 . S
C773 C764 1.390 . S
C773 H766 0.950 . S
C773 C770 1.387 . S
C774 C775 1.387 . S
C774 H778 0.950 . S
C774 C783 1.390 . S
C775 C774 1.387 . S
C775 C777 1.387 . S
H776 C783 0.950 . S
C777 C775 1.387 . S
C777 C779 1.390 . S
C777 H781 0.950 . S
H778 C774 0.950 . S
C779 C777 1.390 . S
C779 C780 1.387 . S
C779 H782 0.950 . S
C780 C779 1.387 . S
C780 C783 1.387 . S
H781 C777 0.950 . S
H782 C779 0.950 . S
C783 C774 1.390 . S
C783 H776 0.950 . S
C783 C780 1.387 . S
C784 C785 1.387 . S
C784 H788 0.950 . S
C784 C793 1.390 . S
C785 C784 1.387 . S
C785 C787 1.387 . S
H786 C793 0.950 . S
C787 C785 1.387 . S
C787 C789 1.390 . S
C787 H791 0.950 . S
H788 C784 0.950 . S
C789 C787 1.390 . S
C789 C790 1.387 . S
C789 H792 0.950 . S
C790 C789 1.387 . S
C790 C793 1.387 . S
H791 C787 0.950 . S
H792 C789 0.950 . S
C793 C784 1.390 . S
C793 H786 0.950 . S
C793 C790 1.387 . S
C794 C795 1.387 1_565 S
C794 H798 0.950 . S
C794 C803 1.390 . S
C795 C794 1.387 1_545 S
C795 C797 1.387 . S
H796 C803 0.950 . S
C797 C795 1.387 . S
C797 C799 1.390 . S
C797 H801 0.950 . S
H798 C794 0.950 . S
C799 C797 1.390 . S
C799 C800 1.387 . S
C799 H802 0.950 . S
C800 C799 1.387 . S
C800 C803 1.387 1_545 S
H801 C797 0.950 . S
H802 C799 0.950 . S
C803 C794 1.390 . S
C803 H796 0.950 . S
C803 C800 1.387 1_565 S
C804 C805 1.387 . S
C804 H808 0.950 . S
C804 C813 1.390 . S
C805 C804 1.387 . S
C805 C807 1.387 . S
H806 C813 0.950 . S
C807 C805 1.387 . S
C807 C809 1.390 . S
C807 H811 0.950 . S
H808 C804 0.950 . S
C809 C807 1.390 . S
C809 C810 1.387 1_556 S
C809 H812 0.927 1_556 S
C810 C809 1.387 1_554 S
C810 C813 1.387 1_554 S
H811 C807 0.950 . S
H812 C809 0.927 1_554 S
C813 C804 1.390 . S
C813 H806 0.950 . S
C813 C810 1.387 1_556 S
C814 C815 1.387 . S
C814 H818 0.950 . S
C814 C823 1.390 . S
C815 C814 1.387 . S
C815 C817 1.387 1_565 S
H816 C823 0.950 . S
C817 C815 1.387 1_545 S
C817 C819 1.390 . S
C817 H821 0.950 . S
H818 C814 0.950 . S
C819 C817 1.390 . S
C819 C820 1.387 1_545 S
C819 H822 0.950 . S
C820 C819 1.387 1_565 S
C820 C823 1.387 . S
H821 C817 0.950 . S
H822 C819 0.950 . S
C823 C814 1.390 . S
C823 H816 0.950 . S
C823 C820 1.387 . S
C824 C825 1.387 . S
C824 H828 0.950 . S
C824 C833 1.390 . S
C825 C824 1.387 . S
C825 C827 1.387 . S
H826 C833 0.950 . S
C827 C825 1.387 . S
C827 C829 1.390 . S
C827 H831 0.950 . S
H828 C824 0.950 . S
C829 C827 1.390 . S
C829 C830 1.387 . S
C829 H832 0.950 . S
C830 C829 1.387 . S
C830 C833 1.387 . S
H831 C827 0.950 . S
H832 C829 0.950 . S
C833 C824 1.390 . S
C833 H826 0.950 . S
C833 C830 1.387 . S
C834 C835 1.387 . S
C834 H838 0.950 . S
C834 C843 1.390 . S
C835 C834 1.387 . S
C835 C837 1.387 1_565 S
H836 C843 0.950 . S
C837 C835 1.387 1_545 S
C837 C839 1.390 . S
C837 H841 0.950 . S
H838 C834 0.950 . S
C839 C837 1.390 . S
C839 C840 1.387 1_545 S
C839 H842 0.950 . S
C840 C839 1.387 1_565 S
C840 C843 1.387 . S
H841 C837 0.950 . S
H842 C839 0.950 . S
C843 C834 1.390 . S
C843 H836 0.950 . S
C843 C840 1.387 . S
C844 C845 1.387 . S
C844 H848 0.950 . S
C844 C853 1.390 . S
C845 C844 1.387 . S
C845 C847 1.387 . S
H846 C853 0.950 . S
C847 C845 1.387 . S
C847 C849 1.390 . S
C847 H851 0.950 . S
H848 C844 0.950 . S
C849 C847 1.390 . S
C849 C850 1.387 1_554 S
C849 H852 0.950 1_554 S
C850 C849 1.387 1_556 S
C850 C853 1.387 1_556 S
H851 C847 0.950 . S
H852 C849 0.950 1_556 S
C853 C844 1.390 . S
C853 H846 0.950 . S
C853 C850 1.387 1_554 S
C854 C855 1.387 1_565 S
C854 H858 0.950 . S
C854 C863 1.390 . S
C855 C854 1.387 1_545 S
C855 C857 1.387 . S
H856 C863 0.950 . S
C857 C855 1.387 . S
C857 C859 1.390 . S
C857 H861 0.950 . S
H858 C854 0.950 . S
C859 C857 1.390 . S
C859 C860 1.387 . S
C859 H862 0.950 . S
C860 C859 1.387 . S
C860 C863 1.387 1_545 S
H861 C857 0.950 . S
H862 C859 0.950 . S
C863 C854 1.390 . S
C863 H856 0.950 . S
C863 C860 1.387 1_565 S
C864 C865 1.387 1_554 S
C864 H868 0.950 . S
C864 C873 1.390 . S
C865 C864 1.387 1_556 S
C865 C867 1.387 1_565 S
H866 C873 0.950 . S
C867 C865 1.387 1_545 S
C867 C869 1.390 . S
C867 H871 0.950 . S
H868 C864 0.950 . S
C869 C867 1.390 . S
C869 C870 1.387 1_556 S
C869 H872 0.950 . S
C870 C869 1.387 1_554 S
C870 C873 1.387 1_545 S
H871 C867 0.950 . S
H872 C869 0.950 . S
C873 C864 1.390 . S
C873 H866 0.950 . S
C873 C870 1.387 1_565 S
C874 C875 1.387 . S
C874 H878 0.950 . S
C874 C883 1.390 . S
C875 C874 1.387 . S
C875 C877 1.387 . S
H876 C883 0.950 . S
C877 C875 1.387 . S
C877 C879 1.390 . S
C877 H881 0.950 . S
H878 C874 0.950 . S
C879 C877 1.390 . S
C879 C880 1.387 . S
C879 H882 0.950 . S
C880 C879 1.387 . S
C880 C883 1.387 . S
H881 C877 0.950 . S
H882 C879 0.950 . S
C883 C874 1.390 . S
C883 H876 0.950 . S
C883 C880 1.387 . S
C884 C885 1.387 1_465 S
C884 H888 0.950 . S
C884 C893 1.390 . S
C885 C884 1.387 1_645 S
C885 C887 1.387 . S
H886 C893 0.950 . S
C887 C885 1.387 . S
C887 C889 1.390 . S
C887 H891 0.950 . S
H888 C884 0.950 . S
C889 C887 1.390 . S
C889 C890 1.387 1_645 S
C889 H892 0.950 . S
C890 C889 1.387 1_465 S
C890 C893 1.387 . S
H891 C887 0.950 . S
H892 C889 0.950 . S
C893 C884 1.390 . S
C893 H886 0.950 . S
C893 C890 1.387 . S
C894 C895 1.387 . S
C894 H898 0.950 . S
C894 C903 1.390 . S
C895 C894 1.387 . S
C895 C897 1.387 . S
H896 C903 0.950 . S
C897 C895 1.387 . S
C897 C899 1.390 . S
C897 H901 0.950 . S
H898 C894 0.950 . S
C899 C897 1.390 . S
C899 C900 1.387 . S
C899 H902 0.950 . S
C900 C899 1.387 . S
C900 C903 1.387 . S
H901 C897 0.950 . S
H902 C899 0.950 . S
C903 C894 1.390 . S
C903 H896 0.950 . S
C903 C900 1.387 . S
C904 C905 1.387 . S
C904 H908 0.950 . S
C904 C913 1.390 . S
C905 C904 1.387 . S
C905 C907 1.387 . S
H906 C913 0.950 . S
C907 C905 1.387 . S
C907 C909 1.390 . S
C907 H911 0.950 . S
H908 C904 0.950 . S
C909 C907 1.390 . S
C909 C910 1.387 . S
C909 H912 0.950 . S
C910 C909 1.387 . S
C910 C913 1.387 . S
H911 C907 0.950 . S
H912 C909 0.950 . S
C913 C904 1.390 . S
C913 H906 0.950 . S
C913 C910 1.387 . S
C914 C915 1.387 . S
C914 H918 0.950 . S
C914 C923 1.390 . S
C915 C914 1.387 . S
C915 C917 1.387 . S
H916 C923 0.950 . S
C917 C915 1.387 . S
C917 C919 1.390 . S
C917 H921 0.950 . S
H918 C914 0.950 . S
C919 C917 1.390 . S
C919 C920 1.387 . S
C919 H922 0.950 . S
C920 C919 1.387 . S
C920 C923 1.387 . S
H921 C917 0.950 . S
H922 C919 0.950 . S
C923 C914 1.390 . S
C923 H916 0.950 . S
C923 C920 1.387 . S
C924 C925 1.387 . S
C924 H928 0.950 . S
C924 C933 1.390 . S
C925 C924 1.387 . S
C925 C927 1.387 1_655 S
H926 C933 0.950 . S
C927 C925 1.387 1_455 S
C927 C929 1.390 . S
C927 H931 0.950 . S
H928 C924 0.950 . S
C929 C927 1.390 . S
C929 C930 1.387 . S
C929 H932 0.950 . S
C930 C929 1.387 . S
C930 C933 1.387 1_455 S
H931 C927 0.950 . S
H932 C929 0.950 . S
C933 C924 1.390 . S
C933 H926 0.950 . S
C933 C930 1.387 1_655 S
C934 C935 1.387 . S
C934 H938 0.950 . S
C934 C943 1.390 . S
C935 C934 1.387 . S
C935 C937 1.387 1_554 S
H936 C943 0.950 . S
C937 C935 1.387 1_556 S
C937 C939 1.390 . S
C937 H941 0.950 . S
H938 C934 0.950 . S
C939 C937 1.390 . S
C939 C940 1.387 . S
C939 H942 0.950 . S
C940 C939 1.387 . S
C940 C943 1.387 1_556 S
H941 C937 0.950 . S
H942 C939 0.950 . S
C943 C934 1.390 . S
C943 H936 0.950 . S
C943 C940 1.387 1_554 S
C944 C945 1.387 . S
C944 H948 0.950 . S
C944 C953 1.390 . S
C945 C944 1.387 . S
C945 C947 1.387 . S
H946 C953 0.950 . S
C947 C945 1.387 . S
C947 C949 1.390 . S
C947 H951 0.950 . S
H948 C944 0.950 . S
C949 C947 1.390 . S
C949 C950 1.387 . S
C949 H952 0.950 . S
C950 C949 1.387 . S
C950 C953 1.387 . S
H951 C947 0.950 . S
H952 C949 0.950 . S
C953 C944 1.390 . S
C953 H946 0.950 . S
C953 C950 1.387 . S
C954 C955 1.387 . S
C954 H958 0.950 . S
C954 C963 1.390 1_455 S
C955 C954 1.387 . S
C955 C957 1.387 . S
H956 C963 0.950 . S
C957 C955 1.387 . S
C957 C959 1.390 1_455 S
C957 H961 0.950 . S
H958 C954 0.950 . S
C959 C957 1.390 1_655 S
C959 C960 1.387 . S
C959 H962 0.950 . S
C960 C959 1.387 . S
C960 C963 1.387 . S
H961 C957 0.950 . S
H962 C959 0.950 . S
C963 C954 1.390 1_655 S
C963 H956 0.950 . S
C963 C960 1.387 . S
C964 C965 1.387 . S
C964 H968 0.950 . S
C964 C973 1.390 . S
C965 C964 1.387 . S
C965 C967 1.387 . S
H966 C973 0.950 . S
C967 C965 1.387 . S
C967 C969 1.390 . S
C967 H971 0.950 . S
H968 C964 0.950 . S
C969 C967 1.390 . S
C969 C970 1.387 . S
C969 H972 0.950 . S
C970 C969 1.387 . S
C970 C973 1.387 . S
H971 C967 0.950 . S
H972 C969 0.950 . S
C973 C964 1.390 . S
C973 H966 0.950 . S
C973 C970 1.387 . S
C974 C975 1.387 . S
C974 H978 0.950 . S
C974 C983 1.390 . S
C975 C974 1.387 . S
C975 C977 1.387 . S
H976 C983 0.950 . S
C977 C975 1.387 . S
C977 C979 1.390 . S
C977 H981 0.950 . S
H978 C974 0.950 . S
C979 C977 1.390 . S
C979 C980 1.387 . S
C979 H982 0.950 . S
C980 C979 1.387 . S
C980 C983 1.387 . S
H981 C977 0.950 . S
H982 C979 0.950 . S
C983 C974 1.390 . S
C983 H976 0.950 . S
C983 C980 1.387 . S
C984 C985 1.387 . S
C984 H988 0.950 . S
C984 C993 1.390 . S
C985 C984 1.387 . S
C985 C987 1.387 . S
H986 C993 0.950 . S
C987 C985 1.387 . S
C987 C989 1.390 . S
C987 H991 0.950 . S
H988 C984 0.950 . S
C989 C987 1.390 . S
C989 C990 1.387 . S
C989 H992 0.950 . S
C990 C989 1.387 . S
C990 C993 1.387 . S
H991 C987 0.950 . S
H992 C989 0.950 . S
C993 C984 1.390 . S
C993 H986 0.950 . S
C993 C990 1.387 . S
C994 C995 1.387 . S
C994 H998 0.950 . S
C994 C1003 1.390 1_455 S
C995 C994 1.387 . S
C995 C997 1.387 . S
H996 C1003 0.950 . S
C997 C995 1.387 . S
C997 C999 1.390 . S
C997 H1001 0.950 . S
H998 C994 0.950 . S
C999 C997 1.390 . S
C999 C1000 1.387 1_455 S
C999 H1002 0.950 . S
C1000 C999 1.387 1_655 S
C1000 C1003 1.387 . S
H1001 C997 0.950 . S
H1002 C999 0.950 . S
C1003 C994 1.390 1_655 S
C1003 H996 0.950 . S
C1003 C1000 1.387 . S
C1004 C1005 1.387 . S
C1004 H1008 0.950 . S
C1004 C1013 1.390 . S
C1005 C1004 1.387 . S
C1005 C1007 1.387 . S
H1006 C1013 0.950 . S
C1007 C1005 1.387 . S
C1007 C1009 1.390 . S
C1007 H1011 0.950 . S
H1008 C1004 0.950 . S
C1009 C1007 1.390 . S
C1009 C1010 1.387 . S
C1009 H1012 0.950 . S
C1010 C1009 1.387 . S
C1010 C1013 1.387 . S
H1011 C1007 0.950 . S
H1012 C1009 0.950 . S
C1013 C1004 1.390 . S
C1013 H1006 0.950 . S
C1013 C1010 1.387 . S
C1014 C1015 1.387 . S
C1014 H1018 0.950 . S
C1014 C1023 1.390 . S
C1015 C1014 1.387 . S
C1015 C1017 1.387 . S
H1016 C1023 0.950 . S
C1017 C1015 1.387 . S
C1017 C1019 1.390 . S
C1017 H1021 0.950 . S
H1018 C1014 0.950 . S
C1019 C1017 1.390 . S
C1019 C1020 1.387 . S
C1019 H1022 0.950 . S
C1020 C1019 1.387 . S
C1020 C1023 1.387 . S
H1021 C1017 0.950 . S
H1022 C1019 0.950 . S
C1023 C1014 1.390 . S
C1023 H1016 0.950 . S
C1023 C1020 1.387 . S
C1024 C1025 1.387 . S
C1024 H1028 0.950 . S
C1024 C1033 1.390 . S
C1025 C1024 1.387 . S
C1025 C1027 1.387 . S
H1026 C1033 0.950 . S
C1027 C1025 1.387 . S
C1027 C1029 1.390 . S
C1027 H1031 0.950 . S
H1028 C1024 0.950 . S
C1029 C1027 1.390 . S
C1029 C1030 1.387 . S
C1029 H1032 0.950 . S
C1030 C1029 1.387 . S
C1030 C1033 1.387 . S
H1031 C1027 0.950 . S
H1032 C1029 0.950 . S
C1033 C1024 1.390 . S
C1033 H1026 0.950 . S
C1033 C1030 1.387 . S
C1034 C1035 1.387 1_565 S
C1034 H1038 0.950 . S
C1034 C1043 1.390 1_565 S
C1035 C1034 1.387 1_545 S
C1035 C1037 1.387 . S
H1036 C1043 0.950 . S
C1037 C1035 1.387 . S
C1037 C1039 1.390 . S
C1037 H1041 0.950 . S
H1038 C1034 0.950 . S
C1039 C1037 1.390 . S
C1039 C1040 1.387 . S
C1039 H1042 0.950 . S
C1040 C1039 1.387 . S
C1040 C1043 1.387 . S
H1041 C1037 0.950 . S
H1042 C1039 0.950 . S
C1043 C1034 1.390 1_545 S
C1043 H1036 0.950 . S
C1043 C1040 1.387 . S
C1044 C1045 1.387 . S
C1044 H1048 0.950 . S
C1044 C1053 1.390 . S
C1045 C1044 1.387 . S
C1045 C1047 1.387 . S
H1046 C1053 0.950 . S
C1047 C1045 1.387 . S
C1047 C1049 1.390 . S
C1047 H1051 0.950 . S
H1048 C1044 0.950 . S
C1049 C1047 1.390 . S
C1049 C1050 1.387 . S
C1049 H1052 0.950 . S
C1050 C1049 1.387 . S
C1050 C1053 1.387 . S
H1051 C1047 0.950 . S
H1052 C1049 0.950 . S
C1053 C1044 1.390 . S
C1053 H1046 0.950 . S
C1053 C1050 1.387 . S
C1054 C1055 1.387 . S
C1054 H1058 0.950 . S
C1054 C1063 1.390 1_455 S
C1055 C1054 1.387 . S
C1055 C1057 1.387 . S
H1056 C1063 0.950 . S
C1057 C1055 1.387 . S
C1057 C1059 1.390 1_455 S
C1057 H1061 0.950 . S
H1058 C1054 0.950 . S
C1059 C1057 1.390 1_655 S
C1059 C1060 1.387 . S
C1059 H1062 0.950 1_565 S
C1060 C1059 1.387 . S
C1060 C1063 1.387 . S
H1061 C1057 0.950 . S
H1062 C1059 0.950 1_545 S
C1063 C1054 1.390 1_655 S
C1063 H1056 0.950 . S
C1063 C1060 1.387 . S
C1064 C1065 1.387 . S
C1064 H1068 0.950 . S
C1064 C1073 1.390 . S
C1065 C1064 1.387 . S
C1065 C1067 1.387 . S
H1066 C1073 0.950 . S
C1067 C1065 1.387 . S
C1067 C1069 1.390 . S
C1067 H1071 0.950 . S
H1068 C1064 0.950 . S
C1069 C1067 1.390 . S
C1069 C1070 1.387 . S
C1069 H1072 0.950 . S
C1070 C1069 1.387 . S
C1070 C1073 1.387 . S
H1071 C1067 0.950 . S
H1072 C1069 0.950 . S
C1073 C1064 1.390 . S
C1073 H1066 0.950 . S
C1073 C1070 1.387 . S
C1074 C1075 1.387 . S
C1074 H1078 0.950 . S
C1074 C1083 1.390 . S
C1075 C1074 1.387 . S
C1075 C1077 1.388 1_565 S
H1076 C1083 0.950 . S
C1077 C1075 1.388 1_545 S
C1077 C1079 1.391 1_545 S
C1077 H1081 0.948 . S
H1078 C1074 0.950 . S
C1079 C1077 1.391 1_565 S
C1079 C1080 1.387 . S
C1079 H1082 0.950 . S
C1080 C1079 1.387 . S
C1080 C1083 1.387 . S
H1081 C1077 0.948 . S
H1082 C1079 0.950 . S
C1083 C1074 1.390 . S
C1083 H1076 0.950 . S
C1083 C1080 1.387 . S
C1084 C1085 1.387 . S
C1084 H1088 0.950 . S
C1084 C1093 1.390 . S
C1085 C1084 1.387 . S
C1085 C1087 1.387 . S
H1086 C1093 0.950 . S
C1087 C1085 1.387 . S
C1087 C1089 1.390 . S
C1087 H1091 0.950 . S
H1088 C1084 0.950 . S
C1089 C1087 1.390 . S
C1089 C1090 1.387 . S
C1089 H1092 0.950 . S
C1090 C1089 1.387 . S
C1090 C1093 1.387 . S
H1091 C1087 0.950 . S
H1092 C1089 0.950 . S
C1093 C1084 1.390 . S
C1093 H1086 0.950 . S
C1093 C1090 1.387 . S
C1094 C1095 1.387 . S
C1094 H1098 0.950 . S
C1094 C1103 1.390 1_455 S
C1095 C1094 1.387 . S
C1095 C1097 1.387 . S
H1096 C1103 0.950 . S
C1097 C1095 1.387 . S
C1097 C1099 1.390 1_455 S
C1097 H1101 0.950 1_545 S
H1098 C1094 0.950 . S
C1099 C1097 1.390 1_655 S
C1099 C1100 1.387 . S
C1099 H1102 0.950 . S
C1100 C1099 1.387 . S
C1100 C1103 1.387 . S
H1101 C1097 0.950 1_565 S
H1102 C1099 0.950 . S
C1103 C1094 1.390 1_655 S
C1103 H1096 0.950 . S
C1103 C1100 1.387 . S
C545 C255 2.481 . S
C550 C22 2.217 . S
C555 C425 2.481 . S
C560 C49 2.219 . S
C565 C90 2.216 . S
C570 C187 2.480 . S
C575 C493 2.479 . S
C580 C124 2.217 1_455 S
C585 C119 2.481 . S
C590 C158 2.219 . S
C595 C185 2.219 . S
C600 C289 2.481 . S
C605 C219 2.216 . S
C610 C51 2.479 . S
C615 C357 2.479 . S
C620 C260 2.216 1_655 S
C625 C527 2.479 . S
C630 C294 2.217 . S
C635 C321 2.215 1_655 S
C640 C153 2.480 . S
C645 C459 2.479 . S
C650 C362 2.217 . S
C655 C221 2.479 . S
C660 C396 2.215 . S
C665 C391 2.480 . S
C670 C423 2.218 . S
C675 C457 2.216 1_455 S
C680 C17 2.479 . S
C685 C498 2.217 . S
C690 C323 2.479 . S
C695 C85 2.481 . S
C700 C532 2.219 . S
C705 C312 0.877 . S
C710 C6 0.882 . S
C715 C62 0.881 . S
C720 C368 0.876 . S
C725 C74 0.881 . S
C730 C402 0.879 . S
C735 C108 0.881 . S
C740 C300 0.879 . S
C745 C448 0.879 . S
C750 C142 0.881 . S
C755 C198 0.882 . S
C760 C504 0.878 . S
C765 C538 0.877 . S
C770 C232 0.880 . S
C775 C244 0.881 . S
C780 C414 0.876 . S
C785 C40 0.877 . S
C790 C278 0.880 . S
C795 C96 0.878 . S
C800 C334 0.882 . S
C805 C130 0.878 . S
C810 C346 0.881 . S
C815 C28 0.876 . S
C820 C380 0.881 . S
C825 C436 0.880 . S
C830 C176 0.878 . S
C835 C210 0.879 . S
C840 C470 0.881 . S
C845 C266 0.877 . S
C850 C482 0.882 . S
C855 C516 0.880 . S
C860 C164 0.877 . S
C865 C137 2.831 . S
C870 C1 2.831 . S
C875 C37 2.829 . S
C880 C445 2.829 . S
C885 C207 2.830 . S
C890 C69 2.830 . S
C895 C511 2.832 . S
C900 C103 2.832 . S
C905 C309 2.832 . S
C910 C173 2.832 . S
C915 C239 2.831 . S
C920 C375 2.831 . S
C925 C273 2.830 . S
C930 C411 2.830 . S
C935 C341 2.832 . S
C940 C477 2.832 . S
C945 C241 0.768 . S
C950 C15 0.773 . S
C955 C409 0.768 . S
C960 C56 0.773 . S
C965 C83 0.769 . S
C970 C171 0.772 . S
C975 C117 0.768 . S
C980 C479 0.772 . S
C985 C151 0.770 . S
C990 C105 0.766 . S
C995 C192 0.773 . S
C1000 C275 0.774 . S
C1005 C226 0.768 . S
C1010 C35 0.772 . S
C1015 C343 0.772 . S
C1020 C253 0.774 . S
C1025 C287 0.773 . S
C1030 C513 0.768 . S
C1035 C139 0.773 1_545 S
C1040 C328 0.770 . S
C1045 C443 0.769 . S
C1050 C355 0.774 . S
C1055 C389 0.772 . S
C1060 C205 0.767 1_565 S
C1065 C377 0.771 . S
C1070 C430 0.768 . S
C1075 C3 0.773 1_565 S
C1080 C464 0.770 . S
C1085 C491 0.774 . S
C1090 C307 0.772 . S
C1095 C71 0.773 1_545 S
C1100 C525 0.769 . S
