# Generated by pormake.
# Topology wjd, (6)-cn, num edge types: 1
# Building blocks:
#     Node 0, Type 0, BuildingBlock: KUMBOL_clean_sbu_1, # of connection points: 6
#     Node 1, Type 0, BuildingBlock: KUMBOL_clean_sbu_1, # of connection points: 6
#     Node 2, Type 0, BuildingBlock: KUMBOL_clean_sbu_1, # of connection points: 6
#     Node 3, Type 0, BuildingBlock: KUMBOL_clean_sbu_1, # of connection points: 6
#     Node 4, Type 0, BuildingBlock: KUMBOL_clean_sbu_1, # of connection points: 6
#     Node 5, Type 0, BuildingBlock: KUMBOL_clean_sbu_1, # of connection points: 6
#     Node 6, Type 0, BuildingBlock: KUMBOL_clean_sbu_1, # of connection points: 6
#     Node 7, Type 0, BuildingBlock: KUMBOL_clean_sbu_1, # of connection points: 6
#     Node 8, Type 0, BuildingBlock: KUMBOL_clean_sbu_1, # of connection points: 6
#     Node 9, Type 0, BuildingBlock: KUMBOL_clean_sbu_1, # of connection points: 6
#     Node 10, Type 0, BuildingBlock: KUMBOL_clean_sbu_1, # of connection points: 6
#     Node 11, Type 0, BuildingBlock: KUMBOL_clean_sbu_1, # of connection points: 6
#     Edge 12, Type (0, 0), BuildingBlock: KIFKEQ_clean_linker_1, # of connection points: 2
#     Edge 13, Type (0, 0), BuildingBlock: KIFKEQ_clean_linker_1, # of connection points: 2
#     Edge 14, Type (0, 0), BuildingBlock: KIFKEQ_clean_linker_1, # of connection points: 2
#     Edge 15, Type (0, 0), BuildingBlock: KIFKEQ_clean_linker_1, # of connection points: 2
#     Edge 16, Type (0, 0), BuildingBlock: KIFKEQ_clean_linker_1, # of connection points: 2
#     Edge 17, Type (0, 0), BuildingBlock: KIFKEQ_clean_linker_1, # of connection points: 2
#     Edge 18, Type (0, 0), BuildingBlock: KIFKEQ_clean_linker_1, # of connection points: 2
#     Edge 19, Type (0, 0), BuildingBlock: KIFKEQ_clean_linker_1, # of connection points: 2
#     Edge 20, Type (0, 0), BuildingBlock: KIFKEQ_clean_linker_1, # of connection points: 2
#     Edge 21, Type (0, 0), BuildingBlock: KIFKEQ_clean_linker_1, # of connection points: 2
#     Edge 22, Type (0, 0), BuildingBlock: KIFKEQ_clean_linker_1, # of connection points: 2
#     Edge 23, Type (0, 0), BuildingBlock: KIFKEQ_clean_linker_1, # of connection points: 2
#     Edge 24, Type (0, 0), BuildingBlock: KIFKEQ_clean_linker_1, # of connection points: 2
#     Edge 25, Type (0, 0), BuildingBlock: KIFKEQ_clean_linker_1, # of connection points: 2
#     Edge 26, Type (0, 0), BuildingBlock: KIFKEQ_clean_linker_1, # of connection points: 2
#     Edge 27, Type (0, 0), BuildingBlock: KIFKEQ_clean_linker_1, # of connection points: 2
#     Edge 28, Type (0, 0), BuildingBlock: KIFKEQ_clean_linker_1, # of connection points: 2
#     Edge 29, Type (0, 0), BuildingBlock: KIFKEQ_clean_linker_1, # of connection points: 2
#     Edge 30, Type (0, 0), BuildingBlock: KIFKEQ_clean_linker_1, # of connection points: 2
#     Edge 31, Type (0, 0), BuildingBlock: KIFKEQ_clean_linker_1, # of connection points: 2
#     Edge 32, Type (0, 0), BuildingBlock: KIFKEQ_clean_linker_1, # of connection points: 2
#     Edge 33, Type (0, 0), BuildingBlock: KIFKEQ_clean_linker_1, # of connection points: 2
#     Edge 34, Type (0, 0), BuildingBlock: KIFKEQ_clean_linker_1, # of connection points: 2
#     Edge 35, Type (0, 0), BuildingBlock: KIFKEQ_clean_linker_1, # of connection points: 2
#     Edge 36, Type (0, 0), BuildingBlock: KIFKEQ_clean_linker_1, # of connection points: 2
#     Edge 37, Type (0, 0), BuildingBlock: KIFKEQ_clean_linker_1, # of connection points: 2
#     Edge 38, Type (0, 0), BuildingBlock: KIFKEQ_clean_linker_1, # of connection points: 2
#     Edge 39, Type (0, 0), BuildingBlock: KIFKEQ_clean_linker_1, # of connection points: 2
#     Edge 40, Type (0, 0), BuildingBlock: KIFKEQ_clean_linker_1, # of connection points: 2
#     Edge 41, Type (0, 0), BuildingBlock: KIFKEQ_clean_linker_1, # of connection points: 2
#     Edge 42, Type (0, 0), BuildingBlock: KIFKEQ_clean_linker_1, # of connection points: 2
#     Edge 43, Type (0, 0), BuildingBlock: KIFKEQ_clean_linker_1, # of connection points: 2
#     Edge 44, Type (0, 0), BuildingBlock: KIFKEQ_clean_linker_1, # of connection points: 2
#     Edge 45, Type (0, 0), BuildingBlock: KIFKEQ_clean_linker_1, # of connection points: 2
#     Edge 46, Type (0, 0), BuildingBlock: KIFKEQ_clean_linker_1, # of connection points: 2
#     Edge 47, Type (0, 0), BuildingBlock: KIFKEQ_clean_linker_1, # of connection points: 2
# Relax obj value: 0.072
# Max RMSD: 0.185
# Mean RMSD: 0.185
data_MOF--net-wjd--node1-KUMBOL_clean_sbu_1--edge1-KIFKEQ_clean_linker_1
_symmetry_space_group_name_H-M    P1
_symmetry_Int_Tables_number       1
_symmetry_cell_setting            triclinic
loop_
_symmetry_equiv_pos_as_xyz
'x, y, z'
_cell_length_a     39.548376
_cell_length_b     39.500233
_cell_length_c     55.063109
_cell_angle_alpha  89.961834
_cell_angle_beta   90.018212
_cell_angle_gamma 119.98049
loop_
_atom_site_label
_atom_site_type_symbol
_atom_site_fract_x
_atom_site_fract_y
_atom_site_fract_z
_atom_type_partial_charge
C0 C 0.3287 0.21731 0.08577 0.0
C1 C 0.31402 0.24893 0.11855 0.0
C2 C 0.33239 0.22848 0.11001 0.0
C3 C 0.29125 0.25708 0.10261 0.0
C4 C 0.30622 0.22577 0.06965 0.0
C5 C 0.28741 0.24558 0.07823 0.0
N6 N 0.34635 0.19719 0.07812 0.0
C7 C 0.34374 0.18571 0.05452 0.0
C8 C 0.30303 0.21371 0.04544 0.0
C9 C 0.322 0.19373 0.03784 0.0
Gd10 Gd 0.32293 0.07814 0.13896 0.0
Gd11 Gd 0.38175 0.18471 0.10734 0.0
N12 N 0.3538 0.21923 0.1252 0.0
C13 C 0.31942 0.26097 0.14281 0.0
C14 C 0.36174 0.23381 0.14824 0.0
C15 C 0.34396 0.25398 0.15759 0.0
H16 H 0.38266 0.23117 0.15933 0.0
H17 H 0.34973 0.26471 0.17607 0.0
H18 H 0.34886 0.03893 0.09365 0.0
H19 H 0.35863 0.17057 0.04851 0.0
H20 H 0.38073 0.99925 0.08889 0.0
H21 H 0.30576 0.2767 0.15009 0.0
H22 H 0.2767 0.2725 0.10892 0.0
H23 H 0.31672 0.08958 0.19857 0.0
H24 H 0.28604 0.21969 0.03249 0.0
H25 H 0.31986 0.18449 0.01913 0.0
H26 H 0.40798 0.97772 0.1707 0.0
H27 H 0.26982 0.25216 0.06615 0.0
H28 H 0.37074 0.03352 0.2355 0.0
H29 H 0.33752 0.07271 0.23654 0.0
N30 N 0.33983 0.0623 0.17609 0.0
C31 C 0.35759 0.04048 0.17494 0.0
C32 C 0.33204 0.07336 0.19785 0.0
C33 C 0.3621 0.04132 0.21871 0.0
C34 C 0.34339 0.06338 0.21944 0.0
C35 C 0.36919 0.02933 0.19628 0.0
H36 H 0.39657 0.99785 0.21075 0.0
N37 N 0.35389 0.04171 0.13205 0.0
C38 C 0.36424 0.02931 0.15232 0.0
C39 C 0.38856 0.99582 0.12738 0.0
C40 C 0.38234 1.00643 0.1505 0.0
C41 C 0.35874 0.0305 0.10953 0.0
C42 C 0.37651 1.00774 0.10682 0.0
O43 O 0.31561 0.14876 0.10529 0.0
O44 O 0.30072 0.12058 0.14266 0.0
O45 O 0.27089 0.03248 0.12119 0.0
O46 O 0.27511 0.03358 0.16029 0.0
O47 O 0.39508 0.17903 0.14739 0.0
O48 O 0.33536 0.13086 0.16084 0.0
O49 O 0.38961 0.10528 0.1371 0.0
O50 O 0.4072 0.14563 0.10376 0.0
O51 O 0.43504 0.23799 0.11771 0.0
O52 O 0.42172 0.224 0.07989 0.0
O53 O 0.31574 0.08216 0.09855 0.0
O54 O 0.37146 0.13446 0.08187 0.0
C55 C 0.2921 0.13539 0.12397 0.0
C56 C 0.37094 0.15909 0.16524 0.0
C57 C 0.21307 0.01304 0.14331 0.0
C58 C 0.14245 0.97406 0.13729 0.0
C59 C 0.17189 0.0412 0.15142 0.0
C60 C 0.20861 0.04441 0.1511 0.0
C61 C 0.13903 1.00638 0.14446 0.0
C62 C 0.17977 0.97759 0.13669 0.0
C63 C 0.25249 0.01788 0.14156 0.0
C64 C 0.3939 0.99519 0.17173 0.0
C65 C 0.38742 1.00669 0.19455 0.0
H66 H 0.40242 0.97828 0.1252 0.0
C67 C 0.41597 0.129 0.1213 0.0
C68 C 0.3397 0.09939 0.08025 0.0
C69 C 0.4526 0.29121 0.09097 0.0
C70 C 0.49405 0.36224 0.09654 0.0
C71 C 0.43308 0.33565 0.07397 0.0
C72 C 0.42621 0.29785 0.07761 0.0
C73 C 0.46659 0.36755 0.08331 0.0
C74 C 0.48677 0.32366 0.10033 0.0
C75 C 0.44406 0.25058 0.09551 0.0
H76 H 0.16884 0.06569 0.15729 0.0
H77 H 0.23351 0.07138 0.15705 0.0
H78 H 0.11072 1.00438 0.14526 0.0
H79 H 0.18289 0.95307 0.1309 0.0
H80 H 0.41245 0.34028 0.06363 0.0
H81 H 0.40027 0.2739 0.06977 0.0
H82 H 0.47144 0.39658 0.07962 0.0
H83 H 0.50735 0.31886 0.11064 0.0
C84 C 0.7089 0.67588 0.34195 0.0
C85 C 0.65141 0.64852 0.36772 0.0
C86 C 0.69229 0.66783 0.36498 0.0
C87 C 0.62748 0.63699 0.34701 0.0
C88 C 0.685 0.66463 0.32112 0.0
C89 C 0.64422 0.64499 0.32378 0.0
N90 N 0.74842 0.69499 0.33991 0.0
C91 C 0.76601 0.70465 0.31772 0.0
C92 C 0.70282 0.67368 0.29824 0.0
C93 C 0.74352 0.69393 0.29655 0.0
Gd94 Gd 0.83049 0.6502 0.40477 0.0
Gd95 Gd 0.78327 0.71076 0.37638 0.0
N96 N 0.71619 0.67875 0.3847 0.0
C97 C 0.63583 0.64164 0.39122 0.0
C98 C 0.70128 0.67357 0.40759 0.0
C99 C 0.66091 0.65453 0.41122 0.0
H100 H 0.72032 0.68434 0.42304 0.0
H101 H 0.64917 0.65006 0.42944 0.0
H102 H 0.8868 0.67655 0.35432 0.0
H103 H 0.79741 0.72141 0.31641 0.0
H104 H 0.95649 0.71439 0.34392 0.0
H105 H 0.60456 0.62693 0.3941 0.0
H106 H 0.59599 0.62204 0.34875 0.0
H107 H 0.82577 0.64879 0.46551 0.0
H108 H 0.68543 0.66558 0.28182 0.0
H109 H 0.75759 0.70163 0.27898 0.0
H110 H 0.02125 0.7519 0.42107 0.0
H111 H 0.62538 0.63607 0.30798 0.0
H112 H 0.94253 0.71193 0.49302 0.0
H113 H 0.87128 0.67428 0.50023 0.0
N114 N 0.87084 0.6727 0.43897 0.0
C115 C 0.9099 0.6927 0.43456 0.0
C116 C 0.85679 0.6657 0.46215 0.0
C117 C 0.92271 0.70096 0.47771 0.0
C118 C 0.88249 0.67982 0.48186 0.0
C119 C 0.93691 0.70763 0.45386 0.0
H120 H 0.99823 0.74069 0.46338 0.0
N121 N 0.8961 0.68548 0.39234 0.0
C122 C 0.92292 0.69907 0.41061 0.0
C123 C 0.97528 0.72641 0.3812 0.0
C124 C 0.96324 0.72041 0.40549 0.0
C125 C 0.90776 0.68965 0.36869 0.0
C126 C 0.94742 0.71062 0.36274 0.0
O127 O 0.74535 0.6439 0.376 0.0
O128 O 0.76589 0.62292 0.40902 0.0
O129 O 0.84135 0.60676 0.38836 0.0
O130 O 0.82488 0.60106 0.42616 0.0
O131 O 0.79616 0.71602 0.41649 0.0
O132 O 0.79062 0.65856 0.43138 0.0
O133 O 0.86268 0.71631 0.4085 0.0
O134 O 0.84809 0.73487 0.37262 0.0
O135 O 0.78975 0.76153 0.39565 0.0
O136 O 0.78859 0.76053 0.35629 0.0
O137 O 0.81233 0.64055 0.36452 0.0
O138 O 0.82409 0.70129 0.35328 0.0
C139 C 0.74029 0.61699 0.39209 0.0
C140 C 0.7883 0.6907 0.4341 0.0
C141 C 0.81104 0.5433 0.40447 0.0
C142 C 0.81016 0.48173 0.39672 0.0
C143 C 0.7496 0.48397 0.39708 0.0
C144 C 0.77037 0.52401 0.40198 0.0
C145 C 0.76925 0.46295 0.39443 0.0
C146 C 0.83079 0.52212 0.40187 0.0
C147 C 0.83384 0.58591 0.408 0.0
C148 C 0.99018 0.7353 0.42468 0.0
C149 C 0.97706 0.72892 0.44878 0.0
H150 H 1.00598 0.7428 0.37651 0.0
C151 C 0.87154 0.74217 0.39117 0.0
C152 C 0.81791 0.66649 0.34757 0.0
C153 C 0.76822 0.80037 0.37597 0.0
C154 C 0.76793 0.86197 0.37803 0.0
C155 C 0.70683 0.80002 0.3755 0.0
C156 C 0.72737 0.77977 0.37499 0.0
C157 C 0.72687 0.84083 0.37703 0.0
C158 C 0.78836 0.84131 0.37747 0.0
C159 C 0.79066 0.78003 0.37581 0.0
H160 H 0.71816 0.46917 0.39522 0.0
H161 H 0.75483 0.53999 0.40357 0.0
H162 H 0.75232 0.43188 0.39085 0.0
H163 H 0.86236 0.53738 0.40327 0.0
H164 H 0.67526 0.78406 0.37469 0.0
H165 H 0.71145 0.7482 0.37387 0.0
H166 H 0.71026 0.85584 0.37717 0.0
H167 H 0.81997 0.85698 0.3786 0.0
C168 C 0.8145 0.11145 0.08954 0.0
C169 C 0.7809 0.06821 0.12338 0.0
C170 C 0.80327 0.10632 0.11381 0.0
C171 C 0.77094 0.0357 0.10849 0.0
C172 C 0.80411 0.07884 0.07446 0.0
C173 C 0.78227 0.04101 0.08406 0.0
N174 N 0.83608 0.14836 0.08075 0.0
C175 C 0.84756 0.15487 0.05703 0.0
C176 C 0.81623 0.08526 0.05018 0.0
C177 C 0.83799 0.12344 0.04142 0.0
Gd178 Gd 0.95358 0.2445 0.14323 0.0
Gd179 Gd 0.84926 0.19909 0.10777 0.0
N180 N 0.81325 0.1384 0.12782 0.0
C181 C 0.76815 0.06384 0.14745 0.0
C182 C 0.79718 0.13389 0.15037 0.0
C183 C 0.77564 0.09681 0.16083 0.0
H184 H 0.79924 0.15839 0.16013 0.0
H185 H 0.7639 0.09365 0.17897 0.0
H186 H 1.00717 0.32493 0.10988 0.0
H187 H 0.86389 0.18432 0.05007 0.0
H188 H 0.04323 0.39666 0.11583 0.0
H189 H 0.75102 0.0351 0.15548 0.0
H190 H 0.75395 1.00628 0.1156 0.0
H191 H 0.93595 0.20464 0.1986 0.0
H192 H 0.80888 0.06095 0.03805 0.0
H193 H 0.84726 0.12868 0.02264 0.0
H194 H 0.03194 0.41266 0.2015 0.0
H195 H 0.77397 0.01564 0.07272 0.0
H196 H 0.96759 0.29679 0.25031 0.0
H197 H 0.93982 0.22635 0.24124 0.0
N198 N 0.96105 0.2621 0.18422 0.0
C199 C 0.97859 0.30094 0.18895 0.0
C200 C 0.94849 0.23541 0.20261 0.0
C201 C 0.9667 0.28738 0.23178 0.0
C202 C 0.95078 0.24761 0.22669 0.0
C203 C 0.98185 0.31471 0.2129 0.0
H204 H 1.00314 0.36629 0.23551 0.0
N205 N 0.99083 0.3126 0.147 0.0
C206 C 0.99448 0.32704 0.16981 0.0
C207 C 0.03173 0.39287 0.15431 0.0
C208 C 1.01448 0.36762 0.17407 0.0
C209 C 1.00918 0.33686 0.12782 0.0
C210 C 0.02948 0.37739 0.13114 0.0
O211 O 0.88868 0.17273 0.10459 0.0
O212 O 0.91015 0.18007 0.14333 0.0
O213 O 0.99249 0.23104 0.12292 0.0
O214 O 1.00186 0.24344 0.16135 0.0
O215 O 0.85353 0.22027 0.14716 0.0
O216 O 0.89681 0.2028 0.16058 0.0
O217 O 0.93121 0.28726 0.13771 0.0
O218 O 0.88274 0.26439 0.10782 0.0
O219 O 0.79096 0.19114 0.11374 0.0
O220 O 0.81681 0.20452 0.07752 0.0
O221 O 0.95744 0.25248 0.10266 0.0
O222 O 0.8995 0.23586 0.0818 0.0
C223 C 0.89933 0.15967 0.12323 0.0
C224 C 0.8718 0.2143 0.16522 0.0
C225 C 1.01625 0.19672 0.14546 0.0
C226 C 0.05479 0.16428 0.14153 0.0
C227 C 0.98786 0.12821 0.15614 0.0
C228 C 0.98483 0.1618 0.15426 0.0
C229 C 0.02251 0.12932 0.14972 0.0
C230 C 0.05144 0.19805 0.13939 0.0
C231 C 1.01193 0.23136 0.14214 0.0
C232 C 1.01697 0.38156 0.19785 0.0
C233 C 1.00055 0.35515 0.21722 0.0
H234 H 0.04737 0.42428 0.15681 0.0
C235 C 0.90848 0.29188 0.12208 0.0
C236 C 0.93788 0.25026 0.08274 0.0
C237 C 0.75127 0.19547 0.08106 0.0
C238 C 0.68435 0.18284 0.0855 0.0
C239 C 0.71732 0.20324 0.04657 0.0
C240 C 0.7505 0.20479 0.0565 0.0
C241 C 0.68445 0.19234 0.06094 0.0
C242 C 0.71788 0.18446 0.09562 0.0
C243 C 0.78673 0.19669 0.09094 0.0
H244 H 0.96334 0.1013 0.16275 0.0
H245 H 0.958 0.16051 0.15973 0.0
H246 H 0.02439 0.10301 0.15166 0.0
H247 H 0.07591 0.22506 0.13277 0.0
H248 H 0.71709 0.21053 0.02765 0.0
H249 H 0.77558 0.21328 0.04488 0.0
H250 H 0.659 0.19143 0.05289 0.0
H251 H 0.71786 0.17717 0.1146 0.0
C252 C 0.35922 0.04101 0.33999 0.0
C253 C 0.38629 1.01055 0.36578 0.0
C254 C 0.36591 0.03111 0.36302 0.0
C255 C 0.4 1.00029 0.34511 0.0
C256 C 0.37276 0.0306 0.31921 0.0
C257 C 0.39327 1.0103 0.3219 0.0
N258 N 0.33952 0.06088 0.3379 0.0
C259 C 0.3311 0.07 0.3157 0.0
C260 C 0.3652 0.04087 0.29634 0.0
C261 C 0.34408 0.06047 0.29462 0.0
Gd262 Gd 0.38075 0.18335 0.40407 0.0
Gd263 Gd 0.32046 0.07688 0.37423 0.0
N264 N 0.35319 0.04239 0.38274 0.0
C265 C 0.39223 1.00088 0.38925 0.0
C266 C 0.35746 0.03163 0.40554 0.0
C267 C 0.37744 1.01117 0.40919 0.0
H268 H 0.34522 0.03832 0.42094 0.0
H269 H 0.38119 1.00312 0.42737 0.0
H270 H 0.35407 0.21529 0.35459 0.0
H271 H 0.31357 0.08383 0.31428 0.0
H272 H 0.31871 0.25019 0.34547 0.0
H273 H 0.40774 0.98507 0.39214 0.0
H274 H 0.41579 0.98455 0.34689 0.0
H275 H 0.38244 0.17755 0.46469 0.0
H276 H 0.37517 0.03345 0.27995 0.0
H277 H 0.33747 0.06803 0.27714 0.0
H278 H 0.28666 0.27944 0.42376 0.0
H279 H 0.40396 1.00211 0.30614 0.0
H280 H 0.32387 0.23464 0.49425 0.0
H281 H 0.359 0.19811 0.50019 0.0
N282 N 0.35952 0.20097 0.43895 0.0
C283 C 0.34069 0.22141 0.43523 0.0
C284 C 0.36643 0.19277 0.46187 0.0
C285 C 0.33378 0.22539 0.47858 0.0
C286 C 0.35351 0.20469 0.48202 0.0
C287 C 0.32722 0.2341 0.455 0.0
H288 H 0.29722 0.26507 0.46561 0.0
N289 N 0.34647 0.21532 0.39279 0.0
C290 C 0.33427 0.22909 0.41152 0.0
C291 C 0.3085 0.25713 0.38307 0.0
C292 C 0.3146 0.25003 0.40712 0.0
C293 C 0.34213 0.22371 0.36935 0.0
C294 C 0.3226 0.24416 0.36412 0.0
O295 O 0.38742 0.1069 0.37349 0.0
O296 O 0.40712 0.14513 0.4078 0.0
O297 O 0.42461 0.23781 0.38812 0.0
O298 O 0.4304 0.22538 0.42564 0.0
O299 O 0.31418 0.08218 0.41453 0.0
O300 O 0.37151 0.13381 0.42977 0.0
O301 O 0.31496 0.15002 0.4083 0.0
O302 O 0.29623 0.118 0.37213 0.0
O303 O 0.26915 0.02918 0.39139 0.0
O304 O 0.27357 0.0326 0.35231 0.0
O305 O 0.3898 0.17621 0.36344 0.0
O306 O 0.32904 0.12779 0.35188 0.0
C307 C 0.41383 0.12719 0.39015 0.0
C308 C 0.33902 0.09967 0.43236 0.0
C309 C 0.48807 0.26906 0.40393 0.0
C310 C 0.54981 0.32921 0.39617 0.0
C311 C 0.54657 0.26592 0.39551 0.0
C312 C 0.5067 0.24713 0.40077 0.0
C313 C 0.56802 0.30663 0.39316 0.0
C314 C 0.50965 0.30997 0.40165 0.0
C315 C 0.44569 0.25003 0.40772 0.0
C316 C 0.30155 0.26307 0.4268 0.0
C317 C 0.30768 0.25499 0.45065 0.0
H318 H 0.29329 0.27288 0.37895 0.0
C319 C 0.28898 0.1336 0.39103 0.0
C320 C 0.36376 0.15673 0.34637 0.0
C321 C 0.2116 1.01111 0.36935 0.0
C322 C 0.14127 0.97259 0.37579 0.0
C323 C 0.17062 0.03974 0.36184 0.0
C324 C 0.20721 0.04264 0.36176 0.0
C325 C 0.13783 1.00501 0.36897 0.0
C326 C 0.17837 0.97576 0.37605 0.0
C327 C 0.25091 0.01573 0.37084 0.0
H328 H 0.56087 0.24887 0.39313 0.0
H329 H 0.49032 0.21561 0.40211 0.0
H330 H 0.59895 0.32046 0.38927 0.0
H331 H 0.49486 0.32669 0.40354 0.0
H332 H 0.16764 0.06436 0.35616 0.0
H333 H 0.23202 0.06949 0.3556 0.0
H334 H 0.10953 1.00311 0.36855 0.0
H335 H 0.18136 0.95105 0.3816 0.0
C336 C 0.91768 0.70264 0.08624 0.0
C337 C 0.96586 0.72057 0.11834 0.0
C338 C 0.92661 0.70057 0.11055 0.0
C339 C 0.99572 0.74259 0.1016 0.0
C340 C 0.94767 0.72443 0.06939 0.0
C341 C 0.98668 0.74437 0.07721 0.0
N342 N 0.87956 0.68462 0.0793 0.0
C343 C 0.86944 0.68509 0.05569 0.0
C344 C 0.9375 0.72597 0.04521 0.0
C345 C 0.89825 0.70601 0.03831 0.0
Gd346 Gd 0.78805 0.71229 0.13908 0.0
Gd347 Gd 0.83406 0.64952 0.10951 0.0
N348 N 0.89702 0.67971 0.1266 0.0
C349 C 0.974 0.7179 0.14276 0.0
C350 C 0.90513 0.67495 0.15001 0.0
C351 C 0.94355 0.6946 0.15857 0.0
H352 H 0.88245 0.65525 0.16207 0.0
H353 H 0.94971 0.69128 0.1773 0.0
H354 H 0.71927 0.69715 0.09832 0.0
H355 H 0.83921 0.66915 0.05018 0.0
H356 H 0.64728 0.66729 0.09688 0.0
H357 H 1.00373 0.73304 0.14947 0.0
H358 H 0.02596 0.75833 0.10735 0.0
H359 H 0.81211 0.72316 0.19804 0.0
H360 H 0.95972 0.74236 0.03172 0.0
H361 H 0.89018 0.70665 0.0196 0.0
H362 H 0.60675 0.6284 0.17936 0.0
H363 H 1.01008 0.76149 0.06455 0.0
H364 H 0.7067 0.66455 0.23953 0.0
H365 H 0.77895 0.7017 0.23762 0.0
N366 N 0.7594 0.69541 0.17765 0.0
C367 C 0.71982 0.67684 0.17831 0.0
C368 C 0.78063 0.70584 0.19862 0.0
C369 C 0.72116 0.67326 0.22208 0.0
C370 C 0.7619 0.69423 0.22111 0.0
C371 C 0.69956 0.66509 0.20057 0.0
H372 H 0.64253 0.63735 0.21761 0.0
N373 N 0.72022 0.68485 0.13582 0.0
C374 C 0.69963 0.67176 0.15678 0.0
C375 C 0.6397 0.65259 0.13496 0.0
C376 C 0.6587 0.65487 0.1569 0.0
C377 C 0.7022 0.68485 0.11461 0.0
C378 C 0.66161 0.66808 0.11379 0.0
O379 O 0.86109 0.71545 0.10529 0.0
O380 O 0.85166 0.73175 0.14301 0.0
O381 O 0.80644 0.7673 0.12035 0.0
O382 O 0.78946 0.76116 0.15805 0.0
O383 O 0.81683 0.63684 0.14952 0.0
O384 O 0.82609 0.69642 0.1612 0.0
O385 O 0.74491 0.6515 0.1248 0.0
O386 O 0.77533 0.61442 0.12745 0.0
O387 O 0.85948 0.61202 0.11082 0.0
O388 O 0.81455 0.6004 0.0845 0.0
O389 O 0.7955 0.71441 0.09844 0.0
O390 O 0.79246 0.65725 0.08404 0.0
C391 C 0.87357 0.73971 0.1237 0.0
C392 C 0.8178 0.66075 0.16654 0.0
C393 C 0.78012 0.80568 0.13446 0.0
C394 C 0.78315 0.86819 0.12749 0.0
C395 C 0.72055 0.80778 0.12795 0.0
C396 C 0.73933 0.78652 0.13266 0.0
C397 C 0.74225 0.84834 0.1253 0.0
C398 C 0.80192 0.84652 0.13202 0.0
C399 C 0.80047 0.78374 0.13906 0.0
C400 C 0.63825 0.64172 0.17891 0.0
C401 C 0.65862 0.64678 0.20069 0.0
H402 H 0.60828 0.6398 0.1343 0.0
C403 C 0.744 0.61772 0.12542 0.0
C404 C 0.7874 0.68789 0.08148 0.0
C405 C 0.81745 0.54621 0.1016 0.0
C406 C 0.82324 0.48918 0.11274 0.0
C407 C 0.76082 0.48703 0.11618 0.0
C408 C 0.77787 0.52551 0.10803 0.0
C409 C 0.78323 0.46896 0.11856 0.0
C410 C 0.84009 0.52785 0.10393 0.0
C411 C 0.83619 0.58786 0.09456 0.0
H412 H 0.68905 0.79281 0.12655 0.0
H413 H 0.72199 0.75528 0.13507 0.0
H414 H 0.72697 0.86428 0.12204 0.0
H415 H 0.83347 0.86135 0.13352 0.0
H416 H 0.73015 0.47127 0.12093 0.0
H417 H 0.76029 0.53928 0.10714 0.0
H418 H 0.76915 0.43898 0.12487 0.0
H419 H 0.87095 0.54405 0.09961 0.0
C420 C 0.99908 0.31525 0.34113 0.0
C421 C 0.02861 0.3744 0.36548 0.0
C422 C 1.00583 0.33342 0.36364 0.0
C423 C 0.04404 0.39689 0.34434 0.0
C424 C 1.01511 0.33765 0.31993 0.0
C425 C 0.03734 0.37857 0.32164 0.0
N426 N 0.97758 0.27564 0.34002 0.0
C427 C 0.97167 0.25644 0.3185 0.0
C428 C 1.00884 0.31818 0.2977 0.0
C429 C 0.98728 0.27736 0.29705 0.0
Gd430 Gd 0.8465 0.20052 0.40359 0.0
Gd431 Gd 0.95424 0.24336 0.37698 0.0
N432 N 0.99024 0.3109 0.38378 0.0
C433 C 0.03559 0.3915 0.38855 0.0
C434 C 0.99834 0.3272 0.40636 0.0
C435 C 0.02065 0.36776 0.40909 0.0
H436 H 0.98763 0.30907 0.42223 0.0
H437 H 0.02654 0.38065 0.42703 0.0
H438 H 0.81553 0.14433 0.3533 0.0
H439 H 0.95594 0.22489 0.31806 0.0
H440 H 0.77862 0.07437 0.34305 0.0
H441 H 0.05297 0.42291 0.39073 0.0
H442 H 0.06154 0.42845 0.34538 0.0
H443 H 0.84967 0.2055 0.46448 0.0
H444 H 0.02104 0.33436 0.28104 0.0
H445 H 0.98309 0.26189 0.28012 0.0
H446 H 0.74387 1.00977 0.42039 0.0
H447 H 0.04979 0.39629 0.30553 0.0
H448 H 0.7877 0.08869 0.49217 0.0
H449 H 0.82613 0.16 0.49925 0.0
N450 N 0.8261 0.16031 0.43797 0.0
C451 C 0.80446 0.12125 0.43363 0.0
C452 C 0.83368 0.17442 0.46114 0.0
C453 C 0.79823 0.10849 0.47681 0.0
C454 C 0.82003 0.14873 0.48089 0.0
C455 C 0.79009 0.09426 0.45299 0.0
H456 H 0.75693 0.03291 0.46264 0.0
N457 N 0.81278 0.13478 0.3914 0.0
C458 C 0.79727 0.10812 0.40971 0.0
C459 C 0.76909 0.05561 0.3804 0.0
C460 C 0.77538 0.06776 0.40466 0.0
C461 C 0.80535 0.12318 0.36773 0.0
C462 C 0.7839 0.08347 0.36187 0.0
O463 O 0.92826 0.2842 0.37604 0.0
O464 O 0.88568 0.26474 0.40842 0.0
O465 O 0.79489 0.19422 0.38582 0.0
O466 O 0.80295 0.20692 0.42427 0.0
O467 O 0.94152 0.22637 0.41635 0.0
O468 O 0.89464 0.23914 0.4307 0.0
O469 O 0.87625 0.16417 0.40667 0.0
O470 O 0.91242 0.17875 0.37182 0.0
O471 O 0.99694 0.23843 0.39913 0.0
O472 O 0.99864 0.23434 0.35994 0.0
O473 O 0.85717 0.21895 0.3633 0.0
O474 O 0.90497 0.20522 0.3523 0.0
C475 C 0.9062 0.29005 0.39157 0.0
C476 C 0.92808 0.23948 0.43342 0.0
C477 C 0.76192 0.22438 0.40239 0.0
C478 C 0.70207 0.22682 0.39526 0.0
C479 C 0.76542 0.28671 0.39592 0.0
C480 C 0.78401 0.26513 0.40035 0.0
C481 C 0.72478 0.26779 0.39335 0.0
C482 C 0.72112 0.2054 0.39986 0.0
C483 C 0.78058 0.20051 0.40545 0.0
C484 C 0.76081 0.04087 0.42392 0.0
C485 C 0.76822 0.05406 0.44799 0.0
H486 H 0.75265 0.02485 0.37579 0.0
C487 C 0.893 0.15451 0.38957 0.0
C488 C 0.8771 0.21248 0.34648 0.0
C489 C 0.05782 0.25654 0.38113 0.0
C490 C 0.11916 0.25593 0.38335 0.0
C491 C 0.11924 0.31761 0.38199 0.0
C492 C 0.07851 0.29748 0.38099 0.0
C493 C 0.1395 0.29707 0.38323 0.0
C494 C 0.07814 0.2359 0.38223 0.0
C495 C 1.01505 0.23457 0.38047 0.0
H496 H 0.78256 0.31822 0.39438 0.0
H497 H 0.8155 0.28008 0.40192 0.0
H498 H 0.71113 0.28529 0.39014 0.0
H499 H 0.70433 0.17378 0.4009 0.0
H500 H 0.13516 0.34925 0.38184 0.0
H501 H 0.06326 0.3138 0.38017 0.0
H502 H 0.1711 0.31336 0.38383 0.0
H503 H 0.06193 0.20421 0.38264 0.0
C504 C 0.0413 0.36104 0.65624 0.0
C505 C 1.00294 0.36379 0.62268 0.0
C506 C 0.02825 0.3517 0.63236 0.0
C507 C 0.99267 0.38691 0.63679 0.0
C508 C 0.03018 0.38332 0.67066 0.0
C509 C 1.00622 0.39661 0.6607 0.0
N510 N 0.0654 0.34874 0.66525 0.0
C511 C 0.07769 0.3558 0.68881 0.0
C512 C 0.04359 0.39166 0.69468 0.0
C513 C 0.06722 0.37759 0.70383 0.0
Gd514 Gd 0.18882 0.37326 0.60897 0.0
Gd515 Gd 0.08049 0.3118 0.6388 0.0
N516 N 0.03859 0.32917 0.61908 0.0
C517 C 0.98753 0.3511 0.59942 0.0
C518 C 0.02008 0.31325 0.59767 0.0
C519 C 0.99545 0.32498 0.58709 0.0
H520 H 0.02302 0.29041 0.58906 0.0
H521 H 0.9818 0.31307 0.56974 0.0
H522 H 0.22954 0.36239 0.66082 0.0
H523 H 0.09522 0.34425 0.69602 0.0
H524 H 0.26613 0.33059 0.67365 0.0
H525 H 0.968 0.35974 0.59134 0.0
H526 H 0.97354 0.39671 0.62955 0.0
H527 H 0.17692 0.35958 0.54909 0.0
H528 H 0.03564 0.40865 0.70635 0.0
H529 H 0.07725 0.38341 0.72246 0.0
H530 H 0.28865 0.28066 0.59992 0.0
H531 H 0.99762 0.41404 0.67145 0.0
H532 H 0.2352 0.29839 0.52608 0.0
H533 H 0.1958 0.32942 0.51643 0.0
N534 N 0.20425 0.34452 0.57696 0.0
C535 C 0.22625 0.328 0.58268 0.0
C536 C 0.19345 0.34541 0.55355 0.0
C537 C 0.22672 0.31127 0.54052 0.0
C538 C 0.20439 0.32867 0.535 0.0
C539 C 0.238 0.31082 0.56457 0.0
H540 H 0.26989 0.28048 0.55732 0.0
N541 N 0.22403 0.34398 0.62398 0.0
C542 C 0.23649 0.3278 0.60683 0.0
C543 C 0.26893 0.31082 0.6377 0.0
C544 C 0.25903 0.31055 0.6133 0.0
C545 C 0.23571 0.34634 0.64755 0.0
C546 C 0.25752 0.32911 0.65484 0.0
O547 O 0.11301 0.37887 0.64136 0.0
O548 O 0.14734 0.39592 0.6059 0.0
O549 O 0.24139 0.42558 0.62159 0.0
O550 O 0.22735 0.41821 0.58352 0.0
O551 O 0.08813 0.30243 0.59904 0.0
O552 O 0.13754 0.36169 0.58411 0.0
O553 O 0.15622 0.30734 0.60556 0.0
O554 O 0.11958 0.28491 0.6404 0.0
O555 O 0.02776 0.25388 0.63307 0.0
O556 O 0.04814 0.27714 0.66949 0.0
O557 O 0.18227 0.38205 0.64964 0.0
O558 O 0.13195 0.32181 0.66098 0.0
C559 C 0.13281 0.40492 0.62442 0.0
C560 C 0.10439 0.32811 0.58132 0.0
C561 C 0.29466 0.44842 0.59407 0.0
C562 C 0.36566 0.4892 0.60001 0.0
C563 C 0.33933 0.43331 0.57271 0.0
C564 C 0.30155 0.42543 0.57755 0.0
C565 C 0.37108 0.46477 0.58382 0.0
C566 C 0.32706 0.48076 0.60513 0.0
C567 C 0.25384 0.43833 0.59975 0.0
C568 C 0.27109 0.29375 0.59527 0.0
C569 C 0.26051 0.29376 0.57099 0.0
H570 H 0.286 0.29767 0.6434 0.0
C571 C 0.14027 0.28134 0.62291 0.0
C572 C 0.16147 0.35611 0.66654 0.0
C573 C 0.98921 0.21427 0.66824 0.0
C574 C 0.93383 0.14718 0.66778 0.0
C575 C 0.95155 0.18554 0.70498 0.0
C576 C 0.98193 0.21697 0.69296 0.0
C577 C 0.92778 0.15096 0.69259 0.0
C578 C 0.96504 0.17908 0.65562 0.0
C579 C 0.02209 0.2487 0.65642 0.0
H580 H 0.34405 0.41519 0.56 0.0
H581 H 0.27782 0.40147 0.56807 0.0
H582 H 0.40012 0.47066 0.57912 0.0
H583 H 0.32224 0.49908 0.61766 0.0
H584 H 0.94646 0.18796 0.72405 0.0
H585 H 0.99977 0.24355 0.70313 0.0
H586 H 0.90478 0.12683 0.70262 0.0
H587 H 0.97024 0.17664 0.63655 0.0
C588 C 0.12417 0.80144 0.92778 0.0
C589 C 0.07801 0.7687 0.89508 0.0
C590 C 0.11681 0.79037 0.9035 0.0
C591 C 0.04696 0.75907 0.9112 0.0
C592 C 0.09308 0.79151 0.94405 0.0
C593 C 0.05447 0.77037 0.93561 0.0
N594 N 0.16186 0.82275 0.93534 0.0
C595 C 0.17059 0.83416 0.95897 0.0
C596 C 0.10178 0.80346 0.96829 0.0
C597 C 0.14069 0.82477 0.97578 0.0
Gd598 Gd 0.25338 0.94169 0.87438 0.0
Gd599 Gd 0.20976 0.83634 0.90602 0.0
N600 N 0.14752 0.80085 0.88815 0.0
C601 C 0.07153 0.75696 0.87076 0.0
C602 C 0.14119 0.78667 0.86502 0.0
C603 C 0.10326 0.76543 0.85579 0.0
H604 H 0.16502 0.79036 0.85381 0.0
H605 H 0.09851 0.75496 0.83724 0.0
H606 H 0.32029 0.98485 0.91837 0.0
H607 H 0.20059 0.85015 0.96493 0.0
H608 H 0.39183 0.02628 0.92176 0.0
H609 H 0.04217 0.74034 0.86358 0.0
H610 H 1.01699 0.74265 0.90499 0.0
H611 H 0.23274 0.92993 0.81506 0.0
H612 H 0.0787 0.79636 0.98136 0.0
H613 H 0.14767 0.83389 0.99452 0.0
H614 H 0.43669 0.04558 0.83912 0.0
H615 H 0.03019 0.76263 0.94782 0.0
H616 H 0.34089 0.98647 0.7761 0.0
H617 H 0.26866 0.94644 0.77626 0.0
N618 N 0.28413 0.95837 0.83658 0.0
C619 C 0.32367 0.98072 0.83699 0.0
C620 C 0.26427 0.94674 0.81516 0.0
C621 C 0.32525 0.97899 0.79317 0.0
C622 C 0.28453 0.95646 0.79316 0.0
C623 C 0.34534 0.99177 0.81525 0.0
H624 H 0.40335 0.02384 0.79969 0.0
N625 N 0.32084 0.9806 0.87995 0.0
C626 C 0.34254 0.99269 0.85927 0.0
C627 C 0.4013 0.02826 0.88311 0.0
C628 C 0.38346 0.01641 0.86032 0.0
C629 C 0.33784 0.9931 0.90216 0.0
C630 C 0.37835 0.01679 0.9041 0.0
O631 O 0.1785 0.87141 0.9081 0.0
O632 O 0.18938 0.89799 0.87038 0.0
O633 O 0.23877 0.98103 0.89305 0.0
O634 O 0.24929 0.98697 0.8543 0.0
O635 O 0.23009 0.8427 0.8663 0.0
O636 O 0.21487 0.88814 0.8528 0.0
O637 O 0.29557 0.91775 0.87732 0.0
O638 O 0.27438 0.87443 0.9096 0.0
O639 O 0.20963 0.78307 0.8955 0.0
O640 O 0.21104 0.79724 0.93339 0.0
O641 O 0.24573 0.93885 0.91506 0.0
O642 O 0.24891 0.88628 0.93172 0.0
C643 C 0.16671 0.88318 0.88936 0.0
C644 C 0.22476 0.86175 0.8484 0.0
C645 C 0.26318 0.04387 0.87636 0.0
C646 C 0.26206 0.10471 0.88183 0.0
C647 C 0.32377 0.105 0.88171 0.0
C648 C 0.304 0.06463 0.8781 0.0
C649 C 0.30302 0.12495 0.88366 0.0
C650 C 0.24232 0.06399 0.87808 0.0
C651 C 0.24178 1.00114 0.87358 0.0
C652 C 0.40518 0.02746 0.83868 0.0
C653 C 0.38619 0.01508 0.81622 0.0
H654 H 0.43269 0.04653 0.88469 0.0
C655 C 0.3006 0.89557 0.89324 0.0
C656 C 0.25231 0.92137 0.9333 0.0
C657 C 0.17414 0.7301 0.92228 0.0
C658 C 0.14307 0.6594 0.91506 0.0
C659 C 0.1112 0.68568 0.94042 0.0
C660 C 0.14238 0.72339 0.93701 0.0
C661 C 0.11144 0.65395 0.92956 0.0
C662 C 0.17447 0.69785 0.91143 0.0
C663 C 0.2063 0.77055 0.91771 0.0
H664 H 0.35529 0.12089 0.88305 0.0
H665 H 0.32054 0.04968 0.87678 0.0
H666 H 0.31906 0.15632 0.88629 0.0
H667 H 0.21072 0.04785 0.87696 0.0
H668 H 0.08689 0.68096 0.95178 0.0
H669 H 0.14156 0.7472 0.94607 0.0
H670 H 0.08724 0.62492 0.93315 0.0
H671 H 0.19893 0.70272 0.90013 0.0
C672 C 0.69135 0.70192 0.67272 0.0
C673 C 0.66433 0.64428 0.64705 0.0
C674 C 0.68265 0.68516 0.64974 0.0
C675 C 0.65433 0.62046 0.66779 0.0
C676 C 0.68181 0.67815 0.69356 0.0
C677 C 0.66303 0.63734 0.69098 0.0
N678 N 0.70961 0.74145 0.67467 0.0
C679 C 0.72012 0.75925 0.69678 0.0
C680 C 0.69181 0.69616 0.71638 0.0
C681 C 0.71126 0.7369 0.71797 0.0
Gd682 Gd 0.66193 0.82417 0.61108 0.0
Gd683 Gd 0.72276 0.77603 0.63821 0.0
N684 N 0.69197 0.70893 0.63001 0.0
C685 C 0.65681 0.6286 0.62356 0.0
C686 C 0.68629 0.694 0.60711 0.0
C687 C 0.66819 0.65362 0.60351 0.0
H688 H 0.69587 0.71311 0.59165 0.0
H689 H 0.66326 0.64184 0.58529 0.0
H690 H 0.66266 0.86616 0.66515 0.0
H691 H 0.73618 0.79074 0.698 0.0
H692 H 0.69323 0.93185 0.68279 0.0
H693 H 0.64279 0.59733 0.62071 0.0
H694 H 0.64009 0.58896 0.66608 0.0
H695 H 0.68548 0.83659 0.55221 0.0
H696 H 0.68518 0.6789 0.73281 0.0
H697 H 0.71988 0.75115 0.73544 0.0
H698 H 0.75961 0.01708 0.61587 0.0
H699 H 0.65537 0.6186 0.7068 0.0
H700 H 0.75237 0.95949 0.53809 0.0
H701 H 0.72172 0.8912 0.52356 0.0
N702 N 0.69647 0.87369 0.58267 0.0
C703 C 0.7124 0.91101 0.59099 0.0
C704 C 0.69925 0.86628 0.55879 0.0
C705 C 0.73664 0.93566 0.55076 0.0
C706 C 0.71948 0.89713 0.5425 0.0
C707 C 0.73321 0.94303 0.57525 0.0
H708 H 0.76639 1.00619 0.57262 0.0
N709 N 0.68891 0.88549 0.63039 0.0
C710 C 0.70859 0.91706 0.61552 0.0
C711 C 0.72061 0.96066 0.64931 0.0
C712 C 0.72541 0.95546 0.62469 0.0
C713 C 0.68191 0.89059 0.65399 0.0
C714 C 0.69835 0.92809 0.66394 0.0
O715 O 0.65613 0.73565 0.63688 0.0
O716 O 0.63372 0.7594 0.60625 0.0
O717 O 0.60981 0.82548 0.62274 0.0
O718 O 0.62112 0.82418 0.58461 0.0
O719 O 0.72813 0.79231 0.59866 0.0
O720 O 0.67047 0.78518 0.58374 0.0
O721 O 0.7284 0.85619 0.60877 0.0
O722 O 0.74557 0.84033 0.64468 0.0
O723 O 0.77334 0.78525 0.61751 0.0
O724 O 0.77359 0.78096 0.65673 0.0
O725 O 0.65027 0.80254 0.65078 0.0
O726 O 0.71069 0.81389 0.66256 0.0
C727 C 0.62829 0.7323 0.62206 0.0
C728 C 0.70202 0.78183 0.58137 0.0
C729 C 0.59159 0.86131 0.59653 0.0
C730 C 0.55105 0.89158 0.60308 0.0
C731 C 0.61022 0.92459 0.57871 0.0
C732 C 0.61696 0.89355 0.58219 0.0
C733 C 0.57765 0.92371 0.58903 0.0
C734 C 0.55836 0.86033 0.60684 0.0
C735 C 0.59986 0.829 0.60076 0.0
C736 C 0.74631 0.98742 0.60907 0.0
C737 C 0.75015 0.98122 0.58442 0.0
H738 H 0.73318 0.98967 0.65707 0.0
C739 C 0.75236 0.86565 0.62724 0.0
C740 C 0.67557 0.80701 0.66796 0.0
C741 C 0.81346 0.76308 0.63465 0.0
C742 C 0.87533 0.76361 0.63118 0.0
C743 C 0.81362 0.70209 0.63061 0.0
C744 C 0.79314 0.72221 0.63309 0.0
C745 C 0.8544 0.72257 0.62959 0.0
C746 C 0.85445 0.78365 0.6338 0.0
C747 C 0.79263 0.78499 0.63666 0.0
H748 H 0.63008 0.94924 0.56765 0.0
H749 H 0.64188 0.89475 0.57337 0.0
H750 H 0.57269 0.94782 0.58533 0.0
H751 H 0.53841 0.83543 0.61774 0.0
H752 H 0.79784 0.67052 0.62943 0.0
H753 H 0.76159 0.70594 0.63372 0.0
H754 H 0.86959 0.70625 0.62782 0.0
H755 H 0.87002 0.81531 0.63472 0.0
C756 C 0.22925 0.31686 0.92311 0.0
C757 C 0.26321 0.30729 0.88947 0.0
C758 C 0.24049 0.32275 0.89882 0.0
C759 C 0.27377 0.28548 0.90464 0.0
C760 C 0.24013 0.29528 0.93843 0.0
C761 C 0.26245 0.27969 0.92907 0.0
N762 N 0.20714 0.3317 0.93168 0.0
C763 C 0.19562 0.32693 0.95539 0.0
C764 C 0.22796 0.28973 0.96271 0.0
C765 C 0.20566 0.30569 0.97122 0.0
Gd766 Gd 0.08832 0.30874 0.86935 0.0
Gd767 Gd 0.19381 0.36867 0.90435 0.0
N768 N 0.22992 0.3441 0.88451 0.0
C769 C 0.27548 0.31498 0.86529 0.0
C770 C 0.24513 0.35472 0.86169 0.0
C771 C 0.26698 0.33938 0.85148 0.0
H772 H 0.24213 0.37626 0.85151 0.0
H773 H 0.27814 0.34727 0.83316 0.0
H774 H 0.03559 0.33671 0.90278 0.0
H775 H 0.17896 0.33977 0.96217 0.0
H776 H 0.99593 0.36843 0.89637 0.0
H777 H 0.29282 0.30352 0.85742 0.0
H778 H 0.29106 0.2733 0.8977 0.0
H779 H 0.10699 0.2868 0.81435 0.0
H780 H 0.23568 0.27326 0.97502 0.0
H781 H 0.19638 0.3018 0.99 0.0
H782 H 0.99851 0.38634 0.80992 0.0
H783 H 0.27104 0.26301 0.94057 0.0
H784 H 0.06371 0.33535 0.7614 0.0
H785 H 0.09811 0.29925 0.77137 0.0
N786 N 0.07906 0.31672 0.82826 0.0
C787 C 0.05894 0.3354 0.82322 0.0
C788 C 0.09228 0.30292 0.81007 0.0
C789 C 0.06771 0.33018 0.78023 0.0
C790 C 0.08715 0.30976 0.78578 0.0
C791 C 0.05281 0.34279 0.79904 0.0
H792 H 0.02661 0.36794 0.77598 0.0
N793 N 0.04917 0.33763 0.86533 0.0
C794 C 0.04319 0.34584 0.84231 0.0
C795 C 1.00404 0.37248 0.85754 0.0
C796 C 0.02077 0.36386 0.83779 0.0
C797 C 0.03164 0.34448 0.88461 0.0
C798 C 1.0092 0.3624 0.88103 0.0
O799 O 0.15413 0.30277 0.90724 0.0
O800 O 0.13226 0.28834 0.86854 0.0
O801 O 0.0529 0.25624 0.89058 0.0
O802 O 0.041 0.25729 0.8523 0.0
O803 O 0.18964 0.38597 0.86514 0.0
O804 O 0.14547 0.32547 0.85207 0.0
O805 O 0.10846 0.37337 0.87542 0.0
O806 O 0.16268 0.40241 0.90122 0.0
O807 O 0.25312 0.41745 0.89913 0.0
O808 O 0.22458 0.4079 0.93445 0.0
O809 O 0.08548 0.31455 0.90977 0.0
O810 O 0.14379 0.35568 0.93037 0.0
C811 C 0.14419 0.27933 0.88845 0.0
C812 C 0.16994 0.36205 0.84729 0.0
C813 C 0.98789 0.21611 0.87744 0.0
C814 C 0.92729 0.15439 0.88404 0.0
C815 C 0.92759 0.21615 0.88529 0.0
C816 C 0.96754 0.2364 0.88045 0.0
C817 C 0.90754 0.17546 0.8871 0.0
C818 C 0.96769 0.1751 0.87915 0.0
C819 C 0.03005 0.23728 0.87241 0.0
C820 C 1.01542 0.37225 0.81376 0.0
C821 C 0.03144 0.36178 0.79443 0.0
H822 H 0.98664 0.38637 0.85482 0.0
C823 C 0.13422 0.40254 0.88898 0.0
C824 C 0.10533 0.33217 0.92953 0.0
C825 C 0.29096 0.46332 0.93143 0.0
C826 C 0.35749 0.51829 0.92687 0.0
C827 C 0.32362 0.50692 0.96539 0.0
C828 C 0.29098 0.47443 0.95567 0.0
C829 C 0.35665 0.52876 0.95111 0.0
C830 C 0.32457 0.48547 0.91699 0.0
C831 C 0.25573 0.42895 0.92151 0.0
H832 H 0.91206 0.23203 0.88753 0.0
H833 H 0.98244 0.2678 0.87894 0.0
H834 H 0.87641 0.16043 0.89053 0.0
H835 H 0.9835 0.15943 0.87694 0.0
H836 H 0.32327 0.51528 0.98406 0.0
H837 H 0.26567 0.45808 0.96717 0.0
H838 H 0.38164 0.55403 0.95896 0.0
H839 H 0.32511 0.4775 0.89823 0.0
C840 C 0.32887 0.99316 0.67386 0.0
C841 C 0.38702 0.02583 0.64877 0.0
C842 C 0.3462 1.00231 0.65105 0.0
C843 C 0.41019 0.03961 0.66975 0.0
C844 C 0.35199 1.00731 0.69495 0.0
C845 C 0.39273 0.03037 0.69277 0.0
N846 N 0.28941 0.97083 0.67543 0.0
C847 C 0.27103 0.96235 0.69737 0.0
C848 C 0.3334 0.99813 0.71759 0.0
C849 C 0.29272 0.97573 0.71878 0.0
Gd850 Gd 0.21332 0.84234 0.61042 0.0
Gd851 Gd 0.25591 0.94977 0.63863 0.0
N852 N 0.32305 0.98789 0.63107 0.0
C853 C 0.40327 0.03494 0.62545 0.0
C854 C 0.33853 0.99798 0.60832 0.0
C855 C 0.37887 0.02123 0.60515 0.0
H856 H 0.31994 0.98836 0.59263 0.0
H857 H 0.3911 0.02876 0.58705 0.0
H858 H 0.17014 0.7992 0.66398 0.0
H859 H 0.23957 0.94611 0.69827 0.0
H860 H 0.10411 0.76198 0.68071 0.0
H861 H 0.43452 0.05295 0.62293 0.0
H862 H 0.44163 0.05762 0.66837 0.0
H863 H 0.2023 0.85295 0.5513 0.0
H864 H 0.35015 1.00869 0.73419 0.0
H865 H 0.278 0.96917 0.73612 0.0
H866 H 0.02061 0.73943 0.61234 0.0
H867 H 0.41098 0.04141 0.70879 0.0
H868 H 0.08 0.79191 0.53527 0.0
H869 H 0.14851 0.83233 0.52175 0.0
N870 N 0.16446 0.82547 0.58127 0.0
C871 C 0.12707 0.80277 0.58907 0.0
C872 C 0.17247 0.83588 0.55744 0.0
C873 C 0.10346 0.80106 0.54834 0.0
C874 C 0.1421 0.82399 0.54064 0.0
C875 C 0.09552 0.7901 0.57278 0.0
H876 H 0.03256 0.7573 0.56914 0.0
N877 N 0.15152 0.80592 0.62892 0.0
C878 C 0.12042 0.79291 0.61356 0.0
C879 C 0.07606 0.75965 0.64676 0.0
C880 C 0.08186 0.76978 0.62217 0.0
C881 C 0.14594 0.79346 0.65247 0.0
C882 C 0.10826 0.77111 0.66189 0.0
O883 O 0.29786 0.92527 0.63824 0.0
O884 O 0.27756 0.88208 0.60618 0.0
O885 O 0.21494 0.79033 0.62201 0.0
O886 O 0.21656 0.8033 0.5839 0.0
O887 O 0.2441 0.94214 0.59839 0.0
O888 O 0.25146 0.89118 0.58367 0.0
O889 O 0.18013 0.87528 0.60673 0.0
O890 O 0.19158 0.90634 0.64313 0.0
O891 O 0.24512 0.99077 0.61863 0.0
O892 O 0.24881 0.99385 0.65787 0.0
O893 O 0.23322 0.85199 0.6504 0.0
O894 O 0.21774 0.8983 0.66184 0.0
C895 C 0.30326 0.90276 0.62284 0.0
C896 C 0.25289 0.92523 0.58093 0.0
C897 C 0.18123 0.73642 0.59554 0.0
C898 C 0.15207 0.66607 0.6031 0.0
C899 C 0.11882 0.69039 0.5774 0.0
C900 C 0.1493 0.72852 0.58059 0.0
C901 C 0.12005 0.6594 0.58859 0.0
C902 C 0.18269 0.70489 0.60659 0.0
C903 C 0.21243 0.77735 0.59999 0.0
C904 C 0.05038 0.75713 0.60599 0.0
C905 C 0.05718 0.76723 0.58137 0.0
H906 H 0.0469 0.74208 0.65409 0.0
C907 C 0.16832 0.88842 0.62475 0.0
C908 C 0.22655 0.87144 0.66747 0.0
C909 C 0.26601 0.05219 0.63665 0.0
C910 C 0.26461 0.11311 0.63305 0.0
C911 C 0.3266 0.11399 0.63445 0.0
C912 C 0.3069 0.07331 0.63635 0.0
C913 C 0.30569 0.13382 0.63275 0.0
C914 C 0.24498 0.07211 0.6351 0.0
C915 C 0.24464 1.00937 0.63807 0.0
H916 H 0.09432 0.68479 0.56593 0.0
H917 H 0.14784 0.75169 0.57116 0.0
H918 H 0.09638 0.62997 0.58525 0.0
H919 H 0.2074 0.71056 0.6179 0.0
H920 H 0.3582 0.13022 0.63425 0.0
H921 H 0.32353 0.05843 0.6375 0.0
H922 H 0.32167 0.16541 0.63145 0.0
H923 H 0.21333 0.0556 0.63503 0.0
C924 C 0.70954 0.90538 0.9296 0.0
C925 C 0.72298 0.95265 0.89756 0.0
C926 C 0.70597 0.91352 0.90546 0.0
C927 C 0.74406 0.98322 0.91406 0.0
C928 C 0.73048 0.93598 0.94624 0.0
C929 C 0.74777 0.97491 0.93832 0.0
N930 N 0.69321 0.86741 0.93667 0.0
C931 C 0.6959 0.85791 0.96012 0.0
C932 C 0.73368 0.92649 0.97032 0.0
C933 C 0.71622 0.88729 0.97729 0.0
Gd934 Gd 0.71903 0.77539 0.87352 0.0
Gd935 Gd 0.6592 0.82028 0.90687 0.0
N936 N 0.68593 0.88326 0.88976 0.0
C937 C 0.71793 0.95994 0.87337 0.0
C938 C 0.6782 0.89041 0.86677 0.0
C939 C 0.69489 0.92868 0.85802 0.0
H940 H 0.65814 0.86703 0.85525 0.0
H941 H 0.68929 0.93405 0.83958 0.0
H942 H 0.69326 0.70798 0.91738 0.0
H943 H 0.68204 0.82766 0.96567 0.0
H944 H 0.66207 0.63622 0.92066 0.0
H945 H 0.73065 0.98958 0.86657 0.0
H946 H 0.75748 0.01342 0.90824 0.0
H947 H 0.72541 0.79626 0.81422 0.0
H948 H 0.74951 0.94917 0.98365 0.0
H949 H 0.71835 0.8797 0.9959 0.0
H950 H 0.63561 0.59182 0.83794 0.0
H951 H 0.76415 0.99882 0.95081 0.0
H952 H 0.67178 0.6881 0.77515 0.0
H953 H 0.70449 0.76044 0.77543 0.0
N954 N 0.70258 0.74472 0.83568 0.0
C955 C 0.6851 0.7051 0.83602 0.0
C956 C 0.71031 0.76468 0.8143 0.0
C957 C 0.68051 0.70369 0.79224 0.0
C958 C 0.69898 0.74447 0.79229 0.0
C959 C 0.67367 0.68348 0.81426 0.0
H960 H 0.64678 0.62542 0.79861 0.0
N961 N 0.68854 0.70771 0.87899 0.0
C962 C 0.67849 0.68608 0.85826 0.0
C963 C 0.65457 0.62701 0.88198 0.0
C964 C 0.66073 0.64505 0.85923 0.0
C965 C 0.68371 0.6905 0.90115 0.0
C966 C 0.6663 0.64987 0.90302 0.0
O967 O 0.72535 0.8515 0.90895 0.0
O968 O 0.7409 0.84022 0.87123 0.0
O969 O 0.77085 0.78058 0.89083 0.0
O970 O 0.76723 0.7807 0.8517 0.0
O971 O 0.64559 0.80232 0.86675 0.0
O972 O 0.70579 0.81626 0.853 0.0
O973 O 0.65244 0.73499 0.87533 0.0
O974 O 0.63526 0.7559 0.9096 0.0
O975 O 0.6052 0.81898 0.89688 0.0
O976 O 0.61881 0.81771 0.93462 0.0
O977 O 0.72627 0.78463 0.91411 0.0
O978 O 0.67069 0.78033 0.93159 0.0
C979 C 0.74914 0.86278 0.89035 0.0
C980 C 0.66985 0.80779 0.84877 0.0
C981 C 0.82892 0.82079 0.86946 0.0
C982 C 0.89935 0.85166 0.87568 0.0
C983 C 0.8703 0.89079 0.86378 0.0
C984 C 0.83354 0.85734 0.86325 0.0
C985 C 0.90301 0.88809 0.87005 0.0
C986 C 0.86202 0.81794 0.87541 0.0
C987 C 0.78954 0.78609 0.87038 0.0
C988 C 0.64942 0.6234 0.83756 0.0
C989 C 0.65577 0.64254 0.81515 0.0
H990 H 0.64097 0.59553 0.88351 0.0
C991 C 0.62625 0.73141 0.89154 0.0
C992 C 0.70261 0.77724 0.93269 0.0
C993 C 0.58764 0.85394 0.92403 0.0
C994 C 0.54758 0.88462 0.91717 0.0
C995 C 0.60582 0.9167 0.9424 0.0
C996 C 0.61263 0.88572 0.93879 0.0
C997 C 0.57368 0.91626 0.93171 0.0
C998 C 0.55489 0.85341 0.91334 0.0
C999 C 0.59632 0.82208 0.91919 0.0
H1000 H 0.87348 0.91888 0.85914 0.0
H1001 H 0.80876 0.86002 0.85788 0.0
H1002 H 0.93139 0.9144 0.86996 0.0
H1003 H 0.85872 0.78976 0.88004 0.0
H1004 H 0.62537 0.94102 0.95378 0.0
H1005 H 0.63743 0.88673 0.9477 0.0
H1006 H 0.56867 0.94031 0.93544 0.0
H1007 H 0.53538 0.82896 0.90199 0.0
H1008 H 0.06504 0.11431 0.11251 0.0
H1009 H 0.1279 0.21562 0.15832 0.0
H1010 H 0.12451 0.11074 0.10695 0.0
H1011 H 0.1876 0.21204 0.1528 0.0
H1012 H 0.26204 0.15043 0.16437 0.0
H1013 H 0.20692 0.16211 0.16664 0.0
H1014 H 0.1928 0.14892 0.08884 0.0
H1015 H 0.24796 0.13719 0.08661 0.0
C1016 C 0.09175 0.13606 0.12115 0.0
C1017 C 0.09189 0.16515 0.13591 0.0
C1018 C 0.1258 0.13416 0.11788 0.0
C1019 C 0.16061 0.16099 0.12955 0.0
C1020 C 0.16107 0.1908 0.14375 0.0
C1021 C 0.12707 0.19304 0.14675 0.0
C1022 C 0.24705 0.14993 0.14779 0.0
C1023 C 0.25887 0.14247 0.12535 0.0
C1024 C 0.21584 0.15706 0.14904 0.0
C1025 C 0.19557 0.15639 0.12791 0.0
C1026 C 0.2077 0.14929 0.10543 0.0
C1027 C 0.23922 0.14264 0.10415 0.0
H1028 H 0.08697 0.96028 0.41011 0.0
H1029 H 0.11457 0.90197 0.35387 0.0
H1030 H 0.02264 0.90215 0.41516 0.0
H1031 H 0.04989 0.8437 0.35872 0.0
H1032 H 0.91341 0.78092 0.35096 0.0
H1033 H 0.98148 0.83342 0.3493 0.0
H1034 H 0.98918 0.82993 0.42739 0.0
H1035 H 0.92108 0.7774 0.42909 0.0
C1036 C 0.07942 0.93466 0.39918 0.0
C1037 C 0.10551 0.93542 0.38162 0.0
C1038 C 0.04273 0.90144 0.40208 0.0
C1039 C 0.03123 0.86862 0.38718 0.0
C1040 C 0.05797 0.8688 0.37028 0.0
C1041 C 0.09498 0.90187 0.36765 0.0
C1042 C 0.92955 0.79161 0.36777 0.0
C1043 C 0.91191 0.77535 0.39017 0.0
C1044 C 0.96862 0.82123 0.36679 0.0
C1045 C 0.99059 0.83556 0.38821 0.0
C1046 C 0.97285 0.8195 0.41062 0.0
C1047 C 0.93393 0.78956 0.41158 0.0
H1048 H 0.88005 0.11143 0.1625 0.0
H1049 H 0.89602 0.11455 0.08482 0.0
H1050 H 0.85688 0.04151 0.16265 0.0
H1051 H 0.87292 0.04439 0.08492 0.0
H1052 H 0.84137 0.91988 0.1574 0.0
H1053 H 0.87534 0.99132 0.15576 0.0
H1054 H 0.80972 0.9853 0.0916 0.0
H1055 H 0.77603 0.91416 0.0932 0.0
C1056 C 0.87935 0.09728 0.14551 0.0
C1057 C 0.88955 0.11833 0.12359 0.0
C1058 C 0.86612 0.0572 0.1456 0.0
C1059 C 0.86289 0.03731 0.12378 0.0
C1060 C 0.87465 0.05876 0.102 0.0
C1061 C 0.88798 0.0989 0.10193 0.0
C1062 C 0.8346 0.93391 0.1428 0.0
C1063 C 0.80586 0.91147 0.12553 0.0
C1064 C 0.85381 0.97478 0.14196 0.0
C1065 C 0.84499 0.99404 0.12367 0.0
C1066 C 0.81726 0.97148 0.10591 0.0
C1067 C 0.79774 0.9307 0.10691 0.0
H1068 H 0.25224 0.14107 0.35089 0.0
H1069 H 0.25489 0.14863 0.42916 0.0
H1070 H 0.20767 0.16697 0.34949 0.0
H1071 H 0.21031 0.17438 0.42781 0.0
H1072 H 0.18054 0.27101 0.41293 0.0
H1073 H 0.21686 0.23629 0.41503 0.0
H1074 H 0.14229 0.15593 0.35988 0.0
H1075 H 0.10622 0.19124 0.35746 0.0
C1076 C 0.24246 0.14725 0.36782 0.0
C1077 C 0.25713 0.14293 0.39013 0.0
C1078 C 0.217 0.1622 0.36703 0.0
C1079 C 0.20576 0.17315 0.38853 0.0
C1080 C 0.21889 0.16685 0.41089 0.0
C1081 C 0.24422 0.15186 0.41168 0.0
C1082 C 0.17201 0.24607 0.40115 0.0
C1083 C 0.14065 0.23405 0.38493 0.0
C1084 C 0.19259 0.2259 0.40253 0.0
C1085 C 0.18251 0.19332 0.38762 0.0
C1086 C 0.15097 0.18109 0.37148 0.0
C1087 C 0.13014 0.20112 0.37023 0.0
H1088 H 0.08424 0.96298 0.10616 0.0
H1089 H 0.11919 0.90132 0.15562 0.0
H1090 H 0.02054 0.90419 0.10123 0.0
H1091 H 0.05531 0.84218 0.15065 0.0
H1092 H 0.9204 0.77189 0.16313 0.0
H1093 H 0.98787 0.8256 0.16392 0.0
H1094 H 0.98617 0.83524 0.08585 0.0
H1095 H 0.91839 0.78155 0.08513 0.0
C1096 C 0.07844 0.93659 0.11566 0.0
C1097 C 0.10654 0.93673 0.13136 0.0
C1098 C 0.04206 0.90287 0.11276 0.0
C1099 C 0.03277 0.86865 0.12572 0.0
C1100 C 0.0615 0.86828 0.14063 0.0
C1101 C 0.09815 0.90194 0.14331 0.0
C1102 C 0.9344 0.78563 0.14616 0.0
C1103 C 0.91417 0.77271 0.12407 0.0
C1104 C 0.97319 0.81602 0.14657 0.0
C1105 C 0.99243 0.83456 0.12493 0.0
C1106 C 0.97208 0.82167 0.10283 0.0
C1107 C 0.93337 0.79095 0.1024 0.0
H1108 H 0.83473 0.91448 0.35419 0.0
H1109 H 0.74976 0.90766 0.40617 0.0
H1110 H 0.86991 0.98571 0.35749 0.0
H1111 H 0.78418 0.97867 0.40891 0.0
H1112 H 0.87236 0.10289 0.42686 0.0
H1113 H 0.84503 0.03242 0.42433 0.0
H1114 H 0.8614 0.04151 0.34653 0.0
H1115 H 0.88916 0.11234 0.34915 0.0
C1116 C 0.82362 0.92816 0.36636 0.0
C1117 C 0.78938 0.90536 0.37989 0.0
C1118 C 0.84359 0.96898 0.36808 0.0
C1119 C 0.8299 0.98789 0.38348 0.0
C1120 C 0.79578 0.96505 0.39708 0.0
C1121 C 0.77576 0.92433 0.39529 0.0
C1122 C 0.87068 0.0899 0.40926 0.0
C1123 C 0.88259 0.11304 0.38818 0.0
C1124 C 0.85477 0.04949 0.40779 0.0
C1125 C 0.85053 0.03126 0.3852 0.0
C1126 C 0.86445 0.05468 0.36423 0.0
C1127 C 0.88044 0.09525 0.36571 0.0
H1128 H 0.27817 0.17239 0.60193 0.0
H1129 H 0.20087 0.10157 0.65943 0.0
H1130 H 0.24355 0.20874 0.59927 0.0
H1131 H 0.16569 0.13772 0.65655 0.0
H1132 H 0.14937 0.24681 0.6635 0.0
H1133 H 0.17639 0.20308 0.66558 0.0
H1134 H 0.18219 0.20275 0.58722 0.0
H1135 H 0.15566 0.24667 0.58526 0.0
C1136 C 0.25378 0.16465 0.61404 0.0
C1137 C 0.24246 0.13429 0.63101 0.0
C1138 C 0.23369 0.18527 0.61238 0.0
C1139 C 0.20191 0.17632 0.62777 0.0
C1140 C 0.19029 0.14566 0.6446 0.0
C1141 C 0.21022 0.12473 0.64611 0.0
C1142 C 0.15565 0.23665 0.64675 0.0
C1143 C 0.15068 0.25029 0.62423 0.0
C1144 C 0.17118 0.21166 0.64791 0.0
C1145 C 0.18185 0.1997 0.62657 0.0
C1146 C 0.17499 0.21193 0.60403 0.0
C1147 C 0.15958 0.23691 0.60288 0.0
H1148 H 0.12025 0.87674 0.92766 0.0
H1149 H 0.12141 0.87127 0.84938 0.0
H1150 H 0.05261 0.86261 0.92651 0.0
H1151 H 0.05399 0.85777 0.84818 0.0
H1152 H 0.92239 0.80347 0.85513 0.0
H1153 H 0.98569 0.80685 0.8598 0.0
H1154 H 0.02011 0.89931 0.9125 0.0
H1155 H 0.95701 0.89573 0.90789 0.0
C1156 C 0.10598 0.87247 0.91022 0.0
C1157 C 0.12608 0.87532 0.8886 0.0
C1158 C 0.06734 0.86448 0.90956 0.0
C1159 C 0.04797 0.85906 0.88726 0.0
C1160 C 0.06797 0.86136 0.86565 0.0
C1161 C 0.10671 0.86963 0.86632 0.0
C1162 C 0.94325 0.8239 0.86805 0.0
C1163 C 0.93497 0.84949 0.88105 0.0
C1164 C 0.97955 0.8261 0.87057 0.0
C1165 C 1.00797 0.85357 0.88637 0.0
C1166 C 0.99878 0.8777 0.90028 0.0
C1167 C 0.96276 0.87582 0.89756 0.0
H1168 H 0.77546 0.90555 0.66979 0.0
H1169 H 0.79605 0.91946 0.5925 0.0
H1170 H 0.81975 0.97552 0.67549 0.0
H1171 H 0.84126 0.98981 0.59833 0.0
H1172 H 0.95322 0.10423 0.63715 0.0
H1173 H 0.91041 0.03606 0.62435 0.0
H1174 H 0.81263 0.03609 0.65895 0.0
H1175 H 0.85463 0.10394 0.67108 0.0
C1176 C 0.79008 0.92346 0.65408 0.0
C1177 C 0.78238 0.90714 0.63072 0.0
C1178 C 0.81515 0.96352 0.65732 0.0
C1179 C 0.83376 0.98799 0.63733 0.0
C1180 C 0.82738 0.9715 0.61402 0.0
C1181 C 0.80156 0.9314 0.61071 0.0
C1182 C 0.92238 0.09001 0.64138 0.0
C1183 C 0.90748 0.10925 0.65555 0.0
C1184 C 0.89797 0.05101 0.63416 0.0
C1185 C 0.85848 0.03073 0.64116 0.0
C1186 C 0.84314 0.05086 0.65376 0.0
C1187 C 0.86724 0.08969 0.66069 0.0
H1188 H 0.15066 0.23866 0.92659 0.0
H1189 H 0.16296 0.25092 0.84869 0.0
H1190 H 0.17538 0.19291 0.92576 0.0
H1191 H 0.18766 0.20538 0.84782 0.0
H1192 H 0.27197 0.15973 0.91545 0.0
H1193 H 0.23896 0.19781 0.91756 0.0
H1194 H 0.16965 0.13651 0.85492 0.0
H1195 H 0.20291 0.09837 0.85278 0.0
C1196 C 0.15832 0.23127 0.90929 0.0
C1197 C 0.15521 0.24861 0.88776 0.0
C1198 C 0.17257 0.20519 0.9088 0.0
C1199 C 0.18366 0.19561 0.88673 0.0
C1200 C 0.179 0.21178 0.86509 0.0
C1201 C 0.16486 0.23791 0.8656 0.0
C1202 C 0.24966 0.15437 0.90214 0.0
C1203 C 0.24024 0.12625 0.88385 0.0
C1204 C 0.23052 0.176 0.90346 0.0
C1205 C 0.20183 0.17043 0.88631 0.0
C1206 C 0.19191 0.1418 0.86825 0.0
C1207 C 0.21072 0.11976 0.86713 0.0
H1208 H 0.1229 0.87407 0.66514 0.0
H1209 H 0.11952 0.87621 0.58684 0.0
H1210 H 0.0521 0.84658 0.6665 0.0
H1211 H 0.04895 0.84901 0.58811 0.0
H1212 H 0.92188 0.75162 0.59987 0.0
H1213 H 0.99292 0.78571 0.59837 0.0
H1214 H 0.99829 0.85948 0.65784 0.0
H1215 H 0.92692 0.82485 0.65955 0.0
C1216 C 0.10711 0.86945 0.64826 0.0
C1217 C 0.12659 0.87697 0.62588 0.0
C1218 C 0.06656 0.85365 0.64901 0.0
C1219 C 0.04478 0.84525 0.6274 0.0
C1220 C 0.0647 0.85451 0.60508 0.0
C1221 C 0.10513 0.87025 0.60434 0.0
C1222 C 0.9382 0.77498 0.6127 0.0
C1223 C 0.91874 0.78535 0.62992 0.0
C1224 C 0.97896 0.79479 0.61171 0.0
C1225 C 1.00136 0.8253 0.62803 0.0
C1226 C 0.98191 0.83589 0.64516 0.0
C1227 C 0.94105 0.81628 0.646 0.0
H1228 H 0.9328 0.10146 0.85445 0.0
H1229 H 0.87217 0.10914 0.91756 0.0
H1230 H 0.89401 0.03009 0.85623 0.0
H1231 H 0.83291 0.0382 0.91898 0.0
H1232 H 0.78966 0.90977 0.92821 0.0
H1233 H 0.83642 0.97975 0.92719 0.0
H1234 H 0.82604 0.97902 0.84905 0.0
H1235 H 0.77942 0.9089 0.85015 0.0
C1236 C 0.91144 0.08792 0.86881 0.0
C1237 C 0.90544 0.11098 0.88579 0.0
C1238 C 0.88895 0.04706 0.86968 0.0
C1239 C 0.86021 0.02839 0.88768 0.0
C1240 C 0.85495 0.05152 0.90498 0.0
C1241 C 0.87721 0.09225 0.90403 0.0
C1242 C 0.79774 0.92456 0.91081 0.0
C1243 C 0.78078 0.90401 0.88928 0.0
C1244 C 0.82439 0.96464 0.91022 0.0
C1245 C 0.83477 0.9851 0.88805 0.0
C1246 C 0.81898 0.96413 0.86641 0.0
C1247 C 0.79227 0.92397 0.86702 0.0
H1248 H 0.31101 0.15057 0.31302 0.0
H1249 H 0.43325 0.18808 0.32093 0.0
H1250 H 0.31846 0.15753 0.26957 0.0
H1251 H 0.44175 0.19768 0.27674 0.0
H1252 H 0.4252 0.1569 0.19502 0.0
H1253 H 0.42827 0.16328 0.2394 0.0
H1254 H 0.34024 0.1977 0.23676 0.0
H1255 H 0.33499 0.18765 0.19316 0.0
C1256 C 0.33988 0.16133 0.30541 0.0
C1257 C 0.37147 0.16852 0.32043 0.0
C1258 C 0.34434 0.16575 0.28031 0.0
C1259 C 0.38086 0.17851 0.26925 0.0
C1260 C 0.41306 0.18742 0.28443 0.0
C1261 C 0.40841 0.18251 0.3098 0.0
C1262 C 0.40739 0.16684 0.20405 0.0
C1263 C 0.38034 0.17245 0.19069 0.0
C1264 C 0.40904 0.17048 0.22951 0.0
C1265 C 0.38405 0.18043 0.24202 0.0
C1266 C 0.35914 0.18878 0.22814 0.0
C1267 C 0.35664 0.18389 0.20297 0.0
H1268 H 0.78234 0.59694 0.32196 0.0
H1269 H 0.86301 0.72053 0.31444 0.0
H1270 H 0.78475 0.58908 0.27776 0.0
H1271 H 0.86348 0.71362 0.27108 0.0
H1272 H 0.88108 0.69892 0.19529 0.0
H1273 H 0.88478 0.6933 0.23896 0.0
H1274 H 0.76355 0.60191 0.24014 0.0
H1275 H 0.76146 0.60545 0.19572 0.0
C1276 C 0.8009 0.62224 0.31092 0.0
C1277 C 0.82233 0.65934 0.32164 0.0
C1278 C 0.80192 0.61793 0.28558 0.0
C1279 C 0.82445 0.65066 0.27058 0.0
C1280 C 0.84655 0.6874 0.28172 0.0
C1281 C 0.84592 0.69152 0.30678 0.0
C1282 C 0.85572 0.67663 0.20483 0.0
C1283 C 0.82122 0.6522 0.1922 0.0
C1284 C 0.85748 0.67382 0.22999 0.0
C1285 C 0.82416 0.64779 0.24343 0.0
C1286 C 0.78997 0.62204 0.23056 0.0
C1287 C 0.78866 0.62402 0.20511 0.0
H1288 H 0.84317 0.15096 0.19414 0.0
H1289 H 0.87455 0.27227 0.19415 0.0
H1290 H 0.83452 0.14799 0.2378 0.0
H1291 H 0.86901 0.27052 0.23867 0.0
H1292 H 0.84414 0.24969 0.32133 0.0
H1293 H 0.83404 0.24874 0.27711 0.0
H1294 H 0.87945 0.16999 0.26893 0.0
H1295 H 0.88722 0.16938 0.31228 0.0
C1296 C 0.8472 0.17681 0.20352 0.0
C1297 C 0.8587 0.21159 0.1907 0.0
C1298 C 0.84303 0.17541 0.22871 0.0
C1299 C 0.852 0.20926 0.24208 0.0
C1300 C 0.86149 0.24374 0.2291 0.0
C1301 C 0.86462 0.24481 0.20358 0.0
C1302 C 0.85104 0.23158 0.30997 0.0
C1303 C 0.86661 0.20973 0.32032 0.0
C1304 C 0.84571 0.23136 0.28462 0.0
C1305 C 0.85558 0.20905 0.26922 0.0
C1306 C 0.87045 0.18681 0.27993 0.0
C1307 C 0.87545 0.18684 0.30497 0.0
H1308 H 0.14717 0.30148 0.7007 0.0
H1309 H 0.19973 0.42628 0.69143 0.0
H1310 H 0.15665 0.30979 0.74401 0.0
H1311 H 0.21039 0.43497 0.73564 0.0
H1312 H 0.16701 0.41736 0.81866 0.0
H1313 H 0.17215 0.42136 0.77408 0.0
H1314 H 0.20523 0.33233 0.77431 0.0
H1315 H 0.19761 0.32685 0.81809 0.0
C1316 C 0.16141 0.33093 0.70792 0.0
C1317 C 0.17276 0.36324 0.69255 0.0
C1318 C 0.16715 0.33576 0.7329 0.0
C1319 C 0.18466 0.37312 0.74348 0.0
C1320 C 0.19674 0.40576 0.72811 0.0
C1321 C 0.19107 0.40087 0.70281 0.0
C1322 C 0.17659 0.39969 0.80908 0.0
C1323 C 0.18252 0.37224 0.82178 0.0
C1324 C 0.17948 0.40187 0.78358 0.0
C1325 C 0.18861 0.37678 0.7705 0.0
C1326 C 0.19734 0.35153 0.78362 0.0
C1327 C 0.19362 0.3488 0.80882 0.0
H1328 H 0.16156 0.83152 0.81935 0.0
H1329 H 0.28393 0.86765 0.81968 0.0
H1330 H 0.15952 0.82391 0.77558 0.0
H1331 H 0.28311 0.86342 0.77517 0.0
H1332 H 0.26586 0.8409 0.6927 0.0
H1333 H 0.26391 0.82961 0.73681 0.0
H1334 H 0.17961 0.86824 0.74441 0.0
H1335 H 0.17998 0.87695 0.70112 0.0
C1336 C 0.18789 0.83688 0.80999 0.0
C1337 C 0.22266 0.84927 0.8229 0.0
C1338 C 0.18702 0.83336 0.78477 0.0
C1339 C 0.22138 0.84397 0.77152 0.0
C1340 C 0.25595 0.85459 0.78462 0.0
C1341 C 0.2565 0.85696 0.81013 0.0
C1342 C 0.24635 0.84601 0.70391 0.0
C1343 C 0.22329 0.86006 0.69346 0.0
C1344 C 0.24552 0.84002 0.7292 0.0
C1345 C 0.22144 0.84776 0.74441 0.0
C1346 C 0.19785 0.8609 0.73356 0.0
C1347 C 0.19843 0.86645 0.70856 0.0
H1348 H 0.72874 0.85182 0.7016 0.0
H1349 H 0.60559 0.77047 0.69327 0.0
H1350 H 0.72088 0.85253 0.74488 0.0
H1351 H 0.5969 0.77273 0.73744 0.0
H1352 H 0.61461 0.7502 0.82007 0.0
H1353 H 0.61058 0.75178 0.77562 0.0
H1354 H 0.69854 0.87432 0.77628 0.0
H1355 H 0.70445 0.87144 0.82003 0.0
C1356 C 0.69964 0.83448 0.70905 0.0
C1357 C 0.66785 0.81076 0.69395 0.0
C1358 C 0.69498 0.83526 0.73406 0.0
C1359 C 0.65811 0.813 0.74496 0.0
C1360 C 0.6258 0.7901 0.72978 0.0
C1361 C 0.63062 0.78911 0.70446 0.0
C1362 C 0.63212 0.77761 0.8106 0.0
C1363 C 0.65953 0.81082 0.8234 0.0
C1364 C 0.62992 0.77859 0.78512 0.0
C1365 C 0.65476 0.813 0.7721 0.0
C1366 C 0.67977 0.84691 0.78541 0.0
C1367 C 0.68273 0.84558 0.81061 0.0
H1368 H 0.22442 0.96636 0.95078 0.0
H1369 H 0.3071 0.92863 0.96733 0.0
H1370 H 0.24796 1.01111 0.98497 0.0
H1371 H 0.33097 0.97398 1.00219 0.0
H1372 H 0.3877 0.09449 0.04553 0.0
H1373 H 0.36709 0.04907 0.01074 0.0
H1374 H 0.24649 1.00669 0.02946 0.0
H1375 H 0.26681 0.05152 0.06356 0.0
C1376 C 0.24737 0.96726 0.962 0.0
C1377 C 0.2636 0.94361 0.95648 0.0
C1378 C 0.26093 0.99303 0.98163 0.0
C1379 C 0.29147 0.99633 0.99634 0.0
C1380 C 0.30762 0.97238 0.99107 0.0
C1381 C 0.29357 0.94598 0.97141 0.0
C1382 C 0.35687 0.07595 0.04181 0.0
C1383 C 0.32891 0.07688 0.05715 0.0
C1384 C 0.34504 0.04952 0.02218 0.0
C1385 C 0.30508 0.02408 0.01734 0.0
C1386 C 0.27744 0.02592 0.03246 0.0
C1387 C 0.28914 0.05174 0.05205 0.0
H1388 H 0.81734 0.76306 0.4525 0.0
H1389 H 0.73317 0.64262 0.46801 0.0
H1390 H 0.7934 0.78413 0.48635 0.0
H1391 H 0.70921 0.66398 0.50292 0.0
H1392 H 0.65326 0.72734 0.54736 0.0
H1393 H 0.67353 0.70201 0.51264 0.0
H1394 H 0.79428 0.7826 0.52983 0.0
H1395 H 0.77436 0.80798 0.56344 0.0
C1396 C 0.79408 0.74091 0.46351 0.0
C1397 C 0.77748 0.7011 0.45768 0.0
C1398 C 0.78026 0.75306 0.48299 0.0
C1399 C 0.74928 0.72586 0.49747 0.0
C1400 C 0.7329 0.68575 0.49201 0.0
C1401 C 0.74706 0.67344 0.47236 0.0
C1402 C 0.68402 0.74013 0.54322 0.0
C1403 C 0.71213 0.76997 0.55802 0.0
C1404 C 0.69568 0.72517 0.52366 0.0
C1405 C 0.73562 0.74017 0.51841 0.0
C1406 C 0.76333 0.77052 0.53303 0.0
C1407 C 0.75182 0.78514 0.5524 0.0
H1408 H 0.12808 0.36445 0.97556 0.0
H1409 H 0.02738 0.27996 0.93509 0.0
H1410 H 0.08756 0.34836 0.01205 0.0
H1411 H 0.98782 0.26318 0.97126 0.0
H1412 H 0.915 0.25766 0.03629 0.0
H1413 H 0.95551 0.28113 0.99977 0.0
H1414 H 0.05583 0.29932 0.04143 0.0
H1415 H 1.01617 0.27739 0.07763 0.0
C1416 C 0.09747 0.3425 0.97437 0.0
C1417 C 0.08136 0.32373 0.95217 0.0
C1418 C 0.07412 0.33302 0.99538 0.0
C1419 C 0.03406 0.30433 0.99483 0.0
C1420 C 1.01812 0.28592 0.97255 0.0
C1421 C 0.04123 0.29548 0.95166 0.0
C1422 C 0.94573 0.26691 0.03767 0.0
C1423 C 0.96196 0.26544 0.06011 0.0
C1424 C 0.96908 0.28023 0.01665 0.0
C1425 C 1.00929 0.29229 0.01742 0.0
C1426 C 0.02538 0.29114 0.03995 0.0
C1427 C 1.00223 0.27808 0.06086 0.0
H1428 H 0.38765 0.09549 0.46704 0.0
H1429 H 0.26654 0.05308 0.44987 0.0
H1430 H 0.3674 0.05084 0.50226 0.0
H1431 H 0.2466 1.0088 0.48416 0.0
H1432 H 0.22394 0.96857 0.56225 0.0
H1433 H 0.24765 1.01291 0.52796 0.0
H1434 H 0.33195 0.9769 0.51209 0.0
H1435 H 0.30816 0.93221 0.54731 0.0
C1436 C 0.35687 0.07726 0.47104 0.0
C1437 C 0.32872 0.0781 0.45581 0.0
C1438 C 0.34524 0.05123 0.4909 0.0
C1439 C 0.30532 0.02607 0.49602 0.0
C1440 C 0.27754 0.02786 0.481 0.0
C1441 C 0.28903 0.05337 0.46127 0.0
C1442 C 0.24721 0.96959 0.55132 0.0
C1443 C 0.26388 0.94652 0.55739 0.0
C1444 C 0.26088 0.99514 0.5316 0.0
C1445 C 0.2918 0.99865 0.51721 0.0
C1446 C 0.3083 0.97515 0.52295 0.0
C1447 C 0.29426 0.94907 0.5428 0.0
H1448 H 0.82284 0.75733 0.05871 0.0
H1449 H 0.72556 0.64012 0.05161 0.0
H1450 H 0.80019 0.77796 0.02375 0.0
H1451 H 0.70256 0.66083 0.01591 0.0
H1452 H 0.65524 0.7313 0.97036 0.0
H1453 H 0.67496 0.70616 1.00539 0.0
H1454 H 0.79423 0.76798 0.98014 0.0
H1455 H 0.77503 0.79318 0.94598 0.0
C1456 C 0.79689 0.73573 0.04929 0.0
C1457 C 0.7763 0.69698 0.05766 0.0
C1458 C 0.78382 0.74759 0.02924 0.0
C1459 C 0.74948 0.72113 0.01695 0.0
C1460 C 0.72896 0.68202 0.02507 0.0
C1461 C 0.74243 0.66997 0.0452 0.0
C1462 C 0.68569 0.73985 0.97258 0.0
C1463 C 0.71352 0.76444 0.9554 0.0
C1464 C 0.69691 0.72503 0.99242 0.0
C1465 C 0.73622 0.73497 0.99559 0.0
C1466 C 0.76381 0.75991 0.97849 0.0
C1467 C 0.75268 0.77435 0.95878 0.0
H1468 H 0.06511 0.25652 0.56094 0.0
H1469 H 0.09377 0.37594 0.54941 0.0
H1470 H 0.02029 0.23565 0.52684 0.0
H1471 H 0.04892 0.35506 0.51441 0.0
H1472 H 0.93204 0.29157 0.46881 0.0
H1473 H 0.97688 0.31568 0.5039 0.0
H1474 H 0.02166 0.23985 0.48373 0.0
H1475 H 0.97701 0.21544 0.44989 0.0
C1476 C 0.06241 0.27849 0.55071 0.0
C1477 C 0.08328 0.31792 0.55773 0.0
C1478 C 0.03656 0.26652 0.53112 0.0
C1479 C 0.03076 0.29359 0.51777 0.0
C1480 C 0.05233 0.33335 0.52442 0.0
C1481 C 0.07857 0.34545 0.54414 0.0
C1482 C 0.95096 0.27962 0.47229 0.0
C1483 C 0.95067 0.2514 0.45657 0.0
C1484 C 0.97709 0.29384 0.49212 0.0
C1485 C 1.00304 0.27976 0.4967 0.0
C1486 C 1.00195 0.25112 0.48111 0.0
C1487 C 0.97624 0.23716 0.46152 0.0
H1488 H 0.66717 0.23218 0.10939 0.0
H1489 H 0.62103 0.11049 0.09232 0.0
H1490 H 0.60278 0.21796 0.12365 0.0
H1491 H 0.55623 0.09598 0.10643 0.0
H1492 H 0.44493 0.08546 0.14348 0.0
H1493 H 0.51185 0.09664 0.14084 0.0
H1494 H 0.54509 0.19952 0.09732 0.0
H1495 H 0.4792 0.18829 0.09962 0.0
C1496 C 0.64346 0.20217 0.10953 0.0
C1497 C 0.64895 0.17237 0.1 0.0
C1498 C 0.60653 0.19402 0.11746 0.0
C1499 C 0.57426 0.1559 0.11589 0.0
C1500 C 0.58049 0.12556 0.10804 0.0
C1501 C 0.61752 0.1338 0.1 0.0
C1502 C 0.46657 0.11039 0.1334 0.0
C1503 C 0.45641 0.13556 0.12147 0.0
C1504 C 0.50489 0.11683 0.13191 0.0
C1505 C 0.5339 0.14917 0.11902 0.0
C1506 C 0.52374 0.1747 0.10771 0.0
C1507 C 0.48567 0.16794 0.10884 0.0
H1508 H 0.70449 0.56982 0.43055 0.0
H1509 H 0.69686 0.57567 0.35261 0.0
H1510 H 0.65425 0.50128 0.42995 0.0
H1511 H 0.64584 0.50638 0.35196 0.0
H1512 H 0.60578 0.37286 0.36227 0.0
H1513 H 0.64612 0.44395 0.36 0.0
H1514 H 0.58514 0.45503 0.42178 0.0
H1515 H 0.54558 0.38401 0.4245 0.0
C1516 C 0.69142 0.55656 0.4133 0.0
C1517 C 0.70475 0.57798 0.3916 0.0
C1518 C 0.66246 0.51725 0.41297 0.0
C1519 C 0.64615 0.49823 0.3909 0.0
C1520 C 0.65815 0.52014 0.36923 0.0
C1521 C 0.687 0.55984 0.3696 0.0
C1522 C 0.60099 0.39046 0.37538 0.0
C1523 C 0.57267 0.37264 0.39372 0.0
C1524 C 0.62374 0.43124 0.37385 0.0
C1525 C 0.61887 0.45519 0.3907 0.0
C1526 C 0.58982 0.43741 0.40861 0.0
C1527 C 0.56695 0.39668 0.41007 0.0
H1528 H 0.89406 0.32392 0.0827 0.0
H1529 H 0.92421 0.34504 0.1587 0.0
H1530 H 0.88271 0.3789 0.08169 0.0
H1531 H 0.91304 0.40083 0.15769 0.0
H1532 H 0.82197 0.44455 0.15109 0.0
H1533 H 0.85271 0.40446 0.15397 0.0
H1534 H 0.90913 0.44933 0.08485 0.0
H1535 H 0.87743 0.48881 0.08169 0.0
C1536 C 0.89906 0.34091 0.09911 0.0
C1537 C 0.9096 0.32989 0.12085 0.0
C1538 C 0.89282 0.37269 0.09849 0.0
C1539 C 0.89666 0.3942 0.11964 0.0
C1540 C 0.90945 0.3846 0.14112 0.0
C1541 C 0.91617 0.35289 0.14168 0.0
C1542 C 0.84118 0.44611 0.13658 0.0
C1543 C 0.84668 0.46938 0.11595 0.0
C1544 C 0.85923 0.42347 0.13838 0.0
C1545 C 0.88322 0.42342 0.11958 0.0
C1546 C 0.89047 0.44836 0.09955 0.0
C1547 C 0.87252 0.47119 0.09779 0.0
H1548 H 0.45691 0.13053 0.35019 0.0
H1549 H 0.45965 0.13436 0.42852 0.0
H1550 H 0.52643 0.14987 0.34968 0.0
H1551 H 0.52844 0.15382 0.42809 0.0
H1552 H 0.6468 0.16531 0.42189 0.0
H1553 H 0.57596 0.13368 0.4186 0.0
H1554 H 0.58797 0.21126 0.35977 0.0
H1555 H 0.65894 0.24215 0.36253 0.0
C1556 C 0.47213 0.13461 0.36725 0.0
C1557 C 0.45303 0.13118 0.38937 0.0
C1558 C 0.51197 0.1461 0.36699 0.0
C1559 C 0.53311 0.15368 0.38885 0.0
C1560 C 0.51313 0.14791 0.41093 0.0
C1561 C 0.47367 0.13688 0.41118 0.0
C1562 C 0.63441 0.17525 0.40798 0.0
C1563 C 0.6587 0.20651 0.39258 0.0
C1564 C 0.59374 0.15728 0.40621 0.0
C1565 C 0.57622 0.16997 0.38896 0.0
C1566 C 0.60045 0.20046 0.37309 0.0
C1567 C 0.64117 0.21856 0.37492 0.0
H1568 H 0.56953 0.37624 0.09516 0.0
H1569 H 0.5013 0.42856 0.11742 0.0
H1570 H 0.62943 0.43753 0.10399 0.0
H1571 H 0.56091 0.49008 0.12531 0.0
H1572 H 0.67867 0.58909 0.154 0.0
H1573 H 0.61832 0.52588 0.15001 0.0
H1574 H 0.6646 0.5014 0.08549 0.0
H1575 H 0.72418 0.56466 0.08946 0.0
C1576 C 0.56725 0.40059 0.10225 0.0
C1577 C 0.5305 0.39748 0.10526 0.0
C1578 C 0.60163 0.43598 0.107 0.0
C1579 C 0.60017 0.46916 0.11498 0.0
C1580 C 0.56337 0.46532 0.11924 0.0
C1581 C 0.52908 0.43003 0.11448 0.0
C1582 C 0.67556 0.57024 0.13888 0.0
C1583 C 0.70622 0.58127 0.12227 0.0
C1584 C 0.64111 0.53395 0.1366 0.0
C1585 C 0.6367 0.50798 0.11766 0.0
C1586 C 0.66724 0.51989 0.10072 0.0
C1587 C 0.70139 0.55615 0.10294 0.0
H1588 H 0.79644 0.42474 0.36321 0.0
H1589 H 0.87119 0.48736 0.4237 0.0
H1590 H 0.82705 0.38437 0.36052 0.0
H1591 H 0.90252 0.4477 0.42055 0.0
H1592 H 0.89924 0.32879 0.42996 0.0
H1593 H 0.88139 0.37941 0.42951 0.0
H1594 H 0.88812 0.38325 0.35118 0.0
H1595 H 0.90594 0.33186 0.35173 0.0
C1596 C 0.81957 0.43009 0.37585 0.0
C1597 C 0.831 0.45911 0.39385 0.0
C1598 C 0.83751 0.40727 0.37408 0.0
C1599 C 0.86727 0.41271 0.39032 0.0
C1600 C 0.8795 0.44249 0.40786 0.0
C1601 C 0.8617 0.46545 0.40955 0.0
C1602 C 0.89778 0.34105 0.41264 0.0
C1603 C 0.9039 0.32632 0.39087 0.0
C1604 C 0.88765 0.37021 0.41238 0.0
C1605 C 0.88305 0.38533 0.39031 0.0
C1606 C 0.89104 0.37195 0.36849 0.0
C1607 C 0.9017 0.3429 0.36878 0.0
H1608 H 0.09411 0.60204 0.62632 0.0
H1609 H 0.21331 0.65225 0.60186 0.0
H1610 H 0.09221 0.54052 0.63514 0.0
H1611 H 0.21172 0.59091 0.61114 0.0
H1612 H 0.16898 0.46244 0.59071 0.0
H1613 H 0.1772 0.52738 0.59048 0.0
H1614 H 0.1176 0.50445 0.6594 0.0
H1615 H 0.10993 0.4389 0.65989 0.0
C1616 C 0.12018 0.60015 0.6233 0.0
C1617 C 0.15372 0.63186 0.6131 0.0
C1618 C 0.11917 0.56497 0.62852 0.0
C1619 C 0.15161 0.56058 0.62354 0.0
C1620 C 0.18601 0.59315 0.61484 0.0
C1621 C 0.1871 0.62845 0.60976 0.0
C1622 C 0.15769 0.47103 0.60597 0.0
C1623 C 0.13807 0.44491 0.62517 0.0
C1624 C 0.16277 0.50861 0.6059 0.0
C1625 C 0.14826 0.52131 0.62496 0.0
C1626 C 0.12892 0.49546 0.64435 0.0
C1627 C 0.12424 0.45778 0.64456 0.0
H1628 H 0.32179 0.85797 0.92606 0.0
H1629 H 0.36398 0.93085 0.86202 0.0
H1630 H 0.38055 0.85375 0.92736 0.0
H1631 H 0.42365 0.92638 0.86337 0.0
H1632 H 0.54187 0.94504 0.89682 0.0
H1633 H 0.48253 0.94732 0.8882 0.0
H1634 H 0.41324 0.82481 0.9062 0.0
H1635 H 0.47254 0.82293 0.91572 0.0
C1636 C 0.34357 0.87316 0.91214 0.0
C1637 C 0.33793 0.89493 0.89393 0.0
C1638 C 0.37731 0.87034 0.91279 0.0
C1639 C 0.40672 0.88919 0.89529 0.0
C1640 C 0.40157 0.91148 0.87717 0.0
C1641 C 0.36742 0.91417 0.87643 0.0
C1642 C 0.51396 0.91848 0.89876 0.0
C1643 C 0.512 0.88395 0.90741 0.0
C1644 C 0.47992 0.91973 0.89358 0.0
C1645 C 0.44301 0.88646 0.89691 0.0
C1646 C 0.44117 0.85125 0.90393 0.0
C1647 C 0.47522 0.85 0.90912 0.0
H1648 H 0.60022 0.66709 0.65185 0.0
H1649 H 0.56725 0.71478 0.59166 0.0
H1650 H 0.5351 0.6088 0.65119 0.0
H1651 H 0.50323 0.65716 0.5909 0.0
H1652 H 0.38017 0.56471 0.60331 0.0
H1653 H 0.44252 0.62334 0.61222 0.0
H1654 H 0.49428 0.55162 0.62685 0.0
H1655 H 0.43171 0.49319 0.61882 0.0
C1656 C 0.57936 0.66516 0.63841 0.0
C1657 C 0.58937 0.69579 0.62177 0.0
C1658 C 0.54191 0.63173 0.63805 0.0
C1659 C 0.51349 0.62829 0.62116 0.0
C1660 C 0.52376 0.65895 0.60456 0.0
C1661 C 0.56094 0.69204 0.60486 0.0
C1662 C 0.40455 0.56143 0.6091 0.0
C1663 C 0.40098 0.52423 0.61003 0.0
C1664 C 0.44054 0.59508 0.61389 0.0
C1665 C 0.47388 0.59242 0.61979 0.0
C1666 C 0.46947 0.55502 0.62239 0.0
C1667 C 0.43356 0.52144 0.61759 0.0
H1668 H 0.20431 0.64536 0.91375 0.0
H1669 H 0.08268 0.59385 0.8943 0.0
H1670 H 0.20202 0.58399 0.90407 0.0
H1671 H 0.08 0.53201 0.88548 0.0
H1672 H 0.09746 0.43014 0.85855 0.0
H1673 H 0.10105 0.49398 0.86057 0.0
H1674 H 0.17211 0.52202 0.92514 0.0
H1675 H 0.16861 0.45928 0.92321 0.0
C1676 C 0.17727 0.62121 0.90699 0.0
C1677 C 0.14355 0.62443 0.90519 0.0
C1678 C 0.17578 0.5858 0.90171 0.0
C1679 C 0.14056 0.55271 0.89449 0.0
C1680 C 0.10756 0.55676 0.89104 0.0
C1681 C 0.10905 0.59217 0.89633 0.0
C1682 C 0.11347 0.44983 0.87327 0.0
C1683 C 0.13289 0.43949 0.89059 0.0
C1684 C 0.11572 0.4865 0.87437 0.0
C1685 C 0.13759 0.51356 0.89274 0.0
C1686 C 0.15603 0.50258 0.91031 0.0
C1687 C 0.1537 0.46624 0.90927 0.0
H1688 H 0.36606 0.93836 0.65448 0.0
H1689 H 0.3246 0.86393 0.59114 0.0
H1690 H 0.42547 0.93341 0.65417 0.0
H1691 H 0.38327 0.8595 0.59071 0.0
H1692 H 0.47591 0.82977 0.60325 0.0
H1693 H 0.41618 0.8314 0.61173 0.0
H1694 H 0.48465 0.9535 0.63086 0.0
H1695 H 0.54429 0.95136 0.62341 0.0
C1696 C 0.3696 0.92119 0.64045 0.0
C1697 C 0.34039 0.90167 0.62285 0.0
C1698 C 0.40364 0.91828 0.64028 0.0
C1699 C 0.40907 0.89557 0.6226 0.0
C1700 C 0.37988 0.8764 0.605 0.0
C1701 C 0.34619 0.87936 0.60512 0.0
C1702 C 0.47827 0.85667 0.6099 0.0
C1703 C 0.51497 0.89056 0.61227 0.0
C1704 C 0.44397 0.8578 0.61446 0.0
C1705 C 0.44545 0.89285 0.6215 0.0
C1706 C 0.48223 0.92601 0.62547 0.0
C1707 C 0.51649 0.92485 0.62095 0.0
H1708 H 0.59713 0.65915 0.8691 0.0
H1709 H 0.56309 0.72801 0.91271 0.0
H1710 H 0.52993 0.60369 0.87141 0.0
H1711 H 0.49698 0.67367 0.91473 0.0
H1712 H 0.37501 0.58494 0.903 0.0
H1713 H 0.4394 0.63474 0.88849 0.0
H1714 H 0.48527 0.55869 0.90562 0.0
H1715 H 0.42041 0.50869 0.91988 0.0
C1716 C 0.57544 0.66257 0.87901 0.0
C1717 C 0.5857 0.69785 0.891 0.0
C1718 C 0.537 0.63087 0.88033 0.0
C1719 C 0.50802 0.63437 0.8931 0.0
C1720 C 0.51829 0.67007 0.90442 0.0
C1721 C 0.55647 0.70119 0.90346 0.0
C1722 C 0.39857 0.57844 0.9028 0.0
C1723 C 0.3929 0.54307 0.91236 0.0
C1724 C 0.43549 0.60698 0.89471 0.0
C1725 C 0.46758 0.60087 0.89621 0.0
C1726 C 0.46114 0.5642 0.90407 0.0
C1727 C 0.42408 0.53559 0.91221 0.0
loop_
_geom_bond_atom_site_label_1
_geom_bond_atom_site_label_2
_geom_bond_distance
_geom_bond_site_symmetry_2
_ccdc_geom_bond_type
C0 C2 1.422 . S
C0 C4 1.415 . S
C0 N6 1.369 . S
C1 C2 1.421 . S
C1 C3 1.417 . S
C1 C13 1.422 . S
C2 C0 1.422 . S
C2 C1 1.421 . S
C2 N12 1.359 . S
C3 C1 1.417 . S
C3 C5 1.329 . S
C3 H22 0.930 . S
C4 C0 1.415 . S
C4 C5 1.437 . S
C4 C8 1.413 . S
C5 C3 1.329 . S
C5 C4 1.437 . S
C5 H27 0.929 . S
N6 C0 1.369 . S
N6 C7 1.338 . S
N6 Gd11 2.622 . S
C7 N6 1.338 . S
C7 C9 1.378 . S
C7 H19 0.929 . S
C8 C4 1.413 . S
C8 C9 1.348 . S
C8 H24 0.931 . S
C9 C7 1.378 . S
C9 C8 1.348 . S
C9 H25 0.930 1_554 S
Gd10 N30 2.622 . S
Gd10 N37 2.570 . S
Gd10 O44 2.353 . S
Gd10 O45 2.468 . S
Gd10 O46 2.427 . S
Gd10 O48 2.388 . S
Gd10 O49 2.386 . S
Gd10 O53 2.307 . S
Gd10 C63 2.805 . S
Gd11 N6 2.622 . S
Gd11 N12 2.570 . S
Gd11 O43 2.386 . S
Gd11 O47 2.307 . S
Gd11 O50 2.353 . S
Gd11 O51 2.468 . S
Gd11 O52 2.427 . S
Gd11 O54 2.388 . S
Gd11 C75 2.805 . S
N12 C2 1.359 . S
N12 Gd11 2.570 . S
N12 C14 1.343 . S
C13 C1 1.422 . S
C13 C15 1.321 . S
C13 H21 0.931 . S
C14 N12 1.343 . S
C14 C15 1.390 . S
C14 H16 0.931 . S
C15 C13 1.321 . S
C15 C14 1.390 . S
C15 H17 0.930 . S
H16 C14 0.931 . S
H17 C15 0.930 . S
H18 C41 0.931 . S
H19 C7 0.929 . S
H20 C42 0.930 . S
H21 C13 0.931 . S
H22 C3 0.930 . S
H23 C32 0.929 . S
H24 C8 0.931 . S
H25 C9 0.930 1_556 S
H26 C64 0.930 . S
H27 C5 0.929 . S
H28 C33 0.931 . S
H29 C34 0.930 . S
N30 Gd10 2.622 . S
N30 C31 1.369 . S
N30 C32 1.338 . S
C31 N30 1.369 . S
C31 C35 1.415 . S
C31 C38 1.422 . S
C32 H23 0.929 . S
C32 N30 1.338 . S
C32 C34 1.378 . S
C33 H28 0.931 . S
C33 C34 1.348 . S
C33 C35 1.413 . S
C34 H29 0.930 . S
C34 C32 1.378 . S
C34 C33 1.348 . S
C35 C31 1.415 . S
C35 C33 1.413 . S
C35 C65 1.437 . S
H36 C65 0.929 . S
N37 Gd10 2.570 . S
N37 C38 1.359 . S
N37 C41 1.343 . S
C38 C31 1.422 . S
C38 N37 1.359 . S
C38 C40 1.421 . S
C39 C40 1.422 1_565 S
C39 C42 1.321 1_565 S
C39 H66 0.931 . S
C40 C38 1.421 . S
C40 C39 1.422 1_545 S
C40 C64 1.417 1_545 S
C41 H18 0.931 . S
C41 N37 1.343 . S
C41 C42 1.390 . S
C42 H20 0.930 . S
C42 C39 1.321 1_545 S
C42 C41 1.390 . S
O43 Gd11 2.386 . S
O43 C55 1.265 . S
O44 Gd10 2.353 . S
O44 C55 1.242 . S
O45 Gd10 2.468 . S
O45 C63 1.263 . S
O46 Gd10 2.427 . S
O46 C63 1.252 . S
O47 Gd11 2.307 . S
O47 C56 1.261 . S
O48 Gd10 2.388 . S
O48 C56 1.252 . S
O49 Gd10 2.386 . S
O49 C67 1.265 . S
O50 Gd11 2.353 . S
O50 C67 1.242 . S
O51 Gd11 2.468 . S
O51 C75 1.263 . S
O52 Gd11 2.427 . S
O52 C75 1.252 . S
O53 Gd10 2.307 . S
O53 C68 1.261 . S
O54 Gd11 2.388 . S
O54 C68 1.252 . S
C55 O43 1.265 . S
C55 O44 1.242 . S
C56 O47 1.261 . S
C56 O48 1.252 . S
C57 C60 1.395 . S
C57 C62 1.372 . S
C57 C63 1.497 1_565 S
C58 C61 1.383 . S
C58 C62 1.395 . S
C59 C60 1.396 . S
C59 C61 1.365 . S
C59 H76 0.929 . S
C60 C57 1.395 . S
C60 C59 1.396 . S
C60 H77 0.926 1_565 S
C61 C58 1.383 . S
C61 C59 1.365 . S
C61 H78 0.931 . S
C62 C57 1.372 . S
C62 C58 1.395 . S
C62 H79 0.930 . S
C63 Gd10 2.805 . S
C63 O45 1.263 . S
C63 O46 1.252 . S
C63 C57 1.497 1_545 S
C64 H26 0.930 . S
C64 C40 1.417 1_565 S
C64 C65 1.329 1_565 S
C65 C35 1.437 . S
C65 H36 0.929 . S
C65 C64 1.329 1_545 S
H66 C39 0.931 . S
C67 O49 1.265 . S
C67 O50 1.242 . S
C68 O53 1.261 . S
C68 O54 1.252 . S
C69 C72 1.394 . S
C69 C74 1.370 . S
C69 C75 1.500 . S
C70 C73 1.383 . S
C70 C74 1.395 . S
C71 C72 1.396 . S
C71 C73 1.365 . S
C71 H80 0.929 . S
C72 C69 1.394 . S
C72 C71 1.396 . S
C72 H81 0.930 . S
C73 C70 1.383 . S
C73 C71 1.365 . S
C73 H82 0.931 . S
C74 C69 1.370 . S
C74 C70 1.395 . S
C74 H83 0.930 . S
C75 Gd11 2.805 . S
C75 O51 1.263 . S
C75 O52 1.252 . S
C75 C69 1.500 . S
H76 C59 0.929 . S
H77 C60 0.926 1_545 S
H78 C61 0.931 . S
H79 C62 0.930 . S
H80 C71 0.929 . S
H81 C72 0.930 . S
H82 C73 0.931 . S
H83 C74 0.930 . S
C84 C86 1.422 . S
C84 C88 1.415 . S
C84 N90 1.369 . S
C85 C86 1.421 . S
C85 C87 1.417 . S
C85 C97 1.422 . S
C86 C84 1.422 . S
C86 C85 1.421 . S
C86 N96 1.359 . S
C87 C85 1.417 . S
C87 C89 1.329 . S
C87 H106 0.930 . S
C88 C84 1.415 . S
C88 C89 1.437 . S
C88 C92 1.413 . S
C89 C87 1.329 . S
C89 C88 1.437 . S
C89 H111 0.929 . S
N90 C84 1.369 . S
N90 C91 1.338 . S
N90 Gd95 2.622 . S
C91 N90 1.338 . S
C91 C93 1.378 . S
C91 H103 0.929 . S
C92 C88 1.413 . S
C92 C93 1.348 . S
C92 H108 0.931 . S
C93 C91 1.378 . S
C93 C92 1.348 . S
C93 H109 0.930 . S
Gd94 N114 2.622 . S
Gd94 N121 2.570 . S
Gd94 O128 2.353 . S
Gd94 O129 2.468 . S
Gd94 O130 2.427 . S
Gd94 O132 2.388 . S
Gd94 O133 2.386 . S
Gd94 O137 2.307 . S
Gd94 C147 2.805 . S
Gd95 N90 2.622 . S
Gd95 N96 2.570 . S
Gd95 O127 2.386 . S
Gd95 O131 2.307 . S
Gd95 O134 2.353 . S
Gd95 O135 2.468 . S
Gd95 O136 2.427 . S
Gd95 O138 2.388 . S
Gd95 C159 2.805 . S
N96 C86 1.359 . S
N96 Gd95 2.570 . S
N96 C98 1.343 . S
C97 C85 1.422 . S
C97 C99 1.321 . S
C97 H105 0.931 . S
C98 N96 1.343 . S
C98 C99 1.390 . S
C98 H100 0.931 . S
C99 C97 1.321 . S
C99 C98 1.390 . S
C99 H101 0.930 . S
H100 C98 0.931 . S
H101 C99 0.930 . S
H102 C125 0.931 . S
H103 C91 0.929 . S
H104 C126 0.930 . S
H105 C97 0.931 . S
H106 C87 0.930 . S
H107 C116 0.929 . S
H108 C92 0.931 . S
H109 C93 0.930 . S
H110 C148 0.930 . S
H111 C89 0.929 . S
H112 C117 0.931 . S
H113 C118 0.930 . S
N114 Gd94 2.622 . S
N114 C115 1.369 . S
N114 C116 1.338 . S
C115 N114 1.369 . S
C115 C119 1.415 . S
C115 C122 1.422 . S
C116 H107 0.929 . S
C116 N114 1.338 . S
C116 C118 1.378 . S
C117 H112 0.931 . S
C117 C118 1.348 . S
C117 C119 1.413 . S
C118 H113 0.930 . S
C118 C116 1.378 . S
C118 C117 1.348 . S
C119 C115 1.415 . S
C119 C117 1.413 . S
C119 C149 1.437 . S
H120 C149 0.929 1_455 S
N121 Gd94 2.570 . S
N121 C122 1.359 . S
N121 C125 1.343 . S
C122 C115 1.422 . S
C122 N121 1.359 . S
C122 C124 1.421 . S
C123 C124 1.422 . S
C123 C126 1.321 . S
C123 H150 0.931 1_655 S
C124 C122 1.421 . S
C124 C123 1.422 . S
C124 C148 1.417 1_655 S
C125 H102 0.931 . S
C125 N121 1.343 . S
C125 C126 1.390 . S
C126 H104 0.930 . S
C126 C123 1.321 . S
C126 C125 1.390 . S
O127 Gd95 2.386 . S
O127 C139 1.265 . S
O128 Gd94 2.353 . S
O128 C139 1.242 . S
O129 Gd94 2.468 . S
O129 C147 1.263 . S
O130 Gd94 2.427 . S
O130 C147 1.252 . S
O131 Gd95 2.307 . S
O131 C140 1.261 . S
O132 Gd94 2.388 . S
O132 C140 1.252 . S
O133 Gd94 2.386 . S
O133 C151 1.265 . S
O134 Gd95 2.353 . S
O134 C151 1.242 . S
O135 Gd95 2.468 . S
O135 C159 1.263 . S
O136 Gd95 2.427 . S
O136 C159 1.252 . S
O137 Gd94 2.307 . S
O137 C152 1.261 . S
O138 Gd95 2.388 . S
O138 C152 1.252 . S
C139 O127 1.265 . S
C139 O128 1.242 . S
C140 O131 1.261 . S
C140 O132 1.252 . S
C141 C144 1.394 . S
C141 C146 1.370 . S
C141 C147 1.500 . S
C142 C145 1.383 . S
C142 C146 1.395 . S
C143 C144 1.396 . S
C143 C145 1.365 . S
C143 H160 0.929 . S
C144 C141 1.394 . S
C144 C143 1.396 . S
C144 H161 0.930 . S
C145 C142 1.383 . S
C145 C143 1.365 . S
C145 H162 0.931 . S
C146 C141 1.370 . S
C146 C142 1.395 . S
C146 H163 0.930 . S
C147 Gd94 2.805 . S
C147 O129 1.263 . S
C147 O130 1.252 . S
C147 C141 1.500 . S
C148 H110 0.930 . S
C148 C124 1.417 1_455 S
C148 C149 1.329 1_455 S
C149 C119 1.437 . S
C149 H120 0.929 1_655 S
C149 C148 1.329 1_655 S
H150 C123 0.931 1_455 S
C151 O133 1.265 . S
C151 O134 1.242 . S
C152 O137 1.261 . S
C152 O138 1.252 . S
C153 C156 1.394 . S
C153 C158 1.370 . S
C153 C159 1.500 . S
C154 C157 1.383 . S
C154 C158 1.395 . S
C155 C156 1.396 . S
C155 C157 1.365 . S
C155 H164 0.929 . S
C156 C153 1.394 . S
C156 C155 1.396 . S
C156 H165 0.930 . S
C157 C154 1.383 . S
C157 C155 1.365 . S
C157 H166 0.931 . S
C158 C153 1.370 . S
C158 C154 1.395 . S
C158 H167 0.930 . S
C159 Gd95 2.805 . S
C159 O135 1.263 . S
C159 O136 1.252 . S
C159 C153 1.500 . S
H160 C143 0.929 . S
H161 C144 0.930 . S
H162 C145 0.931 . S
H163 C146 0.930 . S
H164 C155 0.929 . S
H165 C156 0.930 . S
H166 C157 0.931 . S
H167 C158 0.930 . S
C168 C170 1.422 . S
C168 C172 1.415 . S
C168 N174 1.369 . S
C169 C170 1.421 . S
C169 C171 1.417 1_545 S
C169 C181 1.422 . S
C170 C168 1.422 . S
C170 C169 1.421 . S
C170 N180 1.359 . S
C171 C169 1.417 1_565 S
C171 C173 1.329 1_565 S
C171 H190 0.930 . S
C172 C168 1.415 . S
C172 C173 1.437 . S
C172 C176 1.413 . S
C173 C171 1.329 1_545 S
C173 C172 1.437 . S
C173 H195 0.929 1_545 S
N174 C168 1.369 . S
N174 C175 1.338 . S
N174 Gd179 2.622 . S
C175 N174 1.338 . S
C175 C177 1.378 . S
C175 H187 0.929 . S
C176 C172 1.413 . S
C176 C177 1.348 . S
C176 H192 0.931 . S
C177 C175 1.378 . S
C177 C176 1.348 . S
C177 H193 0.930 1_554 S
Gd178 N198 2.622 . S
Gd178 N205 2.570 . S
Gd178 O212 2.353 . S
Gd178 O213 2.468 . S
Gd178 O214 2.427 . S
Gd178 O216 2.388 . S
Gd178 O217 2.386 . S
Gd178 O221 2.307 . S
Gd178 C231 2.805 . S
Gd179 N174 2.622 . S
Gd179 N180 2.570 . S
Gd179 O211 2.386 . S
Gd179 O215 2.307 . S
Gd179 O218 2.353 . S
Gd179 O219 2.468 . S
Gd179 O220 2.427 . S
Gd179 O222 2.388 . S
Gd179 C243 2.805 . S
N180 C170 1.359 . S
N180 Gd179 2.570 . S
N180 C182 1.343 . S
C181 C169 1.422 . S
C181 C183 1.321 . S
C181 H189 0.931 1_545 S
C182 N180 1.343 . S
C182 C183 1.390 . S
C182 H184 0.931 . S
C183 C181 1.321 . S
C183 C182 1.390 . S
C183 H185 0.930 . S
H184 C182 0.931 . S
H185 C183 0.930 . S
H186 C209 0.931 . S
H187 C175 0.929 . S
H188 C210 0.930 . S
H189 C181 0.931 1_565 S
H190 C171 0.930 . S
H191 C200 0.929 . S
H192 C176 0.931 . S
H193 C177 0.930 1_556 S
H194 C232 0.930 . S
H195 C173 0.929 1_565 S
H196 C201 0.931 . S
H197 C202 0.930 . S
N198 Gd178 2.622 . S
N198 C199 1.369 . S
N198 C200 1.338 . S
C199 N198 1.369 . S
C199 C203 1.415 . S
C199 C206 1.422 . S
C200 H191 0.929 . S
C200 N198 1.338 . S
C200 C202 1.378 . S
C201 H196 0.931 . S
C201 C202 1.348 . S
C201 C203 1.413 . S
C202 H197 0.930 . S
C202 C200 1.378 . S
C202 C201 1.348 . S
C203 C199 1.415 . S
C203 C201 1.413 . S
C203 C233 1.437 . S
H204 C233 0.929 . S
N205 Gd178 2.570 . S
N205 C206 1.359 . S
N205 C209 1.343 . S
C206 C199 1.422 . S
C206 N205 1.359 . S
C206 C208 1.421 . S
C207 C208 1.422 1_455 S
C207 C210 1.321 1_455 S
C207 H234 0.931 . S
C208 C206 1.421 . S
C208 C207 1.422 1_655 S
C208 C232 1.417 1_655 S
C209 H186 0.931 . S
C209 N205 1.343 . S
C209 C210 1.390 . S
C210 H188 0.930 . S
C210 C207 1.321 1_655 S
C210 C209 1.390 . S
O211 Gd179 2.386 . S
O211 C223 1.265 . S
O212 Gd178 2.353 . S
O212 C223 1.242 . S
O213 Gd178 2.468 . S
O213 C231 1.263 . S
O214 Gd178 2.427 . S
O214 C231 1.252 . S
O215 Gd179 2.307 . S
O215 C224 1.261 . S
O216 Gd178 2.388 . S
O216 C224 1.252 . S
O217 Gd178 2.386 . S
O217 C235 1.265 . S
O218 Gd179 2.353 . S
O218 C235 1.242 . S
O219 Gd179 2.468 . S
O219 C243 1.263 . S
O220 Gd179 2.427 . S
O220 C243 1.252 . S
O221 Gd178 2.307 . S
O221 C236 1.261 . S
O222 Gd179 2.388 . S
O222 C236 1.252 . S
C223 O211 1.265 . S
C223 O212 1.242 . S
C224 O215 1.261 . S
C224 O216 1.252 . S
C225 C228 1.397 . S
C225 C230 1.375 . S
C225 C231 1.492 1_455 S
C226 C229 1.383 . S
C226 C230 1.395 . S
C227 C228 1.396 . S
C227 C229 1.365 . S
C227 H244 0.929 . S
C228 C225 1.397 . S
C228 C227 1.396 . S
C228 H245 0.922 1_455 S
C229 C226 1.383 . S
C229 C227 1.365 . S
C229 H246 0.931 . S
C230 C225 1.375 . S
C230 C226 1.395 . S
C230 H247 0.930 . S
C231 Gd178 2.805 . S
C231 O213 1.263 . S
C231 O214 1.252 . S
C231 C225 1.492 1_655 S
C232 H194 0.930 . S
C232 C208 1.417 1_455 S
C232 C233 1.329 1_455 S
C233 C203 1.437 . S
C233 H204 0.929 . S
C233 C232 1.329 1_655 S
H234 C207 0.931 . S
C235 O217 1.265 . S
C235 O218 1.242 . S
C236 O221 1.261 . S
C236 O222 1.252 . S
C237 C240 1.394 . S
C237 C242 1.370 . S
C237 C243 1.500 . S
C238 C241 1.383 . S
C238 C242 1.395 . S
C239 C240 1.396 . S
C239 C241 1.365 . S
C239 H248 0.929 . S
C240 C237 1.394 . S
C240 C239 1.396 . S
C240 H249 0.930 . S
C241 C238 1.383 . S
C241 C239 1.365 . S
C241 H250 0.931 . S
C242 C237 1.370 . S
C242 C238 1.395 . S
C242 H251 0.930 . S
C243 Gd179 2.805 . S
C243 O219 1.263 . S
C243 O220 1.252 . S
C243 C237 1.500 . S
H244 C227 0.929 . S
H245 C228 0.922 1_655 S
H246 C229 0.931 . S
H247 C230 0.930 . S
H248 C239 0.929 . S
H249 C240 0.930 . S
H250 C241 0.931 . S
H251 C242 0.930 . S
C252 C254 1.422 . S
C252 C256 1.415 . S
C252 N258 1.369 . S
C253 C254 1.421 . S
C253 C255 1.417 1_545 S
C253 C265 1.422 1_545 S
C254 C252 1.422 . S
C254 C253 1.421 . S
C254 N264 1.359 . S
C255 C253 1.417 1_565 S
C255 C257 1.329 1_565 S
C255 H274 0.930 . S
C256 C252 1.415 . S
C256 C257 1.437 . S
C256 C260 1.413 . S
C257 C255 1.329 1_545 S
C257 C256 1.437 . S
C257 H279 0.929 . S
N258 C252 1.369 . S
N258 C259 1.338 . S
N258 Gd263 2.622 . S
C259 N258 1.338 . S
C259 C261 1.378 . S
C259 H271 0.929 . S
C260 C256 1.413 . S
C260 C261 1.348 . S
C260 H276 0.931 . S
C261 C259 1.378 . S
C261 C260 1.348 . S
C261 H277 0.930 . S
Gd262 N282 2.622 . S
Gd262 N289 2.570 . S
Gd262 O296 2.353 . S
Gd262 O297 2.468 . S
Gd262 O298 2.427 . S
Gd262 O300 2.388 . S
Gd262 O301 2.386 . S
Gd262 O305 2.307 . S
Gd262 C315 2.805 . S
Gd263 N258 2.622 . S
Gd263 N264 2.570 . S
Gd263 O295 2.386 . S
Gd263 O299 2.307 . S
Gd263 O302 2.353 . S
Gd263 O303 2.468 . S
Gd263 O304 2.427 . S
Gd263 O306 2.388 . S
Gd263 C327 2.805 . S
N264 C254 1.359 . S
N264 Gd263 2.570 . S
N264 C266 1.343 . S
C265 C253 1.422 1_565 S
C265 C267 1.321 1_565 S
C265 H273 0.931 . S
C266 N264 1.343 . S
C266 C267 1.390 . S
C266 H268 0.931 . S
C267 C265 1.321 1_545 S
C267 C266 1.390 . S
C267 H269 0.930 . S
H268 C266 0.931 . S
H269 C267 0.930 . S
H270 C293 0.931 . S
H271 C259 0.929 . S
H272 C294 0.930 . S
H273 C265 0.931 . S
H274 C255 0.930 . S
H275 C284 0.929 . S
H276 C260 0.931 . S
H277 C261 0.930 . S
H278 C316 0.930 . S
H279 C257 0.929 . S
H280 C285 0.931 . S
H281 C286 0.930 . S
N282 Gd262 2.622 . S
N282 C283 1.369 . S
N282 C284 1.338 . S
C283 N282 1.369 . S
C283 C287 1.415 . S
C283 C290 1.422 . S
C284 H275 0.929 . S
C284 N282 1.338 . S
C284 C286 1.378 . S
C285 H280 0.931 . S
C285 C286 1.348 . S
C285 C287 1.413 . S
C286 H281 0.930 . S
C286 C284 1.378 . S
C286 C285 1.348 . S
C287 C283 1.415 . S
C287 C285 1.413 . S
C287 C317 1.437 . S
H288 C317 0.929 . S
N289 Gd262 2.570 . S
N289 C290 1.359 . S
N289 C293 1.343 . S
C290 C283 1.422 . S
C290 N289 1.359 . S
C290 C292 1.421 . S
C291 C292 1.422 . S
C291 C294 1.321 . S
C291 H318 0.931 . S
C292 C290 1.421 . S
C292 C291 1.422 . S
C292 C316 1.417 . S
C293 H270 0.931 . S
C293 N289 1.343 . S
C293 C294 1.390 . S
C294 H272 0.930 . S
C294 C291 1.321 . S
C294 C293 1.390 . S
O295 Gd263 2.386 . S
O295 C307 1.265 . S
O296 Gd262 2.353 . S
O296 C307 1.242 . S
O297 Gd262 2.468 . S
O297 C315 1.263 . S
O298 Gd262 2.427 . S
O298 C315 1.252 . S
O299 Gd263 2.307 . S
O299 C308 1.261 . S
O300 Gd262 2.388 . S
O300 C308 1.252 . S
O301 Gd262 2.386 . S
O301 C319 1.265 . S
O302 Gd263 2.353 . S
O302 C319 1.242 . S
O303 Gd263 2.468 . S
O303 C327 1.263 . S
O304 Gd263 2.427 . S
O304 C327 1.252 . S
O305 Gd262 2.307 . S
O305 C320 1.261 . S
O306 Gd263 2.388 . S
O306 C320 1.252 . S
C307 O295 1.265 . S
C307 O296 1.242 . S
C308 O299 1.261 . S
C308 O300 1.252 . S
C309 C312 1.394 . S
C309 C314 1.370 . S
C309 C315 1.500 . S
C310 C313 1.383 . S
C310 C314 1.395 . S
C311 C312 1.396 . S
C311 C313 1.365 . S
C311 H328 0.929 . S
C312 C309 1.394 . S
C312 C311 1.396 . S
C312 H329 0.930 . S
C313 C310 1.383 . S
C313 C311 1.365 . S
C313 H330 0.931 . S
C314 C309 1.370 . S
C314 C310 1.395 . S
C314 H331 0.930 . S
C315 Gd262 2.805 . S
C315 O297 1.263 . S
C315 O298 1.252 . S
C315 C309 1.500 . S
C316 H278 0.930 . S
C316 C292 1.417 . S
C316 C317 1.329 . S
C317 C287 1.437 . S
C317 H288 0.929 . S
C317 C316 1.329 . S
H318 C291 0.931 . S
C319 O301 1.265 . S
C319 O302 1.242 . S
C320 O305 1.261 . S
C320 O306 1.252 . S
C321 C324 1.395 . S
C321 C326 1.372 . S
C321 C327 1.497 1_565 S
C322 C325 1.383 . S
C322 C326 1.395 . S
C323 C324 1.396 . S
C323 C325 1.365 . S
C323 H332 0.929 . S
C324 C321 1.395 . S
C324 C323 1.396 . S
C324 H333 0.926 1_565 S
C325 C322 1.383 . S
C325 C323 1.365 . S
C325 H334 0.931 . S
C326 C321 1.372 . S
C326 C322 1.395 . S
C326 H335 0.930 . S
C327 Gd263 2.805 . S
C327 O303 1.263 . S
C327 O304 1.252 . S
C327 C321 1.497 1_545 S
H328 C311 0.929 . S
H329 C312 0.930 . S
H330 C313 0.931 . S
H331 C314 0.930 . S
H332 C323 0.929 . S
H333 C324 0.926 1_545 S
H334 C325 0.931 . S
H335 C326 0.930 . S
C336 C338 1.422 . S
C336 C340 1.415 . S
C336 N342 1.369 . S
C337 C338 1.421 . S
C337 C339 1.417 1_655 S
C337 C349 1.422 . S
C338 C336 1.422 . S
C338 C337 1.421 . S
C338 N348 1.359 . S
C339 C337 1.417 1_455 S
C339 C341 1.329 1_455 S
C339 H358 0.930 . S
C340 C336 1.415 . S
C340 C341 1.437 . S
C340 C344 1.413 . S
C341 C339 1.329 1_655 S
C341 C340 1.437 . S
C341 H363 0.929 1_655 S
N342 C336 1.369 . S
N342 C343 1.338 . S
N342 Gd347 2.622 . S
C343 N342 1.338 . S
C343 C345 1.378 . S
C343 H355 0.929 . S
C344 C340 1.413 . S
C344 C345 1.348 . S
C344 H360 0.931 . S
C345 C343 1.378 . S
C345 C344 1.348 . S
C345 H361 0.930 1_554 S
Gd346 N366 2.622 . S
Gd346 N373 2.570 . S
Gd346 O380 2.353 . S
Gd346 O381 2.468 . S
Gd346 O382 2.427 . S
Gd346 O384 2.388 . S
Gd346 O385 2.386 . S
Gd346 O389 2.307 . S
Gd346 C399 2.805 . S
Gd347 N342 2.622 . S
Gd347 N348 2.570 . S
Gd347 O379 2.386 . S
Gd347 O383 2.307 . S
Gd347 O386 2.353 . S
Gd347 O387 2.468 . S
Gd347 O388 2.427 . S
Gd347 O390 2.388 . S
Gd347 C411 2.805 . S
N348 C338 1.359 . S
N348 Gd347 2.570 . S
N348 C350 1.343 . S
C349 C337 1.422 . S
C349 C351 1.321 . S
C349 H357 0.931 1_655 S
C350 N348 1.343 . S
C350 C351 1.390 . S
C350 H352 0.931 . S
C351 C349 1.321 . S
C351 C350 1.390 . S
C351 H353 0.930 . S
H352 C350 0.931 . S
H353 C351 0.930 . S
H354 C377 0.931 . S
H355 C343 0.929 . S
H356 C378 0.930 . S
H357 C349 0.931 1_455 S
H358 C339 0.930 . S
H359 C368 0.929 . S
H360 C344 0.931 . S
H361 C345 0.930 1_556 S
H362 C400 0.930 . S
H363 C341 0.929 1_455 S
H364 C369 0.931 . S
H365 C370 0.930 . S
N366 Gd346 2.622 . S
N366 C367 1.369 . S
N366 C368 1.338 . S
C367 N366 1.369 . S
C367 C371 1.415 . S
C367 C374 1.422 . S
C368 H359 0.929 . S
C368 N366 1.338 . S
C368 C370 1.378 . S
C369 H364 0.931 . S
C369 C370 1.348 . S
C369 C371 1.413 . S
C370 H365 0.930 . S
C370 C368 1.378 . S
C370 C369 1.348 . S
C371 C367 1.415 . S
C371 C369 1.413 . S
C371 C401 1.437 . S
H372 C401 0.929 . S
N373 Gd346 2.570 . S
N373 C374 1.359 . S
N373 C377 1.343 . S
C374 C367 1.422 . S
C374 N373 1.359 . S
C374 C376 1.421 . S
C375 C376 1.422 . S
C375 C378 1.321 . S
C375 H402 0.931 . S
C376 C374 1.421 . S
C376 C375 1.422 . S
C376 C400 1.417 . S
C377 H354 0.931 . S
C377 N373 1.343 . S
C377 C378 1.390 . S
C378 H356 0.930 . S
C378 C375 1.321 . S
C378 C377 1.390 . S
O379 Gd347 2.386 . S
O379 C391 1.265 . S
O380 Gd346 2.353 . S
O380 C391 1.242 . S
O381 Gd346 2.468 . S
O381 C399 1.263 . S
O382 Gd346 2.427 . S
O382 C399 1.252 . S
O383 Gd347 2.307 . S
O383 C392 1.261 . S
O384 Gd346 2.388 . S
O384 C392 1.252 . S
O385 Gd346 2.386 . S
O385 C403 1.265 . S
O386 Gd347 2.353 . S
O386 C403 1.242 . S
O387 Gd347 2.468 . S
O387 C411 1.263 . S
O388 Gd347 2.427 . S
O388 C411 1.252 . S
O389 Gd346 2.307 . S
O389 C404 1.261 . S
O390 Gd347 2.388 . S
O390 C404 1.252 . S
C391 O379 1.265 . S
C391 O380 1.242 . S
C392 O383 1.261 . S
C392 O384 1.252 . S
C393 C396 1.394 . S
C393 C398 1.370 . S
C393 C399 1.500 . S
C394 C397 1.383 . S
C394 C398 1.395 . S
C395 C396 1.396 . S
C395 C397 1.365 . S
C395 H412 0.929 . S
C396 C393 1.394 . S
C396 C395 1.396 . S
C396 H413 0.930 . S
C397 C394 1.383 . S
C397 C395 1.365 . S
C397 H414 0.931 . S
C398 C393 1.370 . S
C398 C394 1.395 . S
C398 H415 0.930 . S
C399 Gd346 2.805 . S
C399 O381 1.263 . S
C399 O382 1.252 . S
C399 C393 1.500 . S
C400 H362 0.930 . S
C400 C376 1.417 . S
C400 C401 1.329 . S
C401 C371 1.437 . S
C401 H372 0.929 . S
C401 C400 1.329 . S
H402 C375 0.931 . S
C403 O385 1.265 . S
C403 O386 1.242 . S
C404 O389 1.261 . S
C404 O390 1.252 . S
C405 C408 1.394 . S
C405 C410 1.370 . S
C405 C411 1.500 . S
C406 C409 1.383 . S
C406 C410 1.395 . S
C407 C408 1.396 . S
C407 C409 1.365 . S
C407 H416 0.929 . S
C408 C405 1.394 . S
C408 C407 1.396 . S
C408 H417 0.930 . S
C409 C406 1.383 . S
C409 C407 1.365 . S
C409 H418 0.931 . S
C410 C405 1.370 . S
C410 C406 1.395 . S
C410 H419 0.930 . S
C411 Gd347 2.805 . S
C411 O387 1.263 . S
C411 O388 1.252 . S
C411 C405 1.500 . S
H412 C395 0.929 . S
H413 C396 0.930 . S
H414 C397 0.931 . S
H415 C398 0.930 . S
H416 C407 0.929 . S
H417 C408 0.930 . S
H418 C409 0.931 . S
H419 C410 0.930 . S
C420 C422 1.422 . S
C420 C424 1.415 . S
C420 N426 1.369 . S
C421 C422 1.421 . S
C421 C423 1.417 1_655 S
C421 C433 1.422 1_655 S
C422 C420 1.422 . S
C422 C421 1.421 . S
C422 N432 1.359 . S
C423 C421 1.417 1_455 S
C423 C425 1.329 1_455 S
C423 H442 0.930 . S
C424 C420 1.415 . S
C424 C425 1.437 . S
C424 C428 1.413 . S
C425 C423 1.329 1_655 S
C425 C424 1.437 . S
C425 H447 0.929 . S
N426 C420 1.369 . S
N426 C427 1.338 . S
N426 Gd431 2.622 . S
C427 N426 1.338 . S
C427 C429 1.378 . S
C427 H439 0.929 . S
C428 C424 1.413 . S
C428 C429 1.348 . S
C428 H444 0.931 . S
C429 C427 1.378 . S
C429 C428 1.348 . S
C429 H445 0.930 . S
Gd430 N450 2.622 . S
Gd430 N457 2.570 . S
Gd430 O464 2.353 . S
Gd430 O465 2.468 . S
Gd430 O466 2.427 . S
Gd430 O468 2.388 . S
Gd430 O469 2.386 . S
Gd430 O473 2.307 . S
Gd430 C483 2.805 . S
Gd431 N426 2.622 . S
Gd431 N432 2.570 . S
Gd431 O463 2.386 . S
Gd431 O467 2.307 . S
Gd431 O470 2.353 . S
Gd431 O471 2.468 . S
Gd431 O472 2.427 . S
Gd431 O474 2.388 . S
Gd431 C495 2.805 . S
N432 C422 1.359 . S
N432 Gd431 2.570 . S
N432 C434 1.343 . S
C433 C421 1.422 1_455 S
C433 C435 1.321 1_455 S
C433 H441 0.931 . S
C434 N432 1.343 . S
C434 C435 1.390 . S
C434 H436 0.931 . S
C435 C433 1.321 1_655 S
C435 C434 1.390 . S
C435 H437 0.930 . S
H436 C434 0.931 . S
H437 C435 0.930 . S
H438 C461 0.931 . S
H439 C427 0.929 . S
H440 C462 0.930 . S
H441 C433 0.931 . S
H442 C423 0.930 . S
H443 C452 0.929 . S
H444 C428 0.931 . S
H445 C429 0.930 . S
H446 C484 0.930 . S
H447 C425 0.929 . S
H448 C453 0.931 . S
H449 C454 0.930 . S
N450 Gd430 2.622 . S
N450 C451 1.369 . S
N450 C452 1.338 . S
C451 N450 1.369 . S
C451 C455 1.415 . S
C451 C458 1.422 . S
C452 H443 0.929 . S
C452 N450 1.338 . S
C452 C454 1.378 . S
C453 H448 0.931 . S
C453 C454 1.348 . S
C453 C455 1.413 . S
C454 H449 0.930 . S
C454 C452 1.378 . S
C454 C453 1.348 . S
C455 C451 1.415 . S
C455 C453 1.413 . S
C455 C485 1.437 . S
H456 C485 0.929 1_565 S
N457 Gd430 2.570 . S
N457 C458 1.359 . S
N457 C461 1.343 . S
C458 C451 1.422 . S
C458 N457 1.359 . S
C458 C460 1.421 . S
C459 C460 1.422 . S
C459 C462 1.321 . S
C459 H486 0.931 1_545 S
C460 C458 1.421 . S
C460 C459 1.422 . S
C460 C484 1.417 1_545 S
C461 H438 0.931 . S
C461 N457 1.343 . S
C461 C462 1.390 . S
C462 H440 0.930 . S
C462 C459 1.321 . S
C462 C461 1.390 . S
O463 Gd431 2.386 . S
O463 C475 1.265 . S
O464 Gd430 2.353 . S
O464 C475 1.242 . S
O465 Gd430 2.468 . S
O465 C483 1.263 . S
O466 Gd430 2.427 . S
O466 C483 1.252 . S
O467 Gd431 2.307 . S
O467 C476 1.261 . S
O468 Gd430 2.388 . S
O468 C476 1.252 . S
O469 Gd430 2.386 . S
O469 C487 1.265 . S
O470 Gd431 2.353 . S
O470 C487 1.242 . S
O471 Gd431 2.468 . S
O471 C495 1.263 . S
O472 Gd431 2.427 . S
O472 C495 1.252 . S
O473 Gd430 2.307 . S
O473 C488 1.261 . S
O474 Gd431 2.388 . S
O474 C488 1.252 . S
C475 O463 1.265 . S
C475 O464 1.242 . S
C476 O467 1.261 . S
C476 O468 1.252 . S
C477 C480 1.394 . S
C477 C482 1.370 . S
C477 C483 1.500 . S
C478 C481 1.383 . S
C478 C482 1.395 . S
C479 C480 1.396 . S
C479 C481 1.365 . S
C479 H496 0.929 . S
C480 C477 1.394 . S
C480 C479 1.396 . S
C480 H497 0.930 . S
C481 C478 1.383 . S
C481 C479 1.365 . S
C481 H498 0.931 . S
C482 C477 1.370 . S
C482 C478 1.395 . S
C482 H499 0.930 . S
C483 Gd430 2.805 . S
C483 O465 1.263 . S
C483 O466 1.252 . S
C483 C477 1.500 . S
C484 H446 0.930 . S
C484 C460 1.417 1_565 S
C484 C485 1.329 1_565 S
C485 C455 1.437 . S
C485 H456 0.929 1_545 S
C485 C484 1.329 1_545 S
H486 C459 0.931 1_565 S
C487 O469 1.265 . S
C487 O470 1.242 . S
C488 O473 1.261 . S
C488 O474 1.252 . S
C489 C492 1.397 . S
C489 C494 1.375 . S
C489 C495 1.492 1_455 S
C490 C493 1.383 . S
C490 C494 1.395 . S
C491 C492 1.396 . S
C491 C493 1.365 . S
C491 H500 0.929 . S
C492 C489 1.397 . S
C492 C491 1.396 . S
C492 H501 0.922 1_455 S
C493 C490 1.383 . S
C493 C491 1.365 . S
C493 H502 0.931 . S
C494 C489 1.375 . S
C494 C490 1.395 . S
C494 H503 0.930 . S
C495 Gd431 2.805 . S
C495 O471 1.263 . S
C495 O472 1.252 . S
C495 C489 1.492 1_655 S
H496 C479 0.929 . S
H497 C480 0.930 . S
H498 C481 0.931 . S
H499 C482 0.930 . S
H500 C491 0.929 . S
H501 C492 0.922 1_655 S
H502 C493 0.931 . S
H503 C494 0.930 . S
C504 C506 1.422 . S
C504 C508 1.415 . S
C504 N510 1.369 . S
C505 C506 1.421 . S
C505 C507 1.417 1_455 S
C505 C517 1.422 1_455 S
C506 C504 1.422 . S
C506 C505 1.421 . S
C506 N516 1.359 . S
C507 C505 1.417 1_655 S
C507 C509 1.329 1_655 S
C507 H526 0.930 . S
C508 C504 1.415 . S
C508 C509 1.437 . S
C508 C512 1.413 . S
C509 C507 1.329 1_455 S
C509 C508 1.437 . S
C509 H531 0.929 . S
N510 C504 1.369 . S
N510 C511 1.338 . S
N510 Gd515 2.622 . S
C511 N510 1.338 . S
C511 C513 1.378 . S
C511 H523 0.929 . S
C512 C508 1.413 . S
C512 C513 1.348 . S
C512 H528 0.931 . S
C513 C511 1.378 . S
C513 C512 1.348 . S
C513 H529 0.930 . S
Gd514 N534 2.622 . S
Gd514 N541 2.570 . S
Gd514 O548 2.353 . S
Gd514 O549 2.468 . S
Gd514 O550 2.427 . S
Gd514 O552 2.388 . S
Gd514 O553 2.386 . S
Gd514 O557 2.307 . S
Gd514 C567 2.805 . S
Gd515 N510 2.622 . S
Gd515 N516 2.570 . S
Gd515 O547 2.386 . S
Gd515 O551 2.307 . S
Gd515 O554 2.353 . S
Gd515 O555 2.468 . S
Gd515 O556 2.427 . S
Gd515 O558 2.388 . S
Gd515 C579 2.805 . S
N516 C506 1.359 . S
N516 Gd515 2.570 . S
N516 C518 1.343 . S
C517 C505 1.422 1_655 S
C517 C519 1.321 1_655 S
C517 H525 0.931 . S
C518 N516 1.343 . S
C518 C519 1.390 . S
C518 H520 0.931 . S
C519 C517 1.321 1_455 S
C519 C518 1.390 . S
C519 H521 0.930 . S
H520 C518 0.931 . S
H521 C519 0.930 . S
H522 C545 0.931 . S
H523 C511 0.929 . S
H524 C546 0.930 . S
H525 C517 0.931 . S
H526 C507 0.930 . S
H527 C536 0.929 . S
H528 C512 0.931 . S
H529 C513 0.930 . S
H530 C568 0.930 . S
H531 C509 0.929 . S
H532 C537 0.931 . S
H533 C538 0.930 . S
N534 Gd514 2.622 . S
N534 C535 1.369 . S
N534 C536 1.338 . S
C535 N534 1.369 . S
C535 C539 1.415 . S
C535 C542 1.422 . S
C536 H527 0.929 . S
C536 N534 1.338 . S
C536 C538 1.378 . S
C537 H532 0.931 . S
C537 C538 1.348 . S
C537 C539 1.413 . S
C538 H533 0.930 . S
C538 C536 1.378 . S
C538 C537 1.348 . S
C539 C535 1.415 . S
C539 C537 1.413 . S
C539 C569 1.437 . S
H540 C569 0.929 . S
N541 Gd514 2.570 . S
N541 C542 1.359 . S
N541 C545 1.343 . S
C542 C535 1.422 . S
C542 N541 1.359 . S
C542 C544 1.421 . S
C543 C544 1.422 . S
C543 C546 1.321 . S
C543 H570 0.931 . S
C544 C542 1.421 . S
C544 C543 1.422 . S
C544 C568 1.417 . S
C545 H522 0.931 . S
C545 N541 1.343 . S
C545 C546 1.390 . S
C546 H524 0.930 . S
C546 C543 1.321 . S
C546 C545 1.390 . S
O547 Gd515 2.386 . S
O547 C559 1.265 . S
O548 Gd514 2.353 . S
O548 C559 1.242 . S
O549 Gd514 2.468 . S
O549 C567 1.263 . S
O550 Gd514 2.427 . S
O550 C567 1.252 . S
O551 Gd515 2.307 . S
O551 C560 1.261 . S
O552 Gd514 2.388 . S
O552 C560 1.252 . S
O553 Gd514 2.386 . S
O553 C571 1.265 . S
O554 Gd515 2.353 . S
O554 C571 1.242 . S
O555 Gd515 2.468 . S
O555 C579 1.263 . S
O556 Gd515 2.427 . S
O556 C579 1.252 . S
O557 Gd514 2.307 . S
O557 C572 1.261 . S
O558 Gd515 2.388 . S
O558 C572 1.252 . S
C559 O547 1.265 . S
C559 O548 1.242 . S
C560 O551 1.261 . S
C560 O552 1.252 . S
C561 C564 1.394 . S
C561 C566 1.370 . S
C561 C567 1.500 . S
C562 C565 1.383 . S
C562 C566 1.395 . S
C563 C564 1.396 . S
C563 C565 1.365 . S
C563 H580 0.929 . S
C564 C561 1.394 . S
C564 C563 1.396 . S
C564 H581 0.930 . S
C565 C562 1.383 . S
C565 C563 1.365 . S
C565 H582 0.931 . S
C566 C561 1.370 . S
C566 C562 1.395 . S
C566 H583 0.930 . S
C567 Gd514 2.805 . S
C567 O549 1.263 . S
C567 O550 1.252 . S
C567 C561 1.500 . S
C568 H530 0.930 . S
C568 C544 1.417 . S
C568 C569 1.329 . S
C569 C539 1.437 . S
C569 H540 0.929 . S
C569 C568 1.329 . S
H570 C543 0.931 . S
C571 O553 1.265 . S
C571 O554 1.242 . S
C572 O557 1.261 . S
C572 O558 1.252 . S
C573 C576 1.395 . S
C573 C578 1.372 . S
C573 C579 1.497 1_655 S
C574 C577 1.383 . S
C574 C578 1.395 . S
C575 C576 1.396 . S
C575 C577 1.365 . S
C575 H584 0.929 . S
C576 C573 1.395 . S
C576 C575 1.396 . S
C576 H585 0.926 1_655 S
C577 C574 1.383 . S
C577 C575 1.365 . S
C577 H586 0.931 . S
C578 C573 1.372 . S
C578 C574 1.395 . S
C578 H587 0.930 . S
C579 Gd515 2.805 . S
C579 O555 1.263 . S
C579 O556 1.252 . S
C579 C573 1.497 1_455 S
H580 C563 0.929 . S
H581 C564 0.930 . S
H582 C565 0.931 . S
H583 C566 0.930 . S
H584 C575 0.929 . S
H585 C576 0.926 1_455 S
H586 C577 0.931 . S
H587 C578 0.930 . S
C588 C590 1.422 . S
C588 C592 1.415 . S
C588 N594 1.369 . S
C589 C590 1.421 . S
C589 C591 1.417 1_455 S
C589 C601 1.422 . S
C590 C588 1.422 . S
C590 C589 1.421 . S
C590 N600 1.359 . S
C591 C589 1.417 1_655 S
C591 C593 1.329 1_655 S
C591 H610 0.930 . S
C592 C588 1.415 . S
C592 C593 1.437 . S
C592 C596 1.413 . S
C593 C591 1.329 1_455 S
C593 C592 1.437 . S
C593 H615 0.929 1_455 S
N594 C588 1.369 . S
N594 C595 1.338 . S
N594 Gd599 2.622 . S
C595 N594 1.338 . S
C595 C597 1.378 . S
C595 H607 0.929 . S
C596 C592 1.413 . S
C596 C597 1.348 . S
C596 H612 0.931 . S
C597 C595 1.378 . S
C597 C596 1.348 . S
C597 H613 0.930 1_556 S
Gd598 N618 2.622 . S
Gd598 N625 2.570 . S
Gd598 O632 2.353 . S
Gd598 O633 2.468 . S
Gd598 O634 2.427 . S
Gd598 O636 2.388 . S
Gd598 O637 2.386 . S
Gd598 O641 2.307 . S
Gd598 C651 2.805 . S
Gd599 N594 2.622 . S
Gd599 N600 2.570 . S
Gd599 O631 2.386 . S
Gd599 O635 2.307 . S
Gd599 O638 2.353 . S
Gd599 O639 2.468 . S
Gd599 O640 2.427 . S
Gd599 O642 2.388 . S
Gd599 C663 2.805 . S
N600 C590 1.359 . S
N600 Gd599 2.570 . S
N600 C602 1.343 . S
C601 C589 1.422 . S
C601 C603 1.321 . S
C601 H609 0.931 1_455 S
C602 N600 1.343 . S
C602 C603 1.390 . S
C602 H604 0.931 . S
C603 C601 1.321 . S
C603 C602 1.390 . S
C603 H605 0.930 . S
H604 C602 0.931 . S
H605 C603 0.930 . S
H606 C629 0.931 . S
H607 C595 0.929 . S
H608 C630 0.930 . S
H609 C601 0.931 1_655 S
H610 C591 0.930 . S
H611 C620 0.929 . S
H612 C596 0.931 . S
H613 C597 0.930 1_554 S
H614 C652 0.930 . S
H615 C593 0.929 1_655 S
H616 C621 0.931 . S
H617 C622 0.930 . S
N618 Gd598 2.622 . S
N618 C619 1.369 . S
N618 C620 1.338 . S
C619 N618 1.369 . S
C619 C623 1.415 . S
C619 C626 1.422 . S
C620 H611 0.929 . S
C620 N618 1.338 . S
C620 C622 1.378 . S
C621 H616 0.931 . S
C621 C622 1.348 . S
C621 C623 1.413 . S
C622 H617 0.930 . S
C622 C620 1.378 . S
C622 C621 1.348 . S
C623 C619 1.415 . S
C623 C621 1.413 . S
C623 C653 1.437 . S
H624 C653 0.929 . S
N625 Gd598 2.570 . S
N625 C626 1.359 . S
N625 C629 1.343 . S
C626 C619 1.422 . S
C626 N625 1.359 . S
C626 C628 1.421 . S
C627 C628 1.422 1_545 S
C627 C630 1.321 1_545 S
C627 H654 0.931 . S
C628 C626 1.421 . S
C628 C627 1.422 1_565 S
C628 C652 1.417 1_565 S
C629 H606 0.931 . S
C629 N625 1.343 . S
C629 C630 1.390 . S
C630 H608 0.930 . S
C630 C627 1.321 1_565 S
C630 C629 1.390 . S
O631 Gd599 2.386 . S
O631 C643 1.265 . S
O632 Gd598 2.353 . S
O632 C643 1.242 . S
O633 Gd598 2.468 . S
O633 C651 1.263 . S
O634 Gd598 2.427 . S
O634 C651 1.252 . S
O635 Gd599 2.307 . S
O635 C644 1.261 . S
O636 Gd598 2.388 . S
O636 C644 1.252 . S
O637 Gd598 2.386 . S
O637 C655 1.265 . S
O638 Gd599 2.353 . S
O638 C655 1.242 . S
O639 Gd599 2.468 . S
O639 C663 1.263 . S
O640 Gd599 2.427 . S
O640 C663 1.252 . S
O641 Gd598 2.307 . S
O641 C656 1.261 . S
O642 Gd599 2.388 . S
O642 C656 1.252 . S
C643 O631 1.265 . S
C643 O632 1.242 . S
C644 O635 1.261 . S
C644 O636 1.252 . S
C645 C648 1.397 . S
C645 C650 1.375 . S
C645 C651 1.492 1_545 S
C646 C649 1.383 . S
C646 C650 1.395 . S
C647 C648 1.396 . S
C647 C649 1.365 . S
C647 H664 0.929 . S
C648 C645 1.397 . S
C648 C647 1.396 . S
C648 H665 0.922 1_545 S
C649 C646 1.383 . S
C649 C647 1.365 . S
C649 H666 0.931 . S
C650 C645 1.375 . S
C650 C646 1.395 . S
C650 H667 0.930 . S
C651 Gd598 2.805 . S
C651 O633 1.263 . S
C651 O634 1.252 . S
C651 C645 1.492 1_565 S
C652 H614 0.930 . S
C652 C628 1.417 1_545 S
C652 C653 1.329 1_545 S
C653 C623 1.437 . S
C653 H624 0.929 . S
C653 C652 1.329 1_565 S
H654 C627 0.931 . S
C655 O637 1.265 . S
C655 O638 1.242 . S
C656 O641 1.261 . S
C656 O642 1.252 . S
C657 C660 1.394 . S
C657 C662 1.370 . S
C657 C663 1.500 . S
C658 C661 1.383 . S
C658 C662 1.395 . S
C659 C660 1.396 . S
C659 C661 1.365 . S
C659 H668 0.929 . S
C660 C657 1.394 . S
C660 C659 1.396 . S
C660 H669 0.930 . S
C661 C658 1.383 . S
C661 C659 1.365 . S
C661 H670 0.931 . S
C662 C657 1.370 . S
C662 C658 1.395 . S
C662 H671 0.930 . S
C663 Gd599 2.805 . S
C663 O639 1.263 . S
C663 O640 1.252 . S
C663 C657 1.500 . S
H664 C647 0.929 . S
H665 C648 0.922 1_565 S
H666 C649 0.931 . S
H667 C650 0.930 . S
H668 C659 0.929 . S
H669 C660 0.930 . S
H670 C661 0.931 . S
H671 C662 0.930 . S
C672 C674 1.422 . S
C672 C676 1.415 . S
C672 N678 1.369 . S
C673 C674 1.421 . S
C673 C675 1.417 . S
C673 C685 1.422 . S
C674 C672 1.422 . S
C674 C673 1.421 . S
C674 N684 1.359 . S
C675 C673 1.417 . S
C675 C677 1.329 . S
C675 H694 0.930 . S
C676 C672 1.415 . S
C676 C677 1.437 . S
C676 C680 1.413 . S
C677 C675 1.329 . S
C677 C676 1.437 . S
C677 H699 0.929 . S
N678 C672 1.369 . S
N678 C679 1.338 . S
N678 Gd683 2.622 . S
C679 N678 1.338 . S
C679 C681 1.378 . S
C679 H691 0.929 . S
C680 C676 1.413 . S
C680 C681 1.348 . S
C680 H696 0.931 . S
C681 C679 1.378 . S
C681 C680 1.348 . S
C681 H697 0.930 . S
Gd682 N702 2.622 . S
Gd682 N709 2.570 . S
Gd682 O716 2.353 . S
Gd682 O717 2.468 . S
Gd682 O718 2.427 . S
Gd682 O720 2.388 . S
Gd682 O721 2.386 . S
Gd682 O725 2.307 . S
Gd682 C735 2.805 . S
Gd683 N678 2.622 . S
Gd683 N684 2.570 . S
Gd683 O715 2.386 . S
Gd683 O719 2.307 . S
Gd683 O722 2.353 . S
Gd683 O723 2.468 . S
Gd683 O724 2.427 . S
Gd683 O726 2.388 . S
Gd683 C747 2.805 . S
N684 C674 1.359 . S
N684 Gd683 2.570 . S
N684 C686 1.343 . S
C685 C673 1.422 . S
C685 C687 1.321 . S
C685 H693 0.931 . S
C686 N684 1.343 . S
C686 C687 1.390 . S
C686 H688 0.931 . S
C687 C685 1.321 . S
C687 C686 1.390 . S
C687 H689 0.930 . S
H688 C686 0.931 . S
H689 C687 0.930 . S
H690 C713 0.931 . S
H691 C679 0.929 . S
H692 C714 0.930 . S
H693 C685 0.931 . S
H694 C675 0.930 . S
H695 C704 0.929 . S
H696 C680 0.931 . S
H697 C681 0.930 . S
H698 C736 0.930 . S
H699 C677 0.929 . S
H700 C705 0.931 . S
H701 C706 0.930 . S
N702 Gd682 2.622 . S
N702 C703 1.369 . S
N702 C704 1.338 . S
C703 N702 1.369 . S
C703 C707 1.415 . S
C703 C710 1.422 . S
C704 H695 0.929 . S
C704 N702 1.338 . S
C704 C706 1.378 . S
C705 H700 0.931 . S
C705 C706 1.348 . S
C705 C707 1.413 . S
C706 H701 0.930 . S
C706 C704 1.378 . S
C706 C705 1.348 . S
C707 C703 1.415 . S
C707 C705 1.413 . S
C707 C737 1.437 . S
H708 C737 0.929 1_545 S
N709 Gd682 2.570 . S
N709 C710 1.359 . S
N709 C713 1.343 . S
C710 C703 1.422 . S
C710 N709 1.359 . S
C710 C712 1.421 . S
C711 C712 1.422 . S
C711 C714 1.321 . S
C711 H738 0.931 1_565 S
C712 C710 1.421 . S
C712 C711 1.422 . S
C712 C736 1.417 1_565 S
C713 H690 0.931 . S
C713 N709 1.343 . S
C713 C714 1.390 . S
C714 H692 0.930 . S
C714 C711 1.321 . S
C714 C713 1.390 . S
O715 Gd683 2.386 . S
O715 C727 1.265 . S
O716 Gd682 2.353 . S
O716 C727 1.242 . S
O717 Gd682 2.468 . S
O717 C735 1.263 . S
O718 Gd682 2.427 . S
O718 C735 1.252 . S
O719 Gd683 2.307 . S
O719 C728 1.261 . S
O720 Gd682 2.388 . S
O720 C728 1.252 . S
O721 Gd682 2.386 . S
O721 C739 1.265 . S
O722 Gd683 2.353 . S
O722 C739 1.242 . S
O723 Gd683 2.468 . S
O723 C747 1.263 . S
O724 Gd683 2.427 . S
O724 C747 1.252 . S
O725 Gd682 2.307 . S
O725 C740 1.261 . S
O726 Gd683 2.388 . S
O726 C740 1.252 . S
C727 O715 1.265 . S
C727 O716 1.242 . S
C728 O719 1.261 . S
C728 O720 1.252 . S
C729 C732 1.394 . S
C729 C734 1.370 . S
C729 C735 1.500 . S
C730 C733 1.383 . S
C730 C734 1.395 . S
C731 C732 1.396 . S
C731 C733 1.365 . S
C731 H748 0.929 . S
C732 C729 1.394 . S
C732 C731 1.396 . S
C732 H749 0.930 . S
C733 C730 1.383 . S
C733 C731 1.365 . S
C733 H750 0.931 . S
C734 C729 1.370 . S
C734 C730 1.395 . S
C734 H751 0.930 . S
C735 Gd682 2.805 . S
C735 O717 1.263 . S
C735 O718 1.252 . S
C735 C729 1.500 . S
C736 H698 0.930 . S
C736 C712 1.417 1_545 S
C736 C737 1.329 1_545 S
C737 C707 1.437 . S
C737 H708 0.929 1_565 S
C737 C736 1.329 1_565 S
H738 C711 0.931 1_545 S
C739 O721 1.265 . S
C739 O722 1.242 . S
C740 O725 1.261 . S
C740 O726 1.252 . S
C741 C744 1.394 . S
C741 C746 1.370 . S
C741 C747 1.500 . S
C742 C745 1.383 . S
C742 C746 1.395 . S
C743 C744 1.396 . S
C743 C745 1.365 . S
C743 H752 0.929 . S
C744 C741 1.394 . S
C744 C743 1.396 . S
C744 H753 0.930 . S
C745 C742 1.383 . S
C745 C743 1.365 . S
C745 H754 0.931 . S
C746 C741 1.370 . S
C746 C742 1.395 . S
C746 H755 0.930 . S
C747 Gd683 2.805 . S
C747 O723 1.263 . S
C747 O724 1.252 . S
C747 C741 1.500 . S
H748 C731 0.929 . S
H749 C732 0.930 . S
H750 C733 0.931 . S
H751 C734 0.930 . S
H752 C743 0.929 . S
H753 C744 0.930 . S
H754 C745 0.931 . S
H755 C746 0.930 . S
C756 C758 1.422 . S
C756 C760 1.415 . S
C756 N762 1.369 . S
C757 C758 1.421 . S
C757 C759 1.417 . S
C757 C769 1.422 . S
C758 C756 1.422 . S
C758 C757 1.421 . S
C758 N768 1.359 . S
C759 C757 1.417 . S
C759 C761 1.329 . S
C759 H778 0.930 . S
C760 C756 1.415 . S
C760 C761 1.437 . S
C760 C764 1.413 . S
C761 C759 1.329 . S
C761 C760 1.437 . S
C761 H783 0.929 . S
N762 C756 1.369 . S
N762 C763 1.338 . S
N762 Gd767 2.622 . S
C763 N762 1.338 . S
C763 C765 1.378 . S
C763 H775 0.929 . S
C764 C760 1.413 . S
C764 C765 1.348 . S
C764 H780 0.931 . S
C765 C763 1.378 . S
C765 C764 1.348 . S
C765 H781 0.930 1_556 S
Gd766 N786 2.622 . S
Gd766 N793 2.570 . S
Gd766 O800 2.353 . S
Gd766 O801 2.468 . S
Gd766 O802 2.427 . S
Gd766 O804 2.388 . S
Gd766 O805 2.386 . S
Gd766 O809 2.307 . S
Gd766 C819 2.805 . S
Gd767 N762 2.622 . S
Gd767 N768 2.570 . S
Gd767 O799 2.386 . S
Gd767 O803 2.307 . S
Gd767 O806 2.353 . S
Gd767 O807 2.468 . S
Gd767 O808 2.427 . S
Gd767 O810 2.388 . S
Gd767 C831 2.805 . S
N768 C758 1.359 . S
N768 Gd767 2.570 . S
N768 C770 1.343 . S
C769 C757 1.422 . S
C769 C771 1.321 . S
C769 H777 0.931 . S
C770 N768 1.343 . S
C770 C771 1.390 . S
C770 H772 0.931 . S
C771 C769 1.321 . S
C771 C770 1.390 . S
C771 H773 0.930 . S
H772 C770 0.931 . S
H773 C771 0.930 . S
H774 C797 0.931 . S
H775 C763 0.929 . S
H776 C798 0.930 . S
H777 C769 0.931 . S
H778 C759 0.930 . S
H779 C788 0.929 . S
H780 C764 0.931 . S
H781 C765 0.930 1_554 S
H782 C820 0.930 . S
H783 C761 0.929 . S
H784 C789 0.931 . S
H785 C790 0.930 . S
N786 Gd766 2.622 . S
N786 C787 1.369 . S
N786 C788 1.338 . S
C787 N786 1.369 . S
C787 C791 1.415 . S
C787 C794 1.422 . S
C788 H779 0.929 . S
C788 N786 1.338 . S
C788 C790 1.378 . S
C789 H784 0.931 . S
C789 C790 1.348 . S
C789 C791 1.413 . S
C790 H785 0.930 . S
C790 C788 1.378 . S
C790 C789 1.348 . S
C791 C787 1.415 . S
C791 C789 1.413 . S
C791 C821 1.437 . S
H792 C821 0.929 . S
N793 Gd766 2.570 . S
N793 C794 1.359 . S
N793 C797 1.343 . S
C794 C787 1.422 . S
C794 N793 1.359 . S
C794 C796 1.421 . S
C795 C796 1.422 1_655 S
C795 C798 1.321 1_655 S
C795 H822 0.931 . S
C796 C794 1.421 . S
C796 C795 1.422 1_455 S
C796 C820 1.417 1_455 S
C797 H774 0.931 . S
C797 N793 1.343 . S
C797 C798 1.390 . S
C798 H776 0.930 . S
C798 C795 1.321 1_455 S
C798 C797 1.390 . S
O799 Gd767 2.386 . S
O799 C811 1.265 . S
O800 Gd766 2.353 . S
O800 C811 1.242 . S
O801 Gd766 2.468 . S
O801 C819 1.263 . S
O802 Gd766 2.427 . S
O802 C819 1.252 . S
O803 Gd767 2.307 . S
O803 C812 1.261 . S
O804 Gd766 2.388 . S
O804 C812 1.252 . S
O805 Gd766 2.386 . S
O805 C823 1.265 . S
O806 Gd767 2.353 . S
O806 C823 1.242 . S
O807 Gd767 2.468 . S
O807 C831 1.263 . S
O808 Gd767 2.427 . S
O808 C831 1.252 . S
O809 Gd766 2.307 . S
O809 C824 1.261 . S
O810 Gd767 2.388 . S
O810 C824 1.252 . S
C811 O799 1.265 . S
C811 O800 1.242 . S
C812 O803 1.261 . S
C812 O804 1.252 . S
C813 C816 1.395 . S
C813 C818 1.372 . S
C813 C819 1.497 1_655 S
C814 C817 1.383 . S
C814 C818 1.395 . S
C815 C816 1.396 . S
C815 C817 1.365 . S
C815 H832 0.929 . S
C816 C813 1.395 . S
C816 C815 1.396 . S
C816 H833 0.926 1_655 S
C817 C814 1.383 . S
C817 C815 1.365 . S
C817 H834 0.931 . S
C818 C813 1.372 . S
C818 C814 1.395 . S
C818 H835 0.930 . S
C819 Gd766 2.805 . S
C819 O801 1.263 . S
C819 O802 1.252 . S
C819 C813 1.497 1_455 S
C820 H782 0.930 . S
C820 C796 1.417 1_655 S
C820 C821 1.329 1_655 S
C821 C791 1.437 . S
C821 H792 0.929 . S
C821 C820 1.329 1_455 S
H822 C795 0.931 . S
C823 O805 1.265 . S
C823 O806 1.242 . S
C824 O809 1.261 . S
C824 O810 1.252 . S
C825 C828 1.394 . S
C825 C830 1.370 . S
C825 C831 1.500 . S
C826 C829 1.383 . S
C826 C830 1.395 . S
C827 C828 1.396 . S
C827 C829 1.365 . S
C827 H836 0.929 . S
C828 C825 1.394 . S
C828 C827 1.396 . S
C828 H837 0.930 . S
C829 C826 1.383 . S
C829 C827 1.365 . S
C829 H838 0.931 . S
C830 C825 1.370 . S
C830 C826 1.395 . S
C830 H839 0.930 . S
C831 Gd767 2.805 . S
C831 O807 1.263 . S
C831 O808 1.252 . S
C831 C825 1.500 . S
H832 C815 0.929 . S
H833 C816 0.926 1_455 S
H834 C817 0.931 . S
H835 C818 0.930 . S
H836 C827 0.929 . S
H837 C828 0.930 . S
H838 C829 0.931 . S
H839 C830 0.930 . S
C840 C842 1.422 . S
C840 C844 1.415 . S
C840 N846 1.369 . S
C841 C842 1.421 . S
C841 C843 1.417 1_565 S
C841 C853 1.422 1_565 S
C842 C840 1.422 . S
C842 C841 1.421 . S
C842 N852 1.359 . S
C843 C841 1.417 1_545 S
C843 C845 1.329 1_545 S
C843 H862 0.930 . S
C844 C840 1.415 . S
C844 C845 1.437 . S
C844 C848 1.413 . S
C845 C843 1.329 1_565 S
C845 C844 1.437 . S
C845 H867 0.929 . S
N846 C840 1.369 . S
N846 C847 1.338 . S
N846 Gd851 2.622 . S
C847 N846 1.338 . S
C847 C849 1.378 . S
C847 H859 0.929 . S
C848 C844 1.413 . S
C848 C849 1.348 . S
C848 H864 0.931 . S
C849 C847 1.378 . S
C849 C848 1.348 . S
C849 H865 0.930 . S
Gd850 N870 2.622 . S
Gd850 N877 2.570 . S
Gd850 O884 2.353 . S
Gd850 O885 2.468 . S
Gd850 O886 2.427 . S
Gd850 O888 2.388 . S
Gd850 O889 2.386 . S
Gd850 O893 2.307 . S
Gd850 C903 2.805 . S
Gd851 N846 2.622 . S
Gd851 N852 2.570 . S
Gd851 O883 2.386 . S
Gd851 O887 2.307 . S
Gd851 O890 2.353 . S
Gd851 O891 2.468 . S
Gd851 O892 2.427 . S
Gd851 O894 2.388 . S
Gd851 C915 2.805 . S
N852 C842 1.359 . S
N852 Gd851 2.570 . S
N852 C854 1.343 . S
C853 C841 1.422 1_545 S
C853 C855 1.321 1_545 S
C853 H861 0.931 . S
C854 N852 1.343 . S
C854 C855 1.390 . S
C854 H856 0.931 . S
C855 C853 1.321 1_565 S
C855 C854 1.390 . S
C855 H857 0.930 . S
H856 C854 0.931 . S
H857 C855 0.930 . S
H858 C881 0.931 . S
H859 C847 0.929 . S
H860 C882 0.930 . S
H861 C853 0.931 . S
H862 C843 0.930 . S
H863 C872 0.929 . S
H864 C848 0.931 . S
H865 C849 0.930 . S
H866 C904 0.930 . S
H867 C845 0.929 . S
H868 C873 0.931 . S
H869 C874 0.930 . S
N870 Gd850 2.622 . S
N870 C871 1.369 . S
N870 C872 1.338 . S
C871 N870 1.369 . S
C871 C875 1.415 . S
C871 C878 1.422 . S
C872 H863 0.929 . S
C872 N870 1.338 . S
C872 C874 1.378 . S
C873 H868 0.931 . S
C873 C874 1.348 . S
C873 C875 1.413 . S
C874 H869 0.930 . S
C874 C872 1.378 . S
C874 C873 1.348 . S
C875 C871 1.415 . S
C875 C873 1.413 . S
C875 C905 1.437 . S
H876 C905 0.929 1_655 S
N877 Gd850 2.570 . S
N877 C878 1.359 . S
N877 C881 1.343 . S
C878 C871 1.422 . S
C878 N877 1.359 . S
C878 C880 1.421 . S
C879 C880 1.422 . S
C879 C882 1.321 . S
C879 H906 0.931 1_455 S
C880 C878 1.421 . S
C880 C879 1.422 . S
C880 C904 1.417 1_455 S
C881 H858 0.931 . S
C881 N877 1.343 . S
C881 C882 1.390 . S
C882 H860 0.930 . S
C882 C879 1.321 . S
C882 C881 1.390 . S
O883 Gd851 2.386 . S
O883 C895 1.265 . S
O884 Gd850 2.353 . S
O884 C895 1.242 . S
O885 Gd850 2.468 . S
O885 C903 1.263 . S
O886 Gd850 2.427 . S
O886 C903 1.252 . S
O887 Gd851 2.307 . S
O887 C896 1.261 . S
O888 Gd850 2.388 . S
O888 C896 1.252 . S
O889 Gd850 2.386 . S
O889 C907 1.265 . S
O890 Gd851 2.353 . S
O890 C907 1.242 . S
O891 Gd851 2.468 . S
O891 C915 1.263 . S
O892 Gd851 2.427 . S
O892 C915 1.252 . S
O893 Gd850 2.307 . S
O893 C908 1.261 . S
O894 Gd851 2.388 . S
O894 C908 1.252 . S
C895 O883 1.265 . S
C895 O884 1.242 . S
C896 O887 1.261 . S
C896 O888 1.252 . S
C897 C900 1.394 . S
C897 C902 1.370 . S
C897 C903 1.500 . S
C898 C901 1.383 . S
C898 C902 1.395 . S
C899 C900 1.396 . S
C899 C901 1.365 . S
C899 H916 0.929 . S
C900 C897 1.394 . S
C900 C899 1.396 . S
C900 H917 0.930 . S
C901 C898 1.383 . S
C901 C899 1.365 . S
C901 H918 0.931 . S
C902 C897 1.370 . S
C902 C898 1.395 . S
C902 H919 0.930 . S
C903 Gd850 2.805 . S
C903 O885 1.263 . S
C903 O886 1.252 . S
C903 C897 1.500 . S
C904 H866 0.930 . S
C904 C880 1.417 1_655 S
C904 C905 1.329 1_655 S
C905 C875 1.437 . S
C905 H876 0.929 1_455 S
C905 C904 1.329 1_455 S
H906 C879 0.931 1_655 S
C907 O889 1.265 . S
C907 O890 1.242 . S
C908 O893 1.261 . S
C908 O894 1.252 . S
C909 C912 1.397 . S
C909 C914 1.375 . S
C909 C915 1.492 1_545 S
C910 C913 1.383 . S
C910 C914 1.395 . S
C911 C912 1.396 . S
C911 C913 1.365 . S
C911 H920 0.929 . S
C912 C909 1.397 . S
C912 C911 1.396 . S
C912 H921 0.922 1_545 S
C913 C910 1.383 . S
C913 C911 1.365 . S
C913 H922 0.931 . S
C914 C909 1.375 . S
C914 C910 1.395 . S
C914 H923 0.930 . S
C915 Gd851 2.805 . S
C915 O891 1.263 . S
C915 O892 1.252 . S
C915 C909 1.492 1_565 S
H916 C899 0.929 . S
H917 C900 0.930 . S
H918 C901 0.931 . S
H919 C902 0.930 . S
H920 C911 0.929 . S
H921 C912 0.922 1_565 S
H922 C913 0.931 . S
H923 C914 0.930 . S
C924 C926 1.422 . S
C924 C928 1.415 . S
C924 N930 1.369 . S
C925 C926 1.421 . S
C925 C927 1.417 1_565 S
C925 C937 1.422 . S
C926 C924 1.422 . S
C926 C925 1.421 . S
C926 N936 1.359 . S
C927 C925 1.417 1_545 S
C927 C929 1.329 1_545 S
C927 H946 0.930 . S
C928 C924 1.415 . S
C928 C929 1.437 . S
C928 C932 1.413 . S
C929 C927 1.329 1_565 S
C929 C928 1.437 . S
C929 H951 0.929 1_565 S
N930 C924 1.369 . S
N930 C931 1.338 . S
N930 Gd935 2.622 . S
C931 N930 1.338 . S
C931 C933 1.378 . S
C931 H943 0.929 . S
C932 C928 1.413 . S
C932 C933 1.348 . S
C932 H948 0.931 . S
C933 C931 1.378 . S
C933 C932 1.348 . S
C933 H949 0.930 1_556 S
Gd934 N954 2.622 . S
Gd934 N961 2.570 . S
Gd934 O968 2.353 . S
Gd934 O969 2.468 . S
Gd934 O970 2.427 . S
Gd934 O972 2.388 . S
Gd934 O973 2.386 . S
Gd934 O977 2.307 . S
Gd934 C987 2.805 . S
Gd935 N930 2.622 . S
Gd935 N936 2.570 . S
Gd935 O967 2.386 . S
Gd935 O971 2.307 . S
Gd935 O974 2.353 . S
Gd935 O975 2.468 . S
Gd935 O976 2.427 . S
Gd935 O978 2.388 . S
Gd935 C999 2.805 . S
N936 C926 1.359 . S
N936 Gd935 2.570 . S
N936 C938 1.343 . S
C937 C925 1.422 . S
C937 C939 1.321 . S
C937 H945 0.931 1_565 S
C938 N936 1.343 . S
C938 C939 1.390 . S
C938 H940 0.931 . S
C939 C937 1.321 . S
C939 C938 1.390 . S
C939 H941 0.930 . S
H940 C938 0.931 . S
H941 C939 0.930 . S
H942 C965 0.931 . S
H943 C931 0.929 . S
H944 C966 0.930 . S
H945 C937 0.931 1_545 S
H946 C927 0.930 . S
H947 C956 0.929 . S
H948 C932 0.931 . S
H949 C933 0.930 1_554 S
H950 C988 0.930 . S
H951 C929 0.929 1_545 S
H952 C957 0.931 . S
H953 C958 0.930 . S
N954 Gd934 2.622 . S
N954 C955 1.369 . S
N954 C956 1.338 . S
C955 N954 1.369 . S
C955 C959 1.415 . S
C955 C962 1.422 . S
C956 H947 0.929 . S
C956 N954 1.338 . S
C956 C958 1.378 . S
C957 H952 0.931 . S
C957 C958 1.348 . S
C957 C959 1.413 . S
C958 H953 0.930 . S
C958 C956 1.378 . S
C958 C957 1.348 . S
C959 C955 1.415 . S
C959 C957 1.413 . S
C959 C989 1.437 . S
H960 C989 0.929 . S
N961 Gd934 2.570 . S
N961 C962 1.359 . S
N961 C965 1.343 . S
C962 C955 1.422 . S
C962 N961 1.359 . S
C962 C964 1.421 . S
C963 C964 1.422 . S
C963 C966 1.321 . S
C963 H990 0.931 . S
C964 C962 1.421 . S
C964 C963 1.422 . S
C964 C988 1.417 . S
C965 H942 0.931 . S
C965 N961 1.343 . S
C965 C966 1.390 . S
C966 H944 0.930 . S
C966 C963 1.321 . S
C966 C965 1.390 . S
O967 Gd935 2.386 . S
O967 C979 1.265 . S
O968 Gd934 2.353 . S
O968 C979 1.242 . S
O969 Gd934 2.468 . S
O969 C987 1.263 . S
O970 Gd934 2.427 . S
O970 C987 1.252 . S
O971 Gd935 2.307 . S
O971 C980 1.261 . S
O972 Gd934 2.388 . S
O972 C980 1.252 . S
O973 Gd934 2.386 . S
O973 C991 1.265 . S
O974 Gd935 2.353 . S
O974 C991 1.242 . S
O975 Gd935 2.468 . S
O975 C999 1.263 . S
O976 Gd935 2.427 . S
O976 C999 1.252 . S
O977 Gd934 2.307 . S
O977 C992 1.261 . S
O978 Gd935 2.388 . S
O978 C992 1.252 . S
C979 O967 1.265 . S
C979 O968 1.242 . S
C980 O971 1.261 . S
C980 O972 1.252 . S
C981 C984 1.394 . S
C981 C986 1.370 . S
C981 C987 1.500 . S
C982 C985 1.383 . S
C982 C986 1.395 . S
C983 C984 1.396 . S
C983 C985 1.365 . S
C983 H1000 0.929 . S
C984 C981 1.394 . S
C984 C983 1.396 . S
C984 H1001 0.930 . S
C985 C982 1.383 . S
C985 C983 1.365 . S
C985 H1002 0.931 . S
C986 C981 1.370 . S
C986 C982 1.395 . S
C986 H1003 0.930 . S
C987 Gd934 2.805 . S
C987 O969 1.263 . S
C987 O970 1.252 . S
C987 C981 1.500 . S
C988 H950 0.930 . S
C988 C964 1.417 . S
C988 C989 1.329 . S
C989 C959 1.437 . S
C989 H960 0.929 . S
C989 C988 1.329 . S
H990 C963 0.931 . S
C991 O973 1.265 . S
C991 O974 1.242 . S
C992 O977 1.261 . S
C992 O978 1.252 . S
C993 C996 1.394 . S
C993 C998 1.370 . S
C993 C999 1.500 . S
C994 C997 1.383 . S
C994 C998 1.395 . S
C995 C996 1.396 . S
C995 C997 1.365 . S
C995 H1004 0.929 . S
C996 C993 1.394 . S
C996 C995 1.396 . S
C996 H1005 0.930 . S
C997 C994 1.383 . S
C997 C995 1.365 . S
C997 H1006 0.931 . S
C998 C993 1.370 . S
C998 C994 1.395 . S
C998 H1007 0.930 . S
C999 Gd935 2.805 . S
C999 O975 1.263 . S
C999 O976 1.252 . S
C999 C993 1.500 . S
H1000 C983 0.929 . S
H1001 C984 0.930 . S
H1002 C985 0.931 . S
H1003 C986 0.930 . S
H1004 C995 0.929 . S
H1005 C996 0.930 . S
H1006 C997 0.931 . S
H1007 C998 0.930 . S
H1008 C1016 0.950 . S
H1009 C1021 0.950 . S
H1010 C1018 0.950 . S
H1011 C1020 0.950 . S
H1012 C1022 0.950 . S
H1013 C1024 0.950 . S
H1014 C1026 0.950 . S
H1015 C1027 0.950 . S
C1016 H1008 0.950 . S
C1016 C1017 1.386 . S
C1016 C1018 1.391 . S
C1017 C1016 1.386 . S
C1017 C1021 1.393 . S
C1018 H1010 0.950 . S
C1018 C1016 1.391 . S
C1018 C1019 1.400 . S
C1019 C1018 1.400 . S
C1019 C1020 1.398 . S
C1019 C1025 1.491 . S
C1020 H1011 0.950 . S
C1020 C1019 1.398 . S
C1020 C1021 1.391 . S
C1021 H1009 0.950 . S
C1021 C1017 1.393 . S
C1021 C1020 1.391 . S
C1022 H1012 0.950 . S
C1022 C1023 1.386 . S
C1022 C1024 1.391 . S
C1023 C1022 1.386 . S
C1023 C1027 1.393 . S
C1024 H1013 0.950 . S
C1024 C1022 1.391 . S
C1024 C1025 1.400 . S
C1025 C1019 1.491 . S
C1025 C1024 1.400 . S
C1025 C1026 1.398 . S
C1026 H1014 0.950 . S
C1026 C1025 1.398 . S
C1026 C1027 1.391 . S
C1027 H1015 0.950 . S
C1027 C1023 1.393 . S
C1027 C1026 1.391 . S
H1028 C1036 0.950 . S
H1029 C1041 0.950 . S
H1030 C1038 0.950 . S
H1031 C1040 0.950 . S
H1032 C1042 0.950 . S
H1033 C1044 0.951 1_455 S
H1034 C1046 0.950 . S
H1035 C1047 0.950 . S
C1036 H1028 0.950 . S
C1036 C1037 1.386 . S
C1036 C1038 1.391 . S
C1037 C1036 1.386 . S
C1037 C1041 1.393 . S
C1038 H1030 0.950 . S
C1038 C1036 1.391 . S
C1038 C1039 1.400 . S
C1039 C1038 1.400 . S
C1039 C1040 1.398 . S
C1039 C1045 1.491 1_455 S
C1040 H1031 0.950 . S
C1040 C1039 1.398 . S
C1040 C1041 1.391 . S
C1041 H1029 0.950 . S
C1041 C1037 1.393 . S
C1041 C1040 1.391 . S
C1042 H1032 0.950 . S
C1042 C1043 1.386 . S
C1042 C1044 1.391 . S
C1043 C1042 1.386 . S
C1043 C1047 1.393 . S
C1044 H1033 0.951 1_655 S
C1044 C1042 1.391 . S
C1044 C1045 1.400 . S
C1045 C1039 1.491 1_655 S
C1045 C1044 1.400 . S
C1045 C1046 1.398 . S
C1046 H1034 0.950 . S
C1046 C1045 1.398 . S
C1046 C1047 1.391 . S
C1047 H1035 0.950 . S
C1047 C1043 1.393 . S
C1047 C1046 1.391 . S
H1048 C1056 0.950 . S
H1049 C1061 0.950 . S
H1050 C1058 0.950 1_565 S
H1051 C1060 0.950 . S
H1052 C1062 0.950 . S
H1053 C1064 0.950 . S
H1054 C1066 0.950 . S
H1055 C1067 0.950 . S
C1056 H1048 0.950 . S
C1056 C1057 1.386 . S
C1056 C1058 1.391 . S
C1057 C1056 1.386 . S
C1057 C1061 1.393 . S
C1058 H1050 0.950 1_545 S
C1058 C1056 1.391 . S
C1058 C1059 1.400 . S
C1059 C1058 1.400 . S
C1059 C1060 1.398 . S
C1059 C1065 1.491 1_545 S
C1060 H1051 0.950 . S
C1060 C1059 1.398 . S
C1060 C1061 1.391 . S
C1061 H1049 0.950 . S
C1061 C1057 1.393 . S
C1061 C1060 1.391 . S
C1062 H1052 0.950 . S
C1062 C1063 1.386 . S
C1062 C1064 1.391 . S
C1063 C1062 1.386 . S
C1063 C1067 1.393 . S
C1064 H1053 0.950 . S
C1064 C1062 1.391 . S
C1064 C1065 1.400 . S
C1065 C1059 1.491 1_565 S
C1065 C1064 1.400 . S
C1065 C1066 1.398 . S
C1066 H1054 0.950 . S
C1066 C1065 1.398 . S
C1066 C1067 1.391 . S
C1067 H1055 0.950 . S
C1067 C1063 1.393 . S
C1067 C1066 1.391 . S
H1068 C1076 0.950 . S
H1069 C1081 0.950 . S
H1070 C1078 0.950 . S
H1071 C1080 0.950 . S
H1072 C1082 0.950 . S
H1073 C1084 0.950 . S
H1074 C1086 0.950 . S
H1075 C1087 0.950 . S
C1076 H1068 0.950 . S
C1076 C1077 1.386 . S
C1076 C1078 1.391 . S
C1077 C1076 1.386 . S
C1077 C1081 1.393 . S
C1078 H1070 0.950 . S
C1078 C1076 1.391 . S
C1078 C1079 1.400 . S
C1079 C1078 1.400 . S
C1079 C1080 1.398 . S
C1079 C1085 1.491 . S
C1080 H1071 0.950 . S
C1080 C1079 1.398 . S
C1080 C1081 1.391 . S
C1081 H1069 0.950 . S
C1081 C1077 1.393 . S
C1081 C1080 1.391 . S
C1082 H1072 0.950 . S
C1082 C1083 1.386 . S
C1082 C1084 1.391 . S
C1083 C1082 1.386 . S
C1083 C1087 1.393 . S
C1084 H1073 0.950 . S
C1084 C1082 1.391 . S
C1084 C1085 1.400 . S
C1085 C1079 1.491 . S
C1085 C1084 1.400 . S
C1085 C1086 1.398 . S
C1086 H1074 0.950 . S
C1086 C1085 1.398 . S
C1086 C1087 1.391 . S
C1087 H1075 0.950 . S
C1087 C1083 1.393 . S
C1087 C1086 1.391 . S
H1088 C1096 0.950 . S
H1089 C1101 0.950 . S
H1090 C1098 0.950 . S
H1091 C1100 0.950 . S
H1092 C1102 0.950 . S
H1093 C1104 0.950 1_455 S
H1094 C1106 0.950 . S
H1095 C1107 0.950 . S
C1096 H1088 0.950 . S
C1096 C1097 1.386 . S
C1096 C1098 1.391 . S
C1097 C1096 1.386 . S
C1097 C1101 1.393 . S
C1098 H1090 0.950 . S
C1098 C1096 1.391 . S
C1098 C1099 1.400 . S
C1099 C1098 1.400 . S
C1099 C1100 1.398 . S
C1099 C1105 1.491 1_455 S
C1100 H1091 0.950 . S
C1100 C1099 1.398 . S
C1100 C1101 1.391 . S
C1101 H1089 0.950 . S
C1101 C1097 1.393 . S
C1101 C1100 1.391 . S
C1102 H1092 0.950 . S
C1102 C1103 1.386 . S
C1102 C1104 1.391 . S
C1103 C1102 1.386 . S
C1103 C1107 1.393 . S
C1104 H1093 0.950 1_655 S
C1104 C1102 1.391 . S
C1104 C1105 1.400 . S
C1105 C1099 1.491 1_655 S
C1105 C1104 1.400 . S
C1105 C1106 1.398 . S
C1106 H1094 0.950 . S
C1106 C1105 1.398 . S
C1106 C1107 1.391 . S
C1107 H1095 0.950 . S
C1107 C1103 1.393 . S
C1107 C1106 1.391 . S
H1108 C1116 0.950 . S
H1109 C1121 0.950 . S
H1110 C1118 0.950 . S
H1111 C1120 0.950 . S
H1112 C1122 0.950 . S
H1113 C1124 0.950 1_565 S
H1114 C1126 0.950 . S
H1115 C1127 0.950 . S
C1116 H1108 0.950 . S
C1116 C1117 1.386 . S
C1116 C1118 1.391 . S
C1117 C1116 1.386 . S
C1117 C1121 1.393 . S
C1118 H1110 0.950 . S
C1118 C1116 1.391 . S
C1118 C1119 1.400 . S
C1119 C1118 1.400 . S
C1119 C1120 1.398 . S
C1119 C1125 1.491 1_565 S
C1120 H1111 0.950 . S
C1120 C1119 1.398 . S
C1120 C1121 1.391 . S
C1121 H1109 0.950 . S
C1121 C1117 1.393 . S
C1121 C1120 1.391 . S
C1122 H1112 0.950 . S
C1122 C1123 1.386 . S
C1122 C1124 1.391 . S
C1123 C1122 1.386 . S
C1123 C1127 1.393 . S
C1124 H1113 0.950 1_545 S
C1124 C1122 1.391 . S
C1124 C1125 1.400 . S
C1125 C1119 1.491 1_545 S
C1125 C1124 1.400 . S
C1125 C1126 1.398 . S
C1126 H1114 0.950 . S
C1126 C1125 1.398 . S
C1126 C1127 1.391 . S
C1127 H1115 0.950 . S
C1127 C1123 1.393 . S
C1127 C1126 1.391 . S
H1128 C1136 0.950 . S
H1129 C1141 0.950 . S
H1130 C1138 0.950 . S
H1131 C1140 0.950 . S
H1132 C1142 0.950 . S
H1133 C1144 0.950 . S
H1134 C1146 0.950 . S
H1135 C1147 0.950 . S
C1136 H1128 0.950 . S
C1136 C1137 1.386 . S
C1136 C1138 1.391 . S
C1137 C1136 1.386 . S
C1137 C1141 1.393 . S
C1138 H1130 0.950 . S
C1138 C1136 1.391 . S
C1138 C1139 1.400 . S
C1139 C1138 1.400 . S
C1139 C1140 1.398 . S
C1139 C1145 1.491 . S
C1140 H1131 0.950 . S
C1140 C1139 1.398 . S
C1140 C1141 1.391 . S
C1141 H1129 0.950 . S
C1141 C1137 1.393 . S
C1141 C1140 1.391 . S
C1142 H1132 0.950 . S
C1142 C1143 1.386 . S
C1142 C1144 1.391 . S
C1143 C1142 1.386 . S
C1143 C1147 1.393 . S
C1144 H1133 0.950 . S
C1144 C1142 1.391 . S
C1144 C1145 1.400 . S
C1145 C1139 1.491 . S
C1145 C1144 1.400 . S
C1145 C1146 1.398 . S
C1146 H1134 0.950 . S
C1146 C1145 1.398 . S
C1146 C1147 1.391 . S
C1147 H1135 0.950 . S
C1147 C1143 1.393 . S
C1147 C1146 1.391 . S
H1148 C1156 0.950 . S
H1149 C1161 0.950 . S
H1150 C1158 0.950 . S
H1151 C1160 0.950 1_655 S
H1152 C1162 0.950 . S
H1153 C1164 0.950 . S
H1154 C1166 0.950 . S
H1155 C1167 0.950 . S
C1156 H1148 0.950 . S
C1156 C1157 1.386 . S
C1156 C1158 1.391 . S
C1157 C1156 1.386 . S
C1157 C1161 1.393 . S
C1158 H1150 0.950 . S
C1158 C1156 1.391 . S
C1158 C1159 1.400 . S
C1159 C1158 1.400 . S
C1159 C1160 1.398 . S
C1159 C1165 1.491 1_455 S
C1160 H1151 0.950 1_455 S
C1160 C1159 1.398 . S
C1160 C1161 1.391 . S
C1161 H1149 0.950 . S
C1161 C1157 1.393 . S
C1161 C1160 1.391 . S
C1162 H1152 0.950 . S
C1162 C1163 1.386 . S
C1162 C1164 1.391 . S
C1163 C1162 1.386 . S
C1163 C1167 1.393 . S
C1164 H1153 0.950 . S
C1164 C1162 1.391 . S
C1164 C1165 1.400 . S
C1165 C1159 1.491 1_655 S
C1165 C1164 1.400 . S
C1165 C1166 1.398 . S
C1166 H1154 0.950 . S
C1166 C1165 1.398 . S
C1166 C1167 1.391 . S
C1167 H1155 0.950 . S
C1167 C1163 1.393 . S
C1167 C1166 1.391 . S
H1168 C1176 0.950 . S
H1169 C1181 0.950 . S
H1170 C1178 0.950 1_545 S
H1171 C1180 0.950 . S
H1172 C1182 0.950 . S
H1173 C1184 0.950 . S
H1174 C1186 0.950 . S
H1175 C1187 0.950 . S
C1176 H1168 0.950 . S
C1176 C1177 1.386 . S
C1176 C1178 1.391 . S
C1177 C1176 1.386 . S
C1177 C1181 1.393 . S
C1178 H1170 0.950 1_565 S
C1178 C1176 1.391 . S
C1178 C1179 1.400 . S
C1179 C1178 1.400 . S
C1179 C1180 1.398 . S
C1179 C1185 1.491 1_565 S
C1180 H1171 0.950 . S
C1180 C1179 1.398 . S
C1180 C1181 1.391 . S
C1181 H1169 0.950 . S
C1181 C1177 1.393 . S
C1181 C1180 1.391 . S
C1182 H1172 0.950 . S
C1182 C1183 1.386 . S
C1182 C1184 1.391 . S
C1183 C1182 1.386 . S
C1183 C1187 1.393 . S
C1184 H1173 0.950 . S
C1184 C1182 1.391 . S
C1184 C1185 1.400 . S
C1185 C1179 1.491 1_545 S
C1185 C1184 1.400 . S
C1185 C1186 1.398 . S
C1186 H1174 0.950 . S
C1186 C1185 1.398 . S
C1186 C1187 1.391 . S
C1187 H1175 0.950 . S
C1187 C1183 1.393 . S
C1187 C1186 1.391 . S
H1188 C1196 0.950 . S
H1189 C1201 0.950 . S
H1190 C1198 0.950 . S
H1191 C1200 0.950 . S
H1192 C1202 0.950 . S
H1193 C1204 0.950 . S
H1194 C1206 0.950 . S
H1195 C1207 0.950 . S
C1196 H1188 0.950 . S
C1196 C1197 1.386 . S
C1196 C1198 1.391 . S
C1197 C1196 1.386 . S
C1197 C1201 1.393 . S
C1198 H1190 0.950 . S
C1198 C1196 1.391 . S
C1198 C1199 1.400 . S
C1199 C1198 1.400 . S
C1199 C1200 1.398 . S
C1199 C1205 1.491 . S
C1200 H1191 0.950 . S
C1200 C1199 1.398 . S
C1200 C1201 1.391 . S
C1201 H1189 0.950 . S
C1201 C1197 1.393 . S
C1201 C1200 1.391 . S
C1202 H1192 0.950 . S
C1202 C1203 1.386 . S
C1202 C1204 1.391 . S
C1203 C1202 1.386 . S
C1203 C1207 1.393 . S
C1204 H1193 0.950 . S
C1204 C1202 1.391 . S
C1204 C1205 1.400 . S
C1205 C1199 1.491 . S
C1205 C1204 1.400 . S
C1205 C1206 1.398 . S
C1206 H1194 0.950 . S
C1206 C1205 1.398 . S
C1206 C1207 1.391 . S
C1207 H1195 0.950 . S
C1207 C1203 1.393 . S
C1207 C1206 1.391 . S
H1208 C1216 0.950 . S
H1209 C1221 0.950 . S
H1210 C1218 0.950 . S
H1211 C1220 0.950 . S
H1212 C1222 0.950 . S
H1213 C1224 0.950 . S
H1214 C1226 0.950 . S
H1215 C1227 0.950 . S
C1216 H1208 0.950 . S
C1216 C1217 1.386 . S
C1216 C1218 1.391 . S
C1217 C1216 1.386 . S
C1217 C1221 1.393 . S
C1218 H1210 0.950 . S
C1218 C1216 1.391 . S
C1218 C1219 1.400 . S
C1219 C1218 1.400 . S
C1219 C1220 1.398 . S
C1219 C1225 1.491 1_455 S
C1220 H1211 0.950 . S
C1220 C1219 1.398 . S
C1220 C1221 1.391 . S
C1221 H1209 0.950 . S
C1221 C1217 1.393 . S
C1221 C1220 1.391 . S
C1222 H1212 0.950 . S
C1222 C1223 1.386 . S
C1222 C1224 1.391 . S
C1223 C1222 1.386 . S
C1223 C1227 1.393 . S
C1224 H1213 0.950 . S
C1224 C1222 1.391 . S
C1224 C1225 1.400 . S
C1225 C1219 1.491 1_655 S
C1225 C1224 1.400 . S
C1225 C1226 1.398 . S
C1226 H1214 0.950 . S
C1226 C1225 1.398 . S
C1226 C1227 1.391 . S
C1227 H1215 0.950 . S
C1227 C1223 1.393 . S
C1227 C1226 1.391 . S
H1228 C1236 0.950 . S
H1229 C1241 0.950 . S
H1230 C1238 0.950 . S
H1231 C1240 0.950 . S
H1232 C1242 0.950 . S
H1233 C1244 0.950 1_545 S
H1234 C1246 0.950 . S
H1235 C1247 0.950 . S
C1236 H1228 0.950 . S
C1236 C1237 1.386 . S
C1236 C1238 1.391 . S
C1237 C1236 1.386 . S
C1237 C1241 1.393 . S
C1238 H1230 0.950 . S
C1238 C1236 1.391 . S
C1238 C1239 1.400 . S
C1239 C1238 1.400 . S
C1239 C1240 1.398 . S
C1239 C1245 1.491 1_545 S
C1240 H1231 0.950 . S
C1240 C1239 1.398 . S
C1240 C1241 1.391 . S
C1241 H1229 0.950 . S
C1241 C1237 1.393 . S
C1241 C1240 1.391 . S
C1242 H1232 0.950 . S
C1242 C1243 1.386 . S
C1242 C1244 1.391 . S
C1243 C1242 1.386 . S
C1243 C1247 1.393 . S
C1244 H1233 0.950 1_565 S
C1244 C1242 1.391 . S
C1244 C1245 1.400 . S
C1245 C1239 1.491 1_565 S
C1245 C1244 1.400 . S
C1245 C1246 1.398 . S
C1246 H1234 0.950 . S
C1246 C1245 1.398 . S
C1246 C1247 1.391 . S
C1247 H1235 0.950 . S
C1247 C1243 1.393 . S
C1247 C1246 1.391 . S
H1248 C1256 0.950 . S
H1249 C1261 0.950 . S
H1250 C1258 0.950 . S
H1251 C1260 0.950 . S
H1252 C1262 0.950 . S
H1253 C1264 0.950 . S
H1254 C1266 0.950 . S
H1255 C1267 0.950 . S
C1256 H1248 0.950 . S
C1256 C1257 1.386 . S
C1256 C1258 1.391 . S
C1257 C1256 1.386 . S
C1257 C1261 1.393 . S
C1258 H1250 0.950 . S
C1258 C1256 1.391 . S
C1258 C1259 1.400 . S
C1259 C1258 1.400 . S
C1259 C1260 1.398 . S
C1259 C1265 1.491 . S
C1260 H1251 0.950 . S
C1260 C1259 1.398 . S
C1260 C1261 1.391 . S
C1261 H1249 0.950 . S
C1261 C1257 1.393 . S
C1261 C1260 1.391 . S
C1262 H1252 0.950 . S
C1262 C1263 1.386 . S
C1262 C1264 1.391 . S
C1263 C1262 1.386 . S
C1263 C1267 1.393 . S
C1264 H1253 0.950 . S
C1264 C1262 1.391 . S
C1264 C1265 1.400 . S
C1265 C1259 1.491 . S
C1265 C1264 1.400 . S
C1265 C1266 1.398 . S
C1266 H1254 0.950 . S
C1266 C1265 1.398 . S
C1266 C1267 1.391 . S
C1267 H1255 0.950 . S
C1267 C1263 1.393 . S
C1267 C1266 1.391 . S
H1268 C1276 0.950 . S
H1269 C1281 0.950 . S
H1270 C1278 0.950 . S
H1271 C1280 0.950 . S
H1272 C1282 0.950 . S
H1273 C1284 0.950 . S
H1274 C1286 0.950 . S
H1275 C1287 0.950 . S
C1276 H1268 0.950 . S
C1276 C1277 1.386 . S
C1276 C1278 1.391 . S
C1277 C1276 1.386 . S
C1277 C1281 1.393 . S
C1278 H1270 0.950 . S
C1278 C1276 1.391 . S
C1278 C1279 1.400 . S
C1279 C1278 1.400 . S
C1279 C1280 1.398 . S
C1279 C1285 1.491 . S
C1280 H1271 0.950 . S
C1280 C1279 1.398 . S
C1280 C1281 1.391 . S
C1281 H1269 0.950 . S
C1281 C1277 1.393 . S
C1281 C1280 1.391 . S
C1282 H1272 0.950 . S
C1282 C1283 1.386 . S
C1282 C1284 1.391 . S
C1283 C1282 1.386 . S
C1283 C1287 1.393 . S
C1284 H1273 0.950 . S
C1284 C1282 1.391 . S
C1284 C1285 1.400 . S
C1285 C1279 1.491 . S
C1285 C1284 1.400 . S
C1285 C1286 1.398 . S
C1286 H1274 0.950 . S
C1286 C1285 1.398 . S
C1286 C1287 1.391 . S
C1287 H1275 0.950 . S
C1287 C1283 1.393 . S
C1287 C1286 1.391 . S
H1288 C1296 0.950 . S
H1289 C1301 0.950 . S
H1290 C1298 0.950 . S
H1291 C1300 0.950 . S
H1292 C1302 0.950 . S
H1293 C1304 0.950 . S
H1294 C1306 0.950 . S
H1295 C1307 0.950 . S
C1296 H1288 0.950 . S
C1296 C1297 1.386 . S
C1296 C1298 1.391 . S
C1297 C1296 1.386 . S
C1297 C1301 1.393 . S
C1298 H1290 0.950 . S
C1298 C1296 1.391 . S
C1298 C1299 1.400 . S
C1299 C1298 1.400 . S
C1299 C1300 1.398 . S
C1299 C1305 1.491 . S
C1300 H1291 0.950 . S
C1300 C1299 1.398 . S
C1300 C1301 1.391 . S
C1301 H1289 0.950 . S
C1301 C1297 1.393 . S
C1301 C1300 1.391 . S
C1302 H1292 0.950 . S
C1302 C1303 1.386 . S
C1302 C1304 1.391 . S
C1303 C1302 1.386 . S
C1303 C1307 1.393 . S
C1304 H1293 0.950 . S
C1304 C1302 1.391 . S
C1304 C1305 1.400 . S
C1305 C1299 1.491 . S
C1305 C1304 1.400 . S
C1305 C1306 1.398 . S
C1306 H1294 0.950 . S
C1306 C1305 1.398 . S
C1306 C1307 1.391 . S
C1307 H1295 0.950 . S
C1307 C1303 1.393 . S
C1307 C1306 1.391 . S
H1308 C1316 0.950 . S
H1309 C1321 0.950 . S
H1310 C1318 0.950 . S
H1311 C1320 0.950 . S
H1312 C1322 0.950 . S
H1313 C1324 0.950 . S
H1314 C1326 0.950 . S
H1315 C1327 0.950 . S
C1316 H1308 0.950 . S
C1316 C1317 1.386 . S
C1316 C1318 1.391 . S
C1317 C1316 1.386 . S
C1317 C1321 1.393 . S
C1318 H1310 0.950 . S
C1318 C1316 1.391 . S
C1318 C1319 1.400 . S
C1319 C1318 1.400 . S
C1319 C1320 1.398 . S
C1319 C1325 1.491 . S
C1320 H1311 0.950 . S
C1320 C1319 1.398 . S
C1320 C1321 1.391 . S
C1321 H1309 0.950 . S
C1321 C1317 1.393 . S
C1321 C1320 1.391 . S
C1322 H1312 0.950 . S
C1322 C1323 1.386 . S
C1322 C1324 1.391 . S
C1323 C1322 1.386 . S
C1323 C1327 1.393 . S
C1324 H1313 0.950 . S
C1324 C1322 1.391 . S
C1324 C1325 1.400 . S
C1325 C1319 1.491 . S
C1325 C1324 1.400 . S
C1325 C1326 1.398 . S
C1326 H1314 0.950 . S
C1326 C1325 1.398 . S
C1326 C1327 1.391 . S
C1327 H1315 0.950 . S
C1327 C1323 1.393 . S
C1327 C1326 1.391 . S
H1328 C1336 0.950 . S
H1329 C1341 0.950 . S
H1330 C1338 0.950 . S
H1331 C1340 0.950 . S
H1332 C1342 0.950 . S
H1333 C1344 0.950 . S
H1334 C1346 0.950 . S
H1335 C1347 0.950 . S
C1336 H1328 0.950 . S
C1336 C1337 1.386 . S
C1336 C1338 1.391 . S
C1337 C1336 1.386 . S
C1337 C1341 1.393 . S
C1338 H1330 0.950 . S
C1338 C1336 1.391 . S
C1338 C1339 1.400 . S
C1339 C1338 1.400 . S
C1339 C1340 1.398 . S
C1339 C1345 1.491 . S
C1340 H1331 0.950 . S
C1340 C1339 1.398 . S
C1340 C1341 1.391 . S
C1341 H1329 0.950 . S
C1341 C1337 1.393 . S
C1341 C1340 1.391 . S
C1342 H1332 0.950 . S
C1342 C1343 1.386 . S
C1342 C1344 1.391 . S
C1343 C1342 1.386 . S
C1343 C1347 1.393 . S
C1344 H1333 0.950 . S
C1344 C1342 1.391 . S
C1344 C1345 1.400 . S
C1345 C1339 1.491 . S
C1345 C1344 1.400 . S
C1345 C1346 1.398 . S
C1346 H1334 0.950 . S
C1346 C1345 1.398 . S
C1346 C1347 1.391 . S
C1347 H1335 0.950 . S
C1347 C1343 1.393 . S
C1347 C1346 1.391 . S
H1348 C1356 0.950 . S
H1349 C1361 0.950 . S
H1350 C1358 0.950 . S
H1351 C1360 0.950 . S
H1352 C1362 0.950 . S
H1353 C1364 0.950 . S
H1354 C1366 0.950 . S
H1355 C1367 0.950 . S
C1356 H1348 0.950 . S
C1356 C1357 1.386 . S
C1356 C1358 1.391 . S
C1357 C1356 1.386 . S
C1357 C1361 1.393 . S
C1358 H1350 0.950 . S
C1358 C1356 1.391 . S
C1358 C1359 1.400 . S
C1359 C1358 1.400 . S
C1359 C1360 1.398 . S
C1359 C1365 1.491 . S
C1360 H1351 0.950 . S
C1360 C1359 1.398 . S
C1360 C1361 1.391 . S
C1361 H1349 0.950 . S
C1361 C1357 1.393 . S
C1361 C1360 1.391 . S
C1362 H1352 0.950 . S
C1362 C1363 1.386 . S
C1362 C1364 1.391 . S
C1363 C1362 1.386 . S
C1363 C1367 1.393 . S
C1364 H1353 0.950 . S
C1364 C1362 1.391 . S
C1364 C1365 1.400 . S
C1365 C1359 1.491 . S
C1365 C1364 1.400 . S
C1365 C1366 1.398 . S
C1366 H1354 0.950 . S
C1366 C1365 1.398 . S
C1366 C1367 1.391 . S
C1367 H1355 0.950 . S
C1367 C1363 1.393 . S
C1367 C1366 1.391 . S
H1368 C1376 0.950 . S
H1369 C1381 0.950 . S
H1370 C1378 0.950 . S
H1371 C1380 0.950 1_554 S
H1372 C1382 0.950 . S
H1373 C1384 0.950 . S
H1374 C1386 0.950 1_556 S
H1375 C1387 0.950 . S
C1376 H1368 0.950 . S
C1376 C1377 1.386 . S
C1376 C1378 1.391 . S
C1377 C1376 1.386 . S
C1377 C1381 1.393 . S
C1378 H1370 0.950 . S
C1378 C1376 1.391 . S
C1378 C1379 1.400 . S
C1379 C1378 1.400 . S
C1379 C1380 1.398 . S
C1379 C1385 1.491 1_566 S
C1380 H1371 0.950 1_556 S
C1380 C1379 1.398 . S
C1380 C1381 1.391 . S
C1381 H1369 0.950 . S
C1381 C1377 1.393 . S
C1381 C1380 1.391 . S
C1382 H1372 0.950 . S
C1382 C1383 1.386 . S
C1382 C1384 1.391 . S
C1383 C1382 1.386 . S
C1383 C1387 1.393 . S
C1384 H1373 0.950 . S
C1384 C1382 1.391 . S
C1384 C1385 1.400 . S
C1385 C1379 1.491 1_544 S
C1385 C1384 1.400 . S
C1385 C1386 1.398 . S
C1386 H1374 0.950 1_554 S
C1386 C1385 1.398 . S
C1386 C1387 1.391 . S
C1387 H1375 0.950 . S
C1387 C1383 1.393 . S
C1387 C1386 1.391 . S
H1388 C1396 0.950 . S
H1389 C1401 0.950 . S
H1390 C1398 0.950 . S
H1391 C1400 0.950 . S
H1392 C1402 0.950 . S
H1393 C1404 0.950 . S
H1394 C1406 0.950 . S
H1395 C1407 0.950 . S
C1396 H1388 0.950 . S
C1396 C1397 1.386 . S
C1396 C1398 1.391 . S
C1397 C1396 1.386 . S
C1397 C1401 1.393 . S
C1398 H1390 0.950 . S
C1398 C1396 1.391 . S
C1398 C1399 1.400 . S
C1399 C1398 1.400 . S
C1399 C1400 1.398 . S
C1399 C1405 1.491 . S
C1400 H1391 0.950 . S
C1400 C1399 1.398 . S
C1400 C1401 1.391 . S
C1401 H1389 0.950 . S
C1401 C1397 1.393 . S
C1401 C1400 1.391 . S
C1402 H1392 0.950 . S
C1402 C1403 1.386 . S
C1402 C1404 1.391 . S
C1403 C1402 1.386 . S
C1403 C1407 1.393 . S
C1404 H1393 0.950 . S
C1404 C1402 1.391 . S
C1404 C1405 1.400 . S
C1405 C1399 1.491 . S
C1405 C1404 1.400 . S
C1405 C1406 1.398 . S
C1406 H1394 0.950 . S
C1406 C1405 1.398 . S
C1406 C1407 1.391 . S
C1407 H1395 0.950 . S
C1407 C1403 1.393 . S
C1407 C1406 1.391 . S
H1408 C1416 0.950 . S
H1409 C1421 0.950 . S
H1410 C1418 0.922 1_554 S
H1411 C1420 0.950 1_655 S
H1412 C1422 0.950 . S
H1413 C1424 0.922 1_556 S
H1414 C1426 0.950 1_455 S
H1415 C1427 0.950 . S
C1416 H1408 0.950 . S
C1416 C1417 1.386 . S
C1416 C1418 1.410 . S
C1417 C1416 1.386 . S
C1417 C1421 1.393 . S
C1418 H1410 0.922 1_556 S
C1418 C1416 1.410 . S
C1418 C1419 1.410 . S
C1419 C1418 1.410 . S
C1419 C1420 1.398 . S
C1419 C1425 1.491 1_456 S
C1420 H1411 0.950 1_455 S
C1420 C1419 1.398 . S
C1420 C1421 1.391 . S
C1421 H1409 0.950 . S
C1421 C1417 1.393 . S
C1421 C1420 1.391 . S
C1422 H1412 0.950 . S
C1422 C1423 1.386 . S
C1422 C1424 1.410 . S
C1423 C1422 1.386 . S
C1423 C1427 1.393 . S
C1424 H1413 0.922 1_554 S
C1424 C1422 1.410 . S
C1424 C1425 1.410 . S
C1425 C1419 1.491 1_654 S
C1425 C1424 1.410 . S
C1425 C1426 1.398 . S
C1426 H1414 0.950 1_655 S
C1426 C1425 1.398 . S
C1426 C1427 1.391 . S
C1427 H1415 0.950 . S
C1427 C1423 1.393 . S
C1427 C1426 1.391 . S
H1428 C1436 0.950 . S
H1429 C1441 0.950 . S
H1430 C1438 0.950 . S
H1431 C1440 0.950 . S
H1432 C1442 0.950 . S
H1433 C1444 0.950 . S
H1434 C1446 0.950 . S
H1435 C1447 0.950 . S
C1436 H1428 0.950 . S
C1436 C1437 1.386 . S
C1436 C1438 1.391 . S
C1437 C1436 1.386 . S
C1437 C1441 1.393 . S
C1438 H1430 0.950 . S
C1438 C1436 1.391 . S
C1438 C1439 1.400 . S
C1439 C1438 1.400 . S
C1439 C1440 1.398 . S
C1439 C1445 1.491 1_545 S
C1440 H1431 0.950 . S
C1440 C1439 1.398 . S
C1440 C1441 1.391 . S
C1441 H1429 0.950 . S
C1441 C1437 1.393 . S
C1441 C1440 1.391 . S
C1442 H1432 0.950 . S
C1442 C1443 1.386 . S
C1442 C1444 1.391 . S
C1443 C1442 1.386 . S
C1443 C1447 1.393 . S
C1444 H1433 0.950 . S
C1444 C1442 1.391 . S
C1444 C1445 1.400 . S
C1445 C1439 1.491 1_565 S
C1445 C1444 1.400 . S
C1445 C1446 1.398 . S
C1446 H1434 0.950 . S
C1446 C1445 1.398 . S
C1446 C1447 1.391 . S
C1447 H1435 0.950 . S
C1447 C1443 1.393 . S
C1447 C1446 1.391 . S
H1448 C1456 0.950 . S
H1449 C1461 0.950 . S
H1450 C1458 0.950 . S
H1451 C1460 0.954 1_556 S
H1452 C1462 0.950 . S
H1453 C1464 0.950 . S
H1454 C1466 0.954 1_554 S
H1455 C1467 0.950 . S
C1456 H1448 0.950 . S
C1456 C1457 1.386 . S
C1456 C1458 1.391 . S
C1457 C1456 1.386 . S
C1457 C1461 1.393 . S
C1458 H1450 0.950 . S
C1458 C1456 1.391 . S
C1458 C1459 1.400 . S
C1459 C1458 1.400 . S
C1459 C1460 1.397 . S
C1459 C1465 1.491 1_554 S
C1460 H1451 0.954 1_554 S
C1460 C1459 1.397 . S
C1460 C1461 1.388 . S
C1461 H1449 0.950 . S
C1461 C1457 1.393 . S
C1461 C1460 1.388 . S
C1462 H1452 0.950 . S
C1462 C1463 1.386 . S
C1462 C1464 1.391 . S
C1463 C1462 1.386 . S
C1463 C1467 1.393 . S
C1464 H1453 0.950 . S
C1464 C1462 1.391 . S
C1464 C1465 1.400 . S
C1465 C1459 1.491 1_556 S
C1465 C1464 1.400 . S
C1465 C1466 1.397 . S
C1466 H1454 0.954 1_556 S
C1466 C1465 1.397 . S
C1466 C1467 1.388 . S
C1467 H1455 0.950 . S
C1467 C1463 1.393 . S
C1467 C1466 1.388 . S
H1468 C1476 0.950 . S
H1469 C1481 0.950 . S
H1470 C1478 0.950 . S
H1471 C1480 0.950 . S
H1472 C1482 0.950 . S
H1473 C1484 0.950 . S
H1474 C1486 0.950 . S
H1475 C1487 0.950 . S
C1476 H1468 0.950 . S
C1476 C1477 1.386 . S
C1476 C1478 1.391 . S
C1477 C1476 1.386 . S
C1477 C1481 1.393 . S
C1478 H1470 0.950 . S
C1478 C1476 1.391 . S
C1478 C1479 1.400 . S
C1479 C1478 1.400 . S
C1479 C1480 1.398 . S
C1479 C1485 1.491 1_455 S
C1480 H1471 0.950 . S
C1480 C1479 1.398 . S
C1480 C1481 1.391 . S
C1481 H1469 0.950 . S
C1481 C1477 1.393 . S
C1481 C1480 1.391 . S
C1482 H1472 0.950 . S
C1482 C1483 1.386 . S
C1482 C1484 1.391 . S
C1483 C1482 1.386 . S
C1483 C1487 1.393 . S
C1484 H1473 0.950 . S
C1484 C1482 1.391 . S
C1484 C1485 1.400 . S
C1485 C1479 1.491 1_655 S
C1485 C1484 1.400 . S
C1485 C1486 1.398 . S
C1486 H1474 0.950 . S
C1486 C1485 1.398 . S
C1486 C1487 1.391 . S
C1487 H1475 0.950 . S
C1487 C1483 1.393 . S
C1487 C1486 1.391 . S
H1488 C1496 0.950 . S
H1489 C1501 0.950 . S
H1490 C1498 0.950 . S
H1491 C1500 0.950 . S
H1492 C1502 0.950 . S
H1493 C1504 0.950 . S
H1494 C1506 0.950 . S
H1495 C1507 0.950 . S
C1496 H1488 0.950 . S
C1496 C1497 1.386 . S
C1496 C1498 1.391 . S
C1497 C1496 1.386 . S
C1497 C1501 1.393 . S
C1498 H1490 0.950 . S
C1498 C1496 1.391 . S
C1498 C1499 1.400 . S
C1499 C1498 1.400 . S
C1499 C1500 1.398 . S
C1499 C1505 1.491 . S
C1500 H1491 0.950 . S
C1500 C1499 1.398 . S
C1500 C1501 1.391 . S
C1501 H1489 0.950 . S
C1501 C1497 1.393 . S
C1501 C1500 1.391 . S
C1502 H1492 0.950 . S
C1502 C1503 1.386 . S
C1502 C1504 1.391 . S
C1503 C1502 1.386 . S
C1503 C1507 1.393 . S
C1504 H1493 0.950 . S
C1504 C1502 1.391 . S
C1504 C1505 1.400 . S
C1505 C1499 1.491 . S
C1505 C1504 1.400 . S
C1505 C1506 1.398 . S
C1506 H1494 0.950 . S
C1506 C1505 1.398 . S
C1506 C1507 1.391 . S
C1507 H1495 0.950 . S
C1507 C1503 1.393 . S
C1507 C1506 1.391 . S
H1508 C1516 0.950 . S
H1509 C1521 0.950 . S
H1510 C1518 0.950 . S
H1511 C1520 0.950 . S
H1512 C1522 0.950 . S
H1513 C1524 0.950 . S
H1514 C1526 0.950 . S
H1515 C1527 0.950 . S
C1516 H1508 0.950 . S
C1516 C1517 1.386 . S
C1516 C1518 1.391 . S
C1517 C1516 1.386 . S
C1517 C1521 1.393 . S
C1518 H1510 0.950 . S
C1518 C1516 1.391 . S
C1518 C1519 1.400 . S
C1519 C1518 1.400 . S
C1519 C1520 1.398 . S
C1519 C1525 1.491 . S
C1520 H1511 0.950 . S
C1520 C1519 1.398 . S
C1520 C1521 1.391 . S
C1521 H1509 0.950 . S
C1521 C1517 1.393 . S
C1521 C1520 1.391 . S
C1522 H1512 0.950 . S
C1522 C1523 1.386 . S
C1522 C1524 1.391 . S
C1523 C1522 1.386 . S
C1523 C1527 1.393 . S
C1524 H1513 0.950 . S
C1524 C1522 1.391 . S
C1524 C1525 1.400 . S
C1525 C1519 1.491 . S
C1525 C1524 1.400 . S
C1525 C1526 1.398 . S
C1526 H1514 0.950 . S
C1526 C1525 1.398 . S
C1526 C1527 1.391 . S
C1527 H1515 0.950 . S
C1527 C1523 1.393 . S
C1527 C1526 1.391 . S
H1528 C1536 0.950 . S
H1529 C1541 0.950 . S
H1530 C1538 0.950 . S
H1531 C1540 0.950 . S
H1532 C1542 0.950 . S
H1533 C1544 0.950 . S
H1534 C1546 0.950 . S
H1535 C1547 0.950 . S
C1536 H1528 0.950 . S
C1536 C1537 1.386 . S
C1536 C1538 1.391 . S
C1537 C1536 1.386 . S
C1537 C1541 1.393 . S
C1538 H1530 0.950 . S
C1538 C1536 1.391 . S
C1538 C1539 1.400 . S
C1539 C1538 1.400 . S
C1539 C1540 1.398 . S
C1539 C1545 1.491 . S
C1540 H1531 0.950 . S
C1540 C1539 1.398 . S
C1540 C1541 1.391 . S
C1541 H1529 0.950 . S
C1541 C1537 1.393 . S
C1541 C1540 1.391 . S
C1542 H1532 0.950 . S
C1542 C1543 1.386 . S
C1542 C1544 1.391 . S
C1543 C1542 1.386 . S
C1543 C1547 1.393 . S
C1544 H1533 0.950 . S
C1544 C1542 1.391 . S
C1544 C1545 1.400 . S
C1545 C1539 1.491 . S
C1545 C1544 1.400 . S
C1545 C1546 1.398 . S
C1546 H1534 0.950 . S
C1546 C1545 1.398 . S
C1546 C1547 1.391 . S
C1547 H1535 0.950 . S
C1547 C1543 1.393 . S
C1547 C1546 1.391 . S
H1548 C1556 0.950 . S
H1549 C1561 0.950 . S
H1550 C1558 0.950 . S
H1551 C1560 0.950 . S
H1552 C1562 0.950 . S
H1553 C1564 0.950 . S
H1554 C1566 0.950 . S
H1555 C1567 0.950 . S
C1556 H1548 0.950 . S
C1556 C1557 1.386 . S
C1556 C1558 1.391 . S
C1557 C1556 1.386 . S
C1557 C1561 1.393 . S
C1558 H1550 0.950 . S
C1558 C1556 1.391 . S
C1558 C1559 1.400 . S
C1559 C1558 1.400 . S
C1559 C1560 1.398 . S
C1559 C1565 1.491 . S
C1560 H1551 0.950 . S
C1560 C1559 1.398 . S
C1560 C1561 1.391 . S
C1561 H1549 0.950 . S
C1561 C1557 1.393 . S
C1561 C1560 1.391 . S
C1562 H1552 0.950 . S
C1562 C1563 1.386 . S
C1562 C1564 1.391 . S
C1563 C1562 1.386 . S
C1563 C1567 1.393 . S
C1564 H1553 0.950 . S
C1564 C1562 1.391 . S
C1564 C1565 1.400 . S
C1565 C1559 1.491 . S
C1565 C1564 1.400 . S
C1565 C1566 1.398 . S
C1566 H1554 0.950 . S
C1566 C1565 1.398 . S
C1566 C1567 1.391 . S
C1567 H1555 0.950 . S
C1567 C1563 1.393 . S
C1567 C1566 1.391 . S
H1568 C1576 0.950 . S
H1569 C1581 0.950 . S
H1570 C1578 0.950 . S
H1571 C1580 0.950 . S
H1572 C1582 0.950 . S
H1573 C1584 0.950 . S
H1574 C1586 0.950 . S
H1575 C1587 0.950 . S
C1576 H1568 0.950 . S
C1576 C1577 1.386 . S
C1576 C1578 1.391 . S
C1577 C1576 1.386 . S
C1577 C1581 1.393 . S
C1578 H1570 0.950 . S
C1578 C1576 1.391 . S
C1578 C1579 1.400 . S
C1579 C1578 1.400 . S
C1579 C1580 1.398 . S
C1579 C1585 1.491 . S
C1580 H1571 0.950 . S
C1580 C1579 1.398 . S
C1580 C1581 1.391 . S
C1581 H1569 0.950 . S
C1581 C1577 1.393 . S
C1581 C1580 1.391 . S
C1582 H1572 0.950 . S
C1582 C1583 1.386 . S
C1582 C1584 1.391 . S
C1583 C1582 1.386 . S
C1583 C1587 1.393 . S
C1584 H1573 0.950 . S
C1584 C1582 1.391 . S
C1584 C1585 1.400 . S
C1585 C1579 1.491 . S
C1585 C1584 1.400 . S
C1585 C1586 1.398 . S
C1586 H1574 0.950 . S
C1586 C1585 1.398 . S
C1586 C1587 1.391 . S
C1587 H1575 0.950 . S
C1587 C1583 1.393 . S
C1587 C1586 1.391 . S
H1588 C1596 0.950 . S
H1589 C1601 0.950 . S
H1590 C1598 0.950 . S
H1591 C1600 0.950 . S
H1592 C1602 0.950 . S
H1593 C1604 0.950 . S
H1594 C1606 0.950 . S
H1595 C1607 0.950 . S
C1596 H1588 0.950 . S
C1596 C1597 1.386 . S
C1596 C1598 1.391 . S
C1597 C1596 1.386 . S
C1597 C1601 1.393 . S
C1598 H1590 0.950 . S
C1598 C1596 1.391 . S
C1598 C1599 1.400 . S
C1599 C1598 1.400 . S
C1599 C1600 1.398 . S
C1599 C1605 1.491 . S
C1600 H1591 0.950 . S
C1600 C1599 1.398 . S
C1600 C1601 1.391 . S
C1601 H1589 0.950 . S
C1601 C1597 1.393 . S
C1601 C1600 1.391 . S
C1602 H1592 0.950 . S
C1602 C1603 1.386 . S
C1602 C1604 1.391 . S
C1603 C1602 1.386 . S
C1603 C1607 1.393 . S
C1604 H1593 0.950 . S
C1604 C1602 1.391 . S
C1604 C1605 1.400 . S
C1605 C1599 1.491 . S
C1605 C1604 1.400 . S
C1605 C1606 1.398 . S
C1606 H1594 0.950 . S
C1606 C1605 1.398 . S
C1606 C1607 1.391 . S
C1607 H1595 0.950 . S
C1607 C1603 1.393 . S
C1607 C1606 1.391 . S
H1608 C1616 0.950 . S
H1609 C1621 0.950 . S
H1610 C1618 0.950 . S
H1611 C1620 0.950 . S
H1612 C1622 0.950 . S
H1613 C1624 0.950 . S
H1614 C1626 0.950 . S
H1615 C1627 0.950 . S
C1616 H1608 0.950 . S
C1616 C1617 1.386 . S
C1616 C1618 1.391 . S
C1617 C1616 1.386 . S
C1617 C1621 1.393 . S
C1618 H1610 0.950 . S
C1618 C1616 1.391 . S
C1618 C1619 1.400 . S
C1619 C1618 1.400 . S
C1619 C1620 1.398 . S
C1619 C1625 1.491 . S
C1620 H1611 0.950 . S
C1620 C1619 1.398 . S
C1620 C1621 1.391 . S
C1621 H1609 0.950 . S
C1621 C1617 1.393 . S
C1621 C1620 1.391 . S
C1622 H1612 0.950 . S
C1622 C1623 1.386 . S
C1622 C1624 1.391 . S
C1623 C1622 1.386 . S
C1623 C1627 1.393 . S
C1624 H1613 0.950 . S
C1624 C1622 1.391 . S
C1624 C1625 1.400 . S
C1625 C1619 1.491 . S
C1625 C1624 1.400 . S
C1625 C1626 1.398 . S
C1626 H1614 0.950 . S
C1626 C1625 1.398 . S
C1626 C1627 1.391 . S
C1627 H1615 0.950 . S
C1627 C1623 1.393 . S
C1627 C1626 1.391 . S
H1628 C1636 0.950 . S
H1629 C1641 0.950 . S
H1630 C1638 0.950 . S
H1631 C1640 0.950 . S
H1632 C1642 0.950 . S
H1633 C1644 0.950 . S
H1634 C1646 0.950 . S
H1635 C1647 0.950 . S
C1636 H1628 0.950 . S
C1636 C1637 1.386 . S
C1636 C1638 1.391 . S
C1637 C1636 1.386 . S
C1637 C1641 1.393 . S
C1638 H1630 0.950 . S
C1638 C1636 1.391 . S
C1638 C1639 1.400 . S
C1639 C1638 1.400 . S
C1639 C1640 1.398 . S
C1639 C1645 1.491 . S
C1640 H1631 0.950 . S
C1640 C1639 1.398 . S
C1640 C1641 1.391 . S
C1641 H1629 0.950 . S
C1641 C1637 1.393 . S
C1641 C1640 1.391 . S
C1642 H1632 0.950 . S
C1642 C1643 1.386 . S
C1642 C1644 1.391 . S
C1643 C1642 1.386 . S
C1643 C1647 1.393 . S
C1644 H1633 0.950 . S
C1644 C1642 1.391 . S
C1644 C1645 1.400 . S
C1645 C1639 1.491 . S
C1645 C1644 1.400 . S
C1645 C1646 1.398 . S
C1646 H1634 0.950 . S
C1646 C1645 1.398 . S
C1646 C1647 1.391 . S
C1647 H1635 0.950 . S
C1647 C1643 1.393 . S
C1647 C1646 1.391 . S
H1648 C1656 0.950 . S
H1649 C1661 0.950 . S
H1650 C1658 0.950 . S
H1651 C1660 0.950 . S
H1652 C1662 0.950 . S
H1653 C1664 0.950 . S
H1654 C1666 0.950 . S
H1655 C1667 0.950 . S
C1656 H1648 0.950 . S
C1656 C1657 1.386 . S
C1656 C1658 1.391 . S
C1657 C1656 1.386 . S
C1657 C1661 1.393 . S
C1658 H1650 0.950 . S
C1658 C1656 1.391 . S
C1658 C1659 1.400 . S
C1659 C1658 1.400 . S
C1659 C1660 1.398 . S
C1659 C1665 1.491 . S
C1660 H1651 0.950 . S
C1660 C1659 1.398 . S
C1660 C1661 1.391 . S
C1661 H1649 0.950 . S
C1661 C1657 1.393 . S
C1661 C1660 1.391 . S
C1662 H1652 0.950 . S
C1662 C1663 1.386 . S
C1662 C1664 1.391 . S
C1663 C1662 1.386 . S
C1663 C1667 1.393 . S
C1664 H1653 0.950 . S
C1664 C1662 1.391 . S
C1664 C1665 1.400 . S
C1665 C1659 1.491 . S
C1665 C1664 1.400 . S
C1665 C1666 1.398 . S
C1666 H1654 0.950 . S
C1666 C1665 1.398 . S
C1666 C1667 1.391 . S
C1667 H1655 0.950 . S
C1667 C1663 1.393 . S
C1667 C1666 1.391 . S
H1668 C1676 0.950 . S
H1669 C1681 0.950 . S
H1670 C1678 0.950 . S
H1671 C1680 0.950 . S
H1672 C1682 0.950 . S
H1673 C1684 0.950 . S
H1674 C1686 0.950 . S
H1675 C1687 0.950 . S
C1676 H1668 0.950 . S
C1676 C1677 1.386 . S
C1676 C1678 1.391 . S
C1677 C1676 1.386 . S
C1677 C1681 1.393 . S
C1678 H1670 0.950 . S
C1678 C1676 1.391 . S
C1678 C1679 1.400 . S
C1679 C1678 1.400 . S
C1679 C1680 1.398 . S
C1679 C1685 1.491 . S
C1680 H1671 0.950 . S
C1680 C1679 1.398 . S
C1680 C1681 1.391 . S
C1681 H1669 0.950 . S
C1681 C1677 1.393 . S
C1681 C1680 1.391 . S
C1682 H1672 0.950 . S
C1682 C1683 1.386 . S
C1682 C1684 1.391 . S
C1683 C1682 1.386 . S
C1683 C1687 1.393 . S
C1684 H1673 0.950 . S
C1684 C1682 1.391 . S
C1684 C1685 1.400 . S
C1685 C1679 1.491 . S
C1685 C1684 1.400 . S
C1685 C1686 1.398 . S
C1686 H1674 0.950 . S
C1686 C1685 1.398 . S
C1686 C1687 1.391 . S
C1687 H1675 0.950 . S
C1687 C1683 1.393 . S
C1687 C1686 1.391 . S
H1688 C1696 0.950 . S
H1689 C1701 0.950 . S
H1690 C1698 0.950 . S
H1691 C1700 0.950 . S
H1692 C1702 0.950 . S
H1693 C1704 0.950 . S
H1694 C1706 0.950 . S
H1695 C1707 0.950 . S
C1696 H1688 0.950 . S
C1696 C1697 1.386 . S
C1696 C1698 1.391 . S
C1697 C1696 1.386 . S
C1697 C1701 1.393 . S
C1698 H1690 0.950 . S
C1698 C1696 1.391 . S
C1698 C1699 1.400 . S
C1699 C1698 1.400 . S
C1699 C1700 1.398 . S
C1699 C1705 1.491 . S
C1700 H1691 0.950 . S
C1700 C1699 1.398 . S
C1700 C1701 1.391 . S
C1701 H1689 0.950 . S
C1701 C1697 1.393 . S
C1701 C1700 1.391 . S
C1702 H1692 0.950 . S
C1702 C1703 1.386 . S
C1702 C1704 1.391 . S
C1703 C1702 1.386 . S
C1703 C1707 1.393 . S
C1704 H1693 0.950 . S
C1704 C1702 1.391 . S
C1704 C1705 1.400 . S
C1705 C1699 1.491 . S
C1705 C1704 1.400 . S
C1705 C1706 1.398 . S
C1706 H1694 0.950 . S
C1706 C1705 1.398 . S
C1706 C1707 1.391 . S
C1707 H1695 0.950 . S
C1707 C1703 1.393 . S
C1707 C1706 1.391 . S
H1708 C1716 0.950 . S
H1709 C1721 0.950 . S
H1710 C1718 0.950 . S
H1711 C1720 0.950 . S
H1712 C1722 0.950 . S
H1713 C1724 0.950 . S
H1714 C1726 0.950 . S
H1715 C1727 0.950 . S
C1716 H1708 0.950 . S
C1716 C1717 1.386 . S
C1716 C1718 1.391 . S
C1717 C1716 1.386 . S
C1717 C1721 1.393 . S
C1718 H1710 0.950 . S
C1718 C1716 1.391 . S
C1718 C1719 1.400 . S
C1719 C1718 1.400 . S
C1719 C1720 1.398 . S
C1719 C1725 1.491 . S
C1720 H1711 0.950 . S
C1720 C1719 1.398 . S
C1720 C1721 1.391 . S
C1721 H1709 0.950 . S
C1721 C1717 1.393 . S
C1721 C1720 1.391 . S
C1722 H1712 0.950 . S
C1722 C1723 1.386 . S
C1722 C1724 1.391 . S
C1723 C1722 1.386 . S
C1723 C1727 1.393 . S
C1724 H1713 0.950 . S
C1724 C1722 1.391 . S
C1724 C1725 1.400 . S
C1725 C1719 1.491 . S
C1725 C1724 1.400 . S
C1725 C1726 1.398 . S
C1726 H1714 0.950 . S
C1726 C1725 1.398 . S
C1726 C1727 1.391 . S
C1727 H1715 0.950 . S
C1727 C1723 1.393 . S
C1727 C1726 1.391 . S
C1017 C226 1.140 . S
C1023 C55 1.269 . S
C1037 C322 1.099 . S
C1043 C151 1.260 . S
C1057 C223 1.258 . S
C1063 C394 1.088 . S
C1077 C319 1.259 . S
C1083 C490 1.095 . S
C1097 C58 1.143 . S
C1103 C391 1.269 . S
C1117 C154 1.096 . S
C1123 C487 1.260 . S
C1137 C910 1.139 . S
C1143 C571 1.268 . S
C1157 C643 1.269 . S
C1163 C982 1.142 . S
C1177 C739 1.269 . S
C1183 C574 1.140 . S
C1197 C811 1.269 . S
C1203 C646 1.144 . S
C1217 C907 1.261 . S
C1223 C742 1.101 . S
C1237 C814 1.143 . S
C1243 C979 1.269 . S
C1257 C320 1.931 . S
C1263 C56 1.919 . S
C1277 C152 1.919 . S
C1283 C392 1.931 . S
C1297 C224 1.922 . S
C1303 C488 1.927 . S
C1317 C572 1.936 . S
C1323 C812 1.914 . S
C1337 C644 1.914 . S
C1343 C908 1.936 . S
C1357 C740 1.925 . S
C1363 C980 1.925 . S
C1377 C656 2.167 . S
C1383 C68 2.163 . S
C1397 C140 2.161 . S
C1403 C728 2.154 . S
C1417 C824 2.155 . S
C1423 C236 2.162 . S
C1437 C308 2.165 . S
C1443 C896 2.167 . S
C1457 C404 2.167 . S
C1463 C992 2.160 . S
C1477 C560 2.158 . S
C1483 C476 2.155 . S
C1497 C238 1.236 . S
C1503 C67 1.412 . S
C1517 C139 1.416 . S
C1523 C310 1.235 . S
C1537 C235 1.420 . S
C1543 C406 1.277 . S
C1557 C307 1.417 . S
C1563 C478 1.270 . S
C1577 C70 1.241 . S
C1583 C403 1.412 . S
C1597 C142 1.279 . S
C1603 C475 1.421 . S
C1617 C898 1.249 . S
C1623 C559 1.412 . S
C1637 C655 1.412 . S
C1643 C994 1.235 . S
C1657 C727 1.412 . S
C1663 C562 1.238 . S
C1677 C658 1.246 . S
C1683 C823 1.412 . S
C1697 C895 1.413 . S
C1703 C730 1.251 . S
C1717 C991 1.422 . S
C1723 C826 1.280 . S
