# Generated by pormake.
# Topology neb, (4)-cn, num edge types: 1
# Building blocks:
#     Node 0, Type 0, BuildingBlock: QUQFOY_clean_sbu_1, # of connection points: 4
#     Node 1, Type 0, BuildingBlock: QUQFOY_clean_sbu_1, # of connection points: 4
#     Node 2, Type 0, BuildingBlock: QUQFOY_clean_sbu_1, # of connection points: 4
#     Node 3, Type 0, BuildingBlock: QUQFOY_clean_sbu_1, # of connection points: 4
#     Node 4, Type 0, BuildingBlock: QUQFOY_clean_sbu_1, # of connection points: 4
#     Node 5, Type 0, BuildingBlock: QUQFOY_clean_sbu_1, # of connection points: 4
#     Node 6, Type 0, BuildingBlock: QUQFOY_clean_sbu_1, # of connection points: 4
#     Node 7, Type 0, BuildingBlock: QUQFOY_clean_sbu_1, # of connection points: 4
#     Node 8, Type 0, BuildingBlock: QUQFOY_clean_sbu_1, # of connection points: 4
#     Node 9, Type 0, BuildingBlock: QUQFOY_clean_sbu_1, # of connection points: 4
#     Node 10, Type 0, BuildingBlock: QUQFOY_clean_sbu_1, # of connection points: 4
#     Node 11, Type 0, BuildingBlock: QUQFOY_clean_sbu_1, # of connection points: 4
#     Node 12, Type 0, BuildingBlock: QUQFOY_clean_sbu_1, # of connection points: 4
#     Node 13, Type 0, BuildingBlock: QUQFOY_clean_sbu_1, # of connection points: 4
#     Node 14, Type 0, BuildingBlock: QUQFOY_clean_sbu_1, # of connection points: 4
#     Node 15, Type 0, BuildingBlock: QUQFOY_clean_sbu_1, # of connection points: 4
#     Edge 16, Type (0, 0), BuildingBlock: OJICUG_clean_linker_0, # of connection points: 2
#     Edge 17, Type (0, 0), BuildingBlock: OJICUG_clean_linker_0, # of connection points: 2
#     Edge 18, Type (0, 0), BuildingBlock: OJICUG_clean_linker_0, # of connection points: 2
#     Edge 19, Type (0, 0), BuildingBlock: OJICUG_clean_linker_0, # of connection points: 2
#     Edge 20, Type (0, 0), BuildingBlock: OJICUG_clean_linker_0, # of connection points: 2
#     Edge 21, Type (0, 0), BuildingBlock: OJICUG_clean_linker_0, # of connection points: 2
#     Edge 22, Type (0, 0), BuildingBlock: OJICUG_clean_linker_0, # of connection points: 2
#     Edge 23, Type (0, 0), BuildingBlock: OJICUG_clean_linker_0, # of connection points: 2
#     Edge 24, Type (0, 0), BuildingBlock: OJICUG_clean_linker_0, # of connection points: 2
#     Edge 25, Type (0, 0), BuildingBlock: OJICUG_clean_linker_0, # of connection points: 2
#     Edge 26, Type (0, 0), BuildingBlock: OJICUG_clean_linker_0, # of connection points: 2
#     Edge 27, Type (0, 0), BuildingBlock: OJICUG_clean_linker_0, # of connection points: 2
#     Edge 28, Type (0, 0), BuildingBlock: OJICUG_clean_linker_0, # of connection points: 2
#     Edge 29, Type (0, 0), BuildingBlock: OJICUG_clean_linker_0, # of connection points: 2
#     Edge 30, Type (0, 0), BuildingBlock: OJICUG_clean_linker_0, # of connection points: 2
#     Edge 31, Type (0, 0), BuildingBlock: OJICUG_clean_linker_0, # of connection points: 2
#     Edge 32, Type (0, 0), BuildingBlock: OJICUG_clean_linker_0, # of connection points: 2
#     Edge 33, Type (0, 0), BuildingBlock: OJICUG_clean_linker_0, # of connection points: 2
#     Edge 34, Type (0, 0), BuildingBlock: OJICUG_clean_linker_0, # of connection points: 2
#     Edge 35, Type (0, 0), BuildingBlock: OJICUG_clean_linker_0, # of connection points: 2
#     Edge 36, Type (0, 0), BuildingBlock: OJICUG_clean_linker_0, # of connection points: 2
#     Edge 37, Type (0, 0), BuildingBlock: OJICUG_clean_linker_0, # of connection points: 2
#     Edge 38, Type (0, 0), BuildingBlock: OJICUG_clean_linker_0, # of connection points: 2
#     Edge 39, Type (0, 0), BuildingBlock: OJICUG_clean_linker_0, # of connection points: 2
#     Edge 40, Type (0, 0), BuildingBlock: OJICUG_clean_linker_0, # of connection points: 2
#     Edge 41, Type (0, 0), BuildingBlock: OJICUG_clean_linker_0, # of connection points: 2
#     Edge 42, Type (0, 0), BuildingBlock: OJICUG_clean_linker_0, # of connection points: 2
#     Edge 43, Type (0, 0), BuildingBlock: OJICUG_clean_linker_0, # of connection points: 2
#     Edge 44, Type (0, 0), BuildingBlock: OJICUG_clean_linker_0, # of connection points: 2
#     Edge 45, Type (0, 0), BuildingBlock: OJICUG_clean_linker_0, # of connection points: 2
#     Edge 46, Type (0, 0), BuildingBlock: OJICUG_clean_linker_0, # of connection points: 2
#     Edge 47, Type (0, 0), BuildingBlock: OJICUG_clean_linker_0, # of connection points: 2
# Relax obj value: 0.022
# Max RMSD: 0.099
# Mean RMSD: 0.099
data_MOF--net-neb--node1-QUQFOY_clean_sbu_1--edge1-OJICUG_clean_linker_0
_symmetry_space_group_name_H-M    P1
_symmetry_Int_Tables_number       1
_symmetry_cell_setting            triclinic
loop_
_symmetry_equiv_pos_as_xyz
'x, y, z'
_cell_length_a     35.929891
_cell_length_b     17.973832
_cell_length_c     54.255805
_cell_angle_alpha  90.000805
_cell_angle_beta   90.00123
_cell_angle_gamma 89.901577
loop_
_atom_site_label
_atom_site_type_symbol
_atom_site_fract_x
_atom_site_fract_y
_atom_site_fract_z
_atom_type_partial_charge
O0 O 0.14486 -0.024 0.45226 0.0
Cd1 Cd 0.12853 0.05982 0.47539 0.0
Cd2 Cd 0.20402 0.07421 0.47558 0.0
O3 O 0.20521 -0.03001 0.45943 0.0
O4 O 0.07665 0.03075 0.48432 0.0
O5 O 0.12275 0.03444 0.51131 0.0
C6 C 0.08851 0.01812 0.50636 0.0
C7 C 0.24438 0.11466 0.50654 0.0
C8 C 0.17615 -0.05561 0.4491 0.0
C9 C 0.1565 0.19104 0.44982 0.0
O10 O 0.18776 0.1593 0.45294 0.0
O11 O 0.12732 0.16478 0.45981 0.0
O12 O 0.25601 0.10278 0.4844 0.0
O13 O 0.2102 0.09813 0.51158 0.0
O14 O 0.18882 -0.02393 0.88126 0.0
Cd15 Cd 0.20516 0.05995 0.85821 0.0
Cd16 Cd 0.12961 0.07509 0.85806 0.0
O17 O 0.1284 -0.029 0.87431 0.0
O18 O 0.25703 0.03051 0.84926 0.0
O19 O 0.21094 0.03482 0.82228 0.0
C20 C 0.24517 0.01818 0.82721 0.0
C21 C 0.08922 0.11544 0.82707 0.0
C22 C 0.15749 -0.0551 0.8845 0.0
C23 C 0.17725 0.19162 0.88373 0.0
O24 O 0.14594 0.16033 0.88057 0.0
O25 O 0.20644 0.16481 0.87385 0.0
O26 O 0.07762 0.10399 0.84923 0.0
O27 O 0.12339 0.09858 0.82203 0.0
O28 O 0.93868 0.90507 0.63106 0.0
Cd29 Cd 0.95503 0.82172 0.60776 0.0
Cd30 Cd 0.87951 0.80724 0.6075 0.0
O31 O 0.87834 0.91116 0.62388 0.0
O32 O 1.00689 0.85102 0.59883 0.0
O33 O 0.96074 0.84764 0.57188 0.0
C34 C 0.99498 0.86391 0.57682 0.0
C35 C 0.83904 0.76738 0.57652 0.0
C36 C 0.90738 0.93658 0.63428 0.0
C37 C 0.92709 0.68993 0.63301 0.0
O38 O 0.89581 0.72163 0.62993 0.0
O39 O 0.95628 0.71652 0.62315 0.0
O40 O 0.82748 0.77888 0.59869 0.0
O41 O 0.8732 0.78398 0.57146 0.0
O42 O 0.89542 0.90901 0.20249 0.0
Cd43 Cd 0.87904 0.8241 0.2251 0.0
Cd44 Cd 0.95465 0.80889 0.22507 0.0
O45 O 0.95591 0.91353 0.20925 0.0
O46 O 0.82708 0.85317 0.23393 0.0
O47 O 0.87289 0.84797 0.26111 0.0
C48 C 0.83872 0.86482 0.25608 0.0
C49 C 0.9948 0.76754 0.25606 0.0
C50 C 0.92675 0.94023 0.19931 0.0
C51 C 0.90697 0.69344 0.19895 0.0
O52 O 0.93829 0.72459 0.2022 0.0
O53 O 0.87783 0.71982 0.20901 0.0
O54 O 1.00656 0.77959 0.23397 0.0
O55 O 0.96059 0.78426 0.26104 0.0
O56 O 0.14556 0.47653 0.95244 0.0
Cd57 Cd 0.12915 0.56026 0.97558 0.0
Cd58 Cd 0.20469 0.57472 0.97578 0.0
O59 O 0.2059 0.47052 0.95961 0.0
O60 O 0.07722 0.53108 0.98435 0.0
O61 O 0.12314 0.53471 1.01146 0.0
C62 C 0.08895 0.51836 1.00641 0.0
C63 C 0.24509 0.61517 1.00672 0.0
C64 C 0.17685 0.44493 0.94928 0.0
C65 C 0.15712 0.69155 0.95004 0.0
O66 O 0.18839 0.65984 0.95316 0.0
O67 O 0.12795 0.66525 0.96002 0.0
O68 O 0.25669 0.60332 0.98458 0.0
O69 O 0.21092 0.59862 1.01178 0.0
O70 O 0.18826 0.47549 0.38102 0.0
Cd71 Cd 0.20467 0.55944 0.35802 0.0
Cd72 Cd 0.12906 0.57457 0.35782 0.0
O73 O 0.12785 0.47048 0.37406 0.0
O74 O 0.2566 0.5301 0.34919 0.0
O75 O 0.21066 0.53441 0.32209 0.0
C76 C 0.24487 0.51781 0.3271 0.0
C77 C 0.08874 0.61488 0.32678 0.0
C78 C 0.15694 0.44434 0.38425 0.0
C79 C 0.17665 0.69109 0.38353 0.0
O80 O 0.14534 0.65982 0.38034 0.0
O81 O 0.20586 0.66428 0.37369 0.0
O82 O 0.07709 0.6034 0.34893 0.0
O83 O 0.12293 0.59806 0.32179 0.0
O84 O 0.93817 0.40833 0.1303 0.0
Cd85 Cd 0.95449 0.32365 0.10752 0.0
Cd86 Cd 0.879 0.30931 0.10756 0.0
O87 O 0.87778 0.41411 0.12327 0.0
O88 O 1.00648 0.35236 0.09874 0.0
O89 O 0.96068 0.34808 0.07155 0.0
C90 C 0.99486 0.36452 0.07662 0.0
C91 C 0.83886 0.26783 0.07663 0.0
C92 C 0.90691 0.4401 0.1334 0.0
C93 C 0.92657 0.19353 0.13375 0.0
O94 O 0.8953 0.22524 0.1306 0.0
O95 O 0.95566 0.2192 0.1235 0.0
O96 O 0.82708 0.28034 0.0987 0.0
O97 O 0.87307 0.28418 0.07164 0.0
O98 O 0.89523 0.40552 0.70186 0.0
Cd99 Cd 0.87885 0.32206 0.72506 0.0
Cd100 Cd 0.95444 0.30686 0.72528 0.0
O101 O 0.95564 0.41068 0.70884 0.0
O102 O 0.82699 0.35166 0.73397 0.0
O103 O 0.87308 0.34766 0.76096 0.0
C104 C 0.83885 0.36422 0.75601 0.0
C105 C 0.99491 0.267 0.7563 0.0
C106 C 0.92656 0.4366 0.69856 0.0
C107 C 0.90678 0.18989 0.69983 0.0
O108 O 0.9381 0.22117 0.70296 0.0
O109 O 0.87758 0.21696 0.7096 0.0
O110 O 1.00646 0.27814 0.73411 0.0
O111 O 0.96076 0.28393 0.76134 0.0
O112 O 0.6457 -0.02665 0.95267 0.0
Cd113 Cd 0.62945 0.05818 0.97542 0.0
Cd114 Cd 0.70492 0.07248 0.97531 0.0
O115 O 0.70611 -0.03236 0.95963 0.0
O116 O 0.57748 0.02954 0.98429 0.0
O117 O 0.62337 0.03397 1.01141 0.0
C118 C 0.58917 0.01751 1.0064 0.0
C119 C 0.74506 0.11401 1.00624 0.0
C120 C 0.67695 -0.05842 0.94956 0.0
C121 C 0.65735 0.18819 0.9491 0.0
O122 O 0.68862 0.1565 0.95225 0.0
O123 O 0.62827 0.16255 0.95939 0.0
O124 O 0.75684 0.10145 0.98418 0.0
O125 O 0.71083 0.09768 1.01123 0.0
O126 O 0.68767 -0.02957 0.38009 0.0
Cd127 Cd 0.70398 0.05633 0.35784 0.0
Cd128 Cd 0.62848 0.07155 0.3582 0.0
O129 O 0.62714 -0.03381 0.37345 0.0
O130 O 0.756 0.02766 0.34902 0.0
O131 O 0.71034 0.03367 0.32176 0.0
C132 C 0.74448 0.01666 0.32681 0.0
C133 C 0.58864 0.11428 0.32725 0.0
C134 C 0.65636 0.93905 0.38318 0.0
C135 C 0.67624 0.18557 0.38486 0.0
O136 O 0.64491 0.15447 0.38161 0.0
O137 O 0.70524 0.15997 0.37441 0.0
O138 O 0.57667 0.10143 0.34924 0.0
O139 O 0.62289 0.09773 0.32234 0.0
O140 O 0.43862 0.90887 0.1307 0.0
Cd141 Cd 0.4549 0.82412 0.10792 0.0
Cd142 Cd 0.3794 0.80978 0.10799 0.0
O143 O 0.37822 0.91455 0.12373 0.0
O144 O 0.50686 0.85281 0.09906 0.0
O145 O 0.46096 0.84843 0.07194 0.0
C146 C 0.49516 0.86488 0.07695 0.0
C147 C 0.33917 0.76834 0.0771 0.0
C148 C 0.40736 0.9406 0.13382 0.0
C149 C 0.42697 0.69394 0.13415 0.0
O150 O 0.39571 0.72563 0.13099 0.0
O151 O 0.45608 0.71969 0.12392 0.0
O152 O 0.32745 0.78083 0.09918 0.0
O153 O 0.37337 0.78471 0.07207 0.0
O154 O 0.3951 0.90756 0.70257 0.0
Cd155 Cd 0.37885 0.82325 0.72549 0.0
Cd156 Cd 0.45434 0.80834 0.72546 0.0
O157 O 0.45551 0.9128 0.70951 0.0
O158 O 0.32695 0.85242 0.73445 0.0
O159 O 0.373 0.84789 0.76145 0.0
C160 C 0.33877 0.86453 0.75652 0.0
C161 C 0.49465 0.76732 0.75641 0.0
C162 C 0.42638 0.93895 0.69938 0.0
C163 C 0.40672 0.69238 0.69953 0.0
O164 O 0.43801 0.72379 0.70267 0.0
O165 O 0.3776 0.71866 0.70964 0.0
O166 O 0.50631 0.77929 0.73429 0.0
O167 O 0.46045 0.78398 0.76144 0.0
O168 O 0.64581 0.47051 0.45344 0.0
Cd169 Cd 0.62941 0.55651 0.47566 0.0
Cd170 Cd 0.70502 0.57135 0.47531 0.0
O171 O 0.70635 0.46598 0.46006 0.0
O172 O 0.57737 0.52808 0.4844 0.0
O173 O 0.62294 0.53377 0.51173 0.0
C174 C 0.58883 0.51692 0.50662 0.0
C175 C 0.74505 0.61401 0.50614 0.0
C176 C 0.67713 0.43896 0.45036 0.0
C177 C 0.65716 0.68565 0.44868 0.0
O178 O 0.6885 0.65437 0.45194 0.0
O179 O 0.62815 0.66018 0.4591 0.0
O180 O 0.75687 0.60099 0.48411 0.0
O181 O 0.71084 0.59763 0.51115 0.0
O182 O 0.68838 0.47269 0.88032 0.0
Cd183 Cd 0.70469 0.55776 0.85773 0.0
Cd184 Cd 0.62905 0.5729 0.85785 0.0
O185 O 0.62787 0.46821 0.87364 0.0
O186 O 0.75667 0.52888 0.84883 0.0
O187 O 0.71079 0.53405 0.82171 0.0
C188 C 0.74499 0.5173 0.82669 0.0
C189 C 0.5888 0.61426 0.82692 0.0
C190 C 0.65706 0.44147 0.88353 0.0
C191 C 0.67676 0.68829 0.88398 0.0
O192 O 0.64543 0.65713 0.88074 0.0
O193 O 0.70588 0.66198 0.87388 0.0
O194 O 0.5771 0.60212 0.84903 0.0
O195 O 0.623 0.59763 0.8219 0.0
O196 O 0.43793 0.40753 0.63079 0.0
Cd197 Cd 0.45431 0.32311 0.60792 0.0
Cd198 Cd 0.37872 0.30851 0.60792 0.0
O199 O 0.3775 0.41299 0.62387 0.0
O200 O 0.50626 0.35211 0.59915 0.0
O201 O 0.46043 0.34782 0.57198 0.0
C202 C 0.4946 0.36435 0.57704 0.0
C203 C 0.33843 0.26755 0.57699 0.0
C204 C 0.40663 0.43907 0.63397 0.0
C205 C 0.42641 0.19228 0.63383 0.0
O206 O 0.39511 0.22384 0.63068 0.0
O207 O 0.45555 0.21849 0.62377 0.0
O208 O 0.32677 0.27963 0.59911 0.0
O209 O 0.37261 0.28411 0.57195 0.0
O210 O 0.39577 0.40943 0.20291 0.0
Cd211 Cd 0.37944 0.32451 0.22555 0.0
Cd212 Cd 0.45504 0.30945 0.22553 0.0
O213 O 0.45625 0.41407 0.20969 0.0
O214 O 0.32744 0.35339 0.23438 0.0
O215 O 0.37325 0.34841 0.26156 0.0
C216 C 0.33906 0.3651 0.25653 0.0
C217 C 0.49512 0.26828 0.25658 0.0
C218 C 0.42709 0.44068 0.19973 0.0
C219 C 0.40745 0.19389 0.1994 0.0
O220 O 0.43876 0.22509 0.20265 0.0
O221 O 0.3783 0.22021 0.20947 0.0
O222 O 0.50695 0.28034 0.23451 0.0
O223 O 0.46089 0.2849 0.26151 0.0
C224 C 0.27766 0.20907 0.56509 0.0
C225 C 0.31404 0.23057 0.55865 0.0
H226 H 0.22734 0.15487 0.5539 0.0
C227 C 0.32754 0.21201 0.53514 0.0
H228 H 0.26645 0.22197 0.58313 0.0
C229 C 0.30518 0.17294 0.51846 0.0
C230 C 0.2688 0.15147 0.5249 0.0
H231 H 0.3555 0.22716 0.52965 0.0
H232 H 0.3164 0.16006 0.50042 0.0
C233 C 0.25531 0.17001 0.54841 0.0
C234 C 1.0055 0.92052 0.53508 0.0
C235 C 1.01922 0.9013 0.55848 0.0
H236 H 1.01637 -0.02676 0.50045 0.0
C237 C 0.05571 0.92238 0.56481 0.0
H238 H 0.97746 0.90568 0.52968 0.0
C239 C 0.07795 -0.03831 0.54812 0.0
C240 C 0.06424 -0.01911 0.52472 0.0
H241 H 0.06709 0.90896 0.58275 0.0
H242 H 0.106 -0.02348 0.55352 0.0
C243 C 1.02775 -0.04017 0.5184 0.0
C244 C 0.27802 0.9231 0.76862 0.0
C245 C 0.31448 0.9016 0.77494 0.0
H246 H 0.22773 -0.02252 0.77997 0.0
C247 C 0.32815 0.92023 0.79839 0.0
H248 H 0.26666 0.91012 0.75064 0.0
C249 C 0.3059 -0.04057 0.81513 0.0
C250 C 0.26944 -0.01904 0.80882 0.0
H251 H 0.35618 0.90506 0.80379 0.0
H252 H 0.31725 -0.02758 0.83311 0.0
C253 C 0.25576 -0.03771 0.78537 0.0
C254 C 1.0284 0.17397 0.81508 0.0
C255 C 0.06476 0.15206 0.80865 0.0
H256 H 0.97804 0.22819 0.80381 0.0
C257 C 0.07818 0.1699 0.78507 0.0
H258 H 1.01725 0.16164 0.83317 0.0
C259 C 0.05576 0.20865 0.7683 0.0
C260 C 1.0194 0.23053 0.77473 0.0
H261 H 0.10612 0.15441 0.77958 0.0
H262 H 0.06691 0.22097 0.75021 0.0
C263 C 1.00599 0.21273 0.79832 0.0
C264 C 0.82808 0.71211 0.53464 0.0
C265 C 0.81457 0.73077 0.55814 0.0
H266 H 0.81698 0.65986 0.49996 0.0
C267 C 0.77816 0.70948 0.56456 0.0
H268 H 0.85607 0.72712 0.52916 0.0
C269 C 0.75581 0.67035 0.54789 0.0
C270 C 0.76935 0.65152 0.52441 0.0
H271 H 0.76693 0.72249 0.58258 0.0
H272 H 0.72784 0.65524 0.55338 0.0
C273 C 0.80574 0.67295 0.51797 0.0
C274 C 0.80533 -0.0417 0.31481 0.0
C275 C 0.76897 -0.01979 0.30838 0.0
H276 H 0.85566 0.90396 0.30355 0.0
C277 C 0.75555 -0.0376 0.28479 0.0
H278 H 0.81648 -0.02937 0.3329 0.0
C279 C 0.77795 0.92357 0.26804 0.0
C280 C 0.81429 0.90161 0.27447 0.0
H281 H 0.72761 -0.0221 0.2793 0.0
H282 H 0.76679 0.91121 0.24995 0.0
C283 C 0.82772 0.91949 0.29805 0.0
C284 C 0.05554 0.70875 0.26807 0.0
C285 C 1.01914 0.73051 0.27445 0.0
H286 H 0.10586 0.65444 0.27938 0.0
C287 C 1.00559 0.71225 0.29797 0.0
H288 H 0.06679 0.72142 0.25004 0.0
C289 C 1.02793 0.67326 0.31472 0.0
C290 C 0.06434 0.65157 0.30835 0.0
H291 H 0.97761 0.72761 0.30342 0.0
H292 H 1.01668 0.66063 0.33276 0.0
C293 C 0.07788 0.66976 0.28482 0.0
C294 C 0.27839 0.70983 0.06523 0.0
C295 C 0.31479 0.7312 0.05879 0.0
H296 H 0.22805 0.65569 0.05406 0.0
C297 C 0.3283 0.71242 1.0353 0.0
H298 H 0.26716 0.7229 0.08324 0.0
C299 C 0.30594 0.6733 1.01863 0.0
C300 C 0.26953 0.65199 1.02507 0.0
H301 H 0.35628 0.72747 1.0298 0.0
H302 H 0.31716 0.66027 1.00061 0.0
C303 C 0.25603 0.67071 0.04857 0.0
C304 C 1.02816 0.45975 1.01822 0.0
C305 C 0.06456 0.48102 1.02468 0.0
H306 H 0.97781 0.40555 1.02934 0.0
C307 C 0.07808 0.46199 0.04815 0.0
H308 H 1.01693 0.47301 1.00022 0.0
C309 C 0.05571 0.42274 0.06477 0.0
C310 C 1.0193 0.40152 0.05832 0.0
H311 H 0.10606 0.47697 0.05365 0.0
H312 H 0.06694 0.40951 0.08277 0.0
C313 C 1.00579 0.42049 1.03484 0.0
C314 C 0.27817 0.42333 0.26851 0.0
C315 C 0.3146 0.40183 0.27492 0.0
H316 H 0.22778 0.47751 0.27976 0.0
C317 C 0.32809 0.42021 0.29844 0.0
H318 H 0.26696 0.41055 0.25047 0.0
C319 C 0.30569 0.45919 0.31516 0.0
C320 C 0.26927 0.48074 0.30875 0.0
H321 H 0.35608 0.40503 0.30391 0.0
H322 H 0.31691 0.472 0.33319 0.0
C323 C 0.25577 0.4623 0.28523 0.0
C324 C 0.80584 0.17235 1.01819 0.0
C325 C 0.76939 0.15119 1.02457 0.0
H326 H 0.85616 0.22648 1.02941 0.0
C327 C 0.75577 0.17026 0.04801 0.0
H328 H 0.81715 0.15905 1.00022 0.0
C329 C 0.77807 0.2095 0.06468 0.0
C330 C 0.81452 0.23065 0.0583 0.0
H331 H 0.72775 0.15536 0.05346 0.0
H332 H 0.76676 0.2228 0.08265 0.0
C333 C 0.82814 0.21159 1.03486 0.0
C334 C 0.7558 0.46216 0.78477 0.0
C335 C 0.76938 0.48057 0.80826 0.0
H336 H 0.76683 0.41023 0.75002 0.0
C337 C 0.80583 0.45906 0.81461 0.0
H338 H 0.72779 0.47734 0.77934 0.0
C339 C 0.82816 0.42002 0.79786 0.0
C340 C 0.81455 0.4015 0.77438 0.0
H341 H 0.81712 0.47187 0.83262 0.0
H342 H 0.85616 0.40477 0.8033 0.0
C343 C 0.77812 0.42309 0.76802 0.0
C344 C 0.57832 -0.03794 0.04827 0.0
C345 C 0.56477 -0.01932 1.02477 0.0
H346 H 0.56722 0.91011 0.08299 0.0
C347 C 0.52835 -0.04064 1.01838 0.0
H348 H 0.60631 -0.02292 0.05373 0.0
C349 C 0.506 0.92037 1.03508 0.0
C350 C 0.51955 0.90174 0.05858 0.0
H351 H 0.5171 -0.02768 1.00036 0.0
H352 H 0.47801 0.90534 1.02962 0.0
C353 C 0.55597 0.92307 0.06498 0.0
C354 C 0.55591 0.20991 0.26872 0.0
C355 C 0.51942 0.23127 0.27501 0.0
H356 H 0.6062 0.15554 0.28007 0.0
C357 C 0.50571 0.21249 0.29844 0.0
H358 H 0.5673 0.223 0.25075 0.0
C359 C 0.52796 0.17324 0.31518 0.0
C360 C 0.56443 0.15179 0.30888 0.0
H361 H 0.47767 0.22756 0.30382 0.0
H362 H 0.51657 0.1601 0.33314 0.0
C363 C 0.57816 0.17066 0.28546 0.0
C364 C 0.50558 0.7119 0.79829 0.0
C365 C 0.51908 0.73039 0.77478 0.0
H366 H 0.51674 0.65997 0.83302 0.0
C367 C 0.5555 0.70887 0.76837 0.0
H368 H 0.47759 0.72709 0.80376 0.0
C369 C 0.57789 0.66981 0.78507 0.0
C370 C 0.56438 0.6513 0.80857 0.0
H371 H 0.56672 0.72173 0.75034 0.0
H372 H 0.60588 0.65461 0.77959 0.0
C373 C 0.52796 0.67284 0.81499 0.0
C374 C 0.50559 0.41975 0.53518 0.0
C375 C 0.51901 0.40142 0.55873 0.0
H376 H 0.51684 0.47138 0.50043 0.0
C377 C 0.55533 0.42315 0.56523 0.0
H378 H 0.47767 0.40441 0.52964 0.0
C379 C 0.57772 0.46216 0.54855 0.0
C380 C 0.56432 0.48039 0.52498 0.0
H381 H 0.56648 0.41045 0.58329 0.0
H382 H 0.60564 0.47745 0.55408 0.0
C383 C 0.52798 0.45874 0.5185 0.0
C384 C 0.21179 0.78634 0.40865 0.0
C385 C 0.17807 0.75745 0.39961 0.0
H386 H 0.23787 0.8682 0.43182 0.0
C387 C 0.14445 0.79039 0.40707 0.0
H388 H 0.23813 0.76179 0.40331 0.0
C389 C 0.14429 0.85007 0.42327 0.0
C390 C 0.17774 0.87905 0.43256 0.0
H391 H 0.11791 0.7699 0.40048 0.0
H392 H 0.11761 0.87342 0.4285 0.0
C393 C 0.21162 0.84674 0.42509 0.0
C394 C 0.18873 0.28881 0.4257 0.0
C395 C 0.1551 0.25724 0.43366 0.0
H396 H 0.21553 0.3708 0.40389 0.0
C397 C 0.12133 0.28738 0.42507 0.0
H398 H 0.21531 0.2673 0.43191 0.0
C399 C 0.12146 0.34777 0.40863 0.0
C400 C 0.15535 0.37883 0.40071 0.0
H401 H 0.09497 0.26389 0.43078 0.0
H402 H 0.09518 0.3703 0.40228 0.0
C403 C 0.18885 0.34849 0.4095 0.0
C404 C 0.1451 0.29084 0.90731 0.0
C405 C 0.1787 0.25797 0.8998 0.0
H406 H 0.11829 0.37382 0.92877 0.0
C407 C 0.21244 0.28692 0.9088 0.0
H408 H 0.11854 0.2703 0.90076 0.0
C409 C 0.2123 0.34732 0.92523 0.0
C410 C 0.17843 0.37958 0.93274 0.0
H411 H 0.23877 0.26241 0.90342 0.0
H412 H 0.23856 0.36885 0.93192 0.0
C413 C 0.14496 0.35052 0.92351 0.0
C414 C 0.18932 0.78943 0.92596 0.0
C415 C 0.1557 0.75778 0.9339 0.0
H416 H 0.21611 0.87148 0.90417 0.0
C417 C 0.12193 0.78787 0.9253 0.0
H418 H 0.21591 0.76796 0.93217 0.0
C419 C 0.12204 0.84828 0.90887 0.0
C420 C 0.15592 0.8794 0.90097 0.0
H421 H 0.09558 0.76432 0.931 0.0
H422 H 0.09576 0.87077 0.90251 0.0
C423 C 0.18943 0.84912 0.90976 0.0
C424 C 0.87167 0.09499 0.67456 0.0
C425 C 0.90535 0.12325 0.68389 0.0
H426 H 0.84567 0.01371 0.65113 0.0
C427 C 0.93894 0.08955 0.67678 0.0
H428 H 0.84535 0.12014 0.67963 0.0
C429 C 0.93915 0.02986 0.66058 0.0
C430 C 0.90575 0.00164 0.65095 0.0
H431 H 0.96544 0.10951 0.68362 0.0
H432 H 0.96581 0.00596 0.65561 0.0
C433 C 0.87188 0.03458 0.65813 0.0
C434 C 0.89471 0.53124 0.67277 0.0
C435 C 0.92817 0.50182 0.68197 0.0
H436 H 0.86833 0.61179 0.65006 0.0
C437 C 0.96206 0.53366 0.67441 0.0
H438 H 0.86803 0.50826 0.67807 0.0
C439 C 0.96223 0.59407 0.65798 0.0
C440 C 0.9285 0.62343 0.64903 0.0
H441 H 0.98831 0.51185 0.68107 0.0
H442 H 0.98857 0.61828 0.65258 0.0
C443 C 0.89488 0.59093 0.65657 0.0
C444 C 0.87161 0.53705 0.15782 0.0
C445 C 0.90544 0.50602 0.14968 0.0
H446 H 0.8453 0.6208 0.18019 0.0
C447 C 0.93902 0.53657 0.15817 0.0
H448 H 0.84528 0.51436 0.15169 0.0
C449 C 0.93902 0.59626 0.17437 0.0
C450 C 0.90545 0.62763 0.18262 0.0
H451 H 0.96565 0.51432 0.15236 0.0
H452 H 0.96566 0.61782 0.18037 0.0
C453 C 0.87162 0.59746 0.17425 0.0
C454 C 0.96201 0.03559 0.17431 0.0
C455 C 0.92824 0.00642 0.18317 0.0
H456 H 0.98822 0.11773 0.15132 0.0
C457 C 0.89465 0.03901 0.17548 0.0
H458 H 0.98834 0.0113 0.17982 0.0
C459 C 0.89457 0.09869 0.15928 0.0
C460 C 0.92808 0.12802 0.15022 0.0
H461 H 0.86806 0.01829 0.18191 0.0
H462 H 0.86792 0.1218 0.15389 0.0
C463 C 0.96193 0.09598 0.15788 0.0
C464 C 0.64475 0.78517 0.90873 0.0
C465 C 0.6783 0.75402 0.90034 0.0
H466 H 0.61818 0.86693 0.93084 0.0
C467 C 0.71216 0.78437 0.90861 0.0
H468 H 0.61809 0.76344 0.90282 0.0
C469 C 0.7122 0.84476 0.92505 0.0
C470 C 0.67839 0.8756 0.9333 0.0
H471 H 0.73846 0.76121 0.90257 0.0
H472 H 0.73854 0.86762 0.93108 0.0
C473 C 0.6448 0.84484 0.92493 0.0
C474 C 0.62195 0.28577 0.92501 0.0
C475 C 0.65581 0.25366 0.93261 0.0
H476 H 0.59552 0.3705 0.90311 0.0
C477 C 0.68931 0.28291 0.92349 0.0
H478 H 0.59568 0.2641 0.93162 0.0
C479 C 0.6892 0.34259 0.90729 0.0
C480 C 0.6556 0.37524 0.89966 0.0
H481 H 0.71597 0.25974 0.92884 0.0
H482 H 0.71578 0.36325 0.90082 0.0
C483 C 0.62185 0.34616 0.90857 0.0
C484 C 0.71185 0.28355 0.40855 0.0
C485 C 0.67796 0.25042 0.40161 0.0
H486 H 0.73846 0.36936 0.42982 0.0
C487 C 0.64464 0.27838 0.41152 0.0
H488 H 0.738 0.26287 0.40134 0.0
C489 C 0.64493 0.33811 0.4277 0.0
C490 C 0.67853 0.37209 0.43453 0.0
H491 H 0.61797 0.25431 0.40676 0.0
H492 H 0.61849 0.35792 0.43474 0.0
C493 C 0.71214 0.34399 0.42497 0.0
C494 C 0.62157 0.78354 0.42483 0.0
C495 C 0.65546 0.75061 0.43197 0.0
H496 H 0.59498 0.86915 0.40339 0.0
C497 C 0.68883 0.77883 0.42229 0.0
H498 H 0.59538 0.76266 0.43186 0.0
C499 C 0.68858 0.83855 0.40611 0.0
C500 C 0.65496 0.87228 0.39905 0.0
H501 H 0.71551 0.75495 0.42723 0.0
H502 H 0.71506 0.85854 0.39924 0.0
C503 C 0.62131 0.84398 0.40841 0.0
C504 C 0.3721 0.09777 0.17476 0.0
C505 C 0.40594 0.12812 0.18305 0.0
H506 H 0.34575 0.01455 0.15226 0.0
C507 C 0.43951 0.09695 0.1747 0.0
H508 H 0.34578 0.12096 0.18077 0.0
C509 C 0.43948 0.03728 0.15849 0.0
C510 C 0.4059 0.00654 0.15009 0.0
H511 H 0.46615 0.11867 0.18064 0.0
H512 H 0.46611 0.01518 0.15261 0.0
C513 C 0.37208 0.03739 0.15832 0.0
C514 C 0.39499 0.53897 0.17567 0.0
C515 C 0.42858 0.50678 0.18354 0.0
H516 H 0.36829 0.62146 0.15394 0.0
C517 C 0.46238 0.53628 0.17484 0.0
H518 H 0.36839 0.51798 0.18196 0.0
C519 C 0.46232 0.59666 0.1584 0.0
C520 C 0.42848 0.62836 0.15058 0.0
H521 H 0.4887 0.5123 0.18048 0.0
H522 H 0.48863 0.6187 0.15197 0.0
C523 C 0.39494 0.59864 0.15946 0.0
C524 C 0.43877 0.5956 0.67477 0.0
C525 C 0.40521 0.62652 0.68323 0.0
H526 H 0.46537 0.51405 0.65259 0.0
C527 C 0.37136 0.5959 0.67505 0.0
H528 H 0.46542 0.61754 0.68061 0.0
C529 C 0.37134 0.5355 0.65861 0.0
C530 C 0.40516 0.50493 0.65028 0.0
H531 H 0.34505 0.61889 0.68115 0.0
H532 H 0.34501 0.51246 0.65264 0.0
C533 C 0.43874 0.53592 0.65857 0.0
C534 C 0.39433 0.09483 0.65817 0.0
C535 C 0.42791 0.12627 0.65007 0.0
H536 H 0.36766 0.01288 0.68008 0.0
C537 C 0.46173 0.09607 0.65855 0.0
H538 H 0.3677 0.11639 0.65207 0.0
C539 C 0.4617 0.03567 0.67498 0.0
C540 C 0.42787 0.00466 0.68301 0.0
H541 H 0.48805 0.11946 0.65272 0.0
H542 H 0.48802 0.01303 0.68122 0.0
C543 C 0.3943 0.03514 0.67437 0.0
loop_
_geom_bond_atom_site_label_1
_geom_bond_atom_site_label_2
_geom_bond_distance
_geom_bond_site_symmetry_2
_ccdc_geom_bond_type
O0 Cd1 2.223 . S
O0 C8 1.315 . S
Cd1 O0 2.223 . S
Cd1 O4 2.297 . S
Cd1 O5 2.439 . S
Cd1 O11 2.240 . S
Cd2 O3 2.240 . S
Cd2 O10 2.223 . S
Cd2 O12 2.297 . S
Cd2 O13 2.439 . S
O3 Cd2 2.240 . S
O3 C8 1.279 . S
O4 Cd1 2.297 . S
O4 C6 1.247 . S
O5 Cd1 2.439 . S
O5 C6 1.208 . S
C6 O4 1.247 . S
C6 O5 1.208 . S
C7 O12 1.247 . S
C7 O13 1.208 . S
C8 O0 1.315 . S
C8 O3 1.279 . S
C9 O10 1.315 . S
C9 O11 1.279 . S
O10 Cd2 2.223 . S
O10 C9 1.315 . S
O11 Cd1 2.240 . S
O11 C9 1.279 . S
O12 Cd2 2.297 . S
O12 C7 1.247 . S
O13 Cd2 2.439 . S
O13 C7 1.208 . S
O14 Cd15 2.223 . S
O14 C22 1.315 . S
Cd15 O14 2.223 . S
Cd15 O18 2.297 . S
Cd15 O19 2.439 . S
Cd15 O25 2.240 . S
Cd16 O17 2.240 . S
Cd16 O24 2.223 . S
Cd16 O26 2.297 . S
Cd16 O27 2.439 . S
O17 Cd16 2.240 . S
O17 C22 1.279 . S
O18 Cd15 2.297 . S
O18 C20 1.247 . S
O19 Cd15 2.439 . S
O19 C20 1.208 . S
C20 O18 1.247 . S
C20 O19 1.208 . S
C21 O26 1.247 . S
C21 O27 1.208 . S
C22 O14 1.315 . S
C22 O17 1.279 . S
C23 O24 1.315 . S
C23 O25 1.279 . S
O24 Cd16 2.223 . S
O24 C23 1.315 . S
O25 Cd15 2.240 . S
O25 C23 1.279 . S
O26 Cd16 2.297 . S
O26 C21 1.247 . S
O27 Cd16 2.439 . S
O27 C21 1.208 . S
O28 Cd29 2.223 . S
O28 C36 1.315 . S
Cd29 O28 2.223 . S
Cd29 O32 2.297 . S
Cd29 O33 2.439 . S
Cd29 O39 2.240 . S
Cd30 O31 2.240 . S
Cd30 O38 2.223 . S
Cd30 O40 2.297 . S
Cd30 O41 2.439 . S
O31 Cd30 2.240 . S
O31 C36 1.279 . S
O32 Cd29 2.297 . S
O32 C34 1.247 . S
O33 Cd29 2.439 . S
O33 C34 1.208 . S
C34 O32 1.247 . S
C34 O33 1.208 . S
C35 O40 1.247 . S
C35 O41 1.208 . S
C36 O28 1.315 . S
C36 O31 1.279 . S
C37 O38 1.315 . S
C37 O39 1.279 . S
O38 Cd30 2.223 . S
O38 C37 1.315 . S
O39 Cd29 2.240 . S
O39 C37 1.279 . S
O40 Cd30 2.297 . S
O40 C35 1.247 . S
O41 Cd30 2.439 . S
O41 C35 1.208 . S
O42 Cd43 2.223 . S
O42 C50 1.315 . S
Cd43 O42 2.223 . S
Cd43 O46 2.297 . S
Cd43 O47 2.439 . S
Cd43 O53 2.240 . S
Cd44 O45 2.240 . S
Cd44 O52 2.223 . S
Cd44 O54 2.297 . S
Cd44 O55 2.439 . S
O45 Cd44 2.240 . S
O45 C50 1.279 . S
O46 Cd43 2.297 . S
O46 C48 1.247 . S
O47 Cd43 2.439 . S
O47 C48 1.208 . S
C48 O46 1.247 . S
C48 O47 1.208 . S
C49 O54 1.247 . S
C49 O55 1.208 . S
C50 O42 1.315 . S
C50 O45 1.279 . S
C51 O52 1.315 . S
C51 O53 1.279 . S
O52 Cd44 2.223 . S
O52 C51 1.315 . S
O53 Cd43 2.240 . S
O53 C51 1.279 . S
O54 Cd44 2.297 . S
O54 C49 1.247 . S
O55 Cd44 2.439 . S
O55 C49 1.208 . S
O56 Cd57 2.223 . S
O56 C64 1.315 . S
Cd57 O56 2.223 . S
Cd57 O60 2.297 . S
Cd57 O61 2.439 . S
Cd57 O67 2.240 . S
Cd58 O59 2.240 . S
Cd58 O66 2.223 . S
Cd58 O68 2.297 . S
Cd58 O69 2.439 . S
O59 Cd58 2.240 . S
O59 C64 1.279 . S
O60 Cd57 2.297 . S
O60 C62 1.247 . S
O61 Cd57 2.439 . S
O61 C62 1.208 . S
C62 O60 1.247 . S
C62 O61 1.208 . S
C63 O68 1.247 . S
C63 O69 1.208 . S
C64 O56 1.315 . S
C64 O59 1.279 . S
C65 O66 1.315 . S
C65 O67 1.279 . S
O66 Cd58 2.223 . S
O66 C65 1.315 . S
O67 Cd57 2.240 . S
O67 C65 1.279 . S
O68 Cd58 2.297 . S
O68 C63 1.247 . S
O69 Cd58 2.439 . S
O69 C63 1.208 . S
O70 Cd71 2.223 . S
O70 C78 1.315 . S
Cd71 O70 2.223 . S
Cd71 O74 2.297 . S
Cd71 O75 2.439 . S
Cd71 O81 2.240 . S
Cd72 O73 2.240 . S
Cd72 O80 2.223 . S
Cd72 O82 2.297 . S
Cd72 O83 2.439 . S
O73 Cd72 2.240 . S
O73 C78 1.279 . S
O74 Cd71 2.297 . S
O74 C76 1.247 . S
O75 Cd71 2.439 . S
O75 C76 1.208 . S
C76 O74 1.247 . S
C76 O75 1.208 . S
C77 O82 1.247 . S
C77 O83 1.208 . S
C78 O70 1.315 . S
C78 O73 1.279 . S
C79 O80 1.315 . S
C79 O81 1.279 . S
O80 Cd72 2.223 . S
O80 C79 1.315 . S
O81 Cd71 2.240 . S
O81 C79 1.279 . S
O82 Cd72 2.297 . S
O82 C77 1.247 . S
O83 Cd72 2.439 . S
O83 C77 1.208 . S
O84 Cd85 2.223 . S
O84 C92 1.315 . S
Cd85 O84 2.223 . S
Cd85 O88 2.297 . S
Cd85 O89 2.439 . S
Cd85 O95 2.240 . S
Cd86 O87 2.240 . S
Cd86 O94 2.223 . S
Cd86 O96 2.297 . S
Cd86 O97 2.439 . S
O87 Cd86 2.240 . S
O87 C92 1.279 . S
O88 Cd85 2.297 . S
O88 C90 1.247 . S
O89 Cd85 2.439 . S
O89 C90 1.208 . S
C90 O88 1.247 . S
C90 O89 1.208 . S
C91 O96 1.247 . S
C91 O97 1.208 . S
C92 O84 1.315 . S
C92 O87 1.279 . S
C93 O94 1.315 . S
C93 O95 1.279 . S
O94 Cd86 2.223 . S
O94 C93 1.315 . S
O95 Cd85 2.240 . S
O95 C93 1.279 . S
O96 Cd86 2.297 . S
O96 C91 1.247 . S
O97 Cd86 2.439 . S
O97 C91 1.208 . S
O98 Cd99 2.223 . S
O98 C106 1.315 . S
Cd99 O98 2.223 . S
Cd99 O102 2.297 . S
Cd99 O103 2.439 . S
Cd99 O109 2.240 . S
Cd100 O101 2.240 . S
Cd100 O108 2.223 . S
Cd100 O110 2.297 . S
Cd100 O111 2.439 . S
O101 Cd100 2.240 . S
O101 C106 1.279 . S
O102 Cd99 2.297 . S
O102 C104 1.247 . S
O103 Cd99 2.439 . S
O103 C104 1.208 . S
C104 O102 1.247 . S
C104 O103 1.208 . S
C105 O110 1.247 . S
C105 O111 1.208 . S
C106 O98 1.315 . S
C106 O101 1.279 . S
C107 O108 1.315 . S
C107 O109 1.279 . S
O108 Cd100 2.223 . S
O108 C107 1.315 . S
O109 Cd99 2.240 . S
O109 C107 1.279 . S
O110 Cd100 2.297 . S
O110 C105 1.247 . S
O111 Cd100 2.439 . S
O111 C105 1.208 . S
O112 Cd113 2.223 . S
O112 C120 1.315 . S
Cd113 O112 2.223 . S
Cd113 O116 2.297 . S
Cd113 O117 2.439 . S
Cd113 O123 2.240 . S
Cd114 O115 2.240 . S
Cd114 O122 2.223 . S
Cd114 O124 2.297 . S
Cd114 O125 2.439 . S
O115 Cd114 2.240 . S
O115 C120 1.279 . S
O116 Cd113 2.297 . S
O116 C118 1.247 . S
O117 Cd113 2.439 . S
O117 C118 1.208 . S
C118 O116 1.247 . S
C118 O117 1.208 . S
C119 O124 1.247 . S
C119 O125 1.208 . S
C120 O112 1.315 . S
C120 O115 1.279 . S
C121 O122 1.315 . S
C121 O123 1.279 . S
O122 Cd114 2.223 . S
O122 C121 1.315 . S
O123 Cd113 2.240 . S
O123 C121 1.279 . S
O124 Cd114 2.297 . S
O124 C119 1.247 . S
O125 Cd114 2.439 . S
O125 C119 1.208 . S
O126 Cd127 2.223 . S
O126 C134 1.315 . S
Cd127 O126 2.223 . S
Cd127 O130 2.297 . S
Cd127 O131 2.439 . S
Cd127 O137 2.240 . S
Cd128 O129 2.240 . S
Cd128 O136 2.223 . S
Cd128 O138 2.297 . S
Cd128 O139 2.439 . S
O129 Cd128 2.240 . S
O129 C134 1.279 . S
O130 Cd127 2.297 . S
O130 C132 1.247 . S
O131 Cd127 2.439 . S
O131 C132 1.208 . S
C132 O130 1.247 . S
C132 O131 1.208 . S
C133 O138 1.247 . S
C133 O139 1.208 . S
C134 O126 1.315 . S
C134 O129 1.279 . S
C135 O136 1.315 . S
C135 O137 1.279 . S
O136 Cd128 2.223 . S
O136 C135 1.315 . S
O137 Cd127 2.240 . S
O137 C135 1.279 . S
O138 Cd128 2.297 . S
O138 C133 1.247 . S
O139 Cd128 2.439 . S
O139 C133 1.208 . S
O140 Cd141 2.223 . S
O140 C148 1.315 . S
Cd141 O140 2.223 . S
Cd141 O144 2.297 . S
Cd141 O145 2.439 . S
Cd141 O151 2.240 . S
Cd142 O143 2.240 . S
Cd142 O150 2.223 . S
Cd142 O152 2.297 . S
Cd142 O153 2.439 . S
O143 Cd142 2.240 . S
O143 C148 1.279 . S
O144 Cd141 2.297 . S
O144 C146 1.247 . S
O145 Cd141 2.439 . S
O145 C146 1.208 . S
C146 O144 1.247 . S
C146 O145 1.208 . S
C147 O152 1.247 . S
C147 O153 1.208 . S
C148 O140 1.315 . S
C148 O143 1.279 . S
C149 O150 1.315 . S
C149 O151 1.279 . S
O150 Cd142 2.223 . S
O150 C149 1.315 . S
O151 Cd141 2.240 . S
O151 C149 1.279 . S
O152 Cd142 2.297 . S
O152 C147 1.247 . S
O153 Cd142 2.439 . S
O153 C147 1.208 . S
O154 Cd155 2.223 . S
O154 C162 1.315 . S
Cd155 O154 2.223 . S
Cd155 O158 2.297 . S
Cd155 O159 2.439 . S
Cd155 O165 2.240 . S
Cd156 O157 2.240 . S
Cd156 O164 2.223 . S
Cd156 O166 2.297 . S
Cd156 O167 2.439 . S
O157 Cd156 2.240 . S
O157 C162 1.279 . S
O158 Cd155 2.297 . S
O158 C160 1.247 . S
O159 Cd155 2.439 . S
O159 C160 1.208 . S
C160 O158 1.247 . S
C160 O159 1.208 . S
C161 O166 1.247 . S
C161 O167 1.208 . S
C162 O154 1.315 . S
C162 O157 1.279 . S
C163 O164 1.315 . S
C163 O165 1.279 . S
O164 Cd156 2.223 . S
O164 C163 1.315 . S
O165 Cd155 2.240 . S
O165 C163 1.279 . S
O166 Cd156 2.297 . S
O166 C161 1.247 . S
O167 Cd156 2.439 . S
O167 C161 1.208 . S
O168 Cd169 2.223 . S
O168 C176 1.315 . S
Cd169 O168 2.223 . S
Cd169 O172 2.297 . S
Cd169 O173 2.439 . S
Cd169 O179 2.240 . S
Cd170 O171 2.240 . S
Cd170 O178 2.223 . S
Cd170 O180 2.297 . S
Cd170 O181 2.439 . S
O171 Cd170 2.240 . S
O171 C176 1.279 . S
O172 Cd169 2.297 . S
O172 C174 1.247 . S
O173 Cd169 2.439 . S
O173 C174 1.208 . S
C174 O172 1.247 . S
C174 O173 1.208 . S
C175 O180 1.247 . S
C175 O181 1.208 . S
C176 O168 1.315 . S
C176 O171 1.279 . S
C177 O178 1.315 . S
C177 O179 1.279 . S
O178 Cd170 2.223 . S
O178 C177 1.315 . S
O179 Cd169 2.240 . S
O179 C177 1.279 . S
O180 Cd170 2.297 . S
O180 C175 1.247 . S
O181 Cd170 2.439 . S
O181 C175 1.208 . S
O182 Cd183 2.223 . S
O182 C190 1.315 . S
Cd183 O182 2.223 . S
Cd183 O186 2.297 . S
Cd183 O187 2.439 . S
Cd183 O193 2.240 . S
Cd184 O185 2.240 . S
Cd184 O192 2.223 . S
Cd184 O194 2.297 . S
Cd184 O195 2.439 . S
O185 Cd184 2.240 . S
O185 C190 1.279 . S
O186 Cd183 2.297 . S
O186 C188 1.247 . S
O187 Cd183 2.439 . S
O187 C188 1.208 . S
C188 O186 1.247 . S
C188 O187 1.208 . S
C189 O194 1.247 . S
C189 O195 1.208 . S
C190 O182 1.315 . S
C190 O185 1.279 . S
C191 O192 1.315 . S
C191 O193 1.279 . S
O192 Cd184 2.223 . S
O192 C191 1.315 . S
O193 Cd183 2.240 . S
O193 C191 1.279 . S
O194 Cd184 2.297 . S
O194 C189 1.247 . S
O195 Cd184 2.439 . S
O195 C189 1.208 . S
O196 Cd197 2.223 . S
O196 C204 1.315 . S
Cd197 O196 2.223 . S
Cd197 O200 2.297 . S
Cd197 O201 2.439 . S
Cd197 O207 2.240 . S
Cd198 O199 2.240 . S
Cd198 O206 2.223 . S
Cd198 O208 2.297 . S
Cd198 O209 2.439 . S
O199 Cd198 2.240 . S
O199 C204 1.279 . S
O200 Cd197 2.297 . S
O200 C202 1.247 . S
O201 Cd197 2.439 . S
O201 C202 1.208 . S
C202 O200 1.247 . S
C202 O201 1.208 . S
C203 O208 1.247 . S
C203 O209 1.208 . S
C204 O196 1.315 . S
C204 O199 1.279 . S
C205 O206 1.315 . S
C205 O207 1.279 . S
O206 Cd198 2.223 . S
O206 C205 1.315 . S
O207 Cd197 2.240 . S
O207 C205 1.279 . S
O208 Cd198 2.297 . S
O208 C203 1.247 . S
O209 Cd198 2.439 . S
O209 C203 1.208 . S
O210 Cd211 2.223 . S
O210 C218 1.315 . S
Cd211 O210 2.223 . S
Cd211 O214 2.297 . S
Cd211 O215 2.439 . S
Cd211 O221 2.240 . S
Cd212 O213 2.240 . S
Cd212 O220 2.223 . S
Cd212 O222 2.297 . S
Cd212 O223 2.439 . S
O213 Cd212 2.240 . S
O213 C218 1.279 . S
O214 Cd211 2.297 . S
O214 C216 1.247 . S
O215 Cd211 2.439 . S
O215 C216 1.208 . S
C216 O214 1.247 . S
C216 O215 1.208 . S
C217 O222 1.247 . S
C217 O223 1.208 . S
C218 O210 1.315 . S
C218 O213 1.279 . S
C219 O220 1.315 . S
C219 O221 1.279 . S
O220 Cd212 2.223 . S
O220 C219 1.315 . S
O221 Cd211 2.240 . S
O221 C219 1.279 . S
O222 Cd212 2.297 . S
O222 C217 1.247 . S
O223 Cd212 2.439 . S
O223 C217 1.208 . S
C224 C225 1.387 . S
C224 H228 0.950 . S
C224 C233 1.390 . S
C225 C224 1.387 . S
C225 C227 1.387 . S
H226 C233 0.950 . S
C227 C225 1.387 . S
C227 C229 1.390 . S
C227 H231 0.950 . S
H228 C224 0.950 . S
C229 C227 1.390 . S
C229 C230 1.387 . S
C229 H232 0.950 . S
C230 C229 1.387 . S
C230 C233 1.387 . S
H231 C227 0.950 . S
H232 C229 0.950 . S
C233 C224 1.390 . S
C233 H226 0.950 . S
C233 C230 1.387 . S
C234 C235 1.387 1_545 S
C234 H238 0.950 . S
C234 C243 1.390 1_655 S
C235 C234 1.387 1_565 S
C235 C237 1.387 . S
H236 C243 0.950 . S
C237 C235 1.387 . S
C237 C239 1.390 1_655 S
C237 H241 0.950 . S
H238 C234 0.950 . S
C239 C237 1.390 1_455 S
C239 C240 1.387 1_565 S
C239 H242 0.950 . S
C240 C239 1.387 1_545 S
C240 C243 1.387 . S
H241 C237 0.950 . S
H242 C239 0.950 . S
C243 C234 1.390 1_455 S
C243 H236 0.950 . S
C243 C240 1.387 . S
C244 C245 1.387 1_545 S
C244 H248 0.950 . S
C244 C253 1.390 . S
C245 C244 1.387 1_565 S
C245 C247 1.387 . S
H246 C253 0.950 . S
C247 C245 1.387 . S
C247 C249 1.390 . S
C247 H251 0.950 . S
H248 C244 0.950 . S
C249 C247 1.390 . S
C249 C250 1.387 1_565 S
C249 H252 0.950 . S
C250 C249 1.387 1_545 S
C250 C253 1.387 . S
H251 C247 0.950 . S
H252 C249 0.950 . S
C253 C244 1.390 . S
C253 H246 0.950 . S
C253 C250 1.387 . S
C254 C255 1.387 . S
C254 H258 0.950 . S
C254 C263 1.390 1_455 S
C255 C254 1.387 . S
C255 C257 1.387 . S
H256 C263 0.950 . S
C257 C255 1.387 . S
C257 C259 1.390 1_455 S
C257 H261 0.950 . S
H258 C254 0.950 . S
C259 C257 1.390 1_655 S
C259 C260 1.387 . S
C259 H262 0.950 . S
C260 C259 1.387 . S
C260 C263 1.387 . S
H261 C257 0.950 . S
H262 C259 0.950 . S
C263 C254 1.390 1_655 S
C263 H256 0.950 . S
C263 C260 1.387 . S
C264 C265 1.387 . S
C264 H268 0.950 . S
C264 C273 1.390 . S
C265 C264 1.387 . S
C265 C267 1.387 . S
H266 C273 0.950 . S
C267 C265 1.387 . S
C267 C269 1.390 . S
C267 H271 0.950 . S
H268 C264 0.950 . S
C269 C267 1.390 . S
C269 C270 1.387 . S
C269 H272 0.950 . S
C270 C269 1.387 . S
C270 C273 1.387 . S
H271 C267 0.950 . S
H272 C269 0.950 . S
C273 C264 1.390 . S
C273 H266 0.950 . S
C273 C270 1.387 . S
C274 C275 1.387 1_565 S
C274 H278 0.950 . S
C274 C283 1.390 . S
C275 C274 1.387 1_545 S
C275 C277 1.387 . S
H276 C283 0.950 . S
C277 C275 1.387 . S
C277 C279 1.390 . S
C277 H281 0.950 . S
H278 C274 0.950 . S
C279 C277 1.390 . S
C279 C280 1.387 1_545 S
C279 H282 0.950 . S
C280 C279 1.387 1_565 S
C280 C283 1.387 . S
H281 C277 0.950 . S
H282 C279 0.950 . S
C283 C274 1.390 . S
C283 H276 0.950 . S
C283 C280 1.387 . S
C284 C285 1.387 . S
C284 H288 0.950 . S
C284 C293 1.390 1_655 S
C285 C284 1.387 . S
C285 C287 1.387 . S
H286 C293 0.950 . S
C287 C285 1.387 . S
C287 C289 1.390 1_655 S
C287 H291 0.950 . S
H288 C284 0.950 . S
C289 C287 1.390 1_455 S
C289 C290 1.387 . S
C289 H292 0.950 . S
C290 C289 1.387 . S
C290 C293 1.387 . S
H291 C287 0.950 . S
H292 C289 0.950 . S
C293 C284 1.390 1_455 S
C293 H286 0.950 . S
C293 C290 1.387 . S
C294 C295 1.387 . S
C294 H298 0.950 . S
C294 C303 1.390 . S
C295 C294 1.387 . S
C295 C297 1.387 1_554 S
H296 C303 0.950 . S
C297 C295 1.387 1_556 S
C297 C299 1.390 . S
C297 H301 0.950 . S
H298 C294 0.950 . S
C299 C297 1.390 . S
C299 C300 1.387 . S
C299 H302 0.950 . S
C300 C299 1.387 . S
C300 C303 1.387 1_556 S
H301 C297 0.950 . S
H302 C299 0.950 . S
C303 C294 1.390 . S
C303 H296 0.950 . S
C303 C300 1.387 1_554 S
C304 C305 1.387 . S
C304 H308 0.950 . S
C304 C313 1.390 1_456 S
C305 C304 1.387 . S
C305 C307 1.387 . S
H306 C313 0.950 . S
C307 C305 1.387 . S
C307 C309 1.390 1_456 S
C307 H311 0.950 . S
H308 C304 0.950 . S
C309 C307 1.390 1_654 S
C309 C310 1.387 . S
C309 H312 0.950 . S
C310 C309 1.387 . S
C310 C313 1.387 . S
H311 C307 0.950 . S
H312 C309 0.950 . S
C313 C304 1.390 1_654 S
C313 H306 0.950 . S
C313 C310 1.387 . S
C314 C315 1.387 . S
C314 H318 0.950 . S
C314 C323 1.390 . S
C315 C314 1.387 . S
C315 C317 1.387 . S
H316 C323 0.950 . S
C317 C315 1.387 . S
C317 C319 1.390 . S
C317 H321 0.950 . S
H318 C314 0.950 . S
C319 C317 1.390 . S
C319 C320 1.387 . S
C319 H322 0.950 . S
C320 C319 1.387 . S
C320 C323 1.387 . S
H321 C317 0.950 . S
H322 C319 0.950 . S
C323 C314 1.390 . S
C323 H316 0.950 . S
C323 C320 1.387 . S
C324 C325 1.387 . S
C324 H328 0.950 . S
C324 C333 1.390 1_556 S
C325 C324 1.387 . S
C325 C327 1.387 . S
H326 C333 0.950 . S
C327 C325 1.387 . S
C327 C329 1.390 1_556 S
C327 H331 0.950 . S
H328 C324 0.950 . S
C329 C327 1.390 1_554 S
C329 C330 1.387 . S
C329 H332 0.950 . S
C330 C329 1.387 . S
C330 C333 1.387 . S
H331 C327 0.950 . S
H332 C329 0.950 . S
C333 C324 1.390 1_554 S
C333 H326 0.950 . S
C333 C330 1.387 . S
C334 C335 1.387 . S
C334 H338 0.950 . S
C334 C343 1.390 . S
C335 C334 1.387 . S
C335 C337 1.387 . S
H336 C343 0.950 . S
C337 C335 1.387 . S
C337 C339 1.390 . S
C337 H341 0.950 . S
H338 C334 0.950 . S
C339 C337 1.390 . S
C339 C340 1.387 . S
C339 H342 0.950 . S
C340 C339 1.387 . S
C340 C343 1.387 . S
H341 C337 0.950 . S
H342 C339 0.950 . S
C343 C334 1.390 . S
C343 H336 0.950 . S
C343 C340 1.387 . S
C344 C345 1.387 1_565 S
C344 H348 0.950 . S
C344 C353 1.390 1_556 S
C345 C344 1.387 1_545 S
C345 C347 1.387 . S
H346 C353 0.950 . S
C347 C345 1.387 . S
C347 C349 1.390 1_556 S
C347 H351 0.950 . S
H348 C344 0.950 . S
C349 C347 1.390 1_554 S
C349 C350 1.387 1_545 S
C349 H352 0.950 . S
C350 C349 1.387 1_565 S
C350 C353 1.387 . S
H351 C347 0.950 . S
H352 C349 0.950 . S
C353 C344 1.390 1_554 S
C353 H346 0.950 . S
C353 C350 1.387 . S
C354 C355 1.387 . S
C354 H358 0.950 . S
C354 C363 1.390 . S
C355 C354 1.387 . S
C355 C357 1.387 . S
H356 C363 0.950 . S
C357 C355 1.387 . S
C357 C359 1.390 . S
C357 H361 0.950 . S
H358 C354 0.950 . S
C359 C357 1.390 . S
C359 C360 1.387 . S
C359 H362 0.950 . S
C360 C359 1.387 . S
C360 C363 1.387 . S
H361 C357 0.950 . S
H362 C359 0.950 . S
C363 C354 1.390 . S
C363 H356 0.950 . S
C363 C360 1.387 . S
C364 C365 1.387 . S
C364 H368 0.950 . S
C364 C373 1.390 . S
C365 C364 1.387 . S
C365 C367 1.387 . S
H366 C373 0.950 . S
C367 C365 1.387 . S
C367 C369 1.390 . S
C367 H371 0.950 . S
H368 C364 0.950 . S
C369 C367 1.390 . S
C369 C370 1.387 . S
C369 H372 0.950 . S
C370 C369 1.387 . S
C370 C373 1.387 . S
H371 C367 0.950 . S
H372 C369 0.950 . S
C373 C364 1.390 . S
C373 H366 0.950 . S
C373 C370 1.387 . S
C374 C375 1.387 . S
C374 H378 0.950 . S
C374 C383 1.390 . S
C375 C374 1.387 . S
C375 C377 1.387 . S
H376 C383 0.950 . S
C377 C375 1.387 . S
C377 C379 1.390 . S
C377 H381 0.950 . S
H378 C374 0.950 . S
C379 C377 1.390 . S
C379 C380 1.387 . S
C379 H382 0.950 . S
C380 C379 1.387 . S
C380 C383 1.387 . S
H381 C377 0.950 . S
H382 C379 0.950 . S
C383 C374 1.390 . S
C383 H376 0.950 . S
C383 C380 1.387 . S
C384 C385 1.387 . S
C384 H388 0.950 . S
C384 C393 1.390 . S
C385 C384 1.387 . S
C385 C387 1.387 . S
H386 C393 0.950 . S
C387 C385 1.387 . S
C387 C389 1.390 . S
C387 H391 0.950 . S
H388 C384 0.950 . S
C389 C387 1.390 . S
C389 C390 1.387 . S
C389 H392 0.950 . S
C390 C389 1.387 . S
C390 C393 1.387 . S
H391 C387 0.950 . S
H392 C389 0.950 . S
C393 C384 1.390 . S
C393 H386 0.950 . S
C393 C390 1.387 . S
C394 C395 1.387 . S
C394 H398 0.950 . S
C394 C403 1.390 . S
C395 C394 1.387 . S
C395 C397 1.387 . S
H396 C403 0.950 . S
C397 C395 1.387 . S
C397 C399 1.390 . S
C397 H401 0.950 . S
H398 C394 0.950 . S
C399 C397 1.390 . S
C399 C400 1.387 . S
C399 H402 0.950 . S
C400 C399 1.387 . S
C400 C403 1.387 . S
H401 C397 0.950 . S
H402 C399 0.950 . S
C403 C394 1.390 . S
C403 H396 0.950 . S
C403 C400 1.387 . S
C404 C405 1.387 . S
C404 H408 0.950 . S
C404 C413 1.390 . S
C405 C404 1.387 . S
C405 C407 1.387 . S
H406 C413 0.950 . S
C407 C405 1.387 . S
C407 C409 1.390 . S
C407 H411 0.950 . S
H408 C404 0.950 . S
C409 C407 1.390 . S
C409 C410 1.387 . S
C409 H412 0.950 . S
C410 C409 1.387 . S
C410 C413 1.387 . S
H411 C407 0.950 . S
H412 C409 0.950 . S
C413 C404 1.390 . S
C413 H406 0.950 . S
C413 C410 1.387 . S
C414 C415 1.387 . S
C414 H418 0.950 . S
C414 C423 1.390 . S
C415 C414 1.387 . S
C415 C417 1.387 . S
H416 C423 0.950 . S
C417 C415 1.387 . S
C417 C419 1.390 . S
C417 H421 0.950 . S
H418 C414 0.950 . S
C419 C417 1.390 . S
C419 C420 1.387 . S
C419 H422 0.950 . S
C420 C419 1.387 . S
C420 C423 1.387 . S
H421 C417 0.950 . S
H422 C419 0.950 . S
C423 C414 1.390 . S
C423 H416 0.950 . S
C423 C420 1.387 . S
C424 C425 1.387 . S
C424 H428 0.950 . S
C424 C433 1.390 . S
C425 C424 1.387 . S
C425 C427 1.387 . S
H426 C433 0.950 . S
C427 C425 1.387 . S
C427 C429 1.390 . S
C427 H431 0.950 . S
H428 C424 0.950 . S
C429 C427 1.390 . S
C429 C430 1.387 . S
C429 H432 0.950 . S
C430 C429 1.387 . S
C430 C433 1.387 . S
H431 C427 0.950 . S
H432 C429 0.950 . S
C433 C424 1.390 . S
C433 H426 0.950 . S
C433 C430 1.387 . S
C434 C435 1.387 . S
C434 H438 0.950 . S
C434 C443 1.390 . S
C435 C434 1.387 . S
C435 C437 1.387 . S
H436 C443 0.950 . S
C437 C435 1.387 . S
C437 C439 1.390 . S
C437 H441 0.950 . S
H438 C434 0.950 . S
C439 C437 1.390 . S
C439 C440 1.387 . S
C439 H442 0.950 . S
C440 C439 1.387 . S
C440 C443 1.387 . S
H441 C437 0.950 . S
H442 C439 0.950 . S
C443 C434 1.390 . S
C443 H436 0.950 . S
C443 C440 1.387 . S
C444 C445 1.387 . S
C444 H448 0.950 . S
C444 C453 1.390 . S
C445 C444 1.387 . S
C445 C447 1.387 . S
H446 C453 0.950 . S
C447 C445 1.387 . S
C447 C449 1.390 . S
C447 H451 0.950 . S
H448 C444 0.950 . S
C449 C447 1.390 . S
C449 C450 1.387 . S
C449 H452 0.950 . S
C450 C449 1.387 . S
C450 C453 1.387 . S
H451 C447 0.950 . S
H452 C449 0.950 . S
C453 C444 1.390 . S
C453 H446 0.950 . S
C453 C450 1.387 . S
C454 C455 1.387 . S
C454 H458 0.950 . S
C454 C463 1.390 . S
C455 C454 1.387 . S
C455 C457 1.387 . S
H456 C463 0.950 . S
C457 C455 1.387 . S
C457 C459 1.390 . S
C457 H461 0.950 . S
H458 C454 0.950 . S
C459 C457 1.390 . S
C459 C460 1.387 . S
C459 H462 0.950 . S
C460 C459 1.387 . S
C460 C463 1.387 . S
H461 C457 0.950 . S
H462 C459 0.950 . S
C463 C454 1.390 . S
C463 H456 0.950 . S
C463 C460 1.387 . S
C464 C465 1.387 . S
C464 H468 0.950 . S
C464 C473 1.390 . S
C465 C464 1.387 . S
C465 C467 1.387 . S
H466 C473 0.950 . S
C467 C465 1.387 . S
C467 C469 1.390 . S
C467 H471 0.950 . S
H468 C464 0.950 . S
C469 C467 1.390 . S
C469 C470 1.387 . S
C469 H472 0.950 . S
C470 C469 1.387 . S
C470 C473 1.387 . S
H471 C467 0.950 . S
H472 C469 0.950 . S
C473 C464 1.390 . S
C473 H466 0.950 . S
C473 C470 1.387 . S
C474 C475 1.387 . S
C474 H478 0.950 . S
C474 C483 1.390 . S
C475 C474 1.387 . S
C475 C477 1.387 . S
H476 C483 0.950 . S
C477 C475 1.387 . S
C477 C479 1.390 . S
C477 H481 0.950 . S
H478 C474 0.950 . S
C479 C477 1.390 . S
C479 C480 1.387 . S
C479 H482 0.950 . S
C480 C479 1.387 . S
C480 C483 1.387 . S
H481 C477 0.950 . S
H482 C479 0.950 . S
C483 C474 1.390 . S
C483 H476 0.950 . S
C483 C480 1.387 . S
C484 C485 1.387 . S
C484 H488 0.950 . S
C484 C493 1.390 . S
C485 C484 1.387 . S
C485 C487 1.387 . S
H486 C493 0.950 . S
C487 C485 1.387 . S
C487 C489 1.390 . S
C487 H491 0.950 . S
H488 C484 0.950 . S
C489 C487 1.390 . S
C489 C490 1.387 . S
C489 H492 0.950 . S
C490 C489 1.387 . S
C490 C493 1.387 . S
H491 C487 0.950 . S
H492 C489 0.950 . S
C493 C484 1.390 . S
C493 H486 0.950 . S
C493 C490 1.387 . S
C494 C495 1.387 . S
C494 H498 0.950 . S
C494 C503 1.390 . S
C495 C494 1.387 . S
C495 C497 1.387 . S
H496 C503 0.950 . S
C497 C495 1.387 . S
C497 C499 1.390 . S
C497 H501 0.950 . S
H498 C494 0.950 . S
C499 C497 1.390 . S
C499 C500 1.387 . S
C499 H502 0.950 . S
C500 C499 1.387 . S
C500 C503 1.387 . S
H501 C497 0.950 . S
H502 C499 0.950 . S
C503 C494 1.390 . S
C503 H496 0.950 . S
C503 C500 1.387 . S
C504 C505 1.387 . S
C504 H508 0.950 . S
C504 C513 1.390 . S
C505 C504 1.387 . S
C505 C507 1.387 . S
H506 C513 0.950 . S
C507 C505 1.387 . S
C507 C509 1.390 . S
C507 H511 0.950 . S
H508 C504 0.950 . S
C509 C507 1.390 . S
C509 C510 1.387 . S
C509 H512 0.950 . S
C510 C509 1.387 . S
C510 C513 1.387 . S
H511 C507 0.950 . S
H512 C509 0.950 . S
C513 C504 1.390 . S
C513 H506 0.950 . S
C513 C510 1.387 . S
C514 C515 1.387 . S
C514 H518 0.950 . S
C514 C523 1.390 . S
C515 C514 1.387 . S
C515 C517 1.387 . S
H516 C523 0.950 . S
C517 C515 1.387 . S
C517 C519 1.390 . S
C517 H521 0.950 . S
H518 C514 0.950 . S
C519 C517 1.390 . S
C519 C520 1.387 . S
C519 H522 0.950 . S
C520 C519 1.387 . S
C520 C523 1.387 . S
H521 C517 0.950 . S
H522 C519 0.950 . S
C523 C514 1.390 . S
C523 H516 0.950 . S
C523 C520 1.387 . S
C524 C525 1.387 . S
C524 H528 0.950 . S
C524 C533 1.390 . S
C525 C524 1.387 . S
C525 C527 1.387 . S
H526 C533 0.950 . S
C527 C525 1.387 . S
C527 C529 1.390 . S
C527 H531 0.950 . S
H528 C524 0.950 . S
C529 C527 1.390 . S
C529 C530 1.387 . S
C529 H532 0.950 . S
C530 C529 1.387 . S
C530 C533 1.387 . S
H531 C527 0.950 . S
H532 C529 0.950 . S
C533 C524 1.390 . S
C533 H526 0.950 . S
C533 C530 1.387 . S
C534 C535 1.387 . S
C534 H538 0.950 . S
C534 C543 1.390 . S
C535 C534 1.387 . S
C535 C537 1.387 . S
H536 C543 0.950 . S
C537 C535 1.387 . S
C537 C539 1.390 . S
C537 H541 0.950 . S
H538 C534 0.950 . S
C539 C537 1.390 . S
C539 C540 1.387 . S
C539 H542 0.950 . S
C540 C539 1.387 . S
C540 C543 1.387 . S
H541 C537 0.950 . S
H542 C539 0.950 . S
C543 C534 1.390 . S
C543 H536 0.950 . S
C543 C540 1.387 . S
C225 C203 1.492 . S
C230 C7 1.492 . S
C235 C34 1.491 . S
C240 C6 1.491 . S
C245 C160 1.491 . S
C250 C20 1.491 . S
C255 C21 1.489 . S
C260 C105 1.489 . S
C265 C35 1.489 . S
C270 C175 1.489 . S
C275 C132 1.489 . S
C280 C48 1.489 . S
C285 C49 1.492 . S
C290 C77 1.492 . S
C295 C147 1.490 . S
C300 C63 1.490 . S
C305 C62 1.491 . S
C310 C90 1.491 . S
C315 C216 1.491 . S
C320 C76 1.491 . S
C325 C119 1.491 . S
C330 C91 1.491 . S
C335 C188 1.491 . S
C340 C104 1.491 . S
C345 C118 1.489 . S
C350 C146 1.489 . S
C355 C217 1.491 . S
C360 C133 1.491 . S
C365 C161 1.489 . S
C370 C189 1.489 . S
C375 C202 1.489 . S
C380 C174 1.489 . S
C385 C79 1.661 . S
C390 C8 1.661 1_565 S
C395 C9 1.660 . S
C400 C78 1.660 . S
C405 C23 1.660 . S
C410 C64 1.660 . S
C415 C65 1.660 . S
C420 C22 1.660 1_565 S
C425 C107 1.660 . S
C430 C36 1.660 1_545 S
C435 C106 1.661 . S
C440 C37 1.661 . S
C445 C92 1.660 . S
C450 C51 1.660 . S
C455 C50 1.660 1_545 S
C460 C93 1.660 . S
C465 C191 1.660 . S
C470 C120 1.660 1_565 S
C475 C121 1.661 . S
C480 C190 1.661 . S
C485 C135 1.661 . S
C490 C176 1.661 . S
C495 C177 1.661 . S
C500 C134 1.661 1_565 S
C505 C219 1.660 . S
C510 C148 1.660 1_545 S
C515 C218 1.661 . S
C520 C149 1.661 . S
C525 C163 1.661 . S
C530 C204 1.661 . S
C535 C205 1.660 . S
C540 C162 1.661 1_545 S
