# Generated by pormake.
# Topology snp, (6)-cn, num edge types: 1
# Building blocks:
#     Node 0, Type 0, BuildingBlock: BETDIP_clean_sbu_0, # of connection points: 6
#     Node 1, Type 0, BuildingBlock: BETDIP_clean_sbu_0, # of connection points: 6
#     Node 2, Type 0, BuildingBlock: BETDIP_clean_sbu_0, # of connection points: 6
#     Node 3, Type 0, BuildingBlock: BETDIP_clean_sbu_0, # of connection points: 6
#     Edge 4, Type (0, 0), BuildingBlock: FUNLAD_clean_linker_0, # of connection points: 2
#     Edge 5, Type (0, 0), BuildingBlock: FUNLAD_clean_linker_0, # of connection points: 2
#     Edge 6, Type (0, 0), BuildingBlock: FUNLAD_clean_linker_0, # of connection points: 2
#     Edge 7, Type (0, 0), BuildingBlock: FUNLAD_clean_linker_0, # of connection points: 2
#     Edge 8, Type (0, 0), BuildingBlock: FUNLAD_clean_linker_0, # of connection points: 2
#     Edge 9, Type (0, 0), BuildingBlock: FUNLAD_clean_linker_0, # of connection points: 2
#     Edge 10, Type (0, 0), BuildingBlock: FUNLAD_clean_linker_0, # of connection points: 2
#     Edge 11, Type (0, 0), BuildingBlock: FUNLAD_clean_linker_0, # of connection points: 2
#     Edge 12, Type (0, 0), BuildingBlock: FUNLAD_clean_linker_0, # of connection points: 2
#     Edge 13, Type (0, 0), BuildingBlock: FUNLAD_clean_linker_0, # of connection points: 2
#     Edge 14, Type (0, 0), BuildingBlock: FUNLAD_clean_linker_0, # of connection points: 2
#     Edge 15, Type (0, 0), BuildingBlock: FUNLAD_clean_linker_0, # of connection points: 2
# Relax obj value: 0.612
# Max RMSD: 0.181
# Mean RMSD: 0.171
data_MOF--net-snp--node1-BETDIP_clean_sbu_0--edge1-FUNLAD_clean_linker_0
_symmetry_space_group_name_H-M    P1
_symmetry_Int_Tables_number       1
_symmetry_cell_setting            triclinic
loop_
_symmetry_equiv_pos_as_xyz
'x, y, z'
_cell_length_a     28.534673
_cell_length_b     28.461089
_cell_length_c     33.804981
_cell_angle_alpha  92.209084
_cell_angle_beta   89.995508
_cell_angle_gamma 102.70258
loop_
_atom_site_label
_atom_site_type_symbol
_atom_site_fract_x
_atom_site_fract_y
_atom_site_fract_z
_atom_type_partial_charge
Tb0 Tb 0.2796 0.06599 0.15011 0.0
Tb1 Tb 0.26055 0.1543 1.13211 0.0
C2 C 0.32242 1.00238 0.17131 0.0
C3 C 0.35177 0.99203 0.20399 0.0
C4 C 0.38532 0.96366 0.19607 0.0
C5 C 0.41334 0.95231 0.22659 0.0
C6 C 0.40818 0.96921 0.26559 0.0
C7 C 0.37522 0.99873 0.27318 0.0
C8 C 0.34733 0.01019 0.24257 0.0
C9 C 0.18695 0.05502 0.14173 0.0
C10 C 0.25171 0.13715 0.22172 0.0
C11 C 0.2433 0.23105 1.10717 0.0
C12 C 0.27152 0.27011 1.08405 0.0
C13 C 0.29559 0.25993 1.04966 0.0
C14 C 0.32331 0.29728 1.0287 0.0
C15 C 0.32813 0.34565 1.04192 0.0
C16 C 0.30458 0.35564 1.07679 0.0
C17 C 0.27645 0.31818 1.09758 0.0
C18 C 0.35514 0.15382 0.13904 0.0
C19 C 0.24811 0.07462 1.06068 0.0
O20 O 0.34221 0.03913 0.15062 0.0
O21 O 0.2771 1.00099 0.17828 0.0
O22 O 0.215 0.09189 0.15773 0.0
O23 O 0.21203 0.02555 1.12758 0.0
O24 O 0.27681 0.1035 0.21164 0.0
O25 O 0.23362 0.1573 0.19263 0.0
O26 O 0.22909 0.18896 1.08895 0.0
O27 O 0.26012 0.2274 0.14246 0.0
O28 O 0.32271 0.12394 1.1211 0.0
O29 O 0.33496 0.18632 0.15421 0.0
O30 O 0.23752 0.11532 1.07441 0.0
O31 O 0.27005 0.0503 1.08491 0.0
H32 H 0.38953 0.94988 0.16625 0.0
H33 H 0.43869 0.92996 0.21972 0.0
H34 H 0.36977 0.0117 0.30299 0.0
H35 H 0.32184 0.03251 0.24912 0.0
H36 H 0.2929 0.22312 1.03878 0.0
H37 H 0.33999 0.28816 1.00155 0.0
H38 H 0.30787 0.39236 1.08805 0.0
H39 H 0.2587 0.32673 1.12439 0.0
Tb40 Tb 0.01444 0.28387 0.61885 0.0
Tb41 Tb 0.113 0.3135 0.64692 0.0
C42 C 0.92839 0.28981 0.61031 0.0
C43 C 0.90031 0.31672 0.58704 0.0
C44 C 0.91536 0.36669 0.58286 0.0
C45 C 0.88797 0.3913 0.56053 0.0
C46 C 0.84519 0.36634 0.54179 0.0
C47 C 0.82991 0.31644 0.54676 0.0
C48 C 0.85716 0.29196 0.56925 0.0
C49 C 0.05763 0.21144 0.61728 0.0
C50 C 0.09341 0.2887 0.5526 0.0
C51 C 0.20205 0.33466 0.66078 0.0
C52 C 0.23248 0.3666 0.69008 0.0
C53 C 0.2116 0.38764 0.72168 0.0
C54 C 0.24055 0.41712 0.75012 0.0
C55 C 0.29095 0.42616 0.74745 0.0
C56 C 0.31166 0.40603 0.71501 0.0
C57 C 0.28256 0.37647 0.68649 0.0
C58 C 0.06602 0.38498 0.64761 0.0
C59 C 0.03612 0.27306 0.71316 0.0
O60 O 0.9577 0.31483 0.63706 0.0
O61 O 0.94743 0.25813 0.59081 0.0
O62 O 0.06371 0.24632 0.64237 0.0
O63 O 0.01991 0.21265 0.59614 0.0
O64 O 0.04803 0.29199 0.55916 0.0
O65 O 0.12344 0.29273 0.58336 0.0
O66 O 0.1728 0.29707 0.67474 0.0
O67 O 0.18081 0.35645 0.63525 0.0
O68 O 0.06456 0.35279 0.62028 0.0
O69 O 0.09388 0.37673 0.67534 0.0
O70 O 0.08264 0.2898 0.70579 0.0
O71 O 0.00443 0.26799 0.68333 0.0
H72 H 0.94838 0.38671 0.59659 0.0
H73 H 0.90058 0.42976 0.55758 0.0
H74 H 0.79771 0.29586 0.53213 0.0
H75 H 0.84486 0.25345 0.57229 0.0
H76 H 0.17292 0.38045 0.72479 0.0
H77 H 0.22336 0.43116 0.7751 0.0
H78 H 0.35032 0.41251 0.71203 0.0
H79 H 0.29913 0.36081 0.66197 0.0
Tb80 Tb 0.88176 0.16061 0.16086 0.0
Tb81 Tb 0.86157 0.06092 1.13116 0.0
C82 C 0.86572 0.24351 0.17177 0.0
C83 C 0.83496 0.26473 0.19857 0.0
C84 C 0.82179 0.30754 0.18898 0.0
C85 C 0.7926 0.32814 0.21447 0.0
C86 C 0.77627 0.30621 0.25002 0.0
C87 C 0.78863 0.26243 0.25878 0.0
C88 C 0.81746 0.24177 0.23318 0.0
C89 C 0.95887 0.12434 0.16189 0.0
C90 C 0.8807 0.08305 0.22585 0.0
C91 C 0.84931 0.97132 1.11802 0.0
C92 C 0.81997 0.93407 1.09176 0.0
C93 C 0.80748 0.94444 1.0535 0.0
C94 C 0.78162 0.90784 1.02832 0.0
C95 C 0.76736 0.86028 1.0411 0.0
C96 C 0.7783 0.85064 1.08011 0.0
C97 C 0.80451 0.88725 1.10517 0.0
C98 C 0.78537 0.10091 1.1297 0.0
C99 C 0.89918 0.13901 1.06626 0.0
O100 O 0.84262 0.21161 0.14574 0.0
O101 O 0.90171 0.22958 0.18814 0.0
O102 O 0.92503 0.11545 0.13672 0.0
O103 O 0.95326 0.161 0.18413 0.0
O104 O 0.87436 0.12746 0.22011 0.0
O105 O 0.88031 0.05309 0.19457 0.0
O106 O 0.88286 1.00315 1.10142 0.0
O107 O 0.82566 0.99094 0.14461 0.0
O108 O 0.81625 0.10571 0.15753 0.0
O109 O 0.79708 0.07268 1.10244 0.0
O110 O 0.88641 0.09202 1.07306 0.0
O111 O 0.89975 0.17104 1.09643 0.0
H112 H 0.8344 0.32522 0.16194 0.0
H113 H 0.78332 0.36148 0.20656 0.0
H114 H 0.77756 0.24488 0.28616 0.0
H115 H 0.82677 0.20829 0.24074 0.0
H116 H 0.81869 0.98054 1.04275 0.0
H117 H 0.77462 0.91653 0.9983 0.0
H118 H 0.76737 0.81465 1.09108 0.0
H119 H 0.81339 0.87885 0.13486 0.0
Tb120 Tb 0.00613 0.90373 0.63984 0.0
Tb121 Tb 0.10486 0.90883 0.61609 0.0
C122 C 0.92116 0.87435 0.66176 0.0
C123 C 0.8969 0.84224 0.69192 0.0
C124 C 0.91777 0.80606 0.70658 0.0
C125 C 0.89413 0.77562 0.73523 0.0
C126 C 0.84944 0.78118 0.74994 0.0
C127 C 0.82854 0.8172 0.73466 0.0
C128 C 0.85207 0.84736 0.70584 0.0
C129 C 0.05707 0.9916 0.62628 0.0
C130 C 0.08344 0.92232 0.71058 0.0
C131 C 0.19418 0.91951 0.60906 0.0
C132 C 0.22944 0.90153 0.58472 0.0
C133 C 0.22042 0.88766 0.54476 0.0
C134 C 0.25526 0.87154 0.52227 0.0
C135 C 0.29949 0.86866 0.53949 0.0
C136 C 0.30762 0.88134 0.57989 0.0
C137 C 0.27287 0.8977 0.60226 0.0
C138 C 0.04958 0.81985 0.60714 0.0
C139 C 0.0299 0.92288 0.54855 0.0
O140 O 0.94118 0.85335 0.63324 0.0
O141 O 0.94851 0.91526 0.67476 0.0
O142 O 0.06916 0.95795 0.64289 0.0
O143 O 0.01209 0.97698 0.61638 0.0
O144 O 0.03682 0.91104 0.70112 0.0
O145 O 0.11566 0.9254 0.68158 0.0
O146 O 0.16924 0.947 0.59219 0.0
O147 O 0.16794 0.88782 0.63154 0.0
O148 O 0.04928 0.84958 0.63603 0.0
O149 O 0.08034 0.84116 0.58203 0.0
O150 O 0.07623 0.93319 0.55974 0.0
O151 O 0.99713 0.90264 0.5744 0.0
H152 H 0.95241 0.8015 0.69601 0.0
H153 H 0.91105 0.74806 0.74611 0.0
H154 H 0.79471 0.82321 0.74588 0.0
H155 H 0.83551 0.87512 0.69476 0.0
H156 H 0.18685 0.88999 0.53084 0.0
H157 H 0.24811 0.86287 0.49108 0.0
H158 H 0.34099 0.87906 0.59414 0.0
H159 H 0.28007 0.90777 0.63328 0.0
C160 C 0.99558 0.09011 0.21761 0.0
C161 C 0.98033 0.08637 0.17783 0.0
C162 C 0.99923 0.04888 0.23734 0.0
C163 C 0.98871 1.00377 0.21732 0.0
C164 C 0.97858 1.0008 0.17659 0.0
C165 C 0.9751 0.04206 0.15684 0.0
C166 C 0.99561 0.96068 0.23745 0.0
C167 C 0.03648 0.94522 0.23284 0.0
C168 C 0.07606 0.97289 0.20957 0.0
C169 C 0.10028 0.01886 0.22358 0.0
C170 C 0.13237 0.04858 0.19935 0.0
C171 C 0.14234 0.03196 0.16135 0.0
H172 H 0.06438 0.92224 0.15938 0.0
C173 C 0.11693 0.98639 0.14698 0.0
C174 C 0.08397 0.95704 0.17098 0.0
H175 H 0.12424 0.9726 1.11784 0.0
H176 H 1.00081 0.12409 0.23438 0.0
H177 H 0.0095 0.05202 0.26834 0.0
H178 H 0.97302 0.96651 0.16023 0.0
H179 H 0.96579 0.03899 1.12572 0.0
H180 H 0.96681 0.94073 0.25518 0.0
H181 H 0.04016 0.9118 0.24562 0.0
H182 H 0.09382 0.03194 0.25316 0.0
H183 H 0.15123 0.08346 0.21115 0.0
C184 C 0.1397 0.04022 0.62381 0.0
C185 C 0.0936 0.02741 0.60652 0.0
C186 C 0.17894 0.06327 0.60204 0.0
C187 C 0.17286 0.07339 0.56249 0.0
C188 C 0.12671 0.06139 0.54527 0.0
C189 C 0.08699 0.03993 0.56759 0.0
C190 C 0.21299 0.1049 0.54213 0.0
C191 C 0.21663 0.15283 0.54266 0.0
C192 C 0.1786 0.17373 0.56104 0.0
C193 C 0.18126 0.1873 0.60146 0.0
C194 C 0.14088 0.19691 0.62087 0.0
C195 C 0.0974 0.19231 0.60014 0.0
H196 H 0.13235 0.15777 0.50942 0.0
C197 C 0.09458 0.17673 0.56011 0.0
C198 C 0.13525 0.16925 0.54043 0.0
H199 H 0.06153 0.17273 0.5433 0.0
H200 H 0.14569 0.0307 0.65384 0.0
H201 H 0.21399 0.07356 0.61616 0.0
H202 H 0.1213 0.06983 0.51488 0.0
H203 H 0.05178 0.03064 0.55381 0.0
H204 H 0.24163 0.08967 0.52957 0.0
H205 H 0.24758 0.17626 0.52976 0.0
H206 H 0.21406 0.18909 0.61813 0.0
H207 H 0.14356 0.20798 0.65191 0.0
C208 C 0.71599 0.13061 0.16455 0.0
C209 C 0.73584 0.11161 1.1309 0.0
C210 C 0.66768 0.13637 0.16419 0.0
C211 C 0.6381 0.1233 1.13005 0.0
C212 C 0.65885 0.10541 1.09656 0.0
C213 C 0.70644 0.09982 1.09693 0.0
C214 C 0.58548 0.12556 1.12709 0.0
C215 C 0.5598 0.14645 0.15374 0.0
C216 C 0.5071 0.14784 0.14857 0.0
C217 C 0.48775 0.1814 0.17149 0.0
C218 C 0.43898 0.18368 0.1681 0.0
C219 C 0.40747 0.15204 0.14197 0.0
H220 H 0.48754 0.08876 1.10465 0.0
C221 C 0.42651 0.11832 1.11908 0.0
C222 C 0.47533 0.1161 1.12235 0.0
H223 H 0.40353 0.09337 1.09856 0.0
H224 H 0.73739 0.14016 0.19131 0.0
H225 H 0.65359 0.15015 0.19084 0.0
H226 H 0.63786 0.09504 1.06966 0.0
H227 H 0.72003 0.08535 1.07027 0.0
H228 H 0.56718 0.10966 1.10007 0.0
H229 H 0.57818 0.16484 0.17994 0.0
H230 H 0.51058 0.20628 0.19217 0.0
H231 H 0.42582 0.21007 0.18633 0.0
C232 C 0.04327 0.45241 0.60837 0.0
C233 C 0.05398 0.43368 0.64448 0.0
C234 C 0.03699 0.50041 0.60672 0.0
C235 C 0.04119 0.531 0.64127 0.0
C236 C 0.05049 0.51126 0.67722 0.0
C237 C 0.0569 0.46385 0.67879 0.0
C238 C 0.037 0.5834 0.64218 0.0
C239 C 0.03448 0.6103 0.61018 0.0
C240 C 0.03428 0.66375 0.61135 0.0
C241 C 0.0407 0.68804 0.57557 0.0
C242 C 0.04345 0.73789 0.57451 0.0
C243 C 0.03945 0.76576 0.60915 0.0
H244 H 0.02265 0.67468 0.67441 0.0
C245 C 0.03108 0.7416 0.64498 0.0
C246 C 0.02859 0.69135 0.64613 0.0
H247 H 0.028 0.76175 0.67233 0.0
H248 H 0.04084 0.4304 0.58128 0.0
H249 H 0.02921 0.51321 0.5783 0.0
H250 H 0.05373 0.53301 0.70452 0.0
H251 H 0.06497 0.45097 0.70719 0.0
H252 H 0.03821 0.60107 0.67127 0.0
H253 H 0.03483 0.59313 0.58102 0.0
H254 H 0.04484 0.66852 0.5481 0.0
H255 H 0.04991 0.75495 0.54632 0.0
C256 C 0.15914 0.27649 0.50211 0.0
C257 C 0.10991 0.27343 0.51125 0.0
C258 C 0.17419 0.25719 0.4657 0.0
C259 C 0.14071 0.23304 0.43662 0.0
C260 C 0.09167 0.23047 0.44575 0.0
C261 C 0.07672 0.25046 0.48169 0.0
C262 C 0.15417 0.20785 0.39789 0.0
C263 C 0.19779 0.21684 0.37872 0.0
C264 C 0.21086 0.19339 0.33907 0.0
C265 C 0.24929 0.21861 0.31624 0.0
C266 C 0.2635 0.19939 0.27978 0.0
C267 C 0.24145 0.15289 0.26448 0.0
H268 H 0.15921 0.12506 0.34 0.0
C269 C 0.20354 0.12686 0.28757 0.0
C270 C 0.18841 0.14666 0.32384 0.0
H271 H 0.18454 0.09137 0.27715 0.0
H272 H 0.18642 0.29297 0.52371 0.0
H273 H 0.2122 0.25991 0.46111 0.0
H274 H 0.0642 0.21221 0.42492 0.0
H275 H 0.0386 0.24612 0.48693 0.0
H276 H 0.12523 0.18151 0.38356 0.0
H277 H 0.22579 0.24543 0.39166 0.0
H278 H 0.26808 0.25442 0.32622 0.0
H279 H 0.29169 0.22166 0.26302 0.0
C280 C 0.04679 0.26699 0.78959 0.0
C281 C 0.01847 0.25572 0.7545 0.0
C282 C 0.02925 0.24994 0.82737 0.0
C283 C 0.9828 0.22004 0.83174 0.0
C284 C 0.95502 0.20877 0.79657 0.0
C285 C 0.97203 0.22643 0.75928 0.0
C286 C 0.96215 0.19764 0.87092 0.0
C287 C 0.97553 0.21408 0.909 0.0
C288 C 0.95319 0.19296 0.94811 0.0
C289 C 0.95989 0.22239 0.98328 0.0
C290 C 0.94194 0.20517 1.02048 0.0
C291 C 0.91696 0.15696 1.02512 0.0
H292 H 0.92176 0.11997 0.92682 0.0
C293 C 0.91032 0.12705 0.99003 0.0
C294 C 0.92763 0.14468 0.95238 0.0
H295 H 0.89156 0.08972 0.99156 0.0
H296 H 0.08272 0.28922 0.78794 0.0
H297 H 0.05268 0.25947 0.85295 0.0
H298 H 0.91934 0.18589 0.79783 0.0
H299 H 0.94854 0.21622 0.73377 0.0
H300 H 0.93219 0.16672 0.86778 0.0
H301 H 1.0034 0.24681 0.91215 0.0
H302 H 0.97934 0.25955 0.9821 0.0
H303 H 0.94848 0.22995 1.04601 0.0
C304 C 0.04086 0.97059 0.48264 0.0
C305 C 0.01213 0.93778 0.50835 0.0
C306 C 0.02151 0.9868 0.44767 0.0
C307 C 0.9727 0.96979 0.43596 0.0
C308 C 0.94479 0.93603 0.46107 0.0
C309 C 0.96358 0.92112 0.4963 0.0
C310 C 0.94966 0.98252 0.39718 0.0
C311 C 0.96031 0.02528 0.37766 0.0
C312 C 0.93503 0.03825 0.34003 0.0
C313 C 0.93804 0.08729 0.33146 0.0
C314 C 0.91822 0.10157 0.29626 0.0
C315 C 0.89517 0.06763 0.26683 0.0
H316 H 0.90744 0.96604 0.3154 0.0
C317 C 0.89156 0.01844 0.2755 0.0
C318 C 0.91052 1.00409 0.31122 0.0
H319 H 0.87499 0.99059 0.25397 0.0
H320 H 0.07844 0.98439 0.48974 0.0
H321 H 0.0452 0.01191 0.42939 0.0
H322 H 0.90742 0.92114 0.45363 0.0
H323 H 0.93943 0.89599 0.51427 0.0
H324 H 0.91958 0.95526 0.38549 0.0
H325 H 0.98803 0.05389 0.39095 0.0
H326 H 0.95657 0.11526 0.35212 0.0
H327 H 0.92298 0.13968 0.29133 0.0
C328 C 0.14885 0.94598 0.76572 0.0
C329 C 0.10001 0.93781 0.75348 0.0
C330 C 0.16421 0.96306 0.80497 0.0
C331 C 0.1315 0.97356 0.83377 0.0
C332 C 0.08283 0.96523 0.82139 0.0
C333 C 0.06744 0.94746 0.78257 0.0
C334 C 0.14589 0.99551 0.8758 0.0
C335 C 0.18675 0.99399 0.89692 0.0
C336 C 0.20026 0.01497 0.93936 0.0
C337 C 0.23434 0.99744 0.96175 0.0
C338 C 0.24937 0.0162 1.00043 0.0
C339 C 0.232 0.05446 1.01867 0.0
H340 H 0.15683 0.06864 0.94205 0.0
C341 C 0.19819 0.07248 0.99623 0.0
C342 C 0.18241 0.05303 0.95769 0.0
H343 H 0.18343 0.10172 1.0086 0.0
H344 H 0.17563 0.93956 0.74473 0.0
H345 H 0.20205 0.96922 0.81225 0.0
H346 H 0.05611 0.97281 0.84198 0.0
H347 H 0.0297 0.94237 0.77513 0.0
H348 H 0.11978 0.0124 0.8907 0.0
H349 H 0.21141 0.97436 0.88311 0.0
H350 H 0.24954 0.96854 0.94925 0.0
H351 H 0.27523 1.0008 1.01597 0.0
C352 C 0.76111 0.77677 1.01177 0.0
C353 C 0.74587 0.82056 1.01235 0.0
C354 C 0.75032 0.74416 0.97938 0.0
C355 C 0.72495 0.75532 0.94659 0.0
C356 C 0.7045 0.79589 0.94962 0.0
C357 C 0.71486 0.82824 0.98216 0.0
C358 C 0.72661 0.73177 0.90672 0.0
C359 C 0.76402 0.71265 0.8954 0.0
C360 C 0.78357 0.7176 0.85471 0.0
C361 C 0.75495 0.72085 0.82148 0.0
C362 C 0.77639 0.73847 0.78625 0.0
C363 C 0.82669 0.75292 0.78362 0.0
H364 H 0.85663 0.72442 0.87556 0.0
C365 C 0.85507 0.7448 0.81552 0.0
C366 C 0.83367 0.72698 0.85056 0.0
H367 H 0.89388 0.75549 0.81463 0.0
H368 H 0.7845 0.76921 1.03476 0.0
H369 H 0.76465 0.712 0.97918 0.0
H370 H 0.68386 0.80492 0.92525 0.0
H371 H 0.70103 0.86078 0.98243 0.0
H372 H 0.70379 0.74157 0.88418 0.0
H373 H 0.78815 0.70467 0.9177 0.0
H374 H 0.71614 0.71206 0.8231 0.0
H375 H 0.75355 0.74278 0.76168 0.0
C376 C 0.45067 0.98459 0.33125 0.0
C377 C 0.43379 0.95302 0.29887 0.0
C378 C 0.46512 0.96696 0.36608 0.0
C379 C 0.46265 0.91742 0.36934 0.0
C380 C 0.45158 0.88687 0.33532 0.0
C381 C 0.4369 0.90449 0.30049 0.0
C382 C 0.46276 0.89877 0.4098 0.0
C383 C 0.43526 0.85564 0.4189 0.0
C384 C 0.40696 0.84938 0.45599 0.0
C385 C 0.36123 0.81841 0.4542 0.0
C386 C 0.32712 0.82203 0.48305 0.0
C387 C 0.33821 0.85655 0.51441 0.0
H388 H 0.45558 0.90217 0.4936 0.0
C389 C 0.38577 0.88323 0.51886 0.0
C390 C 0.42001 0.87937 0.4901 0.0
H391 H 0.39579 0.90972 0.54297 0.0
H392 H 0.45017 0.02249 0.33044 0.0
H393 H 0.47436 0.99158 0.39155 0.0
H394 H 0.45132 0.84885 0.33604 0.0
H395 H 0.42474 0.87926 0.27587 0.0
H396 H 0.47454 0.92587 0.43326 0.0
H397 H 0.42271 0.82892 0.3953 0.0
H398 H 0.35038 0.7942 0.42869 0.0
H399 H 0.29124 0.79974 0.47954 0.0
C400 C 0.30811 0.4908 0.80145 0.0
C401 C 0.32103 0.4518 0.78082 0.0
C402 C 0.32842 0.50674 0.83849 0.0
C403 C 0.36213 0.48418 0.8556 0.0
C404 C 0.37889 0.44873 0.83289 0.0
C405 C 0.35852 0.4328 0.79589 0.0
C406 C 0.36963 0.48987 0.89922 0.0
C407 C 0.40226 0.47141 0.91867 0.0
C408 C 0.39191 0.44918 0.95778 0.0
C409 C 0.35513 0.45848 0.98271 0.0
C410 C 0.33639 0.42647 1.012 0.0
C411 C 0.35466 0.38515 1.01754 0.0
H412 H 0.44292 0.40365 0.94857 0.0
C413 C 0.3955 0.37955 0.9962 0.0
C414 C 0.41388 0.41124 0.96663 0.0
H415 H 0.41166 0.34911 1.00076 0.0
H416 H 0.28004 0.50693 0.79014 0.0
H417 H 0.31491 0.5342 0.85514 0.0
H418 H 0.4043 0.42974 0.84473 0.0
H419 H 0.36924 0.40259 0.78084 0.0
H420 H 0.34101 0.50117 0.91548 0.0
H421 H 0.43216 0.46267 0.90231 0.0
H422 H 0.33862 0.48865 0.97841 0.0
H423 H 0.3054 0.43245 1.02826 0.0
C424 C 0.76547 0.38075 0.28773 0.0
C425 C 0.75076 0.33078 0.27995 0.0
C426 C 0.75052 0.40205 0.32201 0.0
C427 C 0.72143 0.37345 0.34964 0.0
C428 C 0.7016 0.32493 0.33902 0.0
C429 C 0.71607 0.30379 0.30453 0.0
C430 C 0.71872 0.38909 0.39202 0.0
C431 C 0.75215 0.42503 0.40929 0.0
C432 C 0.77186 0.42058 0.44932 0.0
C433 C 0.74519 0.39256 0.47848 0.0
C434 C 0.76867 0.3777 0.51045 0.0
C435 C 0.81905 0.39078 0.51391 0.0
H436 H 0.84281 0.46028 0.43373 0.0
C437 C 0.84481 0.42327 0.48724 0.0
C438 C 0.82137 0.43825 0.45547 0.0
H439 H 0.8836 0.43422 0.48895 0.0
H440 H 0.79156 0.40296 0.26914 0.0
H441 H 0.76465 0.44015 0.32771 0.0
H442 H 0.67811 0.30212 0.35911 0.0
H443 H 0.70249 0.26555 0.29854 0.0
H444 H 0.69689 0.36274 0.41064 0.0
H445 H 0.77444 0.45137 0.39103 0.0
H446 H 0.70666 0.37996 0.4757 0.0
H447 H 0.74762 0.35402 0.53135 0.0
loop_
_geom_bond_atom_site_label_1
_geom_bond_atom_site_label_2
_geom_bond_distance
_geom_bond_site_symmetry_2
_ccdc_geom_bond_type
Tb0 C2 2.809 . S
Tb0 O20 2.484 . S
Tb0 O21 2.440 . S
Tb0 O22 2.658 . S
Tb0 O23 2.409 . S
Tb0 O24 2.378 . S
Tb0 O28 2.325 . S
Tb0 O31 2.341 1_554 S
Tb1 C11 2.809 . S
Tb1 O22 2.325 1_556 S
Tb1 O25 2.341 1_556 S
Tb1 O26 2.484 . S
Tb1 O27 2.440 . S
Tb1 O28 2.658 1_556 S
Tb1 O29 2.409 . S
Tb1 O30 2.378 . S
C2 Tb0 2.809 . S
C2 C3 1.514 . S
C2 O20 1.248 . S
C2 O21 1.266 . S
C3 C2 1.514 . S
C3 C4 1.359 . S
C3 C8 1.348 . S
C4 C3 1.359 . S
C4 C5 1.380 . S
C4 H32 0.929 . S
C5 C4 1.380 . S
C5 C6 1.347 . S
C5 H33 0.931 . S
C6 C5 1.347 . S
C6 C7 1.369 . S
C7 C6 1.369 . S
C7 C8 1.408 . S
C7 H34 0.930 . S
C8 C3 1.348 . S
C8 C7 1.408 . S
C8 H35 0.930 . S
C9 O22 1.281 . S
C9 O23 1.254 . S
C10 O24 1.236 . S
C10 O25 1.266 . S
C11 Tb1 2.809 . S
C11 C12 1.514 . S
C11 O26 1.248 . S
C11 O27 1.266 . S
C12 C11 1.514 . S
C12 C13 1.359 . S
C12 C17 1.348 . S
C13 C12 1.359 . S
C13 C14 1.380 . S
C13 H36 0.929 . S
C14 C13 1.380 . S
C14 C15 1.347 . S
C14 H37 0.931 . S
C15 C14 1.347 . S
C15 C16 1.369 . S
C16 C15 1.369 . S
C16 C17 1.408 . S
C16 H38 0.930 . S
C17 C12 1.348 . S
C17 C16 1.408 . S
C17 H39 0.930 . S
C18 O28 1.281 . S
C18 O29 1.254 1_554 S
C19 O30 1.236 . S
C19 O31 1.266 . S
O20 Tb0 2.484 . S
O20 C2 1.248 . S
O21 Tb0 2.440 . S
O21 C2 1.266 . S
O22 Tb0 2.658 . S
O22 Tb1 2.325 1_554 S
O22 C9 1.281 . S
O23 Tb0 2.409 . S
O23 C9 1.254 . S
O24 Tb0 2.378 . S
O24 C10 1.236 . S
O25 Tb1 2.341 1_554 S
O25 C10 1.266 . S
O26 Tb1 2.484 . S
O26 C11 1.248 . S
O27 Tb1 2.440 . S
O27 C11 1.266 . S
O28 Tb0 2.325 . S
O28 Tb1 2.658 1_554 S
O28 C18 1.281 . S
O29 Tb1 2.409 . S
O29 C18 1.254 1_556 S
O30 Tb1 2.378 . S
O30 C19 1.236 . S
O31 Tb0 2.341 1_556 S
O31 C19 1.266 . S
H32 C4 0.929 . S
H33 C5 0.931 . S
H34 C7 0.930 . S
H35 C8 0.930 . S
H36 C13 0.929 . S
H37 C14 0.931 . S
H38 C16 0.930 . S
H39 C17 0.930 . S
Tb40 C42 2.809 1_455 S
Tb40 O60 2.484 1_455 S
Tb40 O61 2.440 1_455 S
Tb40 O62 2.658 . S
Tb40 O63 2.409 . S
Tb40 O64 2.378 . S
Tb40 O68 2.325 . S
Tb40 O71 2.341 1_455 S
Tb41 C51 2.809 . S
Tb41 O62 2.325 . S
Tb41 O65 2.341 . S
Tb41 O66 2.484 . S
Tb41 O67 2.440 . S
Tb41 O68 2.658 . S
Tb41 O69 2.409 . S
Tb41 O70 2.378 . S
C42 Tb40 2.809 1_655 S
C42 C43 1.514 . S
C42 O60 1.248 . S
C42 O61 1.266 . S
C43 C42 1.514 . S
C43 C44 1.359 . S
C43 C48 1.348 . S
C44 C43 1.359 . S
C44 C45 1.380 . S
C44 H72 0.929 . S
C45 C44 1.380 . S
C45 C46 1.347 . S
C45 H73 0.931 . S
C46 C45 1.347 . S
C46 C47 1.369 . S
C47 C46 1.369 . S
C47 C48 1.408 . S
C47 H74 0.930 . S
C48 C43 1.348 . S
C48 C47 1.408 . S
C48 H75 0.930 . S
C49 O62 1.281 . S
C49 O63 1.254 . S
C50 O64 1.236 . S
C50 O65 1.266 . S
C51 Tb41 2.809 . S
C51 C52 1.514 . S
C51 O66 1.248 . S
C51 O67 1.266 . S
C52 C51 1.514 . S
C52 C53 1.359 . S
C52 C57 1.348 . S
C53 C52 1.359 . S
C53 C54 1.380 . S
C53 H76 0.929 . S
C54 C53 1.380 . S
C54 C55 1.347 . S
C54 H77 0.931 . S
C55 C54 1.347 . S
C55 C56 1.369 . S
C56 C55 1.369 . S
C56 C57 1.408 . S
C56 H78 0.930 . S
C57 C52 1.348 . S
C57 C56 1.408 . S
C57 H79 0.930 . S
C58 O68 1.281 . S
C58 O69 1.254 . S
C59 O70 1.236 . S
C59 O71 1.266 1_455 S
O60 Tb40 2.484 1_655 S
O60 C42 1.248 . S
O61 Tb40 2.440 1_655 S
O61 C42 1.266 . S
O62 Tb40 2.658 . S
O62 Tb41 2.325 . S
O62 C49 1.281 . S
O63 Tb40 2.409 . S
O63 C49 1.254 . S
O64 Tb40 2.378 . S
O64 C50 1.236 . S
O65 Tb41 2.341 . S
O65 C50 1.266 . S
O66 Tb41 2.484 . S
O66 C51 1.248 . S
O67 Tb41 2.440 . S
O67 C51 1.266 . S
O68 Tb40 2.325 . S
O68 Tb41 2.658 . S
O68 C58 1.281 . S
O69 Tb41 2.409 . S
O69 C58 1.254 . S
O70 Tb41 2.378 . S
O70 C59 1.236 . S
O71 Tb40 2.341 1_655 S
O71 C59 1.266 1_655 S
H72 C44 0.929 . S
H73 C45 0.931 . S
H74 C47 0.930 . S
H75 C48 0.930 . S
H76 C53 0.929 . S
H77 C54 0.931 . S
H78 C56 0.930 . S
H79 C57 0.930 . S
Tb80 C82 2.809 . S
Tb80 O100 2.484 . S
Tb80 O101 2.440 . S
Tb80 O102 2.658 1_554 S
Tb80 O103 2.409 . S
Tb80 O104 2.378 . S
Tb80 O108 2.325 . S
Tb80 O111 2.341 1_554 S
Tb81 C91 2.809 . S
Tb81 O102 2.325 1_565 S
Tb81 O105 2.341 1_556 S
Tb81 O106 2.484 . S
Tb81 O107 2.440 . S
Tb81 O108 2.658 1_566 S
Tb81 O109 2.409 . S
Tb81 O110 2.378 1_565 S
C82 Tb80 2.809 . S
C82 C83 1.514 . S
C82 O100 1.248 . S
C82 O101 1.266 . S
C83 C82 1.514 . S
C83 C84 1.359 . S
C83 C88 1.348 . S
C84 C83 1.359 . S
C84 C85 1.380 . S
C84 H112 0.929 . S
C85 C84 1.380 . S
C85 C86 1.347 . S
C85 H113 0.931 . S
C86 C85 1.347 . S
C86 C87 1.369 . S
C87 C86 1.369 . S
C87 C88 1.408 . S
C87 H114 0.930 . S
C88 C83 1.348 . S
C88 C87 1.408 . S
C88 H115 0.930 . S
C89 O102 1.281 1_554 S
C89 O103 1.254 . S
C90 O104 1.236 1_565 S
C90 O105 1.266 . S
C91 Tb81 2.809 . S
C91 C92 1.514 . S
C91 O106 1.248 . S
C91 O107 1.266 . S
C92 C91 1.514 . S
C92 C93 1.359 . S
C92 C97 1.348 . S
C93 C92 1.359 . S
C93 C94 1.380 . S
C93 H116 0.929 . S
C94 C93 1.380 . S
C94 C95 1.347 . S
C94 H117 0.931 . S
C95 C94 1.347 . S
C95 C96 1.369 . S
C96 C95 1.369 . S
C96 C97 1.408 . S
C96 H118 0.930 . S
C97 C92 1.348 . S
C97 C96 1.408 . S
C97 H119 0.930 . S
C98 O108 1.281 . S
C98 O109 1.254 1_544 S
C99 O110 1.236 . S
C99 O111 1.266 . S
O100 Tb80 2.484 . S
O100 C82 1.248 . S
O101 Tb80 2.440 . S
O101 C82 1.266 . S
O102 Tb80 2.658 1_556 S
O102 Tb81 2.325 1_545 S
O102 C89 1.281 1_556 S
O103 Tb80 2.409 . S
O103 C89 1.254 . S
O104 Tb80 2.378 . S
O104 C90 1.236 1_545 S
O105 Tb81 2.341 1_554 S
O105 C90 1.266 . S
O106 Tb81 2.484 . S
O106 C91 1.248 . S
O107 Tb81 2.440 . S
O107 C91 1.266 . S
O108 Tb80 2.325 . S
O108 Tb81 2.658 1_544 S
O108 C98 1.281 . S
O109 Tb81 2.409 . S
O109 C98 1.254 1_566 S
O110 Tb81 2.378 1_545 S
O110 C99 1.236 . S
O111 Tb80 2.341 1_556 S
O111 C99 1.266 . S
H112 C84 0.929 . S
H113 C85 0.931 . S
H114 C87 0.930 . S
H115 C88 0.930 . S
H116 C93 0.929 . S
H117 C94 0.931 . S
H118 C96 0.930 . S
H119 C97 0.930 . S
Tb120 C122 2.809 1_455 S
Tb120 O140 2.484 1_455 S
Tb120 O141 2.440 1_455 S
Tb120 O142 2.658 . S
Tb120 O143 2.409 . S
Tb120 O144 2.378 . S
Tb120 O148 2.325 . S
Tb120 O151 2.341 1_455 S
Tb121 C131 2.809 . S
Tb121 O142 2.325 . S
Tb121 O145 2.341 . S
Tb121 O146 2.484 . S
Tb121 O147 2.440 . S
Tb121 O148 2.658 . S
Tb121 O149 2.409 . S
Tb121 O150 2.378 . S
C122 Tb120 2.809 1_655 S
C122 C123 1.514 . S
C122 O140 1.248 . S
C122 O141 1.266 . S
C123 C122 1.514 . S
C123 C124 1.359 . S
C123 C128 1.348 . S
C124 C123 1.359 . S
C124 C125 1.380 . S
C124 H152 0.929 . S
C125 C124 1.380 . S
C125 C126 1.347 . S
C125 H153 0.931 . S
C126 C125 1.347 . S
C126 C127 1.369 . S
C127 C126 1.369 . S
C127 C128 1.408 . S
C127 H154 0.930 . S
C128 C123 1.348 . S
C128 C127 1.408 . S
C128 H155 0.930 . S
C129 O142 1.281 . S
C129 O143 1.254 . S
C130 O144 1.236 . S
C130 O145 1.266 . S
C131 Tb121 2.809 . S
C131 C132 1.514 . S
C131 O146 1.248 . S
C131 O147 1.266 . S
C132 C131 1.514 . S
C132 C133 1.359 . S
C132 C137 1.348 . S
C133 C132 1.359 . S
C133 C134 1.380 . S
C133 H156 0.929 . S
C134 C133 1.380 . S
C134 C135 1.347 . S
C134 H157 0.931 . S
C135 C134 1.347 . S
C135 C136 1.369 . S
C136 C135 1.369 . S
C136 C137 1.408 . S
C136 H158 0.930 . S
C137 C132 1.348 . S
C137 C136 1.408 . S
C137 H159 0.930 . S
C138 O148 1.281 . S
C138 O149 1.254 . S
C139 O150 1.236 . S
C139 O151 1.266 1_455 S
O140 Tb120 2.484 1_655 S
O140 C122 1.248 . S
O141 Tb120 2.440 1_655 S
O141 C122 1.266 . S
O142 Tb120 2.658 . S
O142 Tb121 2.325 . S
O142 C129 1.281 . S
O143 Tb120 2.409 . S
O143 C129 1.254 . S
O144 Tb120 2.378 . S
O144 C130 1.236 . S
O145 Tb121 2.341 . S
O145 C130 1.266 . S
O146 Tb121 2.484 . S
O146 C131 1.248 . S
O147 Tb121 2.440 . S
O147 C131 1.266 . S
O148 Tb120 2.325 . S
O148 Tb121 2.658 . S
O148 C138 1.281 . S
O149 Tb121 2.409 . S
O149 C138 1.254 . S
O150 Tb121 2.378 . S
O150 C139 1.236 . S
O151 Tb120 2.341 1_655 S
O151 C139 1.266 1_655 S
H152 C124 0.929 . S
H153 C125 0.931 . S
H154 C127 0.930 . S
H155 C128 0.930 . S
H156 C133 0.929 . S
H157 C134 0.931 . S
H158 C136 0.930 . S
H159 C137 0.930 . S
C160 C161 1.386 . S
C160 C162 1.383 . S
C160 H176 0.951 . S
C161 C160 1.386 . S
C161 C165 1.383 1_554 S
C162 C160 1.383 . S
C162 C163 1.402 1_654 S
C162 H177 0.951 1_655 S
C163 C162 1.402 1_456 S
C163 C164 1.375 1_455 S
C163 C166 1.481 . S
C164 C163 1.375 1_655 S
C164 C165 1.367 . S
C164 H178 0.951 . S
C165 C161 1.383 1_556 S
C165 C164 1.367 . S
C165 H179 0.950 . S
C166 C163 1.481 . S
C166 C167 1.297 1_556 S
C166 H180 0.950 . S
C167 C166 1.297 1_554 S
C167 C168 1.479 . S
C167 H181 0.950 . S
C168 C167 1.479 . S
C168 C169 1.375 . S
C168 C174 1.404 1_554 S
C169 C168 1.375 . S
C169 C170 1.369 . S
C169 H182 0.950 . S
C170 C169 1.369 . S
C170 C171 1.392 . S
C170 H183 0.951 . S
C171 C170 1.392 . S
C171 C173 1.384 1_554 S
H172 C174 0.949 . S
C173 C171 1.384 1_556 S
C173 C174 1.385 . S
C173 H175 0.950 . S
C174 C168 1.404 1_556 S
C174 H172 0.949 . S
C174 C173 1.385 . S
H175 C173 0.950 . S
H176 C160 0.951 . S
H177 C162 0.951 1_455 S
H178 C164 0.951 . S
H179 C165 0.950 . S
H180 C166 0.950 . S
H181 C167 0.950 . S
H182 C169 0.950 . S
H183 C170 0.951 . S
C184 C185 1.386 . S
C184 C186 1.383 1_565 S
C184 H200 0.951 . S
C185 C184 1.386 . S
C185 C189 1.383 . S
C186 C184 1.383 1_545 S
C186 C187 1.402 . S
C186 H201 0.951 . S
C187 C186 1.402 . S
C187 C188 1.375 1_545 S
C187 C190 1.481 . S
C188 C187 1.375 1_565 S
C188 C189 1.367 . S
C188 H202 0.958 1_455 S
C189 C185 1.383 . S
C189 C188 1.367 . S
C189 H203 0.950 . S
C190 C187 1.481 . S
C190 C191 1.297 . S
C190 H204 0.950 . S
C191 C190 1.297 . S
C191 C192 1.479 . S
C191 H205 0.950 . S
C192 C191 1.479 . S
C192 C193 1.375 . S
C192 C198 1.404 . S
C193 C192 1.375 . S
C193 C194 1.369 . S
C193 H206 0.950 . S
C194 C193 1.369 . S
C194 C195 1.392 . S
C194 H207 0.951 . S
C195 C194 1.392 . S
C195 C197 1.384 . S
H196 C198 0.949 . S
C197 C195 1.384 . S
C197 C198 1.385 . S
C197 H199 0.950 . S
C198 C192 1.404 . S
C198 H196 0.949 . S
C198 C197 1.385 . S
H199 C197 0.950 . S
H200 C184 0.951 . S
H201 C186 0.951 . S
H202 C188 0.958 1_655 S
H203 C189 0.950 . S
H204 C190 0.950 . S
H205 C191 0.950 . S
H206 C193 0.950 . S
H207 C194 0.951 . S
C208 C209 1.386 . S
C208 C210 1.383 . S
C208 H224 0.951 . S
C209 C208 1.386 . S
C209 C213 1.383 1_554 S
C210 C208 1.383 . S
C210 C211 1.402 . S
C210 H225 0.951 . S
C211 C210 1.402 . S
C211 C212 1.375 1_554 S
C211 C214 1.481 1_554 S
C212 C211 1.375 1_556 S
C212 C213 1.367 . S
C212 H226 0.951 . S
C213 C209 1.383 1_556 S
C213 C212 1.367 . S
C213 H227 0.950 . S
C214 C211 1.481 1_556 S
C214 C215 1.297 1_556 S
C214 H228 0.950 . S
C215 C214 1.297 1_554 S
C215 C216 1.479 . S
C215 H229 0.950 . S
C216 C215 1.479 . S
C216 C217 1.375 . S
C216 C222 1.404 1_554 S
C217 C216 1.375 . S
C217 C218 1.369 . S
C217 H230 0.950 . S
C218 C217 1.369 . S
C218 C219 1.392 . S
C218 H231 0.951 . S
C219 C218 1.392 . S
C219 C221 1.384 1_554 S
H220 C222 0.949 . S
C221 C219 1.384 1_556 S
C221 C222 1.385 . S
C221 H223 0.950 . S
C222 C216 1.404 1_556 S
C222 H220 0.949 . S
C222 C221 1.385 . S
H223 C221 0.950 . S
H224 C208 0.951 . S
H225 C210 0.951 . S
H226 C212 0.951 . S
H227 C213 0.950 . S
H228 C214 0.950 . S
H229 C215 0.950 . S
H230 C217 0.950 . S
H231 C218 0.951 . S
C232 C233 1.386 . S
C232 C234 1.383 . S
C232 H248 0.951 . S
C233 C232 1.386 . S
C233 C237 1.383 . S
C234 C232 1.383 . S
C234 C235 1.402 . S
C234 H249 0.951 . S
C235 C234 1.402 . S
C235 C236 1.375 . S
C235 C238 1.481 . S
C236 C235 1.375 . S
C236 C237 1.367 . S
C236 H250 0.951 1_455 S
C237 C233 1.383 . S
C237 C236 1.367 . S
C237 H251 0.950 1_455 S
C238 C235 1.481 . S
C238 C239 1.297 . S
C238 H252 0.950 . S
C239 C238 1.297 . S
C239 C240 1.479 . S
C239 H253 0.950 . S
C240 C239 1.479 . S
C240 C241 1.375 . S
C240 C246 1.404 . S
C241 C240 1.375 . S
C241 C242 1.369 . S
C241 H254 0.950 . S
C242 C241 1.369 . S
C242 C243 1.392 . S
C242 H255 0.951 . S
C243 C242 1.392 . S
C243 C245 1.384 . S
H244 C246 0.949 . S
C245 C243 1.384 . S
C245 C246 1.385 . S
C245 H247 0.931 1_455 S
C246 C240 1.404 . S
C246 H244 0.949 . S
C246 C245 1.385 . S
H247 C245 0.931 1_655 S
H248 C232 0.951 . S
H249 C234 0.951 . S
H250 C236 0.951 1_655 S
H251 C237 0.950 1_655 S
H252 C238 0.950 . S
H253 C239 0.950 . S
H254 C241 0.950 . S
H255 C242 0.951 . S
C256 C257 1.386 . S
C256 C258 1.383 . S
C256 H272 0.951 . S
C257 C256 1.386 . S
C257 C261 1.383 . S
C258 C256 1.383 . S
C258 C259 1.402 . S
C258 H273 0.951 . S
C259 C258 1.402 . S
C259 C260 1.375 . S
C259 C262 1.481 . S
C260 C259 1.375 . S
C260 C261 1.367 . S
C260 H274 0.951 . S
C261 C257 1.383 . S
C261 C260 1.367 . S
C261 H275 0.950 . S
C262 C259 1.481 . S
C262 C263 1.297 . S
C262 H276 0.950 . S
C263 C262 1.297 . S
C263 C264 1.479 . S
C263 H277 0.950 . S
C264 C263 1.479 . S
C264 C265 1.375 . S
C264 C270 1.404 . S
C265 C264 1.375 . S
C265 C266 1.369 . S
C265 H278 0.950 . S
C266 C265 1.369 . S
C266 C267 1.392 . S
C266 H279 0.951 . S
C267 C266 1.392 . S
C267 C269 1.384 . S
H268 C270 0.949 . S
C269 C267 1.384 . S
C269 C270 1.385 . S
C269 H271 0.950 . S
C270 C264 1.404 . S
C270 H268 0.949 . S
C270 C269 1.385 . S
H271 C269 0.950 . S
H272 C256 0.951 . S
H273 C258 0.951 . S
H274 C260 0.951 . S
H275 C261 0.950 . S
H276 C262 0.950 . S
H277 C263 0.950 . S
H278 C265 0.950 . S
H279 C266 0.951 . S
C280 C281 1.386 . S
C280 C282 1.383 . S
C280 H296 0.951 . S
C281 C280 1.386 . S
C281 C285 1.383 . S
C282 C280 1.383 . S
C282 C283 1.402 . S
C282 H297 0.951 . S
C283 C282 1.402 . S
C283 C284 1.375 . S
C283 C286 1.481 . S
C284 C283 1.375 . S
C284 C285 1.367 . S
C284 H298 0.951 . S
C285 C281 1.383 . S
C285 C284 1.367 . S
C285 H299 0.950 . S
C286 C283 1.481 . S
C286 C287 1.297 . S
C286 H300 0.950 . S
C287 C286 1.297 . S
C287 C288 1.479 . S
C287 H301 0.950 . S
C288 C287 1.479 . S
C288 C289 1.375 . S
C288 C294 1.404 . S
C289 C288 1.375 . S
C289 C290 1.369 . S
C289 H302 0.950 . S
C290 C289 1.369 . S
C290 C291 1.392 . S
C290 H303 0.951 . S
C291 C290 1.392 . S
C291 C293 1.384 . S
H292 C294 0.949 . S
C293 C291 1.384 . S
C293 C294 1.385 . S
C293 H295 0.950 . S
C294 C288 1.404 . S
C294 H292 0.949 . S
C294 C293 1.385 . S
H295 C293 0.950 . S
H296 C280 0.951 . S
H297 C282 0.951 . S
H298 C284 0.951 . S
H299 C285 0.950 . S
H300 C286 0.950 . S
H301 C287 0.950 . S
H302 C289 0.950 . S
H303 C290 0.951 . S
C304 C305 1.386 . S
C304 C306 1.383 . S
C304 H320 0.951 1_655 S
C305 C304 1.386 . S
C305 C309 1.383 . S
C306 C304 1.383 . S
C306 C307 1.402 . S
C306 H321 0.951 . S
C307 C306 1.402 . S
C307 C308 1.375 . S
C307 C310 1.481 . S
C308 C307 1.375 . S
C308 C309 1.367 . S
C308 H322 0.951 . S
C309 C305 1.383 . S
C309 C308 1.367 . S
C309 H323 0.950 . S
C310 C307 1.481 . S
C310 C311 1.297 . S
C310 H324 0.950 . S
C311 C310 1.297 . S
C311 C312 1.479 . S
C311 H325 0.950 . S
C312 C311 1.479 . S
C312 C313 1.375 . S
C312 C318 1.404 . S
C313 C312 1.375 . S
C313 C314 1.369 . S
C313 H326 0.950 . S
C314 C313 1.369 . S
C314 C315 1.392 . S
C314 H327 0.951 1_565 S
C315 C314 1.392 . S
C315 C317 1.384 . S
H316 C318 0.949 . S
C317 C315 1.384 . S
C317 C318 1.385 . S
C317 H319 0.950 . S
C318 C312 1.404 . S
C318 H316 0.949 . S
C318 C317 1.385 . S
H319 C317 0.950 . S
H320 C304 0.951 1_455 S
H321 C306 0.951 . S
H322 C308 0.951 . S
H323 C309 0.950 . S
H324 C310 0.950 . S
H325 C311 0.950 . S
H326 C313 0.950 . S
H327 C314 0.951 1_545 S
C328 C329 1.386 . S
C328 C330 1.383 . S
C328 H344 0.951 . S
C329 C328 1.386 . S
C329 C333 1.383 . S
C330 C328 1.383 . S
C330 C331 1.402 . S
C330 H345 0.951 . S
C331 C330 1.402 . S
C331 C332 1.375 . S
C331 C334 1.481 1_565 S
C332 C331 1.375 . S
C332 C333 1.367 . S
C332 H346 0.951 1_565 S
C333 C329 1.383 . S
C333 C332 1.367 . S
C333 H347 0.950 . S
C334 C331 1.481 1_545 S
C334 C335 1.297 . S
C334 H348 0.950 . S
C335 C334 1.297 . S
C335 C336 1.479 . S
C335 H349 0.950 . S
C336 C335 1.479 . S
C336 C337 1.375 . S
C336 C342 1.404 . S
C337 C336 1.375 . S
C337 C338 1.369 . S
C337 H350 0.950 . S
C338 C337 1.369 . S
C338 C339 1.392 . S
C338 H351 0.951 . S
C339 C338 1.392 . S
C339 C341 1.384 . S
H340 C342 0.949 . S
C341 C339 1.384 . S
C341 C342 1.385 . S
C341 H343 0.950 . S
C342 C336 1.404 . S
C342 H340 0.949 . S
C342 C341 1.385 . S
H343 C341 0.950 . S
H344 C328 0.951 . S
H345 C330 0.951 . S
H346 C332 0.951 1_545 S
H347 C333 0.950 . S
H348 C334 0.950 . S
H349 C335 0.950 . S
H350 C337 0.950 . S
H351 C338 0.951 . S
C352 C353 1.386 . S
C352 C354 1.383 . S
C352 H368 0.951 . S
C353 C352 1.386 . S
C353 C357 1.383 . S
C354 C352 1.383 . S
C354 C355 1.402 . S
C354 H369 0.951 . S
C355 C354 1.402 . S
C355 C356 1.375 . S
C355 C358 1.481 . S
C356 C355 1.375 . S
C356 C357 1.367 . S
C356 H370 0.951 . S
C357 C353 1.383 . S
C357 C356 1.367 . S
C357 H371 0.950 . S
C358 C355 1.481 . S
C358 C359 1.297 . S
C358 H372 0.950 . S
C359 C358 1.297 . S
C359 C360 1.479 . S
C359 H373 0.950 . S
C360 C359 1.479 . S
C360 C361 1.375 . S
C360 C366 1.404 . S
C361 C360 1.375 . S
C361 C362 1.369 . S
C361 H374 0.950 . S
C362 C361 1.369 . S
C362 C363 1.392 . S
C362 H375 0.951 . S
C363 C362 1.392 . S
C363 C365 1.384 . S
H364 C366 0.949 . S
C365 C363 1.384 . S
C365 C366 1.385 . S
C365 H367 0.950 . S
C366 C360 1.404 . S
C366 H364 0.949 . S
C366 C365 1.385 . S
H367 C365 0.950 . S
H368 C352 0.951 . S
H369 C354 0.951 . S
H370 C356 0.951 . S
H371 C357 0.950 . S
H372 C358 0.950 . S
H373 C359 0.950 . S
H374 C361 0.950 . S
H375 C362 0.951 . S
C376 C377 1.386 . S
C376 C378 1.383 . S
C376 H392 0.951 . S
C377 C376 1.386 . S
C377 C381 1.383 . S
C378 C376 1.383 . S
C378 C379 1.402 1_545 S
C378 H393 0.951 . S
C379 C378 1.402 1_565 S
C379 C380 1.375 1_565 S
C379 C382 1.481 . S
C380 C379 1.375 1_545 S
C380 C381 1.367 . S
C380 H394 0.951 1_545 S
C381 C377 1.383 . S
C381 C380 1.367 . S
C381 H395 0.950 . S
C382 C379 1.481 . S
C382 C383 1.297 . S
C382 H396 0.950 . S
C383 C382 1.297 . S
C383 C384 1.479 . S
C383 H397 0.950 . S
C384 C383 1.479 . S
C384 C385 1.375 . S
C384 C390 1.404 . S
C385 C384 1.375 . S
C385 C386 1.369 . S
C385 H398 0.950 . S
C386 C385 1.369 . S
C386 C387 1.392 . S
C386 H399 0.951 . S
C387 C386 1.392 . S
C387 C389 1.384 . S
H388 C390 0.949 . S
C389 C387 1.384 . S
C389 C390 1.385 . S
C389 H391 0.950 . S
C390 C384 1.404 . S
C390 H388 0.949 . S
C390 C389 1.385 . S
H391 C389 0.950 . S
H392 C376 0.951 . S
H393 C378 0.951 . S
H394 C380 0.951 1_565 S
H395 C381 0.950 . S
H396 C382 0.950 . S
H397 C383 0.950 . S
H398 C385 0.950 . S
H399 C386 0.951 . S
C400 C401 1.386 . S
C400 C402 1.383 . S
C400 H416 0.951 . S
C401 C400 1.386 . S
C401 C405 1.383 . S
C402 C400 1.383 . S
C402 C403 1.402 . S
C402 H417 0.951 . S
C403 C402 1.402 . S
C403 C404 1.375 . S
C403 C406 1.481 . S
C404 C403 1.375 . S
C404 C405 1.367 . S
C404 H418 0.951 . S
C405 C401 1.383 . S
C405 C404 1.367 . S
C405 H419 0.950 . S
C406 C403 1.481 . S
C406 C407 1.297 . S
C406 H420 0.950 . S
C407 C406 1.297 . S
C407 C408 1.479 . S
C407 H421 0.950 . S
C408 C407 1.479 . S
C408 C409 1.375 . S
C408 C414 1.404 . S
C409 C408 1.375 . S
C409 C410 1.369 . S
C409 H422 0.950 . S
C410 C409 1.369 . S
C410 C411 1.392 . S
C410 H423 0.951 . S
C411 C410 1.392 . S
C411 C413 1.384 . S
H412 C414 0.949 . S
C413 C411 1.384 . S
C413 C414 1.385 . S
C413 H415 0.950 . S
C414 C408 1.404 . S
C414 H412 0.949 . S
C414 C413 1.385 . S
H415 C413 0.950 . S
H416 C400 0.951 . S
H417 C402 0.951 . S
H418 C404 0.951 . S
H419 C405 0.950 . S
H420 C406 0.950 . S
H421 C407 0.950 . S
H422 C409 0.950 . S
H423 C410 0.951 . S
C424 C425 1.386 . S
C424 C426 1.383 . S
C424 H440 0.951 . S
C425 C424 1.386 . S
C425 C429 1.383 . S
C426 C424 1.383 . S
C426 C427 1.402 . S
C426 H441 0.951 . S
C427 C426 1.402 . S
C427 C428 1.375 . S
C427 C430 1.481 . S
C428 C427 1.375 . S
C428 C429 1.367 . S
C428 H442 0.951 . S
C429 C425 1.383 . S
C429 C428 1.367 . S
C429 H443 0.950 . S
C430 C427 1.481 . S
C430 C431 1.297 . S
C430 H444 0.950 . S
C431 C430 1.297 . S
C431 C432 1.479 . S
C431 H445 0.950 . S
C432 C431 1.479 . S
C432 C433 1.375 . S
C432 C438 1.404 . S
C433 C432 1.375 . S
C433 C434 1.369 . S
C433 H446 0.950 . S
C434 C433 1.369 . S
C434 C435 1.392 . S
C434 H447 0.951 . S
C435 C434 1.392 . S
C435 C437 1.384 . S
H436 C438 0.949 . S
C437 C435 1.384 . S
C437 C438 1.385 . S
C437 H439 0.950 . S
C438 C432 1.404 . S
C438 H436 0.949 . S
C438 C437 1.385 . S
H439 C437 0.950 . S
H440 C424 0.951 . S
H441 C426 0.951 . S
H442 C428 0.951 . S
H443 C429 0.950 . S
H444 C430 0.950 . S
H445 C431 0.950 . S
H446 C433 0.950 . S
H447 C434 0.951 . S
C161 C89 0.759 . S
C171 C9 0.536 . S
C185 C129 0.702 . S
C195 C49 0.719 . S
C209 C98 1.070 . S
C219 C18 1.080 . S
C233 C58 0.779 . S
C243 C138 0.683 . S
C257 C50 4.462 . S
C267 C10 4.425 . S
C281 C59 4.631 1_655 S
C291 C99 4.626 . S
C305 C139 4.716 1_655 S
C315 C90 4.583 . S
C329 C130 4.379 . S
C339 C19 4.447 . S
C353 C95 0.991 . S
C363 C126 0.980 . S
C377 C6 1.114 . S
C387 C135 1.098 . S
C401 C55 0.905 . S
C411 C15 0.980 . S
C425 C86 1.058 . S
C435 C46 1.098 . S
