# Generated by pormake.
# Topology wje, (4)-cn, num edge types: 1
# Building blocks:
#     Node 0, Type 0, BuildingBlock: ICAMEG_clean_sbu_1, # of connection points: 4
#     Node 1, Type 0, BuildingBlock: ICAMEG_clean_sbu_1, # of connection points: 4
#     Node 2, Type 0, BuildingBlock: ICAMEG_clean_sbu_1, # of connection points: 4
#     Node 3, Type 0, BuildingBlock: ICAMEG_clean_sbu_1, # of connection points: 4
#     Node 4, Type 0, BuildingBlock: ICAMEG_clean_sbu_1, # of connection points: 4
#     Node 5, Type 0, BuildingBlock: ICAMEG_clean_sbu_1, # of connection points: 4
#     Node 6, Type 0, BuildingBlock: ICAMEG_clean_sbu_1, # of connection points: 4
#     Node 7, Type 0, BuildingBlock: ICAMEG_clean_sbu_1, # of connection points: 4
#     Node 8, Type 0, BuildingBlock: ICAMEG_clean_sbu_1, # of connection points: 4
#     Node 9, Type 0, BuildingBlock: ICAMEG_clean_sbu_1, # of connection points: 4
#     Node 10, Type 0, BuildingBlock: ICAMEG_clean_sbu_1, # of connection points: 4
#     Node 11, Type 0, BuildingBlock: ICAMEG_clean_sbu_1, # of connection points: 4
#     Edge 12, Type (0, 0), BuildingBlock: MIFKUJ_clean_linker_0, # of connection points: 2
#     Edge 13, Type (0, 0), BuildingBlock: MIFKUJ_clean_linker_0, # of connection points: 2
#     Edge 14, Type (0, 0), BuildingBlock: MIFKUJ_clean_linker_0, # of connection points: 2
#     Edge 15, Type (0, 0), BuildingBlock: MIFKUJ_clean_linker_0, # of connection points: 2
#     Edge 16, Type (0, 0), BuildingBlock: MIFKUJ_clean_linker_0, # of connection points: 2
#     Edge 17, Type (0, 0), BuildingBlock: MIFKUJ_clean_linker_0, # of connection points: 2
#     Edge 18, Type (0, 0), BuildingBlock: MIFKUJ_clean_linker_0, # of connection points: 2
#     Edge 19, Type (0, 0), BuildingBlock: MIFKUJ_clean_linker_0, # of connection points: 2
#     Edge 20, Type (0, 0), BuildingBlock: MIFKUJ_clean_linker_0, # of connection points: 2
#     Edge 21, Type (0, 0), BuildingBlock: MIFKUJ_clean_linker_0, # of connection points: 2
#     Edge 22, Type (0, 0), BuildingBlock: MIFKUJ_clean_linker_0, # of connection points: 2
#     Edge 23, Type (0, 0), BuildingBlock: MIFKUJ_clean_linker_0, # of connection points: 2
#     Edge 24, Type (0, 0), BuildingBlock: MIFKUJ_clean_linker_0, # of connection points: 2
#     Edge 25, Type (0, 0), BuildingBlock: MIFKUJ_clean_linker_0, # of connection points: 2
#     Edge 26, Type (0, 0), BuildingBlock: MIFKUJ_clean_linker_0, # of connection points: 2
#     Edge 27, Type (0, 0), BuildingBlock: MIFKUJ_clean_linker_0, # of connection points: 2
#     Edge 28, Type (0, 0), BuildingBlock: MIFKUJ_clean_linker_0, # of connection points: 2
#     Edge 29, Type (0, 0), BuildingBlock: MIFKUJ_clean_linker_0, # of connection points: 2
#     Edge 30, Type (0, 0), BuildingBlock: MIFKUJ_clean_linker_0, # of connection points: 2
#     Edge 31, Type (0, 0), BuildingBlock: MIFKUJ_clean_linker_0, # of connection points: 2
#     Edge 32, Type (0, 0), BuildingBlock: MIFKUJ_clean_linker_0, # of connection points: 2
#     Edge 33, Type (0, 0), BuildingBlock: MIFKUJ_clean_linker_0, # of connection points: 2
#     Edge 34, Type (0, 0), BuildingBlock: MIFKUJ_clean_linker_0, # of connection points: 2
#     Edge 35, Type (0, 0), BuildingBlock: MIFKUJ_clean_linker_0, # of connection points: 2
# Relax obj value: 0.132
# Max RMSD: 0.100
# Mean RMSD: 0.100
data_MOF--net-wje--node1-ICAMEG_clean_sbu_1--edge1-MIFKUJ_clean_linker_0
_symmetry_space_group_name_H-M    P1
_symmetry_Int_Tables_number       1
_symmetry_cell_setting            triclinic
loop_
_symmetry_equiv_pos_as_xyz
'x, y, z'
_cell_length_a     54.429737
_cell_length_b     54.400788
_cell_length_c     52.309376
_cell_angle_alpha  90.011374
_cell_angle_beta   90.038982
_cell_angle_gamma 119.99392
loop_
_atom_site_label
_atom_site_type_symbol
_atom_site_fract_x
_atom_site_fract_y
_atom_site_fract_z
_atom_type_partial_charge
Co0 Co 0.31772 0.99584 0.31918 0.0
Co1 Co 0.3176 0.05873 0.33073 0.0
O2 O 0.33177 0.03633 0.31304 0.0
C3 C 0.37984 0.02227 0.32997 0.0
O4 O 0.3799 0.04455 0.33968 0.0
C5 C 0.30702 0.0649 0.27562 0.0
O6 O 0.29896 0.03799 0.27224 0.0
O7 O 0.277 0.02806 0.3266 0.0
O8 O 0.27809 0.98814 0.31804 0.0
H9 H 0.25852 0.0749 0.39496 0.0
H10 H 0.3583 0.02548 0.27717 0.0
O11 O 0.35723 1.00195 0.32049 0.0
H12 H 0.27306 0.94871 0.23555 0.0
H13 H 0.3152 0.90264 0.30752 0.0
H14 H 0.27214 0.95211 0.3514 0.0
H15 H 0.27492 0.95474 0.28238 0.0
H16 H 0.33301 0.95352 0.29975 0.0
O17 O 0.31537 0.07627 0.29756 0.0
H18 H 0.27639 0.04713 0.37247 0.0
H19 H 0.32973 0.11851 0.32645 0.0
H20 H 0.25345 0.90115 0.35951 0.0
H21 H 0.3575 0.02007 0.23028 0.0
H22 H 0.27506 0.87608 0.33751 0.0
H23 H 0.3146 0.98151 0.20918 0.0
O24 O 0.31881 1.0011 0.35711 0.0
H25 H 0.41727 0.12416 0.30092 0.0
H26 H 0.35213 0.09451 0.37454 0.0
H27 H 0.40219 0.13149 0.38037 0.0
H28 H 0.43513 0.14658 0.34335 0.0
H29 H 0.36709 0.08702 0.29605 0.0
H30 H 0.31225 0.14697 0.34828 0.0
H31 H 0.27646 0.1252 0.38287 0.0
O32 O 0.31958 0.04224 0.36421 0.0
C33 C 0.26482 1.00158 0.32154 0.0
C34 C 0.27415 0.08464 0.37995 0.0
C35 C 0.30428 0.12508 0.35373 0.0
N36 N 0.30414 0.0812 0.34823 0.0
C37 C 0.28439 0.06904 0.36718 0.0
C38 C 0.31403 0.10883 0.34138 0.0
C39 C 0.28421 0.11286 0.37314 0.0
C40 C 0.33965 0.00854 0.26811 0.0
N41 N 0.31669 0.99045 0.28247 0.0
C42 C 0.33928 0.00563 0.24157 0.0
C43 C 0.31519 0.98401 0.22973 0.0
C44 C 0.29186 0.96561 0.24452 0.0
C45 C 0.29299 0.96919 0.27101 0.0
C46 C 0.3056 0.91332 0.31721 0.0
C47 C 0.28154 0.94131 0.34164 0.0
C48 C 0.31565 0.94215 0.31294 0.0
N49 N 0.30353 0.95574 0.32502 0.0
C50 C 0.27092 0.91247 0.34636 0.0
C51 C 0.28306 0.89843 0.33403 0.0
C52 C 0.31952 0.02002 0.37204 0.0
C53 C 0.40312 0.11779 0.31719 0.0
C54 C 0.36637 0.10083 0.35841 0.0
C55 C 0.39467 0.12186 0.36179 0.0
C56 C 0.41313 0.13033 0.34101 0.0
N57 N 0.35671 0.08861 0.335 0.0
C58 C 0.37467 0.09685 0.31452 0.0
Co59 Co 0.33683 0.31809 0.64566 0.0
Co60 Co 0.27353 0.31593 0.66058 0.0
O61 O 0.3089 0.33056 0.64092 0.0
C62 C 0.37192 0.38052 0.65474 0.0
O63 O 0.35053 0.37968 0.6671 0.0
C64 C 0.25263 0.30383 0.60647 0.0
O65 O 0.27096 0.29542 0.60171 0.0
O66 O 0.26443 0.27554 0.65629 0.0
O67 O 0.30589 0.27788 0.64738 0.0
H68 H 0.20361 0.25653 0.72841 0.0
H69 H 0.34279 0.3558 0.6025 0.0
O70 O 0.36927 0.3582 0.64421 0.0
H71 H 0.33294 0.26911 0.56276 0.0
H72 H 0.42799 0.31858 0.62771 0.0
H73 H 0.3401 0.27559 0.67878 0.0
H74 H 0.33311 0.27369 0.60967 0.0
H75 H 0.39274 0.33401 0.62199 0.0
O76 O 0.25135 0.31271 0.62871 0.0
H77 H 0.24764 0.27505 0.70324 0.0
H78 H 0.22463 0.3264 0.65976 0.0
H79 H 0.37466 0.25935 0.68494 0.0
H80 H 0.34299 0.35226 0.55547 0.0
H81 H 0.41899 0.28091 0.65931 0.0
H82 H 0.33794 0.30862 0.53532 0.0
O83 O 0.33586 0.32125 0.68372 0.0
H84 H 0.30384 0.41477 0.63057 0.0
H85 H 0.27343 0.35048 0.70487 0.0
H86 H 0.28562 0.4003 0.71078 0.0
H87 H 0.30091 0.43281 0.67343 0.0
H88 H 0.29177 0.36486 0.62562 0.0
H89 H 0.18031 0.30836 0.68442 0.0
H90 H 0.16966 0.27329 0.71914 0.0
O91 O 0.29449 0.31924 0.69286 0.0
C92 C 0.2793 0.26387 0.65162 0.0
C93 C 0.20809 0.27192 0.71343 0.0
C94 C 0.19497 0.30094 0.68868 0.0
N95 N 0.23876 0.30187 0.68011 0.0
C96 C 0.233 0.2825 0.69912 0.0
C97 C 0.22006 0.31101 0.67472 0.0
C98 C 0.18902 0.28128 0.70817 0.0
C99 C 0.3408 0.33684 0.59384 0.0
N100 N 0.33795 0.31498 0.6088 0.0
C101 C 0.34084 0.33492 0.56722 0.0
C102 C 0.33797 0.31041 0.55592 0.0
C103 C 0.33514 0.28823 0.57131 0.0
C104 C 0.33514 0.29089 0.59787 0.0
C105 C 0.40874 0.30901 0.63898 0.0
C106 C 0.35928 0.28498 0.66746 0.0
C107 C 0.38874 0.31771 0.63588 0.0
N108 N 0.36433 0.30563 0.64997 0.0
C109 C 0.37879 0.27574 0.67108 0.0
C110 C 0.40367 0.28786 0.6567 0.0
C111 C 0.31798 0.32125 0.6995 0.0
C112 C 0.2972 0.40082 0.647 0.0
C113 C 0.28031 0.36456 0.6886 0.0
C114 C 0.28704 0.39271 0.69202 0.0
C115 C 0.29559 0.41093 0.67105 0.0
N116 N 0.282 0.35481 0.66496 0.0
C117 C 0.29027 0.37252 0.6443 0.0
Co118 Co 1.00218 0.32477 0.99158 0.0
Co119 Co 0.94656 0.25627 1.00223 0.0
O120 O 0.963 0.2939 0.98582 0.0
C121 C 0.96754 0.35508 0.99318 0.0
O122 O 0.94302 0.33171 0.99043 0.0
C123 C 0.93691 0.24164 0.9466 0.0
O124 O 0.96256 0.26275 0.94197 0.0
O125 O 0.98005 0.25232 0.99307 0.0
O126 O 0.0161 0.29714 0.99059 0.0
H127 H 0.94778 0.18242 0.05904 0.0
H128 H 0.96775 0.32779 0.94871 0.0
O129 O 0.99065 0.35452 0.99336 0.0
H130 H 0.05318 0.33568 0.90838 0.0
H131 H 0.08619 0.42274 0.97921 0.0
H132 H 0.04992 0.33131 0.02406 0.0
H133 H 0.04702 0.33096 0.95512 0.0
H134 H 0.03748 0.38371 0.97155 0.0
O135 O 0.92736 0.23671 0.96939 0.0
H136 H 0.96798 0.22927 0.03833 0.0
H137 H 0.8897 0.20368 1.0006 0.0
H138 H 0.09898 0.36988 0.03203 0.0
H139 H 0.97319 0.33288 0.90199 0.0
H140 H 0.11734 0.41588 0.00957 0.0
H141 H 0.01613 0.33679 0.88146 0.0
O142 O 0.99712 0.32028 0.02942 0.0
H143 H 0.86664 0.27504 0.98465 0.0
H144 H 0.91456 0.24921 0.05057 0.0
H145 H 0.8732 0.2538 0.06244 0.0
H146 H 0.84887 0.26669 0.02933 0.0
H147 H 0.90834 0.27061 0.97368 0.0
H148 H 0.86873 0.15646 0.02074 0.0
H149 H 0.89781 0.14561 0.05027 0.0
O150 O 0.96491 0.27428 0.03549 0.0
C151 C 0.00633 0.27042 0.99054 0.0
C152 C 0.93487 0.18691 0.04627 0.0
C153 C 0.89052 0.17234 0.02474 0.0
N154 N 0.93 0.21928 0.0184 0.0
C155 C 0.94617 0.21343 0.03453 0.0
C156 C 0.90253 0.19909 0.01335 0.0
C157 C 0.90684 0.16627 0.04132 0.0
C158 C 0.98667 0.32988 0.94006 0.0
N159 N 0.00716 0.32937 0.95477 0.0
C160 C 0.98956 0.33258 0.91352 0.0
C161 C 0.01362 0.3347 0.90201 0.0
C162 C 0.03439 0.33406 0.91709 0.0
C163 C 0.03075 0.33129 0.94357 0.0
C164 C 0.07843 0.40273 0.98908 0.0
C165 C 0.05785 0.35124 0.01405 0.0
C166 C 0.05083 0.38054 0.98488 0.0
N167 N 0.04088 0.35514 0.99722 0.0
C168 C 0.08559 0.37299 0.0187 0.0
C169 C 0.0959 0.39886 0.00611 0.0
C170 C 0.98284 0.29887 0.04389 0.0
C171 C 0.87703 0.26936 0.99924 0.0
C172 C 0.90425 0.25508 0.03609 0.0
C173 C 0.88076 0.25752 0.04291 0.0
C174 C 0.8671 0.26472 0.02432 0.0
N175 N 0.91385 0.25963 0.01144 0.0
C176 C 0.90058 0.26672 0.99312 0.0
Co177 Co 0.68729 0.01085 0.31653 0.0
Co178 Co 0.68509 0.94734 0.33052 0.0
O179 O 0.67211 0.97001 0.31165 0.0
C180 C 0.62603 0.98757 0.32862 0.0
O181 O 0.62645 0.96712 0.3416 0.0
C182 C 0.69594 0.93884 0.27614 0.0
O183 O 0.70584 0.96602 0.27217 0.0
O184 O 0.72607 0.97688 0.32623 0.0
O185 O 0.72651 0.01733 0.31641 0.0
H186 H 0.74204 0.9307 0.39684 0.0
H187 H 0.64676 0.98069 0.27453 0.0
O188 O 0.64813 0.00581 0.31678 0.0
H189 H 0.73372 0.05404 0.23239 0.0
H190 H 0.693 0.10496 0.30087 0.0
H191 H 0.73323 0.05493 0.3483 0.0
H192 H 0.73118 0.0497 0.27938 0.0
H193 H 0.67393 0.05361 0.29471 0.0
O194 O 0.68652 0.92818 0.29812 0.0
H195 H 0.72578 0.95895 0.37283 0.0
H196 H 0.6708 0.88678 0.32828 0.0
H197 H 0.75316 0.10633 0.35484 0.0
H198 H 0.64826 0.98441 0.22747 0.0
H199 H 0.73298 0.1317 0.33104 0.0
H200 H 0.69202 0.02124 0.20611 0.0
O201 O 0.68588 0.00693 0.35463 0.0
H202 H 0.58486 0.88353 0.30106 0.0
H203 H 0.64981 0.91396 0.37495 0.0
H204 H 0.5993 0.87851 0.3811 0.0
H205 H 0.56645 0.86302 0.34396 0.0
H206 H 0.63549 0.9192 0.29586 0.0
H207 H 0.68664 0.8578 0.35165 0.0
H208 H 0.72244 0.87973 0.38627 0.0
O209 O 0.68393 0.96549 0.36322 0.0
C210 C 0.73903 0.00331 0.32081 0.0
C211 C 0.7264 0.92088 0.38181 0.0
C212 C 0.69534 0.87999 0.35643 0.0
N213 N 0.69733 0.92453 0.3492 0.0
C214 C 0.71708 0.93677 0.36818 0.0
C215 C 0.68653 0.89653 0.3432 0.0
C216 C 0.71542 0.8923 0.37586 0.0
C217 C 0.66579 0.99689 0.26535 0.0
N218 N 0.68884 0.01497 0.27966 0.0
C219 C 0.66655 0.99885 0.23871 0.0
C220 C 0.69113 0.0195 0.22674 0.0
C221 C 0.71454 0.03789 0.24147 0.0
C222 C 0.71302 0.03528 0.26806 0.0
C223 C 0.70197 0.09415 0.31135 0.0
C224 C 0.72443 0.06584 0.33779 0.0
C225 C 0.69119 0.06506 0.308 0.0
N226 N 0.7025 0.05131 0.32109 0.0
C227 C 0.73576 0.09494 0.34161 0.0
C228 C 0.72442 0.10915 0.32827 0.0
C229 C 0.68481 0.98836 0.37023 0.0
C230 C 0.59897 0.89009 0.31739 0.0
C231 C 0.63562 0.90747 0.35875 0.0
C232 C 0.60706 0.88731 0.36232 0.0
C233 C 0.58865 0.87861 0.34147 0.0
N234 N 0.64558 0.91863 0.33508 0.0
C235 C 0.62766 0.9102 0.31455 0.0
Co236 Co 0.68457 0.69473 0.65137 0.0
Co237 Co 0.74835 0.69655 0.6631 0.0
O238 O 0.71213 0.68218 0.64478 0.0
C239 C 0.64949 0.63212 0.65991 0.0
O240 O 0.67115 0.63258 0.67144 0.0
C241 C 0.76673 0.70795 0.60825 0.0
O242 O 0.74823 0.71632 0.60412 0.0
O243 O 0.7576 0.73702 0.65933 0.0
O244 O 0.71575 0.73492 0.65267 0.0
H245 H 0.82188 0.7556 0.72874 0.0
H246 H 0.67683 0.65754 0.6072 0.0
O247 O 0.65198 0.6547 0.65016 0.0
H248 H 0.68409 0.74431 0.57022 0.0
H249 H 0.59281 0.69471 0.63856 0.0
H250 H 0.68305 0.73689 0.68622 0.0
H251 H 0.68618 0.73926 0.61692 0.0
H252 H 0.62763 0.67926 0.63021 0.0
O253 O 0.76891 0.69941 0.63036 0.0
H254 H 0.7767 0.73747 0.70539 0.0
H255 H 0.79658 0.68522 0.65968 0.0
H256 H 0.64894 0.75315 0.69501 0.0
H257 H 0.6743 0.66151 0.56038 0.0
H258 H 0.60343 0.732 0.6711 0.0
H259 H 0.67806 0.70521 0.54162 0.0
O260 O 0.68724 0.69114 0.68922 0.0
H261 H 0.71618 0.5976 0.63212 0.0
H262 H 0.74945 0.66163 0.70668 0.0
H263 H 0.73715 0.61171 0.71192 0.0
H264 H 0.72043 0.57933 0.67443 0.0
H265 H 0.72839 0.64761 0.62785 0.0
H266 H 0.84209 0.70298 0.68237 0.0
H267 H 0.85495 0.73835 0.71724 0.0
O268 O 0.72921 0.69379 0.69627 0.0
C269 C 0.74255 0.74872 0.65573 0.0
C270 C 0.81651 0.74016 0.7136 0.0
C271 C 0.82786 0.71067 0.68755 0.0
N272 N 0.78397 0.71028 0.68123 0.0
C273 C 0.79093 0.72979 0.70034 0.0
C274 C 0.80211 0.70076 0.6747 0.0
C275 C 0.83506 0.7305 0.70712 0.0
C276 C 0.67829 0.67653 0.59915 0.0
N277 N 0.68172 0.69818 0.61474 0.0
C278 C 0.67692 0.67869 0.57264 0.0
C279 C 0.67907 0.70323 0.56213 0.0
C280 C 0.68248 0.72519 0.57816 0.0
C281 C 0.68379 0.72228 0.60457 0.0
C282 C 0.61258 0.70411 0.64908 0.0
C283 C 0.66337 0.72771 0.67563 0.0
C284 C 0.63235 0.6954 0.64449 0.0
N285 N 0.65742 0.70727 0.65763 0.0
C286 C 0.6441 0.73694 0.68074 0.0
C287 C 0.61856 0.72504 0.66733 0.0
C288 C 0.70605 0.6916 0.70413 0.0
C289 C 0.72346 0.61151 0.6486 0.0
C290 C 0.74199 0.64763 0.69035 0.0
C291 C 0.73517 0.61941 0.69339 0.0
C292 C 0.72582 0.60126 0.67234 0.0
N293 N 0.73962 0.65753 0.667 0.0
C294 C 0.73049 0.63986 0.64627 0.0
Co295 Co 0.99186 0.67703 0.98939 0.0
Co296 Co 0.04907 0.74401 0.9945 0.0
O297 O 0.02964 0.7065 0.9781 0.0
C298 C 0.02025 0.6421 0.99111 0.0
O299 O 0.03955 0.66087 0.00655 0.0
C300 C 0.05656 0.7602 0.93894 0.0
O301 O 0.02944 0.74252 0.93507 0.0
O302 O 0.01603 0.74931 0.98698 0.0
O303 O 0.98053 0.70603 0.99748 0.0
H304 H 0.05536 0.82092 0.05203 0.0
H305 H 0.01273 0.67241 0.93841 0.0
O306 O 1.00134 0.64659 0.98149 0.0
H307 H 0.92453 0.67442 0.92194 0.0
H308 H 0.9033 0.581 0.98574 0.0
H309 H 0.95503 0.6709 0.03355 0.0
H310 H 0.94151 0.6765 0.96604 0.0
H311 H 0.94925 0.61953 0.97009 0.0
O312 O 0.06722 0.76249 0.96111 0.0
H313 H 0.0319 0.77364 0.0318 0.0
H314 H 0.10732 0.7945 0.99103 0.0
H315 H 0.90898 0.63309 0.04971 0.0
H316 H 0.9964 0.67005 0.89397 0.0
H317 H 0.88284 0.58767 0.0258 0.0
H318 H 0.95203 0.67112 0.88553 0.0
O319 O 0.00603 0.68002 0.02491 0.0
H320 H 0.12192 0.71642 0.97281 0.0
H321 H 0.08429 0.75123 0.04082 0.0
H322 H 0.12404 0.74311 0.05043 0.0
H323 H 0.14317 0.72566 0.01626 0.0
H324 H 0.082 0.72457 0.9641 0.0
H325 H 0.13153 0.84209 0.01067 0.0
H326 H 0.10555 0.85553 0.04149 0.0
O327 O 0.03247 0.72722 0.02882 0.0
C328 C 0.99017 0.73229 0.99278 0.0
C329 C 0.06693 0.8153 0.03868 0.0
C330 C 0.10967 0.82719 0.01544 0.0
N331 N 0.06825 0.78126 0.01033 0.0
C332 C 0.05377 0.78853 0.02719 0.0
C333 C 0.09582 0.80024 0.00431 0.0
C334 C 0.09508 0.83472 0.03274 0.0
C335 C 0.99329 0.67266 0.93486 0.0
N336 N 0.97805 0.67448 0.95477 0.0
C337 C 0.9842 0.67141 0.90968 0.0
C338 C 0.95932 0.67205 0.90495 0.0
C339 C 0.94389 0.67392 0.92537 0.0
C340 C 0.95364 0.67515 0.9503 0.0
C341 C 0.91444 0.60073 0.99628 0.0
C342 C 0.94364 0.65136 0.02285 0.0
C343 C 0.9405 0.62261 0.98753 0.0
N344 N 0.95475 0.64754 1.00079 0.0
C345 C 0.91761 0.62996 0.03216 0.0
C346 C 0.90298 0.60448 0.01876 0.0
C347 C 0.01947 0.70234 0.03847 0.0
C348 C 0.11381 0.72409 0.98784 0.0
C349 C 0.09241 0.74352 0.02587 0.0
C350 C 0.11497 0.73903 0.03141 0.0
C351 C 0.12571 0.72925 0.01223 0.0
N352 N 0.08092 0.73848 1.00188 0.0
C353 C 0.09128 0.72882 0.983 0.0
Co354 Co 0.01691 0.68782 0.3654 0.0
Co355 Co 0.95968 0.69753 0.35461 0.0
O356 O 0.97769 0.67855 0.37205 0.0
C357 C 0.98824 0.6251 0.35631 0.0
O358 O 0.97069 0.62694 0.34022 0.0
C359 C 0.9498 0.70437 0.40971 0.0
O360 O 0.97619 0.71134 0.41451 0.0
O361 O 0.99226 0.73599 0.36298 0.0
O362 O 0.02943 0.7289 0.36228 0.0
H363 H 0.95708 0.76882 0.29528 0.0
H364 H 0.9867 0.65381 0.41086 0.0
O365 O 0.00627 0.64693 0.36862 0.0
H366 H 0.07043 0.73914 0.44487 0.0
H367 H 0.10475 0.68068 0.37928 0.0
H368 H 0.0612 0.72534 0.32855 0.0
H369 H 0.06222 0.73234 0.3984 0.0
H370 H 0.0558 0.66975 0.38807 0.0
O371 O 0.94005 0.69788 0.38705 0.0
H372 H 0.97909 0.74449 0.31715 0.0
H373 H 0.90164 0.69051 0.35545 0.0
H374 H 0.11029 0.73706 0.31927 0.0
H375 H 0.99422 0.65957 0.4575 0.0
H376 H 0.13238 0.71464 0.34472 0.0
H377 H 0.03629 0.70254 0.47478 0.0
O378 O 0.00961 0.6829 0.32781 0.0
H379 H 0.88504 0.59706 0.37412 0.0
H380 H 0.92707 0.67018 0.30697 0.0
H381 H 0.8877 0.62256 0.29603 0.0
H382 H 0.86637 0.58561 0.32976 0.0
H383 H 0.92463 0.64493 0.38418 0.0
H384 H 0.87885 0.71441 0.33415 0.0
H385 H 0.90659 0.7538 0.30374 0.0
O386 O 0.97813 0.69753 0.32158 0.0
C387 C 0.01891 0.74519 0.3631 0.0
C388 C 0.94474 0.75163 0.30843 0.0
C389 C 0.90085 0.72112 0.33028 0.0
N390 N 0.94164 0.71601 0.33746 0.0
C391 C 0.95707 0.73773 0.32083 0.0
C392 C 0.91389 0.70772 0.34234 0.0
C393 C 0.91642 0.74322 0.31321 0.0
C394 C 0.00517 0.67246 0.41825 0.0
N395 N 0.024 0.69273 0.40193 0.0
C396 C 0.00927 0.67565 0.44467 0.0
C397 C 0.03285 0.69978 0.45435 0.0
C398 C 0.052 0.72034 0.43758 0.0
C399 C 0.04718 0.71645 0.41128 0.0
C400 C 0.09537 0.69059 0.36806 0.0
C401 C 0.0707 0.71558 0.33978 0.0
C402 C 0.06762 0.68441 0.37289 0.0
N403 N 0.05566 0.69693 0.35888 0.0
C404 C 0.09849 0.72227 0.33441 0.0
C405 C 0.11086 0.70966 0.34868 0.0
C406 C 0.99524 0.6898 0.3132 0.0
C407 C 0.89412 0.61299 0.35927 0.0
C408 C 0.91798 0.6542 0.32174 0.0
C409 C 0.89564 0.62729 0.31544 0.0
C410 C 0.88367 0.60658 0.33437 0.0
N411 N 0.92806 0.66035 0.34622 0.0
C412 C 0.91647 0.64015 0.36487 0.0
Co413 Co 0.32702 0.01134 0.69913 0.0
Co414 Co 0.26237 0.95102 0.68556 0.0
O415 O 0.29823 0.97134 0.70474 0.0
C416 C 0.36138 0.98284 0.69101 0.0
O417 O 0.34025 0.96246 0.67821 0.0
C418 C 0.24328 0.94342 0.74024 0.0
O419 O 0.26345 0.96948 0.74509 0.0
O420 O 0.25461 0.98326 0.68933 0.0
O421 O 0.29697 0.02181 0.69702 0.0
H422 H 0.19274 0.94127 0.61765 0.0
H423 H 0.33205 0.98005 0.74318 0.0
O424 O 0.35869 0.00262 0.7012 0.0
H425 H 0.32649 0.06026 0.78077 0.0
H426 H 0.41979 0.10112 0.71516 0.0
H427 H 0.33145 0.05657 0.6646 0.0
H428 H 0.32581 0.05425 0.734 0.0
H429 H 0.38352 0.05104 0.7222 0.0
O430 O 0.24033 0.93325 0.71777 0.0
H431 H 0.23709 0.96618 0.6425 0.0
H432 H 0.21199 0.89249 0.68766 0.0
H433 H 0.36704 0.1068 0.65712 0.0
H434 H 0.33315 0.9854 0.79009 0.0
H435 H 0.41161 0.1294 0.68249 0.0
H436 H 0.33023 0.02567 0.80917 0.0
O437 O 0.32545 0.00593 0.66116 0.0
H438 H 0.29045 0.88116 0.71667 0.0
H439 H 0.25989 0.9144 0.64199 0.0
H440 H 0.27034 0.87549 0.63673 0.0
H441 H 0.2857 0.85859 0.67429 0.0
H442 H 0.28008 0.92023 0.72095 0.0
H443 H 0.16721 0.86688 0.66345 0.0
H444 H 0.15744 0.89124 0.62806 0.0
O445 O 0.28304 0.96746 0.65294 0.0
C446 C 0.27033 0.00987 0.69328 0.0
C447 C 0.19679 0.93039 0.63297 0.0
C448 C 0.18245 0.88866 0.65871 0.0
N449 N 0.22719 0.93078 0.66644 0.0
C450 C 0.2219 0.94437 0.64708 0.0
C451 C 0.20779 0.90332 0.67242 0.0
C452 C 0.17698 0.90234 0.63885 0.0
C453 C 0.33097 0.99774 0.75136 0.0
N454 N 0.32875 0.01676 0.73589 0.0
C455 C 0.33152 1.00061 0.77792 0.0
C456 C 0.32984 0.02319 0.78861 0.0
C457 C 0.3277 0.04258 0.7727 0.0
C458 C 0.32717 0.039 0.74623 0.0
C459 C 0.40046 0.09152 0.70399 0.0
C460 C 0.35073 0.06629 0.6758 0.0
C461 C 0.37987 0.06314 0.70783 0.0
N462 N 0.35535 0.0509 0.69387 0.0
C463 C 0.37083 0.09472 0.67144 0.0
C464 C 0.39584 0.10738 0.68567 0.0
C465 C 0.30684 0.98809 0.64577 0.0
C466 C 0.28378 0.88834 0.70016 0.0
C467 C 0.26681 0.90734 0.65834 0.0
C468 C 0.27256 0.8852 0.65529 0.0
C469 C 0.28114 0.8757 0.67637 0.0
N470 N 0.2695 0.91966 0.68171 0.0
C471 C 0.27782 0.9104 0.70248 0.0
Co472 Co 0.32292 0.32325 0.02424 0.0
Co473 Co 0.3087 0.25472 0.01462 0.0
O474 O 0.32848 0.29127 0.03263 0.0
C475 C 0.38625 0.35487 0.01991 0.0
O476 O 0.38479 0.33692 1.00236 0.0
C477 C 0.29819 0.23786 0.06973 0.0
O478 O 0.29225 0.25816 0.07369 0.0
O479 O 0.27094 0.25176 0.0207 0.0
O480 O 0.28191 0.2972 0.01725 0.0
H481 H 0.23871 0.18432 0.95218 0.0
H482 H 0.35026 0.32358 0.07331 0.0
O483 O 0.36389 0.35091 0.0313 0.0
H484 H 0.26463 0.32756 0.09699 0.0
H485 H 0.33845 0.42199 0.03562 0.0
H486 H 0.29237 0.33493 0.9833 0.0
H487 H 0.27652 0.32648 0.05168 0.0
H488 H 0.34306 0.38053 0.04709 0.0
O489 O 0.30493 0.23386 0.04743 0.0
H490 H 0.26413 0.23024 0.9747 0.0
H491 H 0.31125 0.20119 0.0171 0.0
H492 H 0.28688 0.37577 0.97134 0.0
H493 H 0.3393 0.32491 0.11889 0.0
H494 H 0.31013 0.41975 0.99752 0.0
H495 H 0.29616 0.32682 0.13096 0.0
O496 O 0.33144 0.32112 0.98757 0.0
H497 H 0.40559 0.27367 0.04034 0.0
H498 H 0.33737 0.24675 0.96926 0.0
H499 H 0.38423 0.25156 0.96142 0.0
H500 H 0.4187 0.26502 0.99716 0.0
H501 H 0.35861 0.26899 0.04721 0.0
H502 H 0.28619 0.15488 0.99519 0.0
H503 H 0.24971 0.14625 0.96239 0.0
O504 O 0.31241 0.27426 0.98108 0.0
C505 C 0.26386 0.27077 0.01837 0.0
C506 C 0.25462 0.18785 0.96639 0.0
C507 C 0.28124 0.17131 0.99055 0.0
N508 N 0.28925 0.21845 0.99709 0.0
C509 C 0.26912 0.21383 0.97916 0.0
C510 C 0.2953 0.19755 0.00295 0.0
C511 C 0.26078 0.16649 0.97214 0.0
C512 C 0.3316 0.32468 0.07844 0.0
N513 N 0.31411 0.32504 0.05988 0.0
C514 C 0.32544 0.32532 0.10427 0.0
C515 C 0.30121 0.32634 0.11103 0.0
C516 C 0.28349 0.32673 0.09198 0.0
C517 C 0.2903 0.32604 0.06635 0.0
C518 C 0.32815 0.40292 0.02409 0.0
C519 C 0.3023 0.35387 0.99495 0.0
C520 C 0.33074 0.37938 0.03046 0.0
N521 N 0.31786 0.35524 0.01596 0.0
C522 C 0.2992 0.37697 0.98803 0.0
C523 C 0.31227 0.40165 0.00272 0.0
C524 C 0.32338 0.29972 0.97286 0.0
C525 C 0.39075 0.26778 0.02461 0.0
C526 C 0.35232 0.25285 0.98483 0.0
C527 C 0.37879 0.25542 0.98032 0.0
C528 C 0.3981 0.26294 1.00038 0.0
N529 N 0.34525 0.25761 0.00865 0.0
C530 C 0.36409 0.26503 0.02841 0.0
Co531 Co 0.99055 0.31455 0.37085 0.0
Co532 Co 0.04491 0.3011 0.3584 0.0
O533 O 0.02966 0.32267 0.37584 0.0
C534 C 0.01992 0.3767 0.35919 0.0
O535 O 0.0355 0.37319 0.34201 0.0
C536 C 0.05928 0.2985 0.4131 0.0
O537 O 0.03354 0.29269 0.41926 0.0
O538 O 0.01245 0.26425 0.37021 0.0
O539 O 0.97637 0.27296 0.36861 0.0
H540 H 0.03897 0.22299 0.30278 0.0
H541 H 0.02375 0.34977 0.41476 0.0
O542 O 1.00283 0.35596 0.37315 0.0
H543 H 0.94056 0.26715 0.45272 0.0
H544 H 0.90582 0.32615 0.38794 0.0
H545 H 0.94362 0.27679 0.33614 0.0
H546 H 0.94639 0.27201 0.40593 0.0
H547 H 0.95461 0.33556 0.39469 0.0
O548 O 0.06716 0.30284 0.3898 0.0
H549 H 0.02052 0.25065 0.32451 0.0
H550 H 0.10195 0.30587 0.35592 0.0
H551 H 0.89462 0.26657 0.32891 0.0
H552 H 0.01862 0.34593 0.46169 0.0
H553 H 0.87542 0.29135 0.35491 0.0
H554 H 0.97683 0.30432 0.48095 0.0
O555 O 0.99597 0.31794 0.33304 0.0
H556 H 0.12358 0.40186 0.36912 0.0
H557 H 0.07302 0.32323 0.30795 0.0
H558 H 0.11222 0.36902 0.29272 0.0
H559 H 0.13784 0.40871 0.32342 0.0
H560 H 0.08407 0.35577 0.3835 0.0
H561 H 0.12127 0.27867 0.33467 0.0
H562 H 0.08972 0.23697 0.3078 0.0
O563 O 0.02365 0.2988 0.32633 0.0
C564 C 0.98601 0.25597 0.37048 0.0
C565 C 0.05297 0.24118 0.31437 0.0
C566 C 0.09914 0.2724 0.3323 0.0
N567 N 0.06018 0.27997 0.34133 0.0
C568 C 0.04265 0.25697 0.32667 0.0
C569 C 0.08807 0.28768 0.34433 0.0
C570 C 0.08142 0.24901 0.31722 0.0
C571 C 0.00539 0.33174 0.42302 0.0
N572 N 0.98539 0.31116 0.40763 0.0
C573 C 1.00265 0.32962 0.44959 0.0
C574 C 0.97922 0.30625 0.46038 0.0
C575 C 0.95887 0.28537 0.44456 0.0
C576 C 0.96234 0.28818 0.41807 0.0
C577 C 0.91393 0.3152 0.3765 0.0
C578 C 0.93539 0.28758 0.34761 0.0
C579 C 0.94158 0.32051 0.38018 0.0
N580 N 0.95194 0.30668 0.36588 0.0
C581 C 0.90764 0.28173 0.34339 0.0
C582 C 0.89689 0.29567 0.35797 0.0
C583 C 0.0077 0.30815 0.31828 0.0
C584 C 0.11263 0.3847 0.35557 0.0
C585 C 0.08401 0.34042 0.32142 0.0
C586 C 0.10623 0.36628 0.31269 0.0
C587 C 0.1206 0.38854 0.32992 0.0
N588 N 0.07638 0.3368 0.34663 0.0
C589 C 0.09032 0.35854 0.36362 0.0
Co590 Co 0.67957 0.99131 0.69446 0.0
Co591 Co 0.74207 0.05522 0.68651 0.0
O592 O 0.70595 0.03093 0.70408 0.0
C593 C 0.64187 0.01627 0.6924 0.0
O594 O 0.66234 0.03845 0.68078 0.0
C595 C 0.76044 0.06048 0.74129 0.0
O596 O 0.74417 0.03291 0.74389 0.0
O597 O 0.75341 0.02544 0.6893 0.0
O598 O 0.7117 0.98459 0.68777 0.0
H599 H 0.81736 0.07657 0.62074 0.0
H600 H 0.67111 0.01321 0.74345 0.0
O601 O 0.64594 0.99645 0.70033 0.0
H602 H 0.68819 0.93527 0.7671 0.0
H603 H 0.59131 0.89587 0.70416 0.0
H604 H 0.67799 0.95285 0.65343 0.0
H605 H 0.68738 0.94744 0.72177 0.0
H606 H 0.62481 0.94563 0.71574 0.0
O607 O 0.76153 0.07224 0.71992 0.0
H608 H 0.77248 0.04658 0.64362 0.0
H609 H 0.78827 0.1156 0.69213 0.0
H610 H 0.64522 0.90311 0.6413 0.0
H611 H 0.67148 1.00155 0.78899 0.0
H612 H 0.60148 0.87426 0.66675 0.0
H613 H 0.68017 0.96237 0.80103 0.0
O614 O 0.6803 1.00183 0.65788 0.0
H615 H 0.70344 0.11575 0.71983 0.0
H616 H 0.74263 0.09276 0.64456 0.0
H617 H 0.72756 0.12847 0.64071 0.0
H618 H 0.70783 0.14021 0.67857 0.0
H619 H 0.71848 0.07992 0.72269 0.0
H620 H 0.83357 0.1462 0.67008 0.0
H621 H 0.8483 0.12676 0.634 0.0
O622 O 0.72385 0.03967 0.65249 0.0
C623 C 0.73868 0.99848 0.68734 0.0
C624 C 0.81117 0.0853 0.63642 0.0
C625 C 0.82028 0.12436 0.66413 0.0
N626 N 0.77769 0.07934 0.66912 0.0
C627 C 0.78574 0.06844 0.6494 0.0
C628 C 0.79466 0.10689 0.67663 0.0
C629 C 0.82852 0.11345 0.64388 0.0
C630 C 0.67461 0.99594 0.74856 0.0
N631 N 0.67905 0.98092 0.73 0.0
C632 C 0.67492 0.98952 0.77436 0.0
C633 C 0.67984 0.96756 0.7811 0.0
C634 C 0.68436 0.95235 0.76206 0.0
C635 C 0.68393 0.95938 0.73644 0.0
C636 C 0.6103 0.90821 0.69293 0.0
C637 C 0.6591 0.9404 0.66468 0.0
C638 C 0.62932 0.93642 0.69936 0.0
N639 N 0.65342 0.95211 0.68535 0.0
C640 C 0.64057 0.91226 0.65768 0.0
C641 C 0.61603 0.8961 0.67195 0.0
C642 C 0.70002 0.02032 0.64379 0.0
C643 C 0.71199 0.11081 0.70319 0.0
C644 C 0.7338 0.09754 0.66101 0.0
C645 C 0.72545 0.1179 0.65877 0.0
C646 C 0.71443 0.1245 0.68003 0.0
N647 N 0.73127 0.08414 0.68376 0.0
C648 C 0.7206 0.09059 0.70471 0.0
Co649 Co 0.68228 0.67587 0.03041 0.0
Co650 Co 0.68788 0.7416 0.01926 0.0
O651 O 0.67065 0.70435 0.03642 0.0
C652 C 0.61796 0.64227 0.02543 0.0
O653 O 0.61544 0.66498 0.02687 0.0
C654 C 0.6966 0.75682 0.07496 0.0
O655 O 0.70116 0.73564 0.07916 0.0
O656 O 0.72736 0.74831 0.02412 0.0
O657 O 0.72262 0.70579 0.03277 0.0
H658 H 0.75259 0.81544 0.95638 0.0
H659 H 0.64143 0.66734 0.07191 0.0
O660 O 0.6421 0.64399 0.0272 0.0
H661 H 0.72214 0.6674 0.11472 0.0
H662 H 0.67684 0.58123 0.04119 0.0
H663 H 0.72728 0.67484 0.9992 0.0
H664 H 0.72214 0.67329 0.068 0.0
H665 H 0.66246 0.61695 0.04902 0.0
O666 O 0.69103 0.76162 0.05247 0.0
H667 H 0.73086 0.76924 0.97846 0.0
H668 H 0.68065 0.79242 0.02344 0.0
H669 H 0.74252 0.63981 0.9911 0.0
H670 H 0.64039 0.66105 0.1186 0.0
H671 H 0.71724 0.59263 0.01213 0.0
H672 H 0.681 0.66113 0.14035 0.0
O673 O 0.68295 0.68119 0.99258 0.0
H674 H 0.58983 0.71638 0.04759 0.0
H675 H 0.65617 0.74652 0.97485 0.0
H676 H 0.60782 0.73846 0.9683 0.0
H677 H 0.5743 0.72337 0.00488 0.0
H678 H 0.63825 0.72423 0.05315 0.0
H679 H 0.70206 0.83898 1.00202 0.0
H680 H 0.73823 0.8507 0.96816 0.0
O681 O 0.68496 0.72298 0.98571 0.0
C682 C 0.73774 0.73241 0.02932 0.0
C683 C 0.73681 0.81056 0.97107 0.0
C684 C 0.70848 0.82379 0.99671 0.0
N685 N 0.70441 0.77807 1.00214 0.0
C686 C 0.72437 0.7844 0.98359 0.0
C687 C 0.69649 0.79742 0.00883 0.0
C688 C 0.72876 0.83035 0.9777 0.0
C689 C 0.659 0.66702 0.08113 0.0
N690 N 0.68166 0.67036 0.06714 0.0
C691 C 0.65838 0.66362 0.10763 0.0
C692 C 0.68119 0.66372 0.11983 0.0
C693 C 0.70428 0.66725 0.10546 0.0
C694 C 0.70419 0.67064 0.079 0.0
C695 C 0.68808 0.60174 0.03195 0.0
C696 C 0.71628 0.65442 0.00859 0.0
C697 C 0.67999 0.62205 0.03625 0.0
N698 N 0.69413 0.64805 0.0247 0.0
C699 C 0.72497 0.63465 0.00386 0.0
C700 C 0.71074 0.60816 0.01565 0.0
C701 C 0.68365 0.70019 0.97781 0.0
C702 C 0.60424 0.72296 0.03151 0.0
C703 C 0.64161 0.73963 0.99077 0.0
C704 C 0.6143 0.73527 0.98699 0.0
C705 C 0.59553 0.72685 0.00753 0.0
N706 N 0.64998 0.73573 0.01433 0.0
C707 C 0.63172 0.72754 0.03457 0.0
H708 H 0.31145 0.11716 0.27824 0.0
H709 H 0.30916 0.14568 0.24324 0.0
H710 H 0.29822 0.08106 0.18927 0.0
H711 H 0.30027 0.05214 0.22433 0.0
H712 H 0.33855 0.13686 0.17375 0.0
H713 H 0.24256 0.08601 0.20466 0.0
H714 H 0.20517 0.06929 0.23752 0.0
H715 H 0.22899 0.15546 0.2553 0.0
H716 H 0.26683 0.17271 0.22278 0.0
H717 H 0.29974 0.18853 0.06659 0.0
H718 H 0.30046 0.15914 0.1014 0.0
H719 H 0.29729 0.21664 0.15635 0.0
H720 H 0.29568 0.24584 0.12139 0.0
H721 H 0.26431 0.16438 0.17176 0.0
H722 H 0.35998 0.21608 0.14214 0.0
H723 H 0.39859 0.23432 0.11039 0.0
H724 H 0.37765 0.14913 0.09179 0.0
H725 H 0.3386 0.13035 0.12316 0.0
C726 C 0.30859 0.10895 0.25894 0.0
C727 C 0.30597 0.08227 0.25413 0.0
C728 C 0.30718 0.12528 0.23894 0.0
C729 C 0.30331 0.11545 0.21363 0.0
C730 C 0.30116 0.08905 0.20866 0.0
C731 C 0.30224 0.0725 0.22873 0.0
C732 C 0.30151 0.1328 0.19244 0.0
C733 C 0.32208 0.14254 0.17308 0.0
C734 C 0.28056 0.14098 0.19201 0.0
C735 C 0.25771 0.13065 0.21146 0.0
C736 C 0.23999 0.1014 0.21573 0.0
C737 C 0.21868 0.09183 0.23426 0.0
C738 C 0.21475 0.1113 0.24854 0.0
C739 C 0.23208 0.1404 0.24425 0.0
C740 C 0.25344 0.15008 0.22576 0.0
C741 C 0.29916 0.19499 0.08607 0.0
C742 C 0.29782 0.2197 0.09116 0.0
C743 C 0.29973 0.17817 0.10602 0.0
C744 C 0.29952 0.18587 0.13163 0.0
C745 C 0.29759 0.21024 0.13679 0.0
C746 C 0.29671 0.22696 0.11678 0.0
C747 C 0.30135 0.16848 0.15289 0.0
C748 C 0.28081 0.15874 0.17233 0.0
C749 C 0.32256 0.16058 0.15357 0.0
C750 C 0.34618 0.1718 0.13484 0.0
C751 C 0.36347 0.20122 0.13115 0.0
C752 C 0.38545 0.21166 0.11324 0.0
C753 C 0.39052 0.19289 0.09904 0.0
C754 C 0.37367 0.16364 0.10278 0.0
C755 C 0.35162 0.15309 0.12064 0.0
H756 H 0.40754 0.20102 0.08517 0.0
H757 H 0.19824 0.10385 0.26288 0.0
H758 H 0.25309 0.29328 0.55505 0.0
H759 H 0.22053 0.29218 0.52202 0.0
H760 H 0.17517 0.31122 0.57891 0.0
H761 H 0.20745 0.31234 0.61191 0.0
H762 H 0.13898 0.26842 0.54682 0.0
H763 H 0.22049 0.36221 0.539 0.0
H764 H 0.27132 0.3967 0.53311 0.0
H765 H 0.26983 0.36003 0.46002 0.0
H766 H 0.21905 0.32505 0.46564 0.0
H767 H 0.05554 0.30192 0.46522 0.0
H768 H 0.08849 0.3031 0.49771 0.0
H769 H 0.14053 0.29707 0.43863 0.0
H770 H 0.10834 0.29707 0.40612 0.0
H771 H 0.17367 0.33265 0.47179 0.0
H772 H 0.09337 0.23891 0.47851 0.0
H773 H 0.04291 0.20284 0.48383 0.0
H774 H 0.04229 0.23682 0.55778 0.0
H775 H 0.09267 0.27333 0.55276 0.0
C776 C 0.23618 0.29721 0.56054 0.0
C777 C 0.233 0.30297 0.58618 0.0
C778 C 0.21762 0.29667 0.54161 0.0
C779 C 0.19545 0.30179 0.54792 0.0
C780 C 0.19206 0.30719 0.57353 0.0
C781 C 0.21067 0.30794 0.59239 0.0
C782 C 0.17575 0.30162 0.52795 0.0
C783 C 0.14653 0.28268 0.53054 0.0
C784 C 0.18558 0.31968 0.50635 0.0
C785 C 0.21604 0.34084 0.50286 0.0
C786 C 0.23105 0.36136 0.52176 0.0
C787 C 0.25984 0.38102 0.51846 0.0
C788 C 0.27381 0.38051 0.49624 0.0
C789 C 0.25899 0.36038 0.47724 0.0
C790 C 0.2302 0.34065 0.48046 0.0
C791 C 0.07401 0.30084 0.45916 0.0
C792 C 0.0792 0.2993 0.43304 0.0
C793 C 0.09281 0.30135 0.47779 0.0
C794 C 0.11691 0.29966 0.4708 0.0
C795 C 0.1222 0.2984 0.44467 0.0
C796 C 0.10367 0.29833 0.42604 0.0
C797 C 0.13671 0.29938 0.49055 0.0
C798 C 0.16601 0.31827 0.48797 0.0
C799 C 0.12697 0.28102 0.51203 0.0
C800 C 0.09671 0.25902 0.51515 0.0
C801 C 0.08242 0.23881 0.49583 0.0
C802 C 0.05384 0.21827 0.4988 0.0
C803 C 0.03939 0.21759 0.5211 0.0
C804 C 0.0535 0.23739 0.5405 0.0
C805 C 0.08207 0.258 0.53762 0.0
H806 H 0.01726 0.20167 0.52336 0.0
H807 H 0.29611 0.39574 0.49372 0.0
H808 H 0.80186 0.11638 0.74 0.0
H809 H 0.83137 0.14596 0.77509 0.0
H810 H 0.78904 0.07535 0.82694 0.0
H811 H 0.75926 0.04536 0.79173 0.0
H812 H 0.79566 0.12624 0.84688 0.0
H813 H 0.85391 0.09395 0.80656 0.0
H814 H 0.87784 0.08599 0.77015 0.0
H815 H 0.92555 0.17571 0.75612 0.0
H816 H 0.90159 0.18419 0.79224 0.0
H817 H 0.89058 0.18854 0.95049 0.0
H818 H 0.86108 0.15742 0.91617 0.0
H819 H 0.91216 0.22131 0.86056 0.0
H820 H 0.94263 0.25212 0.89494 0.0
H821 H 0.90058 0.17294 0.84246 0.0
H822 H 0.843 0.20648 0.88068 0.0
H823 H 0.81881 0.21623 0.91576 0.0
H824 H 0.76948 0.1271 0.93207 0.0
H825 H 0.79366 0.11684 0.8973 0.0
C826 C 0.79872 0.10701 0.75883 0.0
C827 C 0.77816 0.07836 0.76295 0.0
C828 C 0.81575 0.12401 0.7789 0.0
C829 C 0.81266 0.11287 0.80366 0.0
C830 C 0.79187 0.08441 0.808 0.0
C831 C 0.77492 0.06726 0.78782 0.0
C832 C 0.83117 0.13105 0.82488 0.0
C833 C 0.81859 0.13612 0.84613 0.0
C834 C 0.86114 0.14471 0.82355 0.0
C835 C 0.87577 0.13967 0.80197 0.0
C836 C 0.86935 0.11197 0.7956 0.0
C837 C 0.88295 0.10737 0.77503 0.0
C838 C 0.90315 0.13032 0.76079 0.0
C839 C 0.90987 0.15795 0.76714 0.0
C840 C 0.89631 0.16266 0.78768 0.0
C841 C 0.89554 0.19605 0.93096 0.0
C842 C 0.91891 0.22295 0.9255 0.0
C843 C 0.87849 0.17823 0.91128 0.0
C844 C 0.88385 0.18709 0.88563 0.0
C845 C 0.9074 0.21388 0.88012 0.0
C846 C 0.9248 0.23156 0.89982 0.0
C847 C 0.86514 0.16831 0.86462 0.0
C848 C 0.87767 0.16311 0.84335 0.0
C849 C 0.8351 0.15485 0.86576 0.0
C850 C 0.82034 0.16093 0.88654 0.0
C851 C 0.82712 0.18898 0.89185 0.0
C852 C 0.8134 0.19459 0.91167 0.0
C853 C 0.79267 0.1723 0.92617 0.0
C854 C 0.78556 0.14434 0.92084 0.0
C855 C 0.79925 0.13861 0.90107 0.0
H856 H 0.78208 0.1767 0.94151 0.0
H857 H 0.91365 0.12672 0.74487 0.0
H858 H 0.70066 0.80879 0.07142 0.0
H859 H 0.70139 0.83925 0.10606 0.0
H860 H 0.69495 0.77759 0.16141 0.0
H861 H 0.69449 0.74691 0.12669 0.0
H862 H 0.6569 0.79861 0.17005 0.0
H863 H 0.75619 0.83478 0.15479 0.0
H864 H 0.79934 0.8534 0.12837 0.0
H865 H 0.78983 0.92409 0.10585 0.0
H866 H 0.74635 0.90566 0.13186 0.0
H867 H 0.685 0.88416 0.28007 0.0
H868 H 0.68575 0.85363 0.24635 0.0
H869 H 0.70745 0.9203 0.19115 0.0
H870 H 0.70752 0.9514 0.22511 0.0
H871 H 0.73789 0.89619 0.18239 0.0
H872 H 0.63912 0.86113 0.1959 0.0
H873 H 0.59493 0.84306 0.22072 0.0
H874 H 0.60165 0.77107 0.24443 0.0
H875 H 0.64613 0.78894 0.22003 0.0
C876 C 0.69945 0.80165 0.09095 0.0
C877 C 0.69756 0.77538 0.09626 0.0
C878 C 0.69996 0.81917 0.11075 0.0
C879 C 0.69838 0.8108 0.13634 0.0
C880 C 0.69624 0.78449 0.14178 0.0
C881 C 0.69611 0.76705 0.12194 0.0
C882 C 0.6987 0.82952 0.15729 0.0
C883 C 0.67478 0.81979 0.17305 0.0
C884 C 0.72164 0.85748 0.16063 0.0
C885 C 0.74786 0.86869 0.14508 0.0
C886 C 0.76316 0.85417 0.14404 0.0
C887 C 0.7877 0.86471 0.12917 0.0
C888 C 0.79728 0.88987 0.11539 0.0
C889 C 0.78236 0.90459 0.11651 0.0
C890 C 0.75778 0.89412 0.13133 0.0
C891 C 0.68986 0.89238 0.26076 0.0
C892 C 0.69607 0.92026 0.25532 0.0
C893 C 0.69016 0.87479 0.24141 0.0
C894 C 0.69619 0.88438 0.21602 0.0
C895 C 0.70266 0.91231 0.21055 0.0
C896 C 0.70262 0.93007 0.22998 0.0
C897 C 0.69603 0.86535 0.19532 0.0
C898 C 0.71998 0.87501 0.17952 0.0
C899 C 0.67294 0.83742 0.19174 0.0
C900 C 0.64612 0.82652 0.20633 0.0
C901 C 0.63129 0.84155 0.20656 0.0
C902 C 0.60618 0.83133 0.22053 0.0
C903 C 0.59553 0.80597 0.2342 0.0
C904 C 0.60994 0.79074 0.23386 0.0
C905 C 0.6351 0.80089 0.21995 0.0
H906 H 0.57608 0.79809 0.24501 0.0
H907 H 0.81629 0.898 0.10389 0.0
H908 H 0.89943 0.70352 0.40446 0.0
H909 H 0.86886 0.70461 0.43808 0.0
H910 H 0.92681 0.70668 0.49539 0.0
H911 H 0.95786 0.7059 0.46172 0.0
H912 H 0.86841 0.66698 0.50557 0.0
H913 H 0.92732 0.76543 0.48336 0.0
H914 H 0.94935 0.80613 0.45381 0.0
H915 H 0.86695 0.79009 0.43056 0.0
H916 H 0.84441 0.74901 0.45971 0.0
H917 H 0.81301 0.70125 0.61261 0.0
H918 H 0.8436 0.70099 0.57882 0.0
H919 H 0.79353 0.71442 0.52254 0.0
H920 H 0.76309 0.71552 0.5566 0.0
H921 H 0.84753 0.74579 0.51109 0.0
H922 H 0.7879 0.64817 0.53216 0.0
H923 H 0.76429 0.60634 0.56031 0.0
H924 H 0.84531 0.61864 0.5837 0.0
H925 H 0.86945 0.66083 0.55596 0.0
C926 C 0.90574 0.70417 0.4242 0.0
C927 C 0.93119 0.70468 0.43037 0.0
C928 C 0.88824 0.70489 0.44341 0.0
C929 C 0.8956 0.7059 0.46926 0.0
C930 C 0.92074 0.70595 0.47556 0.0
C931 C 0.9385 0.7056 0.4563 0.0
C932 C 0.877 0.70693 0.4896 0.0
C933 C 0.86415 0.68439 0.50704 0.0
C934 C 0.87067 0.72918 0.49097 0.0
C935 C 0.88418 0.75397 0.47354 0.0
C936 C 0.91389 0.77043 0.47179 0.0
C937 C 0.92648 0.7936 0.45514 0.0
C938 C 0.90956 0.80064 0.44026 0.0
C939 C 0.88002 0.78458 0.44206 0.0
C940 C 0.86733 0.76137 0.45867 0.0
C941 C 0.80838 0.70412 0.59307 0.0
C942 C 0.7854 0.70821 0.58735 0.0
C943 C 0.8259 0.70383 0.57368 0.0
C944 C 0.82065 0.70711 0.54797 0.0
C945 C 0.79801 0.71171 0.54219 0.0
C946 C 0.78057 0.71228 0.56168 0.0
C947 C 0.83894 0.70585 0.52729 0.0
C948 C 0.85171 0.72832 0.5097 0.0
C949 C 0.84492 0.68332 0.52558 0.0
C950 C 0.83049 0.65783 0.54215 0.0
C951 C 0.80069 0.64208 0.54344 0.0
C952 C 0.78721 0.61829 0.5593 0.0
C953 C 0.80329 0.60988 0.57383 0.0
C954 C 0.83289 0.6252 0.57246 0.0
C955 C 0.84648 0.64904 0.55665 0.0
H956 H 0.79282 0.59145 0.5861 0.0
H957 H 0.91934 0.81859 0.42739 0.0
H958 H 0.19197 0.89497 0.7348 0.0
H959 H 0.16007 0.86443 0.76837 0.0
H960 H 0.21845 0.91948 0.82586 0.0
H961 H 0.25045 0.95052 0.79227 0.0
H962 H 0.19794 0.85997 0.83378 0.0
H963 H 0.16162 0.92283 0.81691 0.0
H964 H 0.14359 0.94732 0.78964 0.0
H965 H 0.07422 0.86701 0.76548 0.0
H966 H 0.09209 0.84202 0.79234 0.0
H967 H 0.11117 0.80401 0.94257 0.0
H968 H 0.1418 0.83456 0.90868 0.0
H969 H 0.07551 0.78852 0.85338 0.0
H970 H 0.0442 0.75815 0.88759 0.0
H971 H 0.09997 0.843 0.84345 0.0
H972 H 0.13469 0.77951 0.85917 0.0
H973 H 0.15222 0.75344 0.88487 0.0
H974 H 0.22387 0.83218 0.90896 0.0
H975 H 0.20655 0.85876 0.88369 0.0
C976 C 0.19806 0.90068 0.75458 0.0
C977 C 0.22379 0.92527 0.76083 0.0
C978 C 0.17972 0.8832 0.77376 0.0
C979 C 0.18679 0.88969 0.79965 0.0
C980 C 0.21255 0.91407 0.80601 0.0
C981 C 0.23075 0.93186 0.78679 0.0
C982 C 0.16733 0.8708 0.81998 0.0
C983 C 0.17666 0.85656 0.83617 0.0
C984 C 0.13922 0.86558 0.82251 0.0
C985 C 0.12836 0.88055 0.80644 0.0
C986 C 0.14266 0.91038 0.80561 0.0
C987 C 0.13245 0.92436 0.79026 0.0
C988 C 0.10782 0.90873 0.77578 0.0
C989 C 0.09332 0.87909 0.77668 0.0
C990 C 0.10347 0.86501 0.79198 0.0
C991 C 0.103 0.80021 0.92322 0.0
C992 C 0.07516 0.77841 0.91786 0.0
C993 C 0.12069 0.81771 0.90375 0.0
C994 C 0.11129 0.81365 0.87827 0.0
C995 C 0.08338 0.79209 0.87284 0.0
C996 C 0.0655 0.77466 0.89242 0.0
C997 C 0.13057 0.83216 0.85751 0.0
C998 C 0.12122 0.84632 0.84115 0.0
C999 C 0.15859 0.83703 0.8546 0.0
C1000 C 0.16917 0.82113 0.86972 0.0
C1001 C 0.15408 0.79128 0.8701 0.0
C1002 C 0.16399 0.77641 0.88456 0.0
C1003 C 0.1891 0.79115 0.89859 0.0
C1004 C 0.2044 0.8208 0.89811 0.0
C1005 C 0.19456 0.83578 0.8837 0.0
H1006 H 0.19674 0.7796 0.90978 0.0
H1007 H 0.09994 0.91959 0.76391 0.0
H1008 H 0.43555 0.06488 0.33149 0.0
H1009 H 0.47793 0.05962 0.3316 0.0
H1010 H 0.42459 0.9686 0.33126 0.0
H1011 H 0.38238 0.97361 0.33035 0.0
H1012 H 0.47357 0.99577 0.36994 0.0
H1013 H 0.44912 0.99054 0.27973 0.0
H1014 H 0.43863 0.00896 0.24065 0.0
H1015 H 0.52015 0.08469 0.24537 0.0
H1016 H 0.53092 0.06688 0.28475 0.0
H1017 H 0.57214 0.94943 0.34498 0.0
H1018 H 0.5307 0.95582 0.34584 0.0
H1019 H 0.5812 0.04009 0.31474 0.0
H1020 H 0.6222 0.03341 0.31293 0.0
H1021 H 0.53361 0.01771 0.29255 0.0
H1022 H 0.56007 0.02724 0.38044 0.0
H1023 H 0.57231 0.01498 0.42207 0.0
H1024 H 0.49133 0.9384 0.42461 0.0
H1025 H 0.47857 0.9503 0.38296 0.0
C1026 C 0.43292 0.04379 0.33147 0.0
C1027 C 0.40567 0.01968 0.33077 0.0
C1028 C 0.45708 0.04081 0.33151 0.0
C1029 C 0.45431 0.0137 0.33144 0.0
C1030 C 0.42715 0.98967 0.33134 0.0
C1031 C 0.40308 0.99261 0.33069 0.0
C1032 C 0.47966 0.01023 0.33099 0.0
C1033 C 0.48659 1.00025 0.35298 0.0
C1034 C 0.49705 0.01695 0.30911 0.0
C1035 C 0.49067 0.02753 0.28535 0.0
C1036 C 0.46468 0.01124 0.27259 0.0
C1037 C 0.45871 0.02154 0.25035 0.0
C1038 C 0.47867 0.04802 0.24058 0.0
C1039 C 0.50468 0.06421 0.25299 0.0
C1040 C 0.51073 0.05402 0.27526 0.0
C1041 C 0.57437 0.96928 0.33827 0.0
C1042 C 0.60052 0.99087 0.32887 0.0
C1043 C 0.55069 0.97303 0.33896 0.0
C1044 C 0.55278 0.99866 0.33073 0.0
C1045 C 0.57887 0.0201 0.32118 0.0
C1046 C 0.60239 0.01624 0.32017 0.0
C1047 C 0.5278 0.00307 0.33162 0.0
C1048 C 0.5208 0.01321 0.30965 0.0
C1049 C 0.51073 0.99714 0.35377 0.0
C1050 C 0.5185 0.98951 0.37848 0.0
C1051 C 0.54498 0.00766 0.38977 0.0
C1052 C 0.55197 1.00082 0.4134 0.0
C1053 C 0.53266 0.97585 0.42593 0.0
C1054 C 0.50628 0.95771 0.41487 0.0
C1055 C 0.49912 0.96453 0.39128 0.0
H1056 H 0.53808 0.97063 0.44427 0.0
H1057 H 0.47402 0.05595 0.22335 0.0
H1058 H 0.63711 0.57685 0.66581 0.0
H1059 H 0.59 0.53385 0.66486 0.0
H1060 H 0.55123 0.58527 0.65275 0.0
H1061 H 0.59796 0.62805 0.65311 0.0
H1062 H 0.52532 0.54183 0.69255 0.0
H1063 H 0.55588 0.55393 0.60413 0.0
H1064 H 0.58913 0.55962 0.56959 0.0
H1065 H 0.5821 0.4798 0.58964 0.0
H1066 H 0.54912 0.47386 0.62458 0.0
H1067 H 0.38444 0.4356 0.66212 0.0
H1068 H 0.43143 0.47837 0.66256 0.0
H1069 H 0.47016 0.427 0.6491 0.0
H1070 H 0.42338 0.38467 0.64724 0.0
H1071 H 0.4972 0.4709 0.62286 0.0
H1072 H 0.46809 0.45689 0.71042 0.0
H1073 H 0.43687 0.44996 0.74714 0.0
H1074 H 0.44337 0.53065 0.7324 0.0
H1075 H 0.47434 0.5379 0.69537 0.0
C1076 C 0.61854 0.57895 0.66291 0.0
C1077 C 0.62131 0.60585 0.65939 0.0
C1078 C 0.59167 0.5544 0.66236 0.0
C1079 C 0.56713 0.55641 0.65873 0.0
C1080 C 0.56986 0.58325 0.65561 0.0
C1081 C 0.59664 0.60767 0.65567 0.0
C1082 C 0.53855 0.53059 0.65787 0.0
C1083 C 0.51899 0.52639 0.67722 0.0
C1084 C 0.53064 0.51014 0.63825 0.0
C1085 C 0.55029 0.51361 0.61714 0.0
C1086 C 0.56163 0.53772 0.60133 0.0
C1087 C 0.58038 0.54096 0.58164 0.0
C1088 C 0.58779 0.52012 0.57747 0.0
C1089 C 0.57638 0.49595 0.59292 0.0
C1090 C 0.55764 0.49263 0.61265 0.0
C1091 C 0.40301 0.43352 0.65916 0.0
C1092 C 0.40015 0.40674 0.65464 0.0
C1093 C 0.42994 0.45796 0.65961 0.0
C1094 C 0.45463 0.45605 0.65636 0.0
C1095 C 0.45164 0.42926 0.65163 0.0
C1096 C 0.42478 0.40498 0.65061 0.0
C1097 C 0.48358 0.48178 0.65769 0.0
C1098 C 0.50333 0.4861 0.63836 0.0
C1099 C 0.49185 0.50205 0.67768 0.0
C1100 C 0.47329 0.4978 0.69997 0.0
C1101 C 0.46269 0.47306 0.7149 0.0
C1102 C 0.44507 0.46909 0.73579 0.0
C1103 C 0.43808 0.48982 0.74206 0.0
C1104 C 0.44877 0.5146 0.7275 0.0
C1105 C 0.46637 0.51866 0.70657 0.0
H1106 H 0.42443 0.4867 0.75823 0.0
H1107 H 0.60231 0.52267 0.56222 0.0
H1108 H 0.98267 0.59876 0.96047 0.0
H1109 H 0.97346 0.55005 0.95909 0.0
H1110 H 0.04156 0.57168 0.01261 0.0
H1111 H 0.05109 0.62072 0.01406 0.0
H1112 H 0.03971 0.53555 0.97397 0.0
H1113 H 0.9744 0.54085 0.03337 0.0
H1114 H 0.93822 0.55354 0.04497 0.0
H1115 H 0.88239 0.49706 0.98726 0.0
H1116 H 0.91846 0.4844 0.975 0.0
H1117 H 0.00819 0.40205 0.01712 0.0
H1118 H 0.01545 0.44999 0.01597 0.0
H1119 H 0.93981 0.42056 0.97028 0.0
H1120 H 0.93174 0.37187 0.97236 0.0
H1121 H 0.94432 0.46037 1.00226 0.0
H1122 H 0.00718 0.45344 0.94311 0.0
H1123 H 0.04307 0.44131 0.92908 0.0
H1124 H 0.1028 0.50089 0.98285 0.0
H1125 H 0.0671 0.51303 0.99753 0.0
C1126 C 0.99597 0.59335 0.97176 0.0
C1127 C 0.01748 0.61369 0.9876 0.0
C1128 C 0.99058 0.56539 0.97099 0.0
C1129 C 0.00646 0.55705 0.9861 0.0
C1130 C 0.02894 0.5776 1.00088 0.0
C1131 C 0.03436 0.60565 1.00169 0.0
C1132 C 0.99874 0.52668 0.98743 0.0
C1133 C 0.01898 0.51916 0.98042 0.0
C1134 C 0.97136 0.50512 0.99508 0.0
C1135 C 0.94923 0.51186 0.00313 0.0
C1136 C 0.95445 0.53121 0.02309 0.0
C1137 C 0.93397 0.53842 0.02977 0.0
C1138 C 0.90805 0.52617 0.01681 0.0
C1139 C 0.9025 0.50656 0.99725 0.0
C1140 C 0.92294 0.49934 0.99044 0.0
C1141 C 0.99287 0.40568 0.00705 0.0
C1142 C 0.96953 0.38323 0.99461 0.0
C1143 C 0.99715 0.43318 0.00628 0.0
C1144 C 0.97869 0.43918 0.99238 0.0
C1145 C 0.95452 0.41656 0.98094 0.0
C1146 C 0.9499 0.38875 0.98214 0.0
C1147 C 0.98546 0.4692 0.98913 0.0
C1148 C 0.96503 0.47669 0.99572 0.0
C1149 C 0.01259 0.49072 0.98076 0.0
C1150 C 0.03438 0.48401 0.97154 0.0
C1151 C 0.02793 0.46387 0.95202 0.0
C1152 C 0.04823 0.45698 0.94396 0.0
C1153 C 0.07519 0.4703 0.95509 0.0
C1154 C 0.08191 0.49059 0.97426 0.0
C1155 C 0.06166 0.49751 0.98244 0.0
H1156 H 0.09087 0.46493 0.94883 0.0
H1157 H 0.89227 0.53185 0.02195 0.0
H1158 H 0.02713 0.61735 0.38266 0.0
H1159 H 0.03301 0.57597 0.38302 0.0
H1160 H 0.95847 0.53068 0.33581 0.0
H1161 H 0.95311 0.57282 0.33446 0.0
H1162 H 0.00539 0.52586 0.39993 0.0
H1163 H 0.9643 0.48269 0.29829 0.0
H1164 H 0.96028 0.5005 0.25601 0.0
H1165 H 0.03077 0.5827 0.27396 0.0
H1166 H 0.03544 0.56528 0.3162 0.0
H1167 H 0.98552 0.38819 0.38874 0.0
H1168 H 0.98083 0.43032 0.38834 0.0
H1169 H 0.04801 0.46902 0.33263 0.0
H1170 H 0.05214 0.42614 0.33223 0.0
H1171 H 0.00717 0.47844 0.31952 0.0
H1172 H 0.05799 0.48982 0.39693 0.0
H1173 H 0.06818 0.476 0.43877 0.0
H1174 H 0.98972 0.46485 0.46846 0.0
H1175 H 0.97887 0.47825 0.42668 0.0
C1176 C 0.01185 0.59864 0.37235 0.0
C1177 C 0.98973 0.5986 0.35834 0.0
C1178 C 0.01523 0.57484 0.37265 0.0
C1179 C 0.99648 0.55018 0.35916 0.0
C1180 C 0.97366 0.54962 0.34592 0.0
C1181 C 0.97046 0.57367 0.34533 0.0
C1182 C 1.00125 0.52542 0.35893 0.0
C1183 C 0.00569 0.51549 0.38231 0.0
C1184 C 1.00237 0.51215 0.33597 0.0
C1185 C 1.0 0.52274 0.3105 0.0
C1186 C 0.979 0.50453 0.29317 0.0
C1187 C 0.9766 0.51456 0.26922 0.0
C1188 C 0.9952 0.54274 0.26234 0.0
C1189 C 0.01631 0.56091 0.27935 0.0
C1190 C 0.01883 0.55098 0.3033 0.0
C1191 C 0.99951 0.40566 0.37649 0.0
C1192 C 0.0193 0.4037 0.36054 0.0
C1193 C 0.99685 0.4299 0.37637 0.0
C1194 C 0.01427 0.45312 0.36069 0.0
C1195 C 0.03429 0.45141 0.34491 0.0
C1196 C 0.03678 0.42695 0.34483 0.0
C1197 C 0.01107 0.47882 0.36053 0.0
C1198 C 0.00685 0.48883 0.33711 0.0
C1199 C 0.01103 0.49278 0.38339 0.0
C1200 C 0.01751 0.4848 0.4086 0.0
C1201 C 0.04281 0.48423 0.41233 0.0
C1202 C 0.04872 0.4765 0.43604 0.0
C1203 C 0.02958 0.46949 0.45625 0.0
C1204 C 0.00452 0.47026 0.45279 0.0
C1205 C 0.99849 0.47795 0.4291 0.0
H1206 H 0.03419 0.4635 0.47459 0.0
H1207 H 0.99328 0.55047 0.24381 0.0
H1208 H 0.62655 0.05725 0.68983 0.0
H1209 H 0.57831 0.05027 0.691 0.0
H1210 H 0.54381 0.96004 0.69879 0.0
H1211 H 0.59174 0.96682 0.69833 0.0
H1212 H 0.51823 0.97939 0.65854 0.0
H1213 H 0.54246 0.98933 0.74843 0.0
H1214 H 0.57267 0.01369 0.78571 0.0
H1215 H 0.56393 0.08664 0.77125 0.0
H1216 H 0.53399 0.06285 0.73362 0.0
H1217 H 0.37431 0.94069 0.68196 0.0
H1218 H 0.42123 0.94473 0.68358 0.0
H1219 H 0.45891 0.03341 0.70317 0.0
H1220 H 0.41228 0.02916 0.70272 0.0
H1221 H 0.48325 0.01352 0.73004 0.0
H1222 H 0.46164 0.0075 0.6407 0.0
H1223 H 0.43369 0.98687 0.60143 0.0
H1224 H 0.43988 0.91184 0.61163 0.0
H1225 H 0.46758 0.93188 0.65117 0.0
C1226 C 0.60868 0.03596 0.69197 0.0
C1227 C 0.613 0.01263 0.69412 0.0
C1228 C 0.58117 0.03201 0.69261 0.0
C1229 C 0.55751 0.00462 0.69493 0.0
C1230 C 0.56177 0.98132 0.69695 0.0
C1231 C 0.58922 0.98529 0.69685 0.0
C1232 C 0.52827 1.00019 0.69515 0.0
C1233 C 0.51037 0.98651 0.67428 0.0
C1234 C 0.51839 0.01018 0.71537 0.0
C1235 C 0.53625 0.02443 0.73805 0.0
C1236 C 0.5472 0.01067 0.75305 0.0
C1237 C 0.56423 0.02435 0.77428 0.0
C1238 C 0.57029 0.05173 0.7808 0.0
C1239 C 0.55926 0.06545 0.76615 0.0
C1240 C 0.54224 0.05187 0.74488 0.0
C1241 C 0.39262 0.96099 0.6867 0.0
C1242 C 0.38948 0.98456 0.69223 0.0
C1243 C 0.41951 0.96336 0.68747 0.0
C1244 C 0.44389 0.98953 0.69314 0.0
C1245 C 0.44061 0.01295 0.69883 0.0
C1246 C 0.4138 0.01047 0.69852 0.0
C1247 C 0.47287 0.99281 0.69322 0.0
C1248 C 0.49087 0.00629 0.7142 0.0
C1249 C 0.48304 0.98317 0.6728 0.0
C1250 C 0.4664 0.97105 0.64904 0.0
C1251 C 0.45685 0.98651 0.63467 0.0
C1252 C 0.44109 0.97494 0.61235 0.0
C1253 C 0.43494 0.94803 0.60408 0.0
C1254 C 0.44461 0.93266 0.61809 0.0
C1255 C 0.46036 0.94412 0.64044 0.0
H1256 H 0.42274 0.93911 0.58679 0.0
H1257 H 0.58347 0.06228 0.79725 0.0
H1258 H 0.39556 0.39635 0.0544 0.0
H1259 H 0.43567 0.44461 0.05612 0.0
H1260 H 0.47728 0.42479 0.99616 0.0
H1261 H 0.43687 0.37619 0.99403 0.0
H1262 H 0.51416 0.46003 0.03739 0.0
H1263 H 0.44246 0.4554 0.97944 0.0
H1264 H 0.39332 0.44245 0.96864 0.0
H1265 H 0.39363 0.49648 0.02863 0.0
H1266 H 0.44262 0.50936 0.0401 0.0
H1267 H 0.61488 0.59724 1.00049 0.0
H1268 H 0.57545 0.54856 0.99949 0.0
H1269 H 0.52521 0.57326 0.04501 0.0
H1270 H 0.56442 0.62267 0.04478 0.0
H1271 H 0.4921 0.535 0.01251 0.0
H1272 H 0.56185 0.54074 0.07118 0.0
H1273 H 0.60997 0.5533 0.08528 0.0
H1274 H 0.61246 0.49717 0.02896 0.0
H1275 H 0.56452 0.48463 0.01421 0.0
C1276 C 0.41334 0.402 0.04175 0.0
C1277 C 0.41277 0.3824 0.0238 0.0
C1278 C 0.43627 0.42967 0.04279 0.0
C1279 C 0.45922 0.43839 0.02601 0.0
C1280 C 0.45967 0.41848 0.00921 0.0
C1281 C 0.43657 0.39071 0.00802 0.0
C1282 C 0.48164 0.46874 0.02488 0.0
C1283 C 0.50949 0.47642 0.03163 0.0
C1284 C 0.47525 0.49016 0.0182 0.0
C1285 C 0.44614 0.48317 0.01076 0.0
C1286 C 0.432 0.46441 0.99042 0.0
C1287 C 0.40417 0.45708 0.98418 0.0
C1288 C 0.39035 0.46861 0.99796 0.0
C1289 C 0.40437 0.48756 0.01797 0.0
C1290 C 0.43217 0.4949 0.02434 0.0
C1291 C 0.59529 0.59237 0.01003 0.0
C1292 C 0.59276 0.61366 0.0229 0.0
C1293 C 0.57281 0.56446 0.00962 0.0
C1294 C 0.54758 0.55692 0.02288 0.0
C1295 C 0.54452 0.57843 0.03482 0.0
C1296 C 0.56689 0.60665 0.03469 0.0
C1297 C 0.52495 0.52651 0.02481 0.0
C1298 C 0.49695 0.51873 0.01828 0.0
C1299 C 0.53112 0.50503 0.03218 0.0
C1300 C 0.55966 0.51191 0.04145 0.0
C1301 C 0.5727 0.53116 0.06173 0.0
C1302 C 0.59995 0.53829 0.06983 0.0
C1303 C 0.61429 0.52608 0.05799 0.0
C1304 C 0.60134 0.50662 0.03809 0.0
C1305 C 0.57411 0.49948 0.02987 0.0
H1306 H 0.6354 0.53165 0.06426 0.0
H1307 H 0.36881 0.4629 0.99311 0.0
H1308 H 0.00827 0.7893 0.35538 0.0
H1309 H 0.04353 0.83996 0.35091 0.0
H1310 H 0.11065 0.82152 0.36558 0.0
H1311 H 0.07615 0.77162 0.37003 0.0
H1312 H 0.12204 0.8697 0.3888 0.0
H1313 H 0.0919 0.82654 0.30508 0.0
H1314 H 0.05626 0.8007 0.27153 0.0
H1315 H 0.03432 0.86633 0.27012 0.0
H1316 H 0.0696 0.89237 0.30396 0.0
H1317 H 0.23167 0.95582 0.29197 0.0
H1318 H 0.18261 0.91969 0.3001 0.0
H1319 H 0.17795 0.97106 0.36065 0.0
H1320 H 0.22753 0.00744 0.35264 0.0
H1321 H 0.12961 0.91213 0.30315 0.0
H1322 H 0.14684 0.92587 0.41146 0.0
H1323 H 0.18624 0.94767 0.44255 0.0
H1324 H 0.23995 0.93473 0.39081 0.0
H1325 H 0.2008 0.9126 0.35956 0.0
C1326 C 0.03051 0.79615 0.35808 0.0
C1327 C 0.03926 0.77625 0.36303 0.0
C1328 C 0.05063 0.82509 0.35546 0.0
C1329 C 0.07978 0.83455 0.35784 0.0
C1330 C 0.08833 0.81485 0.36384 0.0
C1331 C 0.06842 0.78614 0.3663 0.0
C1332 C 0.1019 0.86432 0.35212 0.0
C1333 C 0.12335 0.87925 0.37027 0.0
C1334 C 0.10399 0.87661 0.32778 0.0
C1335 C 0.08309 0.86121 0.30724 0.0
C1336 C 0.07934 0.83536 0.29772 0.0
C1337 C 0.05923 0.82069 0.27865 0.0
C1338 C 0.04298 0.83182 0.26876 0.0
C1339 C 0.04688 0.8577 0.27785 0.0
C1340 C 0.06692 0.87243 0.29697 0.0
C1341 C 0.21998 0.9598 0.30656 0.0
C1342 C 0.23353 0.98425 0.32191 0.0
C1343 C 0.19184 0.93919 0.31109 0.0
C1344 C 0.17671 0.94244 0.33123 0.0
C1345 C 0.18933 0.96802 0.34513 0.0
C1346 C 0.21759 0.98886 0.34045 0.0
C1347 C 0.1498 0.91735 0.33976 0.0
C1348 C 0.12764 0.90318 0.32208 0.0
C1349 C 0.1475 0.90525 0.36424 0.0
C1350 C 0.171 0.91795 0.38309 0.0
C1351 C 0.16704 0.92763 0.40677 0.0
C1352 C 0.18933 0.94005 0.4244 0.0
C1353 C 0.21563 0.94272 0.41859 0.0
C1354 C 0.21963 0.93279 0.39521 0.0
C1355 C 0.1974 0.92032 0.37754 0.0
H1356 H 0.23287 0.95239 0.43223 0.0
H1357 H 0.02741 0.82043 0.25401 0.0
H1358 H 0.30111 0.23179 0.6335 0.0
H1359 H 0.28313 0.1815 0.63945 0.0
H1360 H 0.20952 0.17348 0.67814 0.0
H1361 H 0.22774 0.22459 0.67241 0.0
H1362 H 0.23284 0.14869 0.70506 0.0
H1363 H 0.20179 0.14129 0.62002 0.0
H1364 H 0.20408 0.15375 0.57445 0.0
H1365 H 0.27172 0.13593 0.5629 0.0
H1366 H 0.27017 0.12378 0.60849 0.0
H1367 H 0.22146 1.00085 0.66898 0.0
H1368 H 0.20603 0.03586 0.6622 0.0
H1369 H 0.2767 0.09684 0.70735 0.0
H1370 H 0.29189 0.06244 0.71423 0.0
H1371 H 0.23464 0.08549 0.63757 0.0
H1372 H 0.26324 0.14178 0.73738 0.0
H1373 H 0.25869 0.12817 0.78281 0.0
H1374 H 0.18963 0.04524 0.76455 0.0
H1375 H 0.19344 0.05845 0.71906 0.0
C1376 C 0.28084 0.21944 0.6429 0.0
C1377 C 0.26591 0.23242 0.65245 0.0
C1378 C 0.27045 0.19046 0.64615 0.0
C1379 C 0.24476 0.17349 0.65896 0.0
C1380 C 0.22932 0.1861 0.66803 0.0
C1381 C 0.23969 0.21529 0.66463 0.0
C1382 C 0.23592 0.14333 0.66463 0.0
C1383 C 0.23278 0.13468 0.69028 0.0
C1384 C 0.23493 0.12459 0.64531 0.0
C1385 C 0.23587 0.13165 0.61775 0.0
C1386 C 0.21726 0.14016 0.60781 0.0
C1387 C 0.21842 0.14716 0.58196 0.0
C1388 C 0.23804 0.14564 0.56579 0.0
C1389 C 0.25651 0.13706 0.57544 0.0
C1390 C 0.25545 0.13005 0.60129 0.0
C1391 C 0.23325 0.0215 0.67796 0.0
C1392 C 0.25796 0.0288 0.69214 0.0
C1393 C 0.2245 0.04153 0.67396 0.0
C1394 C 0.24002 0.06896 0.68447 0.0
C1395 C 0.26398 0.07574 0.69942 0.0
C1396 C 0.2728 0.05597 0.70322 0.0
C1397 C 0.23342 0.09173 0.67808 0.0
C1398 C 0.23378 0.09907 0.65231 0.0
C1399 C 0.23141 0.10904 0.69727 0.0
C1400 C 0.2287 0.10112 0.72473 0.0
C1401 C 0.24692 0.12072 0.74305 0.0
C1402 C 0.24451 0.11304 0.76883 0.0
C1403 C 0.22391 0.08585 0.77656 0.0
C1404 C 0.20562 0.06628 0.75853 0.0
C1405 C 0.20793 0.07384 0.73274 0.0
H1406 H 0.2221 0.07995 0.79652 0.0
H1407 H 0.23891 0.15109 0.54579 0.0
H1408 H 0.21576 0.21831 0.02654 0.0
H1409 H 0.16599 0.20715 0.02437 0.0
H1410 H 0.19404 0.29383 0.00309 0.0
H1411 H 0.24286 0.30515 0.00571 0.0
H1412 H 0.15568 0.27769 0.03938 0.0
H1413 H 0.16669 0.23665 0.9596 0.0
H1414 H 0.17554 0.20298 0.93527 0.0
H1415 H 0.10539 0.13294 0.97291 0.0
H1416 H 0.09637 0.16624 0.9977 0.0
H1417 H 0.06109 0.30015 0.97417 0.0
H1418 H 0.09814 0.28818 0.97983 0.0
H1419 H 0.03734 0.20696 0.01129 0.0
H1420 H 0.99951 0.21865 0.00527 0.0
H1421 H 0.08454 0.20877 0.97857 0.0
H1422 H 0.06904 0.25137 0.05265 0.0
H1423 H 0.05919 0.28642 0.07304 0.0
H1424 H 0.1384 0.35428 0.04524 0.0
H1425 H 0.14841 0.31969 0.02411 0.0
C1426 C 0.21121 0.23491 0.02139 0.0
C1427 C 0.23345 0.26268 0.01649 0.0
C1428 C 0.18278 0.2285 0.0201 0.0
C1429 C 0.17622 0.2497 0.01363 0.0
C1430 C 0.19844 0.27716 0.0084 0.0
C1431 C 0.22654 0.28357 0.00986 0.0
C1432 C 0.14658 0.24429 0.01233 0.0
C1433 C 0.14011 0.26244 0.0262 0.0
C1434 C 0.12576 0.22381 0.99578 0.0
C1435 C 0.13108 0.20391 0.9807 0.0
C1436 C 0.15329 0.21408 0.9628 0.0
C1437 C 0.15831 0.19506 0.94892 0.0
C1438 C 0.1411 0.16584 0.9526 0.0
C1439 C 0.11875 0.15557 0.97011 0.0
C1440 C 0.11367 0.1745 0.98408 0.0
C1441 C 0.05526 0.27944 0.98173 0.0
C1442 C 0.0273 0.26054 0.98956 0.0
C1443 C 0.07655 0.2726 0.9849 0.0
C1444 C 0.07056 0.24686 0.99628 0.0
C1445 C 0.04237 0.22693 1.00244 0.0
C1446 C 0.02082 0.23371 0.99906 0.0
C1447 C 0.09458 0.24314 0.00465 0.0
C1448 C 0.09984 0.22334 0.9923 0.0
C1449 C 0.11445 0.26213 0.02261 0.0
C1450 C 0.10941 0.28291 0.0367 0.0
C1451 C 0.08434 0.27376 0.05085 0.0
C1452 C 0.07868 0.29355 0.06246 0.0
C1453 C 0.09812 0.32253 0.06035 0.0
C1454 C 0.12337 0.3318 0.04683 0.0
C1455 C 0.12905 0.31212 0.03503 0.0
H1456 H 0.0936 0.33782 0.06916 0.0
H1457 H 0.14502 0.15116 0.94184 0.0
H1458 H 0.99518 0.21067 0.36533 0.0
H1459 H 0.95903 0.16041 0.36071 0.0
H1460 H 0.89322 0.18156 0.37171 0.0
H1461 H 0.92874 0.2312 0.37658 0.0
H1462 H 0.87849 0.13235 0.39424 0.0
H1463 H 0.9158 0.17693 0.31205 0.0
H1464 H 0.95468 0.20285 0.28123 0.0
H1465 H 0.97357 0.13508 0.28248 0.0
H1466 H 0.93506 0.10897 0.31365 0.0
H1467 H 0.77437 0.04927 0.29235 0.0
H1468 H 0.82309 0.0847 0.30279 0.0
H1469 H 0.82326 0.03167 0.364 0.0
H1470 H 0.77412 0.99597 0.35361 0.0
H1471 H 0.8757 0.09108 0.30892 0.0
H1472 H 0.85131 0.07581 0.4161 0.0
H1473 H 0.81 0.05425 0.44511 0.0
H1474 H 0.76059 0.06942 0.39002 0.0
H1475 H 0.80163 0.09126 0.3608 0.0
C1476 C 0.97303 0.20452 0.36727 0.0
C1477 C 0.96495 0.22512 0.37113 0.0
C1478 C 0.95239 0.17579 0.36456 0.0
C1479 C 0.92337 0.16722 0.36562 0.0
C1480 C 0.91542 0.18756 0.3709 0.0
C1481 C 0.93589 0.2161 0.37355 0.0
C1482 C 0.90097 0.13787 0.35888 0.0
C1483 C 0.87819 0.12306 0.3758 0.0
C1484 C 0.90023 0.1259 0.33464 0.0
C1485 C 0.9228 0.14117 0.31537 0.0
C1486 C 0.92834 0.16763 0.30582 0.0
C1487 C 0.95031 0.18236 0.28831 0.0
C1488 C 0.96664 0.17066 0.27996 0.0
C1489 C 0.96094 0.14414 0.28901 0.0
C1490 C 0.93906 0.12937 0.3066 0.0
C1491 C 0.78504 0.04473 0.30754 0.0
C1492 C 0.77032 0.02001 0.32236 0.0
C1493 C 0.81298 0.06498 0.31342 0.0
C1494 C 0.82669 0.06106 0.33442 0.0
C1495 C 0.81298 0.03521 0.34782 0.0
C1496 C 0.78496 0.01474 0.34178 0.0
C1497 C 0.85319 0.08572 0.34422 0.0
C1498 C 0.87658 0.09978 0.32779 0.0
C1499 C 0.85413 0.09747 0.36862 0.0
C1500 C 0.82943 0.0848 0.38618 0.0
C1501 C 0.83163 0.07456 0.41022 0.0
C1502 C 0.80826 0.06228 0.42667 0.0
C1503 C 0.78263 0.06031 0.41934 0.0
C1504 C 0.78038 0.07078 0.39559 0.0
C1505 C 0.80368 0.08309 0.37908 0.0
H1506 H 0.76457 0.05077 0.43208 0.0
H1507 H 0.98368 0.18211 0.26644 0.0
H1508 H 0.73071 0.78172 0.62521 0.0
H1509 H 0.74552 0.83169 0.63105 0.0
H1510 H 0.79847 0.83654 0.69446 0.0
H1511 H 0.78369 0.78611 0.68846 0.0
H1512 H 0.76058 0.85586 0.70612 0.0
H1513 H 0.83025 0.87408 0.64288 0.0
H1514 H 0.84897 0.86719 0.60226 0.0
H1515 H 0.79383 0.88775 0.56026 0.0
H1516 H 0.77445 0.89435 0.60061 0.0
H1517 H 0.77966 0.99582 0.71598 0.0
H1518 H 0.79554 0.96079 0.71105 0.0
H1519 H 0.7441 0.92816 0.64315 0.0
H1520 H 0.72824 0.96265 0.64818 0.0
H1521 H 0.79503 0.92919 0.63811 0.0
H1522 H 0.71719 0.89704 0.69836 0.0
H1523 H 0.6942 0.90139 0.73732 0.0
H1524 H 0.76149 0.90519 0.7832 0.0
H1525 H 0.78499 0.90105 0.74437 0.0
C1526 C 0.74596 0.79354 0.64006 0.0
C1527 C 0.75602 0.78001 0.65638 0.0
C1528 C 0.75453 0.82218 0.64332 0.0
C1529 C 0.7732 0.83795 0.66314 0.0
C1530 C 0.78415 0.82481 0.67897 0.0
C1531 C 0.77588 0.79609 0.67542 0.0
C1532 C 0.77876 0.86718 0.66842 0.0
C1533 C 0.76901 0.87226 0.69157 0.0
C1534 C 0.78911 0.88836 0.64922 0.0
C1535 C 0.80082 0.88462 0.62483 0.0
C1536 C 0.82198 0.87696 0.62499 0.0
C1537 C 0.83273 0.87313 0.602 0.0
C1538 C 0.82258 0.87701 0.57869 0.0
C1539 C 0.80169 0.88478 0.57833 0.0
C1540 C 0.79085 0.88862 0.60126 0.0
C1541 C 0.77244 0.9816 0.6997 0.0
C1542 C 0.75274 0.98177 0.68248 0.0
C1543 C 0.78136 0.96155 0.69695 0.0
C1544 C 0.77088 0.94173 0.67678 0.0
C1545 C 0.75258 0.94324 0.65877 0.0
C1546 C 0.74342 0.96287 0.66172 0.0
C1547 C 0.77623 0.91748 0.6755 0.0
C1548 C 0.78773 0.91324 0.65304 0.0
C1549 C 0.76714 0.89688 0.69515 0.0
C1550 C 0.75301 0.89912 0.7185 0.0
C1551 C 0.72717 0.89901 0.71675 0.0
C1552 C 0.71404 0.90141 0.7388 0.0
C1553 C 0.72645 0.90372 0.76273 0.0
C1554 C 0.75195 0.90348 0.76465 0.0
C1555 C 0.76517 0.90108 0.74263 0.0
H1556 H 0.71626 0.9056 0.77979 0.0
H1557 H 0.83092 0.87403 0.56092 0.0
H1558 H 0.77946 0.78439 0.01111 0.0
H1559 H 0.82924 0.79839 1.00263 0.0
H1560 H 0.81579 0.72054 0.03675 0.0
H1561 H 0.76681 0.70666 0.04571 0.0
H1562 H 0.87701 0.79552 0.03907 0.0
H1563 H 0.83333 0.69146 0.98324 0.0
H1564 H 0.78901 0.65764 0.96133 0.0
H1565 H 0.77335 0.72533 0.94243 0.0
H1566 H 0.81848 0.7599 0.9628 0.0
H1567 H 0.94777 0.71531 0.02728 0.0
H1568 H 0.91179 0.72949 0.03021 0.0
H1569 H 0.95001 0.78653 0.96663 0.0
H1570 H 0.98699 0.77298 0.96407 0.0
H1571 H 0.88149 0.73504 0.97021 0.0
H1572 H 0.95728 0.82311 0.00472 0.0
H1573 H 0.99865 0.85068 0.03271 0.0
H1574 H 0.94754 0.81004 0.09878 0.0
H1575 H 0.90598 0.78186 0.07113 0.0
C1576 C 0.78735 0.77067 0.0175 0.0
C1577 C 0.76894 0.74421 0.02881 0.0
C1578 C 0.81577 0.77871 0.01263 0.0
C1579 C 0.82595 0.76028 0.01881 0.0
C1580 C 0.80823 0.73495 0.03171 0.0
C1581 C 0.78013 0.72704 0.03675 0.0
C1582 C 0.85373 0.76521 0.00948 0.0
C1583 C 0.87824 0.78294 0.02357 0.0
C1584 C 0.85508 0.74844 0.9894 0.0
C1585 C 0.82924 0.72829 0.97485 0.0
C1586 C 0.82075 0.69926 0.97399 0.0
C1587 C 0.79551 0.67996 0.96175 0.0
C1588 C 0.77842 0.68936 0.95044 0.0
C1589 C 0.78674 0.71815 0.95103 0.0
C1590 C 0.81221 0.73762 0.96284 0.0
C1591 C 0.94875 0.73113 0.01408 0.0
C1592 C 0.97015 0.74304 0.99542 0.0
C1593 C 0.92822 0.73923 0.01582 0.0
C1594 C 0.92831 0.75905 0.99868 0.0
C1595 C 0.94975 0.7713 0.98011 0.0
C1596 C 0.97084 0.76365 0.97873 0.0
C1597 C 0.90479 0.76531 0.99983 0.0
C1598 C 0.88073 0.74891 0.98471 0.0
C1599 C 0.90378 0.78303 0.01909 0.0
C1600 C 0.92857 0.80025 0.03583 0.0
C1601 C 0.95492 0.81988 0.0252 0.0
C1602 C 0.9784 0.83565 0.04101 0.0
C1603 C 0.97574 0.83208 0.0675 0.0
C1604 C 0.94957 0.81279 0.07825 0.0
C1605 C 0.92604 0.79694 0.06252 0.0
H1606 H 0.99394 0.8443 0.07971 0.0
H1607 H 0.7587 0.67434 0.94127 0.0
H1608 H 0.33769 0.06069 0.40923 0.0
H1609 H 0.33773 0.05441 0.45541 0.0
H1610 H 0.30175 0.96425 0.445 0.0
H1611 H 0.30201 0.97038 0.39849 0.0
H1612 H 0.27436 0.98017 0.48321 0.0
H1613 H 0.36803 1.00024 0.45978 0.0
H1614 H 0.41467 0.02773 0.43895 0.0
H1615 H 0.4328 0.10048 0.48465 0.0
H1616 H 0.38605 0.07353 0.50549 0.0
H1617 H 0.28725 0.94647 0.60968 0.0
H1618 H 0.29226 0.95169 0.56348 0.0
H1619 H 0.3431 0.04257 0.57204 0.0
H1620 H 0.33904 0.03726 0.61871 0.0
H1621 H 0.36319 0.02614 0.53422 0.0
H1622 H 0.27074 0.00817 0.55733 0.0
H1623 H 0.22403 0.98239 0.57835 0.0
H1624 H 0.20276 0.9085 0.53313 0.0
H1625 H 0.24958 0.93365 0.51217 0.0
C1626 C 0.3299 0.03951 0.41666 0.0
C1627 C 0.32003 0.01606 0.40008 0.0
C1628 C 0.32999 0.03599 0.44311 0.0
C1629 C 0.31994 0.00891 0.45363 0.0
C1630 C 0.30972 0.98535 0.43724 0.0
C1631 C 0.31003 0.98891 0.41068 0.0
C1632 C 0.31987 0.00535 0.48179 0.0
C1633 C 0.29378 0.98981 0.49436 0.0
C1634 C 0.34518 0.01878 0.49636 0.0
C1635 C 0.37342 0.03494 0.48403 0.0
C1636 C 0.38186 0.02217 0.46524 0.0
C1637 C 0.40834 0.03764 0.45346 0.0
C1638 C 0.42666 0.06586 0.46043 0.0
C1639 C 0.41857 0.07863 0.47925 0.0
C1640 C 0.3921 0.06326 0.49107 0.0
C1641 C 0.29966 0.96757 0.60181 0.0
C1642 C 0.31243 0.99148 0.61789 0.0
C1643 C 0.30243 0.97055 0.5753 0.0
C1644 C 0.31737 0.99759 0.56413 0.0
C1645 C 0.33126 0.02148 0.58016 0.0
C1646 C 0.32893 0.01844 0.60683 0.0
C1647 C 0.31762 1.00078 0.5358 0.0
C1648 C 0.34372 0.01637 0.52315 0.0
C1649 C 0.29224 0.98772 0.52116 0.0
C1650 C 0.2638 0.97272 0.53334 0.0
C1651 C 0.25617 0.98637 0.55196 0.0
C1652 C 0.22968 0.97187 0.56388 0.0
C1653 C 0.21047 0.94381 0.55712 0.0
C1654 C 0.21768 0.93022 0.53837 0.0
C1655 C 0.2442 0.94459 0.52646 0.0
H1656 H 0.18997 0.9326 0.56637 0.0
H1657 H 0.44716 0.0778 0.45128 0.0
H1658 H 0.31851 0.26206 0.93562 0.0
H1659 H 0.32224 0.26922 0.88938 0.0
H1660 H 0.33678 0.35404 0.89964 0.0
H1661 H 0.33418 0.3476 0.94616 0.0
H1662 H 0.28623 0.30214 0.86155 0.0
H1663 H 0.38732 0.36585 0.88234 0.0
H1664 H 0.43166 0.37516 0.90354 0.0
H1665 H 0.42891 0.30482 0.86366 0.0
H1666 H 0.38427 0.29484 0.84255 0.0
H1667 H 0.30526 0.34915 0.73547 0.0
H1668 H 0.31068 0.34862 0.78167 0.0
H1669 H 0.34909 0.29634 0.77272 0.0
H1670 H 0.34478 0.29794 0.72607 0.0
H1671 H 0.37362 0.3311 0.81092 0.0
H1672 H 0.27761 0.26762 0.78815 0.0
H1673 H 0.23185 0.25264 0.76688 0.0
H1674 H 0.22178 0.31401 0.81031 0.0
H1675 H 0.26773 0.32965 0.83162 0.0
C1676 C 0.32291 0.28242 0.9282 0.0
C1677 C 0.32628 0.30434 0.94475 0.0
C1678 C 0.32498 0.28642 0.90172 0.0
C1679 C 0.32999 0.31219 0.8912 0.0
C1680 C 0.33315 0.33407 0.9075 0.0
C1681 C 0.33166 0.33033 0.93406 0.0
C1682 C 0.33068 0.31565 0.86309 0.0
C1683 C 0.3054 0.30897 0.85045 0.0
C1684 C 0.3554 0.32324 0.84868 0.0
C1685 C 0.38231 0.32939 0.86116 0.0
C1686 C 0.39601 0.35218 0.87833 0.0
C1687 C 0.42123 0.35763 0.89027 0.0
C1688 C 0.43305 0.34053 0.88502 0.0
C1689 C 0.41971 0.31801 0.86775 0.0
C1690 C 0.39446 0.31246 0.85579 0.0
C1691 C 0.31505 0.33771 0.74331 0.0
C1692 C 0.3242 0.32322 0.72719 0.0
C1693 C 0.31808 0.33735 0.76977 0.0
C1694 C 0.32952 0.32173 0.78083 0.0
C1695 C 0.33999 0.30837 0.7647 0.0
C1696 C 0.33751 0.30925 0.73806 0.0
C1697 C 0.32924 0.3184 0.80914 0.0
C1698 C 0.35444 0.32463 0.82188 0.0
C1699 C 0.3042 0.30972 0.82366 0.0
C1700 C 0.27624 0.29998 0.81132 0.0
C1701 C 0.26571 0.27802 0.79308 0.0
C1702 C 0.23973 0.26941 0.78101 0.0
C1703 C 0.22395 0.28243 0.78717 0.0
C1704 C 0.23405 0.30398 0.80553 0.0
C1705 C 0.26005 0.31271 0.81763 0.0
H1706 H 0.20386 0.27577 0.77777 0.0
H1707 H 0.45258 0.34478 0.89427 0.0
H1708 H 0.99442 0.3425 0.29015 0.0
H1709 H 0.99069 0.34382 0.24355 0.0
H1710 H 0.00632 0.27371 0.2368 0.0
H1711 H 0.01131 0.2732 0.28306 0.0
H1712 H 0.0361 0.31014 0.20329 0.0
H1713 H 0.93841 0.26824 0.22821 0.0
H1714 H 0.89766 0.26521 0.25159 0.0
H1715 H 0.91157 0.34223 0.21595 0.0
H1716 H 0.95268 0.34594 0.19262 0.0
H1717 H 0.96993 0.25756 0.07962 0.0
H1718 H 0.9755 0.26291 0.126 0.0
H1719 H 0.00977 0.35312 0.11869 0.0
H1720 H 0.00493 0.34816 0.07196 0.0
H1721 H 0.95605 0.31041 0.15816 0.0
H1722 H 0.05724 0.35273 0.13646 0.0
H1723 H 0.09781 0.35379 0.11443 0.0
H1724 H 0.0734 0.27094 0.14369 0.0
H1725 H 0.03284 0.26959 0.16615 0.0
C1726 C 0.99682 0.32725 0.27869 0.0
C1727 C 0.00321 0.30779 0.2903 0.0
C1728 C 0.99459 0.32793 0.25203 0.0
C1729 C 0.99797 0.30869 0.23649 0.0
C1730 C 0.00379 0.28892 0.24821 0.0
C1731 C 0.00655 0.28858 0.27474 0.0
C1732 C 0.9964 0.30954 0.20803 0.0
C1733 C 0.01841 0.31001 0.19358 0.0
C1734 C 0.97365 0.30984 0.19504 0.0
C1735 C 0.9488 0.30752 0.20888 0.0
C1736 C 0.9329 0.28463 0.22549 0.0
C1737 C 0.90972 0.28278 0.23872 0.0
C1738 C 0.90208 0.30356 0.23531 0.0
C1739 C 0.91755 0.32618 0.2186 0.0
C1740 C 0.94077 0.32816 0.20536 0.0
C1741 C 0.97874 0.2786 0.08777 0.0
C1742 C 0.98695 0.30244 0.07201 0.0
C1743 C 0.9819 0.28158 0.1143 0.0
C1744 C 0.99295 0.30837 0.12569 0.0
C1745 C 1.00117 0.33227 0.11017 0.0
C1746 C 0.99848 0.32939 0.08351 0.0
C1747 C 0.99563 0.31099 0.15389 0.0
C1748 C 0.97376 0.31089 0.16814 0.0
C1749 C 0.01821 0.31064 0.16678 0.0
C1750 C 0.04193 0.31096 0.15271 0.0
C1751 C 0.06039 0.33465 0.13796 0.0
C1752 C 0.08345 0.33535 0.12553 0.0
C1753 C 0.08813 0.3124 0.12758 0.0
C1754 C 0.06976 0.2887 0.14211 0.0
C1755 C 0.04681 0.288 0.15478 0.0
H1756 H 0.10601 0.31299 0.11795 0.0
H1757 H 0.88414 0.30209 0.24558 0.0
H1758 H 0.66727 0.94926 0.40865 0.0
H1759 H 0.66891 0.95751 0.45459 0.0
H1760 H 0.70554 0.04731 0.44138 0.0
H1761 H 0.70353 0.0392 0.39504 0.0
H1762 H 0.73345 0.03051 0.4804 0.0
H1763 H 0.64094 0.01367 0.45598 0.0
H1764 H 0.59468 0.98616 0.43458 0.0
H1765 H 0.57358 0.91525 0.48387 0.0
H1766 H 0.62022 0.94197 0.50498 0.0
H1767 H 0.72558 0.0633 0.60895 0.0
H1768 H 0.72089 0.06031 0.56262 0.0
H1769 H 0.66163 0.97043 0.56829 0.0
H1770 H 0.66484 0.97377 0.61491 0.0
H1771 H 0.64519 0.98959 0.53196 0.0
H1772 H 0.73548 1.00061 0.55363 0.0
H1773 H 0.78256 0.02322 0.5742 0.0
H1774 H 0.80832 0.09895 0.53034 0.0
H1775 H 0.76119 0.07698 0.50983 0.0
C1776 C 0.67555 0.97078 0.4154 0.0
C1777 C 0.68507 0.99355 0.3981 0.0
C1778 C 0.67647 0.97544 0.44171 0.0
C1779 C 0.68721 0.00297 0.45135 0.0
C1780 C 0.6971 0.02587 0.43426 0.0
C1781 C 0.69576 0.02118 0.40782 0.0
C1782 C 0.68785 0.00756 0.47935 0.0
C1783 C 0.7142 0.02205 0.4917 0.0
C1784 C 0.66268 0.99554 0.49405 0.0
C1785 C 0.63423 0.97977 0.48193 0.0
C1786 C 0.62655 0.99214 0.46214 0.0
C1787 C 0.60023 0.97668 0.45007 0.0
C1788 C 0.58115 0.94899 0.45789 0.0
C1789 C 0.58837 0.9367 0.47783 0.0
C1790 C 0.61479 0.95198 0.48983 0.0
C1791 C 0.7113 0.04295 0.60042 0.0
C1792 C 0.69572 0.01875 0.6157 0.0
C1793 C 0.70881 0.0412 0.57381 0.0
C1794 C 0.69151 0.01499 0.56175 0.0
C1795 C 0.67525 0.99092 0.57702 0.0
C1796 C 0.67715 0.99282 0.60372 0.0
C1797 C 0.69091 0.01254 0.53331 0.0
C1798 C 0.66454 0.99833 0.52079 0.0
C1799 C 0.71611 0.02418 0.51849 0.0
C1800 C 0.74468 0.03726 0.53041 0.0
C1801 C 0.75112 0.02215 0.54848 0.0
C1802 C 0.77782 0.03485 0.56013 0.0
C1803 C 0.79838 0.06254 0.55364 0.0
C1804 C 0.79234 0.07753 0.53539 0.0
C1805 C 0.76564 0.06497 0.52374 0.0
H1806 H 0.81902 0.07235 0.56271 0.0
H1807 H 0.56078 0.93706 0.44849 0.0
H1808 H 0.70713 0.67382 0.95103 0.0
H1809 H 0.70933 0.67017 0.90436 0.0
H1810 H 0.66163 0.71335 0.89502 0.0
H1811 H 0.65989 0.7176 0.94144 0.0
H1812 H 0.64326 0.66284 0.8632 0.0
H1813 H 0.72685 0.75112 0.88653 0.0
H1814 H 0.77125 0.78108 0.91015 0.0
H1815 H 0.80685 0.73216 0.88029 0.0
H1816 H 0.76246 0.70164 0.85674 0.0
H1817 H 0.66723 0.69962 0.73112 0.0
H1818 H 0.66166 0.69905 0.77759 0.0
H1819 H 0.72802 0.67832 0.78696 0.0
H1820 H 0.73453 0.68013 0.74093 0.0
H1821 H 0.73628 0.71639 0.81953 0.0
H1822 H 0.65463 0.62863 0.79529 0.0
H1823 H 0.61065 0.59758 0.77152 0.0
H1824 H 0.57133 0.64222 0.8033 0.0
H1825 H 0.61524 0.67381 0.82699 0.0
C1826 C 0.69689 0.68227 0.939 0.0
C1827 C 0.6834 0.69606 0.94985 0.0
C1828 C 0.69824 0.68026 0.9124 0.0
C1829 C 0.68564 0.69153 0.8963 0.0
C1830 C 0.67142 0.70449 0.90713 0.0
C1831 C 0.67058 0.70703 0.93364 0.0
C1832 C 0.68813 0.6908 0.86813 0.0
C1833 C 0.66353 0.67469 0.85355 0.0
C1834 C 0.71466 0.7058 0.85572 0.0
C1835 C 0.74125 0.72394 0.87006 0.0
C1836 C 0.74404 0.74658 0.88518 0.0
C1837 C 0.76925 0.76374 0.89847 0.0
C1838 C 0.7919 0.7586 0.89662 0.0
C1839 C 0.78933 0.73619 0.8816 0.0
C1840 C 0.76416 0.71896 0.86828 0.0
C1841 C 0.6805 0.69476 0.74309 0.0
C1842 C 0.70125 0.68981 0.73219 0.0
C1843 C 0.67721 0.69432 0.76969 0.0
C1844 C 0.69418 0.68829 0.78591 0.0
C1845 C 0.71468 0.68309 0.77498 0.0
C1846 C 0.71828 0.68398 0.74852 0.0
C1847 C 0.69135 0.68819 0.81427 0.0
C1848 C 0.71594 0.70428 0.829 0.0
C1849 C 0.66481 0.67283 0.82681 0.0
C1850 C 0.63832 0.65377 0.81272 0.0
C1851 C 0.63667 0.63196 0.79707 0.0
C1852 C 0.61175 0.61424 0.78363 0.0
C1853 C 0.58824 0.61797 0.78585 0.0
C1854 C 0.58958 0.63938 0.80157 0.0
C1855 C 0.61447 0.65718 0.81503 0.0
H1856 H 0.56896 0.60424 0.77543 0.0
H1857 H 0.81138 0.77188 0.90695 0.0
H1858 H 0.02959 0.67542 0.28598 0.0
H1859 H 0.03453 0.67506 0.23943 0.0
H1860 H 0.97308 0.70238 0.23012 0.0
H1861 H 0.96779 0.70257 0.27626 0.0
H1862 H 0.96333 0.66195 0.19632 0.0
H1863 H 0.04328 0.74918 0.22474 0.0
H1864 H 0.08601 0.77871 0.25062 0.0
H1865 H 0.12705 0.73627 0.21775 0.0
H1866 H 0.08438 0.70619 0.19192 0.0
H1867 H 0.04055 0.74498 0.07406 0.0
H1868 H 0.03775 0.7406 0.12048 0.0
H1869 H 0.99568 0.64943 0.11373 0.0
H1870 H 0.99766 0.65355 0.06713 0.0
H1871 H 0.05747 0.72058 0.15569 0.0
H1872 H 0.94712 0.61939 0.16125 0.0
H1873 H 0.90383 0.59415 0.13493 0.0
H1874 H 0.92207 0.67268 0.0995 0.0
H1875 H 0.96516 0.69845 0.12593 0.0
C1876 C 0.01705 0.68126 0.27403 0.0
C1877 C 0.99831 0.68905 0.285 0.0
C1878 C 0.01994 0.68109 0.24741 0.0
C1879 C 0.00426 0.68882 0.23125 0.0
C1880 C 0.9853 0.6962 0.24215 0.0
C1881 C 0.98241 0.6964 0.26865 0.0
C1882 C 0.00795 0.69 0.20299 0.0
C1883 C 0.98395 0.6746 0.18745 0.0
C1884 C 0.03474 0.70696 0.19134 0.0
C1885 C 0.06054 0.72523 0.20661 0.0
C1886 C 0.06135 0.74601 0.22316 0.0
C1887 C 0.08556 0.76286 0.23781 0.0
C1888 C 0.1092 0.7593 0.23589 0.0
C1889 C 0.1087 0.73896 0.21925 0.0
C1890 C 0.08452 0.72202 0.20459 0.0
C1891 C 0.03074 0.72394 0.08237 0.0
C1892 C 0.01906 0.69959 0.06675 0.0
C1893 C 0.0293 0.7215 0.109 0.0
C1894 C 0.01624 0.6947 0.12068 0.0
C1895 C 0.00545 0.67035 0.10519 0.0
C1896 C 0.00665 0.67275 0.07851 0.0
C1897 C 0.01286 0.69235 0.14899 0.0
C1898 C 0.0369 0.70759 0.16455 0.0
C1899 C 0.98597 0.67588 0.16066 0.0
C1900 C 0.95952 0.66077 0.14538 0.0
C1901 C 0.94178 0.63128 0.14796 0.0
C1902 C 0.9173 0.61689 0.13301 0.0
C1903 C 0.91027 0.63179 0.11549 0.0
C1904 C 0.92758 0.66115 0.11303 0.0
C1905 C 0.95203 0.67566 0.12799 0.0
H1906 H 0.89138 0.62058 0.10386 0.0
H1907 H 0.12792 0.77236 0.24725 0.0
loop_
_geom_bond_atom_site_label_1
_geom_bond_atom_site_label_2
_geom_bond_distance
_geom_bond_site_symmetry_2
_ccdc_geom_bond_type
Co0 O2 2.143 1_565 S
Co0 O8 2.074 . S
Co0 O11 2.093 1_565 S
Co0 O24 2.097 1_565 S
Co0 N41 2.151 . S
Co0 N49 2.214 . S
Co1 O2 2.160 . S
Co1 O7 2.058 . S
Co1 O17 2.057 . S
Co1 O32 2.037 . S
Co1 N36 2.145 . S
Co1 N57 2.257 . S
O2 Co0 2.143 1_545 S
O2 Co1 2.160 . S
C3 O4 1.278 . S
C3 O11 1.224 . S
O4 C3 1.278 . S
C5 O6 1.245 . S
C5 O17 1.232 . S
O6 C5 1.245 . S
O7 Co1 2.058 . S
O7 C33 1.269 1_545 S
O8 Co0 2.074 . S
O8 C33 1.257 . S
H9 C34 0.930 . S
H10 C40 0.943 . S
O11 Co0 2.093 1_545 S
O11 C3 1.224 . S
H12 C44 0.929 . S
H13 C46 0.930 . S
H14 C47 0.930 . S
H15 C45 0.929 . S
H16 C48 0.928 . S
O17 Co1 2.057 . S
O17 C5 1.232 . S
H18 C37 0.929 . S
H19 C38 0.929 . S
H20 C50 0.931 . S
H21 C42 0.929 . S
H22 C51 0.930 . S
H23 C43 0.931 . S
O24 Co0 2.097 1_545 S
O24 C52 1.214 . S
H25 C53 0.929 . S
H26 C54 0.929 . S
H27 C55 0.930 . S
H28 C56 0.929 . S
H29 C58 0.930 . S
H30 C35 0.930 . S
H31 C39 0.930 . S
O32 Co1 2.037 . S
O32 C52 1.234 . S
C33 O7 1.269 1_565 S
C33 O8 1.257 . S
C34 H9 0.930 . S
C34 C37 1.388 . S
C34 C39 1.418 . S
C35 H30 0.930 . S
C35 C38 1.404 . S
C35 C39 1.353 . S
N36 Co1 2.145 . S
N36 C37 1.397 . S
N36 C38 1.334 . S
C37 H18 0.929 . S
C37 C34 1.388 . S
C37 N36 1.397 . S
C38 H19 0.929 . S
C38 C35 1.404 . S
C38 N36 1.334 . S
C39 H31 0.930 . S
C39 C34 1.418 . S
C39 C35 1.353 . S
C40 H10 0.943 . S
C40 N41 1.330 . S
C40 C42 1.446 . S
N41 Co0 2.151 . S
N41 C40 1.330 . S
N41 C45 1.418 . S
C42 H21 0.929 . S
C42 C40 1.446 . S
C42 C43 1.332 . S
C43 H23 0.931 . S
C43 C42 1.332 . S
C43 C44 1.267 . S
C44 H12 0.929 . S
C44 C43 1.267 . S
C44 C45 1.251 . S
C45 H15 0.929 . S
C45 N41 1.418 . S
C45 C44 1.251 . S
C46 H13 0.930 . S
C46 C48 1.406 . S
C46 C51 1.261 . S
C47 H14 0.930 . S
C47 N49 1.325 . S
C47 C50 1.357 . S
C48 H16 0.928 . S
C48 C46 1.406 . S
C48 N49 1.261 . S
N49 Co0 2.214 . S
N49 C47 1.325 . S
N49 C48 1.261 . S
C50 H20 0.931 . S
C50 C47 1.357 . S
C50 C51 1.312 . S
C51 H22 0.930 . S
C51 C46 1.261 . S
C51 C50 1.312 . S
C52 O24 1.214 . S
C52 O32 1.234 . S
C53 H25 0.929 . S
C53 C56 1.391 . S
C53 C58 1.391 . S
C54 H26 0.929 . S
C54 C55 1.390 . S
C54 N57 1.391 . S
C55 H27 0.930 . S
C55 C54 1.390 . S
C55 C56 1.392 . S
C56 H28 0.929 . S
C56 C53 1.391 . S
C56 C55 1.392 . S
N57 Co1 2.257 . S
N57 C54 1.391 . S
N57 C58 1.388 . S
C58 H29 0.930 . S
C58 C53 1.391 . S
C58 N57 1.388 . S
Co59 O61 2.143 . S
Co59 O67 2.074 . S
Co59 O70 2.093 . S
Co59 O83 2.097 . S
Co59 N100 2.151 . S
Co59 N108 2.214 . S
Co60 O61 2.160 . S
Co60 O66 2.058 . S
Co60 O76 2.057 . S
Co60 O91 2.037 . S
Co60 N95 2.145 . S
Co60 N116 2.257 . S
O61 Co59 2.143 . S
O61 Co60 2.160 . S
C62 O63 1.278 . S
C62 O70 1.224 . S
O63 C62 1.278 . S
C64 O65 1.245 . S
C64 O76 1.232 . S
O65 C64 1.245 . S
O66 Co60 2.058 . S
O66 C92 1.269 . S
O67 Co59 2.074 . S
O67 C92 1.257 . S
H68 C93 0.930 . S
H69 C99 0.930 . S
O70 Co59 2.093 . S
O70 C62 1.224 . S
H71 C103 0.929 . S
H72 C105 0.930 . S
H73 C106 0.930 . S
H74 C104 0.929 . S
H75 C107 0.928 . S
O76 Co60 2.057 . S
O76 C64 1.232 . S
H77 C96 0.929 . S
H78 C97 0.929 . S
H79 C109 0.931 . S
H80 C101 0.929 . S
H81 C110 0.930 . S
H82 C102 0.931 . S
O83 Co59 2.097 . S
O83 C111 1.214 . S
H84 C112 0.929 . S
H85 C113 0.929 . S
H86 C114 0.930 . S
H87 C115 0.929 . S
H88 C117 0.930 . S
H89 C94 0.930 . S
H90 C98 0.930 . S
O91 Co60 2.037 . S
O91 C111 1.234 . S
C92 O66 1.269 . S
C92 O67 1.257 . S
C93 H68 0.930 . S
C93 C96 1.388 . S
C93 C98 1.418 . S
C94 H89 0.930 . S
C94 C97 1.404 . S
C94 C98 1.353 . S
N95 Co60 2.145 . S
N95 C96 1.397 . S
N95 C97 1.334 . S
C96 H77 0.929 . S
C96 C93 1.388 . S
C96 N95 1.397 . S
C97 H78 0.929 . S
C97 C94 1.404 . S
C97 N95 1.334 . S
C98 H90 0.930 . S
C98 C93 1.418 . S
C98 C94 1.353 . S
C99 H69 0.930 . S
C99 N100 1.330 . S
C99 C101 1.446 . S
N100 Co59 2.151 . S
N100 C99 1.330 . S
N100 C104 1.418 . S
C101 H80 0.929 . S
C101 C99 1.446 . S
C101 C102 1.332 . S
C102 H82 0.931 . S
C102 C101 1.332 . S
C102 C103 1.267 . S
C103 H71 0.929 . S
C103 C102 1.267 . S
C103 C104 1.251 . S
C104 H74 0.929 . S
C104 N100 1.418 . S
C104 C103 1.251 . S
C105 H72 0.930 . S
C105 C107 1.406 . S
C105 C110 1.261 . S
C106 H73 0.930 . S
C106 N108 1.325 . S
C106 C109 1.357 . S
C107 H75 0.928 . S
C107 C105 1.406 . S
C107 N108 1.261 . S
N108 Co59 2.214 . S
N108 C106 1.325 . S
N108 C107 1.261 . S
C109 H79 0.931 . S
C109 C106 1.357 . S
C109 C110 1.312 . S
C110 H81 0.930 . S
C110 C105 1.261 . S
C110 C109 1.312 . S
C111 O83 1.214 . S
C111 O91 1.234 . S
C112 H84 0.929 . S
C112 C115 1.391 . S
C112 C117 1.391 . S
C113 H85 0.929 . S
C113 C114 1.390 . S
C113 N116 1.391 . S
C114 H86 0.930 . S
C114 C113 1.390 . S
C114 C115 1.392 . S
C115 H87 0.929 . S
C115 C112 1.391 . S
C115 C114 1.392 . S
N116 Co60 2.257 . S
N116 C113 1.391 . S
N116 C117 1.388 . S
C117 H88 0.930 . S
C117 C112 1.391 . S
C117 N116 1.388 . S
Co118 O120 2.152 1_455 S
Co118 O126 2.073 1_556 S
Co118 O129 2.094 1_455 S
Co118 O142 2.078 1_456 S
Co118 N159 2.169 . S
Co118 N167 2.204 1_556 S
Co119 O120 2.160 . S
Co119 O125 2.058 . S
Co119 O135 2.057 . S
Co119 O150 2.037 1_556 S
Co119 N154 2.145 1_556 S
Co119 N175 2.257 1_556 S
O120 Co118 2.152 1_655 S
O120 Co119 2.160 . S
C121 O122 1.278 . S
C121 O129 1.224 . S
O122 C121 1.278 . S
C123 O124 1.245 . S
C123 O135 1.232 . S
O124 C123 1.245 . S
O125 Co119 2.058 . S
O125 C151 1.269 1_655 S
O126 Co118 2.073 1_554 S
O126 C151 1.248 1_554 S
H127 C152 0.930 . S
H128 C158 0.951 . S
O129 Co118 2.094 1_655 S
O129 C121 1.224 . S
H130 C162 0.929 . S
H131 C164 0.930 . S
H132 C165 0.930 . S
H133 C163 0.929 . S
H134 C166 0.928 . S
O135 Co119 2.057 . S
O135 C123 1.232 . S
H136 C155 0.929 . S
H137 C156 0.929 . S
H138 C168 0.931 . S
H139 C160 0.929 . S
H140 C169 0.930 . S
H141 C161 0.931 . S
O142 Co118 2.078 1_654 S
O142 C170 1.214 . S
H143 C171 0.935 . S
H144 C172 0.929 . S
H145 C173 0.930 . S
H146 C174 0.929 . S
H147 C176 0.930 . S
H148 C153 0.930 1_556 S
H149 C157 0.930 . S
O150 Co119 2.037 1_554 S
O150 C170 1.234 . S
C151 O125 1.269 1_455 S
C151 O126 1.248 1_556 S
C152 H127 0.930 . S
C152 C155 1.388 . S
C152 C157 1.418 . S
C153 H148 0.930 1_554 S
C153 C156 1.404 1_554 S
C153 C157 1.353 . S
N154 Co119 2.145 1_554 S
N154 C155 1.397 . S
N154 C156 1.334 1_554 S
C155 H136 0.929 . S
C155 C152 1.388 . S
C155 N154 1.397 . S
C156 H137 0.929 . S
C156 C153 1.404 1_556 S
C156 N154 1.334 1_556 S
C157 H149 0.930 . S
C157 C152 1.418 . S
C157 C153 1.353 . S
C158 H128 0.951 . S
C158 N159 1.330 . S
C158 C160 1.446 . S
N159 Co118 2.169 . S
N159 C158 1.330 . S
N159 C163 1.418 . S
C160 H139 0.929 . S
C160 C158 1.446 . S
C160 C161 1.332 . S
C161 H141 0.931 . S
C161 C160 1.332 . S
C161 C162 1.267 . S
C162 H130 0.929 . S
C162 C161 1.267 . S
C162 C163 1.251 . S
C163 H133 0.929 . S
C163 N159 1.418 . S
C163 C162 1.251 . S
C164 H131 0.930 . S
C164 C166 1.406 . S
C164 C169 1.261 . S
C165 H132 0.930 . S
C165 N167 1.325 . S
C165 C168 1.357 . S
C166 H134 0.928 . S
C166 C164 1.406 . S
C166 N167 1.261 . S
N167 Co118 2.204 1_554 S
N167 C165 1.325 . S
N167 C166 1.261 . S
C168 H138 0.931 . S
C168 C165 1.357 . S
C168 C169 1.312 . S
C169 H140 0.930 . S
C169 C164 1.261 . S
C169 C168 1.312 . S
C170 O142 1.214 . S
C170 O150 1.234 . S
C171 H143 0.935 . S
C171 C174 1.383 1_556 S
C171 C176 1.394 . S
C172 H144 0.929 . S
C172 C173 1.390 . S
C172 N175 1.391 . S
C173 H145 0.930 . S
C173 C172 1.390 . S
C173 C174 1.392 . S
C174 H146 0.929 . S
C174 C171 1.383 1_554 S
C174 C173 1.392 . S
N175 Co119 2.257 1_554 S
N175 C172 1.391 . S
N175 C176 1.388 1_554 S
C176 H147 0.930 . S
C176 C171 1.394 . S
C176 N175 1.388 1_556 S
Co177 O179 2.143 1_545 S
Co177 O185 2.074 . S
Co177 O188 2.093 1_545 S
Co177 O201 2.097 1_545 S
Co177 N218 2.151 . S
Co177 N226 2.214 . S
Co178 O179 2.160 . S
Co178 O184 2.058 . S
Co178 O194 2.057 . S
Co178 O209 2.037 . S
Co178 N213 2.145 . S
Co178 N234 2.257 . S
O179 Co177 2.143 1_565 S
O179 Co178 2.160 . S
C180 O181 1.278 . S
C180 O188 1.224 . S
O181 C180 1.278 . S
C182 O183 1.245 . S
C182 O194 1.232 . S
O183 C182 1.245 . S
O184 Co178 2.058 . S
O184 C210 1.269 1_565 S
O185 Co177 2.074 . S
O185 C210 1.257 . S
H186 C211 0.930 . S
H187 C217 0.943 . S
O188 Co177 2.093 1_565 S
O188 C180 1.224 . S
H189 C221 0.929 . S
H190 C223 0.930 . S
H191 C224 0.930 . S
H192 C222 0.929 . S
H193 C225 0.928 . S
O194 Co178 2.057 . S
O194 C182 1.232 . S
H195 C214 0.929 . S
H196 C215 0.929 . S
H197 C227 0.931 . S
H198 C219 0.929 . S
H199 C228 0.930 . S
H200 C220 0.931 . S
O201 Co177 2.097 1_565 S
O201 C229 1.214 . S
H202 C230 0.929 . S
H203 C231 0.929 . S
H204 C232 0.930 . S
H205 C233 0.929 . S
H206 C235 0.930 . S
H207 C212 0.930 . S
H208 C216 0.930 . S
O209 Co178 2.037 . S
O209 C229 1.234 . S
C210 O184 1.269 1_545 S
C210 O185 1.257 . S
C211 H186 0.930 . S
C211 C214 1.388 . S
C211 C216 1.418 . S
C212 H207 0.930 . S
C212 C215 1.404 . S
C212 C216 1.353 . S
N213 Co178 2.145 . S
N213 C214 1.397 . S
N213 C215 1.334 . S
C214 H195 0.929 . S
C214 C211 1.388 . S
C214 N213 1.397 . S
C215 H196 0.929 . S
C215 C212 1.404 . S
C215 N213 1.334 . S
C216 H208 0.930 . S
C216 C211 1.418 . S
C216 C212 1.353 . S
C217 H187 0.943 . S
C217 N218 1.330 . S
C217 C219 1.446 . S
N218 Co177 2.151 . S
N218 C217 1.330 . S
N218 C222 1.418 . S
C219 H198 0.929 . S
C219 C217 1.446 . S
C219 C220 1.332 . S
C220 H200 0.931 . S
C220 C219 1.332 . S
C220 C221 1.267 . S
C221 H189 0.929 . S
C221 C220 1.267 . S
C221 C222 1.251 . S
C222 H192 0.929 . S
C222 N218 1.418 . S
C222 C221 1.251 . S
C223 H190 0.930 . S
C223 C225 1.406 . S
C223 C228 1.261 . S
C224 H191 0.930 . S
C224 N226 1.325 . S
C224 C227 1.357 . S
C225 H193 0.928 . S
C225 C223 1.406 . S
C225 N226 1.261 . S
N226 Co177 2.214 . S
N226 C224 1.325 . S
N226 C225 1.261 . S
C227 H197 0.931 . S
C227 C224 1.357 . S
C227 C228 1.312 . S
C228 H199 0.930 . S
C228 C223 1.261 . S
C228 C227 1.312 . S
C229 O201 1.214 . S
C229 O209 1.234 . S
C230 H202 0.929 . S
C230 C233 1.391 . S
C230 C235 1.391 . S
C231 H203 0.929 . S
C231 C232 1.390 . S
C231 N234 1.391 . S
C232 H204 0.930 . S
C232 C231 1.390 . S
C232 C233 1.392 . S
C233 H205 0.929 . S
C233 C230 1.391 . S
C233 C232 1.392 . S
N234 Co178 2.257 . S
N234 C231 1.391 . S
N234 C235 1.388 . S
C235 H206 0.930 . S
C235 C230 1.391 . S
C235 N234 1.388 . S
Co236 O238 2.143 . S
Co236 O244 2.074 . S
Co236 O247 2.093 . S
Co236 O260 2.097 . S
Co236 N277 2.151 . S
Co236 N285 2.214 . S
Co237 O238 2.160 . S
Co237 O243 2.058 . S
Co237 O253 2.057 . S
Co237 O268 2.037 . S
Co237 N272 2.145 . S
Co237 N293 2.257 . S
O238 Co236 2.143 . S
O238 Co237 2.160 . S
C239 O240 1.278 . S
C239 O247 1.224 . S
O240 C239 1.278 . S
C241 O242 1.245 . S
C241 O253 1.232 . S
O242 C241 1.245 . S
O243 Co237 2.058 . S
O243 C269 1.269 . S
O244 Co236 2.074 . S
O244 C269 1.257 . S
H245 C270 0.930 . S
H246 C276 0.930 . S
O247 Co236 2.093 . S
O247 C239 1.224 . S
H248 C280 0.929 . S
H249 C282 0.930 . S
H250 C283 0.930 . S
H251 C281 0.929 . S
H252 C284 0.928 . S
O253 Co237 2.057 . S
O253 C241 1.232 . S
H254 C273 0.929 . S
H255 C274 0.929 . S
H256 C286 0.931 . S
H257 C278 0.929 . S
H258 C287 0.930 . S
H259 C279 0.931 . S
O260 Co236 2.097 . S
O260 C288 1.214 . S
H261 C289 0.929 . S
H262 C290 0.929 . S
H263 C291 0.930 . S
H264 C292 0.929 . S
H265 C294 0.930 . S
H266 C271 0.930 . S
H267 C275 0.930 . S
O268 Co237 2.037 . S
O268 C288 1.234 . S
C269 O243 1.269 . S
C269 O244 1.257 . S
C270 H245 0.930 . S
C270 C273 1.388 . S
C270 C275 1.418 . S
C271 H266 0.930 . S
C271 C274 1.404 . S
C271 C275 1.353 . S
N272 Co237 2.145 . S
N272 C273 1.397 . S
N272 C274 1.334 . S
C273 H254 0.929 . S
C273 C270 1.388 . S
C273 N272 1.397 . S
C274 H255 0.929 . S
C274 C271 1.404 . S
C274 N272 1.334 . S
C275 H267 0.930 . S
C275 C270 1.418 . S
C275 C271 1.353 . S
C276 H246 0.930 . S
C276 N277 1.330 . S
C276 C278 1.446 . S
N277 Co236 2.151 . S
N277 C276 1.330 . S
N277 C281 1.418 . S
C278 H257 0.929 . S
C278 C276 1.446 . S
C278 C279 1.332 . S
C279 H259 0.931 . S
C279 C278 1.332 . S
C279 C280 1.267 . S
C280 H248 0.929 . S
C280 C279 1.267 . S
C280 C281 1.251 . S
C281 H251 0.929 . S
C281 N277 1.418 . S
C281 C280 1.251 . S
C282 H249 0.930 . S
C282 C284 1.406 . S
C282 C287 1.261 . S
C283 H250 0.930 . S
C283 N285 1.325 . S
C283 C286 1.357 . S
C284 H252 0.928 . S
C284 C282 1.406 . S
C284 N285 1.261 . S
N285 Co236 2.214 . S
N285 C283 1.325 . S
N285 C284 1.261 . S
C286 H256 0.931 . S
C286 C283 1.357 . S
C286 C287 1.312 . S
C287 H258 0.930 . S
C287 C282 1.261 . S
C287 C286 1.312 . S
C288 O260 1.214 . S
C288 O268 1.234 . S
C289 H261 0.929 . S
C289 C292 1.391 . S
C289 C294 1.391 . S
C290 H262 0.929 . S
C290 C291 1.390 . S
C290 N293 1.391 . S
C291 H263 0.930 . S
C291 C290 1.390 . S
C291 C292 1.392 . S
C292 H264 0.929 . S
C292 C289 1.391 . S
C292 C291 1.392 . S
N293 Co237 2.257 . S
N293 C290 1.391 . S
N293 C294 1.388 . S
C294 H265 0.930 . S
C294 C289 1.391 . S
C294 N293 1.388 . S
Co295 O297 2.152 1_655 S
Co295 O303 2.073 1_556 S
Co295 O306 2.094 1_655 S
Co295 O319 2.078 1_656 S
Co295 N336 2.169 . S
Co295 N344 2.204 1_556 S
Co296 O297 2.160 . S
Co296 O302 2.058 . S
Co296 O312 2.057 . S
Co296 O327 2.037 1_556 S
Co296 N331 2.145 1_556 S
Co296 N352 2.257 1_556 S
O297 Co295 2.152 1_455 S
O297 Co296 2.160 . S
C298 O299 1.278 . S
C298 O306 1.224 . S
O299 C298 1.278 . S
C300 O301 1.245 . S
C300 O312 1.232 . S
O301 C300 1.245 . S
O302 Co296 2.058 . S
O302 C328 1.269 1_455 S
O303 Co295 2.073 1_554 S
O303 C328 1.248 1_554 S
H304 C329 0.930 . S
H305 C335 0.951 . S
O306 Co295 2.094 1_455 S
O306 C298 1.224 . S
H307 C339 0.929 . S
H308 C341 0.930 . S
H309 C342 0.930 . S
H310 C340 0.929 . S
H311 C343 0.928 . S
O312 Co296 2.057 . S
O312 C300 1.232 . S
H313 C332 0.929 . S
H314 C333 0.929 . S
H315 C345 0.931 . S
H316 C337 0.929 . S
H317 C346 0.930 . S
H318 C338 0.931 . S
O319 Co295 2.078 1_454 S
O319 C347 1.214 . S
H320 C348 0.935 . S
H321 C349 0.929 . S
H322 C350 0.930 . S
H323 C351 0.929 . S
H324 C353 0.930 . S
H325 C330 0.930 1_556 S
H326 C334 0.930 . S
O327 Co296 2.037 1_554 S
O327 C347 1.234 . S
C328 O302 1.269 1_655 S
C328 O303 1.248 1_556 S
C329 H304 0.930 . S
C329 C332 1.388 . S
C329 C334 1.418 . S
C330 H325 0.930 1_554 S
C330 C333 1.404 1_554 S
C330 C334 1.353 . S
N331 Co296 2.145 1_554 S
N331 C332 1.397 . S
N331 C333 1.334 1_554 S
C332 H313 0.929 . S
C332 C329 1.388 . S
C332 N331 1.397 . S
C333 H314 0.929 . S
C333 C330 1.404 1_556 S
C333 N331 1.334 1_556 S
C334 H326 0.930 . S
C334 C329 1.418 . S
C334 C330 1.353 . S
C335 H305 0.951 . S
C335 N336 1.330 . S
C335 C337 1.446 . S
N336 Co295 2.169 . S
N336 C335 1.330 . S
N336 C340 1.418 . S
C337 H316 0.929 . S
C337 C335 1.446 . S
C337 C338 1.332 . S
C338 H318 0.931 . S
C338 C337 1.332 . S
C338 C339 1.267 . S
C339 H307 0.929 . S
C339 C338 1.267 . S
C339 C340 1.251 . S
C340 H310 0.929 . S
C340 N336 1.418 . S
C340 C339 1.251 . S
C341 H308 0.930 . S
C341 C343 1.406 . S
C341 C346 1.261 . S
C342 H309 0.930 . S
C342 N344 1.325 . S
C342 C345 1.357 . S
C343 H311 0.928 . S
C343 C341 1.406 . S
C343 N344 1.261 . S
N344 Co295 2.204 1_554 S
N344 C342 1.325 . S
N344 C343 1.261 . S
C345 H315 0.931 . S
C345 C342 1.357 . S
C345 C346 1.312 . S
C346 H317 0.930 . S
C346 C341 1.261 . S
C346 C345 1.312 . S
C347 O319 1.214 . S
C347 O327 1.234 . S
C348 H320 0.935 . S
C348 C351 1.383 1_556 S
C348 C353 1.394 . S
C349 H321 0.929 . S
C349 C350 1.390 . S
C349 N352 1.391 . S
C350 H322 0.930 . S
C350 C349 1.390 . S
C350 C351 1.392 . S
C351 H323 0.929 . S
C351 C348 1.383 1_554 S
C351 C350 1.392 . S
N352 Co296 2.257 1_554 S
N352 C349 1.391 . S
N352 C353 1.388 1_554 S
C353 H324 0.930 . S
C353 C348 1.394 . S
C353 N352 1.388 1_556 S
Co354 O356 2.143 1_455 S
Co354 O362 2.074 . S
Co354 O365 2.093 1_455 S
Co354 O378 2.097 1_455 S
Co354 N395 2.151 . S
Co354 N403 2.214 . S
Co355 O356 2.160 . S
Co355 O361 2.058 . S
Co355 O371 2.057 . S
Co355 O386 2.037 . S
Co355 N390 2.145 . S
Co355 N411 2.257 . S
O356 Co354 2.143 1_655 S
O356 Co355 2.160 . S
C357 O358 1.278 . S
C357 O365 1.224 . S
O358 C357 1.278 . S
C359 O360 1.245 . S
C359 O371 1.232 . S
O360 C359 1.245 . S
O361 Co355 2.058 . S
O361 C387 1.269 1_655 S
O362 Co354 2.074 . S
O362 C387 1.257 . S
H363 C388 0.930 . S
H364 C394 0.943 . S
O365 Co354 2.093 1_655 S
O365 C357 1.224 . S
H366 C398 0.929 . S
H367 C400 0.930 . S
H368 C401 0.930 . S
H369 C399 0.929 . S
H370 C402 0.928 . S
O371 Co355 2.057 . S
O371 C359 1.232 . S
H372 C391 0.929 . S
H373 C392 0.929 . S
H374 C404 0.931 . S
H375 C396 0.929 . S
H376 C405 0.930 . S
H377 C397 0.931 . S
O378 Co354 2.097 1_655 S
O378 C406 1.214 . S
H379 C407 0.929 . S
H380 C408 0.929 . S
H381 C409 0.930 . S
H382 C410 0.929 . S
H383 C412 0.930 . S
H384 C389 0.930 . S
H385 C393 0.930 . S
O386 Co355 2.037 . S
O386 C406 1.234 . S
C387 O361 1.269 1_455 S
C387 O362 1.257 . S
C388 H363 0.930 . S
C388 C391 1.388 . S
C388 C393 1.418 . S
C389 H384 0.930 . S
C389 C392 1.404 . S
C389 C393 1.353 . S
N390 Co355 2.145 . S
N390 C391 1.397 . S
N390 C392 1.334 . S
C391 H372 0.929 . S
C391 C388 1.388 . S
C391 N390 1.397 . S
C392 H373 0.929 . S
C392 C389 1.404 . S
C392 N390 1.334 . S
C393 H385 0.930 . S
C393 C388 1.418 . S
C393 C389 1.353 . S
C394 H364 0.943 . S
C394 N395 1.330 . S
C394 C396 1.446 . S
N395 Co354 2.151 . S
N395 C394 1.330 . S
N395 C399 1.418 . S
C396 H375 0.929 . S
C396 C394 1.446 . S
C396 C397 1.332 . S
C397 H377 0.931 . S
C397 C396 1.332 . S
C397 C398 1.267 . S
C398 H366 0.929 . S
C398 C397 1.267 . S
C398 C399 1.251 . S
C399 H369 0.929 . S
C399 N395 1.418 . S
C399 C398 1.251 . S
C400 H367 0.930 . S
C400 C402 1.406 . S
C400 C405 1.261 . S
C401 H368 0.930 . S
C401 N403 1.325 . S
C401 C404 1.357 . S
C402 H370 0.928 . S
C402 C400 1.406 . S
C402 N403 1.261 . S
N403 Co354 2.214 . S
N403 C401 1.325 . S
N403 C402 1.261 . S
C404 H374 0.931 . S
C404 C401 1.357 . S
C404 C405 1.312 . S
C405 H376 0.930 . S
C405 C400 1.261 . S
C405 C404 1.312 . S
C406 O378 1.214 . S
C406 O386 1.234 . S
C407 H379 0.929 . S
C407 C410 1.391 . S
C407 C412 1.391 . S
C408 H380 0.929 . S
C408 C409 1.390 . S
C408 N411 1.391 . S
C409 H381 0.930 . S
C409 C408 1.390 . S
C409 C410 1.392 . S
C410 H382 0.929 . S
C410 C407 1.391 . S
C410 C409 1.392 . S
N411 Co355 2.257 . S
N411 C408 1.391 . S
N411 C412 1.388 . S
C412 H383 0.930 . S
C412 C407 1.391 . S
C412 N411 1.388 . S
Co413 O415 2.143 1_545 S
Co413 O421 2.074 . S
Co413 O424 2.093 1_545 S
Co413 O437 2.097 1_545 S
Co413 N454 2.151 . S
Co413 N462 2.214 . S
Co414 O415 2.160 . S
Co414 O420 2.058 . S
Co414 O430 2.057 . S
Co414 O445 2.037 . S
Co414 N449 2.145 . S
Co414 N470 2.257 . S
O415 Co413 2.143 1_565 S
O415 Co414 2.160 . S
C416 O417 1.278 . S
C416 O424 1.224 . S
O417 C416 1.278 . S
C418 O419 1.245 . S
C418 O430 1.232 . S
O419 C418 1.245 . S
O420 Co414 2.058 . S
O420 C446 1.269 1_565 S
O421 Co413 2.074 . S
O421 C446 1.257 . S
H422 C447 0.930 . S
H423 C453 0.951 . S
O424 Co413 2.093 1_565 S
O424 C416 1.224 . S
H425 C457 0.929 . S
H426 C459 0.930 . S
H427 C460 0.930 . S
H428 C458 0.929 . S
H429 C461 0.928 . S
O430 Co414 2.057 . S
O430 C418 1.232 . S
H431 C450 0.929 . S
H432 C451 0.929 . S
H433 C463 0.931 . S
H434 C455 0.929 . S
H435 C464 0.930 . S
H436 C456 0.931 . S
O437 Co413 2.097 1_565 S
O437 C465 1.214 . S
H438 C466 0.929 . S
H439 C467 0.929 . S
H440 C468 0.930 . S
H441 C469 0.929 . S
H442 C471 0.930 . S
H443 C448 0.930 . S
H444 C452 0.930 . S
O445 Co414 2.037 . S
O445 C465 1.234 . S
C446 O420 1.269 1_545 S
C446 O421 1.257 . S
C447 H422 0.930 . S
C447 C450 1.388 . S
C447 C452 1.418 . S
C448 H443 0.930 . S
C448 C451 1.404 . S
C448 C452 1.353 . S
N449 Co414 2.145 . S
N449 C450 1.397 . S
N449 C451 1.334 . S
C450 H431 0.929 . S
C450 C447 1.388 . S
C450 N449 1.397 . S
C451 H432 0.929 . S
C451 C448 1.404 . S
C451 N449 1.334 . S
C452 H444 0.930 . S
C452 C447 1.418 . S
C452 C448 1.353 . S
C453 H423 0.951 . S
C453 N454 1.330 . S
C453 C455 1.446 . S
N454 Co413 2.151 . S
N454 C453 1.330 . S
N454 C458 1.418 . S
C455 H434 0.929 . S
C455 C453 1.446 . S
C455 C456 1.332 . S
C456 H436 0.931 . S
C456 C455 1.332 . S
C456 C457 1.267 . S
C457 H425 0.929 . S
C457 C456 1.267 . S
C457 C458 1.251 . S
C458 H428 0.929 . S
C458 N454 1.418 . S
C458 C457 1.251 . S
C459 H426 0.930 . S
C459 C461 1.406 . S
C459 C464 1.261 . S
C460 H427 0.930 . S
C460 N462 1.325 . S
C460 C463 1.357 . S
C461 H429 0.928 . S
C461 C459 1.406 . S
C461 N462 1.261 . S
N462 Co413 2.214 . S
N462 C460 1.325 . S
N462 C461 1.261 . S
C463 H433 0.931 . S
C463 C460 1.357 . S
C463 C464 1.312 . S
C464 H435 0.930 . S
C464 C459 1.261 . S
C464 C463 1.312 . S
C465 O437 1.214 . S
C465 O445 1.234 . S
C466 H438 0.929 . S
C466 C469 1.391 . S
C466 C471 1.391 . S
C467 H439 0.929 . S
C467 C468 1.390 . S
C467 N470 1.391 . S
C468 H440 0.930 . S
C468 C467 1.390 . S
C468 C469 1.392 . S
C469 H441 0.929 . S
C469 C466 1.391 . S
C469 C468 1.392 . S
N470 Co414 2.257 . S
N470 C467 1.391 . S
N470 C471 1.388 . S
C471 H442 0.930 . S
C471 C466 1.391 . S
C471 N470 1.388 . S
Co472 O474 2.143 . S
Co472 O480 2.074 . S
Co472 O483 2.093 . S
Co472 O496 2.097 1_554 S
Co472 N513 2.151 . S
Co472 N521 2.214 1_554 S
Co473 O474 2.160 . S
Co473 O479 2.058 . S
Co473 O489 2.057 . S
Co473 O504 2.037 1_554 S
Co473 N508 2.145 . S
Co473 N529 2.257 . S
O474 Co472 2.143 . S
O474 Co473 2.160 . S
C475 O476 1.278 . S
C475 O483 1.224 . S
O476 C475 1.278 . S
C477 O478 1.245 . S
C477 O489 1.232 . S
O478 C477 1.245 . S
O479 Co473 2.058 . S
O479 C505 1.269 . S
O480 Co472 2.074 . S
O480 C505 1.257 . S
H481 C506 0.930 . S
H482 C512 0.930 . S
O483 Co472 2.093 . S
O483 C475 1.224 . S
H484 C516 0.929 . S
H485 C518 0.930 . S
H486 C519 0.930 . S
H487 C517 0.929 . S
H488 C520 0.928 1_554 S
O489 Co473 2.057 . S
O489 C477 1.232 . S
H490 C509 0.929 . S
H491 C510 0.929 . S
H492 C522 0.931 . S
H493 C514 0.929 . S
H494 C523 0.930 . S
H495 C515 0.931 . S
O496 Co472 2.097 1_556 S
O496 C524 1.214 . S
H497 C525 0.929 . S
H498 C526 0.929 . S
H499 C527 0.930 . S
H500 C528 0.929 . S
H501 C530 0.930 . S
H502 C507 0.930 . S
H503 C511 0.930 . S
O504 Co473 2.037 1_556 S
O504 C524 1.234 . S
C505 O479 1.269 . S
C505 O480 1.257 . S
C506 H481 0.930 . S
C506 C509 1.388 . S
C506 C511 1.418 . S
C507 H502 0.930 . S
C507 C510 1.404 . S
C507 C511 1.353 1_554 S
N508 Co473 2.145 . S
N508 C509 1.397 1_554 S
N508 C510 1.334 . S
C509 H490 0.929 . S
C509 C506 1.388 . S
C509 N508 1.397 1_556 S
C510 H491 0.929 . S
C510 C507 1.404 . S
C510 N508 1.334 . S
C511 H503 0.930 . S
C511 C506 1.418 . S
C511 C507 1.353 1_556 S
C512 H482 0.930 . S
C512 N513 1.330 . S
C512 C514 1.446 . S
N513 Co472 2.151 . S
N513 C512 1.330 . S
N513 C517 1.418 . S
C514 H493 0.929 . S
C514 C512 1.446 . S
C514 C515 1.332 . S
C515 H495 0.931 . S
C515 C514 1.332 . S
C515 C516 1.267 . S
C516 H484 0.929 . S
C516 C515 1.267 . S
C516 C517 1.251 . S
C517 H487 0.929 . S
C517 N513 1.418 . S
C517 C516 1.251 . S
C518 H485 0.930 . S
C518 C520 1.406 . S
C518 C523 1.261 . S
C519 H486 0.930 . S
C519 N521 1.325 . S
C519 C522 1.357 . S
C520 H488 0.928 1_556 S
C520 C518 1.406 . S
C520 N521 1.261 . S
N521 Co472 2.214 1_556 S
N521 C519 1.325 . S
N521 C520 1.261 . S
C522 H492 0.931 . S
C522 C519 1.357 . S
C522 C523 1.312 . S
C523 H494 0.930 . S
C523 C518 1.261 . S
C523 C522 1.312 . S
C524 O496 1.214 . S
C524 O504 1.234 . S
C525 H497 0.929 . S
C525 C528 1.391 1_554 S
C525 C530 1.391 . S
C526 H498 0.929 . S
C526 C527 1.390 . S
C526 N529 1.391 1_556 S
C527 H499 0.930 . S
C527 C526 1.390 . S
C527 C528 1.392 . S
C528 H500 0.929 . S
C528 C525 1.391 1_556 S
C528 C527 1.392 . S
N529 Co473 2.257 . S
N529 C526 1.391 1_554 S
N529 C530 1.388 . S
C530 H501 0.930 . S
C530 C525 1.391 . S
C530 N529 1.388 . S
Co531 O533 2.143 1_655 S
Co531 O539 2.074 . S
Co531 O542 2.093 1_655 S
Co531 O555 2.097 1_655 S
Co531 N572 2.151 . S
Co531 N580 2.214 . S
Co532 O533 2.160 . S
Co532 O538 2.058 . S
Co532 O548 2.057 . S
Co532 O563 2.037 . S
Co532 N567 2.145 . S
Co532 N588 2.257 . S
O533 Co531 2.143 1_455 S
O533 Co532 2.160 . S
C534 O535 1.278 . S
C534 O542 1.224 . S
O535 C534 1.278 . S
C536 O537 1.245 . S
C536 O548 1.232 . S
O537 C536 1.245 . S
O538 Co532 2.058 . S
O538 C564 1.269 1_455 S
O539 Co531 2.074 . S
O539 C564 1.257 . S
H540 C565 0.930 . S
H541 C571 0.943 . S
O542 Co531 2.093 1_455 S
O542 C534 1.224 . S
H543 C575 0.929 . S
H544 C577 0.930 . S
H545 C578 0.930 . S
H546 C576 0.929 . S
H547 C579 0.928 . S
O548 Co532 2.057 . S
O548 C536 1.232 . S
H549 C568 0.929 . S
H550 C569 0.929 . S
H551 C581 0.931 . S
H552 C573 0.929 . S
H553 C582 0.930 . S
H554 C574 0.931 . S
O555 Co531 2.097 1_455 S
O555 C583 1.214 . S
H556 C584 0.929 . S
H557 C585 0.929 . S
H558 C586 0.930 . S
H559 C587 0.929 . S
H560 C589 0.930 . S
H561 C566 0.930 . S
H562 C570 0.930 . S
O563 Co532 2.037 . S
O563 C583 1.234 . S
C564 O538 1.269 1_655 S
C564 O539 1.257 . S
C565 H540 0.930 . S
C565 C568 1.388 . S
C565 C570 1.418 . S
C566 H561 0.930 . S
C566 C569 1.404 . S
C566 C570 1.353 . S
N567 Co532 2.145 . S
N567 C568 1.397 . S
N567 C569 1.334 . S
C568 H549 0.929 . S
C568 C565 1.388 . S
C568 N567 1.397 . S
C569 H550 0.929 . S
C569 C566 1.404 . S
C569 N567 1.334 . S
C570 H562 0.930 . S
C570 C565 1.418 . S
C570 C566 1.353 . S
C571 H541 0.943 . S
C571 N572 1.330 . S
C571 C573 1.446 . S
N572 Co531 2.151 . S
N572 C571 1.330 . S
N572 C576 1.418 . S
C573 H552 0.929 . S
C573 C571 1.446 . S
C573 C574 1.332 . S
C574 H554 0.931 . S
C574 C573 1.332 . S
C574 C575 1.267 . S
C575 H543 0.929 . S
C575 C574 1.267 . S
C575 C576 1.251 . S
C576 H546 0.929 . S
C576 N572 1.418 . S
C576 C575 1.251 . S
C577 H544 0.930 . S
C577 C579 1.406 . S
C577 C582 1.261 . S
C578 H545 0.930 . S
C578 N580 1.325 . S
C578 C581 1.357 . S
C579 H547 0.928 . S
C579 C577 1.406 . S
C579 N580 1.261 . S
N580 Co531 2.214 . S
N580 C578 1.325 . S
N580 C579 1.261 . S
C581 H551 0.931 . S
C581 C578 1.357 . S
C581 C582 1.312 . S
C582 H553 0.930 . S
C582 C577 1.261 . S
C582 C581 1.312 . S
C583 O555 1.214 . S
C583 O563 1.234 . S
C584 H556 0.929 . S
C584 C587 1.391 . S
C584 C589 1.391 . S
C585 H557 0.929 . S
C585 C586 1.390 . S
C585 N588 1.391 . S
C586 H558 0.930 . S
C586 C585 1.390 . S
C586 C587 1.392 . S
C587 H559 0.929 . S
C587 C584 1.391 . S
C587 C586 1.392 . S
N588 Co532 2.257 . S
N588 C585 1.391 . S
N588 C589 1.388 . S
C589 H560 0.930 . S
C589 C584 1.391 . S
C589 N588 1.388 . S
Co590 O592 2.143 1_565 S
Co590 O598 2.074 . S
Co590 O601 2.093 1_565 S
Co590 O614 2.097 1_565 S
Co590 N631 2.151 . S
Co590 N639 2.214 . S
Co591 O592 2.160 . S
Co591 O597 2.058 . S
Co591 O607 2.057 . S
Co591 O622 2.037 . S
Co591 N626 2.145 . S
Co591 N647 2.257 . S
O592 Co590 2.143 1_545 S
O592 Co591 2.160 . S
C593 O594 1.278 . S
C593 O601 1.224 . S
O594 C593 1.278 . S
C595 O596 1.245 . S
C595 O607 1.232 . S
O596 C595 1.245 . S
O597 Co591 2.058 . S
O597 C623 1.269 1_545 S
O598 Co590 2.074 . S
O598 C623 1.257 . S
H599 C624 0.930 . S
H600 C630 0.951 . S
O601 Co590 2.093 1_545 S
O601 C593 1.224 . S
H602 C634 0.929 . S
H603 C636 0.930 . S
H604 C637 0.930 . S
H605 C635 0.929 . S
H606 C638 0.928 . S
O607 Co591 2.057 . S
O607 C595 1.232 . S
H608 C627 0.929 . S
H609 C628 0.929 . S
H610 C640 0.931 . S
H611 C632 0.929 . S
H612 C641 0.930 . S
H613 C633 0.931 . S
O614 Co590 2.097 1_545 S
O614 C642 1.214 . S
H615 C643 0.929 . S
H616 C644 0.929 . S
H617 C645 0.930 . S
H618 C646 0.929 . S
H619 C648 0.930 . S
H620 C625 0.930 . S
H621 C629 0.930 . S
O622 Co591 2.037 . S
O622 C642 1.234 . S
C623 O597 1.269 1_565 S
C623 O598 1.257 . S
C624 H599 0.930 . S
C624 C627 1.388 . S
C624 C629 1.418 . S
C625 H620 0.930 . S
C625 C628 1.404 . S
C625 C629 1.353 . S
N626 Co591 2.145 . S
N626 C627 1.397 . S
N626 C628 1.334 . S
C627 H608 0.929 . S
C627 C624 1.388 . S
C627 N626 1.397 . S
C628 H609 0.929 . S
C628 C625 1.404 . S
C628 N626 1.334 . S
C629 H621 0.930 . S
C629 C624 1.418 . S
C629 C625 1.353 . S
C630 H600 0.951 . S
C630 N631 1.330 . S
C630 C632 1.446 . S
N631 Co590 2.151 . S
N631 C630 1.330 . S
N631 C635 1.418 . S
C632 H611 0.929 . S
C632 C630 1.446 . S
C632 C633 1.332 . S
C633 H613 0.931 . S
C633 C632 1.332 . S
C633 C634 1.267 . S
C634 H602 0.929 . S
C634 C633 1.267 . S
C634 C635 1.251 . S
C635 H605 0.929 . S
C635 N631 1.418 . S
C635 C634 1.251 . S
C636 H603 0.930 . S
C636 C638 1.406 . S
C636 C641 1.261 . S
C637 H604 0.930 . S
C637 N639 1.325 . S
C637 C640 1.357 . S
C638 H606 0.928 . S
C638 C636 1.406 . S
C638 N639 1.261 . S
N639 Co590 2.214 . S
N639 C637 1.325 . S
N639 C638 1.261 . S
C640 H610 0.931 . S
C640 C637 1.357 . S
C640 C641 1.312 . S
C641 H612 0.930 . S
C641 C636 1.261 . S
C641 C640 1.312 . S
C642 O614 1.214 . S
C642 O622 1.234 . S
C643 H615 0.929 . S
C643 C646 1.391 . S
C643 C648 1.391 . S
C644 H616 0.929 . S
C644 C645 1.390 . S
C644 N647 1.391 . S
C645 H617 0.930 . S
C645 C644 1.390 . S
C645 C646 1.392 . S
C646 H618 0.929 . S
C646 C643 1.391 . S
C646 C645 1.392 . S
N647 Co591 2.257 . S
N647 C644 1.391 . S
N647 C648 1.388 . S
C648 H619 0.930 . S
C648 C643 1.391 . S
C648 N647 1.388 . S
Co649 O651 2.143 . S
Co649 O657 2.074 . S
Co649 O660 2.093 . S
Co649 O673 2.097 1_554 S
Co649 N690 2.151 . S
Co649 N698 2.214 1_554 S
Co650 O651 2.160 . S
Co650 O656 2.058 . S
Co650 O666 2.057 . S
Co650 O681 2.037 1_554 S
Co650 N685 2.145 . S
Co650 N706 2.257 . S
O651 Co649 2.143 . S
O651 Co650 2.160 . S
C652 O653 1.278 . S
C652 O660 1.224 . S
O653 C652 1.278 . S
C654 O655 1.245 . S
C654 O666 1.232 . S
O655 C654 1.245 . S
O656 Co650 2.058 . S
O656 C682 1.269 . S
O657 Co649 2.074 . S
O657 C682 1.257 . S
H658 C683 0.930 . S
H659 C689 0.930 . S
O660 Co649 2.093 . S
O660 C652 1.224 . S
H661 C693 0.929 . S
H662 C695 0.930 . S
H663 C696 0.930 . S
H664 C694 0.929 . S
H665 C697 0.928 1_554 S
O666 Co650 2.057 . S
O666 C654 1.232 . S
H667 C686 0.929 . S
H668 C687 0.929 . S
H669 C699 0.931 . S
H670 C691 0.929 . S
H671 C700 0.930 . S
H672 C692 0.931 . S
O673 Co649 2.097 1_556 S
O673 C701 1.214 . S
H674 C702 0.929 . S
H675 C703 0.929 . S
H676 C704 0.930 . S
H677 C705 0.929 . S
H678 C707 0.930 . S
H679 C684 0.930 . S
H680 C688 0.930 . S
O681 Co650 2.037 1_556 S
O681 C701 1.234 . S
C682 O656 1.269 . S
C682 O657 1.257 . S
C683 H658 0.930 . S
C683 C686 1.388 . S
C683 C688 1.418 . S
C684 H679 0.930 . S
C684 C687 1.404 . S
C684 C688 1.353 1_554 S
N685 Co650 2.145 . S
N685 C686 1.397 1_554 S
N685 C687 1.334 . S
C686 H667 0.929 . S
C686 C683 1.388 . S
C686 N685 1.397 1_556 S
C687 H668 0.929 . S
C687 C684 1.404 . S
C687 N685 1.334 . S
C688 H680 0.930 . S
C688 C683 1.418 . S
C688 C684 1.353 1_556 S
C689 H659 0.930 . S
C689 N690 1.330 . S
C689 C691 1.446 . S
N690 Co649 2.151 . S
N690 C689 1.330 . S
N690 C694 1.418 . S
C691 H670 0.929 . S
C691 C689 1.446 . S
C691 C692 1.332 . S
C692 H672 0.931 . S
C692 C691 1.332 . S
C692 C693 1.267 . S
C693 H661 0.929 . S
C693 C692 1.267 . S
C693 C694 1.251 . S
C694 H664 0.929 . S
C694 N690 1.418 . S
C694 C693 1.251 . S
C695 H662 0.930 . S
C695 C697 1.406 . S
C695 C700 1.261 . S
C696 H663 0.930 . S
C696 N698 1.325 . S
C696 C699 1.357 . S
C697 H665 0.928 1_556 S
C697 C695 1.406 . S
C697 N698 1.261 . S
N698 Co649 2.214 1_556 S
N698 C696 1.325 . S
N698 C697 1.261 . S
C699 H669 0.931 . S
C699 C696 1.357 . S
C699 C700 1.312 . S
C700 H671 0.930 . S
C700 C695 1.261 . S
C700 C699 1.312 . S
C701 O673 1.214 . S
C701 O681 1.234 . S
C702 H674 0.929 . S
C702 C705 1.391 1_554 S
C702 C707 1.391 . S
C703 H675 0.929 . S
C703 C704 1.390 . S
C703 N706 1.391 1_556 S
C704 H676 0.930 . S
C704 C703 1.390 . S
C704 C705 1.392 . S
C705 H677 0.929 . S
C705 C702 1.391 1_556 S
C705 C704 1.392 . S
N706 Co650 2.257 . S
N706 C703 1.391 1_554 S
N706 C707 1.388 . S
C707 H678 0.930 . S
C707 C702 1.391 . S
C707 N706 1.388 . S
H708 C726 0.951 . S
H709 C728 0.951 . S
H710 C730 0.950 . S
H711 C731 0.950 . S
H712 C733 0.950 . S
H713 C736 0.950 . S
H714 C737 0.950 . S
H715 C739 0.950 . S
H716 C740 0.950 . S
H717 C741 0.951 . S
H718 C743 0.951 . S
H719 C745 0.950 . S
H720 C746 0.950 . S
H721 C748 0.950 . S
H722 C751 0.950 . S
H723 C752 0.950 . S
H724 C754 0.950 . S
H725 C755 0.950 . S
C726 H708 0.951 . S
C726 C727 1.366 . S
C726 C728 1.388 . S
C727 C726 1.366 . S
C727 C731 1.385 . S
C728 H709 0.951 . S
C728 C726 1.388 . S
C728 C729 1.366 . S
C729 C728 1.366 . S
C729 C730 1.414 . S
C729 C732 1.499 . S
C730 H710 0.950 . S
C730 C729 1.414 . S
C730 C731 1.374 . S
C731 H711 0.950 . S
C731 C727 1.385 . S
C731 C730 1.374 . S
C732 C729 1.499 . S
C732 C733 1.373 . S
C732 C734 1.389 . S
C733 H712 0.950 . S
C733 C732 1.373 . S
C733 C749 1.377 . S
C734 C732 1.389 . S
C734 C735 1.524 . S
C734 C748 1.377 . S
C735 C734 1.524 . S
C735 C736 1.397 . S
C735 C740 1.363 . S
C736 H713 0.950 . S
C736 C735 1.397 . S
C736 C737 1.334 . S
C737 H714 0.950 . S
C737 C736 1.334 . S
C737 C738 1.287 . S
C738 C737 1.287 . S
C738 C739 1.524 . S
C738 H757 0.913 . S
C739 H715 0.950 . S
C739 C738 1.524 . S
C739 C740 1.415 . S
C740 H716 0.950 . S
C740 C735 1.363 . S
C740 C739 1.415 . S
C741 H717 0.951 . S
C741 C742 1.366 . S
C741 C743 1.388 . S
C742 C741 1.366 . S
C742 C746 1.385 . S
C743 H718 0.951 . S
C743 C741 1.388 . S
C743 C744 1.366 . S
C744 C743 1.366 . S
C744 C745 1.414 . S
C744 C747 1.499 . S
C745 H719 0.950 . S
C745 C744 1.414 . S
C745 C746 1.374 . S
C746 H720 0.950 . S
C746 C742 1.385 . S
C746 C745 1.374 . S
C747 C744 1.499 . S
C747 C748 1.373 . S
C747 C749 1.389 . S
C748 H721 0.950 . S
C748 C734 1.377 . S
C748 C747 1.373 . S
C749 C733 1.377 . S
C749 C747 1.389 . S
C749 C750 1.524 . S
C750 C749 1.524 . S
C750 C751 1.397 . S
C750 C755 1.363 . S
C751 H722 0.950 . S
C751 C750 1.397 . S
C751 C752 1.334 . S
C752 H723 0.950 . S
C752 C751 1.334 . S
C752 C753 1.287 . S
C753 C752 1.287 . S
C753 C754 1.524 . S
C753 H756 0.999 . S
C754 H724 0.950 . S
C754 C753 1.524 . S
C754 C755 1.415 . S
C755 H725 0.950 . S
C755 C750 1.363 . S
C755 C754 1.415 . S
H756 C753 0.999 . S
H757 C738 0.913 . S
H758 C776 0.951 . S
H759 C778 0.951 . S
H760 C780 0.950 . S
H761 C781 0.950 . S
H762 C783 0.950 . S
H763 C786 0.950 . S
H764 C787 0.950 . S
H765 C789 0.950 . S
H766 C790 0.950 . S
H767 C791 0.951 . S
H768 C793 0.951 . S
H769 C795 0.950 . S
H770 C796 0.950 . S
H771 C798 0.950 . S
H772 C801 0.950 . S
H773 C802 0.950 . S
H774 C804 0.950 . S
H775 C805 0.950 . S
C776 H758 0.951 . S
C776 C777 1.366 . S
C776 C778 1.388 . S
C777 C776 1.366 . S
C777 C781 1.385 . S
C778 H759 0.951 . S
C778 C776 1.388 . S
C778 C779 1.366 . S
C779 C778 1.366 . S
C779 C780 1.414 . S
C779 C782 1.499 . S
C780 H760 0.950 . S
C780 C779 1.414 . S
C780 C781 1.374 . S
C781 H761 0.950 . S
C781 C777 1.385 . S
C781 C780 1.374 . S
C782 C779 1.499 . S
C782 C783 1.373 . S
C782 C784 1.389 . S
C783 H762 0.950 . S
C783 C782 1.373 . S
C783 C799 1.377 . S
C784 C782 1.389 . S
C784 C785 1.524 . S
C784 C798 1.377 . S
C785 C784 1.524 . S
C785 C786 1.397 . S
C785 C790 1.363 . S
C786 H763 0.950 . S
C786 C785 1.397 . S
C786 C787 1.334 . S
C787 H764 0.950 . S
C787 C786 1.334 . S
C787 C788 1.287 . S
C788 C787 1.287 . S
C788 C789 1.524 . S
C788 H807 0.913 . S
C789 H765 0.950 . S
C789 C788 1.524 . S
C789 C790 1.415 . S
C790 H766 0.950 . S
C790 C785 1.363 . S
C790 C789 1.415 . S
C791 H767 0.951 . S
C791 C792 1.366 . S
C791 C793 1.388 . S
C792 C791 1.366 . S
C792 C796 1.385 . S
C793 H768 0.951 . S
C793 C791 1.388 . S
C793 C794 1.366 . S
C794 C793 1.366 . S
C794 C795 1.414 . S
C794 C797 1.499 . S
C795 H769 0.950 . S
C795 C794 1.414 . S
C795 C796 1.374 . S
C796 H770 0.950 . S
C796 C792 1.385 . S
C796 C795 1.374 . S
C797 C794 1.499 . S
C797 C798 1.373 . S
C797 C799 1.389 . S
C798 H771 0.950 . S
C798 C784 1.377 . S
C798 C797 1.373 . S
C799 C783 1.377 . S
C799 C797 1.389 . S
C799 C800 1.524 . S
C800 C799 1.524 . S
C800 C801 1.397 . S
C800 C805 1.363 . S
C801 H772 0.950 . S
C801 C800 1.397 . S
C801 C802 1.334 . S
C802 H773 0.950 . S
C802 C801 1.334 . S
C802 C803 1.287 . S
C803 C802 1.287 . S
C803 C804 1.524 . S
C803 H806 0.999 . S
C804 H774 0.950 . S
C804 C803 1.524 . S
C804 C805 1.415 . S
C805 H775 0.950 . S
C805 C800 1.363 . S
C805 C804 1.415 . S
H806 C803 0.999 . S
H807 C788 0.913 . S
H808 C826 0.951 . S
H809 C828 0.951 . S
H810 C830 0.950 . S
H811 C831 0.950 . S
H812 C833 0.950 . S
H813 C836 0.950 . S
H814 C837 0.950 . S
H815 C839 0.950 . S
H816 C840 0.950 . S
H817 C841 0.951 . S
H818 C843 0.951 . S
H819 C845 0.950 . S
H820 C846 0.950 . S
H821 C848 0.950 . S
H822 C851 0.950 . S
H823 C852 0.950 . S
H824 C854 0.950 . S
H825 C855 0.950 . S
C826 H808 0.951 . S
C826 C827 1.366 . S
C826 C828 1.388 . S
C827 C826 1.366 . S
C827 C831 1.385 . S
C828 H809 0.951 . S
C828 C826 1.388 . S
C828 C829 1.366 . S
C829 C828 1.366 . S
C829 C830 1.414 . S
C829 C832 1.499 . S
C830 H810 0.950 . S
C830 C829 1.414 . S
C830 C831 1.374 . S
C831 H811 0.950 . S
C831 C827 1.385 . S
C831 C830 1.374 . S
C832 C829 1.499 . S
C832 C833 1.373 . S
C832 C834 1.389 . S
C833 H812 0.950 . S
C833 C832 1.373 . S
C833 C849 1.377 . S
C834 C832 1.389 . S
C834 C835 1.524 . S
C834 C848 1.377 . S
C835 C834 1.524 . S
C835 C836 1.397 . S
C835 C840 1.363 . S
C836 H813 0.950 . S
C836 C835 1.397 . S
C836 C837 1.334 . S
C837 H814 0.950 . S
C837 C836 1.334 . S
C837 C838 1.287 . S
C838 C837 1.287 . S
C838 C839 1.524 . S
C838 H857 0.913 . S
C839 H815 0.950 . S
C839 C838 1.524 . S
C839 C840 1.415 . S
C840 H816 0.950 . S
C840 C835 1.363 . S
C840 C839 1.415 . S
C841 H817 0.951 . S
C841 C842 1.366 . S
C841 C843 1.388 . S
C842 C841 1.366 . S
C842 C846 1.385 . S
C843 H818 0.951 . S
C843 C841 1.388 . S
C843 C844 1.366 . S
C844 C843 1.366 . S
C844 C845 1.414 . S
C844 C847 1.499 . S
C845 H819 0.950 . S
C845 C844 1.414 . S
C845 C846 1.374 . S
C846 H820 0.950 . S
C846 C842 1.385 . S
C846 C845 1.374 . S
C847 C844 1.499 . S
C847 C848 1.373 . S
C847 C849 1.389 . S
C848 H821 0.950 . S
C848 C834 1.377 . S
C848 C847 1.373 . S
C849 C833 1.377 . S
C849 C847 1.389 . S
C849 C850 1.524 . S
C850 C849 1.524 . S
C850 C851 1.397 . S
C850 C855 1.363 . S
C851 H822 0.950 . S
C851 C850 1.397 . S
C851 C852 1.334 . S
C852 H823 0.950 . S
C852 C851 1.334 . S
C852 C853 1.287 . S
C853 C852 1.287 . S
C853 C854 1.524 . S
C853 H856 0.999 . S
C854 H824 0.950 . S
C854 C853 1.524 . S
C854 C855 1.415 . S
C855 H825 0.950 . S
C855 C850 1.363 . S
C855 C854 1.415 . S
H856 C853 0.999 . S
H857 C838 0.913 . S
H858 C876 0.951 . S
H859 C878 0.951 . S
H860 C880 0.950 . S
H861 C881 0.950 . S
H862 C883 0.950 . S
H863 C886 0.950 . S
H864 C887 0.950 . S
H865 C889 0.950 . S
H866 C890 0.950 . S
H867 C891 0.951 . S
H868 C893 0.951 . S
H869 C895 0.950 . S
H870 C896 0.950 . S
H871 C898 0.950 . S
H872 C901 0.950 . S
H873 C902 0.950 . S
H874 C904 0.950 . S
H875 C905 0.950 . S
C876 H858 0.951 . S
C876 C877 1.366 . S
C876 C878 1.388 . S
C877 C876 1.366 . S
C877 C881 1.385 . S
C878 H859 0.951 . S
C878 C876 1.388 . S
C878 C879 1.366 . S
C879 C878 1.366 . S
C879 C880 1.414 . S
C879 C882 1.499 . S
C880 H860 0.950 . S
C880 C879 1.414 . S
C880 C881 1.374 . S
C881 H861 0.950 . S
C881 C877 1.385 . S
C881 C880 1.374 . S
C882 C879 1.499 . S
C882 C883 1.373 . S
C882 C884 1.389 . S
C883 H862 0.950 . S
C883 C882 1.373 . S
C883 C899 1.377 . S
C884 C882 1.389 . S
C884 C885 1.524 . S
C884 C898 1.377 . S
C885 C884 1.524 . S
C885 C886 1.397 . S
C885 C890 1.363 . S
C886 H863 0.950 . S
C886 C885 1.397 . S
C886 C887 1.334 . S
C887 H864 0.950 . S
C887 C886 1.334 . S
C887 C888 1.287 . S
C888 C887 1.287 . S
C888 C889 1.524 . S
C888 H907 0.913 . S
C889 H865 0.950 . S
C889 C888 1.524 . S
C889 C890 1.415 . S
C890 H866 0.950 . S
C890 C885 1.363 . S
C890 C889 1.415 . S
C891 H867 0.951 . S
C891 C892 1.366 . S
C891 C893 1.388 . S
C892 C891 1.366 . S
C892 C896 1.385 . S
C893 H868 0.951 . S
C893 C891 1.388 . S
C893 C894 1.366 . S
C894 C893 1.366 . S
C894 C895 1.414 . S
C894 C897 1.499 . S
C895 H869 0.950 . S
C895 C894 1.414 . S
C895 C896 1.374 . S
C896 H870 0.950 . S
C896 C892 1.385 . S
C896 C895 1.374 . S
C897 C894 1.499 . S
C897 C898 1.373 . S
C897 C899 1.389 . S
C898 H871 0.950 . S
C898 C884 1.377 . S
C898 C897 1.373 . S
C899 C883 1.377 . S
C899 C897 1.389 . S
C899 C900 1.524 . S
C900 C899 1.524 . S
C900 C901 1.397 . S
C900 C905 1.363 . S
C901 H872 0.950 . S
C901 C900 1.397 . S
C901 C902 1.334 . S
C902 H873 0.950 . S
C902 C901 1.334 . S
C902 C903 1.287 . S
C903 C902 1.287 . S
C903 C904 1.524 . S
C903 H906 0.999 . S
C904 H874 0.950 . S
C904 C903 1.524 . S
C904 C905 1.415 . S
C905 H875 0.950 . S
C905 C900 1.363 . S
C905 C904 1.415 . S
H906 C903 0.999 . S
H907 C888 0.913 . S
H908 C926 0.951 . S
H909 C928 0.951 . S
H910 C930 0.950 . S
H911 C931 0.950 . S
H912 C933 0.950 . S
H913 C936 0.950 . S
H914 C937 0.950 . S
H915 C939 0.950 . S
H916 C940 0.950 . S
H917 C941 0.951 . S
H918 C943 0.951 . S
H919 C945 0.950 . S
H920 C946 0.950 . S
H921 C948 0.950 . S
H922 C951 0.950 . S
H923 C952 0.950 . S
H924 C954 0.950 . S
H925 C955 0.950 . S
C926 H908 0.951 . S
C926 C927 1.366 . S
C926 C928 1.388 . S
C927 C926 1.366 . S
C927 C931 1.385 . S
C928 H909 0.951 . S
C928 C926 1.388 . S
C928 C929 1.366 . S
C929 C928 1.366 . S
C929 C930 1.414 . S
C929 C932 1.499 . S
C930 H910 0.950 . S
C930 C929 1.414 . S
C930 C931 1.374 . S
C931 H911 0.950 . S
C931 C927 1.385 . S
C931 C930 1.374 . S
C932 C929 1.499 . S
C932 C933 1.373 . S
C932 C934 1.389 . S
C933 H912 0.950 . S
C933 C932 1.373 . S
C933 C949 1.377 . S
C934 C932 1.389 . S
C934 C935 1.524 . S
C934 C948 1.377 . S
C935 C934 1.524 . S
C935 C936 1.397 . S
C935 C940 1.363 . S
C936 H913 0.950 . S
C936 C935 1.397 . S
C936 C937 1.334 . S
C937 H914 0.950 . S
C937 C936 1.334 . S
C937 C938 1.287 . S
C938 C937 1.287 . S
C938 C939 1.524 . S
C938 H957 0.913 . S
C939 H915 0.950 . S
C939 C938 1.524 . S
C939 C940 1.415 . S
C940 H916 0.950 . S
C940 C935 1.363 . S
C940 C939 1.415 . S
C941 H917 0.951 . S
C941 C942 1.366 . S
C941 C943 1.388 . S
C942 C941 1.366 . S
C942 C946 1.385 . S
C943 H918 0.951 . S
C943 C941 1.388 . S
C943 C944 1.366 . S
C944 C943 1.366 . S
C944 C945 1.414 . S
C944 C947 1.499 . S
C945 H919 0.950 . S
C945 C944 1.414 . S
C945 C946 1.374 . S
C946 H920 0.950 . S
C946 C942 1.385 . S
C946 C945 1.374 . S
C947 C944 1.499 . S
C947 C948 1.373 . S
C947 C949 1.389 . S
C948 H921 0.950 . S
C948 C934 1.377 . S
C948 C947 1.373 . S
C949 C933 1.377 . S
C949 C947 1.389 . S
C949 C950 1.524 . S
C950 C949 1.524 . S
C950 C951 1.397 . S
C950 C955 1.363 . S
C951 H922 0.950 . S
C951 C950 1.397 . S
C951 C952 1.334 . S
C952 H923 0.950 . S
C952 C951 1.334 . S
C952 C953 1.287 . S
C953 C952 1.287 . S
C953 C954 1.524 . S
C953 H956 0.999 . S
C954 H924 0.950 . S
C954 C953 1.524 . S
C954 C955 1.415 . S
C955 H925 0.950 . S
C955 C950 1.363 . S
C955 C954 1.415 . S
H956 C953 0.999 . S
H957 C938 0.913 . S
H958 C976 0.951 . S
H959 C978 0.951 . S
H960 C980 0.950 . S
H961 C981 0.950 . S
H962 C983 0.950 . S
H963 C986 0.950 . S
H964 C987 0.950 . S
H965 C989 0.950 . S
H966 C990 0.950 . S
H967 C991 0.951 . S
H968 C993 0.951 . S
H969 C995 0.950 . S
H970 C996 0.950 . S
H971 C998 0.950 . S
H972 C1001 0.950 . S
H973 C1002 0.950 . S
H974 C1004 0.950 . S
H975 C1005 0.950 . S
C976 H958 0.951 . S
C976 C977 1.366 . S
C976 C978 1.388 . S
C977 C976 1.366 . S
C977 C981 1.385 . S
C978 H959 0.951 . S
C978 C976 1.388 . S
C978 C979 1.366 . S
C979 C978 1.366 . S
C979 C980 1.414 . S
C979 C982 1.499 . S
C980 H960 0.950 . S
C980 C979 1.414 . S
C980 C981 1.374 . S
C981 H961 0.950 . S
C981 C977 1.385 . S
C981 C980 1.374 . S
C982 C979 1.499 . S
C982 C983 1.373 . S
C982 C984 1.389 . S
C983 H962 0.950 . S
C983 C982 1.373 . S
C983 C999 1.377 . S
C984 C982 1.389 . S
C984 C985 1.524 . S
C984 C998 1.377 . S
C985 C984 1.524 . S
C985 C986 1.397 . S
C985 C990 1.363 . S
C986 H963 0.950 . S
C986 C985 1.397 . S
C986 C987 1.334 . S
C987 H964 0.950 . S
C987 C986 1.334 . S
C987 C988 1.287 . S
C988 C987 1.287 . S
C988 C989 1.524 . S
C988 H1007 0.913 . S
C989 H965 0.950 . S
C989 C988 1.524 . S
C989 C990 1.415 . S
C990 H966 0.950 . S
C990 C985 1.363 . S
C990 C989 1.415 . S
C991 H967 0.951 . S
C991 C992 1.366 . S
C991 C993 1.388 . S
C992 C991 1.366 . S
C992 C996 1.385 . S
C993 H968 0.951 . S
C993 C991 1.388 . S
C993 C994 1.366 . S
C994 C993 1.366 . S
C994 C995 1.414 . S
C994 C997 1.499 . S
C995 H969 0.950 . S
C995 C994 1.414 . S
C995 C996 1.374 . S
C996 H970 0.950 . S
C996 C992 1.385 . S
C996 C995 1.374 . S
C997 C994 1.499 . S
C997 C998 1.373 . S
C997 C999 1.389 . S
C998 H971 0.950 . S
C998 C984 1.377 . S
C998 C997 1.373 . S
C999 C983 1.377 . S
C999 C997 1.389 . S
C999 C1000 1.524 . S
C1000 C999 1.524 . S
C1000 C1001 1.397 . S
C1000 C1005 1.363 . S
C1001 H972 0.950 . S
C1001 C1000 1.397 . S
C1001 C1002 1.334 . S
C1002 H973 0.950 . S
C1002 C1001 1.334 . S
C1002 C1003 1.287 . S
C1003 C1002 1.287 . S
C1003 C1004 1.524 . S
C1003 H1006 0.999 . S
C1004 H974 0.950 . S
C1004 C1003 1.524 . S
C1004 C1005 1.415 . S
C1005 H975 0.950 . S
C1005 C1000 1.363 . S
C1005 C1004 1.415 . S
H1006 C1003 0.999 . S
H1007 C988 0.913 . S
H1008 C1026 0.951 . S
H1009 C1028 0.951 . S
H1010 C1030 0.950 . S
H1011 C1031 0.943 1_565 S
H1012 C1033 0.950 . S
H1013 C1036 0.950 1_565 S
H1014 C1037 0.950 . S
H1015 C1039 0.950 . S
H1016 C1040 0.950 . S
H1017 C1041 0.951 . S
H1018 C1043 0.951 . S
H1019 C1045 0.950 . S
H1020 C1046 0.943 1_545 S
H1021 C1048 0.950 . S
H1022 C1051 0.950 1_545 S
H1023 C1052 0.950 . S
H1024 C1054 0.950 . S
H1025 C1055 0.950 . S
C1026 H1008 0.951 . S
C1026 C1027 1.366 . S
C1026 C1028 1.388 . S
C1027 C1026 1.366 . S
C1027 C1031 1.415 . S
C1028 H1009 0.951 . S
C1028 C1026 1.388 . S
C1028 C1029 1.366 . S
C1029 C1028 1.366 . S
C1029 C1030 1.414 1_545 S
C1029 C1032 1.499 . S
C1030 H1010 0.950 . S
C1030 C1029 1.414 1_565 S
C1030 C1031 1.352 1_565 S
C1031 H1011 0.943 1_545 S
C1031 C1027 1.415 . S
C1031 C1030 1.352 1_545 S
C1032 C1029 1.499 . S
C1032 C1033 1.373 1_545 S
C1032 C1034 1.389 . S
C1033 H1012 0.950 . S
C1033 C1032 1.373 1_565 S
C1033 C1049 1.377 . S
C1034 C1032 1.389 . S
C1034 C1035 1.524 . S
C1034 C1048 1.377 . S
C1035 C1034 1.524 . S
C1035 C1036 1.397 . S
C1035 C1040 1.363 . S
C1036 H1013 0.950 1_545 S
C1036 C1035 1.397 . S
C1036 C1037 1.334 . S
C1037 H1014 0.950 . S
C1037 C1036 1.334 . S
C1037 C1038 1.287 . S
C1038 C1037 1.287 . S
C1038 C1039 1.524 . S
C1038 H1057 0.913 . S
C1039 H1015 0.950 . S
C1039 C1038 1.524 . S
C1039 C1040 1.415 . S
C1040 H1016 0.950 . S
C1040 C1035 1.363 . S
C1040 C1039 1.415 . S
C1041 H1017 0.951 . S
C1041 C1042 1.366 . S
C1041 C1043 1.388 . S
C1042 C1041 1.366 . S
C1042 C1046 1.415 . S
C1043 H1018 0.951 . S
C1043 C1041 1.388 . S
C1043 C1044 1.366 . S
C1044 C1043 1.366 . S
C1044 C1045 1.414 1_565 S
C1044 C1047 1.499 . S
C1045 H1019 0.950 . S
C1045 C1044 1.414 1_545 S
C1045 C1046 1.352 1_545 S
C1046 H1020 0.943 1_565 S
C1046 C1042 1.415 . S
C1046 C1045 1.352 1_565 S
C1047 C1044 1.499 . S
C1047 C1048 1.373 1_565 S
C1047 C1049 1.389 . S
C1048 H1021 0.950 . S
C1048 C1034 1.377 . S
C1048 C1047 1.373 1_545 S
C1049 C1033 1.377 . S
C1049 C1047 1.389 . S
C1049 C1050 1.524 . S
C1050 C1049 1.524 . S
C1050 C1051 1.397 . S
C1050 C1055 1.363 . S
C1051 H1022 0.950 1_565 S
C1051 C1050 1.397 . S
C1051 C1052 1.334 . S
C1052 H1023 0.950 . S
C1052 C1051 1.334 . S
C1052 C1053 1.287 . S
C1053 C1052 1.287 . S
C1053 C1054 1.524 . S
C1053 H1056 0.999 . S
C1054 H1024 0.950 . S
C1054 C1053 1.524 . S
C1054 C1055 1.415 . S
C1055 H1025 0.950 . S
C1055 C1050 1.363 . S
C1055 C1054 1.415 . S
H1056 C1053 0.999 . S
H1057 C1038 0.913 . S
H1058 C1076 0.951 . S
H1059 C1078 0.951 . S
H1060 C1080 0.950 . S
H1061 C1081 0.950 . S
H1062 C1083 0.950 . S
H1063 C1086 0.950 . S
H1064 C1087 0.950 . S
H1065 C1089 0.950 . S
H1066 C1090 0.950 . S
H1067 C1091 0.951 . S
H1068 C1093 0.951 . S
H1069 C1095 0.950 . S
H1070 C1096 0.950 . S
H1071 C1098 0.950 . S
H1072 C1101 0.950 . S
H1073 C1102 0.950 . S
H1074 C1104 0.950 . S
H1075 C1105 0.950 . S
C1076 H1058 0.951 . S
C1076 C1077 1.366 . S
C1076 C1078 1.388 . S
C1077 C1076 1.366 . S
C1077 C1081 1.385 . S
C1078 H1059 0.951 . S
C1078 C1076 1.388 . S
C1078 C1079 1.366 . S
C1079 C1078 1.366 . S
C1079 C1080 1.414 . S
C1079 C1082 1.499 . S
C1080 H1060 0.950 . S
C1080 C1079 1.414 . S
C1080 C1081 1.374 . S
C1081 H1061 0.950 . S
C1081 C1077 1.385 . S
C1081 C1080 1.374 . S
C1082 C1079 1.499 . S
C1082 C1083 1.373 . S
C1082 C1084 1.389 . S
C1083 H1062 0.950 . S
C1083 C1082 1.373 . S
C1083 C1099 1.377 . S
C1084 C1082 1.389 . S
C1084 C1085 1.524 . S
C1084 C1098 1.377 . S
C1085 C1084 1.524 . S
C1085 C1086 1.397 . S
C1085 C1090 1.363 . S
C1086 H1063 0.950 . S
C1086 C1085 1.397 . S
C1086 C1087 1.334 . S
C1087 H1064 0.950 . S
C1087 C1086 1.334 . S
C1087 C1088 1.287 . S
C1088 C1087 1.287 . S
C1088 C1089 1.524 . S
C1088 H1107 0.913 . S
C1089 H1065 0.950 . S
C1089 C1088 1.524 . S
C1089 C1090 1.415 . S
C1090 H1066 0.950 . S
C1090 C1085 1.363 . S
C1090 C1089 1.415 . S
C1091 H1067 0.951 . S
C1091 C1092 1.366 . S
C1091 C1093 1.388 . S
C1092 C1091 1.366 . S
C1092 C1096 1.385 . S
C1093 H1068 0.951 . S
C1093 C1091 1.388 . S
C1093 C1094 1.366 . S
C1094 C1093 1.366 . S
C1094 C1095 1.414 . S
C1094 C1097 1.499 . S
C1095 H1069 0.950 . S
C1095 C1094 1.414 . S
C1095 C1096 1.374 . S
C1096 H1070 0.950 . S
C1096 C1092 1.385 . S
C1096 C1095 1.374 . S
C1097 C1094 1.499 . S
C1097 C1098 1.373 . S
C1097 C1099 1.389 . S
C1098 H1071 0.950 . S
C1098 C1084 1.377 . S
C1098 C1097 1.373 . S
C1099 C1083 1.377 . S
C1099 C1097 1.389 . S
C1099 C1100 1.524 . S
C1100 C1099 1.524 . S
C1100 C1101 1.397 . S
C1100 C1105 1.363 . S
C1101 H1072 0.950 . S
C1101 C1100 1.397 . S
C1101 C1102 1.334 . S
C1102 H1073 0.950 . S
C1102 C1101 1.334 . S
C1102 C1103 1.287 . S
C1103 C1102 1.287 . S
C1103 C1104 1.524 . S
C1103 H1106 0.999 . S
C1104 H1074 0.950 . S
C1104 C1103 1.524 . S
C1104 C1105 1.415 . S
C1105 H1075 0.950 . S
C1105 C1100 1.363 . S
C1105 C1104 1.415 . S
H1106 C1103 0.999 . S
H1107 C1088 0.913 . S
H1108 C1126 0.951 1_655 S
H1109 C1128 0.951 . S
H1110 C1130 0.957 . S
H1111 C1131 0.949 1_554 S
H1112 C1133 0.950 . S
H1113 C1136 0.950 . S
H1114 C1137 0.950 . S
H1115 C1139 0.950 . S
H1116 C1140 0.950 . S
H1117 C1141 0.931 1_454 S
H1118 C1143 0.951 1_554 S
H1119 C1145 0.950 . S
H1120 C1146 0.950 . S
H1121 C1148 0.950 . S
H1122 C1151 0.950 . S
H1123 C1152 0.950 . S
H1124 C1154 0.950 . S
H1125 C1155 0.950 . S
C1126 H1108 0.951 1_455 S
C1126 C1127 1.366 . S
C1126 C1128 1.388 1_455 S
C1127 C1126 1.366 . S
C1127 C1131 1.385 . S
C1128 H1109 0.951 . S
C1128 C1126 1.388 1_655 S
C1128 C1129 1.366 1_655 S
C1129 C1128 1.366 1_455 S
C1129 C1130 1.408 1_556 S
C1129 C1132 1.499 . S
C1130 H1110 0.957 . S
C1130 C1129 1.408 1_554 S
C1130 C1131 1.374 1_554 S
C1131 H1111 0.949 1_556 S
C1131 C1127 1.385 . S
C1131 C1130 1.374 1_556 S
C1132 C1129 1.499 . S
C1132 C1133 1.373 . S
C1132 C1134 1.389 1_455 S
C1133 H1112 0.950 . S
C1133 C1132 1.373 . S
C1133 C1149 1.377 . S
C1134 C1132 1.389 1_655 S
C1134 C1135 1.514 1_556 S
C1134 C1148 1.377 . S
C1135 C1134 1.514 1_554 S
C1135 C1136 1.426 . S
C1135 C1140 1.347 1_554 S
C1136 H1113 0.950 . S
C1136 C1135 1.426 . S
C1136 C1137 1.334 . S
C1137 H1114 0.950 . S
C1137 C1136 1.334 . S
C1137 C1138 1.287 . S
C1138 C1137 1.287 . S
C1138 C1139 1.524 1_554 S
C1138 H1157 0.913 . S
C1139 H1115 0.950 . S
C1139 C1138 1.524 1_556 S
C1139 C1140 1.415 . S
C1140 H1116 0.950 . S
C1140 C1135 1.347 1_556 S
C1140 C1139 1.415 . S
C1141 H1117 0.931 1_656 S
C1141 C1142 1.385 . S
C1141 C1143 1.389 1_655 S
C1142 C1141 1.385 . S
C1142 C1146 1.385 . S
C1143 H1118 0.951 1_556 S
C1143 C1141 1.389 1_455 S
C1143 C1144 1.366 1_455 S
C1144 C1143 1.366 1_655 S
C1144 C1145 1.414 . S
C1144 C1147 1.499 . S
C1145 H1119 0.950 . S
C1145 C1144 1.414 . S
C1145 C1146 1.374 . S
C1146 H1120 0.950 . S
C1146 C1142 1.385 . S
C1146 C1145 1.374 . S
C1147 C1144 1.499 . S
C1147 C1148 1.373 . S
C1147 C1149 1.389 1_655 S
C1148 H1121 0.950 . S
C1148 C1134 1.377 . S
C1148 C1147 1.373 . S
C1149 C1133 1.377 . S
C1149 C1147 1.389 1_455 S
C1149 C1150 1.524 . S
C1150 C1149 1.524 . S
C1150 C1151 1.397 . S
C1150 C1155 1.363 . S
C1151 H1122 0.950 . S
C1151 C1150 1.397 . S
C1151 C1152 1.334 . S
C1152 H1123 0.950 . S
C1152 C1151 1.334 . S
C1152 C1153 1.287 . S
C1153 C1152 1.287 . S
C1153 C1154 1.524 . S
C1153 H1156 0.999 . S
C1154 H1124 0.950 . S
C1154 C1153 1.524 . S
C1154 C1155 1.415 . S
C1155 H1125 0.950 . S
C1155 C1150 1.363 . S
C1155 C1154 1.415 . S
H1156 C1153 0.999 . S
H1157 C1138 0.913 . S
H1158 C1176 0.951 . S
H1159 C1178 0.951 1_455 S
H1160 C1180 0.950 . S
H1161 C1181 0.950 . S
H1162 C1183 0.950 . S
H1163 C1186 0.950 . S
H1164 C1187 0.950 . S
H1165 C1189 0.950 . S
H1166 C1190 0.950 . S
H1167 C1191 0.951 . S
H1168 C1193 0.951 1_655 S
H1169 C1195 0.950 . S
H1170 C1196 0.950 . S
H1171 C1198 0.950 . S
H1172 C1201 0.950 . S
H1173 C1202 0.950 . S
H1174 C1204 0.950 . S
H1175 C1205 0.950 . S
C1176 H1158 0.951 . S
C1176 C1177 1.366 . S
C1176 C1178 1.388 . S
C1177 C1176 1.366 . S
C1177 C1181 1.385 . S
C1178 H1159 0.951 1_655 S
C1178 C1176 1.388 . S
C1178 C1179 1.366 . S
C1179 C1178 1.366 . S
C1179 C1180 1.414 . S
C1179 C1182 1.499 . S
C1180 H1160 0.950 . S
C1180 C1179 1.414 . S
C1180 C1181 1.374 . S
C1181 H1161 0.950 . S
C1181 C1177 1.385 . S
C1181 C1180 1.374 . S
C1182 C1179 1.499 . S
C1182 C1183 1.373 1_655 S
C1182 C1184 1.389 . S
C1183 H1162 0.950 . S
C1183 C1182 1.373 1_455 S
C1183 C1199 1.377 . S
C1184 C1182 1.389 . S
C1184 C1185 1.524 . S
C1184 C1198 1.377 . S
C1185 C1184 1.524 . S
C1185 C1186 1.397 . S
C1185 C1190 1.363 . S
C1186 H1163 0.950 . S
C1186 C1185 1.397 . S
C1186 C1187 1.334 . S
C1187 H1164 0.950 . S
C1187 C1186 1.334 . S
C1187 C1188 1.287 . S
C1188 C1187 1.287 . S
C1188 C1189 1.524 . S
C1188 H1207 0.913 . S
C1189 H1165 0.950 . S
C1189 C1188 1.524 . S
C1189 C1190 1.415 . S
C1190 H1166 0.950 . S
C1190 C1185 1.363 . S
C1190 C1189 1.415 . S
C1191 H1167 0.951 . S
C1191 C1192 1.366 . S
C1191 C1193 1.388 . S
C1192 C1191 1.366 . S
C1192 C1196 1.385 . S
C1193 H1168 0.951 1_455 S
C1193 C1191 1.388 . S
C1193 C1194 1.366 . S
C1194 C1193 1.366 . S
C1194 C1195 1.414 . S
C1194 C1197 1.499 . S
C1195 H1169 0.950 . S
C1195 C1194 1.414 . S
C1195 C1196 1.374 . S
C1196 H1170 0.950 . S
C1196 C1192 1.385 . S
C1196 C1195 1.374 . S
C1197 C1194 1.499 . S
C1197 C1198 1.373 1_455 S
C1197 C1199 1.389 . S
C1198 H1171 0.950 . S
C1198 C1184 1.377 . S
C1198 C1197 1.373 1_655 S
C1199 C1183 1.377 . S
C1199 C1197 1.389 . S
C1199 C1200 1.524 . S
C1200 C1199 1.524 . S
C1200 C1201 1.397 . S
C1200 C1205 1.363 . S
C1201 H1172 0.950 . S
C1201 C1200 1.397 . S
C1201 C1202 1.334 . S
C1202 H1173 0.950 . S
C1202 C1201 1.334 . S
C1202 C1203 1.287 . S
C1203 C1202 1.287 . S
C1203 C1204 1.524 . S
C1203 H1206 0.999 . S
C1204 H1174 0.950 . S
C1204 C1203 1.524 . S
C1204 C1205 1.415 . S
C1205 H1175 0.950 . S
C1205 C1200 1.363 . S
C1205 C1204 1.415 . S
H1206 C1203 0.999 . S
H1207 C1188 0.913 . S
H1208 C1226 0.951 . S
H1209 C1228 0.951 . S
H1210 C1230 0.950 . S
H1211 C1231 0.950 1_565 S
H1212 C1233 0.950 . S
H1213 C1236 0.950 1_565 S
H1214 C1237 0.950 1_565 S
H1215 C1239 0.950 . S
H1216 C1240 0.950 . S
H1217 C1241 0.951 . S
H1218 C1243 0.951 . S
H1219 C1245 0.950 . S
H1220 C1246 0.950 1_545 S
H1221 C1248 0.950 . S
H1222 C1251 0.950 1_545 S
H1223 C1252 0.950 1_545 S
H1224 C1254 0.950 . S
H1225 C1255 0.950 . S
C1226 H1208 0.951 . S
C1226 C1227 1.366 . S
C1226 C1228 1.388 . S
C1227 C1226 1.366 . S
C1227 C1231 1.385 . S
C1228 H1209 0.951 . S
C1228 C1226 1.388 . S
C1228 C1229 1.366 . S
C1229 C1228 1.366 . S
C1229 C1230 1.414 1_545 S
C1229 C1232 1.499 . S
C1230 H1210 0.950 . S
C1230 C1229 1.414 1_565 S
C1230 C1231 1.374 1_565 S
C1231 H1211 0.950 1_545 S
C1231 C1227 1.385 . S
C1231 C1230 1.374 1_545 S
C1232 C1229 1.499 . S
C1232 C1233 1.373 1_545 S
C1232 C1234 1.389 . S
C1233 H1212 0.950 . S
C1233 C1232 1.373 1_565 S
C1233 C1249 1.377 . S
C1234 C1232 1.389 . S
C1234 C1235 1.524 . S
C1234 C1248 1.377 . S
C1235 C1234 1.524 . S
C1235 C1236 1.397 . S
C1235 C1240 1.363 . S
C1236 H1213 0.950 1_545 S
C1236 C1235 1.397 . S
C1236 C1237 1.334 . S
C1237 H1214 0.950 1_545 S
C1237 C1236 1.334 . S
C1237 C1238 1.287 . S
C1238 C1237 1.287 . S
C1238 C1239 1.524 . S
C1238 H1257 0.913 . S
C1239 H1215 0.950 . S
C1239 C1238 1.524 . S
C1239 C1240 1.415 . S
C1240 H1216 0.950 . S
C1240 C1235 1.363 . S
C1240 C1239 1.415 . S
C1241 H1217 0.951 . S
C1241 C1242 1.366 . S
C1241 C1243 1.388 . S
C1242 C1241 1.366 . S
C1242 C1246 1.385 . S
C1243 H1218 0.951 . S
C1243 C1241 1.388 . S
C1243 C1244 1.366 . S
C1244 C1243 1.366 . S
C1244 C1245 1.414 1_565 S
C1244 C1247 1.499 . S
C1245 H1219 0.950 . S
C1245 C1244 1.414 1_545 S
C1245 C1246 1.374 1_545 S
C1246 H1220 0.950 1_565 S
C1246 C1242 1.385 . S
C1246 C1245 1.374 1_565 S
C1247 C1244 1.499 . S
C1247 C1248 1.373 1_565 S
C1247 C1249 1.389 . S
C1248 H1221 0.950 . S
C1248 C1234 1.377 . S
C1248 C1247 1.373 1_545 S
C1249 C1233 1.377 . S
C1249 C1247 1.389 . S
C1249 C1250 1.524 . S
C1250 C1249 1.524 . S
C1250 C1251 1.397 . S
C1250 C1255 1.363 . S
C1251 H1222 0.950 1_565 S
C1251 C1250 1.397 . S
C1251 C1252 1.334 . S
C1252 H1223 0.950 1_565 S
C1252 C1251 1.334 . S
C1252 C1253 1.287 . S
C1253 C1252 1.287 . S
C1253 C1254 1.524 . S
C1253 H1256 0.999 . S
C1254 H1224 0.950 . S
C1254 C1253 1.524 . S
C1254 C1255 1.415 . S
C1255 H1225 0.950 . S
C1255 C1250 1.363 . S
C1255 C1254 1.415 . S
H1256 C1253 0.999 . S
H1257 C1238 0.913 . S
H1258 C1276 0.951 . S
H1259 C1278 0.951 . S
H1260 C1280 0.950 1_556 S
H1261 C1281 0.950 1_556 S
H1262 C1283 0.950 . S
H1263 C1286 0.950 1_556 S
H1264 C1287 0.916 1_556 S
H1265 C1289 0.950 . S
H1266 C1290 0.950 . S
H1267 C1291 0.951 1_556 S
H1268 C1293 0.951 1_556 S
H1269 C1295 0.950 . S
H1270 C1296 0.950 . S
H1271 C1298 0.950 . S
H1272 C1301 0.950 . S
H1273 C1302 0.950 . S
H1274 C1304 0.950 1_556 S
H1275 C1305 0.950 1_556 S
C1276 H1258 0.951 . S
C1276 C1277 1.366 . S
C1276 C1278 1.388 . S
C1277 C1276 1.366 . S
C1277 C1281 1.385 . S
C1278 H1259 0.951 . S
C1278 C1276 1.388 . S
C1278 C1279 1.366 . S
C1279 C1278 1.366 . S
C1279 C1280 1.414 . S
C1279 C1282 1.499 . S
C1280 H1260 0.950 1_554 S
C1280 C1279 1.414 . S
C1280 C1281 1.374 . S
C1281 H1261 0.950 1_554 S
C1281 C1277 1.385 . S
C1281 C1280 1.374 . S
C1282 C1279 1.499 . S
C1282 C1283 1.373 . S
C1282 C1284 1.389 . S
C1283 H1262 0.950 . S
C1283 C1282 1.373 . S
C1283 C1299 1.377 . S
C1284 C1282 1.389 . S
C1284 C1285 1.524 . S
C1284 C1298 1.377 . S
C1285 C1284 1.524 . S
C1285 C1286 1.397 . S
C1285 C1290 1.363 . S
C1286 H1263 0.950 1_554 S
C1286 C1285 1.397 . S
C1286 C1287 1.340 . S
C1287 H1264 0.916 1_554 S
C1287 C1286 1.340 . S
C1287 C1288 1.317 . S
C1288 C1287 1.317 . S
C1288 C1289 1.524 . S
C1288 H1307 0.913 . S
C1289 H1265 0.950 . S
C1289 C1288 1.524 . S
C1289 C1290 1.415 . S
C1290 H1266 0.950 . S
C1290 C1285 1.363 . S
C1290 C1289 1.415 . S
C1291 H1267 0.951 1_554 S
C1291 C1292 1.366 . S
C1291 C1293 1.388 . S
C1292 C1291 1.366 . S
C1292 C1296 1.385 . S
C1293 H1268 0.951 1_554 S
C1293 C1291 1.388 . S
C1293 C1294 1.366 . S
C1294 C1293 1.366 . S
C1294 C1295 1.414 . S
C1294 C1297 1.499 . S
C1295 H1269 0.950 . S
C1295 C1294 1.414 . S
C1295 C1296 1.374 . S
C1296 H1270 0.950 . S
C1296 C1292 1.385 . S
C1296 C1295 1.374 . S
C1297 C1294 1.499 . S
C1297 C1298 1.373 . S
C1297 C1299 1.389 . S
C1298 H1271 0.950 . S
C1298 C1284 1.377 . S
C1298 C1297 1.373 . S
C1299 C1283 1.377 . S
C1299 C1297 1.389 . S
C1299 C1300 1.524 . S
C1300 C1299 1.524 . S
C1300 C1301 1.397 . S
C1300 C1305 1.363 . S
C1301 H1272 0.950 . S
C1301 C1300 1.397 . S
C1301 C1302 1.334 . S
C1302 H1273 0.950 . S
C1302 C1301 1.334 . S
C1302 C1303 1.287 . S
C1303 C1302 1.287 . S
C1303 C1304 1.524 . S
C1303 H1306 0.999 . S
C1304 H1274 0.950 1_554 S
C1304 C1303 1.524 . S
C1304 C1305 1.415 . S
C1305 H1275 0.950 1_554 S
C1305 C1300 1.363 . S
C1305 C1304 1.415 . S
H1306 C1303 0.999 . S
H1307 C1288 0.913 . S
H1308 C1326 0.951 . S
H1309 C1328 0.951 . S
H1310 C1330 0.950 . S
H1311 C1331 0.950 . S
H1312 C1333 0.950 . S
H1313 C1336 0.950 . S
H1314 C1337 0.950 . S
H1315 C1339 0.950 . S
H1316 C1340 0.950 . S
H1317 C1341 0.951 . S
H1318 C1343 0.951 . S
H1319 C1345 0.950 . S
H1320 C1346 0.950 . S
H1321 C1348 0.950 . S
H1322 C1351 0.950 . S
H1323 C1352 0.950 . S
H1324 C1354 0.950 . S
H1325 C1355 0.950 . S
C1326 H1308 0.951 . S
C1326 C1327 1.366 . S
C1326 C1328 1.388 . S
C1327 C1326 1.366 . S
C1327 C1331 1.385 . S
C1328 H1309 0.951 . S
C1328 C1326 1.388 . S
C1328 C1329 1.366 . S
C1329 C1328 1.366 . S
C1329 C1330 1.414 . S
C1329 C1332 1.499 . S
C1330 H1310 0.950 . S
C1330 C1329 1.414 . S
C1330 C1331 1.374 . S
C1331 H1311 0.950 . S
C1331 C1327 1.385 . S
C1331 C1330 1.374 . S
C1332 C1329 1.499 . S
C1332 C1333 1.373 . S
C1332 C1334 1.389 . S
C1333 H1312 0.950 . S
C1333 C1332 1.373 . S
C1333 C1349 1.377 . S
C1334 C1332 1.389 . S
C1334 C1335 1.524 . S
C1334 C1348 1.377 . S
C1335 C1334 1.524 . S
C1335 C1336 1.397 . S
C1335 C1340 1.363 . S
C1336 H1313 0.950 . S
C1336 C1335 1.397 . S
C1336 C1337 1.334 . S
C1337 H1314 0.950 . S
C1337 C1336 1.334 . S
C1337 C1338 1.287 . S
C1338 C1337 1.287 . S
C1338 C1339 1.524 . S
C1338 H1357 0.913 . S
C1339 H1315 0.950 . S
C1339 C1338 1.524 . S
C1339 C1340 1.415 . S
C1340 H1316 0.950 . S
C1340 C1335 1.363 . S
C1340 C1339 1.415 . S
C1341 H1317 0.951 . S
C1341 C1342 1.366 . S
C1341 C1343 1.388 . S
C1342 C1341 1.366 . S
C1342 C1346 1.385 . S
C1343 H1318 0.951 . S
C1343 C1341 1.388 . S
C1343 C1344 1.366 . S
C1344 C1343 1.366 . S
C1344 C1345 1.414 . S
C1344 C1347 1.499 . S
C1345 H1319 0.950 . S
C1345 C1344 1.414 . S
C1345 C1346 1.374 . S
C1346 H1320 0.950 . S
C1346 C1342 1.385 . S
C1346 C1345 1.374 . S
C1347 C1344 1.499 . S
C1347 C1348 1.373 . S
C1347 C1349 1.389 . S
C1348 H1321 0.950 . S
C1348 C1334 1.377 . S
C1348 C1347 1.373 . S
C1349 C1333 1.377 . S
C1349 C1347 1.389 . S
C1349 C1350 1.524 . S
C1350 C1349 1.524 . S
C1350 C1351 1.397 . S
C1350 C1355 1.363 . S
C1351 H1322 0.950 . S
C1351 C1350 1.397 . S
C1351 C1352 1.334 . S
C1352 H1323 0.950 . S
C1352 C1351 1.334 . S
C1352 C1353 1.287 . S
C1353 C1352 1.287 . S
C1353 C1354 1.524 . S
C1353 H1356 0.999 . S
C1354 H1324 0.950 . S
C1354 C1353 1.524 . S
C1354 C1355 1.415 . S
C1355 H1325 0.950 . S
C1355 C1350 1.363 . S
C1355 C1354 1.415 . S
H1356 C1353 0.999 . S
H1357 C1338 0.913 . S
H1358 C1376 0.951 . S
H1359 C1378 0.951 . S
H1360 C1380 0.950 . S
H1361 C1381 0.950 . S
H1362 C1383 0.950 . S
H1363 C1386 0.950 . S
H1364 C1387 0.950 . S
H1365 C1389 0.950 . S
H1366 C1390 0.950 . S
H1367 C1391 0.951 . S
H1368 C1393 0.951 . S
H1369 C1395 0.950 . S
H1370 C1396 0.950 . S
H1371 C1398 0.950 . S
H1372 C1401 0.950 . S
H1373 C1402 0.950 . S
H1374 C1404 0.950 . S
H1375 C1405 0.950 . S
C1376 H1358 0.951 . S
C1376 C1377 1.366 . S
C1376 C1378 1.388 . S
C1377 C1376 1.366 . S
C1377 C1381 1.385 . S
C1378 H1359 0.951 . S
C1378 C1376 1.388 . S
C1378 C1379 1.366 . S
C1379 C1378 1.366 . S
C1379 C1380 1.414 . S
C1379 C1382 1.499 . S
C1380 H1360 0.950 . S
C1380 C1379 1.414 . S
C1380 C1381 1.374 . S
C1381 H1361 0.950 . S
C1381 C1377 1.385 . S
C1381 C1380 1.374 . S
C1382 C1379 1.499 . S
C1382 C1383 1.373 . S
C1382 C1384 1.389 . S
C1383 H1362 0.950 . S
C1383 C1382 1.373 . S
C1383 C1399 1.377 . S
C1384 C1382 1.389 . S
C1384 C1385 1.524 . S
C1384 C1398 1.377 . S
C1385 C1384 1.524 . S
C1385 C1386 1.397 . S
C1385 C1390 1.363 . S
C1386 H1363 0.950 . S
C1386 C1385 1.397 . S
C1386 C1387 1.334 . S
C1387 H1364 0.950 . S
C1387 C1386 1.334 . S
C1387 C1388 1.287 . S
C1388 C1387 1.287 . S
C1388 C1389 1.524 . S
C1388 H1407 0.913 . S
C1389 H1365 0.950 . S
C1389 C1388 1.524 . S
C1389 C1390 1.415 . S
C1390 H1366 0.950 . S
C1390 C1385 1.363 . S
C1390 C1389 1.415 . S
C1391 H1367 0.951 . S
C1391 C1392 1.366 . S
C1391 C1393 1.388 . S
C1392 C1391 1.366 . S
C1392 C1396 1.385 . S
C1393 H1368 0.951 . S
C1393 C1391 1.388 . S
C1393 C1394 1.366 . S
C1394 C1393 1.366 . S
C1394 C1395 1.414 . S
C1394 C1397 1.499 . S
C1395 H1369 0.950 . S
C1395 C1394 1.414 . S
C1395 C1396 1.374 . S
C1396 H1370 0.950 . S
C1396 C1392 1.385 . S
C1396 C1395 1.374 . S
C1397 C1394 1.499 . S
C1397 C1398 1.373 . S
C1397 C1399 1.389 . S
C1398 H1371 0.950 . S
C1398 C1384 1.377 . S
C1398 C1397 1.373 . S
C1399 C1383 1.377 . S
C1399 C1397 1.389 . S
C1399 C1400 1.524 . S
C1400 C1399 1.524 . S
C1400 C1401 1.397 . S
C1400 C1405 1.363 . S
C1401 H1372 0.950 . S
C1401 C1400 1.397 . S
C1401 C1402 1.334 . S
C1402 H1373 0.950 . S
C1402 C1401 1.334 . S
C1402 C1403 1.287 . S
C1403 C1402 1.287 . S
C1403 C1404 1.524 . S
C1403 H1406 0.999 . S
C1404 H1374 0.950 . S
C1404 C1403 1.524 . S
C1404 C1405 1.415 . S
C1405 H1375 0.950 . S
C1405 C1400 1.363 . S
C1405 C1404 1.415 . S
H1406 C1403 0.999 . S
H1407 C1388 0.913 . S
H1408 C1426 0.951 . S
H1409 C1428 0.951 . S
H1410 C1430 0.950 . S
H1411 C1431 0.950 . S
H1412 C1433 0.950 . S
H1413 C1436 0.950 . S
H1414 C1437 0.950 . S
H1415 C1439 0.950 . S
H1416 C1440 0.950 . S
H1417 C1441 0.951 . S
H1418 C1443 0.951 . S
H1419 C1445 0.950 . S
H1420 C1446 0.950 . S
H1421 C1448 0.950 . S
H1422 C1451 0.950 . S
H1423 C1452 0.950 . S
H1424 C1454 0.950 . S
H1425 C1455 0.950 . S
C1426 H1408 0.951 . S
C1426 C1427 1.366 . S
C1426 C1428 1.388 . S
C1427 C1426 1.366 . S
C1427 C1431 1.385 1_554 S
C1428 H1409 0.951 . S
C1428 C1426 1.388 . S
C1428 C1429 1.366 . S
C1429 C1428 1.366 . S
C1429 C1430 1.414 1_554 S
C1429 C1432 1.499 . S
C1430 H1410 0.950 . S
C1430 C1429 1.414 1_556 S
C1430 C1431 1.374 . S
C1431 H1411 0.950 . S
C1431 C1427 1.385 1_556 S
C1431 C1430 1.374 . S
C1432 C1429 1.499 . S
C1432 C1433 1.373 . S
C1432 C1434 1.389 . S
C1433 H1412 0.950 . S
C1433 C1432 1.373 . S
C1433 C1449 1.377 . S
C1434 C1432 1.389 . S
C1434 C1435 1.524 . S
C1434 C1448 1.377 . S
C1435 C1434 1.524 . S
C1435 C1436 1.397 1_554 S
C1435 C1440 1.363 . S
C1436 H1413 0.950 . S
C1436 C1435 1.397 1_556 S
C1436 C1437 1.334 . S
C1437 H1414 0.950 . S
C1437 C1436 1.334 . S
C1437 C1438 1.287 1_556 S
C1438 C1437 1.287 1_554 S
C1438 C1439 1.524 . S
C1438 H1457 0.913 . S
C1439 H1415 0.950 . S
C1439 C1438 1.524 . S
C1439 C1440 1.415 . S
C1440 H1416 0.950 . S
C1440 C1435 1.363 . S
C1440 C1439 1.415 . S
C1441 H1417 0.951 . S
C1441 C1442 1.366 . S
C1441 C1443 1.388 . S
C1442 C1441 1.366 . S
C1442 C1446 1.385 1_556 S
C1443 H1418 0.951 . S
C1443 C1441 1.388 . S
C1443 C1444 1.365 . S
C1444 C1443 1.365 . S
C1444 C1445 1.414 1_556 S
C1444 C1447 1.499 1_556 S
C1445 H1419 0.950 . S
C1445 C1444 1.414 1_554 S
C1445 C1446 1.374 . S
C1446 H1420 0.950 . S
C1446 C1442 1.385 1_554 S
C1446 C1445 1.374 . S
C1447 C1444 1.499 1_554 S
C1447 C1448 1.373 . S
C1447 C1449 1.389 . S
C1448 H1421 0.950 . S
C1448 C1434 1.377 . S
C1448 C1447 1.373 . S
C1449 C1433 1.377 . S
C1449 C1447 1.389 . S
C1449 C1450 1.524 . S
C1450 C1449 1.524 . S
C1450 C1451 1.397 . S
C1450 C1455 1.363 1_554 S
C1451 H1422 0.950 . S
C1451 C1450 1.397 . S
C1451 C1452 1.334 . S
C1452 H1423 0.950 . S
C1452 C1451 1.334 . S
C1452 C1453 1.287 . S
C1453 C1452 1.287 . S
C1453 C1454 1.524 1_554 S
C1453 H1456 0.999 . S
C1454 H1424 0.950 . S
C1454 C1453 1.524 1_556 S
C1454 C1455 1.415 . S
C1455 H1425 0.950 . S
C1455 C1450 1.363 1_556 S
C1455 C1454 1.415 . S
H1456 C1453 0.999 . S
H1457 C1438 0.913 . S
H1458 C1476 0.951 . S
H1459 C1478 0.951 . S
H1460 C1480 0.950 . S
H1461 C1481 0.950 . S
H1462 C1483 0.950 . S
H1463 C1486 0.950 . S
H1464 C1487 0.950 . S
H1465 C1489 0.950 . S
H1466 C1490 0.950 . S
H1467 C1491 0.951 . S
H1468 C1493 0.951 . S
H1469 C1495 0.950 . S
H1470 C1496 0.950 . S
H1471 C1498 0.950 . S
H1472 C1501 0.950 . S
H1473 C1502 0.950 . S
H1474 C1504 0.950 . S
H1475 C1505 0.950 . S
C1476 H1458 0.951 . S
C1476 C1477 1.366 . S
C1476 C1478 1.388 . S
C1477 C1476 1.366 . S
C1477 C1481 1.385 . S
C1478 H1459 0.951 . S
C1478 C1476 1.388 . S
C1478 C1479 1.366 . S
C1479 C1478 1.366 . S
C1479 C1480 1.414 . S
C1479 C1482 1.499 . S
C1480 H1460 0.950 . S
C1480 C1479 1.414 . S
C1480 C1481 1.374 . S
C1481 H1461 0.950 . S
C1481 C1477 1.385 . S
C1481 C1480 1.374 . S
C1482 C1479 1.499 . S
C1482 C1483 1.373 . S
C1482 C1484 1.389 . S
C1483 H1462 0.950 . S
C1483 C1482 1.373 . S
C1483 C1499 1.377 . S
C1484 C1482 1.389 . S
C1484 C1485 1.524 . S
C1484 C1498 1.377 . S
C1485 C1484 1.524 . S
C1485 C1486 1.397 . S
C1485 C1490 1.363 . S
C1486 H1463 0.950 . S
C1486 C1485 1.397 . S
C1486 C1487 1.334 . S
C1487 H1464 0.950 . S
C1487 C1486 1.334 . S
C1487 C1488 1.287 . S
C1488 C1487 1.287 . S
C1488 C1489 1.524 . S
C1488 H1507 0.913 . S
C1489 H1465 0.950 . S
C1489 C1488 1.524 . S
C1489 C1490 1.415 . S
C1490 H1466 0.950 . S
C1490 C1485 1.363 . S
C1490 C1489 1.415 . S
C1491 H1467 0.951 . S
C1491 C1492 1.366 . S
C1491 C1493 1.388 . S
C1492 C1491 1.366 . S
C1492 C1496 1.385 . S
C1493 H1468 0.951 . S
C1493 C1491 1.388 . S
C1493 C1494 1.366 . S
C1494 C1493 1.366 . S
C1494 C1495 1.414 . S
C1494 C1497 1.499 . S
C1495 H1469 0.950 . S
C1495 C1494 1.414 . S
C1495 C1496 1.374 . S
C1496 H1470 0.950 . S
C1496 C1492 1.385 . S
C1496 C1495 1.374 . S
C1497 C1494 1.499 . S
C1497 C1498 1.373 . S
C1497 C1499 1.389 . S
C1498 H1471 0.950 . S
C1498 C1484 1.377 . S
C1498 C1497 1.373 . S
C1499 C1483 1.377 . S
C1499 C1497 1.389 . S
C1499 C1500 1.524 . S
C1500 C1499 1.524 . S
C1500 C1501 1.397 . S
C1500 C1505 1.363 . S
C1501 H1472 0.950 . S
C1501 C1500 1.397 . S
C1501 C1502 1.334 . S
C1502 H1473 0.950 . S
C1502 C1501 1.334 . S
C1502 C1503 1.287 . S
C1503 C1502 1.287 . S
C1503 C1504 1.524 . S
C1503 H1506 0.999 . S
C1504 H1474 0.950 . S
C1504 C1503 1.524 . S
C1504 C1505 1.415 . S
C1505 H1475 0.950 . S
C1505 C1500 1.363 . S
C1505 C1504 1.415 . S
H1506 C1503 0.999 . S
H1507 C1488 0.913 . S
H1508 C1526 0.951 . S
H1509 C1528 0.951 . S
H1510 C1530 0.950 . S
H1511 C1531 0.950 . S
H1512 C1533 0.950 . S
H1513 C1536 0.950 . S
H1514 C1537 0.950 . S
H1515 C1539 0.950 . S
H1516 C1540 0.950 . S
H1517 C1541 0.951 . S
H1518 C1543 0.951 . S
H1519 C1545 0.950 . S
H1520 C1546 0.950 . S
H1521 C1548 0.950 . S
H1522 C1551 0.950 . S
H1523 C1552 0.950 . S
H1524 C1554 0.950 . S
H1525 C1555 0.950 . S
C1526 H1508 0.951 . S
C1526 C1527 1.366 . S
C1526 C1528 1.388 . S
C1527 C1526 1.366 . S
C1527 C1531 1.385 . S
C1528 H1509 0.951 . S
C1528 C1526 1.388 . S
C1528 C1529 1.366 . S
C1529 C1528 1.366 . S
C1529 C1530 1.414 . S
C1529 C1532 1.499 . S
C1530 H1510 0.950 . S
C1530 C1529 1.414 . S
C1530 C1531 1.374 . S
C1531 H1511 0.950 . S
C1531 C1527 1.385 . S
C1531 C1530 1.374 . S
C1532 C1529 1.499 . S
C1532 C1533 1.373 . S
C1532 C1534 1.389 . S
C1533 H1512 0.950 . S
C1533 C1532 1.373 . S
C1533 C1549 1.377 . S
C1534 C1532 1.389 . S
C1534 C1535 1.524 . S
C1534 C1548 1.377 . S
C1535 C1534 1.524 . S
C1535 C1536 1.397 . S
C1535 C1540 1.363 . S
C1536 H1513 0.950 . S
C1536 C1535 1.397 . S
C1536 C1537 1.334 . S
C1537 H1514 0.950 . S
C1537 C1536 1.334 . S
C1537 C1538 1.287 . S
C1538 C1537 1.287 . S
C1538 C1539 1.524 . S
C1538 H1557 0.913 . S
C1539 H1515 0.950 . S
C1539 C1538 1.524 . S
C1539 C1540 1.415 . S
C1540 H1516 0.950 . S
C1540 C1535 1.363 . S
C1540 C1539 1.415 . S
C1541 H1517 0.951 . S
C1541 C1542 1.366 . S
C1541 C1543 1.388 . S
C1542 C1541 1.366 . S
C1542 C1546 1.385 . S
C1543 H1518 0.951 . S
C1543 C1541 1.388 . S
C1543 C1544 1.366 . S
C1544 C1543 1.366 . S
C1544 C1545 1.414 . S
C1544 C1547 1.499 . S
C1545 H1519 0.950 . S
C1545 C1544 1.414 . S
C1545 C1546 1.374 . S
C1546 H1520 0.950 . S
C1546 C1542 1.385 . S
C1546 C1545 1.374 . S
C1547 C1544 1.499 . S
C1547 C1548 1.373 . S
C1547 C1549 1.389 . S
C1548 H1521 0.950 . S
C1548 C1534 1.377 . S
C1548 C1547 1.373 . S
C1549 C1533 1.377 . S
C1549 C1547 1.389 . S
C1549 C1550 1.524 . S
C1550 C1549 1.524 . S
C1550 C1551 1.397 . S
C1550 C1555 1.363 . S
C1551 H1522 0.950 . S
C1551 C1550 1.397 . S
C1551 C1552 1.334 . S
C1552 H1523 0.950 . S
C1552 C1551 1.334 . S
C1552 C1553 1.287 . S
C1553 C1552 1.287 . S
C1553 C1554 1.524 . S
C1553 H1556 0.999 . S
C1554 H1524 0.950 . S
C1554 C1553 1.524 . S
C1554 C1555 1.415 . S
C1555 H1525 0.950 . S
C1555 C1550 1.363 . S
C1555 C1554 1.415 . S
H1556 C1553 0.999 . S
H1557 C1538 0.913 . S
H1558 C1576 0.951 . S
H1559 C1578 0.951 . S
H1560 C1580 0.950 . S
H1561 C1581 0.950 . S
H1562 C1583 0.950 . S
H1563 C1586 0.950 1_554 S
H1564 C1587 0.950 . S
H1565 C1589 0.950 . S
H1566 C1590 0.950 . S
H1567 C1591 0.951 . S
H1568 C1593 0.951 . S
H1569 C1595 0.950 . S
H1570 C1596 0.950 . S
H1571 C1598 0.950 . S
H1572 C1601 0.950 . S
H1573 C1602 0.950 . S
H1574 C1604 0.950 . S
H1575 C1605 0.950 . S
C1576 H1558 0.951 . S
C1576 C1577 1.366 1_556 S
C1576 C1578 1.388 . S
C1577 C1576 1.366 1_554 S
C1577 C1581 1.385 . S
C1578 H1559 0.951 . S
C1578 C1576 1.388 . S
C1578 C1579 1.366 1_556 S
C1579 C1578 1.366 1_554 S
C1579 C1580 1.414 . S
C1579 C1582 1.499 . S
C1580 H1560 0.950 . S
C1580 C1579 1.414 . S
C1580 C1581 1.374 . S
C1581 H1561 0.950 . S
C1581 C1577 1.385 . S
C1581 C1580 1.374 . S
C1582 C1579 1.499 . S
C1582 C1583 1.373 . S
C1582 C1584 1.389 1_554 S
C1583 H1562 0.950 . S
C1583 C1582 1.373 . S
C1583 C1599 1.377 . S
C1584 C1582 1.389 1_556 S
C1584 C1585 1.524 . S
C1584 C1598 1.377 . S
C1585 C1584 1.524 . S
C1585 C1586 1.397 . S
C1585 C1590 1.363 . S
C1586 H1563 0.950 1_556 S
C1586 C1585 1.397 . S
C1586 C1587 1.334 . S
C1587 H1564 0.950 . S
C1587 C1586 1.334 . S
C1587 C1588 1.287 . S
C1588 C1587 1.287 . S
C1588 C1589 1.524 . S
C1588 H1607 0.913 . S
C1589 H1565 0.950 . S
C1589 C1588 1.524 . S
C1589 C1590 1.415 . S
C1590 H1566 0.950 . S
C1590 C1585 1.363 . S
C1590 C1589 1.415 . S
C1591 H1567 0.951 . S
C1591 C1592 1.366 1_554 S
C1591 C1593 1.388 . S
C1592 C1591 1.366 1_556 S
C1592 C1596 1.385 . S
C1593 H1568 0.951 . S
C1593 C1591 1.388 . S
C1593 C1594 1.339 1_554 S
C1594 C1593 1.339 1_556 S
C1594 C1595 1.445 . S
C1594 C1597 1.496 1_556 S
C1595 H1569 0.950 . S
C1595 C1594 1.445 . S
C1595 C1596 1.374 . S
C1596 H1570 0.950 . S
C1596 C1592 1.385 . S
C1596 C1595 1.374 . S
C1597 C1594 1.496 1_554 S
C1597 C1598 1.373 1_554 S
C1597 C1599 1.389 . S
C1598 H1571 0.950 . S
C1598 C1584 1.377 . S
C1598 C1597 1.373 1_556 S
C1599 C1583 1.377 . S
C1599 C1597 1.389 . S
C1599 C1600 1.524 . S
C1600 C1599 1.524 . S
C1600 C1601 1.397 . S
C1600 C1605 1.363 . S
C1601 H1572 0.950 . S
C1601 C1600 1.397 . S
C1601 C1602 1.334 . S
C1602 H1573 0.950 . S
C1602 C1601 1.334 . S
C1602 C1603 1.287 . S
C1603 C1602 1.287 . S
C1603 C1604 1.524 . S
C1603 H1606 0.999 . S
C1604 H1574 0.950 . S
C1604 C1603 1.524 . S
C1604 C1605 1.415 . S
C1605 H1575 0.950 . S
C1605 C1600 1.363 . S
C1605 C1604 1.415 . S
H1606 C1603 0.999 . S
H1607 C1588 0.913 . S
H1608 C1626 0.951 . S
H1609 C1628 0.951 . S
H1610 C1630 0.950 . S
H1611 C1631 0.950 . S
H1612 C1633 0.950 . S
H1613 C1636 0.950 . S
H1614 C1637 0.950 . S
H1615 C1639 0.950 . S
H1616 C1640 0.950 . S
H1617 C1641 0.951 . S
H1618 C1643 0.951 . S
H1619 C1645 0.950 . S
H1620 C1646 0.950 . S
H1621 C1648 0.950 . S
H1622 C1651 0.950 . S
H1623 C1652 0.950 . S
H1624 C1654 0.950 . S
H1625 C1655 0.950 . S
C1626 H1608 0.951 . S
C1626 C1627 1.366 . S
C1626 C1628 1.388 . S
C1627 C1626 1.366 . S
C1627 C1631 1.385 1_545 S
C1628 H1609 0.951 . S
C1628 C1626 1.388 . S
C1628 C1629 1.366 . S
C1629 C1628 1.366 . S
C1629 C1630 1.414 1_545 S
C1629 C1632 1.499 . S
C1630 H1610 0.950 . S
C1630 C1629 1.414 1_565 S
C1630 C1631 1.374 . S
C1631 H1611 0.950 . S
C1631 C1627 1.385 1_565 S
C1631 C1630 1.374 . S
C1632 C1629 1.499 . S
C1632 C1633 1.373 1_545 S
C1632 C1634 1.389 . S
C1633 H1612 0.950 . S
C1633 C1632 1.373 1_565 S
C1633 C1649 1.377 . S
C1634 C1632 1.389 . S
C1634 C1635 1.524 . S
C1634 C1648 1.377 . S
C1635 C1634 1.524 . S
C1635 C1636 1.397 . S
C1635 C1640 1.363 . S
C1636 H1613 0.950 . S
C1636 C1635 1.397 . S
C1636 C1637 1.334 . S
C1637 H1614 0.950 . S
C1637 C1636 1.334 . S
C1637 C1638 1.287 . S
C1638 C1637 1.287 . S
C1638 C1639 1.524 . S
C1638 H1657 0.913 . S
C1639 H1615 0.950 . S
C1639 C1638 1.524 . S
C1639 C1640 1.415 . S
C1640 H1616 0.950 . S
C1640 C1635 1.363 . S
C1640 C1639 1.415 . S
C1641 H1617 0.951 . S
C1641 C1642 1.366 . S
C1641 C1643 1.388 . S
C1642 C1641 1.366 . S
C1642 C1646 1.385 1_565 S
C1643 H1618 0.951 . S
C1643 C1641 1.388 . S
C1643 C1644 1.366 . S
C1644 C1643 1.366 . S
C1644 C1645 1.414 1_565 S
C1644 C1647 1.499 . S
C1645 H1619 0.950 . S
C1645 C1644 1.414 1_545 S
C1645 C1646 1.374 . S
C1646 H1620 0.950 . S
C1646 C1642 1.385 1_545 S
C1646 C1645 1.374 . S
C1647 C1644 1.499 . S
C1647 C1648 1.373 1_565 S
C1647 C1649 1.389 . S
C1648 H1621 0.950 . S
C1648 C1634 1.377 . S
C1648 C1647 1.373 1_545 S
C1649 C1633 1.377 . S
C1649 C1647 1.389 . S
C1649 C1650 1.524 . S
C1650 C1649 1.524 . S
C1650 C1651 1.397 . S
C1650 C1655 1.363 . S
C1651 H1622 0.950 . S
C1651 C1650 1.397 . S
C1651 C1652 1.334 . S
C1652 H1623 0.950 . S
C1652 C1651 1.334 . S
C1652 C1653 1.287 . S
C1653 C1652 1.287 . S
C1653 C1654 1.524 . S
C1653 H1656 0.999 . S
C1654 H1624 0.950 . S
C1654 C1653 1.524 . S
C1654 C1655 1.415 . S
C1655 H1625 0.950 . S
C1655 C1650 1.363 . S
C1655 C1654 1.415 . S
H1656 C1653 0.999 . S
H1657 C1638 0.913 . S
H1658 C1676 0.951 . S
H1659 C1678 0.951 . S
H1660 C1680 0.950 . S
H1661 C1681 0.950 . S
H1662 C1683 0.950 . S
H1663 C1686 0.950 . S
H1664 C1687 0.950 . S
H1665 C1689 0.950 . S
H1666 C1690 0.950 . S
H1667 C1691 0.951 . S
H1668 C1693 0.951 . S
H1669 C1695 0.950 . S
H1670 C1696 0.950 . S
H1671 C1698 0.950 . S
H1672 C1701 0.950 . S
H1673 C1702 0.950 . S
H1674 C1704 0.950 . S
H1675 C1705 0.950 . S
C1676 H1658 0.951 . S
C1676 C1677 1.366 . S
C1676 C1678 1.388 . S
C1677 C1676 1.366 . S
C1677 C1681 1.385 . S
C1678 H1659 0.951 . S
C1678 C1676 1.388 . S
C1678 C1679 1.366 . S
C1679 C1678 1.366 . S
C1679 C1680 1.414 . S
C1679 C1682 1.499 . S
C1680 H1660 0.950 . S
C1680 C1679 1.414 . S
C1680 C1681 1.374 . S
C1681 H1661 0.950 . S
C1681 C1677 1.385 . S
C1681 C1680 1.374 . S
C1682 C1679 1.499 . S
C1682 C1683 1.373 . S
C1682 C1684 1.389 . S
C1683 H1662 0.950 . S
C1683 C1682 1.373 . S
C1683 C1699 1.377 . S
C1684 C1682 1.389 . S
C1684 C1685 1.524 . S
C1684 C1698 1.377 . S
C1685 C1684 1.524 . S
C1685 C1686 1.397 . S
C1685 C1690 1.363 . S
C1686 H1663 0.950 . S
C1686 C1685 1.397 . S
C1686 C1687 1.334 . S
C1687 H1664 0.950 . S
C1687 C1686 1.334 . S
C1687 C1688 1.287 . S
C1688 C1687 1.287 . S
C1688 C1689 1.524 . S
C1688 H1707 0.913 . S
C1689 H1665 0.950 . S
C1689 C1688 1.524 . S
C1689 C1690 1.415 . S
C1690 H1666 0.950 . S
C1690 C1685 1.363 . S
C1690 C1689 1.415 . S
C1691 H1667 0.951 . S
C1691 C1692 1.366 . S
C1691 C1693 1.388 . S
C1692 C1691 1.366 . S
C1692 C1696 1.385 . S
C1693 H1668 0.951 . S
C1693 C1691 1.388 . S
C1693 C1694 1.366 . S
C1694 C1693 1.366 . S
C1694 C1695 1.414 . S
C1694 C1697 1.499 . S
C1695 H1669 0.950 . S
C1695 C1694 1.414 . S
C1695 C1696 1.374 . S
C1696 H1670 0.950 . S
C1696 C1692 1.385 . S
C1696 C1695 1.374 . S
C1697 C1694 1.499 . S
C1697 C1698 1.373 . S
C1697 C1699 1.389 . S
C1698 H1671 0.950 . S
C1698 C1684 1.377 . S
C1698 C1697 1.373 . S
C1699 C1683 1.377 . S
C1699 C1697 1.389 . S
C1699 C1700 1.524 . S
C1700 C1699 1.524 . S
C1700 C1701 1.397 . S
C1700 C1705 1.363 . S
C1701 H1672 0.950 . S
C1701 C1700 1.397 . S
C1701 C1702 1.334 . S
C1702 H1673 0.950 . S
C1702 C1701 1.334 . S
C1702 C1703 1.287 . S
C1703 C1702 1.287 . S
C1703 C1704 1.524 . S
C1703 H1706 0.999 . S
C1704 H1674 0.950 . S
C1704 C1703 1.524 . S
C1704 C1705 1.415 . S
C1705 H1675 0.950 . S
C1705 C1700 1.363 . S
C1705 C1704 1.415 . S
H1706 C1703 0.999 . S
H1707 C1688 0.913 . S
H1708 C1726 0.951 . S
H1709 C1728 0.951 . S
H1710 C1730 0.950 . S
H1711 C1731 0.950 . S
H1712 C1733 0.950 . S
H1713 C1736 0.950 . S
H1714 C1737 0.950 . S
H1715 C1739 0.950 . S
H1716 C1740 0.950 . S
H1717 C1741 0.951 . S
H1718 C1743 0.951 . S
H1719 C1745 0.950 . S
H1720 C1746 0.950 . S
H1721 C1748 0.950 . S
H1722 C1751 0.950 . S
H1723 C1752 0.950 . S
H1724 C1754 0.950 . S
H1725 C1755 0.950 . S
C1726 H1708 0.951 . S
C1726 C1727 1.366 . S
C1726 C1728 1.388 . S
C1727 C1726 1.366 . S
C1727 C1731 1.385 1_455 S
C1728 H1709 0.951 . S
C1728 C1726 1.388 . S
C1728 C1729 1.366 . S
C1729 C1728 1.366 . S
C1729 C1730 1.414 1_455 S
C1729 C1732 1.499 . S
C1730 H1710 0.950 . S
C1730 C1729 1.414 1_655 S
C1730 C1731 1.374 . S
C1731 H1711 0.950 . S
C1731 C1727 1.385 1_655 S
C1731 C1730 1.374 . S
C1732 C1729 1.499 . S
C1732 C1733 1.373 . S
C1732 C1734 1.400 . S
C1733 H1712 0.950 . S
C1733 C1732 1.373 . S
C1733 C1749 1.375 1_455 S
C1734 C1732 1.400 . S
C1734 C1735 1.514 1_455 S
C1734 C1748 1.375 1_455 S
C1735 C1734 1.514 1_655 S
C1735 C1736 1.397 . S
C1735 C1740 1.363 1_655 S
C1736 H1713 0.950 . S
C1736 C1735 1.397 . S
C1736 C1737 1.334 . S
C1737 H1714 0.950 . S
C1737 C1736 1.334 . S
C1737 C1738 1.287 . S
C1738 C1737 1.287 . S
C1738 C1739 1.524 1_655 S
C1738 H1757 0.913 . S
C1739 H1715 0.950 . S
C1739 C1738 1.524 1_455 S
C1739 C1740 1.415 . S
C1740 H1716 0.950 . S
C1740 C1735 1.363 1_455 S
C1740 C1739 1.415 . S
C1741 H1717 0.951 . S
C1741 C1742 1.366 . S
C1741 C1743 1.388 . S
C1742 C1741 1.366 . S
C1742 C1746 1.385 1_655 S
C1743 H1718 0.951 . S
C1743 C1741 1.388 . S
C1743 C1744 1.366 . S
C1744 C1743 1.366 . S
C1744 C1745 1.414 1_655 S
C1744 C1747 1.499 . S
C1745 H1719 0.950 . S
C1745 C1744 1.414 1_455 S
C1745 C1746 1.374 . S
C1746 H1720 0.950 . S
C1746 C1742 1.385 1_455 S
C1746 C1745 1.374 . S
C1747 C1744 1.499 . S
C1747 C1748 1.373 . S
C1747 C1749 1.400 . S
C1748 H1721 0.950 . S
C1748 C1734 1.375 1_655 S
C1748 C1747 1.373 . S
C1749 C1733 1.375 1_655 S
C1749 C1747 1.400 . S
C1749 C1750 1.513 1_655 S
C1750 C1749 1.513 1_455 S
C1750 C1751 1.397 . S
C1750 C1755 1.363 1_455 S
C1751 H1722 0.950 . S
C1751 C1750 1.397 . S
C1751 C1752 1.334 . S
C1752 H1723 0.950 . S
C1752 C1751 1.334 . S
C1752 C1753 1.287 . S
C1753 C1752 1.287 . S
C1753 C1754 1.524 1_455 S
C1753 H1756 0.999 . S
C1754 H1724 0.950 . S
C1754 C1753 1.524 1_655 S
C1754 C1755 1.415 . S
C1755 H1725 0.950 . S
C1755 C1750 1.363 1_655 S
C1755 C1754 1.415 . S
H1756 C1753 0.999 . S
H1757 C1738 0.913 . S
H1758 C1776 0.951 . S
H1759 C1778 0.951 . S
H1760 C1780 0.950 . S
H1761 C1781 0.950 . S
H1762 C1783 0.950 . S
H1763 C1786 0.950 . S
H1764 C1787 0.950 . S
H1765 C1789 0.950 . S
H1766 C1790 0.950 . S
H1767 C1791 0.951 . S
H1768 C1793 0.951 . S
H1769 C1795 0.950 . S
H1770 C1796 0.950 . S
H1771 C1798 0.950 . S
H1772 C1801 0.950 . S
H1773 C1802 0.950 . S
H1774 C1804 0.950 . S
H1775 C1805 0.950 . S
C1776 H1758 0.951 . S
C1776 C1777 1.366 . S
C1776 C1778 1.388 . S
C1777 C1776 1.366 . S
C1777 C1781 1.385 1_565 S
C1778 H1759 0.951 . S
C1778 C1776 1.388 . S
C1778 C1779 1.366 . S
C1779 C1778 1.366 . S
C1779 C1780 1.414 1_565 S
C1779 C1782 1.499 . S
C1780 H1760 0.950 . S
C1780 C1779 1.414 1_545 S
C1780 C1781 1.374 . S
C1781 H1761 0.950 . S
C1781 C1777 1.385 1_545 S
C1781 C1780 1.374 . S
C1782 C1779 1.499 . S
C1782 C1783 1.373 1_565 S
C1782 C1784 1.389 . S
C1783 H1762 0.950 . S
C1783 C1782 1.373 1_545 S
C1783 C1799 1.377 . S
C1784 C1782 1.389 . S
C1784 C1785 1.524 . S
C1784 C1798 1.377 . S
C1785 C1784 1.524 . S
C1785 C1786 1.397 . S
C1785 C1790 1.363 . S
C1786 H1763 0.950 . S
C1786 C1785 1.397 . S
C1786 C1787 1.334 . S
C1787 H1764 0.950 . S
C1787 C1786 1.334 . S
C1787 C1788 1.287 . S
C1788 C1787 1.287 . S
C1788 C1789 1.524 . S
C1788 H1807 0.913 . S
C1789 H1765 0.950 . S
C1789 C1788 1.524 . S
C1789 C1790 1.415 . S
C1790 H1766 0.950 . S
C1790 C1785 1.363 . S
C1790 C1789 1.415 . S
C1791 H1767 0.951 . S
C1791 C1792 1.366 . S
C1791 C1793 1.388 . S
C1792 C1791 1.366 . S
C1792 C1796 1.385 1_545 S
C1793 H1768 0.951 . S
C1793 C1791 1.388 . S
C1793 C1794 1.366 . S
C1794 C1793 1.366 . S
C1794 C1795 1.414 1_545 S
C1794 C1797 1.499 . S
C1795 H1769 0.950 . S
C1795 C1794 1.414 1_565 S
C1795 C1796 1.374 . S
C1796 H1770 0.950 . S
C1796 C1792 1.385 1_565 S
C1796 C1795 1.374 . S
C1797 C1794 1.499 . S
C1797 C1798 1.373 1_545 S
C1797 C1799 1.389 . S
C1798 H1771 0.950 . S
C1798 C1784 1.377 . S
C1798 C1797 1.373 1_565 S
C1799 C1783 1.377 . S
C1799 C1797 1.389 . S
C1799 C1800 1.524 . S
C1800 C1799 1.524 . S
C1800 C1801 1.397 . S
C1800 C1805 1.363 . S
C1801 H1772 0.950 . S
C1801 C1800 1.397 . S
C1801 C1802 1.334 . S
C1802 H1773 0.950 . S
C1802 C1801 1.334 . S
C1802 C1803 1.287 . S
C1803 C1802 1.287 . S
C1803 C1804 1.524 . S
C1803 H1806 0.999 . S
C1804 H1774 0.950 . S
C1804 C1803 1.524 . S
C1804 C1805 1.415 . S
C1805 H1775 0.950 . S
C1805 C1800 1.363 . S
C1805 C1804 1.415 . S
H1806 C1803 0.999 . S
H1807 C1788 0.913 . S
H1808 C1826 0.951 . S
H1809 C1828 0.951 . S
H1810 C1830 0.950 . S
H1811 C1831 0.950 . S
H1812 C1833 0.950 . S
H1813 C1836 0.950 . S
H1814 C1837 0.950 . S
H1815 C1839 0.950 . S
H1816 C1840 0.950 . S
H1817 C1841 0.951 . S
H1818 C1843 0.951 . S
H1819 C1845 0.950 . S
H1820 C1846 0.950 . S
H1821 C1848 0.950 . S
H1822 C1851 0.950 . S
H1823 C1852 0.950 . S
H1824 C1854 0.950 . S
H1825 C1855 0.950 . S
C1826 H1808 0.951 . S
C1826 C1827 1.366 . S
C1826 C1828 1.388 . S
C1827 C1826 1.366 . S
C1827 C1831 1.385 . S
C1828 H1809 0.951 . S
C1828 C1826 1.388 . S
C1828 C1829 1.366 . S
C1829 C1828 1.366 . S
C1829 C1830 1.414 . S
C1829 C1832 1.499 . S
C1830 H1810 0.950 . S
C1830 C1829 1.414 . S
C1830 C1831 1.374 . S
C1831 H1811 0.950 . S
C1831 C1827 1.385 . S
C1831 C1830 1.374 . S
C1832 C1829 1.499 . S
C1832 C1833 1.373 . S
C1832 C1834 1.389 . S
C1833 H1812 0.950 . S
C1833 C1832 1.373 . S
C1833 C1849 1.377 . S
C1834 C1832 1.389 . S
C1834 C1835 1.524 . S
C1834 C1848 1.377 . S
C1835 C1834 1.524 . S
C1835 C1836 1.397 . S
C1835 C1840 1.363 . S
C1836 H1813 0.950 . S
C1836 C1835 1.397 . S
C1836 C1837 1.334 . S
C1837 H1814 0.950 . S
C1837 C1836 1.334 . S
C1837 C1838 1.287 . S
C1838 C1837 1.287 . S
C1838 C1839 1.524 . S
C1838 H1857 0.913 . S
C1839 H1815 0.950 . S
C1839 C1838 1.524 . S
C1839 C1840 1.415 . S
C1840 H1816 0.950 . S
C1840 C1835 1.363 . S
C1840 C1839 1.415 . S
C1841 H1817 0.951 . S
C1841 C1842 1.366 . S
C1841 C1843 1.388 . S
C1842 C1841 1.366 . S
C1842 C1846 1.385 . S
C1843 H1818 0.951 . S
C1843 C1841 1.388 . S
C1843 C1844 1.366 . S
C1844 C1843 1.366 . S
C1844 C1845 1.414 . S
C1844 C1847 1.499 . S
C1845 H1819 0.950 . S
C1845 C1844 1.414 . S
C1845 C1846 1.374 . S
C1846 H1820 0.950 . S
C1846 C1842 1.385 . S
C1846 C1845 1.374 . S
C1847 C1844 1.499 . S
C1847 C1848 1.373 . S
C1847 C1849 1.389 . S
C1848 H1821 0.950 . S
C1848 C1834 1.377 . S
C1848 C1847 1.373 . S
C1849 C1833 1.377 . S
C1849 C1847 1.389 . S
C1849 C1850 1.524 . S
C1850 C1849 1.524 . S
C1850 C1851 1.397 . S
C1850 C1855 1.363 . S
C1851 H1822 0.950 . S
C1851 C1850 1.397 . S
C1851 C1852 1.334 . S
C1852 H1823 0.950 . S
C1852 C1851 1.334 . S
C1852 C1853 1.287 . S
C1853 C1852 1.287 . S
C1853 C1854 1.524 . S
C1853 H1856 0.999 . S
C1854 H1824 0.950 . S
C1854 C1853 1.524 . S
C1854 C1855 1.415 . S
C1855 H1825 0.950 . S
C1855 C1850 1.363 . S
C1855 C1854 1.415 . S
H1856 C1853 0.999 . S
H1857 C1838 0.913 . S
H1858 C1876 0.951 . S
H1859 C1878 0.951 . S
H1860 C1880 0.950 . S
H1861 C1881 0.950 . S
H1862 C1883 0.950 . S
H1863 C1886 0.950 . S
H1864 C1887 0.950 . S
H1865 C1889 0.950 . S
H1866 C1890 0.950 . S
H1867 C1891 0.951 . S
H1868 C1893 0.951 . S
H1869 C1895 0.950 . S
H1870 C1896 0.950 . S
H1871 C1898 0.950 . S
H1872 C1901 0.950 . S
H1873 C1902 0.950 . S
H1874 C1904 0.950 . S
H1875 C1905 0.950 . S
C1876 H1858 0.951 . S
C1876 C1877 1.366 1_455 S
C1876 C1878 1.388 . S
C1877 C1876 1.366 1_655 S
C1877 C1881 1.385 . S
C1878 H1859 0.951 . S
C1878 C1876 1.388 . S
C1878 C1879 1.366 1_455 S
C1879 C1878 1.366 1_655 S
C1879 C1880 1.414 . S
C1879 C1882 1.499 . S
C1880 H1860 0.950 . S
C1880 C1879 1.414 . S
C1880 C1881 1.374 . S
C1881 H1861 0.950 . S
C1881 C1877 1.385 . S
C1881 C1880 1.374 . S
C1882 C1879 1.499 . S
C1882 C1883 1.373 . S
C1882 C1884 1.389 1_655 S
C1883 H1862 0.950 . S
C1883 C1882 1.373 . S
C1883 C1899 1.377 . S
C1884 C1882 1.389 1_455 S
C1884 C1885 1.524 . S
C1884 C1898 1.377 . S
C1885 C1884 1.524 . S
C1885 C1886 1.397 . S
C1885 C1890 1.363 . S
C1886 H1863 0.950 . S
C1886 C1885 1.397 . S
C1886 C1887 1.334 . S
C1887 H1864 0.950 . S
C1887 C1886 1.334 . S
C1887 C1888 1.287 . S
C1888 C1887 1.287 . S
C1888 C1889 1.524 . S
C1888 H1907 0.913 . S
C1889 H1865 0.950 . S
C1889 C1888 1.524 . S
C1889 C1890 1.415 . S
C1890 H1866 0.950 . S
C1890 C1885 1.363 . S
C1890 C1889 1.415 . S
C1891 H1867 0.951 . S
C1891 C1892 1.366 1_655 S
C1891 C1893 1.388 . S
C1892 C1891 1.366 1_455 S
C1892 C1896 1.385 . S
C1893 H1868 0.951 . S
C1893 C1891 1.388 . S
C1893 C1894 1.366 1_655 S
C1894 C1893 1.366 1_455 S
C1894 C1895 1.414 . S
C1894 C1897 1.499 . S
C1895 H1869 0.950 . S
C1895 C1894 1.414 . S
C1895 C1896 1.374 . S
C1896 H1870 0.950 . S
C1896 C1892 1.385 . S
C1896 C1895 1.374 . S
C1897 C1894 1.499 . S
C1897 C1898 1.373 . S
C1897 C1899 1.389 1_455 S
C1898 H1871 0.950 . S
C1898 C1884 1.377 . S
C1898 C1897 1.373 . S
C1899 C1883 1.377 . S
C1899 C1897 1.389 1_655 S
C1899 C1900 1.524 . S
C1900 C1899 1.524 . S
C1900 C1901 1.397 . S
C1900 C1905 1.363 . S
C1901 H1872 0.950 . S
C1901 C1900 1.397 . S
C1901 C1902 1.334 . S
C1902 H1873 0.950 . S
C1902 C1901 1.334 . S
C1902 C1903 1.287 . S
C1903 C1902 1.287 . S
C1903 C1904 1.524 . S
C1903 H1906 0.999 . S
C1904 H1874 0.950 . S
C1904 C1903 1.524 . S
C1904 C1905 1.415 . S
C1905 H1875 0.950 . S
C1905 C1900 1.363 . S
C1905 C1904 1.415 . S
H1906 C1903 0.999 . S
H1907 C1888 0.913 . S
C727 C5 1.746 . S
C742 C477 1.746 . S
C777 C64 1.746 . S
C792 C536 1.746 . S
C827 C595 1.746 . S
C842 C123 1.746 . S
C877 C654 1.746 . S
C892 C182 1.746 . S
C927 C359 1.746 . S
C942 C241 1.746 . S
C977 C418 1.746 . S
C992 C300 1.746 . S
C1027 C3 1.840 . S
C1042 C180 1.841 . S
C1077 C239 1.840 . S
C1092 C62 1.841 . S
C1127 C298 1.841 . S
C1142 C121 1.841 . S
C1177 C357 1.841 . S
C1192 C534 1.840 . S
C1227 C593 1.841 . S
C1242 C416 1.841 . S
C1277 C475 1.841 . S
C1292 C652 1.841 . S
C1327 C387 0.960 . S
C1342 C33 0.961 . S
C1377 C92 0.960 . S
C1392 C446 0.960 . S
C1427 C505 0.960 . S
C1442 C151 0.961 . S
C1477 C564 0.960 . S
C1492 C210 0.961 . S
C1527 C269 0.960 . S
C1542 C623 0.960 . S
C1577 C682 0.961 . S
C1592 C328 0.960 . S
C1627 C52 1.120 . S
C1642 C465 1.120 . S
C1677 C524 1.120 . S
C1692 C111 1.120 . S
C1727 C583 1.120 . S
C1742 C170 1.120 . S
C1777 C229 1.120 . S
C1792 C642 1.120 . S
C1827 C701 1.120 . S
C1842 C288 1.120 . S
C1877 C406 1.120 . S
C1892 C347 1.120 . S
