# Generated by pormake.
# Topology wkh, (6)-cn, num edge types: 1
# Building blocks:
#     Node 0, Type 0, BuildingBlock: MIDCAF_clean_sbu_0, # of connection points: 6
#     Node 1, Type 0, BuildingBlock: MIDCAF_clean_sbu_0, # of connection points: 6
#     Node 2, Type 0, BuildingBlock: MIDCAF_clean_sbu_0, # of connection points: 6
#     Node 3, Type 0, BuildingBlock: MIDCAF_clean_sbu_0, # of connection points: 6
#     Node 4, Type 0, BuildingBlock: MIDCAF_clean_sbu_0, # of connection points: 6
#     Node 5, Type 0, BuildingBlock: MIDCAF_clean_sbu_0, # of connection points: 6
#     Node 6, Type 0, BuildingBlock: MIDCAF_clean_sbu_0, # of connection points: 6
#     Node 7, Type 0, BuildingBlock: MIDCAF_clean_sbu_0, # of connection points: 6
#     Node 8, Type 0, BuildingBlock: MIDCAF_clean_sbu_0, # of connection points: 6
#     Node 9, Type 0, BuildingBlock: MIDCAF_clean_sbu_0, # of connection points: 6
#     Node 10, Type 0, BuildingBlock: MIDCAF_clean_sbu_0, # of connection points: 6
#     Node 11, Type 0, BuildingBlock: MIDCAF_clean_sbu_0, # of connection points: 6
#     Edge 12, Type (0, 0), BuildingBlock: KIFKEQ_clean_linker_1, # of connection points: 2
#     Edge 13, Type (0, 0), BuildingBlock: KIFKEQ_clean_linker_1, # of connection points: 2
#     Edge 14, Type (0, 0), BuildingBlock: KIFKEQ_clean_linker_1, # of connection points: 2
#     Edge 15, Type (0, 0), BuildingBlock: KIFKEQ_clean_linker_1, # of connection points: 2
#     Edge 16, Type (0, 0), BuildingBlock: KIFKEQ_clean_linker_1, # of connection points: 2
#     Edge 17, Type (0, 0), BuildingBlock: KIFKEQ_clean_linker_1, # of connection points: 2
#     Edge 18, Type (0, 0), BuildingBlock: KIFKEQ_clean_linker_1, # of connection points: 2
#     Edge 19, Type (0, 0), BuildingBlock: KIFKEQ_clean_linker_1, # of connection points: 2
#     Edge 20, Type (0, 0), BuildingBlock: KIFKEQ_clean_linker_1, # of connection points: 2
#     Edge 21, Type (0, 0), BuildingBlock: KIFKEQ_clean_linker_1, # of connection points: 2
#     Edge 22, Type (0, 0), BuildingBlock: KIFKEQ_clean_linker_1, # of connection points: 2
#     Edge 23, Type (0, 0), BuildingBlock: KIFKEQ_clean_linker_1, # of connection points: 2
#     Edge 24, Type (0, 0), BuildingBlock: KIFKEQ_clean_linker_1, # of connection points: 2
#     Edge 25, Type (0, 0), BuildingBlock: KIFKEQ_clean_linker_1, # of connection points: 2
#     Edge 26, Type (0, 0), BuildingBlock: KIFKEQ_clean_linker_1, # of connection points: 2
#     Edge 27, Type (0, 0), BuildingBlock: KIFKEQ_clean_linker_1, # of connection points: 2
#     Edge 28, Type (0, 0), BuildingBlock: KIFKEQ_clean_linker_1, # of connection points: 2
#     Edge 29, Type (0, 0), BuildingBlock: KIFKEQ_clean_linker_1, # of connection points: 2
#     Edge 30, Type (0, 0), BuildingBlock: KIFKEQ_clean_linker_1, # of connection points: 2
#     Edge 31, Type (0, 0), BuildingBlock: KIFKEQ_clean_linker_1, # of connection points: 2
#     Edge 32, Type (0, 0), BuildingBlock: KIFKEQ_clean_linker_1, # of connection points: 2
#     Edge 33, Type (0, 0), BuildingBlock: KIFKEQ_clean_linker_1, # of connection points: 2
#     Edge 34, Type (0, 0), BuildingBlock: KIFKEQ_clean_linker_1, # of connection points: 2
#     Edge 35, Type (0, 0), BuildingBlock: KIFKEQ_clean_linker_1, # of connection points: 2
#     Edge 36, Type (0, 0), BuildingBlock: KIFKEQ_clean_linker_1, # of connection points: 2
#     Edge 37, Type (0, 0), BuildingBlock: KIFKEQ_clean_linker_1, # of connection points: 2
#     Edge 38, Type (0, 0), BuildingBlock: KIFKEQ_clean_linker_1, # of connection points: 2
#     Edge 39, Type (0, 0), BuildingBlock: KIFKEQ_clean_linker_1, # of connection points: 2
#     Edge 40, Type (0, 0), BuildingBlock: KIFKEQ_clean_linker_1, # of connection points: 2
#     Edge 41, Type (0, 0), BuildingBlock: KIFKEQ_clean_linker_1, # of connection points: 2
#     Edge 42, Type (0, 0), BuildingBlock: KIFKEQ_clean_linker_1, # of connection points: 2
#     Edge 43, Type (0, 0), BuildingBlock: KIFKEQ_clean_linker_1, # of connection points: 2
#     Edge 44, Type (0, 0), BuildingBlock: KIFKEQ_clean_linker_1, # of connection points: 2
#     Edge 45, Type (0, 0), BuildingBlock: KIFKEQ_clean_linker_1, # of connection points: 2
#     Edge 46, Type (0, 0), BuildingBlock: KIFKEQ_clean_linker_1, # of connection points: 2
#     Edge 47, Type (0, 0), BuildingBlock: KIFKEQ_clean_linker_1, # of connection points: 2
# Relax obj value: 0.394
# Max RMSD: 0.272
# Mean RMSD: 0.272
data_MOF--net-wkh--node1-MIDCAF_clean_sbu_0--edge1-KIFKEQ_clean_linker_1
_symmetry_space_group_name_H-M    P1
_symmetry_Int_Tables_number       1
_symmetry_cell_setting            triclinic
loop_
_symmetry_equiv_pos_as_xyz
'x, y, z'
_cell_length_a     27.187418
_cell_length_b     27.145405
_cell_length_c     76.897218
_cell_angle_alpha  90.138968
_cell_angle_beta   90.388637
_cell_angle_gamma 120.40503
loop_
_atom_site_label
_atom_site_type_symbol
_atom_site_fract_x
_atom_site_fract_y
_atom_site_fract_z
_atom_type_partial_charge
Zn0 Zn 0.39255 0.38919 0.98742 0.0
Zn1 Zn 0.27121 0.25845 0.02769 0.0
Zn2 Zn 0.35701 0.32455 0.0145 0.0
C3 C 0.35692 0.22939 0.03296 0.0
C4 C 0.25882 0.19614 1.00163 0.0
O5 O 0.29152 0.34385 1.00724 0.0
O6 O 0.32307 0.39595 0.98367 0.0
C7 C 0.48113 0.43853 0.01019 0.0
O8 O 0.36696 0.25074 0.0176 0.0
O9 O 0.31811 0.23042 0.0417 0.0
O10 O 0.22327 0.20765 0.00821 0.0
O11 O 0.31285 0.23211 1.00378 0.0
O12 O 0.46459 0.45451 0.9971 0.0
O13 O 0.44663 0.39085 0.01734 0.0
O14 O 0.3693 0.26807 0.99644 0.0
O15 O 0.4014 0.32949 0.97449 0.0
C16 C 0.38978 0.28189 0.98087 0.0
O17 O 0.34685 0.34428 0.04216 0.0
O18 O 0.25445 0.31122 0.04039 0.0
C19 C 0.2848 0.37172 0.99502 0.0
C20 C 0.30142 0.34125 0.04825 0.0
Zn21 Zn 0.07255 0.32344 0.20847 0.0
Zn22 Zn 0.03317 0.41355 0.16415 0.0
Zn23 Zn 0.05088 0.36676 0.18755 0.0
C24 C 0.11031 0.38744 0.15064 0.0
C25 C 0.08123 0.49562 0.18794 0.0
O26 O 0.97074 0.31283 0.20295 0.0
O27 O 0.02082 0.32157 0.22649 0.0
C28 C 0.07643 0.26745 0.18236 0.0
O29 O 0.0905 0.3536 0.16378 0.0
O30 O 0.09658 0.42505 0.14858 0.0
O31 O 0.04275 0.48233 0.17658 0.0
O32 O 0.09412 0.45833 0.19288 0.0
O33 O 0.05344 0.25019 0.19696 0.0
O34 O 0.08594 0.31608 0.17671 0.0
O35 O 0.11631 0.43462 0.20489 0.0
O36 O 0.15456 0.38239 0.21127 0.0
C37 C 0.15791 0.43048 0.21136 0.0
O38 O 0.95679 0.32483 0.186 0.0
O39 O 0.9555 0.3501 0.15883 0.0
C40 C 0.97336 0.30778 0.21959 0.0
C41 C 0.92924 0.32013 0.1718 0.0
Zn42 Zn 0.58761 -0.00473 0.324 0.0
Zn43 Zn 0.70714 0.07483 0.3761 0.0
Zn44 Zn 0.64869 0.04176 0.35155 0.0
C45 C 0.62675 0.09776 0.38448 0.0
C46 C 0.77306 0.14361 0.35083 0.0
O47 O 0.60875 0.9486 0.35393 0.0
O48 O 0.55227 0.91523 0.33073 0.0
C49 C 0.5484 0.06159 0.34074 0.0
O50 O 0.62315 0.09331 0.36777 0.0
O51 O 0.65275 0.07742 0.3926 0.0
O52 O 0.76719 0.14884 0.36685 0.0
O53 O 0.73402 0.10038 0.34237 0.0
O54 O 0.54176 0.03203 0.32729 0.0
O55 O 0.58648 0.06951 0.35218 0.0
O56 O 0.69998 0.07736 0.32705 0.0
O57 O 0.64468 0.0253 0.30519 0.0
C58 C 0.69182 0.06591 0.31059 0.0
O59 O 0.64669 0.97131 0.36821 0.0
O60 O 0.7298 0.01819 0.38165 0.0
C61 C 0.571 0.90659 0.34473 0.0
C62 C 0.68484 0.97152 0.37843 0.0
Zn63 Zn 0.63152 0.73615 0.53907 0.0
Zn64 Zn 0.58183 0.60098 0.49184 0.0
Zn65 Zn 0.59977 0.66752 0.51745 0.0
C66 C 0.6275 0.70211 0.47569 0.0
C67 C 0.47606 0.57587 0.50533 0.0
O68 O 0.64864 0.64999 0.53851 0.0
O69 O 0.63556 0.69571 0.55997 0.0
C70 C 0.69533 0.79521 0.51312 0.0
O71 O 0.62489 0.71506 0.49174 0.0
O72 O 0.61479 0.65194 0.4717 0.0
O73 O 0.49908 0.56171 0.4937 0.0
O74 O 0.507 0.61575 0.51627 0.0
O75 O 0.70519 0.79484 0.52913 0.0
O76 O 0.65128 0.75228 0.50617 0.0
O77 O 0.52345 0.65791 0.53076 0.0
O78 O 0.56561 0.74889 0.53762 0.0
C79 C 0.52066 0.70055 0.53696 0.0
O80 O 0.64255 0.61922 0.52299 0.0
O81 O 0.61835 0.5603 0.50038 0.0
C82 C 0.65136 0.66169 0.55495 0.0
C83 C 0.64374 0.57851 0.51475 0.0
Zn84 Zn 0.97149 0.56994 0.64722 0.0
Zn85 Zn 0.02966 0.73052 0.68824 0.0
Zn86 Zn 0.95571 0.60574 0.67731 0.0
C87 C 0.93422 0.67709 0.70987 0.0
C88 C 0.93389 0.69897 0.66699 0.0
O89 O 0.04081 0.65929 0.66641 0.0
O90 O 0.04669 0.63143 0.64008 0.0
C91 C 0.93407 0.48006 0.66898 0.0
O92 O 0.92716 0.63306 0.70115 0.0
O93 O 0.97567 0.72652 0.70654 0.0
O94 O -0.01213 0.72803 0.66548 0.0
O95 O 0.91007 0.64628 0.67134 0.0
O96 O 0.9651 0.49855 0.6557 0.0
O97 O 0.92294 0.51357 0.67765 0.0
O98 O 0.88177 0.59146 0.65968 0.0
O99 O 0.90288 0.56225 0.63553 0.0
C100 C 0.87005 0.57416 0.6437 0.0
O101 O 0.97934 0.61435 0.70491 0.0
O102 O 0.06469 0.68315 0.69814 0.0
C103 C 0.0694 0.66595 0.6526 0.0
C104 C 0.03168 0.64805 0.70942 0.0
Zn105 Zn 0.22386 0.89866 0.88058 0.0
Zn106 Zn 0.31556 0.94409 0.82588 0.0
Zn107 Zn 0.26582 0.91966 0.85483 0.0
C108 C 0.20123 0.86431 0.81811 0.0
C109 C 0.36 0.88934 0.84594 0.0
O110 O 0.2976 0.00134 0.86971 0.0
O111 O 0.28797 0.95785 0.89462 0.0
C112 C 0.14311 0.8917 0.86011 0.0
O113 O 0.19606 0.87042 0.83458 0.0
O114 O 0.24965 0.89161 0.81116 0.0
O115 O 0.37077 0.9191 0.83236 0.0
O116 O 0.31941 0.88231 0.85596 0.0
O117 O 0.16349 0.91482 0.87463 0.0
O118 O 0.17291 0.87875 0.85017 0.0
O119 O 0.29067 0.87097 0.87319 0.0
O120 O 0.20533 0.81831 0.88415 0.0
C121 C 0.25663 0.83042 0.8834 0.0
O122 O 0.31266 0.01406 0.85203 0.0
O123 O 0.3411 0.02631 0.82471 0.0
C124 C 0.3085 0.00364 0.88616 0.0
C125 C 0.33666 0.0469 0.83893 0.0
Zn126 Zn 0.66828 0.70133 0.84074 0.0
Zn127 Zn 0.54498 0.5573 0.87004 0.0
Zn128 Zn 0.61464 0.60046 0.8437 0.0
C129 C 0.64999 0.57186 0.8815 0.0
C130 C 0.51716 0.47181 0.84678 0.0
O131 O 0.60504 0.63711 0.8177 0.0
O132 O 0.62319 0.72294 0.82571 0.0
C133 C 0.72084 0.70243 0.8655 0.0
O134 O 0.66513 0.59326 0.86607 0.0
O135 O 0.59934 0.55292 0.88642 0.0
O136 O 0.49069 0.48647 0.85704 0.0
O137 O 0.56773 0.50836 0.84212 0.0
O138 O 0.69665 0.73182 0.86433 0.0
O139 O 0.69629 0.65163 0.8587 0.0
O140 O 0.65508 0.61136 0.81865 0.0
O141 O 0.7276 0.69504 0.82573 0.0
C142 C 0.70657 0.65125 0.81599 0.0
O143 O 0.56319 0.63925 0.84767 0.0
O144 O 0.52568 0.61712 0.87373 0.0
C145 C 0.60621 0.68425 0.81415 0.0
C146 C 0.53548 0.64551 0.85995 0.0
Zn147 Zn 0.00324 0.59812 0.02976 0.0
Zn148 Zn 0.04459 0.66116 0.97477 0.0
Zn149 Zn 0.02729 0.65004 1.00267 0.0
C150 C 0.14678 0.69675 0.98764 0.0
C151 C 0.07883 0.7707 0.98881 0.0
O152 O 0.93902 0.63188 1.00608 0.0
O153 O 0.92403 0.58619 0.0309 0.0
C154 C 0.03567 0.53903 1.00756 0.0
O155 O 0.12143 0.71167 0.99883 0.0
O156 O 0.11623 0.65805 0.97675 0.0
O157 O 0.05382 0.74274 0.97512 0.0
O158 O 0.08585 0.74323 1.00139 0.0
O159 O 0.01492 0.53334 0.02259 0.0
O160 O 0.04323 0.58099 0.99822 0.0
O161 O 0.08897 0.72121 0.01951 0.0
O162 O 0.06741 0.66518 0.04246 0.0
C163 C 0.09713 0.71382 0.03561 0.0
O164 O 0.95213 0.63692 0.9862 0.0
O165 O 0.97335 0.59727 0.96479 0.0
C166 C 0.90602 0.60497 0.01888 0.0
C167 C 0.93848 0.60919 0.9716 0.0
Zn168 Zn 0.29008 0.07064 0.1268 0.0
Zn169 Zn 0.43159 0.02251 0.19041 0.0
Zn170 Zn 0.37703 0.03693 0.16652 0.0
C171 C 0.38168 0.07528 0.20752 0.0
C172 C 0.50876 0.09417 0.16469 0.0
O173 O 0.32182 0.95426 0.15204 0.0
O174 O 0.30217 0.0141 0.14075 0.0
C175 C 0.30277 0.07862 0.16581 0.0
O176 O 0.36268 0.07196 0.19182 0.0
O177 O 0.4145 0.05626 0.21085 0.0
O178 O 0.50538 0.06768 0.17851 0.0
O179 O 0.46397 0.08993 0.15756 0.0
O180 O 0.3079 0.05968 0.15138 0.0
O181 O 0.33058 0.074 0.1784 0.0
O182 O 0.42462 0.09089 0.14296 0.0
O183 O 0.3754 0.10946 0.12218 0.0
C184 C 0.42148 0.11428 0.12851 0.0
O185 O 0.34073 0.94389 0.16823 0.0
O186 O 0.3922 0.93878 0.18974 0.0
C187 C 0.29912 0.96621 0.13937 0.0
C188 C 0.35187 0.91416 0.17887 0.0
Zn189 Zn 0.34898 0.38028 0.36176 0.0
Zn190 Zn 0.26507 0.346 0.30366 0.0
Zn191 Zn 0.30213 0.36381 0.33204 0.0
C192 C 0.34502 0.45406 0.30135 0.0
C193 C 0.1791 0.33578 0.32347 0.0
O194 O 0.34229 0.31115 0.33343 0.0
O195 O 0.3722 0.32344 0.36079 0.0
C196 C 0.4011 0.48552 0.34659 0.0
O197 O 0.33566 0.44576 0.31778 0.0
O198 O 0.32897 0.41142 0.29148 0.0
O199 O 0.19691 0.3519 0.30827 0.0
O200 O 0.21148 0.33119 0.33485 0.0
O201 O 0.4074 0.46146 0.35973 0.0
O202 O 0.36283 0.45577 0.33503 0.0
O203 O 0.23268 0.3374 0.35229 0.0
O204 O 0.28345 0.36076 0.37662 0.0
C205 C 0.23583 0.34142 0.36908 0.0
O206 O 0.32013 0.30298 0.31601 0.0
O207 O 0.25034 0.27 0.29662 0.0
C208 C 0.36525 0.29931 0.34623 0.0
C209 C 0.29204 0.26857 0.30325 0.0
Zn210 Zn 0.84759 0.2111 0.44867 0.0
Zn211 Zn 0.96873 0.38024 0.52509 0.0
Zn212 Zn 0.92455 0.32421 0.49852 0.0
C213 C 0.9074 0.26948 0.53695 0.0
C214 C 0.89227 0.4119 0.51177 0.0
O215 O -0.01076 0.33941 0.47829 0.0
O216 O 0.91514 0.27534 0.46398 0.0
C217 C 0.86646 0.20348 0.49019 0.0
O218 O 0.89653 0.26184 0.52047 0.0
O219 O 0.94173 0.31895 0.54272 0.0
O220 O 0.92846 0.42305 0.52375 0.0
O221 O 0.88278 0.37376 0.50023 0.0
O222 O 0.86871 0.22828 0.47584 0.0
O223 O 0.88562 0.23501 0.5038 0.0
O224 O 0.85841 0.33621 0.48549 0.0
O225 O 0.86085 0.27487 0.46772 0.0
C226 C 0.83781 0.30407 0.47203 0.0
O227 O 0.01573 0.37288 0.49324 0.0
O228 O 0.04844 0.42098 0.51797 0.0
C229 C 0.96902 0.31001 0.46426 0.0
C230 C 0.05715 0.40936 0.50284 0.0
Zn231 Zn 0.58029 0.95957 0.6876 0.0
Zn232 Zn 0.64565 0.88501 0.64478 0.0
Zn233 Zn 0.61695 0.92299 0.66473 0.0
C234 C 0.53884 0.81313 0.64222 0.0
C235 C 0.70878 0.88884 0.67061 0.0
O236 O 0.67014 0.01729 0.66298 0.0
O237 O 0.64314 0.03957 0.6874 0.0
C238 C 0.49084 0.90446 0.66536 0.0
O239 O 0.54438 0.86048 0.64791 0.0
O240 O 0.58037 0.80494 0.64401 0.0
O241 O 0.71973 0.90246 0.6549 0.0
O242 O 0.66303 0.88391 0.67717 0.0
O243 O 0.5074 0.94323 0.67676 0.0
O244 O 0.525 0.88804 0.65995 0.0
O245 O 0.62724 0.88512 0.68952 0.0
O246 O 0.57503 0.90632 0.7063 0.0
C247 C 0.60146 0.87969 0.70404 0.0
O248 O 0.67553 -0.00583 0.64661 0.0
O249 O 0.65059 0.93288 0.62506 0.0
C250 C 0.67519 0.05472 0.67431 0.0
C251 C 0.67475 0.98412 0.63013 0.0
H252 H 0.84365 0.62296 0.99397 0.0
H253 H 0.83055 0.55487 0.04539 0.0
H254 H 0.74137 0.58742 0.99366 0.0
H255 H 0.72932 0.52196 0.04561 0.0
H256 H 0.54099 0.40246 0.03001 0.0
H257 H 0.64413 0.44853 0.03323 0.0
H258 H 0.66405 0.59437 1.00465 0.0
H259 H 0.56098 0.54729 1.00094 0.0
C260 C 0.81915 0.601 1.00524 0.0
C261 C 0.84541 0.59083 0.01943 0.0
C262 C 0.76038 0.581 1.00521 0.0
C263 C 0.72642 0.55095 0.01956 0.0
C264 C 0.75343 0.54348 0.03413 0.0
C265 C 0.81189 0.5629 0.03404 0.0
C266 C 0.56729 0.44484 0.02472 0.0
C267 C 0.54257 0.47096 0.01515 0.0
C268 C 0.62669 0.47145 0.02656 0.0
C269 C 0.66296 0.52517 0.01903 0.0
C270 C 0.63786 0.55254 0.01029 0.0
C271 C 0.57855 0.52574 0.00832 0.0
H272 H 0.37027 0.84088 0.19799 0.0
H273 H 0.24694 0.84713 0.16371 0.0
H274 H 0.3033 0.74148 0.20398 0.0
H275 H 0.18157 0.74596 0.16843 0.0
H276 H 0.05361 0.5788 0.19001 0.0
H277 H 0.12025 0.68155 0.18927 0.0
H278 H 0.26143 0.65061 0.19212 0.0
H279 H 0.19495 0.549 0.19373 0.0
C280 C 0.32932 0.82063 0.19135 0.0
C281 C 0.31427 0.85178 0.18012 0.0
C282 C 0.2909 0.76342 0.19477 0.0
C283 C 0.23683 0.73558 0.18677 0.0
C284 C 0.2224 0.76631 0.17512 0.0
C285 C 0.26049 0.82401 0.172 0.0
C286 C 0.09893 0.59444 0.19107 0.0
C287 C 0.11926 0.55625 0.19204 0.0
C288 C 0.13713 0.6531 0.19035 0.0
C289 C 0.19627 0.67437 0.1902 0.0
C290 C 0.21629 0.63605 0.19235 0.0
C291 C 0.1781 0.57758 0.1934 0.0
H292 H 0.36177 0.22855 0.3713 0.0
H293 H 0.40953 0.27563 0.31786 0.0
H294 H 0.39957 0.16426 0.37016 0.0
H295 H 0.44662 0.21021 0.31653 0.0
H296 H 0.46743 0.05365 0.31805 0.0
H297 H 0.41604 0.10529 0.319 0.0
H298 H 0.50003 0.18418 0.36758 0.0
H299 H 0.55148 0.1326 0.36671 0.0
C300 C 0.37977 0.22449 0.35922 0.0
C301 C 0.38257 0.25655 0.34457 0.0
C302 C 0.40136 0.18785 0.3586 0.0
C303 C 0.42618 0.18273 0.34332 0.0
C304 C 0.42702 0.21307 0.32842 0.0
C305 C 0.4055 0.25003 0.32908 0.0
C306 C 0.47472 0.08162 0.32904 0.0
C307 C 0.51394 0.08924 0.34233 0.0
C308 C 0.4454 0.11127 0.32949 0.0
C309 C 0.45436 0.14867 0.3433 0.0
C310 C 0.49208 0.15505 0.35686 0.0
C311 C 0.5217 0.12564 0.35635 0.0
H312 H 0.1106 0.35162 0.49531 0.0
H313 H 0.1353 0.52099 0.50016 0.0
H314 H 0.21357 0.39151 0.49538 0.0
H315 H 0.23854 0.56178 0.49948 0.0
H316 H 0.40812 0.60491 0.52369 0.0
H317 H 0.30567 0.56421 0.52036 0.0
H318 H 0.30159 0.44775 0.48112 0.0
H319 H 0.40272 0.48581 0.48523 0.0
C320 C 0.13841 0.39761 0.49556 0.0
C321 C 0.11595 0.43362 0.49748 0.0
C322 C 0.19722 0.42052 0.49572 0.0
C323 C 0.23404 0.47975 0.49775 0.0
C324 C 0.21113 0.5159 0.49836 0.0
C325 C 0.15235 0.49285 0.49843 0.0
C326 C 0.38517 0.56991 0.51468 0.0
C327 C 0.41358 0.5486 0.50485 0.0
C328 C 0.32665 0.54723 0.51249 0.0
C329 C 0.29579 0.50331 0.50027 0.0
C330 C 0.32407 0.48128 0.49071 0.0
C331 C 0.38219 0.50337 0.49306 0.0
H332 H 0.78859 0.10727 0.66601 0.0
H333 H 0.65384 0.14016 0.67912 0.0
H334 H 0.85756 0.21014 0.66711 0.0
H335 H 0.72126 0.24223 0.67956 0.0
H336 H 0.85446 0.41875 0.694 0.0
H337 H 0.79623 0.31491 0.69602 0.0
H338 H 0.88742 0.2973 0.65286 0.0
H339 H 0.94699 0.40008 0.65145 0.0
C340 C 0.77372 0.13671 0.66874 0.0
C341 C 0.7161 0.11615 0.67234 0.0
C342 C 0.81306 0.19555 0.66946 0.0
C343 C 0.79524 0.23473 0.6737 0.0
C344 C 0.73706 0.2136 0.67679 0.0
C345 C 0.69818 0.15511 0.67627 0.0
C346 C 0.86282 0.39262 0.68522 0.0
C347 C 0.90493 0.41787 0.67245 0.0
C348 C 0.82903 0.33304 0.68621 0.0
C349 C 0.83621 0.2975 0.67433 0.0
C350 C 0.88063 0.32293 0.66228 0.0
C351 C 0.9147 0.38223 0.66142 0.0
H352 H 0.51422 0.69896 0.88617 0.0
H353 H 0.51008 0.6826 0.83022 0.0
H354 H 0.47829 0.7648 0.88373 0.0
H355 H 0.47524 0.74939 0.82774 0.0
H356 H 0.45696 0.90698 0.83006 0.0
H357 H 0.50544 0.85281 0.83406 0.0
H358 H 0.38436 0.75182 0.87363 0.0
H359 H 0.33552 0.80484 0.86948 0.0
C360 C 0.506 0.7098 0.87335 0.0
C361 C 0.51552 0.68638 0.85834 0.0
C362 C 0.48561 0.74746 0.87197 0.0
C363 C 0.47442 0.76225 0.85556 0.0
C364 C 0.48466 0.73945 0.84053 0.0
C365 C 0.50477 0.7015 0.84193 0.0
C366 C 0.44101 0.87359 0.83974 0.0
C367 C 0.39248 0.86048 0.84957 0.0
C368 C 0.4687 0.84262 0.84197 0.0
C369 C 0.44853 0.79834 0.85414 0.0
C370 C 0.40124 0.78641 0.86434 0.0
C371 C 0.37333 0.81701 0.86201 0.0
H372 H 0.40516 0.39521 0.84119 0.0
H373 H 0.57122 0.41081 0.84364 0.0
H374 H 0.36035 0.29124 0.83892 0.0
H375 H 0.52599 0.30637 0.8419 0.0
H376 H 0.40171 0.11943 0.86505 0.0
H377 H 0.44721 0.2241 0.86539 0.0
H378 H 0.37021 0.21782 0.81556 0.0
H379 H 0.32572 0.11363 0.81507 0.0
C380 C 0.43202 0.37635 0.84097 0.0
C381 C 0.49157 0.4108 0.84247 0.0
C382 C 0.40642 0.31708 0.83975 0.0
C383 C 0.43988 0.29129 0.84046 0.0
C384 C 0.4995 0.32564 0.84148 0.0
C385 C 0.52528 0.38515 0.84226 0.0
C386 C 0.3939 0.14052 0.85436 0.0
C387 C 0.35986 0.10884 0.84014 0.0
C388 C 0.42041 0.20014 0.85443 0.0
C389 C 0.41226 0.22852 0.84043 0.0
C390 C 0.37706 0.19667 0.82645 0.0
C391 C 0.35166 0.13733 0.8262 0.0
H392 H 0.11374 0.55907 0.98228 0.0
H393 H 0.00925 0.43528 0.02082 0.0
H394 H 0.1646 0.50816 0.97758 0.0
H395 H 0.05837 0.38255 0.01558 0.0
H396 H 0.24092 0.4 0.96732 0.0
H397 H 0.16908 0.42849 0.96774 0.0
H398 H 0.14855 0.39645 0.02302 0.0
H399 H 0.21849 0.36612 0.02237 0.0
C400 C 0.10042 0.51999 0.98937 0.0
C401 C 0.05794 0.50169 1.00208 0.0
C402 C 0.12953 0.49047 0.98664 0.0
C403 C 0.11629 0.44146 0.99638 0.0
C404 C 0.07081 0.42088 0.00816 0.0
C405 C 0.04226 0.45086 0.01106 0.0
C406 C 0.22016 0.39803 0.97949 0.0
C407 C 0.2355 0.38084 0.99483 0.0
C408 C 0.17923 0.41475 0.97976 0.0
C409 C 0.15322 0.41547 0.99544 0.0
C410 C 0.16679 0.3957 0.01062 0.0
C411 C 0.20718 0.37831 0.01029 0.0
H412 H 0.57068 0.20708 0.17108 0.0
H413 H 0.57701 0.06712 0.14686 0.0
H414 H 0.67507 0.26216 0.17244 0.0
H415 H 0.68127 0.12207 0.14797 0.0
H416 H 0.87167 0.26249 0.14298 0.0
H417 H 0.76897 0.21208 0.13788 0.0
H418 H 0.74328 0.24392 0.19116 0.0
H419 H 0.84689 0.29488 0.19627 0.0
C420 C 0.59461 0.18943 0.16521 0.0
C421 C 0.56626 0.1336 0.15849 0.0
C422 C 0.65414 0.22029 0.16636 0.0
C423 C 0.68606 0.19583 0.16065 0.0
C424 C 0.6577 0.14193 0.15249 0.0
C425 C 0.59817 0.11082 0.15158 0.0
C426 C 0.84401 0.25804 0.15369 0.0
C427 C 0.86703 0.28227 0.17006 0.0
C428 C 0.78531 0.22932 0.15073 0.0
C429 C 0.74831 0.22487 0.16402 0.0
C430 C 0.7711 0.24765 0.18059 0.0
C431 C 0.8301 0.27588 0.18362 0.0
H432 H 0.49365 0.55835 0.36634 0.0
H433 H 0.38103 0.55499 0.32583 0.0
H434 H 0.53728 0.66175 0.36865 0.0
H435 H 0.42676 0.65799 0.32736 0.0
H436 H 0.46126 0.82455 0.34688 0.0
H437 H 0.424 0.72216 0.34836 0.0
H438 H 0.59578 0.75297 0.35394 0.0
H439 H 0.6327 0.85619 0.35313 0.0
C440 C 0.47906 0.57974 0.35764 0.0
C441 C 0.43382 0.54838 0.34583 0.0
C442 C 0.50423 0.63895 0.35895 0.0
C443 C 0.48468 0.66776 0.34844 0.0
C444 C 0.44176 0.63674 0.33596 0.0
C445 C 0.41627 0.57765 0.33479 0.0
C446 C 0.49074 0.80924 0.3489 0.0
C447 C 0.54955 0.8475 0.34984 0.0
C448 C 0.46964 0.75081 0.34952 0.0
C449 C 0.50716 0.72963 0.35068 0.0
C450 C 0.56592 0.76816 0.35294 0.0
C451 C 0.58704 0.82702 0.35257 0.0
H452 H 0.91564 0.50523 0.53092 0.0
H453 H 0.79304 0.38251 0.49426 0.0
H454 H 0.85491 0.54573 0.5352 0.0
H455 H 0.73283 0.42438 0.4983 0.0
H456 H 0.61163 0.46961 0.52217 0.0
H457 H 0.67458 0.42966 0.52256 0.0
H458 H 0.82082 0.59984 0.51809 0.0
H459 H 0.75765 0.63933 0.51792 0.0
C460 C 0.87595 0.48726 0.52363 0.0
C461 C 0.85876 0.44042 0.51233 0.0
C462 C 0.84135 0.51055 0.5261 0.0
C463 C 0.78904 0.48749 0.5173 0.0
C464 C 0.77259 0.44196 0.50553 0.0
C465 C 0.80732 0.41858 0.50302 0.0
C466 C 0.65741 0.49826 0.52198 0.0
C467 C 0.68046 0.55725 0.52039 0.0
C468 C 0.69319 0.47557 0.52193 0.0
C469 C 0.7522 0.51175 0.52006 0.0
C470 C 0.77541 0.57117 0.51964 0.0
C471 C 0.73956 0.59378 0.51967 0.0
H472 H 0.42429 0.79353 0.65528 0.0
H473 H 0.42111 0.94905 0.66398 0.0
H474 H 0.3221 0.74258 0.64929 0.0
H475 H 0.3182 0.89759 0.65852 0.0
H476 H 0.14532 0.67493 0.62815 0.0
H477 H 0.24815 0.73857 0.62846 0.0
H478 H 0.23516 0.81976 0.67516 0.0
H479 H 0.13173 0.75653 0.67476 0.0
C480 C 0.4021 0.81721 0.65529 0.0
C481 C 0.43077 0.8754 0.65967 0.0
C482 C 0.3435 0.78799 0.65204 0.0
C483 C 0.31237 0.81627 0.65343 0.0
C484 C 0.34122 0.8748 0.65745 0.0
C485 C 0.39998 0.90415 0.66051 0.0
C486 C 0.16411 0.70689 0.63836 0.0
C487 C 0.13043 0.70993 0.65166 0.0
C488 C 0.22306 0.74311 0.63855 0.0
C489 C 0.24953 0.78348 0.65193 0.0
C490 C 0.2157 0.78898 0.66466 0.0
C491 C 0.15659 0.75243 0.66454 0.0
H492 H 0.47448 0.26753 0.96746 0.0
H493 H 0.29375 0.20398 0.96484 0.0
H494 H 0.46616 0.20881 0.94191 0.0
H495 H 0.28506 0.1455 0.93959 0.0
H496 H 0.2929 0.09529 0.88488 0.0
H497 H 0.3197 0.16703 0.90805 0.0
H498 H 0.4163 0.10161 0.9338 0.0
H499 H 0.3891 0.02999 0.91082 0.0
C500 C 0.43284 0.23958 0.96174 0.0
C501 C 0.38433 0.23822 0.96846 0.0
C502 C 0.42814 0.20668 0.94704 0.0
C503 C 0.3751 0.17338 0.93862 0.0
C504 C 0.32661 0.17145 0.94563 0.0
C505 C 0.33126 0.20368 0.96036 0.0
C506 C 0.32168 0.09791 0.89513 0.0
C507 C 0.33899 0.05735 0.89613 0.0
C508 C 0.33641 0.13832 0.90849 0.0
C509 C 0.36921 0.13906 0.92287 0.0
C510 C 0.39102 0.10203 0.92291 0.0
C511 C 0.37563 0.06123 0.90974 0.0
H512 H 0.19431 0.47611 0.13309 0.0
H513 H 0.11633 0.29396 0.13957 0.0
H514 H 0.25596 0.47402 0.11066 0.0
H515 H 0.17864 0.29169 0.11703 0.0
H516 H 0.316 0.30795 0.0803 0.0
H517 H 0.27825 0.32255 0.10756 0.0
H518 H 0.23671 0.43708 0.08101 0.0
H519 H 0.27399 0.42208 0.05407 0.0
C520 C 0.19074 0.43556 0.12982 0.0
C521 C 0.15051 0.38514 0.13815 0.0
C522 C 0.22617 0.43442 0.11696 0.0
C523 C 0.22223 0.38272 0.11195 0.0
C524 C 0.18343 0.33242 0.12074 0.0
C525 C 0.14775 0.33361 0.13367 0.0
C526 C 0.30126 0.33829 0.0806 0.0
C527 C 0.29921 0.36513 0.06524 0.0
C528 C 0.27864 0.34581 0.09609 0.0
C529 C 0.25406 0.38068 0.09647 0.0
C530 C 0.25587 0.4105 0.08131 0.0
C531 C 0.27769 0.40237 0.06586 0.0
H532 H 0.97139 0.33548 0.25304 0.0
H533 H 0.86388 0.21912 0.21275 0.0
H534 H 0.90241 0.27853 0.27478 0.0
H535 H 0.79187 0.16275 0.23462 0.0
H536 H 0.71739 0.03513 0.27971 0.0
H537 H 0.77872 0.09762 0.25679 0.0
H538 H 0.81649 0.24491 0.28841 0.0
H539 H 0.75716 0.18195 0.31148 0.0
C540 C 0.93175 0.29855 0.24876 0.0
C541 C 0.92318 0.28175 0.23116 0.0
C542 C 0.89181 0.26575 0.2613 0.0
C543 C 0.84141 0.21524 0.25665 0.0
C544 C 0.83074 0.20064 0.2388 0.0
C545 C 0.87137 0.23353 0.22616 0.0
C546 C 0.73967 0.08093 0.2818 0.0
C547 C 0.73379 0.10367 0.29756 0.0
C548 C 0.77412 0.11691 0.26854 0.0
C549 C 0.80273 0.17672 0.27055 0.0
C550 C 0.79627 0.19925 0.28637 0.0
C551 C 0.76247 0.16318 0.29971 0.0
H552 H 0.76318 0.94686 0.3912 0.0
H553 H 0.5824 0.88498 0.3902 0.0
H554 H 0.74966 0.88011 0.41434 0.0
H555 H 0.56867 0.81766 0.41347 0.0
H556 H 0.5846 0.77257 0.47079 0.0
H557 H 0.59604 0.83127 0.44528 0.0
H558 H 0.70596 0.77791 0.42209 0.0
H559 H 0.69506 0.72012 0.44774 0.0
C560 C 0.72026 0.91779 0.39561 0.0
C561 C 0.67385 0.92117 0.38887 0.0
C562 C 0.71253 0.8796 0.40892 0.0
C563 C 0.65824 0.84422 0.41597 0.0
C564 C 0.6112 0.84511 0.40851 0.0
C565 C 0.61889 0.88299 0.395 0.0
C566 C 0.61248 0.77483 0.46044 0.0
C567 C 0.64041 0.74334 0.46146 0.0
C568 C 0.61804 0.80736 0.44567 0.0
C569 C 0.65161 0.80897 0.43158 0.0
C570 C 0.68007 0.77789 0.43274 0.0
C571 C 0.67407 0.74502 0.44743 0.0
H572 H 0.62572 0.64528 0.58942 0.0
H573 H 0.73172 0.62985 0.55103 0.0
H574 H 0.6695 0.61702 0.61211 0.0
H575 H 0.77549 0.60101 0.57355 0.0
H576 H 0.81888 0.5128 0.61448 0.0
H577 H 0.75992 0.5272 0.59365 0.0
H578 H 0.75864 0.65295 0.62788 0.0
H579 H 0.81677 0.63708 0.64905 0.0
C580 C 0.65794 0.63504 0.58575 0.0
C581 C 0.67441 0.6386 0.56824 0.0
C582 C 0.68333 0.61918 0.59882 0.0
C583 C 0.72607 0.60648 0.59478 0.0
C584 C 0.74186 0.60918 0.5772 0.0
C585 C 0.71643 0.62518 0.56415 0.0
C586 C 0.80523 0.54286 0.61777 0.0
C587 C 0.82352 0.57451 0.63341 0.0
C588 C 0.77179 0.55154 0.60568 0.0
C589 C 0.75555 0.59232 0.60878 0.0
C590 C 0.77035 0.6212 0.62497 0.0
C591 C 0.80378 0.61218 0.63718 0.0
H592 H 0.16929 0.89318 0.7885 0.0
H593 H 0.12983 0.74776 0.82046 0.0
H594 H 0.1194 0.82989 0.76395 0.0
H595 H 0.07917 0.68364 0.79562 0.0
H596 H 0.96373 0.61423 0.73898 0.0
H597 H -0.0092 0.66008 0.76792 0.0
H598 H 0.16431 0.76433 0.75087 0.0
H599 H 0.13814 0.71913 0.72235 0.0
C600 C 0.14757 0.84743 0.79051 0.0
C601 C 0.15307 0.82554 0.80648 0.0
C602 C 0.11947 0.81117 0.77638 0.0
C603 C 0.09602 0.75187 0.77778 0.0
C604 C 0.09666 0.72918 0.79418 0.0
C605 C 0.12515 0.76583 0.80845 0.0
C606 C 0.00793 0.64585 0.74155 0.0
C607 C 0.04848 0.66353 0.72812 0.0
C608 C 0.02332 0.67217 0.75813 0.0
C609 C 0.07948 0.71653 0.76153 0.0
C610 C 0.12053 0.73093 0.74855 0.0
C611 C 0.10542 0.70467 0.73218 0.0
H612 H 0.74285 0.55772 0.87765 0.0
H613 H 0.65183 0.59806 0.91549 0.0
H614 H 0.81015 0.56545 0.9005 0.0
H615 H 0.71806 0.60516 0.9382 0.0
H616 H 0.89105 0.67695 0.96843 0.0
H617 H 0.82072 0.66788 0.94665 0.0
H618 H 0.80762 0.51195 0.92755 0.0
H619 H 0.8768 0.52043 0.94953 0.0
C620 C 0.73758 0.56866 0.89078 0.0
C621 C 0.69239 0.57758 0.89476 0.0
C622 C 0.77562 0.57255 0.9039 0.0
C623 C 0.76934 0.58588 0.92119 0.0
C624 C 0.72441 0.59532 0.92503 0.0
C625 C 0.68626 0.59085 0.91202 0.0
C626 C 0.87144 0.63963 0.96003 0.0
C627 C 0.8883 0.59862 0.96101 0.0
C628 C 0.83177 0.6348 0.94739 0.0
C629 C 0.80905 0.58947 0.93525 0.0
C630 C 0.82495 0.54779 0.93653 0.0
C631 C 0.86401 0.5523 0.94926 0.0
H632 H 0.10837 0.81796 0.04293 0.0
H633 H 0.17863 0.71102 0.05505 0.0
H634 H 0.16064 0.88019 0.06756 0.0
H635 H 0.23321 0.77411 0.07909 0.0
H636 H 0.264 0.85212 0.13372 0.0
H637 H 0.22114 0.7959 0.10732 0.0
H638 H 0.24431 0.94708 0.08127 0.0
H639 H 0.28388 0.00166 0.10775 0.0
C640 C 0.13693 0.80921 0.05044 0.0
C641 C 0.13995 0.76008 0.04696 0.0
C642 C 0.16682 0.84466 0.06469 0.0
C643 C 0.20087 0.83205 0.07571 0.0
C644 C 0.20641 0.78469 0.07139 0.0
C645 C 0.17592 0.74897 0.05736 0.0
C646 C 0.25938 0.8731 0.12243 0.0
C647 C 0.2759 0.93115 0.12317 0.0
C648 C 0.23536 0.84102 0.10711 0.0
C649 C 0.22842 0.86648 0.09196 0.0
C650 C 0.24706 0.92511 0.09264 0.0
C651 C 0.27006 0.9567 0.10797 0.0
H652 H 0.3451 0.03045 0.23951 0.0
H653 H 0.38666 0.17853 0.20862 0.0
H654 H 0.32773 0.07491 0.26467 0.0
H655 H 0.36921 0.22335 0.23378 0.0
H656 H 0.39335 0.30982 0.28693 0.0
H657 H 0.41545 0.26165 0.26386 0.0
H658 H 0.25669 0.10599 0.27343 0.0
H659 H 0.23445 0.15463 0.29627 0.0
C660 C 0.3497 0.07227 0.23806 0.0
C661 C 0.36581 0.10052 0.222 0.0
C662 C 0.33988 0.09774 0.25246 0.0
C663 C 0.34732 0.15275 0.25127 0.0
C664 C 0.36348 0.18106 0.23516 0.0
C665 C 0.37237 0.15507 0.22065 0.0
C666 C 0.36433 0.26473 0.28454 0.0
C667 C 0.31291 0.23549 0.2937 0.0
C668 C 0.37643 0.23744 0.27112 0.0
C669 C 0.33751 0.18017 0.26668 0.0
C670 C 0.28766 0.15003 0.27657 0.0
C671 C 0.27514 0.17764 0.28976 0.0
H672 H 0.21417 0.28708 0.39973 0.0
H673 H 0.14828 0.36426 0.36473 0.0
H674 H 0.14725 0.27943 0.42193 0.0
H675 H 0.07905 0.3545 0.38694 0.0
H676 H 0.93453 0.27239 0.43088 0.0
H677 H -0.00684 0.2759 0.40633 0.0
H678 H 0.14342 0.36038 0.439 0.0
H679 H 0.08504 0.35782 0.46341 0.0
C680 C 0.18416 0.30097 0.3966 0.0
C681 C 0.18595 0.32548 0.38036 0.0
C682 C 0.14616 0.29698 0.40939 0.0
C683 C 0.10846 0.31705 0.40628 0.0
C684 C 0.10761 0.33855 0.38968 0.0
C685 C 0.14659 0.34338 0.37687 0.0
C686 C 0.98011 0.29185 0.43283 0.0
C687 C 0.0051 0.31431 0.44922 0.0
C688 C 0.01364 0.29413 0.41871 0.0
C689 C 0.07276 0.31796 0.42076 0.0
C690 C 0.09782 0.34117 0.43707 0.0
C691 C 0.06446 0.33984 0.45107 0.0
H692 H 0.93918 0.26268 0.57013 0.0
H693 H 0.80154 0.17443 0.53304 0.0
H694 H 0.88107 0.19647 0.59274 0.0
H695 H 0.7423 0.10947 0.55577 0.0
H696 H 0.67166 0.9677 0.5953 0.0
H697 H 0.7281 0.03413 0.57311 0.0
H698 H 0.80239 0.17011 0.61139 0.0
H699 H 0.7467 0.10151 0.63416 0.0
C700 C 0.89655 0.22869 0.56677 0.0
C701 C 0.87519 0.22345 0.54972 0.0
C702 C 0.86283 0.19122 0.57984 0.0
C703 C 0.8065 0.14775 0.57628 0.0
C704 C 0.78564 0.14181 0.55907 0.0
C705 C 0.81969 0.17893 0.54594 0.0
C706 C 0.69971 0.01179 0.59916 0.0
C707 C 0.70491 0.02895 0.61672 0.0
C708 C 0.732 0.05029 0.58624 0.0
C709 C 0.77024 0.10782 0.59028 0.0
C710 C 0.77416 0.12586 0.60777 0.0
C711 C 0.74186 0.08677 0.62086 0.0
H712 H 0.62657 0.65166 0.78217 0.0
H713 H 0.56349 0.75223 0.80639 0.0
H714 H 0.62335 0.6914 0.75365 0.0
H715 H 0.56049 0.79147 0.77847 0.0
H716 H 0.51537 0.82328 0.72657 0.0
H717 H 0.5098 0.76499 0.75112 0.0
H718 H 0.67437 0.78781 0.7382 0.0
H719 H 0.67935 0.84604 0.713 0.0
C720 C 0.61052 0.68087 0.78134 0.0
C721 C 0.59439 0.6981 0.7965 0.0
C722 C 0.6095 0.70428 0.76508 0.0
C723 C 0.59149 0.74457 0.76371 0.0
C724 C 0.5737 0.75994 0.77888 0.0
C725 C 0.57532 0.73728 0.79497 0.0
C726 C 0.55042 0.81576 0.72883 0.0
C727 C 0.59829 0.84017 0.71795 0.0
C728 C 0.54716 0.78219 0.74296 0.0
C729 C 0.59204 0.77243 0.74689 0.0
C730 C 0.63891 0.79431 0.73552 0.0
C731 C 0.64192 0.8278 0.72112 0.0
H732 H 0.45182 0.05873 0.10598 0.0
H733 H 0.49196 0.22704 0.12212 0.0
H734 H 0.45819 0.08671 0.07564 0.0
H735 H 0.5001 0.25585 0.09187 0.0
H736 H 0.47195 0.28498 0.03685 0.0
H737 H 0.52484 0.26176 0.05816 0.0
H738 H 0.3711 0.1023 0.06891 0.0
H739 H 0.31836 0.12671 0.04828 0.0
C740 C 0.46704 0.10322 0.10311 0.0
C741 C 0.46922 0.14013 0.11633 0.0
C742 C 0.46969 0.11896 0.08566 0.0
C743 C 0.47748 0.17277 0.08142 0.0
C744 C 0.49338 0.21382 0.09473 0.0
C745 C 0.48958 0.19756 0.11216 0.0
C746 C 0.45031 0.24392 0.04325 0.0
C747 C 0.39126 0.2074 0.04097 0.0
C748 C 0.4805 0.23077 0.05546 0.0
C749 C 0.45226 0.18012 0.06512 0.0
C750 C 0.39436 0.14119 0.06146 0.0
C751 C 0.36398 0.15512 0.0497 0.0
H752 H 0.15987 0.51351 0.23245 0.0
H753 H 0.26628 0.45321 0.2112 0.0
H754 H 0.23181 0.56619 0.25502 0.0
H755 H 0.33624 0.50249 0.23362 0.0
H756 H 0.42521 0.5222 0.27768 0.0
H757 H 0.40075 0.56252 0.25315 0.0
H758 H 0.24872 0.53226 0.28005 0.0
H759 H 0.2771 0.4985 0.30496 0.0
C760 C 0.19959 0.51328 0.23224 0.0
C761 C 0.20699 0.47802 0.22048 0.0
C762 C 0.24069 0.54288 0.24531 0.0
C763 C 0.28929 0.53696 0.24686 0.0
C764 C 0.29983 0.50846 0.23331 0.0
C765 C 0.25917 0.47937 0.22035 0.0
C766 C 0.38892 0.5283 0.27876 0.0
C767 C 0.35215 0.50585 0.29295 0.0
C768 C 0.37389 0.55011 0.26452 0.0
C769 C 0.32017 0.54634 0.26391 0.0
C770 C 0.2896 0.53461 0.27957 0.0
C771 C 0.30608 0.51528 0.29408 0.0
H772 H 0.6882 0.21094 0.37953 0.0
H773 H 0.55718 0.08317 0.41177 0.0
H774 H 0.72294 0.27732 0.40371 0.0
H775 H 0.58779 0.15136 0.43579 0.0
H776 H 0.73852 0.20684 0.47432 0.0
H777 H 0.66297 0.16906 0.45294 0.0
H778 H 0.74107 0.33398 0.42778 0.0
H779 H 0.81896 0.37062 0.44925 0.0
C780 C 0.66401 0.19855 0.39147 0.0
C781 C 0.6209 0.14164 0.39393 0.0
C782 C 0.68424 0.23676 0.40555 0.0
C783 C 0.66042 0.21894 0.4222 0.0
C784 C 0.60946 0.16573 0.42348 0.0
C785 C 0.59076 0.12683 0.40958 0.0
C786 C 0.7381 0.23564 0.46466 0.0
C787 C 0.78428 0.29143 0.46339 0.0
C788 C 0.69438 0.21407 0.45227 0.0
C789 C 0.69576 0.24781 0.43814 0.0
C790 C 0.73898 0.30603 0.43812 0.0
C791 C 0.78328 0.32751 0.45056 0.0
H792 H 0.48871 0.77852 0.54333 0.0
H793 H 0.446 0.60673 0.55583 0.0
H794 H 0.45359 0.78781 0.57098 0.0
H795 H 0.40597 0.61375 0.58332 0.0
H796 H 0.50564 0.70341 0.63388 0.0
H797 H 0.45968 0.65582 0.60717 0.0
H798 H 0.41545 0.78558 0.59694 0.0
H799 H 0.46679 0.83606 0.62322 0.0
C800 C 0.46859 0.74138 0.55165 0.0
C801 C 0.47268 0.69302 0.54782 0.0
C802 C 0.44802 0.74652 0.56771 0.0
C803 C 0.43029 0.70284 0.58016 0.0
C804 C 0.42271 0.64978 0.57459 0.0
C805 C 0.44463 0.64516 0.55861 0.0
C806 C 0.48475 0.72102 0.62617 0.0
C807 C 0.49168 0.77453 0.63036 0.0
C808 C 0.4575 0.69322 0.61073 0.0
C809 C 0.43589 0.71804 0.59915 0.0
C810 C 0.4341 0.76648 0.60497 0.0
C811 C 0.46276 0.79513 0.62027 0.0
H812 H 0.82319 0.5945 0.7157 0.0
H813 H 0.96715 0.7427 0.73894 0.0
H814 H 0.76548 0.58591 0.7411 0.0
H815 H 0.91161 0.73235 0.76457 0.0
H816 H 0.78834 0.74438 0.79941 0.0
H817 H 0.83966 0.74789 0.77344 0.0
H818 H 0.74773 0.56322 0.77099 0.0
H819 H 0.6935 0.56015 0.7967 0.0
C820 C 0.84251 0.62482 0.72632 0.0
C821 C 0.89919 0.66979 0.72526 0.0
C822 C 0.8097 0.61975 0.74093 0.0
C823 C 0.83347 0.65894 0.75486 0.0
C824 C 0.891 0.70253 0.75391 0.0
C825 C 0.92309 0.70836 0.73922 0.0
C826 C 0.7791 0.70445 0.79337 0.0
C827 C 0.73742 0.65193 0.8002 0.0
C828 C 0.80886 0.7064 0.77849 0.0
C829 C 0.79884 0.65582 0.77021 0.0
C830 C 0.75641 0.60308 0.77692 0.0
C831 C 0.72561 0.60121 0.79171 0.0
H832 H 0.20324 0.8117 0.98235 0.0
H833 H 0.22213 0.66369 0.97906 0.0
H834 H 0.26271 0.85136 0.95681 0.0
H835 H 0.28143 0.70306 0.95343 0.0
H836 H 0.21492 0.72378 0.89635 0.0
H837 H 0.22247 0.70241 0.92666 0.0
H838 H 0.34919 0.87922 0.93595 0.0
H839 H 0.34337 0.89994 0.90526 0.0
C840 C 0.22347 0.78953 0.97699 0.0
C841 C 0.20665 0.73385 0.9824 0.0
C842 C 0.25726 0.81204 0.96216 0.0
C843 C 0.27505 0.77928 0.95275 0.0
C844 C 0.26745 0.72877 0.96022 0.0
C845 C 0.23411 0.7066 0.9751 0.0
C846 C 0.24689 0.75727 0.9046 0.0
C847 C 0.27856 0.81335 0.89845 0.0
C848 C 0.25115 0.74522 0.92203 0.0
C849 C 0.28607 0.78934 0.93377 0.0
C850 C 0.32196 0.84443 0.92722 0.0
C851 C 0.31893 0.85611 0.90961 0.0
H852 H 0.31677 0.13795 1.00008 0.0
H853 H 0.15268 0.12045 0.9891 0.0
H854 H 0.2758 0.03527 0.99532 0.0
H855 H 0.11188 0.01819 0.98435 0.0
H856 H 0.06495 0.83941 0.96575 0.0
H857 H 0.11297 0.94365 0.96583 0.0
H858 H 0.20573 0.94961 0.01235 0.0
H859 H 0.15805 0.84546 0.01221 0.0
C860 C 0.27235 0.1125 0.99623 0.0
C861 C 0.23789 0.13732 0.99505 0.0
C862 C 0.24873 0.05358 0.99369 0.0
C863 C 0.19038 0.01841 0.98969 0.0
C864 C 0.15696 0.04398 0.98737 0.0
C865 C 0.18036 0.10264 0.99011 0.0
C866 C 0.0956 0.86295 0.976 0.0
C867 C 0.10726 0.83402 0.98907 0.0
C868 C 0.12309 0.92269 0.97604 0.0
C869 C 0.16336 0.95501 0.98905 0.0
C870 C 0.17549 0.92607 1.00201 0.0
C871 C 0.14759 0.86631 1.00206 0.0
H872 H 0.31865 0.16554 0.18742 0.0
H873 H 0.2088 0.05204 0.1469 0.0
H874 H 0.26168 0.21246 0.18807 0.0
H875 H 0.15187 0.09845 0.14762 0.0
H876 H 0.03367 0.15351 0.17876 0.0
H877 H 0.08913 0.10699 0.17295 0.0
H878 H 0.23889 0.27173 0.16427 0.0
H879 H 0.18337 0.31814 0.16986 0.0
C880 C 0.28219 0.1505 0.17882 0.0
C881 C 0.26798 0.10552 0.16715 0.0
C882 C 0.25014 0.17756 0.17901 0.0
C883 C 0.20304 0.1591 0.16774 0.0
C884 C 0.18824 0.1134 0.15632 0.0
C885 C 0.22079 0.0871 0.15593 0.0
C886 C 0.07791 0.17938 0.17499 0.0
C887 C 0.10432 0.23905 0.17449 0.0
C888 C 0.10954 0.15297 0.17177 0.0
C889 C 0.1681 0.18616 0.16841 0.0
C890 C 0.19378 0.2456 0.16698 0.0
C891 C 0.16195 0.27191 0.16993 0.0
H892 H 0.1107 0.2574 0.34715 0.0
H893 H 0.11389 0.37301 0.30797 0.0
H894 H 0.00874 0.22024 0.35118 0.0
H895 H 0.01139 0.33475 0.31192 0.0
H896 H 0.82361 0.1214 0.32403 0.0
H897 H 0.92363 0.17906 0.31571 0.0
H898 H 0.94674 0.31042 0.35208 0.0
H899 H 0.84639 0.25348 0.3603 0.0
C900 C 0.08986 0.27558 0.33969 0.0
C901 C 0.11992 0.31829 0.32739 0.0
C902 C 0.03181 0.25412 0.34189 0.0
C903 C 0.00334 0.27494 0.33176 0.0
C904 C 0.03325 0.31855 0.31979 0.0
C905 C 0.09143 0.34014 0.31759 0.0
C906 C 0.84932 0.1636 0.32969 0.0
C907 C 0.82765 0.18315 0.3428 0.0
C908 C 0.90631 0.19626 0.32498 0.0
C909 C 0.94179 0.24853 0.33336 0.0
C910 C 0.91936 0.27021 0.34546 0.0
C911 C 0.86236 0.23763 0.35016 0.0
H912 H 0.87331 0.14385 0.51746 0.0
H913 H 0.81338 0.12449 0.46427 0.0
H914 H 0.83997 0.04237 0.51858 0.0
H915 H 0.78137 0.02284 0.46525 0.0
H916 H 0.65536 0.84204 0.49028 0.0
H917 H 0.70422 0.94099 0.48092 0.0
H918 H 0.8584 0.9691 0.50657 0.0
H919 H 0.80897 0.8695 0.51584 0.0
C920 C 0.85317 0.11795 0.50599 0.0
C921 C 0.84553 0.14197 0.49083 0.0
C922 C 0.83497 0.06001 0.50653 0.0
C923 C 0.80888 0.02498 0.4919 0.0
C924 C 0.80153 0.04902 0.47668 0.0
C925 C 0.81981 0.10713 0.47614 0.0
C926 C 0.70047 0.86848 0.49301 0.0
C927 C 0.72868 0.84841 0.50358 0.0
C928 C 0.7284 0.92534 0.48783 0.0
C929 C 0.78477 0.9628 0.4933 0.0
C930 C 0.81456 0.94119 0.50247 0.0
C931 C 0.78653 0.88436 0.50767 0.0
H932 H 0.95494 0.80144 0.65363 0.0
H933 H 0.83985 0.66304 0.68678 0.0
H934 H 0.90229 0.85046 0.65956 0.0
H935 H 0.79077 0.71352 0.69393 0.0
H936 H 0.66971 0.7815 0.68161 0.0
H937 H 0.72666 0.73585 0.68271 0.0
H938 H 0.88053 0.90137 0.67924 0.0
H939 H 0.82228 0.94598 0.67684 0.0
C940 C 0.91867 0.78178 0.66225 0.0
C941 C 0.90114 0.72819 0.66951 0.0
C942 C 0.88899 0.81019 0.66593 0.0
C943 C 0.84219 0.78624 0.67737 0.0
C944 C 0.82564 0.73299 0.68482 0.0
C945 C 0.85408 0.70401 0.68073 0.0
C946 C 0.71578 0.8081 0.68189 0.0
C947 C 0.74186 0.86698 0.6792 0.0
C948 C 0.74874 0.78202 0.68239 0.0
C949 C 0.80847 0.81472 0.68054 0.0
C950 C 0.83464 0.87459 0.68003 0.0
C951 C 0.8015 0.90041 0.6791 0.0
H952 H 0.0648 0.80146 0.84008 0.0
H953 H 0.08548 0.93931 0.87332 0.0
H954 H 0.96108 0.75751 0.842 0.0
H955 H -0.01639 0.89427 0.87629 0.0
H956 H 0.79345 0.81674 0.87006 0.0
H957 H 0.89522 0.8671 0.86531 0.0
H958 H 0.89184 0.70612 0.86321 0.0
H959 H 0.78917 0.65575 0.86644 0.0
C960 C 0.04718 0.82294 0.84743 0.0
C961 C 0.08293 0.87321 0.85674 0.0
C962 C -0.0121 0.79729 0.84887 0.0
C963 C 0.96387 0.82142 0.85975 0.0
C964 C 8e-05 0.87426 0.86779 0.0
C965 C 0.05878 0.90011 0.86613 0.0
C966 C 0.81449 0.79201 0.86902 0.0
C967 C 0.78293 0.73202 0.8687 0.0
C968 C 0.87311 0.821 0.86618 0.0
C969 C 0.90184 0.79072 0.86347 0.0
C970 C 0.87093 0.73086 0.86464 0.0
C971 C 0.8121 0.70186 0.86706 0.0
loop_
_geom_bond_atom_site_label_1
_geom_bond_atom_site_label_2
_geom_bond_distance
_geom_bond_site_symmetry_2
_ccdc_geom_bond_type
Zn0 O6 1.920 . S
Zn0 O12 1.898 . S
Zn0 O15 1.905 . S
Zn1 O9 1.905 . S
Zn1 O10 1.898 . S
Zn1 O18 1.920 . S
Zn2 O5 2.080 . S
Zn2 O8 2.114 . S
Zn2 O11 2.120 . S
Zn2 O13 2.120 . S
Zn2 O14 2.114 1_554 S
Zn2 O17 2.080 . S
C3 O8 1.166 . S
C3 O9 1.182 . S
C4 O10 1.167 . S
C4 O11 1.299 . S
O5 Zn2 2.080 . S
O5 C19 1.305 1_554 S
O6 Zn0 1.920 . S
O6 C19 1.234 . S
C7 O12 1.167 1_554 S
C7 O13 1.299 . S
O8 Zn2 2.114 . S
O8 C3 1.166 . S
O9 Zn1 1.905 . S
O9 C3 1.182 . S
O10 Zn1 1.898 . S
O10 C4 1.167 . S
O11 Zn2 2.120 . S
O11 C4 1.299 . S
O12 Zn0 1.898 . S
O12 C7 1.167 1_556 S
O13 Zn2 2.120 . S
O13 C7 1.299 . S
O14 Zn2 2.114 1_556 S
O14 C16 1.166 . S
O15 Zn0 1.905 . S
O15 C16 1.182 . S
C16 O14 1.166 . S
C16 O15 1.182 . S
O17 Zn2 2.080 . S
O17 C20 1.305 . S
O18 Zn1 1.920 . S
O18 C20 1.234 . S
C19 O5 1.305 1_556 S
C19 O6 1.234 . S
C20 O17 1.305 . S
C20 O18 1.234 . S
Zn21 O27 1.920 1_455 S
Zn21 O33 1.898 . S
Zn21 O36 1.905 . S
Zn22 O30 1.905 . S
Zn22 O31 1.898 . S
Zn22 O39 1.920 . S
Zn23 O26 2.080 . S
Zn23 O29 2.114 1_655 S
Zn23 O32 2.120 . S
Zn23 O34 2.120 . S
Zn23 O35 2.114 1_655 S
Zn23 O38 2.080 . S
C24 O29 1.166 . S
C24 O30 1.182 1_455 S
C25 O31 1.167 . S
C25 O32 1.299 . S
O26 Zn23 2.080 . S
O26 C40 1.305 . S
O27 Zn21 1.920 1_655 S
O27 C40 1.234 . S
C28 O33 1.172 . S
C28 O34 1.289 1_455 S
O29 Zn23 2.114 1_455 S
O29 C24 1.166 . S
O30 Zn22 1.905 . S
O30 C24 1.182 1_655 S
O31 Zn22 1.898 . S
O31 C25 1.167 . S
O32 Zn23 2.120 . S
O32 C25 1.299 . S
O33 Zn21 1.898 . S
O33 C28 1.172 . S
O34 Zn23 2.120 . S
O34 C28 1.289 1_655 S
O35 Zn23 2.114 1_455 S
O35 C37 1.166 . S
O36 Zn21 1.905 . S
O36 C37 1.182 . S
C37 O35 1.166 . S
C37 O36 1.182 . S
O38 Zn23 2.080 . S
O38 C41 1.305 . S
O39 Zn22 1.920 . S
O39 C41 1.234 . S
C40 O26 1.305 . S
C40 O27 1.234 . S
C41 O38 1.305 . S
C41 O39 1.234 . S
Zn42 O48 1.920 . S
Zn42 O54 1.898 . S
Zn42 O57 1.905 . S
Zn43 O51 1.905 . S
Zn43 O52 1.898 . S
Zn43 O60 1.920 1_545 S
Zn44 O47 2.080 . S
Zn44 O50 2.114 1_565 S
Zn44 O53 2.120 . S
Zn44 O55 2.120 . S
Zn44 O56 2.114 1_565 S
Zn44 O59 2.080 . S
C45 O50 1.166 . S
C45 O51 1.182 . S
C46 O52 1.167 . S
C46 O53 1.299 1_545 S
O47 Zn44 2.080 . S
O47 C61 1.305 . S
O48 Zn42 1.920 . S
O48 C61 1.234 . S
C49 O54 1.167 . S
C49 O55 1.299 . S
O50 Zn44 2.114 1_545 S
O50 C45 1.166 . S
O51 Zn43 1.905 . S
O51 C45 1.182 . S
O52 Zn43 1.898 . S
O52 C46 1.167 . S
O53 Zn44 2.120 . S
O53 C46 1.299 1_565 S
O54 Zn42 1.898 . S
O54 C49 1.167 . S
O55 Zn44 2.120 . S
O55 C49 1.299 . S
O56 Zn44 2.114 1_545 S
O56 C58 1.166 . S
O57 Zn42 1.905 . S
O57 C58 1.182 1_565 S
C58 O56 1.166 . S
C58 O57 1.182 1_545 S
O59 Zn44 2.080 . S
O59 C62 1.305 . S
O60 Zn43 1.920 1_565 S
O60 C62 1.234 . S
C61 O47 1.305 . S
C61 O48 1.234 . S
C62 O59 1.305 . S
C62 O60 1.234 . S
Zn63 O69 1.920 . S
Zn63 O75 1.898 . S
Zn63 O78 1.905 . S
Zn64 O72 1.905 . S
Zn64 O73 1.898 . S
Zn64 O81 1.920 . S
Zn65 O68 2.080 . S
Zn65 O71 2.114 . S
Zn65 O74 2.120 . S
Zn65 O76 2.120 . S
Zn65 O77 2.114 . S
Zn65 O80 2.080 . S
C66 O71 1.166 . S
C66 O72 1.182 . S
C67 O73 1.167 . S
C67 O74 1.299 . S
O68 Zn65 2.080 . S
O68 C82 1.305 . S
O69 Zn63 1.920 . S
O69 C82 1.234 . S
C70 O75 1.167 . S
C70 O76 1.299 . S
O71 Zn65 2.114 . S
O71 C66 1.166 . S
O72 Zn64 1.905 . S
O72 C66 1.182 . S
O73 Zn64 1.898 . S
O73 C67 1.167 . S
O74 Zn65 2.120 . S
O74 C67 1.299 . S
O75 Zn63 1.898 . S
O75 C70 1.167 . S
O76 Zn65 2.120 . S
O76 C70 1.299 . S
O77 Zn65 2.114 . S
O77 C79 1.166 . S
O78 Zn63 1.905 . S
O78 C79 1.182 . S
C79 O77 1.166 . S
C79 O78 1.182 . S
O80 Zn65 2.080 . S
O80 C83 1.305 . S
O81 Zn64 1.920 . S
O81 C83 1.234 . S
C82 O68 1.305 . S
C82 O69 1.234 . S
C83 O80 1.305 . S
C83 O81 1.234 . S
Zn84 O90 1.920 . S
Zn84 O96 1.898 . S
Zn84 O99 1.905 . S
Zn85 O93 1.905 . S
Zn85 O94 1.898 . S
Zn85 O102 1.920 1_655 S
Zn86 O89 2.080 . S
Zn86 O92 2.114 1_455 S
Zn86 O95 2.120 . S
Zn86 O97 2.120 . S
Zn86 O98 2.114 1_455 S
Zn86 O101 2.080 . S
C87 O92 1.166 . S
C87 O93 1.182 . S
C88 O94 1.170 . S
C88 O95 1.293 1_655 S
O89 Zn86 2.080 . S
O89 C103 1.305 . S
O90 Zn84 1.920 . S
O90 C103 1.234 . S
C91 O96 1.167 . S
C91 O97 1.299 . S
O92 Zn86 2.114 1_655 S
O92 C87 1.166 . S
O93 Zn85 1.905 . S
O93 C87 1.182 . S
O94 Zn85 1.898 . S
O94 C88 1.170 . S
O95 Zn86 2.120 . S
O95 C88 1.293 1_455 S
O96 Zn84 1.898 . S
O96 C91 1.167 . S
O97 Zn86 2.120 . S
O97 C91 1.299 . S
O98 Zn86 2.114 1_655 S
O98 C100 1.166 . S
O99 Zn84 1.905 . S
O99 C100 1.182 1_455 S
C100 O98 1.166 . S
C100 O99 1.182 1_655 S
O101 Zn86 2.080 . S
O101 C104 1.305 . S
O102 Zn85 1.920 1_455 S
O102 C104 1.234 . S
C103 O89 1.305 . S
C103 O90 1.234 . S
C104 O101 1.305 . S
C104 O102 1.234 . S
Zn105 O111 1.920 1_565 S
Zn105 O117 1.898 . S
Zn105 O120 1.905 . S
Zn106 O114 1.905 . S
Zn106 O115 1.898 . S
Zn106 O123 1.920 . S
Zn107 O110 2.080 . S
Zn107 O113 2.114 1_545 S
Zn107 O116 2.120 . S
Zn107 O118 2.120 . S
Zn107 O119 2.114 1_545 S
Zn107 O122 2.080 . S
C108 O113 1.166 . S
C108 O114 1.182 1_565 S
C109 O115 1.167 . S
C109 O116 1.299 . S
O110 Zn107 2.080 . S
O110 C124 1.305 . S
O111 Zn105 1.920 1_545 S
O111 C124 1.234 . S
C112 O117 1.167 1_545 S
C112 O118 1.299 . S
O113 Zn107 2.114 1_565 S
O113 C108 1.166 . S
O114 Zn106 1.905 . S
O114 C108 1.182 1_545 S
O115 Zn106 1.898 . S
O115 C109 1.167 . S
O116 Zn107 2.120 . S
O116 C109 1.299 . S
O117 Zn105 1.898 . S
O117 C112 1.167 1_565 S
O118 Zn107 2.120 . S
O118 C112 1.299 . S
O119 Zn107 2.114 1_565 S
O119 C121 1.166 . S
O120 Zn105 1.905 . S
O120 C121 1.182 . S
C121 O119 1.166 . S
C121 O120 1.182 . S
O122 Zn107 2.080 . S
O122 C125 1.305 . S
O123 Zn106 1.920 . S
O123 C125 1.234 . S
C124 O110 1.305 . S
C124 O111 1.234 . S
C125 O122 1.305 . S
C125 O123 1.234 . S
Zn126 O132 1.920 . S
Zn126 O138 1.898 . S
Zn126 O141 1.905 . S
Zn127 O135 1.905 . S
Zn127 O136 1.898 . S
Zn127 O144 1.920 . S
Zn128 O131 2.080 . S
Zn128 O134 2.114 . S
Zn128 O137 2.120 . S
Zn128 O139 2.120 . S
Zn128 O140 2.114 . S
Zn128 O143 2.080 . S
C129 O134 1.166 . S
C129 O135 1.182 . S
C130 O136 1.167 . S
C130 O137 1.299 . S
O131 Zn128 2.080 . S
O131 C145 1.305 . S
O132 Zn126 1.920 . S
O132 C145 1.234 . S
C133 O138 1.167 . S
C133 O139 1.299 . S
O134 Zn128 2.114 . S
O134 C129 1.166 . S
O135 Zn127 1.905 . S
O135 C129 1.182 . S
O136 Zn127 1.898 . S
O136 C130 1.167 . S
O137 Zn128 2.120 . S
O137 C130 1.299 . S
O138 Zn126 1.898 . S
O138 C133 1.167 . S
O139 Zn128 2.120 . S
O139 C133 1.299 . S
O140 Zn128 2.114 . S
O140 C142 1.166 . S
O141 Zn126 1.905 . S
O141 C142 1.182 . S
C142 O140 1.166 . S
C142 O141 1.182 . S
O143 Zn128 2.080 . S
O143 C146 1.305 . S
O144 Zn127 1.920 . S
O144 C146 1.234 . S
C145 O131 1.305 . S
C145 O132 1.234 . S
C146 O143 1.305 . S
C146 O144 1.234 . S
Zn147 O153 1.920 . S
Zn147 O159 1.898 . S
Zn147 O162 1.905 . S
Zn148 O156 1.905 . S
Zn148 O157 1.898 . S
Zn148 O165 1.920 1_455 S
Zn149 O152 2.088 . S
Zn149 O155 2.114 1_655 S
Zn149 O158 2.120 . S
Zn149 O160 2.120 . S
Zn149 O161 2.114 1_656 S
Zn149 O164 2.080 . S
C150 O155 1.166 . S
C150 O156 1.182 . S
C151 O157 1.169 . S
C151 O158 1.297 1_455 S
O152 Zn149 2.088 . S
O152 C166 1.301 1_556 S
O153 Zn147 1.920 . S
O153 C166 1.234 . S
C154 O159 1.167 1_556 S
C154 O160 1.299 . S
O155 Zn149 2.114 1_455 S
O155 C150 1.166 . S
O156 Zn148 1.905 . S
O156 C150 1.182 . S
O157 Zn148 1.898 . S
O157 C151 1.169 . S
O158 Zn149 2.120 . S
O158 C151 1.297 1_655 S
O159 Zn147 1.898 . S
O159 C154 1.167 1_554 S
O160 Zn149 2.120 . S
O160 C154 1.299 . S
O161 Zn149 2.114 1_454 S
O161 C163 1.166 . S
O162 Zn147 1.905 . S
O162 C163 1.182 1_655 S
C163 O161 1.166 . S
C163 O162 1.182 1_455 S
O164 Zn149 2.080 . S
O164 C167 1.305 . S
O165 Zn148 1.920 1_655 S
O165 C167 1.234 . S
C166 O152 1.301 1_554 S
C166 O153 1.234 . S
C167 O164 1.305 . S
C167 O165 1.234 . S
Zn168 O174 1.920 1_545 S
Zn168 O180 1.898 . S
Zn168 O183 1.905 . S
Zn169 O177 1.905 . S
Zn169 O178 1.898 . S
Zn169 O186 1.920 . S
Zn170 O173 2.080 . S
Zn170 O176 2.114 1_565 S
Zn170 O179 2.120 . S
Zn170 O181 2.120 . S
Zn170 O182 2.114 1_565 S
Zn170 O185 2.080 . S
C171 O176 1.166 . S
C171 O177 1.182 1_545 S
C172 O178 1.167 . S
C172 O179 1.299 . S
O173 Zn170 2.080 . S
O173 C187 1.305 . S
O174 Zn168 1.920 1_565 S
O174 C187 1.234 . S
C175 O180 1.167 . S
C175 O181 1.299 1_545 S
O176 Zn170 2.114 1_545 S
O176 C171 1.166 . S
O177 Zn169 1.905 . S
O177 C171 1.182 1_565 S
O178 Zn169 1.898 . S
O178 C172 1.167 . S
O179 Zn170 2.120 . S
O179 C172 1.299 . S
O180 Zn168 1.898 . S
O180 C175 1.167 . S
O181 Zn170 2.120 . S
O181 C175 1.299 1_565 S
O182 Zn170 2.114 1_545 S
O182 C184 1.166 . S
O183 Zn168 1.905 . S
O183 C184 1.182 . S
C184 O182 1.166 . S
C184 O183 1.182 . S
O185 Zn170 2.080 . S
O185 C188 1.305 . S
O186 Zn169 1.920 . S
O186 C188 1.234 . S
C187 O173 1.305 . S
C187 O174 1.234 . S
C188 O185 1.305 . S
C188 O186 1.234 . S
Zn189 O195 1.920 . S
Zn189 O201 1.898 . S
Zn189 O204 1.905 . S
Zn190 O198 1.905 . S
Zn190 O199 1.898 . S
Zn190 O207 1.920 . S
Zn191 O194 2.080 . S
Zn191 O197 2.114 . S
Zn191 O200 2.120 . S
Zn191 O202 2.120 . S
Zn191 O203 2.114 . S
Zn191 O206 2.080 . S
C192 O197 1.166 . S
C192 O198 1.182 . S
C193 O199 1.167 . S
C193 O200 1.299 . S
O194 Zn191 2.080 . S
O194 C208 1.305 . S
O195 Zn189 1.920 . S
O195 C208 1.234 . S
C196 O201 1.167 . S
C196 O202 1.299 . S
O197 Zn191 2.114 . S
O197 C192 1.166 . S
O198 Zn190 1.905 . S
O198 C192 1.182 . S
O199 Zn190 1.898 . S
O199 C193 1.167 . S
O200 Zn191 2.120 . S
O200 C193 1.299 . S
O201 Zn189 1.898 . S
O201 C196 1.167 . S
O202 Zn191 2.120 . S
O202 C196 1.299 . S
O203 Zn191 2.114 . S
O203 C205 1.166 . S
O204 Zn189 1.905 . S
O204 C205 1.182 . S
C205 O203 1.166 . S
C205 O204 1.182 . S
O206 Zn191 2.080 . S
O206 C209 1.305 . S
O207 Zn190 1.920 . S
O207 C209 1.234 . S
C208 O194 1.305 . S
C208 O195 1.234 . S
C209 O206 1.305 . S
C209 O207 1.234 . S
Zn210 O216 1.920 1_655 S
Zn210 O222 1.898 . S
Zn210 O225 1.905 . S
Zn211 O219 1.905 . S
Zn211 O220 1.898 . S
Zn211 O228 1.920 . S
Zn212 O215 2.080 . S
Zn212 O218 2.114 1_455 S
Zn212 O221 2.120 . S
Zn212 O223 2.120 . S
Zn212 O224 2.114 1_455 S
Zn212 O227 2.080 . S
C213 O218 1.166 . S
C213 O219 1.182 1_655 S
C214 O220 1.167 . S
C214 O221 1.299 . S
O215 Zn212 2.080 . S
O215 C229 1.305 . S
O216 Zn210 1.920 1_455 S
O216 C229 1.234 . S
C217 O222 1.168 . S
C217 O223 1.298 1_655 S
O218 Zn212 2.114 1_655 S
O218 C213 1.166 . S
O219 Zn211 1.905 . S
O219 C213 1.182 1_455 S
O220 Zn211 1.898 . S
O220 C214 1.167 . S
O221 Zn212 2.120 . S
O221 C214 1.299 . S
O222 Zn210 1.898 . S
O222 C217 1.168 . S
O223 Zn212 2.120 . S
O223 C217 1.298 1_455 S
O224 Zn212 2.114 1_655 S
O224 C226 1.166 . S
O225 Zn210 1.905 . S
O225 C226 1.182 . S
C226 O224 1.166 . S
C226 O225 1.182 . S
O227 Zn212 2.080 . S
O227 C230 1.305 . S
O228 Zn211 1.920 . S
O228 C230 1.234 . S
C229 O215 1.305 . S
C229 O216 1.234 . S
C230 O227 1.305 . S
C230 O228 1.234 . S
Zn231 O237 1.920 . S
Zn231 O243 1.898 . S
Zn231 O246 1.905 . S
Zn232 O240 1.905 . S
Zn232 O241 1.898 . S
Zn232 O249 1.920 1_565 S
Zn233 O236 2.080 . S
Zn233 O239 2.114 1_545 S
Zn233 O242 2.120 . S
Zn233 O244 2.120 . S
Zn233 O245 2.114 1_545 S
Zn233 O248 2.080 . S
C234 O239 1.166 . S
C234 O240 1.182 . S
C235 O241 1.166 1_545 S
C235 O242 1.301 . S
O236 Zn233 2.080 . S
O236 C250 1.305 . S
O237 Zn231 1.920 . S
O237 C250 1.234 . S
C238 O243 1.167 . S
C238 O244 1.299 . S
O239 Zn233 2.114 1_565 S
O239 C234 1.166 . S
O240 Zn232 1.905 . S
O240 C234 1.182 . S
O241 Zn232 1.898 . S
O241 C235 1.166 1_565 S
O242 Zn233 2.120 . S
O242 C235 1.301 . S
O243 Zn231 1.898 . S
O243 C238 1.167 . S
O244 Zn233 2.120 . S
O244 C238 1.299 . S
O245 Zn233 2.114 1_565 S
O245 C247 1.166 . S
O246 Zn231 1.905 . S
O246 C247 1.182 1_545 S
C247 O245 1.166 . S
C247 O246 1.182 1_565 S
O248 Zn233 2.080 . S
O248 C251 1.305 . S
O249 Zn232 1.920 1_545 S
O249 C251 1.234 . S
C250 O236 1.305 . S
C250 O237 1.234 . S
C251 O248 1.305 . S
C251 O249 1.234 . S
H252 C260 0.950 . S
H253 C265 0.950 . S
H254 C262 0.950 . S
H255 C264 0.950 . S
H256 C266 0.950 . S
H257 C268 0.950 . S
H258 C270 0.950 1_556 S
H259 C271 0.950 1_556 S
C260 H252 0.950 . S
C260 C261 1.386 1_556 S
C260 C262 1.391 . S
C261 C260 1.386 1_554 S
C261 C265 1.393 . S
C262 H254 0.950 . S
C262 C260 1.391 . S
C262 C263 1.400 1_556 S
C263 C262 1.400 1_554 S
C263 C264 1.398 . S
C263 C269 1.491 . S
C264 H255 0.950 . S
C264 C263 1.398 . S
C264 C265 1.391 . S
C265 H253 0.950 . S
C265 C261 1.393 . S
C265 C264 1.391 . S
C266 H256 0.950 . S
C266 C267 1.386 . S
C266 C268 1.391 . S
C267 C266 1.386 . S
C267 C271 1.393 . S
C268 H257 0.950 . S
C268 C266 1.391 . S
C268 C269 1.400 . S
C269 C263 1.491 . S
C269 C268 1.400 . S
C269 C270 1.398 . S
C270 H258 0.950 1_554 S
C270 C269 1.398 . S
C270 C271 1.391 . S
C271 H259 0.950 1_554 S
C271 C267 1.393 . S
C271 C270 1.391 . S
H272 C280 0.950 . S
H273 C285 0.950 . S
H274 C282 0.950 . S
H275 C284 0.950 . S
H276 C286 0.950 1_655 S
H277 C288 0.950 . S
H278 C290 0.950 . S
H279 C291 0.950 . S
C280 H272 0.950 . S
C280 C281 1.386 . S
C280 C282 1.391 . S
C281 C280 1.386 . S
C281 C285 1.393 . S
C282 H274 0.950 . S
C282 C280 1.391 . S
C282 C283 1.400 . S
C283 C282 1.400 . S
C283 C284 1.398 . S
C283 C289 1.491 . S
C284 H275 0.950 . S
C284 C283 1.398 . S
C284 C285 1.391 . S
C285 H273 0.950 . S
C285 C281 1.393 . S
C285 C284 1.391 . S
C286 H276 0.950 1_455 S
C286 C287 1.386 . S
C286 C288 1.391 . S
C287 C286 1.386 . S
C287 C291 1.393 . S
C288 H277 0.950 . S
C288 C286 1.391 . S
C288 C289 1.400 . S
C289 C283 1.491 . S
C289 C288 1.400 . S
C289 C290 1.398 . S
C290 H278 0.950 . S
C290 C289 1.398 . S
C290 C291 1.391 . S
C291 H279 0.950 . S
C291 C287 1.393 . S
C291 C290 1.391 . S
H292 C300 0.950 . S
H293 C305 0.950 . S
H294 C302 0.950 . S
H295 C304 0.950 . S
H296 C306 0.950 1_565 S
H297 C308 0.950 . S
H298 C310 0.950 . S
H299 C311 0.950 . S
C300 H292 0.950 . S
C300 C301 1.386 . S
C300 C302 1.391 . S
C301 C300 1.386 . S
C301 C305 1.393 . S
C302 H294 0.950 . S
C302 C300 1.391 . S
C302 C303 1.400 . S
C303 C302 1.400 . S
C303 C304 1.398 . S
C303 C309 1.491 . S
C304 H295 0.950 . S
C304 C303 1.398 . S
C304 C305 1.391 . S
C305 H293 0.950 . S
C305 C301 1.393 . S
C305 C304 1.391 . S
C306 H296 0.950 1_545 S
C306 C307 1.386 . S
C306 C308 1.391 . S
C307 C306 1.386 . S
C307 C311 1.393 . S
C308 H297 0.950 . S
C308 C306 1.391 . S
C308 C309 1.400 . S
C309 C303 1.491 . S
C309 C308 1.400 . S
C309 C310 1.398 . S
C310 H298 0.950 . S
C310 C309 1.398 . S
C310 C311 1.391 . S
C311 H299 0.950 . S
C311 C307 1.393 . S
C311 C310 1.391 . S
H312 C320 0.950 . S
H313 C325 0.950 . S
H314 C322 0.950 . S
H315 C324 0.950 . S
H316 C326 0.950 . S
H317 C328 0.950 . S
H318 C330 0.950 . S
H319 C331 0.950 . S
C320 H312 0.950 . S
C320 C321 1.386 . S
C320 C322 1.391 . S
C321 C320 1.386 . S
C321 C325 1.393 . S
C322 H314 0.950 . S
C322 C320 1.391 . S
C322 C323 1.400 . S
C323 C322 1.400 . S
C323 C324 1.398 . S
C323 C329 1.491 . S
C324 H315 0.950 . S
C324 C323 1.398 . S
C324 C325 1.391 . S
C325 H313 0.950 . S
C325 C321 1.393 . S
C325 C324 1.391 . S
C326 H316 0.950 . S
C326 C327 1.386 . S
C326 C328 1.391 . S
C327 C326 1.386 . S
C327 C331 1.393 . S
C328 H317 0.950 . S
C328 C326 1.391 . S
C328 C329 1.400 . S
C329 C323 1.491 . S
C329 C328 1.400 . S
C329 C330 1.398 . S
C330 H318 0.950 . S
C330 C329 1.398 . S
C330 C331 1.391 . S
C331 H319 0.950 . S
C331 C327 1.393 . S
C331 C330 1.391 . S
H332 C340 0.950 . S
H333 C345 0.950 . S
H334 C342 0.950 . S
H335 C344 0.950 . S
H336 C346 0.950 . S
H337 C348 0.950 . S
H338 C350 0.950 . S
H339 C351 0.950 1_455 S
C340 H332 0.950 . S
C340 C341 1.386 . S
C340 C342 1.391 . S
C341 C340 1.386 . S
C341 C345 1.393 . S
C342 H334 0.950 . S
C342 C340 1.391 . S
C342 C343 1.400 . S
C343 C342 1.400 . S
C343 C344 1.398 . S
C343 C349 1.491 . S
C344 H335 0.950 . S
C344 C343 1.398 . S
C344 C345 1.391 . S
C345 H333 0.950 . S
C345 C341 1.393 . S
C345 C344 1.391 . S
C346 H336 0.950 . S
C346 C347 1.386 . S
C346 C348 1.391 . S
C347 C346 1.386 . S
C347 C351 1.393 . S
C348 H337 0.950 . S
C348 C346 1.391 . S
C348 C349 1.400 . S
C349 C343 1.491 . S
C349 C348 1.400 . S
C349 C350 1.398 . S
C350 H338 0.950 . S
C350 C349 1.398 . S
C350 C351 1.391 . S
C351 H339 0.950 1_655 S
C351 C347 1.393 . S
C351 C350 1.391 . S
H352 C360 0.950 . S
H353 C365 0.950 . S
H354 C362 0.950 . S
H355 C364 0.950 . S
H356 C366 0.950 1_545 S
H357 C368 0.950 . S
H358 C370 0.950 . S
H359 C371 0.950 . S
C360 H352 0.950 . S
C360 C361 1.386 . S
C360 C362 1.391 . S
C361 C360 1.386 . S
C361 C365 1.393 . S
C362 H354 0.950 . S
C362 C360 1.391 . S
C362 C363 1.400 . S
C363 C362 1.400 . S
C363 C364 1.398 . S
C363 C369 1.491 . S
C364 H355 0.950 . S
C364 C363 1.398 . S
C364 C365 1.391 . S
C365 H353 0.950 . S
C365 C361 1.393 . S
C365 C364 1.391 . S
C366 H356 0.950 1_565 S
C366 C367 1.386 . S
C366 C368 1.391 . S
C367 C366 1.386 . S
C367 C371 1.393 . S
C368 H357 0.950 . S
C368 C366 1.391 . S
C368 C369 1.400 . S
C369 C363 1.491 . S
C369 C368 1.400 . S
C369 C370 1.398 . S
C370 H358 0.950 . S
C370 C369 1.398 . S
C370 C371 1.391 . S
C371 H359 0.950 . S
C371 C367 1.393 . S
C371 C370 1.391 . S
H372 C380 0.950 . S
H373 C385 0.950 . S
H374 C382 0.950 . S
H375 C384 0.950 . S
H376 C386 0.950 . S
H377 C388 0.950 . S
H378 C390 0.950 . S
H379 C391 0.950 . S
C380 H372 0.950 . S
C380 C381 1.386 . S
C380 C382 1.391 . S
C381 C380 1.386 . S
C381 C385 1.393 . S
C382 H374 0.950 . S
C382 C380 1.391 . S
C382 C383 1.400 . S
C383 C382 1.400 . S
C383 C384 1.398 . S
C383 C389 1.491 . S
C384 H375 0.950 . S
C384 C383 1.398 . S
C384 C385 1.391 . S
C385 H373 0.950 . S
C385 C381 1.393 . S
C385 C384 1.391 . S
C386 H376 0.950 . S
C386 C387 1.386 . S
C386 C388 1.391 . S
C387 C386 1.386 . S
C387 C391 1.393 . S
C388 H377 0.950 . S
C388 C386 1.391 . S
C388 C389 1.400 . S
C389 C383 1.491 . S
C389 C388 1.400 . S
C389 C390 1.398 . S
C390 H378 0.950 . S
C390 C389 1.398 . S
C390 C391 1.391 . S
C391 H379 0.950 . S
C391 C387 1.393 . S
C391 C390 1.391 . S
H392 C400 0.988 . S
H393 C405 0.950 . S
H394 C402 0.950 . S
H395 C404 0.950 . S
H396 C406 0.950 . S
H397 C408 0.950 . S
H398 C410 0.950 . S
H399 C411 0.950 . S
C400 H392 0.988 . S
C400 C401 1.342 1_554 S
C400 C402 1.399 . S
C401 C400 1.342 1_556 S
C401 C405 1.393 . S
C402 H394 0.950 . S
C402 C400 1.399 . S
C402 C403 1.400 1_554 S
C403 C402 1.400 1_556 S
C403 C404 1.398 . S
C403 C409 1.491 . S
C404 H395 0.950 . S
C404 C403 1.398 . S
C404 C405 1.391 . S
C405 H393 0.950 . S
C405 C401 1.393 . S
C405 C404 1.391 . S
C406 H396 0.950 . S
C406 C407 1.386 . S
C406 C408 1.391 . S
C407 C406 1.386 . S
C407 C411 1.393 1_556 S
C408 H397 0.950 . S
C408 C406 1.391 . S
C408 C409 1.400 . S
C409 C403 1.491 . S
C409 C408 1.400 . S
C409 C410 1.398 1_556 S
C410 H398 0.950 . S
C410 C409 1.398 1_554 S
C410 C411 1.391 . S
C411 H399 0.950 . S
C411 C407 1.393 1_554 S
C411 C410 1.391 . S
H412 C420 0.950 . S
H413 C425 0.950 1_565 S
H414 C422 0.950 . S
H415 C424 0.950 . S
H416 C426 0.950 . S
H417 C428 0.950 . S
H418 C430 0.950 . S
H419 C431 0.950 . S
C420 H412 0.950 . S
C420 C421 1.386 . S
C420 C422 1.391 . S
C421 C420 1.386 . S
C421 C425 1.393 . S
C422 H414 0.950 . S
C422 C420 1.391 . S
C422 C423 1.400 . S
C423 C422 1.400 . S
C423 C424 1.398 . S
C423 C429 1.491 . S
C424 H415 0.950 . S
C424 C423 1.398 . S
C424 C425 1.391 . S
C425 H413 0.950 1_545 S
C425 C421 1.393 . S
C425 C424 1.391 . S
C426 H416 0.950 . S
C426 C427 1.386 . S
C426 C428 1.391 . S
C427 C426 1.386 . S
C427 C431 1.393 . S
C428 H417 0.950 . S
C428 C426 1.391 . S
C428 C429 1.400 . S
C429 C423 1.491 . S
C429 C428 1.400 . S
C429 C430 1.398 . S
C430 H418 0.950 . S
C430 C429 1.398 . S
C430 C431 1.391 . S
C431 H419 0.950 . S
C431 C427 1.393 . S
C431 C430 1.391 . S
H432 C440 0.950 . S
H433 C445 0.950 . S
H434 C442 0.950 . S
H435 C444 0.950 . S
H436 C446 0.950 . S
H437 C448 0.950 . S
H438 C450 0.950 . S
H439 C451 0.950 . S
C440 H432 0.950 . S
C440 C441 1.386 . S
C440 C442 1.391 . S
C441 C440 1.386 . S
C441 C445 1.393 . S
C442 H434 0.950 . S
C442 C440 1.391 . S
C442 C443 1.400 . S
C443 C442 1.400 . S
C443 C444 1.398 . S
C443 C449 1.491 . S
C444 H435 0.950 . S
C444 C443 1.398 . S
C444 C445 1.391 . S
C445 H433 0.950 . S
C445 C441 1.393 . S
C445 C444 1.391 . S
C446 H436 0.950 . S
C446 C447 1.386 . S
C446 C448 1.391 . S
C447 C446 1.386 . S
C447 C451 1.393 . S
C448 H437 0.950 . S
C448 C446 1.391 . S
C448 C449 1.400 . S
C449 C443 1.491 . S
C449 C448 1.400 . S
C449 C450 1.398 . S
C450 H438 0.950 . S
C450 C449 1.398 . S
C450 C451 1.391 . S
C451 H439 0.950 . S
C451 C447 1.393 . S
C451 C450 1.391 . S
H452 C460 0.950 1_455 S
H453 C465 0.950 . S
H454 C462 0.950 . S
H455 C464 0.950 . S
H456 C466 0.950 . S
H457 C468 0.950 . S
H458 C470 0.950 . S
H459 C471 0.950 . S
C460 H452 0.950 1_655 S
C460 C461 1.386 . S
C460 C462 1.391 . S
C461 C460 1.386 . S
C461 C465 1.393 . S
C462 H454 0.950 . S
C462 C460 1.391 . S
C462 C463 1.400 . S
C463 C462 1.400 . S
C463 C464 1.398 . S
C463 C469 1.491 . S
C464 H455 0.950 . S
C464 C463 1.398 . S
C464 C465 1.391 . S
C465 H453 0.950 . S
C465 C461 1.393 . S
C465 C464 1.391 . S
C466 H456 0.950 . S
C466 C467 1.386 . S
C466 C468 1.391 . S
C467 C466 1.386 . S
C467 C471 1.393 . S
C468 H457 0.950 . S
C468 C466 1.391 . S
C468 C469 1.400 . S
C469 C463 1.491 . S
C469 C468 1.400 . S
C469 C470 1.398 . S
C470 H458 0.950 . S
C470 C469 1.398 . S
C470 C471 1.391 . S
C471 H459 0.950 . S
C471 C467 1.393 . S
C471 C470 1.391 . S
H472 C480 0.950 . S
H473 C485 0.950 1_545 S
H474 C482 0.950 . S
H475 C484 0.950 . S
H476 C486 0.950 . S
H477 C488 0.950 . S
H478 C490 0.950 . S
H479 C491 0.950 . S
C480 H472 0.950 . S
C480 C481 1.386 . S
C480 C482 1.391 . S
C481 C480 1.386 . S
C481 C485 1.393 . S
C482 H474 0.950 . S
C482 C480 1.391 . S
C482 C483 1.400 . S
C483 C482 1.400 . S
C483 C484 1.398 . S
C483 C489 1.491 . S
C484 H475 0.950 . S
C484 C483 1.398 . S
C484 C485 1.391 . S
C485 H473 0.950 1_565 S
C485 C481 1.393 . S
C485 C484 1.391 . S
C486 H476 0.950 . S
C486 C487 1.386 . S
C486 C488 1.391 . S
C487 C486 1.386 . S
C487 C491 1.393 . S
C488 H477 0.950 . S
C488 C486 1.391 . S
C488 C489 1.400 . S
C489 C483 1.491 . S
C489 C488 1.400 . S
C489 C490 1.398 . S
C490 H478 0.950 . S
C490 C489 1.398 . S
C490 C491 1.391 . S
C491 H479 0.950 . S
C491 C487 1.393 . S
C491 C490 1.391 . S
H492 C500 0.950 . S
H493 C505 0.950 . S
H494 C502 0.950 . S
H495 C504 0.950 . S
H496 C506 0.950 . S
H497 C508 0.950 . S
H498 C510 0.950 . S
H499 C511 0.950 . S
C500 H492 0.950 . S
C500 C501 1.386 . S
C500 C502 1.391 . S
C501 C500 1.386 . S
C501 C505 1.393 . S
C502 H494 0.950 . S
C502 C500 1.391 . S
C502 C503 1.400 . S
C503 C502 1.400 . S
C503 C504 1.398 . S
C503 C509 1.491 . S
C504 H495 0.950 . S
C504 C503 1.398 . S
C504 C505 1.391 . S
C505 H493 0.950 . S
C505 C501 1.393 . S
C505 C504 1.391 . S
C506 H496 0.950 . S
C506 C507 1.386 . S
C506 C508 1.391 . S
C507 C506 1.386 . S
C507 C511 1.393 . S
C508 H497 0.950 . S
C508 C506 1.391 . S
C508 C509 1.400 . S
C509 C503 1.491 . S
C509 C508 1.400 . S
C509 C510 1.398 . S
C510 H498 0.950 . S
C510 C509 1.398 . S
C510 C511 1.391 . S
C511 H499 0.950 . S
C511 C507 1.393 . S
C511 C510 1.391 . S
H512 C520 0.950 . S
H513 C525 0.950 . S
H514 C522 0.950 . S
H515 C524 0.950 . S
H516 C526 0.950 . S
H517 C528 0.950 . S
H518 C530 0.950 . S
H519 C531 0.950 . S
C520 H512 0.950 . S
C520 C521 1.386 . S
C520 C522 1.391 . S
C521 C520 1.386 . S
C521 C525 1.393 . S
C522 H514 0.950 . S
C522 C520 1.391 . S
C522 C523 1.400 . S
C523 C522 1.400 . S
C523 C524 1.398 . S
C523 C529 1.491 . S
C524 H515 0.950 . S
C524 C523 1.398 . S
C524 C525 1.391 . S
C525 H513 0.950 . S
C525 C521 1.393 . S
C525 C524 1.391 . S
C526 H516 0.950 . S
C526 C527 1.386 . S
C526 C528 1.391 . S
C527 C526 1.386 . S
C527 C531 1.393 . S
C528 H517 0.950 . S
C528 C526 1.391 . S
C528 C529 1.400 . S
C529 C523 1.491 . S
C529 C528 1.400 . S
C529 C530 1.398 . S
C530 H518 0.950 . S
C530 C529 1.398 . S
C530 C531 1.391 . S
C531 H519 0.950 . S
C531 C527 1.393 . S
C531 C530 1.391 . S
H532 C540 0.950 . S
H533 C545 0.950 . S
H534 C542 0.950 . S
H535 C544 0.950 . S
H536 C546 0.950 1_565 S
H537 C548 0.950 . S
H538 C550 0.950 . S
H539 C551 0.950 . S
C540 H532 0.950 . S
C540 C541 1.386 . S
C540 C542 1.391 . S
C541 C540 1.386 . S
C541 C545 1.393 . S
C542 H534 0.950 . S
C542 C540 1.391 . S
C542 C543 1.400 . S
C543 C542 1.400 . S
C543 C544 1.398 . S
C543 C549 1.491 . S
C544 H535 0.950 . S
C544 C543 1.398 . S
C544 C545 1.391 . S
C545 H533 0.950 . S
C545 C541 1.393 . S
C545 C544 1.391 . S
C546 H536 0.950 1_545 S
C546 C547 1.386 . S
C546 C548 1.391 . S
C547 C546 1.386 . S
C547 C551 1.393 . S
C548 H537 0.950 . S
C548 C546 1.391 . S
C548 C549 1.400 . S
C549 C543 1.491 . S
C549 C548 1.400 . S
C549 C550 1.398 . S
C550 H538 0.950 . S
C550 C549 1.398 . S
C550 C551 1.391 . S
C551 H539 0.950 . S
C551 C547 1.393 . S
C551 C550 1.391 . S
H552 C560 0.950 . S
H553 C565 0.950 . S
H554 C562 0.950 . S
H555 C564 0.950 . S
H556 C566 0.950 . S
H557 C568 0.950 . S
H558 C570 0.950 . S
H559 C571 0.950 . S
C560 H552 0.950 . S
C560 C561 1.386 . S
C560 C562 1.391 . S
C561 C560 1.386 . S
C561 C565 1.393 . S
C562 H554 0.950 . S
C562 C560 1.391 . S
C562 C563 1.400 . S
C563 C562 1.400 . S
C563 C564 1.398 . S
C563 C569 1.491 . S
C564 H555 0.950 . S
C564 C563 1.398 . S
C564 C565 1.391 . S
C565 H553 0.950 . S
C565 C561 1.393 . S
C565 C564 1.391 . S
C566 H556 0.950 . S
C566 C567 1.386 . S
C566 C568 1.391 . S
C567 C566 1.386 . S
C567 C571 1.393 . S
C568 H557 0.950 . S
C568 C566 1.391 . S
C568 C569 1.400 . S
C569 C563 1.491 . S
C569 C568 1.400 . S
C569 C570 1.398 . S
C570 H558 0.950 . S
C570 C569 1.398 . S
C570 C571 1.391 . S
C571 H559 0.950 . S
C571 C567 1.393 . S
C571 C570 1.391 . S
H572 C580 0.950 . S
H573 C585 0.950 . S
H574 C582 0.950 . S
H575 C584 0.950 . S
H576 C586 0.950 . S
H577 C588 0.950 . S
H578 C590 0.950 . S
H579 C591 0.950 . S
C580 H572 0.950 . S
C580 C581 1.386 . S
C580 C582 1.391 . S
C581 C580 1.386 . S
C581 C585 1.393 . S
C582 H574 0.950 . S
C582 C580 1.391 . S
C582 C583 1.400 . S
C583 C582 1.400 . S
C583 C584 1.398 . S
C583 C589 1.491 . S
C584 H575 0.950 . S
C584 C583 1.398 . S
C584 C585 1.391 . S
C585 H573 0.950 . S
C585 C581 1.393 . S
C585 C584 1.391 . S
C586 H576 0.950 . S
C586 C587 1.386 . S
C586 C588 1.391 . S
C587 C586 1.386 . S
C587 C591 1.393 . S
C588 H577 0.950 . S
C588 C586 1.391 . S
C588 C589 1.400 . S
C589 C583 1.491 . S
C589 C588 1.400 . S
C589 C590 1.398 . S
C590 H578 0.950 . S
C590 C589 1.398 . S
C590 C591 1.391 . S
C591 H579 0.950 . S
C591 C587 1.393 . S
C591 C590 1.391 . S
H592 C600 0.950 1_545 S
H593 C605 0.950 . S
H594 C602 0.950 . S
H595 C604 0.950 . S
H596 C606 0.950 . S
H597 C608 0.950 . S
H598 C610 0.950 . S
H599 C611 0.950 . S
C600 H592 0.950 1_565 S
C600 C601 1.386 . S
C600 C602 1.391 . S
C601 C600 1.386 . S
C601 C605 1.393 . S
C602 H594 0.950 . S
C602 C600 1.391 . S
C602 C603 1.400 . S
C603 C602 1.400 . S
C603 C604 1.398 . S
C603 C609 1.491 . S
C604 H595 0.950 . S
C604 C603 1.398 . S
C604 C605 1.391 . S
C605 H593 0.950 . S
C605 C601 1.393 . S
C605 C604 1.391 . S
C606 H596 0.950 . S
C606 C607 1.386 . S
C606 C608 1.391 . S
C607 C606 1.386 . S
C607 C611 1.393 . S
C608 H597 0.950 . S
C608 C606 1.391 . S
C608 C609 1.400 . S
C609 C603 1.491 . S
C609 C608 1.400 . S
C609 C610 1.398 . S
C610 H598 0.950 . S
C610 C609 1.398 . S
C610 C611 1.391 . S
C611 H599 0.950 . S
C611 C607 1.393 . S
C611 C610 1.391 . S
H612 C620 0.950 . S
H613 C625 0.950 . S
H614 C622 0.950 . S
H615 C624 0.950 . S
H616 C626 0.950 . S
H617 C628 0.950 . S
H618 C630 0.950 . S
H619 C631 0.950 . S
C620 H612 0.950 . S
C620 C621 1.386 . S
C620 C622 1.391 . S
C621 C620 1.386 . S
C621 C625 1.393 . S
C622 H614 0.950 . S
C622 C620 1.391 . S
C622 C623 1.400 . S
C623 C622 1.400 . S
C623 C624 1.398 . S
C623 C629 1.491 . S
C624 H615 0.950 . S
C624 C623 1.398 . S
C624 C625 1.391 . S
C625 H613 0.950 . S
C625 C621 1.393 . S
C625 C624 1.391 . S
C626 H616 0.950 . S
C626 C627 1.386 . S
C626 C628 1.391 . S
C627 C626 1.386 . S
C627 C631 1.393 . S
C628 H617 0.950 . S
C628 C626 1.391 . S
C628 C629 1.400 . S
C629 C623 1.491 . S
C629 C628 1.400 . S
C629 C630 1.398 . S
C630 H618 0.950 . S
C630 C629 1.398 . S
C630 C631 1.391 . S
C631 H619 0.950 . S
C631 C627 1.393 . S
C631 C630 1.391 . S
H632 C640 0.950 . S
H633 C645 0.950 . S
H634 C642 0.950 . S
H635 C644 0.950 . S
H636 C646 0.950 . S
H637 C648 0.950 . S
H638 C650 0.950 . S
H639 C651 0.950 . S
C640 H632 0.950 . S
C640 C641 1.386 . S
C640 C642 1.391 . S
C641 C640 1.386 . S
C641 C645 1.393 . S
C642 H634 0.950 . S
C642 C640 1.391 . S
C642 C643 1.400 . S
C643 C642 1.400 . S
C643 C644 1.398 . S
C643 C649 1.491 . S
C644 H635 0.950 . S
C644 C643 1.398 . S
C644 C645 1.391 . S
C645 H633 0.950 . S
C645 C641 1.393 . S
C645 C644 1.391 . S
C646 H636 0.950 . S
C646 C647 1.386 . S
C646 C648 1.391 . S
C647 C646 1.386 . S
C647 C651 1.393 . S
C648 H637 0.950 . S
C648 C646 1.391 . S
C648 C649 1.400 . S
C649 C643 1.491 . S
C649 C648 1.400 . S
C649 C650 1.398 . S
C650 H638 0.950 . S
C650 C649 1.398 . S
C650 C651 1.391 . S
C651 H639 0.950 . S
C651 C647 1.393 . S
C651 C650 1.391 . S
H652 C660 0.950 . S
H653 C665 0.950 . S
H654 C662 0.950 . S
H655 C664 0.950 . S
H656 C666 0.950 . S
H657 C668 0.950 . S
H658 C670 0.950 . S
H659 C671 0.950 . S
C660 H652 0.950 . S
C660 C661 1.386 . S
C660 C662 1.391 . S
C661 C660 1.386 . S
C661 C665 1.393 . S
C662 H654 0.950 . S
C662 C660 1.391 . S
C662 C663 1.400 . S
C663 C662 1.400 . S
C663 C664 1.398 . S
C663 C669 1.491 . S
C664 H655 0.950 . S
C664 C663 1.398 . S
C664 C665 1.391 . S
C665 H653 0.950 . S
C665 C661 1.393 . S
C665 C664 1.391 . S
C666 H656 0.950 . S
C666 C667 1.386 . S
C666 C668 1.391 . S
C667 C666 1.386 . S
C667 C671 1.393 . S
C668 H657 0.950 . S
C668 C666 1.391 . S
C668 C669 1.400 . S
C669 C663 1.491 . S
C669 C668 1.400 . S
C669 C670 1.398 . S
C670 H658 0.950 . S
C670 C669 1.398 . S
C670 C671 1.391 . S
C671 H659 0.950 . S
C671 C667 1.393 . S
C671 C670 1.391 . S
H672 C680 0.950 . S
H673 C685 0.950 . S
H674 C682 0.950 . S
H675 C684 0.950 . S
H676 C686 0.950 . S
H677 C688 0.950 . S
H678 C690 0.950 . S
H679 C691 0.950 . S
C680 H672 0.950 . S
C680 C681 1.386 . S
C680 C682 1.391 . S
C681 C680 1.386 . S
C681 C685 1.393 . S
C682 H674 0.950 . S
C682 C680 1.391 . S
C682 C683 1.400 . S
C683 C682 1.400 . S
C683 C684 1.398 . S
C683 C689 1.491 . S
C684 H675 0.950 . S
C684 C683 1.398 . S
C684 C685 1.391 . S
C685 H673 0.950 . S
C685 C681 1.393 . S
C685 C684 1.391 . S
C686 H676 0.950 . S
C686 C687 1.386 . S
C686 C688 1.391 . S
C687 C686 1.386 . S
C687 C691 1.393 . S
C688 H677 0.950 . S
C688 C686 1.391 . S
C688 C689 1.400 . S
C689 C683 1.491 . S
C689 C688 1.400 . S
C689 C690 1.398 . S
C690 H678 0.950 . S
C690 C689 1.398 . S
C690 C691 1.391 . S
C691 H679 0.950 . S
C691 C687 1.393 . S
C691 C690 1.391 . S
H692 C700 0.950 . S
H693 C705 0.950 1_455 S
H694 C702 0.950 . S
H695 C704 0.950 . S
H696 C706 0.950 . S
H697 C708 0.950 . S
H698 C710 0.950 . S
H699 C711 0.950 . S
C700 H692 0.950 . S
C700 C701 1.386 . S
C700 C702 1.391 . S
C701 C700 1.386 . S
C701 C705 1.393 . S
C702 H694 0.950 . S
C702 C700 1.391 . S
C702 C703 1.400 . S
C703 C702 1.400 . S
C703 C704 1.398 . S
C703 C709 1.491 . S
C704 H695 0.950 . S
C704 C703 1.398 . S
C704 C705 1.391 . S
C705 H693 0.950 1_655 S
C705 C701 1.393 . S
C705 C704 1.391 . S
C706 H696 0.950 . S
C706 C707 1.386 . S
C706 C708 1.391 . S
C707 C706 1.386 . S
C707 C711 1.393 . S
C708 H697 0.950 . S
C708 C706 1.391 . S
C708 C709 1.400 . S
C709 C703 1.491 . S
C709 C708 1.400 . S
C709 C710 1.398 . S
C710 H698 0.950 . S
C710 C709 1.398 . S
C710 C711 1.391 . S
C711 H699 0.950 . S
C711 C707 1.393 . S
C711 C710 1.391 . S
H712 C720 0.950 . S
H713 C725 0.950 . S
H714 C722 0.950 . S
H715 C724 0.950 . S
H716 C726 0.950 . S
H717 C728 0.950 . S
H718 C730 0.950 . S
H719 C731 0.950 . S
C720 H712 0.950 . S
C720 C721 1.386 . S
C720 C722 1.391 . S
C721 C720 1.386 . S
C721 C725 1.393 . S
C722 H714 0.950 . S
C722 C720 1.391 . S
C722 C723 1.400 . S
C723 C722 1.400 . S
C723 C724 1.398 . S
C723 C729 1.491 . S
C724 H715 0.950 . S
C724 C723 1.398 . S
C724 C725 1.391 . S
C725 H713 0.950 . S
C725 C721 1.393 . S
C725 C724 1.391 . S
C726 H716 0.950 . S
C726 C727 1.386 . S
C726 C728 1.391 . S
C727 C726 1.386 . S
C727 C731 1.393 . S
C728 H717 0.950 . S
C728 C726 1.391 . S
C728 C729 1.400 . S
C729 C723 1.491 . S
C729 C728 1.400 . S
C729 C730 1.398 . S
C730 H718 0.950 . S
C730 C729 1.398 . S
C730 C731 1.391 . S
C731 H719 0.950 . S
C731 C727 1.393 . S
C731 C730 1.391 . S
H732 C740 0.950 . S
H733 C745 0.950 . S
H734 C742 0.950 . S
H735 C744 0.950 . S
H736 C746 0.950 . S
H737 C748 0.950 . S
H738 C750 0.950 . S
H739 C751 0.950 . S
C740 H732 0.950 . S
C740 C741 1.386 . S
C740 C742 1.391 . S
C741 C740 1.386 . S
C741 C745 1.393 . S
C742 H734 0.950 . S
C742 C740 1.391 . S
C742 C743 1.400 . S
C743 C742 1.400 . S
C743 C744 1.398 . S
C743 C749 1.491 . S
C744 H735 0.950 . S
C744 C743 1.398 . S
C744 C745 1.391 . S
C745 H733 0.950 . S
C745 C741 1.393 . S
C745 C744 1.391 . S
C746 H736 0.950 . S
C746 C747 1.386 . S
C746 C748 1.391 . S
C747 C746 1.386 . S
C747 C751 1.393 . S
C748 H737 0.950 . S
C748 C746 1.391 . S
C748 C749 1.400 . S
C749 C743 1.491 . S
C749 C748 1.400 . S
C749 C750 1.398 . S
C750 H738 0.950 . S
C750 C749 1.398 . S
C750 C751 1.391 . S
C751 H739 0.950 . S
C751 C747 1.393 . S
C751 C750 1.391 . S
H752 C760 0.950 . S
H753 C765 0.950 . S
H754 C762 0.950 . S
H755 C764 0.950 . S
H756 C766 0.950 . S
H757 C768 0.950 . S
H758 C770 0.950 . S
H759 C771 0.950 . S
C760 H752 0.950 . S
C760 C761 1.386 . S
C760 C762 1.391 . S
C761 C760 1.386 . S
C761 C765 1.393 . S
C762 H754 0.950 . S
C762 C760 1.391 . S
C762 C763 1.400 . S
C763 C762 1.400 . S
C763 C764 1.398 . S
C763 C769 1.491 . S
C764 H755 0.950 . S
C764 C763 1.398 . S
C764 C765 1.391 . S
C765 H753 0.950 . S
C765 C761 1.393 . S
C765 C764 1.391 . S
C766 H756 0.950 . S
C766 C767 1.386 . S
C766 C768 1.391 . S
C767 C766 1.386 . S
C767 C771 1.393 . S
C768 H757 0.950 . S
C768 C766 1.391 . S
C768 C769 1.400 . S
C769 C763 1.491 . S
C769 C768 1.400 . S
C769 C770 1.398 . S
C770 H758 0.950 . S
C770 C769 1.398 . S
C770 C771 1.391 . S
C771 H759 0.950 . S
C771 C767 1.393 . S
C771 C770 1.391 . S
H772 C780 0.950 . S
H773 C785 0.950 . S
H774 C782 0.950 . S
H775 C784 0.950 . S
H776 C786 0.950 . S
H777 C788 0.950 . S
H778 C790 0.950 . S
H779 C791 0.950 . S
C780 H772 0.950 . S
C780 C781 1.386 . S
C780 C782 1.391 . S
C781 C780 1.386 . S
C781 C785 1.393 . S
C782 H774 0.950 . S
C782 C780 1.391 . S
C782 C783 1.400 . S
C783 C782 1.400 . S
C783 C784 1.398 . S
C783 C789 1.491 . S
C784 H775 0.950 . S
C784 C783 1.398 . S
C784 C785 1.391 . S
C785 H773 0.950 . S
C785 C781 1.393 . S
C785 C784 1.391 . S
C786 H776 0.950 . S
C786 C787 1.386 . S
C786 C788 1.391 . S
C787 C786 1.386 . S
C787 C791 1.393 . S
C788 H777 0.950 . S
C788 C786 1.391 . S
C788 C789 1.400 . S
C789 C783 1.491 . S
C789 C788 1.400 . S
C789 C790 1.398 . S
C790 H778 0.950 . S
C790 C789 1.398 . S
C790 C791 1.391 . S
C791 H779 0.950 . S
C791 C787 1.393 . S
C791 C790 1.391 . S
H792 C800 0.950 . S
H793 C805 0.950 . S
H794 C802 0.950 . S
H795 C804 0.950 . S
H796 C806 0.950 . S
H797 C808 0.950 . S
H798 C810 0.950 . S
H799 C811 0.950 . S
C800 H792 0.950 . S
C800 C801 1.386 . S
C800 C802 1.391 . S
C801 C800 1.386 . S
C801 C805 1.393 . S
C802 H794 0.950 . S
C802 C800 1.391 . S
C802 C803 1.400 . S
C803 C802 1.400 . S
C803 C804 1.398 . S
C803 C809 1.491 . S
C804 H795 0.950 . S
C804 C803 1.398 . S
C804 C805 1.391 . S
C805 H793 0.950 . S
C805 C801 1.393 . S
C805 C804 1.391 . S
C806 H796 0.950 . S
C806 C807 1.386 . S
C806 C808 1.391 . S
C807 C806 1.386 . S
C807 C811 1.393 . S
C808 H797 0.950 . S
C808 C806 1.391 . S
C808 C809 1.400 . S
C809 C803 1.491 . S
C809 C808 1.400 . S
C809 C810 1.398 . S
C810 H798 0.950 . S
C810 C809 1.398 . S
C810 C811 1.391 . S
C811 H799 0.950 . S
C811 C807 1.393 . S
C811 C810 1.391 . S
H812 C820 0.950 . S
H813 C825 0.950 . S
H814 C822 0.950 . S
H815 C824 0.950 . S
H816 C826 0.950 . S
H817 C828 0.950 . S
H818 C830 0.950 . S
H819 C831 0.950 . S
C820 H812 0.950 . S
C820 C821 1.386 . S
C820 C822 1.391 . S
C821 C820 1.386 . S
C821 C825 1.393 . S
C822 H814 0.950 . S
C822 C820 1.391 . S
C822 C823 1.400 . S
C823 C822 1.400 . S
C823 C824 1.398 . S
C823 C829 1.491 . S
C824 H815 0.950 . S
C824 C823 1.398 . S
C824 C825 1.391 . S
C825 H813 0.950 . S
C825 C821 1.393 . S
C825 C824 1.391 . S
C826 H816 0.950 . S
C826 C827 1.386 . S
C826 C828 1.391 . S
C827 C826 1.386 . S
C827 C831 1.393 . S
C828 H817 0.950 . S
C828 C826 1.391 . S
C828 C829 1.400 . S
C829 C823 1.491 . S
C829 C828 1.400 . S
C829 C830 1.398 . S
C830 H818 0.950 . S
C830 C829 1.398 . S
C830 C831 1.391 . S
C831 H819 0.950 . S
C831 C827 1.393 . S
C831 C830 1.391 . S
H832 C840 0.950 . S
H833 C845 0.950 . S
H834 C842 0.950 . S
H835 C844 0.950 . S
H836 C846 0.950 . S
H837 C848 0.950 . S
H838 C850 0.950 . S
H839 C851 0.950 . S
C840 H832 0.950 . S
C840 C841 1.386 . S
C840 C842 1.391 . S
C841 C840 1.386 . S
C841 C845 1.393 . S
C842 H834 0.950 . S
C842 C840 1.391 . S
C842 C843 1.400 . S
C843 C842 1.400 . S
C843 C844 1.398 . S
C843 C849 1.491 . S
C844 H835 0.950 . S
C844 C843 1.398 . S
C844 C845 1.391 . S
C845 H833 0.950 . S
C845 C841 1.393 . S
C845 C844 1.391 . S
C846 H836 0.950 . S
C846 C847 1.386 . S
C846 C848 1.391 . S
C847 C846 1.386 . S
C847 C851 1.393 . S
C848 H837 0.950 . S
C848 C846 1.391 . S
C848 C849 1.400 . S
C849 C843 1.491 . S
C849 C848 1.400 . S
C849 C850 1.398 . S
C850 H838 0.950 . S
C850 C849 1.398 . S
C850 C851 1.391 . S
C851 H839 0.950 . S
C851 C847 1.393 . S
C851 C850 1.391 . S
H852 C860 0.950 . S
H853 C865 0.950 . S
H854 C862 0.949 . S
H855 C864 0.950 . S
H856 C866 0.950 . S
H857 C868 0.941 1_654 S
H858 C870 0.950 . S
H859 C871 0.950 . S
C860 H852 0.950 . S
C860 C861 1.386 . S
C860 C862 1.391 . S
C861 C860 1.386 . S
C861 C865 1.393 . S
C862 H854 0.949 . S
C862 C860 1.391 . S
C862 C863 1.400 . S
C863 C862 1.400 . S
C863 C864 1.398 . S
C863 C869 1.491 1_544 S
C864 H855 0.950 . S
C864 C863 1.398 . S
C864 C865 1.391 . S
C865 H853 0.950 . S
C865 C861 1.393 . S
C865 C864 1.391 . S
C866 H856 0.950 . S
C866 C867 1.386 1_655 S
C866 C868 1.391 1_655 S
C867 C866 1.386 1_455 S
C867 C871 1.393 . S
C868 H857 0.941 1_456 S
C868 C866 1.391 1_455 S
C868 C869 1.400 . S
C869 C863 1.491 1_566 S
C869 C868 1.400 . S
C869 C870 1.398 . S
C870 H858 0.950 . S
C870 C869 1.398 . S
C870 C871 1.391 . S
C871 H859 0.950 . S
C871 C867 1.393 . S
C871 C870 1.391 . S
H872 C880 0.950 . S
H873 C885 0.950 . S
H874 C882 0.950 . S
H875 C884 0.950 1_565 S
H876 C886 0.950 . S
H877 C888 0.950 1_655 S
H878 C890 0.950 . S
H879 C891 0.950 . S
C880 H872 0.950 . S
C880 C881 1.386 . S
C880 C882 1.391 . S
C881 C880 1.386 . S
C881 C885 1.393 1_545 S
C882 H874 0.950 . S
C882 C880 1.391 . S
C882 C883 1.400 . S
C883 C882 1.400 . S
C883 C884 1.398 . S
C883 C889 1.491 . S
C884 H875 0.950 1_545 S
C884 C883 1.398 . S
C884 C885 1.391 1_545 S
C885 H873 0.950 . S
C885 C881 1.393 1_565 S
C885 C884 1.391 1_565 S
C886 H876 0.950 . S
C886 C887 1.386 1_655 S
C886 C888 1.391 1_655 S
C887 C886 1.386 1_455 S
C887 C891 1.393 . S
C888 H877 0.950 1_455 S
C888 C886 1.391 1_455 S
C888 C889 1.400 . S
C889 C883 1.491 . S
C889 C888 1.400 . S
C889 C890 1.398 . S
C890 H878 0.950 . S
C890 C889 1.398 . S
C890 C891 1.391 . S
C891 H879 0.950 . S
C891 C887 1.393 . S
C891 C890 1.391 . S
H892 C900 0.950 . S
H893 C905 0.950 . S
H894 C902 0.950 . S
H895 C904 0.950 . S
H896 C906 0.950 1_565 S
H897 C908 0.950 . S
H898 C910 0.950 . S
H899 C911 0.950 . S
C900 H892 0.950 . S
C900 C901 1.386 . S
C900 C902 1.391 . S
C901 C900 1.386 . S
C901 C905 1.393 . S
C902 H894 0.950 . S
C902 C900 1.391 . S
C902 C903 1.400 . S
C903 C902 1.400 . S
C903 C904 1.398 . S
C903 C909 1.491 1_455 S
C904 H895 0.950 . S
C904 C903 1.398 . S
C904 C905 1.391 . S
C905 H893 0.950 . S
C905 C901 1.393 . S
C905 C904 1.391 . S
C906 H896 0.950 1_545 S
C906 C907 1.386 . S
C906 C908 1.391 . S
C907 C906 1.386 . S
C907 C911 1.393 . S
C908 H897 0.950 . S
C908 C906 1.391 . S
C908 C909 1.400 . S
C909 C903 1.491 1_655 S
C909 C908 1.400 . S
C909 C910 1.398 . S
C910 H898 0.950 . S
C910 C909 1.398 . S
C910 C911 1.391 . S
C911 H899 0.950 . S
C911 C907 1.393 . S
C911 C910 1.391 . S
H912 C920 0.950 . S
H913 C925 0.950 1_455 S
H914 C922 0.950 . S
H915 C924 0.950 . S
H916 C926 0.950 . S
H917 C928 0.950 . S
H918 C930 0.950 . S
H919 C931 0.950 . S
C920 H912 0.950 . S
C920 C921 1.386 . S
C920 C922 1.391 . S
C921 C920 1.386 . S
C921 C925 1.393 . S
C922 H914 0.950 . S
C922 C920 1.391 . S
C922 C923 1.400 . S
C923 C922 1.400 . S
C923 C924 1.398 . S
C923 C929 1.491 1_545 S
C924 H915 0.950 . S
C924 C923 1.398 . S
C924 C925 1.391 . S
C925 H913 0.950 1_655 S
C925 C921 1.393 . S
C925 C924 1.391 . S
C926 H916 0.950 . S
C926 C927 1.386 . S
C926 C928 1.391 . S
C927 C926 1.386 . S
C927 C931 1.393 . S
C928 H917 0.950 . S
C928 C926 1.391 . S
C928 C929 1.400 . S
C929 C923 1.491 1_565 S
C929 C928 1.400 . S
C929 C930 1.398 . S
C930 H918 0.950 . S
C930 C929 1.398 . S
C930 C931 1.391 . S
C931 H919 0.950 . S
C931 C927 1.393 . S
C931 C930 1.391 . S
H932 C940 0.950 . S
H933 C945 0.950 . S
H934 C942 0.950 1_455 S
H935 C944 0.950 . S
H936 C946 0.950 . S
H937 C948 0.950 . S
H938 C950 0.950 1_545 S
H939 C951 0.950 . S
C940 H932 0.950 . S
C940 C941 1.386 1_455 S
C940 C942 1.391 1_455 S
C941 C940 1.386 1_655 S
C941 C945 1.393 . S
C942 H934 0.950 1_655 S
C942 C940 1.391 1_655 S
C942 C943 1.400 . S
C943 C942 1.400 . S
C943 C944 1.398 . S
C943 C949 1.491 . S
C944 H935 0.950 . S
C944 C943 1.398 . S
C944 C945 1.391 . S
C945 H933 0.950 . S
C945 C941 1.393 . S
C945 C944 1.391 . S
C946 H936 0.950 . S
C946 C947 1.386 . S
C946 C948 1.391 . S
C947 C946 1.386 . S
C947 C951 1.393 1_565 S
C948 H937 0.950 . S
C948 C946 1.391 . S
C948 C949 1.400 . S
C949 C943 1.491 . S
C949 C948 1.400 . S
C949 C950 1.398 . S
C950 H938 0.950 1_565 S
C950 C949 1.398 . S
C950 C951 1.391 1_565 S
C951 H939 0.950 . S
C951 C947 1.393 1_545 S
C951 C950 1.391 1_545 S
H952 C960 0.950 . S
H953 C965 0.950 . S
H954 C962 0.950 . S
H955 C964 0.950 1_545 S
H956 C966 0.950 . S
H957 C968 0.950 . S
H958 C970 0.950 . S
H959 C971 0.950 . S
C960 H952 0.950 . S
C960 C961 1.386 . S
C960 C962 1.391 . S
C961 C960 1.386 . S
C961 C965 1.393 1_565 S
C962 H954 0.950 . S
C962 C960 1.391 . S
C962 C963 1.400 . S
C963 C962 1.400 . S
C963 C964 1.398 . S
C963 C969 1.491 1_455 S
C964 H955 0.950 1_565 S
C964 C963 1.398 . S
C964 C965 1.391 1_565 S
C965 H953 0.950 . S
C965 C961 1.393 1_545 S
C965 C964 1.391 1_545 S
C966 H956 0.950 . S
C966 C967 1.386 . S
C966 C968 1.391 . S
C967 C966 1.386 . S
C967 C971 1.393 . S
C968 H957 0.950 . S
C968 C966 1.391 . S
C968 C969 1.400 . S
C969 C963 1.491 1_655 S
C969 C968 1.400 . S
C969 C970 1.398 . S
C970 H958 0.950 . S
C970 C969 1.398 . S
C970 C971 1.391 . S
C971 H959 0.950 . S
C971 C967 1.393 . S
C971 C970 1.391 . S
C261 C166 1.733 . S
C267 C7 1.613 . S
C281 C188 1.728 . S
C287 C25 1.589 1_455 S
C301 C208 1.732 . S
C307 C49 1.594 1_545 S
C321 C230 1.742 . S
C327 C67 1.613 . S
C341 C250 1.744 . S
C347 C91 1.622 1_655 S
C361 C146 1.734 . S
C367 C109 1.596 1_565 S
C381 C130 1.620 . S
C387 C125 1.744 . S
C401 C154 1.600 1_455 S
C407 C19 1.726 . S
C421 C172 1.586 1_545 S
C427 C41 1.723 . S
C441 C196 1.622 . S
C447 C61 1.741 . S
C461 C214 1.619 1_655 S
C467 C83 1.744 . S
C481 C238 1.591 1_565 S
C487 C103 1.723 . S
C501 C16 1.207 . S
C507 C124 1.102 . S
C521 C24 1.194 . S
C527 C20 1.069 . S
C541 C40 1.103 . S
C547 C58 1.205 . S
C561 C62 1.055 . S
C567 C66 1.185 . S
C581 C82 1.079 . S
C587 C100 1.184 . S
C601 C108 1.180 . S
C607 C104 1.048 . S
C621 C129 1.207 . S
C627 C167 1.101 . S
C641 C163 1.176 . S
C647 C187 1.064 . S
C661 C171 1.174 . S
C667 C209 1.061 . S
C681 C205 1.197 . S
C687 C229 1.075 . S
C701 C213 1.197 . S
C707 C251 1.097 . S
C721 C145 1.087 . S
C727 C247 1.189 . S
C741 C184 0.807 . S
C747 C3 0.869 . S
C761 C37 0.796 . S
C767 C192 0.875 . S
C781 C45 0.862 . S
C787 C226 0.817 . S
C801 C79 0.876 . S
C807 C234 0.793 . S
C821 C87 0.875 . S
C827 C142 0.794 . S
C841 C150 0.861 . S
C847 C121 0.819 . S
C861 C4 0.750 . S
C867 C151 0.747 . S
C881 C175 0.761 . S
C887 C28 0.755 . S
C901 C193 0.763 . S
C907 C46 0.780 . S
C921 C217 0.791 . S
C927 C70 0.774 . S
C941 C88 0.825 . S
C947 C235 0.821 1_565 S
C961 C112 0.753 1_565 S
C967 C133 0.748 . S
