# Generated by pormake.
# Topology uli, (4)-cn, num edge types: 1
# Building blocks:
#     Node 0, Type 0, BuildingBlock: NAHDIM_clean_sbu_0, # of connection points: 4
#     Node 1, Type 0, BuildingBlock: NAHDIM_clean_sbu_0, # of connection points: 4
#     Node 2, Type 0, BuildingBlock: NAHDIM_clean_sbu_0, # of connection points: 4
#     Node 3, Type 0, BuildingBlock: NAHDIM_clean_sbu_0, # of connection points: 4
#     Node 4, Type 0, BuildingBlock: NAHDIM_clean_sbu_0, # of connection points: 4
#     Node 5, Type 0, BuildingBlock: NAHDIM_clean_sbu_0, # of connection points: 4
#     Node 6, Type 0, BuildingBlock: NAHDIM_clean_sbu_0, # of connection points: 4
#     Node 7, Type 0, BuildingBlock: NAHDIM_clean_sbu_0, # of connection points: 4
#     Node 8, Type 0, BuildingBlock: NAHDIM_clean_sbu_0, # of connection points: 4
#     Node 9, Type 0, BuildingBlock: NAHDIM_clean_sbu_0, # of connection points: 4
#     Node 10, Type 0, BuildingBlock: NAHDIM_clean_sbu_0, # of connection points: 4
#     Node 11, Type 0, BuildingBlock: NAHDIM_clean_sbu_0, # of connection points: 4
#     Node 12, Type 0, BuildingBlock: NAHDIM_clean_sbu_0, # of connection points: 4
#     Node 13, Type 0, BuildingBlock: NAHDIM_clean_sbu_0, # of connection points: 4
#     Node 14, Type 0, BuildingBlock: NAHDIM_clean_sbu_0, # of connection points: 4
#     Node 15, Type 0, BuildingBlock: NAHDIM_clean_sbu_0, # of connection points: 4
#     Node 16, Type 0, BuildingBlock: NAHDIM_clean_sbu_0, # of connection points: 4
#     Node 17, Type 0, BuildingBlock: NAHDIM_clean_sbu_0, # of connection points: 4
#     Node 18, Type 0, BuildingBlock: NAHDIM_clean_sbu_0, # of connection points: 4
#     Node 19, Type 0, BuildingBlock: NAHDIM_clean_sbu_0, # of connection points: 4
#     Node 20, Type 0, BuildingBlock: NAHDIM_clean_sbu_0, # of connection points: 4
#     Node 21, Type 0, BuildingBlock: NAHDIM_clean_sbu_0, # of connection points: 4
#     Node 22, Type 0, BuildingBlock: NAHDIM_clean_sbu_0, # of connection points: 4
#     Node 23, Type 0, BuildingBlock: NAHDIM_clean_sbu_0, # of connection points: 4
#     Node 24, Type 0, BuildingBlock: NAHDIM_clean_sbu_0, # of connection points: 4
#     Node 25, Type 0, BuildingBlock: NAHDIM_clean_sbu_0, # of connection points: 4
#     Node 26, Type 0, BuildingBlock: NAHDIM_clean_sbu_0, # of connection points: 4
#     Node 27, Type 0, BuildingBlock: NAHDIM_clean_sbu_0, # of connection points: 4
#     Node 28, Type 0, BuildingBlock: NAHDIM_clean_sbu_0, # of connection points: 4
#     Node 29, Type 0, BuildingBlock: NAHDIM_clean_sbu_0, # of connection points: 4
#     Node 30, Type 0, BuildingBlock: NAHDIM_clean_sbu_0, # of connection points: 4
#     Node 31, Type 0, BuildingBlock: NAHDIM_clean_sbu_0, # of connection points: 4
#     Node 32, Type 0, BuildingBlock: NAHDIM_clean_sbu_0, # of connection points: 4
#     Node 33, Type 0, BuildingBlock: NAHDIM_clean_sbu_0, # of connection points: 4
#     Node 34, Type 0, BuildingBlock: NAHDIM_clean_sbu_0, # of connection points: 4
#     Node 35, Type 0, BuildingBlock: NAHDIM_clean_sbu_0, # of connection points: 4
#     Node 36, Type 0, BuildingBlock: NAHDIM_clean_sbu_0, # of connection points: 4
#     Node 37, Type 0, BuildingBlock: NAHDIM_clean_sbu_0, # of connection points: 4
#     Node 38, Type 0, BuildingBlock: NAHDIM_clean_sbu_0, # of connection points: 4
#     Node 39, Type 0, BuildingBlock: NAHDIM_clean_sbu_0, # of connection points: 4
#     Node 40, Type 0, BuildingBlock: NAHDIM_clean_sbu_0, # of connection points: 4
#     Node 41, Type 0, BuildingBlock: NAHDIM_clean_sbu_0, # of connection points: 4
#     Node 42, Type 0, BuildingBlock: NAHDIM_clean_sbu_0, # of connection points: 4
#     Node 43, Type 0, BuildingBlock: NAHDIM_clean_sbu_0, # of connection points: 4
#     Node 44, Type 0, BuildingBlock: NAHDIM_clean_sbu_0, # of connection points: 4
#     Node 45, Type 0, BuildingBlock: NAHDIM_clean_sbu_0, # of connection points: 4
#     Node 46, Type 0, BuildingBlock: NAHDIM_clean_sbu_0, # of connection points: 4
#     Node 47, Type 0, BuildingBlock: NAHDIM_clean_sbu_0, # of connection points: 4
#     Edge 48, Type (0, 0), BuildingBlock: AJUNOK_clean_linker_0, # of connection points: 2
#     Edge 49, Type (0, 0), BuildingBlock: AJUNOK_clean_linker_0, # of connection points: 2
#     Edge 50, Type (0, 0), BuildingBlock: AJUNOK_clean_linker_0, # of connection points: 2
#     Edge 51, Type (0, 0), BuildingBlock: AJUNOK_clean_linker_0, # of connection points: 2
#     Edge 52, Type (0, 0), BuildingBlock: AJUNOK_clean_linker_0, # of connection points: 2
#     Edge 53, Type (0, 0), BuildingBlock: AJUNOK_clean_linker_0, # of connection points: 2
#     Edge 54, Type (0, 0), BuildingBlock: AJUNOK_clean_linker_0, # of connection points: 2
#     Edge 55, Type (0, 0), BuildingBlock: AJUNOK_clean_linker_0, # of connection points: 2
#     Edge 56, Type (0, 0), BuildingBlock: AJUNOK_clean_linker_0, # of connection points: 2
#     Edge 57, Type (0, 0), BuildingBlock: AJUNOK_clean_linker_0, # of connection points: 2
#     Edge 58, Type (0, 0), BuildingBlock: AJUNOK_clean_linker_0, # of connection points: 2
#     Edge 59, Type (0, 0), BuildingBlock: AJUNOK_clean_linker_0, # of connection points: 2
#     Edge 60, Type (0, 0), BuildingBlock: AJUNOK_clean_linker_0, # of connection points: 2
#     Edge 61, Type (0, 0), BuildingBlock: AJUNOK_clean_linker_0, # of connection points: 2
#     Edge 62, Type (0, 0), BuildingBlock: AJUNOK_clean_linker_0, # of connection points: 2
#     Edge 63, Type (0, 0), BuildingBlock: AJUNOK_clean_linker_0, # of connection points: 2
#     Edge 64, Type (0, 0), BuildingBlock: AJUNOK_clean_linker_0, # of connection points: 2
#     Edge 65, Type (0, 0), BuildingBlock: AJUNOK_clean_linker_0, # of connection points: 2
#     Edge 66, Type (0, 0), BuildingBlock: AJUNOK_clean_linker_0, # of connection points: 2
#     Edge 67, Type (0, 0), BuildingBlock: AJUNOK_clean_linker_0, # of connection points: 2
#     Edge 68, Type (0, 0), BuildingBlock: AJUNOK_clean_linker_0, # of connection points: 2
#     Edge 69, Type (0, 0), BuildingBlock: AJUNOK_clean_linker_0, # of connection points: 2
#     Edge 70, Type (0, 0), BuildingBlock: AJUNOK_clean_linker_0, # of connection points: 2
#     Edge 71, Type (0, 0), BuildingBlock: AJUNOK_clean_linker_0, # of connection points: 2
#     Edge 72, Type (0, 0), BuildingBlock: AJUNOK_clean_linker_0, # of connection points: 2
#     Edge 73, Type (0, 0), BuildingBlock: AJUNOK_clean_linker_0, # of connection points: 2
#     Edge 74, Type (0, 0), BuildingBlock: AJUNOK_clean_linker_0, # of connection points: 2
#     Edge 75, Type (0, 0), BuildingBlock: AJUNOK_clean_linker_0, # of connection points: 2
#     Edge 76, Type (0, 0), BuildingBlock: AJUNOK_clean_linker_0, # of connection points: 2
#     Edge 77, Type (0, 0), BuildingBlock: AJUNOK_clean_linker_0, # of connection points: 2
#     Edge 78, Type (0, 0), BuildingBlock: AJUNOK_clean_linker_0, # of connection points: 2
#     Edge 79, Type (0, 0), BuildingBlock: AJUNOK_clean_linker_0, # of connection points: 2
#     Edge 80, Type (0, 0), BuildingBlock: AJUNOK_clean_linker_0, # of connection points: 2
#     Edge 81, Type (0, 0), BuildingBlock: AJUNOK_clean_linker_0, # of connection points: 2
#     Edge 82, Type (0, 0), BuildingBlock: AJUNOK_clean_linker_0, # of connection points: 2
#     Edge 83, Type (0, 0), BuildingBlock: AJUNOK_clean_linker_0, # of connection points: 2
#     Edge 84, Type (0, 0), BuildingBlock: AJUNOK_clean_linker_0, # of connection points: 2
#     Edge 85, Type (0, 0), BuildingBlock: AJUNOK_clean_linker_0, # of connection points: 2
#     Edge 86, Type (0, 0), BuildingBlock: AJUNOK_clean_linker_0, # of connection points: 2
#     Edge 87, Type (0, 0), BuildingBlock: AJUNOK_clean_linker_0, # of connection points: 2
#     Edge 88, Type (0, 0), BuildingBlock: AJUNOK_clean_linker_0, # of connection points: 2
#     Edge 89, Type (0, 0), BuildingBlock: AJUNOK_clean_linker_0, # of connection points: 2
#     Edge 90, Type (0, 0), BuildingBlock: AJUNOK_clean_linker_0, # of connection points: 2
#     Edge 91, Type (0, 0), BuildingBlock: AJUNOK_clean_linker_0, # of connection points: 2
#     Edge 92, Type (0, 0), BuildingBlock: AJUNOK_clean_linker_0, # of connection points: 2
#     Edge 93, Type (0, 0), BuildingBlock: AJUNOK_clean_linker_0, # of connection points: 2
#     Edge 94, Type (0, 0), BuildingBlock: AJUNOK_clean_linker_0, # of connection points: 2
#     Edge 95, Type (0, 0), BuildingBlock: AJUNOK_clean_linker_0, # of connection points: 2
#     Edge 96, Type (0, 0), BuildingBlock: AJUNOK_clean_linker_0, # of connection points: 2
#     Edge 97, Type (0, 0), BuildingBlock: AJUNOK_clean_linker_0, # of connection points: 2
#     Edge 98, Type (0, 0), BuildingBlock: AJUNOK_clean_linker_0, # of connection points: 2
#     Edge 99, Type (0, 0), BuildingBlock: AJUNOK_clean_linker_0, # of connection points: 2
#     Edge 100, Type (0, 0), BuildingBlock: AJUNOK_clean_linker_0, # of connection points: 2
#     Edge 101, Type (0, 0), BuildingBlock: AJUNOK_clean_linker_0, # of connection points: 2
#     Edge 102, Type (0, 0), BuildingBlock: AJUNOK_clean_linker_0, # of connection points: 2
#     Edge 103, Type (0, 0), BuildingBlock: AJUNOK_clean_linker_0, # of connection points: 2
#     Edge 104, Type (0, 0), BuildingBlock: AJUNOK_clean_linker_0, # of connection points: 2
#     Edge 105, Type (0, 0), BuildingBlock: AJUNOK_clean_linker_0, # of connection points: 2
#     Edge 106, Type (0, 0), BuildingBlock: AJUNOK_clean_linker_0, # of connection points: 2
#     Edge 107, Type (0, 0), BuildingBlock: AJUNOK_clean_linker_0, # of connection points: 2
#     Edge 108, Type (0, 0), BuildingBlock: AJUNOK_clean_linker_0, # of connection points: 2
#     Edge 109, Type (0, 0), BuildingBlock: AJUNOK_clean_linker_0, # of connection points: 2
#     Edge 110, Type (0, 0), BuildingBlock: AJUNOK_clean_linker_0, # of connection points: 2
#     Edge 111, Type (0, 0), BuildingBlock: AJUNOK_clean_linker_0, # of connection points: 2
#     Edge 112, Type (0, 0), BuildingBlock: AJUNOK_clean_linker_0, # of connection points: 2
#     Edge 113, Type (0, 0), BuildingBlock: AJUNOK_clean_linker_0, # of connection points: 2
#     Edge 114, Type (0, 0), BuildingBlock: AJUNOK_clean_linker_0, # of connection points: 2
#     Edge 115, Type (0, 0), BuildingBlock: AJUNOK_clean_linker_0, # of connection points: 2
#     Edge 116, Type (0, 0), BuildingBlock: AJUNOK_clean_linker_0, # of connection points: 2
#     Edge 117, Type (0, 0), BuildingBlock: AJUNOK_clean_linker_0, # of connection points: 2
#     Edge 118, Type (0, 0), BuildingBlock: AJUNOK_clean_linker_0, # of connection points: 2
#     Edge 119, Type (0, 0), BuildingBlock: AJUNOK_clean_linker_0, # of connection points: 2
#     Edge 120, Type (0, 0), BuildingBlock: AJUNOK_clean_linker_0, # of connection points: 2
#     Edge 121, Type (0, 0), BuildingBlock: AJUNOK_clean_linker_0, # of connection points: 2
#     Edge 122, Type (0, 0), BuildingBlock: AJUNOK_clean_linker_0, # of connection points: 2
#     Edge 123, Type (0, 0), BuildingBlock: AJUNOK_clean_linker_0, # of connection points: 2
#     Edge 124, Type (0, 0), BuildingBlock: AJUNOK_clean_linker_0, # of connection points: 2
#     Edge 125, Type (0, 0), BuildingBlock: AJUNOK_clean_linker_0, # of connection points: 2
#     Edge 126, Type (0, 0), BuildingBlock: AJUNOK_clean_linker_0, # of connection points: 2
#     Edge 127, Type (0, 0), BuildingBlock: AJUNOK_clean_linker_0, # of connection points: 2
#     Edge 128, Type (0, 0), BuildingBlock: AJUNOK_clean_linker_0, # of connection points: 2
#     Edge 129, Type (0, 0), BuildingBlock: AJUNOK_clean_linker_0, # of connection points: 2
#     Edge 130, Type (0, 0), BuildingBlock: AJUNOK_clean_linker_0, # of connection points: 2
#     Edge 131, Type (0, 0), BuildingBlock: AJUNOK_clean_linker_0, # of connection points: 2
#     Edge 132, Type (0, 0), BuildingBlock: AJUNOK_clean_linker_0, # of connection points: 2
#     Edge 133, Type (0, 0), BuildingBlock: AJUNOK_clean_linker_0, # of connection points: 2
#     Edge 134, Type (0, 0), BuildingBlock: AJUNOK_clean_linker_0, # of connection points: 2
#     Edge 135, Type (0, 0), BuildingBlock: AJUNOK_clean_linker_0, # of connection points: 2
#     Edge 136, Type (0, 0), BuildingBlock: AJUNOK_clean_linker_0, # of connection points: 2
#     Edge 137, Type (0, 0), BuildingBlock: AJUNOK_clean_linker_0, # of connection points: 2
#     Edge 138, Type (0, 0), BuildingBlock: AJUNOK_clean_linker_0, # of connection points: 2
#     Edge 139, Type (0, 0), BuildingBlock: AJUNOK_clean_linker_0, # of connection points: 2
#     Edge 140, Type (0, 0), BuildingBlock: AJUNOK_clean_linker_0, # of connection points: 2
#     Edge 141, Type (0, 0), BuildingBlock: AJUNOK_clean_linker_0, # of connection points: 2
#     Edge 142, Type (0, 0), BuildingBlock: AJUNOK_clean_linker_0, # of connection points: 2
#     Edge 143, Type (0, 0), BuildingBlock: AJUNOK_clean_linker_0, # of connection points: 2
# Relax obj value: 0.421
# Max RMSD: 0.223
# Mean RMSD: 0.223
data_MOF--net-uli--node1-NAHDIM_clean_sbu_0--edge1-AJUNOK_clean_linker_0
_symmetry_space_group_name_H-M    P1
_symmetry_Int_Tables_number       1
_symmetry_cell_setting            triclinic
loop_
_symmetry_equiv_pos_as_xyz
'x, y, z'
_cell_length_a     50.66798
_cell_length_b     50.685217
_cell_length_c     50.722186
_cell_angle_alpha  89.717514
_cell_angle_beta   89.87483
_cell_angle_gamma 89.874786
loop_
_atom_site_label
_atom_site_type_symbol
_atom_site_fract_x
_atom_site_fract_y
_atom_site_fract_z
_atom_type_partial_charge
C0 C 0.03098 0.26201 0.21503 0.0
O1 O 0.04585 0.27816 0.22858 0.0
O2 O 0.0936 0.2907 0.19795 0.0
Zn3 Zn 0.07914 0.25477 0.19023 0.0
O4 O 0.09229 0.22909 0.21722 0.0
C5 C 0.10921 0.2575 0.14259 0.0
O6 O 0.10842 0.28288 0.1475 0.0
O7 O 0.04005 0.25215 0.19387 0.0
C8 C 0.08456 0.20539 0.21483 0.0
O9 O 0.06937 0.19925 0.19482 0.0
C10 C 0.10285 0.29655 0.22038 0.0
O11 O 0.101 0.27947 0.23985 0.0
O12 O 0.0947 0.24205 0.15608 0.0
C13 C 0.72994 0.03535 0.23605 0.0
O14 O 0.72373 0.04858 0.25739 0.0
O15 O 0.69532 0.102 0.22512 0.0
Zn16 Zn 0.73073 0.08677 0.21584 0.0
O17 O 0.7589 0.09682 0.24162 0.0
C18 C 0.74256 0.1285 0.18268 0.0
O19 O 0.73407 0.14013 0.20421 0.0
O20 O 0.73151 0.04752 0.21417 0.0
C21 C 0.78151 0.08736 0.23608 0.0
O22 O 0.7837 0.07171 0.21563 0.0
C23 C 0.68973 0.11098 0.24778 0.0
O24 O 0.70679 0.10785 0.26701 0.0
O25 O 0.74226 0.10346 0.1818 0.0
C26 C 0.93848 0.7015 0.25303 0.0
O27 O 0.92329 0.70889 0.2727 0.0
O28 O 0.86845 0.67673 0.2455 0.0
Zn29 Zn 0.88986 0.70516 0.22838 0.0
O30 O 0.88385 0.74079 0.24454 0.0
C31 C 0.85245 0.71072 0.18937 0.0
O32 O 0.83821 0.70835 0.21092 0.0
O33 O 0.92813 0.69727 0.23069 0.0
C34 C 0.89344 0.76023 0.23182 0.0
O35 O 0.90666 0.75574 0.20997 0.0
C36 C 0.85616 0.67921 0.26717 0.0
O37 O 0.8588 0.70108 0.28069 0.0
O38 O 0.87739 0.70881 0.19111 0.0
C39 C 0.23666 0.93602 0.27111 0.0
O40 O 0.23715 0.91884 0.29058 0.0
O41 O 0.27758 0.87382 0.24535 0.0
Zn42 Zn 0.24205 0.88998 0.23944 0.0
O43 O 0.21429 0.87098 0.26019 0.0
C44 C 0.25046 0.88147 0.18387 0.0
O45 O 0.27532 0.88545 0.18988 0.0
O46 O 0.24 0.92812 0.24763 0.0
C47 C 0.19064 0.8788 0.25711 0.0
O48 O 0.18615 0.89938 0.2419 0.0
C49 C 0.28533 0.86335 0.26673 0.0
O50 O 0.27036 0.8651 0.28783 0.0
O51 O 0.23293 0.88406 0.2016 0.0
C52 C 0.04105 0.74054 0.75636 0.0
O53 O 0.06075 0.73517 0.74042 0.0
O54 O 0.09979 0.70178 0.77803 0.0
Zn55 Zn 0.08313 0.73587 0.79053 0.0
O56 O 0.10101 0.76584 0.77211 0.0
C57 C 0.1007 0.72111 0.84195 0.0
O58 O 0.09669 0.69722 0.83295 0.0
O59 O 0.04504 0.74 0.7811 0.0
C60 C 0.09455 0.78964 0.7765 0.0
O61 O 0.07597 0.79474 0.79385 0.0
C62 C 0.1141 0.70152 0.75742 0.0
O63 O 0.1158 0.72299 0.74292 0.0
O64 O 0.09193 0.74059 0.82873 0.0
C65 C 0.25995 0.0581 0.7566 0.0
O66 O 0.2719 0.0728 0.73883 0.0
O67 O 0.28528 0.12231 0.76069 0.0
Zn68 Zn 0.25306 0.10797 0.77917 0.0
O69 O 0.21875 0.12032 0.76345 0.0
C70 C 0.2578 0.14652 0.81744 0.0
O71 O 0.26594 0.15871 0.79601 0.0
O72 O 0.25192 0.0688 0.77771 0.0
C73 C 0.20888 0.11356 0.74149 0.0
O74 O 0.22233 0.09841 0.72539 0.0
C75 C 0.284 0.13729 0.74059 0.0
O76 O 0.26084 0.14248 0.73028 0.0
O77 O 0.25226 0.12213 0.81601 0.0
C78 C 0.92697 0.24179 0.73059 0.0
O79 O 0.91113 0.23419 0.71162 0.0
O80 O 0.85563 0.26176 0.74401 0.0
Zn81 Zn 0.88025 0.23437 0.75828 0.0
O82 O 0.87494 0.19981 0.74016 0.0
C83 C 0.85927 0.24496 0.81038 0.0
O84 O 0.85816 0.26946 0.80193 0.0
O85 O 0.91776 0.24469 0.75369 0.0
C86 C 0.8865 0.1799 0.75024 0.0
O87 O 0.90205 0.18332 0.77063 0.0
C88 C 0.86099 0.28621 0.74475 0.0
O89 O 0.88435 0.29368 0.75301 0.0
O90 O 0.87004 0.22761 0.79593 0.0
C91 C 0.70321 0.94235 0.78877 0.0
O92 O 0.68414 0.92909 0.7775 0.0
O93 O 0.6903 0.87361 0.78754 0.0
Zn94 Zn 0.72244 0.891 0.80232 0.0
O95 O 0.75307 0.88457 0.77805 0.0
C96 C 0.7145 0.85837 0.84786 0.0
O97 O 0.68984 0.85932 0.84 0.0
O98 O 0.71939 0.93022 0.80365 0.0
C99 C 0.77559 0.8933 0.78467 0.0
O100 O 0.77814 0.9053 0.80743 0.0
C101 C 0.68603 0.87139 0.76303 0.0
O102 O 0.70273 0.88185 0.74613 0.0
O103 O 0.73136 0.87316 0.83657 0.0
C104 C 0.20334 0.04449 0.28459 0.0
O105 O 0.2156 0.06006 0.30114 0.0
O106 O 0.20485 0.11345 0.28921 0.0
Zn107 Zn 0.18632 0.09316 0.2608 0.0
O108 O 0.2026 0.10005 0.22526 0.0
C109 C 0.14091 0.12512 0.27235 0.0
O110 O 0.15412 0.13045 0.2939 0.0
O111 O 0.18836 0.05446 0.26713 0.0
C112 C 0.22228 0.08822 0.21514 0.0
O113 O 0.23527 0.07053 0.22901 0.0
C114 C 0.2268 0.125 0.28582 0.0
O115 O 0.2389 0.12276 0.26303 0.0
O116 O 0.14941 0.10706 0.25722 0.0
C117 C 0.94109 0.21809 0.27016 0.0
O118 O 0.9214 0.23476 0.27301 0.0
O119 O 0.87416 0.20812 0.28689 0.0
Zn120 Zn 0.89836 0.18764 0.2634 0.0
O121 O 0.89543 0.20248 0.22705 0.0
C122 C 0.87032 0.14189 0.27999 0.0
O123 O 0.86759 0.15569 0.30168 0.0
O124 O 0.93623 0.19351 0.27098 0.0
C125 C 0.90665 0.19122 0.20771 0.0
O126 O 0.9187 0.16853 0.21134 0.0
C127 C 0.8518 0.21429 0.27736 0.0
O128 O 0.84628 0.20768 0.25299 0.0
O129 O 0.88589 0.15024 0.26215 0.0
C130 C 0.76824 0.92834 0.2493 0.0
O131 O 0.7512 0.91042 0.25709 0.0
O132 O 0.7803 0.86144 0.26702 0.0
Zn133 Zn 0.79616 0.88234 0.23717 0.0
O134 O 0.77847 0.87333 0.20319 0.0
C135 C 0.84506 0.86026 0.25406 0.0
O136 O 0.83488 0.86489 0.27742 0.0
O137 O 0.791 0.9211 0.2416 0.0
C138 C 0.7886 0.8817 0.18179 0.0
O139 O 0.81016 0.89602 0.18266 0.0
C140 C 0.75914 0.84825 0.26519 0.0
O141 O 0.74525 0.84962 0.24338 0.0
O142 O 0.83366 0.86999 0.23393 0.0
C143 C 0.04992 0.72326 0.25309 0.0
O144 O 0.06795 0.70839 0.24186 0.0
O145 O 0.11874 0.73882 0.27223 0.0
Zn146 Zn 0.09215 0.75762 0.25001 0.0
O147 O 0.09871 0.74834 0.21225 0.0
C148 C 0.10815 0.80367 0.27697 0.0
O149 O 0.10684 0.78749 0.29724 0.0
O150 O 0.05589 0.74661 0.25976 0.0
C151 C 0.09117 0.7629 0.19326 0.0
O152 O 0.07858 0.785 0.19832 0.0
C153 C 0.1427 0.7448 0.26788 0.0
O154 O 0.14819 0.76081 0.24818 0.0
O155 O 0.09918 0.79617 0.25487 0.0
C156 C 0.22401 0.95441 0.72456 0.0
O157 O 0.23245 0.94507 0.70197 0.0
O158 O 0.21672 0.89155 0.69533 0.0
Zn159 Zn 0.2062 0.90124 0.73228 0.0
O160 O 0.22847 0.88198 0.75874 0.0
C161 C 0.16309 0.86678 0.72774 0.0
O162 O 0.17875 0.85777 0.70919 0.0
O163 O 0.2106 0.93961 0.73973 0.0
C164 C 0.23693 0.85866 0.75534 0.0
O165 O 0.23301 0.84696 0.73265 0.0
C166 C 0.24035 0.88808 0.68771 0.0
O167 O 0.25972 0.8933 0.70404 0.0
O168 O 0.16955 0.88782 0.73963 0.0
C169 C 0.04013 0.23516 0.72813 0.0
O170 O 0.05517 0.25367 0.7381 0.0
O171 O 0.11273 0.22067 0.71256 0.0
Zn172 Zn 0.08606 0.20674 0.73817 0.0
O173 O 0.09018 0.22492 0.77298 0.0
C174 C 0.10565 0.15781 0.72188 0.0
O175 O 0.09941 0.16772 0.69874 0.0
O176 O 0.0495 0.2121 0.72525 0.0
C177 C 0.08534 0.21327 0.79469 0.0
O178 O 0.07771 0.18851 0.7945 0.0
C179 C 0.13635 0.21557 0.71931 0.0
O180 O 0.14063 0.20592 0.74301 0.0
O181 O 0.09625 0.16877 0.74235 0.0
C182 C 0.73761 0.04035 0.74074 0.0
O183 O 0.72186 0.06091 0.7391 0.0
O184 O 0.76686 0.1005 0.70196 0.0
Zn185 Zn 0.77498 0.08041 0.73525 0.0
O186 O 0.75683 0.09883 0.76487 0.0
C187 C 0.83007 0.08713 0.72363 0.0
O188 O 0.82248 0.0825 0.69933 0.0
O189 O 0.76219 0.04344 0.73682 0.0
C190 C 0.7604 0.09102 0.78843 0.0
O191 O 0.77624 0.07095 0.79296 0.0
C192 C 0.77588 0.12391 0.70244 0.0
O193 O 0.78782 0.1321 0.72385 0.0
O194 O 0.81372 0.08345 0.7423 0.0
C195 C 0.94546 0.78766 0.71436 0.0
O196 O 0.93167 0.7748 0.69676 0.0
O197 O 0.88162 0.80719 0.68526 0.0
Zn198 Zn 0.89595 0.81245 0.72207 0.0
O199 O 0.87963 0.78545 0.74572 0.0
C200 C 0.86631 0.86054 0.7237 0.0
O201 O 0.86547 0.85712 0.6981 0.0
O202 O 0.93488 0.80703 0.72621 0.0
C203 C 0.85468 0.78511 0.74772 0.0
O204 O 0.84066 0.80113 0.73284 0.0
C205 C 0.87342 0.78474 0.67787 0.0
O206 O 0.87739 0.76416 0.69322 0.0
O207 O 0.88203 0.8464 0.73724 0.0
C208 C 0.25615 0.21678 0.04869 0.0
O209 O 0.26561 0.23364 0.06582 0.0
O210 O 0.28797 0.20216 0.10971 0.0
Zn211 Zn 0.25354 0.18921 0.09511 0.0
O212 O 0.22398 0.21236 0.10741 0.0
C213 C 0.26024 0.13662 0.11942 0.0
O214 O 0.28578 0.14007 0.11652 0.0
O215 O 0.25168 0.19321 0.05608 0.0
C216 C 0.20118 0.20523 0.09981 0.0
O217 O 0.1989 0.1836 0.08583 0.0
C218 C 0.29258 0.19948 0.13418 0.0
O219 O 0.27478 0.18814 0.14929 0.0
O220 O 0.24448 0.15336 0.10935 0.0
C221 C 0.26503 0.74162 0.93394 0.0
O222 O 0.26881 0.71828 0.92342 0.0
O223 O 0.28202 0.72854 0.86707 0.0
Zn224 Zn 0.25459 0.75318 0.88129 0.0
O225 O 0.21863 0.73693 0.87927 0.0
C226 C 0.27021 0.78961 0.84 0.0
O227 O 0.28955 0.7727 0.83652 0.0
O228 O 0.26045 0.7612 0.91896 0.0
C229 C 0.19906 0.74948 0.8887 0.0
O230 O 0.20306 0.77253 0.89974 0.0
C231 C 0.27562 0.71353 0.8482 0.0
O232 O 0.25078 0.71284 0.84083 0.0
O233 O 0.25386 0.78595 0.85872 0.0
C234 C 0.2156 0.26144 0.95153 0.0
O235 O 0.23287 0.2705 0.93443 0.0
O236 O 0.18825 0.29963 0.89048 0.0
Zn237 Zn 0.18436 0.26305 0.90606 0.0
O238 O 0.21019 0.23932 0.8881 0.0
C239 C 0.13165 0.26288 0.88495 0.0
O240 O 0.13402 0.28859 0.88676 0.0
O241 O 0.19165 0.25905 0.9446 0.0
C242 C 0.21152 0.21523 0.89502 0.0
O243 O 0.19653 0.20688 0.9145 0.0
C244 C 0.20986 0.3065 0.87973 0.0
O245 O 0.23058 0.2911 0.88241 0.0
O246 O 0.14932 0.24831 0.89521 0.0
C247 C 0.74393 0.22879 0.94676 0.0
O248 O 0.73989 0.24785 0.9296 0.0
O249 O 0.69397 0.21894 0.89407 0.0
Zn250 Zn 0.72867 0.20173 0.90267 0.0
O251 O 0.75819 0.21883 0.88261 0.0
C252 C 0.71906 0.16196 0.86681 0.0
O253 O 0.70625 0.18207 0.85652 0.0
O254 O 0.73829 0.20529 0.94036 0.0
C255 C 0.78072 0.20791 0.88442 0.0
O256 O 0.78335 0.18683 0.89937 0.0
C257 C 0.69353 0.24114 0.8824 0.0
O258 O 0.71587 0.25371 0.8786 0.0
O259 O 0.72902 0.16449 0.88962 0.0
C260 C 0.77677 0.69886 0.93077 0.0
O261 O 0.75569 0.68722 0.92132 0.0
O262 O 0.76479 0.67891 0.86321 0.0
Zn263 Zn 0.78093 0.71178 0.87784 0.0
O264 O 0.75505 0.74184 0.87824 0.0
C265 C 0.79866 0.72785 0.82969 0.0
O266 O 0.77333 0.72349 0.82635 0.0
O267 O 0.79355 0.70833 0.91475 0.0
C268 C 0.76396 0.76374 0.88639 0.0
O269 O 0.78845 0.76475 0.89479 0.0
C270 C 0.74031 0.6779 0.85802 0.0
O271 O 0.725 0.69732 0.86578 0.0
O272 O 0.8087 0.72327 0.85222 0.0
C273 C 0.76079 0.73787 0.03612 0.0
O274 O 0.75669 0.72179 0.05605 0.0
O275 O 0.71191 0.77253 0.08592 0.0
Zn276 Zn 0.75023 0.77529 0.0758 0.0
O277 O 0.77081 0.75303 0.10101 0.0
C278 C 0.74694 0.82972 0.09081 0.0
O279 O 0.72148 0.82577 0.08822 0.0
O280 O 0.75829 0.76261 0.03939 0.0
C281 C 0.79583 0.75279 0.09946 0.0
O282 O 0.80736 0.76644 0.08062 0.0
C283 C 0.70237 0.75095 0.09436 0.0
O284 O 0.71705 0.72959 0.09354 0.0
O285 O 0.76289 0.81204 0.08294 0.0
C286 C 0.23563 0.74681 0.04389 0.0
O287 O 0.25083 0.73816 0.063 0.0
O288 O 0.21426 0.72745 0.10746 0.0
Zn289 Zn 0.20406 0.76019 0.08743 0.0
O290 O 0.22324 0.79098 0.10254 0.0
C291 C 0.15132 0.74556 0.09945 0.0
O292 O 0.16052 0.72213 0.09331 0.0
O293 O 0.21339 0.75703 0.04945 0.0
C294 C 0.21314 0.81392 0.10178 0.0
O295 O 0.19027 0.81741 0.09011 0.0
C296 C 0.23531 0.72539 0.12081 0.0
O297 O 0.25216 0.74505 0.12099 0.0
O298 O 0.16556 0.76561 0.09464 0.0
C299 C 0.80192 0.25458 0.04159 0.0
O300 O 0.79807 0.27779 0.05234 0.0
O301 O 0.82274 0.27803 0.10552 0.0
Zn302 Zn 0.82555 0.24118 0.09139 0.0
O303 O 0.80043 0.2188 0.11216 0.0
C304 C 0.87844 0.24013 0.11031 0.0
O305 O 0.87615 0.26591 0.10883 0.0
O306 O 0.81521 0.23729 0.0539 0.0
C307 C 0.7985 0.19438 0.10703 0.0
O308 O 0.81255 0.18462 0.08756 0.0
C309 C 0.80026 0.287 0.11202 0.0
O310 O 0.77914 0.27295 0.10685 0.0
O311 O 0.86095 0.22596 0.09954 0.0
C312 C 0.52842 0.772 0.71191 0.0
O313 O 0.54447 0.77897 0.73093 0.0
O314 O 0.59353 0.80212 0.70486 0.0
Zn315 Zn 0.57645 0.77123 0.68696 0.0
O316 O 0.58578 0.73777 0.7059 0.0
C317 C 0.60522 0.78689 0.64084 0.0
O318 O 0.60303 0.81034 0.65147 0.0
O319 O 0.53718 0.77141 0.68843 0.0
C320 C 0.57658 0.71637 0.69681 0.0
O321 O 0.5627 0.71701 0.67497 0.0
C322 C 0.60501 0.79971 0.72696 0.0
O323 O 0.60316 0.77726 0.73987 0.0
O324 O 0.59239 0.76778 0.65086 0.0
C325 C 0.20586 0.54689 0.70238 0.0
O326 O 0.19049 0.56018 0.71844 0.0
O327 O 0.19674 0.61691 0.70816 0.0
Zn328 Zn 0.22765 0.59794 0.69213 0.0
O329 O 0.25998 0.60035 0.71479 0.0
C330 C 0.22053 0.63359 0.64841 0.0
O331 O 0.19616 0.63424 0.65722 0.0
O332 O 0.22136 0.55938 0.68713 0.0
C333 C 0.28047 0.58939 0.70525 0.0
O334 O 0.27872 0.57751 0.68235 0.0
C335 C 0.19088 0.62032 0.73224 0.0
O336 O 0.2056 0.60947 0.75064 0.0
O337 O 0.23677 0.61736 0.65863 0.0
C338 C 0.43822 0.24211 0.73612 0.0
O339 O 0.41923 0.24759 0.75284 0.0
O340 O 0.37095 0.22538 0.70937 0.0
Zn341 Zn 0.39769 0.25234 0.69887 0.0
O342 O 0.38588 0.28753 0.71296 0.0
C343 C 0.3923 0.23195 0.64776 0.0
O344 O 0.39928 0.21015 0.66001 0.0
O345 O 0.43363 0.24273 0.71153 0.0
C346 C 0.37327 0.28884 0.7346 0.0
O347 O 0.36878 0.26707 0.748 0.0
C348 C 0.37523 0.20185 0.71688 0.0
O349 O 0.39954 0.19359 0.72056 0.0
O350 O 0.39516 0.25375 0.65966 0.0
C351 C 0.74003 0.44927 0.73406 0.0
O352 O 0.73995 0.43226 0.7537 0.0
O353 O 0.7772 0.38475 0.72678 0.0
Zn354 Zn 0.74626 0.40195 0.70908 0.0
O355 O 0.71328 0.38994 0.72721 0.0
C356 C 0.76656 0.37831 0.66269 0.0
O357 O 0.78913 0.38601 0.67269 0.0
O358 O 0.74557 0.44102 0.7111 0.0
C359 C 0.69081 0.39638 0.71814 0.0
O360 O 0.68943 0.41087 0.69665 0.0
C361 C 0.77457 0.35982 0.72765 0.0
O362 O 0.75206 0.34957 0.71999 0.0
O363 O 0.74524 0.38725 0.67247 0.0
C364 C 0.55181 0.2514 0.2422 0.0
O365 O 0.57212 0.24737 0.22661 0.0
O366 O 0.60301 0.20345 0.27632 0.0
Zn367 Zn 0.59025 0.24084 0.28115 0.0
O368 O 0.61514 0.26522 0.26266 0.0
C369 C 0.60042 0.23381 0.33636 0.0
O370 O 0.59815 0.20867 0.33064 0.0
O371 O 0.55436 0.24823 0.26694 0.0
C372 C 0.63928 0.26431 0.26916 0.0
O373 O 0.64703 0.24641 0.28633 0.0
C374 C 0.61387 0.196 0.25504 0.0
O375 O 0.61431 0.21219 0.23476 0.0
O376 O 0.59392 0.25085 0.31912 0.0
C377 C 0.75627 0.53356 0.29808 0.0
O378 O 0.77749 0.54744 0.30314 0.0
O379 O 0.76363 0.60009 0.31304 0.0
Zn380 Zn 0.73016 0.57945 0.31818 0.0
O381 O 0.70323 0.59737 0.29556 0.0
C382 C 0.73259 0.59702 0.37049 0.0
O383 O 0.75819 0.59508 0.36682 0.0
O384 O 0.73389 0.54238 0.3052 0.0
C385 C 0.70145 0.62219 0.29822 0.0
O386 O 0.7167 0.63395 0.31546 0.0
C387 C 0.77152 0.60554 0.28991 0.0
O388 O 0.75854 0.59606 0.26966 0.0
O389 O 0.71748 0.58415 0.35533 0.0
C390 C 0.44447 0.75631 0.25931 0.0
O391 O 0.42462 0.76596 0.24574 0.0
O392 O 0.38345 0.78204 0.28925 0.0
Zn393 Zn 0.40355 0.74813 0.29469 0.0
O394 O 0.38796 0.71991 0.27228 0.0
C395 C 0.38776 0.75086 0.34869 0.0
O396 O 0.38728 0.77633 0.3438 0.0
O397 O 0.44096 0.74965 0.28324 0.0
C398 C 0.39512 0.69622 0.27641 0.0
O399 O 0.41221 0.69109 0.2952 0.0
C400 C 0.36901 0.78542 0.26908 0.0
O401 O 0.36849 0.76717 0.2508 0.0
O402 O 0.39804 0.73561 0.33174 0.0
C403 C 0.21669 0.44983 0.24005 0.0
O404 O 0.20592 0.4345 0.22229 0.0
O405 O 0.18792 0.38615 0.25469 0.0
Zn406 Zn 0.22323 0.4008 0.26429 0.0
O407 O 0.25107 0.38724 0.23979 0.0
C408 C 0.21488 0.37697 0.31499 0.0
O409 O 0.19007 0.38224 0.3097 0.0
O410 O 0.22434 0.43988 0.26175 0.0
C411 C 0.274 0.39716 0.24174 0.0
O412 O 0.27779 0.41628 0.2587 0.0
C413 C 0.183 0.37595 0.23247 0.0
O414 O 0.20103 0.37699 0.21383 0.0
O415 O 0.23269 0.38611 0.29984 0.0
C416 C 0.68683 0.55036 0.7436 0.0
O417 O 0.68017 0.56067 0.76637 0.0
O418 O 0.68665 0.61824 0.75813 0.0
Zn419 Zn 0.67539 0.60227 0.72384 0.0
O420 O 0.69474 0.62016 0.69438 0.0
C421 C 0.62386 0.62127 0.73623 0.0
O422 O 0.63217 0.61855 0.76059 0.0
O423 O 0.68423 0.56406 0.72277 0.0
C424 C 0.71759 0.61407 0.68599 0.0
O425 O 0.73069 0.59476 0.69735 0.0
C426 C 0.70887 0.61438 0.76896 0.0
O427 O 0.72634 0.59928 0.75716 0.0
O428 O 0.63737 0.61111 0.71775 0.0
C429 C 0.43806 0.71155 0.74681 0.0
O430 O 0.41793 0.7244 0.75691 0.0
O431 O 0.37797 0.6837 0.77383 0.0
Zn432 Zn 0.39765 0.67657 0.74026 0.0
O433 O 0.38193 0.70091 0.71362 0.0
C434 C 0.38036 0.62364 0.74566 0.0
O435 O 0.38523 0.62792 0.7707 0.0
O436 O 0.43528 0.68742 0.74067 0.0
C437 C 0.38914 0.70124 0.68965 0.0
O438 O 0.40644 0.68383 0.68128 0.0
C439 C 0.35319 0.68092 0.77107 0.0
O440 O 0.34408 0.67403 0.74788 0.0
O441 O 0.38961 0.63965 0.72865 0.0
C442 C 0.22135 0.43694 0.72975 0.0
O443 O 0.20122 0.42093 0.73291 0.0
O444 O 0.23954 0.38135 0.78051 0.0
Zn445 Zn 0.24996 0.3906 0.74336 0.0
O446 O 0.23027 0.36861 0.71723 0.0
C447 C 0.3026 0.37433 0.75831 0.0
O448 O 0.29432 0.37993 0.78219 0.0
O449 O 0.24454 0.42855 0.73435 0.0
C450 C 0.23744 0.37174 0.69339 0.0
O451 O 0.25521 0.38983 0.68795 0.0
C452 C 0.21673 0.37465 0.78843 0.0
O453 O 0.19693 0.37531 0.77176 0.0
O454 O 0.28781 0.37969 0.73879 0.0
C455 C 0.54787 0.24851 0.76163 0.0
O456 O 0.5659 0.23039 0.75724 0.0
O457 O 0.61474 0.2726 0.78986 0.0
Zn458 Zn 0.59267 0.28005 0.75825 0.0
O459 O 0.60539 0.25754 0.72846 0.0
C460 C 0.60802 0.3341 0.76345 0.0
O461 O 0.60819 0.32805 0.78866 0.0
O462 O 0.55482 0.27239 0.76429 0.0
C463 C 0.59786 0.26268 0.70512 0.0
O464 O 0.5817 0.2826 0.70106 0.0
C465 C 0.60707 0.26477 0.8124 0.0
O466 O 0.58197 0.25977 0.81654 0.0
O467 O 0.59937 0.31732 0.74713 0.0
C468 C 0.75984 0.43838 0.23492 0.0
O469 O 0.78246 0.42607 0.23172 0.0
O470 O 0.75997 0.37642 0.19278 0.0
Zn471 Zn 0.74433 0.38696 0.22739 0.0
O472 O 0.76637 0.37586 0.25845 0.0
C473 C 0.71652 0.3413 0.23395 0.0
O474 O 0.74118 0.33358 0.23144 0.0
O475 O 0.73864 0.42567 0.23104 0.0
C476 C 0.75712 0.38335 0.28052 0.0
O477 O 0.73635 0.39892 0.28057 0.0
C478 C 0.78313 0.3671 0.19051 0.0
O479 O 0.79882 0.36731 0.21108 0.0
O480 O 0.71127 0.36578 0.23194 0.0
C481 C 0.54154 0.73043 0.2053 0.0
O482 O 0.55499 0.7509 0.19672 0.0
O483 O 0.60896 0.72193 0.17609 0.0
Zn484 Zn 0.5925 0.71335 0.21094 0.0
O485 O 0.59827 0.74121 0.23853 0.0
C486 C 0.63488 0.6877 0.23167 0.0
O487 O 0.64372 0.71123 0.22521 0.0
O488 O 0.55369 0.70887 0.20924 0.0
C489 C 0.58768 0.73523 0.26053 0.0
O490 O 0.57334 0.71371 0.26198 0.0
C491 C 0.61711 0.74474 0.16969 0.0
O492 O 0.61294 0.7645 0.18585 0.0
O493 O 0.6112 0.68184 0.22592 0.0
C494 C 0.24986 0.55565 0.21312 0.0
O495 O 0.23196 0.57392 0.2088 0.0
O496 O 0.27075 0.62421 0.1942 0.0
Zn497 Zn 0.27909 0.60058 0.22489 0.0
O498 O 0.256 0.60962 0.2555 0.0
C499 C 0.33211 0.62 0.22171 0.0
O500 O 0.32623 0.62294 0.19666 0.0
O501 O 0.27338 0.56254 0.21815 0.0
C502 C 0.25883 0.59613 0.27649 0.0
O503 O 0.27624 0.57688 0.27688 0.0
C504 C 0.24908 0.63662 0.19202 0.0
O505 O 0.23002 0.63208 0.20904 0.0
O506 O 0.31577 0.60848 0.23685 0.0
C507 C 0.45018 0.28212 0.20053 0.0
O508 O 0.43904 0.26474 0.18502 0.0
O509 O 0.38133 0.27112 0.18739 0.0
Zn510 Zn 0.39692 0.29494 0.21493 0.0
O511 O 0.39142 0.27962 0.25124 0.0
C512 C 0.35846 0.3339 0.19927 0.0
O513 O 0.35349 0.3168 0.18056 0.0
O514 O 0.43585 0.29908 0.21205 0.0
C515 C 0.37213 0.26496 0.25751 0.0
O516 O 0.35421 0.25913 0.23982 0.0
C517 C 0.38092 0.24608 0.18842 0.0
O518 O 0.39336 0.23378 0.20759 0.0
O519 O 0.37756 0.32954 0.21491 0.0
C520 C 0.74795 0.76095 0.53089 0.0
O521 O 0.75318 0.78099 0.54631 0.0
O522 O 0.7852 0.74726 0.5936 0.0
Zn523 Zn 0.75019 0.73531 0.57972 0.0
O524 O 0.72037 0.7574 0.59348 0.0
C525 C 0.75933 0.68542 0.6068 0.0
O526 O 0.78367 0.69399 0.60886 0.0
O527 O 0.74756 0.73781 0.54062 0.0
C528 C 0.69774 0.75055 0.58518 0.0
O529 O 0.69609 0.73065 0.56875 0.0
C530 C 0.7896 0.77025 0.60234 0.0
O531 O 0.77085 0.78813 0.60096 0.0
O532 O 0.74278 0.69885 0.59351 0.0
C533 C 0.75347 0.24438 0.43733 0.0
O534 O 0.75425 0.2261 0.41907 0.0
O535 O 0.77333 0.25471 0.37065 0.0
Zn536 Zn 0.74729 0.2748 0.39225 0.0
O537 O 0.71139 0.26146 0.38335 0.0
C538 C 0.77324 0.32051 0.37341 0.0
O539 O 0.79408 0.30598 0.3787 0.0
O540 O 0.75222 0.26847 0.43041 0.0
C541 C 0.69034 0.27191 0.39208 0.0
O542 O 0.69179 0.29285 0.40717 0.0
C543 C 0.77102 0.25779 0.34589 0.0
O544 O 0.75135 0.27212 0.33687 0.0
O545 O 0.75067 0.31259 0.38101 0.0
C546 C 0.70671 0.77724 0.42572 0.0
O547 O 0.72226 0.78739 0.40762 0.0
O548 O 0.70078 0.7788 0.35601 0.0
Zn549 Zn 0.6823 0.75425 0.38095 0.0
O550 O 0.69823 0.71812 0.37859 0.0
C551 C 0.63639 0.77248 0.35515 0.0
O552 O 0.64882 0.79507 0.35732 0.0
O553 O 0.68633 0.76456 0.41866 0.0
C554 C 0.68755 0.69925 0.39128 0.0
O555 O 0.66594 0.70376 0.40491 0.0
C556 C 0.72449 0.77703 0.34818 0.0
O557 O 0.73983 0.75836 0.35768 0.0
O558 O 0.64514 0.75254 0.36774 0.0
C559 C 0.23068 0.72438 0.43544 0.0
O560 O 0.22663 0.74115 0.41603 0.0
O561 O 0.21501 0.71114 0.36878 0.0
Zn562 Zn 0.24167 0.69408 0.39242 0.0
O563 O 0.27657 0.71115 0.38601 0.0
C564 C 0.22372 0.64633 0.37115 0.0
O565 O 0.20083 0.65809 0.37448 0.0
O566 O 0.23442 0.70021 0.43016 0.0
C567 C 0.29772 0.70176 0.39568 0.0
O568 O 0.29688 0.67988 0.40964 0.0
C569 C 0.22178 0.71418 0.34483 0.0
O570 O 0.24574 0.70744 0.3375 0.0
O571 O 0.2441 0.65635 0.3816 0.0
C572 C 0.26418 0.2395 0.4324 0.0
O573 O 0.24545 0.25033 0.41814 0.0
O574 O 0.27641 0.21766 0.35991 0.0
Zn575 Zn 0.2909 0.24557 0.38389 0.0
O576 O 0.27278 0.28013 0.37639 0.0
C577 C 0.34014 0.23214 0.36085 0.0
O578 O 0.33124 0.20805 0.36444 0.0
O579 O 0.28663 0.23538 0.42195 0.0
C580 C 0.24958 0.28177 0.36708 0.0
O581 O 0.23619 0.26004 0.36283 0.0
C582 C 0.26164 0.19844 0.36622 0.0
O583 O 0.25313 0.19615 0.3906 0.0
O584 O 0.32835 0.251 0.37235 0.0
C585 C 0.24578 0.22174 0.5438 0.0
O586 O 0.25718 0.20282 0.55744 0.0
O587 O 0.21425 0.22274 0.61641 0.0
Zn588 Zn 0.24083 0.24252 0.59478 0.0
O589 O 0.27751 0.22952 0.60196 0.0
C590 C 0.2182 0.28905 0.61776 0.0
O591 O 0.19637 0.27524 0.61623 0.0
O592 O 0.23489 0.24071 0.556 0.0
C593 C 0.29646 0.24138 0.59054 0.0
O594 O 0.2912 0.26119 0.57457 0.0
C595 C 0.21965 0.22196 0.64086 0.0
O596 O 0.24276 0.23057 0.64869 0.0
O597 O 0.23933 0.2799 0.60776 0.0
C598 C 0.73121 0.21734 0.54614 0.0
O599 O 0.74604 0.20072 0.55944 0.0
O600 O 0.72992 0.20387 0.61608 0.0
Zn601 Zn 0.71323 0.23471 0.59735 0.0
O602 O 0.73105 0.26905 0.6058 0.0
C603 C 0.66487 0.22066 0.62394 0.0
O604 O 0.67607 0.19731 0.62544 0.0
O605 O 0.71473 0.23174 0.55833 0.0
C606 C 0.7451 0.27369 0.62592 0.0
O607 O 0.7492 0.25497 0.64342 0.0
C608 C 0.75438 0.19995 0.6198 0.0
O609 O 0.77169 0.21639 0.60965 0.0
O610 O 0.67624 0.23879 0.61082 0.0
C611 C 0.26194 0.77034 0.53447 0.0
O612 O 0.24354 0.78061 0.54953 0.0
O613 O 0.27946 0.80754 0.59502 0.0
Zn614 Zn 0.28823 0.77112 0.58238 0.0
O615 O 0.2638 0.74401 0.59784 0.0
C616 C 0.32587 0.76573 0.62074 0.0
O617 O 0.30657 0.7784 0.63254 0.0
O618 O 0.28495 0.76687 0.54373 0.0
C619 C 0.26964 0.72031 0.59212 0.0
O620 O 0.29027 0.71584 0.57703 0.0
C621 C 0.25702 0.81264 0.6049 0.0
O622 O 0.23842 0.79466 0.60387 0.0
O623 O 0.32377 0.76091 0.59628 0.0
C624 C 0.97355 0.25389 0.26202 0.0
C625 C 0.96548 0.22778 0.2576 0.0
C626 C -0.00567 0.26504 0.2476 0.0
C627 C 0.00736 0.25071 0.22778 0.0
H628 H 0.96358 0.26589 0.27661 0.0
H629 H 0.00019 0.2851 0.25198 0.0
S630 S -0.00653 0.18163 0.2082 0.0
N631 N 0.97219 0.18777 0.23207 0.0
N632 N 0.0107 0.20897 0.20444 0.0
C633 C -0.00065 0.22461 0.22299 0.0
C634 C 0.97861 0.21305 0.23811 0.0
C635 C 0.73962 0.96607 0.26256 0.0
C636 C 0.75953 0.95593 0.24611 0.0
C637 C 0.72992 -0.00826 0.25899 0.0
C638 C 0.73927 0.00786 0.23838 0.0
H639 H 0.73159 0.95415 0.27844 0.0
H640 H 0.71487 -0.00105 0.27237 0.0
S641 S 0.791 0.99033 0.18951 0.0
N642 N 0.78822 0.96387 0.2084 0.0
N643 N 0.76958 0.01187 0.20128 0.0
C644 C 0.75898 -0.00217 0.22159 0.0
C645 C 0.76926 0.97193 0.22559 0.0
C646 C 0.00538 0.72632 0.27354 0.0
C647 C 0.02237 0.71428 0.25525 0.0
C648 C 0.97838 0.72072 0.27379 0.0
C649 C 0.96738 0.70325 0.25541 0.0
H650 H 0.01286 0.74075 0.28732 0.0
H651 H 0.96591 0.73126 0.28757 0.0
S652 S 0.00373 0.66467 0.20506 0.0
N653 N 0.02665 0.68243 0.21969 0.0
N654 N 0.9757 0.67228 0.21988 0.0
C655 C 0.98431 0.69007 0.23788 0.0
C656 C 0.0119 0.69547 0.23788 0.0
C657 C 0.21665 0.97772 0.25489 0.0
C658 C 0.22842 0.96354 0.27566 0.0
C659 C 0.20781 0.00353 0.25838 0.0
C660 C 0.21073 0.01641 0.28268 0.0
H661 H 0.21398 0.96877 0.23572 0.0
H662 H 0.19919 0.01365 0.2416 0.0
S663 S 0.23994 0.98789 0.34349 0.0
N664 N 0.24211 0.96397 0.32159 0.0
N665 N 0.22589 0.013 0.32804 0.0
C666 C 0.22235 0.00249 0.30372 0.0
C667 C 0.23106 0.97591 0.30025 0.0
C668 C 0.97864 0.78126 0.75011 0.0
C669 C 0.97061 0.77646 0.72403 0.0
C670 C 0.00095 0.76883 0.76071 0.0
C671 C 0.01628 0.75144 0.7455 0.0
H672 H 0.96732 0.7943 0.76268 0.0
H673 H 0.00646 0.77329 0.78082 0.0
S674 S 0.00392 0.73246 0.67605 0.0
N675 N 0.97977 0.75316 0.68321 0.0
N676 N 0.02197 0.73008 0.70302 0.0
C677 C 0.0086 0.74661 0.71934 0.0
C678 C 0.98571 0.75905 0.70863 0.0
C679 C 0.2581 0.02077 0.72491 0.0
C680 C 0.25183 0.03094 0.7499 0.0
C681 C 0.24866 -0.00377 0.71683 0.0
C682 C 0.23258 0.98079 0.73342 0.0
H683 H 0.27012 0.03198 0.71118 0.0
H684 H 0.25408 0.98939 0.69737 0.0
S685 S 0.21093 -0.00196 0.80124 0.0
N686 N 0.22894 0.02338 0.79153 0.0
N687 N 0.21115 0.97722 0.77633 0.0
C688 C 0.22636 0.99055 0.75863 0.0
C689 C 0.23603 0.01558 0.7669 0.0
C690 C -0.00127 0.25763 0.74177 0.0
C691 C 0.01162 0.2397 0.72504 0.0
C692 C 0.97118 0.25904 0.7426 0.0
C693 C 0.95566 0.243 0.72632 0.0
H694 H 0.00989 0.2696 0.75542 0.0
H695 H 0.96196 0.27218 0.75669 0.0
S696 S 0.98009 0.19512 0.67677 0.0
N697 N 0.00708 0.20716 0.69031 0.0
N698 N 0.95518 0.21022 0.6914 0.0
C699 C 0.96836 0.2263 0.7082 0.0
C700 C -0.00359 0.22451 0.70771 0.0
C701 C 0.74568 -0.00062 0.76657 0.0
C702 C 0.72798 0.01548 0.75248 0.0
C703 C 0.73711 0.97653 0.77941 0.0
C704 C 0.71054 0.96858 0.77834 0.0
H705 H 0.76636 0.00457 0.768 0.0
H706 H 0.75171 0.9646 0.78956 0.0
S707 S 0.65616 0.00413 0.74444 0.0
N708 N 0.68253 0.02239 0.73871 0.0
N709 N 0.66643 0.9789 0.76244 0.0
C710 C 0.69253 0.98461 0.76452 0.0
C711 C 0.70124 0.00818 0.7517 0.0
C712 C 0.25837 0.24873 0.01133 0.0
C713 C 0.24633 0.22667 0.02314 0.0
C714 C 0.24807 0.26007 0.98831 0.0
C715 C 0.22497 0.25019 0.97671 0.0
H716 H 0.2759 0.2573 0.01994 0.0
H717 H 0.25818 0.27683 0.97965 0.0
S718 S 0.18573 0.19291 0.00017 0.0
N719 N 0.2101 0.1953 0.02157 0.0
N720 N 0.19041 0.21696 0.97861 0.0
C721 C 0.21261 0.22823 0.98842 0.0
C722 C 0.22342 0.21634 0.01154 0.0
C723 C 0.24283 0.76355 0.97166 0.0
C724 C 0.26024 0.74398 0.96247 0.0
C725 C 0.23501 0.76427 -0.00194 0.0
C726 C 0.2447 0.74575 0.01634 0.0
H727 H 0.23434 0.77789 0.9582 0.0
H728 H 0.2212 0.77942 0.00416 0.0
S729 S 0.29197 0.6915 0.0026 0.0
N730 N 0.2877 0.70622 0.9738 0.0
N731 N 0.27342 0.7079 0.02376 0.0
C732 C 0.26285 0.72663 0.00765 0.0
C733 C 0.27049 0.72564 0.98062 0.0
C734 C 0.76123 0.26087 0.97943 0.0
C735 C 0.7579 0.2345 0.97158 0.0
C736 C 0.77584 0.26719 0.00186 0.0
C737 C 0.78788 0.2474 0.01718 0.0
H738 H 0.75254 0.27686 0.96814 0.0
H739 H 0.77771 0.28777 0.00718 0.0
S740 S 0.78499 0.17515 0.00521 0.0
N741 N 0.76769 0.18837 0.98098 0.0
N742 N 0.79525 0.20019 0.02312 0.0
C743 C 0.78471 0.22089 0.00958 0.0
C744 C 0.76963 0.21445 0.98683 0.0
C745 C 0.76203 0.69263 0.97718 0.0
C746 C 0.77695 0.70697 0.95865 0.0
C747 C 0.75768 0.70238 0.00258 0.0
C748 C 0.76757 0.72711 0.01009 0.0
H749 H 0.75295 0.67411 0.97175 0.0
H750 H 0.74554 0.69098 0.01604 0.0
S751 S 0.80979 0.77142 0.96987 0.0
N752 N 0.80345 0.74625 0.95037 0.0
N753 N 0.79454 0.76484 -0.00207 0.0
C754 C 0.78341 0.74118 -0.0078 0.0
C755 C 0.78836 0.731 0.96653 0.0
C756 C 0.49148 0.76343 0.74326 0.0
C757 C 0.50373 0.7582 0.71891 0.0
C758 C 0.47031 0.74809 0.75228 0.0
C759 C 0.46123 0.7265 0.73765 0.0
H760 H 0.4985 0.77933 0.75559 0.0
H761 H 0.46127 0.7529 0.77104 0.0
S762 S 0.48562 0.70511 0.67213 0.0
N763 N 0.50428 0.7306 0.67974 0.0
N764 N 0.4651 0.7013 0.69717 0.0
C765 C 0.47302 0.72122 0.71315 0.0
C766 C 0.49409 0.73724 0.70362 0.0
C767 C 0.193 0.47709 0.72593 0.0
C768 C 0.2171 0.46433 0.72073 0.0
C769 C 0.18912 0.5036 0.71897 0.0
C770 C 0.20899 0.5181 0.70606 0.0
H771 H 0.17732 0.46681 0.73625 0.0
H772 H 0.17059 0.51293 0.72422 0.0
S773 S 0.2749 0.4929 0.68588 0.0
N774 N 0.26056 0.46756 0.70054 0.0
N775 N 0.25319 0.51719 0.68704 0.0
C776 C 0.23276 0.50515 0.69965 0.0
C777 C 0.23685 0.47832 0.70714 0.0
C778 C 0.47409 0.25511 0.76654 0.0
C779 C 0.4655 0.23952 0.74541 0.0
C780 C 0.50091 0.25684 0.77268 0.0
C781 C 0.51978 0.24248 0.75835 0.0
H782 H 0.46026 0.26734 0.77731 0.0
H783 H 0.50702 0.27025 0.78807 0.0
S784 S 0.50681 0.19626 0.70345 0.0
N785 N 0.47742 0.20779 0.71165 0.0
N786 N 0.5279 0.21041 0.72369 0.0
C787 C 0.51121 0.22529 0.7385 0.0
C788 C 0.48398 0.224 0.73186 0.0
C789 C 0.72238 0.49118 0.71518 0.0
C790 C 0.72844 0.47584 0.73753 0.0
C791 C 0.7086 0.51495 0.71743 0.0
C792 C 0.70038 0.52451 0.74213 0.0
H793 H 0.72776 0.48456 0.69562 0.0
H794 H 0.70436 0.52587 0.6995 0.0
S795 S 0.71258 0.49256 0.80703 0.0
N796 N 0.72607 0.47237 0.78539 0.0
N797 N 0.70017 0.5172 0.78961 0.0
C798 C 0.70675 0.50966 0.76476 0.0
C799 C 0.72082 0.48535 0.76246 0.0
C800 C 0.49441 0.26092 0.19553 0.0
C801 C 0.47745 0.27759 0.20984 0.0
C802 C 0.51879 0.25297 0.2059 0.0
C803 C 0.52672 0.26094 0.23115 0.0
H804 H 0.48857 0.25345 0.17645 0.0
H805 H 0.53109 0.23979 0.19442 0.0
S806 S 0.49079 0.30629 0.27583 0.0
N807 N 0.47137 0.30333 0.24994 0.0
N808 N 0.51688 0.28782 0.26947 0.0
C809 C 0.51046 0.27829 0.24531 0.0
C810 C 0.48591 0.28683 0.2346 0.0
C811 C 0.73559 0.47207 0.26131 0.0
C812 C 0.75901 0.46398 0.24875 0.0
C813 C 0.73504 0.49438 0.27742 0.0
C814 C 0.75785 0.50956 0.2816 0.0
H815 H 0.71763 0.46071 0.25934 0.0
H816 H 0.71654 0.49958 0.28683 0.0
S817 S 0.82375 0.49799 0.25144 0.0
N818 N 0.80526 0.47372 0.24032 0.0
N819 N 0.80427 0.51571 0.27058 0.0
C820 C 0.78128 0.5021 0.26859 0.0
C821 C 0.78182 0.47934 0.25215 0.0
C822 C 0.50095 0.75769 0.2106 0.0
C823 C 0.51524 0.73473 0.21711 0.0
C824 C 0.47801 0.76457 0.22439 0.0
C825 C 0.46895 0.74907 0.24554 0.0
H826 H 0.50779 0.77072 0.19505 0.0
H827 H 0.4676 0.78243 0.2188 0.0
S828 S 0.49776 0.68596 0.26922 0.0
N829 N 0.51745 0.6955 0.24505 0.0
N830 N 0.47472 0.70891 0.27131 0.0
C831 C 0.48256 0.72573 0.25185 0.0
C832 C 0.50558 0.71839 0.23748 0.0
C833 C 0.25561 0.51311 0.23687 0.0
C834 C 0.24165 0.52827 0.21824 0.0
C835 C 0.24689 0.48805 0.24431 0.0
C836 C 0.22416 0.47701 0.23304 0.0
H837 H 0.27307 0.52089 0.24634 0.0
H838 H 0.25832 0.47709 0.25871 0.0
S839 S 0.18094 0.50836 0.18293 0.0
N840 N 0.20409 0.53051 0.18856 0.0
N841 N 0.18801 0.48288 0.20208 0.0
C842 C 0.21021 0.49175 0.2141 0.0
C843 C 0.21887 0.51753 0.20683 0.0
C844 C 0.71954 0.74822 0.49319 0.0
C845 C 0.7381 0.76566 0.50398 0.0
C846 C 0.70858 0.75287 0.46834 0.0
C847 C 0.71611 0.7749 0.45313 0.0
H848 H 0.71313 0.73098 0.50416 0.0
H849 H 0.69465 0.73863 0.46073 0.0
S850 S 0.76388 0.8266 0.47253 0.0
N851 N 0.76324 0.80604 0.49789 0.0
N852 N 0.74308 0.81447 0.45071 0.0
C853 C 0.73459 0.79255 0.4637 0.0
C854 C 0.74546 0.78802 0.48925 0.0
C855 C 0.73578 0.25466 0.48174 0.0
C856 C 0.74922 0.23703 0.46514 0.0
C857 C 0.7295 0.2477 0.50763 0.0
C858 C 0.73676 0.22299 0.51813 0.0
H859 H 0.72955 0.27385 0.47458 0.0
H860 H 0.71918 0.26208 0.5196 0.0
S861 S 0.77273 0.16992 0.48292 0.0
N862 N 0.76979 0.19385 0.46089 0.0
N863 N 0.75839 0.1809 0.51001 0.0
C864 C 0.75047 0.20523 0.50186 0.0
C865 C 0.75657 0.21222 0.47525 0.0
C866 C 0.22565 0.75792 0.47073 0.0
C867 C 0.23749 0.73459 0.46161 0.0
C868 C 0.2338 0.76953 0.49433 0.0
C869 C 0.25459 0.75861 0.50909 0.0
H870 H 0.21003 0.7673 0.4595 0.0
H871 H 0.22399 0.78736 0.50088 0.0
S872 S 0.29222 0.6977 0.49356 0.0
N873 N 0.27091 0.70083 0.46918 0.0
N874 N 0.28662 0.72297 0.5132 0.0
C875 C 0.26665 0.7353 0.50015 0.0
C876 C 0.25796 0.72317 0.47648 0.0
C877 C 0.23298 0.24044 0.50018 0.0
C878 C 0.2493 0.2235 0.51494 0.0
C879 C 0.23766 0.24495 0.47337 0.0
C880 C 0.25908 0.233 0.46035 0.0
H881 H 0.21669 0.25069 0.50951 0.0
H882 H 0.22476 0.25853 0.46299 0.0
S883 S 0.30695 0.18584 0.48969 0.0
N884 N 0.2871 0.19373 0.51428 0.0
N885 N 0.29603 0.20247 0.46385 0.0
C886 C 0.27517 0.21545 0.47466 0.0
C887 C 0.27021 0.21059 0.50195 0.0
C888 C 0.10803 0.13846 0.23824 0.0
C889 C 0.12161 0.14439 0.26166 0.0
C890 C 0.0948 0.15811 0.22396 0.0
C891 C 0.09483 0.18447 0.23244 0.0
H892 H 0.10878 0.11876 0.23007 0.0
H893 H 0.08577 0.15277 0.20541 0.0
S894 S 0.12313 0.20958 0.29484 0.0
N895 N 0.13098 0.17796 0.29457 0.0
N896 N 0.1063 0.21488 0.26749 0.0
C897 C 0.10639 0.19031 0.25688 0.0
C898 C 0.11967 0.17024 0.2716 0.0
C899 C 0.82443 0.12477 0.28404 0.0
C900 C 0.84968 0.12277 0.27257 0.0
C901 C 0.80265 0.11208 0.2729 0.0
C902 C 0.80535 0.09666 0.25007 0.0
H903 H 0.82101 0.1377 0.30065 0.0
H904 H 0.78338 0.11539 0.28159 0.0
S905 S 0.86818 0.08144 0.21529 0.0
N906 N 0.87679 0.10161 0.2392 0.0
N907 N 0.83601 0.07735 0.21842 0.0
C908 C 0.83092 0.09259 0.23982 0.0
C909 C 0.85304 0.10575 0.25104 0.0
C910 C 0.88297 0.80657 0.21905 0.0
C911 C 0.88621 0.78749 0.23899 0.0
C912 C 0.87169 0.83118 0.22455 0.0
C913 C 0.86343 0.83771 0.25025 0.0
H914 H 0.8876 0.80191 0.19874 0.0
H915 H 0.86799 0.84451 0.20821 0.0
S916 S 0.87359 0.79666 0.31032 0.0
N917 N 0.88437 0.77807 0.28591 0.0
N918 N 0.86371 0.82458 0.29657 0.0
C919 C 0.86918 0.81976 0.27079 0.0
C920 C 0.88033 0.79453 0.26507 0.0
C921 C 0.14335 0.86536 0.25487 0.0
C922 C 0.16836 0.86245 0.26661 0.0
C923 C 0.12315 0.84718 0.25979 0.0
C924 C 0.127 0.8258 0.27707 0.0
H925 H 0.13976 0.88085 0.24053 0.0
H926 H 0.10478 0.84918 0.24905 0.0
S927 S 0.18779 0.81095 0.31516 0.0
N928 N 0.1951 0.83773 0.29801 0.0
N929 N 0.15696 0.80383 0.30759 0.0
C930 C 0.15122 0.82375 0.29047 0.0
C931 C 0.17196 0.84202 0.28514 0.0
C932 C 0.12276 0.80533 0.73951 0.0
C933 C 0.10875 0.81111 0.76271 0.0
C934 C 0.13884 0.82417 0.7274 0.0
C935 C 0.14188 0.84952 0.73816 0.0
H936 H 0.12186 0.78582 0.73091 0.0
H937 H 0.14988 0.81827 0.71008 0.0
S938 S 0.10711 0.87554 0.79712 0.0
N939 N 0.09696 0.8447 0.79477 0.0
N940 N 0.12755 0.8802 0.77213 0.0
C941 C 0.12674 0.85612 0.76051 0.0
C942 C 0.1101 0.83689 0.77276 0.0
C943 C 0.16287 0.12351 0.75518 0.0
C944 C 0.18181 0.12193 0.73499 0.0
C945 C 0.13747 0.13312 0.75019 0.0
C946 C 0.13013 0.14196 0.72489 0.0
H947 H 0.16785 0.11768 0.77514 0.0
H948 H 0.12388 0.13474 0.76663 0.0
S949 S 0.17278 0.14133 0.66511 0.0
N950 N 0.19163 0.12899 0.68867 0.0
N951 N 0.14399 0.14756 0.6791 0.0
C952 C 0.14871 0.13948 0.70424 0.0
C953 C 0.17455 0.1294 0.70936 0.0
C954 C 0.87015 0.14881 0.71616 0.0
C955 C 0.87864 0.15315 0.74213 0.0
C956 C 0.85713 0.12549 0.70934 0.0
C957 C 0.85164 0.10602 0.72846 0.0
H958 H 0.87225 0.16416 0.70137 0.0
H959 H 0.84922 0.12392 0.68959 0.0
S960 S 0.87342 0.10615 0.79819 0.0
N961 N 0.88386 0.13461 0.78616 0.0
N962 N 0.85881 0.09101 0.77345 0.0
C963 C 0.86223 0.10908 0.75385 0.0
C964 C 0.87586 0.13264 0.76069 0.0
C965 C 0.84634 0.87974 0.76442 0.0
C966 C 0.84413 0.8738 0.73744 0.0
C967 C 0.82423 0.88718 0.7793 0.0
C968 C 0.79899 0.88849 0.76788 0.0
H969 H 0.86513 0.87764 0.77438 0.0
H970 H 0.82679 0.8907 0.80019 0.0
S971 S 0.78283 0.87771 0.69745 0.0
N972 N 0.81487 0.87211 0.69941 0.0
N973 N 0.77336 0.88563 0.72755 0.0
C974 C 0.79668 0.88398 0.74067 0.0
C975 C 0.81925 0.87682 0.72539 0.0
C976 C 0.25841 0.09589 0.18225 0.0
C977 C 0.23137 0.09602 0.18853 0.0
C978 C 0.26761 0.10724 0.15867 0.0
C979 C 0.25004 0.11887 0.14047 0.0
H980 H 0.27268 0.08843 0.19632 0.0
H981 H 0.28873 0.10827 0.1555 0.0
S982 S 0.17684 0.11921 0.14552 0.0
N983 N 0.18688 0.10527 0.17322 0.0
N984 N 0.20394 0.12601 0.12873 0.0
C985 C 0.22276 0.11681 0.14553 0.0
C986 C 0.21348 0.10561 0.16964 0.0
C987 C 0.89743 0.2433 0.15525 0.0
C988 C 0.89324 0.22823 0.13242 0.0
C989 C 0.9031 0.23112 0.17936 0.0
C990 C 0.90531 0.20354 0.1814 0.0
H991 H 0.89414 0.26443 0.1551 0.0
H992 H 0.90458 0.24333 0.19678 0.0
S993 S 0.90109 0.15572 0.12653 0.0
N994 N 0.89523 0.18467 0.11261 0.0
N995 N 0.9065 0.1618 0.15802 0.0
C996 C 0.90392 0.18848 0.15829 0.0
C997 C 0.89776 0.20086 0.13374 0.0
C998 C 0.75056 0.86667 0.15481 0.0
C999 C 0.77744 0.87328 0.15633 0.0
C1000 C 0.74017 0.85487 0.13222 0.0
C1001 C 0.75644 0.84873 0.11058 0.0
H1002 H 0.73764 0.86972 0.17158 0.0
H1003 H 0.71968 0.8488 0.13261 0.0
S1004 S 0.82743 0.86491 0.10345 0.0
N1005 N 0.81951 0.87545 0.1332 0.0
N1006 N 0.80006 0.85256 0.09096 0.0
C1007 C 0.78293 0.85686 0.11114 0.0
C1008 C 0.79342 0.86932 0.13399 0.0
C1009 C 0.10596 0.77795 0.14874 0.0
C1010 C 0.10058 0.75713 0.16632 0.0
C1011 C 0.12041 0.77361 0.12559 0.0
C1012 C 0.12977 0.74826 0.11908 0.0
H1013 H 0.1007 0.79803 0.15378 0.0
H1014 H 0.12576 0.79055 0.11362 0.0
S1015 S 0.11567 0.68631 0.15592 0.0
N1016 N 0.10188 0.70975 0.17377 0.0
N1017 N 0.12874 0.70141 0.13012 0.0
C1018 C 0.12194 0.72687 0.1351 0.0
C1019 C 0.10749 0.73137 0.15882 0.0
C1020 C 0.26475 0.82198 0.7729 0.0
C1021 C 0.24805 0.8436 0.77772 0.0
C1022 C 0.27312 0.8055 0.7935 0.0
C1023 C 0.26463 0.80974 0.81958 0.0
H1024 H 0.27093 0.81739 0.75298 0.0
H1025 H 0.2853 0.78859 0.78869 0.0
S1026 S 0.22222 0.86464 0.84291 0.0
N1027 N 0.22461 0.86936 0.81077 0.0
N1028 N 0.23995 0.83803 0.84938 0.0
C1029 C 0.24876 0.83187 0.82483 0.0
C1030 C 0.24059 0.84892 0.80392 0.0
C1031 C 0.10067 0.21131 0.84135 0.0
C1032 C 0.09183 0.22638 0.81978 0.0
C1033 C 0.11161 0.22345 0.86353 0.0
C1034 C 0.11383 0.25111 0.86506 0.0
H1035 H 0.10074 0.18996 0.84044 0.0
H1036 H 0.11975 0.21097 0.87891 0.0
S1037 S 0.08844 0.29938 0.81586 0.0
N1038 N 0.0824 0.27028 0.80275 0.0
N1039 N 0.10249 0.29323 0.84458 0.0
C1040 C 0.10262 0.26641 0.84468 0.0
C1041 C 0.09181 0.254 0.82195 0.0
C1042 C 0.72554 0.1212 0.8052 0.0
C1043 C 0.74784 0.1055 0.81033 0.0
C1044 C 0.71513 0.13791 0.82443 0.0
C1045 C 0.72675 0.13978 0.84952 0.0
H1046 H 0.71649 0.12124 0.78586 0.0
H1047 H 0.69856 0.15037 0.81909 0.0
S1048 S 0.78398 0.10077 0.87374 0.0
N1049 N 0.77996 0.09109 0.84298 0.0
N1050 N 0.76053 0.12275 0.87921 0.0
C1051 C 0.74804 0.12289 0.85552 0.0
C1052 C 0.75858 0.1057 0.83588 0.0
C1053 C 0.80064 0.75113 0.78643 0.0
C1054 C 0.81407 0.74036 0.80825 0.0
C1055 C 0.81408 0.76498 0.7667 0.0
C1056 C 0.84155 0.76842 0.76779 0.0
H1057 H 0.77938 0.74953 0.78483 0.0
H1058 H 0.80271 0.77338 0.75064 0.0
S1059 S 0.88632 0.74253 0.8198 0.0
N1060 N 0.85661 0.73295 0.82918 0.0
N1061 N 0.88203 0.75884 0.79188 0.0
C1062 C 0.85544 0.75694 0.78899 0.0
C1063 C 0.84166 0.74298 0.80928 0.0
C1064 C 0.13055 0.21961 0.11956 0.0
C1065 C 0.13148 0.24617 0.12741 0.0
C1066 C 0.153 0.20682 0.10971 0.0
C1067 C 0.17733 0.22 0.10776 0.0
H1068 H 0.11257 0.2083 0.1219 0.0
H1069 H 0.1515 0.18613 0.10467 0.0
S1070 S 0.18985 0.29032 0.1231 0.0
N1071 N 0.15841 0.28585 0.13043 0.0
N1072 N 0.20063 0.26157 0.1123 0.0
C1073 C 0.17831 0.24686 0.11431 0.0
C1074 C 0.15535 0.26004 0.12397 0.0
C1075 C 0.15158 0.75917 0.88016 0.0
C1076 C 0.17195 0.74051 0.88304 0.0
C1077 C 0.12729 0.75211 0.86916 0.0
C1078 C 0.12242 0.72609 0.86086 0.0
H1079 H 0.155 0.77976 0.8846 0.0
H1080 H 0.11294 0.76757 0.86549 0.0
S1081 S 0.16726 0.66872 0.87031 0.0
N1082 N 0.18425 0.69422 0.88111 0.0
N1083 N 0.13845 0.6807 0.86087 0.0
C1084 C 0.14157 0.70668 0.86655 0.0
C1085 C 0.16643 0.71398 0.87744 0.0
C1086 C 0.24381 0.20638 0.85908 0.0
C1087 C 0.22702 0.1965 0.87887 0.0
C1088 C 0.25525 0.18966 0.84045 0.0
C1089 C 0.25028 0.16236 0.84075 0.0
H1090 H 0.24731 0.22739 0.85718 0.0
H1091 H 0.26702 0.19852 0.82491 0.0
S1092 S 0.2113 0.12595 0.89113 0.0
N1093 N 0.20869 0.15721 0.89975 0.0
N1094 N 0.23015 0.12572 0.86454 0.0
C1095 C 0.23533 0.15188 0.86173 0.0
C1096 C 0.22369 0.16898 0.88083 0.0
C1097 C 0.80279 0.24397 0.85916 0.0
C1098 C 0.80309 0.21782 0.86852 0.0
C1099 C 0.82225 0.25317 0.84181 0.0
C1100 C 0.84254 0.23644 0.83282 0.0
H1101 H 0.78701 0.25729 0.86475 0.0
H1102 H 0.8205 0.27317 0.83437 0.0
S1103 S 0.85346 0.1668 0.85323 0.0
N1104 N 0.82644 0.17581 0.86908 0.0
N1105 N 0.86291 0.19301 0.83625 0.0
C1106 C 0.84385 0.21062 0.84312 0.0
C1107 C 0.82414 0.20133 0.86102 0.0
C1108 C 0.75021 0.8359 0.87321 0.0
C1109 C 0.72416 0.8357 0.8637 0.0
C1110 C 0.76233 0.81277 0.88232 0.0
C1111 C 0.74895 0.78847 0.88201 0.0
H1112 H 0.76188 0.85377 0.87225 0.0
H1113 H 0.78288 0.81376 0.88808 0.0
S1114 S 0.67894 0.77807 0.86356 0.0
N1115 N 0.68414 0.80976 0.85803 0.0
N1116 N 0.70709 0.76624 0.87494 0.0
C1117 C 0.72218 0.78839 0.87477 0.0
C1118 C 0.70972 0.81203 0.86571 0.0
C1119 C 0.79829 0.72572 0.14053 0.0
C1120 C 0.81148 0.73945 0.12027 0.0
C1121 C 0.81198 0.71551 0.16218 0.0
C1122 C 0.83946 0.71844 0.16444 0.0
H1123 H 0.77703 0.72347 0.14017 0.0
H1124 H 0.80075 0.70581 0.17762 0.0
S1125 S 0.88377 0.7508 0.11578 0.0
N1126 N 0.85398 0.75394 0.10301 0.0
N1127 N 0.87973 0.73462 0.14382 0.0
C1128 C 0.85317 0.73092 0.14372 0.0
C1129 C 0.83918 0.74146 0.12162 0.0
C1130 C 0.20757 0.8534 0.13023 0.0
C1131 C 0.22443 0.8349 0.11831 0.0
C1132 C 0.2167 0.86984 0.15032 0.0
C1133 C 0.24308 0.86868 0.15884 0.0
H1134 H 0.18678 0.85398 0.12535 0.0
H1135 H 0.20264 0.88262 0.16014 0.0
S1136 S 0.2961 0.82671 0.13061 0.0
N1137 N 0.26934 0.8185 0.11407 0.0
N1138 N 0.28671 0.84983 0.15146 0.0
C1139 C 0.26068 0.85197 0.14537 0.0
C1140 C 0.25127 0.83491 0.12521 0.0
C1141 C 0.75463 0.17222 0.16348 0.0
C1142 C 0.75468 0.14456 0.16136 0.0
C1143 C 0.76815 0.18809 0.14535 0.0
C1144 C 0.78235 0.17699 0.12425 0.0
H1145 H 0.74456 0.18185 0.17969 0.0
H1146 H 0.76792 0.20921 0.14834 0.0
S1147 S 0.78701 0.10563 0.10846 0.0
N1148 N 0.76882 0.10674 0.13548 0.0
N1149 N 0.79426 0.13658 0.10128 0.0
C1150 C 0.78169 0.1494 0.12119 0.0
C1151 C 0.76786 0.13316 0.13973 0.0
C1152 C 0.59554 0.64452 0.70339 0.0
C1153 C 0.6056 0.64303 0.7292 0.0
C1154 C 0.58463 0.66796 0.69354 0.0
C1155 C 0.58372 0.69085 0.70904 0.0
H1156 H 0.59753 0.62791 0.69015 0.0
H1157 H 0.57842 0.66854 0.67312 0.0
S1158 S 0.60279 0.69616 0.77936 0.0
N1159 N 0.6103 0.66553 0.77128 0.0
N1160 N 0.59014 0.70968 0.75253 0.0
C1161 C 0.59155 0.68905 0.73554 0.0
C1162 C 0.60232 0.66506 0.74572 0.0
C1163 C 0.32947 0.59242 0.70178 0.0
C1164 C 0.30661 0.59315 0.71758 0.0
C1165 C 0.35399 0.6002 0.71175 0.0
C1166 C 0.35667 0.60848 0.73801 0.0
H1167 H 0.32821 0.5874 0.68109 0.0
H1168 H 0.37068 0.60113 0.69838 0.0
S1169 S 0.30357 0.60966 0.78866 0.0
N1170 N 0.28868 0.59986 0.76151 0.0
N1171 N 0.33485 0.6139 0.78052 0.0
C1172 C 0.3344 0.607 0.75466 0.0
C1173 C 0.30932 0.59956 0.74435 0.0
C1174 C 0.35278 0.33212 0.72287 0.0
C1175 C 0.35992 0.31359 0.74231 0.0
C1176 C 0.33563 0.353 0.7287 0.0
C1177 C 0.3253 0.35634 0.75425 0.0
H1178 H 0.35906 0.32956 0.70261 0.0
H1179 H 0.32938 0.36583 0.71272 0.0
S1180 S 0.34183 0.31578 0.81316 0.0
N1181 N 0.3582 0.30175 0.78877 0.0
N1182 N 0.32625 0.34121 0.79991 0.0
C1183 C 0.33424 0.33932 0.77438 0.0
C1184 C 0.35144 0.31784 0.76835 0.0
C1185 C 0.64685 0.36352 0.76859 0.0
C1186 C 0.62512 0.35549 0.75343 0.0
C1187 C 0.66745 0.37801 0.75726 0.0
C1188 C 0.66682 0.38543 0.73053 0.0
H1189 H 0.64902 0.35694 0.78882 0.0
H1190 H 0.68452 0.38246 0.76927 0.0
S1191 S 0.61224 0.37318 0.68357 0.0
N1192 N 0.60264 0.35874 0.71121 0.0
N1193 N 0.64122 0.3865 0.69001 0.0
C1194 C 0.6441 0.37968 0.71579 0.0
C1195 C 0.62326 0.36457 0.72724 0.0
C1196 C 0.70399 0.29745 0.25227 0.0
C1197 C 0.69612 0.32185 0.24148 0.0
C1198 C 0.68545 0.27891 0.26085 0.0
C1199 C 0.65825 0.28386 0.25868 0.0
H1200 H 0.72471 0.29275 0.25468 0.0
H1201 H 0.69257 0.26059 0.26936 0.0
S1202 S 0.62722 0.34444 0.23111 0.0
N1203 N 0.65925 0.34985 0.22864 0.0
N1204 N 0.62424 0.31483 0.2445 0.0
C1205 C 0.65002 0.30799 0.24745 0.0
C1206 C 0.66898 0.32704 0.23897 0.0
C1207 C 0.68871 0.66515 0.2781 0.0
C1208 C 0.68389 0.63802 0.28111 0.0
C1209 C 0.67295 0.68079 0.26172 0.0
C1210 C 0.65146 0.67003 0.24795 0.0
H1211 H 0.70498 0.67445 0.28826 0.0
H1212 H 0.67751 0.70161 0.26019 0.0
S1213 S 0.63012 0.60008 0.24938 0.0
N1214 N 0.65603 0.60093 0.26906 0.0
N1215 N 0.62604 0.63057 0.23847 0.0
C1216 C 0.64624 0.64295 0.25088 0.0
C1217 C 0.66256 0.62688 0.26738 0.0
C1218 C 0.35923 0.6608 0.2219 0.0
C1219 C 0.35282 0.63645 0.23367 0.0
C1220 C 0.37379 0.67971 0.23558 0.0
C1221 C 0.38294 0.67472 0.26127 0.0
H1222 H 0.35152 0.66606 0.20266 0.0
H1223 H 0.37722 0.69869 0.22628 0.0
S1224 S 0.37423 0.61281 0.29957 0.0
N1225 N 0.35859 0.60747 0.27157 0.0
N1226 N 0.38657 0.64285 0.2971 0.0
C1227 C 0.37834 0.64975 0.27253 0.0
C1228 C 0.36311 0.63065 0.25876 0.0
C1229 C 0.31231 0.35092 0.19746 0.0
C1230 C 0.33845 0.35402 0.2062 0.0
C1231 C 0.29174 0.36596 0.20812 0.0
C1232 C 0.29654 0.38489 0.22772 0.0
H1233 H 0.30734 0.33568 0.18344 0.0
H1234 H 0.27179 0.36192 0.20168 0.0
S1235 S 0.36221 0.40378 0.25397 0.0
N1236 N 0.36853 0.37965 0.23314 0.0
N1237 N 0.32993 0.4082 0.25302 0.0
C1238 C 0.32289 0.38974 0.23501 0.0
C1239 C 0.34383 0.37423 0.2243 0.0
C1240 C 0.71225 0.64383 0.64721 0.0
C1241 C 0.7291 0.62935 0.66387 0.0
C1242 C 0.72228 0.66061 0.6277 0.0
C1243 C 0.74965 0.66391 0.62423 0.0
H1244 H 0.69102 0.64269 0.64959 0.0
H1245 H 0.70834 0.67194 0.61608 0.0
S1246 S 0.80227 0.62846 0.66106 0.0
N1247 N 0.77449 0.61768 0.6743 0.0
N1248 N 0.7935 0.64954 0.63773 0.0
C1249 C 0.76678 0.6485 0.63986 0.0
C1250 C 0.75648 0.63114 0.65964 0.0
C1251 C 0.37404 0.71375 0.64442 0.0
C1252 C 0.37678 0.72012 0.67122 0.0
C1253 C 0.35896 0.72969 0.62751 0.0
C1254 C 0.34628 0.75255 0.63687 0.0
H1255 H 0.38237 0.69562 0.63678 0.0
H1256 H 0.35601 0.72319 0.60742 0.0
S1257 S 0.35195 0.78056 0.70408 0.0
N1258 N 0.36888 0.75272 0.70539 0.0
N1259 N 0.34075 0.78276 0.67361 0.0
C1260 C 0.35078 0.76025 0.66306 0.0
C1261 C 0.36596 0.74399 0.68026 0.0
C1262 C 0.24388 0.35135 0.64917 0.0
C1263 C 0.22929 0.35282 0.67279 0.0
C1264 C 0.23932 0.33132 0.63085 0.0
C1265 C 0.21967 0.31227 0.63517 0.0
H1266 H 0.25981 0.36504 0.64525 0.0
H1267 H 0.25182 0.3303 0.61352 0.0
S1268 S 0.17444 0.30849 0.69275 0.0
N1269 N 0.19323 0.33436 0.6987 0.0
N1270 N 0.18445 0.29689 0.66406 0.0
C1271 C 0.20392 0.31431 0.65797 0.0
C1272 C 0.2088 0.33453 0.67684 0.0
C1273 C 0.63032 0.25243 0.6389 0.0
C1274 C 0.64316 0.22796 0.64213 0.0
C1275 C 0.61412 0.26277 0.65873 0.0
C1276 C 0.61045 0.24915 0.68266 0.0
H1277 H 0.63385 0.26436 0.62146 0.0
H1278 H 0.60582 0.28229 0.65592 0.0
S1279 S 0.63573 0.18242 0.69927 0.0
N1280 N 0.64807 0.1888 0.66978 0.0
N1281 N 0.6179 0.20852 0.70717 0.0
C1282 C 0.62138 0.22379 0.68534 0.0
C1283 C 0.63762 0.21308 0.665 0.0
C1284 C 0.75168 0.37602 0.32886 0.0
C1285 C 0.76592 0.37096 0.30553 0.0
C1286 C 0.7556 0.36081 0.35161 0.0
C1287 C 0.77428 0.34035 0.35207 0.0
H1288 H 0.7362 0.39079 0.32921 0.0
H1289 H 0.74297 0.36422 0.36853 0.0
S1290 S 0.81908 0.3211 0.29738 0.0
N1291 N 0.80126 0.34554 0.28515 0.0
N1292 N 0.80889 0.31722 0.32809 0.0
C1293 C 0.79022 0.33645 0.32965 0.0
C1294 C 0.78598 0.35172 0.30631 0.0
C1295 C 0.59062 0.73636 0.30955 0.0
C1296 C 0.59542 0.7488 0.28511 0.0
C1297 C 0.60226 0.74552 0.33273 0.0
C1298 C 0.61876 0.76775 0.33248 0.0
H1299 H 0.57918 0.71836 0.31065 0.0
H1300 H 0.5995 0.73424 0.35073 0.0
S1301 S 0.63388 0.81013 0.27442 0.0
N1302 N 0.61508 0.78642 0.26261 0.0
N1303 N 0.63662 0.804 0.3063 0.0
C1304 C 0.62166 0.78189 0.30865 0.0
C1305 C 0.6101 0.77229 0.28491 0.0
C1306 C 0.24906 0.61082 0.34878 0.0
C1307 C 0.22779 0.62865 0.34852 0.0
C1308 C 0.2578 0.5988 0.32554 0.0
C1309 C 0.24594 0.60471 0.30115 0.0
H1310 H 0.25991 0.60723 0.36684 0.0
H1311 H 0.27507 0.5862 0.32651 0.0
S1312 S 0.18778 0.64799 0.29027 0.0
N1313 N 0.19348 0.64973 0.32224 0.0
N1314 N 0.21024 0.62752 0.27849 0.0
C1315 C 0.22355 0.62113 0.30089 0.0
C1316 C 0.21436 0.633 0.32462 0.0
C1317 C 0.35351 0.22117 0.31494 0.0
C1318 C 0.35512 0.23843 0.33654 0.0
C1319 C 0.35986 0.22969 0.28941 0.0
C1320 C 0.36913 0.25536 0.28478 0.0
H1321 H 0.34548 0.20155 0.31736 0.0
H1322 H 0.35674 0.21634 0.27309 0.0
S1323 S 0.38188 0.3065 0.33513 0.0
N1324 N 0.36977 0.28131 0.35201 0.0
N1325 N 0.38298 0.29686 0.30408 0.0
C1326 C 0.37348 0.27191 0.30646 0.0
C1327 C 0.36627 0.26351 0.33238 0.0
C1328 C 0.6496 0.74826 0.59514 0.0
C1329 C 0.67341 0.76247 0.59607 0.0
C1330 C 0.62702 0.75722 0.60831 0.0
C1331 C 0.62724 0.78094 0.62256 0.0
H1332 H 0.64866 0.72938 0.58528 0.0
H1333 H 0.60956 0.74491 0.6082 0.0
S1334 S 0.68369 0.82726 0.62809 0.0
N1335 N 0.69522 0.80263 0.61025 0.0
N1336 N 0.65267 0.81976 0.63469 0.0
C1337 C 0.65039 0.7963 0.62205 0.0
C1338 C 0.67353 0.78695 0.60893 0.0
C1339 C 0.6628 0.2348 0.37606 0.0
C1340 C 0.66466 0.26146 0.38337 0.0
C1341 C 0.64039 0.22518 0.36331 0.0
C1342 C 0.61923 0.24203 0.35692 0.0
H1343 H 0.67931 0.22152 0.37912 0.0
H1344 H 0.64068 0.20494 0.35656 0.0
S1345 S 0.61267 0.31246 0.37534 0.0
N1346 N 0.64208 0.30374 0.38639 0.0
N1347 N 0.60008 0.28575 0.36176 0.0
C1348 C 0.61991 0.26817 0.36606 0.0
C1349 C 0.64262 0.27788 0.37945 0.0
C1350 C 0.73753 0.6446 0.38153 0.0
C1351 C 0.72187 0.62167 0.38184 0.0
C1352 C 0.72632 0.66955 0.38529 0.0
C1353 C 0.69916 0.67251 0.39017 0.0
H1354 H 0.75831 0.64355 0.37663 0.0
H1355 H 0.73895 0.68672 0.38369 0.0
S1356 S 0.65022 0.6185 0.39651 0.0
N1357 N 0.67828 0.60333 0.38973 0.0
N1358 N 0.65729 0.65027 0.39761 0.0
C1359 C 0.68363 0.64966 0.39255 0.0
C1360 C 0.69498 0.62423 0.38822 0.0
C1361 C 0.32352 0.74196 0.38468 0.0
C1362 C 0.32304 0.71462 0.38938 0.0
C1363 C 0.34591 0.7542 0.37414 0.0
C1364 C 0.36843 0.73939 0.36736 0.0
H1365 H 0.30603 0.75382 0.38807 0.0
H1366 H 0.34465 0.77501 0.36935 0.0
S1367 S 0.37845 0.6678 0.37941 0.0
N1368 N 0.34802 0.67361 0.38962 0.0
N1369 N 0.39006 0.69652 0.3692 0.0
C1370 C 0.36897 0.71241 0.37404 0.0
C1371 C 0.34625 0.70001 0.38518 0.0
C1372 C 0.25688 0.32848 0.35313 0.0
C1373 C 0.23924 0.30763 0.35814 0.0
C1374 C 0.2484 0.35176 0.34081 0.0
C1375 C 0.2219 0.35524 0.33333 0.0
H1376 H 0.27771 0.32633 0.35742 0.0
H1377 H 0.263 0.36662 0.33601 0.0
S1378 S 0.16709 0.30819 0.34583 0.0
N1379 N 0.19356 0.29308 0.35742 0.0
N1380 N 0.17747 0.33697 0.33457 0.0
C1381 C 0.20365 0.3354 0.34017 0.0
C1382 C 0.21238 0.31153 0.35244 0.0
C1383 C 0.36592 0.25457 0.61303 0.0
C1384 C 0.37249 0.23106 0.62639 0.0
C1385 C 0.34205 0.25706 0.59942 0.0
C1386 C 0.32383 0.23621 0.59895 0.0
H1387 H 0.37836 0.27183 0.61477 0.0
H1388 H 0.33701 0.27612 0.59106 0.0
S1389 S 0.3343 0.16858 0.62507 0.0
N1390 N 0.36098 0.18494 0.6339 0.0
N1391 N 0.31587 0.18992 0.60865 0.0
C1392 C 0.33139 0.21174 0.60964 0.0
C1393 C 0.35588 0.20905 0.62319 0.0
C1394 C 0.73714 0.32216 0.62431 0.0
C1395 C 0.75363 0.30091 0.63132 0.0
C1396 C 0.7426 0.3478 0.63286 0.0
C1397 C 0.76505 0.35317 0.64814 0.0
H1398 H 0.71903 0.31875 0.61355 0.0
H1399 H 0.72844 0.3633 0.6286 0.0
S1400 S 0.81663 0.30481 0.66799 0.0
N1401 N 0.79461 0.28712 0.65195 0.0
N1402 N 0.8055 0.33545 0.66733 0.0
C1403 C 0.78287 0.33239 0.65334 0.0
C1404 C 0.77694 0.30618 0.64516 0.0
C1405 C 0.25514 0.65177 0.61838 0.0
C1406 C 0.23055 0.65482 0.63091 0.0
C1407 C 0.2671 0.67283 0.60502 0.0
C1408 C 0.25513 0.6979 0.604 0.0
H1409 H 0.26564 0.63315 0.6195 0.0
H1410 H 0.28638 0.66963 0.59632 0.0
S1411 S 0.18973 0.71582 0.63176 0.0
N1412 N 0.19376 0.6845 0.63991 0.0
N1413 N 0.21646 0.72414 0.61505 0.0
C1414 C 0.23005 0.70098 0.61549 0.0
C1415 C 0.21768 0.67942 0.62883 0.0
C1416 C 0.1538 0.34838 0.20428 0.0
C1417 C 0.15927 0.35932 0.2291 0.0
C1418 C 0.13425 0.32919 0.20132 0.0
C1419 C 0.11969 0.32001 0.22313 0.0
H1420 H 0.16539 0.35387 0.18715 0.0
H1421 H 0.13162 0.32047 0.18205 0.0
S1422 S 0.12332 0.34495 0.29153 0.0
N1423 N 0.14608 0.36177 0.27533 0.0
N1424 N 0.10978 0.32519 0.26965 0.0
C1425 C 0.1237 0.3319 0.24768 0.0
C1426 C 0.14334 0.35174 0.25069 0.0
C1427 C 0.65508 0.14001 0.22801 0.0
C1428 C 0.66706 0.1293 0.25071 0.0
C1429 C 0.63687 0.16073 0.22974 0.0
C1430 C 0.62959 0.17135 0.25424 0.0
H1431 H 0.66075 0.13332 0.20855 0.0
H1432 H 0.62913 0.16907 0.21163 0.0
S1433 S 0.65269 0.14821 0.31988 0.0
N1434 N 0.66851 0.12928 0.29864 0.0
N1435 N 0.63405 0.16808 0.30195 0.0
C1436 C 0.64002 0.15966 0.27724 0.0
C1437 C 0.65883 0.13869 0.27546 0.0
C1438 C 0.80739 0.62307 0.2612 0.0
C1439 C 0.79438 0.62313 0.28566 0.0
C1440 C 0.82799 0.64062 0.25588 0.0
C1441 C 0.83621 0.65921 0.27469 0.0
H1442 H 0.80146 0.60953 0.24586 0.0
H1443 H 0.83697 0.64004 0.23648 0.0
S1444 S 0.80917 0.66679 0.34231 0.0
N1445 N 0.79172 0.64265 0.32935 0.0
N1446 N 0.83035 0.6759 0.31922 0.0
C1447 C 0.82379 0.65908 0.29952 0.0
C1448 C 0.80292 0.64097 0.30504 0.0
C1449 C 0.34029 0.8187 0.29134 0.0
C1450 C 0.35031 0.80777 0.26791 0.0
C1451 C 0.31985 0.83738 0.29077 0.0
C1452 C 0.30901 0.84611 0.26674 0.0
H1453 H 0.34742 0.81191 0.31032 0.0
H1454 H 0.31209 0.84452 0.30933 0.0
S1455 S 0.33049 0.82545 0.19978 0.0
N1456 N 0.34937 0.80829 0.22006 0.0
N1457 N 0.31131 0.84364 0.21878 0.0
C1458 C 0.31992 0.83633 0.24311 0.0
C1459 C 0.34046 0.81707 0.24375 0.0
C1460 C 0.14209 0.67663 0.72577 0.0
C1461 C 0.13109 0.67859 0.75113 0.0
C1462 C 0.16068 0.65716 0.71976 0.0
C1463 C 0.16935 0.63896 0.73895 0.0
H1464 H 0.13673 0.69062 0.71046 0.0
H1465 H 0.16894 0.65704 0.70005 0.0
S1466 S 0.1452 0.63421 0.80789 0.0
N1467 N 0.12897 0.65957 0.79527 0.0
N1468 N 0.16426 0.62303 0.78396 0.0
C1469 C 0.15787 0.64004 0.76418 0.0
C1470 C 0.13862 0.65978 0.77026 0.0
C1471 C 0.35414 0.1633 0.73927 0.0
C1472 C 0.35268 0.18391 0.72075 0.0
C1473 C 0.33208 0.1476 0.74479 0.0
C1474 C 0.30785 0.15174 0.73175 0.0
H1475 H 0.37213 0.15991 0.75029 0.0
H1476 H 0.33389 0.1326 0.75997 0.0
S1477 S 0.29526 0.20081 0.67858 0.0
N1478 N 0.32608 0.20609 0.68746 0.0
N1479 N 0.28481 0.17625 0.69735 0.0
C1480 C 0.30672 0.17127 0.71197 0.0
C1481 C 0.32907 0.18747 0.70663 0.0
C1482 C 0.79255 0.31488 0.7359 0.0
C1483 C 0.79709 0.34215 0.73353 0.0
C1484 C 0.81337 0.29708 0.73915 0.0
C1485 C 0.8397 0.30575 0.74024 0.0
H1486 H 0.7727 0.30704 0.73496 0.0
H1487 H 0.80864 0.27632 0.74093 0.0
S1488 S 0.86242 0.37515 0.73479 0.0
N1489 N 0.82999 0.37707 0.73237 0.0
N1490 N 0.86926 0.3435 0.73862 0.0
C1491 C 0.84461 0.333 0.7381 0.0
C1492 C 0.8233 0.35121 0.73475 0.0
C1493 C 0.65257 0.83628 0.77097 0.0
C1494 C 0.66359 0.85529 0.75393 0.0
C1495 C 0.63291 0.81906 0.76231 0.0
C1496 C 0.62323 0.8204 0.73639 0.0
H1497 H 0.6598 0.83399 0.79094 0.0
H1498 H 0.62569 0.80419 0.77594 0.0
S1499 S 0.64368 0.86859 0.68482 0.0
N1500 N 0.66221 0.87574 0.71052 0.0
N1501 N 0.6249 0.8437 0.69427 0.0
C1502 C 0.63316 0.84023 0.71952 0.0
C1503 C 0.65348 0.85755 0.72826 0.0
C1504 C 0.23132 0.1634 0.34975 0.0
C1505 C 0.25396 0.17895 0.34603 0.0
C1506 C 0.22303 0.14563 0.3304 0.0
C1507 C 0.23719 0.14253 0.30666 0.0
H1508 H 0.21953 0.16536 0.36748 0.0
H1509 H 0.20511 0.13456 0.334 0.0
S1510 S 0.29917 0.17705 0.2883 0.0
N1511 N 0.29127 0.18909 0.31745 0.0
N1512 N 0.2759 0.1555 0.28128 0.0
C1513 C 0.26038 0.15735 0.30309 0.0
C1514 C 0.26868 0.17562 0.3227 0.0
C1515 C 0.83284 0.22332 0.32173 0.0
C1516 C 0.83143 0.22642 0.29423 0.0
C1517 C 0.8131 0.23334 0.33819 0.0
C1518 C 0.79125 0.24705 0.3278 0.0
H1519 H 0.84909 0.21263 0.33066 0.0
H1520 H 0.81504 0.23026 0.35924 0.0
S1521 S 0.77927 0.26201 0.25702 0.0
N1522 N 0.80712 0.24505 0.25726 0.0
N1523 N 0.76999 0.26413 0.28815 0.0
C1524 C 0.78985 0.25073 0.30029 0.0
C1525 C 0.80994 0.24035 0.28352 0.0
C1526 C 0.72433 0.82264 0.28889 0.0
C1527 C 0.75082 0.83062 0.28698 0.0
C1528 C 0.71601 0.80553 0.30898 0.0
C1529 C 0.73396 0.79533 0.32757 0.0
H1530 H 0.70984 0.82976 0.27487 0.0
H1531 H 0.6954 0.79991 0.30966 0.0
S1532 S 0.80535 0.81018 0.33151 0.0
N1533 N 0.79494 0.82723 0.30573 0.0
N1534 N 0.77919 0.79466 0.34318 0.0
C1535 C 0.76046 0.80306 0.32592 0.0
C1536 C 0.76891 0.82085 0.30573 0.0
C1537 C 0.1753 0.71741 0.32937 0.0
C1538 C 0.20219 0.72257 0.32503 0.0
C1539 C 0.15634 0.7241 0.31049 0.0
C1540 C 0.16349 0.73654 0.28666 0.0
H1541 H 0.16883 0.70773 0.34734 0.0
H1542 H 0.13586 0.71973 0.31482 0.0
S1543 S 0.23145 0.75518 0.26628 0.0
N1544 N 0.23515 0.74115 0.29548 0.0
N1545 N 0.19951 0.75414 0.26001 0.0
C1546 C 0.19038 0.74198 0.28215 0.0
C1547 C 0.20973 0.73488 0.30133 0.0
C1548 C 0.22786 0.84321 0.62984 0.0
C1549 C 0.25343 0.83597 0.62193 0.0
C1550 C 0.22383 0.86162 0.64988 0.0
C1551 C 0.24526 0.87328 0.66307 0.0
H1552 H 0.21076 0.83373 0.62131 0.0
H1553 H 0.20371 0.86554 0.656 0.0
S1554 S 0.31617 0.86398 0.64711 0.0
N1555 N 0.30055 0.84423 0.62664 0.0
N1556 N 0.29293 0.87866 0.66458 0.0
C1557 C 0.27091 0.86776 0.65398 0.0
C1558 C 0.27502 0.84916 0.63333 0.0
C1559 C 0.17219 0.2233 0.65397 0.0
C1560 C 0.19854 0.21754 0.6605 0.0
C1561 C 0.15231 0.22298 0.67318 0.0
C1562 C 0.15796 0.2166 0.69962 0.0
H1563 H 0.16695 0.22898 0.63404 0.0
H1564 H 0.13238 0.22787 0.66719 0.0
S1565 S 0.22357 0.19755 0.72629 0.0
N1566 N 0.22905 0.20379 0.69479 0.0
N1567 N 0.19173 0.2027 0.7309 0.0
C1568 C 0.18413 0.20988 0.7062 0.0
C1569 C 0.20438 0.21046 0.68664 0.0
C1570 C 0.75176 0.1382 0.66189 0.0
C1571 C 0.77252 0.14205 0.67978 0.0
C1572 C 0.74665 0.15661 0.64184 0.0
C1573 C 0.76248 0.17919 0.63861 0.0
H1574 H 0.73871 0.12142 0.66399 0.0
H1575 H 0.72982 0.15342 0.62911 0.0
S1576 S 0.82049 0.19738 0.67906 0.0
N1577 N 0.80983 0.1695 0.69219 0.0
N1578 N 0.80051 0.20374 0.65415 0.0
C1579 C 0.78406 0.18262 0.65556 0.0
C1580 C 0.78898 0.16415 0.67627 0.0
C1581 C 0.82857 0.75356 0.62746 0.0
C1582 C 0.81378 0.77513 0.61792 0.0
C1583 C 0.8489 0.75709 0.64571 0.0
C1584 C 0.85551 0.78233 0.65494 0.0
H1585 H 0.8236 0.73359 0.62188 0.0
H1586 H 0.85879 0.73973 0.65341 0.0
S1587 S 0.82559 0.84568 0.6329 0.0
N1588 N 0.80905 0.82286 0.61679 0.0
N1589 N 0.8476 0.82959 0.65077 0.0
C1590 C 0.84227 0.80427 0.64399 0.0
C1591 C 0.8213 0.80063 0.62561 0.0
C1592 C 0.32631 0.19919 0.1699 0.0
C1593 C 0.31719 0.20969 0.14586 0.0
C1594 C 0.34822 0.20996 0.1827 0.0
C1595 C 0.36151 0.23193 0.17213 0.0
H1596 H 0.31611 0.18284 0.17922 0.0
H1597 H 0.35387 0.20187 0.20168 0.0
S1598 S 0.34677 0.26561 0.10875 0.0
N1599 N 0.32427 0.24219 0.11109 0.0
N1600 N 0.36515 0.26277 0.13546 0.0
C1601 C 0.35329 0.24195 0.14759 0.0
C1602 C 0.33122 0.23073 0.13435 0.0
C1603 C 0.30744 0.68165 0.78896 0.0
C1604 C 0.33451 0.68636 0.79284 0.0
C1605 C 0.28871 0.68904 0.80778 0.0
C1606 C 0.29621 0.70161 0.83123 0.0
H1607 H 0.30045 0.67282 0.77089 0.0
H1608 H 0.26807 0.68578 0.8033 0.0
S1609 S 0.36493 0.71549 0.85246 0.0
N1610 N 0.36818 0.70209 0.82304 0.0
N1611 N 0.3329 0.71612 0.8585 0.0
C1612 C 0.32337 0.705 0.83615 0.0
C1613 C 0.34251 0.69737 0.81691 0.0
C1614 C 0.23513 0.33672 0.8502 0.0
C1615 C 0.2106 0.32823 0.86004 0.0
C1616 C 0.2368 0.35314 0.82802 0.0
C1617 C 0.21398 0.36157 0.81453 0.0
H1618 H 0.25333 0.3297 0.85898 0.0
H1619 H 0.25626 0.35804 0.82064 0.0
S1620 S 0.1448 0.34841 0.83467 0.0
N1621 N 0.16281 0.33219 0.85649 0.0
N1622 N 0.16601 0.36286 0.81455 0.0
C1623 C 0.18927 0.35487 0.82527 0.0
C1624 C 0.18755 0.33829 0.8481 0.0
C1625 C 0.65086 0.27492 0.83159 0.0
C1626 C 0.62694 0.26099 0.83328 0.0
C1627 C 0.67165 0.26957 0.84883 0.0
C1628 C 0.6695 0.24981 0.86826 0.0
H1629 H 0.65388 0.28962 0.8163 0.0
H1630 H 0.68997 0.28017 0.84593 0.0
S1631 S 0.6098 0.20989 0.88295 0.0
N1632 N 0.60125 0.22843 0.85749 0.0
N1633 N 0.64053 0.21807 0.88993 0.0
C1634 C 0.64508 0.23686 0.87127 0.0
C1635 C 0.62374 0.24253 0.85378 0.0
C1636 C 0.74155 0.62742 0.80329 0.0
C1637 C 0.71549 0.62796 0.79389 0.0
C1638 C 0.74904 0.64238 0.82513 0.0
C1639 C 0.73075 0.65854 0.83845 0.0
H1640 H 0.75662 0.61613 0.79316 0.0
H1641 H 0.76963 0.64213 0.83081 0.0
S1642 S 0.65907 0.66373 0.82428 0.0
N1643 N 0.67062 0.64364 0.80148 0.0
N1644 N 0.68473 0.67176 0.84251 0.0
C1645 C 0.70423 0.65787 0.83037 0.0
C1646 C 0.69659 0.64263 0.80809 0.0
C1647 C 0.66595 0.7263 0.11636 0.0
C1648 C 0.6773 0.75064 0.10944 0.0
C1649 C 0.64528 0.7248 0.13461 0.0
C1650 C 0.63526 0.74759 0.14691 0.0
H1651 H 0.67381 0.70806 0.10849 0.0
H1652 H 0.63811 0.70541 0.14007 0.0
S1653 S 0.65544 0.81658 0.13275 0.0
N1654 N 0.67491 0.79841 0.11401 0.0
N1655 N 0.63617 0.79554 0.14853 0.0
C1656 C 0.64509 0.77225 0.13874 0.0
C1657 C 0.66606 0.77379 0.11993 0.0
C1658 C 0.22114 0.66559 0.16358 0.0
C1659 C 0.24634 0.65799 0.17231 0.0
C1660 C 0.21787 0.68695 0.14627 0.0
C1661 C 0.23965 0.70183 0.1375 0.0
H1662 H 0.20376 0.65508 0.17031 0.0
H1663 H 0.19801 0.69229 0.14035 0.0
S1664 S 0.30989 0.68978 0.15424 0.0
N1665 N 0.29356 0.66667 0.17045 0.0
N1666 N 0.28732 0.70706 0.13824 0.0
C1667 C 0.26499 0.69424 0.1458 0.0
C1668 C 0.26837 0.67223 0.16309 0.0
C1669 C 0.76914 0.34272 0.1503 0.0
C1670 C 0.78959 0.35072 0.16724 0.0
C1671 C 0.7732 0.32307 0.13147 0.0
C1672 C 0.79795 0.31088 0.12853 0.0
H1673 H 0.74935 0.35055 0.15253 0.0
H1674 H 0.75651 0.31667 0.11984 0.0
S1675 S 0.85907 0.32752 0.16511 0.0
N1676 N 0.83626 0.34703 0.1778 0.0
N1677 N 0.84402 0.31024 0.14213 0.0
C1678 C 0.81913 0.32016 0.14383 0.0
C1679 C 0.81491 0.34004 0.16325 0.0
loop_
_geom_bond_atom_site_label_1
_geom_bond_atom_site_label_2
_geom_bond_distance
_geom_bond_site_symmetry_2
_ccdc_geom_bond_type
C0 O1 1.160 . S
C0 O7 1.185 . S
O1 C0 1.160 . S
O2 Zn3 1.899 . S
O2 C10 1.284 . S
Zn3 O2 1.899 . S
Zn3 O4 2.032 . S
Zn3 O7 2.086 . S
Zn3 O12 1.977 . S
O4 Zn3 2.032 . S
O4 C8 1.278 . S
C5 O6 1.203 . S
C5 O12 1.267 . S
O6 C5 1.203 . S
O7 C0 1.185 . S
O7 Zn3 2.086 . S
C8 O4 1.278 . S
C8 O9 1.211 . S
O9 C8 1.211 . S
C10 O2 1.284 . S
C10 O11 1.273 . S
O11 C10 1.273 . S
O12 Zn3 1.977 . S
O12 C5 1.267 . S
C13 O14 1.160 . S
C13 O20 1.185 . S
O14 C13 1.160 . S
O15 Zn16 1.899 . S
O15 C23 1.284 . S
Zn16 O15 1.899 . S
Zn16 O17 2.032 . S
Zn16 O20 2.086 . S
Zn16 O25 1.977 . S
O17 Zn16 2.032 . S
O17 C21 1.278 . S
C18 O19 1.203 . S
C18 O25 1.267 . S
O19 C18 1.203 . S
O20 C13 1.185 . S
O20 Zn16 2.086 . S
C21 O17 1.278 . S
C21 O22 1.211 . S
O22 C21 1.211 . S
C23 O15 1.284 . S
C23 O24 1.273 . S
O24 C23 1.273 . S
O25 Zn16 1.977 . S
O25 C18 1.267 . S
C26 O27 1.160 . S
C26 O33 1.185 . S
O27 C26 1.160 . S
O28 Zn29 1.899 . S
O28 C36 1.284 . S
Zn29 O28 1.899 . S
Zn29 O30 2.032 . S
Zn29 O33 2.086 . S
Zn29 O38 1.977 . S
O30 Zn29 2.032 . S
O30 C34 1.278 . S
C31 O32 1.203 . S
C31 O38 1.267 . S
O32 C31 1.203 . S
O33 C26 1.185 . S
O33 Zn29 2.086 . S
C34 O30 1.278 . S
C34 O35 1.211 . S
O35 C34 1.211 . S
C36 O28 1.284 . S
C36 O37 1.273 . S
O37 C36 1.273 . S
O38 Zn29 1.977 . S
O38 C31 1.267 . S
C39 O40 1.160 . S
C39 O46 1.185 . S
O40 C39 1.160 . S
O41 Zn42 1.899 . S
O41 C49 1.284 . S
Zn42 O41 1.899 . S
Zn42 O43 2.032 . S
Zn42 O46 2.086 . S
Zn42 O51 1.977 . S
O43 Zn42 2.032 . S
O43 C47 1.278 . S
C44 O45 1.203 . S
C44 O51 1.267 . S
O45 C44 1.203 . S
O46 C39 1.185 . S
O46 Zn42 2.086 . S
C47 O43 1.278 . S
C47 O48 1.211 . S
O48 C47 1.211 . S
C49 O41 1.284 . S
C49 O50 1.273 . S
O50 C49 1.273 . S
O51 Zn42 1.977 . S
O51 C44 1.267 . S
C52 O53 1.160 . S
C52 O59 1.185 . S
O53 C52 1.160 . S
O54 Zn55 1.899 . S
O54 C62 1.284 . S
Zn55 O54 1.899 . S
Zn55 O56 2.032 . S
Zn55 O59 2.086 . S
Zn55 O64 1.977 . S
O56 Zn55 2.032 . S
O56 C60 1.278 . S
C57 O58 1.203 . S
C57 O64 1.267 . S
O58 C57 1.203 . S
O59 C52 1.185 . S
O59 Zn55 2.086 . S
C60 O56 1.278 . S
C60 O61 1.211 . S
O61 C60 1.211 . S
C62 O54 1.284 . S
C62 O63 1.273 . S
O63 C62 1.273 . S
O64 Zn55 1.977 . S
O64 C57 1.267 . S
C65 O66 1.160 . S
C65 O72 1.185 . S
O66 C65 1.160 . S
O67 Zn68 1.899 . S
O67 C75 1.284 . S
Zn68 O67 1.899 . S
Zn68 O69 2.032 . S
Zn68 O72 2.086 . S
Zn68 O77 1.977 . S
O69 Zn68 2.032 . S
O69 C73 1.278 . S
C70 O71 1.203 . S
C70 O77 1.267 . S
O71 C70 1.203 . S
O72 C65 1.185 . S
O72 Zn68 2.086 . S
C73 O69 1.278 . S
C73 O74 1.211 . S
O74 C73 1.211 . S
C75 O67 1.284 . S
C75 O76 1.273 . S
O76 C75 1.273 . S
O77 Zn68 1.977 . S
O77 C70 1.267 . S
C78 O79 1.160 . S
C78 O85 1.185 . S
O79 C78 1.160 . S
O80 Zn81 1.899 . S
O80 C88 1.284 . S
Zn81 O80 1.899 . S
Zn81 O82 2.032 . S
Zn81 O85 2.086 . S
Zn81 O90 1.977 . S
O82 Zn81 2.032 . S
O82 C86 1.278 . S
C83 O84 1.203 . S
C83 O90 1.267 . S
O84 C83 1.203 . S
O85 C78 1.185 . S
O85 Zn81 2.086 . S
C86 O82 1.278 . S
C86 O87 1.211 . S
O87 C86 1.211 . S
C88 O80 1.284 . S
C88 O89 1.273 . S
O89 C88 1.273 . S
O90 Zn81 1.977 . S
O90 C83 1.267 . S
C91 O92 1.160 . S
C91 O98 1.185 . S
O92 C91 1.160 . S
O93 Zn94 1.899 . S
O93 C101 1.284 . S
Zn94 O93 1.899 . S
Zn94 O95 2.032 . S
Zn94 O98 2.086 . S
Zn94 O103 1.977 . S
O95 Zn94 2.032 . S
O95 C99 1.278 . S
C96 O97 1.203 . S
C96 O103 1.267 . S
O97 C96 1.203 . S
O98 C91 1.185 . S
O98 Zn94 2.086 . S
C99 O95 1.278 . S
C99 O100 1.211 . S
O100 C99 1.211 . S
C101 O93 1.284 . S
C101 O102 1.273 . S
O102 C101 1.273 . S
O103 Zn94 1.977 . S
O103 C96 1.267 . S
C104 O105 1.160 . S
C104 O111 1.185 . S
O105 C104 1.160 . S
O106 Zn107 1.899 . S
O106 C114 1.284 . S
Zn107 O106 1.899 . S
Zn107 O108 2.032 . S
Zn107 O111 2.086 . S
Zn107 O116 1.977 . S
O108 Zn107 2.032 . S
O108 C112 1.278 . S
C109 O110 1.203 . S
C109 O116 1.267 . S
O110 C109 1.203 . S
O111 C104 1.185 . S
O111 Zn107 2.086 . S
C112 O108 1.278 . S
C112 O113 1.211 . S
O113 C112 1.211 . S
C114 O106 1.284 . S
C114 O115 1.273 . S
O115 C114 1.273 . S
O116 Zn107 1.977 . S
O116 C109 1.267 . S
C117 O118 1.160 . S
C117 O124 1.185 . S
O118 C117 1.160 . S
O119 Zn120 1.899 . S
O119 C127 1.284 . S
Zn120 O119 1.899 . S
Zn120 O121 2.032 . S
Zn120 O124 2.086 . S
Zn120 O129 1.977 . S
O121 Zn120 2.032 . S
O121 C125 1.278 . S
C122 O123 1.203 . S
C122 O129 1.267 . S
O123 C122 1.203 . S
O124 C117 1.185 . S
O124 Zn120 2.086 . S
C125 O121 1.278 . S
C125 O126 1.211 . S
O126 C125 1.211 . S
C127 O119 1.284 . S
C127 O128 1.273 . S
O128 C127 1.273 . S
O129 Zn120 1.977 . S
O129 C122 1.267 . S
C130 O131 1.160 . S
C130 O137 1.185 . S
O131 C130 1.160 . S
O132 Zn133 1.899 . S
O132 C140 1.284 . S
Zn133 O132 1.899 . S
Zn133 O134 2.032 . S
Zn133 O137 2.086 . S
Zn133 O142 1.977 . S
O134 Zn133 2.032 . S
O134 C138 1.278 . S
C135 O136 1.203 . S
C135 O142 1.267 . S
O136 C135 1.203 . S
O137 C130 1.185 . S
O137 Zn133 2.086 . S
C138 O134 1.278 . S
C138 O139 1.211 . S
O139 C138 1.211 . S
C140 O132 1.284 . S
C140 O141 1.273 . S
O141 C140 1.273 . S
O142 Zn133 1.977 . S
O142 C135 1.267 . S
C143 O144 1.160 . S
C143 O150 1.185 . S
O144 C143 1.160 . S
O145 Zn146 1.899 . S
O145 C153 1.284 . S
Zn146 O145 1.899 . S
Zn146 O147 2.032 . S
Zn146 O150 2.086 . S
Zn146 O155 1.977 . S
O147 Zn146 2.032 . S
O147 C151 1.278 . S
C148 O149 1.203 . S
C148 O155 1.267 . S
O149 C148 1.203 . S
O150 C143 1.185 . S
O150 Zn146 2.086 . S
C151 O147 1.278 . S
C151 O152 1.211 . S
O152 C151 1.211 . S
C153 O145 1.284 . S
C153 O154 1.273 . S
O154 C153 1.273 . S
O155 Zn146 1.977 . S
O155 C148 1.267 . S
C156 O157 1.160 . S
C156 O163 1.185 . S
O157 C156 1.160 . S
O158 Zn159 1.899 . S
O158 C166 1.284 . S
Zn159 O158 1.899 . S
Zn159 O160 2.032 . S
Zn159 O163 2.086 . S
Zn159 O168 1.977 . S
O160 Zn159 2.032 . S
O160 C164 1.278 . S
C161 O162 1.203 . S
C161 O168 1.267 . S
O162 C161 1.203 . S
O163 C156 1.185 . S
O163 Zn159 2.086 . S
C164 O160 1.278 . S
C164 O165 1.211 . S
O165 C164 1.211 . S
C166 O158 1.284 . S
C166 O167 1.273 . S
O167 C166 1.273 . S
O168 Zn159 1.977 . S
O168 C161 1.267 . S
C169 O170 1.160 . S
C169 O176 1.185 . S
O170 C169 1.160 . S
O171 Zn172 1.899 . S
O171 C179 1.284 . S
Zn172 O171 1.899 . S
Zn172 O173 2.032 . S
Zn172 O176 2.086 . S
Zn172 O181 1.977 . S
O173 Zn172 2.032 . S
O173 C177 1.278 . S
C174 O175 1.203 . S
C174 O181 1.267 . S
O175 C174 1.203 . S
O176 C169 1.185 . S
O176 Zn172 2.086 . S
C177 O173 1.278 . S
C177 O178 1.211 . S
O178 C177 1.211 . S
C179 O171 1.284 . S
C179 O180 1.273 . S
O180 C179 1.273 . S
O181 Zn172 1.977 . S
O181 C174 1.267 . S
C182 O183 1.160 . S
C182 O189 1.185 . S
O183 C182 1.160 . S
O184 Zn185 1.899 . S
O184 C192 1.284 . S
Zn185 O184 1.899 . S
Zn185 O186 2.032 . S
Zn185 O189 2.086 . S
Zn185 O194 1.977 . S
O186 Zn185 2.032 . S
O186 C190 1.278 . S
C187 O188 1.203 . S
C187 O194 1.267 . S
O188 C187 1.203 . S
O189 C182 1.185 . S
O189 Zn185 2.086 . S
C190 O186 1.278 . S
C190 O191 1.211 . S
O191 C190 1.211 . S
C192 O184 1.284 . S
C192 O193 1.273 . S
O193 C192 1.273 . S
O194 Zn185 1.977 . S
O194 C187 1.267 . S
C195 O196 1.160 . S
C195 O202 1.185 . S
O196 C195 1.160 . S
O197 Zn198 1.899 . S
O197 C205 1.284 . S
Zn198 O197 1.899 . S
Zn198 O199 2.032 . S
Zn198 O202 2.086 . S
Zn198 O207 1.977 . S
O199 Zn198 2.032 . S
O199 C203 1.278 . S
C200 O201 1.203 . S
C200 O207 1.267 . S
O201 C200 1.203 . S
O202 C195 1.185 . S
O202 Zn198 2.086 . S
C203 O199 1.278 . S
C203 O204 1.211 . S
O204 C203 1.211 . S
C205 O197 1.284 . S
C205 O206 1.273 . S
O206 C205 1.273 . S
O207 Zn198 1.977 . S
O207 C200 1.267 . S
C208 O209 1.160 . S
C208 O215 1.185 . S
O209 C208 1.160 . S
O210 Zn211 1.899 . S
O210 C218 1.284 . S
Zn211 O210 1.899 . S
Zn211 O212 2.032 . S
Zn211 O215 2.086 . S
Zn211 O220 1.977 . S
O212 Zn211 2.032 . S
O212 C216 1.278 . S
C213 O214 1.203 . S
C213 O220 1.267 . S
O214 C213 1.203 . S
O215 C208 1.185 . S
O215 Zn211 2.086 . S
C216 O212 1.278 . S
C216 O217 1.211 . S
O217 C216 1.211 . S
C218 O210 1.284 . S
C218 O219 1.273 . S
O219 C218 1.273 . S
O220 Zn211 1.977 . S
O220 C213 1.267 . S
C221 O222 1.160 . S
C221 O228 1.185 . S
O222 C221 1.160 . S
O223 Zn224 1.899 . S
O223 C231 1.284 . S
Zn224 O223 1.899 . S
Zn224 O225 2.032 . S
Zn224 O228 2.086 . S
Zn224 O233 1.977 . S
O225 Zn224 2.032 . S
O225 C229 1.278 . S
C226 O227 1.203 . S
C226 O233 1.267 . S
O227 C226 1.203 . S
O228 C221 1.185 . S
O228 Zn224 2.086 . S
C229 O225 1.278 . S
C229 O230 1.211 . S
O230 C229 1.211 . S
C231 O223 1.284 . S
C231 O232 1.273 . S
O232 C231 1.273 . S
O233 Zn224 1.977 . S
O233 C226 1.267 . S
C234 O235 1.160 . S
C234 O241 1.185 . S
O235 C234 1.160 . S
O236 Zn237 1.899 . S
O236 C244 1.284 . S
Zn237 O236 1.899 . S
Zn237 O238 2.032 . S
Zn237 O241 2.086 . S
Zn237 O246 1.977 . S
O238 Zn237 2.032 . S
O238 C242 1.278 . S
C239 O240 1.203 . S
C239 O246 1.267 . S
O240 C239 1.203 . S
O241 C234 1.185 . S
O241 Zn237 2.086 . S
C242 O238 1.278 . S
C242 O243 1.211 . S
O243 C242 1.211 . S
C244 O236 1.284 . S
C244 O245 1.273 . S
O245 C244 1.273 . S
O246 Zn237 1.977 . S
O246 C239 1.267 . S
C247 O248 1.160 . S
C247 O254 1.185 . S
O248 C247 1.160 . S
O249 Zn250 1.899 . S
O249 C257 1.284 . S
Zn250 O249 1.899 . S
Zn250 O251 2.032 . S
Zn250 O254 2.086 . S
Zn250 O259 1.977 . S
O251 Zn250 2.032 . S
O251 C255 1.278 . S
C252 O253 1.203 . S
C252 O259 1.267 . S
O253 C252 1.203 . S
O254 C247 1.185 . S
O254 Zn250 2.086 . S
C255 O251 1.278 . S
C255 O256 1.211 . S
O256 C255 1.211 . S
C257 O249 1.284 . S
C257 O258 1.273 . S
O258 C257 1.273 . S
O259 Zn250 1.977 . S
O259 C252 1.267 . S
C260 O261 1.160 . S
C260 O267 1.185 . S
O261 C260 1.160 . S
O262 Zn263 1.899 . S
O262 C270 1.284 . S
Zn263 O262 1.899 . S
Zn263 O264 2.032 . S
Zn263 O267 2.086 . S
Zn263 O272 1.977 . S
O264 Zn263 2.032 . S
O264 C268 1.278 . S
C265 O266 1.203 . S
C265 O272 1.267 . S
O266 C265 1.203 . S
O267 C260 1.185 . S
O267 Zn263 2.086 . S
C268 O264 1.278 . S
C268 O269 1.211 . S
O269 C268 1.211 . S
C270 O262 1.284 . S
C270 O271 1.273 . S
O271 C270 1.273 . S
O272 Zn263 1.977 . S
O272 C265 1.267 . S
C273 O274 1.160 . S
C273 O280 1.185 . S
O274 C273 1.160 . S
O275 Zn276 1.899 . S
O275 C283 1.284 . S
Zn276 O275 1.899 . S
Zn276 O277 2.032 . S
Zn276 O280 2.086 . S
Zn276 O285 1.977 . S
O277 Zn276 2.032 . S
O277 C281 1.278 . S
C278 O279 1.203 . S
C278 O285 1.267 . S
O279 C278 1.203 . S
O280 C273 1.185 . S
O280 Zn276 2.086 . S
C281 O277 1.278 . S
C281 O282 1.211 . S
O282 C281 1.211 . S
C283 O275 1.284 . S
C283 O284 1.273 . S
O284 C283 1.273 . S
O285 Zn276 1.977 . S
O285 C278 1.267 . S
C286 O287 1.160 . S
C286 O293 1.185 . S
O287 C286 1.160 . S
O288 Zn289 1.899 . S
O288 C296 1.284 . S
Zn289 O288 1.899 . S
Zn289 O290 2.032 . S
Zn289 O293 2.086 . S
Zn289 O298 1.977 . S
O290 Zn289 2.032 . S
O290 C294 1.278 . S
C291 O292 1.203 . S
C291 O298 1.267 . S
O292 C291 1.203 . S
O293 C286 1.185 . S
O293 Zn289 2.086 . S
C294 O290 1.278 . S
C294 O295 1.211 . S
O295 C294 1.211 . S
C296 O288 1.284 . S
C296 O297 1.273 . S
O297 C296 1.273 . S
O298 Zn289 1.977 . S
O298 C291 1.267 . S
C299 O300 1.160 . S
C299 O306 1.185 . S
O300 C299 1.160 . S
O301 Zn302 1.899 . S
O301 C309 1.284 . S
Zn302 O301 1.899 . S
Zn302 O303 2.032 . S
Zn302 O306 2.086 . S
Zn302 O311 1.977 . S
O303 Zn302 2.032 . S
O303 C307 1.278 . S
C304 O305 1.203 . S
C304 O311 1.267 . S
O305 C304 1.203 . S
O306 C299 1.185 . S
O306 Zn302 2.086 . S
C307 O303 1.278 . S
C307 O308 1.211 . S
O308 C307 1.211 . S
C309 O301 1.284 . S
C309 O310 1.273 . S
O310 C309 1.273 . S
O311 Zn302 1.977 . S
O311 C304 1.267 . S
C312 O313 1.160 . S
C312 O319 1.185 . S
O313 C312 1.160 . S
O314 Zn315 1.899 . S
O314 C322 1.284 . S
Zn315 O314 1.899 . S
Zn315 O316 2.032 . S
Zn315 O319 2.086 . S
Zn315 O324 1.977 . S
O316 Zn315 2.032 . S
O316 C320 1.278 . S
C317 O318 1.203 . S
C317 O324 1.267 . S
O318 C317 1.203 . S
O319 C312 1.185 . S
O319 Zn315 2.086 . S
C320 O316 1.278 . S
C320 O321 1.211 . S
O321 C320 1.211 . S
C322 O314 1.284 . S
C322 O323 1.273 . S
O323 C322 1.273 . S
O324 Zn315 1.977 . S
O324 C317 1.267 . S
C325 O326 1.160 . S
C325 O332 1.185 . S
O326 C325 1.160 . S
O327 Zn328 1.899 . S
O327 C335 1.284 . S
Zn328 O327 1.899 . S
Zn328 O329 2.032 . S
Zn328 O332 2.086 . S
Zn328 O337 1.977 . S
O329 Zn328 2.032 . S
O329 C333 1.278 . S
C330 O331 1.203 . S
C330 O337 1.267 . S
O331 C330 1.203 . S
O332 C325 1.185 . S
O332 Zn328 2.086 . S
C333 O329 1.278 . S
C333 O334 1.211 . S
O334 C333 1.211 . S
C335 O327 1.284 . S
C335 O336 1.273 . S
O336 C335 1.273 . S
O337 Zn328 1.977 . S
O337 C330 1.267 . S
C338 O339 1.160 . S
C338 O345 1.185 . S
O339 C338 1.160 . S
O340 Zn341 1.899 . S
O340 C348 1.284 . S
Zn341 O340 1.899 . S
Zn341 O342 2.032 . S
Zn341 O345 2.086 . S
Zn341 O350 1.977 . S
O342 Zn341 2.032 . S
O342 C346 1.278 . S
C343 O344 1.203 . S
C343 O350 1.267 . S
O344 C343 1.203 . S
O345 C338 1.185 . S
O345 Zn341 2.086 . S
C346 O342 1.278 . S
C346 O347 1.211 . S
O347 C346 1.211 . S
C348 O340 1.284 . S
C348 O349 1.273 . S
O349 C348 1.273 . S
O350 Zn341 1.977 . S
O350 C343 1.267 . S
C351 O352 1.160 . S
C351 O358 1.185 . S
O352 C351 1.160 . S
O353 Zn354 1.899 . S
O353 C361 1.284 . S
Zn354 O353 1.899 . S
Zn354 O355 2.032 . S
Zn354 O358 2.086 . S
Zn354 O363 1.977 . S
O355 Zn354 2.032 . S
O355 C359 1.278 . S
C356 O357 1.203 . S
C356 O363 1.267 . S
O357 C356 1.203 . S
O358 C351 1.185 . S
O358 Zn354 2.086 . S
C359 O355 1.278 . S
C359 O360 1.211 . S
O360 C359 1.211 . S
C361 O353 1.284 . S
C361 O362 1.273 . S
O362 C361 1.273 . S
O363 Zn354 1.977 . S
O363 C356 1.267 . S
C364 O365 1.160 . S
C364 O371 1.185 . S
O365 C364 1.160 . S
O366 Zn367 1.899 . S
O366 C374 1.284 . S
Zn367 O366 1.899 . S
Zn367 O368 2.032 . S
Zn367 O371 2.086 . S
Zn367 O376 1.977 . S
O368 Zn367 2.032 . S
O368 C372 1.278 . S
C369 O370 1.203 . S
C369 O376 1.267 . S
O370 C369 1.203 . S
O371 C364 1.185 . S
O371 Zn367 2.086 . S
C372 O368 1.278 . S
C372 O373 1.211 . S
O373 C372 1.211 . S
C374 O366 1.284 . S
C374 O375 1.273 . S
O375 C374 1.273 . S
O376 Zn367 1.977 . S
O376 C369 1.267 . S
C377 O378 1.160 . S
C377 O384 1.185 . S
O378 C377 1.160 . S
O379 Zn380 1.899 . S
O379 C387 1.284 . S
Zn380 O379 1.899 . S
Zn380 O381 2.032 . S
Zn380 O384 2.086 . S
Zn380 O389 1.977 . S
O381 Zn380 2.032 . S
O381 C385 1.278 . S
C382 O383 1.203 . S
C382 O389 1.267 . S
O383 C382 1.203 . S
O384 C377 1.185 . S
O384 Zn380 2.086 . S
C385 O381 1.278 . S
C385 O386 1.211 . S
O386 C385 1.211 . S
C387 O379 1.284 . S
C387 O388 1.273 . S
O388 C387 1.273 . S
O389 Zn380 1.977 . S
O389 C382 1.267 . S
C390 O391 1.160 . S
C390 O397 1.185 . S
O391 C390 1.160 . S
O392 Zn393 1.899 . S
O392 C400 1.284 . S
Zn393 O392 1.899 . S
Zn393 O394 2.032 . S
Zn393 O397 2.086 . S
Zn393 O402 1.977 . S
O394 Zn393 2.032 . S
O394 C398 1.278 . S
C395 O396 1.203 . S
C395 O402 1.267 . S
O396 C395 1.203 . S
O397 C390 1.185 . S
O397 Zn393 2.086 . S
C398 O394 1.278 . S
C398 O399 1.211 . S
O399 C398 1.211 . S
C400 O392 1.284 . S
C400 O401 1.273 . S
O401 C400 1.273 . S
O402 Zn393 1.977 . S
O402 C395 1.267 . S
C403 O404 1.160 . S
C403 O410 1.185 . S
O404 C403 1.160 . S
O405 Zn406 1.899 . S
O405 C413 1.284 . S
Zn406 O405 1.899 . S
Zn406 O407 2.032 . S
Zn406 O410 2.086 . S
Zn406 O415 1.977 . S
O407 Zn406 2.032 . S
O407 C411 1.278 . S
C408 O409 1.203 . S
C408 O415 1.267 . S
O409 C408 1.203 . S
O410 C403 1.185 . S
O410 Zn406 2.086 . S
C411 O407 1.278 . S
C411 O412 1.211 . S
O412 C411 1.211 . S
C413 O405 1.284 . S
C413 O414 1.273 . S
O414 C413 1.273 . S
O415 Zn406 1.977 . S
O415 C408 1.267 . S
C416 O417 1.160 . S
C416 O423 1.185 . S
O417 C416 1.160 . S
O418 Zn419 1.899 . S
O418 C426 1.284 . S
Zn419 O418 1.899 . S
Zn419 O420 2.032 . S
Zn419 O423 2.086 . S
Zn419 O428 1.977 . S
O420 Zn419 2.032 . S
O420 C424 1.278 . S
C421 O422 1.203 . S
C421 O428 1.267 . S
O422 C421 1.203 . S
O423 C416 1.185 . S
O423 Zn419 2.086 . S
C424 O420 1.278 . S
C424 O425 1.211 . S
O425 C424 1.211 . S
C426 O418 1.284 . S
C426 O427 1.273 . S
O427 C426 1.273 . S
O428 Zn419 1.977 . S
O428 C421 1.267 . S
C429 O430 1.160 . S
C429 O436 1.185 . S
O430 C429 1.160 . S
O431 Zn432 1.899 . S
O431 C439 1.284 . S
Zn432 O431 1.899 . S
Zn432 O433 2.032 . S
Zn432 O436 2.086 . S
Zn432 O441 1.977 . S
O433 Zn432 2.032 . S
O433 C437 1.278 . S
C434 O435 1.203 . S
C434 O441 1.267 . S
O435 C434 1.203 . S
O436 C429 1.185 . S
O436 Zn432 2.086 . S
C437 O433 1.278 . S
C437 O438 1.211 . S
O438 C437 1.211 . S
C439 O431 1.284 . S
C439 O440 1.273 . S
O440 C439 1.273 . S
O441 Zn432 1.977 . S
O441 C434 1.267 . S
C442 O443 1.160 . S
C442 O449 1.185 . S
O443 C442 1.160 . S
O444 Zn445 1.899 . S
O444 C452 1.284 . S
Zn445 O444 1.899 . S
Zn445 O446 2.032 . S
Zn445 O449 2.086 . S
Zn445 O454 1.977 . S
O446 Zn445 2.032 . S
O446 C450 1.278 . S
C447 O448 1.203 . S
C447 O454 1.267 . S
O448 C447 1.203 . S
O449 C442 1.185 . S
O449 Zn445 2.086 . S
C450 O446 1.278 . S
C450 O451 1.211 . S
O451 C450 1.211 . S
C452 O444 1.284 . S
C452 O453 1.273 . S
O453 C452 1.273 . S
O454 Zn445 1.977 . S
O454 C447 1.267 . S
C455 O456 1.160 . S
C455 O462 1.185 . S
O456 C455 1.160 . S
O457 Zn458 1.899 . S
O457 C465 1.284 . S
Zn458 O457 1.899 . S
Zn458 O459 2.032 . S
Zn458 O462 2.086 . S
Zn458 O467 1.977 . S
O459 Zn458 2.032 . S
O459 C463 1.278 . S
C460 O461 1.203 . S
C460 O467 1.267 . S
O461 C460 1.203 . S
O462 C455 1.185 . S
O462 Zn458 2.086 . S
C463 O459 1.278 . S
C463 O464 1.211 . S
O464 C463 1.211 . S
C465 O457 1.284 . S
C465 O466 1.273 . S
O466 C465 1.273 . S
O467 Zn458 1.977 . S
O467 C460 1.267 . S
C468 O469 1.160 . S
C468 O475 1.185 . S
O469 C468 1.160 . S
O470 Zn471 1.899 . S
O470 C478 1.284 . S
Zn471 O470 1.899 . S
Zn471 O472 2.032 . S
Zn471 O475 2.086 . S
Zn471 O480 1.977 . S
O472 Zn471 2.032 . S
O472 C476 1.278 . S
C473 O474 1.203 . S
C473 O480 1.267 . S
O474 C473 1.203 . S
O475 C468 1.185 . S
O475 Zn471 2.086 . S
C476 O472 1.278 . S
C476 O477 1.211 . S
O477 C476 1.211 . S
C478 O470 1.284 . S
C478 O479 1.273 . S
O479 C478 1.273 . S
O480 Zn471 1.977 . S
O480 C473 1.267 . S
C481 O482 1.160 . S
C481 O488 1.185 . S
O482 C481 1.160 . S
O483 Zn484 1.899 . S
O483 C491 1.284 . S
Zn484 O483 1.899 . S
Zn484 O485 2.032 . S
Zn484 O488 2.086 . S
Zn484 O493 1.977 . S
O485 Zn484 2.032 . S
O485 C489 1.278 . S
C486 O487 1.203 . S
C486 O493 1.267 . S
O487 C486 1.203 . S
O488 C481 1.185 . S
O488 Zn484 2.086 . S
C489 O485 1.278 . S
C489 O490 1.211 . S
O490 C489 1.211 . S
C491 O483 1.284 . S
C491 O492 1.273 . S
O492 C491 1.273 . S
O493 Zn484 1.977 . S
O493 C486 1.267 . S
C494 O495 1.160 . S
C494 O501 1.185 . S
O495 C494 1.160 . S
O496 Zn497 1.899 . S
O496 C504 1.284 . S
Zn497 O496 1.899 . S
Zn497 O498 2.032 . S
Zn497 O501 2.086 . S
Zn497 O506 1.977 . S
O498 Zn497 2.032 . S
O498 C502 1.278 . S
C499 O500 1.203 . S
C499 O506 1.267 . S
O500 C499 1.203 . S
O501 C494 1.185 . S
O501 Zn497 2.086 . S
C502 O498 1.278 . S
C502 O503 1.211 . S
O503 C502 1.211 . S
C504 O496 1.284 . S
C504 O505 1.273 . S
O505 C504 1.273 . S
O506 Zn497 1.977 . S
O506 C499 1.267 . S
C507 O508 1.160 . S
C507 O514 1.185 . S
O508 C507 1.160 . S
O509 Zn510 1.899 . S
O509 C517 1.284 . S
Zn510 O509 1.899 . S
Zn510 O511 2.032 . S
Zn510 O514 2.086 . S
Zn510 O519 1.977 . S
O511 Zn510 2.032 . S
O511 C515 1.278 . S
C512 O513 1.203 . S
C512 O519 1.267 . S
O513 C512 1.203 . S
O514 C507 1.185 . S
O514 Zn510 2.086 . S
C515 O511 1.278 . S
C515 O516 1.211 . S
O516 C515 1.211 . S
C517 O509 1.284 . S
C517 O518 1.273 . S
O518 C517 1.273 . S
O519 Zn510 1.977 . S
O519 C512 1.267 . S
C520 O521 1.160 . S
C520 O527 1.185 . S
O521 C520 1.160 . S
O522 Zn523 1.899 . S
O522 C530 1.284 . S
Zn523 O522 1.899 . S
Zn523 O524 2.032 . S
Zn523 O527 2.086 . S
Zn523 O532 1.977 . S
O524 Zn523 2.032 . S
O524 C528 1.278 . S
C525 O526 1.203 . S
C525 O532 1.267 . S
O526 C525 1.203 . S
O527 C520 1.185 . S
O527 Zn523 2.086 . S
C528 O524 1.278 . S
C528 O529 1.211 . S
O529 C528 1.211 . S
C530 O522 1.284 . S
C530 O531 1.273 . S
O531 C530 1.273 . S
O532 Zn523 1.977 . S
O532 C525 1.267 . S
C533 O534 1.160 . S
C533 O540 1.185 . S
O534 C533 1.160 . S
O535 Zn536 1.899 . S
O535 C543 1.284 . S
Zn536 O535 1.899 . S
Zn536 O537 2.032 . S
Zn536 O540 2.086 . S
Zn536 O545 1.977 . S
O537 Zn536 2.032 . S
O537 C541 1.278 . S
C538 O539 1.203 . S
C538 O545 1.267 . S
O539 C538 1.203 . S
O540 C533 1.185 . S
O540 Zn536 2.086 . S
C541 O537 1.278 . S
C541 O542 1.211 . S
O542 C541 1.211 . S
C543 O535 1.284 . S
C543 O544 1.273 . S
O544 C543 1.273 . S
O545 Zn536 1.977 . S
O545 C538 1.267 . S
C546 O547 1.160 . S
C546 O553 1.185 . S
O547 C546 1.160 . S
O548 Zn549 1.899 . S
O548 C556 1.284 . S
Zn549 O548 1.899 . S
Zn549 O550 2.032 . S
Zn549 O553 2.086 . S
Zn549 O558 1.977 . S
O550 Zn549 2.032 . S
O550 C554 1.278 . S
C551 O552 1.203 . S
C551 O558 1.267 . S
O552 C551 1.203 . S
O553 C546 1.185 . S
O553 Zn549 2.086 . S
C554 O550 1.278 . S
C554 O555 1.211 . S
O555 C554 1.211 . S
C556 O548 1.284 . S
C556 O557 1.273 . S
O557 C556 1.273 . S
O558 Zn549 1.977 . S
O558 C551 1.267 . S
C559 O560 1.160 . S
C559 O566 1.185 . S
O560 C559 1.160 . S
O561 Zn562 1.899 . S
O561 C569 1.284 . S
Zn562 O561 1.899 . S
Zn562 O563 2.032 . S
Zn562 O566 2.086 . S
Zn562 O571 1.977 . S
O563 Zn562 2.032 . S
O563 C567 1.278 . S
C564 O565 1.203 . S
C564 O571 1.267 . S
O565 C564 1.203 . S
O566 C559 1.185 . S
O566 Zn562 2.086 . S
C567 O563 1.278 . S
C567 O568 1.211 . S
O568 C567 1.211 . S
C569 O561 1.284 . S
C569 O570 1.273 . S
O570 C569 1.273 . S
O571 Zn562 1.977 . S
O571 C564 1.267 . S
C572 O573 1.160 . S
C572 O579 1.185 . S
O573 C572 1.160 . S
O574 Zn575 1.899 . S
O574 C582 1.284 . S
Zn575 O574 1.899 . S
Zn575 O576 2.032 . S
Zn575 O579 2.086 . S
Zn575 O584 1.977 . S
O576 Zn575 2.032 . S
O576 C580 1.278 . S
C577 O578 1.203 . S
C577 O584 1.267 . S
O578 C577 1.203 . S
O579 C572 1.185 . S
O579 Zn575 2.086 . S
C580 O576 1.278 . S
C580 O581 1.211 . S
O581 C580 1.211 . S
C582 O574 1.284 . S
C582 O583 1.273 . S
O583 C582 1.273 . S
O584 Zn575 1.977 . S
O584 C577 1.267 . S
C585 O586 1.160 . S
C585 O592 1.185 . S
O586 C585 1.160 . S
O587 Zn588 1.899 . S
O587 C595 1.284 . S
Zn588 O587 1.899 . S
Zn588 O589 2.032 . S
Zn588 O592 2.086 . S
Zn588 O597 1.977 . S
O589 Zn588 2.032 . S
O589 C593 1.278 . S
C590 O591 1.203 . S
C590 O597 1.267 . S
O591 C590 1.203 . S
O592 C585 1.185 . S
O592 Zn588 2.086 . S
C593 O589 1.278 . S
C593 O594 1.211 . S
O594 C593 1.211 . S
C595 O587 1.284 . S
C595 O596 1.273 . S
O596 C595 1.273 . S
O597 Zn588 1.977 . S
O597 C590 1.267 . S
C598 O599 1.160 . S
C598 O605 1.185 . S
O599 C598 1.160 . S
O600 Zn601 1.899 . S
O600 C608 1.284 . S
Zn601 O600 1.899 . S
Zn601 O602 2.032 . S
Zn601 O605 2.086 . S
Zn601 O610 1.977 . S
O602 Zn601 2.032 . S
O602 C606 1.278 . S
C603 O604 1.203 . S
C603 O610 1.267 . S
O604 C603 1.203 . S
O605 C598 1.185 . S
O605 Zn601 2.086 . S
C606 O602 1.278 . S
C606 O607 1.211 . S
O607 C606 1.211 . S
C608 O600 1.284 . S
C608 O609 1.273 . S
O609 C608 1.273 . S
O610 Zn601 1.977 . S
O610 C603 1.267 . S
C611 O612 1.160 . S
C611 O618 1.185 . S
O612 C611 1.160 . S
O613 Zn614 1.899 . S
O613 C621 1.284 . S
Zn614 O613 1.899 . S
Zn614 O615 2.032 . S
Zn614 O618 2.086 . S
Zn614 O623 1.977 . S
O615 Zn614 2.032 . S
O615 C619 1.278 . S
C616 O617 1.203 . S
C616 O623 1.267 . S
O617 C616 1.203 . S
O618 C611 1.185 . S
O618 Zn614 2.086 . S
C619 O615 1.278 . S
C619 O620 1.211 . S
O620 C619 1.211 . S
C621 O613 1.284 . S
C621 O622 1.273 . S
O622 C621 1.273 . S
O623 Zn614 1.977 . S
O623 C616 1.267 . S
C624 C625 1.369 1_455 S
C624 C626 1.419 . S
C624 H628 0.930 . S
C625 C624 1.369 1_655 S
C625 C634 1.429 . S
C626 C624 1.419 . S
C626 C627 1.363 . S
C626 H629 0.929 . S
C627 C626 1.363 . S
C627 C633 1.428 1_455 S
H628 C624 0.930 . S
H629 C626 0.929 . S
S630 N631 1.613 . S
S630 N632 1.610 . S
N631 S630 1.613 . S
N631 C634 1.350 . S
N632 S630 1.610 . S
N632 C633 1.351 . S
C633 C627 1.428 1_655 S
C633 N632 1.351 . S
C633 C634 1.434 . S
C634 C625 1.429 . S
C634 N631 1.350 . S
C634 C633 1.434 . S
C635 C636 1.369 . S
C635 C637 1.419 1_565 S
C635 H639 0.930 . S
C636 C635 1.369 . S
C636 C645 1.429 . S
C637 C635 1.419 1_545 S
C637 C638 1.363 . S
C637 H640 0.929 . S
C638 C637 1.363 . S
C638 C644 1.428 . S
H639 C635 0.930 . S
H640 C637 0.929 . S
S641 N642 1.613 1_545 S
S641 N643 1.610 . S
N642 S641 1.613 1_565 S
N642 C645 1.350 . S
N643 S641 1.610 . S
N643 C644 1.351 . S
C644 C638 1.428 . S
C644 N643 1.351 . S
C644 C645 1.434 1_545 S
C645 C636 1.429 . S
C645 N642 1.350 . S
C645 C644 1.434 1_565 S
C646 C647 1.369 1_655 S
C646 C648 1.419 . S
C646 H650 0.930 . S
C647 C646 1.369 1_455 S
C647 C656 1.429 . S
C648 C646 1.419 . S
C648 C649 1.363 . S
C648 H651 0.929 . S
C649 C648 1.363 . S
C649 C655 1.428 1_655 S
H650 C646 0.930 . S
H651 C648 0.929 . S
S652 N653 1.613 . S
S652 N654 1.610 . S
N653 S652 1.613 . S
N653 C656 1.350 . S
N654 S652 1.610 . S
N654 C655 1.351 . S
C655 C649 1.428 1_455 S
C655 N654 1.351 . S
C655 C656 1.434 . S
C656 C647 1.429 . S
C656 N653 1.350 . S
C656 C655 1.434 . S
C657 C658 1.369 . S
C657 C659 1.419 . S
C657 H661 0.930 . S
C658 C657 1.369 . S
C658 C667 1.429 1_565 S
C659 C657 1.419 . S
C659 C660 1.363 1_565 S
C659 H662 0.929 . S
C660 C659 1.363 1_545 S
C660 C666 1.428 . S
H661 C657 0.930 . S
H662 C659 0.929 . S
S663 N664 1.613 . S
S663 N665 1.610 . S
N664 S663 1.613 . S
N664 C667 1.350 . S
N665 S663 1.610 . S
N665 C666 1.351 . S
C666 C660 1.428 . S
C666 N665 1.351 . S
C666 C667 1.434 . S
C667 C658 1.429 1_545 S
C667 N664 1.350 . S
C667 C666 1.434 . S
C668 C669 1.369 . S
C668 C670 1.419 1_655 S
C668 H672 0.930 . S
C669 C668 1.369 . S
C669 C678 1.429 . S
C670 C668 1.419 1_455 S
C670 C671 1.363 . S
C670 H673 0.929 . S
C671 C670 1.363 . S
C671 C677 1.428 . S
H672 C668 0.930 . S
H673 C670 0.929 . S
S674 N675 1.613 . S
S674 N676 1.610 1_655 S
N675 S674 1.613 . S
N675 C678 1.350 . S
N676 S674 1.610 1_455 S
N676 C677 1.351 . S
C677 C671 1.428 . S
C677 N676 1.351 . S
C677 C678 1.434 1_455 S
C678 C669 1.429 . S
C678 N675 1.350 . S
C678 C677 1.434 1_655 S
C679 C680 1.369 . S
C679 C681 1.419 1_545 S
C679 H683 0.930 . S
C680 C679 1.369 . S
C680 C689 1.429 . S
C681 C679 1.419 1_565 S
C681 C682 1.363 . S
C681 H684 0.929 . S
C682 C681 1.363 . S
C682 C688 1.428 . S
H683 C679 0.930 . S
H684 C681 0.929 . S
S685 N686 1.613 1_565 S
S685 N687 1.610 . S
N686 S685 1.613 1_545 S
N686 C689 1.350 . S
N687 S685 1.610 . S
N687 C688 1.351 . S
C688 C682 1.428 . S
C688 N687 1.351 . S
C688 C689 1.434 1_565 S
C689 C680 1.429 . S
C689 N686 1.350 . S
C689 C688 1.434 1_545 S
C690 C691 1.369 . S
C690 C692 1.419 . S
C690 H694 0.930 . S
C691 C690 1.369 . S
C691 C700 1.429 1_455 S
C692 C690 1.419 . S
C692 C693 1.363 1_455 S
C692 H695 0.929 . S
C693 C692 1.363 1_655 S
C693 C699 1.428 . S
H694 C690 0.930 . S
H695 C692 0.929 . S
S696 N697 1.613 . S
S696 N698 1.610 . S
N697 S696 1.613 . S
N697 C700 1.350 . S
N698 S696 1.610 . S
N698 C699 1.351 . S
C699 C693 1.428 . S
C699 N698 1.351 . S
C699 C700 1.434 . S
C700 C691 1.429 1_655 S
C700 N697 1.350 . S
C700 C699 1.434 . S
C701 C702 1.369 . S
C701 C703 1.419 1_545 S
C701 H705 0.930 . S
C702 C701 1.369 . S
C702 C711 1.429 . S
C703 C701 1.419 1_565 S
C703 C704 1.363 . S
C703 H706 0.929 . S
C704 C703 1.363 . S
C704 C710 1.428 . S
H705 C701 0.930 . S
H706 C703 0.929 . S
S707 N708 1.603 1_565 S
S707 N709 1.620 . S
N708 S707 1.603 1_545 S
N708 C711 1.350 . S
N709 S707 1.620 . S
N709 C710 1.351 . S
C710 C704 1.428 . S
C710 N709 1.351 . S
C710 C711 1.434 1_565 S
C711 C702 1.429 . S
C711 N708 1.350 . S
C711 C710 1.434 1_545 S
C712 C713 1.369 . S
C712 C714 1.419 1_554 S
C712 H716 0.930 . S
C713 C712 1.369 . S
C713 C722 1.429 . S
C714 C712 1.419 1_556 S
C714 C715 1.363 . S
C714 H717 0.929 . S
C715 C714 1.363 . S
C715 C721 1.428 . S
H716 C712 0.930 . S
H717 C714 0.929 . S
S718 N719 1.613 1_556 S
S718 N720 1.610 . S
N719 S718 1.613 1_554 S
N719 C722 1.350 . S
N720 S718 1.610 . S
N720 C721 1.351 . S
C721 C715 1.428 . S
C721 N720 1.351 . S
C721 C722 1.434 1_556 S
C722 C713 1.429 . S
C722 N719 1.350 . S
C722 C721 1.434 1_554 S
C723 C724 1.369 1_554 S
C723 C725 1.419 . S
C723 H727 0.930 . S
C724 C723 1.369 1_556 S
C724 C733 1.429 . S
C725 C723 1.419 . S
C725 C726 1.363 . S
C725 H728 0.929 . S
C726 C725 1.363 . S
C726 C732 1.428 1_554 S
H727 C723 0.930 . S
H728 C725 0.929 . S
S729 N730 1.613 . S
S729 N731 1.610 . S
N730 S729 1.613 . S
N730 C733 1.350 . S
N731 S729 1.610 . S
N731 C732 1.351 . S
C732 C726 1.428 1_556 S
C732 N731 1.351 . S
C732 C733 1.434 . S
C733 C724 1.429 . S
C733 N730 1.350 . S
C733 C732 1.434 . S
C734 C735 1.369 . S
C734 C736 1.419 . S
C734 H738 0.930 . S
C735 C734 1.369 . S
C735 C744 1.429 1_556 S
C736 C734 1.419 . S
C736 C737 1.363 1_556 S
C736 H739 0.929 . S
C737 C736 1.363 1_554 S
C737 C743 1.428 . S
H738 C734 0.930 . S
H739 C736 0.929 . S
S740 N741 1.613 . S
S740 N742 1.610 . S
N741 S740 1.613 . S
N741 C744 1.350 . S
N742 S740 1.610 . S
N742 C743 1.351 . S
C743 C737 1.428 . S
C743 N742 1.351 . S
C743 C744 1.434 . S
C744 C735 1.429 1_554 S
C744 N741 1.350 . S
C744 C743 1.434 . S
C745 C746 1.369 1_554 S
C745 C747 1.419 . S
C745 H749 0.930 . S
C746 C745 1.369 1_556 S
C746 C755 1.429 . S
C747 C745 1.419 . S
C747 C748 1.363 . S
C747 H750 0.929 . S
C748 C747 1.363 . S
C748 C754 1.428 1_554 S
H749 C745 0.930 . S
H750 C747 0.929 . S
S751 N752 1.613 . S
S751 N753 1.610 . S
N752 S751 1.613 . S
N752 C755 1.350 . S
N753 S751 1.610 . S
N753 C754 1.351 . S
C754 C748 1.428 1_556 S
C754 N753 1.351 . S
C754 C755 1.434 . S
C755 C746 1.429 . S
C755 N752 1.350 . S
C755 C754 1.434 . S
C756 C757 1.369 . S
C756 C758 1.419 . S
C756 H760 0.930 . S
C757 C756 1.369 . S
C757 C766 1.429 . S
C758 C756 1.419 . S
C758 C759 1.363 . S
C758 H761 0.929 . S
C759 C758 1.363 . S
C759 C765 1.428 . S
H760 C756 0.930 . S
H761 C758 0.929 . S
S762 N763 1.613 . S
S762 N764 1.610 . S
N763 S762 1.613 . S
N763 C766 1.350 . S
N764 S762 1.610 . S
N764 C765 1.351 . S
C765 C759 1.428 . S
C765 N764 1.351 . S
C765 C766 1.434 . S
C766 C757 1.429 . S
C766 N763 1.350 . S
C766 C765 1.434 . S
C767 C768 1.369 . S
C767 C769 1.419 . S
C767 H771 0.930 . S
C768 C767 1.369 . S
C768 C777 1.429 . S
C769 C767 1.419 . S
C769 C770 1.363 . S
C769 H772 0.929 . S
C770 C769 1.363 . S
C770 C776 1.428 . S
H771 C767 0.930 . S
H772 C769 0.929 . S
S773 N774 1.613 . S
S773 N775 1.610 . S
N774 S773 1.613 . S
N774 C777 1.350 . S
N775 S773 1.610 . S
N775 C776 1.351 . S
C776 C770 1.428 . S
C776 N775 1.351 . S
C776 C777 1.434 . S
C777 C768 1.429 . S
C777 N774 1.350 . S
C777 C776 1.434 . S
C778 C779 1.369 . S
C778 C780 1.419 . S
C778 H782 0.930 . S
C779 C778 1.369 . S
C779 C788 1.429 . S
C780 C778 1.419 . S
C780 C781 1.363 . S
C780 H783 0.929 . S
C781 C780 1.363 . S
C781 C787 1.428 . S
H782 C778 0.930 . S
H783 C780 0.929 . S
S784 N785 1.613 . S
S784 N786 1.610 . S
N785 S784 1.613 . S
N785 C788 1.350 . S
N786 S784 1.610 . S
N786 C787 1.351 . S
C787 C781 1.428 . S
C787 N786 1.351 . S
C787 C788 1.434 . S
C788 C779 1.429 . S
C788 N785 1.350 . S
C788 C787 1.434 . S
C789 C790 1.369 . S
C789 C791 1.419 . S
C789 H793 0.930 . S
C790 C789 1.369 . S
C790 C799 1.429 . S
C791 C789 1.419 . S
C791 C792 1.363 . S
C791 H794 0.929 . S
C792 C791 1.363 . S
C792 C798 1.428 . S
H793 C789 0.930 . S
H794 C791 0.929 . S
S795 N796 1.613 . S
S795 N797 1.610 . S
N796 S795 1.613 . S
N796 C799 1.350 . S
N797 S795 1.610 . S
N797 C798 1.351 . S
C798 C792 1.428 . S
C798 N797 1.351 . S
C798 C799 1.434 . S
C799 C790 1.429 . S
C799 N796 1.350 . S
C799 C798 1.434 . S
C800 C801 1.369 . S
C800 C802 1.419 . S
C800 H804 0.930 . S
C801 C800 1.369 . S
C801 C810 1.429 . S
C802 C800 1.419 . S
C802 C803 1.363 . S
C802 H805 0.929 . S
C803 C802 1.363 . S
C803 C809 1.428 . S
H804 C800 0.930 . S
H805 C802 0.929 . S
S806 N807 1.613 . S
S806 N808 1.610 . S
N807 S806 1.613 . S
N807 C810 1.350 . S
N808 S806 1.610 . S
N808 C809 1.351 . S
C809 C803 1.428 . S
C809 N808 1.351 . S
C809 C810 1.434 . S
C810 C801 1.429 . S
C810 N807 1.350 . S
C810 C809 1.434 . S
C811 C812 1.369 . S
C811 C813 1.419 . S
C811 H815 0.930 . S
C812 C811 1.369 . S
C812 C821 1.429 . S
C813 C811 1.419 . S
C813 C814 1.363 . S
C813 H816 0.929 . S
C814 C813 1.363 . S
C814 C820 1.428 . S
H815 C811 0.930 . S
H816 C813 0.929 . S
S817 N818 1.613 . S
S817 N819 1.610 . S
N818 S817 1.613 . S
N818 C821 1.350 . S
N819 S817 1.610 . S
N819 C820 1.351 . S
C820 C814 1.428 . S
C820 N819 1.351 . S
C820 C821 1.434 . S
C821 C812 1.429 . S
C821 N818 1.350 . S
C821 C820 1.434 . S
C822 C823 1.369 . S
C822 C824 1.419 . S
C822 H826 0.930 . S
C823 C822 1.369 . S
C823 C832 1.429 . S
C824 C822 1.419 . S
C824 C825 1.363 . S
C824 H827 0.929 . S
C825 C824 1.363 . S
C825 C831 1.428 . S
H826 C822 0.930 . S
H827 C824 0.929 . S
S828 N829 1.613 . S
S828 N830 1.610 . S
N829 S828 1.613 . S
N829 C832 1.350 . S
N830 S828 1.610 . S
N830 C831 1.351 . S
C831 C825 1.428 . S
C831 N830 1.351 . S
C831 C832 1.434 . S
C832 C823 1.429 . S
C832 N829 1.350 . S
C832 C831 1.434 . S
C833 C834 1.369 . S
C833 C835 1.419 . S
C833 H837 0.930 . S
C834 C833 1.369 . S
C834 C843 1.429 . S
C835 C833 1.419 . S
C835 C836 1.363 . S
C835 H838 0.929 . S
C836 C835 1.363 . S
C836 C842 1.428 . S
H837 C833 0.930 . S
H838 C835 0.929 . S
S839 N840 1.613 . S
S839 N841 1.610 . S
N840 S839 1.613 . S
N840 C843 1.350 . S
N841 S839 1.610 . S
N841 C842 1.351 . S
C842 C836 1.428 . S
C842 N841 1.351 . S
C842 C843 1.434 . S
C843 C834 1.429 . S
C843 N840 1.350 . S
C843 C842 1.434 . S
C844 C845 1.369 . S
C844 C846 1.419 . S
C844 H848 0.930 . S
C845 C844 1.369 . S
C845 C854 1.429 . S
C846 C844 1.419 . S
C846 C847 1.363 . S
C846 H849 0.929 . S
C847 C846 1.363 . S
C847 C853 1.428 . S
H848 C844 0.930 . S
H849 C846 0.929 . S
S850 N851 1.613 . S
S850 N852 1.610 . S
N851 S850 1.613 . S
N851 C854 1.350 . S
N852 S850 1.610 . S
N852 C853 1.351 . S
C853 C847 1.428 . S
C853 N852 1.351 . S
C853 C854 1.434 . S
C854 C845 1.429 . S
C854 N851 1.350 . S
C854 C853 1.434 . S
C855 C856 1.369 . S
C855 C857 1.419 . S
C855 H859 0.930 . S
C856 C855 1.369 . S
C856 C865 1.429 . S
C857 C855 1.419 . S
C857 C858 1.363 . S
C857 H860 0.929 . S
C858 C857 1.363 . S
C858 C864 1.428 . S
H859 C855 0.930 . S
H860 C857 0.929 . S
S861 N862 1.613 . S
S861 N863 1.610 . S
N862 S861 1.613 . S
N862 C865 1.350 . S
N863 S861 1.610 . S
N863 C864 1.351 . S
C864 C858 1.428 . S
C864 N863 1.351 . S
C864 C865 1.434 . S
C865 C856 1.429 . S
C865 N862 1.350 . S
C865 C864 1.434 . S
C866 C867 1.369 . S
C866 C868 1.419 . S
C866 H870 0.930 . S
C867 C866 1.369 . S
C867 C876 1.429 . S
C868 C866 1.419 . S
C868 C869 1.363 . S
C868 H871 0.929 . S
C869 C868 1.363 . S
C869 C875 1.428 . S
H870 C866 0.930 . S
H871 C868 0.929 . S
S872 N873 1.613 . S
S872 N874 1.610 . S
N873 S872 1.613 . S
N873 C876 1.350 . S
N874 S872 1.610 . S
N874 C875 1.351 . S
C875 C869 1.428 . S
C875 N874 1.351 . S
C875 C876 1.434 . S
C876 C867 1.429 . S
C876 N873 1.350 . S
C876 C875 1.434 . S
C877 C878 1.369 . S
C877 C879 1.419 . S
C877 H881 0.930 . S
C878 C877 1.369 . S
C878 C887 1.429 . S
C879 C877 1.419 . S
C879 C880 1.363 . S
C879 H882 0.929 . S
C880 C879 1.363 . S
C880 C886 1.428 . S
H881 C877 0.930 . S
H882 C879 0.929 . S
S883 N884 1.613 . S
S883 N885 1.610 . S
N884 S883 1.613 . S
N884 C887 1.350 . S
N885 S883 1.610 . S
N885 C886 1.351 . S
C886 C880 1.428 . S
C886 N885 1.351 . S
C886 C887 1.434 . S
C887 C878 1.429 . S
C887 N884 1.350 . S
C887 C886 1.434 . S
C888 C889 1.369 . S
C888 C890 1.419 . S
C888 H892 0.930 . S
C889 C888 1.369 . S
C889 C898 1.429 . S
C890 C888 1.419 . S
C890 C891 1.363 . S
C890 H893 0.929 . S
C891 C890 1.363 . S
C891 C897 1.428 . S
H892 C888 0.930 . S
H893 C890 0.929 . S
S894 N895 1.613 . S
S894 N896 1.610 . S
N895 S894 1.613 . S
N895 C898 1.350 . S
N896 S894 1.610 . S
N896 C897 1.351 . S
C897 C891 1.428 . S
C897 N896 1.351 . S
C897 C898 1.434 . S
C898 C889 1.429 . S
C898 N895 1.350 . S
C898 C897 1.434 . S
C899 C900 1.369 . S
C899 C901 1.419 . S
C899 H903 0.930 . S
C900 C899 1.369 . S
C900 C909 1.429 . S
C901 C899 1.419 . S
C901 C902 1.363 . S
C901 H904 0.929 . S
C902 C901 1.363 . S
C902 C908 1.428 . S
H903 C899 0.930 . S
H904 C901 0.929 . S
S905 N906 1.613 . S
S905 N907 1.610 . S
N906 S905 1.613 . S
N906 C909 1.350 . S
N907 S905 1.610 . S
N907 C908 1.351 . S
C908 C902 1.428 . S
C908 N907 1.351 . S
C908 C909 1.434 . S
C909 C900 1.429 . S
C909 N906 1.350 . S
C909 C908 1.434 . S
C910 C911 1.369 . S
C910 C912 1.419 . S
C910 H914 0.930 . S
C911 C910 1.369 . S
C911 C920 1.429 . S
C912 C910 1.419 . S
C912 C913 1.363 . S
C912 H915 0.929 . S
C913 C912 1.363 . S
C913 C919 1.428 . S
H914 C910 0.930 . S
H915 C912 0.929 . S
S916 N917 1.613 . S
S916 N918 1.610 . S
N917 S916 1.613 . S
N917 C920 1.350 . S
N918 S916 1.610 . S
N918 C919 1.351 . S
C919 C913 1.428 . S
C919 N918 1.351 . S
C919 C920 1.434 . S
C920 C911 1.429 . S
C920 N917 1.350 . S
C920 C919 1.434 . S
C921 C922 1.369 . S
C921 C923 1.419 . S
C921 H925 0.930 . S
C922 C921 1.369 . S
C922 C931 1.429 . S
C923 C921 1.419 . S
C923 C924 1.363 . S
C923 H926 0.929 . S
C924 C923 1.363 . S
C924 C930 1.428 . S
H925 C921 0.930 . S
H926 C923 0.929 . S
S927 N928 1.613 . S
S927 N929 1.610 . S
N928 S927 1.613 . S
N928 C931 1.350 . S
N929 S927 1.610 . S
N929 C930 1.351 . S
C930 C924 1.428 . S
C930 N929 1.351 . S
C930 C931 1.434 . S
C931 C922 1.429 . S
C931 N928 1.350 . S
C931 C930 1.434 . S
C932 C933 1.369 . S
C932 C934 1.419 . S
C932 H936 0.930 . S
C933 C932 1.369 . S
C933 C942 1.429 . S
C934 C932 1.419 . S
C934 C935 1.363 . S
C934 H937 0.929 . S
C935 C934 1.363 . S
C935 C941 1.428 . S
H936 C932 0.930 . S
H937 C934 0.929 . S
S938 N939 1.613 . S
S938 N940 1.610 . S
N939 S938 1.613 . S
N939 C942 1.350 . S
N940 S938 1.610 . S
N940 C941 1.351 . S
C941 C935 1.428 . S
C941 N940 1.351 . S
C941 C942 1.434 . S
C942 C933 1.429 . S
C942 N939 1.350 . S
C942 C941 1.434 . S
C943 C944 1.369 . S
C943 C945 1.419 . S
C943 H947 0.930 . S
C944 C943 1.369 . S
C944 C953 1.429 . S
C945 C943 1.419 . S
C945 C946 1.363 . S
C945 H948 0.929 . S
C946 C945 1.363 . S
C946 C952 1.428 . S
H947 C943 0.930 . S
H948 C945 0.929 . S
S949 N950 1.613 . S
S949 N951 1.610 . S
N950 S949 1.613 . S
N950 C953 1.350 . S
N951 S949 1.610 . S
N951 C952 1.351 . S
C952 C946 1.428 . S
C952 N951 1.351 . S
C952 C953 1.434 . S
C953 C944 1.429 . S
C953 N950 1.350 . S
C953 C952 1.434 . S
C954 C955 1.369 . S
C954 C956 1.419 . S
C954 H958 0.930 . S
C955 C954 1.369 . S
C955 C964 1.429 . S
C956 C954 1.419 . S
C956 C957 1.363 . S
C956 H959 0.929 . S
C957 C956 1.363 . S
C957 C963 1.428 . S
H958 C954 0.930 . S
H959 C956 0.929 . S
S960 N961 1.613 . S
S960 N962 1.610 . S
N961 S960 1.613 . S
N961 C964 1.350 . S
N962 S960 1.610 . S
N962 C963 1.351 . S
C963 C957 1.428 . S
C963 N962 1.351 . S
C963 C964 1.434 . S
C964 C955 1.429 . S
C964 N961 1.350 . S
C964 C963 1.434 . S
C965 C966 1.369 . S
C965 C967 1.419 . S
C965 H969 0.930 . S
C966 C965 1.369 . S
C966 C975 1.429 . S
C967 C965 1.419 . S
C967 C968 1.363 . S
C967 H970 0.929 . S
C968 C967 1.363 . S
C968 C974 1.428 . S
H969 C965 0.930 . S
H970 C967 0.929 . S
S971 N972 1.613 . S
S971 N973 1.610 . S
N972 S971 1.613 . S
N972 C975 1.350 . S
N973 S971 1.610 . S
N973 C974 1.351 . S
C974 C968 1.428 . S
C974 N973 1.351 . S
C974 C975 1.434 . S
C975 C966 1.429 . S
C975 N972 1.350 . S
C975 C974 1.434 . S
C976 C977 1.369 . S
C976 C978 1.419 . S
C976 H980 0.930 . S
C977 C976 1.369 . S
C977 C986 1.429 . S
C978 C976 1.419 . S
C978 C979 1.363 . S
C978 H981 0.929 . S
C979 C978 1.363 . S
C979 C985 1.428 . S
H980 C976 0.930 . S
H981 C978 0.929 . S
S982 N983 1.613 . S
S982 N984 1.610 . S
N983 S982 1.613 . S
N983 C986 1.350 . S
N984 S982 1.610 . S
N984 C985 1.351 . S
C985 C979 1.428 . S
C985 N984 1.351 . S
C985 C986 1.434 . S
C986 C977 1.429 . S
C986 N983 1.350 . S
C986 C985 1.434 . S
C987 C988 1.369 . S
C987 C989 1.419 . S
C987 H991 0.930 . S
C988 C987 1.369 . S
C988 C997 1.429 . S
C989 C987 1.419 . S
C989 C990 1.363 . S
C989 H992 0.929 . S
C990 C989 1.363 . S
C990 C996 1.428 . S
H991 C987 0.930 . S
H992 C989 0.929 . S
S993 N994 1.613 . S
S993 N995 1.610 . S
N994 S993 1.613 . S
N994 C997 1.350 . S
N995 S993 1.610 . S
N995 C996 1.351 . S
C996 C990 1.428 . S
C996 N995 1.351 . S
C996 C997 1.434 . S
C997 C988 1.429 . S
C997 N994 1.350 . S
C997 C996 1.434 . S
C998 C999 1.369 . S
C998 C1000 1.419 . S
C998 H1002 0.930 . S
C999 C998 1.369 . S
C999 C1008 1.429 . S
C1000 C998 1.419 . S
C1000 C1001 1.363 . S
C1000 H1003 0.929 . S
C1001 C1000 1.363 . S
C1001 C1007 1.428 . S
H1002 C998 0.930 . S
H1003 C1000 0.929 . S
S1004 N1005 1.613 . S
S1004 N1006 1.610 . S
N1005 S1004 1.613 . S
N1005 C1008 1.350 . S
N1006 S1004 1.610 . S
N1006 C1007 1.351 . S
C1007 C1001 1.428 . S
C1007 N1006 1.351 . S
C1007 C1008 1.434 . S
C1008 C999 1.429 . S
C1008 N1005 1.350 . S
C1008 C1007 1.434 . S
C1009 C1010 1.369 . S
C1009 C1011 1.419 . S
C1009 H1013 0.930 . S
C1010 C1009 1.369 . S
C1010 C1019 1.429 . S
C1011 C1009 1.419 . S
C1011 C1012 1.363 . S
C1011 H1014 0.929 . S
C1012 C1011 1.363 . S
C1012 C1018 1.428 . S
H1013 C1009 0.930 . S
H1014 C1011 0.929 . S
S1015 N1016 1.613 . S
S1015 N1017 1.610 . S
N1016 S1015 1.613 . S
N1016 C1019 1.350 . S
N1017 S1015 1.610 . S
N1017 C1018 1.351 . S
C1018 C1012 1.428 . S
C1018 N1017 1.351 . S
C1018 C1019 1.434 . S
C1019 C1010 1.429 . S
C1019 N1016 1.350 . S
C1019 C1018 1.434 . S
C1020 C1021 1.369 . S
C1020 C1022 1.419 . S
C1020 H1024 0.930 . S
C1021 C1020 1.369 . S
C1021 C1030 1.429 . S
C1022 C1020 1.419 . S
C1022 C1023 1.363 . S
C1022 H1025 0.929 . S
C1023 C1022 1.363 . S
C1023 C1029 1.428 . S
H1024 C1020 0.930 . S
H1025 C1022 0.929 . S
S1026 N1027 1.613 . S
S1026 N1028 1.610 . S
N1027 S1026 1.613 . S
N1027 C1030 1.350 . S
N1028 S1026 1.610 . S
N1028 C1029 1.351 . S
C1029 C1023 1.428 . S
C1029 N1028 1.351 . S
C1029 C1030 1.434 . S
C1030 C1021 1.429 . S
C1030 N1027 1.350 . S
C1030 C1029 1.434 . S
C1031 C1032 1.369 . S
C1031 C1033 1.419 . S
C1031 H1035 0.930 . S
C1032 C1031 1.369 . S
C1032 C1041 1.429 . S
C1033 C1031 1.419 . S
C1033 C1034 1.363 . S
C1033 H1036 0.929 . S
C1034 C1033 1.363 . S
C1034 C1040 1.428 . S
H1035 C1031 0.930 . S
H1036 C1033 0.929 . S
S1037 N1038 1.613 . S
S1037 N1039 1.610 . S
N1038 S1037 1.613 . S
N1038 C1041 1.350 . S
N1039 S1037 1.610 . S
N1039 C1040 1.351 . S
C1040 C1034 1.428 . S
C1040 N1039 1.351 . S
C1040 C1041 1.434 . S
C1041 C1032 1.429 . S
C1041 N1038 1.350 . S
C1041 C1040 1.434 . S
C1042 C1043 1.369 . S
C1042 C1044 1.419 . S
C1042 H1046 0.930 . S
C1043 C1042 1.369 . S
C1043 C1052 1.429 . S
C1044 C1042 1.419 . S
C1044 C1045 1.363 . S
C1044 H1047 0.929 . S
C1045 C1044 1.363 . S
C1045 C1051 1.428 . S
H1046 C1042 0.930 . S
H1047 C1044 0.929 . S
S1048 N1049 1.613 . S
S1048 N1050 1.610 . S
N1049 S1048 1.613 . S
N1049 C1052 1.350 . S
N1050 S1048 1.610 . S
N1050 C1051 1.351 . S
C1051 C1045 1.428 . S
C1051 N1050 1.351 . S
C1051 C1052 1.434 . S
C1052 C1043 1.429 . S
C1052 N1049 1.350 . S
C1052 C1051 1.434 . S
C1053 C1054 1.369 . S
C1053 C1055 1.419 . S
C1053 H1057 0.930 . S
C1054 C1053 1.369 . S
C1054 C1063 1.429 . S
C1055 C1053 1.419 . S
C1055 C1056 1.363 . S
C1055 H1058 0.929 . S
C1056 C1055 1.363 . S
C1056 C1062 1.428 . S
H1057 C1053 0.930 . S
H1058 C1055 0.929 . S
S1059 N1060 1.613 . S
S1059 N1061 1.610 . S
N1060 S1059 1.613 . S
N1060 C1063 1.350 . S
N1061 S1059 1.610 . S
N1061 C1062 1.351 . S
C1062 C1056 1.428 . S
C1062 N1061 1.351 . S
C1062 C1063 1.434 . S
C1063 C1054 1.429 . S
C1063 N1060 1.350 . S
C1063 C1062 1.434 . S
C1064 C1065 1.369 . S
C1064 C1066 1.419 . S
C1064 H1068 0.930 . S
C1065 C1064 1.369 . S
C1065 C1074 1.429 . S
C1066 C1064 1.419 . S
C1066 C1067 1.363 . S
C1066 H1069 0.929 . S
C1067 C1066 1.363 . S
C1067 C1073 1.428 . S
H1068 C1064 0.930 . S
H1069 C1066 0.929 . S
S1070 N1071 1.613 . S
S1070 N1072 1.610 . S
N1071 S1070 1.613 . S
N1071 C1074 1.350 . S
N1072 S1070 1.610 . S
N1072 C1073 1.351 . S
C1073 C1067 1.428 . S
C1073 N1072 1.351 . S
C1073 C1074 1.434 . S
C1074 C1065 1.429 . S
C1074 N1071 1.350 . S
C1074 C1073 1.434 . S
C1075 C1076 1.369 . S
C1075 C1077 1.419 . S
C1075 H1079 0.930 . S
C1076 C1075 1.369 . S
C1076 C1085 1.429 . S
C1077 C1075 1.419 . S
C1077 C1078 1.363 . S
C1077 H1080 0.929 . S
C1078 C1077 1.363 . S
C1078 C1084 1.428 . S
H1079 C1075 0.930 . S
H1080 C1077 0.929 . S
S1081 N1082 1.613 . S
S1081 N1083 1.610 . S
N1082 S1081 1.613 . S
N1082 C1085 1.350 . S
N1083 S1081 1.610 . S
N1083 C1084 1.351 . S
C1084 C1078 1.428 . S
C1084 N1083 1.351 . S
C1084 C1085 1.434 . S
C1085 C1076 1.429 . S
C1085 N1082 1.350 . S
C1085 C1084 1.434 . S
C1086 C1087 1.369 . S
C1086 C1088 1.419 . S
C1086 H1090 0.930 . S
C1087 C1086 1.369 . S
C1087 C1096 1.429 . S
C1088 C1086 1.419 . S
C1088 C1089 1.363 . S
C1088 H1091 0.929 . S
C1089 C1088 1.363 . S
C1089 C1095 1.428 . S
H1090 C1086 0.930 . S
H1091 C1088 0.929 . S
S1092 N1093 1.613 . S
S1092 N1094 1.610 . S
N1093 S1092 1.613 . S
N1093 C1096 1.350 . S
N1094 S1092 1.610 . S
N1094 C1095 1.351 . S
C1095 C1089 1.428 . S
C1095 N1094 1.351 . S
C1095 C1096 1.434 . S
C1096 C1087 1.429 . S
C1096 N1093 1.350 . S
C1096 C1095 1.434 . S
C1097 C1098 1.369 . S
C1097 C1099 1.419 . S
C1097 H1101 0.930 . S
C1098 C1097 1.369 . S
C1098 C1107 1.429 . S
C1099 C1097 1.419 . S
C1099 C1100 1.363 . S
C1099 H1102 0.929 . S
C1100 C1099 1.363 . S
C1100 C1106 1.428 . S
H1101 C1097 0.930 . S
H1102 C1099 0.929 . S
S1103 N1104 1.613 . S
S1103 N1105 1.610 . S
N1104 S1103 1.613 . S
N1104 C1107 1.350 . S
N1105 S1103 1.610 . S
N1105 C1106 1.351 . S
C1106 C1100 1.428 . S
C1106 N1105 1.351 . S
C1106 C1107 1.434 . S
C1107 C1098 1.429 . S
C1107 N1104 1.350 . S
C1107 C1106 1.434 . S
C1108 C1109 1.369 . S
C1108 C1110 1.419 . S
C1108 H1112 0.930 . S
C1109 C1108 1.369 . S
C1109 C1118 1.429 . S
C1110 C1108 1.419 . S
C1110 C1111 1.363 . S
C1110 H1113 0.929 . S
C1111 C1110 1.363 . S
C1111 C1117 1.428 . S
H1112 C1108 0.930 . S
H1113 C1110 0.929 . S
S1114 N1115 1.613 . S
S1114 N1116 1.610 . S
N1115 S1114 1.613 . S
N1115 C1118 1.350 . S
N1116 S1114 1.610 . S
N1116 C1117 1.351 . S
C1117 C1111 1.428 . S
C1117 N1116 1.351 . S
C1117 C1118 1.434 . S
C1118 C1109 1.429 . S
C1118 N1115 1.350 . S
C1118 C1117 1.434 . S
C1119 C1120 1.369 . S
C1119 C1121 1.419 . S
C1119 H1123 0.930 . S
C1120 C1119 1.369 . S
C1120 C1129 1.429 . S
C1121 C1119 1.419 . S
C1121 C1122 1.363 . S
C1121 H1124 0.929 . S
C1122 C1121 1.363 . S
C1122 C1128 1.428 . S
H1123 C1119 0.930 . S
H1124 C1121 0.929 . S
S1125 N1126 1.613 . S
S1125 N1127 1.610 . S
N1126 S1125 1.613 . S
N1126 C1129 1.350 . S
N1127 S1125 1.610 . S
N1127 C1128 1.351 . S
C1128 C1122 1.428 . S
C1128 N1127 1.351 . S
C1128 C1129 1.434 . S
C1129 C1120 1.429 . S
C1129 N1126 1.350 . S
C1129 C1128 1.434 . S
C1130 C1131 1.369 . S
C1130 C1132 1.419 . S
C1130 H1134 0.930 . S
C1131 C1130 1.369 . S
C1131 C1140 1.429 . S
C1132 C1130 1.419 . S
C1132 C1133 1.363 . S
C1132 H1135 0.929 . S
C1133 C1132 1.363 . S
C1133 C1139 1.428 . S
H1134 C1130 0.930 . S
H1135 C1132 0.929 . S
S1136 N1137 1.613 . S
S1136 N1138 1.610 . S
N1137 S1136 1.613 . S
N1137 C1140 1.350 . S
N1138 S1136 1.610 . S
N1138 C1139 1.351 . S
C1139 C1133 1.428 . S
C1139 N1138 1.351 . S
C1139 C1140 1.434 . S
C1140 C1131 1.429 . S
C1140 N1137 1.350 . S
C1140 C1139 1.434 . S
C1141 C1142 1.369 . S
C1141 C1143 1.419 . S
C1141 H1145 0.930 . S
C1142 C1141 1.369 . S
C1142 C1151 1.429 . S
C1143 C1141 1.419 . S
C1143 C1144 1.363 . S
C1143 H1146 0.929 . S
C1144 C1143 1.363 . S
C1144 C1150 1.428 . S
H1145 C1141 0.930 . S
H1146 C1143 0.929 . S
S1147 N1148 1.613 . S
S1147 N1149 1.610 . S
N1148 S1147 1.613 . S
N1148 C1151 1.350 . S
N1149 S1147 1.610 . S
N1149 C1150 1.351 . S
C1150 C1144 1.428 . S
C1150 N1149 1.351 . S
C1150 C1151 1.434 . S
C1151 C1142 1.429 . S
C1151 N1148 1.350 . S
C1151 C1150 1.434 . S
C1152 C1153 1.369 . S
C1152 C1154 1.419 . S
C1152 H1156 0.930 . S
C1153 C1152 1.369 . S
C1153 C1162 1.429 . S
C1154 C1152 1.419 . S
C1154 C1155 1.363 . S
C1154 H1157 0.929 . S
C1155 C1154 1.363 . S
C1155 C1161 1.428 . S
H1156 C1152 0.930 . S
H1157 C1154 0.929 . S
S1158 N1159 1.613 . S
S1158 N1160 1.610 . S
N1159 S1158 1.613 . S
N1159 C1162 1.350 . S
N1160 S1158 1.610 . S
N1160 C1161 1.351 . S
C1161 C1155 1.428 . S
C1161 N1160 1.351 . S
C1161 C1162 1.434 . S
C1162 C1153 1.429 . S
C1162 N1159 1.350 . S
C1162 C1161 1.434 . S
C1163 C1164 1.369 . S
C1163 C1165 1.419 . S
C1163 H1167 0.930 . S
C1164 C1163 1.369 . S
C1164 C1173 1.429 . S
C1165 C1163 1.419 . S
C1165 C1166 1.363 . S
C1165 H1168 0.929 . S
C1166 C1165 1.363 . S
C1166 C1172 1.428 . S
H1167 C1163 0.930 . S
H1168 C1165 0.929 . S
S1169 N1170 1.613 . S
S1169 N1171 1.610 . S
N1170 S1169 1.613 . S
N1170 C1173 1.350 . S
N1171 S1169 1.610 . S
N1171 C1172 1.351 . S
C1172 C1166 1.428 . S
C1172 N1171 1.351 . S
C1172 C1173 1.434 . S
C1173 C1164 1.429 . S
C1173 N1170 1.350 . S
C1173 C1172 1.434 . S
C1174 C1175 1.369 . S
C1174 C1176 1.419 . S
C1174 H1178 0.930 . S
C1175 C1174 1.369 . S
C1175 C1184 1.429 . S
C1176 C1174 1.419 . S
C1176 C1177 1.363 . S
C1176 H1179 0.929 . S
C1177 C1176 1.363 . S
C1177 C1183 1.428 . S
H1178 C1174 0.930 . S
H1179 C1176 0.929 . S
S1180 N1181 1.613 . S
S1180 N1182 1.610 . S
N1181 S1180 1.613 . S
N1181 C1184 1.350 . S
N1182 S1180 1.610 . S
N1182 C1183 1.351 . S
C1183 C1177 1.428 . S
C1183 N1182 1.351 . S
C1183 C1184 1.434 . S
C1184 C1175 1.429 . S
C1184 N1181 1.350 . S
C1184 C1183 1.434 . S
C1185 C1186 1.369 . S
C1185 C1187 1.419 . S
C1185 H1189 0.930 . S
C1186 C1185 1.369 . S
C1186 C1195 1.429 . S
C1187 C1185 1.419 . S
C1187 C1188 1.363 . S
C1187 H1190 0.929 . S
C1188 C1187 1.363 . S
C1188 C1194 1.428 . S
H1189 C1185 0.930 . S
H1190 C1187 0.929 . S
S1191 N1192 1.613 . S
S1191 N1193 1.610 . S
N1192 S1191 1.613 . S
N1192 C1195 1.350 . S
N1193 S1191 1.610 . S
N1193 C1194 1.351 . S
C1194 C1188 1.428 . S
C1194 N1193 1.351 . S
C1194 C1195 1.434 . S
C1195 C1186 1.429 . S
C1195 N1192 1.350 . S
C1195 C1194 1.434 . S
C1196 C1197 1.369 . S
C1196 C1198 1.419 . S
C1196 H1200 0.930 . S
C1197 C1196 1.369 . S
C1197 C1206 1.429 . S
C1198 C1196 1.419 . S
C1198 C1199 1.363 . S
C1198 H1201 0.929 . S
C1199 C1198 1.363 . S
C1199 C1205 1.428 . S
H1200 C1196 0.930 . S
H1201 C1198 0.929 . S
S1202 N1203 1.613 . S
S1202 N1204 1.610 . S
N1203 S1202 1.613 . S
N1203 C1206 1.350 . S
N1204 S1202 1.610 . S
N1204 C1205 1.351 . S
C1205 C1199 1.428 . S
C1205 N1204 1.351 . S
C1205 C1206 1.434 . S
C1206 C1197 1.429 . S
C1206 N1203 1.350 . S
C1206 C1205 1.434 . S
C1207 C1208 1.369 . S
C1207 C1209 1.419 . S
C1207 H1211 0.930 . S
C1208 C1207 1.369 . S
C1208 C1217 1.429 . S
C1209 C1207 1.419 . S
C1209 C1210 1.363 . S
C1209 H1212 0.929 . S
C1210 C1209 1.363 . S
C1210 C1216 1.428 . S
H1211 C1207 0.930 . S
H1212 C1209 0.929 . S
S1213 N1214 1.613 . S
S1213 N1215 1.610 . S
N1214 S1213 1.613 . S
N1214 C1217 1.350 . S
N1215 S1213 1.610 . S
N1215 C1216 1.351 . S
C1216 C1210 1.428 . S
C1216 N1215 1.351 . S
C1216 C1217 1.434 . S
C1217 C1208 1.429 . S
C1217 N1214 1.350 . S
C1217 C1216 1.434 . S
C1218 C1219 1.369 . S
C1218 C1220 1.419 . S
C1218 H1222 0.930 . S
C1219 C1218 1.369 . S
C1219 C1228 1.429 . S
C1220 C1218 1.419 . S
C1220 C1221 1.363 . S
C1220 H1223 0.929 . S
C1221 C1220 1.363 . S
C1221 C1227 1.428 . S
H1222 C1218 0.930 . S
H1223 C1220 0.929 . S
S1224 N1225 1.613 . S
S1224 N1226 1.610 . S
N1225 S1224 1.613 . S
N1225 C1228 1.350 . S
N1226 S1224 1.610 . S
N1226 C1227 1.351 . S
C1227 C1221 1.428 . S
C1227 N1226 1.351 . S
C1227 C1228 1.434 . S
C1228 C1219 1.429 . S
C1228 N1225 1.350 . S
C1228 C1227 1.434 . S
C1229 C1230 1.369 . S
C1229 C1231 1.419 . S
C1229 H1233 0.930 . S
C1230 C1229 1.369 . S
C1230 C1239 1.429 . S
C1231 C1229 1.419 . S
C1231 C1232 1.363 . S
C1231 H1234 0.929 . S
C1232 C1231 1.363 . S
C1232 C1238 1.428 . S
H1233 C1229 0.930 . S
H1234 C1231 0.929 . S
S1235 N1236 1.613 . S
S1235 N1237 1.610 . S
N1236 S1235 1.613 . S
N1236 C1239 1.350 . S
N1237 S1235 1.610 . S
N1237 C1238 1.351 . S
C1238 C1232 1.428 . S
C1238 N1237 1.351 . S
C1238 C1239 1.434 . S
C1239 C1230 1.429 . S
C1239 N1236 1.350 . S
C1239 C1238 1.434 . S
C1240 C1241 1.369 . S
C1240 C1242 1.419 . S
C1240 H1244 0.930 . S
C1241 C1240 1.369 . S
C1241 C1250 1.429 . S
C1242 C1240 1.419 . S
C1242 C1243 1.363 . S
C1242 H1245 0.929 . S
C1243 C1242 1.363 . S
C1243 C1249 1.428 . S
H1244 C1240 0.930 . S
H1245 C1242 0.929 . S
S1246 N1247 1.613 . S
S1246 N1248 1.610 . S
N1247 S1246 1.613 . S
N1247 C1250 1.350 . S
N1248 S1246 1.610 . S
N1248 C1249 1.351 . S
C1249 C1243 1.428 . S
C1249 N1248 1.351 . S
C1249 C1250 1.434 . S
C1250 C1241 1.429 . S
C1250 N1247 1.350 . S
C1250 C1249 1.434 . S
C1251 C1252 1.369 . S
C1251 C1253 1.419 . S
C1251 H1255 0.930 . S
C1252 C1251 1.369 . S
C1252 C1261 1.429 . S
C1253 C1251 1.419 . S
C1253 C1254 1.363 . S
C1253 H1256 0.929 . S
C1254 C1253 1.363 . S
C1254 C1260 1.428 . S
H1255 C1251 0.930 . S
H1256 C1253 0.929 . S
S1257 N1258 1.613 . S
S1257 N1259 1.610 . S
N1258 S1257 1.613 . S
N1258 C1261 1.350 . S
N1259 S1257 1.610 . S
N1259 C1260 1.351 . S
C1260 C1254 1.428 . S
C1260 N1259 1.351 . S
C1260 C1261 1.434 . S
C1261 C1252 1.429 . S
C1261 N1258 1.350 . S
C1261 C1260 1.434 . S
C1262 C1263 1.369 . S
C1262 C1264 1.419 . S
C1262 H1266 0.930 . S
C1263 C1262 1.369 . S
C1263 C1272 1.429 . S
C1264 C1262 1.419 . S
C1264 C1265 1.363 . S
C1264 H1267 0.929 . S
C1265 C1264 1.363 . S
C1265 C1271 1.428 . S
H1266 C1262 0.930 . S
H1267 C1264 0.929 . S
S1268 N1269 1.613 . S
S1268 N1270 1.610 . S
N1269 S1268 1.613 . S
N1269 C1272 1.350 . S
N1270 S1268 1.610 . S
N1270 C1271 1.351 . S
C1271 C1265 1.428 . S
C1271 N1270 1.351 . S
C1271 C1272 1.434 . S
C1272 C1263 1.429 . S
C1272 N1269 1.350 . S
C1272 C1271 1.434 . S
C1273 C1274 1.369 . S
C1273 C1275 1.419 . S
C1273 H1277 0.930 . S
C1274 C1273 1.369 . S
C1274 C1283 1.429 . S
C1275 C1273 1.419 . S
C1275 C1276 1.363 . S
C1275 H1278 0.929 . S
C1276 C1275 1.363 . S
C1276 C1282 1.428 . S
H1277 C1273 0.930 . S
H1278 C1275 0.929 . S
S1279 N1280 1.613 . S
S1279 N1281 1.610 . S
N1280 S1279 1.613 . S
N1280 C1283 1.350 . S
N1281 S1279 1.610 . S
N1281 C1282 1.351 . S
C1282 C1276 1.428 . S
C1282 N1281 1.351 . S
C1282 C1283 1.434 . S
C1283 C1274 1.429 . S
C1283 N1280 1.350 . S
C1283 C1282 1.434 . S
C1284 C1285 1.369 . S
C1284 C1286 1.419 . S
C1284 H1288 0.930 . S
C1285 C1284 1.369 . S
C1285 C1294 1.429 . S
C1286 C1284 1.419 . S
C1286 C1287 1.363 . S
C1286 H1289 0.929 . S
C1287 C1286 1.363 . S
C1287 C1293 1.428 . S
H1288 C1284 0.930 . S
H1289 C1286 0.929 . S
S1290 N1291 1.613 . S
S1290 N1292 1.610 . S
N1291 S1290 1.613 . S
N1291 C1294 1.350 . S
N1292 S1290 1.610 . S
N1292 C1293 1.351 . S
C1293 C1287 1.428 . S
C1293 N1292 1.351 . S
C1293 C1294 1.434 . S
C1294 C1285 1.429 . S
C1294 N1291 1.350 . S
C1294 C1293 1.434 . S
C1295 C1296 1.369 . S
C1295 C1297 1.419 . S
C1295 H1299 0.930 . S
C1296 C1295 1.369 . S
C1296 C1305 1.429 . S
C1297 C1295 1.419 . S
C1297 C1298 1.363 . S
C1297 H1300 0.929 . S
C1298 C1297 1.363 . S
C1298 C1304 1.428 . S
H1299 C1295 0.930 . S
H1300 C1297 0.929 . S
S1301 N1302 1.613 . S
S1301 N1303 1.610 . S
N1302 S1301 1.613 . S
N1302 C1305 1.350 . S
N1303 S1301 1.610 . S
N1303 C1304 1.351 . S
C1304 C1298 1.428 . S
C1304 N1303 1.351 . S
C1304 C1305 1.434 . S
C1305 C1296 1.429 . S
C1305 N1302 1.350 . S
C1305 C1304 1.434 . S
C1306 C1307 1.369 . S
C1306 C1308 1.419 . S
C1306 H1310 0.930 . S
C1307 C1306 1.369 . S
C1307 C1316 1.429 . S
C1308 C1306 1.419 . S
C1308 C1309 1.363 . S
C1308 H1311 0.929 . S
C1309 C1308 1.363 . S
C1309 C1315 1.428 . S
H1310 C1306 0.930 . S
H1311 C1308 0.929 . S
S1312 N1313 1.613 . S
S1312 N1314 1.610 . S
N1313 S1312 1.613 . S
N1313 C1316 1.350 . S
N1314 S1312 1.610 . S
N1314 C1315 1.351 . S
C1315 C1309 1.428 . S
C1315 N1314 1.351 . S
C1315 C1316 1.434 . S
C1316 C1307 1.429 . S
C1316 N1313 1.350 . S
C1316 C1315 1.434 . S
C1317 C1318 1.369 . S
C1317 C1319 1.419 . S
C1317 H1321 0.930 . S
C1318 C1317 1.369 . S
C1318 C1327 1.429 . S
C1319 C1317 1.419 . S
C1319 C1320 1.363 . S
C1319 H1322 0.929 . S
C1320 C1319 1.363 . S
C1320 C1326 1.428 . S
H1321 C1317 0.930 . S
H1322 C1319 0.929 . S
S1323 N1324 1.613 . S
S1323 N1325 1.610 . S
N1324 S1323 1.613 . S
N1324 C1327 1.350 . S
N1325 S1323 1.610 . S
N1325 C1326 1.351 . S
C1326 C1320 1.428 . S
C1326 N1325 1.351 . S
C1326 C1327 1.434 . S
C1327 C1318 1.429 . S
C1327 N1324 1.350 . S
C1327 C1326 1.434 . S
C1328 C1329 1.369 . S
C1328 C1330 1.419 . S
C1328 H1332 0.930 . S
C1329 C1328 1.369 . S
C1329 C1338 1.429 . S
C1330 C1328 1.419 . S
C1330 C1331 1.363 . S
C1330 H1333 0.929 . S
C1331 C1330 1.363 . S
C1331 C1337 1.428 . S
H1332 C1328 0.930 . S
H1333 C1330 0.929 . S
S1334 N1335 1.613 . S
S1334 N1336 1.610 . S
N1335 S1334 1.613 . S
N1335 C1338 1.350 . S
N1336 S1334 1.610 . S
N1336 C1337 1.351 . S
C1337 C1331 1.428 . S
C1337 N1336 1.351 . S
C1337 C1338 1.434 . S
C1338 C1329 1.429 . S
C1338 N1335 1.350 . S
C1338 C1337 1.434 . S
C1339 C1340 1.369 . S
C1339 C1341 1.419 . S
C1339 H1343 0.930 . S
C1340 C1339 1.369 . S
C1340 C1349 1.429 . S
C1341 C1339 1.419 . S
C1341 C1342 1.363 . S
C1341 H1344 0.929 . S
C1342 C1341 1.363 . S
C1342 C1348 1.428 . S
H1343 C1339 0.930 . S
H1344 C1341 0.929 . S
S1345 N1346 1.613 . S
S1345 N1347 1.610 . S
N1346 S1345 1.613 . S
N1346 C1349 1.350 . S
N1347 S1345 1.610 . S
N1347 C1348 1.351 . S
C1348 C1342 1.428 . S
C1348 N1347 1.351 . S
C1348 C1349 1.434 . S
C1349 C1340 1.429 . S
C1349 N1346 1.350 . S
C1349 C1348 1.434 . S
C1350 C1351 1.369 . S
C1350 C1352 1.419 . S
C1350 H1354 0.930 . S
C1351 C1350 1.369 . S
C1351 C1360 1.429 . S
C1352 C1350 1.419 . S
C1352 C1353 1.363 . S
C1352 H1355 0.929 . S
C1353 C1352 1.363 . S
C1353 C1359 1.428 . S
H1354 C1350 0.930 . S
H1355 C1352 0.929 . S
S1356 N1357 1.613 . S
S1356 N1358 1.610 . S
N1357 S1356 1.613 . S
N1357 C1360 1.350 . S
N1358 S1356 1.610 . S
N1358 C1359 1.351 . S
C1359 C1353 1.428 . S
C1359 N1358 1.351 . S
C1359 C1360 1.434 . S
C1360 C1351 1.429 . S
C1360 N1357 1.350 . S
C1360 C1359 1.434 . S
C1361 C1362 1.369 . S
C1361 C1363 1.419 . S
C1361 H1365 0.930 . S
C1362 C1361 1.369 . S
C1362 C1371 1.429 . S
C1363 C1361 1.419 . S
C1363 C1364 1.363 . S
C1363 H1366 0.929 . S
C1364 C1363 1.363 . S
C1364 C1370 1.428 . S
H1365 C1361 0.930 . S
H1366 C1363 0.929 . S
S1367 N1368 1.613 . S
S1367 N1369 1.610 . S
N1368 S1367 1.613 . S
N1368 C1371 1.350 . S
N1369 S1367 1.610 . S
N1369 C1370 1.351 . S
C1370 C1364 1.428 . S
C1370 N1369 1.351 . S
C1370 C1371 1.434 . S
C1371 C1362 1.429 . S
C1371 N1368 1.350 . S
C1371 C1370 1.434 . S
C1372 C1373 1.369 . S
C1372 C1374 1.419 . S
C1372 H1376 0.930 . S
C1373 C1372 1.369 . S
C1373 C1382 1.429 . S
C1374 C1372 1.419 . S
C1374 C1375 1.363 . S
C1374 H1377 0.929 . S
C1375 C1374 1.363 . S
C1375 C1381 1.428 . S
H1376 C1372 0.930 . S
H1377 C1374 0.929 . S
S1378 N1379 1.613 . S
S1378 N1380 1.610 . S
N1379 S1378 1.613 . S
N1379 C1382 1.350 . S
N1380 S1378 1.610 . S
N1380 C1381 1.351 . S
C1381 C1375 1.428 . S
C1381 N1380 1.351 . S
C1381 C1382 1.434 . S
C1382 C1373 1.429 . S
C1382 N1379 1.350 . S
C1382 C1381 1.434 . S
C1383 C1384 1.369 . S
C1383 C1385 1.419 . S
C1383 H1387 0.930 . S
C1384 C1383 1.369 . S
C1384 C1393 1.429 . S
C1385 C1383 1.419 . S
C1385 C1386 1.363 . S
C1385 H1388 0.929 . S
C1386 C1385 1.363 . S
C1386 C1392 1.428 . S
H1387 C1383 0.930 . S
H1388 C1385 0.929 . S
S1389 N1390 1.613 . S
S1389 N1391 1.610 . S
N1390 S1389 1.613 . S
N1390 C1393 1.350 . S
N1391 S1389 1.610 . S
N1391 C1392 1.351 . S
C1392 C1386 1.428 . S
C1392 N1391 1.351 . S
C1392 C1393 1.434 . S
C1393 C1384 1.429 . S
C1393 N1390 1.350 . S
C1393 C1392 1.434 . S
C1394 C1395 1.369 . S
C1394 C1396 1.419 . S
C1394 H1398 0.930 . S
C1395 C1394 1.369 . S
C1395 C1404 1.429 . S
C1396 C1394 1.419 . S
C1396 C1397 1.363 . S
C1396 H1399 0.929 . S
C1397 C1396 1.363 . S
C1397 C1403 1.428 . S
H1398 C1394 0.930 . S
H1399 C1396 0.929 . S
S1400 N1401 1.613 . S
S1400 N1402 1.610 . S
N1401 S1400 1.613 . S
N1401 C1404 1.350 . S
N1402 S1400 1.610 . S
N1402 C1403 1.351 . S
C1403 C1397 1.428 . S
C1403 N1402 1.351 . S
C1403 C1404 1.434 . S
C1404 C1395 1.429 . S
C1404 N1401 1.350 . S
C1404 C1403 1.434 . S
C1405 C1406 1.369 . S
C1405 C1407 1.419 . S
C1405 H1409 0.930 . S
C1406 C1405 1.369 . S
C1406 C1415 1.429 . S
C1407 C1405 1.419 . S
C1407 C1408 1.363 . S
C1407 H1410 0.929 . S
C1408 C1407 1.363 . S
C1408 C1414 1.428 . S
H1409 C1405 0.930 . S
H1410 C1407 0.929 . S
S1411 N1412 1.613 . S
S1411 N1413 1.610 . S
N1412 S1411 1.613 . S
N1412 C1415 1.350 . S
N1413 S1411 1.610 . S
N1413 C1414 1.351 . S
C1414 C1408 1.428 . S
C1414 N1413 1.351 . S
C1414 C1415 1.434 . S
C1415 C1406 1.429 . S
C1415 N1412 1.350 . S
C1415 C1414 1.434 . S
C1416 C1417 1.369 . S
C1416 C1418 1.419 . S
C1416 H1420 0.930 . S
C1417 C1416 1.369 . S
C1417 C1426 1.429 . S
C1418 C1416 1.419 . S
C1418 C1419 1.363 . S
C1418 H1421 0.929 . S
C1419 C1418 1.363 . S
C1419 C1425 1.428 . S
H1420 C1416 0.930 . S
H1421 C1418 0.929 . S
S1422 N1423 1.613 . S
S1422 N1424 1.610 . S
N1423 S1422 1.613 . S
N1423 C1426 1.350 . S
N1424 S1422 1.610 . S
N1424 C1425 1.351 . S
C1425 C1419 1.428 . S
C1425 N1424 1.351 . S
C1425 C1426 1.434 . S
C1426 C1417 1.429 . S
C1426 N1423 1.350 . S
C1426 C1425 1.434 . S
C1427 C1428 1.369 . S
C1427 C1429 1.419 . S
C1427 H1431 0.930 . S
C1428 C1427 1.369 . S
C1428 C1437 1.429 . S
C1429 C1427 1.419 . S
C1429 C1430 1.363 . S
C1429 H1432 0.929 . S
C1430 C1429 1.363 . S
C1430 C1436 1.428 . S
H1431 C1427 0.930 . S
H1432 C1429 0.929 . S
S1433 N1434 1.613 . S
S1433 N1435 1.610 . S
N1434 S1433 1.613 . S
N1434 C1437 1.350 . S
N1435 S1433 1.610 . S
N1435 C1436 1.351 . S
C1436 C1430 1.428 . S
C1436 N1435 1.351 . S
C1436 C1437 1.434 . S
C1437 C1428 1.429 . S
C1437 N1434 1.350 . S
C1437 C1436 1.434 . S
C1438 C1439 1.369 . S
C1438 C1440 1.419 . S
C1438 H1442 0.930 . S
C1439 C1438 1.369 . S
C1439 C1448 1.429 . S
C1440 C1438 1.419 . S
C1440 C1441 1.363 . S
C1440 H1443 0.929 . S
C1441 C1440 1.363 . S
C1441 C1447 1.428 . S
H1442 C1438 0.930 . S
H1443 C1440 0.929 . S
S1444 N1445 1.613 . S
S1444 N1446 1.610 . S
N1445 S1444 1.613 . S
N1445 C1448 1.350 . S
N1446 S1444 1.610 . S
N1446 C1447 1.351 . S
C1447 C1441 1.428 . S
C1447 N1446 1.351 . S
C1447 C1448 1.434 . S
C1448 C1439 1.429 . S
C1448 N1445 1.350 . S
C1448 C1447 1.434 . S
C1449 C1450 1.369 . S
C1449 C1451 1.419 . S
C1449 H1453 0.930 . S
C1450 C1449 1.369 . S
C1450 C1459 1.429 . S
C1451 C1449 1.419 . S
C1451 C1452 1.363 . S
C1451 H1454 0.929 . S
C1452 C1451 1.363 . S
C1452 C1458 1.428 . S
H1453 C1449 0.930 . S
H1454 C1451 0.929 . S
S1455 N1456 1.613 . S
S1455 N1457 1.610 . S
N1456 S1455 1.613 . S
N1456 C1459 1.350 . S
N1457 S1455 1.610 . S
N1457 C1458 1.351 . S
C1458 C1452 1.428 . S
C1458 N1457 1.351 . S
C1458 C1459 1.434 . S
C1459 C1450 1.429 . S
C1459 N1456 1.350 . S
C1459 C1458 1.434 . S
C1460 C1461 1.369 . S
C1460 C1462 1.419 . S
C1460 H1464 0.930 . S
C1461 C1460 1.369 . S
C1461 C1470 1.429 . S
C1462 C1460 1.419 . S
C1462 C1463 1.363 . S
C1462 H1465 0.929 . S
C1463 C1462 1.363 . S
C1463 C1469 1.428 . S
H1464 C1460 0.930 . S
H1465 C1462 0.929 . S
S1466 N1467 1.613 . S
S1466 N1468 1.610 . S
N1467 S1466 1.613 . S
N1467 C1470 1.350 . S
N1468 S1466 1.610 . S
N1468 C1469 1.351 . S
C1469 C1463 1.428 . S
C1469 N1468 1.351 . S
C1469 C1470 1.434 . S
C1470 C1461 1.429 . S
C1470 N1467 1.350 . S
C1470 C1469 1.434 . S
C1471 C1472 1.369 . S
C1471 C1473 1.419 . S
C1471 H1475 0.930 . S
C1472 C1471 1.369 . S
C1472 C1481 1.429 . S
C1473 C1471 1.419 . S
C1473 C1474 1.363 . S
C1473 H1476 0.929 . S
C1474 C1473 1.363 . S
C1474 C1480 1.428 . S
H1475 C1471 0.930 . S
H1476 C1473 0.929 . S
S1477 N1478 1.613 . S
S1477 N1479 1.610 . S
N1478 S1477 1.613 . S
N1478 C1481 1.350 . S
N1479 S1477 1.610 . S
N1479 C1480 1.351 . S
C1480 C1474 1.428 . S
C1480 N1479 1.351 . S
C1480 C1481 1.434 . S
C1481 C1472 1.429 . S
C1481 N1478 1.350 . S
C1481 C1480 1.434 . S
C1482 C1483 1.369 . S
C1482 C1484 1.419 . S
C1482 H1486 0.930 . S
C1483 C1482 1.369 . S
C1483 C1492 1.429 . S
C1484 C1482 1.419 . S
C1484 C1485 1.363 . S
C1484 H1487 0.929 . S
C1485 C1484 1.363 . S
C1485 C1491 1.428 . S
H1486 C1482 0.930 . S
H1487 C1484 0.929 . S
S1488 N1489 1.613 . S
S1488 N1490 1.610 . S
N1489 S1488 1.613 . S
N1489 C1492 1.350 . S
N1490 S1488 1.610 . S
N1490 C1491 1.351 . S
C1491 C1485 1.428 . S
C1491 N1490 1.351 . S
C1491 C1492 1.434 . S
C1492 C1483 1.429 . S
C1492 N1489 1.350 . S
C1492 C1491 1.434 . S
C1493 C1494 1.369 . S
C1493 C1495 1.419 . S
C1493 H1497 0.930 . S
C1494 C1493 1.369 . S
C1494 C1503 1.429 . S
C1495 C1493 1.419 . S
C1495 C1496 1.363 . S
C1495 H1498 0.929 . S
C1496 C1495 1.363 . S
C1496 C1502 1.428 . S
H1497 C1493 0.930 . S
H1498 C1495 0.929 . S
S1499 N1500 1.613 . S
S1499 N1501 1.610 . S
N1500 S1499 1.613 . S
N1500 C1503 1.350 . S
N1501 S1499 1.610 . S
N1501 C1502 1.351 . S
C1502 C1496 1.428 . S
C1502 N1501 1.351 . S
C1502 C1503 1.434 . S
C1503 C1494 1.429 . S
C1503 N1500 1.350 . S
C1503 C1502 1.434 . S
C1504 C1505 1.369 . S
C1504 C1506 1.419 . S
C1504 H1508 0.930 . S
C1505 C1504 1.369 . S
C1505 C1514 1.429 . S
C1506 C1504 1.419 . S
C1506 C1507 1.363 . S
C1506 H1509 0.929 . S
C1507 C1506 1.363 . S
C1507 C1513 1.428 . S
H1508 C1504 0.930 . S
H1509 C1506 0.929 . S
S1510 N1511 1.613 . S
S1510 N1512 1.610 . S
N1511 S1510 1.613 . S
N1511 C1514 1.350 . S
N1512 S1510 1.610 . S
N1512 C1513 1.351 . S
C1513 C1507 1.428 . S
C1513 N1512 1.351 . S
C1513 C1514 1.434 . S
C1514 C1505 1.429 . S
C1514 N1511 1.350 . S
C1514 C1513 1.434 . S
C1515 C1516 1.369 . S
C1515 C1517 1.419 . S
C1515 H1519 0.930 . S
C1516 C1515 1.369 . S
C1516 C1525 1.429 . S
C1517 C1515 1.419 . S
C1517 C1518 1.363 . S
C1517 H1520 0.929 . S
C1518 C1517 1.363 . S
C1518 C1524 1.428 . S
H1519 C1515 0.930 . S
H1520 C1517 0.929 . S
S1521 N1522 1.613 . S
S1521 N1523 1.610 . S
N1522 S1521 1.613 . S
N1522 C1525 1.350 . S
N1523 S1521 1.610 . S
N1523 C1524 1.351 . S
C1524 C1518 1.428 . S
C1524 N1523 1.351 . S
C1524 C1525 1.434 . S
C1525 C1516 1.429 . S
C1525 N1522 1.350 . S
C1525 C1524 1.434 . S
C1526 C1527 1.369 . S
C1526 C1528 1.419 . S
C1526 H1530 0.930 . S
C1527 C1526 1.369 . S
C1527 C1536 1.429 . S
C1528 C1526 1.419 . S
C1528 C1529 1.363 . S
C1528 H1531 0.929 . S
C1529 C1528 1.363 . S
C1529 C1535 1.428 . S
H1530 C1526 0.930 . S
H1531 C1528 0.929 . S
S1532 N1533 1.613 . S
S1532 N1534 1.610 . S
N1533 S1532 1.613 . S
N1533 C1536 1.350 . S
N1534 S1532 1.610 . S
N1534 C1535 1.351 . S
C1535 C1529 1.428 . S
C1535 N1534 1.351 . S
C1535 C1536 1.434 . S
C1536 C1527 1.429 . S
C1536 N1533 1.350 . S
C1536 C1535 1.434 . S
C1537 C1538 1.369 . S
C1537 C1539 1.419 . S
C1537 H1541 0.930 . S
C1538 C1537 1.369 . S
C1538 C1547 1.429 . S
C1539 C1537 1.419 . S
C1539 C1540 1.363 . S
C1539 H1542 0.929 . S
C1540 C1539 1.363 . S
C1540 C1546 1.428 . S
H1541 C1537 0.930 . S
H1542 C1539 0.929 . S
S1543 N1544 1.613 . S
S1543 N1545 1.610 . S
N1544 S1543 1.613 . S
N1544 C1547 1.350 . S
N1545 S1543 1.610 . S
N1545 C1546 1.351 . S
C1546 C1540 1.428 . S
C1546 N1545 1.351 . S
C1546 C1547 1.434 . S
C1547 C1538 1.429 . S
C1547 N1544 1.350 . S
C1547 C1546 1.434 . S
C1548 C1549 1.369 . S
C1548 C1550 1.419 . S
C1548 H1552 0.930 . S
C1549 C1548 1.369 . S
C1549 C1558 1.429 . S
C1550 C1548 1.419 . S
C1550 C1551 1.363 . S
C1550 H1553 0.929 . S
C1551 C1550 1.363 . S
C1551 C1557 1.428 . S
H1552 C1548 0.930 . S
H1553 C1550 0.929 . S
S1554 N1555 1.613 . S
S1554 N1556 1.610 . S
N1555 S1554 1.613 . S
N1555 C1558 1.350 . S
N1556 S1554 1.610 . S
N1556 C1557 1.351 . S
C1557 C1551 1.428 . S
C1557 N1556 1.351 . S
C1557 C1558 1.434 . S
C1558 C1549 1.429 . S
C1558 N1555 1.350 . S
C1558 C1557 1.434 . S
C1559 C1560 1.369 . S
C1559 C1561 1.419 . S
C1559 H1563 0.930 . S
C1560 C1559 1.369 . S
C1560 C1569 1.429 . S
C1561 C1559 1.419 . S
C1561 C1562 1.363 . S
C1561 H1564 0.929 . S
C1562 C1561 1.363 . S
C1562 C1568 1.428 . S
H1563 C1559 0.930 . S
H1564 C1561 0.929 . S
S1565 N1566 1.613 . S
S1565 N1567 1.610 . S
N1566 S1565 1.613 . S
N1566 C1569 1.350 . S
N1567 S1565 1.610 . S
N1567 C1568 1.351 . S
C1568 C1562 1.428 . S
C1568 N1567 1.351 . S
C1568 C1569 1.434 . S
C1569 C1560 1.429 . S
C1569 N1566 1.350 . S
C1569 C1568 1.434 . S
C1570 C1571 1.369 . S
C1570 C1572 1.419 . S
C1570 H1574 0.930 . S
C1571 C1570 1.369 . S
C1571 C1580 1.429 . S
C1572 C1570 1.419 . S
C1572 C1573 1.363 . S
C1572 H1575 0.929 . S
C1573 C1572 1.363 . S
C1573 C1579 1.428 . S
H1574 C1570 0.930 . S
H1575 C1572 0.929 . S
S1576 N1577 1.613 . S
S1576 N1578 1.610 . S
N1577 S1576 1.613 . S
N1577 C1580 1.350 . S
N1578 S1576 1.610 . S
N1578 C1579 1.351 . S
C1579 C1573 1.428 . S
C1579 N1578 1.351 . S
C1579 C1580 1.434 . S
C1580 C1571 1.429 . S
C1580 N1577 1.350 . S
C1580 C1579 1.434 . S
C1581 C1582 1.369 . S
C1581 C1583 1.419 . S
C1581 H1585 0.930 . S
C1582 C1581 1.369 . S
C1582 C1591 1.429 . S
C1583 C1581 1.419 . S
C1583 C1584 1.363 . S
C1583 H1586 0.929 . S
C1584 C1583 1.363 . S
C1584 C1590 1.428 . S
H1585 C1581 0.930 . S
H1586 C1583 0.929 . S
S1587 N1588 1.613 . S
S1587 N1589 1.610 . S
N1588 S1587 1.613 . S
N1588 C1591 1.350 . S
N1589 S1587 1.610 . S
N1589 C1590 1.351 . S
C1590 C1584 1.428 . S
C1590 N1589 1.351 . S
C1590 C1591 1.434 . S
C1591 C1582 1.429 . S
C1591 N1588 1.350 . S
C1591 C1590 1.434 . S
C1592 C1593 1.369 . S
C1592 C1594 1.419 . S
C1592 H1596 0.930 . S
C1593 C1592 1.369 . S
C1593 C1602 1.429 . S
C1594 C1592 1.419 . S
C1594 C1595 1.363 . S
C1594 H1597 0.929 . S
C1595 C1594 1.363 . S
C1595 C1601 1.428 . S
H1596 C1592 0.930 . S
H1597 C1594 0.929 . S
S1598 N1599 1.613 . S
S1598 N1600 1.610 . S
N1599 S1598 1.613 . S
N1599 C1602 1.350 . S
N1600 S1598 1.610 . S
N1600 C1601 1.351 . S
C1601 C1595 1.428 . S
C1601 N1600 1.351 . S
C1601 C1602 1.434 . S
C1602 C1593 1.429 . S
C1602 N1599 1.350 . S
C1602 C1601 1.434 . S
C1603 C1604 1.369 . S
C1603 C1605 1.419 . S
C1603 H1607 0.930 . S
C1604 C1603 1.369 . S
C1604 C1613 1.429 . S
C1605 C1603 1.419 . S
C1605 C1606 1.363 . S
C1605 H1608 0.929 . S
C1606 C1605 1.363 . S
C1606 C1612 1.428 . S
H1607 C1603 0.930 . S
H1608 C1605 0.929 . S
S1609 N1610 1.613 . S
S1609 N1611 1.610 . S
N1610 S1609 1.613 . S
N1610 C1613 1.350 . S
N1611 S1609 1.610 . S
N1611 C1612 1.351 . S
C1612 C1606 1.428 . S
C1612 N1611 1.351 . S
C1612 C1613 1.434 . S
C1613 C1604 1.429 . S
C1613 N1610 1.350 . S
C1613 C1612 1.434 . S
C1614 C1615 1.369 . S
C1614 C1616 1.419 . S
C1614 H1618 0.930 . S
C1615 C1614 1.369 . S
C1615 C1624 1.429 . S
C1616 C1614 1.419 . S
C1616 C1617 1.363 . S
C1616 H1619 0.929 . S
C1617 C1616 1.363 . S
C1617 C1623 1.428 . S
H1618 C1614 0.930 . S
H1619 C1616 0.929 . S
S1620 N1621 1.613 . S
S1620 N1622 1.610 . S
N1621 S1620 1.613 . S
N1621 C1624 1.350 . S
N1622 S1620 1.610 . S
N1622 C1623 1.351 . S
C1623 C1617 1.428 . S
C1623 N1622 1.351 . S
C1623 C1624 1.434 . S
C1624 C1615 1.429 . S
C1624 N1621 1.350 . S
C1624 C1623 1.434 . S
C1625 C1626 1.369 . S
C1625 C1627 1.419 . S
C1625 H1629 0.930 . S
C1626 C1625 1.369 . S
C1626 C1635 1.429 . S
C1627 C1625 1.419 . S
C1627 C1628 1.363 . S
C1627 H1630 0.929 . S
C1628 C1627 1.363 . S
C1628 C1634 1.428 . S
H1629 C1625 0.930 . S
H1630 C1627 0.929 . S
S1631 N1632 1.613 . S
S1631 N1633 1.610 . S
N1632 S1631 1.613 . S
N1632 C1635 1.350 . S
N1633 S1631 1.610 . S
N1633 C1634 1.351 . S
C1634 C1628 1.428 . S
C1634 N1633 1.351 . S
C1634 C1635 1.434 . S
C1635 C1626 1.429 . S
C1635 N1632 1.350 . S
C1635 C1634 1.434 . S
C1636 C1637 1.369 . S
C1636 C1638 1.419 . S
C1636 H1640 0.930 . S
C1637 C1636 1.369 . S
C1637 C1646 1.429 . S
C1638 C1636 1.419 . S
C1638 C1639 1.363 . S
C1638 H1641 0.929 . S
C1639 C1638 1.363 . S
C1639 C1645 1.428 . S
H1640 C1636 0.930 . S
H1641 C1638 0.929 . S
S1642 N1643 1.613 . S
S1642 N1644 1.610 . S
N1643 S1642 1.613 . S
N1643 C1646 1.350 . S
N1644 S1642 1.610 . S
N1644 C1645 1.351 . S
C1645 C1639 1.428 . S
C1645 N1644 1.351 . S
C1645 C1646 1.434 . S
C1646 C1637 1.429 . S
C1646 N1643 1.350 . S
C1646 C1645 1.434 . S
C1647 C1648 1.369 . S
C1647 C1649 1.419 . S
C1647 H1651 0.930 . S
C1648 C1647 1.369 . S
C1648 C1657 1.429 . S
C1649 C1647 1.419 . S
C1649 C1650 1.363 . S
C1649 H1652 0.929 . S
C1650 C1649 1.363 . S
C1650 C1656 1.428 . S
H1651 C1647 0.930 . S
H1652 C1649 0.929 . S
S1653 N1654 1.613 . S
S1653 N1655 1.610 . S
N1654 S1653 1.613 . S
N1654 C1657 1.350 . S
N1655 S1653 1.610 . S
N1655 C1656 1.351 . S
C1656 C1650 1.428 . S
C1656 N1655 1.351 . S
C1656 C1657 1.434 . S
C1657 C1648 1.429 . S
C1657 N1654 1.350 . S
C1657 C1656 1.434 . S
C1658 C1659 1.369 . S
C1658 C1660 1.419 . S
C1658 H1662 0.930 . S
C1659 C1658 1.369 . S
C1659 C1668 1.429 . S
C1660 C1658 1.419 . S
C1660 C1661 1.363 . S
C1660 H1663 0.929 . S
C1661 C1660 1.363 . S
C1661 C1667 1.428 . S
H1662 C1658 0.930 . S
H1663 C1660 0.929 . S
S1664 N1665 1.613 . S
S1664 N1666 1.610 . S
N1665 S1664 1.613 . S
N1665 C1668 1.350 . S
N1666 S1664 1.610 . S
N1666 C1667 1.351 . S
C1667 C1661 1.428 . S
C1667 N1666 1.351 . S
C1667 C1668 1.434 . S
C1668 C1659 1.429 . S
C1668 N1665 1.350 . S
C1668 C1667 1.434 . S
C1669 C1670 1.369 . S
C1669 C1671 1.419 . S
C1669 H1673 0.930 . S
C1670 C1669 1.369 . S
C1670 C1679 1.429 . S
C1671 C1669 1.419 . S
C1671 C1672 1.363 . S
C1671 H1674 0.929 . S
C1672 C1671 1.363 . S
C1672 C1678 1.428 . S
H1673 C1669 0.930 . S
H1674 C1671 0.929 . S
S1675 N1676 1.613 . S
S1675 N1677 1.610 . S
N1676 S1675 1.613 . S
N1676 C1679 1.350 . S
N1677 S1675 1.610 . S
N1677 C1678 1.351 . S
C1678 C1672 1.428 . S
C1678 N1677 1.351 . S
C1678 C1679 1.434 . S
C1679 C1670 1.429 . S
C1679 N1676 1.350 . S
C1679 C1678 1.434 . S
C625 C117 1.791 . S
C627 C0 1.793 . S
C636 C130 1.795 . S
C638 C13 1.790 . S
C647 C143 1.787 . S
C649 C26 1.794 . S
C658 C39 1.792 . S
C660 C104 1.786 . S
C669 C195 1.786 . S
C671 C52 1.789 . S
C680 C65 1.795 . S
C682 C156 1.790 . S
C691 C169 1.794 . S
C693 C78 1.786 . S
C702 C182 1.786 . S
C704 C91 1.789 . S
C713 C208 1.795 . S
C715 C234 1.790 . S
C724 C221 1.784 . S
C726 C286 1.793 . S
C735 C247 1.796 . S
C737 C299 1.788 . S
C746 C260 1.788 . S
C748 C273 1.794 . S
C757 C312 1.794 . S
C759 C429 1.791 . S
C768 C442 1.796 . S
C770 C325 1.788 . S
C779 C338 1.791 . S
C781 C455 1.786 . S
C790 C351 1.789 . S
C792 C416 1.786 . S
C801 C507 1.795 . S
C803 C364 1.789 . S
C812 C468 1.786 . S
C814 C377 1.789 . S
C823 C481 1.791 . S
C825 C390 1.793 . S
C834 C494 1.790 . S
C836 C403 1.786 . S
C845 C520 1.784 . S
C847 C546 1.793 . S
C856 C533 1.787 . S
C858 C598 1.788 . S
C867 C559 1.788 . S
C869 C611 1.794 . S
C878 C585 1.786 . S
C880 C572 1.794 . S
C889 C109 1.128 . S
C891 C8 1.383 . S
C900 C122 1.131 . S
C902 C21 1.379 . S
C911 C34 1.384 . S
C913 C135 1.133 . S
C922 C47 1.384 . S
C924 C148 1.129 . S
C933 C60 1.378 . S
C935 C161 1.129 . S
C944 C73 1.383 . S
C946 C174 1.127 . S
C955 C86 1.379 . S
C957 C187 1.122 . S
C966 C200 1.131 . S
C968 C99 1.383 . S
C977 C112 1.382 . S
C979 C213 1.139 . S
C988 C304 1.127 . S
C990 C125 1.378 . S
C999 C138 1.378 . S
C1001 C278 1.126 . S
C1010 C151 1.384 . S
C1012 C291 1.132 . S
C1021 C164 1.381 . S
C1023 C226 1.139 . S
C1032 C177 1.384 . S
C1034 C239 1.132 . S
C1043 C190 1.380 . S
C1045 C252 1.138 . S
C1054 C265 1.135 . S
C1056 C203 1.379 . S
C1065 C5 1.129 . S
C1067 C216 1.383 . S
C1076 C229 1.383 . S
C1078 C57 1.128 . S
C1087 C242 1.378 . S
C1089 C70 1.125 . S
C1098 C255 1.378 . S
C1100 C83 1.128 . S
C1109 C96 1.129 . S
C1111 C268 1.383 . S
C1120 C281 1.379 . S
C1122 C31 1.123 . S
C1131 C294 1.382 . S
C1133 C44 1.124 . S
C1142 C18 1.131 . S
C1144 C307 1.379 . S
C1153 C421 1.142 . S
C1155 C320 1.382 . S
C1164 C333 1.382 . S
C1166 C434 1.123 . S
C1175 C346 1.380 . S
C1177 C447 1.122 . S
C1186 C460 1.135 . S
C1188 C359 1.379 . S
C1197 C473 1.134 . S
C1199 C372 1.379 . S
C1208 C385 1.381 . S
C1210 C486 1.139 . S
C1219 C499 1.134 . S
C1221 C398 1.379 . S
C1230 C512 1.120 . S
C1232 C411 1.380 . S
C1241 C424 1.380 . S
C1243 C525 1.122 . S
C1252 C437 1.384 . S
C1254 C616 1.129 . S
C1263 C450 1.383 . S
C1265 C590 1.125 . S
C1274 C603 1.127 . S
C1276 C463 1.383 . S
C1285 C476 1.383 . S
C1287 C538 1.139 . S
C1296 C489 1.384 . S
C1298 C551 1.132 . S
C1307 C564 1.141 . S
C1309 C502 1.382 . S
C1318 C577 1.133 . S
C1320 C515 1.379 . S
C1329 C528 1.384 . S
C1331 C317 1.136 . S
C1340 C541 1.378 . S
C1342 C369 1.130 . S
C1351 C382 1.134 . S
C1353 C554 1.379 . S
C1362 C567 1.379 . S
C1364 C395 1.135 . S
C1373 C580 1.380 . S
C1375 C408 1.122 . S
C1384 C343 1.129 . S
C1386 C593 1.383 . S
C1395 C606 1.382 . S
C1397 C356 1.123 . S
C1406 C330 1.140 . S
C1408 C619 1.383 . S
C1417 C413 1.454 . S
C1419 C10 1.454 . S
C1428 C23 1.456 . S
C1430 C374 1.459 . S
C1439 C387 1.454 . S
C1441 C36 1.454 . S
C1450 C400 1.456 . S
C1452 C49 1.460 . S
C1461 C62 1.455 . S
C1463 C335 1.454 . S
C1472 C348 1.453 . S
C1474 C75 1.454 . S
C1483 C361 1.462 . S
C1485 C88 1.459 . S
C1494 C101 1.463 . S
C1496 C322 1.462 . S
C1505 C582 1.462 . S
C1507 C114 1.459 . S
C1516 C127 1.455 . S
C1518 C543 1.458 . S
C1527 C140 1.460 . S
C1529 C556 1.457 . S
C1538 C569 1.453 . S
C1540 C153 1.455 . S
C1549 C621 1.459 . S
C1551 C166 1.456 . S
C1560 C595 1.453 . S
C1562 C179 1.456 . S
C1571 C192 1.453 . S
C1573 C608 1.455 . S
C1582 C530 1.453 . S
C1584 C205 1.455 . S
C1593 C218 1.463 . S
C1595 C517 1.461 . S
C1604 C439 1.461 . S
C1606 C231 1.462 . S
C1615 C244 1.454 . S
C1617 C452 1.454 . S
C1626 C465 1.463 . S
C1628 C257 1.462 . S
C1637 C426 1.455 . S
C1639 C270 1.454 . S
C1648 C283 1.459 . S
C1650 C491 1.456 . S
C1659 C504 1.453 . S
C1661 C296 1.455 . S
C1670 C478 1.456 . S
C1672 C309 1.459 . S
