# Generated by pormake.
# Topology wkj, (6)-cn, num edge types: 1
# Building blocks:
#     Node 0, Type 0, BuildingBlock: GEDQOX_clean_sbu_0, # of connection points: 6
#     Node 1, Type 0, BuildingBlock: GEDQOX_clean_sbu_0, # of connection points: 6
#     Node 2, Type 0, BuildingBlock: GEDQOX_clean_sbu_0, # of connection points: 6
#     Node 3, Type 0, BuildingBlock: GEDQOX_clean_sbu_0, # of connection points: 6
#     Node 4, Type 0, BuildingBlock: GEDQOX_clean_sbu_0, # of connection points: 6
#     Node 5, Type 0, BuildingBlock: GEDQOX_clean_sbu_0, # of connection points: 6
#     Node 6, Type 0, BuildingBlock: GEDQOX_clean_sbu_0, # of connection points: 6
#     Node 7, Type 0, BuildingBlock: GEDQOX_clean_sbu_0, # of connection points: 6
#     Node 8, Type 0, BuildingBlock: GEDQOX_clean_sbu_0, # of connection points: 6
#     Node 9, Type 0, BuildingBlock: GEDQOX_clean_sbu_0, # of connection points: 6
#     Node 10, Type 0, BuildingBlock: GEDQOX_clean_sbu_0, # of connection points: 6
#     Node 11, Type 0, BuildingBlock: GEDQOX_clean_sbu_0, # of connection points: 6
#     Edge 12, Type (0, 0), BuildingBlock: TEMPAE_clean_linker_10, # of connection points: 2
#     Edge 13, Type (0, 0), BuildingBlock: TEMPAE_clean_linker_10, # of connection points: 2
#     Edge 14, Type (0, 0), BuildingBlock: TEMPAE_clean_linker_10, # of connection points: 2
#     Edge 15, Type (0, 0), BuildingBlock: TEMPAE_clean_linker_10, # of connection points: 2
#     Edge 16, Type (0, 0), BuildingBlock: TEMPAE_clean_linker_10, # of connection points: 2
#     Edge 17, Type (0, 0), BuildingBlock: TEMPAE_clean_linker_10, # of connection points: 2
#     Edge 18, Type (0, 0), BuildingBlock: TEMPAE_clean_linker_10, # of connection points: 2
#     Edge 19, Type (0, 0), BuildingBlock: TEMPAE_clean_linker_10, # of connection points: 2
#     Edge 20, Type (0, 0), BuildingBlock: TEMPAE_clean_linker_10, # of connection points: 2
#     Edge 21, Type (0, 0), BuildingBlock: TEMPAE_clean_linker_10, # of connection points: 2
#     Edge 22, Type (0, 0), BuildingBlock: TEMPAE_clean_linker_10, # of connection points: 2
#     Edge 23, Type (0, 0), BuildingBlock: TEMPAE_clean_linker_10, # of connection points: 2
#     Edge 24, Type (0, 0), BuildingBlock: TEMPAE_clean_linker_10, # of connection points: 2
#     Edge 25, Type (0, 0), BuildingBlock: TEMPAE_clean_linker_10, # of connection points: 2
#     Edge 26, Type (0, 0), BuildingBlock: TEMPAE_clean_linker_10, # of connection points: 2
#     Edge 27, Type (0, 0), BuildingBlock: TEMPAE_clean_linker_10, # of connection points: 2
#     Edge 28, Type (0, 0), BuildingBlock: TEMPAE_clean_linker_10, # of connection points: 2
#     Edge 29, Type (0, 0), BuildingBlock: TEMPAE_clean_linker_10, # of connection points: 2
#     Edge 30, Type (0, 0), BuildingBlock: TEMPAE_clean_linker_10, # of connection points: 2
#     Edge 31, Type (0, 0), BuildingBlock: TEMPAE_clean_linker_10, # of connection points: 2
#     Edge 32, Type (0, 0), BuildingBlock: TEMPAE_clean_linker_10, # of connection points: 2
#     Edge 33, Type (0, 0), BuildingBlock: TEMPAE_clean_linker_10, # of connection points: 2
#     Edge 34, Type (0, 0), BuildingBlock: TEMPAE_clean_linker_10, # of connection points: 2
#     Edge 35, Type (0, 0), BuildingBlock: TEMPAE_clean_linker_10, # of connection points: 2
#     Edge 36, Type (0, 0), BuildingBlock: TEMPAE_clean_linker_10, # of connection points: 2
#     Edge 37, Type (0, 0), BuildingBlock: TEMPAE_clean_linker_10, # of connection points: 2
#     Edge 38, Type (0, 0), BuildingBlock: TEMPAE_clean_linker_10, # of connection points: 2
#     Edge 39, Type (0, 0), BuildingBlock: TEMPAE_clean_linker_10, # of connection points: 2
#     Edge 40, Type (0, 0), BuildingBlock: TEMPAE_clean_linker_10, # of connection points: 2
#     Edge 41, Type (0, 0), BuildingBlock: TEMPAE_clean_linker_10, # of connection points: 2
#     Edge 42, Type (0, 0), BuildingBlock: TEMPAE_clean_linker_10, # of connection points: 2
#     Edge 43, Type (0, 0), BuildingBlock: TEMPAE_clean_linker_10, # of connection points: 2
#     Edge 44, Type (0, 0), BuildingBlock: TEMPAE_clean_linker_10, # of connection points: 2
#     Edge 45, Type (0, 0), BuildingBlock: TEMPAE_clean_linker_10, # of connection points: 2
#     Edge 46, Type (0, 0), BuildingBlock: TEMPAE_clean_linker_10, # of connection points: 2
#     Edge 47, Type (0, 0), BuildingBlock: TEMPAE_clean_linker_10, # of connection points: 2
# Relax obj value: 0.713
# Max RMSD: 0.169
# Mean RMSD: 0.169
data_MOF--net-wkj--node1-GEDQOX_clean_sbu_0--edge1-TEMPAE_clean_linker_10
_symmetry_space_group_name_H-M    P1
_symmetry_Int_Tables_number       1
_symmetry_cell_setting            triclinic
loop_
_symmetry_equiv_pos_as_xyz
'x, y, z'
_cell_length_a     49.027525
_cell_length_b     48.908453
_cell_length_c     31.498912
_cell_angle_alpha  89.812684
_cell_angle_beta   90.041904
_cell_angle_gamma 120.14496
loop_
_atom_site_label
_atom_site_type_symbol
_atom_site_fract_x
_atom_site_fract_y
_atom_site_fract_z
_atom_type_partial_charge
Nd0 Nd 0.49353 0.09501 0.36802 0.0
Nd1 Nd 0.43594 0.06818 0.34411 0.0
C2 C 0.55489 0.12247 0.38492 0.0
C3 C 0.57456 0.13859 0.42207 0.0
C4 C 0.56555 0.12545 0.46282 0.0
C5 C 0.5806 0.14364 0.49848 0.0
C6 C 0.6047 0.17538 0.49406 0.0
C7 C 0.61488 0.18792 0.45321 0.0
C8 C 0.60001 0.16957 0.41746 0.0
C9 C 0.4766 0.14097 0.34371 0.0
C10 C 0.4472 0.06219 0.45383 0.0
C11 C 0.38062 0.06501 0.33912 0.0
C12 C 0.36457 0.07729 0.31283 0.0
C13 C 0.37822 0.09314 0.27485 0.0
C14 C 0.36053 0.0997 0.24628 0.0
C15 C 0.32884 0.09049 0.25529 0.0
C16 C 0.31659 0.07775 0.29559 0.0
C17 C 0.3343 0.07097 0.32405 0.0
C18 C 0.44139 0.01768 0.36028 0.0
C19 C 0.48405 0.07349 0.26484 0.0
O20 O 0.53572 0.09203 0.38737 0.0
O21 O 0.54154 0.13695 0.36772 0.0
O22 O 0.48545 0.13834 0.38184 0.0
O23 O 0.4729 0.11722 0.32307 0.0
O24 O 0.47723 0.07942 0.44124 0.0
O25 O 0.42657 0.05585 0.42168 0.0
O26 O 0.4039 0.08577 0.36243 0.0
O27 O 0.38683 0.04474 0.32076 0.0
O28 O 0.42824 0.02047 0.32585 0.0
O29 O 0.45604 0.04342 0.38108 0.0
O30 O 0.45602 0.07109 0.27264 0.0
O31 O 0.50178 0.07852 0.29931 0.0
H32 H 0.54576 0.10176 0.46733 0.0
H33 H 0.57188 0.13346 0.52958 0.0
H34 H 0.63342 0.21226 0.44897 0.0
H35 H 0.60718 0.18016 0.38622 0.0
H36 H 0.4018 0.09856 0.26609 0.0
H37 H 0.37091 0.10929 0.21558 0.0
H38 H 0.29255 0.0709 0.30389 0.0
H39 H 0.32371 0.05919 0.35376 0.0
Nd40 Nd 0.38395 0.4821 0.70046 0.0
Nd41 Nd 0.35212 0.4223 0.67938 0.0
C42 C 0.41329 0.54034 0.73113 0.0
C43 C 0.40104 0.55966 0.74889 0.0
C44 C 0.36991 0.54501 0.76375 0.0
C45 C 0.35943 0.56228 0.78667 0.0
C46 C 0.37986 0.59465 0.79478 0.0
C47 C 0.40985 0.60989 0.77535 0.0
C48 C 0.4205 0.59239 0.75296 0.0
C49 C 0.32373 0.46765 0.66917 0.0
C50 C 0.36918 0.43317 0.7865 0.0
C51 C 0.30861 0.36619 0.65116 0.0
C52 C 0.28571 0.35007 0.61705 0.0
C53 C 0.25676 0.32304 0.62663 0.0
C54 C 0.23747 0.3035 0.59408 0.0
C55 C 0.24718 0.31055 0.55148 0.0
C56 C 0.27489 0.33943 0.54222 0.0
C57 C 0.29384 0.35904 0.57466 0.0
C58 C 0.40941 0.43277 0.70291 0.0
C59 C 0.39748 0.47681 0.60051 0.0
O60 O 0.40749 0.51546 0.75343 0.0
O61 O 0.40811 0.53413 0.69088 0.0
O62 O 0.35043 0.49167 0.65912 0.0
O63 O 0.3289 0.45116 0.696 0.0
O64 O 0.38255 0.46296 0.77239 0.0
O65 O 0.35353 0.41157 0.756 0.0
O66 O 0.3025 0.38261 0.67813 0.0
O67 O 0.33849 0.37961 0.6412 0.0
O68 O 0.38343 0.40805 0.71448 0.0
O69 O 0.40504 0.45189 0.68029 0.0
O70 O 0.37161 0.44828 0.60867 0.0
O71 O 0.41088 0.49377 0.6349 0.0
H72 H 0.35432 0.51978 0.75994 0.0
H73 H 0.3363 0.54948 0.80115 0.0
H74 H 0.42591 0.63492 0.78003 0.0
H75 H 0.44437 0.60413 0.74065 0.0
H76 H 0.24994 0.31604 0.65935 0.0
H77 H 0.21602 0.28197 0.60249 0.0
H78 H 0.28368 0.34585 0.5101 0.0
H79 H 0.31591 0.38005 0.56656 0.0
Nd80 Nd 0.88656 0.3898 1.03313 0.0
Nd81 Nd 0.92365 0.36695 1.00682 0.0
C82 C 0.85626 0.42116 1.04543 0.0
C83 C 0.85324 0.44387 1.07216 0.0
C84 C 0.87858 0.46675 1.09593 0.0
C85 C 0.87358 0.4853 0.12509 0.0
C86 C 0.84307 0.48072 0.13128 0.0
C87 C 0.81842 0.45931 1.10495 0.0
C88 C 0.82353 0.44111 1.07565 0.0
C89 C 0.84755 0.32642 1.00661 0.0
C90 C 0.92753 0.38142 0.11618 0.0
C91 C 0.94064 0.32397 0.99629 0.0
C92 C 0.93847 0.30097 0.96498 0.0
C93 C 0.91836 0.29325 0.92992 0.0
C94 C 0.92126 0.27657 0.89602 0.0
C95 C 0.94468 0.26794 0.89654 0.0
C96 C 0.96283 0.27337 0.93342 0.0
C97 C 0.95974 0.28984 0.96741 0.0
C98 C 0.96344 0.42758 1.02716 0.0
C99 C 0.9101 0.40503 0.92928 0.0
O100 O 0.88146 0.43173 1.02178 0.0
O101 O 0.84742 0.39347 1.06221 0.0
O102 O 0.84504 0.33806 1.04236 0.0
O103 O 0.87207 0.34764 0.98774 0.0
O104 O 0.90787 0.39194 1.10472 0.0
O105 O 0.93564 0.36908 1.08358 0.0
O106 O 0.91449 0.31802 1.01545 0.0
O107 O 0.95814 0.3536 0.98506 0.0
O108 O 0.96624 0.41481 0.99241 0.0
O109 O 0.93777 0.40958 1.04602 0.0
O110 O 0.92173 0.38594 0.9371 0.0
O111 O 0.89691 0.41116 0.96222 0.0
H112 H 0.90179 0.46933 1.09325 0.0
H113 H 0.89317 0.50191 0.14445 0.0
H114 H 0.79456 0.45471 1.10912 0.0
H115 H 0.80379 0.42364 1.05722 0.0
H116 H 0.90184 0.30176 0.92764 0.0
H117 H 0.90673 0.27238 0.86815 0.0
H118 H 0.98126 0.26732 0.93464 0.0
H119 H 0.97544 0.29572 0.99436 0.0
Nd120 Nd 0.49696 0.89081 0.362 0.0
Nd121 Nd 0.55527 0.93673 0.3411 0.0
C122 C 0.4394 0.85392 0.39308 0.0
C123 C 0.42056 0.82387 0.41539 0.0
C124 C 0.43491 0.80881 0.43571 0.0
C125 C 0.41722 0.78313 0.4627 0.0
C126 C 0.38504 0.77235 0.46967 0.0
C127 C 0.37029 0.78579 0.44616 0.0
C128 C 0.388 0.81149 0.4193 0.0
C129 C 0.5269 0.85867 0.33147 0.0
C130 C 0.54461 0.93863 0.44601 0.0
C131 C 0.61463 0.97296 0.3167 0.0
C132 C 0.63769 0.97775 0.28398 0.0
C133 C 0.62898 0.95884 0.24762 0.0
C134 C 0.65099 0.96571 0.21529 0.0
C135 C 0.68186 0.99163 0.21896 0.0
C136 C 0.69081 0.00933 0.25659 0.0
C137 C 0.66881 0.00242 0.28886 0.0
C138 C 0.51299 0.95751 0.35882 0.0
C139 C 0.50152 0.91267 0.25988 0.0
O140 O 0.46238 0.87656 0.41448 0.0
O141 O 0.44725 0.85244 0.35412 0.0
O142 O 0.49824 0.85174 0.32539 0.0
O143 O 0.54068 0.88357 0.35522 0.0
O144 O 0.51652 0.91401 0.43376 0.0
O145 O 0.56546 0.9515 0.41457 0.0
O146 O 0.605 0.94803 0.34082 0.0
O147 O 0.592 0.97834 0.30603 0.0
O148 O 0.54011 0.96918 0.37756 0.0
O149 O 0.51089 0.93704 0.33407 0.0
O150 O 0.53253 0.92685 0.26937 0.0
O151 O 0.48214 0.89954 0.29293 0.0
H152 H 0.46006 0.81806 0.43266 0.0
H153 H 0.42929 0.77351 0.48078 0.0
H154 H 0.34552 0.77786 0.45088 0.0
H155 H 0.37659 0.82277 0.40344 0.0
H156 H 0.60503 0.93948 0.24374 0.0
H157 H 0.64358 0.95153 0.18671 0.0
H158 H 0.71426 0.02964 0.26008 0.0
H159 H 0.67583 0.01706 0.31703 0.0
Nd160 Nd 0.6082 0.52123 0.69907 0.0
Nd161 Nd 0.6372 0.57965 0.67377 0.0
C162 C 0.57725 0.45957 0.71624 0.0
C163 C 0.58615 0.43872 0.73815 0.0
C164 C 0.56342 0.4073 0.7471 0.0
C165 C 0.57046 0.38943 0.77513 0.0
C166 C 0.60017 0.40301 0.79506 0.0
C167 C 0.62365 0.43361 0.78277 0.0
C168 C 0.61666 0.45126 0.7546 0.0
C169 C 0.67201 0.5418 0.67661 0.0
C170 C 0.61769 0.56565 0.78409 0.0
C171 C 0.68954 0.63517 0.66814 0.0
C172 C 0.71918 0.64929 0.64378 0.0
C173 C 0.73696 0.63409 0.64017 0.0
C174 C 0.76153 0.64478 0.61068 0.0
C175 C 0.76848 0.67067 0.58411 0.0
C176 C 0.7529 0.68784 0.59142 0.0
C177 C 0.72844 0.67717 0.62091 0.0
C178 C 0.58099 0.57233 0.68513 0.0
C179 C 0.59271 0.52669 0.59688 0.0
O180 O 0.57636 0.48074 0.74021 0.0
O181 O 0.59126 0.47143 0.68023 0.0
O182 O 0.65999 0.53115 0.71392 0.0
O183 O 0.6516 0.54435 0.65555 0.0
O184 O 0.60713 0.53607 0.77155 0.0
O185 O 0.63113 0.58697 0.75192 0.0
O186 O 0.68528 0.61352 0.69614 0.0
O187 O 0.66396 0.62802 0.64654 0.0
O188 O 0.59887 0.58913 0.65378 0.0
O189 O 0.5917 0.55771 0.70729 0.0
O190 O 0.61731 0.55614 0.60332 0.0
O191 O 0.58158 0.50953 0.63213 0.0
H192 H 0.53978 0.3972 0.73438 0.0
H193 H 0.55199 0.36577 0.7834 0.0
H194 H 0.64664 0.44512 0.79771 0.0
H195 H 0.63451 0.47547 0.74799 0.0
H196 H 0.7308 0.61293 0.65829 0.0
H197 H 0.7733 0.63127 0.60631 0.0
H198 H 0.75727 0.70772 0.57149 0.0
H199 H 0.71535 0.68952 0.62371 0.0
Nd200 Nd 0.10296 0.60751 1.02956 0.0
Nd201 Nd 0.04632 0.60227 1.00886 0.0
C202 C 0.15651 0.60784 1.04284 0.0
C203 C 0.18389 0.62869 1.06896 0.0
C204 C 0.18856 0.65834 1.08072 0.0
C205 C 0.20629 0.67351 0.11652 0.0
C206 C 0.21999 0.65937 0.14096 0.0
C207 C 0.21998 0.63261 0.12425 0.0
C208 C 0.20133 0.61689 1.08903 0.0
C209 C 0.11628 0.66867 1.00951 0.0
C210 C 0.05557 0.60395 0.11509 0.0
C211 C -0.00035 0.61146 0.98664 0.0
C212 C 0.98957 0.62503 0.95305 0.0
C213 C 0.00213 0.62927 0.91212 0.0
C214 C -0.00744 0.64272 0.88068 0.0
C215 C 0.97041 0.65219 0.8898 0.0
C216 C 0.95841 0.64854 0.93111 0.0
C217 C 0.96792 0.63491 0.96257 0.0
C218 C 0.042 0.54799 1.0441 0.0
C219 C 0.07317 0.57737 0.92924 0.0
O220 O 0.1307 0.5902 1.0644 0.0
O221 O 0.15157 0.62094 1.00984 0.0
O222 O 0.12234 0.66011 1.04552 0.0
O223 O 0.09696 0.64355 0.98946 0.0
O224 O 0.08077 0.6016 1.1025 0.0
O225 O 0.04051 0.60878 1.08333 0.0
O226 O 0.02405 0.63183 1.00874 0.0
O227 O 0.00015 0.58555 0.97773 0.0
O228 O 0.02415 0.5591 1.05567 0.0
O229 O 0.05902 0.56453 1.0145 0.0
O230 O 0.05019 0.58293 0.94084 0.0
O231 O 0.09599 0.58445 0.95839 0.0
H232 H 0.17598 0.66832 1.06491 0.0
H233 H 0.20583 0.69423 0.1274 0.0
H234 H 0.23161 0.62188 0.14086 0.0
H235 H 0.19847 0.59427 1.0798 0.0
H236 H 0.01927 0.62221 0.90454 0.0
H237 H 0.00253 0.64579 0.84914 0.0
H238 H 0.9413 0.6556 0.93877 0.0
H239 H 0.95833 0.63201 0.99433 0.0
Nd240 Nd 0.89423 0.50139 0.51895 0.0
Nd241 Nd 0.93936 0.55722 0.53686 0.0
C242 C 0.8512 0.44693 0.48555 0.0
C243 C 0.82216 0.43963 0.46299 0.0
C244 C 0.81462 0.4221 0.42552 0.0
C245 C 0.79477 0.42444 0.3958 0.0
C246 C 0.78238 0.44456 0.40315 0.0
C247 C 0.78663 0.4586 0.44322 0.0
C248 C 0.80663 0.45638 0.47277 0.0
C249 C 0.86384 0.5319 0.55324 0.0
C250 C 0.94201 0.54707 0.43287 0.0
C251 C 0.97527 0.61697 0.56029 0.0
C252 C 0.96927 0.64002 0.58144 0.0
C253 C 0.99084 0.6724 0.57729 0.0
C254 C 0.98535 0.69446 0.59793 0.0
C255 C 0.95836 0.68433 0.62345 0.0
C256 C 0.93553 0.65183 0.62419 0.0
C257 C 0.94099 0.62992 0.60343 0.0
C258 C 0.95932 0.51323 0.52121 0.0
C259 C 0.91452 0.50444 0.61977 0.0
O260 O 0.87689 0.46715 0.4659 0.0
O261 O 0.85224 0.4533 0.52576 0.0
O262 O 0.85874 0.50412 0.56195 0.0
O263 O 0.88685 0.54498 0.52629 0.0
O264 O 0.91754 0.51918 0.44628 0.0
O265 O 0.95471 0.56816 0.46374 0.0
O266 O 0.9621 0.60831 0.52321 0.0
O267 O 0.97213 0.59314 0.58299 0.0
O268 O 0.97076 0.5399 0.50125 0.0
O269 O 0.93993 0.51272 0.5464 0.0
O270 O 0.92851 0.53541 0.60947 0.0
O271 O 0.90238 0.48488 0.58684 0.0
H272 H 0.82659 0.40929 0.41726 0.0
H273 H 0.79231 0.41343 0.36518 0.0
H274 H 0.77713 0.4739 0.45005 0.0
H275 H 0.81234 0.4703 0.50138 0.0
H276 H 0.01227 0.68058 0.55899 0.0
H277 H 0.0031 0.71926 0.59586 0.0
H278 H 0.91446 0.64282 0.64344 0.0
H279 H 0.92358 0.60498 0.60567 0.0
Nd280 Nd 0.38179 0.89355 0.85318 0.0
Nd281 Nd 0.37103 0.9396 0.87421 0.0
C282 C 0.40061 0.85581 0.82048 0.0
C283 C 0.38847 0.82377 0.80399 0.0
C284 C 0.40754 0.81004 0.80638 0.0
C285 C 0.39953 0.78255 0.78366 0.0
C286 C 0.37251 0.76872 0.75778 0.0
C287 C 0.35178 0.78075 0.75914 0.0
C288 C 0.35972 0.80813 0.78211 0.0
C289 C 0.32025 0.86122 0.88589 0.0
C290 C 0.38354 0.94299 0.76933 0.0
C291 C 0.3501 0.97743 0.89924 0.0
C292 C 0.333 0.98356 0.93223 0.0
C293 C 0.32446 0.96652 0.97039 0.0
C294 C 0.31077 0.97499 1.00284 0.0
C295 C 0.30565 0.00068 0.99748 0.0
C296 C 0.3127 0.01647 0.95823 0.0
C297 C 0.32632 0.00795 0.92585 0.0
C298 C 0.43418 0.95905 0.85649 0.0
C299 C 0.39947 0.91423 0.95535 0.0
O300 O 0.39513 0.87495 0.79794 0.0
O301 O 0.39779 0.8586 0.86101 0.0
O302 O 0.34204 0.85425 0.89058 0.0
O303 O 0.33098 0.88636 0.86229 0.0
O304 O 0.38709 0.91838 0.78161 0.0
O305 O 0.37509 0.95518 0.80092 0.0
O306 O 0.33371 0.95249 0.87572 0.0
O307 O 0.37786 0.9818 0.90917 0.0
O308 O 0.41913 0.97083 0.837 0.0
O309 O 0.41529 0.93912 0.88143 0.0
O310 O 0.38328 0.92906 0.94596 0.0
O311 O 0.40525 0.90096 0.92215 0.0
H312 H 0.42965 0.82167 0.82359 0.0
H313 H 0.41577 0.77363 0.78353 0.0
H314 H 0.33095 0.77088 0.73927 0.0
H315 H 0.3445 0.81824 0.7804 0.0
H316 H 0.32926 0.94742 0.97549 0.0
H317 H 0.30526 0.96224 1.03269 0.0
H318 H 0.30937 0.03654 0.95337 0.0
H319 H 0.3327 0.02118 0.89632 0.0
Nd320 Nd 0.48979 0.4042 0.18954 0.0
Nd321 Nd 0.43578 0.36672 0.20938 0.0
C322 C 0.54643 0.43893 0.15507 0.0
C323 C 0.56952 0.4313 0.13759 0.0
C324 C 0.55986 0.40013 0.12581 0.0
C325 C 0.57913 0.39376 1.10009 0.0
C326 C 0.60854 0.41849 1.08605 0.0
C327 C 0.61965 0.44905 1.10256 0.0
C328 C 0.60007 0.45548 0.12774 0.0
C329 C 0.48423 0.34475 0.21586 0.0
C330 C 0.44141 0.38891 1.10426 0.0
C331 C 0.38332 0.3178 0.23947 0.0
C332 C 0.36881 0.29631 0.27562 0.0
C333 C 0.34548 0.26485 0.2681 0.0
C334 C 0.3258 0.24618 0.30111 0.0
C335 C 0.329 0.25895 0.34199 0.0
C336 C 0.35451 0.28963 0.34987 0.0
C337 C 0.37431 0.30801 0.31709 0.0
C338 C 0.43083 0.41718 0.19088 0.0
C339 C 0.48733 0.41686 0.28872 0.0
O340 O 0.52014 0.42743 0.13382 0.0
O341 O 0.54178 0.43562 0.1959 0.0
O342 O 0.50335 0.37235 0.23094 0.0
O343 O 0.46758 0.34879 0.18841 0.0
O344 O 0.47002 0.40843 0.1199 0.0
O345 O 0.42282 0.36683 0.13301 0.0
O346 O 0.40353 0.31466 0.21627 0.0
O347 O 0.3912 0.34724 0.24508 0.0
O348 O 0.41313 0.38951 0.17488 0.0
O349 O 0.45402 0.41907 0.21223 0.0
O350 O 0.46069 0.38894 0.28034 0.0
O351 O 0.50294 0.43178 0.25416 0.0
H352 H 0.5364 0.38108 0.13368 0.0
H353 H 0.56956 0.36997 1.08806 0.0
H354 H 0.6425 0.46849 1.0933 0.0
H355 H 0.60803 0.47962 0.1372 0.0
H356 H 0.34113 0.25537 0.23618 0.0
H357 H 0.30699 0.22248 0.294 0.0
H358 H 0.35779 0.30077 0.38054 0.0
H359 H 0.39237 0.33218 0.32367 0.0
Nd360 Nd 0.08309 0.4853 0.51366 0.0
Nd361 Nd 0.05356 0.42655 0.53786 0.0
C362 C 0.11011 0.54717 0.50213 0.0
C363 C 0.11375 0.57236 0.47352 0.0
C364 C 0.10429 0.56591 0.43105 0.0
C365 C 0.11528 0.59062 0.40166 0.0
C366 C 0.136 0.62201 0.41444 0.0
C367 C 0.14271 0.62848 0.45781 0.0
C368 C 0.13166 0.60374 0.48716 0.0
C369 C 0.12663 0.46576 0.53861 0.0
C370 C 0.04788 0.43966 0.42856 0.0
C371 C 0.0445 0.36869 0.54538 0.0
C372 C 0.05057 0.34946 0.57535 0.0
C373 C 0.04208 0.31842 0.56456 0.0
C374 C 0.04128 0.2976 0.59569 0.0
C375 C 0.04859 0.30754 0.63812 0.0
C376 C 0.05993 0.33965 0.64767 0.0
C377 C 0.06094 0.36043 0.61649 0.0
C378 C 0.00568 0.43603 0.52313 0.0
C379 C 0.0653 0.4766 0.61824 0.0
O380 O 0.08327 0.53061 0.52196 0.0
O381 O 0.12207 0.53012 0.4889 0.0
O382 O 0.12619 0.47708 0.50138 0.0
O383 O 0.10278 0.46218 0.55857 0.0
O384 O 0.06341 0.46956 0.44209 0.0
O385 O 0.04316 0.41855 0.45971 0.0
O386 O 0.06898 0.39159 0.52602 0.0
O387 O 0.02427 0.3769 0.55824 0.0
O388 O 0.00828 0.42346 0.55825 0.0
O389 O 0.03109 0.44916 0.50146 0.0
O390 O 0.05781 0.44675 0.60958 0.0
O391 O 0.0731 0.49558 0.58459 0.0
H392 H 0.09048 0.54173 0.4201 0.0
H393 H 0.10988 0.58476 0.36843 0.0
H394 H 0.15833 0.65242 0.46856 0.0
H395 H 0.13906 0.60901 0.51999 0.0
H396 H 0.03423 0.30975 0.53269 0.0
H397 H 0.03294 0.27323 0.58712 0.0
H398 H 0.06539 0.34824 0.67996 0.0
H399 H 0.06767 0.38444 0.6252 0.0
Nd400 Nd 0.58665 0.08704 0.84769 0.0
Nd401 Nd 0.61806 0.05998 0.87059 0.0
C402 C 0.55248 0.11474 0.83518 0.0
C403 C 0.56084 0.14725 0.82457 0.0
C404 C 0.53743 0.15393 0.81196 0.0
C405 C 0.54561 0.18126 0.78833 0.0
C406 C 0.57711 0.2012 0.77514 0.0
C407 C 0.60074 0.19681 0.794 0.0
C408 C 0.59259 0.17012 0.81871 0.0
C409 C 0.65042 0.13349 0.86786 0.0
C410 C 0.5988 0.05317 0.76214 0.0
C411 C 0.66894 0.05459 0.87673 0.0
C412 C 0.6969 0.06604 0.9036 0.0
C413 C 0.69798 0.07964 0.94297 0.0
C414 C 0.72234 0.08616 0.97121 0.0
C415 C 0.74594 0.07885 0.96076 0.0
C416 C 0.74612 0.06769 0.91971 0.0
C417 C 0.72167 0.06128 0.89133 0.0
C418 C 0.56134 0.00966 0.85735 0.0
C419 C 0.57585 0.06665 0.95001 0.0
O420 O 0.55914 0.10049 0.80557 0.0
O421 O 0.56054 0.11 0.87266 0.0
O422 O 0.6365 0.1322 0.83227 0.0
O423 O 0.6316 0.1095 0.88904 0.0
O424 O 0.58406 0.06822 0.77577 0.0
O425 O 0.61531 0.04876 0.79308 0.0
O426 O 0.66755 0.07579 0.85285 0.0
O427 O 0.64197 0.03501 0.89482 0.0
O428 O 0.578 0.01274 0.89104 0.0
O429 O 0.57187 0.03524 0.8362 0.0
O430 O 0.60254 0.06622 0.94193 0.0
O431 O 0.56119 0.06839 0.91536 0.0
H432 H 0.51275 0.13681 0.81713 0.0
H433 H 0.52683 0.18475 0.77652 0.0
H434 H 0.62536 0.21157 0.78572 0.0
H435 H 0.61105 0.1658 0.82935 0.0
H436 H 0.67896 0.08339 0.9529 0.0
H437 H 0.72093 0.09427 1.00264 0.0
H438 H 0.76401 0.06205 0.91055 0.0
H439 H 0.72124 0.05105 0.86069 0.0
Nd440 Nd 0.50609 0.61083 0.18922 0.0
Nd441 Nd 0.55735 0.60795 0.21688 0.0
C442 C 0.45057 0.60608 0.17413 0.0
C443 C 0.42613 0.59649 0.14178 0.0
C444 C 0.39889 0.59798 0.15077 0.0
C445 C 0.3776 0.5937 0.11838 0.0
C446 C 0.38324 0.58748 1.07684 0.0
C447 C 0.40998 0.58473 1.0685 0.0
C448 C 0.43141 0.5895 1.10066 0.0
C449 C 0.54977 0.67134 0.2171 0.0
C450 C 0.55013 0.6046 1.10732 0.0
C451 C 0.61696 0.62495 0.23074 0.0
C452 C 0.64169 0.6364 0.26321 0.0
C453 C 0.67272 0.65888 0.25194 0.0
C454 C 0.69702 0.66904 0.28169 0.0
C455 C 0.69058 0.65678 0.32317 0.0
C456 C 0.65934 0.63425 0.33427 0.0
C457 C 0.63509 0.62428 0.30464 0.0
C458 C 0.50668 0.54937 0.20005 0.0
C459 C 0.50544 0.58668 0.29504 0.0
O460 O 0.4536 0.58396 0.19298 0.0
O461 O 0.47763 0.63076 0.16458 0.0
O462 O 0.53819 0.66447 0.1791 0.0
O463 O 0.54314 0.6455 0.23615 0.0
O464 O 0.52275 0.60351 0.11759 0.0
O465 O 0.56849 0.60845 0.14102 0.0
O466 O 0.60809 0.64471 0.21756 0.0
O467 O 0.59359 0.5959 0.23465 0.0
O468 O 0.52557 0.55507 0.23207 0.0
O469 O 0.51735 0.57351 0.17677 0.0
O470 O 0.53483 0.59346 0.28621 0.0
O471 O 0.48987 0.59116 0.2627 0.0
H472 H 0.3948 0.60377 0.18243 0.0
H473 H 0.3573 0.59611 0.12546 0.0
H474 H 0.41525 0.5806 1.03655 0.0
H475 H 0.45256 0.58866 1.0932 0.0
H476 H 0.67818 0.6684 0.21997 0.0
H477 H 0.72075 0.68659 0.27233 0.0
H478 H 0.65367 0.6239 0.36576 0.0
H479 H 0.6113 0.60683 0.31397 0.0
C480 C 0.47956 0.17628 0.28031 0.0
C481 C 0.47641 0.17014 0.32451 0.0
C482 C 0.4806 0.20367 0.26182 0.0
C483 C 0.47717 0.22593 0.28719 0.0
C484 C 0.47299 0.21927 0.33175 0.0
C485 C 0.47333 0.19236 0.34963 0.0
C486 C 0.48589 0.20895 0.21466 0.0
C487 C 0.46773 0.24055 0.36095 0.0
C488 C 0.50834 0.31393 0.25086 0.0
C489 C 0.48213 0.3136 0.23145 0.0
C490 C 0.50724 0.28608 0.2676 0.0
C491 C 0.47872 0.25618 0.26754 0.0
C492 C 0.45196 0.25574 0.24847 0.0
C493 C 0.45416 0.28377 0.23009 0.0
C494 C 0.5371 0.28881 0.28524 0.0
C495 C 0.42048 0.22558 0.24773 0.0
H496 H 0.482 0.15986 0.25986 0.0
H497 H 0.47061 0.18843 0.38361 0.0
H498 H 0.4642 0.20595 0.19934 0.0
H499 H 0.50512 0.23346 0.20808 0.0
H500 H 0.49202 0.19215 0.19982 0.0
H501 H 0.45981 0.22997 0.39301 0.0
H502 H 0.48999 0.26343 0.36442 0.0
H503 H 0.44982 0.24562 0.34736 0.0
H504 H 0.53027 0.33629 0.2526 0.0
H505 H 0.43344 0.28235 0.21569 0.0
H506 H 0.54092 0.27002 0.27186 0.0
H507 H 0.53499 0.2855 0.32015 0.0
H508 H 0.55814 0.31218 0.27821 0.0
H509 H 0.4202 0.21039 0.22148 0.0
H510 H 0.40078 0.23027 0.24254 0.0
H511 H 0.41622 0.21217 0.27785 0.0
C512 C 0.29114 0.49223 0.64498 0.0
C513 C 0.29234 0.46468 0.65504 0.0
C514 C 0.26384 0.4913 0.62759 0.0
C515 C 0.23632 0.462 0.61799 0.0
C516 C 0.23726 0.43393 0.62808 0.0
C517 C 0.26478 0.43556 0.64674 0.0
C518 C 0.26467 0.52209 0.61913 0.0
C519 C 0.2094 0.40197 0.61793 0.0
C520 C 0.15612 0.46024 0.6027 0.0
C521 C 0.15418 0.46359 0.55841 0.0
C522 C 0.18205 0.45939 0.62213 0.0
C523 C 0.20716 0.46112 0.59721 0.0
C524 C 0.2049 0.46373 0.55233 0.0
C525 C 0.17903 0.46528 0.53379 0.0
C526 C 0.18291 0.45739 0.66985 0.0
C527 C 0.23008 0.46501 0.52356 0.0
H528 H 0.31197 0.51501 0.65073 0.0
H529 H 0.26509 0.41395 0.65322 0.0
H530 H 0.26262 0.52498 0.58455 0.0
H531 H 0.24431 0.52193 0.63475 0.0
H532 H 0.28676 0.54285 0.63072 0.0
H533 H 0.18809 0.39881 0.63464 0.0
H534 H 0.20439 0.4004 0.58338 0.0
H535 H 0.21345 0.38234 0.6271 0.0
H536 H 0.13748 0.45893 0.62261 0.0
H537 H 0.17824 0.4677 0.49968 0.0
H538 H 0.20428 0.47851 0.68224 0.0
H539 H 0.18445 0.43636 0.67935 0.0
H540 H 0.16179 0.45593 0.68509 0.0
H541 H 0.25279 0.48698 0.52962 0.0
H542 H 0.22404 0.46443 0.48945 0.0
H543 H 0.23372 0.44479 0.53042 0.0
C544 C 0.78832 0.28578 0.99998 0.0
C545 C 0.81948 0.2979 0.985 0.0
C546 C 0.76163 0.25999 0.98 0.0
C547 C 0.76531 0.24433 0.94424 0.0
C548 C 0.79683 0.25613 0.92936 0.0
C549 C 0.82306 0.28271 0.94915 0.0
C550 C 0.72916 0.24971 0.99715 0.0
C551 C 0.803 0.24038 0.89253 0.0
C552 C 0.69638 0.15839 0.921 0.0
C553 C 0.68052 0.16191 0.88582 0.0
C554 C 0.724 0.18431 0.93909 0.0
C555 C 0.73642 0.21569 0.92315 0.0
C556 C 0.72031 0.21945 0.88778 0.0
C557 C 0.69326 0.19286 0.8694 0.0
C558 C 0.74007 0.17792 0.97546 0.0
C559 C 0.73124 0.25192 0.86974 0.0
H560 H 0.78458 0.29696 1.02724 0.0
H561 H 0.8466 0.29134 0.93678 0.0
H562 H 0.71395 0.25024 0.97141 0.0
H563 H 0.71802 0.22499 1.00884 0.0
H564 H 0.72969 0.26498 1.02353 0.0
H565 H 0.79257 0.21473 0.89906 0.0
H566 H 0.7915 0.24273 0.86353 0.0
H567 H 0.82861 0.25074 0.88608 0.0
H568 H 0.68721 0.13501 0.93445 0.0
H569 H 0.68152 0.19652 0.84267 0.0
H570 H 0.74003 0.1911 1.004 0.0
H571 H 0.76508 0.18642 0.96718 0.0
H572 H 0.72845 0.15238 0.98362 0.0
H573 H 0.73102 0.2676 0.89497 0.0
H574 H 0.7162 0.25144 0.84303 0.0
H575 H 0.75589 0.26252 0.85829 0.0
C576 C 0.55055 0.70412 0.28266 0.0
C577 C 0.55368 0.70148 0.23849 0.0
C578 C 0.55001 0.73072 0.30096 0.0
C579 C 0.55264 0.75604 0.27511 0.0
C580 C 0.55688 0.75385 0.23076 0.0
C581 C 0.5573 0.72713 0.21338 0.0
C582 C 0.54542 0.7311 0.3482 0.0
C583 C 0.55973 0.77937 0.20097 0.0
C584 C 0.51117 0.80301 0.3076 0.0
C585 C 0.53562 0.83306 0.32114 0.0
C586 C 0.51641 0.77832 0.29401 0.0
C587 C 0.54725 0.78258 0.29305 0.0
C588 C 0.57229 0.81261 0.30733 0.0
C589 C 0.56631 0.83723 0.3211 0.0
C590 C 0.48848 0.74752 0.27961 0.0
C591 C 0.60569 0.81899 0.30729 0.0
H592 H 0.5474 0.68483 0.30298 0.0
H593 H 0.55966 0.72596 0.17933 0.0
H594 H 0.56312 0.75428 0.36161 0.0
H595 H 0.52175 0.72792 0.35472 0.0
H596 H 0.54734 0.71207 0.36483 0.0
H597 H 0.56581 0.77611 0.16812 0.0
H598 H 0.53705 0.77926 0.20011 0.0
H599 H 0.57804 0.80296 0.21249 0.0
H600 H 0.48718 0.79854 0.30705 0.0
H601 H 0.58577 0.8599 0.33084 0.0
H602 H 0.48734 0.72749 0.29775 0.0
H603 H 0.49123 0.74357 0.2456 0.0
H604 H 0.46576 0.74708 0.28368 0.0
H605 H 0.60707 0.80003 0.32489 0.0
H606 H 0.62236 0.84217 0.32178 0.0
H607 H 0.61329 0.81875 0.27418 0.0
C608 C 0.70927 0.55051 0.61416 0.0
C609 C 0.70238 0.54479 0.65794 0.0
C610 C 0.73662 0.5522 0.59546 0.0
C611 C 0.75872 0.54847 0.6206 0.0
C612 C 0.75232 0.54357 0.66506 0.0
C613 C 0.72455 0.54164 0.68291 0.0
C614 C 0.74113 0.55674 0.54811 0.0
C615 C 0.77468 0.53972 0.69396 0.0
C616 C 0.80665 0.51315 0.57058 0.0
C617 C 0.83747 0.5391 0.56422 0.0
C618 C 0.78147 0.51616 0.58748 0.0
C619 C 0.78619 0.54606 0.60005 0.0
C620 C 0.81708 0.57277 0.59323 0.0
C621 C 0.84209 0.56908 0.57538 0.0
C622 C 0.74964 0.4867 0.59293 0.0
C623 C 0.82389 0.60539 0.60524 0.0
H624 H 0.6928 0.55313 0.594 0.0
H625 H 0.72011 0.53741 0.71666 0.0
H626 H 0.76584 0.5748 0.54045 0.0
H627 H 0.73645 0.53424 0.53329 0.0
H628 H 0.72502 0.56395 0.53365 0.0
H629 H 0.76831 0.53884 0.72797 0.0
H630 H 0.77454 0.51757 0.68602 0.0
H631 H 0.79912 0.55958 0.68913 0.0
H632 H 0.8021 0.48963 0.56323 0.0
H633 H 0.86547 0.5895 0.57186 0.0
H634 H 0.73114 0.48972 0.57697 0.0
H635 H 0.7435 0.48256 0.62715 0.0
H636 H 0.74903 0.46535 0.57977 0.0
H637 H 0.81174 0.61316 0.58265 0.0
H638 H 0.84955 0.62292 0.60446 0.0
H639 H 0.81465 0.6052 0.63745 0.0
C640 C 0.27983 0.80343 0.90026 0.0
C641 C 0.28603 0.83495 0.89612 0.0
C642 C 0.25091 0.77808 0.9161 0.0
C643 C 0.22597 0.78306 0.92895 0.0
C644 C 0.23139 0.81457 0.92373 0.0
C645 C 0.26097 0.83986 0.90768 0.0
C646 C 0.24757 0.74578 0.92045 0.0
C647 C 0.20609 0.82183 0.93634 0.0
C648 C 0.14329 0.70583 0.94441 0.0
C649 C 0.14197 0.69964 0.98847 0.0
C650 C 0.16929 0.73318 0.9251 0.0
C651 C 0.19558 0.75561 0.94967 0.0
C652 C 0.1939 0.74974 0.99423 0.0
C653 C 0.16762 0.7225 1.01267 0.0
C654 C 0.16897 0.73761 0.87778 0.0
C655 C 0.22069 0.77182 1.02269 0.0
H656 H 0.2983 0.79842 0.89184 0.0
H657 H 0.26478 0.86365 0.90575 0.0
H658 H 0.24473 0.7388 0.95443 0.0
H659 H 0.22614 0.7279 0.9036 0.0
H660 H 0.26828 0.74503 0.90761 0.0
H661 H 0.18326 0.80454 0.9217 0.0
H662 H 0.20283 0.81955 0.97128 0.0
H663 H 0.21203 0.84609 0.92679 0.0
H664 H 0.12425 0.68883 0.92462 0.0
H665 H 0.16769 0.71865 1.04656 0.0
H666 H 0.18751 0.73423 0.86271 0.0
H667 H 0.17445 0.76205 0.87036 0.0
H668 H 0.14586 0.72064 0.86344 0.0
H669 H 0.24229 0.77111 1.01421 0.0
H670 H 0.21541 0.76554 1.0568 0.0
H671 H 0.22596 0.79649 1.01798 0.0
C672 C 0.52948 0.05127 1.00629 0.0
C673 C 0.56234 0.06603 0.99683 0.0
C674 C 0.51654 0.05088 1.04817 0.0
C675 C 0.53601 0.06737 1.08434 0.0
C676 C 0.56936 0.08291 1.07459 0.0
C677 C 0.58158 0.08136 1.03287 0.0
C678 C 0.48121 0.03169 1.0527 0.0
C679 C 0.59324 0.10218 1.10808 0.0
C680 C 0.49046 0.08355 0.18061 0.0
C681 C 0.49624 0.07103 0.2183 0.0
C682 C 0.50329 0.08324 0.13883 0.0
C683 C 0.52199 0.06843 0.13087 0.0
C684 C 0.52687 0.05472 0.16882 0.0
C685 C 0.51522 0.05701 0.21055 0.0
C686 C 0.49667 0.09972 1.10325 0.0
C687 C 0.54414 0.03654 0.16646 0.0
H688 H 0.51319 0.03897 0.9806 0.0
H689 H 0.6069 0.09347 1.02827 0.0
H690 H 0.47334 0.02692 1.08624 0.0
H691 H 0.47057 0.0445 1.03712 0.0
H692 H 0.47195 0.00871 1.03608 0.0
H693 H 0.61398 0.12297 1.09362 0.0
H694 H 0.58329 0.11069 0.13294 0.0
H695 H 0.60187 0.08746 0.12328 0.0
H696 H 0.47643 0.09489 0.18381 0.0
H697 H 0.5206 0.04676 0.23755 0.0
H698 H 0.47298 0.08341 1.08998 0.0
H699 H 0.51435 0.1073 1.07736 0.0
H700 H 0.49624 0.12085 0.11523 0.0
H701 H 0.54667 0.03014 0.13358 0.0
H702 H 0.53156 0.01447 0.18556 0.0
H703 H 0.56792 0.05097 0.18062 0.0
C704 C 0.46562 0.57527 0.36071 0.0
C705 C 0.48904 0.57085 0.33994 0.0
C706 C 0.45044 0.56021 0.40094 0.0
C707 C 0.45732 0.53869 0.42363 0.0
C708 C 0.48057 0.53388 0.40247 0.0
C709 C 0.49599 0.54984 0.36292 0.0
C710 C 0.42646 0.56743 0.41935 0.0
C711 C 0.48931 0.51118 0.42166 0.0
C712 C 0.44058 0.52113 0.54967 0.0
C713 C 0.41211 0.49134 0.55429 0.0
C714 C 0.45481 0.53603 0.50916 0.0
C715 C 0.44125 0.52216 0.46881 0.0
C716 C 0.41254 0.49197 0.47297 0.0
C717 C 0.39879 0.47741 0.51416 0.0
C718 C 0.48515 0.56729 0.50975 0.0
C719 C 0.39607 0.47451 0.43317 0.0
H720 H 0.45893 0.59089 0.34537 0.0
H721 H 0.5134 0.54501 0.34924 0.0
H722 H 0.40336 0.54528 0.42227 0.0
H723 H 0.43375 0.57725 0.45178 0.0
H724 H 0.42338 0.58455 0.39961 0.0
H725 H 0.50111 0.50367 0.39823 0.0
H726 H 0.50534 0.52262 0.44895 0.0
H727 H 0.46807 0.48988 0.4339 0.0
H728 H 0.45232 0.53335 0.57854 0.0
H729 H 0.37714 0.45477 0.51465 0.0
H730 H 0.48215 0.58522 0.49192 0.0
H731 H 0.50395 0.5649 0.49357 0.0
H732 H 0.49306 0.57604 0.54251 0.0
H733 H 0.37381 0.45217 0.44007 0.0
H734 H 0.4119 0.46889 0.4147 0.0
H735 H 0.39069 0.48974 0.41276 0.0
C736 C 0.93164 0.42171 0.85025 0.0
C737 C 0.91136 0.41991 0.88376 0.0
C738 C 0.93325 0.43609 0.80916 0.0
C739 C 0.91336 0.44894 0.79815 0.0
C740 C 0.89242 0.44658 0.83176 0.0
C741 C 0.89219 0.43314 0.873 0.0
C742 C 0.9571 0.4374 0.77786 0.0
C743 C 0.8695 0.45816 0.82467 0.0
C744 C 0.92641 0.50991 0.70298 0.0
C745 C 0.91449 0.49105 0.6659 0.0
C746 C 0.92623 0.49715 0.74484 0.0
C747 C 0.91384 0.46383 0.75238 0.0
C748 C 0.90137 0.44475 0.71495 0.0
C749 C 0.9021 0.4582 0.6736 0.0
C750 C 0.93924 0.52036 0.78092 0.0
C751 C 0.88657 0.40934 0.71801 0.0
H752 H 0.9471 0.41226 0.85623 0.0
H753 H 0.87612 0.43258 0.89704 0.0
H754 H 0.9621 0.45447 0.75165 0.0
H755 H 0.97958 0.44394 0.79432 0.0
H756 H 0.94824 0.41353 0.76417 0.0
H757 H 0.88111 0.48356 0.83312 0.0
H758 H 0.86174 0.45549 0.79108 0.0
H759 H 0.84832 0.44525 0.84518 0.0
H760 H 0.93602 0.53517 0.69958 0.0
H761 H 0.89256 0.44237 0.64673 0.0
H762 H 0.9443 0.51055 0.80966 0.0
H763 H 0.92187 0.52769 0.78937 0.0
H764 H 0.96113 0.54206 0.77086 0.0
H765 H 0.90524 0.40302 0.71457 0.0
H766 H 0.86909 0.39726 0.69228 0.0
H767 H 0.87465 0.40017 0.74903 0.0
C768 C 0.41516 0.9337 1.03554 0.0
C769 C 0.41416 0.91471 1.00071 0.0
C770 C 0.42965 0.93449 1.07626 0.0
C771 C 0.44394 0.91558 1.08505 0.0
C772 C 0.44285 0.89635 1.05003 0.0
C773 C 0.4287 0.89637 1.00957 0.0
C774 C 0.42973 0.95606 1.11033 0.0
C775 C 0.45672 0.87517 1.05533 0.0
C776 C 0.50566 0.93403 0.18045 0.0
C777 C 0.48767 0.9136 0.21441 0.0
C778 C 0.49216 0.93527 0.13977 0.0
C779 C 0.45921 0.91532 0.13007 0.0
C780 C 0.4411 0.89461 0.16417 0.0
C781 C 0.45503 0.89427 0.20469 0.0
C782 C 0.51349 0.95866 1.10688 0.0
C783 C 0.40634 0.87222 0.15785 0.0
H784 H 0.40482 0.94853 1.03095 0.0
H785 H 0.42894 0.88145 0.9844 0.0
H786 H 0.41548 0.94179 0.13778 0.0
H787 H 0.45414 0.97169 0.12193 0.0
H788 H 0.42001 0.97095 1.09891 0.0
H789 H 0.45406 0.86119 1.02632 0.0
H790 H 0.48216 0.88957 1.0631 0.0
H791 H 0.44506 0.85864 1.08226 0.0
H792 H 0.53063 0.94974 0.1858 0.0
H793 H 0.43987 0.87824 0.22917 0.0
H794 H 0.50481 0.97505 1.09855 0.0
H795 H 0.51301 0.94607 1.0774 0.0
H796 H 0.53826 0.97273 0.11802 0.0
H797 H 0.3951 0.85692 0.18603 0.0
H798 H 0.40263 0.85695 0.12993 0.0
H799 H 0.39427 0.88581 0.15114 0.0
C800 C 0.5345 0.45274 0.34157 0.0
C801 C 0.50152 0.43169 0.33499 0.0
C802 C 0.54905 0.46714 0.38214 0.0
C803 C 0.53115 0.46322 0.42044 0.0
C804 C 0.49754 0.44207 0.41386 0.0
C805 C 0.48383 0.42675 0.37309 0.0
C806 C 0.58456 0.48624 0.383 0.0
C807 C 0.47475 0.43515 0.44985 0.0
C808 C 0.55905 0.47806 0.54466 0.0
C809 C 0.57747 0.51144 0.55119 0.0
C810 C 0.54525 0.46283 0.50414 0.0
C811 C 0.54724 0.48018 0.46584 0.0
C812 C 0.56578 0.51419 0.47242 0.0
C813 C 0.58042 0.52868 0.51315 0.0
C814 C 0.52926 0.42728 0.50335 0.0
C815 C 0.57093 0.53676 0.4366 0.0
H816 H 0.54982 0.4577 0.31437 0.0
H817 H 0.45852 0.41121 0.37111 0.0
H818 H 0.5943 0.48896 0.41549 0.0
H819 H 0.59475 0.47499 0.36285 0.0
H820 H 0.59242 0.51001 0.36937 0.0
H821 H 0.46821 0.41179 0.46379 0.0
H822 H 0.48469 0.45333 0.47512 0.0
H823 H 0.45261 0.43346 0.438 0.0
H824 H 0.55584 0.46304 0.57178 0.0
H825 H 0.59407 0.55424 0.51504 0.0
H826 H 0.52636 0.41766 0.47079 0.0
H827 H 0.50576 0.41722 0.51863 0.0
H828 H 0.54299 0.41912 0.52223 0.0
H829 H 0.59607 0.54869 0.42678 0.0
H830 H 0.56622 0.55554 0.4477 0.0
H831 H 0.55599 0.52516 0.40856 0.0
C832 C 0.04594 0.55018 0.85606 0.0
C833 C 0.07234 0.56195 0.88402 0.0
C834 C 0.04423 0.53573 0.81509 0.0
C835 C 0.06973 0.53248 0.79822 0.0
C836 C 0.09655 0.54443 0.82618 0.0
C837 C 0.09741 0.5583 0.86748 0.0
C838 C 0.01425 0.52407 0.79012 0.0
C839 C 0.12503 0.54281 0.81214 0.0
C840 C 0.05807 0.47191 0.7031 0.0
C841 C 0.06596 0.49004 0.66487 0.0
C842 C 0.05903 0.4848 0.7452 0.0
C843 C 0.06865 0.51756 0.75212 0.0
C844 C 0.07654 0.53583 0.71365 0.0
C845 C 0.07512 0.52234 0.67205 0.0
C846 C 0.04974 0.46272 0.78268 0.0
C847 C 0.08663 0.57036 0.71635 0.0
H848 H 0.02581 0.55198 0.86633 0.0
H849 H 0.11834 0.56667 0.88689 0.0
H850 H 0.01307 0.54474 0.77785 0.0
H851 H 0.01231 0.50885 0.76295 0.0
H852 H -0.00639 0.51049 0.81127 0.0
H853 H 0.14472 0.55402 0.83529 0.0
H854 H 0.11854 0.51774 0.80798 0.0
H855 H 0.13335 0.55473 0.78089 0.0
H856 H 0.05093 0.44713 0.70035 0.0
H857 H 0.08147 0.53768 0.64453 0.0
H858 H 0.0375 0.4688 0.80731 0.0
H859 H 0.07132 0.46479 0.79718 0.0
H860 H 0.03418 0.43773 0.77304 0.0
H861 H 0.06694 0.5729 0.72921 0.0
H862 H 0.09364 0.58238 0.68499 0.0
H863 H 0.10678 0.58248 0.73862 0.0
C864 C 0.3137 0.01829 1.07235 0.0
C865 C 0.29735 0.01381 1.03427 0.0
C866 C 0.30945 0.03394 1.10642 0.0
C867 C 0.28799 0.0453 1.10253 0.0
C868 C 0.27054 0.03996 1.06461 0.0
C869 C 0.2757 0.02452 1.03063 0.0
C870 C 0.32884 0.03902 0.14613 0.0
C871 C 0.24729 0.05131 1.05894 0.0
C872 C 0.27918 0.05789 0.21492 0.0
C873 C 0.30747 0.08683 0.21948 0.0
C874 C 0.26762 0.04593 0.17442 0.0
C875 C 0.2852 0.06318 0.13859 0.0
C876 C 0.30857 0.09534 0.14329 0.0
C877 C 0.31935 0.10706 0.18417 0.0
C878 C 0.24064 0.01246 0.17033 0.0
C879 C 0.32622 0.11537 1.10547 0.0
H880 H 0.33095 0.01069 1.07495 0.0
H881 H 0.26303 0.0211 1.0011 0.0
H882 H 0.34375 0.06467 0.15258 0.0
H883 H 0.3131 0.02794 0.17385 0.0
H884 H 0.34455 0.02883 0.14353 0.0
H885 H 0.2277 0.03526 1.03762 0.0
H886 H 0.23718 0.05317 1.08956 0.0
H887 H 0.25947 0.07504 1.04382 0.0
H888 H 0.2687 0.04235 0.242 0.0
H889 H 0.34001 0.13031 0.18776 0.0
H890 H 0.25014 -0.0039 0.16926 0.0
H891 H 0.22718 0.0094 0.14066 0.0
H892 H 0.22438 0.00574 0.19792 0.0
H893 H 0.3445 0.1096 1.09568 0.0
H894 H 0.33813 0.14098 0.11309 0.0
H895 H 0.31005 0.11046 1.07826 0.0
C896 C 0.27151 0.22821 0.36184 0.0
C897 C 0.30339 0.24353 0.3742 0.0
C898 C 0.24795 0.22433 0.39062 0.0
C899 C 0.25686 0.2377 0.43156 0.0
C900 C 0.28816 0.24867 0.44586 0.0
C901 C 0.31065 0.25009 0.4173 0.0
C902 C 0.21423 0.20846 0.37555 0.0
C903 C 0.29919 0.26272 0.48954 0.0
C904 C 0.23622 0.29524 0.47514 0.0
C905 C 0.233 0.28593 0.51783 0.0
C906 C 0.23961 0.27703 0.44367 0.0
C907 C 0.23721 0.24784 0.45515 0.0
C908 C 0.22507 0.23472 0.4955 0.0
C909 C 0.22403 0.25433 0.52712 0.0
C910 C 0.25032 0.29131 0.4 0.0
C911 C 0.21706 0.20157 0.50699 0.0
H912 H 0.26502 0.22171 0.32899 0.0
H913 H 0.33484 0.25979 0.42774 0.0
H914 H 0.19735 0.20479 0.40141 0.0
H915 H 0.21191 0.22272 0.34983 0.0
H916 H 0.20769 0.18512 0.3616 0.0
H917 H 0.32476 0.27175 0.49446 0.0
H918 H 0.29476 0.28261 0.49451 0.0
H919 H 0.28606 0.24462 0.5142 0.0
H920 H 0.24045 0.31864 0.46719 0.0
H921 H 0.21964 0.24578 0.55956 0.0
H922 H 0.23391 0.27504 0.3757 0.0
H923 H 0.27416 0.29501 0.3932 0.0
H924 H 0.25126 0.31439 0.39664 0.0
H925 H 0.21477 0.18726 0.4785 0.0
H926 H 0.19454 0.1897 0.52502 0.0
H927 H 0.23552 0.2023 0.52811 0.0
C928 C 0.05444 0.29262 0.7122 0.0
C929 C 0.03822 0.28417 0.67342 0.0
C930 C 0.03855 0.27883 0.75022 0.0
C931 C 0.00611 0.25578 0.74882 0.0
C932 C -0.00801 0.24236 0.70948 0.0
C933 C 0.00809 0.25704 0.67193 0.0
C934 C 0.05502 0.29265 0.79172 0.0
C935 C 0.95817 0.21597 0.70694 0.0
C936 C 0.96414 0.23696 0.85553 0.0
C937 C 0.9547 0.25971 0.85654 0.0
C938 C 0.97925 0.2337 0.81957 0.0
C939 C 0.98565 0.25425 0.78453 0.0
C940 C 0.9746 0.27606 0.78468 0.0
C941 C 0.95913 0.27831 0.82051 0.0
C942 C 0.98957 0.20939 0.82041 0.0
C943 C 0.98076 0.29857 0.74805 0.0
H944 H 0.07832 0.31253 0.71336 0.0
H945 H -0.00457 0.24952 0.64213 0.0
H946 H 0.04748 0.30909 0.80394 0.0
H947 H 0.04857 0.27376 0.81576 0.0
H948 H 0.08108 0.30599 0.78797 0.0
H949 H 0.95357 0.2026 0.67681 0.0
H950 H 0.95213 0.19941 0.73413 0.0
H951 H 0.94236 0.22609 0.70805 0.0
H952 H 0.96059 0.22238 0.8833 0.0
H953 H 0.95239 0.2963 0.82129 0.0
H954 H 0.01272 0.21952 0.83662 0.0
H955 H -0.00799 0.20198 0.78805 0.0
H956 H 0.97254 0.18814 0.8387 0.0
H957 H 0.00654 0.31388 0.74301 0.0
H958 H 0.97055 0.31405 0.75348 0.0
H959 H 0.9705 0.28512 0.7184 0.0
C960 C 0.73545 0.01427 0.18518 0.0
C961 C 0.703 0.00316 0.18159 0.0
C962 C 0.75587 0.02897 0.15063 0.0
C963 C 0.74349 0.03325 0.11219 0.0
C964 C 0.71051 0.0211 1.10823 0.0
C965 C 0.6908 0.00612 0.14286 0.0
C966 C 0.79059 0.0408 0.15632 0.0
C967 C 0.69588 0.02505 1.06802 0.0
C968 C 0.77273 0.09558 1.03107 0.0
C969 C 0.76456 0.07565 0.99566 0.0
C970 C 0.77221 0.08368 1.07178 0.0
C971 C 0.76411 0.05168 1.07615 0.0
C972 C 0.76484 0.03501 1.04007 0.0
C973 C 0.76469 0.04709 0.99972 0.0
C974 C 0.77415 0.1032 1.1098 0.0
C975 C 0.75934 0.0019 1.04387 0.0
H976 H 0.74495 0.01192 0.21519 0.0
H977 H 0.66585 -0.00187 0.14021 0.0
H978 H 0.80281 0.04329 0.12571 0.0
H979 H 0.80177 0.06426 0.17196 0.0
H980 H 0.79423 0.02463 0.17733 0.0
H981 H 0.66988 0.01425 1.07059 0.0
H982 H 0.70603 0.05053 1.06067 0.0
H983 H 0.70093 0.01388 1.04089 0.0
H984 H 0.77461 0.11855 1.02775 0.0
H985 H 0.7598 0.03188 0.97244 0.0
H986 H 0.78622 0.09885 0.13656 0.0
H987 H 0.74993 0.09636 0.12031 0.0
H988 H 0.78691 0.12886 1.10217 0.0
H989 H 0.7694 -0.00407 1.0162 0.0
H990 H 0.73358 0.98489 1.04479 0.0
H991 H 0.7699 -0.00101 1.07351 0.0
C992 C 0.80001 0.70418 0.52257 0.0
C993 C 0.78427 0.67444 0.54249 0.0
C994 C 0.79848 0.70651 0.4783 0.0
C995 C 0.78067 0.67855 0.4546 0.0
C996 C 0.77233 0.64908 0.47338 0.0
C997 C 0.77434 0.64735 0.51752 0.0
C998 C 0.81081 0.73858 0.45822 0.0
C999 C 0.75548 0.61873 0.44851 0.0
C1000 C 0.71018 0.67189 0.39705 0.0
C1001 C 0.71607 0.66707 0.35512 0.0
C1002 C 0.73188 0.67728 0.42924 0.0
C1003 C 0.76082 0.67873 0.4191 0.0
C1004 C 0.76813 0.6766 0.37622 0.0
C1005 C 0.74545 0.67042 0.34468 0.0
C1006 C 0.72284 0.67973 0.47442 0.0
C1007 C 0.79903 0.67933 0.36332 0.0
H1008 H 0.80946 0.72543 0.54164 0.0
H1009 H 0.76324 0.62424 0.53233 0.0
H1010 H 0.81774 0.73852 0.42468 0.0
H1011 H 0.79204 0.74495 0.45866 0.0
H1012 H 0.8314 0.75698 0.47606 0.0
H1013 H 0.75636 0.59909 0.46504 0.0
H1014 H 0.73036 0.61196 0.44453 0.0
H1015 H 0.76603 0.62177 0.41651 0.0
H1016 H 0.68799 0.67048 0.40497 0.0
H1017 H 0.75032 0.66696 0.31219 0.0
H1018 H 0.74043 0.70276 0.48825 0.0
H1019 H 0.72237 0.66072 0.49425 0.0
H1020 H 0.69929 0.67774 0.47654 0.0
H1021 H 0.81755 0.69088 0.38793 0.0
H1022 H 0.80766 0.69301 0.33327 0.0
H1023 H 0.79529 0.65537 0.35714 0.0
C1024 C 0.95954 0.69342 0.85974 0.0
C1025 C 0.95948 0.66486 0.85538 0.0
C1026 C 0.95429 0.70779 0.82432 0.0
C1027 C 0.94902 0.69308 0.78414 0.0
C1028 C 0.94583 0.66261 0.78094 0.0
C1029 C 0.95097 0.64895 0.81668 0.0
C1030 C 0.95491 0.73873 0.82991 0.0
C1031 C 0.93943 0.64515 0.73927 0.0
C1032 C 0.9286 0.69889 0.67459 0.0
C1033 C 0.9576 0.70515 0.65722 0.0
C1034 C 0.9259 0.70179 0.7185 0.0
C1035 C 0.95266 0.71083 0.74424 0.0
C1036 C 0.98288 0.7259 0.72517 0.0
C1037 C 0.98505 0.72296 0.68132 0.0
C1038 C 0.89372 0.68938 0.73784 0.0
C1039 C 0.01253 0.73864 0.75144 0.0
H1040 H 0.96524 0.70526 0.8902 0.0
H1041 H 0.94977 0.62626 0.81393 0.0
H1042 H 0.96663 0.75508 0.80288 0.0
H1043 H 0.93026 0.7339 0.83127 0.0
H1044 H 0.96692 0.75074 0.85981 0.0
H1045 H 0.91756 0.64222 0.72467 0.0
H1046 H 0.95927 0.65874 0.71699 0.0
H1047 H 0.93659 0.62126 0.74309 0.0
H1048 H 0.9074 0.68722 0.65543 0.0
H1049 H 0.00796 0.72972 0.66803 0.0
H1050 H 0.89533 0.70135 0.7684 0.0
H1051 H 0.883 0.66367 0.74416 0.0
H1052 H 0.87791 0.69276 0.71586 0.0
H1053 H 0.03378 0.7549 0.73263 0.0
H1054 H 0.01534 0.71866 0.76271 0.0
H1055 H 0.01125 0.75143 0.77966 0.0
C1056 C 0.39734 0.96119 0.36753 0.0
C1057 C 0.42462 0.98761 0.38436 0.0
C1058 C 0.38159 0.93335 0.39229 0.0
C1059 C 0.39825 0.93052 0.42707 0.0
C1060 C 0.41177 0.95848 0.45084 0.0
C1061 C 0.43011 0.98687 0.42838 0.0
C1062 C 0.34839 0.90813 0.3825 0.0
C1063 C 0.40532 0.95792 0.49726 0.0
C1064 C 0.48008 0.94891 0.4233 0.0
C1065 C 0.4833 0.95069 0.37912 0.0
C1066 C 0.44997 0.93208 0.44178 0.0
C1067 C 0.42264 0.92121 0.41572 0.0
C1068 C 0.42653 0.91628 0.37245 0.0
C1069 C 0.45614 0.9342 0.35401 0.0
C1070 C 0.44753 0.9252 0.4886 0.0
C1071 C 0.40003 0.89205 0.34557 0.0
H1072 H 0.38755 0.96263 0.33732 0.0
H1073 H 0.44658 0.0079 0.44527 0.0
H1074 H 0.34178 0.88587 0.39995 0.0
H1075 H 0.33217 0.91658 0.39238 0.0
H1076 H 0.3452 0.90366 0.34782 0.0
H1077 H 0.39718 0.9343 0.51144 0.0
H1078 H 0.42634 0.97643 0.51416 0.0
H1079 H 0.38562 0.96262 0.50104 0.0
H1080 H 0.50079 0.95862 0.44332 0.0
H1081 H 0.45827 0.93271 0.31993 0.0
H1082 H 0.42307 0.90756 0.49806 0.0
H1083 H 0.45623 0.94743 0.50682 0.0
H1084 H 0.46305 0.91553 0.497 0.0
H1085 H 0.37978 0.8751 0.36531 0.0
H1086 H 0.40842 0.87852 0.32677 0.0
H1087 H 0.39252 0.90404 0.32228 0.0
C1088 C 0.46614 0.45478 0.69977 0.0
C1089 C 0.43906 0.44222 0.72431 0.0
C1090 C 0.49255 0.48256 0.71309 0.0
C1091 C 0.48868 0.50012 0.74624 0.0
C1092 C 0.46341 0.48416 0.77491 0.0
C1093 C 0.4414 0.4528 0.76588 0.0
C1094 C 0.52255 0.49469 0.68834 0.0
C1095 C 0.45688 0.50006 0.8114 0.0
C1096 C 0.55797 0.57895 0.74918 0.0
C1097 C 0.55887 0.58037 0.70477 0.0
C1098 C 0.53212 0.5531 0.76814 0.0
C1099 C 0.5056 0.53479 0.74243 0.0
C1100 C 0.50286 0.54764 0.70317 0.0
C1101 C 0.53062 0.57037 0.68341 0.0
C1102 C 0.53693 0.54192 0.81052 0.0
C1103 C 0.47305 0.53206 0.67757 0.0
H1104 H 0.46571 0.44501 0.66875 0.0
H1105 H 0.42294 0.43932 0.78783 0.0
H1106 H 0.54277 0.50747 0.70999 0.0
H1107 H 0.52411 0.47492 0.67357 0.0
H1108 H 0.52362 0.51061 0.66247 0.0
H1109 H 0.46166 0.49171 0.84183 0.0
H1110 H 0.47077 0.52622 0.8099 0.0
H1111 H 0.43181 0.49331 0.81209 0.0
H1112 H 0.57988 0.59124 0.76657 0.0
H1113 H 0.5307 0.57445 0.64953 0.0
H1114 H 0.55076 0.52997 0.80542 0.0
H1115 H 0.5152 0.52465 0.82665 0.0
H1116 H 0.54977 0.56233 0.83211 0.0
H1117 H 0.45251 0.51616 0.69761 0.0
H1118 H 0.47537 0.51808 0.65157 0.0
H1119 H 0.46903 0.55034 0.66265 0.0
C1120 C 0.98702 0.45592 1.09338 0.0
C1121 C 0.99059 0.44281 1.05584 0.0
C1122 C 0.00854 0.46363 0.12651 0.0
C1123 C 0.03754 0.46439 0.11854 0.0
C1124 C 0.03624 0.44312 1.08717 0.0
C1125 C 0.01401 0.43423 1.05439 0.0
C1126 C 0.00015 0.4711 0.16922 0.0
C1127 C 0.05818 0.43005 1.08817 0.0
C1128 C 0.07341 0.5216 1.05644 0.0
C1129 C 0.05374 0.53242 1.07285 0.0
C1130 C 0.08433 0.50658 1.08406 0.0
C1131 C 0.06837 0.49558 0.12326 0.0
C1132 C 0.06492 0.51946 0.14288 0.0
C1133 C 0.05193 0.53388 0.11748 0.0
C1134 C 0.11167 0.50259 1.07179 0.0
C1135 C 0.07107 0.52622 0.18942 0.0
H1136 H 0.9662 0.45799 1.0981 0.0
H1137 H 0.01405 0.41924 1.02914 0.0
H1138 H 0.01494 0.46939 0.19446 0.0
H1139 H 0.00251 0.49485 0.16894 0.0
H1140 H 0.97502 0.45456 0.17662 0.0
H1141 H 0.07114 0.43493 1.05767 0.0
H1142 H 0.07489 0.43948 0.11524 0.0
H1143 H 0.044 0.40393 1.09146 0.0
H1144 H 0.08124 0.52605 1.02367 0.0
H1145 H 0.04088 0.54562 0.13226 0.0
H1146 H 0.10644 0.48926 1.04159 0.0
H1147 H 0.1176 0.49061 1.09711 0.0
H1148 H 0.13258 0.52625 1.06577 0.0
H1149 H 0.05189 0.52844 0.20467 0.0
H1150 H 0.09315 0.54924 0.19329 0.0
H1151 H 0.07407 0.50772 0.20568 0.0
C1152 C 0.9489 0.3923 0.51829 0.0
C1153 C 0.9755 0.41877 0.49992 0.0
C1154 C 0.92058 0.37701 0.49466 0.0
C1155 C 0.9183 0.39358 0.45922 0.0
C1156 C 0.94561 0.40469 0.43443 0.0
C1157 C 0.97436 0.42312 0.45566 0.0
C1158 C 0.89383 0.34517 0.50734 0.0
C1159 C 0.94403 0.39806 0.388 0.0
C1160 C 0.9449 0.47755 0.45806 0.0
C1161 C 0.94976 0.48231 0.50191 0.0
C1162 C 0.92431 0.44705 0.44214 0.0
C1163 C 0.91222 0.42043 0.46998 0.0
C1164 C 0.91072 0.42689 0.51332 0.0
C1165 C 0.93295 0.45627 0.52918 0.0
C1166 C 0.91472 0.44335 0.39625 0.0
C1167 C 0.88626 0.40309 0.54314 0.0
H1168 H 0.95026 0.38318 0.54912 0.0
H1169 H -0.005 0.43933 0.43795 0.0
H1170 H 0.87155 0.33993 0.49128 0.0
H1171 H 0.89974 0.32689 0.49795 0.0
H1172 H 0.89061 0.34357 0.54233 0.0
H1173 H 0.91971 0.38813 0.37561 0.0
H1174 H 0.96075 0.41974 0.37038 0.0
H1175 H 0.95098 0.37999 0.38303 0.0
H1176 H 0.95521 0.49754 0.43656 0.0
H1177 H 0.93426 0.4597 0.56329 0.0
H1178 H 0.90353 0.45779 0.38972 0.0
H1179 H 0.89725 0.41849 0.38832 0.0
H1180 H 0.93581 0.45249 0.37547 0.0
H1181 H 0.86713 0.38286 0.5257 0.0
H1182 H 0.87564 0.41457 0.56195 0.0
H1183 H 0.89755 0.39472 0.56631 0.0
C1184 C 0.45627 0.94624 0.79319 0.0
C1185 C 0.4562 0.95064 0.83705 0.0
C1186 C 0.4671 0.92668 0.77676 0.0
C1187 C 0.48284 0.91566 0.80401 0.0
C1188 C 0.4753 0.9138 0.84768 0.0
C1189 C 0.46627 0.93448 0.86397 0.0
C1190 C 0.46125 0.91751 0.73073 0.0
C1191 C 0.47645 0.89018 0.87739 0.0
C1192 C 0.54853 0.95299 0.85058 0.0
C1193 C 0.54817 0.97965 0.83348 0.0
C1194 C 0.53526 0.92487 0.82642 0.0
C1195 C 0.51583 0.92268 0.79189 0.0
C1196 C 0.53123 0.9504 0.76745 0.0
C1197 C 0.5419 0.97893 0.78946 0.0
C1198 C 0.54094 0.89829 0.83748 0.0
C1199 C 0.53614 0.94945 0.72076 0.0
H1200 H 0.44604 0.95611 0.77201 0.0
H1201 H 0.4637 0.93516 0.8981 0.0
H1202 H 0.47445 0.93875 0.71033 0.0
H1203 H 0.46752 0.89925 0.72285 0.0
H1204 H 0.43587 0.90777 0.72353 0.0
H1205 H 0.47755 0.87116 0.85974 0.0
H1206 H 0.49689 0.90237 0.89916 0.0
H1207 H 0.45511 0.87916 0.89786 0.0
H1208 H 0.55957 0.9542 0.88086 0.0
H1209 H 0.54628 -0.00017 0.77234 0.0
H1210 H 0.56497 0.90465 0.82668 0.0
H1211 H 0.52366 0.87598 0.82155 0.0
H1212 H 0.54015 0.89476 0.87239 0.0
H1213 H 0.52051 0.92563 0.70739 0.0
H1214 H 0.56063 0.95467 0.71573 0.0
H1215 H 0.53297 0.96761 0.70386 0.0
C1216 C 0.45912 0.52204 0.24578 0.0
C1217 C 0.47232 0.5292 0.20503 0.0
C1218 C 0.42685 0.51019 0.25144 0.0
C1219 C 0.40642 0.49621 0.21649 0.0
C1220 C 0.41964 0.50861 0.1757 0.0
C1221 C 0.4525 0.52406 0.17027 0.0
C1222 C 0.41465 0.51191 0.29453 0.0
C1223 C 0.39971 0.50619 0.13797 0.0
C1224 C 0.39283 0.43404 0.17134 0.0
C1225 C 0.41379 0.43343 0.20184 0.0
C1226 C 0.37216 0.44464 0.18383 0.0
C1227 C 0.37965 0.46216 0.22162 0.0
C1228 C 0.38568 0.44584 0.25419 0.0
C1229 C 0.40757 0.43608 0.24486 0.0
C1230 C 0.34269 0.43612 0.15934 0.0
C1231 C 0.36791 0.43683 0.29541 0.0
H1232 H 0.474 0.52745 0.27336 0.0
H1233 H 0.46262 0.53265 0.13907 0.0
H1234 H 0.3886 0.50068 0.2952 0.0
H1235 H 0.42313 0.50164 0.31915 0.0
H1236 H 0.42419 0.53713 0.30241 0.0
H1237 H 0.41148 0.52825 0.119 0.0
H1238 H 0.39732 0.48714 0.11659 0.0
H1239 H 0.37617 0.50192 0.14786 0.0
H1240 H 0.39074 0.42401 0.14002 0.0
H1241 H 0.41622 0.42706 0.26978 0.0
H1242 H 0.34741 0.4383 0.12467 0.0
H1243 H 0.33241 0.45088 0.16897 0.0
H1244 H 0.32505 0.41099 0.16588 0.0
H1245 H 0.38464 0.44543 0.32249 0.0
H1246 H 0.35415 0.41065 0.29799 0.0
H1247 H 0.3514 0.44609 0.29757 0.0
C1248 C 0.40154 0.94893 0.68598 0.0
C1249 C 0.39225 0.95982 0.72239 0.0
C1250 C 0.41004 0.96498 0.64433 0.0
C1251 C 0.41003 0.99409 0.63517 0.0
C1252 C 0.40111 0.00534 0.67204 0.0
C1253 C 0.39247 0.98869 0.7131 0.0
C1254 C 0.41831 0.94954 0.60935 0.0
C1255 C 0.40076 0.03587 0.66863 0.0
C1256 C 0.45953 0.04947 0.53325 0.0
C1257 C 0.43726 0.04622 0.50125 0.0
C1258 C 0.45132 0.0339 0.57511 0.0
C1259 C 0.41935 0.01245 0.58882 0.0
C1260 C 0.39668 0.00959 0.5571 0.0
C1261 C 0.40551 0.02586 0.5156 0.0
C1262 C 0.47761 0.04119 0.60572 0.0
C1263 C 0.3622 0.98806 0.5664 0.0
H1264 H 0.4021 0.92721 0.68972 0.0
H1265 H 0.386 -0.001 0.73877 0.0
H1266 H 0.43754 0.96732 0.58902 0.0
H1267 H 0.42557 0.93294 0.62205 0.0
H1268 H 0.39719 0.93593 0.58915 0.0
H1269 H 0.40135 0.04603 0.70034 0.0
H1270 H 0.42111 0.05361 0.64968 0.0
H1271 H 0.37886 0.03142 0.6523 0.0
H1272 H 0.48425 0.06459 0.52556 0.0
H1273 H 0.38687 0.02179 0.49359 0.0
H1274 H 0.47756 0.01913 0.61411 0.0
H1275 H 0.47374 0.05081 0.63555 0.0
H1276 H 0.50101 0.0586 0.59251 0.0
H1277 H 0.35806 0.96495 0.57859 0.0
H1278 H 0.34729 0.98391 0.53788 0.0
H1279 H 0.35462 -0.00127 0.59142 0.0
C1280 C 0.39782 0.37788 1.04249 0.0
C1281 C 0.42978 0.39408 1.05745 0.0
C1282 C 0.38718 0.38345 1.00118 0.0
C1283 C 0.40818 0.40583 0.96957 0.0
C1284 C 0.44058 0.42203 0.98443 0.0
C1285 C 0.45037 0.41649 1.02635 0.0
C1286 C 0.35234 0.36479 0.99224 0.0
C1287 C 0.4662 0.44595 0.95597 0.0
C1288 C 0.37479 0.39582 0.84672 0.0
C1289 C 0.37616 0.42481 0.83463 0.0
C1290 C 0.38477 0.38966 0.88817 0.0
C1291 C 0.3967 0.41225 0.92282 0.0
C1292 C 0.39746 0.44133 0.911 0.0
C1293 C 0.38799 0.44703 0.86899 0.0
C1294 C 0.38281 0.35815 0.89377 0.0
C1295 C 0.40857 0.46769 0.94282 0.0
H1296 H 0.38025 0.36056 1.06378 0.0
H1297 H 0.47512 0.4302 1.03462 0.0
H1298 H 0.34488 0.37673 0.9688 0.0
H1299 H 0.3464 0.3413 0.97959 0.0
H1300 H 0.33853 0.36071 1.02188 0.0
H1301 H 0.4884 0.44536 0.96026 0.0
H1302 H 0.45954 0.44204 0.92193 0.0
H1303 H 0.47121 0.46996 0.9649 0.0
H1304 H 0.36664 0.37754 0.82276 0.0
H1305 H 0.39 0.46981 0.86323 0.0
H1306 H 0.35845 0.34038 0.90346 0.0
H1307 H 0.39944 0.35883 0.91821 0.0
H1308 H 0.38778 0.35003 0.86337 0.0
H1309 H 0.4064 0.45918 0.97602 0.0
H1310 H 0.39499 0.48018 0.93959 0.0
H1311 H 0.43368 0.48523 0.93633 0.0
C1312 C 0.97475 0.39127 0.16977 0.0
C1313 C 0.94448 0.38824 0.16253 0.0
C1314 C 0.99161 0.39989 0.21052 0.0
C1315 C 0.97874 0.40492 0.24905 0.0
C1316 C 0.94791 0.40136 0.24203 0.0
C1317 C 0.93201 0.39372 0.20058 0.0
C1318 C 0.02456 0.40508 0.21164 0.0
C1319 C 0.93071 0.40502 0.27907 0.0
C1320 C 0.01394 0.399 0.36492 0.0
C1321 C 0.03146 0.43038 0.38168 0.0
C1322 C -0.00254 0.39081 0.32376 0.0
C1323 C -0.00287 0.41386 0.29507 0.0
C1324 C 0.01477 0.44558 0.31203 0.0
C1325 C 0.03114 0.45305 0.35306 0.0
C1326 C 0.97885 0.35644 0.31179 0.0
C1327 C 0.01713 0.47283 0.28673 0.0
H1328 H 0.98628 0.38803 0.14253 0.0
H1329 H 0.90914 0.39194 0.19817 0.0
H1330 H 0.041 0.42901 0.22431 0.0
H1331 H 0.0255 0.38767 0.23329 0.0
H1332 H 0.03292 0.4029 0.17976 0.0
H1333 H 0.90995 0.4068 0.26897 0.0
H1334 H 0.92237 0.38401 0.29994 0.0
H1335 H 0.94659 0.42628 0.29789 0.0
H1336 H 0.01244 0.38011 0.38462 0.0
H1337 H 0.04364 0.47751 0.36311 0.0
H1338 H 0.99048 0.35188 0.28476 0.0
H1339 H 0.95478 0.35026 0.30137 0.0
H1340 H 0.97683 0.34066 0.33852 0.0
H1341 H -0.00402 0.46574 0.26684 0.0
H1342 H 0.038 0.48195 0.26563 0.0
H1343 H 0.02045 0.49246 0.30774 0.0
C1344 C 0.60489 0.01804 0.69992 0.0
C1345 C 0.59274 0.03751 0.71486 0.0
C1346 C 0.5975 0.00216 0.65837 0.0
C1347 C 0.57716 0.00475 0.6273 0.0
C1348 C 0.5656 0.02505 0.64179 0.0
C1349 C 0.57287 0.04018 0.68371 0.0
C1350 C 0.61099 0.98127 0.64828 0.0
C1351 C 0.54504 0.03111 0.6124 0.0
C1352 C 0.58014 0.98439 0.5021 0.0
C1353 C 0.55251 0.95459 0.49314 0.0
C1354 C 0.58791 0.00023 0.5435 0.0
C1355 C 0.56848 0.98713 0.58082 0.0
C1356 C 0.54044 0.95706 0.57206 0.0
C1357 C 0.53309 0.94182 0.5301 0.0
C1358 C 0.61746 0.03201 0.54696 0.0
C1359 C 0.51785 0.93997 0.60783 0.0
H1360 H 0.61996 0.01434 0.72147 0.0
H1361 H 0.56249 0.05443 0.69214 0.0
H1362 H 0.59166 0.95726 0.63979 0.0
H1363 H 0.62686 0.99082 0.62037 0.0
H1364 H 0.62446 0.97929 0.67531 0.0
H1365 H 0.54072 0.04982 0.62473 0.0
H1366 H 0.55618 0.03836 0.58058 0.0
H1367 H 0.52212 0.00898 0.60829 0.0
H1368 H 0.59619 -0.00393 0.47591 0.0
H1369 H 0.51168 0.91922 0.52654 0.0
H1370 H 0.63418 0.03042 0.56915 0.0
H1371 H 0.61175 0.04954 0.56024 0.0
H1372 H 0.62936 0.04081 0.51583 0.0
H1373 H 0.51347 0.95648 0.62675 0.0
H1374 H 0.5285 0.92983 0.62921 0.0
H1375 H 0.4949 0.92043 0.59624 0.0
C1376 C 0.59053 0.60367 1.04898 0.0
C1377 C 0.56026 0.59991 1.05921 0.0
C1378 C 0.60045 0.59923 1.00662 0.0
C1379 C 0.58042 0.59 0.96948 0.0
C1380 C 0.54971 0.58592 0.97947 0.0
C1381 C 0.54047 0.59086 1.02219 0.0
C1382 C 0.6333 0.60457 1.0017 0.0
C1383 C 0.52579 0.57574 0.94433 0.0
C1384 C 0.61494 0.60304 0.84699 0.0
C1385 C 0.6109 0.57339 0.83253 0.0
C1386 C 0.60572 0.60856 0.88938 0.0
C1387 C 0.59121 0.58439 0.92196 0.0
C1388 C 0.58755 0.55463 0.90779 0.0
C1389 C 0.59721 0.54982 0.86547 0.0
C1390 C 0.61134 0.64106 0.89918 0.0
C1391 C 0.57239 0.5268 0.93762 0.0
H1392 H 0.60725 0.61038 1.07481 0.0
H1393 H 0.51694 0.58716 1.02649 0.0
H1394 H 0.63213 0.58232 0.99142 0.0
H1395 H 0.64604 0.6225 0.97656 0.0
H1396 H 0.64706 0.61262 1.03162 0.0
H1397 H 0.5032 0.57353 0.95513 0.0
H1398 H 0.53537 0.59306 0.91782 0.0
H1399 H 0.521 0.55262 0.93157 0.0
H1400 H 0.62493 0.62243 0.82446 0.0
H1401 H 0.59295 0.52645 0.85768 0.0
H1402 H 0.62546 0.65004 0.92869 0.0
H1403 H 0.58843 0.63984 0.90493 0.0
H1404 H 0.62382 0.65813 0.87302 0.0
H1405 H 0.58537 0.53283 0.96818 0.0
H1406 H 0.57174 0.50548 0.92429 0.0
H1407 H 0.54789 0.52103 0.94466 0.0
C1408 C 0.01087 0.59454 0.17256 0.0
C1409 C 0.04053 0.59677 0.16297 0.0
C1410 C -0.00461 0.58653 0.21427 0.0
C1411 C 0.00831 0.57947 0.25111 0.0
C1412 C 0.03829 0.58163 0.24185 0.0
C1413 C 0.05349 0.59008 0.19974 0.0
C1414 C 0.96436 0.58558 0.21877 0.0
C1415 C 0.05462 0.57443 0.27692 0.0
C1416 C 0.98208 0.58561 0.37249 0.0
C1417 C 0.95784 0.55468 0.38547 0.0
C1418 C -0.00228 0.59359 0.33086 0.0
C1419 C 0.99102 0.57059 0.29792 0.0
C1420 C 0.9669 0.53915 0.3109 0.0
C1421 C 0.95097 0.53199 0.35248 0.0
C1422 C 0.02197 0.62759 0.32213 0.0
C1423 C 0.9576 0.5122 0.28047 0.0
H1424 H -0.00094 0.59898 0.14665 0.0
H1425 H 0.0759 0.59111 0.19567 0.0
H1426 H 0.94544 0.56101 0.22565 0.0
H1427 H 0.96535 0.60046 0.24593 0.0
H1428 H 0.95792 0.59391 0.18965 0.0
H1429 H 0.07622 0.57468 0.26571 0.0
H1430 H 0.0613 0.59212 0.3026 0.0
H1431 H 0.03826 0.55089 0.29088 0.0
H1432 H 0.98908 0.60443 0.39541 0.0
H1433 H 0.933 0.50789 0.35918 0.0
H1434 H 0.01692 0.6353 0.29139 0.0
H1435 H 0.04564 0.62999 0.31952 0.0
H1436 H 0.02272 0.64364 0.34754 0.0
H1437 H 0.97875 0.51398 0.26491 0.0
H1438 H 0.9424 0.51334 0.25523 0.0
H1439 H 0.94433 0.48886 0.29657 0.0
C1440 C 0.62124 0.18448 0.56985 0.0
C1441 C 0.61565 0.19591 0.53203 0.0
C1442 C 0.62188 0.19853 0.60874 0.0
C1443 C 0.6169 0.22471 0.60958 0.0
C1444 C 0.61593 0.23908 0.57103 0.0
C1445 C 0.61506 0.22432 0.53249 0.0
C1446 C 0.62397 0.18286 0.64907 0.0
C1447 C 0.61234 0.26794 0.57026 0.0
C1448 C 0.56238 0.20605 0.70081 0.0
C1449 C 0.58422 0.21908 0.73421 0.0
C1450 C 0.57234 0.21174 0.65851 0.0
C1451 C 0.60487 0.23091 0.64949 0.0
C1452 C 0.62583 0.24901 0.68226 0.0
C1453 C 0.61512 0.24315 0.7245 0.0
C1454 C 0.54869 0.19312 0.6242 0.0
C1455 C 0.6603 0.27147 0.67358 0.0
H1456 H 0.62258 0.16301 0.56934 0.0
H1457 H 0.61111 0.23353 0.50322 0.0
H1458 H 0.64097 0.20075 0.67147 0.0
H1459 H 0.60055 0.1706 0.66487 0.0
H1460 H 0.63139 0.16518 0.64287 0.0
H1461 H 0.62436 0.28286 0.54204 0.0
H1462 H 0.58695 0.26045 0.56794 0.0
H1463 H 0.62202 0.28242 0.59933 0.0
H1464 H 0.53817 0.18812 0.70708 0.0
H1465 H 0.63188 0.255 0.74988 0.0
H1466 H 0.55221 0.17346 0.61364 0.0
H1467 H 0.55202 0.20831 0.59626 0.0
H1468 H 0.52399 0.18284 0.63552 0.0
H1469 H 0.67337 0.25845 0.67598 0.0
H1470 H 0.67041 0.29084 0.69732 0.0
H1471 H 0.66408 0.28186 0.64126 0.0
C1472 C 0.34147 0.60006 0.84199 0.0
C1473 C 0.3728 0.60944 0.83115 0.0
C1474 C 0.33329 0.60161 0.88427 0.0
C1475 C 0.35699 0.61261 0.91574 0.0
C1476 C 0.38911 0.628 0.90335 0.0
C1477 C 0.39663 0.62627 0.86104 0.0
C1478 C 0.29899 0.58777 0.89567 0.0
C1479 C 0.41549 0.64166 0.93559 0.0
C1480 C 0.35971 0.61359 1.0342 0.0
C1481 C 0.36403 0.58762 1.04078 0.0
C1482 C 0.35192 0.61976 0.99377 0.0
C1483 C 0.34925 0.59987 0.95962 0.0
C1484 C 0.34842 0.57093 0.96799 0.0
C1485 C 0.35574 0.56514 1.00871 0.0
C1486 C 0.35031 0.64944 0.987 0.0
C1487 C 0.34438 0.54818 0.93291 0.0
H1488 H 0.32297 0.58851 0.81854 0.0
H1489 H 0.42103 0.63442 0.85314 0.0
H1490 H 0.28775 0.5617 0.89842 0.0
H1491 H 0.296 0.59714 0.92628 0.0
H1492 H 0.2864 0.59289 0.87033 0.0
H1493 H 0.43903 0.6556 0.92039 0.0
H1494 H 0.41232 0.65723 0.95805 0.0
H1495 H 0.41523 0.62221 0.95422 0.0
H1496 H 0.36541 0.63075 1.05931 0.0
H1497 H 0.35808 0.54452 1.01438 0.0
H1498 H 0.33744 0.64838 0.95748 0.0
H1499 H 0.37456 0.67007 0.98493 0.0
H1500 H 0.33852 0.65346 1.01441 0.0
H1501 H 0.32356 0.54282 0.91319 0.0
H1502 H 0.34135 0.52555 0.94546 0.0
H1503 H 0.36546 0.55905 0.91196 0.0
C1504 C 0.84772 0.49028 0.20899 0.0
C1505 C 0.83521 0.49257 0.17003 0.0
C1506 C 0.83349 0.49063 0.24722 0.0
C1507 C 0.80605 0.49344 0.2464 0.0
C1508 C 0.79608 0.5003 0.20771 0.0
C1509 C 0.8108 0.49972 0.16978 0.0
C1510 C 0.84587 0.48433 0.28793 0.0
C1511 C 0.76832 0.50555 0.20544 0.0
C1512 C 0.75855 0.43755 0.33122 0.0
C1513 C 0.77342 0.45717 0.36609 0.0
C1514 C 0.76458 0.45017 0.29007 0.0
C1515 C 0.78541 0.48304 0.28444 0.0
C1516 C 0.79389 0.50334 0.31977 0.0
C1517 C 0.78807 0.49013 0.36061 0.0
C1518 C 0.75322 0.42777 0.2529 0.0
C1519 C 0.81359 0.53872 0.31473 0.0
H1520 H 0.86666 0.48495 0.20973 0.0
H1521 H 0.80168 0.50262 0.13977 0.0
H1522 H 0.84976 0.50233 0.31214 0.0
H1523 H 0.82834 0.46082 0.30089 0.0
H1524 H 0.86848 0.48465 0.28315 0.0
H1525 H 0.77275 0.52407 0.18151 0.0
H1526 H 0.74715 0.48341 0.19498 0.0
H1527 H 0.76312 0.51261 0.23647 0.0
H1528 H 0.74586 0.41211 0.33556 0.0
H1529 H 0.79884 0.50576 0.38742 0.0
H1530 H 0.773 0.42516 0.24054 0.0
H1531 H 0.74506 0.4372 0.22685 0.0
H1532 H 0.73363 0.40397 0.262 0.0
H1533 H 0.83895 0.54585 0.31466 0.0
H1534 H 0.80954 0.55098 0.34152 0.0
H1535 H 0.80827 0.54665 0.28437 0.0
C1536 C 0.35659 0.76498 0.53726 0.0
C1537 C 0.36948 0.75315 0.50793 0.0
C1538 C 0.35079 0.75405 0.57914 0.0
C1539 C 0.35727 0.73 0.59169 0.0
C1540 C 0.36578 0.71475 0.56062 0.0
C1541 C 0.37253 0.72702 0.5191 0.0
C1542 C 0.34157 0.77118 0.61085 0.0
C1543 C 0.37031 0.68726 0.57155 0.0
C1544 C 0.39673 0.75805 0.69584 0.0
C1545 C 0.3702 0.74812 0.72188 0.0
C1546 C 0.39342 0.74821 0.65361 0.0
C1547 C 0.36286 0.72748 0.63751 0.0
C1548 C 0.33707 0.71264 0.66589 0.0
C1549 C 0.34084 0.72369 0.70782 0.0
C1550 C 0.42199 0.76389 0.62492 0.0
C1551 C 0.30482 0.68784 0.65092 0.0
H1552 H 0.35417 0.78516 0.52877 0.0
H1553 H 0.38184 0.71733 0.49614 0.0
H1554 H 0.3201 0.75411 0.62841 0.0
H1555 H 0.36078 0.78367 0.63436 0.0
H1556 H 0.33682 0.78885 0.5955 0.0
H1557 H 0.36025 0.66919 0.54609 0.0
H1558 H 0.39588 0.69548 0.57328 0.0
H1559 H 0.35909 0.676 0.60221 0.0
H1560 H 0.41961 0.7766 0.70657 0.0
H1561 H 0.32039 0.71509 0.72834 0.0
H1562 H 0.41953 0.77998 0.60232 0.0
H1563 H 0.42399 0.74586 0.60614 0.0
H1564 H 0.44425 0.77788 0.64299 0.0
H1565 H 0.29092 0.6992 0.64208 0.0
H1566 H 0.29186 0.67056 0.6767 0.0
H1567 H 0.30634 0.67501 0.62282 0.0
C1568 C 0.58087 0.37745 0.86553 0.0
C1569 C 0.6047 0.3891 0.83464 0.0
C1570 C 0.58775 0.37548 0.90814 0.0
C1571 C 0.61924 0.38538 0.92003 0.0
C1572 C 0.64206 0.3919 0.88822 0.0
C1573 C 0.63456 0.39386 0.84567 0.0
C1574 C 0.56224 0.36726 0.94089 0.0
C1575 C 0.67532 0.40042 0.89928 0.0
C1576 C 0.63328 0.43625 1.01485 0.0
C1577 C 0.62321 0.41369 1.04754 0.0
C1578 C 0.63629 0.42834 0.9732 0.0
C1579 C 0.62908 0.39707 0.96401 0.0
C1580 C 0.62389 0.37583 0.99772 0.0
C1581 C 0.62088 0.38436 1.03929 0.0
C1582 C 0.64287 0.45226 0.9384 0.0
C1583 C 0.61814 0.34298 0.98971 0.0
H1584 H 0.55761 0.37336 0.85754 0.0
H1585 H 0.65285 0.40173 0.82169 0.0
H1586 H 0.5622 0.35055 0.96476 0.0
H1587 H 0.56681 0.38904 0.95784 0.0
H1588 H 0.53842 0.35647 0.92633 0.0
H1589 H 0.68597 0.39345 0.87342 0.0
H1590 H 0.68995 0.42641 0.90328 0.0
H1591 H 0.67618 0.38896 0.92932 0.0
H1592 H 0.63542 0.45907 1.02055 0.0
H1593 H 0.61426 0.36712 1.06465 0.0
H1594 H 0.62097 0.44504 0.92 0.0
H1595 H 0.66091 0.45343 0.91613 0.0
H1596 H 0.65128 0.47635 0.95118 0.0
H1597 H 0.59242 0.32636 0.98678 0.0
H1598 H 0.62686 0.33481 1.0167 0.0
H1599 H 0.62974 0.34184 0.96005 0.0
C1600 C 0.14166 0.64695 0.3433 0.0
C1601 C 0.15525 0.64597 0.38195 0.0
C1602 C 0.16047 0.66032 0.30722 0.0
C1603 C 0.19352 0.67293 0.31023 0.0
C1604 C 0.20763 0.67653 0.35049 0.0
C1605 C 0.18825 0.66283 0.38604 0.0
C1606 C 0.14448 0.65687 0.26498 0.0
C1607 C 0.24281 0.69079 0.35531 0.0
C1608 C 0.21609 0.64194 0.21629 0.0
C1609 C 0.22554 0.6669 0.18714 0.0
C1610 C 0.20893 0.64495 0.25829 0.0
C1611 C 0.21097 0.67356 0.27148 0.0
C1612 C 0.22481 0.70022 0.24435 0.0
C1613 C 0.23245 0.6967 0.20251 0.0
C1614 C 0.19543 0.61613 0.28682 0.0
C1615 C 0.2285 0.73149 0.25763 0.0
H1616 H 0.11619 0.6347 0.34036 0.0
H1617 H 0.19904 0.66246 0.41592 0.0
H1618 H 0.15788 0.67856 0.24547 0.0
H1619 H 0.14364 0.63687 0.24729 0.0
H1620 H 0.11991 0.65202 0.26889 0.0
H1621 H 0.25064 0.70038 0.38777 0.0
H1622 H 0.24909 0.6722 0.34998 0.0
H1623 H 0.25591 0.70994 0.33179 0.0
H1624 H 0.21084 0.61878 0.20565 0.0
H1625 H 0.24123 0.71667 0.18096 0.0
H1626 H 0.16971 0.60654 0.29089 0.0
H1627 H 0.20645 0.62243 0.3187 0.0
H1628 H 0.199 0.59712 0.2736 0.0
H1629 H 0.20654 0.73173 0.24983 0.0
H1630 H 0.24826 0.7514 0.2403 0.0
H1631 H 0.23263 0.73544 0.29227 0.0
loop_
_geom_bond_atom_site_label_1
_geom_bond_atom_site_label_2
_geom_bond_distance
_geom_bond_site_symmetry_2
_ccdc_geom_bond_type
Nd0 C2 2.836 . S
Nd0 O20 2.500 . S
Nd0 O21 2.492 . S
Nd0 O22 2.487 . S
Nd0 O23 2.682 . S
Nd0 O24 2.410 . S
Nd0 O29 2.414 . S
Nd0 O31 2.424 . S
Nd1 C11 2.836 . S
Nd1 O23 2.414 . S
Nd1 O25 2.424 . S
Nd1 O26 2.500 . S
Nd1 O27 2.492 . S
Nd1 O28 2.487 . S
Nd1 O29 2.682 . S
Nd1 O30 2.410 . S
C2 Nd0 2.836 . S
C2 C3 1.498 . S
C2 O20 1.258 . S
C2 O21 1.239 . S
C3 C2 1.498 . S
C3 C4 1.366 . S
C3 C8 1.407 . S
C4 C3 1.366 . S
C4 C5 1.392 . S
C4 H32 0.930 . S
C5 C4 1.392 . S
C5 C6 1.398 . S
C5 H33 0.929 . S
C6 C5 1.398 . S
C6 C7 1.352 . S
C7 C6 1.352 . S
C7 C8 1.384 . S
C7 H34 0.930 . S
C8 C3 1.407 . S
C8 C7 1.384 . S
C8 H35 0.929 . S
C9 O22 1.241 . S
C9 O23 1.273 . S
C10 O24 1.251 . S
C10 O25 1.268 . S
C11 Nd1 2.836 . S
C11 C12 1.498 . S
C11 O26 1.258 . S
C11 O27 1.239 . S
C12 C11 1.498 . S
C12 C13 1.366 . S
C12 C17 1.407 . S
C13 C12 1.366 . S
C13 C14 1.392 . S
C13 H36 0.930 . S
C14 C13 1.392 . S
C14 C15 1.398 . S
C14 H37 0.929 . S
C15 C14 1.398 . S
C15 C16 1.352 . S
C16 C15 1.352 . S
C16 C17 1.384 . S
C16 H38 0.930 1_545 S
C17 C12 1.407 . S
C17 C16 1.384 . S
C17 H39 0.932 . S
C18 O28 1.241 . S
C18 O29 1.273 . S
C19 O30 1.251 . S
C19 O31 1.268 . S
O20 Nd0 2.500 . S
O20 C2 1.258 . S
O21 Nd0 2.492 . S
O21 C2 1.239 . S
O22 Nd0 2.487 . S
O22 C9 1.241 . S
O23 Nd0 2.682 . S
O23 Nd1 2.414 . S
O23 C9 1.273 . S
O24 Nd0 2.410 . S
O24 C10 1.251 . S
O25 Nd1 2.424 . S
O25 C10 1.268 . S
O26 Nd1 2.500 . S
O26 C11 1.258 . S
O27 Nd1 2.492 . S
O27 C11 1.239 . S
O28 Nd1 2.487 . S
O28 C18 1.241 . S
O29 Nd0 2.414 . S
O29 Nd1 2.682 . S
O29 C18 1.273 . S
O30 Nd1 2.410 . S
O30 C19 1.251 . S
O31 Nd0 2.424 . S
O31 C19 1.268 . S
H32 C4 0.930 . S
H33 C5 0.929 . S
H34 C7 0.930 . S
H35 C8 0.929 . S
H36 C13 0.930 . S
H37 C14 0.929 . S
H38 C16 0.930 1_565 S
H39 C17 0.932 . S
Nd40 C42 2.836 . S
Nd40 O60 2.500 . S
Nd40 O61 2.492 . S
Nd40 O62 2.487 . S
Nd40 O63 2.682 . S
Nd40 O64 2.410 . S
Nd40 O69 2.414 . S
Nd40 O71 2.424 . S
Nd41 C51 2.836 . S
Nd41 O63 2.414 . S
Nd41 O65 2.424 . S
Nd41 O66 2.500 . S
Nd41 O67 2.492 . S
Nd41 O68 2.487 . S
Nd41 O69 2.682 . S
Nd41 O70 2.410 . S
C42 Nd40 2.836 . S
C42 C43 1.498 . S
C42 O60 1.258 . S
C42 O61 1.239 . S
C43 C42 1.498 . S
C43 C44 1.366 . S
C43 C48 1.407 . S
C44 C43 1.366 . S
C44 C45 1.392 . S
C44 H72 0.930 . S
C45 C44 1.392 . S
C45 C46 1.398 . S
C45 H73 0.929 . S
C46 C45 1.398 . S
C46 C47 1.352 . S
C47 C46 1.352 . S
C47 C48 1.384 . S
C47 H74 0.930 . S
C48 C43 1.407 . S
C48 C47 1.384 . S
C48 H75 0.929 . S
C49 O62 1.241 . S
C49 O63 1.273 . S
C50 O64 1.251 . S
C50 O65 1.268 . S
C51 Nd41 2.836 . S
C51 C52 1.498 . S
C51 O66 1.258 . S
C51 O67 1.239 . S
C52 C51 1.498 . S
C52 C53 1.366 . S
C52 C57 1.407 . S
C53 C52 1.366 . S
C53 C54 1.392 . S
C53 H76 0.930 . S
C54 C53 1.392 . S
C54 C55 1.398 . S
C54 H77 0.929 . S
C55 C54 1.398 . S
C55 C56 1.352 . S
C56 C55 1.352 . S
C56 C57 1.384 . S
C56 H78 0.930 . S
C57 C52 1.407 . S
C57 C56 1.384 . S
C57 H79 0.929 . S
C58 O68 1.241 . S
C58 O69 1.273 . S
C59 O70 1.251 . S
C59 O71 1.268 . S
O60 Nd40 2.500 . S
O60 C42 1.258 . S
O61 Nd40 2.492 . S
O61 C42 1.239 . S
O62 Nd40 2.487 . S
O62 C49 1.241 . S
O63 Nd40 2.682 . S
O63 Nd41 2.414 . S
O63 C49 1.273 . S
O64 Nd40 2.410 . S
O64 C50 1.251 . S
O65 Nd41 2.424 . S
O65 C50 1.268 . S
O66 Nd41 2.500 . S
O66 C51 1.258 . S
O67 Nd41 2.492 . S
O67 C51 1.239 . S
O68 Nd41 2.487 . S
O68 C58 1.241 . S
O69 Nd40 2.414 . S
O69 Nd41 2.682 . S
O69 C58 1.273 . S
O70 Nd41 2.410 . S
O70 C59 1.251 . S
O71 Nd40 2.424 . S
O71 C59 1.268 . S
H72 C44 0.930 . S
H73 C45 0.929 . S
H74 C47 0.930 . S
H75 C48 0.929 . S
H76 C53 0.930 . S
H77 C54 0.929 . S
H78 C56 0.930 . S
H79 C57 0.929 . S
Nd80 C82 2.836 1_556 S
Nd80 O100 2.500 . S
Nd80 O101 2.492 . S
Nd80 O102 2.487 . S
Nd80 O103 2.682 . S
Nd80 O104 2.410 . S
Nd80 O109 2.414 . S
Nd80 O111 2.424 . S
Nd81 C91 2.836 . S
Nd81 O103 2.414 . S
Nd81 O105 2.424 . S
Nd81 O106 2.500 . S
Nd81 O107 2.492 . S
Nd81 O108 2.487 . S
Nd81 O109 2.682 . S
Nd81 O110 2.410 . S
C82 Nd80 2.836 1_554 S
C82 C83 1.498 . S
C82 O100 1.258 1_554 S
C82 O101 1.239 1_554 S
C83 C82 1.498 . S
C83 C84 1.366 . S
C83 C88 1.407 . S
C84 C83 1.366 . S
C84 C85 1.392 . S
C84 H112 0.930 . S
C85 C84 1.392 . S
C85 C86 1.398 . S
C85 H113 0.929 . S
C86 C85 1.398 . S
C86 C87 1.352 . S
C87 C86 1.352 . S
C87 C88 1.384 . S
C87 H114 0.930 . S
C88 C83 1.407 . S
C88 C87 1.384 . S
C88 H115 0.929 . S
C89 O102 1.241 . S
C89 O103 1.273 . S
C90 O104 1.251 . S
C90 O105 1.268 . S
C91 Nd81 2.836 . S
C91 C92 1.498 . S
C91 O106 1.258 . S
C91 O107 1.239 . S
C92 C91 1.498 . S
C92 C93 1.366 . S
C92 C97 1.407 . S
C93 C92 1.366 . S
C93 C94 1.392 . S
C93 H116 0.930 . S
C94 C93 1.392 . S
C94 C95 1.398 . S
C94 H117 0.929 . S
C95 C94 1.398 . S
C95 C96 1.352 . S
C96 C95 1.352 . S
C96 C97 1.384 . S
C96 H118 0.930 1_655 S
C97 C92 1.407 . S
C97 C96 1.384 . S
C97 H119 0.931 . S
C98 O108 1.241 . S
C98 O109 1.273 . S
C99 O110 1.251 . S
C99 O111 1.268 . S
O100 Nd80 2.500 . S
O100 C82 1.258 1_556 S
O101 Nd80 2.492 . S
O101 C82 1.239 1_556 S
O102 Nd80 2.487 . S
O102 C89 1.241 . S
O103 Nd80 2.682 . S
O103 Nd81 2.414 . S
O103 C89 1.273 . S
O104 Nd80 2.410 . S
O104 C90 1.251 . S
O105 Nd81 2.424 . S
O105 C90 1.268 . S
O106 Nd81 2.500 . S
O106 C91 1.258 . S
O107 Nd81 2.492 . S
O107 C91 1.239 . S
O108 Nd81 2.487 . S
O108 C98 1.241 . S
O109 Nd80 2.414 . S
O109 Nd81 2.682 . S
O109 C98 1.273 . S
O110 Nd81 2.410 . S
O110 C99 1.251 . S
O111 Nd80 2.424 . S
O111 C99 1.268 . S
H112 C84 0.930 . S
H113 C85 0.929 . S
H114 C87 0.930 . S
H115 C88 0.929 . S
H116 C93 0.930 . S
H117 C94 0.929 . S
H118 C96 0.930 1_455 S
H119 C97 0.931 . S
Nd120 C122 2.836 . S
Nd120 O140 2.500 . S
Nd120 O141 2.492 . S
Nd120 O142 2.487 . S
Nd120 O143 2.682 . S
Nd120 O144 2.410 . S
Nd120 O149 2.414 . S
Nd120 O151 2.424 . S
Nd121 C131 2.836 . S
Nd121 O143 2.414 . S
Nd121 O145 2.424 . S
Nd121 O146 2.500 . S
Nd121 O147 2.492 . S
Nd121 O148 2.487 . S
Nd121 O149 2.682 . S
Nd121 O150 2.410 . S
C122 Nd120 2.836 . S
C122 C123 1.498 . S
C122 O140 1.258 . S
C122 O141 1.239 . S
C123 C122 1.498 . S
C123 C124 1.366 . S
C123 C128 1.407 . S
C124 C123 1.366 . S
C124 C125 1.392 . S
C124 H152 0.930 . S
C125 C124 1.392 . S
C125 C126 1.398 . S
C125 H153 0.929 . S
C126 C125 1.398 . S
C126 C127 1.352 . S
C127 C126 1.352 . S
C127 C128 1.384 . S
C127 H154 0.930 . S
C128 C123 1.407 . S
C128 C127 1.384 . S
C128 H155 0.929 . S
C129 O142 1.241 . S
C129 O143 1.273 . S
C130 O144 1.251 . S
C130 O145 1.268 . S
C131 Nd121 2.836 . S
C131 C132 1.498 . S
C131 O146 1.258 . S
C131 O147 1.239 . S
C132 C131 1.498 . S
C132 C133 1.366 . S
C132 C137 1.407 . S
C133 C132 1.366 . S
C133 C134 1.392 . S
C133 H156 0.930 . S
C134 C133 1.392 . S
C134 C135 1.398 . S
C134 H157 0.929 . S
C135 C134 1.398 . S
C135 C136 1.352 . S
C136 C135 1.352 . S
C136 C137 1.384 . S
C136 H158 0.930 1_565 S
C137 C132 1.407 . S
C137 C136 1.384 . S
C137 H159 0.932 . S
C138 O148 1.241 . S
C138 O149 1.273 . S
C139 O150 1.251 . S
C139 O151 1.268 . S
O140 Nd120 2.500 . S
O140 C122 1.258 . S
O141 Nd120 2.492 . S
O141 C122 1.239 . S
O142 Nd120 2.487 . S
O142 C129 1.241 . S
O143 Nd120 2.682 . S
O143 Nd121 2.414 . S
O143 C129 1.273 . S
O144 Nd120 2.410 . S
O144 C130 1.251 . S
O145 Nd121 2.424 . S
O145 C130 1.268 . S
O146 Nd121 2.500 . S
O146 C131 1.258 . S
O147 Nd121 2.492 . S
O147 C131 1.239 . S
O148 Nd121 2.487 . S
O148 C138 1.241 . S
O149 Nd120 2.414 . S
O149 Nd121 2.682 . S
O149 C138 1.273 . S
O150 Nd121 2.410 . S
O150 C139 1.251 . S
O151 Nd120 2.424 . S
O151 C139 1.268 . S
H152 C124 0.930 . S
H153 C125 0.929 . S
H154 C127 0.930 . S
H155 C128 0.929 . S
H156 C133 0.930 . S
H157 C134 0.929 . S
H158 C136 0.930 1_545 S
H159 C137 0.932 . S
Nd160 C162 2.836 . S
Nd160 O180 2.500 . S
Nd160 O181 2.492 . S
Nd160 O182 2.487 . S
Nd160 O183 2.682 . S
Nd160 O184 2.410 . S
Nd160 O189 2.414 . S
Nd160 O191 2.424 . S
Nd161 C171 2.836 . S
Nd161 O183 2.414 . S
Nd161 O185 2.424 . S
Nd161 O186 2.500 . S
Nd161 O187 2.492 . S
Nd161 O188 2.487 . S
Nd161 O189 2.682 . S
Nd161 O190 2.410 . S
C162 Nd160 2.836 . S
C162 C163 1.498 . S
C162 O180 1.258 . S
C162 O181 1.239 . S
C163 C162 1.498 . S
C163 C164 1.366 . S
C163 C168 1.407 . S
C164 C163 1.366 . S
C164 C165 1.392 . S
C164 H192 0.930 . S
C165 C164 1.392 . S
C165 C166 1.398 . S
C165 H193 0.929 . S
C166 C165 1.398 . S
C166 C167 1.352 . S
C167 C166 1.352 . S
C167 C168 1.384 . S
C167 H194 0.930 . S
C168 C163 1.407 . S
C168 C167 1.384 . S
C168 H195 0.929 . S
C169 O182 1.241 . S
C169 O183 1.273 . S
C170 O184 1.251 . S
C170 O185 1.268 . S
C171 Nd161 2.836 . S
C171 C172 1.498 . S
C171 O186 1.258 . S
C171 O187 1.239 . S
C172 C171 1.498 . S
C172 C173 1.366 . S
C172 C177 1.407 . S
C173 C172 1.366 . S
C173 C174 1.392 . S
C173 H196 0.930 . S
C174 C173 1.392 . S
C174 C175 1.398 . S
C174 H197 0.929 . S
C175 C174 1.398 . S
C175 C176 1.352 . S
C176 C175 1.352 . S
C176 C177 1.384 . S
C176 H198 0.930 . S
C177 C172 1.407 . S
C177 C176 1.384 . S
C177 H199 0.929 . S
C178 O188 1.241 . S
C178 O189 1.273 . S
C179 O190 1.251 . S
C179 O191 1.268 . S
O180 Nd160 2.500 . S
O180 C162 1.258 . S
O181 Nd160 2.492 . S
O181 C162 1.239 . S
O182 Nd160 2.487 . S
O182 C169 1.241 . S
O183 Nd160 2.682 . S
O183 Nd161 2.414 . S
O183 C169 1.273 . S
O184 Nd160 2.410 . S
O184 C170 1.251 . S
O185 Nd161 2.424 . S
O185 C170 1.268 . S
O186 Nd161 2.500 . S
O186 C171 1.258 . S
O187 Nd161 2.492 . S
O187 C171 1.239 . S
O188 Nd161 2.487 . S
O188 C178 1.241 . S
O189 Nd160 2.414 . S
O189 Nd161 2.682 . S
O189 C178 1.273 . S
O190 Nd161 2.410 . S
O190 C179 1.251 . S
O191 Nd160 2.424 . S
O191 C179 1.268 . S
H192 C164 0.930 . S
H193 C165 0.929 . S
H194 C167 0.930 . S
H195 C168 0.929 . S
H196 C173 0.930 . S
H197 C174 0.929 . S
H198 C176 0.930 . S
H199 C177 0.929 . S
Nd200 C202 2.836 1_556 S
Nd200 O220 2.500 . S
Nd200 O221 2.492 . S
Nd200 O222 2.487 . S
Nd200 O223 2.682 . S
Nd200 O224 2.410 . S
Nd200 O229 2.414 . S
Nd200 O231 2.424 . S
Nd201 C211 2.836 . S
Nd201 O223 2.414 . S
Nd201 O225 2.424 . S
Nd201 O226 2.500 . S
Nd201 O227 2.492 . S
Nd201 O228 2.487 . S
Nd201 O229 2.682 . S
Nd201 O230 2.410 . S
C202 Nd200 2.836 1_554 S
C202 C203 1.498 . S
C202 O220 1.258 1_554 S
C202 O221 1.239 1_554 S
C203 C202 1.498 . S
C203 C204 1.366 . S
C203 C208 1.407 . S
C204 C203 1.366 . S
C204 C205 1.392 . S
C204 H232 0.930 . S
C205 C204 1.392 . S
C205 C206 1.398 . S
C205 H233 0.929 . S
C206 C205 1.398 . S
C206 C207 1.352 . S
C207 C206 1.352 . S
C207 C208 1.384 . S
C207 H234 0.930 . S
C208 C203 1.407 . S
C208 C207 1.384 . S
C208 H235 0.929 . S
C209 O222 1.241 . S
C209 O223 1.273 . S
C210 O224 1.251 . S
C210 O225 1.268 . S
C211 Nd201 2.836 . S
C211 C212 1.498 . S
C211 O226 1.258 . S
C211 O227 1.239 . S
C212 C211 1.498 . S
C212 C213 1.366 . S
C212 C217 1.407 . S
C213 C212 1.366 . S
C213 C214 1.392 . S
C213 H236 0.930 . S
C214 C213 1.392 . S
C214 C215 1.398 . S
C214 H237 0.929 . S
C215 C214 1.398 . S
C215 C216 1.352 . S
C216 C215 1.352 . S
C216 C217 1.384 . S
C216 H238 0.930 1_455 S
C217 C212 1.407 . S
C217 C216 1.384 . S
C217 H239 0.931 . S
C218 O228 1.241 . S
C218 O229 1.273 . S
C219 O230 1.251 . S
C219 O231 1.268 . S
O220 Nd200 2.500 . S
O220 C202 1.258 1_556 S
O221 Nd200 2.492 . S
O221 C202 1.239 1_556 S
O222 Nd200 2.487 . S
O222 C209 1.241 . S
O223 Nd200 2.682 . S
O223 Nd201 2.414 . S
O223 C209 1.273 . S
O224 Nd200 2.410 . S
O224 C210 1.251 . S
O225 Nd201 2.424 . S
O225 C210 1.268 . S
O226 Nd201 2.500 . S
O226 C211 1.258 . S
O227 Nd201 2.492 . S
O227 C211 1.239 . S
O228 Nd201 2.487 . S
O228 C218 1.241 . S
O229 Nd200 2.414 . S
O229 Nd201 2.682 . S
O229 C218 1.273 . S
O230 Nd201 2.410 . S
O230 C219 1.251 . S
O231 Nd200 2.424 . S
O231 C219 1.268 . S
H232 C204 0.930 . S
H233 C205 0.929 . S
H234 C207 0.930 . S
H235 C208 0.929 . S
H236 C213 0.930 . S
H237 C214 0.929 . S
H238 C216 0.930 1_655 S
H239 C217 0.931 . S
Nd240 C242 2.836 . S
Nd240 O260 2.500 . S
Nd240 O261 2.492 . S
Nd240 O262 2.487 . S
Nd240 O263 2.682 . S
Nd240 O264 2.410 . S
Nd240 O269 2.414 . S
Nd240 O271 2.424 . S
Nd241 C251 2.836 . S
Nd241 O263 2.414 . S
Nd241 O265 2.424 . S
Nd241 O266 2.500 . S
Nd241 O267 2.492 . S
Nd241 O268 2.487 . S
Nd241 O269 2.682 . S
Nd241 O270 2.410 . S
C242 Nd240 2.836 . S
C242 C243 1.498 . S
C242 O260 1.258 . S
C242 O261 1.239 . S
C243 C242 1.498 . S
C243 C244 1.366 . S
C243 C248 1.407 . S
C244 C243 1.366 . S
C244 C245 1.392 . S
C244 H272 0.930 . S
C245 C244 1.392 . S
C245 C246 1.398 . S
C245 H273 0.929 . S
C246 C245 1.398 . S
C246 C247 1.352 . S
C247 C246 1.352 . S
C247 C248 1.384 . S
C247 H274 0.930 . S
C248 C243 1.407 . S
C248 C247 1.384 . S
C248 H275 0.929 . S
C249 O262 1.241 . S
C249 O263 1.273 . S
C250 O264 1.251 . S
C250 O265 1.268 . S
C251 Nd241 2.836 . S
C251 C252 1.498 . S
C251 O266 1.258 . S
C251 O267 1.239 . S
C252 C251 1.498 . S
C252 C253 1.366 . S
C252 C257 1.407 . S
C253 C252 1.366 . S
C253 C254 1.392 . S
C253 H276 0.930 . S
C254 C253 1.392 . S
C254 C255 1.398 . S
C254 H277 0.929 . S
C255 C254 1.398 . S
C255 C256 1.352 . S
C256 C255 1.352 . S
C256 C257 1.384 . S
C256 H278 0.930 1_655 S
C257 C252 1.407 . S
C257 C256 1.384 . S
C257 H279 0.932 . S
C258 O268 1.241 . S
C258 O269 1.273 . S
C259 O270 1.251 . S
C259 O271 1.268 . S
O260 Nd240 2.500 . S
O260 C242 1.258 . S
O261 Nd240 2.492 . S
O261 C242 1.239 . S
O262 Nd240 2.487 . S
O262 C249 1.241 . S
O263 Nd240 2.682 . S
O263 Nd241 2.414 . S
O263 C249 1.273 . S
O264 Nd240 2.410 . S
O264 C250 1.251 . S
O265 Nd241 2.424 . S
O265 C250 1.268 . S
O266 Nd241 2.500 . S
O266 C251 1.258 . S
O267 Nd241 2.492 . S
O267 C251 1.239 . S
O268 Nd241 2.487 . S
O268 C258 1.241 . S
O269 Nd240 2.414 . S
O269 Nd241 2.682 . S
O269 C258 1.273 . S
O270 Nd241 2.410 . S
O270 C259 1.251 . S
O271 Nd240 2.424 . S
O271 C259 1.268 . S
H272 C244 0.930 . S
H273 C245 0.929 . S
H274 C247 0.930 . S
H275 C248 0.929 . S
H276 C253 0.930 . S
H277 C254 0.929 . S
H278 C256 0.930 1_455 S
H279 C257 0.932 . S
Nd280 C282 2.836 . S
Nd280 O300 2.500 . S
Nd280 O301 2.492 . S
Nd280 O302 2.487 . S
Nd280 O303 2.682 . S
Nd280 O304 2.410 . S
Nd280 O309 2.414 . S
Nd280 O311 2.424 . S
Nd281 C291 2.836 . S
Nd281 O303 2.414 . S
Nd281 O305 2.424 . S
Nd281 O306 2.500 . S
Nd281 O307 2.492 . S
Nd281 O308 2.487 . S
Nd281 O309 2.682 . S
Nd281 O310 2.410 . S
C282 Nd280 2.836 . S
C282 C283 1.498 . S
C282 O300 1.258 . S
C282 O301 1.239 . S
C283 C282 1.498 . S
C283 C284 1.366 . S
C283 C288 1.407 . S
C284 C283 1.366 . S
C284 C285 1.392 . S
C284 H312 0.930 . S
C285 C284 1.392 . S
C285 C286 1.398 . S
C285 H313 0.929 . S
C286 C285 1.398 . S
C286 C287 1.352 . S
C287 C286 1.352 . S
C287 C288 1.384 . S
C287 H314 0.930 . S
C288 C283 1.407 . S
C288 C287 1.384 . S
C288 H315 0.929 . S
C289 O302 1.241 . S
C289 O303 1.273 . S
C290 O304 1.251 . S
C290 O305 1.268 . S
C291 Nd281 2.836 . S
C291 C292 1.498 . S
C291 O306 1.258 . S
C291 O307 1.239 . S
C292 C291 1.498 . S
C292 C293 1.366 . S
C292 C297 1.407 . S
C293 C292 1.366 . S
C293 C294 1.392 . S
C293 H316 0.930 . S
C294 C293 1.392 . S
C294 C295 1.398 . S
C294 H317 0.929 . S
C295 C294 1.398 . S
C295 C296 1.352 . S
C296 C295 1.352 . S
C296 C297 1.384 . S
C296 H318 0.930 1_565 S
C297 C292 1.407 . S
C297 C296 1.384 . S
C297 H319 0.931 . S
C298 O308 1.241 . S
C298 O309 1.273 . S
C299 O310 1.251 . S
C299 O311 1.268 . S
O300 Nd280 2.500 . S
O300 C282 1.258 . S
O301 Nd280 2.492 . S
O301 C282 1.239 . S
O302 Nd280 2.487 . S
O302 C289 1.241 . S
O303 Nd280 2.682 . S
O303 Nd281 2.414 . S
O303 C289 1.273 . S
O304 Nd280 2.410 . S
O304 C290 1.251 . S
O305 Nd281 2.424 . S
O305 C290 1.268 . S
O306 Nd281 2.500 . S
O306 C291 1.258 . S
O307 Nd281 2.492 . S
O307 C291 1.239 . S
O308 Nd281 2.487 . S
O308 C298 1.241 . S
O309 Nd280 2.414 . S
O309 Nd281 2.682 . S
O309 C298 1.273 . S
O310 Nd281 2.410 . S
O310 C299 1.251 . S
O311 Nd280 2.424 . S
O311 C299 1.268 . S
H312 C284 0.930 . S
H313 C285 0.929 . S
H314 C287 0.930 . S
H315 C288 0.929 . S
H316 C293 0.930 . S
H317 C294 0.929 . S
H318 C296 0.930 1_545 S
H319 C297 0.931 . S
Nd320 C322 2.836 1_554 S
Nd320 O340 2.500 . S
Nd320 O341 2.492 . S
Nd320 O342 2.487 . S
Nd320 O343 2.682 . S
Nd320 O344 2.410 . S
Nd320 O349 2.414 . S
Nd320 O351 2.424 . S
Nd321 C331 2.836 . S
Nd321 O343 2.414 . S
Nd321 O345 2.424 . S
Nd321 O346 2.500 . S
Nd321 O347 2.492 . S
Nd321 O348 2.487 . S
Nd321 O349 2.682 . S
Nd321 O350 2.410 . S
C322 Nd320 2.836 1_556 S
C322 C323 1.498 . S
C322 O340 1.258 1_556 S
C322 O341 1.239 1_556 S
C323 C322 1.498 . S
C323 C324 1.366 . S
C323 C328 1.407 . S
C324 C323 1.366 . S
C324 C325 1.392 . S
C324 H352 0.930 . S
C325 C324 1.392 . S
C325 C326 1.398 . S
C325 H353 0.929 . S
C326 C325 1.398 . S
C326 C327 1.352 . S
C327 C326 1.352 . S
C327 C328 1.384 . S
C327 H354 0.930 . S
C328 C323 1.407 . S
C328 C327 1.384 . S
C328 H355 0.929 . S
C329 O342 1.241 . S
C329 O343 1.273 . S
C330 O344 1.251 . S
C330 O345 1.268 . S
C331 Nd321 2.836 . S
C331 C332 1.498 . S
C331 O346 1.258 . S
C331 O347 1.239 . S
C332 C331 1.498 . S
C332 C333 1.366 . S
C332 C337 1.407 . S
C333 C332 1.366 . S
C333 C334 1.392 . S
C333 H356 0.930 . S
C334 C333 1.392 . S
C334 C335 1.398 . S
C334 H357 0.929 . S
C335 C334 1.398 . S
C335 C336 1.352 . S
C336 C335 1.352 . S
C336 C337 1.384 . S
C336 H358 0.930 . S
C337 C332 1.407 . S
C337 C336 1.384 . S
C337 H359 0.929 . S
C338 O348 1.241 . S
C338 O349 1.273 . S
C339 O350 1.251 . S
C339 O351 1.268 . S
O340 Nd320 2.500 . S
O340 C322 1.258 1_554 S
O341 Nd320 2.492 . S
O341 C322 1.239 1_554 S
O342 Nd320 2.487 . S
O342 C329 1.241 . S
O343 Nd320 2.682 . S
O343 Nd321 2.414 . S
O343 C329 1.273 . S
O344 Nd320 2.410 . S
O344 C330 1.251 . S
O345 Nd321 2.424 . S
O345 C330 1.268 . S
O346 Nd321 2.500 . S
O346 C331 1.258 . S
O347 Nd321 2.492 . S
O347 C331 1.239 . S
O348 Nd321 2.487 . S
O348 C338 1.241 . S
O349 Nd320 2.414 . S
O349 Nd321 2.682 . S
O349 C338 1.273 . S
O350 Nd321 2.410 . S
O350 C339 1.251 . S
O351 Nd320 2.424 . S
O351 C339 1.268 . S
H352 C324 0.930 . S
H353 C325 0.929 . S
H354 C327 0.930 . S
H355 C328 0.929 . S
H356 C333 0.930 . S
H357 C334 0.929 . S
H358 C336 0.930 . S
H359 C337 0.929 . S
Nd360 C362 2.836 . S
Nd360 O380 2.500 . S
Nd360 O381 2.492 . S
Nd360 O382 2.487 . S
Nd360 O383 2.682 . S
Nd360 O384 2.410 . S
Nd360 O389 2.414 . S
Nd360 O391 2.424 . S
Nd361 C371 2.836 . S
Nd361 O383 2.414 . S
Nd361 O385 2.424 . S
Nd361 O386 2.500 . S
Nd361 O387 2.492 . S
Nd361 O388 2.487 . S
Nd361 O389 2.682 . S
Nd361 O390 2.410 . S
C362 Nd360 2.836 . S
C362 C363 1.498 . S
C362 O380 1.258 . S
C362 O381 1.239 . S
C363 C362 1.498 . S
C363 C364 1.366 . S
C363 C368 1.407 . S
C364 C363 1.366 . S
C364 C365 1.392 . S
C364 H392 0.930 . S
C365 C364 1.392 . S
C365 C366 1.398 . S
C365 H393 0.929 . S
C366 C365 1.398 . S
C366 C367 1.352 . S
C367 C366 1.352 . S
C367 C368 1.384 . S
C367 H394 0.930 . S
C368 C363 1.407 . S
C368 C367 1.384 . S
C368 H395 0.929 . S
C369 O382 1.241 . S
C369 O383 1.273 . S
C370 O384 1.251 . S
C370 O385 1.268 . S
C371 Nd361 2.836 . S
C371 C372 1.498 . S
C371 O386 1.258 . S
C371 O387 1.239 . S
C372 C371 1.498 . S
C372 C373 1.366 . S
C372 C377 1.407 . S
C373 C372 1.366 . S
C373 C374 1.392 . S
C373 H396 0.930 . S
C374 C373 1.392 . S
C374 C375 1.398 . S
C374 H397 0.929 . S
C375 C374 1.398 . S
C375 C376 1.352 . S
C376 C375 1.352 . S
C376 C377 1.384 . S
C376 H398 0.930 1_455 S
C377 C372 1.407 . S
C377 C376 1.384 . S
C377 H399 0.932 . S
C378 O388 1.241 . S
C378 O389 1.273 . S
C379 O390 1.251 . S
C379 O391 1.268 . S
O380 Nd360 2.500 . S
O380 C362 1.258 . S
O381 Nd360 2.492 . S
O381 C362 1.239 . S
O382 Nd360 2.487 . S
O382 C369 1.241 . S
O383 Nd360 2.682 . S
O383 Nd361 2.414 . S
O383 C369 1.273 . S
O384 Nd360 2.410 . S
O384 C370 1.251 . S
O385 Nd361 2.424 . S
O385 C370 1.268 . S
O386 Nd361 2.500 . S
O386 C371 1.258 . S
O387 Nd361 2.492 . S
O387 C371 1.239 . S
O388 Nd361 2.487 . S
O388 C378 1.241 . S
O389 Nd360 2.414 . S
O389 Nd361 2.682 . S
O389 C378 1.273 . S
O390 Nd361 2.410 . S
O390 C379 1.251 . S
O391 Nd360 2.424 . S
O391 C379 1.268 . S
H392 C364 0.930 . S
H393 C365 0.929 . S
H394 C367 0.930 . S
H395 C368 0.929 . S
H396 C373 0.930 . S
H397 C374 0.929 . S
H398 C376 0.930 1_655 S
H399 C377 0.932 . S
Nd400 C402 2.836 . S
Nd400 O420 2.500 . S
Nd400 O421 2.492 . S
Nd400 O422 2.487 . S
Nd400 O423 2.682 . S
Nd400 O424 2.410 . S
Nd400 O429 2.414 . S
Nd400 O431 2.424 . S
Nd401 C411 2.836 . S
Nd401 O423 2.414 . S
Nd401 O425 2.424 . S
Nd401 O426 2.500 . S
Nd401 O427 2.492 . S
Nd401 O428 2.487 . S
Nd401 O429 2.682 . S
Nd401 O430 2.410 . S
C402 Nd400 2.836 . S
C402 C403 1.498 . S
C402 O420 1.258 . S
C402 O421 1.239 . S
C403 C402 1.498 . S
C403 C404 1.366 . S
C403 C408 1.407 . S
C404 C403 1.366 . S
C404 C405 1.392 . S
C404 H432 0.930 . S
C405 C404 1.392 . S
C405 C406 1.398 . S
C405 H433 0.929 . S
C406 C405 1.398 . S
C406 C407 1.352 . S
C407 C406 1.352 . S
C407 C408 1.384 . S
C407 H434 0.930 . S
C408 C403 1.407 . S
C408 C407 1.384 . S
C408 H435 0.929 . S
C409 O422 1.241 . S
C409 O423 1.273 . S
C410 O424 1.251 . S
C410 O425 1.268 . S
C411 Nd401 2.836 . S
C411 C412 1.498 . S
C411 O426 1.258 . S
C411 O427 1.239 . S
C412 C411 1.498 . S
C412 C413 1.366 . S
C412 C417 1.407 . S
C413 C412 1.366 . S
C413 C414 1.392 . S
C413 H436 0.930 . S
C414 C413 1.392 . S
C414 C415 1.398 . S
C414 H437 0.929 . S
C415 C414 1.398 . S
C415 C416 1.352 . S
C416 C415 1.352 . S
C416 C417 1.384 . S
C416 H438 0.930 1_545 S
C417 C412 1.407 . S
C417 C416 1.384 . S
C417 H439 0.931 . S
C418 O428 1.241 . S
C418 O429 1.273 . S
C419 O430 1.251 . S
C419 O431 1.268 . S
O420 Nd400 2.500 . S
O420 C402 1.258 . S
O421 Nd400 2.492 . S
O421 C402 1.239 . S
O422 Nd400 2.487 . S
O422 C409 1.241 . S
O423 Nd400 2.682 . S
O423 Nd401 2.414 . S
O423 C409 1.273 . S
O424 Nd400 2.410 . S
O424 C410 1.251 . S
O425 Nd401 2.424 . S
O425 C410 1.268 . S
O426 Nd401 2.500 . S
O426 C411 1.258 . S
O427 Nd401 2.492 . S
O427 C411 1.239 . S
O428 Nd401 2.487 . S
O428 C418 1.241 . S
O429 Nd400 2.414 . S
O429 Nd401 2.682 . S
O429 C418 1.273 . S
O430 Nd401 2.410 . S
O430 C419 1.251 . S
O431 Nd400 2.424 . S
O431 C419 1.268 . S
H432 C404 0.930 . S
H433 C405 0.929 . S
H434 C407 0.930 . S
H435 C408 0.929 . S
H436 C413 0.930 . S
H437 C414 0.929 . S
H438 C416 0.930 1_565 S
H439 C417 0.931 . S
Nd440 C442 2.836 1_554 S
Nd440 O460 2.500 . S
Nd440 O461 2.492 . S
Nd440 O462 2.487 . S
Nd440 O463 2.682 . S
Nd440 O464 2.410 . S
Nd440 O469 2.414 . S
Nd440 O471 2.424 . S
Nd441 C451 2.836 . S
Nd441 O463 2.414 . S
Nd441 O465 2.424 . S
Nd441 O466 2.500 . S
Nd441 O467 2.492 . S
Nd441 O468 2.487 . S
Nd441 O469 2.682 . S
Nd441 O470 2.410 . S
C442 Nd440 2.836 1_556 S
C442 C443 1.498 . S
C442 O460 1.258 1_556 S
C442 O461 1.239 1_556 S
C443 C442 1.498 . S
C443 C444 1.366 . S
C443 C448 1.407 . S
C444 C443 1.366 . S
C444 C445 1.392 . S
C444 H472 0.930 . S
C445 C444 1.392 . S
C445 C446 1.398 . S
C445 H473 0.929 . S
C446 C445 1.398 . S
C446 C447 1.352 . S
C447 C446 1.352 . S
C447 C448 1.384 . S
C447 H474 0.930 . S
C448 C443 1.407 . S
C448 C447 1.384 . S
C448 H475 0.929 . S
C449 O462 1.241 . S
C449 O463 1.273 . S
C450 O464 1.251 . S
C450 O465 1.268 . S
C451 Nd441 2.836 . S
C451 C452 1.498 . S
C451 O466 1.258 . S
C451 O467 1.239 . S
C452 C451 1.498 . S
C452 C453 1.366 . S
C452 C457 1.407 . S
C453 C452 1.366 . S
C453 C454 1.392 . S
C453 H476 0.930 . S
C454 C453 1.392 . S
C454 C455 1.398 . S
C454 H477 0.929 . S
C455 C454 1.398 . S
C455 C456 1.352 . S
C456 C455 1.352 . S
C456 C457 1.384 . S
C456 H478 0.930 . S
C457 C452 1.407 . S
C457 C456 1.384 . S
C457 H479 0.929 . S
C458 O468 1.241 . S
C458 O469 1.273 . S
C459 O470 1.251 . S
C459 O471 1.268 . S
O460 Nd440 2.500 . S
O460 C442 1.258 1_554 S
O461 Nd440 2.492 . S
O461 C442 1.239 1_554 S
O462 Nd440 2.487 . S
O462 C449 1.241 . S
O463 Nd440 2.682 . S
O463 Nd441 2.414 . S
O463 C449 1.273 . S
O464 Nd440 2.410 . S
O464 C450 1.251 . S
O465 Nd441 2.424 . S
O465 C450 1.268 . S
O466 Nd441 2.500 . S
O466 C451 1.258 . S
O467 Nd441 2.492 . S
O467 C451 1.239 . S
O468 Nd441 2.487 . S
O468 C458 1.241 . S
O469 Nd440 2.414 . S
O469 Nd441 2.682 . S
O469 C458 1.273 . S
O470 Nd441 2.410 . S
O470 C459 1.251 . S
O471 Nd440 2.424 . S
O471 C459 1.268 . S
H472 C444 0.930 . S
H473 C445 0.929 . S
H474 C447 0.930 . S
H475 C448 0.929 . S
H476 C453 0.930 . S
H477 C454 0.929 . S
H478 C456 0.930 . S
H479 C457 0.929 . S
C480 C481 1.391 . S
C480 C482 1.394 . S
C480 H496 0.931 . S
C481 C480 1.391 . S
C481 C485 1.376 . S
C482 C480 1.394 . S
C482 C483 1.369 . S
C482 C486 1.531 . S
C483 C482 1.369 . S
C483 C484 1.410 . S
C483 C491 1.503 . S
C484 C483 1.410 . S
C484 C485 1.392 . S
C484 C487 1.511 . S
C485 C481 1.376 . S
C485 C484 1.392 . S
C485 H497 0.929 . S
C486 C482 1.531 . S
C486 H498 0.960 . S
C486 H499 0.962 . S
C486 H500 0.960 . S
C487 C484 1.511 . S
C487 H501 0.961 . S
C487 H502 0.961 . S
C487 H503 0.961 . S
C488 C489 1.370 . S
C488 C490 1.363 . S
C488 H504 0.931 . S
C489 C488 1.370 . S
C489 C493 1.408 . S
C490 C488 1.363 . S
C490 C491 1.370 . S
C490 C494 1.524 . S
C491 C483 1.503 . S
C491 C490 1.370 . S
C491 C492 1.403 . S
C492 C491 1.403 . S
C492 C493 1.404 . S
C492 C495 1.539 . S
C493 C489 1.408 . S
C493 C492 1.404 . S
C493 H505 0.930 . S
C494 C490 1.524 . S
C494 H506 0.956 . S
C494 H507 0.961 . S
C494 H508 0.961 . S
C495 C492 1.539 . S
C495 H509 0.958 . S
C495 H510 0.961 . S
C495 H511 0.960 . S
H496 C480 0.931 . S
H497 C485 0.929 . S
H498 C486 0.960 . S
H499 C486 0.962 . S
H500 C486 0.960 . S
H501 C487 0.961 . S
H502 C487 0.961 . S
H503 C487 0.961 . S
H504 C488 0.931 . S
H505 C493 0.930 . S
H506 C494 0.956 . S
H507 C494 0.961 . S
H508 C494 0.961 . S
H509 C495 0.958 . S
H510 C495 0.961 . S
H511 C495 0.960 . S
C512 C513 1.391 . S
C512 C514 1.394 . S
C512 H528 0.931 . S
C513 C512 1.391 . S
C513 C517 1.376 . S
C514 C512 1.394 . S
C514 C515 1.369 . S
C514 C518 1.531 . S
C515 C514 1.369 . S
C515 C516 1.410 . S
C515 C523 1.503 . S
C516 C515 1.410 . S
C516 C517 1.392 . S
C516 C519 1.511 . S
C517 C513 1.376 . S
C517 C516 1.392 . S
C517 H529 0.929 . S
C518 C514 1.531 . S
C518 H530 0.960 . S
C518 H531 0.962 . S
C518 H532 0.960 . S
C519 C516 1.511 . S
C519 H533 0.961 . S
C519 H534 0.961 . S
C519 H535 0.961 . S
C520 C521 1.370 . S
C520 C522 1.363 . S
C520 H536 0.931 . S
C521 C520 1.370 . S
C521 C525 1.408 . S
C522 C520 1.363 . S
C522 C523 1.370 . S
C522 C526 1.524 . S
C523 C515 1.503 . S
C523 C522 1.370 . S
C523 C524 1.403 . S
C524 C523 1.403 . S
C524 C525 1.404 . S
C524 C527 1.539 . S
C525 C521 1.408 . S
C525 C524 1.404 . S
C525 H537 0.930 . S
C526 C522 1.524 . S
C526 H538 0.956 . S
C526 H539 0.961 . S
C526 H540 0.961 . S
C527 C524 1.539 . S
C527 H541 0.958 . S
C527 H542 0.961 . S
C527 H543 0.960 . S
H528 C512 0.931 . S
H529 C517 0.929 . S
H530 C518 0.960 . S
H531 C518 0.962 . S
H532 C518 0.960 . S
H533 C519 0.961 . S
H534 C519 0.961 . S
H535 C519 0.961 . S
H536 C520 0.931 . S
H537 C525 0.930 . S
H538 C526 0.956 . S
H539 C526 0.961 . S
H540 C526 0.961 . S
H541 C527 0.958 . S
H542 C527 0.961 . S
H543 C527 0.960 . S
C544 C545 1.391 . S
C544 C546 1.394 . S
C544 H560 0.931 . S
C545 C544 1.391 . S
C545 C549 1.376 . S
C546 C544 1.394 . S
C546 C547 1.369 . S
C546 C550 1.531 . S
C547 C546 1.369 . S
C547 C548 1.410 . S
C547 C555 1.503 . S
C548 C547 1.410 . S
C548 C549 1.392 . S
C548 C551 1.511 . S
C549 C545 1.376 . S
C549 C548 1.392 . S
C549 H561 0.929 . S
C550 C546 1.531 . S
C550 H562 0.960 . S
C550 H563 0.962 . S
C550 H564 0.960 . S
C551 C548 1.511 . S
C551 H565 0.961 . S
C551 H566 0.961 . S
C551 H567 0.961 . S
C552 C553 1.370 . S
C552 C554 1.363 . S
C552 H568 0.931 . S
C553 C552 1.370 . S
C553 C557 1.408 . S
C554 C552 1.363 . S
C554 C555 1.370 . S
C554 C558 1.524 . S
C555 C547 1.503 . S
C555 C554 1.370 . S
C555 C556 1.403 . S
C556 C555 1.403 . S
C556 C557 1.404 . S
C556 C559 1.539 . S
C557 C553 1.408 . S
C557 C556 1.404 . S
C557 H569 0.930 . S
C558 C554 1.524 . S
C558 H570 0.956 . S
C558 H571 0.961 . S
C558 H572 0.961 . S
C559 C556 1.539 . S
C559 H573 0.958 . S
C559 H574 0.961 . S
C559 H575 0.960 . S
H560 C544 0.931 . S
H561 C549 0.929 . S
H562 C550 0.960 . S
H563 C550 0.962 . S
H564 C550 0.960 . S
H565 C551 0.961 . S
H566 C551 0.961 . S
H567 C551 0.961 . S
H568 C552 0.931 . S
H569 C557 0.930 . S
H570 C558 0.956 . S
H571 C558 0.961 . S
H572 C558 0.961 . S
H573 C559 0.958 . S
H574 C559 0.961 . S
H575 C559 0.960 . S
C576 C577 1.391 . S
C576 C578 1.394 . S
C576 H592 0.931 . S
C577 C576 1.391 . S
C577 C581 1.376 . S
C578 C576 1.394 . S
C578 C579 1.369 . S
C578 C582 1.531 . S
C579 C578 1.369 . S
C579 C580 1.410 . S
C579 C587 1.503 . S
C580 C579 1.410 . S
C580 C581 1.392 . S
C580 C583 1.511 . S
C581 C577 1.376 . S
C581 C580 1.392 . S
C581 H593 0.929 . S
C582 C578 1.531 . S
C582 H594 0.960 . S
C582 H595 0.962 . S
C582 H596 0.960 . S
C583 C580 1.511 . S
C583 H597 0.961 . S
C583 H598 0.961 . S
C583 H599 0.961 . S
C584 C585 1.370 . S
C584 C586 1.363 . S
C584 H600 0.931 . S
C585 C584 1.370 . S
C585 C589 1.408 . S
C586 C584 1.363 . S
C586 C587 1.370 . S
C586 C590 1.524 . S
C587 C579 1.503 . S
C587 C586 1.370 . S
C587 C588 1.403 . S
C588 C587 1.403 . S
C588 C589 1.404 . S
C588 C591 1.539 . S
C589 C585 1.408 . S
C589 C588 1.404 . S
C589 H601 0.930 . S
C590 C586 1.524 . S
C590 H602 0.956 . S
C590 H603 0.961 . S
C590 H604 0.961 . S
C591 C588 1.539 . S
C591 H605 0.958 . S
C591 H606 0.961 . S
C591 H607 0.960 . S
H592 C576 0.931 . S
H593 C581 0.929 . S
H594 C582 0.960 . S
H595 C582 0.962 . S
H596 C582 0.960 . S
H597 C583 0.961 . S
H598 C583 0.961 . S
H599 C583 0.961 . S
H600 C584 0.931 . S
H601 C589 0.930 . S
H602 C590 0.956 . S
H603 C590 0.961 . S
H604 C590 0.961 . S
H605 C591 0.958 . S
H606 C591 0.961 . S
H607 C591 0.960 . S
C608 C609 1.391 . S
C608 C610 1.394 . S
C608 H624 0.931 . S
C609 C608 1.391 . S
C609 C613 1.376 . S
C610 C608 1.394 . S
C610 C611 1.369 . S
C610 C614 1.531 . S
C611 C610 1.369 . S
C611 C612 1.410 . S
C611 C619 1.503 . S
C612 C611 1.410 . S
C612 C613 1.392 . S
C612 C615 1.511 . S
C613 C609 1.376 . S
C613 C612 1.392 . S
C613 H625 0.929 . S
C614 C610 1.531 . S
C614 H626 0.960 . S
C614 H627 0.962 . S
C614 H628 0.960 . S
C615 C612 1.511 . S
C615 H629 0.961 . S
C615 H630 0.961 . S
C615 H631 0.961 . S
C616 C617 1.370 . S
C616 C618 1.363 . S
C616 H632 0.931 . S
C617 C616 1.370 . S
C617 C621 1.408 . S
C618 C616 1.363 . S
C618 C619 1.370 . S
C618 C622 1.524 . S
C619 C611 1.503 . S
C619 C618 1.370 . S
C619 C620 1.403 . S
C620 C619 1.403 . S
C620 C621 1.404 . S
C620 C623 1.539 . S
C621 C617 1.408 . S
C621 C620 1.404 . S
C621 H633 0.930 . S
C622 C618 1.524 . S
C622 H634 0.956 . S
C622 H635 0.961 . S
C622 H636 0.961 . S
C623 C620 1.539 . S
C623 H637 0.958 . S
C623 H638 0.961 . S
C623 H639 0.960 . S
H624 C608 0.931 . S
H625 C613 0.929 . S
H626 C614 0.960 . S
H627 C614 0.962 . S
H628 C614 0.960 . S
H629 C615 0.961 . S
H630 C615 0.961 . S
H631 C615 0.961 . S
H632 C616 0.931 . S
H633 C621 0.930 . S
H634 C622 0.956 . S
H635 C622 0.961 . S
H636 C622 0.961 . S
H637 C623 0.958 . S
H638 C623 0.961 . S
H639 C623 0.960 . S
C640 C641 1.391 . S
C640 C642 1.394 . S
C640 H656 0.931 . S
C641 C640 1.391 . S
C641 C645 1.376 . S
C642 C640 1.394 . S
C642 C643 1.369 . S
C642 C646 1.531 . S
C643 C642 1.369 . S
C643 C644 1.410 . S
C643 C651 1.503 . S
C644 C643 1.410 . S
C644 C645 1.392 . S
C644 C647 1.511 . S
C645 C641 1.376 . S
C645 C644 1.392 . S
C645 H657 0.929 . S
C646 C642 1.531 . S
C646 H658 0.960 . S
C646 H659 0.962 . S
C646 H660 0.960 . S
C647 C644 1.511 . S
C647 H661 0.961 . S
C647 H662 0.961 . S
C647 H663 0.961 . S
C648 C649 1.370 . S
C648 C650 1.363 . S
C648 H664 0.931 . S
C649 C648 1.370 . S
C649 C653 1.408 . S
C650 C648 1.363 . S
C650 C651 1.370 . S
C650 C654 1.524 . S
C651 C643 1.503 . S
C651 C650 1.370 . S
C651 C652 1.403 . S
C652 C651 1.403 . S
C652 C653 1.404 . S
C652 C655 1.539 . S
C653 C649 1.408 . S
C653 C652 1.404 . S
C653 H665 0.930 . S
C654 C650 1.524 . S
C654 H666 0.956 . S
C654 H667 0.961 . S
C654 H668 0.961 . S
C655 C652 1.539 . S
C655 H669 0.958 . S
C655 H670 0.961 . S
C655 H671 0.960 . S
H656 C640 0.931 . S
H657 C645 0.929 . S
H658 C646 0.960 . S
H659 C646 0.962 . S
H660 C646 0.960 . S
H661 C647 0.961 . S
H662 C647 0.961 . S
H663 C647 0.961 . S
H664 C648 0.931 . S
H665 C653 0.930 . S
H666 C654 0.956 . S
H667 C654 0.961 . S
H668 C654 0.961 . S
H669 C655 0.958 . S
H670 C655 0.961 . S
H671 C655 0.960 . S
C672 C673 1.391 . S
C672 C674 1.394 . S
C672 H688 0.931 . S
C673 C672 1.391 . S
C673 C677 1.376 . S
C674 C672 1.394 . S
C674 C675 1.369 . S
C674 C678 1.531 . S
C675 C674 1.369 . S
C675 C676 1.410 . S
C675 C683 1.503 1_556 S
C676 C675 1.410 . S
C676 C677 1.392 . S
C676 C679 1.511 1_556 S
C677 C673 1.376 . S
C677 C676 1.392 . S
C677 H689 0.929 . S
C678 C674 1.531 . S
C678 H690 0.960 . S
C678 H691 0.962 . S
C678 H692 0.960 . S
C679 C676 1.511 1_554 S
C679 H693 0.961 1_554 S
C679 H694 0.961 . S
C679 H695 0.961 . S
C680 C681 1.370 . S
C680 C682 1.363 . S
C680 H696 0.931 . S
C681 C680 1.370 . S
C681 C685 1.408 . S
C682 C680 1.363 . S
C682 C683 1.370 . S
C682 C686 1.524 1_554 S
C683 C675 1.503 1_554 S
C683 C682 1.370 . S
C683 C684 1.403 . S
C684 C683 1.403 . S
C684 C685 1.404 . S
C684 C687 1.539 . S
C685 C681 1.408 . S
C685 C684 1.404 . S
C685 H697 0.930 . S
C686 C682 1.524 1_556 S
C686 H698 0.956 . S
C686 H699 0.961 . S
C686 H700 0.968 . S
C687 C684 1.539 . S
C687 H701 0.958 . S
C687 H702 0.961 . S
C687 H703 0.960 . S
H688 C672 0.931 . S
H689 C677 0.929 . S
H690 C678 0.960 . S
H691 C678 0.962 . S
H692 C678 0.960 . S
H693 C679 0.961 1_556 S
H694 C679 0.961 . S
H695 C679 0.961 . S
H696 C680 0.931 . S
H697 C685 0.930 . S
H698 C686 0.956 . S
H699 C686 0.961 . S
H700 C686 0.968 . S
H701 C687 0.958 . S
H702 C687 0.961 . S
H703 C687 0.960 . S
C704 C705 1.391 . S
C704 C706 1.394 . S
C704 H720 0.931 . S
C705 C704 1.391 . S
C705 C709 1.376 . S
C706 C704 1.394 . S
C706 C707 1.369 . S
C706 C710 1.531 . S
C707 C706 1.369 . S
C707 C708 1.410 . S
C707 C715 1.503 . S
C708 C707 1.410 . S
C708 C709 1.392 . S
C708 C711 1.511 . S
C709 C705 1.376 . S
C709 C708 1.392 . S
C709 H721 0.929 . S
C710 C706 1.531 . S
C710 H722 0.960 . S
C710 H723 0.962 . S
C710 H724 0.960 . S
C711 C708 1.511 . S
C711 H725 0.961 . S
C711 H726 0.961 . S
C711 H727 0.961 . S
C712 C713 1.370 . S
C712 C714 1.363 . S
C712 H728 0.931 . S
C713 C712 1.370 . S
C713 C717 1.408 . S
C714 C712 1.363 . S
C714 C715 1.370 . S
C714 C718 1.524 . S
C715 C707 1.503 . S
C715 C714 1.370 . S
C715 C716 1.403 . S
C716 C715 1.403 . S
C716 C717 1.404 . S
C716 C719 1.539 . S
C717 C713 1.408 . S
C717 C716 1.404 . S
C717 H729 0.930 . S
C718 C714 1.524 . S
C718 H730 0.956 . S
C718 H731 0.961 . S
C718 H732 0.961 . S
C719 C716 1.539 . S
C719 H733 0.958 . S
C719 H734 0.961 . S
C719 H735 0.960 . S
H720 C704 0.931 . S
H721 C709 0.929 . S
H722 C710 0.960 . S
H723 C710 0.962 . S
H724 C710 0.960 . S
H725 C711 0.961 . S
H726 C711 0.961 . S
H727 C711 0.961 . S
H728 C712 0.931 . S
H729 C717 0.930 . S
H730 C718 0.956 . S
H731 C718 0.961 . S
H732 C718 0.961 . S
H733 C719 0.958 . S
H734 C719 0.961 . S
H735 C719 0.960 . S
C736 C737 1.391 . S
C736 C738 1.394 . S
C736 H752 0.931 . S
C737 C736 1.391 . S
C737 C741 1.376 . S
C738 C736 1.394 . S
C738 C739 1.369 . S
C738 C742 1.531 . S
C739 C738 1.369 . S
C739 C740 1.410 . S
C739 C747 1.503 . S
C740 C739 1.410 . S
C740 C741 1.392 . S
C740 C743 1.511 . S
C741 C737 1.376 . S
C741 C740 1.392 . S
C741 H753 0.929 . S
C742 C738 1.531 . S
C742 H754 0.960 . S
C742 H755 0.962 . S
C742 H756 0.960 . S
C743 C740 1.511 . S
C743 H757 0.961 . S
C743 H758 0.961 . S
C743 H759 0.961 . S
C744 C745 1.370 . S
C744 C746 1.363 . S
C744 H760 0.931 . S
C745 C744 1.370 . S
C745 C749 1.408 . S
C746 C744 1.363 . S
C746 C747 1.370 . S
C746 C750 1.524 . S
C747 C739 1.503 . S
C747 C746 1.370 . S
C747 C748 1.403 . S
C748 C747 1.403 . S
C748 C749 1.404 . S
C748 C751 1.539 . S
C749 C745 1.408 . S
C749 C748 1.404 . S
C749 H761 0.930 . S
C750 C746 1.524 . S
C750 H762 0.956 . S
C750 H763 0.961 . S
C750 H764 0.961 . S
C751 C748 1.539 . S
C751 H765 0.958 . S
C751 H766 0.961 . S
C751 H767 0.960 . S
H752 C736 0.931 . S
H753 C741 0.929 . S
H754 C742 0.960 . S
H755 C742 0.962 . S
H756 C742 0.960 . S
H757 C743 0.961 . S
H758 C743 0.961 . S
H759 C743 0.961 . S
H760 C744 0.931 . S
H761 C749 0.930 . S
H762 C750 0.956 . S
H763 C750 0.961 . S
H764 C750 0.961 . S
H765 C751 0.958 . S
H766 C751 0.961 . S
H767 C751 0.960 . S
C768 C769 1.391 . S
C768 C770 1.394 . S
C768 H784 0.931 . S
C769 C768 1.391 . S
C769 C773 1.376 . S
C770 C768 1.394 . S
C770 C771 1.369 . S
C770 C774 1.531 1_556 S
C771 C770 1.369 . S
C771 C772 1.410 . S
C771 C779 1.503 1_556 S
C772 C771 1.410 . S
C772 C773 1.392 . S
C772 C775 1.511 . S
C773 C769 1.376 . S
C773 C772 1.392 . S
C773 H785 0.929 . S
C774 C770 1.531 1_554 S
C774 H786 0.960 . S
C774 H787 0.962 . S
C774 H788 0.960 . S
C775 C772 1.511 . S
C775 H789 0.961 . S
C775 H790 0.961 . S
C775 H791 0.961 . S
C776 C777 1.370 . S
C776 C778 1.363 . S
C776 H792 0.931 . S
C777 C776 1.370 . S
C777 C781 1.408 . S
C778 C776 1.363 . S
C778 C779 1.370 . S
C778 C782 1.524 . S
C779 C771 1.503 1_554 S
C779 C778 1.370 . S
C779 C780 1.403 . S
C780 C779 1.403 . S
C780 C781 1.404 . S
C780 C783 1.539 . S
C781 C777 1.408 . S
C781 C780 1.404 . S
C781 H793 0.930 . S
C782 C778 1.524 . S
C782 H794 0.956 . S
C782 H795 0.961 1_554 S
C782 H796 0.961 . S
C783 C780 1.539 . S
C783 H797 0.958 . S
C783 H798 0.961 . S
C783 H799 0.960 1_554 S
H784 C768 0.931 . S
H785 C773 0.929 . S
H786 C774 0.960 . S
H787 C774 0.962 . S
H788 C774 0.960 . S
H789 C775 0.961 . S
H790 C775 0.961 . S
H791 C775 0.961 . S
H792 C776 0.931 . S
H793 C781 0.930 . S
H794 C782 0.956 . S
H795 C782 0.961 1_556 S
H796 C782 0.961 . S
H797 C783 0.958 . S
H798 C783 0.961 . S
H799 C783 0.960 1_556 S
C800 C801 1.391 . S
C800 C802 1.394 . S
C800 H816 0.931 . S
C801 C800 1.391 . S
C801 C805 1.376 . S
C802 C800 1.394 . S
C802 C803 1.369 . S
C802 C806 1.531 . S
C803 C802 1.369 . S
C803 C804 1.410 . S
C803 C811 1.503 . S
C804 C803 1.410 . S
C804 C805 1.392 . S
C804 C807 1.511 . S
C805 C801 1.376 . S
C805 C804 1.392 . S
C805 H817 0.929 . S
C806 C802 1.531 . S
C806 H818 0.960 . S
C806 H819 0.962 . S
C806 H820 0.960 . S
C807 C804 1.511 . S
C807 H821 0.961 . S
C807 H822 0.961 . S
C807 H823 0.961 . S
C808 C809 1.370 . S
C808 C810 1.363 . S
C808 H824 0.931 . S
C809 C808 1.370 . S
C809 C813 1.408 . S
C810 C808 1.363 . S
C810 C811 1.370 . S
C810 C814 1.524 . S
C811 C803 1.503 . S
C811 C810 1.370 . S
C811 C812 1.403 . S
C812 C811 1.403 . S
C812 C813 1.404 . S
C812 C815 1.539 . S
C813 C809 1.408 . S
C813 C812 1.404 . S
C813 H825 0.930 . S
C814 C810 1.524 . S
C814 H826 0.956 . S
C814 H827 0.961 . S
C814 H828 0.961 . S
C815 C812 1.539 . S
C815 H829 0.958 . S
C815 H830 0.961 . S
C815 H831 0.960 . S
H816 C800 0.931 . S
H817 C805 0.929 . S
H818 C806 0.960 . S
H819 C806 0.962 . S
H820 C806 0.960 . S
H821 C807 0.961 . S
H822 C807 0.961 . S
H823 C807 0.961 . S
H824 C808 0.931 . S
H825 C813 0.930 . S
H826 C814 0.956 . S
H827 C814 0.961 . S
H828 C814 0.961 . S
H829 C815 0.958 . S
H830 C815 0.961 . S
H831 C815 0.960 . S
C832 C833 1.391 . S
C832 C834 1.394 . S
C832 H848 0.931 . S
C833 C832 1.391 . S
C833 C837 1.376 . S
C834 C832 1.394 . S
C834 C835 1.369 . S
C834 C838 1.531 . S
C835 C834 1.369 . S
C835 C836 1.410 . S
C835 C843 1.503 . S
C836 C835 1.410 . S
C836 C837 1.392 . S
C836 C839 1.511 . S
C837 C833 1.376 . S
C837 C836 1.392 . S
C837 H849 0.929 . S
C838 C834 1.531 . S
C838 H850 0.960 . S
C838 H851 0.962 . S
C838 H852 0.960 . S
C839 C836 1.511 . S
C839 H853 0.961 . S
C839 H854 0.961 . S
C839 H855 0.961 . S
C840 C841 1.370 . S
C840 C842 1.363 . S
C840 H856 0.931 . S
C841 C840 1.370 . S
C841 C845 1.408 . S
C842 C840 1.363 . S
C842 C843 1.370 . S
C842 C846 1.524 . S
C843 C835 1.503 . S
C843 C842 1.370 . S
C843 C844 1.403 . S
C844 C843 1.403 . S
C844 C845 1.404 . S
C844 C847 1.539 . S
C845 C841 1.408 . S
C845 C844 1.404 . S
C845 H857 0.930 . S
C846 C842 1.524 . S
C846 H858 0.956 . S
C846 H859 0.961 . S
C846 H860 0.961 . S
C847 C844 1.539 . S
C847 H861 0.958 . S
C847 H862 0.961 . S
C847 H863 0.960 . S
H848 C832 0.931 . S
H849 C837 0.929 . S
H850 C838 0.960 . S
H851 C838 0.962 . S
H852 C838 0.960 . S
H853 C839 0.961 . S
H854 C839 0.961 . S
H855 C839 0.961 . S
H856 C840 0.931 . S
H857 C845 0.930 . S
H858 C846 0.956 . S
H859 C846 0.961 . S
H860 C846 0.961 . S
H861 C847 0.958 . S
H862 C847 0.961 . S
H863 C847 0.960 . S
C864 C865 1.391 . S
C864 C866 1.394 . S
C864 H880 0.931 . S
C865 C864 1.391 . S
C865 C869 1.376 . S
C866 C864 1.394 . S
C866 C867 1.369 . S
C866 C870 1.531 1_565 S
C867 C866 1.369 . S
C867 C868 1.410 . S
C867 C875 1.503 1_566 S
C868 C867 1.410 . S
C868 C869 1.392 . S
C868 C871 1.511 1_556 S
C869 C865 1.376 . S
C869 C868 1.392 . S
C869 H881 0.929 . S
C870 C866 1.531 1_545 S
C870 H882 0.960 . S
C870 H883 0.962 . S
C870 H884 0.960 . S
C871 C868 1.511 1_554 S
C871 H885 0.961 . S
C871 H886 0.961 . S
C871 H887 0.961 . S
C872 C873 1.370 . S
C872 C874 1.363 . S
C872 H888 0.931 . S
C873 C872 1.370 . S
C873 C877 1.408 . S
C874 C872 1.363 . S
C874 C875 1.370 . S
C874 C878 1.524 1_545 S
C875 C867 1.503 1_544 S
C875 C874 1.370 . S
C875 C876 1.403 . S
C876 C875 1.403 . S
C876 C877 1.404 . S
C876 C879 1.539 1_554 S
C877 C873 1.408 . S
C877 C876 1.404 . S
C877 H889 0.930 . S
C878 C874 1.524 1_565 S
C878 H890 0.956 . S
C878 H891 0.961 . S
C878 H892 0.961 . S
C879 C876 1.539 1_556 S
C879 H893 0.958 . S
C879 H894 0.961 . S
C879 H895 0.960 . S
H880 C864 0.931 . S
H881 C869 0.929 . S
H882 C870 0.960 . S
H883 C870 0.962 . S
H884 C870 0.960 . S
H885 C871 0.961 . S
H886 C871 0.961 . S
H887 C871 0.961 . S
H888 C872 0.931 . S
H889 C877 0.930 . S
H890 C878 0.956 . S
H891 C878 0.961 . S
H892 C878 0.961 . S
H893 C879 0.958 . S
H894 C879 0.961 . S
H895 C879 0.960 . S
C896 C897 1.391 . S
C896 C898 1.394 . S
C896 H912 0.931 . S
C897 C896 1.391 . S
C897 C901 1.376 . S
C898 C896 1.394 . S
C898 C899 1.369 . S
C898 C902 1.531 . S
C899 C898 1.369 . S
C899 C900 1.410 . S
C899 C907 1.503 . S
C900 C899 1.410 . S
C900 C901 1.392 . S
C900 C903 1.511 . S
C901 C897 1.376 . S
C901 C900 1.392 . S
C901 H913 0.929 . S
C902 C898 1.531 . S
C902 H914 0.960 . S
C902 H915 0.962 . S
C902 H916 0.960 . S
C903 C900 1.511 . S
C903 H917 0.961 . S
C903 H918 0.961 . S
C903 H919 0.961 . S
C904 C905 1.370 . S
C904 C906 1.363 . S
C904 H920 0.931 . S
C905 C904 1.370 . S
C905 C909 1.408 . S
C906 C904 1.363 . S
C906 C907 1.370 . S
C906 C910 1.524 . S
C907 C899 1.503 . S
C907 C906 1.370 . S
C907 C908 1.403 . S
C908 C907 1.403 . S
C908 C909 1.404 . S
C908 C911 1.539 . S
C909 C905 1.408 . S
C909 C908 1.404 . S
C909 H921 0.930 . S
C910 C906 1.524 . S
C910 H922 0.956 . S
C910 H923 0.961 . S
C910 H924 0.961 . S
C911 C908 1.539 . S
C911 H925 0.958 . S
C911 H926 0.961 . S
C911 H927 0.960 . S
H912 C896 0.931 . S
H913 C901 0.929 . S
H914 C902 0.960 . S
H915 C902 0.962 . S
H916 C902 0.960 . S
H917 C903 0.961 . S
H918 C903 0.961 . S
H919 C903 0.961 . S
H920 C904 0.931 . S
H921 C909 0.930 . S
H922 C910 0.956 . S
H923 C910 0.961 . S
H924 C910 0.961 . S
H925 C911 0.958 . S
H926 C911 0.961 . S
H927 C911 0.960 . S
C928 C929 1.391 . S
C928 C930 1.394 . S
C928 H944 0.931 . S
C929 C928 1.391 . S
C929 C933 1.376 . S
C930 C928 1.394 . S
C930 C931 1.369 . S
C930 C934 1.531 . S
C931 C930 1.369 . S
C931 C932 1.410 . S
C931 C939 1.503 1_455 S
C932 C931 1.410 . S
C932 C933 1.392 . S
C932 C935 1.511 1_455 S
C933 C929 1.376 . S
C933 C932 1.392 . S
C933 H945 0.929 . S
C934 C930 1.531 . S
C934 H946 0.960 . S
C934 H947 0.962 . S
C934 H948 0.960 . S
C935 C932 1.511 1_655 S
C935 H949 0.961 . S
C935 H950 0.961 . S
C935 H951 0.961 . S
C936 C937 1.370 . S
C936 C938 1.363 . S
C936 H952 0.931 . S
C937 C936 1.370 . S
C937 C941 1.408 . S
C938 C936 1.363 . S
C938 C939 1.370 . S
C938 C942 1.524 . S
C939 C931 1.503 1_655 S
C939 C938 1.370 . S
C939 C940 1.403 . S
C940 C939 1.403 . S
C940 C941 1.404 . S
C940 C943 1.539 . S
C941 C937 1.408 . S
C941 C940 1.404 . S
C941 H953 0.930 . S
C942 C938 1.524 . S
C942 H954 0.956 1_655 S
C942 H955 0.961 . S
C942 H956 0.961 . S
C943 C940 1.539 . S
C943 H957 0.958 1_655 S
C943 H958 0.961 . S
C943 H959 0.960 . S
H944 C928 0.931 . S
H945 C933 0.929 . S
H946 C934 0.960 . S
H947 C934 0.962 . S
H948 C934 0.960 . S
H949 C935 0.961 . S
H950 C935 0.961 . S
H951 C935 0.961 . S
H952 C936 0.931 . S
H953 C941 0.930 . S
H954 C942 0.956 1_455 S
H955 C942 0.961 . S
H956 C942 0.961 . S
H957 C943 0.958 1_455 S
H958 C943 0.961 . S
H959 C943 0.960 . S
C960 C961 1.391 . S
C960 C962 1.394 . S
C960 H976 0.931 . S
C961 C960 1.391 . S
C961 C965 1.376 . S
C962 C960 1.394 . S
C962 C963 1.369 . S
C962 C966 1.531 1_554 S
C963 C962 1.369 . S
C963 C964 1.410 . S
C963 C971 1.503 1_564 S
C964 C963 1.410 . S
C964 C965 1.392 . S
C964 C967 1.511 1_565 S
C965 C961 1.376 . S
C965 C964 1.392 . S
C965 H977 0.929 . S
C966 C962 1.531 1_556 S
C966 H978 0.960 . S
C966 H979 0.962 . S
C966 H980 0.960 . S
C967 C964 1.511 1_545 S
C967 H981 0.961 . S
C967 H982 0.961 . S
C967 H983 0.961 . S
C968 C969 1.370 . S
C968 C970 1.363 . S
C968 H984 0.931 . S
C969 C968 1.370 . S
C969 C973 1.408 . S
C970 C968 1.363 . S
C970 C971 1.370 . S
C970 C974 1.524 1_556 S
C971 C963 1.503 1_546 S
C971 C970 1.370 . S
C971 C972 1.403 . S
C972 C971 1.403 . S
C972 C973 1.404 . S
C972 C975 1.539 1_545 S
C973 C969 1.408 . S
C973 C972 1.404 . S
C973 H985 0.930 . S
C974 C970 1.524 1_554 S
C974 H986 0.956 . S
C974 H987 0.961 . S
C974 H988 0.961 . S
C975 C972 1.539 1_565 S
C975 H989 0.958 . S
C975 H990 0.961 1_565 S
C975 H991 0.960 . S
H976 C960 0.931 . S
H977 C965 0.929 . S
H978 C966 0.960 . S
H979 C966 0.962 . S
H980 C966 0.960 . S
H981 C967 0.961 . S
H982 C967 0.961 . S
H983 C967 0.961 . S
H984 C968 0.931 . S
H985 C973 0.930 . S
H986 C974 0.956 . S
H987 C974 0.961 . S
H988 C974 0.961 . S
H989 C975 0.958 . S
H990 C975 0.961 1_545 S
H991 C975 0.960 . S
C992 C993 1.391 . S
C992 C994 1.394 . S
C992 H1008 0.931 . S
C993 C992 1.391 . S
C993 C997 1.376 . S
C994 C992 1.394 . S
C994 C995 1.369 . S
C994 C998 1.531 . S
C995 C994 1.369 . S
C995 C996 1.410 . S
C995 C1003 1.503 . S
C996 C995 1.410 . S
C996 C997 1.392 . S
C996 C999 1.511 . S
C997 C993 1.376 . S
C997 C996 1.392 . S
C997 H1009 0.929 . S
C998 C994 1.531 . S
C998 H1010 0.960 . S
C998 H1011 0.962 . S
C998 H1012 0.960 . S
C999 C996 1.511 . S
C999 H1013 0.961 . S
C999 H1014 0.961 . S
C999 H1015 0.961 . S
C1000 C1001 1.370 . S
C1000 C1002 1.363 . S
C1000 H1016 0.931 . S
C1001 C1000 1.370 . S
C1001 C1005 1.408 . S
C1002 C1000 1.363 . S
C1002 C1003 1.370 . S
C1002 C1006 1.524 . S
C1003 C995 1.503 . S
C1003 C1002 1.370 . S
C1003 C1004 1.403 . S
C1004 C1003 1.403 . S
C1004 C1005 1.404 . S
C1004 C1007 1.539 . S
C1005 C1001 1.408 . S
C1005 C1004 1.404 . S
C1005 H1017 0.930 . S
C1006 C1002 1.524 . S
C1006 H1018 0.956 . S
C1006 H1019 0.961 . S
C1006 H1020 0.961 . S
C1007 C1004 1.539 . S
C1007 H1021 0.958 . S
C1007 H1022 0.961 . S
C1007 H1023 0.960 . S
H1008 C992 0.931 . S
H1009 C997 0.929 . S
H1010 C998 0.960 . S
H1011 C998 0.962 . S
H1012 C998 0.960 . S
H1013 C999 0.961 . S
H1014 C999 0.961 . S
H1015 C999 0.961 . S
H1016 C1000 0.931 . S
H1017 C1005 0.930 . S
H1018 C1006 0.956 . S
H1019 C1006 0.961 . S
H1020 C1006 0.961 . S
H1021 C1007 0.958 . S
H1022 C1007 0.961 . S
H1023 C1007 0.960 . S
C1024 C1025 1.391 . S
C1024 C1026 1.394 . S
C1024 H1040 0.931 . S
C1025 C1024 1.391 . S
C1025 C1029 1.376 . S
C1026 C1024 1.394 . S
C1026 C1027 1.369 . S
C1026 C1030 1.531 . S
C1027 C1026 1.369 . S
C1027 C1028 1.410 . S
C1027 C1035 1.503 1_455 S
C1028 C1027 1.410 . S
C1028 C1029 1.392 . S
C1028 C1031 1.511 . S
C1029 C1025 1.376 . S
C1029 C1028 1.392 . S
C1029 H1041 0.929 . S
C1030 C1026 1.531 . S
C1030 H1042 0.960 1_455 S
C1030 H1043 0.962 1_455 S
C1030 H1044 0.960 . S
C1031 C1028 1.511 . S
C1031 H1045 0.961 . S
C1031 H1046 0.961 . S
C1031 H1047 0.961 . S
C1032 C1033 1.370 . S
C1032 C1034 1.363 . S
C1032 H1048 0.931 . S
C1033 C1032 1.370 . S
C1033 C1037 1.408 . S
C1034 C1032 1.363 . S
C1034 C1035 1.370 . S
C1034 C1038 1.524 . S
C1035 C1027 1.503 1_655 S
C1035 C1034 1.370 . S
C1035 C1036 1.403 . S
C1036 C1035 1.403 . S
C1036 C1037 1.404 . S
C1036 C1039 1.539 1_655 S
C1037 C1033 1.408 . S
C1037 C1036 1.404 . S
C1037 H1049 0.930 . S
C1038 C1034 1.524 . S
C1038 H1050 0.956 . S
C1038 H1051 0.961 . S
C1038 H1052 0.961 . S
C1039 C1036 1.539 1_455 S
C1039 H1053 0.958 . S
C1039 H1054 0.961 . S
C1039 H1055 0.960 . S
H1040 C1024 0.931 . S
H1041 C1029 0.929 . S
H1042 C1030 0.960 1_655 S
H1043 C1030 0.962 1_655 S
H1044 C1030 0.960 . S
H1045 C1031 0.961 . S
H1046 C1031 0.961 . S
H1047 C1031 0.961 . S
H1048 C1032 0.931 . S
H1049 C1037 0.930 . S
H1050 C1038 0.956 . S
H1051 C1038 0.961 . S
H1052 C1038 0.961 . S
H1053 C1039 0.958 . S
H1054 C1039 0.961 . S
H1055 C1039 0.960 . S
C1056 C1057 1.391 . S
C1056 C1058 1.394 1_545 S
C1056 H1072 0.931 . S
C1057 C1056 1.391 . S
C1057 C1061 1.376 . S
C1058 C1056 1.394 1_565 S
C1058 C1059 1.369 1_565 S
C1058 C1062 1.531 . S
C1059 C1058 1.369 1_545 S
C1059 C1060 1.410 . S
C1059 C1067 1.503 1_545 S
C1060 C1059 1.410 . S
C1060 C1061 1.392 . S
C1060 C1063 1.511 . S
C1061 C1057 1.376 . S
C1061 C1060 1.392 . S
C1061 H1073 0.929 . S
C1062 C1058 1.531 . S
C1062 H1074 0.960 . S
C1062 H1075 0.962 . S
C1062 H1076 0.960 . S
C1063 C1060 1.511 . S
C1063 H1077 0.961 . S
C1063 H1078 0.961 . S
C1063 H1079 0.961 . S
C1064 C1065 1.370 . S
C1064 C1066 1.363 . S
C1064 H1080 0.931 . S
C1065 C1064 1.370 . S
C1065 C1069 1.408 . S
C1066 C1064 1.363 . S
C1066 C1067 1.370 . S
C1066 C1070 1.524 . S
C1067 C1059 1.503 1_565 S
C1067 C1066 1.370 . S
C1067 C1068 1.403 . S
C1068 C1067 1.403 . S
C1068 C1069 1.404 . S
C1068 C1071 1.539 . S
C1069 C1065 1.408 . S
C1069 C1068 1.404 . S
C1069 H1081 0.930 . S
C1070 C1066 1.524 . S
C1070 H1082 0.956 . S
C1070 H1083 0.961 1_565 S
C1070 H1084 0.961 . S
C1071 C1068 1.539 . S
C1071 H1085 0.958 . S
C1071 H1086 0.961 1_565 S
C1071 H1087 0.960 1_565 S
H1072 C1056 0.931 . S
H1073 C1061 0.929 . S
H1074 C1062 0.960 . S
H1075 C1062 0.962 . S
H1076 C1062 0.960 . S
H1077 C1063 0.961 . S
H1078 C1063 0.961 . S
H1079 C1063 0.961 . S
H1080 C1064 0.931 . S
H1081 C1069 0.930 . S
H1082 C1070 0.956 . S
H1083 C1070 0.961 1_545 S
H1084 C1070 0.961 . S
H1085 C1071 0.958 . S
H1086 C1071 0.961 1_545 S
H1087 C1071 0.960 1_545 S
C1088 C1089 1.391 . S
C1088 C1090 1.394 . S
C1088 H1104 0.931 . S
C1089 C1088 1.391 . S
C1089 C1093 1.376 . S
C1090 C1088 1.394 . S
C1090 C1091 1.369 . S
C1090 C1094 1.531 . S
C1091 C1090 1.369 . S
C1091 C1092 1.410 . S
C1091 C1099 1.503 . S
C1092 C1091 1.410 . S
C1092 C1093 1.392 . S
C1092 C1095 1.511 . S
C1093 C1089 1.376 . S
C1093 C1092 1.392 . S
C1093 H1105 0.929 . S
C1094 C1090 1.531 . S
C1094 H1106 0.960 . S
C1094 H1107 0.962 . S
C1094 H1108 0.960 . S
C1095 C1092 1.511 . S
C1095 H1109 0.961 . S
C1095 H1110 0.961 . S
C1095 H1111 0.961 . S
C1096 C1097 1.370 . S
C1096 C1098 1.363 . S
C1096 H1112 0.931 . S
C1097 C1096 1.370 . S
C1097 C1101 1.408 . S
C1098 C1096 1.363 . S
C1098 C1099 1.370 . S
C1098 C1102 1.524 . S
C1099 C1091 1.503 . S
C1099 C1098 1.370 . S
C1099 C1100 1.403 . S
C1100 C1099 1.403 . S
C1100 C1101 1.404 . S
C1100 C1103 1.539 . S
C1101 C1097 1.408 . S
C1101 C1100 1.404 . S
C1101 H1113 0.930 . S
C1102 C1098 1.524 . S
C1102 H1114 0.956 . S
C1102 H1115 0.961 . S
C1102 H1116 0.961 . S
C1103 C1100 1.539 . S
C1103 H1117 0.958 . S
C1103 H1118 0.961 . S
C1103 H1119 0.960 . S
H1104 C1088 0.931 . S
H1105 C1093 0.929 . S
H1106 C1094 0.960 . S
H1107 C1094 0.962 . S
H1108 C1094 0.960 . S
H1109 C1095 0.961 . S
H1110 C1095 0.961 . S
H1111 C1095 0.961 . S
H1112 C1096 0.931 . S
H1113 C1101 0.930 . S
H1114 C1102 0.956 . S
H1115 C1102 0.961 . S
H1116 C1102 0.961 . S
H1117 C1103 0.958 . S
H1118 C1103 0.961 . S
H1119 C1103 0.960 . S
C1120 C1121 1.391 . S
C1120 C1122 1.394 . S
C1120 H1136 0.931 . S
C1121 C1120 1.391 . S
C1121 C1125 1.376 . S
C1122 C1120 1.394 . S
C1122 C1123 1.369 . S
C1122 C1126 1.531 . S
C1123 C1122 1.369 . S
C1123 C1124 1.410 1_655 S
C1123 C1131 1.503 1_655 S
C1124 C1123 1.410 1_455 S
C1124 C1125 1.392 1_455 S
C1124 C1127 1.511 . S
C1125 C1121 1.376 . S
C1125 C1124 1.392 1_655 S
C1125 H1137 0.929 . S
C1126 C1122 1.531 . S
C1126 H1138 0.960 . S
C1126 H1139 0.962 . S
C1126 H1140 0.960 . S
C1127 C1124 1.511 . S
C1127 H1141 0.961 . S
C1127 H1142 0.961 . S
C1127 H1143 0.961 . S
C1128 C1129 1.370 . S
C1128 C1130 1.363 . S
C1128 H1144 0.931 . S
C1129 C1128 1.370 . S
C1129 C1133 1.408 . S
C1130 C1128 1.363 . S
C1130 C1131 1.370 . S
C1130 C1134 1.524 1_455 S
C1131 C1123 1.503 1_455 S
C1131 C1130 1.370 . S
C1131 C1132 1.403 . S
C1132 C1131 1.403 . S
C1132 C1133 1.404 . S
C1132 C1135 1.539 . S
C1133 C1129 1.408 . S
C1133 C1132 1.404 . S
C1133 H1145 0.930 . S
C1134 C1130 1.524 1_655 S
C1134 H1146 0.956 . S
C1134 H1147 0.961 . S
C1134 H1148 0.961 . S
C1135 C1132 1.539 . S
C1135 H1149 0.958 1_556 S
C1135 H1150 0.961 . S
C1135 H1151 0.960 . S
H1136 C1120 0.931 . S
H1137 C1125 0.929 . S
H1138 C1126 0.960 . S
H1139 C1126 0.962 . S
H1140 C1126 0.960 . S
H1141 C1127 0.961 . S
H1142 C1127 0.961 . S
H1143 C1127 0.961 . S
H1144 C1128 0.931 . S
H1145 C1133 0.930 . S
H1146 C1134 0.956 . S
H1147 C1134 0.961 . S
H1148 C1134 0.961 . S
H1149 C1135 0.958 1_554 S
H1150 C1135 0.961 . S
H1151 C1135 0.960 . S
C1152 C1153 1.391 . S
C1152 C1154 1.394 1_455 S
C1152 H1168 0.931 . S
C1153 C1152 1.391 . S
C1153 C1157 1.376 . S
C1154 C1152 1.394 1_655 S
C1154 C1155 1.369 1_655 S
C1154 C1158 1.531 . S
C1155 C1154 1.369 1_455 S
C1155 C1156 1.410 . S
C1155 C1163 1.503 1_455 S
C1156 C1155 1.410 . S
C1156 C1157 1.392 . S
C1156 C1159 1.511 . S
C1157 C1153 1.376 . S
C1157 C1156 1.392 . S
C1157 H1169 0.929 . S
C1158 C1154 1.531 . S
C1158 H1170 0.960 . S
C1158 H1171 0.962 . S
C1158 H1172 0.960 . S
C1159 C1156 1.511 . S
C1159 H1173 0.961 . S
C1159 H1174 0.961 . S
C1159 H1175 0.961 . S
C1160 C1161 1.370 . S
C1160 C1162 1.363 . S
C1160 H1176 0.931 . S
C1161 C1160 1.370 . S
C1161 C1165 1.408 . S
C1162 C1160 1.363 . S
C1162 C1163 1.370 . S
C1162 C1166 1.524 . S
C1163 C1155 1.503 1_655 S
C1163 C1162 1.370 . S
C1163 C1164 1.403 . S
C1164 C1163 1.403 . S
C1164 C1165 1.404 . S
C1164 C1167 1.539 . S
C1165 C1161 1.408 . S
C1165 C1164 1.404 . S
C1165 H1177 0.930 . S
C1166 C1162 1.524 . S
C1166 H1178 0.956 . S
C1166 H1179 0.961 1_655 S
C1166 H1180 0.961 . S
C1167 C1164 1.539 . S
C1167 H1181 0.958 . S
C1167 H1182 0.961 . S
C1167 H1183 0.960 1_655 S
H1168 C1152 0.931 . S
H1169 C1157 0.929 . S
H1170 C1158 0.960 . S
H1171 C1158 0.962 . S
H1172 C1158 0.960 . S
H1173 C1159 0.961 . S
H1174 C1159 0.961 . S
H1175 C1159 0.961 . S
H1176 C1160 0.931 . S
H1177 C1165 0.930 . S
H1178 C1166 0.956 . S
H1179 C1166 0.961 1_455 S
H1180 C1166 0.961 . S
H1181 C1167 0.958 . S
H1182 C1167 0.961 . S
H1183 C1167 0.960 1_455 S
C1184 C1185 1.391 . S
C1184 C1186 1.394 . S
C1184 H1200 0.931 . S
C1185 C1184 1.391 . S
C1185 C1189 1.376 . S
C1186 C1184 1.394 . S
C1186 C1187 1.369 . S
C1186 C1190 1.531 . S
C1187 C1186 1.369 . S
C1187 C1188 1.410 . S
C1187 C1195 1.503 1_565 S
C1188 C1187 1.410 . S
C1188 C1189 1.392 . S
C1188 C1191 1.511 1_565 S
C1189 C1185 1.376 . S
C1189 C1188 1.392 . S
C1189 H1201 0.929 . S
C1190 C1186 1.531 . S
C1190 H1202 0.960 . S
C1190 H1203 0.962 . S
C1190 H1204 0.960 . S
C1191 C1188 1.511 1_545 S
C1191 H1205 0.961 . S
C1191 H1206 0.961 . S
C1191 H1207 0.961 . S
C1192 C1193 1.370 . S
C1192 C1194 1.364 . S
C1192 H1208 0.931 . S
C1193 C1192 1.370 . S
C1193 C1197 1.408 . S
C1194 C1192 1.364 . S
C1194 C1195 1.393 . S
C1194 C1198 1.501 1_545 S
C1195 C1187 1.503 1_545 S
C1195 C1194 1.393 . S
C1195 C1196 1.403 . S
C1196 C1195 1.403 . S
C1196 C1197 1.404 . S
C1196 C1199 1.539 . S
C1197 C1193 1.408 . S
C1197 C1196 1.404 . S
C1197 H1209 0.930 . S
C1198 C1194 1.501 1_565 S
C1198 H1210 0.956 . S
C1198 H1211 0.961 . S
C1198 H1212 0.961 . S
C1199 C1196 1.539 . S
C1199 H1213 0.958 . S
C1199 H1214 0.961 . S
C1199 H1215 0.960 . S
H1200 C1184 0.931 . S
H1201 C1189 0.929 . S
H1202 C1190 0.960 . S
H1203 C1190 0.962 . S
H1204 C1190 0.960 . S
H1205 C1191 0.961 . S
H1206 C1191 0.961 . S
H1207 C1191 0.961 . S
H1208 C1192 0.931 . S
H1209 C1197 0.930 . S
H1210 C1198 0.956 . S
H1211 C1198 0.961 . S
H1212 C1198 0.961 . S
H1213 C1199 0.958 . S
H1214 C1199 0.961 . S
H1215 C1199 0.960 . S
C1216 C1217 1.391 . S
C1216 C1218 1.394 . S
C1216 H1232 0.931 . S
C1217 C1216 1.391 . S
C1217 C1221 1.376 . S
C1218 C1216 1.394 . S
C1218 C1219 1.369 . S
C1218 C1222 1.531 . S
C1219 C1218 1.369 . S
C1219 C1220 1.410 . S
C1219 C1227 1.503 . S
C1220 C1219 1.410 . S
C1220 C1221 1.392 . S
C1220 C1223 1.511 . S
C1221 C1217 1.376 . S
C1221 C1220 1.392 . S
C1221 H1233 0.929 . S
C1222 C1218 1.531 . S
C1222 H1234 0.960 . S
C1222 H1235 0.962 . S
C1222 H1236 0.960 . S
C1223 C1220 1.511 . S
C1223 H1237 0.961 1_554 S
C1223 H1238 0.961 . S
C1223 H1239 0.961 1_554 S
C1224 C1225 1.370 . S
C1224 C1226 1.363 . S
C1224 H1240 0.931 . S
C1225 C1224 1.370 . S
C1225 C1229 1.408 . S
C1226 C1224 1.363 . S
C1226 C1227 1.370 . S
C1226 C1230 1.524 . S
C1227 C1219 1.503 . S
C1227 C1226 1.370 . S
C1227 C1228 1.403 . S
C1228 C1227 1.403 . S
C1228 C1229 1.404 . S
C1228 C1231 1.539 . S
C1229 C1225 1.408 . S
C1229 C1228 1.404 . S
C1229 H1241 0.930 . S
C1230 C1226 1.524 . S
C1230 H1242 0.956 . S
C1230 H1243 0.961 . S
C1230 H1244 0.961 . S
C1231 C1228 1.539 . S
C1231 H1245 0.958 . S
C1231 H1246 0.961 . S
C1231 H1247 0.960 . S
H1232 C1216 0.931 . S
H1233 C1221 0.929 . S
H1234 C1222 0.960 . S
H1235 C1222 0.962 . S
H1236 C1222 0.960 . S
H1237 C1223 0.961 1_556 S
H1238 C1223 0.961 . S
H1239 C1223 0.961 1_556 S
H1240 C1224 0.931 . S
H1241 C1229 0.930 . S
H1242 C1230 0.956 . S
H1243 C1230 0.961 . S
H1244 C1230 0.961 . S
H1245 C1231 0.958 . S
H1246 C1231 0.961 . S
H1247 C1231 0.960 . S
C1248 C1249 1.391 . S
C1248 C1250 1.394 . S
C1248 H1264 0.931 . S
C1249 C1248 1.391 . S
C1249 C1253 1.376 . S
C1250 C1248 1.394 . S
C1250 C1251 1.369 . S
C1250 C1254 1.531 . S
C1251 C1250 1.369 . S
C1251 C1252 1.410 1_565 S
C1251 C1259 1.503 1_565 S
C1252 C1251 1.410 1_545 S
C1252 C1253 1.392 1_545 S
C1252 C1255 1.511 . S
C1253 C1249 1.376 . S
C1253 C1252 1.392 1_565 S
C1253 H1265 0.929 1_565 S
C1254 C1250 1.531 . S
C1254 H1266 0.960 . S
C1254 H1267 0.962 . S
C1254 H1268 0.960 . S
C1255 C1252 1.511 . S
C1255 H1269 0.961 . S
C1255 H1270 0.961 . S
C1255 H1271 0.961 . S
C1256 C1257 1.370 . S
C1256 C1258 1.363 . S
C1256 H1272 0.931 . S
C1257 C1256 1.370 . S
C1257 C1261 1.408 . S
C1258 C1256 1.363 . S
C1258 C1259 1.370 . S
C1258 C1262 1.524 1_545 S
C1259 C1251 1.503 1_545 S
C1259 C1258 1.370 . S
C1259 C1260 1.403 . S
C1260 C1259 1.403 . S
C1260 C1261 1.404 . S
C1260 C1263 1.539 . S
C1261 C1257 1.408 . S
C1261 C1260 1.404 . S
C1261 H1273 0.930 . S
C1262 C1258 1.524 1_565 S
C1262 H1274 0.956 . S
C1262 H1275 0.961 1_565 S
C1262 H1276 0.961 1_565 S
C1263 C1260 1.539 . S
C1263 H1277 0.949 1_545 S
C1263 H1278 0.961 . S
C1263 H1279 0.960 . S
H1264 C1248 0.931 . S
H1265 C1253 0.929 1_545 S
H1266 C1254 0.960 . S
H1267 C1254 0.962 . S
H1268 C1254 0.960 . S
H1269 C1255 0.961 . S
H1270 C1255 0.961 . S
H1271 C1255 0.961 . S
H1272 C1256 0.931 . S
H1273 C1261 0.930 . S
H1274 C1262 0.956 . S
H1275 C1262 0.961 1_545 S
H1276 C1262 0.961 1_545 S
H1277 C1263 0.949 1_565 S
H1278 C1263 0.961 . S
H1279 C1263 0.960 . S
C1280 C1281 1.391 . S
C1280 C1282 1.394 . S
C1280 H1296 0.931 . S
C1281 C1280 1.391 . S
C1281 C1285 1.376 . S
C1282 C1280 1.394 . S
C1282 C1283 1.369 . S
C1282 C1286 1.531 . S
C1283 C1282 1.369 . S
C1283 C1284 1.410 . S
C1283 C1291 1.503 . S
C1284 C1283 1.410 . S
C1284 C1285 1.392 . S
C1284 C1287 1.511 . S
C1285 C1281 1.376 . S
C1285 C1284 1.392 . S
C1285 H1297 0.929 . S
C1286 C1282 1.531 . S
C1286 H1298 0.960 . S
C1286 H1299 0.962 . S
C1286 H1300 0.960 . S
C1287 C1284 1.511 . S
C1287 H1301 0.961 . S
C1287 H1302 0.961 . S
C1287 H1303 0.961 . S
C1288 C1289 1.370 . S
C1288 C1290 1.363 . S
C1288 H1304 0.931 . S
C1289 C1288 1.370 . S
C1289 C1293 1.408 . S
C1290 C1288 1.363 . S
C1290 C1291 1.370 . S
C1290 C1294 1.524 . S
C1291 C1283 1.503 . S
C1291 C1290 1.370 . S
C1291 C1292 1.403 . S
C1292 C1291 1.403 . S
C1292 C1293 1.404 . S
C1292 C1295 1.539 . S
C1293 C1289 1.408 . S
C1293 C1292 1.404 . S
C1293 H1305 0.930 . S
C1294 C1290 1.524 . S
C1294 H1306 0.956 . S
C1294 H1307 0.961 . S
C1294 H1308 0.961 . S
C1295 C1292 1.539 . S
C1295 H1309 0.958 . S
C1295 H1310 0.961 . S
C1295 H1311 0.960 . S
H1296 C1280 0.931 . S
H1297 C1285 0.929 . S
H1298 C1286 0.960 . S
H1299 C1286 0.962 . S
H1300 C1286 0.960 . S
H1301 C1287 0.961 . S
H1302 C1287 0.961 . S
H1303 C1287 0.961 . S
H1304 C1288 0.931 . S
H1305 C1293 0.930 . S
H1306 C1294 0.956 . S
H1307 C1294 0.961 . S
H1308 C1294 0.961 . S
H1309 C1295 0.958 . S
H1310 C1295 0.961 . S
H1311 C1295 0.960 . S
C1312 C1313 1.391 . S
C1312 C1314 1.394 1_655 S
C1312 H1328 0.931 1_655 S
C1313 C1312 1.391 . S
C1313 C1317 1.376 . S
C1314 C1312 1.394 1_455 S
C1314 C1315 1.369 1_455 S
C1314 C1318 1.531 . S
C1315 C1314 1.369 1_655 S
C1315 C1316 1.410 . S
C1315 C1323 1.503 1_655 S
C1316 C1315 1.410 . S
C1316 C1317 1.392 . S
C1316 C1319 1.511 . S
C1317 C1313 1.376 . S
C1317 C1316 1.392 . S
C1317 H1329 0.929 . S
C1318 C1314 1.531 . S
C1318 H1330 0.960 . S
C1318 H1331 0.962 . S
C1318 H1332 0.960 . S
C1319 C1316 1.511 . S
C1319 H1333 0.961 . S
C1319 H1334 0.961 . S
C1319 H1335 0.961 . S
C1320 C1321 1.370 . S
C1320 C1322 1.363 . S
C1320 H1336 0.931 . S
C1321 C1320 1.370 . S
C1321 C1325 1.408 . S
C1322 C1320 1.363 . S
C1322 C1323 1.370 . S
C1322 C1326 1.524 1_455 S
C1323 C1315 1.503 1_455 S
C1323 C1322 1.370 . S
C1323 C1324 1.403 . S
C1324 C1323 1.403 . S
C1324 C1325 1.404 . S
C1324 C1327 1.539 . S
C1325 C1321 1.408 . S
C1325 C1324 1.404 . S
C1325 H1337 0.930 . S
C1326 C1322 1.524 1_655 S
C1326 H1338 0.956 . S
C1326 H1339 0.961 . S
C1326 H1340 0.961 . S
C1327 C1324 1.539 . S
C1327 H1341 0.958 . S
C1327 H1342 0.961 . S
C1327 H1343 0.960 . S
H1328 C1312 0.931 1_455 S
H1329 C1317 0.929 . S
H1330 C1318 0.960 . S
H1331 C1318 0.962 . S
H1332 C1318 0.960 . S
H1333 C1319 0.961 . S
H1334 C1319 0.961 . S
H1335 C1319 0.961 . S
H1336 C1320 0.931 . S
H1337 C1325 0.930 . S
H1338 C1326 0.956 . S
H1339 C1326 0.961 . S
H1340 C1326 0.961 . S
H1341 C1327 0.958 . S
H1342 C1327 0.961 . S
H1343 C1327 0.960 . S
C1344 C1345 1.391 . S
C1344 C1346 1.394 . S
C1344 H1360 0.931 . S
C1345 C1344 1.391 . S
C1345 C1349 1.376 . S
C1346 C1344 1.394 . S
C1346 C1347 1.369 . S
C1346 C1350 1.531 1_545 S
C1347 C1346 1.369 . S
C1347 C1348 1.410 . S
C1347 C1355 1.503 1_545 S
C1348 C1347 1.410 . S
C1348 C1349 1.392 . S
C1348 C1351 1.511 . S
C1349 C1345 1.376 . S
C1349 C1348 1.392 . S
C1349 H1361 0.929 . S
C1350 C1346 1.531 1_565 S
C1350 H1362 0.960 . S
C1350 H1363 0.962 . S
C1350 H1364 0.960 . S
C1351 C1348 1.511 . S
C1351 H1365 0.961 . S
C1351 H1366 0.961 . S
C1351 H1367 0.961 . S
C1352 C1353 1.370 . S
C1352 C1354 1.363 . S
C1352 H1368 0.931 . S
C1353 C1352 1.370 . S
C1353 C1357 1.408 . S
C1354 C1352 1.363 . S
C1354 C1355 1.370 . S
C1354 C1358 1.524 . S
C1355 C1347 1.503 1_565 S
C1355 C1354 1.370 . S
C1355 C1356 1.403 1_565 S
C1356 C1355 1.403 1_545 S
C1356 C1357 1.404 1_545 S
C1356 C1359 1.539 . S
C1357 C1353 1.408 . S
C1357 C1356 1.404 1_565 S
C1357 H1369 0.938 . S
C1358 C1354 1.524 . S
C1358 H1370 0.956 . S
C1358 H1371 0.961 . S
C1358 H1372 0.961 . S
C1359 C1356 1.539 . S
C1359 H1373 0.958 . S
C1359 H1374 0.961 . S
C1359 H1375 0.960 . S
H1360 C1344 0.931 . S
H1361 C1349 0.929 . S
H1362 C1350 0.960 . S
H1363 C1350 0.962 . S
H1364 C1350 0.960 . S
H1365 C1351 0.961 . S
H1366 C1351 0.961 . S
H1367 C1351 0.961 . S
H1368 C1352 0.931 . S
H1369 C1357 0.938 . S
H1370 C1358 0.956 . S
H1371 C1358 0.961 . S
H1372 C1358 0.961 . S
H1373 C1359 0.958 . S
H1374 C1359 0.961 . S
H1375 C1359 0.960 . S
C1376 C1377 1.391 . S
C1376 C1378 1.394 . S
C1376 H1392 0.931 . S
C1377 C1376 1.391 . S
C1377 C1381 1.376 . S
C1378 C1376 1.394 . S
C1378 C1379 1.369 . S
C1378 C1382 1.531 . S
C1379 C1378 1.369 . S
C1379 C1380 1.410 . S
C1379 C1387 1.503 . S
C1380 C1379 1.410 . S
C1380 C1381 1.392 . S
C1380 C1383 1.511 . S
C1381 C1377 1.376 . S
C1381 C1380 1.392 . S
C1381 H1393 0.929 . S
C1382 C1378 1.531 . S
C1382 H1394 0.960 . S
C1382 H1395 0.962 . S
C1382 H1396 0.960 . S
C1383 C1380 1.511 . S
C1383 H1397 0.961 . S
C1383 H1398 0.961 . S
C1383 H1399 0.961 . S
C1384 C1385 1.370 . S
C1384 C1386 1.363 . S
C1384 H1400 0.931 . S
C1385 C1384 1.370 . S
C1385 C1389 1.408 . S
C1386 C1384 1.363 . S
C1386 C1387 1.370 . S
C1386 C1390 1.524 . S
C1387 C1379 1.503 . S
C1387 C1386 1.370 . S
C1387 C1388 1.403 . S
C1388 C1387 1.403 . S
C1388 C1389 1.404 . S
C1388 C1391 1.539 . S
C1389 C1385 1.408 . S
C1389 C1388 1.404 . S
C1389 H1401 0.930 . S
C1390 C1386 1.524 . S
C1390 H1402 0.956 . S
C1390 H1403 0.961 . S
C1390 H1404 0.961 . S
C1391 C1388 1.539 . S
C1391 H1405 0.958 . S
C1391 H1406 0.961 . S
C1391 H1407 0.960 . S
H1392 C1376 0.931 . S
H1393 C1381 0.929 . S
H1394 C1382 0.960 . S
H1395 C1382 0.962 . S
H1396 C1382 0.960 . S
H1397 C1383 0.961 . S
H1398 C1383 0.961 . S
H1399 C1383 0.961 . S
H1400 C1384 0.931 . S
H1401 C1389 0.930 . S
H1402 C1390 0.956 . S
H1403 C1390 0.961 . S
H1404 C1390 0.961 . S
H1405 C1391 0.958 . S
H1406 C1391 0.961 . S
H1407 C1391 0.960 . S
C1408 C1409 1.391 . S
C1408 C1410 1.394 . S
C1408 H1424 0.931 . S
C1409 C1408 1.391 . S
C1409 C1413 1.376 . S
C1410 C1408 1.394 . S
C1410 C1411 1.369 . S
C1410 C1414 1.531 . S
C1411 C1410 1.369 . S
C1411 C1412 1.410 . S
C1411 C1419 1.503 1_455 S
C1412 C1411 1.410 . S
C1412 C1413 1.392 . S
C1412 C1415 1.511 1_455 S
C1413 C1409 1.376 . S
C1413 C1412 1.392 . S
C1413 H1425 0.929 . S
C1414 C1410 1.531 . S
C1414 H1426 0.960 1_455 S
C1414 H1427 0.962 . S
C1414 H1428 0.960 . S
C1415 C1412 1.511 1_655 S
C1415 H1429 0.961 1_655 S
C1415 H1430 0.961 . S
C1415 H1431 0.961 . S
C1416 C1417 1.370 . S
C1416 C1418 1.363 1_655 S
C1416 H1432 0.931 1_655 S
C1417 C1416 1.370 . S
C1417 C1421 1.408 . S
C1418 C1416 1.363 1_455 S
C1418 C1419 1.370 1_455 S
C1418 C1422 1.524 . S
C1419 C1411 1.503 1_655 S
C1419 C1418 1.370 1_655 S
C1419 C1420 1.403 . S
C1420 C1419 1.403 . S
C1420 C1421 1.404 . S
C1420 C1423 1.539 . S
C1421 C1417 1.408 . S
C1421 C1420 1.404 . S
C1421 H1433 0.930 . S
C1422 C1418 1.524 . S
C1422 H1434 0.956 . S
C1422 H1435 0.961 . S
C1422 H1436 0.961 . S
C1423 C1420 1.539 . S
C1423 H1437 0.958 . S
C1423 H1438 0.961 . S
C1423 H1439 0.960 . S
H1424 C1408 0.931 . S
H1425 C1413 0.929 . S
H1426 C1414 0.960 1_655 S
H1427 C1414 0.962 . S
H1428 C1414 0.960 . S
H1429 C1415 0.961 1_455 S
H1430 C1415 0.961 . S
H1431 C1415 0.961 . S
H1432 C1416 0.931 1_455 S
H1433 C1421 0.930 . S
H1434 C1422 0.956 . S
H1435 C1422 0.961 . S
H1436 C1422 0.961 . S
H1437 C1423 0.958 . S
H1438 C1423 0.961 . S
H1439 C1423 0.960 . S
C1440 C1441 1.391 . S
C1440 C1442 1.394 . S
C1440 H1456 0.931 . S
C1441 C1440 1.391 . S
C1441 C1445 1.376 . S
C1442 C1440 1.394 . S
C1442 C1443 1.369 . S
C1442 C1446 1.531 . S
C1443 C1442 1.369 . S
C1443 C1444 1.410 . S
C1443 C1451 1.503 . S
C1444 C1443 1.410 . S
C1444 C1445 1.392 . S
C1444 C1447 1.511 . S
C1445 C1441 1.376 . S
C1445 C1444 1.392 . S
C1445 H1457 0.929 . S
C1446 C1442 1.531 . S
C1446 H1458 0.960 . S
C1446 H1459 0.962 . S
C1446 H1460 0.960 . S
C1447 C1444 1.511 . S
C1447 H1461 0.961 . S
C1447 H1462 0.961 . S
C1447 H1463 0.961 . S
C1448 C1449 1.370 . S
C1448 C1450 1.363 . S
C1448 H1464 0.931 . S
C1449 C1448 1.370 . S
C1449 C1453 1.408 . S
C1450 C1448 1.363 . S
C1450 C1451 1.370 . S
C1450 C1454 1.524 . S
C1451 C1443 1.503 . S
C1451 C1450 1.370 . S
C1451 C1452 1.403 . S
C1452 C1451 1.403 . S
C1452 C1453 1.404 . S
C1452 C1455 1.539 . S
C1453 C1449 1.408 . S
C1453 C1452 1.404 . S
C1453 H1465 0.930 . S
C1454 C1450 1.524 . S
C1454 H1466 0.956 . S
C1454 H1467 0.961 . S
C1454 H1468 0.961 . S
C1455 C1452 1.539 . S
C1455 H1469 0.958 . S
C1455 H1470 0.961 . S
C1455 H1471 0.960 . S
H1456 C1440 0.931 . S
H1457 C1445 0.929 . S
H1458 C1446 0.960 . S
H1459 C1446 0.962 . S
H1460 C1446 0.960 . S
H1461 C1447 0.961 . S
H1462 C1447 0.961 . S
H1463 C1447 0.961 . S
H1464 C1448 0.931 . S
H1465 C1453 0.930 . S
H1466 C1454 0.956 . S
H1467 C1454 0.961 . S
H1468 C1454 0.961 . S
H1469 C1455 0.958 . S
H1470 C1455 0.961 . S
H1471 C1455 0.960 . S
C1472 C1473 1.391 . S
C1472 C1474 1.394 . S
C1472 H1488 0.931 . S
C1473 C1472 1.391 . S
C1473 C1477 1.376 . S
C1474 C1472 1.394 . S
C1474 C1475 1.369 . S
C1474 C1478 1.531 . S
C1475 C1474 1.369 . S
C1475 C1476 1.410 . S
C1475 C1483 1.503 . S
C1476 C1475 1.410 . S
C1476 C1477 1.392 . S
C1476 C1479 1.511 . S
C1477 C1473 1.376 . S
C1477 C1476 1.392 . S
C1477 H1489 0.929 . S
C1478 C1474 1.531 . S
C1478 H1490 0.960 . S
C1478 H1491 0.962 . S
C1478 H1492 0.960 . S
C1479 C1476 1.511 . S
C1479 H1493 0.961 . S
C1479 H1494 0.961 . S
C1479 H1495 0.961 . S
C1480 C1481 1.370 . S
C1480 C1482 1.363 . S
C1480 H1496 0.931 . S
C1481 C1480 1.370 . S
C1481 C1485 1.408 . S
C1482 C1480 1.363 . S
C1482 C1483 1.370 . S
C1482 C1486 1.524 . S
C1483 C1475 1.503 . S
C1483 C1482 1.370 . S
C1483 C1484 1.403 . S
C1484 C1483 1.403 . S
C1484 C1485 1.404 . S
C1484 C1487 1.539 . S
C1485 C1481 1.408 . S
C1485 C1484 1.404 . S
C1485 H1497 0.930 . S
C1486 C1482 1.524 . S
C1486 H1498 0.956 . S
C1486 H1499 0.961 . S
C1486 H1500 0.961 . S
C1487 C1484 1.539 . S
C1487 H1501 0.958 . S
C1487 H1502 0.961 . S
C1487 H1503 0.960 . S
H1488 C1472 0.931 . S
H1489 C1477 0.929 . S
H1490 C1478 0.960 . S
H1491 C1478 0.962 . S
H1492 C1478 0.960 . S
H1493 C1479 0.961 . S
H1494 C1479 0.961 . S
H1495 C1479 0.961 . S
H1496 C1480 0.931 . S
H1497 C1485 0.930 . S
H1498 C1486 0.956 . S
H1499 C1486 0.961 . S
H1500 C1486 0.961 . S
H1501 C1487 0.958 . S
H1502 C1487 0.961 . S
H1503 C1487 0.960 . S
C1504 C1505 1.391 . S
C1504 C1506 1.394 . S
C1504 H1520 0.931 . S
C1505 C1504 1.391 . S
C1505 C1509 1.376 . S
C1506 C1504 1.394 . S
C1506 C1507 1.369 . S
C1506 C1510 1.531 . S
C1507 C1506 1.369 . S
C1507 C1508 1.410 . S
C1507 C1515 1.503 . S
C1508 C1507 1.410 . S
C1508 C1509 1.392 . S
C1508 C1511 1.511 . S
C1509 C1505 1.376 . S
C1509 C1508 1.392 . S
C1509 H1521 0.929 . S
C1510 C1506 1.531 . S
C1510 H1522 0.960 . S
C1510 H1523 0.962 . S
C1510 H1524 0.960 . S
C1511 C1508 1.511 . S
C1511 H1525 0.961 . S
C1511 H1526 0.961 . S
C1511 H1527 0.961 . S
C1512 C1513 1.370 . S
C1512 C1514 1.363 . S
C1512 H1528 0.931 . S
C1513 C1512 1.370 . S
C1513 C1517 1.408 . S
C1514 C1512 1.363 . S
C1514 C1515 1.370 . S
C1514 C1518 1.524 . S
C1515 C1507 1.503 . S
C1515 C1514 1.370 . S
C1515 C1516 1.403 . S
C1516 C1515 1.403 . S
C1516 C1517 1.404 . S
C1516 C1519 1.539 . S
C1517 C1513 1.408 . S
C1517 C1516 1.404 . S
C1517 H1529 0.930 . S
C1518 C1514 1.524 . S
C1518 H1530 0.956 . S
C1518 H1531 0.961 . S
C1518 H1532 0.961 . S
C1519 C1516 1.539 . S
C1519 H1533 0.958 . S
C1519 H1534 0.961 . S
C1519 H1535 0.960 . S
H1520 C1504 0.931 . S
H1521 C1509 0.929 . S
H1522 C1510 0.960 . S
H1523 C1510 0.962 . S
H1524 C1510 0.960 . S
H1525 C1511 0.961 . S
H1526 C1511 0.961 . S
H1527 C1511 0.961 . S
H1528 C1512 0.931 . S
H1529 C1517 0.930 . S
H1530 C1518 0.956 . S
H1531 C1518 0.961 . S
H1532 C1518 0.961 . S
H1533 C1519 0.958 . S
H1534 C1519 0.961 . S
H1535 C1519 0.960 . S
C1536 C1537 1.391 . S
C1536 C1538 1.394 . S
C1536 H1552 0.931 . S
C1537 C1536 1.391 . S
C1537 C1541 1.376 . S
C1538 C1536 1.394 . S
C1538 C1539 1.369 . S
C1538 C1542 1.531 . S
C1539 C1538 1.369 . S
C1539 C1540 1.410 . S
C1539 C1547 1.503 . S
C1540 C1539 1.410 . S
C1540 C1541 1.392 . S
C1540 C1543 1.511 . S
C1541 C1537 1.376 . S
C1541 C1540 1.392 . S
C1541 H1553 0.929 . S
C1542 C1538 1.531 . S
C1542 H1554 0.960 . S
C1542 H1555 0.962 . S
C1542 H1556 0.960 . S
C1543 C1540 1.511 . S
C1543 H1557 0.961 . S
C1543 H1558 0.961 . S
C1543 H1559 0.961 . S
C1544 C1545 1.370 . S
C1544 C1546 1.363 . S
C1544 H1560 0.931 . S
C1545 C1544 1.370 . S
C1545 C1549 1.408 . S
C1546 C1544 1.363 . S
C1546 C1547 1.370 . S
C1546 C1550 1.524 . S
C1547 C1539 1.503 . S
C1547 C1546 1.370 . S
C1547 C1548 1.403 . S
C1548 C1547 1.403 . S
C1548 C1549 1.404 . S
C1548 C1551 1.539 . S
C1549 C1545 1.408 . S
C1549 C1548 1.404 . S
C1549 H1561 0.930 . S
C1550 C1546 1.524 . S
C1550 H1562 0.956 . S
C1550 H1563 0.961 . S
C1550 H1564 0.961 . S
C1551 C1548 1.539 . S
C1551 H1565 0.958 . S
C1551 H1566 0.961 . S
C1551 H1567 0.960 . S
H1552 C1536 0.931 . S
H1553 C1541 0.929 . S
H1554 C1542 0.960 . S
H1555 C1542 0.962 . S
H1556 C1542 0.960 . S
H1557 C1543 0.961 . S
H1558 C1543 0.961 . S
H1559 C1543 0.961 . S
H1560 C1544 0.931 . S
H1561 C1549 0.930 . S
H1562 C1550 0.956 . S
H1563 C1550 0.961 . S
H1564 C1550 0.961 . S
H1565 C1551 0.958 . S
H1566 C1551 0.961 . S
H1567 C1551 0.960 . S
C1568 C1569 1.391 . S
C1568 C1570 1.394 . S
C1568 H1584 0.931 . S
C1569 C1568 1.391 . S
C1569 C1573 1.376 . S
C1570 C1568 1.394 . S
C1570 C1571 1.369 . S
C1570 C1574 1.531 . S
C1571 C1570 1.369 . S
C1571 C1572 1.410 . S
C1571 C1579 1.503 . S
C1572 C1571 1.410 . S
C1572 C1573 1.392 . S
C1572 C1575 1.511 . S
C1573 C1569 1.376 . S
C1573 C1572 1.392 . S
C1573 H1585 0.929 . S
C1574 C1570 1.531 . S
C1574 H1586 0.960 . S
C1574 H1587 0.962 . S
C1574 H1588 0.960 . S
C1575 C1572 1.511 . S
C1575 H1589 0.961 . S
C1575 H1590 0.961 . S
C1575 H1591 0.961 . S
C1576 C1577 1.370 . S
C1576 C1578 1.363 . S
C1576 H1592 0.931 . S
C1577 C1576 1.370 . S
C1577 C1581 1.408 . S
C1578 C1576 1.363 . S
C1578 C1579 1.370 . S
C1578 C1582 1.524 . S
C1579 C1571 1.503 . S
C1579 C1578 1.370 . S
C1579 C1580 1.403 . S
C1580 C1579 1.403 . S
C1580 C1581 1.404 . S
C1580 C1583 1.539 . S
C1581 C1577 1.408 . S
C1581 C1580 1.404 . S
C1581 H1593 0.930 . S
C1582 C1578 1.524 . S
C1582 H1594 0.956 . S
C1582 H1595 0.961 . S
C1582 H1596 0.961 . S
C1583 C1580 1.539 . S
C1583 H1597 0.958 . S
C1583 H1598 0.961 . S
C1583 H1599 0.960 . S
H1584 C1568 0.931 . S
H1585 C1573 0.929 . S
H1586 C1574 0.960 . S
H1587 C1574 0.962 . S
H1588 C1574 0.960 . S
H1589 C1575 0.961 . S
H1590 C1575 0.961 . S
H1591 C1575 0.961 . S
H1592 C1576 0.931 . S
H1593 C1581 0.930 . S
H1594 C1582 0.956 . S
H1595 C1582 0.961 . S
H1596 C1582 0.961 . S
H1597 C1583 0.958 . S
H1598 C1583 0.961 . S
H1599 C1583 0.960 . S
C1600 C1601 1.391 . S
C1600 C1602 1.394 . S
C1600 H1616 0.931 . S
C1601 C1600 1.391 . S
C1601 C1605 1.376 . S
C1602 C1600 1.394 . S
C1602 C1603 1.369 . S
C1602 C1606 1.531 . S
C1603 C1602 1.369 . S
C1603 C1604 1.410 . S
C1603 C1611 1.503 . S
C1604 C1603 1.410 . S
C1604 C1605 1.392 . S
C1604 C1607 1.511 . S
C1605 C1601 1.376 . S
C1605 C1604 1.392 . S
C1605 H1617 0.929 . S
C1606 C1602 1.531 . S
C1606 H1618 0.960 . S
C1606 H1619 0.962 . S
C1606 H1620 0.960 . S
C1607 C1604 1.511 . S
C1607 H1621 0.961 . S
C1607 H1622 0.961 . S
C1607 H1623 0.961 . S
C1608 C1609 1.370 . S
C1608 C1610 1.363 . S
C1608 H1624 0.931 . S
C1609 C1608 1.370 . S
C1609 C1613 1.408 . S
C1610 C1608 1.363 . S
C1610 C1611 1.370 . S
C1610 C1614 1.524 . S
C1611 C1603 1.503 . S
C1611 C1610 1.370 . S
C1611 C1612 1.403 . S
C1612 C1611 1.403 . S
C1612 C1613 1.404 . S
C1612 C1615 1.539 . S
C1613 C1609 1.408 . S
C1613 C1612 1.404 . S
C1613 H1625 0.930 . S
C1614 C1610 1.524 . S
C1614 H1626 0.956 . S
C1614 H1627 0.961 . S
C1614 H1628 0.961 . S
C1615 C1612 1.539 . S
C1615 H1629 0.958 . S
C1615 H1630 0.961 . S
C1615 H1631 0.960 . S
H1616 C1600 0.931 . S
H1617 C1605 0.929 . S
H1618 C1606 0.960 . S
H1619 C1606 0.962 . S
H1620 C1606 0.960 . S
H1621 C1607 0.961 . S
H1622 C1607 0.961 . S
H1623 C1607 0.961 . S
H1624 C1608 0.931 . S
H1625 C1613 0.930 . S
H1626 C1614 0.956 . S
H1627 C1614 0.961 . S
H1628 C1614 0.961 . S
H1629 C1615 0.958 . S
H1630 C1615 0.961 . S
H1631 C1615 0.960 . S
C481 C9 1.072 . S
C489 C329 1.094 . S
C513 C49 1.035 . S
C521 C369 1.070 . S
C545 C89 1.037 . S
C553 C409 1.074 . S
C577 C449 1.055 . S
C585 C129 1.087 . S
C609 C169 1.119 . S
C617 C249 1.103 . S
C641 C289 1.039 . S
C649 C209 1.076 . S
C673 C419 4.329 . S
C681 C19 4.332 . S
C705 C459 4.332 . S
C713 C59 4.339 . S
C737 C99 4.338 . S
C745 C259 4.337 . S
C769 C299 4.335 . S
C777 C139 4.339 . S
C801 C339 4.320 . S
C809 C179 4.333 . S
C833 C219 4.337 . S
C841 C379 4.338 . S
C865 C295 1.441 . S
C873 C15 1.455 . S
C897 C335 1.488 . S
C905 C55 1.431 . S
C929 C375 1.437 . S
C937 C95 1.436 . S
C961 C135 1.456 . S
C969 C415 1.429 . S
C993 C175 1.487 . S
C1001 C455 1.428 . S
C1025 C215 1.488 . S
C1033 C255 1.428 . S
C1057 C18 0.331 . S
C1065 C138 0.369 . S
C1089 C58 0.445 . S
C1097 C178 0.399 . S
C1121 C98 0.463 . S
C1129 C218 0.443 . S
C1153 C378 0.328 . S
C1161 C258 0.369 . S
C1185 C298 0.433 . S
C1193 C418 0.435 . S
C1217 C458 0.472 . S
C1225 C338 0.413 . S
C1249 C290 4.667 . S
C1257 C10 4.672 . S
C1281 C330 4.661 1_556 S
C1289 C50 4.669 . S
C1313 C90 4.661 1_554 S
C1321 C370 4.669 . S
C1345 C410 4.663 . S
C1353 C130 4.669 . S
C1377 C450 4.661 1_556 S
C1385 C170 4.670 . S
C1409 C210 4.663 1_554 S
C1417 C250 4.671 . S
C1441 C6 0.846 . S
C1449 C406 0.794 . S
C1473 C46 0.796 . S
C1481 C446 0.780 . S
C1505 C86 0.742 . S
C1513 C246 0.817 . S
C1537 C126 0.821 . S
C1545 C286 0.806 . S
C1569 C166 0.759 . S
C1577 C326 0.821 . S
C1601 C366 0.776 . S
C1609 C206 0.819 . S
