# Generated by pormake.
# Topology ukd, (4)-cn, num edge types: 1
# Building blocks:
#     Node 0, Type 0, BuildingBlock: CEKHIL_clean_sbu_0, # of connection points: 4
#     Node 1, Type 0, BuildingBlock: CEKHIL_clean_sbu_0, # of connection points: 4
#     Node 2, Type 0, BuildingBlock: CEKHIL_clean_sbu_0, # of connection points: 4
#     Node 3, Type 0, BuildingBlock: CEKHIL_clean_sbu_0, # of connection points: 4
#     Node 4, Type 0, BuildingBlock: CEKHIL_clean_sbu_0, # of connection points: 4
#     Node 5, Type 0, BuildingBlock: CEKHIL_clean_sbu_0, # of connection points: 4
#     Node 6, Type 0, BuildingBlock: CEKHIL_clean_sbu_0, # of connection points: 4
#     Node 7, Type 0, BuildingBlock: CEKHIL_clean_sbu_0, # of connection points: 4
#     Node 8, Type 0, BuildingBlock: CEKHIL_clean_sbu_0, # of connection points: 4
#     Node 9, Type 0, BuildingBlock: CEKHIL_clean_sbu_0, # of connection points: 4
#     Node 10, Type 0, BuildingBlock: CEKHIL_clean_sbu_0, # of connection points: 4
#     Node 11, Type 0, BuildingBlock: CEKHIL_clean_sbu_0, # of connection points: 4
#     Node 12, Type 0, BuildingBlock: CEKHIL_clean_sbu_0, # of connection points: 4
#     Node 13, Type 0, BuildingBlock: CEKHIL_clean_sbu_0, # of connection points: 4
#     Node 14, Type 0, BuildingBlock: CEKHIL_clean_sbu_0, # of connection points: 4
#     Node 15, Type 0, BuildingBlock: CEKHIL_clean_sbu_0, # of connection points: 4
#     Node 16, Type 0, BuildingBlock: CEKHIL_clean_sbu_0, # of connection points: 4
#     Node 17, Type 0, BuildingBlock: CEKHIL_clean_sbu_0, # of connection points: 4
#     Node 18, Type 0, BuildingBlock: CEKHIL_clean_sbu_0, # of connection points: 4
#     Node 19, Type 0, BuildingBlock: CEKHIL_clean_sbu_0, # of connection points: 4
#     Node 20, Type 0, BuildingBlock: CEKHIL_clean_sbu_0, # of connection points: 4
#     Node 21, Type 0, BuildingBlock: CEKHIL_clean_sbu_0, # of connection points: 4
#     Node 22, Type 0, BuildingBlock: CEKHIL_clean_sbu_0, # of connection points: 4
#     Node 23, Type 0, BuildingBlock: CEKHIL_clean_sbu_0, # of connection points: 4
#     Node 24, Type 0, BuildingBlock: CEKHIL_clean_sbu_0, # of connection points: 4
#     Node 25, Type 0, BuildingBlock: CEKHIL_clean_sbu_0, # of connection points: 4
#     Node 26, Type 0, BuildingBlock: CEKHIL_clean_sbu_0, # of connection points: 4
#     Node 27, Type 0, BuildingBlock: CEKHIL_clean_sbu_0, # of connection points: 4
#     Node 28, Type 0, BuildingBlock: CEKHIL_clean_sbu_0, # of connection points: 4
#     Node 29, Type 0, BuildingBlock: CEKHIL_clean_sbu_0, # of connection points: 4
#     Node 30, Type 0, BuildingBlock: CEKHIL_clean_sbu_0, # of connection points: 4
#     Node 31, Type 0, BuildingBlock: CEKHIL_clean_sbu_0, # of connection points: 4
#     Edge 32, Type (0, 0), BuildingBlock: ZUJKAS_clean_linker_0, # of connection points: 2
#     Edge 33, Type (0, 0), BuildingBlock: ZUJKAS_clean_linker_0, # of connection points: 2
#     Edge 34, Type (0, 0), BuildingBlock: ZUJKAS_clean_linker_0, # of connection points: 2
#     Edge 35, Type (0, 0), BuildingBlock: ZUJKAS_clean_linker_0, # of connection points: 2
#     Edge 36, Type (0, 0), BuildingBlock: ZUJKAS_clean_linker_0, # of connection points: 2
#     Edge 37, Type (0, 0), BuildingBlock: ZUJKAS_clean_linker_0, # of connection points: 2
#     Edge 38, Type (0, 0), BuildingBlock: ZUJKAS_clean_linker_0, # of connection points: 2
#     Edge 39, Type (0, 0), BuildingBlock: ZUJKAS_clean_linker_0, # of connection points: 2
#     Edge 40, Type (0, 0), BuildingBlock: ZUJKAS_clean_linker_0, # of connection points: 2
#     Edge 41, Type (0, 0), BuildingBlock: ZUJKAS_clean_linker_0, # of connection points: 2
#     Edge 42, Type (0, 0), BuildingBlock: ZUJKAS_clean_linker_0, # of connection points: 2
#     Edge 43, Type (0, 0), BuildingBlock: ZUJKAS_clean_linker_0, # of connection points: 2
#     Edge 44, Type (0, 0), BuildingBlock: ZUJKAS_clean_linker_0, # of connection points: 2
#     Edge 45, Type (0, 0), BuildingBlock: ZUJKAS_clean_linker_0, # of connection points: 2
#     Edge 46, Type (0, 0), BuildingBlock: ZUJKAS_clean_linker_0, # of connection points: 2
#     Edge 47, Type (0, 0), BuildingBlock: ZUJKAS_clean_linker_0, # of connection points: 2
#     Edge 48, Type (0, 0), BuildingBlock: ZUJKAS_clean_linker_0, # of connection points: 2
#     Edge 49, Type (0, 0), BuildingBlock: ZUJKAS_clean_linker_0, # of connection points: 2
#     Edge 50, Type (0, 0), BuildingBlock: ZUJKAS_clean_linker_0, # of connection points: 2
#     Edge 51, Type (0, 0), BuildingBlock: ZUJKAS_clean_linker_0, # of connection points: 2
#     Edge 52, Type (0, 0), BuildingBlock: ZUJKAS_clean_linker_0, # of connection points: 2
#     Edge 53, Type (0, 0), BuildingBlock: ZUJKAS_clean_linker_0, # of connection points: 2
#     Edge 54, Type (0, 0), BuildingBlock: ZUJKAS_clean_linker_0, # of connection points: 2
#     Edge 55, Type (0, 0), BuildingBlock: ZUJKAS_clean_linker_0, # of connection points: 2
#     Edge 56, Type (0, 0), BuildingBlock: ZUJKAS_clean_linker_0, # of connection points: 2
#     Edge 57, Type (0, 0), BuildingBlock: ZUJKAS_clean_linker_0, # of connection points: 2
#     Edge 58, Type (0, 0), BuildingBlock: ZUJKAS_clean_linker_0, # of connection points: 2
#     Edge 59, Type (0, 0), BuildingBlock: ZUJKAS_clean_linker_0, # of connection points: 2
#     Edge 60, Type (0, 0), BuildingBlock: ZUJKAS_clean_linker_0, # of connection points: 2
#     Edge 61, Type (0, 0), BuildingBlock: ZUJKAS_clean_linker_0, # of connection points: 2
#     Edge 62, Type (0, 0), BuildingBlock: ZUJKAS_clean_linker_0, # of connection points: 2
#     Edge 63, Type (0, 0), BuildingBlock: ZUJKAS_clean_linker_0, # of connection points: 2
#     Edge 64, Type (0, 0), BuildingBlock: ZUJKAS_clean_linker_0, # of connection points: 2
#     Edge 65, Type (0, 0), BuildingBlock: ZUJKAS_clean_linker_0, # of connection points: 2
#     Edge 66, Type (0, 0), BuildingBlock: ZUJKAS_clean_linker_0, # of connection points: 2
#     Edge 67, Type (0, 0), BuildingBlock: ZUJKAS_clean_linker_0, # of connection points: 2
#     Edge 68, Type (0, 0), BuildingBlock: ZUJKAS_clean_linker_0, # of connection points: 2
#     Edge 69, Type (0, 0), BuildingBlock: ZUJKAS_clean_linker_0, # of connection points: 2
#     Edge 70, Type (0, 0), BuildingBlock: ZUJKAS_clean_linker_0, # of connection points: 2
#     Edge 71, Type (0, 0), BuildingBlock: ZUJKAS_clean_linker_0, # of connection points: 2
#     Edge 72, Type (0, 0), BuildingBlock: ZUJKAS_clean_linker_0, # of connection points: 2
#     Edge 73, Type (0, 0), BuildingBlock: ZUJKAS_clean_linker_0, # of connection points: 2
#     Edge 74, Type (0, 0), BuildingBlock: ZUJKAS_clean_linker_0, # of connection points: 2
#     Edge 75, Type (0, 0), BuildingBlock: ZUJKAS_clean_linker_0, # of connection points: 2
#     Edge 76, Type (0, 0), BuildingBlock: ZUJKAS_clean_linker_0, # of connection points: 2
#     Edge 77, Type (0, 0), BuildingBlock: ZUJKAS_clean_linker_0, # of connection points: 2
#     Edge 78, Type (0, 0), BuildingBlock: ZUJKAS_clean_linker_0, # of connection points: 2
#     Edge 79, Type (0, 0), BuildingBlock: ZUJKAS_clean_linker_0, # of connection points: 2
#     Edge 80, Type (0, 0), BuildingBlock: ZUJKAS_clean_linker_0, # of connection points: 2
#     Edge 81, Type (0, 0), BuildingBlock: ZUJKAS_clean_linker_0, # of connection points: 2
#     Edge 82, Type (0, 0), BuildingBlock: ZUJKAS_clean_linker_0, # of connection points: 2
#     Edge 83, Type (0, 0), BuildingBlock: ZUJKAS_clean_linker_0, # of connection points: 2
#     Edge 84, Type (0, 0), BuildingBlock: ZUJKAS_clean_linker_0, # of connection points: 2
#     Edge 85, Type (0, 0), BuildingBlock: ZUJKAS_clean_linker_0, # of connection points: 2
#     Edge 86, Type (0, 0), BuildingBlock: ZUJKAS_clean_linker_0, # of connection points: 2
#     Edge 87, Type (0, 0), BuildingBlock: ZUJKAS_clean_linker_0, # of connection points: 2
#     Edge 88, Type (0, 0), BuildingBlock: ZUJKAS_clean_linker_0, # of connection points: 2
#     Edge 89, Type (0, 0), BuildingBlock: ZUJKAS_clean_linker_0, # of connection points: 2
#     Edge 90, Type (0, 0), BuildingBlock: ZUJKAS_clean_linker_0, # of connection points: 2
#     Edge 91, Type (0, 0), BuildingBlock: ZUJKAS_clean_linker_0, # of connection points: 2
#     Edge 92, Type (0, 0), BuildingBlock: ZUJKAS_clean_linker_0, # of connection points: 2
#     Edge 93, Type (0, 0), BuildingBlock: ZUJKAS_clean_linker_0, # of connection points: 2
#     Edge 94, Type (0, 0), BuildingBlock: ZUJKAS_clean_linker_0, # of connection points: 2
#     Edge 95, Type (0, 0), BuildingBlock: ZUJKAS_clean_linker_0, # of connection points: 2
# Relax obj value: 0.048
# Max RMSD: 0.073
# Mean RMSD: 0.073
data_MOF--net-ukd--node1-CEKHIL_clean_sbu_0--edge1-ZUJKAS_clean_linker_0
_symmetry_space_group_name_H-M    P1
_symmetry_Int_Tables_number       1
_symmetry_cell_setting            triclinic
loop_
_symmetry_equiv_pos_as_xyz
'x, y, z'
_cell_length_a     58.455925
_cell_length_b     58.455665
_cell_length_c     91.679979
_cell_angle_alpha  89.997157
_cell_angle_beta   90.002274
_cell_angle_gamma 90.006357
loop_
_atom_site_label
_atom_site_type_symbol
_atom_site_fract_x
_atom_site_fract_y
_atom_site_fract_z
_atom_type_partial_charge
Co0 Co 0.21231 0.17375 0.33583 0.0
O1 O 0.22682 0.14456 0.33294 0.0
O2 O 0.22766 0.16421 0.35356 0.0
C3 C 0.22502 0.1896 0.31491 0.0
O4 O 0.20039 0.2049 0.34265 0.0
Co5 Co 0.17538 0.1917 0.31435 0.0
O6 O 0.18195 0.22141 0.32388 0.0
C7 C 0.16269 0.15738 0.33668 0.0
C8 C 0.23411 0.14623 0.34626 0.0
C9 C 0.19089 0.22236 0.33654 0.0
O10 O 0.18299 0.15818 0.34214 0.0
O11 O 0.15674 0.16852 0.32526 0.0
O12 O 0.23805 0.18904 0.32638 0.0
O13 O 0.20575 0.17895 0.31608 0.0
Co14 Co 0.08016 0.96294 0.58601 0.0
O15 O 0.10899 0.97827 0.58361 0.0
O16 O 0.08864 0.97839 0.60396 0.0
C17 C 0.0645 0.97528 0.56495 0.0
O18 O 0.04923 0.94983 0.59221 0.0
Co19 Co 0.06518 0.92544 0.56393 0.0
O20 O 0.03491 0.9297 0.57338 0.0
C21 C 0.10012 0.91474 0.58616 0.0
C22 C 0.10677 0.98526 0.59696 0.0
C23 C 0.03278 0.93894 0.58591 0.0
O24 O 0.09635 0.93409 0.59245 0.0
O25 O 0.09087 0.909 0.57403 0.0
O26 O 0.06434 0.98828 0.57644 0.0
O27 O 0.07591 0.95648 0.5662 0.0
Co28 Co 0.29141 0.82922 0.83521 0.0
O29 O 0.27649 0.85818 0.83211 0.0
O30 O 0.27564 0.83867 0.85279 0.0
C31 C 0.27948 0.81266 0.81437 0.0
O32 O 0.30383 0.79837 0.84228 0.0
Co33 Co 0.32955 0.81275 0.81386 0.0
O34 O 0.32841 0.78436 0.82557 0.0
C35 C 0.34019 0.8481 0.83582 0.0
C36 C 0.26913 0.85655 0.84542 0.0
C37 C 0.31731 0.7826 0.83747 0.0
O38 O 0.3203 0.84548 0.84166 0.0
O39 O 0.34636 0.83792 0.8241 0.0
O40 O 0.26603 0.81345 0.82563 0.0
O41 O 0.2985 0.82372 0.81558 0.0
Co42 Co 0.42254 0.04151 0.08515 0.0
O43 O 0.3937 0.0264 0.08208 0.0
O44 O 0.41301 0.02605 0.10284 0.0
C45 C 0.43911 0.02908 0.06441 0.0
O46 O 0.45329 0.05412 0.09217 0.0
Co47 Co 0.43996 0.07882 0.06375 0.0
O48 O 0.46954 0.07376 0.07381 0.0
C49 C 0.40457 0.09058 0.08558 0.0
C50 C 0.39525 0.01926 0.09544 0.0
C51 C 0.47051 0.06454 0.08639 0.0
O52 O 0.4062 0.07048 0.09127 0.0
O53 O 0.41557 0.09667 0.07413 0.0
O54 O 0.43856 0.01607 0.07589 0.0
O55 O 0.428 0.0481 0.06544 0.0
Co56 Co 0.21182 0.82916 0.16304 0.0
O57 O 0.22675 0.85828 0.16512 0.0
O58 O 0.22716 0.83733 0.14502 0.0
C59 C 0.2243 0.81421 0.18428 0.0
O60 O 0.1992 0.79788 0.15715 0.0
Co61 Co 0.17449 0.81411 0.18523 0.0
O62 O 0.17903 0.78371 0.176 0.0
C63 C 0.16349 0.8487 0.16284 0.0
C64 C 0.23377 0.85575 0.1518 0.0
C65 C 0.18845 0.78143 0.16354 0.0
O66 O 0.18275 0.84483 0.15645 0.0
O67 O 0.15795 0.83968 0.17508 0.0
O68 O 0.23735 0.81394 0.17281 0.0
O69 O 0.20535 0.82532 0.18288 0.0
Co70 Co 0.42274 0.9606 0.41325 0.0
O71 O 0.39484 0.97736 0.41605 0.0
O72 O 0.41395 0.97575 0.39525 0.0
C73 C 0.44002 0.97292 0.43377 0.0
O74 O 0.45278 0.94591 0.40668 0.0
Co75 Co 0.43661 0.92311 0.43561 0.0
O76 O 0.46635 0.92466 0.42523 0.0
C77 C 0.40021 0.9135 0.41424 0.0
C78 C 0.39661 0.98375 0.40256 0.0
C79 C 0.46866 0.9338 0.41268 0.0
O80 O 0.40486 0.93233 0.40757 0.0
O81 O 0.40956 0.90775 0.42633 0.0
O82 O 0.44019 0.9855 0.42209 0.0
O83 O 0.42765 0.95466 0.43306 0.0
Co84 Co 0.29347 0.17351 0.66335 0.0
O85 O 0.27875 0.14438 0.66605 0.0
O86 O 0.27733 0.16478 0.64574 0.0
C87 C 0.28184 0.18895 0.68465 0.0
O88 O 0.30554 0.20477 0.65681 0.0
Co89 Co 0.33162 0.1897 0.68465 0.0
O90 O 0.32764 0.2194 0.67461 0.0
C91 C 0.34262 0.15585 0.66175 0.0
C92 C 0.27105 0.14655 0.65285 0.0
C93 C 0.31731 0.22125 0.66242 0.0
O94 O 0.32233 0.15773 0.65638 0.0
O95 O 0.34906 0.16606 0.6734 0.0
O96 O 0.26832 0.18884 0.6734 0.0
O97 O 0.30083 0.17796 0.68306 0.0
Co98 Co 0.07901 0.04052 0.91254 0.0
O99 O 0.10788 0.02523 0.91488 0.0
O100 O 0.08737 0.02506 0.89459 0.0
C101 C 0.06353 0.02823 0.93366 0.0
O102 O 0.048 0.0535 0.90639 0.0
Co103 Co 0.06399 0.07811 0.93448 0.0
O104 O 0.03362 0.07346 0.92526 0.0
C105 C 0.0986 0.08895 0.91206 0.0
C106 C 0.10557 0.01823 0.90153 0.0
C107 C 0.03147 0.06419 0.91274 0.0
O108 O 0.09516 0.06934 0.90603 0.0
O109 O 0.08914 0.09493 0.92407 0.0
O110 O 0.06331 0.0152 0.92218 0.0
O111 O 0.07488 0.04707 0.93237 0.0
Co112 Co 0.79225 0.82977 0.66371 0.0
O113 O 0.77676 0.85852 0.66615 0.0
O114 O 0.77642 0.83798 0.64588 0.0
C115 C 0.78046 0.81413 0.68489 0.0
O116 O 0.80542 0.79891 0.65746 0.0
Co117 Co 0.83036 0.81515 0.68541 0.0
O118 O 0.82594 0.78475 0.67616 0.0
C119 C 0.84042 0.84993 0.66296 0.0
C120 C 0.76956 0.85612 0.65286 0.0
C121 C 0.81645 0.78251 0.66372 0.0
O122 O 0.82082 0.84616 0.65699 0.0
O123 O 0.84663 0.84066 0.67499 0.0
O124 O 0.76724 0.81384 0.6735 0.0
O125 O 0.79917 0.82567 0.68349 0.0
Co126 Co 0.92317 0.04098 0.41343 0.0
O127 O 0.89489 0.0247 0.416 0.0
O128 O 0.91488 0.02534 0.39552 0.0
C129 C 0.93972 0.02918 0.43435 0.0
O130 O 0.95358 0.05511 0.40707 0.0
Co131 Co 0.93661 0.07907 0.43554 0.0
O132 O 0.96613 0.07853 0.42487 0.0
C133 C 0.90084 0.08817 0.41369 0.0
C134 C 0.89706 0.01792 0.40261 0.0
C135 C 0.96888 0.06837 0.41269 0.0
O136 O 0.90582 0.0693 0.40715 0.0
O137 O 0.90964 0.09402 0.42592 0.0
O138 O 0.94004 0.01618 0.42285 0.0
O139 O 0.92754 0.04751 0.43323 0.0
Co140 Co 0.71103 0.17211 0.16369 0.0
O141 O 0.72651 0.14337 0.16609 0.0
O142 O 0.72651 0.16374 0.14574 0.0
C143 C 0.72334 0.18779 0.18474 0.0
O144 O 0.69779 0.20299 0.15748 0.0
Co145 Co 0.67353 0.18704 0.18577 0.0
O146 O 0.67788 0.21735 0.17639 0.0
C147 C 0.663 0.15179 0.16369 0.0
C148 C 0.73352 0.14567 0.15275 0.0
C149 C 0.68704 0.21948 0.16384 0.0
O150 O 0.68224 0.15572 0.15731 0.0
O151 O 0.65728 0.1611 0.17581 0.0
O152 O 0.73631 0.18804 0.17324 0.0
O153 O 0.70457 0.17632 0.1835 0.0
Co154 Co 0.57866 0.96085 0.9128 0.0
O155 O 0.60721 0.97667 0.91531 0.0
O156 O 0.58664 0.97704 0.89504 0.0
C157 C 0.56278 0.97208 0.93402 0.0
O158 O 0.54788 0.94745 0.90655 0.0
Co159 Co 0.56528 0.92203 0.93434 0.0
O160 O 0.53549 0.92336 0.92403 0.0
C161 C 0.60022 0.91327 0.91191 0.0
C162 C 0.60472 0.98399 0.90205 0.0
C163 C 0.53255 0.93417 0.91209 0.0
O164 O 0.59547 0.93261 0.90588 0.0
O165 O 0.59155 0.9069 0.92408 0.0
O166 O 0.56239 0.98549 0.92272 0.0
O167 O 0.57469 0.95362 0.93255 0.0
Co168 Co 0.79029 0.17335 0.83578 0.0
O169 O 0.775 0.14457 0.83304 0.0
O170 O 0.77427 0.16471 0.85347 0.0
C171 C 0.77859 0.18922 0.81464 0.0
O172 O 0.80316 0.20421 0.84232 0.0
Co173 Co 0.82847 0.18876 0.81436 0.0
O174 O 0.82347 0.21897 0.82372 0.0
C175 C 0.83866 0.15371 0.83664 0.0
C176 C 0.76755 0.14669 0.8463 0.0
C177 C 0.81395 0.22087 0.83618 0.0
O178 O 0.8189 0.15704 0.8425 0.0
O179 O 0.84494 0.16338 0.82476 0.0
O180 O 0.76527 0.18927 0.82598 0.0
O181 O 0.79739 0.17783 0.81606 0.0
Co182 Co 0.5815 0.0412 0.58461 0.0
O183 O 0.61007 0.02542 0.58222 0.0
O184 O 0.58967 0.02558 0.60255 0.0
C185 C 0.56562 0.02915 0.56356 0.0
O186 O 0.55072 0.05472 0.59075 0.0
Co187 Co 0.56779 0.07913 0.56248 0.0
O188 O 0.53807 0.07798 0.57289 0.0
C189 C 0.60287 0.08884 0.58469 0.0
C190 C 0.60769 0.01843 0.59556 0.0
C191 C 0.53529 0.06769 0.58503 0.0
O192 O 0.59821 0.06977 0.5911 0.0
O193 O 0.59416 0.09463 0.57242 0.0
O194 O 0.56528 0.01615 0.57505 0.0
O195 O 0.57742 0.04772 0.56478 0.0
Co196 Co 0.71139 0.83008 0.33459 0.0
O197 O 0.72655 0.85903 0.33217 0.0
O198 O 0.7266 0.83881 0.35257 0.0
C199 C 0.72415 0.81436 0.31365 0.0
O200 O 0.69854 0.79904 0.34086 0.0
Co201 Co 0.6744 0.81438 0.31237 0.0
O202 O 0.67844 0.78437 0.32214 0.0
C203 C 0.66276 0.84918 0.33454 0.0
C204 C 0.7335 0.85689 0.34553 0.0
C205 C 0.68766 0.78246 0.33469 0.0
O206 O 0.68226 0.84611 0.3408 0.0
O207 O 0.65725 0.8395 0.3225 0.0
O208 O 0.737 0.81441 0.32521 0.0
O209 O 0.70523 0.82559 0.31475 0.0
Co210 Co 0.92315 0.96141 0.08533 0.0
O211 O 0.89466 0.97725 0.0826 0.0
O212 O 0.9145 0.97702 0.10316 0.0
C213 C 0.9396 0.97337 0.06444 0.0
O214 O 0.95366 0.94784 0.09193 0.0
Co215 Co 0.93817 0.92351 0.06359 0.0
O216 O 0.96815 0.92684 0.07356 0.0
C217 C 0.90207 0.91372 0.08521 0.0
C218 C 0.89667 0.98419 0.09598 0.0
C219 C 0.97006 0.93636 0.08602 0.0
O220 O 0.90621 0.9329 0.09161 0.0
O221 O 0.91157 0.90778 0.0732 0.0
O222 O 0.93968 0.98641 0.07592 0.0
O223 O 0.92784 0.95476 0.06558 0.0
Co224 Co 0.71107 0.67285 0.83555 0.0
O225 O 0.72613 0.64383 0.83337 0.0
O226 O 0.72596 0.66434 0.85366 0.0
C227 C 0.72413 0.68828 0.81461 0.0
O228 O 0.69821 0.70396 0.84158 0.0
Co229 Co 0.67431 0.68831 0.81314 0.0
O230 O 0.67898 0.7186 0.82248 0.0
C231 C 0.66264 0.65342 0.83522 0.0
C232 C 0.73281 0.6461 0.84678 0.0
C233 C 0.68789 0.72061 0.83511 0.0
O234 O 0.68189 0.65695 0.84169 0.0
O235 O 0.65727 0.66284 0.82308 0.0
O236 O 0.73682 0.68834 0.82624 0.0
O237 O 0.70515 0.67711 0.81567 0.0
Co238 Co 0.57955 0.46105 0.08623 0.0
O239 O 0.60875 0.47597 0.08457 0.0
O240 O 0.58682 0.47676 0.10427 0.0
C241 C 0.56535 0.47319 0.06472 0.0
O242 O 0.5481 0.44838 0.09168 0.0
Co243 Co 0.56563 0.42329 0.06409 0.0
O244 O 0.53485 0.42765 0.07281 0.0
C245 C 0.59923 0.41276 0.08717 0.0
C246 C 0.60556 0.48318 0.09779 0.0
C247 C 0.532 0.4373 0.08515 0.0
O248 O 0.59509 0.43219 0.09325 0.0
O249 O 0.59065 0.40686 0.07487 0.0
O250 O 0.56465 0.48637 0.07612 0.0
O251 O 0.57652 0.4543 0.06634 0.0
Co252 Co 0.79096 0.32895 0.33589 0.0
O253 O 0.77588 0.35784 0.33302 0.0
O254 O 0.77531 0.33808 0.35361 0.0
C255 C 0.77884 0.31276 0.31495 0.0
O256 O 0.80361 0.29812 0.34262 0.0
Co257 Co 0.82867 0.31271 0.31436 0.0
O258 O 0.8246 0.28296 0.32447 0.0
C259 C 0.83923 0.34866 0.33595 0.0
C260 C 0.76865 0.35603 0.34635 0.0
C261 C 0.81483 0.2814 0.33687 0.0
O262 O 0.81986 0.34516 0.34228 0.0
O263 O 0.845 0.33891 0.32399 0.0
O264 O 0.76565 0.31306 0.32635 0.0
O265 O 0.79775 0.324 0.31619 0.0
Co266 Co 0.92298 0.54092 0.58582 0.0
O267 O 0.89408 0.52582 0.58309 0.0
O268 O 0.91427 0.52495 0.6035 0.0
C269 C 0.93879 0.52922 0.56467 0.0
O270 O 0.95389 0.55353 0.59241 0.0
Co271 Co 0.93867 0.57914 0.56455 0.0
O272 O 0.96873 0.5747 0.57424 0.0
C273 C 0.90347 0.58931 0.5867 0.0
C274 C 0.89617 0.5184 0.59636 0.0
C275 C 0.97052 0.56477 0.58657 0.0
O276 O 0.90687 0.5696 0.5926 0.0
O277 O 0.91308 0.59555 0.57479 0.0
O278 O 0.93874 0.51585 0.57598 0.0
O279 O 0.92753 0.5481 0.56611 0.0
Co280 Co 0.71057 0.32994 0.66341 0.0
O281 O 0.72581 0.35881 0.66606 0.0
O282 O 0.72571 0.33895 0.6455 0.0
C283 C 0.72323 0.31375 0.68422 0.0
O284 O 0.69769 0.29914 0.65683 0.0
Co285 Co 0.67342 0.3137 0.68531 0.0
O286 O 0.67713 0.28393 0.67515 0.0
C287 C 0.66234 0.3497 0.66386 0.0
C288 C 0.73263 0.35691 0.65265 0.0
C289 C 0.68659 0.28241 0.66266 0.0
O290 O 0.68155 0.3462 0.65734 0.0
O291 O 0.65685 0.3399 0.67586 0.0
O292 O 0.7361 0.31401 0.67267 0.0
O293 O 0.7043 0.32502 0.68319 0.0
Co294 Co 0.92385 0.46191 0.91235 0.0
O295 O 0.89506 0.477 0.91545 0.0
O296 O 0.91438 0.47755 0.8947 0.0
C297 C 0.94042 0.4741 0.93314 0.0
O298 O 0.95454 0.44921 0.90538 0.0
Co299 Co 0.94045 0.42418 0.93369 0.0
O300 O 0.97019 0.42893 0.92369 0.0
C301 C 0.90466 0.41333 0.91203 0.0
C302 C 0.8966 0.48423 0.90211 0.0
C303 C 0.97148 0.43841 0.91119 0.0
O304 O 0.90753 0.43307 0.90606 0.0
O305 O 0.91488 0.40725 0.92377 0.0
O306 O 0.93992 0.48722 0.92171 0.0
O307 O 0.92917 0.45515 0.93204 0.0
Co308 Co 0.79167 0.67328 0.16254 0.0
O309 O 0.7772 0.64392 0.16496 0.0
O310 O 0.77579 0.66482 0.14482 0.0
C311 C 0.77962 0.68835 0.18384 0.0
O312 O 0.80354 0.70462 0.15613 0.0
Co313 Co 0.82926 0.69028 0.18389 0.0
O314 O 0.82386 0.72025 0.17439 0.0
C315 C 0.84087 0.65597 0.16131 0.0
C316 C 0.76962 0.6464 0.15175 0.0
C317 C 0.81411 0.72166 0.16199 0.0
O318 O 0.82074 0.65781 0.1557 0.0
O319 O 0.84697 0.66637 0.17298 0.0
O320 O 0.76627 0.68825 0.17252 0.0
O321 O 0.7988 0.67765 0.1823 0.0
Co322 Co 0.5806 0.54224 0.4134 0.0
O323 O 0.60914 0.52639 0.4158 0.0
O324 O 0.58873 0.52655 0.39548 0.0
C325 C 0.56464 0.53033 0.43446 0.0
O326 O 0.54986 0.55584 0.40722 0.0
Co327 Co 0.56698 0.58033 0.43542 0.0
O328 O 0.53725 0.57917 0.42503 0.0
C329 C 0.60182 0.59003 0.41305 0.0
C330 C 0.60676 0.5194 0.40246 0.0
C331 C 0.53445 0.56887 0.4129 0.0
O332 O 0.59738 0.57074 0.40686 0.0
O333 O 0.593 0.59605 0.42524 0.0
O334 O 0.56429 0.51728 0.42299 0.0
O335 O 0.57652 0.54886 0.43322 0.0
Co336 Co 0.2908 0.32872 0.16266 0.0
O337 O 0.27511 0.35735 0.16512 0.0
O338 O 0.27432 0.3365 0.14498 0.0
C339 C 0.27989 0.31318 0.18407 0.0
O340 O 0.30403 0.29783 0.15647 0.0
Co341 Co 0.3299 0.31542 0.18403 0.0
O342 O 0.32825 0.2855 0.17388 0.0
C343 C 0.3385 0.34996 0.1613 0.0
C344 C 0.26753 0.3547 0.15193 0.0
C345 C 0.31733 0.2825 0.162 0.0
O346 O 0.319 0.34533 0.15545 0.0
O347 O 0.34504 0.34138 0.17345 0.0
O348 O 0.26628 0.31266 0.17287 0.0
O349 O 0.29836 0.325 0.18238 0.0
Co350 Co 0.42295 0.54111 0.91407 0.0
O351 O 0.39421 0.52579 0.91712 0.0
O352 O 0.41337 0.52593 0.8963 0.0
C353 C 0.43982 0.52846 0.93466 0.0
O354 O 0.45353 0.55406 0.90702 0.0
Co355 Co 0.44026 0.57819 0.93566 0.0
O356 O 0.46978 0.57366 0.92539 0.0
C357 C 0.40439 0.58996 0.91417 0.0
C358 C 0.39568 0.51896 0.90368 0.0
C359 C 0.47069 0.5646 0.91276 0.0
O360 O 0.40637 0.57008 0.90822 0.0
O361 O 0.41533 0.59586 0.92568 0.0
O362 O 0.43923 0.51562 0.9231 0.0
O363 O 0.42855 0.54741 0.9338 0.0
Co364 Co 0.21142 0.67329 0.66246 0.0
O365 O 0.22764 0.6449 0.6646 0.0
O366 O 0.22638 0.66528 0.64427 0.0
C367 C 0.22415 0.68916 0.68328 0.0
O368 O 0.19732 0.70378 0.65641 0.0
Co369 Co 0.17447 0.68753 0.68492 0.0
O370 O 0.17687 0.71778 0.67516 0.0
C371 C 0.1638 0.65207 0.66305 0.0
C372 C 0.23395 0.64729 0.65112 0.0
C373 C 0.18589 0.71998 0.66257 0.0
O374 O 0.18283 0.65624 0.65648 0.0
O375 O 0.15826 0.66133 0.67521 0.0
O376 O 0.23656 0.69001 0.67155 0.0
O377 O 0.20564 0.67719 0.68243 0.0
Co378 Co 0.0797 0.4614 0.41336 0.0
O379 O 0.10799 0.47751 0.41632 0.0
O380 O 0.08878 0.47676 0.39552 0.0
C381 C 0.06266 0.4735 0.43402 0.0
O382 O 0.04942 0.44762 0.40649 0.0
Co383 Co 0.06429 0.42361 0.43502 0.0
O384 O 0.0345 0.42688 0.42483 0.0
C385 C 0.10043 0.41342 0.41351 0.0
C386 C 0.10632 0.48421 0.40288 0.0
C387 C 0.03287 0.43622 0.41231 0.0
O388 O 0.09691 0.43292 0.40736 0.0
O389 O 0.09043 0.40729 0.42532 0.0
O390 O 0.06281 0.48641 0.42248 0.0
O391 O 0.07452 0.45492 0.4331 0.0
Co392 Co 0.29117 0.67335 0.3357 0.0
O393 O 0.27667 0.64415 0.33269 0.0
O394 O 0.27553 0.66382 0.3533 0.0
C395 C 0.27899 0.6893 0.31468 0.0
O396 O 0.30291 0.70443 0.3427 0.0
Co397 Co 0.32858 0.6916 0.31465 0.0
O398 O 0.32255 0.72115 0.32453 0.0
C399 C 0.34071 0.65689 0.33687 0.0
C400 C 0.26922 0.64582 0.34598 0.0
C401 C 0.31302 0.7219 0.33702 0.0
O402 O 0.32035 0.65776 0.34223 0.0
O403 O 0.34686 0.66808 0.32552 0.0
O404 O 0.26566 0.68869 0.32601 0.0
O405 O 0.29823 0.67866 0.31604 0.0
Co406 Co 0.07975 0.54149 0.08504 0.0
O407 O 0.10811 0.52541 0.08244 0.0
O408 O 0.08763 0.52503 0.10273 0.0
C409 C 0.06378 0.53054 0.06378 0.0
O410 O 0.04911 0.55519 0.09133 0.0
Co411 Co 0.06686 0.58058 0.06356 0.0
O412 O 0.03706 0.5795 0.07387 0.0
C413 C 0.10161 0.58897 0.08618 0.0
C414 C 0.10558 0.51791 0.09565 0.0
C415 C 0.03397 0.5687 0.08579 0.0
O416 O 0.09683 0.56953 0.09206 0.0
O417 O 0.09301 0.59555 0.07404 0.0
O418 O 0.06324 0.51708 0.07505 0.0
O419 O 0.07587 0.54888 0.0653 0.0
Co420 Co 0.21254 0.32889 0.83584 0.0
O421 O 0.22752 0.35794 0.83353 0.0
O422 O 0.2273 0.33771 0.85393 0.0
C423 C 0.22572 0.31328 0.81498 0.0
O424 O 0.19977 0.29782 0.84204 0.0
Co425 Co 0.17598 0.31285 0.81344 0.0
O426 O 0.18058 0.28276 0.82305 0.0
C427 C 0.16408 0.3481 0.83523 0.0
C428 C 0.23412 0.35589 0.84697 0.0
C429 C 0.18946 0.28103 0.83571 0.0
O430 O 0.18326 0.34474 0.84182 0.0
O431 O 0.15886 0.33847 0.82313 0.0
O432 O 0.2384 0.31338 0.82662 0.0
O433 O 0.20669 0.32435 0.81598 0.0
Co434 Co 0.42259 0.46115 0.58504 0.0
O435 O 0.39373 0.4761 0.5817 0.0
O436 O 0.41267 0.47671 0.60259 0.0
C437 C 0.43941 0.47352 0.56436 0.0
O438 O 0.45326 0.44883 0.59238 0.0
Co439 Co 0.44098 0.42385 0.56401 0.0
O440 O 0.47037 0.42985 0.57407 0.0
C441 C 0.40531 0.41186 0.58562 0.0
C442 C 0.39505 0.4834 0.59504 0.0
C443 C 0.47087 0.43896 0.58669 0.0
O444 O 0.40628 0.43213 0.59111 0.0
O445 O 0.41689 0.40566 0.57444 0.0
O446 O 0.43862 0.4866 0.5758 0.0
O447 O 0.42847 0.45439 0.56538 0.0
H448 H 0.11853 0.41559 0.3859 0.0
H449 H 0.13953 0.38558 0.37296 0.0
H450 H 0.13738 0.34301 0.41132 0.0
H451 H 0.11644 0.37281 0.42439 0.0
H452 H 0.1816 0.34405 0.39467 0.0
H453 H 0.10412 0.32523 0.36144 0.0
H454 H 0.11333 0.35458 0.36203 0.0
H455 H 0.1028 0.34115 0.3783 0.0
C456 C 0.12279 0.4 0.39168 0.0
C457 C 0.11553 0.39655 0.40616 0.0
C458 C 0.13475 0.38286 0.38424 0.0
C459 C 0.13977 0.36203 0.39116 0.0
C460 C 0.13362 0.35897 0.4058 0.0
H461 H 0.19325 0.22906 0.36618 0.0
H462 H 0.18356 0.26403 0.37957 0.0
C463 C 0.12156 0.37601 0.41322 0.0
C464 C 0.14982 0.34277 0.38285 0.0
H465 H 0.13707 0.30363 0.3565 0.0
C466 C 0.17197 0.33522 0.38627 0.0
C467 C 0.13711 0.33129 0.37197 0.0
C468 C 0.11295 0.33828 0.36822 0.0
C469 C 0.18189 0.31656 0.37892 0.0
C470 C 0.16907 0.30491 0.36813 0.0
C471 C 0.14693 0.3126 0.36472 0.0
C472 C 0.1779 0.28454 0.36023 0.0
C473 C 0.2061 0.30977 0.38259 0.0
C474 C 0.178 0.28441 0.34493 0.0
C475 C 0.18319 0.26443 0.33729 0.0
C476 C 0.18845 0.24408 0.34477 0.0
C477 C 0.18941 0.24447 0.36009 0.0
C478 C 0.18398 0.2645 0.36776 0.0
H479 H 0.21565 0.32409 0.38773 0.0
H480 H 0.20575 0.29534 0.39045 0.0
H481 H 0.21552 0.30412 0.37271 0.0
H482 H 0.17338 0.29964 0.33888 0.0
H483 H 0.18249 0.2648 0.32548 0.0
H484 H 0.02457 0.9416 0.61536 0.0
H485 H 0.98935 0.93082 0.62819 0.0
H486 H 0.95615 0.91827 0.58696 0.0
H487 H 0.99128 0.92838 0.57411 0.0
H488 H 0.94431 0.94589 0.6278 0.0
H489 H 0.95018 0.85687 0.6071 0.0
H490 H 0.97333 0.87707 0.60529 0.0
H491 H 0.94948 0.87796 0.5929 0.0
C492 C 0.00969 0.93678 0.60903 0.0
C493 C 0.01085 0.93547 0.59373 0.0
C494 C 0.98958 0.93061 0.61637 0.0
C495 C 0.97031 0.92318 0.60853 0.0
C496 C 0.97101 0.9233 0.59324 0.0
H497 H 0.83961 0.86377 0.63437 0.0
H498 H 0.86968 0.88418 0.62106 0.0
C499 C 0.9911 0.92919 0.58592 0.0
C500 C 0.94987 0.91426 0.61629 0.0
H501 H 0.91655 0.86659 0.62004 0.0
C502 C 0.93824 0.92855 0.62613 0.0
C503 C 0.94202 0.89157 0.61414 0.0
C504 C 0.95451 0.87489 0.6044 0.0
C505 C 0.91883 0.92081 0.63373 0.0
C506 C 0.91099 0.89821 0.63149 0.0
C507 C 0.9225 0.884 0.62161 0.0
C508 C 0.89166 0.88839 0.63985 0.0
C509 C 0.90672 0.93685 0.64404 0.0
C510 C 0.89404 0.88416 0.65482 0.0
C511 C 0.87702 0.87233 0.66243 0.0
C512 C 0.85724 0.86455 0.6552 0.0
C513 C 0.85455 0.86957 0.64029 0.0
C514 C 0.87172 0.88122 0.63266 0.0
H515 H 0.9117 0.95496 0.64217 0.0
H516 H 0.88787 0.93526 0.64287 0.0
H517 H 0.91123 0.93227 0.65544 0.0
H518 H 0.90945 0.88926 0.66052 0.0
H519 H 0.87964 0.86884 0.67391 0.0
H520 H 0.37064 0.58359 0.89361 0.0
H521 H 0.34805 0.61315 0.88126 0.0
H522 H 0.3832 0.66531 0.90589 0.0
H523 H 0.40497 0.63605 0.91862 0.0
H524 H 0.33949 0.67563 0.90374 0.0
H525 H 0.37206 0.65183 0.84884 0.0
H526 H 0.35661 0.62955 0.85801 0.0
H527 H 0.38342 0.63947 0.86531 0.0
C528 C 0.37344 0.60136 0.89643 0.0
C529 C 0.38974 0.60743 0.90704 0.0
C530 C 0.3606 0.61826 0.88931 0.0
C531 C 0.36422 0.64154 0.89241 0.0
C532 C 0.38005 0.64751 0.90327 0.0
H533 H 0.35677 0.75877 0.83946 0.0
H534 H 0.36428 0.72397 0.85315 0.0
C535 C 0.39257 0.63069 0.91054 0.0
C536 C 0.35241 0.65999 0.88414 0.0
H537 H 0.34727 0.68322 0.85014 0.0
C538 C 0.34104 0.67724 0.892 0.0
C539 C 0.35448 0.66211 0.86881 0.0
C540 C 0.36745 0.64489 0.85973 0.0
C541 C 0.33279 0.69708 0.8851 0.0
C542 C 0.33524 0.69937 0.86981 0.0
C543 C 0.34542 0.6815 0.86186 0.0
C544 C 0.33002 0.72107 0.86196 0.0
C545 C 0.32279 0.71588 0.8944 0.0
C546 C 0.30826 0.73138 0.86243 0.0
C547 C 0.30407 0.7518 0.85481 0.0
C548 C 0.32138 0.76181 0.8463 0.0
C549 C 0.34301 0.75137 0.84582 0.0
C550 C 0.34732 0.7314 0.85364 0.0
H551 H 0.32706 0.71365 0.90613 0.0
H552 H 0.32906 0.73291 0.89083 0.0
H553 H 0.30388 0.71567 0.89336 0.0
H554 H 0.29446 0.72351 0.86849 0.0
H555 H 0.28718 0.7594 0.85524 0.0
H556 H 0.47774 0.05601 0.11555 0.0
H557 H 0.51212 0.06493 0.1298 0.0
H558 H 0.54589 0.08876 0.09087 0.0
H559 H 0.51189 0.07983 0.07654 0.0
H560 H 0.57412 0.06133 0.11027 0.0
H561 H 0.52908 0.13295 0.13813 0.0
H562 H 0.51551 0.10538 0.13907 0.0
H563 H 0.51806 0.11967 0.12181 0.0
C564 C 0.49258 0.06288 0.10998 0.0
C565 C 0.49191 0.06747 0.09492 0.0
C566 C 0.51216 0.06804 0.11815 0.0
C567 C 0.5314 0.07779 0.1114 0.0
C568 C 0.53119 0.08132 0.09629 0.0
H569 H 0.6606 0.13996 0.13478 0.0
H570 H 0.62962 0.11942 0.12251 0.0
C571 C 0.51166 0.07628 0.08813 0.0
C572 C 0.55125 0.08572 0.12009 0.0
H573 H 0.56746 0.12674 0.14446 0.0
C574 C 0.5727 0.07552 0.11784 0.0
C575 C 0.54931 0.1043 0.12989 0.0
C576 C 0.52683 0.1164 0.13235 0.0
C577 C 0.59231 0.08336 0.12519 0.0
C578 C 0.59045 0.10226 0.13478 0.0
C579 C 0.56889 0.11222 0.13715 0.0
C580 C 0.61054 0.11251 0.14228 0.0
C581 C 0.61472 0.07116 0.12273 0.0
C582 C 0.61012 0.11565 0.15746 0.0
C583 C 0.62757 0.12774 0.16444 0.0
C584 C 0.64593 0.13688 0.15642 0.0
C585 C 0.64681 0.13298 0.14129 0.0
C586 C 0.62916 0.1211 0.13427 0.0
H587 H 0.61197 0.05327 0.11902 0.0
H588 H 0.62447 0.0802 0.11409 0.0
H589 H 0.62525 0.07088 0.13281 0.0
H590 H 0.59594 0.10922 0.16387 0.0
H591 H 0.62642 0.1303 0.17612 0.0
H592 H 0.17665 0.74036 0.17552 0.0
H593 H 0.16796 0.7047 0.16288 0.0
H594 H 0.18395 0.73654 0.12168 0.0
H595 H 0.19329 0.77223 0.13431 0.0
H596 H 0.13415 0.69917 0.14382 0.0
H597 H 0.21577 0.67581 0.11701 0.0
H598 H 0.21414 0.69716 0.1312 0.0
H599 H 0.20668 0.70433 0.11271 0.0
C600 C 0.17867 0.73972 0.16378 0.0
C601 C 0.18557 0.75922 0.15592 0.0
C602 C 0.17372 0.71928 0.15657 0.0
C603 C 0.17548 0.71781 0.14134 0.0
C604 C 0.18297 0.73705 0.13347 0.0
H605 H 0.12064 0.6286 0.07592 0.0
H606 H 0.14071 0.65797 0.08987 0.0
C607 C 0.18817 0.75751 0.1407 0.0
C608 C 0.16733 0.69692 0.13369 0.0
H609 H 0.18219 0.65628 0.1086 0.0
C610 C 0.14479 0.68963 0.13627 0.0
C611 C 0.18117 0.68448 0.1238 0.0
C612 C 0.20586 0.69069 0.12111 0.0
C613 C 0.13551 0.6707 0.12897 0.0
C614 C 0.14918 0.65857 0.11888 0.0
C615 C 0.1718 0.66561 0.11638 0.0
C616 C 0.13965 0.63939 0.11024 0.0
C617 C 0.11087 0.66426 0.13173 0.0
C618 C 0.13302 0.6189 0.11701 0.0
C619 C 0.12153 0.60198 0.10906 0.0
C620 C 0.11639 0.60535 0.09421 0.0
C621 C 0.12409 0.62548 0.08735 0.0
C622 C 0.13567 0.64229 0.09529 0.0
H623 H 0.10156 0.67767 0.13793 0.0
H624 H 0.10179 0.66122 0.12127 0.0
H625 H 0.11028 0.64816 0.13814 0.0
H626 H 0.13615 0.61629 0.12854 0.0
H627 H 0.11593 0.58668 0.11469 0.0
H628 H 0.50509 0.9082 0.42174 0.0
H629 H 0.5396 0.8986 0.40823 0.0
H630 H 0.51629 0.93908 0.37186 0.0
H631 H 0.48138 0.94894 0.38535 0.0
H632 H 0.53879 0.87567 0.38052 0.0
H633 H 0.58468 0.95904 0.37867 0.0
H634 H 0.56272 0.95287 0.39198 0.0
H635 H 0.55497 0.95925 0.3735 0.0
C636 C 0.50725 0.91531 0.41092 0.0
C637 C 0.49028 0.9293 0.40463 0.0
C638 C 0.52707 0.90979 0.40323 0.0
C639 C 0.53058 0.91825 0.38911 0.0
C640 C 0.51403 0.93263 0.38284 0.0
H641 H 0.62083 0.86166 0.32395 0.0
H642 H 0.58976 0.88039 0.33706 0.0
C643 C 0.49404 0.93813 0.39054 0.0
C644 C 0.55078 0.91049 0.38068 0.0
H645 H 0.60126 0.92821 0.36561 0.0
C646 C 0.55243 0.88716 0.37725 0.0
C647 C 0.56861 0.9255 0.37656 0.0
C648 C 0.56789 0.95056 0.38042 0.0
C649 C 0.57136 0.87845 0.36968 0.0
C650 C 0.58905 0.89349 0.36536 0.0
C651 C 0.58758 0.9168 0.3689 0.0
C652 C 0.60895 0.885 0.35699 0.0
C653 C 0.57245 0.85317 0.36642 0.0
C654 C 0.63027 0.88204 0.36375 0.0
C655 C 0.6482 0.87122 0.3563 0.0
C656 C 0.64502 0.86323 0.34195 0.0
C657 C 0.62391 0.86736 0.33502 0.0
C658 C 0.60608 0.87811 0.34247 0.0
H659 H 0.55943 0.84333 0.37264 0.0
H660 H 0.56938 0.85038 0.35461 0.0
H661 H 0.58967 0.84628 0.36905 0.0
H662 H 0.63275 0.88727 0.37498 0.0
H663 H 0.66421 0.86841 0.36196 0.0
H664 H 0.3493 0.25426 0.6671 0.0
H665 H 0.35569 0.28913 0.65339 0.0
H666 H 0.29829 0.27321 0.6256 0.0
H667 H 0.29229 0.23737 0.63906 0.0
H668 H 0.33193 0.28696 0.60966 0.0
H669 H 0.32477 0.34921 0.65428 0.0
H670 H 0.34552 0.32816 0.65935 0.0
H671 H 0.31613 0.31978 0.65649 0.0
C672 C 0.33779 0.25819 0.65819 0.0
C673 C 0.32017 0.243 0.65425 0.0
C674 C 0.34135 0.27837 0.65042 0.0
C675 C 0.32708 0.28428 0.63871 0.0
C676 C 0.30939 0.26919 0.63471 0.0
H677 H 0.36604 0.41814 0.60164 0.0
H678 H 0.34237 0.38847 0.61314 0.0
C679 C 0.30599 0.2487 0.6424 0.0
C680 C 0.33208 0.30527 0.63007 0.0
H681 H 0.34953 0.36067 0.634 0.0
C682 C 0.33529 0.30321 0.61496 0.0
C683 C 0.33577 0.3268 0.63678 0.0
C684 C 0.33007 0.33115 0.65259 0.0
C685 C 0.34381 0.32148 0.60662 0.0
C686 C 0.35024 0.34208 0.61369 0.0
C687 C 0.34526 0.34474 0.62858 0.0
C688 C 0.36372 0.36021 0.60615 0.0
C689 C 0.34596 0.31832 0.59034 0.0
C690 C 0.3838 0.35437 0.59861 0.0
C691 C 0.39698 0.37115 0.59182 0.0
C692 C 0.39085 0.39435 0.59279 0.0
C693 C 0.37114 0.40038 0.60068 0.0
C694 C 0.3576 0.38344 0.60723 0.0
H695 H 0.33236 0.30677 0.58616 0.0
H696 H 0.34483 0.33486 0.58443 0.0
H697 H 0.36266 0.31019 0.58784 0.0
H698 H 0.38955 0.33678 0.59815 0.0
H699 H 0.41232 0.36598 0.58607 0.0
H700 H 0.99006 0.0746 0.92469 0.0
H701 H 0.95457 0.08387 0.91201 0.0
H702 H 0.98745 0.07122 0.87067 0.0
H703 H 0.02295 0.06125 0.88334 0.0
H704 H 0.949 0.11892 0.8941 0.0
H705 H 0.92724 0.03943 0.86432 0.0
H706 H 0.94833 0.04012 0.8787 0.0
H707 H 0.95572 0.04918 0.86053 0.0
C708 C 0.98967 0.07343 0.9129 0.0
C709 C 0.00939 0.06728 0.90502 0.0
C710 C 0.96933 0.07871 0.90567 0.0
C711 C 0.96821 0.07808 0.89039 0.0
C712 C 0.98768 0.07132 0.88248 0.0
H713 H 0.87942 0.13749 0.82621 0.0
H714 H 0.90914 0.1171 0.83968 0.0
C715 C 0.00803 0.06575 0.88974 0.0
C716 C 0.94742 0.08663 0.8828 0.0
H717 H 0.90756 0.07347 0.85682 0.0
C718 C 0.93978 0.10883 0.88609 0.0
C719 C 0.93539 0.07351 0.87232 0.0
C720 C 0.94194 0.04916 0.86885 0.0
C721 C 0.9209 0.11849 0.87894 0.0
C722 C 0.9092 0.10556 0.86827 0.0
C723 C 0.91659 0.08329 0.86504 0.0
C724 C 0.89002 0.11554 0.85984 0.0
C725 C 0.91399 0.14272 0.88253 0.0
C726 C 0.86918 0.12086 0.86664 0.0
C727 C 0.85206 0.1325 0.85896 0.0
C728 C 0.85558 0.13912 0.84436 0.0
C729 C 0.87617 0.13286 0.83746 0.0
C730 C 0.89317 0.12112 0.84511 0.0
H731 H 0.92703 0.15163 0.88927 0.0
H732 H 0.91119 0.15272 0.87238 0.0
H733 H 0.89765 0.1425 0.88869 0.0
H734 H 0.8664 0.11652 0.87798 0.0
H735 H 0.83642 0.13697 0.86462 0.0
H736 H 0.88932 0.58847 0.61523 0.0
H737 H 0.86915 0.61871 0.62852 0.0
H738 H 0.86488 0.65874 0.58914 0.0
H739 H 0.88507 0.62877 0.57576 0.0
H740 H 0.88755 0.66553 0.6295 0.0
H741 H 0.79902 0.66161 0.60751 0.0
H742 H 0.81837 0.6375 0.60692 0.0
H743 H 0.82173 0.66069 0.59427 0.0
C744 C 0.88373 0.60351 0.60932 0.0
C745 C 0.88893 0.60623 0.59443 0.0
C746 C 0.87223 0.62077 0.61694 0.0
C747 C 0.86537 0.64084 0.60977 0.0
C748 C 0.86975 0.64324 0.59482 0.0
H749 H 0.81335 0.77416 0.6343 0.0
H750 H 0.82373 0.73882 0.62149 0.0
C751 C 0.88144 0.62613 0.58722 0.0
C752 C 0.85579 0.66026 0.61815 0.0
H753 H 0.80846 0.69401 0.62195 0.0
C754 C 0.87018 0.67165 0.62798 0.0
C755 C 0.83325 0.66831 0.61595 0.0
C756 C 0.81706 0.65636 0.60567 0.0
C757 C 0.86286 0.69125 0.63546 0.0
C758 C 0.84022 0.6993 0.63337 0.0
C759 C 0.82575 0.68779 0.62358 0.0
C760 C 0.83156 0.71984 0.64114 0.0
C761 C 0.87975 0.7036 0.64512 0.0
C762 C 0.83167 0.72062 0.65643 0.0
C763 C 0.82603 0.7408 0.66375 0.0
C764 C 0.81974 0.76053 0.65593 0.0
C765 C 0.81819 0.75929 0.64064 0.0
C766 C 0.82413 0.73911 0.63331 0.0
H767 H 0.8977 0.69915 0.64233 0.0
H768 H 0.87771 0.72244 0.64424 0.0
H769 H 0.87678 0.69858 0.65664 0.0
H770 H 0.83669 0.70577 0.66273 0.0
H771 H 0.82701 0.74105 0.67554 0.0
H772 H 0.11692 0.16515 0.33646 0.0
H773 H 0.0871 0.14416 0.34923 0.0
H774 H 0.13763 0.09732 0.36616 0.0
H775 H 0.16792 0.11921 0.35393 0.0
H776 H 0.07184 0.10278 0.34691 0.0
H777 H 0.106 0.11345 0.40304 0.0
H778 H 0.11798 0.12835 0.38764 0.0
H779 H 0.12496 0.09878 0.39084 0.0
C780 C 0.12175 0.1504 0.34292 0.0
C781 C 0.1448 0.14389 0.34423 0.0
C782 C 0.10464 0.13835 0.35021 0.0
C783 C 0.11004 0.11927 0.35885 0.0
C784 C 0.13303 0.11233 0.35991 0.0
H785 H 0.98885 0.04269 0.39094 0.0
H786 H 0.02452 0.05102 0.37784 0.0
C787 C 0.15032 0.12475 0.35283 0.0
C788 C 0.09131 0.10705 0.36666 0.0
H789 H 0.07189 0.09254 0.40056 0.0
C790 C 0.07189 0.10044 0.35864 0.0
C791 C 0.09134 0.104 0.38198 0.0
C792 C 0.11108 0.11169 0.39142 0.0
C793 C 0.05215 0.09201 0.36553 0.0
C794 C 0.05211 0.08916 0.38087 0.0
C795 C 0.07193 0.09468 0.3888 0.0
C796 C 0.03103 0.08295 0.3891 0.0
C797 C 0.03116 0.08757 0.35636 0.0
C798 C 0.02321 0.09761 0.40014 0.0
C799 C 0.00323 0.09265 0.40782 0.0
C800 C 0.99035 0.07297 0.40456 0.0
C801 C 0.99823 0.05812 0.39358 0.0
C802 C 0.01856 0.06293 0.38604 0.0
H803 H 0.03233 0.09591 0.3455 0.0
H804 H 0.02934 0.06889 0.35457 0.0
H805 H 0.01548 0.09385 0.3619 0.0
H806 H 0.03242 0.11319 0.40272 0.0
H807 H 0.99766 0.10453 0.41616 0.0
H808 H 0.61249 0.41328 0.1159 0.0
H809 H 0.63279 0.38315 0.12922 0.0
H810 H 0.63842 0.34367 0.08967 0.0
H811 H 0.61819 0.37354 0.07627 0.0
H812 H 0.61567 0.33679 0.13046 0.0
H813 H 0.7037 0.34087 0.10783 0.0
H814 H 0.68395 0.36462 0.10684 0.0
H815 H 0.68108 0.34088 0.09454 0.0
C816 C 0.61838 0.39837 0.10997 0.0
C817 C 0.61358 0.3958 0.09502 0.0
C818 C 0.62997 0.38118 0.11761 0.0
C819 C 0.6373 0.36131 0.11039 0.0
C820 C 0.63323 0.35903 0.0954 0.0
H821 H 0.68919 0.22776 0.13438 0.0
H822 H 0.67869 0.26319 0.1217 0.0
C823 C 0.62149 0.37608 0.08778 0.0
C824 C 0.64711 0.34195 0.11874 0.0
H825 H 0.69443 0.30803 0.12202 0.0
C826 C 0.63297 0.33063 0.12876 0.0
C827 C 0.66958 0.33384 0.11631 0.0
C828 C 0.68558 0.34575 0.10589 0.0
C829 C 0.64045 0.31102 0.13617 0.0
C830 C 0.66298 0.30286 0.1338 0.0
C831 C 0.67721 0.31432 0.12385 0.0
C832 C 0.67176 0.28226 0.14145 0.0
C833 C 0.62382 0.29876 0.14606 0.0
C834 C 0.6722 0.2815 0.15673 0.0
C835 C 0.67791 0.26128 0.16397 0.0
C836 C 0.68371 0.24148 0.15608 0.0
C837 C 0.68473 0.24269 0.14077 0.0
C838 C 0.67873 0.26292 0.13351 0.0
H839 H 0.6058 0.30335 0.14353 0.0
H840 H 0.6257 0.27991 0.14513 0.0
H841 H 0.62724 0.30372 0.15753 0.0
H842 H 0.66754 0.29641 0.16309 0.0
H843 H 0.67735 0.26106 0.17578 0.0
H844 H 0.51144 0.96251 0.89227 0.0
H845 H 0.47478 0.95606 0.87983 0.0
H846 H 0.46871 0.89049 0.90111 0.0
H847 H 0.50443 0.89728 0.91397 0.0
H848 H 0.4617 0.92637 0.86099 0.0
H849 H 0.40653 0.9138 0.90885 0.0
H850 H 0.43527 0.92475 0.91049 0.0
H851 H 0.43006 0.8943 0.91003 0.0
C852 C 0.50212 0.94684 0.89437 0.0
C853 C 0.5107 0.93053 0.90422 0.0
C854 C 0.48116 0.94318 0.88729 0.0
C855 C 0.46855 0.92307 0.88985 0.0
C856 C 0.47751 0.90657 0.89939 0.0
H857 H 0.38641 0.84611 0.83284 0.0
H858 H 0.41524 0.86834 0.84556 0.0
C859 C 0.49813 0.91038 0.90665 0.0
C860 C 0.44684 0.91836 0.88189 0.0
H861 H 0.39387 0.89481 0.88652 0.0
C862 C 0.44671 0.91992 0.86661 0.0
C863 C 0.42685 0.91066 0.88914 0.0
C864 C 0.42462 0.91107 0.90554 0.0
C865 C 0.42791 0.91233 0.85839 0.0
C866 C 0.40911 0.902 0.8656 0.0
C867 C 0.40847 0.90214 0.88091 0.0
C868 C 0.39107 0.88922 0.85753 0.0
C869 C 0.4286 0.91531 0.84205 0.0
C870 C 0.3677 0.89272 0.86046 0.0
C871 C 0.35101 0.87947 0.85342 0.0
C872 C 0.35742 0.86263 0.84325 0.0
C873 C 0.3808 0.85922 0.84039 0.0
C874 C 0.39738 0.87212 0.84758 0.0
H875 H 0.43836 0.93092 0.83903 0.0
H876 H 0.43751 0.90047 0.83708 0.0
H877 H 0.41116 0.91659 0.83732 0.0
H878 H 0.36237 0.90561 0.86823 0.0
H879 H 0.33313 0.88245 0.85589 0.0
H880 H 0.89007 0.37198 0.92257 0.0
H881 H 0.86939 0.34209 0.90942 0.0
H882 H 0.86528 0.38554 0.87154 0.0
H883 H 0.88601 0.41568 0.88457 0.0
H884 H 0.82455 0.34313 0.8935 0.0
H885 H 0.90078 0.32589 0.85877 0.0
H886 H 0.9027 0.34139 0.87576 0.0
H887 H 0.89119 0.35508 0.85986 0.0
C888 C 0.88461 0.37535 0.91149 0.0
C889 C 0.88995 0.3962 0.90458 0.0
C890 C 0.8727 0.35824 0.90402 0.0
C891 C 0.86604 0.36156 0.88949 0.0
C892 C 0.87046 0.38263 0.88273 0.0
H893 H 0.82294 0.26278 0.82453 0.0
H894 H 0.83227 0.29804 0.83745 0.0
C895 C 0.88227 0.39984 0.89021 0.0
C896 C 0.85586 0.34237 0.88118 0.0
H897 H 0.8681 0.30358 0.85452 0.0
C898 C 0.83395 0.3345 0.88492 0.0
C899 C 0.86825 0.3312 0.87003 0.0
C900 C 0.8921 0.33863 0.86586 0.0
C901 C 0.82398 0.31578 0.87767 0.0
C902 C 0.83656 0.3043 0.86667 0.0
C903 C 0.85841 0.31238 0.86291 0.0
C904 C 0.82781 0.28365 0.85902 0.0
C905 C 0.79997 0.30875 0.8817 0.0
C906 C 0.82172 0.26384 0.86681 0.0
C907 C 0.81607 0.24364 0.85941 0.0
C908 C 0.81689 0.24278 0.84409 0.0
C909 C 0.82233 0.26281 0.83634 0.0
C910 C 0.82765 0.28302 0.84371 0.0
H911 H 0.79033 0.32317 0.88665 0.0
H912 H 0.79039 0.30247 0.87204 0.0
H913 H 0.80075 0.29475 0.88987 0.0
H914 H 0.82224 0.2637 0.87861 0.0
H915 H 0.81214 0.22845 0.86569 0.0
H916 H 0.38851 0.16245 0.66182 0.0
H917 H 0.41764 0.14111 0.64869 0.0
H918 H 0.36573 0.09632 0.6312 0.0
H919 H 0.33612 0.11861 0.64383 0.0
H920 H 0.43148 0.09913 0.65063 0.0
H921 H 0.39805 0.11265 0.59453 0.0
H922 H 0.38644 0.12745 0.6101 0.0
H923 H 0.3787 0.09817 0.60658 0.0
C924 C 0.38322 0.14808 0.65516 0.0
C925 C 0.36 0.14224 0.65383 0.0
C926 C 0.39994 0.13583 0.64766 0.0
C927 C 0.39397 0.11719 0.63879 0.0
C928 C 0.37078 0.11097 0.63765 0.0
H929 H 0.51484 0.04087 0.60599 0.0
H930 H 0.47885 0.04846 0.6189 0.0
C931 C 0.35388 0.12361 0.64495 0.0
C932 C 0.41236 0.10469 0.63087 0.0
H933 H 0.43193 0.09142 0.59681 0.0
C934 C 0.43153 0.09731 0.63885 0.0
C935 C 0.41243 0.1023 0.6155 0.0
C936 C 0.39292 0.11072 0.60614 0.0
C937 C 0.45122 0.08891 0.6319 0.0
C938 C 0.45144 0.08685 0.61652 0.0
C939 C 0.43177 0.09299 0.6086 0.0
C940 C 0.47259 0.08098 0.60827 0.0
C941 C 0.47203 0.08374 0.64109 0.0
C942 C 0.48064 0.0962 0.59761 0.0
C943 C 0.50079 0.09164 0.59002 0.0
C944 C 0.51361 0.07183 0.593 0.0
C945 C 0.50549 0.05641 0.60358 0.0
C946 C 0.48498 0.0608 0.61102 0.0
H947 H 0.47078 0.09148 0.65213 0.0
H948 H 0.47363 0.06495 0.64247 0.0
H949 H 0.48785 0.09017 0.6358 0.0
H950 H 0.47149 0.11191 0.59529 0.0
H951 H 0.50656 0.10394 0.58198 0.0
H952 H 0.69708 0.77277 0.36347 0.0
H953 H 0.68758 0.73771 0.37683 0.0
H954 H 0.66127 0.70763 0.33731 0.0
H955 H 0.67038 0.74246 0.32394 0.0
H956 H 0.63077 0.70586 0.36002 0.0
H957 H 0.71574 0.67344 0.37752 0.0
H958 H 0.71032 0.70284 0.3821 0.0
H959 H 0.71239 0.69453 0.36328 0.0
C960 C 0.68961 0.75857 0.35758 0.0
C961 C 0.68435 0.76056 0.34265 0.0
C962 C 0.6843 0.73848 0.36522 0.0
C963 C 0.67387 0.71998 0.35804 0.0
C964 C 0.66933 0.72167 0.34306 0.0
H965 H 0.61623 0.58904 0.38454 0.0
H966 H 0.63591 0.61955 0.37115 0.0
C967 C 0.67454 0.74167 0.33545 0.0
C968 C 0.66576 0.69964 0.36624 0.0
H969 H 0.68305 0.65518 0.38785 0.0
C970 C 0.64225 0.69471 0.36601 0.0
C971 C 0.68075 0.68511 0.37407 0.0
C972 C 0.70624 0.68906 0.3742 0.0
C973 C 0.63329 0.67585 0.37354 0.0
C974 C 0.64821 0.66148 0.38145 0.0
C975 C 0.67172 0.66628 0.38171 0.0
C976 C 0.63925 0.64184 0.38985 0.0
C977 C 0.60784 0.67152 0.37322 0.0
C978 C 0.63514 0.64417 0.40482 0.0
C979 C 0.62378 0.62691 0.41248 0.0
C980 C 0.61642 0.60691 0.4053 0.0
C981 C 0.62164 0.60418 0.39041 0.0
C982 C 0.63288 0.62157 0.38274 0.0
H983 H 0.59835 0.68532 0.36749 0.0
H984 H 0.60439 0.65507 0.36759 0.0
H985 H 0.60115 0.67004 0.38452 0.0
H986 H 0.63991 0.65976 0.41045 0.0
H987 H 0.62021 0.62956 0.42395 0.0
H988 H 0.12748 0.87118 0.17521 0.0
H989 H 0.09645 0.89125 0.16281 0.0
H990 H 0.1286 0.87828 0.12129 0.0
H991 H 0.16019 0.85874 0.13368 0.0
H992 H 0.10958 0.92116 0.12255 0.0
H993 H 0.04702 0.85636 0.14165 0.0
H994 H 0.06194 0.87028 0.15625 0.0
H995 H 0.07747 0.85258 0.1436 0.0
C996 C 0.12808 0.87275 0.16344 0.0
C997 C 0.14616 0.86307 0.15541 0.0
C998 C 0.11025 0.88414 0.15636 0.0
C999 C 0.10986 0.8857 0.1411 0.0
C1000 C 0.12845 0.8771 0.13308 0.0
H1001 H 0.01087 0.92074 0.07543 0.0
H1002 H 0.04538 0.91141 0.08917 0.0
C1003 C 0.1465 0.86595 0.14018 0.0
C1004 C 0.08961 0.89538 0.1335 0.0
H1005 H 0.03194 0.88851 0.12929 0.0
C1006 C 0.0926 0.91403 0.12402 0.0
C1007 C 0.06746 0.88598 0.13536 0.0
C1008 C 0.06325 0.86506 0.14465 0.0
C1009 C 0.074 0.92365 0.11648 0.0
C1010 C 0.0519 0.91428 0.11842 0.0
C1011 C 0.04888 0.8958 0.12797 0.0
C1012 C 0.03184 0.92235 0.10998 0.0
C1013 C 0.07805 0.9438 0.10653 0.0
C1014 C 0.01272 0.93159 0.11714 0.0
C1015 C 0.99287 0.93699 0.1093 0.0
C1016 C 0.99169 0.93286 0.0942 0.0
C1017 C 0.01112 0.92407 0.08705 0.0
C1018 C 0.03096 0.91888 0.09487 0.0
H1019 H 0.09456 0.95243 0.10894 0.0
H1020 H 0.07854 0.93775 0.09506 0.0
H1021 H 0.06399 0.95647 0.10752 0.0
H1022 H 0.01302 0.93421 0.12884 0.0
H1023 H 0.97823 0.94366 0.11516 0.0
H1024 H 0.68965 0.7289 0.86458 0.0
H1025 H 0.67953 0.76452 0.87716 0.0
H1026 H 0.66964 0.79787 0.83568 0.0
H1027 H 0.67907 0.76233 0.82307 0.0
H1028 H 0.69601 0.80906 0.87695 0.0
H1029 H 0.6077 0.80585 0.85478 0.0
H1030 H 0.62724 0.78209 0.85331 0.0
H1031 H 0.62943 0.80592 0.84096 0.0
C1032 C 0.68555 0.74389 0.85814 0.0
C1033 C 0.68477 0.74268 0.84283 0.0
C1034 C 0.67976 0.76423 0.86535 0.0
C1035 C 0.67327 0.78368 0.85736 0.0
C1036 C 0.67395 0.78289 0.84207 0.0
H1037 H 0.61391 0.91458 0.88327 0.0
H1038 H 0.63461 0.88487 0.86982 0.0
C1039 C 0.67943 0.76257 0.83488 0.0
C1040 C 0.66468 0.80442 0.86495 0.0
H1041 H 0.61777 0.83892 0.86811 0.0
C1042 C 0.67892 0.8156 0.87502 0.0
C1043 C 0.64232 0.81291 0.86245 0.0
C1044 C 0.62569 0.80097 0.8524 0.0
C1045 C 0.67142 0.83515 0.88259 0.0
C1046 C 0.64909 0.84356 0.88007 0.0
C1047 C 0.63498 0.83254 0.86989 0.0
C1048 C 0.6393 0.86282 0.88853 0.0
C1049 C 0.68744 0.84673 0.89316 0.0
C1050 C 0.63528 0.86033 0.90352 0.0
C1051 C 0.62334 0.87714 0.91121 0.0
C1052 C 0.61515 0.89683 0.90406 0.0
C1053 C 0.62 0.89969 0.88914 0.0
C1054 C 0.63181 0.88273 0.88142 0.0
H1055 H 0.70555 0.84192 0.89112 0.0
H1056 H 0.68581 0.86563 0.89246 0.0
H1057 H 0.68297 0.84146 0.90443 0.0
H1058 H 0.64056 0.84493 0.90916 0.0
H1059 H 0.61999 0.87438 0.9227 0.0
H1060 H 0.49161 0.42415 0.07278 0.0
H1061 H 0.45571 0.41516 0.08505 0.0
H1062 H 0.48572 0.4335 0.12641 0.0
H1063 H 0.52165 0.44311 0.11414 0.0
H1064 H 0.4502 0.38202 0.10464 0.0
H1065 H 0.42418 0.46427 0.1296 0.0
H1066 H 0.44605 0.46246 0.11574 0.0
H1067 H 0.45274 0.456 0.13446 0.0
C1068 C 0.49052 0.42662 0.08447 0.0
C1069 C 0.50958 0.43426 0.09249 0.0
C1070 C 0.46993 0.42149 0.09147 0.0
C1071 C 0.46789 0.42383 0.10664 0.0
C1072 C 0.48667 0.43205 0.11466 0.0
H1073 H 0.37778 0.36949 0.17168 0.0
H1074 H 0.40729 0.38947 0.15779 0.0
C1075 C 0.50727 0.43742 0.10763 0.0
C1076 C 0.44689 0.41557 0.11413 0.0
H1077 H 0.40508 0.43066 0.13836 0.0
C1078 C 0.44017 0.39277 0.11186 0.0
C1079 C 0.43382 0.42958 0.12358 0.0
C1080 C 0.43942 0.4545 0.12589 0.0
C1081 C 0.42118 0.38342 0.11906 0.0
C1082 C 0.40843 0.39727 0.12872 0.0
C1083 C 0.4149 0.42013 0.1309 0.0
C1084 C 0.38917 0.38771 0.13727 0.0
C1085 C 0.41531 0.35855 0.11665 0.0
C1086 C 0.36891 0.38069 0.13038 0.0
C1087 C 0.3519 0.36928 0.1383 0.0
C1088 C 0.35497 0.36458 0.15323 0.0
C1089 C 0.3749 0.37261 0.16019 0.0
C1090 C 0.39178 0.38413 0.15228 0.0
H1091 H 0.42899 0.34929 0.11067 0.0
H1092 H 0.41233 0.34983 0.12724 0.0
H1093 H 0.3993 0.35736 0.11019 0.0
H1094 H 0.36655 0.38348 0.1188 0.0
H1095 H 0.33677 0.3634 0.1326 0.0
H1096 H 0.87751 0.12355 0.42618 0.0
H1097 H 0.85636 0.15394 0.4139 0.0
H1098 H 0.86938 0.12186 0.37235 0.0
H1099 H 0.89001 0.09096 0.38462 0.0
H1100 H 0.87467 0.1833 0.39533 0.0
H1101 H 0.80327 0.13895 0.36753 0.0
H1102 H 0.82019 0.12538 0.38154 0.0
H1103 H 0.83058 0.12684 0.36308 0.0
C1104 C 0.87551 0.1227 0.41445 0.0
C1105 C 0.88553 0.10485 0.40638 0.0
C1106 C 0.86339 0.1401 0.40744 0.0
C1107 C 0.86108 0.14015 0.39221 0.0
C1108 C 0.87042 0.12196 0.38414 0.0
H1109 H 0.83189 0.24072 0.32696 0.0
H1110 H 0.84038 0.20637 0.34108 0.0
C1111 C 0.88235 0.10434 0.39117 0.0
C1112 C 0.85104 0.16039 0.38475 0.0
H1113 H 0.81159 0.17711 0.35937 0.0
C1114 C 0.86065 0.18196 0.38763 0.0
C1115 C 0.83279 0.15866 0.37465 0.0
C1116 C 0.82095 0.13624 0.37162 0.0
C1117 C 0.85302 0.20169 0.38041 0.0
C1118 C 0.83514 0.19988 0.37009 0.0
C1119 C 0.82527 0.17842 0.36732 0.0
C1120 C 0.8276 0.21993 0.36144 0.0
C1121 C 0.86472 0.2242 0.38347 0.0
C1122 C 0.81704 0.23876 0.36816 0.0
C1123 C 0.81213 0.25853 0.36011 0.0
C1124 C 0.81779 0.25981 0.34521 0.0
C1125 C 0.8275 0.24048 0.33843 0.0
C1126 C 0.83229 0.22075 0.34646 0.0
H1127 H 0.88084 0.22195 0.38973 0.0
H1128 H 0.8687 0.23327 0.37313 0.0
H1129 H 0.85311 0.23526 0.38995 0.0
H1130 H 0.81307 0.23834 0.37969 0.0
H1131 H 0.80456 0.27302 0.36566 0.0
H1132 H 0.16063 0.641 0.63406 0.0
H1133 H 0.12913 0.62098 0.62191 0.0
H1134 H 0.09705 0.60902 0.66358 0.0
H1135 H 0.12801 0.62958 0.67574 0.0
H1136 H 0.11003 0.57814 0.62359 0.0
H1137 H 0.04773 0.64365 0.64209 0.0
H1138 H 0.0782 0.64736 0.64399 0.0
H1139 H 0.06264 0.62996 0.65679 0.0
C1140 C 0.147 0.63389 0.64065 0.0
C1141 C 0.14664 0.63721 0.65585 0.0
C1142 C 0.129 0.62246 0.63369 0.0
C1143 C 0.11044 0.61403 0.6418 0.0
C1144 C 0.11084 0.61599 0.65705 0.0
H1145 H 0.97843 0.55707 0.61569 0.0
H1146 H 0.01327 0.56592 0.62946 0.0
C1147 C 0.12863 0.62765 0.664 0.0
C1148 C 0.09016 0.60424 0.63429 0.0
H1149 H 0.03259 0.6115 0.62981 0.0
C1150 C 0.09309 0.58541 0.62496 0.0
C1151 C 0.06806 0.61383 0.63602 0.0
C1152 C 0.06393 0.63494 0.64514 0.0
C1153 C 0.07448 0.57583 0.61739 0.0
C1154 C 0.05245 0.58541 0.61918 0.0
C1155 C 0.04948 0.60404 0.62861 0.0
C1156 C 0.03242 0.57746 0.61067 0.0
C1157 C 0.07846 0.55552 0.60758 0.0
C1158 C 0.03174 0.58091 0.59554 0.0
C1159 C 0.01186 0.57607 0.58767 0.0
C1160 C 0.99222 0.56765 0.59477 0.0
C1161 C 0.99324 0.56345 0.60987 0.0
C1162 C 0.01311 0.56851 0.61776 0.0
H1163 H 0.09488 0.54679 0.6101 0.0
H1164 H 0.06428 0.54297 0.60858 0.0
H1165 H 0.0791 0.5614 0.59608 0.0
H1166 H 0.04632 0.58815 0.58989 0.0
H1167 H 0.01174 0.57942 0.57605 0.0
H1168 H 0.62514 0.12527 0.57262 0.0
H1169 H 0.64546 0.15586 0.58526 0.0
H1170 H 0.63344 0.12217 0.62642 0.0
H1171 H 0.61362 0.0911 0.61379 0.0
H1172 H 0.62642 0.18415 0.60433 0.0
H1173 H 0.69926 0.14068 0.63122 0.0
H1174 H 0.68257 0.1272 0.61706 0.0
H1175 H 0.67226 0.12777 0.63556 0.0
C1176 C 0.62717 0.12412 0.58435 0.0
C1177 C 0.61767 0.10576 0.5922 0.0
C1178 C 0.63882 0.14164 0.59156 0.0
C1179 C 0.64118 0.14128 0.60679 0.0
C1180 C 0.63235 0.12261 0.61464 0.0
H1181 H 0.66974 0.24164 0.67262 0.0
H1182 H 0.66119 0.20729 0.65849 0.0
C1183 C 0.62088 0.10489 0.6074 0.0
C1184 C 0.65078 0.16151 0.61448 0.0
H1185 H 0.69034 0.17846 0.63972 0.0
C1186 C 0.64061 0.18292 0.61192 0.0
C1187 C 0.66923 0.15993 0.62443 0.0
C1188 C 0.68162 0.13769 0.62713 0.0
C1189 C 0.64795 0.20262 0.61928 0.0
C1190 C 0.6661 0.20096 0.62942 0.0
C1191 C 0.67647 0.17966 0.63191 0.0
C1192 C 0.67357 0.22102 0.63807 0.0
C1193 C 0.63574 0.22497 0.61654 0.0
C1194 C 0.68389 0.23994 0.63131 0.0
C1195 C 0.68885 0.25969 0.63936 0.0
C1196 C 0.68346 0.26086 0.65431 0.0
C1197 C 0.67393 0.24147 0.66111 0.0
C1198 C 0.66911 0.22175 0.65307 0.0
H1199 H 0.61954 0.22253 0.61039 0.0
H1200 H 0.6318 0.2337 0.627 0.0
H1201 H 0.647 0.23641 0.61008 0.0
H1202 H 0.68766 0.2396 0.61975 0.0
H1203 H 0.69627 0.27424 0.63378 0.0
H1204 H 0.16174 0.36181 0.86385 0.0
H1205 H 0.13015 0.382 0.8758 0.0
H1206 H 0.09542 0.38806 0.83448 0.0
H1207 H 0.1265 0.36745 0.82254 0.0
H1208 H 0.10961 0.42433 0.87217 0.0
H1209 H 0.04857 0.35456 0.85907 0.0
H1210 H 0.07905 0.35151 0.85672 0.0
H1211 H 0.06229 0.36648 0.84331 0.0
C1212 C 0.14747 0.36762 0.85728 0.0
C1213 C 0.14649 0.36269 0.84227 0.0
C1214 C 0.12943 0.37916 0.86413 0.0
C1215 C 0.11017 0.38604 0.85609 0.0
C1216 C 0.1098 0.38234 0.84097 0.0
H1217 H 0.97797 0.44298 0.88168 0.0
H1218 H 0.01248 0.43335 0.86775 0.0
C1219 C 0.12766 0.37062 0.83415 0.0
C1220 C 0.09005 0.39618 0.86355 0.0
H1221 H 0.033 0.38794 0.86974 0.0
C1222 C 0.09286 0.41639 0.87164 0.0
C1223 C 0.06821 0.38573 0.86291 0.0
C1224 C 0.06432 0.36326 0.85516 0.0
C1225 C 0.07433 0.42652 0.879 0.0
C1226 C 0.05255 0.41609 0.87828 0.0
C1227 C 0.0497 0.39603 0.8701 0.0
C1228 C 0.03272 0.42469 0.88671 0.0
C1229 C 0.07813 0.44833 0.88745 0.0
C1230 C 0.03278 0.42317 0.90197 0.0
C1231 C 0.0131 0.42843 0.90993 0.0
C1232 C 0.99294 0.43538 0.90278 0.0
C1233 C 0.99321 0.43777 0.88751 0.0
C1234 C 0.01289 0.43225 0.87954 0.0
H1235 H 0.09425 0.457 0.88417 0.0
H1236 H 0.06361 0.46033 0.88586 0.0
H1237 H 0.07924 0.44426 0.89925 0.0
H1238 H 0.04779 0.41704 0.90769 0.0
H1239 H 0.01353 0.42651 0.92167 0.0
H1240 H 0.87961 0.87785 0.07262 0.0
H1241 H 0.85786 0.84773 0.08476 0.0
H1242 H 0.86908 0.88067 0.12626 0.0
H1243 H 0.89023 0.91132 0.1141 0.0
H1244 H 0.87485 0.81866 0.10376 0.0
H1245 H 0.80292 0.86408 0.13023 0.0
H1246 H 0.82056 0.87736 0.11646 0.0
H1247 H 0.83011 0.876 0.13512 0.0
C1248 C 0.87711 0.87892 0.0843 0.0
C1249 C 0.88672 0.89696 0.0924 0.0
C1250 C 0.86464 0.86169 0.09123 0.0
C1251 C 0.8616 0.86199 0.10642 0.0
C1252 C 0.87065 0.88031 0.1145 0.0
H1253 H 0.8304 0.76265 0.17194 0.0
H1254 H 0.83893 0.7969 0.15774 0.0
C1255 C 0.88288 0.89777 0.10753 0.0
C1256 C 0.85111 0.84197 0.11387 0.0
H1257 H 0.81076 0.82605 0.1389 0.0
C1258 C 0.8606 0.82027 0.11126 0.0
C1259 C 0.83256 0.84403 0.12372 0.0
C1260 C 0.8208 0.8666 0.12644 0.0
C1261 C 0.85258 0.80075 0.11854 0.0
C1262 C 0.83442 0.8029 0.12862 0.0
C1263 C 0.82465 0.82448 0.13112 0.0
C1264 C 0.82652 0.78307 0.13735 0.0
C1265 C 0.86417 0.77807 0.11578 0.0
C1266 C 0.81606 0.76417 0.13066 0.0
C1267 C 0.81114 0.74445 0.13875 0.0
C1268 C 0.81666 0.74332 0.15368 0.0
C1269 C 0.82612 0.76278 0.16045 0.0
C1270 C 0.83093 0.78245 0.15237 0.0
H1271 H 0.88047 0.78007 0.10968 0.0
H1272 H 0.86779 0.76918 0.12623 0.0
H1273 H 0.85264 0.76699 0.10926 0.0
H1274 H 0.81229 0.76444 0.11909 0.0
H1275 H 0.80375 0.72986 0.1332 0.0
H1276 H 0.51419 0.54237 0.39168 0.0
H1277 H 0.47829 0.55015 0.37871 0.0
H1278 H 0.47065 0.61315 0.40275 0.0
H1279 H 0.50562 0.60502 0.4161 0.0
H1280 H 0.43117 0.59251 0.40104 0.0
H1281 H 0.47016 0.59381 0.34577 0.0
H1282 H 0.47313 0.56711 0.35523 0.0
H1283 H 0.48719 0.59228 0.36212 0.0
C1284 C 0.5048 0.55786 0.39418 0.0
C1285 C 0.51282 0.5731 0.40489 0.0
C1286 C 0.48435 0.56235 0.3867 0.0
C1287 C 0.47189 0.58246 0.38955 0.0
C1288 C 0.47984 0.59751 0.40034 0.0
H1289 H 0.38658 0.66404 0.33652 0.0
H1290 H 0.41617 0.64285 0.34936 0.0
C1291 C 0.49994 0.59284 0.40797 0.0
C1292 C 0.45075 0.5884 0.38132 0.0
H1293 H 0.43077 0.60109 0.34727 0.0
C1294 C 0.43103 0.59427 0.38926 0.0
C1295 C 0.45056 0.59074 0.36595 0.0
C1296 C 0.47142 0.58586 0.35675 0.0
C1297 C 0.41162 0.60353 0.3824 0.0
C1298 C 0.41155 0.60614 0.36704 0.0
C1299 C 0.43081 0.5991 0.35903 0.0
C1300 C 0.39294 0.61843 0.35918 0.0
C1301 C 0.39204 0.61165 0.3918 0.0
C1302 C 0.36987 0.61181 0.36033 0.0
C1303 C 0.35271 0.62433 0.3532 0.0
C1304 C 0.35844 0.64326 0.34447 0.0
C1305 C 0.38157 0.64945 0.34307 0.0
C1306 C 0.39856 0.63729 0.35041 0.0
H1307 H 0.39718 0.61357 0.40341 0.0
H1308 H 0.38534 0.62833 0.3879 0.0
H1309 H 0.37797 0.59893 0.39134 0.0
H1310 H 0.3651 0.59697 0.3667 0.0
H1311 H 0.33505 0.61904 0.35436 0.0
H1312 H 0.36879 0.08389 0.10461 0.0
H1313 H 0.34565 0.11333 0.11672 0.0
H1314 H 0.38577 0.16588 0.09579 0.0
H1315 H 0.40804 0.13683 0.08325 0.0
H1316 H 0.35605 0.14384 0.13572 0.0
H1317 H 0.32429 0.1909 0.08794 0.0
H1318 H 0.33808 0.16342 0.08623 0.0
H1319 H 0.35482 0.18936 0.08688 0.0
C1320 C 0.37243 0.10175 0.10247 0.0
C1321 C 0.39009 0.10801 0.09284 0.0
C1322 C 0.35919 0.11856 0.10938 0.0
C1323 C 0.36349 0.14191 0.10688 0.0
C1324 C 0.3814 0.14808 0.09746 0.0
H1325 H 0.35349 0.25355 0.16462 0.0
H1326 H 0.36052 0.21811 0.15154 0.0
C1327 C 0.39431 0.13137 0.09038 0.0
C1328 C 0.35063 0.15999 0.11486 0.0
H1329 H 0.32748 0.21316 0.1104 0.0
C1330 C 0.34939 0.15878 0.13014 0.0
C1331 C 0.34117 0.17926 0.10766 0.0
C1332 C 0.33942 0.18064 0.09127 0.0
C1333 C 0.34058 0.17697 0.13841 0.0
C1334 C 0.33369 0.19734 0.13127 0.0
C1335 C 0.33328 0.19784 0.11596 0.0
C1336 C 0.32871 0.2188 0.13942 0.0
C1337 C 0.33896 0.17412 0.15474 0.0
C1338 C 0.30895 0.23177 0.13653 0.0
C1339 C 0.30514 0.25256 0.14377 0.0
C1340 C 0.32097 0.26065 0.15412 0.0
C1341 C 0.34074 0.24766 0.15691 0.0
C1342 C 0.34469 0.22719 0.14952 0.0
H1343 H 0.33578 0.15596 0.15768 0.0
H1344 H 0.35545 0.17918 0.15979 0.0
H1345 H 0.32508 0.18477 0.15945 0.0
H1346 H 0.29647 0.22581 0.12866 0.0
H1347 H 0.28976 0.26218 0.14137 0.0
H1348 H 0.51238 0.57904 0.92261 0.0
H1349 H 0.54616 0.58857 0.90819 0.0
H1350 H 0.51133 0.5673 0.86903 0.0
H1351 H 0.47724 0.55772 0.88339 0.0
H1352 H 0.5735 0.56147 0.88737 0.0
H1353 H 0.52887 0.63627 0.86279 0.0
H1354 H 0.51846 0.62211 0.87898 0.0
H1355 H 0.51462 0.60908 0.86143 0.0
C1356 C 0.51189 0.57618 0.91095 0.0
C1357 C 0.49194 0.56787 0.90414 0.0
C1358 C 0.53128 0.58155 0.90274 0.0
C1359 C 0.53112 0.57889 0.88755 0.0
C1360 C 0.51167 0.56968 0.88075 0.0
H1361 H 0.62468 0.63416 0.82291 0.0
H1362 H 0.59408 0.61321 0.83511 0.0
C1363 C 0.49225 0.56415 0.88898 0.0
C1364 C 0.55081 0.5872 0.87885 0.0
H1365 H 0.5669 0.62994 0.85569 0.0
C1366 C 0.5721 0.57634 0.88035 0.0
C1367 C 0.54888 0.60665 0.86978 0.0
C1368 C 0.52656 0.61939 0.86816 0.0
C1369 C 0.59155 0.58437 0.87291 0.0
C1370 C 0.58971 0.60412 0.86403 0.0
C1371 C 0.56831 0.61477 0.86245 0.0
C1372 C 0.60969 0.6145 0.85649 0.0
C1373 C 0.61375 0.57146 0.87448 0.0
C1374 C 0.62888 0.62198 0.8644 0.0
C1375 C 0.64659 0.63382 0.85741 0.0
C1376 C 0.64524 0.63877 0.84241 0.0
C1377 C 0.62624 0.63079 0.83448 0.0
C1378 C 0.60871 0.61877 0.84144 0.0
H1379 H 0.61075 0.55337 0.87767 0.0
H1380 H 0.62373 0.57174 0.86418 0.0
H1381 H 0.62418 0.57957 0.88317 0.0
H1382 H 0.6298 0.61942 0.87608 0.0
H1383 H 0.66088 0.63987 0.86387 0.0
H1384 H 0.16761 0.75982 0.67307 0.0
H1385 H 0.15816 0.79443 0.65942 0.0
H1386 H 0.1857 0.76428 0.62028 0.0
H1387 H 0.19523 0.72943 0.63382 0.0
H1388 H 0.18727 0.8245 0.64092 0.0
H1389 H 0.11694 0.78026 0.61122 0.0
H1390 H 0.12925 0.76894 0.62778 0.0
H1391 H 0.14455 0.7667 0.61087 0.0
C1392 C 0.17182 0.76052 0.66158 0.0
C1393 C 0.18197 0.74168 0.65452 0.0
C1394 C 0.16648 0.78039 0.65382 0.0
C1395 C 0.17102 0.78179 0.63884 0.0
C1396 C 0.18187 0.76341 0.63183 0.0
H1397 H 0.12179 0.87804 0.57401 0.0
H1398 H 0.14199 0.84726 0.58657 0.0
C1399 C 0.18735 0.74353 0.6396 0.0
C1400 C 0.1632 0.80199 0.63046 0.0
H1401 H 0.1234 0.81886 0.60548 0.0
C1402 C 0.17338 0.82333 0.6331 0.0
C1403 C 0.14508 0.80033 0.62032 0.0
C1404 C 0.13313 0.7779 0.61739 0.0
C1405 C 0.16601 0.84312 0.62574 0.0
C1406 C 0.14758 0.84154 0.61576 0.0
C1407 C 0.13757 0.82009 0.61308 0.0
C1408 C 0.13792 0.86179 0.60812 0.0
C1409 C 0.17828 0.86538 0.62857 0.0
C1410 C 0.12922 0.88048 0.61601 0.0
C1411 C 0.11789 0.89832 0.60882 0.0
C1412 C 0.11462 0.89754 0.59362 0.0
C1413 C 0.12388 0.87911 0.58573 0.0
C1414 C 0.13545 0.86149 0.59289 0.0
H1415 H 0.19596 0.86243 0.6326 0.0
H1416 H 0.17913 0.87606 0.61857 0.0
H1417 H 0.16892 0.8751 0.63709 0.0
H1418 H 0.13037 0.88087 0.6278 0.0
H1419 H 0.11078 0.91216 0.61523 0.0
H1420 H 0.99221 0.41943 0.42241 0.0
H1421 H 0.958 0.41011 0.40836 0.0
H1422 H 0.99031 0.43532 0.36928 0.0
H1423 H 0.02482 0.44473 0.38325 0.0
H1424 H 0.92918 0.43865 0.389 0.0
H1425 H 0.97349 0.36657 0.36109 0.0
H1426 H 0.98448 0.37946 0.37756 0.0
H1427 H 0.98732 0.39404 0.36043 0.0
C1428 C 0.99207 0.42317 0.41084 0.0
C1429 C 0.01142 0.43261 0.40394 0.0
C1430 C 0.97242 0.41791 0.40285 0.0
C1431 C 0.97174 0.42181 0.38778 0.0
C1432 C 0.99062 0.432 0.3809 0.0
H1433 H 0.87606 0.36958 0.32342 0.0
H1434 H 0.90678 0.39042 0.33559 0.0
C1435 C 0.01029 0.43741 0.38891 0.0
C1436 C 0.95173 0.41391 0.37923 0.0
H1437 H 0.93502 0.37286 0.35504 0.0
C1438 C 0.93041 0.42436 0.38149 0.0
C1439 C 0.95345 0.39525 0.3695 0.0
C1440 C 0.97584 0.38299 0.36701 0.0
C1441 C 0.9107 0.41669 0.37417 0.0
C1442 C 0.91232 0.39768 0.36464 0.0
C1443 C 0.93376 0.38745 0.3623 0.0
C1444 C 0.8921 0.38762 0.35718 0.0
C1445 C 0.88845 0.4292 0.37658 0.0
C1446 C 0.87334 0.3794 0.36522 0.0
C1447 C 0.85553 0.36767 0.35824 0.0
C1448 C 0.85641 0.36354 0.34314 0.0
C1449 C 0.87491 0.37233 0.33509 0.0
C1450 C 0.8925 0.38427 0.34202 0.0
H1451 H 0.89143 0.4471 0.38019 0.0
H1452 H 0.87791 0.4295 0.36651 0.0
H1453 H 0.87859 0.4204 0.38526 0.0
H1454 H 0.87287 0.38124 0.37697 0.0
H1455 H 0.84164 0.36096 0.36478 0.0
H1456 H 0.32765 0.76368 0.32741 0.0
H1457 H 0.33583 0.79765 0.34195 0.0
H1458 H 0.31192 0.76306 0.38057 0.0
H1459 H 0.30376 0.72874 0.36611 0.0
H1460 H 0.30787 0.82535 0.36156 0.0
H1461 H 0.37987 0.78037 0.38911 0.0
H1462 H 0.36677 0.76958 0.37267 0.0
H1463 H 0.3524 0.76657 0.38986 0.0
C1464 C 0.32391 0.76327 0.33897 0.0
C1465 C 0.31533 0.74331 0.34562 0.0
C1466 C 0.32851 0.78279 0.34725 0.0
C1467 C 0.32476 0.78275 0.36234 0.0
C1468 C 0.31518 0.76331 0.36894 0.0
H1469 H 0.37825 0.87746 0.42704 0.0
H1470 H 0.35641 0.84723 0.41508 0.0
C1471 C 0.31046 0.74374 0.36065 0.0
C1472 C 0.33248 0.80251 0.3712 0.0
H1473 H 0.37356 0.81865 0.39554 0.0
C1474 C 0.32211 0.82392 0.3691 0.0
C1475 C 0.3511 0.80055 0.38096 0.0
C1476 C 0.36337 0.77811 0.38327 0.0
C1477 C 0.32988 0.84347 0.37653 0.0
C1478 C 0.34888 0.84161 0.38604 0.0
C1479 C 0.35896 0.82008 0.3883 0.0
C1480 C 0.35929 0.86171 0.39344 0.0
C1481 C 0.31755 0.86585 0.37422 0.0
C1482 C 0.36785 0.88021 0.38531 0.0
C1483 C 0.38019 0.89771 0.39216 0.0
C1484 C 0.38457 0.8968 0.40723 0.0
C1485 C 0.37534 0.87863 0.4154 0.0
C1486 C 0.36281 0.86132 0.40858 0.0
H1487 H 0.2996 0.86304 0.37066 0.0
H1488 H 0.31745 0.87634 0.38431 0.0
H1489 H 0.32637 0.87567 0.36552 0.0
H1490 H 0.36588 0.88065 0.37357 0.0
H1491 H 0.3872 0.91135 0.38553 0.0
H1492 H 0.01226 0.54066 0.10556 0.0
H1493 H 0.97559 0.54769 0.11787 0.0
H1494 H 0.97082 0.6134 0.09664 0.0
H1495 H 0.00654 0.60608 0.08393 0.0
H1496 H 0.9627 0.57779 0.13669 0.0
H1497 H 0.90844 0.5908 0.08842 0.0
H1498 H 0.93704 0.57942 0.087 0.0
H1499 H 0.93228 0.60994 0.0874 0.0
C1500 C 0.00323 0.5565 0.10345 0.0
C1501 C 0.01216 0.57268 0.09364 0.0
C1502 C 0.98226 0.56048 0.11046 0.0
C1503 C 0.97 0.5808 0.10786 0.0
C1504 C 0.97933 0.59718 0.09838 0.0
H1505 H 0.88712 0.6586 0.16424 0.0
H1506 H 0.9162 0.63652 0.15161 0.0
C1507 C 0.99996 0.59305 0.09121 0.0
C1508 C 0.94824 0.58582 0.11567 0.0
H1509 H 0.89557 0.60984 0.11065 0.0
C1510 C 0.94786 0.58437 0.13096 0.0
C1511 C 0.92845 0.5937 0.10827 0.0
C1512 C 0.9265 0.59327 0.09186 0.0
C1513 C 0.92901 0.59219 0.13904 0.0
C1514 C 0.91041 0.60262 0.13168 0.0
C1515 C 0.91002 0.60242 0.11637 0.0
C1516 C 0.89225 0.61544 0.13961 0.0
C1517 C 0.92942 0.58935 0.15539 0.0
C1518 C 0.86893 0.61177 0.13662 0.0
C1519 C 0.8521 0.62489 0.14362 0.0
C1520 C 0.85831 0.64181 0.15379 0.0
C1521 C 0.88166 0.64545 0.15667 0.0
C1522 C 0.89838 0.63264 0.14954 0.0
H1523 H 0.93917 0.5738 0.15855 0.0
H1524 H 0.93819 0.60427 0.16038 0.0
H1525 H 0.91189 0.58807 0.15999 0.0
H1526 H 0.86374 0.59879 0.12887 0.0
H1527 H 0.83427 0.6217 0.14113 0.0
H1528 H 0.19062 0.27354 0.86525 0.0
H1529 H 0.18041 0.23831 0.87814 0.0
H1530 H 0.17124 0.20379 0.83696 0.0
H1531 H 0.18071 0.23904 0.82405 0.0
H1532 H 0.13513 0.19814 0.85385 0.0
H1533 H 0.21258 0.17901 0.88641 0.0
H1534 H 0.20201 0.20741 0.88951 0.0
H1535 H 0.21261 0.19963 0.87175 0.0
C1536 C 0.18685 0.25832 0.85895 0.0
C1537 C 0.18633 0.25914 0.84363 0.0
C1538 C 0.18114 0.23813 0.86634 0.0
C1539 C 0.17528 0.21827 0.85853 0.0
C1540 C 0.1757 0.21886 0.84323 0.0
H1541 H 0.11642 0.08652 0.88436 0.0
H1542 H 0.13707 0.11649 0.87113 0.0
C1543 C 0.18109 0.23905 0.83586 0.0
C1544 C 0.16652 0.1976 0.86616 0.0
H1545 H 0.17834 0.15901 0.89316 0.0
C1546 C 0.14474 0.18943 0.86231 0.0
C1547 C 0.17901 0.18624 0.87725 0.0
C1548 C 0.20294 0.19338 0.88138 0.0
C1549 C 0.13486 0.17065 0.86945 0.0
C1550 C 0.14714 0.1596 0.8807 0.0
C1551 C 0.169 0.16754 0.8845 0.0
C1552 C 0.13691 0.1405 0.88908 0.0
C1553 C 0.11104 0.16319 0.86522 0.0
C1554 C 0.13064 0.14385 0.90368 0.0
C1555 C 0.11881 0.12683 0.91126 0.0
C1556 C 0.11313 0.10602 0.90442 0.0
C1557 C 0.12039 0.10234 0.88997 0.0
C1558 C 0.13215 0.11946 0.88236 0.0
H1559 H 0.10236 0.17598 0.85817 0.0
H1560 H 0.11204 0.14681 0.85914 0.0
H1561 H 0.1004 0.16028 0.87508 0.0
H1562 H 0.13422 0.15997 0.90905 0.0
H1563 H 0.11368 0.13024 0.9224 0.0
H1564 H 0.47634 0.44358 0.61631 0.0
H1565 H 0.51062 0.43465 0.63066 0.0
H1566 H 0.54748 0.41923 0.59114 0.0
H1567 H 0.51351 0.42808 0.57675 0.0
H1568 H 0.53169 0.39037 0.62947 0.0
H1569 H 0.59298 0.45908 0.61469 0.0
H1570 H 0.56243 0.46198 0.61226 0.0
H1571 H 0.57903 0.44566 0.59946 0.0
C1572 C 0.49187 0.43873 0.61066 0.0
C1573 C 0.49213 0.43641 0.59538 0.0
C1574 C 0.51142 0.43361 0.61887 0.0
C1575 C 0.53164 0.4265 0.61194 0.0
C1576 C 0.53219 0.42505 0.59669 0.0
H1577 H 0.66003 0.36322 0.63521 0.0
H1578 H 0.62861 0.38371 0.62327 0.0
C1579 C 0.51266 0.42995 0.58849 0.0
C1580 C 0.55137 0.41819 0.62061 0.0
H1581 H 0.60848 0.4263 0.62665 0.0
C1582 C 0.54842 0.39839 0.62903 0.0
C1583 C 0.57321 0.42851 0.61981 0.0
C1584 C 0.57716 0.4501 0.61117 0.0
C1585 C 0.56686 0.38819 0.63635 0.0
C1586 C 0.58878 0.39848 0.63557 0.0
C1587 C 0.59168 0.41848 0.62727 0.0
C1588 C 0.60889 0.38831 0.64304 0.0
C1589 C 0.56285 0.36597 0.64435 0.0
C1590 C 0.60863 0.38485 0.65818 0.0
C1591 C 0.62638 0.37295 0.66499 0.0
C1592 C 0.64499 0.3646 0.65684 0.0
C1593 C 0.64592 0.36936 0.64181 0.0
C1594 C 0.62798 0.38106 0.63496 0.0
H1595 H 0.54698 0.35731 0.6406 0.0
H1596 H 0.57745 0.35404 0.64285 0.0
H1597 H 0.56098 0.36951 0.65618 0.0
H1598 H 0.59439 0.39085 0.66469 0.0
H1599 H 0.62529 0.36993 0.67663 0.0
H1600 H 0.2424 0.28703 0.19012 0.0
H1601 H 0.23402 0.26635 0.21271 0.0
H1602 H 0.29788 0.28952 0.23107 0.0
H1603 H 0.30626 0.31049 0.20859 0.0
H1604 H 0.25959 0.23164 0.22619 0.0
H1605 H 0.25083 0.30757 0.26221 0.0
H1606 H 0.25053 0.30967 0.24257 0.0
H1607 H 0.27714 0.30626 0.25213 0.0
C1608 C 0.25462 0.28779 0.19898 0.0
C1609 C 0.27492 0.30049 0.19763 0.0
C1610 C 0.24982 0.27595 0.21187 0.0
C1611 C 0.26516 0.27671 0.22363 0.0
C1612 C 0.28559 0.28911 0.22223 0.0
H1613 H 0.26379 0.21458 0.30996 0.0
H1614 H 0.27413 0.23539 0.2877 0.0
C1615 C 0.29041 0.30097 0.20935 0.0
C1616 C 0.25993 0.26413 0.23724 0.0
H1617 H 0.24997 0.27125 0.27366 0.0
C1618 C 0.25743 0.24029 0.23657 0.0
C1619 C 0.2572 0.27549 0.25076 0.0
C1620 C 0.25886 0.30118 0.25201 0.0
C1621 C 0.25245 0.22742 0.24909 0.0
C1622 C 0.24955 0.23879 0.26258 0.0
C1623 C 0.25224 0.26261 0.26329 0.0
C1624 C 0.24327 0.22628 0.27604 0.0
C1625 C 0.25068 0.20174 0.24783 0.0
C1626 C 0.22235 0.2146 0.2769 0.0
C1627 C 0.21642 0.20272 0.28956 0.0
C1628 C 0.23126 0.20243 0.30162 0.0
C1629 C 0.25206 0.21443 0.30082 0.0
C1630 C 0.25798 0.22633 0.28813 0.0
H1631 H 0.25913 0.1953 0.23778 0.0
H1632 H 0.25851 0.1932 0.25742 0.0
H1633 H 0.23237 0.19679 0.24735 0.0
H1634 H 0.21056 0.21475 0.26778 0.0
H1635 H 0.20021 0.19376 0.28988 0.0
H1636 H 0.03795 0.01294 0.55993 0.0
H1637 H 0.01662 0.02225 0.53771 0.0
H1638 H 0.0402 0.95976 0.51774 0.0
H1639 H 0.06176 0.95043 0.53984 0.0
H1640 H 0.04468 0.99877 0.49989 0.0
H1641 H 0.95733 0.99177 0.52334 0.0
H1642 H 0.97631 0.01041 0.53315 0.0
H1643 H 0.98228 0.98028 0.53234 0.0
C1644 C 0.03853 1.00116 0.55082 0.0
C1645 C 0.05147 0.98093 0.55162 0.0
C1646 C 0.02625 0.00644 0.53817 0.0
C1647 C 0.0266 0.99153 0.52617 0.0
C1648 C 0.03964 0.97142 0.52692 0.0
H1649 H 0.96699 0.99203 0.43927 0.0
H1650 H 0.98855 0.98302 0.46144 0.0
C1651 C 0.05191 0.96612 0.53955 0.0
C1652 C 0.01385 0.99714 0.51269 0.0
H1653 H 0.96016 0.00645 0.4993 0.0
C1654 C 0.02619 1.00037 0.49972 0.0
C1655 C 0.98975 0.99923 0.51255 0.0
C1656 C 0.97556 0.99506 0.52605 0.0
C1657 C 0.01509 0.00602 0.48663 0.0
C1658 C 0.99099 0.00809 0.48649 0.0
C1659 C 0.97865 0.00487 0.49946 0.0
C1660 C 0.9782 0.0136 0.473 0.0
C1661 C 0.02929 0.0102 0.47315 0.0
C1662 C 0.96489 0.03353 0.47227 0.0
C1663 C 0.95246 0.03865 0.45967 0.0
C1664 C 0.95303 0.02383 0.4476 0.0
C1665 C 0.9663 0.00382 0.44837 0.0
C1666 C 0.97873 0.99872 0.46099 0.0
H1667 H 0.04748 0.01368 0.47588 0.0
H1668 H 0.02873 0.99476 0.46611 0.0
H1669 H 0.02247 0.02485 0.46678 0.0
H1670 H 0.96418 0.04518 0.48145 0.0
H1671 H 0.94236 0.05417 0.45941 0.0
H1672 H 0.2414 0.73222 0.68538 0.0
H1673 H 0.25025 0.75338 0.70773 0.0
H1674 H 0.23086 0.69451 0.73341 0.0
H1675 H 0.22009 0.67425 0.7111 0.0
H1676 H 0.2159 0.72849 0.74625 0.0
H1677 H 0.30488 0.75077 0.73201 0.0
H1678 H 0.28559 0.76259 0.71886 0.0
H1679 H 0.28796 0.73194 0.72083 0.0
C1680 C 0.23914 0.72389 0.69584 0.0
C1681 C 0.23028 0.70164 0.69662 0.0
C1682 C 0.24441 0.73587 0.70861 0.0
C1683 C 0.24193 0.72539 0.72233 0.0
C1684 C 0.23304 0.70304 0.72301 0.0
H1685 H 0.30707 0.78391 0.79916 0.0
H1686 H 0.2972 0.76145 0.77757 0.0
C1687 C 0.22696 0.69142 0.71028 0.0
C1688 C 0.24779 0.73782 0.73602 0.0
H1689 H 0.28857 0.77113 0.75208 0.0
C1690 C 0.23196 0.73755 0.74757 0.0
C1691 C 0.26888 0.74937 0.73797 0.0
C1692 C 0.28786 0.74845 0.72681 0.0
C1693 C 0.23654 0.74844 0.76089 0.0
C1694 C 0.25694 0.76134 0.76245 0.0
C1695 C 0.27279 0.76154 0.75092 0.0
C1696 C 0.26249 0.77437 0.77597 0.0
C1697 C 0.21975 0.74517 0.77323 0.0
C1698 C 0.24641 0.7892 0.78237 0.0
C1699 C 0.25177 0.80119 0.79512 0.0
C1700 C 0.27367 0.79951 0.80124 0.0
C1701 C 0.29004 0.78541 0.79462 0.0
C1702 C 0.2844 0.77267 0.78224 0.0
H1703 H 0.21027 0.72879 0.77209 0.0
H1704 H 0.22842 0.74521 0.784 0.0
H1705 H 0.20694 0.75917 0.77299 0.0
H1706 H 0.22976 0.79171 0.77748 0.0
H1707 H 0.23901 0.81231 0.79995 0.0
H1708 H 0.46522 0.99096 0.05988 0.0
H1709 H 0.48706 0.98108 0.03796 0.0
H1710 H 0.46447 0.04341 0.01731 0.0
H1711 H 0.44289 0.05355 0.03921 0.0
H1712 H 0.47069 0.97487 0.00953 0.0
H1713 H 0.53388 0.04563 0.01189 0.0
H1714 H 0.51613 0.03793 0.02724 0.0
H1715 H 0.50463 0.05492 0.01263 0.0
C1716 C 0.46501 0.00261 0.05069 0.0
C1717 C 0.45243 0.02307 0.05127 0.0
C1718 C 0.47747 0.99693 0.03819 0.0
C1719 C 0.47764 0.01168 0.02611 0.0
C1720 C 0.46495 0.03203 0.02663 0.0
H1721 H 0.536 0.00933 0.93946 0.0
H1722 H 0.51495 0.01811 0.96185 0.0
C1723 C 0.45253 0.03773 0.03912 0.0
C1724 C 0.49053 0.00548 0.01279 0.0
H1725 H 0.53304 0.0237 0.99006 0.0
C1726 C 0.48443 0.98543 0.00531 0.0
C1727 C 0.50841 0.01935 0.00732 0.0
C1728 C 0.51634 0.04055 0.01524 0.0
C1729 C 0.4954 0.97915 0.99229 0.0
C1730 C 0.51316 0.99312 0.98678 0.0
C1731 C 0.51935 0.01308 0.99431 0.0
C1732 C 0.52553 0.9874 0.97317 0.0
C1733 C 0.48751 0.95795 0.98436 0.0
C1734 C 0.53856 0.96731 0.97218 0.0
C1735 C 0.55058 0.96223 0.95941 0.0
C1736 C 0.54987 0.97726 0.94745 0.0
C1737 C 0.53685 0.99741 0.94849 0.0
C1738 C 0.52484 0.00246 0.96126 0.0
H1739 H 0.47026 0.9524 0.98801 0.0
H1740 H 0.48706 0.96087 0.97239 0.0
H1741 H 0.49967 0.9438 0.98657 0.0
H1742 H 0.53966 0.95568 0.98136 0.0
H1743 H 0.56055 0.94663 0.95895 0.0
H1744 H 0.24048 0.71451 0.30935 0.0
H1745 H 0.23094 0.7356 0.28704 0.0
H1746 H 0.29494 0.71471 0.26781 0.0
H1747 H 0.3045 0.69346 0.28995 0.0
H1748 H 0.25595 0.77145 0.2735 0.0
H1749 H 0.2471 0.69603 0.2371 0.0
H1750 H 0.24708 0.69367 0.25674 0.0
H1751 H 0.27356 0.69723 0.24704 0.0
C1752 C 0.25247 0.71436 0.30034 0.0
C1753 C 0.27317 0.70223 0.30135 0.0
C1754 C 0.24702 0.72642 0.28764 0.0
C1755 C 0.26209 0.7264 0.27572 0.0
C1756 C 0.28288 0.71455 0.27678 0.0
H1757 H 0.26243 0.78855 0.18976 0.0
H1758 H 0.27171 0.76768 0.21218 0.0
C1759 C 0.28836 0.70253 0.28947 0.0
C1760 C 0.25631 0.73913 0.26226 0.0
H1761 H 0.24672 0.73252 0.22577 0.0
C1762 C 0.2538 0.76296 0.26307 0.0
C1763 C 0.25361 0.72796 0.24868 0.0
C1764 C 0.25527 0.70229 0.24729 0.0
C1765 C 0.24907 0.77602 0.25058 0.0
C1766 C 0.24638 0.76485 0.237 0.0
C1767 C 0.24886 0.74101 0.2362 0.0
C1768 C 0.24078 0.77759 0.2235 0.0
C1769 C 0.2475 0.8017 0.25198 0.0
C1770 C 0.2202 0.78979 0.2224 0.0
C1771 C 0.21489 0.80173 0.20965 0.0
C1772 C 0.23001 0.80154 0.19773 0.0
C1773 C 0.2505 0.78908 0.19879 0.0
C1774 C 0.2558 0.77714 0.21156 0.0
H1775 H 0.25577 0.80793 0.26214 0.0
H1776 H 0.25563 0.81031 0.2425 0.0
H1777 H 0.22923 0.80681 0.2523 0.0
H1778 H 0.20815 0.78995 0.23138 0.0
H1779 H 0.1989 0.81106 0.20913 0.0
H1780 H 0.4431 0.94878 0.45915 0.0
H1781 H 0.46483 0.95884 0.48104 0.0
H1782 H 0.48942 0.01992 0.45983 0.0
H1783 H 0.46754 0.01011 0.43792 0.0
H1784 H 0.51234 0.96619 0.484 0.0
H1785 H 0.46223 0.04377 0.49834 0.0
H1786 H 0.45209 0.02272 0.48547 0.0
H1787 H 0.47324 0.04335 0.48005 0.0
C1788 C 0.4531 0.96438 0.45915 0.0
C1789 C 0.45351 0.97875 0.44687 0.0
C1790 C 0.46551 0.97007 0.47165 0.0
C1791 C 0.47843 0.99028 0.47211 0.0
C1792 C 0.47919 0.00447 0.45978 0.0
H1793 H 0.56329 0.05384 0.53835 0.0
H1794 H 0.54252 0.04403 0.51602 0.0
C1795 C 0.46678 0.99879 0.44726 0.0
C1796 C 0.4913 0.99632 0.48546 0.0
H1797 H 0.49549 0.0365 0.51235 0.0
C1798 C 0.50864 0.98152 0.49024 0.0
C1799 C 0.4864 0.01635 0.49353 0.0
C1800 C 0.46735 0.0324 0.4892 0.0
C1801 C 0.52148 0.98638 0.50279 0.0
C1802 C 0.51653 0.00637 0.5109 0.0
C1803 C 0.49923 0.02121 0.50609 0.0
C1804 C 0.52905 0.01217 0.52443 0.0
C1805 C 0.54053 0.97032 0.50712 0.0
C1806 C 0.52807 0.99765 0.5366 0.0
C1807 C 0.53993 0.00319 0.54935 0.0
C1808 C 0.55285 0.02342 0.55016 0.0
C1809 C 0.55354 0.0381 0.53803 0.0
C1810 C 0.54168 0.03254 0.52528 0.0
H1811 H 0.54594 0.95929 0.49787 0.0
H1812 H 0.55564 0.97996 0.51114 0.0
H1813 H 0.53447 0.95903 0.51605 0.0
H1814 H 0.51802 0.98209 0.53626 0.0
H1815 H 0.53896 0.99163 0.55857 0.0
H1816 H 0.26436 0.28801 0.81015 0.0
H1817 H 0.27469 0.26711 0.78792 0.0
H1818 H 0.21143 0.28824 0.76782 0.0
H1819 H 0.20113 0.30936 0.78986 0.0
H1820 H 0.25082 0.2315 0.77395 0.0
H1821 H 0.25979 0.3071 0.73777 0.0
H1822 H 0.25896 0.30942 0.7574 0.0
H1823 H 0.23293 0.30567 0.74723 0.0
C1824 C 0.25271 0.28826 0.80097 0.0
C1825 C 0.23201 0.30044 0.8017 0.0
C1826 C 0.25862 0.27631 0.7883 0.0
C1827 C 0.244 0.27647 0.77616 0.0
C1828 C 0.22318 0.28832 0.77696 0.0
H1829 H 0.24366 0.2143 0.69047 0.0
H1830 H 0.23474 0.23515 0.71294 0.0
C1831 C 0.21727 0.30028 0.78959 0.0
C1832 C 0.25024 0.26385 0.76274 0.0
H1833 H 0.26008 0.27065 0.72629 0.0
C1834 C 0.25301 0.24004 0.76354 0.0
C1835 C 0.25303 0.27509 0.74919 0.0
C1836 C 0.25124 0.30075 0.74781 0.0
C1837 C 0.25797 0.22706 0.75106 0.0
C1838 C 0.26059 0.23829 0.73749 0.0
C1839 C 0.25797 0.26211 0.73671 0.0
C1840 C 0.26606 0.22562 0.72396 0.0
C1841 C 0.25982 0.2014 0.75242 0.0
C1842 C 0.28675 0.21363 0.72267 0.0
C1843 C 0.29187 0.20171 0.70987 0.0
C1844 C 0.27643 0.20169 0.69812 0.0
C1845 C 0.25585 0.21394 0.69936 0.0
C1846 C 0.25074 0.22587 0.71217 0.0
H1847 H 0.25187 0.19505 0.76266 0.0
H1848 H 0.25153 0.19275 0.74302 0.0
H1849 H 0.27815 0.19646 0.75253 0.0
H1850 H 0.299 0.21361 0.73153 0.0
H1851 H 0.30793 0.19254 0.7092 0.0
H1852 H 0.06135 0.05278 0.95891 0.0
H1853 H 0.0406 0.04298 0.98124 0.0
H1854 H 0.01588 0.98116 0.96097 0.0
H1855 H 0.03685 0.99067 0.93866 0.0
H1856 H 0.99377 0.03581 0.98502 0.0
H1857 H 0.04346 0.95799 -0.00073 0.0
H1858 H 0.05326 0.97852 0.98595 0.0
H1859 H 0.03174 0.95787 0.98117 0.0
C1860 C 0.05156 0.03705 0.95923 0.0
C1861 C 0.05083 0.02241 0.94708 0.0
C1862 C 0.03971 0.0315 0.97198 0.0
C1863 C 0.02702 0.01118 0.97283 0.0
C1864 C 0.02599 0.99668 0.96064 0.0
H1865 H 0.9421 0.94873 0.03924 0.0
H1866 H 0.96324 0.95837 0.01704 0.0
C1867 C 0.03786 0.0022 0.94789 0.0
C1868 C 0.01448 0.00544 0.98638 0.0
H1869 H 0.01026 0.96542 0.01338 0.0
C1870 C 0.99743 0.02048 0.99127 0.0
C1871 C 0.0193 0.98541 0.99447 0.0
C1872 C 0.03807 0.96909 0.99005 0.0
C1873 C 0.98475 0.01584 0.00393 0.0
C1874 C 0.98957 0.99581 0.01202 0.0
C1875 C 0.00662 0.98076 0.00713 0.0
C1876 C 0.97697 0.99006 0.02555 0.0
C1877 C 0.96597 0.03214 0.00834 0.0
C1878 C 0.97797 0.00452 0.03775 0.0
C1879 C 0.96587 0.99909 0.05043 0.0
C1880 C 0.95269 0.97901 0.05115 0.0
C1881 C 0.95204 0.96436 0.039 0.0
C1882 C 0.96412 0.96983 0.02632 0.0
H1883 H 0.96064 0.04331 0.99914 0.0
H1884 H 0.95075 0.0227 0.01238 0.0
H1885 H 0.97225 0.0433 0.01728 0.0
H1886 H 0.98818 0.01998 0.03747 0.0
H1887 H 0.96683 0.01061 0.05966 0.0
H1888 H 0.74292 0.78761 0.69018 0.0
H1889 H 0.7339 0.76641 0.7125 0.0
H1890 H 0.79684 0.78983 0.73198 0.0
H1891 H 0.80587 0.81126 0.70979 0.0
H1892 H 0.75971 0.73165 0.72618 0.0
H1893 H 0.74813 0.80691 0.76244 0.0
H1894 H 0.74841 0.80924 0.7428 0.0
H1895 H 0.77478 0.80628 0.7527 0.0
C1896 C 0.7548 0.78831 0.69924 0.0
C1897 C 0.77503 0.8012 0.69828 0.0
C1898 C 0.74963 0.77618 0.71196 0.0
C1899 C 0.76454 0.77685 0.72395 0.0
C1900 C 0.7849 0.78947 0.72295 0.0
H1901 H 0.76229 0.71428 0.80997 0.0
H1902 H 0.77253 0.73536 0.7878 0.0
C1903 C 0.79008 0.80159 0.71024 0.0
C1904 C 0.75897 0.76399 0.7374 0.0
H1905 H 0.74775 0.77043 0.77371 0.0
C1906 C 0.75702 0.7401 0.73657 0.0
C1907 C 0.75555 0.77511 0.75092 0.0
C1908 C 0.75661 0.80081 0.75232 0.0
C1909 C 0.75199 0.72697 0.74897 0.0
C1910 C 0.74845 0.7381 0.76248 0.0
C1911 C 0.75052 0.76198 0.76333 0.0
C1912 C 0.74226 0.72528 0.77584 0.0
C1913 C 0.75092 0.70127 0.74757 0.0
C1914 C 0.72171 0.71293 0.77649 0.0
C1915 C 0.71583 0.70089 0.7891 0.0
C1916 C 0.73036 0.70111 0.80132 0.0
C1917 C 0.7508 0.71373 0.80071 0.0
C1918 C 0.75666 0.72578 0.78808 0.0
H1919 H 0.75978 0.69517 0.73758 0.0
H1920 H 0.75873 0.69281 0.7572 0.0
H1921 H 0.73275 0.69585 0.74689 0.0
H1922 H 0.71013 0.71272 0.76726 0.0
H1923 H 0.69989 0.69144 0.78928 0.0
H1924 H 0.76132 0.21378 0.18997 0.0
H1925 H 0.77079 0.2347 0.21233 0.0
H1926 H 0.7076 0.21211 0.23188 0.0
H1927 H 0.69815 0.19095 0.20968 0.0
H1928 H 0.74583 0.26972 0.22615 0.0
H1929 H 0.75586 0.1941 0.26226 0.0
H1930 H 0.75542 0.19186 0.24262 0.0
H1931 H 0.72916 0.19518 0.2526 0.0
C1932 C 0.74949 0.21321 0.19906 0.0
C1933 C 0.72906 0.20062 0.19812 0.0
C1934 C 0.75491 0.22518 0.2118 0.0
C1935 C 0.74006 0.22464 0.22382 0.0
C1936 C 0.71951 0.21235 0.22284 0.0
H1937 H 0.74068 0.28699 0.30978 0.0
H1938 H 0.73113 0.26591 0.28749 0.0
C1939 C 0.71409 0.20037 0.21011 0.0
C1940 C 0.74584 0.23731 0.23731 0.0
H1941 H 0.75614 0.23051 0.27371 0.0
C1942 C 0.7482 0.26116 0.23654 0.0
C1943 C 0.74885 0.22606 0.25084 0.0
C1944 C 0.7474 0.20037 0.25217 0.0
C1945 C 0.75313 0.27416 0.24903 0.0
C1946 C 0.75614 0.26291 0.26255 0.0
C1947 C 0.75376 0.23906 0.26332 0.0
C1948 C 0.762 0.27559 0.27602 0.0
C1949 C 0.75462 0.29985 0.24769 0.0
C1950 C 0.78266 0.28769 0.27699 0.0
C1951 C 0.78814 0.29972 0.28968 0.0
C1952 C 0.7731 0.29976 0.30164 0.0
C1953 C 0.75256 0.28734 0.30072 0.0
C1954 C 0.74709 0.27529 0.28801 0.0
H1955 H 0.74623 0.30613 0.23758 0.0
H1956 H 0.74655 0.30836 0.25722 0.0
H1957 H 0.77287 0.30501 0.24732 0.0
H1958 H 0.7946 0.28774 0.26796 0.0
H1959 H 0.80416 0.30901 0.2901 0.0
H1960 H 0.7408 0.21535 0.80928 0.0
H1961 H 0.73163 0.23638 0.78694 0.0
H1962 H 0.79458 0.21311 0.76741 0.0
H1963 H 0.80402 0.19226 0.78977 0.0
H1964 H 0.78632 0.26003 0.76369 0.0
H1965 H 0.7105 0.20818 0.74824 0.0
H1966 H 0.70949 0.2196 0.76642 0.0
H1967 H 0.73095 0.19883 0.76174 0.0
C1968 C 0.75266 0.21468 0.80022 0.0
C1969 C 0.77306 0.20206 0.80123 0.0
C1970 C 0.74734 0.22659 0.78744 0.0
C1971 C 0.76225 0.22597 0.77545 0.0
C1972 C 0.78279 0.21367 0.77652 0.0
H1973 H 0.76139 0.28776 0.68892 0.0
H1974 H 0.7713 0.26631 0.71098 0.0
C1975 C 0.78813 0.20176 0.78929 0.0
C1976 C 0.75663 0.23844 0.76186 0.0
H1977 H 0.71722 0.2419 0.73447 0.0
C1978 C 0.77129 0.25602 0.75725 0.0
C1979 C 0.73699 0.23312 0.75351 0.0
C1980 C 0.72116 0.21378 0.75762 0.0
C1981 C 0.76658 0.26878 0.74463 0.0
C1982 C 0.74689 0.26352 0.73631 0.0
C1983 C 0.73228 0.24588 0.7409 0.0
C1984 C 0.74095 0.27632 0.7229 0.0
C1985 C 0.78239 0.28814 0.74051 0.0
C1986 C 0.72035 0.28856 0.72218 0.0
C1987 C 0.71459 0.3007 0.70958 0.0
C1988 C 0.72929 0.30071 0.69745 0.0
C1989 C 0.74979 0.28819 0.69813 0.0
C1990 C 0.75554 0.27603 0.71074 0.0
H1991 H 0.79332 0.29351 0.74982 0.0
H1992 H 0.79379 0.28245 0.73154 0.0
H1993 H 0.77255 0.30319 0.73662 0.0
H1994 H 0.70881 0.28888 0.73142 0.0
H1995 H 0.69864 0.31013 0.70937 0.0
H1996 H 0.76225 0.78832 0.30883 0.0
H1997 H 0.77204 0.76697 0.28668 0.0
H1998 H 0.70913 0.7892 0.26659 0.0
H1999 H 0.69936 0.81075 0.28857 0.0
H2000 H 0.74722 0.73168 0.27288 0.0
H2001 H 0.75796 0.80678 0.23644 0.0
H2002 H 0.75727 0.80927 0.25606 0.0
H2003 H 0.73112 0.80598 0.24596 0.0
C2004 C 0.75056 0.78872 0.29967 0.0
C2005 C 0.73011 0.80132 0.30039 0.0
C2006 C 0.75615 0.77651 0.28705 0.0
C2007 C 0.74148 0.77682 0.27493 0.0
C2008 C 0.72091 0.78913 0.27571 0.0
H2009 H 0.74145 0.71389 0.18934 0.0
H2010 H 0.73221 0.73488 0.21171 0.0
C2011 C 0.71531 0.80133 0.28831 0.0
C2012 C 0.74743 0.76394 0.26156 0.0
H2013 H 0.75787 0.77023 0.22514 0.0
C2014 C 0.74968 0.74009 0.26245 0.0
C2015 C 0.75059 0.775 0.24798 0.0
C2016 C 0.74933 0.80069 0.24652 0.0
C2017 C 0.75456 0.7269 0.25004 0.0
C2018 C 0.75761 0.73796 0.23646 0.0
C2019 C 0.75544 0.76182 0.23557 0.0
C2020 C 0.76319 0.72509 0.22302 0.0
C2021 C 0.7559 0.70123 0.25149 0.0
C2022 C 0.78378 0.71289 0.22194 0.0
C2023 C 0.78909 0.70091 0.2092 0.0
C2024 C 0.77394 0.70102 0.19729 0.0
C2025 C 0.75342 0.71343 0.19835 0.0
C2026 C 0.74813 0.72543 0.2111 0.0
H2027 H 0.74767 0.69511 0.2617 0.0
H2028 H 0.7476 0.69266 0.24206 0.0
H2029 H 0.77413 0.69594 0.25175 0.0
H2030 H 0.79583 0.71278 0.23091 0.0
H2031 H 0.8051 0.69161 0.20867 0.0
H2032 H 0.56353 0.44805 0.03965 0.0
H2033 H 0.54309 0.45739 0.01712 0.0
H2034 H 0.51853 0.51988 0.03662 0.0
H2035 H 0.53915 0.51082 0.05912 0.0
H2036 H 0.49617 0.46477 0.01319 0.0
H2037 H 0.54646 0.54177 0.99809 0.0
H2038 H 0.55611 0.52149 0.01161 0.0
H2039 H 0.5349 0.54254 0.01623 0.0
C2040 C 0.55386 0.46384 0.03912 0.0
C2041 C 0.55305 0.47879 0.05111 0.0
C2042 C 0.54219 0.46912 0.02625 0.0
C2043 C 0.52961 0.48949 0.02513 0.0
C2044 C 0.52855 0.50431 0.03715 0.0
H2045 H 0.44375 0.55266 0.95995 0.0
H2046 H 0.46567 0.54242 0.98171 0.0
C2047 C 0.54023 0.49905 0.05002 0.0
C2048 C 0.51712 0.49494 0.01151 0.0
H2049 H 0.51266 0.53474 0.98441 0.0
C2050 C 0.49985 0.47998 0.00682 0.0
C2051 C 0.52199 0.51481 0.00327 0.0
C2052 C 0.54101 0.53099 0.00745 0.0
C2053 C 0.48689 0.48464 0.99428 0.0
C2054 C 0.49165 0.5046 0.9861 0.0
C2055 C 0.50905 0.51947 0.99073 0.0
C2056 C 0.4785 0.51061 0.97283 0.0
C2057 C 0.46782 0.46851 0.99012 0.0
C2058 C 0.4787 0.49625 0.96056 0.0
C2059 C 0.46614 0.50203 0.94812 0.0
C2060 C 0.4533 0.52235 0.94772 0.0
C2061 C 0.45341 0.53685 0.95995 0.0
C2062 C 0.46594 0.53105 0.97238 0.0
H2063 H 0.46277 0.4573 -0.00063 0.0
H2064 H 0.45252 0.4781 0.98637 0.0
H2065 H 0.47365 0.45739 0.98105 0.0
H2066 H 0.48866 0.48063 0.96059 0.0
H2067 H 0.4665 0.49061 0.93882 0.0
H2068 H 0.03576 0.51107 0.43851 0.0
H2069 H 0.0142 0.52085 0.46055 0.0
H2070 H 0.03798 0.45903 0.48128 0.0
H2071 H 0.05936 0.44899 0.45924 0.0
H2072 H 0.99083 0.46691 0.48456 0.0
H2073 H 0.04176 0.54388 0.49905 0.0
H2074 H 0.03043 0.54389 0.48083 0.0
H2075 H 0.05151 0.52299 0.48594 0.0
C2076 C 0.03641 0.49958 0.44777 0.0
C2077 C 0.04935 0.47933 0.44719 0.0
C2078 C 0.02419 0.50525 0.46037 0.0
C2079 C 0.02481 0.49084 0.47261 0.0
C2080 C 0.0374 0.47044 0.47197 0.0
H2081 H 0.96491 0.49142 0.55931 0.0
H2082 H 0.98562 0.48204 0.5369 0.0
C2083 C 0.04961 0.46475 0.45938 0.0
C2084 C 0.01213 0.49685 0.48606 0.0
H2085 H 0.0086 0.53673 0.51317 0.0
C2086 C 0.99473 0.48213 0.49085 0.0
C2087 C 0.01728 0.51675 0.4942 0.0
C2088 C 0.03639 0.53272 0.48985 0.0
C2089 C 0.98209 0.48693 0.5035 0.0
C2090 C 0.98731 0.50677 0.51169 0.0
C2091 C 0.00465 0.52154 0.50686 0.0
C2092 C 0.97498 0.51251 0.52532 0.0
C2093 C 0.96296 0.47097 0.50783 0.0
C2094 C 0.96268 0.53305 0.52638 0.0
C2095 C 0.95098 0.53853 0.5392 0.0
C2096 C 0.95147 0.52359 0.55121 0.0
C2097 C 0.96409 0.50319 0.5502 0.0
C2098 C 0.97581 0.49774 0.53738 0.0
H2099 H 0.95728 0.46018 0.49853 0.0
H2100 H 0.96907 0.45942 0.51661 0.0
H2101 H 0.94801 0.48065 0.51203 0.0
H2102 H 0.96197 0.54474 0.51722 0.0
H2103 H 0.94147 0.55441 0.53967 0.0
H2104 H 0.03769 0.49296 0.05798 0.0
H2105 H 0.01706 0.48415 0.03544 0.0
H2106 H 0.0399 0.54786 0.01671 0.0
H2107 H 0.06085 0.55666 0.03915 0.0
H2108 H 0.98228 0.50907 0.02175 0.0
H2109 H 0.05845 0.50055 0.98591 0.0
H2110 H 0.06048 0.50067 0.00556 0.0
H2111 H 0.0568 0.52705 0.99577 0.0
C2112 C 0.03837 0.50507 0.04905 0.0
C2113 C 0.051 0.52543 0.05028 0.0
C2114 C 0.02657 0.50002 0.0362 0.0
C2115 C 0.02727 0.51518 0.02435 0.0
C2116 C 0.03955 0.53571 0.02563 0.0
H2117 H 0.96562 0.51267 0.93805 0.0
H2118 H 0.98643 0.52299 0.9603 0.0
C2119 C 0.0514 0.54076 0.03847 0.0
C2120 C 0.01481 0.50962 0.01074 0.0
H2121 H 0.02219 0.49917 0.9744 0.0
C2122 C 0.99099 0.50684 0.0114 0.0
C2123 C 0.02625 0.50679 0.99727 0.0
C2124 C 0.05193 0.50871 0.99604 0.0
C2125 C 0.97823 0.50152 0.99889 0.0
C2126 C 0.98969 0.49855 0.98543 0.0
C2127 C 0.01349 0.50148 0.98475 0.0
C2128 C 0.97728 0.49215 0.97197 0.0
C2129 C 0.95257 0.49951 0.00012 0.0
C2130 C 0.96561 0.47122 0.97111 0.0
C2131 C 0.95371 0.46529 0.95844 0.0
C2132 C 0.95342 0.48015 0.94639 0.0
C2133 C 0.96547 0.50092 0.94719 0.0
C2134 C 0.97737 0.50683 0.95986 0.0
H2135 H 0.946 0.50798 0.01014 0.0
H2136 H 0.94398 0.50718 0.99049 0.0
H2137 H 0.94779 0.48116 0.00065 0.0
H2138 H 0.96574 0.45944 0.98023 0.0
H2139 H 0.94471 0.44911 0.95812 0.0
H2140 H 0.56234 0.55505 0.45967 0.0
H2141 H 0.54147 0.54532 0.48198 0.0
H2142 H 0.51671 0.48352 0.4617 0.0
H2143 H 0.53775 0.49297 0.43942 0.0
H2144 H 0.49427 0.53783 0.48564 0.0
H2145 H 0.54476 0.4606 0.50006 0.0
H2146 H 0.55446 0.48131 0.48682 0.0
H2147 H 0.53327 0.46042 0.48189 0.0
C2148 C 0.55251 0.53935 0.45998 0.0
C2149 C 0.55179 0.52468 0.44784 0.0
C2150 C 0.54059 0.53384 0.47272 0.0
C2151 C 0.52786 0.51353 0.47355 0.0
C2152 C 0.52683 0.49903 0.46137 0.0
H2153 H 0.44323 0.44916 0.53912 0.0
H2154 H 0.46465 0.45954 0.51718 0.0
C2155 C 0.53875 0.50452 0.44863 0.0
C2156 C 0.51535 0.50772 0.48709 0.0
H2157 H 0.51127 0.46755 0.51399 0.0
C2158 C 0.49804 0.52254 0.4919 0.0
C2159 C 0.52033 0.48774 0.49519 0.0
C2160 C 0.53935 0.47168 0.49083 0.0
C2161 C 0.4852 0.51765 0.50446 0.0
C2162 C 0.49015 0.49764 0.51254 0.0
C2163 C 0.50752 0.48287 0.50776 0.0
C2164 C 0.47729 0.49152 0.5259 0.0
C2165 C 0.46609 0.53365 0.50875 0.0
C2166 C 0.47758 0.50593 0.53815 0.0
C2167 C 0.4653 0.50008 0.55069 0.0
C2168 C 0.45268 0.47963 0.55122 0.0
C2169 C 0.45273 0.46507 0.53903 0.0
C2170 C 0.46497 0.47095 0.52649 0.0
H2171 H 0.46075 0.54475 0.49952 0.0
H2172 H 0.45094 0.52396 0.51266 0.0
H2173 H 0.47203 0.54488 0.51774 0.0
H2174 H 0.48739 0.52164 0.53803 0.0
H2175 H 0.4657 0.51156 0.55996 0.0
H2176 H 0.2518 0.14399 0.37399 0.0
H2177 H 0.27971 0.11619 0.38338 0.0
H2178 H 0.2807 0.08227 0.34166 0.0
H2179 H 0.25283 0.1097 0.33221 0.0
H2180 H 0.2732 0.05925 0.37797 0.0
H2181 H 0.35084 0.10435 0.35747 0.0
H2182 H 0.32561 0.11993 0.36307 0.0
H2183 H 0.32519 0.1037 0.34651 0.0
C2184 C 0.25787 0.13054 0.36685 0.0
C2185 C 0.25006 0.12903 0.35237 0.0
C2186 C 0.27381 0.11474 0.37221 0.0
C2187 C 0.28228 0.09735 0.36315 0.0
C2188 C 0.27439 0.09567 0.34877 0.0
H2189 H 0.39153 0.99672 0.37389 0.0
H2190 H 0.36338 0.02377 0.36393 0.0
C2191 C 0.25841 0.11132 0.34343 0.0
C2192 C 0.29924 0.08071 0.36866 0.0
H2193 H 0.35646 0.0691 0.3694 0.0
C2194 C 0.29142 0.06137 0.37617 0.0
C2195 C 0.32288 0.08345 0.36603 0.0
C2196 C 0.33184 0.10396 0.35785 0.0
C2197 C 0.30671 0.04458 0.38116 0.0
C2198 C 0.33051 0.04755 0.37887 0.0
C2199 C 0.33826 0.06684 0.37119 0.0
C2200 C 0.34762 0.03117 0.38478 0.0
C2201 C 0.29712 0.0236 0.38856 0.0
C2202 C 0.34838 0.02666 0.39979 0.0
C2203 C 0.36417 0.0111 0.40543 0.0
C2204 C 0.37989 0.99999 0.39623 0.0
C2205 C 0.37955 0.00491 0.38123 0.0
C2206 C 0.36351 0.02038 0.37554 0.0
H2207 H 0.27907 0.02048 0.38534 0.0
H2208 H 0.30733 0.00813 0.38592 0.0
H2209 H 0.29747 0.02617 0.40055 0.0
H2210 H 0.3368 0.03527 0.4072 0.0
H2211 H 0.36418 0.00799 0.41708 0.0
H2212 H 0.10552 0.00639 0.62375 0.0
H2213 H 0.13334 0.03382 0.63364 0.0
H2214 H 0.17395 0.02736 0.59459 0.0
H2215 H 0.14654 0.99995 0.58475 0.0
H2216 H 0.19963 0.02494 0.62016 0.0
H2217 H 0.14204 0.10059 0.62005 0.0
H2218 H 0.13135 0.07596 0.62961 0.0
H2219 H 0.13544 0.07465 0.61021 0.0
C2220 C 0.12043 0.01077 0.61732 0.0
C2221 C 0.12379 1.00103 0.60346 0.0
C2222 C 0.13621 0.02656 0.62292 0.0
C2223 C 0.15554 0.03287 0.61475 0.0
C2224 C 0.1591 0.02282 0.60105 0.0
H2225 H 0.24865 0.14792 0.62653 0.0
H2226 H 0.22085 0.12013 0.61707 0.0
C2227 C 0.14339 0.00714 0.59545 0.0
C2228 C 0.17237 0.04969 0.6204 0.0
H2229 H 0.17891 0.1057 0.63026 0.0
C2230 C 0.1951 0.04259 0.62239 0.0
C2231 C 0.16649 0.07279 0.62309 0.0
C2232 C 0.14256 0.08161 0.62053 0.0
C2233 C 0.21206 0.05788 0.62713 0.0
C2234 C 0.20608 0.08085 0.63014 0.0
C2235 C 0.18341 0.08805 0.62801 0.0
C2236 C 0.22309 0.09754 0.63572 0.0
C2237 C 0.23633 0.04942 0.62865 0.0
C2238 C 0.23344 0.09409 0.64934 0.0
C2239 C 0.24929 0.10984 0.65473 0.0
C2240 C 0.25506 0.12946 0.64664 0.0
C2241 C 0.24468 0.13291 0.63298 0.0
C2242 C 0.22874 0.11712 0.62759 0.0
H2243 H 0.23918 0.03333 0.62246 0.0
H2244 H 0.24871 0.06249 0.62477 0.0
H2245 H 0.23996 0.04594 0.64032 0.0
H2246 H 0.22906 0.0793 0.65589 0.0
H2247 H 0.25684 0.10673 0.66533 0.0
H2248 H 0.25536 0.89647 0.83281 0.0
H2249 H 0.22775 0.92419 0.84218 0.0
H2250 H 0.21898 0.88351 0.88101 0.0
H2251 H 0.24664 0.85552 0.87167 0.0
H2252 H 0.17707 0.89826 0.86713 0.0
H2253 H 0.23797 0.96983 0.87619 0.0
H2254 H 0.2392 0.95705 0.85837 0.0
H2255 H 0.24719 0.94053 0.87409 0.0
C2256 C 0.24771 0.89346 0.8434 0.0
C2257 C 0.25328 0.87383 0.85154 0.0
C2258 C 0.23197 0.90937 0.84875 0.0
C2259 C 0.22149 0.90601 0.86234 0.0
C2260 C 0.22696 0.88644 0.8705 0.0
H2261 H 0.145 0.00279 0.91384 0.0
H2262 H 0.17234 0.97548 0.90382 0.0
C2263 C 0.24282 0.87053 0.86519 0.0
C2264 C 0.20453 0.92277 0.86786 0.0
H2265 H 0.19854 0.9784 0.87854 0.0
C2266 C 0.18173 0.91578 0.86966 0.0
C2267 C 0.21071 0.94555 0.87121 0.0
C2268 C 0.23513 0.95373 0.87 0.0
C2269 C 0.16487 0.93107 0.87462 0.0
C2270 C 0.17099 0.95399 0.8777 0.0
C2271 C 0.19384 0.96089 0.87601 0.0
C2272 C 0.15423 0.9708 0.88346 0.0
C2273 C 0.14079 0.92245 0.87683 0.0
C2274 C 0.13509 0.97754 0.87524 0.0
C2275 C 0.11934 0.99325 0.88096 0.0
C2276 C 0.12255 0.0025 0.89497 0.0
C2277 C 0.14197 0.99599 0.90302 0.0
C2278 C 0.15764 0.98036 0.89732 0.0
H2279 H 0.14004 0.90346 0.87707 0.0
H2280 H 0.13348 0.92916 0.88716 0.0
H2281 H 0.12988 0.9285 0.8677 0.0
H2282 H 0.13235 0.97067 0.86441 0.0
H2283 H 0.10459 0.99797 0.87448 0.0
H2284 H 0.24668 0.89688 0.16301 0.0
H2285 H 0.27361 0.9244 0.15272 0.0
H2286 H 0.28332 0.88088 0.11527 0.0
H2287 H 0.25627 0.85302 0.12555 0.0
H2288 H 0.32491 0.89779 0.12874 0.0
H2289 H 0.26244 0.96702 0.11727 0.0
H2290 H 0.26109 0.95564 0.13546 0.0
H2291 H 0.25393 0.93768 0.12023 0.0
C2292 C 0.25438 0.89317 0.15252 0.0
C2293 C 0.24925 0.87279 0.14505 0.0
C2294 C 0.26973 0.90898 0.14665 0.0
C2295 C 0.28027 0.90479 0.13318 0.0
C2296 C 0.27526 0.88446 0.12567 0.0
H2297 H 0.35687 0.00318 0.0821 0.0
H2298 H 0.32962 0.97503 0.0913 0.0
C2299 C 0.25976 0.86862 0.13151 0.0
C2300 C 0.29687 0.92151 0.12719 0.0
H2301 H 0.30179 0.97685 0.11569 0.0
C2302 C 0.31989 0.91504 0.1258 0.0
C2303 C 0.2902 0.94394 0.12329 0.0
C2304 C 0.26554 0.95151 0.12399 0.0
C2305 C 0.33652 0.93059 0.12086 0.0
C2306 C 0.32995 0.95326 0.11739 0.0
C2307 C 0.30684 0.95956 0.11852 0.0
C2308 C 0.34661 0.97052 0.11207 0.0
C2309 C 0.3609 0.92255 0.1192 0.0
C2310 C 0.36504 0.97766 0.12079 0.0
C2311 C 0.38071 0.99384 0.11555 0.0
C2312 C 0.37813 0.0032 0.10152 0.0
C2313 C 0.35939 0.99631 0.09295 0.0
C2314 C 0.34378 0.9802 0.09819 0.0
H2315 H 0.36206 0.90358 0.1189 0.0
H2316 H 0.36868 0.92952 0.10908 0.0
H2317 H 0.37112 0.92869 0.12861 0.0
H2318 H 0.36728 0.97075 0.13166 0.0
H2319 H 0.39493 0.99883 0.12242 0.0
H2320 H 0.74761 0.85408 0.62639 0.0
H2321 H 0.72012 0.88176 0.61642 0.0
H2322 H 0.72772 0.9235 0.65489 0.0
H2323 H 0.75513 0.89618 0.66485 0.0
H2324 H 0.67779 0.89713 0.6295 0.0
H2325 H 0.73931 0.96817 0.62066 0.0
H2326 H 0.74831 0.93889 0.62323 0.0
H2327 H 0.74 0.95596 0.63864 0.0
C2328 C 0.74355 0.86925 0.63266 0.0
C2329 C 0.75365 0.873 0.64637 0.0
C2330 C 0.72779 0.88498 0.62698 0.0
C2331 C 0.72209 0.90478 0.63486 0.0
C2332 C 0.73215 0.90852 0.64854 0.0
H2333 H 0.60627 0.99759 0.62244 0.0
H2334 H 0.63363 0.9697 0.63231 0.0
C2335 C 0.74778 0.89282 0.65422 0.0
C2336 C 0.70539 0.92149 0.62898 0.0
H2337 H 0.6999 0.97719 0.61834 0.0
C2338 C 0.68259 0.91462 0.62699 0.0
C2339 C 0.71178 0.94423 0.62565 0.0
C2340 C 0.73621 0.95228 0.62702 0.0
C2341 C 0.66591 0.93003 0.62195 0.0
C2342 C 0.67219 0.95294 0.61899 0.0
C2343 C 0.69507 0.95969 0.62079 0.0
C2344 C 0.6556 0.96996 0.6133 0.0
C2345 C 0.6418 0.92158 0.61959 0.0
C2346 C 0.6592 0.97977 0.59954 0.0
C2347 C 0.64377 0.99573 0.59395 0.0
C2348 C 0.62442 0.00234 0.60203 0.0
C2349 C 0.621 0.99282 0.61595 0.0
C2350 C 0.6365 0.97676 0.62155 0.0
H2351 H 0.64096 0.9026 0.61923 0.0
H2352 H 0.63083 0.92754 0.6287 0.0
H2353 H 0.63464 0.92849 0.60927 0.0
H2354 H 0.67387 0.97485 0.59303 0.0
H2355 H 0.64695 0.00273 0.5832 0.0
H2356 H 0.89859 0.99678 0.37583 0.0
H2357 H 0.87073 0.96953 0.36575 0.0
H2358 H 0.82998 0.97558 0.40475 0.0
H2359 H 0.85747 0.00271 0.41483 0.0
H2360 H 0.85559 0.92659 0.37843 0.0
H2361 H 0.78449 0.9885 0.37109 0.0
H2362 H 0.81386 0.99736 0.37343 0.0
H2363 H 0.79719 0.98865 0.38893 0.0
C2364 C 0.88361 0.99241 0.3822 0.0
C2365 C 0.88018 0.00201 0.39609 0.0
C2366 C 0.86777 0.97679 0.37646 0.0
C2367 C 0.84818 0.97075 0.38445 0.0
C2368 C 0.84479 0.98027 0.39831 0.0
H2369 H 0.75495 0.85538 0.3722 0.0
H2370 H 0.78307 0.88268 0.38187 0.0
C2371 C 0.86059 0.99575 0.40407 0.0
C2372 C 0.8313 0.95426 0.37849 0.0
H2373 H 0.77528 0.94917 0.36844 0.0
C2374 C 0.83805 0.93151 0.37617 0.0
C2375 C 0.80848 0.96078 0.37549 0.0
C2376 C 0.80054 0.98519 0.37722 0.0
C2377 C 0.82244 0.91498 0.37115 0.0
C2378 C 0.79945 0.92138 0.36853 0.0
C2379 C 0.79284 0.94423 0.37062 0.0
C2380 C 0.78217 0.90491 0.36299 0.0
C2381 C 0.83075 0.89092 0.36845 0.0
C2382 C 0.77189 0.90869 0.34939 0.0
C2383 C 0.75579 0.89327 0.34391 0.0
C2384 C 0.7495 0.87377 0.35196 0.0
C2385 C 0.75945 0.87023 0.36574 0.0
C2386 C 0.77565 0.8857 0.37122 0.0
H2387 H 0.84971 0.89005 0.36781 0.0
H2388 H 0.8251 0.87977 0.37756 0.0
H2389 H 0.82344 0.88398 0.35818 0.0
H2390 H 0.77657 0.92345 0.34289 0.0
H2391 H 0.74846 0.89655 0.33326 0.0
H2392 H 0.74832 0.10587 0.16486 0.0
H2393 H 0.77632 0.07896 0.15513 0.0
H2394 H 0.78321 0.12022 0.11639 0.0
H2395 H 0.75518 0.14752 0.12615 0.0
H2396 H 0.77474 0.0537 0.12929 0.0
H2397 H 0.84979 0.11206 0.13069 0.0
H2398 H 0.82355 0.11813 0.14034 0.0
H2399 H 0.82528 0.12275 0.12101 0.0
C2400 C 0.75573 0.10926 0.15425 0.0
C2401 C 0.74956 0.12889 0.14629 0.0
C2402 C 0.77175 0.09384 0.14872 0.0
C2403 C 0.78209 0.09774 0.13515 0.0
C2404 C 0.77572 0.1171 0.12702 0.0
H2405 H 0.85736 0.99954 0.08345 0.0
H2406 H 0.82986 0.02686 0.09332 0.0
C2407 C 0.75959 0.13258 0.13255 0.0
C2408 C 0.79922 0.08121 0.12954 0.0
H2409 H 0.85546 0.07556 0.12 0.0
C2410 C 0.79239 0.05848 0.12725 0.0
C2411 C 0.82231 0.08742 0.12711 0.0
C2412 C 0.83082 0.11136 0.13002 0.0
C2413 C 0.80793 0.04184 0.1224 0.0
C2414 C 0.83087 0.04816 0.11961 0.0
C2415 C 0.83783 0.07081 0.1221 0.0
C2416 C 0.84771 0.03156 0.11376 0.0
C2417 C 0.79975 0.01754 0.12048 0.0
C2418 C 0.8671 0.02538 0.12191 0.0
C2419 C 0.88293 0.00968 0.11629 0.0
C2420 C 0.8797 1.00011 0.10237 0.0
C2421 C 0.86031 0.00648 0.09424 0.0
C2422 C 0.84451 0.02206 0.09987 0.0
H2423 H 0.78356 0.01432 0.12648 0.0
H2424 H 0.79657 0.01427 0.10873 0.0
H2425 H 0.81287 0.00517 0.1243 0.0
H2426 H 0.8699 0.03262 0.13264 0.0
H2427 H 0.89777 0.00522 0.12277 0.0
H2428 H 0.60266 0.00601 0.8756 0.0
H2429 H 0.63032 0.03358 0.86567 0.0
H2430 H 0.67193 0.02609 0.9042 0.0
H2431 H 0.64464 0.99861 0.91412 0.0
H2432 H 0.6456 0.07595 0.87873 0.0
H2433 H 0.71675 0.01453 0.87007 0.0
H2434 H 0.68747 0.0055 0.87258 0.0
H2435 H 0.70448 0.01379 0.88803 0.0
C2436 C 0.61779 0.01013 0.88189 0.0
C2437 C 0.62152 1.00003 0.8956 0.0
C2438 C 0.63351 0.02593 0.87623 0.0
C2439 C 0.65328 0.03166 0.88414 0.0
C2440 C 0.65698 0.02163 0.89782 0.0
H2441 H 0.74595 0.14762 0.87292 0.0
H2442 H 0.71784 0.12007 0.88229 0.0
C2443 C 0.6413 0.00597 0.90349 0.0
C2444 C 0.67 0.04838 0.87828 0.0
H2445 H 0.72584 0.05399 0.86798 0.0
C2446 C 0.66313 0.07117 0.8763 0.0
C2447 C 0.69278 0.04203 0.87505 0.0
C2448 C 0.70084 0.0176 0.8764 0.0
C2449 C 0.6786 0.08791 0.87139 0.0
C2450 C 0.70157 0.08167 0.86857 0.0
C2451 C 0.7083 0.05879 0.87032 0.0
C2452 C 0.71871 0.09837 0.86316 0.0
C2453 C 0.67016 0.11202 0.86905 0.0
C2454 C 0.72895 0.09498 0.84951 0.0
C2455 C 0.74505 0.11052 0.8442 0.0
C2456 C 0.75137 0.12978 0.85247 0.0
C2457 C 0.74141 0.13298 0.86629 0.0
C2458 C 0.72523 0.11736 0.8716 0.0
H2459 H 0.65119 0.1128 0.86846 0.0
H2460 H 0.6758 0.12289 0.87829 0.0
H2461 H 0.67735 0.11934 0.85886 0.0
H2462 H 0.72427 0.08039 0.84286 0.0
H2463 H 0.75239 0.10752 0.83353 0.0
H2464 H 0.74578 0.60509 0.83545 0.0
H2465 H 0.77306 0.57774 0.84554 0.0
H2466 H 0.78275 0.62106 0.88309 0.0
H2467 H 0.75534 0.64874 0.87301 0.0
H2468 H 0.82436 0.60487 0.8692 0.0
H2469 H 0.76306 0.53469 0.88096 0.0
H2470 H 0.76119 0.54623 0.86283 0.0
H2471 H 0.7541 0.56394 0.8782 0.0
C2472 C 0.75354 0.60877 0.84592 0.0
C2473 C 0.74832 0.62906 0.85347 0.0
C2474 C 0.76909 0.59306 0.85168 0.0
C2475 C 0.77974 0.59727 0.86511 0.0
C2476 C 0.7746 0.61748 0.87272 0.0
H2477 H 0.85826 0.5 0.9156 0.0
H2478 H 0.83061 0.52778 0.90649 0.0
C2479 C 0.75889 0.6332 0.86699 0.0
C2480 C 0.79667 0.58075 0.87092 0.0
H2481 H 0.80256 0.52544 0.88226 0.0
C2482 C 0.81963 0.58753 0.87213 0.0
C2483 C 0.79038 0.55821 0.87481 0.0
C2484 C 0.76582 0.55031 0.87428 0.0
C2485 C 0.83656 0.57219 0.87691 0.0
C2486 C 0.83036 0.54943 0.88039 0.0
C2487 C 0.80733 0.54281 0.87942 0.0
C2488 C 0.84732 0.53243 0.88565 0.0
C2489 C 0.86086 0.58057 0.87841 0.0
C2490 C 0.86575 0.5255 0.87685 0.0
C2491 C 0.88167 0.50953 0.88204 0.0
C2492 C 0.87933 0.50018 0.8961 0.0
C2493 C 0.8606 0.50687 0.90473 0.0
C2494 C 0.84476 0.52277 0.89955 0.0
H2495 H 0.86179 0.59955 0.87867 0.0
H2496 H 0.86889 0.57373 0.88849 0.0
H2497 H 0.87101 0.57452 0.86894 0.0
H2498 H 0.86779 0.53241 0.86597 0.0
H2499 H 0.89588 0.50468 0.87512 0.0
H2500 H 0.76528 0.60147 0.15889 0.0
H2501 H 0.73749 0.57396 0.14945 0.0
H2502 H 0.70887 0.62634 0.12172 0.0
H2503 H 0.73758 0.65351 0.13055 0.0
H2504 H 0.69373 0.57265 0.15155 0.0
H2505 H 0.71425 0.57683 0.09267 0.0
H2506 H 0.73205 0.59015 0.10628 0.0
H2507 H 0.70654 0.60426 0.09986 0.0
C2508 C 0.75329 0.60698 0.1506 0.0
C2509 C 0.75372 0.62953 0.14533 0.0
C2510 C 0.73733 0.59128 0.14525 0.0
C2511 C 0.7212 0.59788 0.13469 0.0
C2512 C 0.72153 0.62053 0.12951 0.0
H2513 H 0.59772 0.51544 0.11884 0.0
H2514 H 0.62491 0.54381 0.12817 0.0
C2515 C 0.73787 0.63611 0.13461 0.0
C2516 C 0.70366 0.5812 0.12958 0.0
H2517 H 0.68007 0.5573 0.09912 0.0
C2518 C 0.69087 0.56919 0.14007 0.0
C2519 C 0.69997 0.57649 0.11461 0.0
C2520 C 0.71409 0.58744 0.10273 0.0
C2521 C 0.67473 0.55251 0.13607 0.0
C2522 C 0.67052 0.54833 0.12109 0.0
C2523 C 0.68315 0.56053 0.1106 0.0
C2524 C 0.65386 0.5308 0.11594 0.0
C2525 C 0.66301 0.53907 0.14797 0.0
C2526 C 0.66079 0.51433 0.10569 0.0
C2527 C 0.64513 0.49861 0.10005 0.0
C2528 C 0.62226 0.49872 0.10472 0.0
C2529 C 0.61535 0.51478 0.11523 0.0
C2530 C 0.63093 0.53092 0.12062 0.0
H2531 H 0.67313 0.5392 0.15823 0.0
H2532 H 0.64617 0.54697 0.15037 0.0
H2533 H 0.6602 0.52101 0.14467 0.0
H2534 H 0.67834 0.51379 0.10189 0.0
H2535 H 0.65093 0.48641 0.09196 0.0
H2536 H 0.75401 0.39547 0.3336 0.0
H2537 H 0.72661 0.4232 0.34312 0.0
H2538 H 0.71965 0.38345 0.38249 0.0
H2539 H 0.74709 0.35536 0.37297 0.0
H2540 H 0.6772 0.39777 0.36953 0.0
H2541 H 0.73818 0.46988 0.37608 0.0
H2542 H 0.73845 0.45676 0.35836 0.0
H2543 H 0.74745 0.44059 0.37401 0.0
C2544 C 0.7468 0.39265 0.34434 0.0
C2545 C 0.75283 0.37325 0.35257 0.0
C2546 C 0.73118 0.40858 0.34977 0.0
C2547 C 0.72129 0.40552 0.36357 0.0
C2548 C 0.72718 0.38615 0.37183 0.0
H2549 H 0.64652 0.50442 0.41455 0.0
H2550 H 0.6735 0.47661 0.40469 0.0
C2551 C 0.74291 0.37019 0.36641 0.0
C2552 C 0.70455 0.42242 0.36919 0.0
H2553 H 0.69878 0.47857 0.37878 0.0
C2554 C 0.68189 0.41543 0.3716 0.0
C2555 C 0.71078 0.4454 0.37195 0.0
C2556 C 0.73507 0.45364 0.3701 0.0
C2557 C 0.6652 0.43091 0.37655 0.0
C2558 C 0.67133 0.45401 0.37899 0.0
C2559 C 0.69406 0.46091 0.37673 0.0
C2560 C 0.65476 0.47107 0.38466 0.0
C2561 C 0.64126 0.42235 0.37939 0.0
C2562 C 0.63539 0.47748 0.37655 0.0
C2563 C 0.61986 0.4935 0.38217 0.0
C2564 C 0.62351 0.50336 0.39596 0.0
C2565 C 0.64314 0.49713 0.4039 0.0
C2566 C 0.65861 0.48123 0.39829 0.0
H2567 H 0.64056 0.40338 0.37997 0.0
H2568 H 0.63447 0.4295 0.38974 0.0
H2569 H 0.62988 0.42801 0.3704 0.0
H2570 H 0.6323 0.47012 0.36589 0.0
H2571 H 0.60492 0.49797 0.37579 0.0
H2572 H 0.89708 0.4969 0.623 0.0
H2573 H 0.86918 0.46935 0.63259 0.0
H2574 H 0.82904 0.47628 0.59338 0.0
H2575 H 0.85656 0.50384 0.58381 0.0
H2576 H 0.80309 0.4784 0.61892 0.0
H2577 H 0.86067 0.40277 0.61861 0.0
H2578 H 0.87139 0.42725 0.62831 0.0
H2579 H 0.86732 0.42883 0.60891 0.0
C2580 C 0.88227 0.49259 0.61645 0.0
C2581 C 0.87907 0.50251 0.60263 0.0
C2582 C 0.86644 0.47673 0.6219 0.0
C2583 C 0.84721 0.47053 0.61359 0.0
C2584 C 0.8438 0.48074 0.59993 0.0
H2585 H 0.75393 0.35558 0.62598 0.0
H2586 H 0.7814 0.38336 0.61611 0.0
C2587 C 0.85958 0.49651 0.59448 0.0
C2588 C 0.83035 0.45365 0.61912 0.0
H2589 H 0.82393 0.39768 0.62907 0.0
C2590 C 0.80763 0.46076 0.62114 0.0
C2591 C 0.83627 0.43056 0.6218 0.0
C2592 C 0.86018 0.42175 0.61919 0.0
C2593 C 0.79073 0.44547 0.62597 0.0
C2594 C 0.79676 0.42253 0.62901 0.0
C2595 C 0.81939 0.41531 0.62679 0.0
C2596 C 0.77987 0.40592 0.63479 0.0
C2597 C 0.76647 0.45391 0.6276 0.0
C2598 C 0.77003 0.40939 0.64856 0.0
C2599 C 0.75441 0.39362 0.6542 0.0
C2600 C 0.74833 0.37402 0.64619 0.0
C2601 C 0.75816 0.37059 0.63236 0.0
C2602 C 0.7739 0.38637 0.62674 0.0
H2603 H 0.76355 0.47002 0.62145 0.0
H2604 H 0.75407 0.44085 0.62376 0.0
H2605 H 0.76296 0.45734 0.63929 0.0
H2606 H 0.77467 0.42417 0.65504 0.0
H2607 H 0.74727 0.39673 0.66492 0.0
H2608 H 0.14402 0.50123 0.08278 0.0
H2609 H 0.17073 0.47292 0.09232 0.0
H2610 H 0.13172 0.46878 0.13215 0.0
H2611 H 0.10454 0.49707 0.12255 0.0
H2612 H 0.19768 0.47519 0.11696 0.0
H2613 H 0.13783 0.40147 0.11975 0.0
H2614 H 0.1313 0.42728 0.10976 0.0
H2615 H 0.12847 0.42667 0.12927 0.0
C2616 C 0.14105 0.49434 0.09358 0.0
C2617 C 0.1221 0.50138 0.1019 0.0
C2618 C 0.15636 0.47812 0.09901 0.0
C2619 C 0.15306 0.46849 0.11285 0.0
C2620 C 0.13435 0.47567 0.12132 0.0
H2621 H 0.25363 0.39509 0.1637 0.0
H2622 H 0.22603 0.4223 0.15382 0.0
C2623 C 0.11894 0.49196 0.11587 0.0
C2624 C 0.16967 0.45137 0.11842 0.0
H2625 H 0.17498 0.39583 0.12957 0.0
C2626 C 0.19271 0.45784 0.11971 0.0
C2627 C 0.16321 0.42864 0.12179 0.0
C2628 C 0.13891 0.42045 0.11997 0.0
C2629 C 0.20942 0.4423 0.12448 0.0
C2630 C 0.20287 0.41977 0.12823 0.0
C2631 C 0.1799 0.41316 0.12674 0.0
C2632 C 0.2196 0.40307 0.13409 0.0
C2633 C 0.23401 0.45004 0.12531 0.0
C2634 C 0.22492 0.38302 0.12636 0.0
C2635 C 0.2408 0.36736 0.13198 0.0
C2636 C 0.25139 0.37143 0.1455 0.0
C2637 C 0.24587 0.39148 0.15322 0.0
C2638 C 0.23014 0.40711 0.14758 0.0
H2639 H 0.23704 0.46571 0.11872 0.0
H2640 H 0.23838 0.45397 0.13682 0.0
H2641 H 0.24574 0.43637 0.12145 0.0
H2642 H 0.21687 0.37957 0.11594 0.0
H2643 H 0.24459 0.35201 0.12582 0.0
H2644 H 0.35647 0.50393 0.91656 0.0
H2645 H 0.32901 0.47614 0.90714 0.0
H2646 H 0.36821 0.47015 0.86748 0.0
H2647 H 0.396 0.49795 0.8769 0.0
H2648 H 0.30239 0.47801 0.88168 0.0
H2649 H 0.36119 0.40332 0.88156 0.0
H2650 H 0.36752 0.42943 0.89128 0.0
H2651 H 0.37141 0.42802 0.87187 0.0
C2652 C 0.35927 0.49677 0.90581 0.0
C2653 C 0.37847 0.5031 0.89749 0.0
C2654 C 0.34354 0.48087 0.90045 0.0
C2655 C 0.34674 0.47083 0.88671 0.0
C2656 C 0.36565 0.4774 0.87823 0.0
H2657 H 0.24811 0.39622 0.83512 0.0
H2658 H 0.27492 0.42394 0.84532 0.0
C2659 C 0.38141 0.49341 0.88358 0.0
C2660 C 0.33005 0.4537 0.8813 0.0
H2661 H 0.32446 0.39773 0.87116 0.0
C2662 C 0.3072 0.46045 0.87939 0.0
C2663 C 0.33631 0.43072 0.87853 0.0
C2664 C 0.36039 0.42229 0.88102 0.0
C2665 C 0.29051 0.44494 0.87454 0.0
C2666 C 0.2969 0.42213 0.87138 0.0
C2667 C 0.31965 0.41525 0.87353 0.0
C2668 C 0.28029 0.40537 0.86544 0.0
C2669 C 0.26612 0.45301 0.87297 0.0
C2670 C 0.27462 0.38554 0.8733 0.0
C2671 C 0.25921 0.36958 0.86749 0.0
C2672 C 0.24945 0.37312 0.85365 0.0
C2673 C 0.25522 0.39302 0.84584 0.0
C2674 C 0.2705 0.40894 0.85167 0.0
H2675 H 0.26295 0.46896 0.87925 0.0
H2676 H 0.26255 0.45662 0.86131 0.0
H2677 H 0.25393 0.43967 0.87671 0.0
H2678 H 0.2821 0.38243 0.88392 0.0
H2679 H 0.25521 0.35436 0.87372 0.0
H2680 H 0.35719 0.49984 0.58124 0.0
H2681 H 0.33001 0.52832 0.59012 0.0
H2682 H 0.3666 0.53223 0.63089 0.0
H2683 H 0.39416 0.50384 0.62199 0.0
H2684 H 0.30149 0.52686 0.61413 0.0
H2685 H 0.36247 0.59942 0.61821 0.0
H2686 H 0.36913 0.57342 0.60846 0.0
H2687 H 0.37102 0.57423 0.62802 0.0
C2688 C 0.35947 0.5067 0.59212 0.0
C2689 C 0.37789 0.49962 0.6009 0.0
C2690 C 0.34392 0.52301 0.59717 0.0
C2691 C 0.34648 0.53268 0.61107 0.0
C2692 C 0.36457 0.52533 0.62001 0.0
H2693 H 0.24758 0.60639 0.66225 0.0
H2694 H 0.27442 0.57904 0.6517 0.0
C2695 C 0.38019 0.50897 0.61495 0.0
C2696 C 0.32988 0.55011 0.61623 0.0
H2697 H 0.32522 0.60545 0.6279 0.0
C2698 C 0.30668 0.54406 0.6171 0.0
C2699 C 0.33662 0.57266 0.61988 0.0
C2700 C 0.36113 0.58047 0.61848 0.0
C2701 C 0.29012 0.55976 0.62185 0.0
C2702 C 0.29697 0.58204 0.62597 0.0
C2703 C 0.32006 0.58831 0.62479 0.0
C2704 C 0.28048 0.59871 0.63211 0.0
C2705 C 0.26538 0.55246 0.62239 0.0
C2706 C 0.27515 0.61899 0.62463 0.0
C2707 C 0.25966 0.63471 0.63061 0.0
C2708 C 0.24952 0.63047 0.64426 0.0
C2709 C 0.25502 0.61016 0.6517 0.0
C2710 C 0.27031 0.59445 0.64568 0.0
H2711 H 0.26223 0.53695 0.61568 0.0
H2712 H 0.26065 0.54848 0.63383 0.0
H2713 H 0.25401 0.56641 0.6185 0.0
H2714 H 0.28293 0.6226 0.61415 0.0
H2715 H 0.25588 0.65027 0.62467 0.0
H2716 H 0.11163 0.49701 0.37424 0.0
H2717 H 0.14005 0.52368 0.36425 0.0
H2718 H 0.16685 0.53496 0.40749 0.0
H2719 H 0.13917 0.50795 0.41741 0.0
H2720 H 0.14714 0.56865 0.36948 0.0
H2721 H 0.22452 0.52028 0.38573 0.0
H2722 H 0.19624 0.50797 0.38646 0.0
H2723 H 0.2062 0.52628 0.40093 0.0
C2724 C 0.12372 0.50505 0.38157 0.0
C2725 C 0.12333 0.50017 0.39658 0.0
C2726 C 0.13992 0.52031 0.37587 0.0
C2727 C 0.15594 0.53096 0.38508 0.0
C2728 C 0.15518 0.52645 0.4001 0.0
H2729 H 0.25187 0.64341 0.37375 0.0
H2730 H 0.22414 0.61554 0.38324 0.0
C2731 C 0.13922 0.51107 0.40577 0.0
C2732 C 0.17308 0.54726 0.37912 0.0
H2733 H 0.23041 0.55892 0.37808 0.0
C2734 C 0.16534 0.56641 0.37128 0.0
C2735 C 0.19689 0.54433 0.38141 0.0
C2736 C 0.20648 0.52348 0.38896 0.0
C2737 C 0.18073 0.58289 0.36595 0.0
C2738 C 0.20437 0.58018 0.36858 0.0
C2739 C 0.21219 0.56101 0.37627 0.0
C2740 C 0.22131 0.59679 0.36299 0.0
C2741 C 0.17175 0.60324 0.35762 0.0
C2742 C 0.22899 0.59519 0.34856 0.0
C2743 C 0.24488 0.6109 0.34316 0.0
C2744 C 0.25332 0.62857 0.35209 0.0
C2745 C 0.24572 0.62999 0.36662 0.0
C2746 C 0.22988 0.61414 0.37204 0.0
H2747 H 0.15276 0.60367 0.3573 0.0
H2748 H 0.17807 0.61931 0.36267 0.0
H2749 H 0.17831 0.60271 0.34626 0.0
H2750 H 0.22258 0.58183 0.34146 0.0
H2751 H 0.25032 0.60935 0.33191 0.0
loop_
_geom_bond_atom_site_label_1
_geom_bond_atom_site_label_2
_geom_bond_distance
_geom_bond_site_symmetry_2
_ccdc_geom_bond_type
Co0 O1 2.216 . S
Co0 O2 2.091 . S
Co0 O4 2.004 . S
Co0 O10 2.021 . S
Co0 O12 2.137 . S
Co0 O13 2.244 . S
O1 Co0 2.216 . S
O1 C8 1.247 . S
O2 Co0 2.091 . S
O2 C8 1.261 . S
C3 O12 1.247 . S
C3 O13 1.272 . S
O4 Co0 2.004 . S
O4 C9 1.259 . S
Co5 O6 2.061 . S
Co5 O11 2.052 . S
Co5 O13 2.135 . S
O6 Co5 2.061 . S
O6 C9 1.235 . S
C7 O10 1.238 . S
C7 O11 1.241 . S
C8 O1 1.247 . S
C8 O2 1.261 . S
C9 O4 1.259 . S
C9 O6 1.235 . S
O10 Co0 2.021 . S
O10 C7 1.238 . S
O11 Co5 2.052 . S
O11 C7 1.241 . S
O12 Co0 2.137 . S
O12 C3 1.247 . S
O13 Co0 2.244 . S
O13 C3 1.272 . S
O13 Co5 2.135 . S
Co14 O15 2.216 . S
Co14 O16 2.091 . S
Co14 O18 2.004 . S
Co14 O24 2.021 . S
Co14 O26 2.137 . S
Co14 O27 2.244 . S
O15 Co14 2.216 . S
O15 C22 1.238 1_565 S
O16 Co14 2.091 . S
O16 C22 1.260 1_565 S
C17 O26 1.247 . S
C17 O27 1.272 . S
O18 Co14 2.004 . S
O18 C23 1.259 . S
Co19 O20 2.061 . S
Co19 O25 2.052 . S
Co19 O27 2.135 . S
O20 Co19 2.061 . S
O20 C23 1.235 . S
C21 O24 1.238 . S
C21 O25 1.241 . S
C22 O15 1.238 1_545 S
C22 O16 1.260 1_545 S
C23 O18 1.259 . S
C23 O20 1.235 . S
O24 Co14 2.021 . S
O24 C21 1.238 . S
O25 Co19 2.052 . S
O25 C21 1.241 . S
O26 Co14 2.137 . S
O26 C17 1.247 . S
O27 Co14 2.244 . S
O27 C17 1.272 . S
O27 Co19 2.135 . S
Co28 O29 2.216 . S
Co28 O30 2.091 . S
Co28 O32 2.004 . S
Co28 O38 2.021 . S
Co28 O40 2.137 . S
Co28 O41 2.244 . S
O29 Co28 2.216 . S
O29 C36 1.247 . S
O30 Co28 2.091 . S
O30 C36 1.261 . S
C31 O40 1.247 . S
C31 O41 1.272 . S
O32 Co28 2.004 . S
O32 C37 1.259 . S
Co33 O34 2.061 . S
Co33 O39 2.052 . S
Co33 O41 2.135 . S
O34 Co33 2.061 . S
O34 C37 1.235 . S
C35 O38 1.238 . S
C35 O39 1.241 . S
C36 O29 1.247 . S
C36 O30 1.261 . S
C37 O32 1.259 . S
C37 O34 1.235 . S
O38 Co28 2.021 . S
O38 C35 1.238 . S
O39 Co33 2.052 . S
O39 C35 1.241 . S
O40 Co28 2.137 . S
O40 C31 1.247 . S
O41 Co28 2.244 . S
O41 C31 1.272 . S
O41 Co33 2.135 . S
Co42 O43 2.216 . S
Co42 O44 2.091 . S
Co42 O46 2.004 . S
Co42 O52 2.021 . S
Co42 O54 2.137 . S
Co42 O55 2.244 . S
O43 Co42 2.216 . S
O43 C50 1.238 1_545 S
O44 Co42 2.091 . S
O44 C50 1.260 1_545 S
C45 O54 1.247 . S
C45 O55 1.272 . S
O46 Co42 2.004 . S
O46 C51 1.259 . S
Co47 O48 2.061 . S
Co47 O53 2.052 . S
Co47 O55 2.135 . S
O48 Co47 2.061 . S
O48 C51 1.235 . S
C49 O52 1.238 . S
C49 O53 1.241 . S
C50 O43 1.238 1_565 S
C50 O44 1.260 1_565 S
C51 O46 1.259 . S
C51 O48 1.235 . S
O52 Co42 2.021 . S
O52 C49 1.238 . S
O53 Co47 2.052 . S
O53 C49 1.241 . S
O54 Co42 2.137 . S
O54 C45 1.247 . S
O55 Co42 2.244 . S
O55 C45 1.272 . S
O55 Co47 2.135 . S
Co56 O57 2.216 . S
Co56 O58 2.091 . S
Co56 O60 2.004 . S
Co56 O66 2.021 . S
Co56 O68 2.137 . S
Co56 O69 2.244 . S
O57 Co56 2.216 . S
O57 C64 1.247 . S
O58 Co56 2.091 . S
O58 C64 1.261 . S
C59 O68 1.247 . S
C59 O69 1.272 . S
O60 Co56 2.004 . S
O60 C65 1.259 . S
Co61 O62 2.061 . S
Co61 O67 2.052 . S
Co61 O69 2.135 . S
O62 Co61 2.061 . S
O62 C65 1.235 . S
C63 O66 1.238 . S
C63 O67 1.241 . S
C64 O57 1.247 . S
C64 O58 1.261 . S
C65 O60 1.259 . S
C65 O62 1.235 . S
O66 Co56 2.021 . S
O66 C63 1.238 . S
O67 Co61 2.052 . S
O67 C63 1.241 . S
O68 Co56 2.137 . S
O68 C59 1.247 . S
O69 Co56 2.244 . S
O69 C59 1.272 . S
O69 Co61 2.135 . S
Co70 O71 2.216 . S
Co70 O72 2.091 . S
Co70 O74 2.004 . S
Co70 O80 2.021 . S
Co70 O82 2.137 . S
Co70 O83 2.244 . S
O71 Co70 2.216 . S
O71 C78 1.238 1_565 S
O72 Co70 2.091 . S
O72 C78 1.260 1_565 S
C73 O82 1.247 . S
C73 O83 1.272 . S
O74 Co70 2.004 . S
O74 C79 1.259 . S
Co75 O76 2.061 . S
Co75 O81 2.052 . S
Co75 O83 2.135 . S
O76 Co75 2.061 . S
O76 C79 1.235 . S
C77 O80 1.238 . S
C77 O81 1.241 . S
C78 O71 1.238 1_545 S
C78 O72 1.260 1_545 S
C79 O74 1.259 . S
C79 O76 1.235 . S
O80 Co70 2.021 . S
O80 C77 1.238 . S
O81 Co75 2.052 . S
O81 C77 1.241 . S
O82 Co70 2.137 . S
O82 C73 1.247 . S
O83 Co70 2.244 . S
O83 C73 1.272 . S
O83 Co75 2.135 . S
Co84 O85 2.216 . S
Co84 O86 2.091 . S
Co84 O88 2.004 . S
Co84 O94 2.021 . S
Co84 O96 2.137 . S
Co84 O97 2.244 . S
O85 Co84 2.216 . S
O85 C92 1.247 . S
O86 Co84 2.091 . S
O86 C92 1.261 . S
C87 O96 1.247 . S
C87 O97 1.272 . S
O88 Co84 2.004 . S
O88 C93 1.259 . S
Co89 O90 2.061 . S
Co89 O95 2.052 . S
Co89 O97 2.135 . S
O90 Co89 2.061 . S
O90 C93 1.235 . S
C91 O94 1.238 . S
C91 O95 1.241 . S
C92 O85 1.247 . S
C92 O86 1.261 . S
C93 O88 1.259 . S
C93 O90 1.235 . S
O94 Co84 2.021 . S
O94 C91 1.238 . S
O95 Co89 2.052 . S
O95 C91 1.241 . S
O96 Co84 2.137 . S
O96 C87 1.247 . S
O97 Co84 2.244 . S
O97 C87 1.272 . S
O97 Co89 2.135 . S
Co98 O99 2.216 . S
Co98 O100 2.091 . S
Co98 O102 2.004 . S
Co98 O108 2.021 . S
Co98 O110 2.137 . S
Co98 O111 2.244 . S
O99 Co98 2.216 . S
O99 C106 1.238 1_545 S
O100 Co98 2.091 . S
O100 C106 1.260 1_545 S
C101 O110 1.247 . S
C101 O111 1.272 . S
O102 Co98 2.004 . S
O102 C107 1.259 . S
Co103 O104 2.061 . S
Co103 O109 2.052 . S
Co103 O111 2.135 . S
O104 Co103 2.061 . S
O104 C107 1.235 . S
C105 O108 1.238 . S
C105 O109 1.241 . S
C106 O99 1.238 1_565 S
C106 O100 1.260 1_565 S
C107 O102 1.259 . S
C107 O104 1.235 . S
O108 Co98 2.021 . S
O108 C105 1.238 . S
O109 Co103 2.052 . S
O109 C105 1.241 . S
O110 Co98 2.137 . S
O110 C101 1.247 . S
O111 Co98 2.244 . S
O111 C101 1.272 . S
O111 Co103 2.135 . S
Co112 O113 2.216 . S
Co112 O114 2.091 . S
Co112 O116 2.004 . S
Co112 O122 2.021 . S
Co112 O124 2.137 . S
Co112 O125 2.244 . S
O113 Co112 2.216 . S
O113 C120 1.247 . S
O114 Co112 2.091 . S
O114 C120 1.261 . S
C115 O124 1.247 . S
C115 O125 1.272 . S
O116 Co112 2.004 . S
O116 C121 1.259 . S
Co117 O118 2.061 . S
Co117 O123 2.052 . S
Co117 O125 2.135 . S
O118 Co117 2.061 . S
O118 C121 1.235 . S
C119 O122 1.238 . S
C119 O123 1.241 . S
C120 O113 1.247 . S
C120 O114 1.261 . S
C121 O116 1.259 . S
C121 O118 1.235 . S
O122 Co112 2.021 . S
O122 C119 1.238 . S
O123 Co117 2.052 . S
O123 C119 1.241 . S
O124 Co112 2.137 . S
O124 C115 1.247 . S
O125 Co112 2.244 . S
O125 C115 1.272 . S
O125 Co117 2.135 . S
Co126 O127 2.216 . S
Co126 O128 2.091 . S
Co126 O130 2.004 . S
Co126 O136 2.021 . S
Co126 O138 2.137 . S
Co126 O139 2.244 . S
O127 Co126 2.216 . S
O127 C134 1.238 1_545 S
O128 Co126 2.091 . S
O128 C134 1.260 1_545 S
C129 O138 1.247 . S
C129 O139 1.272 . S
O130 Co126 2.004 . S
O130 C135 1.259 . S
Co131 O132 2.061 . S
Co131 O137 2.052 . S
Co131 O139 2.135 . S
O132 Co131 2.061 . S
O132 C135 1.235 . S
C133 O136 1.238 . S
C133 O137 1.241 . S
C134 O127 1.238 1_565 S
C134 O128 1.260 1_565 S
C135 O130 1.259 . S
C135 O132 1.235 . S
O136 Co126 2.021 . S
O136 C133 1.238 . S
O137 Co131 2.052 . S
O137 C133 1.241 . S
O138 Co126 2.137 . S
O138 C129 1.247 . S
O139 Co126 2.244 . S
O139 C129 1.272 . S
O139 Co131 2.135 . S
Co140 O141 2.216 . S
Co140 O142 2.091 . S
Co140 O144 2.004 . S
Co140 O150 2.021 . S
Co140 O152 2.137 . S
Co140 O153 2.244 . S
O141 Co140 2.216 . S
O141 C148 1.247 . S
O142 Co140 2.091 . S
O142 C148 1.261 . S
C143 O152 1.247 . S
C143 O153 1.272 . S
O144 Co140 2.004 . S
O144 C149 1.259 . S
Co145 O146 2.061 . S
Co145 O151 2.052 . S
Co145 O153 2.135 . S
O146 Co145 2.061 . S
O146 C149 1.235 . S
C147 O150 1.238 . S
C147 O151 1.241 . S
C148 O141 1.247 . S
C148 O142 1.261 . S
C149 O144 1.259 . S
C149 O146 1.235 . S
O150 Co140 2.021 . S
O150 C147 1.238 . S
O151 Co145 2.052 . S
O151 C147 1.241 . S
O152 Co140 2.137 . S
O152 C143 1.247 . S
O153 Co140 2.244 . S
O153 C143 1.272 . S
O153 Co145 2.135 . S
Co154 O155 2.216 . S
Co154 O156 2.091 . S
Co154 O158 2.004 . S
Co154 O164 2.021 . S
Co154 O166 2.137 . S
Co154 O167 2.244 . S
O155 Co154 2.216 . S
O155 C162 1.238 1_565 S
O156 Co154 2.091 . S
O156 C162 1.260 1_565 S
C157 O166 1.247 . S
C157 O167 1.272 . S
O158 Co154 2.004 . S
O158 C163 1.259 . S
Co159 O160 2.061 . S
Co159 O165 2.052 . S
Co159 O167 2.135 . S
O160 Co159 2.061 . S
O160 C163 1.235 . S
C161 O164 1.238 . S
C161 O165 1.241 . S
C162 O155 1.238 1_545 S
C162 O156 1.260 1_545 S
C163 O158 1.259 . S
C163 O160 1.235 . S
O164 Co154 2.021 . S
O164 C161 1.238 . S
O165 Co159 2.052 . S
O165 C161 1.241 . S
O166 Co154 2.137 . S
O166 C157 1.247 . S
O167 Co154 2.244 . S
O167 C157 1.272 . S
O167 Co159 2.135 . S
Co168 O169 2.216 . S
Co168 O170 2.091 . S
Co168 O172 2.004 . S
Co168 O178 2.021 . S
Co168 O180 2.137 . S
Co168 O181 2.244 . S
O169 Co168 2.216 . S
O169 C176 1.247 . S
O170 Co168 2.091 . S
O170 C176 1.261 . S
C171 O180 1.247 . S
C171 O181 1.272 . S
O172 Co168 2.004 . S
O172 C177 1.259 . S
Co173 O174 2.061 . S
Co173 O179 2.052 . S
Co173 O181 2.135 . S
O174 Co173 2.061 . S
O174 C177 1.235 . S
C175 O178 1.238 . S
C175 O179 1.241 . S
C176 O169 1.247 . S
C176 O170 1.261 . S
C177 O172 1.259 . S
C177 O174 1.235 . S
O178 Co168 2.021 . S
O178 C175 1.238 . S
O179 Co173 2.052 . S
O179 C175 1.241 . S
O180 Co168 2.137 . S
O180 C171 1.247 . S
O181 Co168 2.244 . S
O181 C171 1.272 . S
O181 Co173 2.135 . S
Co182 O183 2.216 . S
Co182 O184 2.091 . S
Co182 O186 2.004 . S
Co182 O192 2.021 . S
Co182 O194 2.137 . S
Co182 O195 2.244 . S
O183 Co182 2.216 . S
O183 C190 1.238 1_545 S
O184 Co182 2.091 . S
O184 C190 1.260 1_545 S
C185 O194 1.247 . S
C185 O195 1.272 . S
O186 Co182 2.004 . S
O186 C191 1.259 . S
Co187 O188 2.061 . S
Co187 O193 2.052 . S
Co187 O195 2.135 . S
O188 Co187 2.061 . S
O188 C191 1.235 . S
C189 O192 1.238 . S
C189 O193 1.241 . S
C190 O183 1.238 1_565 S
C190 O184 1.260 1_565 S
C191 O186 1.259 . S
C191 O188 1.235 . S
O192 Co182 2.021 . S
O192 C189 1.238 . S
O193 Co187 2.052 . S
O193 C189 1.241 . S
O194 Co182 2.137 . S
O194 C185 1.247 . S
O195 Co182 2.244 . S
O195 C185 1.272 . S
O195 Co187 2.135 . S
Co196 O197 2.216 . S
Co196 O198 2.091 . S
Co196 O200 2.004 . S
Co196 O206 2.021 . S
Co196 O208 2.137 . S
Co196 O209 2.244 . S
O197 Co196 2.216 . S
O197 C204 1.247 . S
O198 Co196 2.091 . S
O198 C204 1.261 . S
C199 O208 1.247 . S
C199 O209 1.272 . S
O200 Co196 2.004 . S
O200 C205 1.259 . S
Co201 O202 2.061 . S
Co201 O207 2.052 . S
Co201 O209 2.135 . S
O202 Co201 2.061 . S
O202 C205 1.235 . S
C203 O206 1.238 . S
C203 O207 1.241 . S
C204 O197 1.247 . S
C204 O198 1.261 . S
C205 O200 1.259 . S
C205 O202 1.235 . S
O206 Co196 2.021 . S
O206 C203 1.238 . S
O207 Co201 2.052 . S
O207 C203 1.241 . S
O208 Co196 2.137 . S
O208 C199 1.247 . S
O209 Co196 2.244 . S
O209 C199 1.272 . S
O209 Co201 2.135 . S
Co210 O211 2.216 . S
Co210 O212 2.091 . S
Co210 O214 2.004 . S
Co210 O220 2.021 . S
Co210 O222 2.137 . S
Co210 O223 2.244 . S
O211 Co210 2.216 . S
O211 C218 1.238 1_565 S
O212 Co210 2.091 . S
O212 C218 1.260 1_565 S
C213 O222 1.247 . S
C213 O223 1.272 . S
O214 Co210 2.004 . S
O214 C219 1.259 . S
Co215 O216 2.061 . S
Co215 O221 2.052 . S
Co215 O223 2.135 . S
O216 Co215 2.061 . S
O216 C219 1.235 . S
C217 O220 1.238 . S
C217 O221 1.241 . S
C218 O211 1.238 1_545 S
C218 O212 1.260 1_545 S
C219 O214 1.259 . S
C219 O216 1.235 . S
O220 Co210 2.021 . S
O220 C217 1.238 . S
O221 Co215 2.052 . S
O221 C217 1.241 . S
O222 Co210 2.137 . S
O222 C213 1.247 . S
O223 Co210 2.244 . S
O223 C213 1.272 . S
O223 Co215 2.135 . S
Co224 O225 2.216 . S
Co224 O226 2.091 . S
Co224 O228 2.004 . S
Co224 O234 2.021 . S
Co224 O236 2.137 . S
Co224 O237 2.244 . S
O225 Co224 2.216 . S
O225 C232 1.247 . S
O226 Co224 2.091 . S
O226 C232 1.261 . S
C227 O236 1.247 . S
C227 O237 1.272 . S
O228 Co224 2.004 . S
O228 C233 1.259 . S
Co229 O230 2.061 . S
Co229 O235 2.052 . S
Co229 O237 2.135 . S
O230 Co229 2.061 . S
O230 C233 1.235 . S
C231 O234 1.238 . S
C231 O235 1.241 . S
C232 O225 1.247 . S
C232 O226 1.261 . S
C233 O228 1.259 . S
C233 O230 1.235 . S
O234 Co224 2.021 . S
O234 C231 1.238 . S
O235 Co229 2.052 . S
O235 C231 1.241 . S
O236 Co224 2.137 . S
O236 C227 1.247 . S
O237 Co224 2.244 . S
O237 C227 1.272 . S
O237 Co229 2.135 . S
Co238 O239 2.216 . S
Co238 O240 2.091 . S
Co238 O242 2.004 . S
Co238 O248 2.021 . S
Co238 O250 2.137 . S
Co238 O251 2.244 . S
O239 Co238 2.216 . S
O239 C246 1.247 . S
O240 Co238 2.091 . S
O240 C246 1.261 . S
C241 O250 1.247 . S
C241 O251 1.272 . S
O242 Co238 2.004 . S
O242 C247 1.259 . S
Co243 O244 2.061 . S
Co243 O249 2.052 . S
Co243 O251 2.135 . S
O244 Co243 2.061 . S
O244 C247 1.235 . S
C245 O248 1.238 . S
C245 O249 1.241 . S
C246 O239 1.247 . S
C246 O240 1.261 . S
C247 O242 1.259 . S
C247 O244 1.235 . S
O248 Co238 2.021 . S
O248 C245 1.238 . S
O249 Co243 2.052 . S
O249 C245 1.241 . S
O250 Co238 2.137 . S
O250 C241 1.247 . S
O251 Co238 2.244 . S
O251 C241 1.272 . S
O251 Co243 2.135 . S
Co252 O253 2.216 . S
Co252 O254 2.091 . S
Co252 O256 2.004 . S
Co252 O262 2.021 . S
Co252 O264 2.137 . S
Co252 O265 2.244 . S
O253 Co252 2.216 . S
O253 C260 1.247 . S
O254 Co252 2.091 . S
O254 C260 1.261 . S
C255 O264 1.247 . S
C255 O265 1.272 . S
O256 Co252 2.004 . S
O256 C261 1.259 . S
Co257 O258 2.061 . S
Co257 O263 2.052 . S
Co257 O265 2.135 . S
O258 Co257 2.061 . S
O258 C261 1.235 . S
C259 O262 1.238 . S
C259 O263 1.241 . S
C260 O253 1.247 . S
C260 O254 1.261 . S
C261 O256 1.259 . S
C261 O258 1.235 . S
O262 Co252 2.021 . S
O262 C259 1.238 . S
O263 Co257 2.052 . S
O263 C259 1.241 . S
O264 Co252 2.137 . S
O264 C255 1.247 . S
O265 Co252 2.244 . S
O265 C255 1.272 . S
O265 Co257 2.135 . S
Co266 O267 2.216 . S
Co266 O268 2.091 . S
Co266 O270 2.004 . S
Co266 O276 2.021 . S
Co266 O278 2.137 . S
Co266 O279 2.244 . S
O267 Co266 2.216 . S
O267 C274 1.247 . S
O268 Co266 2.091 . S
O268 C274 1.261 . S
C269 O278 1.247 . S
C269 O279 1.272 . S
O270 Co266 2.004 . S
O270 C275 1.259 . S
Co271 O272 2.061 . S
Co271 O277 2.052 . S
Co271 O279 2.135 . S
O272 Co271 2.061 . S
O272 C275 1.235 . S
C273 O276 1.238 . S
C273 O277 1.241 . S
C274 O267 1.247 . S
C274 O268 1.261 . S
C275 O270 1.259 . S
C275 O272 1.235 . S
O276 Co266 2.021 . S
O276 C273 1.238 . S
O277 Co271 2.052 . S
O277 C273 1.241 . S
O278 Co266 2.137 . S
O278 C269 1.247 . S
O279 Co266 2.244 . S
O279 C269 1.272 . S
O279 Co271 2.135 . S
Co280 O281 2.216 . S
Co280 O282 2.091 . S
Co280 O284 2.004 . S
Co280 O290 2.021 . S
Co280 O292 2.137 . S
Co280 O293 2.244 . S
O281 Co280 2.216 . S
O281 C288 1.247 . S
O282 Co280 2.091 . S
O282 C288 1.261 . S
C283 O292 1.247 . S
C283 O293 1.272 . S
O284 Co280 2.004 . S
O284 C289 1.259 . S
Co285 O286 2.061 . S
Co285 O291 2.052 . S
Co285 O293 2.135 . S
O286 Co285 2.061 . S
O286 C289 1.235 . S
C287 O290 1.238 . S
C287 O291 1.241 . S
C288 O281 1.247 . S
C288 O282 1.261 . S
C289 O284 1.259 . S
C289 O286 1.235 . S
O290 Co280 2.021 . S
O290 C287 1.238 . S
O291 Co285 2.052 . S
O291 C287 1.241 . S
O292 Co280 2.137 . S
O292 C283 1.247 . S
O293 Co280 2.244 . S
O293 C283 1.272 . S
O293 Co285 2.135 . S
Co294 O295 2.216 . S
Co294 O296 2.091 . S
Co294 O298 2.004 . S
Co294 O304 2.021 . S
Co294 O306 2.137 . S
Co294 O307 2.244 . S
O295 Co294 2.216 . S
O295 C302 1.247 . S
O296 Co294 2.091 . S
O296 C302 1.261 . S
C297 O306 1.247 . S
C297 O307 1.272 . S
O298 Co294 2.004 . S
O298 C303 1.259 . S
Co299 O300 2.061 . S
Co299 O305 2.052 . S
Co299 O307 2.135 . S
O300 Co299 2.061 . S
O300 C303 1.235 . S
C301 O304 1.238 . S
C301 O305 1.241 . S
C302 O295 1.247 . S
C302 O296 1.261 . S
C303 O298 1.259 . S
C303 O300 1.235 . S
O304 Co294 2.021 . S
O304 C301 1.238 . S
O305 Co299 2.052 . S
O305 C301 1.241 . S
O306 Co294 2.137 . S
O306 C297 1.247 . S
O307 Co294 2.244 . S
O307 C297 1.272 . S
O307 Co299 2.135 . S
Co308 O309 2.216 . S
Co308 O310 2.091 . S
Co308 O312 2.004 . S
Co308 O318 2.021 . S
Co308 O320 2.137 . S
Co308 O321 2.244 . S
O309 Co308 2.216 . S
O309 C316 1.247 . S
O310 Co308 2.091 . S
O310 C316 1.261 . S
C311 O320 1.247 . S
C311 O321 1.272 . S
O312 Co308 2.004 . S
O312 C317 1.259 . S
Co313 O314 2.061 . S
Co313 O319 2.052 . S
Co313 O321 2.135 . S
O314 Co313 2.061 . S
O314 C317 1.235 . S
C315 O318 1.238 . S
C315 O319 1.241 . S
C316 O309 1.247 . S
C316 O310 1.261 . S
C317 O312 1.259 . S
C317 O314 1.235 . S
O318 Co308 2.021 . S
O318 C315 1.238 . S
O319 Co313 2.052 . S
O319 C315 1.241 . S
O320 Co308 2.137 . S
O320 C311 1.247 . S
O321 Co308 2.244 . S
O321 C311 1.272 . S
O321 Co313 2.135 . S
Co322 O323 2.216 . S
Co322 O324 2.091 . S
Co322 O326 2.004 . S
Co322 O332 2.021 . S
Co322 O334 2.137 . S
Co322 O335 2.244 . S
O323 Co322 2.216 . S
O323 C330 1.247 . S
O324 Co322 2.091 . S
O324 C330 1.261 . S
C325 O334 1.247 . S
C325 O335 1.272 . S
O326 Co322 2.004 . S
O326 C331 1.259 . S
Co327 O328 2.061 . S
Co327 O333 2.052 . S
Co327 O335 2.135 . S
O328 Co327 2.061 . S
O328 C331 1.235 . S
C329 O332 1.238 . S
C329 O333 1.241 . S
C330 O323 1.247 . S
C330 O324 1.261 . S
C331 O326 1.259 . S
C331 O328 1.235 . S
O332 Co322 2.021 . S
O332 C329 1.238 . S
O333 Co327 2.052 . S
O333 C329 1.241 . S
O334 Co322 2.137 . S
O334 C325 1.247 . S
O335 Co322 2.244 . S
O335 C325 1.272 . S
O335 Co327 2.135 . S
Co336 O337 2.216 . S
Co336 O338 2.091 . S
Co336 O340 2.004 . S
Co336 O346 2.021 . S
Co336 O348 2.137 . S
Co336 O349 2.244 . S
O337 Co336 2.216 . S
O337 C344 1.247 . S
O338 Co336 2.091 . S
O338 C344 1.261 . S
C339 O348 1.247 . S
C339 O349 1.272 . S
O340 Co336 2.004 . S
O340 C345 1.259 . S
Co341 O342 2.061 . S
Co341 O347 2.052 . S
Co341 O349 2.135 . S
O342 Co341 2.061 . S
O342 C345 1.235 . S
C343 O346 1.238 . S
C343 O347 1.241 . S
C344 O337 1.247 . S
C344 O338 1.261 . S
C345 O340 1.259 . S
C345 O342 1.235 . S
O346 Co336 2.021 . S
O346 C343 1.238 . S
O347 Co341 2.052 . S
O347 C343 1.241 . S
O348 Co336 2.137 . S
O348 C339 1.247 . S
O349 Co336 2.244 . S
O349 C339 1.272 . S
O349 Co341 2.135 . S
Co350 O351 2.216 . S
Co350 O352 2.091 . S
Co350 O354 2.004 . S
Co350 O360 2.021 . S
Co350 O362 2.137 . S
Co350 O363 2.244 . S
O351 Co350 2.216 . S
O351 C358 1.247 . S
O352 Co350 2.091 . S
O352 C358 1.261 . S
C353 O362 1.247 . S
C353 O363 1.272 . S
O354 Co350 2.004 . S
O354 C359 1.259 . S
Co355 O356 2.061 . S
Co355 O361 2.052 . S
Co355 O363 2.135 . S
O356 Co355 2.061 . S
O356 C359 1.235 . S
C357 O360 1.238 . S
C357 O361 1.241 . S
C358 O351 1.247 . S
C358 O352 1.261 . S
C359 O354 1.259 . S
C359 O356 1.235 . S
O360 Co350 2.021 . S
O360 C357 1.238 . S
O361 Co355 2.052 . S
O361 C357 1.241 . S
O362 Co350 2.137 . S
O362 C353 1.247 . S
O363 Co350 2.244 . S
O363 C353 1.272 . S
O363 Co355 2.135 . S
Co364 O365 2.216 . S
Co364 O366 2.091 . S
Co364 O368 2.004 . S
Co364 O374 2.021 . S
Co364 O376 2.137 . S
Co364 O377 2.244 . S
O365 Co364 2.216 . S
O365 C372 1.247 . S
O366 Co364 2.091 . S
O366 C372 1.261 . S
C367 O376 1.247 . S
C367 O377 1.272 . S
O368 Co364 2.004 . S
O368 C373 1.259 . S
Co369 O370 2.061 . S
Co369 O375 2.052 . S
Co369 O377 2.135 . S
O370 Co369 2.061 . S
O370 C373 1.235 . S
C371 O374 1.238 . S
C371 O375 1.241 . S
C372 O365 1.247 . S
C372 O366 1.261 . S
C373 O368 1.259 . S
C373 O370 1.235 . S
O374 Co364 2.021 . S
O374 C371 1.238 . S
O375 Co369 2.052 . S
O375 C371 1.241 . S
O376 Co364 2.137 . S
O376 C367 1.247 . S
O377 Co364 2.244 . S
O377 C367 1.272 . S
O377 Co369 2.135 . S
Co378 O379 2.216 . S
Co378 O380 2.091 . S
Co378 O382 2.004 . S
Co378 O388 2.021 . S
Co378 O390 2.137 . S
Co378 O391 2.244 . S
O379 Co378 2.216 . S
O379 C386 1.247 . S
O380 Co378 2.091 . S
O380 C386 1.261 . S
C381 O390 1.247 . S
C381 O391 1.272 . S
O382 Co378 2.004 . S
O382 C387 1.259 . S
Co383 O384 2.061 . S
Co383 O389 2.052 . S
Co383 O391 2.135 . S
O384 Co383 2.061 . S
O384 C387 1.235 . S
C385 O388 1.238 . S
C385 O389 1.241 . S
C386 O379 1.247 . S
C386 O380 1.261 . S
C387 O382 1.259 . S
C387 O384 1.235 . S
O388 Co378 2.021 . S
O388 C385 1.238 . S
O389 Co383 2.052 . S
O389 C385 1.241 . S
O390 Co378 2.137 . S
O390 C381 1.247 . S
O391 Co378 2.244 . S
O391 C381 1.272 . S
O391 Co383 2.135 . S
Co392 O393 2.216 . S
Co392 O394 2.091 . S
Co392 O396 2.004 . S
Co392 O402 2.021 . S
Co392 O404 2.137 . S
Co392 O405 2.244 . S
O393 Co392 2.216 . S
O393 C400 1.247 . S
O394 Co392 2.091 . S
O394 C400 1.261 . S
C395 O404 1.247 . S
C395 O405 1.272 . S
O396 Co392 2.004 . S
O396 C401 1.259 . S
Co397 O398 2.061 . S
Co397 O403 2.052 . S
Co397 O405 2.135 . S
O398 Co397 2.061 . S
O398 C401 1.235 . S
C399 O402 1.238 . S
C399 O403 1.241 . S
C400 O393 1.247 . S
C400 O394 1.261 . S
C401 O396 1.259 . S
C401 O398 1.235 . S
O402 Co392 2.021 . S
O402 C399 1.238 . S
O403 Co397 2.052 . S
O403 C399 1.241 . S
O404 Co392 2.137 . S
O404 C395 1.247 . S
O405 Co392 2.244 . S
O405 C395 1.272 . S
O405 Co397 2.135 . S
Co406 O407 2.216 . S
Co406 O408 2.091 . S
Co406 O410 2.004 . S
Co406 O416 2.021 . S
Co406 O418 2.137 . S
Co406 O419 2.244 . S
O407 Co406 2.216 . S
O407 C414 1.247 . S
O408 Co406 2.091 . S
O408 C414 1.261 . S
C409 O418 1.247 . S
C409 O419 1.272 . S
O410 Co406 2.004 . S
O410 C415 1.259 . S
Co411 O412 2.061 . S
Co411 O417 2.052 . S
Co411 O419 2.135 . S
O412 Co411 2.061 . S
O412 C415 1.235 . S
C413 O416 1.238 . S
C413 O417 1.241 . S
C414 O407 1.247 . S
C414 O408 1.261 . S
C415 O410 1.259 . S
C415 O412 1.235 . S
O416 Co406 2.021 . S
O416 C413 1.238 . S
O417 Co411 2.052 . S
O417 C413 1.241 . S
O418 Co406 2.137 . S
O418 C409 1.247 . S
O419 Co406 2.244 . S
O419 C409 1.272 . S
O419 Co411 2.135 . S
Co420 O421 2.216 . S
Co420 O422 2.091 . S
Co420 O424 2.004 . S
Co420 O430 2.021 . S
Co420 O432 2.137 . S
Co420 O433 2.244 . S
O421 Co420 2.216 . S
O421 C428 1.247 . S
O422 Co420 2.091 . S
O422 C428 1.261 . S
C423 O432 1.247 . S
C423 O433 1.272 . S
O424 Co420 2.004 . S
O424 C429 1.259 . S
Co425 O426 2.061 . S
Co425 O431 2.052 . S
Co425 O433 2.135 . S
O426 Co425 2.061 . S
O426 C429 1.235 . S
C427 O430 1.238 . S
C427 O431 1.241 . S
C428 O421 1.247 . S
C428 O422 1.261 . S
C429 O424 1.259 . S
C429 O426 1.235 . S
O430 Co420 2.021 . S
O430 C427 1.238 . S
O431 Co425 2.052 . S
O431 C427 1.241 . S
O432 Co420 2.137 . S
O432 C423 1.247 . S
O433 Co420 2.244 . S
O433 C423 1.272 . S
O433 Co425 2.135 . S
Co434 O435 2.216 . S
Co434 O436 2.091 . S
Co434 O438 2.004 . S
Co434 O444 2.021 . S
Co434 O446 2.137 . S
Co434 O447 2.244 . S
O435 Co434 2.216 . S
O435 C442 1.247 . S
O436 Co434 2.091 . S
O436 C442 1.261 . S
C437 O446 1.247 . S
C437 O447 1.272 . S
O438 Co434 2.004 . S
O438 C443 1.259 . S
Co439 O440 2.061 . S
Co439 O445 2.052 . S
Co439 O447 2.135 . S
O440 Co439 2.061 . S
O440 C443 1.235 . S
C441 O444 1.238 . S
C441 O445 1.241 . S
C442 O435 1.247 . S
C442 O436 1.261 . S
C443 O438 1.259 . S
C443 O440 1.235 . S
O444 Co434 2.021 . S
O444 C441 1.238 . S
O445 Co439 2.052 . S
O445 C441 1.241 . S
O446 Co434 2.137 . S
O446 C437 1.247 . S
O447 Co434 2.244 . S
O447 C437 1.272 . S
O447 Co439 2.135 . S
H448 C456 0.929 . S
H449 C458 0.930 . S
H450 C460 0.930 . S
H451 C463 0.929 . S
H452 C466 0.930 . S
H453 C468 0.960 . S
H454 C468 0.960 . S
H455 C468 0.960 . S
C456 H448 0.929 . S
C456 C457 1.377 . S
C456 C458 1.384 . S
C457 C456 1.377 . S
C457 C463 1.390 . S
C458 H449 0.930 . S
C458 C456 1.384 . S
C458 C459 1.372 . S
C459 C458 1.372 . S
C459 C460 1.400 . S
C459 C464 1.490 . S
C460 H450 0.930 . S
C460 C459 1.400 . S
C460 C463 1.386 . S
H461 C477 0.930 . S
H462 C478 0.931 . S
C463 H451 0.929 . S
C463 C457 1.390 . S
C463 C460 1.386 . S
C464 C459 1.490 . S
C464 C466 1.395 . S
C464 C467 1.403 . S
H465 C471 0.930 . S
C466 H452 0.930 . S
C466 C464 1.395 . S
C466 C469 1.403 . S
C467 C464 1.403 . S
C467 C468 1.524 . S
C467 C471 1.400 . S
C468 H453 0.960 . S
C468 H454 0.960 . S
C468 H455 0.960 . S
C468 C467 1.524 . S
C469 C466 1.403 . S
C469 C470 1.392 . S
C469 C473 1.495 . S
C470 C469 1.392 . S
C470 C471 1.385 . S
C470 C472 1.478 . S
C471 H465 0.930 . S
C471 C467 1.400 . S
C471 C470 1.385 . S
C472 C470 1.478 . S
C472 C474 1.381 . S
C472 C478 1.383 . S
C473 C469 1.495 . S
C473 H479 0.959 . S
C473 H480 0.961 . S
C473 H481 0.960 . S
C474 C472 1.381 . S
C474 C475 1.394 . S
C474 H482 0.930 . S
C475 C474 1.394 . S
C475 C476 1.383 . S
C475 H483 0.929 . S
C476 C475 1.383 . S
C476 C477 1.377 . S
C477 H461 0.930 . S
C477 C476 1.377 . S
C477 C478 1.379 . S
C478 H462 0.931 . S
C478 C472 1.383 . S
C478 C477 1.379 . S
H479 C473 0.959 . S
H480 C473 0.961 . S
H481 C473 0.960 . S
H482 C474 0.930 . S
H483 C475 0.929 . S
H484 C492 0.929 . S
H485 C494 0.930 . S
H486 C496 0.930 . S
H487 C499 0.929 . S
H488 C502 0.930 . S
H489 C504 0.960 . S
H490 C504 0.960 . S
H491 C504 0.960 . S
C492 H484 0.929 . S
C492 C493 1.377 . S
C492 C494 1.384 . S
C493 C492 1.377 . S
C493 C499 1.390 . S
C494 H485 0.930 . S
C494 C492 1.384 . S
C494 C495 1.372 . S
C495 C494 1.372 . S
C495 C496 1.400 . S
C495 C500 1.490 . S
C496 H486 0.930 . S
C496 C495 1.400 . S
C496 C499 1.386 . S
H497 C513 0.930 . S
H498 C514 0.931 . S
C499 H487 0.929 . S
C499 C493 1.390 . S
C499 C496 1.386 . S
C500 C495 1.490 . S
C500 C502 1.395 . S
C500 C503 1.403 . S
H501 C507 0.930 . S
C502 H488 0.930 . S
C502 C500 1.395 . S
C502 C505 1.403 . S
C503 C500 1.403 . S
C503 C504 1.524 . S
C503 C507 1.400 . S
C504 H489 0.960 . S
C504 H490 0.960 . S
C504 H491 0.960 . S
C504 C503 1.524 . S
C505 C502 1.403 . S
C505 C506 1.392 . S
C505 C509 1.495 . S
C506 C505 1.392 . S
C506 C507 1.385 . S
C506 C508 1.478 . S
C507 H501 0.930 . S
C507 C503 1.400 . S
C507 C506 1.385 . S
C508 C506 1.478 . S
C508 C510 1.381 . S
C508 C514 1.383 . S
C509 C505 1.495 . S
C509 H515 0.959 . S
C509 H516 0.961 . S
C509 H517 0.960 . S
C510 C508 1.381 . S
C510 C511 1.394 . S
C510 H518 0.930 . S
C511 C510 1.394 . S
C511 C512 1.383 . S
C511 H519 0.929 . S
C512 C511 1.383 . S
C512 C513 1.377 . S
C513 H497 0.930 . S
C513 C512 1.377 . S
C513 C514 1.379 . S
C514 H498 0.931 . S
C514 C508 1.383 . S
C514 C513 1.379 . S
H515 C509 0.959 . S
H516 C509 0.961 . S
H517 C509 0.960 . S
H518 C510 0.930 . S
H519 C511 0.929 . S
H520 C528 0.929 . S
H521 C530 0.930 . S
H522 C532 0.930 . S
H523 C535 0.929 . S
H524 C538 0.930 . S
H525 C540 0.960 . S
H526 C540 0.960 . S
H527 C540 0.960 . S
C528 H520 0.929 . S
C528 C529 1.377 . S
C528 C530 1.384 . S
C529 C528 1.377 . S
C529 C535 1.390 . S
C530 H521 0.930 . S
C530 C528 1.384 . S
C530 C531 1.372 . S
C531 C530 1.372 . S
C531 C532 1.400 . S
C531 C536 1.490 . S
C532 H522 0.930 . S
C532 C531 1.400 . S
C532 C535 1.386 . S
H533 C549 0.930 . S
H534 C550 0.931 . S
C535 H523 0.929 . S
C535 C529 1.390 . S
C535 C532 1.386 . S
C536 C531 1.490 . S
C536 C538 1.395 . S
C536 C539 1.403 . S
H537 C543 0.930 . S
C538 H524 0.930 . S
C538 C536 1.395 . S
C538 C541 1.403 . S
C539 C536 1.403 . S
C539 C540 1.524 . S
C539 C543 1.400 . S
C540 H525 0.960 . S
C540 H526 0.960 . S
C540 H527 0.960 . S
C540 C539 1.524 . S
C541 C538 1.403 . S
C541 C542 1.392 . S
C541 C545 1.495 . S
C542 C541 1.392 . S
C542 C543 1.385 . S
C542 C544 1.478 . S
C543 H537 0.930 . S
C543 C539 1.400 . S
C543 C542 1.385 . S
C544 C542 1.478 . S
C544 C546 1.381 . S
C544 C550 1.383 . S
C545 C541 1.495 . S
C545 H551 0.959 . S
C545 H552 0.961 . S
C545 H553 0.960 . S
C546 C544 1.381 . S
C546 C547 1.394 . S
C546 H554 0.930 . S
C547 C546 1.394 . S
C547 C548 1.383 . S
C547 H555 0.929 . S
C548 C547 1.383 . S
C548 C549 1.377 . S
C549 H533 0.930 . S
C549 C548 1.377 . S
C549 C550 1.379 . S
C550 H534 0.931 . S
C550 C544 1.383 . S
C550 C549 1.379 . S
H551 C545 0.959 . S
H552 C545 0.961 . S
H553 C545 0.960 . S
H554 C546 0.930 . S
H555 C547 0.929 . S
H556 C564 0.929 . S
H557 C566 0.930 . S
H558 C568 0.930 . S
H559 C571 0.929 . S
H560 C574 0.930 . S
H561 C576 0.960 . S
H562 C576 0.960 . S
H563 C576 0.960 . S
C564 H556 0.929 . S
C564 C565 1.377 . S
C564 C566 1.384 . S
C565 C564 1.377 . S
C565 C571 1.390 . S
C566 H557 0.930 . S
C566 C564 1.384 . S
C566 C567 1.372 . S
C567 C566 1.372 . S
C567 C568 1.400 . S
C567 C572 1.490 . S
C568 H558 0.930 . S
C568 C567 1.400 . S
C568 C571 1.386 . S
H569 C585 0.930 . S
H570 C586 0.931 . S
C571 H559 0.929 . S
C571 C565 1.390 . S
C571 C568 1.386 . S
C572 C567 1.490 . S
C572 C574 1.395 . S
C572 C575 1.403 . S
H573 C579 0.930 . S
C574 H560 0.930 . S
C574 C572 1.395 . S
C574 C577 1.403 . S
C575 C572 1.403 . S
C575 C576 1.524 . S
C575 C579 1.400 . S
C576 H561 0.960 . S
C576 H562 0.960 . S
C576 H563 0.960 . S
C576 C575 1.524 . S
C577 C574 1.403 . S
C577 C578 1.392 . S
C577 C581 1.495 . S
C578 C577 1.392 . S
C578 C579 1.385 . S
C578 C580 1.478 . S
C579 H573 0.930 . S
C579 C575 1.400 . S
C579 C578 1.385 . S
C580 C578 1.478 . S
C580 C582 1.381 . S
C580 C586 1.383 . S
C581 C577 1.495 . S
C581 H587 0.959 . S
C581 H588 0.961 . S
C581 H589 0.960 . S
C582 C580 1.381 . S
C582 C583 1.394 . S
C582 H590 0.930 . S
C583 C582 1.394 . S
C583 C584 1.383 . S
C583 H591 0.929 . S
C584 C583 1.383 . S
C584 C585 1.377 . S
C585 H569 0.930 . S
C585 C584 1.377 . S
C585 C586 1.379 . S
C586 H570 0.931 . S
C586 C580 1.383 . S
C586 C585 1.379 . S
H587 C581 0.959 . S
H588 C581 0.961 . S
H589 C581 0.960 . S
H590 C582 0.930 . S
H591 C583 0.929 . S
H592 C600 0.929 . S
H593 C602 0.930 . S
H594 C604 0.930 . S
H595 C607 0.929 . S
H596 C610 0.930 . S
H597 C612 0.960 . S
H598 C612 0.960 . S
H599 C612 0.960 . S
C600 H592 0.929 . S
C600 C601 1.377 . S
C600 C602 1.384 . S
C601 C600 1.377 . S
C601 C607 1.390 . S
C602 H593 0.930 . S
C602 C600 1.384 . S
C602 C603 1.372 . S
C603 C602 1.372 . S
C603 C604 1.400 . S
C603 C608 1.490 . S
C604 H594 0.930 . S
C604 C603 1.400 . S
C604 C607 1.386 . S
H605 C621 0.930 . S
H606 C622 0.931 . S
C607 H595 0.929 . S
C607 C601 1.390 . S
C607 C604 1.386 . S
C608 C603 1.490 . S
C608 C610 1.395 . S
C608 C611 1.403 . S
H609 C615 0.930 . S
C610 H596 0.930 . S
C610 C608 1.395 . S
C610 C613 1.403 . S
C611 C608 1.403 . S
C611 C612 1.524 . S
C611 C615 1.400 . S
C612 H597 0.960 . S
C612 H598 0.960 . S
C612 H599 0.960 . S
C612 C611 1.524 . S
C613 C610 1.403 . S
C613 C614 1.392 . S
C613 C617 1.495 . S
C614 C613 1.392 . S
C614 C615 1.385 . S
C614 C616 1.478 . S
C615 H609 0.930 . S
C615 C611 1.400 . S
C615 C614 1.385 . S
C616 C614 1.478 . S
C616 C618 1.381 . S
C616 C622 1.383 . S
C617 C613 1.495 . S
C617 H623 0.959 . S
C617 H624 0.961 . S
C617 H625 0.960 . S
C618 C616 1.381 . S
C618 C619 1.394 . S
C618 H626 0.930 . S
C619 C618 1.394 . S
C619 C620 1.383 . S
C619 H627 0.929 . S
C620 C619 1.383 . S
C620 C621 1.377 . S
C621 H605 0.930 . S
C621 C620 1.377 . S
C621 C622 1.379 . S
C622 H606 0.931 . S
C622 C616 1.383 . S
C622 C621 1.379 . S
H623 C617 0.959 . S
H624 C617 0.961 . S
H625 C617 0.960 . S
H626 C618 0.930 . S
H627 C619 0.929 . S
H628 C636 0.929 . S
H629 C638 0.930 . S
H630 C640 0.930 . S
H631 C643 0.929 . S
H632 C646 0.930 . S
H633 C648 0.960 . S
H634 C648 0.960 . S
H635 C648 0.960 . S
C636 H628 0.929 . S
C636 C637 1.377 . S
C636 C638 1.384 . S
C637 C636 1.377 . S
C637 C643 1.390 . S
C638 H629 0.930 . S
C638 C636 1.384 . S
C638 C639 1.372 . S
C639 C638 1.372 . S
C639 C640 1.400 . S
C639 C644 1.490 . S
C640 H630 0.930 . S
C640 C639 1.400 . S
C640 C643 1.386 . S
H641 C657 0.930 . S
H642 C658 0.931 . S
C643 H631 0.929 . S
C643 C637 1.390 . S
C643 C640 1.386 . S
C644 C639 1.490 . S
C644 C646 1.395 . S
C644 C647 1.403 . S
H645 C651 0.930 . S
C646 H632 0.930 . S
C646 C644 1.395 . S
C646 C649 1.403 . S
C647 C644 1.403 . S
C647 C648 1.524 . S
C647 C651 1.400 . S
C648 H633 0.960 . S
C648 H634 0.960 . S
C648 H635 0.960 . S
C648 C647 1.524 . S
C649 C646 1.403 . S
C649 C650 1.392 . S
C649 C653 1.495 . S
C650 C649 1.392 . S
C650 C651 1.385 . S
C650 C652 1.478 . S
C651 H645 0.930 . S
C651 C647 1.400 . S
C651 C650 1.385 . S
C652 C650 1.478 . S
C652 C654 1.381 . S
C652 C658 1.383 . S
C653 C649 1.495 . S
C653 H659 0.959 . S
C653 H660 0.961 . S
C653 H661 0.960 . S
C654 C652 1.381 . S
C654 C655 1.394 . S
C654 H662 0.930 . S
C655 C654 1.394 . S
C655 C656 1.383 . S
C655 H663 0.929 . S
C656 C655 1.383 . S
C656 C657 1.377 . S
C657 H641 0.930 . S
C657 C656 1.377 . S
C657 C658 1.379 . S
C658 H642 0.931 . S
C658 C652 1.383 . S
C658 C657 1.379 . S
H659 C653 0.959 . S
H660 C653 0.961 . S
H661 C653 0.960 . S
H662 C654 0.930 . S
H663 C655 0.929 . S
H664 C672 0.929 . S
H665 C674 0.930 . S
H666 C676 0.930 . S
H667 C679 0.929 . S
H668 C682 0.930 . S
H669 C684 0.960 . S
H670 C684 0.960 . S
H671 C684 0.960 . S
C672 H664 0.929 . S
C672 C673 1.377 . S
C672 C674 1.384 . S
C673 C672 1.377 . S
C673 C679 1.390 . S
C674 H665 0.930 . S
C674 C672 1.384 . S
C674 C675 1.372 . S
C675 C674 1.372 . S
C675 C676 1.400 . S
C675 C680 1.490 . S
C676 H666 0.930 . S
C676 C675 1.400 . S
C676 C679 1.386 . S
H677 C693 0.930 . S
H678 C694 0.931 . S
C679 H667 0.929 . S
C679 C673 1.390 . S
C679 C676 1.386 . S
C680 C675 1.490 . S
C680 C682 1.395 . S
C680 C683 1.403 . S
H681 C687 0.930 . S
C682 H668 0.930 . S
C682 C680 1.395 . S
C682 C685 1.403 . S
C683 C680 1.403 . S
C683 C684 1.524 . S
C683 C687 1.400 . S
C684 H669 0.960 . S
C684 H670 0.960 . S
C684 H671 0.960 . S
C684 C683 1.524 . S
C685 C682 1.403 . S
C685 C686 1.392 . S
C685 C689 1.495 . S
C686 C685 1.392 . S
C686 C687 1.385 . S
C686 C688 1.478 . S
C687 H681 0.930 . S
C687 C683 1.400 . S
C687 C686 1.385 . S
C688 C686 1.478 . S
C688 C690 1.381 . S
C688 C694 1.383 . S
C689 C685 1.495 . S
C689 H695 0.959 . S
C689 H696 0.961 . S
C689 H697 0.960 . S
C690 C688 1.381 . S
C690 C691 1.394 . S
C690 H698 0.930 . S
C691 C690 1.394 . S
C691 C692 1.383 . S
C691 H699 0.929 . S
C692 C691 1.383 . S
C692 C693 1.377 . S
C693 H677 0.930 . S
C693 C692 1.377 . S
C693 C694 1.379 . S
C694 H678 0.931 . S
C694 C688 1.383 . S
C694 C693 1.379 . S
H695 C689 0.959 . S
H696 C689 0.961 . S
H697 C689 0.960 . S
H698 C690 0.930 . S
H699 C691 0.929 . S
H700 C708 0.929 . S
H701 C710 0.930 . S
H702 C712 0.930 . S
H703 C715 0.929 . S
H704 C718 0.930 . S
H705 C720 0.960 . S
H706 C720 0.960 . S
H707 C720 0.960 . S
C708 H700 0.929 . S
C708 C709 1.377 . S
C708 C710 1.384 . S
C709 C708 1.377 . S
C709 C715 1.390 . S
C710 H701 0.930 . S
C710 C708 1.384 . S
C710 C711 1.372 . S
C711 C710 1.372 . S
C711 C712 1.400 . S
C711 C716 1.490 . S
C712 H702 0.930 . S
C712 C711 1.400 . S
C712 C715 1.386 . S
H713 C729 0.930 . S
H714 C730 0.931 . S
C715 H703 0.929 . S
C715 C709 1.390 . S
C715 C712 1.386 . S
C716 C711 1.490 . S
C716 C718 1.395 . S
C716 C719 1.403 . S
H717 C723 0.930 . S
C718 H704 0.930 . S
C718 C716 1.395 . S
C718 C721 1.403 . S
C719 C716 1.403 . S
C719 C720 1.524 . S
C719 C723 1.400 . S
C720 H705 0.960 . S
C720 H706 0.960 . S
C720 H707 0.960 . S
C720 C719 1.524 . S
C721 C718 1.403 . S
C721 C722 1.392 . S
C721 C725 1.495 . S
C722 C721 1.392 . S
C722 C723 1.385 . S
C722 C724 1.478 . S
C723 H717 0.930 . S
C723 C719 1.400 . S
C723 C722 1.385 . S
C724 C722 1.478 . S
C724 C726 1.381 . S
C724 C730 1.383 . S
C725 C721 1.495 . S
C725 H731 0.959 . S
C725 H732 0.961 . S
C725 H733 0.960 . S
C726 C724 1.381 . S
C726 C727 1.394 . S
C726 H734 0.930 . S
C727 C726 1.394 . S
C727 C728 1.383 . S
C727 H735 0.929 . S
C728 C727 1.383 . S
C728 C729 1.377 . S
C729 H713 0.930 . S
C729 C728 1.377 . S
C729 C730 1.379 . S
C730 H714 0.931 . S
C730 C724 1.383 . S
C730 C729 1.379 . S
H731 C725 0.959 . S
H732 C725 0.961 . S
H733 C725 0.960 . S
H734 C726 0.930 . S
H735 C727 0.929 . S
H736 C744 0.929 . S
H737 C746 0.930 . S
H738 C748 0.930 . S
H739 C751 0.929 . S
H740 C754 0.930 . S
H741 C756 0.960 . S
H742 C756 0.960 . S
H743 C756 0.960 . S
C744 H736 0.929 . S
C744 C745 1.377 . S
C744 C746 1.384 . S
C745 C744 1.377 . S
C745 C751 1.390 . S
C746 H737 0.930 . S
C746 C744 1.384 . S
C746 C747 1.372 . S
C747 C746 1.372 . S
C747 C748 1.400 . S
C747 C752 1.490 . S
C748 H738 0.930 . S
C748 C747 1.400 . S
C748 C751 1.386 . S
H749 C765 0.930 . S
H750 C766 0.931 . S
C751 H739 0.929 . S
C751 C745 1.390 . S
C751 C748 1.386 . S
C752 C747 1.490 . S
C752 C754 1.395 . S
C752 C755 1.403 . S
H753 C759 0.930 . S
C754 H740 0.930 . S
C754 C752 1.395 . S
C754 C757 1.403 . S
C755 C752 1.403 . S
C755 C756 1.524 . S
C755 C759 1.400 . S
C756 H741 0.960 . S
C756 H742 0.960 . S
C756 H743 0.960 . S
C756 C755 1.524 . S
C757 C754 1.403 . S
C757 C758 1.392 . S
C757 C761 1.495 . S
C758 C757 1.392 . S
C758 C759 1.385 . S
C758 C760 1.478 . S
C759 H753 0.930 . S
C759 C755 1.400 . S
C759 C758 1.385 . S
C760 C758 1.478 . S
C760 C762 1.381 . S
C760 C766 1.383 . S
C761 C757 1.495 . S
C761 H767 0.959 . S
C761 H768 0.961 . S
C761 H769 0.960 . S
C762 C760 1.381 . S
C762 C763 1.394 . S
C762 H770 0.930 . S
C763 C762 1.394 . S
C763 C764 1.383 . S
C763 H771 0.929 . S
C764 C763 1.383 . S
C764 C765 1.377 . S
C765 H749 0.930 . S
C765 C764 1.377 . S
C765 C766 1.379 . S
C766 H750 0.931 . S
C766 C760 1.383 . S
C766 C765 1.379 . S
H767 C761 0.959 . S
H768 C761 0.961 . S
H769 C761 0.960 . S
H770 C762 0.930 . S
H771 C763 0.929 . S
H772 C780 0.929 . S
H773 C782 0.930 . S
H774 C784 0.930 . S
H775 C787 0.929 . S
H776 C790 0.930 . S
H777 C792 0.960 . S
H778 C792 0.960 . S
H779 C792 0.960 . S
C780 H772 0.929 . S
C780 C781 1.377 . S
C780 C782 1.384 . S
C781 C780 1.377 . S
C781 C787 1.390 . S
C782 H773 0.930 . S
C782 C780 1.384 . S
C782 C783 1.372 . S
C783 C782 1.372 . S
C783 C784 1.400 . S
C783 C788 1.490 . S
C784 H774 0.930 . S
C784 C783 1.400 . S
C784 C787 1.386 . S
H785 C801 0.930 . S
H786 C802 0.931 . S
C787 H775 0.929 . S
C787 C781 1.390 . S
C787 C784 1.386 . S
C788 C783 1.490 . S
C788 C790 1.395 . S
C788 C791 1.403 . S
H789 C795 0.930 . S
C790 H776 0.930 . S
C790 C788 1.395 . S
C790 C793 1.403 . S
C791 C788 1.403 . S
C791 C792 1.524 . S
C791 C795 1.400 . S
C792 H777 0.960 . S
C792 H778 0.960 . S
C792 H779 0.960 . S
C792 C791 1.524 . S
C793 C790 1.403 . S
C793 C794 1.392 . S
C793 C797 1.495 . S
C794 C793 1.392 . S
C794 C795 1.385 . S
C794 C796 1.478 . S
C795 H789 0.930 . S
C795 C791 1.400 . S
C795 C794 1.385 . S
C796 C794 1.478 . S
C796 C798 1.381 . S
C796 C802 1.383 . S
C797 C793 1.495 . S
C797 H803 0.959 . S
C797 H804 0.961 . S
C797 H805 0.960 . S
C798 C796 1.381 . S
C798 C799 1.394 . S
C798 H806 0.930 . S
C799 C798 1.394 . S
C799 C800 1.383 . S
C799 H807 0.929 1_455 S
C800 C799 1.383 . S
C800 C801 1.377 . S
C801 H785 0.930 . S
C801 C800 1.377 . S
C801 C802 1.379 . S
C802 H786 0.931 . S
C802 C796 1.383 . S
C802 C801 1.379 . S
H803 C797 0.959 . S
H804 C797 0.961 . S
H805 C797 0.960 . S
H806 C798 0.930 . S
H807 C799 0.929 1_655 S
H808 C816 0.929 . S
H809 C818 0.930 . S
H810 C820 0.930 . S
H811 C823 0.929 . S
H812 C826 0.930 . S
H813 C828 0.960 . S
H814 C828 0.960 . S
H815 C828 0.960 . S
C816 H808 0.929 . S
C816 C817 1.377 . S
C816 C818 1.384 . S
C817 C816 1.377 . S
C817 C823 1.390 . S
C818 H809 0.930 . S
C818 C816 1.384 . S
C818 C819 1.372 . S
C819 C818 1.372 . S
C819 C820 1.400 . S
C819 C824 1.490 . S
C820 H810 0.930 . S
C820 C819 1.400 . S
C820 C823 1.386 . S
H821 C837 0.930 . S
H822 C838 0.931 . S
C823 H811 0.929 . S
C823 C817 1.390 . S
C823 C820 1.386 . S
C824 C819 1.490 . S
C824 C826 1.395 . S
C824 C827 1.403 . S
H825 C831 0.930 . S
C826 H812 0.930 . S
C826 C824 1.395 . S
C826 C829 1.403 . S
C827 C824 1.403 . S
C827 C828 1.524 . S
C827 C831 1.400 . S
C828 H813 0.960 . S
C828 H814 0.960 . S
C828 H815 0.960 . S
C828 C827 1.524 . S
C829 C826 1.403 . S
C829 C830 1.392 . S
C829 C833 1.495 . S
C830 C829 1.392 . S
C830 C831 1.385 . S
C830 C832 1.478 . S
C831 H825 0.930 . S
C831 C827 1.400 . S
C831 C830 1.385 . S
C832 C830 1.478 . S
C832 C834 1.381 . S
C832 C838 1.383 . S
C833 C829 1.495 . S
C833 H839 0.959 . S
C833 H840 0.961 . S
C833 H841 0.960 . S
C834 C832 1.381 . S
C834 C835 1.394 . S
C834 H842 0.930 . S
C835 C834 1.394 . S
C835 C836 1.383 . S
C835 H843 0.929 . S
C836 C835 1.383 . S
C836 C837 1.377 . S
C837 H821 0.930 . S
C837 C836 1.377 . S
C837 C838 1.379 . S
C838 H822 0.931 . S
C838 C832 1.383 . S
C838 C837 1.379 . S
H839 C833 0.959 . S
H840 C833 0.961 . S
H841 C833 0.960 . S
H842 C834 0.930 . S
H843 C835 0.929 . S
H844 C852 0.929 . S
H845 C854 0.930 . S
H846 C856 0.930 . S
H847 C859 0.929 . S
H848 C862 0.930 . S
H849 C864 0.960 . S
H850 C864 0.960 . S
H851 C864 0.960 . S
C852 H844 0.929 . S
C852 C853 1.377 . S
C852 C854 1.384 . S
C853 C852 1.377 . S
C853 C859 1.390 . S
C854 H845 0.930 . S
C854 C852 1.384 . S
C854 C855 1.372 . S
C855 C854 1.372 . S
C855 C856 1.400 . S
C855 C860 1.490 . S
C856 H846 0.930 . S
C856 C855 1.400 . S
C856 C859 1.386 . S
H857 C873 0.930 . S
H858 C874 0.931 . S
C859 H847 0.929 . S
C859 C853 1.390 . S
C859 C856 1.386 . S
C860 C855 1.490 . S
C860 C862 1.395 . S
C860 C863 1.403 . S
H861 C867 0.930 . S
C862 H848 0.930 . S
C862 C860 1.395 . S
C862 C865 1.403 . S
C863 C860 1.403 . S
C863 C864 1.524 . S
C863 C867 1.400 . S
C864 H849 0.960 . S
C864 H850 0.960 . S
C864 H851 0.960 . S
C864 C863 1.524 . S
C865 C862 1.403 . S
C865 C866 1.392 . S
C865 C869 1.495 . S
C866 C865 1.392 . S
C866 C867 1.385 . S
C866 C868 1.478 . S
C867 H861 0.930 . S
C867 C863 1.400 . S
C867 C866 1.385 . S
C868 C866 1.478 . S
C868 C870 1.381 . S
C868 C874 1.383 . S
C869 C865 1.495 . S
C869 H875 0.959 . S
C869 H876 0.961 . S
C869 H877 0.960 . S
C870 C868 1.381 . S
C870 C871 1.394 . S
C870 H878 0.930 . S
C871 C870 1.394 . S
C871 C872 1.383 . S
C871 H879 0.929 . S
C872 C871 1.383 . S
C872 C873 1.377 . S
C873 H857 0.930 . S
C873 C872 1.377 . S
C873 C874 1.379 . S
C874 H858 0.931 . S
C874 C868 1.383 . S
C874 C873 1.379 . S
H875 C869 0.959 . S
H876 C869 0.961 . S
H877 C869 0.960 . S
H878 C870 0.930 . S
H879 C871 0.929 . S
H880 C888 0.929 . S
H881 C890 0.930 . S
H882 C892 0.930 . S
H883 C895 0.929 . S
H884 C898 0.930 . S
H885 C900 0.960 . S
H886 C900 0.960 . S
H887 C900 0.960 . S
C888 H880 0.929 . S
C888 C889 1.377 . S
C888 C890 1.384 . S
C889 C888 1.377 . S
C889 C895 1.390 . S
C890 H881 0.930 . S
C890 C888 1.384 . S
C890 C891 1.372 . S
C891 C890 1.372 . S
C891 C892 1.400 . S
C891 C896 1.490 . S
C892 H882 0.930 . S
C892 C891 1.400 . S
C892 C895 1.386 . S
H893 C909 0.930 . S
H894 C910 0.931 . S
C895 H883 0.929 . S
C895 C889 1.390 . S
C895 C892 1.386 . S
C896 C891 1.490 . S
C896 C898 1.395 . S
C896 C899 1.403 . S
H897 C903 0.930 . S
C898 H884 0.930 . S
C898 C896 1.395 . S
C898 C901 1.403 . S
C899 C896 1.403 . S
C899 C900 1.524 . S
C899 C903 1.400 . S
C900 H885 0.960 . S
C900 H886 0.960 . S
C900 H887 0.960 . S
C900 C899 1.524 . S
C901 C898 1.403 . S
C901 C902 1.392 . S
C901 C905 1.495 . S
C902 C901 1.392 . S
C902 C903 1.385 . S
C902 C904 1.478 . S
C903 H897 0.930 . S
C903 C899 1.400 . S
C903 C902 1.385 . S
C904 C902 1.478 . S
C904 C906 1.381 . S
C904 C910 1.383 . S
C905 C901 1.495 . S
C905 H911 0.959 . S
C905 H912 0.961 . S
C905 H913 0.960 . S
C906 C904 1.381 . S
C906 C907 1.394 . S
C906 H914 0.930 . S
C907 C906 1.394 . S
C907 C908 1.383 . S
C907 H915 0.929 . S
C908 C907 1.383 . S
C908 C909 1.377 . S
C909 H893 0.930 . S
C909 C908 1.377 . S
C909 C910 1.379 . S
C910 H894 0.931 . S
C910 C904 1.383 . S
C910 C909 1.379 . S
H911 C905 0.959 . S
H912 C905 0.961 . S
H913 C905 0.960 . S
H914 C906 0.930 . S
H915 C907 0.929 . S
H916 C924 0.929 . S
H917 C926 0.930 . S
H918 C928 0.930 . S
H919 C931 0.929 . S
H920 C934 0.930 . S
H921 C936 0.960 . S
H922 C936 0.960 . S
H923 C936 0.960 . S
C924 H916 0.929 . S
C924 C925 1.377 . S
C924 C926 1.384 . S
C925 C924 1.377 . S
C925 C931 1.390 . S
C926 H917 0.930 . S
C926 C924 1.384 . S
C926 C927 1.372 . S
C927 C926 1.372 . S
C927 C928 1.400 . S
C927 C932 1.490 . S
C928 H918 0.930 . S
C928 C927 1.400 . S
C928 C931 1.386 . S
H929 C945 0.930 . S
H930 C946 0.931 . S
C931 H919 0.929 . S
C931 C925 1.390 . S
C931 C928 1.386 . S
C932 C927 1.490 . S
C932 C934 1.395 . S
C932 C935 1.403 . S
H933 C939 0.930 . S
C934 H920 0.930 . S
C934 C932 1.395 . S
C934 C937 1.403 . S
C935 C932 1.403 . S
C935 C936 1.524 . S
C935 C939 1.400 . S
C936 H921 0.960 . S
C936 H922 0.960 . S
C936 H923 0.960 . S
C936 C935 1.524 . S
C937 C934 1.403 . S
C937 C938 1.392 . S
C937 C941 1.495 . S
C938 C937 1.392 . S
C938 C939 1.385 . S
C938 C940 1.478 . S
C939 H933 0.930 . S
C939 C935 1.400 . S
C939 C938 1.385 . S
C940 C938 1.478 . S
C940 C942 1.381 . S
C940 C946 1.383 . S
C941 C937 1.495 . S
C941 H947 0.959 . S
C941 H948 0.961 . S
C941 H949 0.960 . S
C942 C940 1.381 . S
C942 C943 1.394 . S
C942 H950 0.930 . S
C943 C942 1.394 . S
C943 C944 1.383 . S
C943 H951 0.929 . S
C944 C943 1.383 . S
C944 C945 1.377 . S
C945 H929 0.930 . S
C945 C944 1.377 . S
C945 C946 1.379 . S
C946 H930 0.931 . S
C946 C940 1.383 . S
C946 C945 1.379 . S
H947 C941 0.959 . S
H948 C941 0.961 . S
H949 C941 0.960 . S
H950 C942 0.930 . S
H951 C943 0.929 . S
H952 C960 0.929 . S
H953 C962 0.930 . S
H954 C964 0.930 . S
H955 C967 0.929 . S
H956 C970 0.930 . S
H957 C972 0.960 . S
H958 C972 0.960 . S
H959 C972 0.960 . S
C960 H952 0.929 . S
C960 C961 1.377 . S
C960 C962 1.384 . S
C961 C960 1.377 . S
C961 C967 1.390 . S
C962 H953 0.930 . S
C962 C960 1.384 . S
C962 C963 1.372 . S
C963 C962 1.372 . S
C963 C964 1.400 . S
C963 C968 1.490 . S
C964 H954 0.930 . S
C964 C963 1.400 . S
C964 C967 1.386 . S
H965 C981 0.930 . S
H966 C982 0.931 . S
C967 H955 0.929 . S
C967 C961 1.390 . S
C967 C964 1.386 . S
C968 C963 1.490 . S
C968 C970 1.395 . S
C968 C971 1.403 . S
H969 C975 0.930 . S
C970 H956 0.930 . S
C970 C968 1.395 . S
C970 C973 1.403 . S
C971 C968 1.403 . S
C971 C972 1.524 . S
C971 C975 1.400 . S
C972 H957 0.960 . S
C972 H958 0.960 . S
C972 H959 0.960 . S
C972 C971 1.524 . S
C973 C970 1.403 . S
C973 C974 1.392 . S
C973 C977 1.495 . S
C974 C973 1.392 . S
C974 C975 1.385 . S
C974 C976 1.478 . S
C975 H969 0.930 . S
C975 C971 1.400 . S
C975 C974 1.385 . S
C976 C974 1.478 . S
C976 C978 1.381 . S
C976 C982 1.383 . S
C977 C973 1.495 . S
C977 H983 0.959 . S
C977 H984 0.961 . S
C977 H985 0.960 . S
C978 C976 1.381 . S
C978 C979 1.394 . S
C978 H986 0.930 . S
C979 C978 1.394 . S
C979 C980 1.383 . S
C979 H987 0.929 . S
C980 C979 1.383 . S
C980 C981 1.377 . S
C981 H965 0.930 . S
C981 C980 1.377 . S
C981 C982 1.379 . S
C982 H966 0.931 . S
C982 C976 1.383 . S
C982 C981 1.379 . S
H983 C977 0.959 . S
H984 C977 0.961 . S
H985 C977 0.960 . S
H986 C978 0.930 . S
H987 C979 0.929 . S
H988 C996 0.929 . S
H989 C998 0.930 . S
H990 C1000 0.930 . S
H991 C1003 0.929 . S
H992 C1006 0.930 . S
H993 C1008 0.960 . S
H994 C1008 0.960 . S
H995 C1008 0.960 . S
C996 H988 0.929 . S
C996 C997 1.377 . S
C996 C998 1.384 . S
C997 C996 1.377 . S
C997 C1003 1.390 . S
C998 H989 0.930 . S
C998 C996 1.384 . S
C998 C999 1.372 . S
C999 C998 1.372 . S
C999 C1000 1.400 . S
C999 C1004 1.490 . S
C1000 H990 0.930 . S
C1000 C999 1.400 . S
C1000 C1003 1.386 . S
H1001 C1017 0.930 1_655 S
H1002 C1018 0.931 . S
C1003 H991 0.929 . S
C1003 C997 1.390 . S
C1003 C1000 1.386 . S
C1004 C999 1.490 . S
C1004 C1006 1.395 . S
C1004 C1007 1.403 . S
H1005 C1011 0.930 . S
C1006 H992 0.930 . S
C1006 C1004 1.395 . S
C1006 C1009 1.403 . S
C1007 C1004 1.403 . S
C1007 C1008 1.524 . S
C1007 C1011 1.400 . S
C1008 H993 0.960 . S
C1008 H994 0.960 . S
C1008 H995 0.960 . S
C1008 C1007 1.524 . S
C1009 C1006 1.403 . S
C1009 C1010 1.392 . S
C1009 C1013 1.495 . S
C1010 C1009 1.392 . S
C1010 C1011 1.385 . S
C1010 C1012 1.478 . S
C1011 H1005 0.930 . S
C1011 C1007 1.400 . S
C1011 C1010 1.385 . S
C1012 C1010 1.478 . S
C1012 C1014 1.381 . S
C1012 C1018 1.383 . S
C1013 C1009 1.495 . S
C1013 H1019 0.959 . S
C1013 H1020 0.961 . S
C1013 H1021 0.960 . S
C1014 C1012 1.381 . S
C1014 C1015 1.394 . S
C1014 H1022 0.930 . S
C1015 C1014 1.394 . S
C1015 C1016 1.383 . S
C1015 H1023 0.929 . S
C1016 C1015 1.383 . S
C1016 C1017 1.377 . S
C1017 H1001 0.930 1_455 S
C1017 C1016 1.377 . S
C1017 C1018 1.379 . S
C1018 H1002 0.931 . S
C1018 C1012 1.383 . S
C1018 C1017 1.379 . S
H1019 C1013 0.959 . S
H1020 C1013 0.961 . S
H1021 C1013 0.960 . S
H1022 C1014 0.930 . S
H1023 C1015 0.929 . S
H1024 C1032 0.929 . S
H1025 C1034 0.930 . S
H1026 C1036 0.930 . S
H1027 C1039 0.929 . S
H1028 C1042 0.930 . S
H1029 C1044 0.960 . S
H1030 C1044 0.960 . S
H1031 C1044 0.960 . S
C1032 H1024 0.929 . S
C1032 C1033 1.377 . S
C1032 C1034 1.384 . S
C1033 C1032 1.377 . S
C1033 C1039 1.390 . S
C1034 H1025 0.930 . S
C1034 C1032 1.384 . S
C1034 C1035 1.372 . S
C1035 C1034 1.372 . S
C1035 C1036 1.400 . S
C1035 C1040 1.490 . S
C1036 H1026 0.930 . S
C1036 C1035 1.400 . S
C1036 C1039 1.386 . S
H1037 C1053 0.930 . S
H1038 C1054 0.931 . S
C1039 H1027 0.929 . S
C1039 C1033 1.390 . S
C1039 C1036 1.386 . S
C1040 C1035 1.490 . S
C1040 C1042 1.395 . S
C1040 C1043 1.403 . S
H1041 C1047 0.930 . S
C1042 H1028 0.930 . S
C1042 C1040 1.395 . S
C1042 C1045 1.403 . S
C1043 C1040 1.403 . S
C1043 C1044 1.524 . S
C1043 C1047 1.400 . S
C1044 H1029 0.960 . S
C1044 H1030 0.960 . S
C1044 H1031 0.960 . S
C1044 C1043 1.524 . S
C1045 C1042 1.403 . S
C1045 C1046 1.392 . S
C1045 C1049 1.495 . S
C1046 C1045 1.392 . S
C1046 C1047 1.385 . S
C1046 C1048 1.478 . S
C1047 H1041 0.930 . S
C1047 C1043 1.400 . S
C1047 C1046 1.385 . S
C1048 C1046 1.478 . S
C1048 C1050 1.381 . S
C1048 C1054 1.383 . S
C1049 C1045 1.495 . S
C1049 H1055 0.959 . S
C1049 H1056 0.961 . S
C1049 H1057 0.960 . S
C1050 C1048 1.381 . S
C1050 C1051 1.394 . S
C1050 H1058 0.930 . S
C1051 C1050 1.394 . S
C1051 C1052 1.383 . S
C1051 H1059 0.929 . S
C1052 C1051 1.383 . S
C1052 C1053 1.377 . S
C1053 H1037 0.930 . S
C1053 C1052 1.377 . S
C1053 C1054 1.379 . S
C1054 H1038 0.931 . S
C1054 C1048 1.383 . S
C1054 C1053 1.379 . S
H1055 C1049 0.959 . S
H1056 C1049 0.961 . S
H1057 C1049 0.960 . S
H1058 C1050 0.930 . S
H1059 C1051 0.929 . S
H1060 C1068 0.929 . S
H1061 C1070 0.930 . S
H1062 C1072 0.930 . S
H1063 C1075 0.929 . S
H1064 C1078 0.930 . S
H1065 C1080 0.960 . S
H1066 C1080 0.960 . S
H1067 C1080 0.960 . S
C1068 H1060 0.929 . S
C1068 C1069 1.377 . S
C1068 C1070 1.384 . S
C1069 C1068 1.377 . S
C1069 C1075 1.390 . S
C1070 H1061 0.930 . S
C1070 C1068 1.384 . S
C1070 C1071 1.372 . S
C1071 C1070 1.372 . S
C1071 C1072 1.400 . S
C1071 C1076 1.490 . S
C1072 H1062 0.930 . S
C1072 C1071 1.400 . S
C1072 C1075 1.386 . S
H1073 C1089 0.930 . S
H1074 C1090 0.931 . S
C1075 H1063 0.929 . S
C1075 C1069 1.390 . S
C1075 C1072 1.386 . S
C1076 C1071 1.490 . S
C1076 C1078 1.395 . S
C1076 C1079 1.403 . S
H1077 C1083 0.930 . S
C1078 H1064 0.930 . S
C1078 C1076 1.395 . S
C1078 C1081 1.403 . S
C1079 C1076 1.403 . S
C1079 C1080 1.524 . S
C1079 C1083 1.400 . S
C1080 H1065 0.960 . S
C1080 H1066 0.960 . S
C1080 H1067 0.960 . S
C1080 C1079 1.524 . S
C1081 C1078 1.403 . S
C1081 C1082 1.392 . S
C1081 C1085 1.495 . S
C1082 C1081 1.392 . S
C1082 C1083 1.385 . S
C1082 C1084 1.478 . S
C1083 H1077 0.930 . S
C1083 C1079 1.400 . S
C1083 C1082 1.385 . S
C1084 C1082 1.478 . S
C1084 C1086 1.381 . S
C1084 C1090 1.383 . S
C1085 C1081 1.495 . S
C1085 H1091 0.959 . S
C1085 H1092 0.961 . S
C1085 H1093 0.960 . S
C1086 C1084 1.381 . S
C1086 C1087 1.394 . S
C1086 H1094 0.930 . S
C1087 C1086 1.394 . S
C1087 C1088 1.383 . S
C1087 H1095 0.929 . S
C1088 C1087 1.383 . S
C1088 C1089 1.377 . S
C1089 H1073 0.930 . S
C1089 C1088 1.377 . S
C1089 C1090 1.379 . S
C1090 H1074 0.931 . S
C1090 C1084 1.383 . S
C1090 C1089 1.379 . S
H1091 C1085 0.959 . S
H1092 C1085 0.961 . S
H1093 C1085 0.960 . S
H1094 C1086 0.930 . S
H1095 C1087 0.929 . S
H1096 C1104 0.929 . S
H1097 C1106 0.930 . S
H1098 C1108 0.930 . S
H1099 C1111 0.929 . S
H1100 C1114 0.930 . S
H1101 C1116 0.960 . S
H1102 C1116 0.960 . S
H1103 C1116 0.960 . S
C1104 H1096 0.929 . S
C1104 C1105 1.377 . S
C1104 C1106 1.384 . S
C1105 C1104 1.377 . S
C1105 C1111 1.390 . S
C1106 H1097 0.930 . S
C1106 C1104 1.384 . S
C1106 C1107 1.372 . S
C1107 C1106 1.372 . S
C1107 C1108 1.400 . S
C1107 C1112 1.490 . S
C1108 H1098 0.930 . S
C1108 C1107 1.400 . S
C1108 C1111 1.386 . S
H1109 C1125 0.930 . S
H1110 C1126 0.931 . S
C1111 H1099 0.929 . S
C1111 C1105 1.390 . S
C1111 C1108 1.386 . S
C1112 C1107 1.490 . S
C1112 C1114 1.395 . S
C1112 C1115 1.403 . S
H1113 C1119 0.930 . S
C1114 H1100 0.930 . S
C1114 C1112 1.395 . S
C1114 C1117 1.403 . S
C1115 C1112 1.403 . S
C1115 C1116 1.524 . S
C1115 C1119 1.400 . S
C1116 H1101 0.960 . S
C1116 H1102 0.960 . S
C1116 H1103 0.960 . S
C1116 C1115 1.524 . S
C1117 C1114 1.403 . S
C1117 C1118 1.392 . S
C1117 C1121 1.495 . S
C1118 C1117 1.392 . S
C1118 C1119 1.385 . S
C1118 C1120 1.478 . S
C1119 H1113 0.930 . S
C1119 C1115 1.400 . S
C1119 C1118 1.385 . S
C1120 C1118 1.478 . S
C1120 C1122 1.381 . S
C1120 C1126 1.383 . S
C1121 C1117 1.495 . S
C1121 H1127 0.959 . S
C1121 H1128 0.961 . S
C1121 H1129 0.960 . S
C1122 C1120 1.381 . S
C1122 C1123 1.394 . S
C1122 H1130 0.930 . S
C1123 C1122 1.394 . S
C1123 C1124 1.383 . S
C1123 H1131 0.929 . S
C1124 C1123 1.383 . S
C1124 C1125 1.377 . S
C1125 H1109 0.930 . S
C1125 C1124 1.377 . S
C1125 C1126 1.379 . S
C1126 H1110 0.931 . S
C1126 C1120 1.383 . S
C1126 C1125 1.379 . S
H1127 C1121 0.959 . S
H1128 C1121 0.961 . S
H1129 C1121 0.960 . S
H1130 C1122 0.930 . S
H1131 C1123 0.929 . S
H1132 C1140 0.929 . S
H1133 C1142 0.930 . S
H1134 C1144 0.930 . S
H1135 C1147 0.929 . S
H1136 C1150 0.930 . S
H1137 C1152 0.960 . S
H1138 C1152 0.960 . S
H1139 C1152 0.960 . S
C1140 H1132 0.929 . S
C1140 C1141 1.377 . S
C1140 C1142 1.384 . S
C1141 C1140 1.377 . S
C1141 C1147 1.390 . S
C1142 H1133 0.930 . S
C1142 C1140 1.384 . S
C1142 C1143 1.372 . S
C1143 C1142 1.372 . S
C1143 C1144 1.400 . S
C1143 C1148 1.490 . S
C1144 H1134 0.930 . S
C1144 C1143 1.400 . S
C1144 C1147 1.386 . S
H1145 C1161 0.930 . S
H1146 C1162 0.931 . S
C1147 H1135 0.929 . S
C1147 C1141 1.390 . S
C1147 C1144 1.386 . S
C1148 C1143 1.490 . S
C1148 C1150 1.395 . S
C1148 C1151 1.403 . S
H1149 C1155 0.930 . S
C1150 H1136 0.930 . S
C1150 C1148 1.395 . S
C1150 C1153 1.403 . S
C1151 C1148 1.403 . S
C1151 C1152 1.524 . S
C1151 C1155 1.400 . S
C1152 H1137 0.960 . S
C1152 H1138 0.960 . S
C1152 H1139 0.960 . S
C1152 C1151 1.524 . S
C1153 C1150 1.403 . S
C1153 C1154 1.392 . S
C1153 C1157 1.495 . S
C1154 C1153 1.392 . S
C1154 C1155 1.385 . S
C1154 C1156 1.478 . S
C1155 H1149 0.930 . S
C1155 C1151 1.400 . S
C1155 C1154 1.385 . S
C1156 C1154 1.478 . S
C1156 C1158 1.381 . S
C1156 C1162 1.383 . S
C1157 C1153 1.495 . S
C1157 H1163 0.959 . S
C1157 H1164 0.961 . S
C1157 H1165 0.960 . S
C1158 C1156 1.381 . S
C1158 C1159 1.394 . S
C1158 H1166 0.930 . S
C1159 C1158 1.394 . S
C1159 C1160 1.383 . S
C1159 H1167 0.929 . S
C1160 C1159 1.383 . S
C1160 C1161 1.377 . S
C1161 H1145 0.930 . S
C1161 C1160 1.377 . S
C1161 C1162 1.379 . S
C1162 H1146 0.931 . S
C1162 C1156 1.383 . S
C1162 C1161 1.379 . S
H1163 C1157 0.959 . S
H1164 C1157 0.961 . S
H1165 C1157 0.960 . S
H1166 C1158 0.930 . S
H1167 C1159 0.929 . S
H1168 C1176 0.929 . S
H1169 C1178 0.930 . S
H1170 C1180 0.930 . S
H1171 C1183 0.929 . S
H1172 C1186 0.930 . S
H1173 C1188 0.960 . S
H1174 C1188 0.960 . S
H1175 C1188 0.960 . S
C1176 H1168 0.929 . S
C1176 C1177 1.377 . S
C1176 C1178 1.384 . S
C1177 C1176 1.377 . S
C1177 C1183 1.390 . S
C1178 H1169 0.930 . S
C1178 C1176 1.384 . S
C1178 C1179 1.372 . S
C1179 C1178 1.372 . S
C1179 C1180 1.400 . S
C1179 C1184 1.490 . S
C1180 H1170 0.930 . S
C1180 C1179 1.400 . S
C1180 C1183 1.386 . S
H1181 C1197 0.930 . S
H1182 C1198 0.931 . S
C1183 H1171 0.929 . S
C1183 C1177 1.390 . S
C1183 C1180 1.386 . S
C1184 C1179 1.490 . S
C1184 C1186 1.395 . S
C1184 C1187 1.403 . S
H1185 C1191 0.930 . S
C1186 H1172 0.930 . S
C1186 C1184 1.395 . S
C1186 C1189 1.403 . S
C1187 C1184 1.403 . S
C1187 C1188 1.524 . S
C1187 C1191 1.400 . S
C1188 H1173 0.960 . S
C1188 H1174 0.960 . S
C1188 H1175 0.960 . S
C1188 C1187 1.524 . S
C1189 C1186 1.403 . S
C1189 C1190 1.392 . S
C1189 C1193 1.495 . S
C1190 C1189 1.392 . S
C1190 C1191 1.385 . S
C1190 C1192 1.478 . S
C1191 H1185 0.930 . S
C1191 C1187 1.400 . S
C1191 C1190 1.385 . S
C1192 C1190 1.478 . S
C1192 C1194 1.381 . S
C1192 C1198 1.383 . S
C1193 C1189 1.495 . S
C1193 H1199 0.959 . S
C1193 H1200 0.961 . S
C1193 H1201 0.960 . S
C1194 C1192 1.381 . S
C1194 C1195 1.394 . S
C1194 H1202 0.930 . S
C1195 C1194 1.394 . S
C1195 C1196 1.383 . S
C1195 H1203 0.929 . S
C1196 C1195 1.383 . S
C1196 C1197 1.377 . S
C1197 H1181 0.930 . S
C1197 C1196 1.377 . S
C1197 C1198 1.379 . S
C1198 H1182 0.931 . S
C1198 C1192 1.383 . S
C1198 C1197 1.379 . S
H1199 C1193 0.959 . S
H1200 C1193 0.961 . S
H1201 C1193 0.960 . S
H1202 C1194 0.930 . S
H1203 C1195 0.929 . S
H1204 C1212 0.929 . S
H1205 C1214 0.930 . S
H1206 C1216 0.930 . S
H1207 C1219 0.929 . S
H1208 C1222 0.930 . S
H1209 C1224 0.960 . S
H1210 C1224 0.960 . S
H1211 C1224 0.960 . S
C1212 H1204 0.929 . S
C1212 C1213 1.377 . S
C1212 C1214 1.384 . S
C1213 C1212 1.377 . S
C1213 C1219 1.390 . S
C1214 H1205 0.930 . S
C1214 C1212 1.384 . S
C1214 C1215 1.372 . S
C1215 C1214 1.372 . S
C1215 C1216 1.400 . S
C1215 C1220 1.490 . S
C1216 H1206 0.930 . S
C1216 C1215 1.400 . S
C1216 C1219 1.386 . S
H1217 C1233 0.930 1_655 S
H1218 C1234 0.931 . S
C1219 H1207 0.929 . S
C1219 C1213 1.390 . S
C1219 C1216 1.386 . S
C1220 C1215 1.490 . S
C1220 C1222 1.395 . S
C1220 C1223 1.403 . S
H1221 C1227 0.930 . S
C1222 H1208 0.930 . S
C1222 C1220 1.395 . S
C1222 C1225 1.403 . S
C1223 C1220 1.403 . S
C1223 C1224 1.524 . S
C1223 C1227 1.400 . S
C1224 H1209 0.960 . S
C1224 H1210 0.960 . S
C1224 H1211 0.960 . S
C1224 C1223 1.524 . S
C1225 C1222 1.403 . S
C1225 C1226 1.392 . S
C1225 C1229 1.495 . S
C1226 C1225 1.392 . S
C1226 C1227 1.385 . S
C1226 C1228 1.478 . S
C1227 H1221 0.930 . S
C1227 C1223 1.400 . S
C1227 C1226 1.385 . S
C1228 C1226 1.478 . S
C1228 C1230 1.381 . S
C1228 C1234 1.383 . S
C1229 C1225 1.495 . S
C1229 H1235 0.959 . S
C1229 H1236 0.961 . S
C1229 H1237 0.960 . S
C1230 C1228 1.381 . S
C1230 C1231 1.394 . S
C1230 H1238 0.930 . S
C1231 C1230 1.394 . S
C1231 C1232 1.383 . S
C1231 H1239 0.929 . S
C1232 C1231 1.383 . S
C1232 C1233 1.377 . S
C1233 H1217 0.930 1_455 S
C1233 C1232 1.377 . S
C1233 C1234 1.379 . S
C1234 H1218 0.931 . S
C1234 C1228 1.383 . S
C1234 C1233 1.379 . S
H1235 C1229 0.959 . S
H1236 C1229 0.961 . S
H1237 C1229 0.960 . S
H1238 C1230 0.930 . S
H1239 C1231 0.929 . S
H1240 C1248 0.929 . S
H1241 C1250 0.930 . S
H1242 C1252 0.930 . S
H1243 C1255 0.929 . S
H1244 C1258 0.930 . S
H1245 C1260 0.960 . S
H1246 C1260 0.960 . S
H1247 C1260 0.960 . S
C1248 H1240 0.929 . S
C1248 C1249 1.377 . S
C1248 C1250 1.384 . S
C1249 C1248 1.377 . S
C1249 C1255 1.390 . S
C1250 H1241 0.930 . S
C1250 C1248 1.384 . S
C1250 C1251 1.372 . S
C1251 C1250 1.372 . S
C1251 C1252 1.400 . S
C1251 C1256 1.490 . S
C1252 H1242 0.930 . S
C1252 C1251 1.400 . S
C1252 C1255 1.386 . S
H1253 C1269 0.930 . S
H1254 C1270 0.931 . S
C1255 H1243 0.929 . S
C1255 C1249 1.390 . S
C1255 C1252 1.386 . S
C1256 C1251 1.490 . S
C1256 C1258 1.395 . S
C1256 C1259 1.403 . S
H1257 C1263 0.930 . S
C1258 H1244 0.930 . S
C1258 C1256 1.395 . S
C1258 C1261 1.403 . S
C1259 C1256 1.403 . S
C1259 C1260 1.524 . S
C1259 C1263 1.400 . S
C1260 H1245 0.960 . S
C1260 H1246 0.960 . S
C1260 H1247 0.960 . S
C1260 C1259 1.524 . S
C1261 C1258 1.403 . S
C1261 C1262 1.392 . S
C1261 C1265 1.495 . S
C1262 C1261 1.392 . S
C1262 C1263 1.385 . S
C1262 C1264 1.478 . S
C1263 H1257 0.930 . S
C1263 C1259 1.400 . S
C1263 C1262 1.385 . S
C1264 C1262 1.478 . S
C1264 C1266 1.381 . S
C1264 C1270 1.383 . S
C1265 C1261 1.495 . S
C1265 H1271 0.959 . S
C1265 H1272 0.961 . S
C1265 H1273 0.960 . S
C1266 C1264 1.381 . S
C1266 C1267 1.394 . S
C1266 H1274 0.930 . S
C1267 C1266 1.394 . S
C1267 C1268 1.383 . S
C1267 H1275 0.929 . S
C1268 C1267 1.383 . S
C1268 C1269 1.377 . S
C1269 H1253 0.930 . S
C1269 C1268 1.377 . S
C1269 C1270 1.379 . S
C1270 H1254 0.931 . S
C1270 C1264 1.383 . S
C1270 C1269 1.379 . S
H1271 C1265 0.959 . S
H1272 C1265 0.961 . S
H1273 C1265 0.960 . S
H1274 C1266 0.930 . S
H1275 C1267 0.929 . S
H1276 C1284 0.929 . S
H1277 C1286 0.930 . S
H1278 C1288 0.930 . S
H1279 C1291 0.929 . S
H1280 C1294 0.930 . S
H1281 C1296 0.960 . S
H1282 C1296 0.960 . S
H1283 C1296 0.960 . S
C1284 H1276 0.929 . S
C1284 C1285 1.377 . S
C1284 C1286 1.384 . S
C1285 C1284 1.377 . S
C1285 C1291 1.390 . S
C1286 H1277 0.930 . S
C1286 C1284 1.384 . S
C1286 C1287 1.372 . S
C1287 C1286 1.372 . S
C1287 C1288 1.400 . S
C1287 C1292 1.490 . S
C1288 H1278 0.930 . S
C1288 C1287 1.400 . S
C1288 C1291 1.386 . S
H1289 C1305 0.930 . S
H1290 C1306 0.931 . S
C1291 H1279 0.929 . S
C1291 C1285 1.390 . S
C1291 C1288 1.386 . S
C1292 C1287 1.490 . S
C1292 C1294 1.395 . S
C1292 C1295 1.403 . S
H1293 C1299 0.930 . S
C1294 H1280 0.930 . S
C1294 C1292 1.395 . S
C1294 C1297 1.403 . S
C1295 C1292 1.403 . S
C1295 C1296 1.524 . S
C1295 C1299 1.400 . S
C1296 H1281 0.960 . S
C1296 H1282 0.960 . S
C1296 H1283 0.960 . S
C1296 C1295 1.524 . S
C1297 C1294 1.403 . S
C1297 C1298 1.392 . S
C1297 C1301 1.495 . S
C1298 C1297 1.392 . S
C1298 C1299 1.385 . S
C1298 C1300 1.478 . S
C1299 H1293 0.930 . S
C1299 C1295 1.400 . S
C1299 C1298 1.385 . S
C1300 C1298 1.478 . S
C1300 C1302 1.381 . S
C1300 C1306 1.383 . S
C1301 C1297 1.495 . S
C1301 H1307 0.959 . S
C1301 H1308 0.961 . S
C1301 H1309 0.960 . S
C1302 C1300 1.381 . S
C1302 C1303 1.394 . S
C1302 H1310 0.930 . S
C1303 C1302 1.394 . S
C1303 C1304 1.383 . S
C1303 H1311 0.929 . S
C1304 C1303 1.383 . S
C1304 C1305 1.377 . S
C1305 H1289 0.930 . S
C1305 C1304 1.377 . S
C1305 C1306 1.379 . S
C1306 H1290 0.931 . S
C1306 C1300 1.383 . S
C1306 C1305 1.379 . S
H1307 C1301 0.959 . S
H1308 C1301 0.961 . S
H1309 C1301 0.960 . S
H1310 C1302 0.930 . S
H1311 C1303 0.929 . S
H1312 C1320 0.929 . S
H1313 C1322 0.930 . S
H1314 C1324 0.930 . S
H1315 C1327 0.929 . S
H1316 C1330 0.930 . S
H1317 C1332 0.960 . S
H1318 C1332 0.960 . S
H1319 C1332 0.960 . S
C1320 H1312 0.929 . S
C1320 C1321 1.377 . S
C1320 C1322 1.384 . S
C1321 C1320 1.377 . S
C1321 C1327 1.390 . S
C1322 H1313 0.930 . S
C1322 C1320 1.384 . S
C1322 C1323 1.372 . S
C1323 C1322 1.372 . S
C1323 C1324 1.400 . S
C1323 C1328 1.490 . S
C1324 H1314 0.930 . S
C1324 C1323 1.400 . S
C1324 C1327 1.386 . S
H1325 C1341 0.930 . S
H1326 C1342 0.931 . S
C1327 H1315 0.929 . S
C1327 C1321 1.390 . S
C1327 C1324 1.386 . S
C1328 C1323 1.490 . S
C1328 C1330 1.395 . S
C1328 C1331 1.403 . S
H1329 C1335 0.930 . S
C1330 H1316 0.930 . S
C1330 C1328 1.395 . S
C1330 C1333 1.403 . S
C1331 C1328 1.403 . S
C1331 C1332 1.524 . S
C1331 C1335 1.400 . S
C1332 H1317 0.960 . S
C1332 H1318 0.960 . S
C1332 H1319 0.960 . S
C1332 C1331 1.524 . S
C1333 C1330 1.403 . S
C1333 C1334 1.392 . S
C1333 C1337 1.495 . S
C1334 C1333 1.392 . S
C1334 C1335 1.385 . S
C1334 C1336 1.478 . S
C1335 H1329 0.930 . S
C1335 C1331 1.400 . S
C1335 C1334 1.385 . S
C1336 C1334 1.478 . S
C1336 C1338 1.381 . S
C1336 C1342 1.383 . S
C1337 C1333 1.495 . S
C1337 H1343 0.959 . S
C1337 H1344 0.961 . S
C1337 H1345 0.960 . S
C1338 C1336 1.381 . S
C1338 C1339 1.394 . S
C1338 H1346 0.930 . S
C1339 C1338 1.394 . S
C1339 C1340 1.383 . S
C1339 H1347 0.929 . S
C1340 C1339 1.383 . S
C1340 C1341 1.377 . S
C1341 H1325 0.930 . S
C1341 C1340 1.377 . S
C1341 C1342 1.379 . S
C1342 H1326 0.931 . S
C1342 C1336 1.383 . S
C1342 C1341 1.379 . S
H1343 C1337 0.959 . S
H1344 C1337 0.961 . S
H1345 C1337 0.960 . S
H1346 C1338 0.930 . S
H1347 C1339 0.929 . S
H1348 C1356 0.929 . S
H1349 C1358 0.930 . S
H1350 C1360 0.930 . S
H1351 C1363 0.929 . S
H1352 C1366 0.930 . S
H1353 C1368 0.960 . S
H1354 C1368 0.960 . S
H1355 C1368 0.960 . S
C1356 H1348 0.929 . S
C1356 C1357 1.377 . S
C1356 C1358 1.384 . S
C1357 C1356 1.377 . S
C1357 C1363 1.390 . S
C1358 H1349 0.930 . S
C1358 C1356 1.384 . S
C1358 C1359 1.372 . S
C1359 C1358 1.372 . S
C1359 C1360 1.400 . S
C1359 C1364 1.490 . S
C1360 H1350 0.930 . S
C1360 C1359 1.400 . S
C1360 C1363 1.386 . S
H1361 C1377 0.930 . S
H1362 C1378 0.931 . S
C1363 H1351 0.929 . S
C1363 C1357 1.390 . S
C1363 C1360 1.386 . S
C1364 C1359 1.490 . S
C1364 C1366 1.395 . S
C1364 C1367 1.403 . S
H1365 C1371 0.930 . S
C1366 H1352 0.930 . S
C1366 C1364 1.395 . S
C1366 C1369 1.403 . S
C1367 C1364 1.403 . S
C1367 C1368 1.524 . S
C1367 C1371 1.400 . S
C1368 H1353 0.960 . S
C1368 H1354 0.960 . S
C1368 H1355 0.960 . S
C1368 C1367 1.524 . S
C1369 C1366 1.403 . S
C1369 C1370 1.392 . S
C1369 C1373 1.495 . S
C1370 C1369 1.392 . S
C1370 C1371 1.385 . S
C1370 C1372 1.478 . S
C1371 H1365 0.930 . S
C1371 C1367 1.400 . S
C1371 C1370 1.385 . S
C1372 C1370 1.478 . S
C1372 C1374 1.381 . S
C1372 C1378 1.383 . S
C1373 C1369 1.495 . S
C1373 H1379 0.959 . S
C1373 H1380 0.961 . S
C1373 H1381 0.960 . S
C1374 C1372 1.381 . S
C1374 C1375 1.394 . S
C1374 H1382 0.930 . S
C1375 C1374 1.394 . S
C1375 C1376 1.383 . S
C1375 H1383 0.929 . S
C1376 C1375 1.383 . S
C1376 C1377 1.377 . S
C1377 H1361 0.930 . S
C1377 C1376 1.377 . S
C1377 C1378 1.379 . S
C1378 H1362 0.931 . S
C1378 C1372 1.383 . S
C1378 C1377 1.379 . S
H1379 C1373 0.959 . S
H1380 C1373 0.961 . S
H1381 C1373 0.960 . S
H1382 C1374 0.930 . S
H1383 C1375 0.929 . S
H1384 C1392 0.929 . S
H1385 C1394 0.930 . S
H1386 C1396 0.930 . S
H1387 C1399 0.929 . S
H1388 C1402 0.930 . S
H1389 C1404 0.960 . S
H1390 C1404 0.960 . S
H1391 C1404 0.960 . S
C1392 H1384 0.929 . S
C1392 C1393 1.377 . S
C1392 C1394 1.384 . S
C1393 C1392 1.377 . S
C1393 C1399 1.390 . S
C1394 H1385 0.930 . S
C1394 C1392 1.384 . S
C1394 C1395 1.372 . S
C1395 C1394 1.372 . S
C1395 C1396 1.400 . S
C1395 C1400 1.490 . S
C1396 H1386 0.930 . S
C1396 C1395 1.400 . S
C1396 C1399 1.386 . S
H1397 C1413 0.930 . S
H1398 C1414 0.931 . S
C1399 H1387 0.929 . S
C1399 C1393 1.390 . S
C1399 C1396 1.386 . S
C1400 C1395 1.490 . S
C1400 C1402 1.395 . S
C1400 C1403 1.403 . S
H1401 C1407 0.930 . S
C1402 H1388 0.930 . S
C1402 C1400 1.395 . S
C1402 C1405 1.403 . S
C1403 C1400 1.403 . S
C1403 C1404 1.524 . S
C1403 C1407 1.400 . S
C1404 H1389 0.960 . S
C1404 H1390 0.960 . S
C1404 H1391 0.960 . S
C1404 C1403 1.524 . S
C1405 C1402 1.403 . S
C1405 C1406 1.392 . S
C1405 C1409 1.495 . S
C1406 C1405 1.392 . S
C1406 C1407 1.385 . S
C1406 C1408 1.478 . S
C1407 H1401 0.930 . S
C1407 C1403 1.400 . S
C1407 C1406 1.385 . S
C1408 C1406 1.478 . S
C1408 C1410 1.381 . S
C1408 C1414 1.383 . S
C1409 C1405 1.495 . S
C1409 H1415 0.959 . S
C1409 H1416 0.961 . S
C1409 H1417 0.960 . S
C1410 C1408 1.381 . S
C1410 C1411 1.394 . S
C1410 H1418 0.930 . S
C1411 C1410 1.394 . S
C1411 C1412 1.383 . S
C1411 H1419 0.929 . S
C1412 C1411 1.383 . S
C1412 C1413 1.377 . S
C1413 H1397 0.930 . S
C1413 C1412 1.377 . S
C1413 C1414 1.379 . S
C1414 H1398 0.931 . S
C1414 C1408 1.383 . S
C1414 C1413 1.379 . S
H1415 C1409 0.959 . S
H1416 C1409 0.961 . S
H1417 C1409 0.960 . S
H1418 C1410 0.930 . S
H1419 C1411 0.929 . S
H1420 C1428 0.929 . S
H1421 C1430 0.930 . S
H1422 C1432 0.930 . S
H1423 C1435 0.929 1_455 S
H1424 C1438 0.930 . S
H1425 C1440 0.960 . S
H1426 C1440 0.960 . S
H1427 C1440 0.960 . S
C1428 H1420 0.929 . S
C1428 C1429 1.377 . S
C1428 C1430 1.384 . S
C1429 C1428 1.377 . S
C1429 C1435 1.390 . S
C1430 H1421 0.930 . S
C1430 C1428 1.384 . S
C1430 C1431 1.372 . S
C1431 C1430 1.372 . S
C1431 C1432 1.400 . S
C1431 C1436 1.490 . S
C1432 H1422 0.930 . S
C1432 C1431 1.400 . S
C1432 C1435 1.386 . S
H1433 C1449 0.930 . S
H1434 C1450 0.931 . S
C1435 H1423 0.929 1_655 S
C1435 C1429 1.390 . S
C1435 C1432 1.386 . S
C1436 C1431 1.490 . S
C1436 C1438 1.395 . S
C1436 C1439 1.403 . S
H1437 C1443 0.930 . S
C1438 H1424 0.930 . S
C1438 C1436 1.395 . S
C1438 C1441 1.403 . S
C1439 C1436 1.403 . S
C1439 C1440 1.524 . S
C1439 C1443 1.400 . S
C1440 H1425 0.960 . S
C1440 H1426 0.960 . S
C1440 H1427 0.960 . S
C1440 C1439 1.524 . S
C1441 C1438 1.403 . S
C1441 C1442 1.392 . S
C1441 C1445 1.495 . S
C1442 C1441 1.392 . S
C1442 C1443 1.385 . S
C1442 C1444 1.478 . S
C1443 H1437 0.930 . S
C1443 C1439 1.400 . S
C1443 C1442 1.385 . S
C1444 C1442 1.478 . S
C1444 C1446 1.381 . S
C1444 C1450 1.383 . S
C1445 C1441 1.495 . S
C1445 H1451 0.959 . S
C1445 H1452 0.961 . S
C1445 H1453 0.960 . S
C1446 C1444 1.381 . S
C1446 C1447 1.394 . S
C1446 H1454 0.930 . S
C1447 C1446 1.394 . S
C1447 C1448 1.383 . S
C1447 H1455 0.929 . S
C1448 C1447 1.383 . S
C1448 C1449 1.377 . S
C1449 H1433 0.930 . S
C1449 C1448 1.377 . S
C1449 C1450 1.379 . S
C1450 H1434 0.931 . S
C1450 C1444 1.383 . S
C1450 C1449 1.379 . S
H1451 C1445 0.959 . S
H1452 C1445 0.961 . S
H1453 C1445 0.960 . S
H1454 C1446 0.930 . S
H1455 C1447 0.929 . S
H1456 C1464 0.929 . S
H1457 C1466 0.930 . S
H1458 C1468 0.930 . S
H1459 C1471 0.929 . S
H1460 C1474 0.930 . S
H1461 C1476 0.960 . S
H1462 C1476 0.960 . S
H1463 C1476 0.960 . S
C1464 H1456 0.929 . S
C1464 C1465 1.377 . S
C1464 C1466 1.384 . S
C1465 C1464 1.377 . S
C1465 C1471 1.390 . S
C1466 H1457 0.930 . S
C1466 C1464 1.384 . S
C1466 C1467 1.372 . S
C1467 C1466 1.372 . S
C1467 C1468 1.400 . S
C1467 C1472 1.490 . S
C1468 H1458 0.930 . S
C1468 C1467 1.400 . S
C1468 C1471 1.386 . S
H1469 C1485 0.930 . S
H1470 C1486 0.931 . S
C1471 H1459 0.929 . S
C1471 C1465 1.390 . S
C1471 C1468 1.386 . S
C1472 C1467 1.490 . S
C1472 C1474 1.395 . S
C1472 C1475 1.403 . S
H1473 C1479 0.930 . S
C1474 H1460 0.930 . S
C1474 C1472 1.395 . S
C1474 C1477 1.403 . S
C1475 C1472 1.403 . S
C1475 C1476 1.524 . S
C1475 C1479 1.400 . S
C1476 H1461 0.960 . S
C1476 H1462 0.960 . S
C1476 H1463 0.960 . S
C1476 C1475 1.524 . S
C1477 C1474 1.403 . S
C1477 C1478 1.392 . S
C1477 C1481 1.495 . S
C1478 C1477 1.392 . S
C1478 C1479 1.385 . S
C1478 C1480 1.478 . S
C1479 H1473 0.930 . S
C1479 C1475 1.400 . S
C1479 C1478 1.385 . S
C1480 C1478 1.478 . S
C1480 C1482 1.381 . S
C1480 C1486 1.383 . S
C1481 C1477 1.495 . S
C1481 H1487 0.959 . S
C1481 H1488 0.961 . S
C1481 H1489 0.960 . S
C1482 C1480 1.381 . S
C1482 C1483 1.394 . S
C1482 H1490 0.930 . S
C1483 C1482 1.394 . S
C1483 C1484 1.383 . S
C1483 H1491 0.929 . S
C1484 C1483 1.383 . S
C1484 C1485 1.377 . S
C1485 H1469 0.930 . S
C1485 C1484 1.377 . S
C1485 C1486 1.379 . S
C1486 H1470 0.931 . S
C1486 C1480 1.383 . S
C1486 C1485 1.379 . S
H1487 C1481 0.959 . S
H1488 C1481 0.961 . S
H1489 C1481 0.960 . S
H1490 C1482 0.930 . S
H1491 C1483 0.929 . S
H1492 C1500 0.929 . S
H1493 C1502 0.930 . S
H1494 C1504 0.930 . S
H1495 C1507 0.929 1_455 S
H1496 C1510 0.930 . S
H1497 C1512 0.960 . S
H1498 C1512 0.960 . S
H1499 C1512 0.960 . S
C1500 H1492 0.929 . S
C1500 C1501 1.377 . S
C1500 C1502 1.384 . S
C1501 C1500 1.377 . S
C1501 C1507 1.390 . S
C1502 H1493 0.930 . S
C1502 C1500 1.384 . S
C1502 C1503 1.372 . S
C1503 C1502 1.372 . S
C1503 C1504 1.400 . S
C1503 C1508 1.490 . S
C1504 H1494 0.930 . S
C1504 C1503 1.400 . S
C1504 C1507 1.386 . S
H1505 C1521 0.930 . S
H1506 C1522 0.931 . S
C1507 H1495 0.929 1_655 S
C1507 C1501 1.390 . S
C1507 C1504 1.386 . S
C1508 C1503 1.490 . S
C1508 C1510 1.395 . S
C1508 C1511 1.403 . S
H1509 C1515 0.930 . S
C1510 H1496 0.930 . S
C1510 C1508 1.395 . S
C1510 C1513 1.403 . S
C1511 C1508 1.403 . S
C1511 C1512 1.524 . S
C1511 C1515 1.400 . S
C1512 H1497 0.960 . S
C1512 H1498 0.960 . S
C1512 H1499 0.960 . S
C1512 C1511 1.524 . S
C1513 C1510 1.403 . S
C1513 C1514 1.392 . S
C1513 C1517 1.495 . S
C1514 C1513 1.392 . S
C1514 C1515 1.385 . S
C1514 C1516 1.478 . S
C1515 H1509 0.930 . S
C1515 C1511 1.400 . S
C1515 C1514 1.385 . S
C1516 C1514 1.478 . S
C1516 C1518 1.381 . S
C1516 C1522 1.383 . S
C1517 C1513 1.495 . S
C1517 H1523 0.959 . S
C1517 H1524 0.961 . S
C1517 H1525 0.960 . S
C1518 C1516 1.381 . S
C1518 C1519 1.394 . S
C1518 H1526 0.930 . S
C1519 C1518 1.394 . S
C1519 C1520 1.383 . S
C1519 H1527 0.929 . S
C1520 C1519 1.383 . S
C1520 C1521 1.377 . S
C1521 H1505 0.930 . S
C1521 C1520 1.377 . S
C1521 C1522 1.379 . S
C1522 H1506 0.931 . S
C1522 C1516 1.383 . S
C1522 C1521 1.379 . S
H1523 C1517 0.959 . S
H1524 C1517 0.961 . S
H1525 C1517 0.960 . S
H1526 C1518 0.930 . S
H1527 C1519 0.929 . S
H1528 C1536 0.929 . S
H1529 C1538 0.930 . S
H1530 C1540 0.930 . S
H1531 C1543 0.929 . S
H1532 C1546 0.930 . S
H1533 C1548 0.960 . S
H1534 C1548 0.960 . S
H1535 C1548 0.960 . S
C1536 H1528 0.929 . S
C1536 C1537 1.377 . S
C1536 C1538 1.384 . S
C1537 C1536 1.377 . S
C1537 C1543 1.390 . S
C1538 H1529 0.930 . S
C1538 C1536 1.384 . S
C1538 C1539 1.372 . S
C1539 C1538 1.372 . S
C1539 C1540 1.400 . S
C1539 C1544 1.490 . S
C1540 H1530 0.930 . S
C1540 C1539 1.400 . S
C1540 C1543 1.386 . S
H1541 C1557 0.930 . S
H1542 C1558 0.931 . S
C1543 H1531 0.929 . S
C1543 C1537 1.390 . S
C1543 C1540 1.386 . S
C1544 C1539 1.490 . S
C1544 C1546 1.395 . S
C1544 C1547 1.403 . S
H1545 C1551 0.930 . S
C1546 H1532 0.930 . S
C1546 C1544 1.395 . S
C1546 C1549 1.403 . S
C1547 C1544 1.403 . S
C1547 C1548 1.524 . S
C1547 C1551 1.400 . S
C1548 H1533 0.960 . S
C1548 H1534 0.960 . S
C1548 H1535 0.960 . S
C1548 C1547 1.524 . S
C1549 C1546 1.403 . S
C1549 C1550 1.392 . S
C1549 C1553 1.495 . S
C1550 C1549 1.392 . S
C1550 C1551 1.385 . S
C1550 C1552 1.478 . S
C1551 H1545 0.930 . S
C1551 C1547 1.400 . S
C1551 C1550 1.385 . S
C1552 C1550 1.478 . S
C1552 C1554 1.381 . S
C1552 C1558 1.383 . S
C1553 C1549 1.495 . S
C1553 H1559 0.959 . S
C1553 H1560 0.961 . S
C1553 H1561 0.960 . S
C1554 C1552 1.381 . S
C1554 C1555 1.394 . S
C1554 H1562 0.930 . S
C1555 C1554 1.394 . S
C1555 C1556 1.383 . S
C1555 H1563 0.929 . S
C1556 C1555 1.383 . S
C1556 C1557 1.377 . S
C1557 H1541 0.930 . S
C1557 C1556 1.377 . S
C1557 C1558 1.379 . S
C1558 H1542 0.931 . S
C1558 C1552 1.383 . S
C1558 C1557 1.379 . S
H1559 C1553 0.959 . S
H1560 C1553 0.961 . S
H1561 C1553 0.960 . S
H1562 C1554 0.930 . S
H1563 C1555 0.929 . S
H1564 C1572 0.929 . S
H1565 C1574 0.930 . S
H1566 C1576 0.930 . S
H1567 C1579 0.929 . S
H1568 C1582 0.930 . S
H1569 C1584 0.960 . S
H1570 C1584 0.960 . S
H1571 C1584 0.960 . S
C1572 H1564 0.929 . S
C1572 C1573 1.377 . S
C1572 C1574 1.384 . S
C1573 C1572 1.377 . S
C1573 C1579 1.390 . S
C1574 H1565 0.930 . S
C1574 C1572 1.384 . S
C1574 C1575 1.372 . S
C1575 C1574 1.372 . S
C1575 C1576 1.400 . S
C1575 C1580 1.490 . S
C1576 H1566 0.930 . S
C1576 C1575 1.400 . S
C1576 C1579 1.386 . S
H1577 C1593 0.930 . S
H1578 C1594 0.931 . S
C1579 H1567 0.929 . S
C1579 C1573 1.390 . S
C1579 C1576 1.386 . S
C1580 C1575 1.490 . S
C1580 C1582 1.395 . S
C1580 C1583 1.403 . S
H1581 C1587 0.930 . S
C1582 H1568 0.930 . S
C1582 C1580 1.395 . S
C1582 C1585 1.403 . S
C1583 C1580 1.403 . S
C1583 C1584 1.524 . S
C1583 C1587 1.400 . S
C1584 H1569 0.960 . S
C1584 H1570 0.960 . S
C1584 H1571 0.960 . S
C1584 C1583 1.524 . S
C1585 C1582 1.403 . S
C1585 C1586 1.392 . S
C1585 C1589 1.495 . S
C1586 C1585 1.392 . S
C1586 C1587 1.385 . S
C1586 C1588 1.478 . S
C1587 H1581 0.930 . S
C1587 C1583 1.400 . S
C1587 C1586 1.385 . S
C1588 C1586 1.478 . S
C1588 C1590 1.381 . S
C1588 C1594 1.383 . S
C1589 C1585 1.495 . S
C1589 H1595 0.959 . S
C1589 H1596 0.961 . S
C1589 H1597 0.960 . S
C1590 C1588 1.381 . S
C1590 C1591 1.394 . S
C1590 H1598 0.930 . S
C1591 C1590 1.394 . S
C1591 C1592 1.383 . S
C1591 H1599 0.929 . S
C1592 C1591 1.383 . S
C1592 C1593 1.377 . S
C1593 H1577 0.930 . S
C1593 C1592 1.377 . S
C1593 C1594 1.379 . S
C1594 H1578 0.931 . S
C1594 C1588 1.383 . S
C1594 C1593 1.379 . S
H1595 C1589 0.959 . S
H1596 C1589 0.961 . S
H1597 C1589 0.960 . S
H1598 C1590 0.930 . S
H1599 C1591 0.929 . S
H1600 C1608 0.929 . S
H1601 C1610 0.930 . S
H1602 C1612 0.930 . S
H1603 C1615 0.929 . S
H1604 C1618 0.930 . S
H1605 C1620 0.960 . S
H1606 C1620 0.960 . S
H1607 C1620 0.960 . S
C1608 H1600 0.929 . S
C1608 C1609 1.377 . S
C1608 C1610 1.384 . S
C1609 C1608 1.377 . S
C1609 C1615 1.390 . S
C1610 H1601 0.930 . S
C1610 C1608 1.384 . S
C1610 C1611 1.372 . S
C1611 C1610 1.372 . S
C1611 C1612 1.400 . S
C1611 C1616 1.490 . S
C1612 H1602 0.930 . S
C1612 C1611 1.400 . S
C1612 C1615 1.386 . S
H1613 C1629 0.930 . S
H1614 C1630 0.931 . S
C1615 H1603 0.929 . S
C1615 C1609 1.390 . S
C1615 C1612 1.386 . S
C1616 C1611 1.490 . S
C1616 C1618 1.395 . S
C1616 C1619 1.403 . S
H1617 C1623 0.930 . S
C1618 H1604 0.930 . S
C1618 C1616 1.395 . S
C1618 C1621 1.403 . S
C1619 C1616 1.403 . S
C1619 C1620 1.524 . S
C1619 C1623 1.400 . S
C1620 H1605 0.960 . S
C1620 H1606 0.960 . S
C1620 H1607 0.960 . S
C1620 C1619 1.524 . S
C1621 C1618 1.403 . S
C1621 C1622 1.392 . S
C1621 C1625 1.495 . S
C1622 C1621 1.392 . S
C1622 C1623 1.385 . S
C1622 C1624 1.478 . S
C1623 H1617 0.930 . S
C1623 C1619 1.400 . S
C1623 C1622 1.385 . S
C1624 C1622 1.478 . S
C1624 C1626 1.381 . S
C1624 C1630 1.383 . S
C1625 C1621 1.495 . S
C1625 H1631 0.959 . S
C1625 H1632 0.961 . S
C1625 H1633 0.960 . S
C1626 C1624 1.381 . S
C1626 C1627 1.394 . S
C1626 H1634 0.930 . S
C1627 C1626 1.394 . S
C1627 C1628 1.383 . S
C1627 H1635 0.929 . S
C1628 C1627 1.383 . S
C1628 C1629 1.377 . S
C1629 H1613 0.930 . S
C1629 C1628 1.377 . S
C1629 C1630 1.379 . S
C1630 H1614 0.931 . S
C1630 C1624 1.383 . S
C1630 C1629 1.379 . S
H1631 C1625 0.959 . S
H1632 C1625 0.961 . S
H1633 C1625 0.960 . S
H1634 C1626 0.930 . S
H1635 C1627 0.929 . S
H1636 C1644 0.929 . S
H1637 C1646 0.930 . S
H1638 C1648 0.930 . S
H1639 C1651 0.929 . S
H1640 C1654 0.932 . S
H1641 C1656 0.963 . S
H1642 C1656 0.960 1_545 S
H1643 C1656 0.960 . S
C1644 H1636 0.929 . S
C1644 C1645 1.377 1_545 S
C1644 C1646 1.384 . S
C1645 C1644 1.377 1_565 S
C1645 C1651 1.390 . S
C1646 H1637 0.930 . S
C1646 C1644 1.384 . S
C1646 C1647 1.372 1_545 S
C1647 C1646 1.372 1_565 S
C1647 C1648 1.400 . S
C1647 C1652 1.490 . S
C1648 H1638 0.930 . S
C1648 C1647 1.400 . S
C1648 C1651 1.386 . S
H1649 C1665 0.930 . S
H1650 C1666 0.931 . S
C1651 H1639 0.929 . S
C1651 C1645 1.390 . S
C1651 C1648 1.386 . S
C1652 C1647 1.490 . S
C1652 C1654 1.398 . S
C1652 C1655 1.408 1_455 S
H1653 C1659 0.930 . S
C1654 H1640 0.932 . S
C1654 C1652 1.398 . S
C1654 C1657 1.399 1_565 S
C1655 C1652 1.408 1_655 S
C1655 C1656 1.527 . S
C1655 C1659 1.392 1_565 S
C1656 H1641 0.963 . S
C1656 H1642 0.960 1_565 S
C1656 H1643 0.960 . S
C1656 C1655 1.527 . S
C1657 C1654 1.399 1_545 S
C1657 C1658 1.392 1_455 S
C1657 C1661 1.495 . S
C1658 C1657 1.392 1_655 S
C1658 C1659 1.385 . S
C1658 C1660 1.478 . S
C1659 H1653 0.930 . S
C1659 C1655 1.392 1_545 S
C1659 C1658 1.385 . S
C1660 C1658 1.478 . S
C1660 C1662 1.381 . S
C1660 C1666 1.383 1_545 S
C1661 C1657 1.495 . S
C1661 H1667 0.959 . S
C1661 H1668 0.961 1_545 S
C1661 H1669 0.960 . S
C1662 C1660 1.381 . S
C1662 C1663 1.394 . S
C1662 H1670 0.949 . S
C1663 C1662 1.394 . S
C1663 C1664 1.383 . S
C1663 H1671 0.929 . S
C1664 C1663 1.383 . S
C1664 C1665 1.377 1_545 S
C1665 H1649 0.930 . S
C1665 C1664 1.377 1_565 S
C1665 C1666 1.379 . S
C1666 H1650 0.931 . S
C1666 C1660 1.383 1_565 S
C1666 C1665 1.379 . S
H1667 C1661 0.959 . S
H1668 C1661 0.961 1_565 S
H1669 C1661 0.960 . S
H1670 C1662 0.949 . S
H1671 C1663 0.929 . S
H1672 C1680 0.929 . S
H1673 C1682 0.930 . S
H1674 C1684 0.930 . S
H1675 C1687 0.929 . S
H1676 C1690 0.930 . S
H1677 C1692 0.960 . S
H1678 C1692 0.960 . S
H1679 C1692 0.960 . S
C1680 H1672 0.929 . S
C1680 C1681 1.377 . S
C1680 C1682 1.384 . S
C1681 C1680 1.377 . S
C1681 C1687 1.390 . S
C1682 H1673 0.930 . S
C1682 C1680 1.384 . S
C1682 C1683 1.372 . S
C1683 C1682 1.372 . S
C1683 C1684 1.400 . S
C1683 C1688 1.490 . S
C1684 H1674 0.930 . S
C1684 C1683 1.400 . S
C1684 C1687 1.386 . S
H1685 C1701 0.930 . S
H1686 C1702 0.931 . S
C1687 H1675 0.929 . S
C1687 C1681 1.390 . S
C1687 C1684 1.386 . S
C1688 C1683 1.490 . S
C1688 C1690 1.395 . S
C1688 C1691 1.403 . S
H1689 C1695 0.930 . S
C1690 H1676 0.930 . S
C1690 C1688 1.395 . S
C1690 C1693 1.403 . S
C1691 C1688 1.403 . S
C1691 C1692 1.524 . S
C1691 C1695 1.400 . S
C1692 H1677 0.960 . S
C1692 H1678 0.960 . S
C1692 H1679 0.960 . S
C1692 C1691 1.524 . S
C1693 C1690 1.403 . S
C1693 C1694 1.392 . S
C1693 C1697 1.495 . S
C1694 C1693 1.392 . S
C1694 C1695 1.385 . S
C1694 C1696 1.478 . S
C1695 H1689 0.930 . S
C1695 C1691 1.400 . S
C1695 C1694 1.385 . S
C1696 C1694 1.478 . S
C1696 C1698 1.381 . S
C1696 C1702 1.383 . S
C1697 C1693 1.495 . S
C1697 H1703 0.959 . S
C1697 H1704 0.961 . S
C1697 H1705 0.960 . S
C1698 C1696 1.381 . S
C1698 C1699 1.394 . S
C1698 H1706 0.930 . S
C1699 C1698 1.394 . S
C1699 C1700 1.383 . S
C1699 H1707 0.929 . S
C1700 C1699 1.383 . S
C1700 C1701 1.377 . S
C1701 H1685 0.930 . S
C1701 C1700 1.377 . S
C1701 C1702 1.379 . S
C1702 H1686 0.931 . S
C1702 C1696 1.383 . S
C1702 C1701 1.379 . S
H1703 C1697 0.959 . S
H1704 C1697 0.961 . S
H1705 C1697 0.960 . S
H1706 C1698 0.930 . S
H1707 C1699 0.929 . S
H1708 C1716 0.929 . S
H1709 C1718 0.930 . S
H1710 C1720 0.930 . S
H1711 C1723 0.929 . S
H1712 C1726 0.930 . S
H1713 C1728 0.960 1_556 S
H1714 C1728 0.960 . S
H1715 C1728 0.960 . S
C1716 H1708 0.929 . S
C1716 C1717 1.377 . S
C1716 C1718 1.384 . S
C1717 C1716 1.377 . S
C1717 C1723 1.390 . S
C1718 H1709 0.930 . S
C1718 C1716 1.384 . S
C1718 C1719 1.372 . S
C1719 C1718 1.372 . S
C1719 C1720 1.400 . S
C1719 C1724 1.490 . S
C1720 H1710 0.930 . S
C1720 C1719 1.400 . S
C1720 C1723 1.386 . S
H1721 C1737 0.930 . S
H1722 C1738 0.931 . S
C1723 H1711 0.929 . S
C1723 C1717 1.390 . S
C1723 C1720 1.386 . S
C1724 C1719 1.490 . S
C1724 C1726 1.395 1_545 S
C1724 C1727 1.403 . S
H1725 C1731 0.930 . S
C1726 H1712 0.930 . S
C1726 C1724 1.395 1_565 S
C1726 C1729 1.339 1_554 S
C1727 C1724 1.403 . S
C1727 C1728 1.524 . S
C1727 C1731 1.400 1_554 S
C1728 H1713 0.960 1_554 S
C1728 H1714 0.960 . S
C1728 H1715 0.960 . S
C1728 C1727 1.524 . S
C1729 C1726 1.339 1_556 S
C1729 C1730 1.452 . S
C1729 C1733 1.502 . S
C1730 C1729 1.452 . S
C1730 C1731 1.385 1_565 S
C1730 C1732 1.478 . S
C1731 H1725 0.930 . S
C1731 C1727 1.400 1_556 S
C1731 C1730 1.385 1_545 S
C1732 C1730 1.478 . S
C1732 C1734 1.381 . S
C1732 C1738 1.383 . S
C1733 C1729 1.502 . S
C1733 H1739 0.959 1_556 S
C1733 H1740 0.961 . S
C1733 H1741 0.960 . S
C1734 C1732 1.381 . S
C1734 C1735 1.394 . S
C1734 H1742 0.930 . S
C1735 C1734 1.394 . S
C1735 C1736 1.383 . S
C1735 H1743 0.929 . S
C1736 C1735 1.383 . S
C1736 C1737 1.377 . S
C1737 H1721 0.930 . S
C1737 C1736 1.377 . S
C1737 C1738 1.379 . S
C1738 H1722 0.931 . S
C1738 C1732 1.383 . S
C1738 C1737 1.379 . S
H1739 C1733 0.959 1_554 S
H1740 C1733 0.961 . S
H1741 C1733 0.960 . S
H1742 C1734 0.930 . S
H1743 C1735 0.929 . S
H1744 C1752 0.929 . S
H1745 C1754 0.930 . S
H1746 C1756 0.930 . S
H1747 C1759 0.929 . S
H1748 C1762 0.930 . S
H1749 C1764 0.960 . S
H1750 C1764 0.960 . S
H1751 C1764 0.960 . S
C1752 H1744 0.929 . S
C1752 C1753 1.377 . S
C1752 C1754 1.384 . S
C1753 C1752 1.377 . S
C1753 C1759 1.390 . S
C1754 H1745 0.930 . S
C1754 C1752 1.384 . S
C1754 C1755 1.372 . S
C1755 C1754 1.372 . S
C1755 C1756 1.400 . S
C1755 C1760 1.490 . S
C1756 H1746 0.930 . S
C1756 C1755 1.400 . S
C1756 C1759 1.386 . S
H1757 C1773 0.930 . S
H1758 C1774 0.931 . S
C1759 H1747 0.929 . S
C1759 C1753 1.390 . S
C1759 C1756 1.386 . S
C1760 C1755 1.490 . S
C1760 C1762 1.395 . S
C1760 C1763 1.403 . S
H1761 C1767 0.930 . S
C1762 H1748 0.930 . S
C1762 C1760 1.395 . S
C1762 C1765 1.403 . S
C1763 C1760 1.403 . S
C1763 C1764 1.524 . S
C1763 C1767 1.400 . S
C1764 H1749 0.960 . S
C1764 H1750 0.960 . S
C1764 H1751 0.960 . S
C1764 C1763 1.524 . S
C1765 C1762 1.403 . S
C1765 C1766 1.392 . S
C1765 C1769 1.495 . S
C1766 C1765 1.392 . S
C1766 C1767 1.385 . S
C1766 C1768 1.478 . S
C1767 H1761 0.930 . S
C1767 C1763 1.400 . S
C1767 C1766 1.385 . S
C1768 C1766 1.478 . S
C1768 C1770 1.381 . S
C1768 C1774 1.383 . S
C1769 C1765 1.495 . S
C1769 H1775 0.959 . S
C1769 H1776 0.961 . S
C1769 H1777 0.960 . S
C1770 C1768 1.381 . S
C1770 C1771 1.394 . S
C1770 H1778 0.930 . S
C1771 C1770 1.394 . S
C1771 C1772 1.383 . S
C1771 H1779 0.929 . S
C1772 C1771 1.383 . S
C1772 C1773 1.377 . S
C1773 H1757 0.930 . S
C1773 C1772 1.377 . S
C1773 C1774 1.379 . S
C1774 H1758 0.931 . S
C1774 C1768 1.383 . S
C1774 C1773 1.379 . S
H1775 C1769 0.959 . S
H1776 C1769 0.961 . S
H1777 C1769 0.960 . S
H1778 C1770 0.930 . S
H1779 C1771 0.929 . S
H1780 C1788 0.929 . S
H1781 C1790 0.930 . S
H1782 C1792 0.930 . S
H1783 C1795 0.929 . S
H1784 C1798 0.930 . S
H1785 C1800 0.960 . S
H1786 C1800 0.960 . S
H1787 C1800 0.960 . S
C1788 H1780 0.929 . S
C1788 C1789 1.377 . S
C1788 C1790 1.384 . S
C1789 C1788 1.377 . S
C1789 C1795 1.390 1_565 S
C1790 H1781 0.930 . S
C1790 C1788 1.384 . S
C1790 C1791 1.372 . S
C1791 C1790 1.372 . S
C1791 C1792 1.400 1_565 S
C1791 C1796 1.490 . S
C1792 H1782 0.930 . S
C1792 C1791 1.400 1_545 S
C1792 C1795 1.386 . S
H1793 C1809 0.930 . S
H1794 C1810 0.931 . S
C1795 H1783 0.929 . S
C1795 C1789 1.390 1_545 S
C1795 C1792 1.386 . S
C1796 C1791 1.490 . S
C1796 C1798 1.395 . S
C1796 C1799 1.403 1_565 S
H1797 C1803 0.930 . S
C1798 H1784 0.930 . S
C1798 C1796 1.395 . S
C1798 C1801 1.403 . S
C1799 C1796 1.403 1_545 S
C1799 C1800 1.524 . S
C1799 C1803 1.400 . S
C1800 H1785 0.960 . S
C1800 H1786 0.960 . S
C1800 H1787 0.960 . S
C1800 C1799 1.524 . S
C1801 C1798 1.403 . S
C1801 C1802 1.392 1_565 S
C1801 C1805 1.495 . S
C1802 C1801 1.392 1_545 S
C1802 C1803 1.385 . S
C1802 C1804 1.478 . S
C1803 H1797 0.930 . S
C1803 C1799 1.400 . S
C1803 C1802 1.385 . S
C1804 C1802 1.478 . S
C1804 C1806 1.381 1_545 S
C1804 C1810 1.383 . S
C1805 C1801 1.495 . S
C1805 H1811 0.959 . S
C1805 H1812 0.961 . S
C1805 H1813 0.960 . S
C1806 C1804 1.381 1_565 S
C1806 C1807 1.394 . S
C1806 H1814 0.930 . S
C1807 C1806 1.394 . S
C1807 C1808 1.383 1_565 S
C1807 H1815 0.929 . S
C1808 C1807 1.383 1_545 S
C1808 C1809 1.377 . S
C1809 H1793 0.930 . S
C1809 C1808 1.377 . S
C1809 C1810 1.379 . S
C1810 H1794 0.931 . S
C1810 C1804 1.383 . S
C1810 C1809 1.379 . S
H1811 C1805 0.959 . S
H1812 C1805 0.961 . S
H1813 C1805 0.960 . S
H1814 C1806 0.930 . S
H1815 C1807 0.929 . S
H1816 C1824 0.929 . S
H1817 C1826 0.930 . S
H1818 C1828 0.930 . S
H1819 C1831 0.929 . S
H1820 C1834 0.930 . S
H1821 C1836 0.960 . S
H1822 C1836 0.960 . S
H1823 C1836 0.960 . S
C1824 H1816 0.929 . S
C1824 C1825 1.377 . S
C1824 C1826 1.384 . S
C1825 C1824 1.377 . S
C1825 C1831 1.390 . S
C1826 H1817 0.930 . S
C1826 C1824 1.384 . S
C1826 C1827 1.372 . S
C1827 C1826 1.372 . S
C1827 C1828 1.400 . S
C1827 C1832 1.490 . S
C1828 H1818 0.930 . S
C1828 C1827 1.400 . S
C1828 C1831 1.386 . S
H1829 C1845 0.930 . S
H1830 C1846 0.931 . S
C1831 H1819 0.929 . S
C1831 C1825 1.390 . S
C1831 C1828 1.386 . S
C1832 C1827 1.490 . S
C1832 C1834 1.395 . S
C1832 C1835 1.403 . S
H1833 C1839 0.930 . S
C1834 H1820 0.930 . S
C1834 C1832 1.395 . S
C1834 C1837 1.403 . S
C1835 C1832 1.403 . S
C1835 C1836 1.524 . S
C1835 C1839 1.400 . S
C1836 H1821 0.960 . S
C1836 H1822 0.960 . S
C1836 H1823 0.960 . S
C1836 C1835 1.524 . S
C1837 C1834 1.403 . S
C1837 C1838 1.392 . S
C1837 C1841 1.495 . S
C1838 C1837 1.392 . S
C1838 C1839 1.385 . S
C1838 C1840 1.478 . S
C1839 H1833 0.930 . S
C1839 C1835 1.400 . S
C1839 C1838 1.385 . S
C1840 C1838 1.478 . S
C1840 C1842 1.381 . S
C1840 C1846 1.383 . S
C1841 C1837 1.495 . S
C1841 H1847 0.959 . S
C1841 H1848 0.961 . S
C1841 H1849 0.960 . S
C1842 C1840 1.381 . S
C1842 C1843 1.394 . S
C1842 H1850 0.930 . S
C1843 C1842 1.394 . S
C1843 C1844 1.383 . S
C1843 H1851 0.929 . S
C1844 C1843 1.383 . S
C1844 C1845 1.377 . S
C1845 H1829 0.930 . S
C1845 C1844 1.377 . S
C1845 C1846 1.379 . S
C1846 H1830 0.931 . S
C1846 C1840 1.383 . S
C1846 C1845 1.379 . S
H1847 C1841 0.959 . S
H1848 C1841 0.961 . S
H1849 C1841 0.960 . S
H1850 C1842 0.930 . S
H1851 C1843 0.929 . S
H1852 C1860 0.929 . S
H1853 C1862 0.930 . S
H1854 C1864 0.930 1_655 S
H1855 C1867 0.929 . S
H1856 C1870 0.930 . S
H1857 C1872 0.960 . S
H1858 C1872 0.960 1_455 S
H1859 C1872 0.960 . S
C1860 H1852 0.929 . S
C1860 C1861 1.377 . S
C1860 C1862 1.384 . S
C1861 C1860 1.377 . S
C1861 C1867 1.390 . S
C1862 H1853 0.930 . S
C1862 C1860 1.384 . S
C1862 C1863 1.372 . S
C1863 C1862 1.372 . S
C1863 C1864 1.400 . S
C1863 C1868 1.490 . S
C1864 H1854 0.930 1_455 S
C1864 C1863 1.400 . S
C1864 C1867 1.386 . S
H1865 C1881 0.930 . S
H1866 C1882 0.931 . S
C1867 H1855 0.929 . S
C1867 C1861 1.390 . S
C1867 C1864 1.386 . S
C1868 C1863 1.490 . S
C1868 C1870 1.395 . S
C1868 C1871 1.401 1_445 S
H1869 C1875 0.930 . S
C1870 H1856 0.930 . S
C1870 C1868 1.395 . S
C1870 C1873 1.403 1_556 S
C1871 C1868 1.401 1_665 S
C1871 C1872 1.524 . S
C1871 C1875 1.401 1_556 S
C1872 H1857 0.960 . S
C1872 H1858 0.960 1_655 S
C1872 H1859 0.960 . S
C1872 C1871 1.524 . S
C1873 C1870 1.403 1_554 S
C1873 C1874 1.378 1_445 S
C1873 C1877 1.495 . S
C1874 C1873 1.378 1_665 S
C1874 C1875 1.397 . S
C1874 C1876 1.480 . S
C1875 H1869 0.930 . S
C1875 C1871 1.401 1_554 S
C1875 C1874 1.397 . S
C1876 C1874 1.480 . S
C1876 C1878 1.381 . S
C1876 C1882 1.383 . S
C1877 C1873 1.495 . S
C1877 H1883 0.959 . S
C1877 H1884 0.961 1_455 S
C1877 H1885 0.960 . S
C1878 C1876 1.381 . S
C1878 C1879 1.394 . S
C1878 H1886 0.930 1_655 S
C1879 C1878 1.394 . S
C1879 C1880 1.383 . S
C1879 H1887 0.943 . S
C1880 C1879 1.383 . S
C1880 C1881 1.377 . S
C1881 H1865 0.930 . S
C1881 C1880 1.377 . S
C1881 C1882 1.379 . S
C1882 H1866 0.931 . S
C1882 C1876 1.383 . S
C1882 C1881 1.379 . S
H1883 C1877 0.959 . S
H1884 C1877 0.961 1_655 S
H1885 C1877 0.960 . S
H1886 C1878 0.930 1_455 S
H1887 C1879 0.943 . S
H1888 C1896 0.929 . S
H1889 C1898 0.930 . S
H1890 C1900 0.930 . S
H1891 C1903 0.929 . S
H1892 C1906 0.930 . S
H1893 C1908 0.960 . S
H1894 C1908 0.960 . S
H1895 C1908 0.960 . S
C1896 H1888 0.929 . S
C1896 C1897 1.377 . S
C1896 C1898 1.384 . S
C1897 C1896 1.377 . S
C1897 C1903 1.390 . S
C1898 H1889 0.930 . S
C1898 C1896 1.384 . S
C1898 C1899 1.372 . S
C1899 C1898 1.372 . S
C1899 C1900 1.400 . S
C1899 C1904 1.490 . S
C1900 H1890 0.930 . S
C1900 C1899 1.400 . S
C1900 C1903 1.386 . S
H1901 C1917 0.930 . S
H1902 C1918 0.931 . S
C1903 H1891 0.929 . S
C1903 C1897 1.390 . S
C1903 C1900 1.386 . S
C1904 C1899 1.490 . S
C1904 C1906 1.395 . S
C1904 C1907 1.403 . S
H1905 C1911 0.930 . S
C1906 H1892 0.930 . S
C1906 C1904 1.395 . S
C1906 C1909 1.403 . S
C1907 C1904 1.403 . S
C1907 C1908 1.524 . S
C1907 C1911 1.400 . S
C1908 H1893 0.960 . S
C1908 H1894 0.960 . S
C1908 H1895 0.960 . S
C1908 C1907 1.524 . S
C1909 C1906 1.403 . S
C1909 C1910 1.392 . S
C1909 C1913 1.495 . S
C1910 C1909 1.392 . S
C1910 C1911 1.385 . S
C1910 C1912 1.478 . S
C1911 H1905 0.930 . S
C1911 C1907 1.400 . S
C1911 C1910 1.385 . S
C1912 C1910 1.478 . S
C1912 C1914 1.381 . S
C1912 C1918 1.383 . S
C1913 C1909 1.495 . S
C1913 H1919 0.959 . S
C1913 H1920 0.961 . S
C1913 H1921 0.960 . S
C1914 C1912 1.381 . S
C1914 C1915 1.394 . S
C1914 H1922 0.930 . S
C1915 C1914 1.394 . S
C1915 C1916 1.383 . S
C1915 H1923 0.929 . S
C1916 C1915 1.383 . S
C1916 C1917 1.377 . S
C1917 H1901 0.930 . S
C1917 C1916 1.377 . S
C1917 C1918 1.379 . S
C1918 H1902 0.931 . S
C1918 C1912 1.383 . S
C1918 C1917 1.379 . S
H1919 C1913 0.959 . S
H1920 C1913 0.961 . S
H1921 C1913 0.960 . S
H1922 C1914 0.930 . S
H1923 C1915 0.929 . S
H1924 C1932 0.929 . S
H1925 C1934 0.930 . S
H1926 C1936 0.930 . S
H1927 C1939 0.929 . S
H1928 C1942 0.930 . S
H1929 C1944 0.960 . S
H1930 C1944 0.960 . S
H1931 C1944 0.960 . S
C1932 H1924 0.929 . S
C1932 C1933 1.377 . S
C1932 C1934 1.384 . S
C1933 C1932 1.377 . S
C1933 C1939 1.390 . S
C1934 H1925 0.930 . S
C1934 C1932 1.384 . S
C1934 C1935 1.372 . S
C1935 C1934 1.372 . S
C1935 C1936 1.400 . S
C1935 C1940 1.490 . S
C1936 H1926 0.930 . S
C1936 C1935 1.400 . S
C1936 C1939 1.386 . S
H1937 C1953 0.930 . S
H1938 C1954 0.931 . S
C1939 H1927 0.929 . S
C1939 C1933 1.390 . S
C1939 C1936 1.386 . S
C1940 C1935 1.490 . S
C1940 C1942 1.395 . S
C1940 C1943 1.403 . S
H1941 C1947 0.930 . S
C1942 H1928 0.930 . S
C1942 C1940 1.395 . S
C1942 C1945 1.403 . S
C1943 C1940 1.403 . S
C1943 C1944 1.524 . S
C1943 C1947 1.400 . S
C1944 H1929 0.960 . S
C1944 H1930 0.960 . S
C1944 H1931 0.960 . S
C1944 C1943 1.524 . S
C1945 C1942 1.403 . S
C1945 C1946 1.392 . S
C1945 C1949 1.495 . S
C1946 C1945 1.392 . S
C1946 C1947 1.385 . S
C1946 C1948 1.478 . S
C1947 H1941 0.930 . S
C1947 C1943 1.400 . S
C1947 C1946 1.385 . S
C1948 C1946 1.478 . S
C1948 C1950 1.381 . S
C1948 C1954 1.383 . S
C1949 C1945 1.495 . S
C1949 H1955 0.959 . S
C1949 H1956 0.961 . S
C1949 H1957 0.960 . S
C1950 C1948 1.381 . S
C1950 C1951 1.394 . S
C1950 H1958 0.930 . S
C1951 C1950 1.394 . S
C1951 C1952 1.383 . S
C1951 H1959 0.929 . S
C1952 C1951 1.383 . S
C1952 C1953 1.377 . S
C1953 H1937 0.930 . S
C1953 C1952 1.377 . S
C1953 C1954 1.379 . S
C1954 H1938 0.931 . S
C1954 C1948 1.383 . S
C1954 C1953 1.379 . S
H1955 C1949 0.959 . S
H1956 C1949 0.961 . S
H1957 C1949 0.960 . S
H1958 C1950 0.930 . S
H1959 C1951 0.929 . S
H1960 C1968 0.929 . S
H1961 C1970 0.930 . S
H1962 C1972 0.930 . S
H1963 C1975 0.929 . S
H1964 C1978 0.930 . S
H1965 C1980 0.960 . S
H1966 C1980 0.960 . S
H1967 C1980 0.960 . S
C1968 H1960 0.929 . S
C1968 C1969 1.377 . S
C1968 C1970 1.384 . S
C1969 C1968 1.377 . S
C1969 C1975 1.390 . S
C1970 H1961 0.930 . S
C1970 C1968 1.384 . S
C1970 C1971 1.372 . S
C1971 C1970 1.372 . S
C1971 C1972 1.400 . S
C1971 C1976 1.490 . S
C1972 H1962 0.930 . S
C1972 C1971 1.400 . S
C1972 C1975 1.386 . S
H1973 C1989 0.930 . S
H1974 C1990 0.931 . S
C1975 H1963 0.929 . S
C1975 C1969 1.390 . S
C1975 C1972 1.386 . S
C1976 C1971 1.490 . S
C1976 C1978 1.395 . S
C1976 C1979 1.403 . S
H1977 C1983 0.930 . S
C1978 H1964 0.930 . S
C1978 C1976 1.395 . S
C1978 C1981 1.403 . S
C1979 C1976 1.403 . S
C1979 C1980 1.524 . S
C1979 C1983 1.400 . S
C1980 H1965 0.960 . S
C1980 H1966 0.960 . S
C1980 H1967 0.960 . S
C1980 C1979 1.524 . S
C1981 C1978 1.403 . S
C1981 C1982 1.392 . S
C1981 C1985 1.495 . S
C1982 C1981 1.392 . S
C1982 C1983 1.385 . S
C1982 C1984 1.478 . S
C1983 H1977 0.930 . S
C1983 C1979 1.400 . S
C1983 C1982 1.385 . S
C1984 C1982 1.478 . S
C1984 C1986 1.381 . S
C1984 C1990 1.383 . S
C1985 C1981 1.495 . S
C1985 H1991 0.959 . S
C1985 H1992 0.961 . S
C1985 H1993 0.960 . S
C1986 C1984 1.381 . S
C1986 C1987 1.394 . S
C1986 H1994 0.930 . S
C1987 C1986 1.394 . S
C1987 C1988 1.383 . S
C1987 H1995 0.929 . S
C1988 C1987 1.383 . S
C1988 C1989 1.377 . S
C1989 H1973 0.930 . S
C1989 C1988 1.377 . S
C1989 C1990 1.379 . S
C1990 H1974 0.931 . S
C1990 C1984 1.383 . S
C1990 C1989 1.379 . S
H1991 C1985 0.959 . S
H1992 C1985 0.961 . S
H1993 C1985 0.960 . S
H1994 C1986 0.930 . S
H1995 C1987 0.929 . S
H1996 C2004 0.929 . S
H1997 C2006 0.930 . S
H1998 C2008 0.930 . S
H1999 C2011 0.929 . S
H2000 C2014 0.930 . S
H2001 C2016 0.960 . S
H2002 C2016 0.960 . S
H2003 C2016 0.960 . S
C2004 H1996 0.929 . S
C2004 C2005 1.377 . S
C2004 C2006 1.384 . S
C2005 C2004 1.377 . S
C2005 C2011 1.390 . S
C2006 H1997 0.930 . S
C2006 C2004 1.384 . S
C2006 C2007 1.372 . S
C2007 C2006 1.372 . S
C2007 C2008 1.400 . S
C2007 C2012 1.490 . S
C2008 H1998 0.930 . S
C2008 C2007 1.400 . S
C2008 C2011 1.386 . S
H2009 C2025 0.930 . S
H2010 C2026 0.931 . S
C2011 H1999 0.929 . S
C2011 C2005 1.390 . S
C2011 C2008 1.386 . S
C2012 C2007 1.490 . S
C2012 C2014 1.395 . S
C2012 C2015 1.403 . S
H2013 C2019 0.930 . S
C2014 H2000 0.930 . S
C2014 C2012 1.395 . S
C2014 C2017 1.403 . S
C2015 C2012 1.403 . S
C2015 C2016 1.524 . S
C2015 C2019 1.400 . S
C2016 H2001 0.960 . S
C2016 H2002 0.960 . S
C2016 H2003 0.960 . S
C2016 C2015 1.524 . S
C2017 C2014 1.403 . S
C2017 C2018 1.392 . S
C2017 C2021 1.495 . S
C2018 C2017 1.392 . S
C2018 C2019 1.385 . S
C2018 C2020 1.478 . S
C2019 H2013 0.930 . S
C2019 C2015 1.400 . S
C2019 C2018 1.385 . S
C2020 C2018 1.478 . S
C2020 C2022 1.381 . S
C2020 C2026 1.383 . S
C2021 C2017 1.495 . S
C2021 H2027 0.959 . S
C2021 H2028 0.961 . S
C2021 H2029 0.960 . S
C2022 C2020 1.381 . S
C2022 C2023 1.394 . S
C2022 H2030 0.930 . S
C2023 C2022 1.394 . S
C2023 C2024 1.383 . S
C2023 H2031 0.929 . S
C2024 C2023 1.383 . S
C2024 C2025 1.377 . S
C2025 H2009 0.930 . S
C2025 C2024 1.377 . S
C2025 C2026 1.379 . S
C2026 H2010 0.931 . S
C2026 C2020 1.383 . S
C2026 C2025 1.379 . S
H2027 C2021 0.959 . S
H2028 C2021 0.961 . S
H2029 C2021 0.960 . S
H2030 C2022 0.930 . S
H2031 C2023 0.929 . S
H2032 C2040 0.929 . S
H2033 C2042 0.930 . S
H2034 C2044 0.930 . S
H2035 C2047 0.929 . S
H2036 C2050 0.930 . S
H2037 C2052 0.960 . S
H2038 C2052 0.960 . S
H2039 C2052 0.960 . S
C2040 H2032 0.929 . S
C2040 C2041 1.377 . S
C2040 C2042 1.384 . S
C2041 C2040 1.377 . S
C2041 C2047 1.390 . S
C2042 H2033 0.930 . S
C2042 C2040 1.384 . S
C2042 C2043 1.372 . S
C2043 C2042 1.372 . S
C2043 C2044 1.400 . S
C2043 C2048 1.490 . S
C2044 H2034 0.930 . S
C2044 C2043 1.400 . S
C2044 C2047 1.386 . S
H2045 C2061 0.930 . S
H2046 C2062 0.931 . S
C2047 H2035 0.929 . S
C2047 C2041 1.390 . S
C2047 C2044 1.386 . S
C2048 C2043 1.490 . S
C2048 C2050 1.395 . S
C2048 C2051 1.403 . S
H2049 C2055 0.930 . S
C2050 H2036 0.930 . S
C2050 C2048 1.395 . S
C2050 C2053 1.403 1_554 S
C2051 C2048 1.403 . S
C2051 C2052 1.524 . S
C2051 C2055 1.400 1_554 S
C2052 H2037 0.960 . S
C2052 H2038 0.960 . S
C2052 H2039 0.960 . S
C2052 C2051 1.524 . S
C2053 C2050 1.403 1_556 S
C2053 C2054 1.392 . S
C2053 C2057 1.495 . S
C2054 C2053 1.392 . S
C2054 C2055 1.385 . S
C2054 C2056 1.478 . S
C2055 H2049 0.930 . S
C2055 C2051 1.400 1_556 S
C2055 C2054 1.385 . S
C2056 C2054 1.478 . S
C2056 C2058 1.381 . S
C2056 C2062 1.383 . S
C2057 C2053 1.495 . S
C2057 H2063 0.959 . S
C2057 H2064 0.961 . S
C2057 H2065 0.960 . S
C2058 C2056 1.381 . S
C2058 C2059 1.394 . S
C2058 H2066 0.930 . S
C2059 C2058 1.394 . S
C2059 C2060 1.383 . S
C2059 H2067 0.929 . S
C2060 C2059 1.383 . S
C2060 C2061 1.377 . S
C2061 H2045 0.930 . S
C2061 C2060 1.377 . S
C2061 C2062 1.379 . S
C2062 H2046 0.931 . S
C2062 C2056 1.383 . S
C2062 C2061 1.379 . S
H2063 C2057 0.959 . S
H2064 C2057 0.961 . S
H2065 C2057 0.960 . S
H2066 C2058 0.930 . S
H2067 C2059 0.929 . S
H2068 C2076 0.941 . S
H2069 C2078 0.930 1_655 S
H2070 C2080 0.930 . S
H2071 C2083 0.929 . S
H2072 C2086 0.930 . S
H2073 C2088 0.960 . S
H2074 C2088 0.960 . S
H2075 C2088 0.960 . S
C2076 H2068 0.941 . S
C2076 C2077 1.377 . S
C2076 C2078 1.384 . S
C2077 C2076 1.377 . S
C2077 C2083 1.390 . S
C2078 H2069 0.930 1_455 S
C2078 C2076 1.384 . S
C2078 C2079 1.372 . S
C2079 C2078 1.372 . S
C2079 C2080 1.400 . S
C2079 C2084 1.490 . S
C2080 H2070 0.930 . S
C2080 C2079 1.400 . S
C2080 C2083 1.386 . S
H2081 C2097 0.956 . S
H2082 C2098 0.931 1_455 S
C2083 H2071 0.929 . S
C2083 C2077 1.390 . S
C2083 C2080 1.386 . S
C2084 C2079 1.490 . S
C2084 C2086 1.395 1_455 S
C2084 C2087 1.403 . S
H2085 C2091 0.938 . S
C2086 H2072 0.930 . S
C2086 C2084 1.395 1_655 S
C2086 C2089 1.403 . S
C2087 C2084 1.403 . S
C2087 C2088 1.524 . S
C2087 C2091 1.419 . S
C2088 H2073 0.960 . S
C2088 H2074 0.960 . S
C2088 H2075 0.960 . S
C2088 C2087 1.524 . S
C2089 C2086 1.403 . S
C2089 C2090 1.392 . S
C2089 C2093 1.495 . S
C2090 C2089 1.392 . S
C2090 C2091 1.361 1_655 S
C2090 C2092 1.478 . S
C2091 H2085 0.938 . S
C2091 C2087 1.419 . S
C2091 C2090 1.361 1_455 S
C2092 C2090 1.478 . S
C2092 C2094 1.381 . S
C2092 C2098 1.383 . S
C2093 C2089 1.495 . S
C2093 H2099 0.959 . S
C2093 H2100 0.961 . S
C2093 H2101 0.960 . S
C2094 C2092 1.381 . S
C2094 C2095 1.394 . S
C2094 H2102 0.930 . S
C2095 C2094 1.394 . S
C2095 C2096 1.383 . S
C2095 H2103 0.929 . S
C2096 C2095 1.383 . S
C2096 C2097 1.377 . S
C2097 H2081 0.956 . S
C2097 C2096 1.377 . S
C2097 C2098 1.379 . S
C2098 H2082 0.931 1_655 S
C2098 C2092 1.383 . S
C2098 C2097 1.379 . S
H2099 C2093 0.959 . S
H2100 C2093 0.961 . S
H2101 C2093 0.960 . S
H2102 C2094 0.930 . S
H2103 C2095 0.929 . S
H2104 C2112 0.929 . S
H2105 C2114 0.930 . S
H2106 C2116 0.930 1_655 S
H2107 C2119 0.929 . S
H2108 C2122 0.933 . S
H2109 C2124 0.960 1_556 S
H2110 C2124 0.960 . S
H2111 C2124 0.960 . S
C2112 H2104 0.929 . S
C2112 C2113 1.377 . S
C2112 C2114 1.384 . S
C2113 C2112 1.377 . S
C2113 C2119 1.390 . S
C2114 H2105 0.930 . S
C2114 C2112 1.384 . S
C2114 C2115 1.372 . S
C2115 C2114 1.372 . S
C2115 C2116 1.400 . S
C2115 C2120 1.490 . S
C2116 H2106 0.930 1_455 S
C2116 C2115 1.400 . S
C2116 C2119 1.386 . S
H2117 C2133 0.930 . S
H2118 C2134 0.931 . S
C2119 H2107 0.929 . S
C2119 C2113 1.390 . S
C2119 C2116 1.386 . S
C2120 C2115 1.490 . S
C2120 C2122 1.412 . S
C2120 C2123 1.403 . S
H2121 C2127 0.931 . S
C2122 H2108 0.933 . S
C2122 C2120 1.412 . S
C2122 C2125 1.386 1_454 S
C2123 C2120 1.403 . S
C2123 C2124 1.524 . S
C2123 C2127 1.391 1_454 S
C2124 H2109 0.960 1_554 S
C2124 H2110 0.960 . S
C2124 H2111 0.960 . S
C2124 C2123 1.524 . S
C2125 C2122 1.386 1_656 S
C2125 C2126 1.392 . S
C2125 C2129 1.495 . S
C2126 C2125 1.392 . S
C2126 C2127 1.393 . S
C2126 C2128 1.478 . S
C2127 H2121 0.931 . S
C2127 C2123 1.391 1_656 S
C2127 C2126 1.393 . S
C2128 C2126 1.478 . S
C2128 C2130 1.381 . S
C2128 C2134 1.383 . S
C2129 C2125 1.495 . S
C2129 H2135 0.959 1_556 S
C2129 H2136 0.961 . S
C2129 H2137 0.960 . S
C2130 C2128 1.381 . S
C2130 C2131 1.394 . S
C2130 H2138 0.930 1_655 S
C2131 C2130 1.394 . S
C2131 C2132 1.383 . S
C2131 H2139 0.929 . S
C2132 C2131 1.383 . S
C2132 C2133 1.377 . S
C2133 H2117 0.930 . S
C2133 C2132 1.377 . S
C2133 C2134 1.379 . S
C2134 H2118 0.931 . S
C2134 C2128 1.383 . S
C2134 C2133 1.379 . S
H2135 C2129 0.959 1_554 S
H2136 C2129 0.961 . S
H2137 C2129 0.960 . S
H2138 C2130 0.930 1_455 S
H2139 C2131 0.929 . S
H2140 C2148 0.929 . S
H2141 C2150 0.930 . S
H2142 C2152 0.930 . S
H2143 C2155 0.929 . S
H2144 C2158 0.930 . S
H2145 C2160 0.960 . S
H2146 C2160 0.960 . S
H2147 C2160 0.960 . S
C2148 H2140 0.929 . S
C2148 C2149 1.377 . S
C2148 C2150 1.384 . S
C2149 C2148 1.377 . S
C2149 C2155 1.390 . S
C2150 H2141 0.930 . S
C2150 C2148 1.384 . S
C2150 C2151 1.372 . S
C2151 C2150 1.372 . S
C2151 C2152 1.400 . S
C2151 C2156 1.490 . S
C2152 H2142 0.930 . S
C2152 C2151 1.400 . S
C2152 C2155 1.386 . S
H2153 C2169 0.930 . S
H2154 C2170 0.931 . S
C2155 H2143 0.929 . S
C2155 C2149 1.390 . S
C2155 C2152 1.386 . S
C2156 C2151 1.490 . S
C2156 C2158 1.395 . S
C2156 C2159 1.403 . S
H2157 C2163 0.930 . S
C2158 H2144 0.930 . S
C2158 C2156 1.395 . S
C2158 C2161 1.403 . S
C2159 C2156 1.403 . S
C2159 C2160 1.524 . S
C2159 C2163 1.400 . S
C2160 H2145 0.960 . S
C2160 H2146 0.960 . S
C2160 H2147 0.960 . S
C2160 C2159 1.524 . S
C2161 C2158 1.403 . S
C2161 C2162 1.392 . S
C2161 C2165 1.495 . S
C2162 C2161 1.392 . S
C2162 C2163 1.385 . S
C2162 C2164 1.478 . S
C2163 H2157 0.930 . S
C2163 C2159 1.400 . S
C2163 C2162 1.385 . S
C2164 C2162 1.478 . S
C2164 C2166 1.381 . S
C2164 C2170 1.383 . S
C2165 C2161 1.495 . S
C2165 H2171 0.959 . S
C2165 H2172 0.961 . S
C2165 H2173 0.960 . S
C2166 C2164 1.381 . S
C2166 C2167 1.394 . S
C2166 H2174 0.930 . S
C2167 C2166 1.394 . S
C2167 C2168 1.383 . S
C2167 H2175 0.929 . S
C2168 C2167 1.383 . S
C2168 C2169 1.377 . S
C2169 H2153 0.930 . S
C2169 C2168 1.377 . S
C2169 C2170 1.379 . S
C2170 H2154 0.931 . S
C2170 C2164 1.383 . S
C2170 C2169 1.379 . S
H2171 C2165 0.959 . S
H2172 C2165 0.961 . S
H2173 C2165 0.960 . S
H2174 C2166 0.930 . S
H2175 C2167 0.929 . S
H2176 C2184 0.929 . S
H2177 C2186 0.930 . S
H2178 C2188 0.930 . S
H2179 C2191 0.929 . S
H2180 C2194 0.930 . S
H2181 C2196 0.960 . S
H2182 C2196 0.960 . S
H2183 C2196 0.960 . S
C2184 H2176 0.929 . S
C2184 C2185 1.377 . S
C2184 C2186 1.384 . S
C2185 C2184 1.377 . S
C2185 C2191 1.390 . S
C2186 H2177 0.930 . S
C2186 C2184 1.384 . S
C2186 C2187 1.372 . S
C2187 C2186 1.372 . S
C2187 C2188 1.400 . S
C2187 C2192 1.490 . S
C2188 H2178 0.930 . S
C2188 C2187 1.400 . S
C2188 C2191 1.386 . S
H2189 C2205 0.930 . S
H2190 C2206 0.931 . S
C2191 H2179 0.929 . S
C2191 C2185 1.390 . S
C2191 C2188 1.386 . S
C2192 C2187 1.490 . S
C2192 C2194 1.395 . S
C2192 C2195 1.403 . S
H2193 C2199 0.930 . S
C2194 H2180 0.930 . S
C2194 C2192 1.395 . S
C2194 C2197 1.403 . S
C2195 C2192 1.403 . S
C2195 C2196 1.524 . S
C2195 C2199 1.400 . S
C2196 H2181 0.960 . S
C2196 H2182 0.960 . S
C2196 H2183 0.960 . S
C2196 C2195 1.524 . S
C2197 C2194 1.403 . S
C2197 C2198 1.392 . S
C2197 C2201 1.495 . S
C2198 C2197 1.392 . S
C2198 C2199 1.385 . S
C2198 C2200 1.478 . S
C2199 H2193 0.930 . S
C2199 C2195 1.400 . S
C2199 C2198 1.385 . S
C2200 C2198 1.478 . S
C2200 C2202 1.381 . S
C2200 C2206 1.383 . S
C2201 C2197 1.495 . S
C2201 H2207 0.959 . S
C2201 H2208 0.961 . S
C2201 H2209 0.960 . S
C2202 C2200 1.381 . S
C2202 C2203 1.394 . S
C2202 H2210 0.930 . S
C2203 C2202 1.394 . S
C2203 C2204 1.383 . S
C2203 H2211 0.929 . S
C2204 C2203 1.383 . S
C2204 C2205 1.377 . S
C2205 H2189 0.930 . S
C2205 C2204 1.377 . S
C2205 C2206 1.379 . S
C2206 H2190 0.931 . S
C2206 C2200 1.383 . S
C2206 C2205 1.379 . S
H2207 C2201 0.959 . S
H2208 C2201 0.961 . S
H2209 C2201 0.960 . S
H2210 C2202 0.930 . S
H2211 C2203 0.929 . S
H2212 C2220 0.929 . S
H2213 C2222 0.930 . S
H2214 C2224 0.930 . S
H2215 C2227 0.929 . S
H2216 C2230 0.930 . S
H2217 C2232 0.960 . S
H2218 C2232 0.960 . S
H2219 C2232 0.960 . S
C2220 H2212 0.929 . S
C2220 C2221 1.377 . S
C2220 C2222 1.384 . S
C2221 C2220 1.377 . S
C2221 C2227 1.390 . S
C2222 H2213 0.930 . S
C2222 C2220 1.384 . S
C2222 C2223 1.372 . S
C2223 C2222 1.372 . S
C2223 C2224 1.400 . S
C2223 C2228 1.490 . S
C2224 H2214 0.930 . S
C2224 C2223 1.400 . S
C2224 C2227 1.386 . S
H2225 C2241 0.930 . S
H2226 C2242 0.931 . S
C2227 H2215 0.929 . S
C2227 C2221 1.390 . S
C2227 C2224 1.386 . S
C2228 C2223 1.490 . S
C2228 C2230 1.395 . S
C2228 C2231 1.403 . S
H2229 C2235 0.930 . S
C2230 H2216 0.930 . S
C2230 C2228 1.395 . S
C2230 C2233 1.403 . S
C2231 C2228 1.403 . S
C2231 C2232 1.524 . S
C2231 C2235 1.400 . S
C2232 H2217 0.960 . S
C2232 H2218 0.960 . S
C2232 H2219 0.960 . S
C2232 C2231 1.524 . S
C2233 C2230 1.403 . S
C2233 C2234 1.392 . S
C2233 C2237 1.495 . S
C2234 C2233 1.392 . S
C2234 C2235 1.385 . S
C2234 C2236 1.478 . S
C2235 H2229 0.930 . S
C2235 C2231 1.400 . S
C2235 C2234 1.385 . S
C2236 C2234 1.478 . S
C2236 C2238 1.381 . S
C2236 C2242 1.383 . S
C2237 C2233 1.495 . S
C2237 H2243 0.959 . S
C2237 H2244 0.961 . S
C2237 H2245 0.960 . S
C2238 C2236 1.381 . S
C2238 C2239 1.394 . S
C2238 H2246 0.930 . S
C2239 C2238 1.394 . S
C2239 C2240 1.383 . S
C2239 H2247 0.929 . S
C2240 C2239 1.383 . S
C2240 C2241 1.377 . S
C2241 H2225 0.930 . S
C2241 C2240 1.377 . S
C2241 C2242 1.379 . S
C2242 H2226 0.931 . S
C2242 C2236 1.383 . S
C2242 C2241 1.379 . S
H2243 C2237 0.959 . S
H2244 C2237 0.961 . S
H2245 C2237 0.960 . S
H2246 C2238 0.930 . S
H2247 C2239 0.929 . S
H2248 C2256 0.929 . S
H2249 C2258 0.930 . S
H2250 C2260 0.930 . S
H2251 C2263 0.929 . S
H2252 C2266 0.930 . S
H2253 C2268 0.960 . S
H2254 C2268 0.960 . S
H2255 C2268 0.960 . S
C2256 H2248 0.929 . S
C2256 C2257 1.377 . S
C2256 C2258 1.384 . S
C2257 C2256 1.377 . S
C2257 C2263 1.390 . S
C2258 H2249 0.930 . S
C2258 C2256 1.384 . S
C2258 C2259 1.372 . S
C2259 C2258 1.372 . S
C2259 C2260 1.400 . S
C2259 C2264 1.490 . S
C2260 H2250 0.930 . S
C2260 C2259 1.400 . S
C2260 C2263 1.386 . S
H2261 C2277 0.930 . S
H2262 C2278 0.931 . S
C2263 H2251 0.929 . S
C2263 C2257 1.390 . S
C2263 C2260 1.386 . S
C2264 C2259 1.490 . S
C2264 C2266 1.395 . S
C2264 C2267 1.403 . S
H2265 C2271 0.930 . S
C2266 H2252 0.930 . S
C2266 C2264 1.395 . S
C2266 C2269 1.403 . S
C2267 C2264 1.403 . S
C2267 C2268 1.524 . S
C2267 C2271 1.400 . S
C2268 H2253 0.960 . S
C2268 H2254 0.960 . S
C2268 H2255 0.960 . S
C2268 C2267 1.524 . S
C2269 C2266 1.403 . S
C2269 C2270 1.392 . S
C2269 C2273 1.495 . S
C2270 C2269 1.392 . S
C2270 C2271 1.385 . S
C2270 C2272 1.478 . S
C2271 H2265 0.930 . S
C2271 C2267 1.400 . S
C2271 C2270 1.385 . S
C2272 C2270 1.478 . S
C2272 C2274 1.381 . S
C2272 C2278 1.383 . S
C2273 C2269 1.495 . S
C2273 H2279 0.959 . S
C2273 H2280 0.961 . S
C2273 H2281 0.960 . S
C2274 C2272 1.381 . S
C2274 C2275 1.394 . S
C2274 H2282 0.930 . S
C2275 C2274 1.394 . S
C2275 C2276 1.383 . S
C2275 H2283 0.929 . S
C2276 C2275 1.383 . S
C2276 C2277 1.377 . S
C2277 H2261 0.930 . S
C2277 C2276 1.377 . S
C2277 C2278 1.379 . S
C2278 H2262 0.931 . S
C2278 C2272 1.383 . S
C2278 C2277 1.379 . S
H2279 C2273 0.959 . S
H2280 C2273 0.961 . S
H2281 C2273 0.960 . S
H2282 C2274 0.930 . S
H2283 C2275 0.929 . S
H2284 C2292 0.929 . S
H2285 C2294 0.930 . S
H2286 C2296 0.930 . S
H2287 C2299 0.929 . S
H2288 C2302 0.930 . S
H2289 C2304 0.960 . S
H2290 C2304 0.960 . S
H2291 C2304 0.960 . S
C2292 H2284 0.929 . S
C2292 C2293 1.377 . S
C2292 C2294 1.384 . S
C2293 C2292 1.377 . S
C2293 C2299 1.390 . S
C2294 H2285 0.930 . S
C2294 C2292 1.384 . S
C2294 C2295 1.372 . S
C2295 C2294 1.372 . S
C2295 C2296 1.400 . S
C2295 C2300 1.490 . S
C2296 H2286 0.930 . S
C2296 C2295 1.400 . S
C2296 C2299 1.386 . S
H2297 C2313 0.930 . S
H2298 C2314 0.931 . S
C2299 H2287 0.929 . S
C2299 C2293 1.390 . S
C2299 C2296 1.386 . S
C2300 C2295 1.490 . S
C2300 C2302 1.395 . S
C2300 C2303 1.403 . S
H2301 C2307 0.930 . S
C2302 H2288 0.930 . S
C2302 C2300 1.395 . S
C2302 C2305 1.403 . S
C2303 C2300 1.403 . S
C2303 C2304 1.524 . S
C2303 C2307 1.400 . S
C2304 H2289 0.960 . S
C2304 H2290 0.960 . S
C2304 H2291 0.960 . S
C2304 C2303 1.524 . S
C2305 C2302 1.403 . S
C2305 C2306 1.392 . S
C2305 C2309 1.495 . S
C2306 C2305 1.392 . S
C2306 C2307 1.385 . S
C2306 C2308 1.478 . S
C2307 H2301 0.930 . S
C2307 C2303 1.400 . S
C2307 C2306 1.385 . S
C2308 C2306 1.478 . S
C2308 C2310 1.381 . S
C2308 C2314 1.383 . S
C2309 C2305 1.495 . S
C2309 H2315 0.959 . S
C2309 H2316 0.961 . S
C2309 H2317 0.960 . S
C2310 C2308 1.381 . S
C2310 C2311 1.394 . S
C2310 H2318 0.930 . S
C2311 C2310 1.394 . S
C2311 C2312 1.383 . S
C2311 H2319 0.929 . S
C2312 C2311 1.383 . S
C2312 C2313 1.377 . S
C2313 H2297 0.930 . S
C2313 C2312 1.377 . S
C2313 C2314 1.379 . S
C2314 H2298 0.931 . S
C2314 C2308 1.383 . S
C2314 C2313 1.379 . S
H2315 C2309 0.959 . S
H2316 C2309 0.961 . S
H2317 C2309 0.960 . S
H2318 C2310 0.930 . S
H2319 C2311 0.929 . S
H2320 C2328 0.929 . S
H2321 C2330 0.930 . S
H2322 C2332 0.930 . S
H2323 C2335 0.929 . S
H2324 C2338 0.930 . S
H2325 C2340 0.960 . S
H2326 C2340 0.960 . S
H2327 C2340 0.960 . S
C2328 H2320 0.929 . S
C2328 C2329 1.377 . S
C2328 C2330 1.384 . S
C2329 C2328 1.377 . S
C2329 C2335 1.390 . S
C2330 H2321 0.930 . S
C2330 C2328 1.384 . S
C2330 C2331 1.372 . S
C2331 C2330 1.372 . S
C2331 C2332 1.400 . S
C2331 C2336 1.490 . S
C2332 H2322 0.930 . S
C2332 C2331 1.400 . S
C2332 C2335 1.386 . S
H2333 C2349 0.930 . S
H2334 C2350 0.931 . S
C2335 H2323 0.929 . S
C2335 C2329 1.390 . S
C2335 C2332 1.386 . S
C2336 C2331 1.490 . S
C2336 C2338 1.395 . S
C2336 C2339 1.403 . S
H2337 C2343 0.930 . S
C2338 H2324 0.930 . S
C2338 C2336 1.395 . S
C2338 C2341 1.403 . S
C2339 C2336 1.403 . S
C2339 C2340 1.524 . S
C2339 C2343 1.400 . S
C2340 H2325 0.960 . S
C2340 H2326 0.960 . S
C2340 H2327 0.960 . S
C2340 C2339 1.524 . S
C2341 C2338 1.403 . S
C2341 C2342 1.392 . S
C2341 C2345 1.495 . S
C2342 C2341 1.392 . S
C2342 C2343 1.385 . S
C2342 C2344 1.478 . S
C2343 H2337 0.930 . S
C2343 C2339 1.400 . S
C2343 C2342 1.385 . S
C2344 C2342 1.478 . S
C2344 C2346 1.381 . S
C2344 C2350 1.383 . S
C2345 C2341 1.495 . S
C2345 H2351 0.959 . S
C2345 H2352 0.961 . S
C2345 H2353 0.960 . S
C2346 C2344 1.381 . S
C2346 C2347 1.394 . S
C2346 H2354 0.930 . S
C2347 C2346 1.394 . S
C2347 C2348 1.383 . S
C2347 H2355 0.929 . S
C2348 C2347 1.383 . S
C2348 C2349 1.377 . S
C2349 H2333 0.930 . S
C2349 C2348 1.377 . S
C2349 C2350 1.379 . S
C2350 H2334 0.931 . S
C2350 C2344 1.383 . S
C2350 C2349 1.379 . S
H2351 C2345 0.959 . S
H2352 C2345 0.961 . S
H2353 C2345 0.960 . S
H2354 C2346 0.930 . S
H2355 C2347 0.929 . S
H2356 C2364 0.929 . S
H2357 C2366 0.930 . S
H2358 C2368 0.930 . S
H2359 C2371 0.929 . S
H2360 C2374 0.930 . S
H2361 C2376 0.960 . S
H2362 C2376 0.960 . S
H2363 C2376 0.960 . S
C2364 H2356 0.929 . S
C2364 C2365 1.377 . S
C2364 C2366 1.384 . S
C2365 C2364 1.377 . S
C2365 C2371 1.390 . S
C2366 H2357 0.930 . S
C2366 C2364 1.384 . S
C2366 C2367 1.372 . S
C2367 C2366 1.372 . S
C2367 C2368 1.400 . S
C2367 C2372 1.490 . S
C2368 H2358 0.930 . S
C2368 C2367 1.400 . S
C2368 C2371 1.386 . S
H2369 C2385 0.930 . S
H2370 C2386 0.931 . S
C2371 H2359 0.929 . S
C2371 C2365 1.390 . S
C2371 C2368 1.386 . S
C2372 C2367 1.490 . S
C2372 C2374 1.395 . S
C2372 C2375 1.403 . S
H2373 C2379 0.930 . S
C2374 H2360 0.930 . S
C2374 C2372 1.395 . S
C2374 C2377 1.403 . S
C2375 C2372 1.403 . S
C2375 C2376 1.524 . S
C2375 C2379 1.400 . S
C2376 H2361 0.960 . S
C2376 H2362 0.960 . S
C2376 H2363 0.960 . S
C2376 C2375 1.524 . S
C2377 C2374 1.403 . S
C2377 C2378 1.392 . S
C2377 C2381 1.495 . S
C2378 C2377 1.392 . S
C2378 C2379 1.385 . S
C2378 C2380 1.478 . S
C2379 H2373 0.930 . S
C2379 C2375 1.400 . S
C2379 C2378 1.385 . S
C2380 C2378 1.478 . S
C2380 C2382 1.381 . S
C2380 C2386 1.383 . S
C2381 C2377 1.495 . S
C2381 H2387 0.959 . S
C2381 H2388 0.961 . S
C2381 H2389 0.960 . S
C2382 C2380 1.381 . S
C2382 C2383 1.394 . S
C2382 H2390 0.930 . S
C2383 C2382 1.394 . S
C2383 C2384 1.383 . S
C2383 H2391 0.929 . S
C2384 C2383 1.383 . S
C2384 C2385 1.377 . S
C2385 H2369 0.930 . S
C2385 C2384 1.377 . S
C2385 C2386 1.379 . S
C2386 H2370 0.931 . S
C2386 C2380 1.383 . S
C2386 C2385 1.379 . S
H2387 C2381 0.959 . S
H2388 C2381 0.961 . S
H2389 C2381 0.960 . S
H2390 C2382 0.930 . S
H2391 C2383 0.929 . S
H2392 C2400 0.929 . S
H2393 C2402 0.930 . S
H2394 C2404 0.930 . S
H2395 C2407 0.929 . S
H2396 C2410 0.930 . S
H2397 C2412 0.960 . S
H2398 C2412 0.960 . S
H2399 C2412 0.960 . S
C2400 H2392 0.929 . S
C2400 C2401 1.377 . S
C2400 C2402 1.384 . S
C2401 C2400 1.377 . S
C2401 C2407 1.390 . S
C2402 H2393 0.930 . S
C2402 C2400 1.384 . S
C2402 C2403 1.372 . S
C2403 C2402 1.372 . S
C2403 C2404 1.400 . S
C2403 C2408 1.490 . S
C2404 H2394 0.930 . S
C2404 C2403 1.400 . S
C2404 C2407 1.386 . S
H2405 C2421 0.930 . S
H2406 C2422 0.931 . S
C2407 H2395 0.929 . S
C2407 C2401 1.390 . S
C2407 C2404 1.386 . S
C2408 C2403 1.490 . S
C2408 C2410 1.395 . S
C2408 C2411 1.403 . S
H2409 C2415 0.930 . S
C2410 H2396 0.930 . S
C2410 C2408 1.395 . S
C2410 C2413 1.403 . S
C2411 C2408 1.403 . S
C2411 C2412 1.524 . S
C2411 C2415 1.400 . S
C2412 H2397 0.960 . S
C2412 H2398 0.960 . S
C2412 H2399 0.960 . S
C2412 C2411 1.524 . S
C2413 C2410 1.403 . S
C2413 C2414 1.392 . S
C2413 C2417 1.495 . S
C2414 C2413 1.392 . S
C2414 C2415 1.385 . S
C2414 C2416 1.478 . S
C2415 H2409 0.930 . S
C2415 C2411 1.400 . S
C2415 C2414 1.385 . S
C2416 C2414 1.478 . S
C2416 C2418 1.381 . S
C2416 C2422 1.383 . S
C2417 C2413 1.495 . S
C2417 H2423 0.959 . S
C2417 H2424 0.961 . S
C2417 H2425 0.960 . S
C2418 C2416 1.381 . S
C2418 C2419 1.394 . S
C2418 H2426 0.930 . S
C2419 C2418 1.394 . S
C2419 C2420 1.383 . S
C2419 H2427 0.919 1_545 S
C2420 C2419 1.383 . S
C2420 C2421 1.377 . S
C2421 H2405 0.930 . S
C2421 C2420 1.377 . S
C2421 C2422 1.379 . S
C2422 H2406 0.931 . S
C2422 C2416 1.383 . S
C2422 C2421 1.379 . S
H2423 C2417 0.959 . S
H2424 C2417 0.961 . S
H2425 C2417 0.960 . S
H2426 C2418 0.930 . S
H2427 C2419 0.919 1_565 S
H2428 C2436 0.929 . S
H2429 C2438 0.930 . S
H2430 C2440 0.930 . S
H2431 C2443 0.929 . S
H2432 C2446 0.930 . S
H2433 C2448 0.960 . S
H2434 C2448 0.960 . S
H2435 C2448 0.960 . S
C2436 H2428 0.929 . S
C2436 C2437 1.377 . S
C2436 C2438 1.384 . S
C2437 C2436 1.377 . S
C2437 C2443 1.390 . S
C2438 H2429 0.930 . S
C2438 C2436 1.384 . S
C2438 C2439 1.372 . S
C2439 C2438 1.372 . S
C2439 C2440 1.400 . S
C2439 C2444 1.490 . S
C2440 H2430 0.930 . S
C2440 C2439 1.400 . S
C2440 C2443 1.386 . S
H2441 C2457 0.930 . S
H2442 C2458 0.931 . S
C2443 H2431 0.929 . S
C2443 C2437 1.390 . S
C2443 C2440 1.386 . S
C2444 C2439 1.490 . S
C2444 C2446 1.395 . S
C2444 C2447 1.403 . S
H2445 C2451 0.930 . S
C2446 H2432 0.930 . S
C2446 C2444 1.395 . S
C2446 C2449 1.403 . S
C2447 C2444 1.403 . S
C2447 C2448 1.524 . S
C2447 C2451 1.400 . S
C2448 H2433 0.960 . S
C2448 H2434 0.960 . S
C2448 H2435 0.960 . S
C2448 C2447 1.524 . S
C2449 C2446 1.403 . S
C2449 C2450 1.392 . S
C2449 C2453 1.495 . S
C2450 C2449 1.392 . S
C2450 C2451 1.385 . S
C2450 C2452 1.478 . S
C2451 H2445 0.930 . S
C2451 C2447 1.400 . S
C2451 C2450 1.385 . S
C2452 C2450 1.478 . S
C2452 C2454 1.381 . S
C2452 C2458 1.383 . S
C2453 C2449 1.495 . S
C2453 H2459 0.959 . S
C2453 H2460 0.961 . S
C2453 H2461 0.960 . S
C2454 C2452 1.381 . S
C2454 C2455 1.394 . S
C2454 H2462 0.930 . S
C2455 C2454 1.394 . S
C2455 C2456 1.383 . S
C2455 H2463 0.929 . S
C2456 C2455 1.383 . S
C2456 C2457 1.377 . S
C2457 H2441 0.930 . S
C2457 C2456 1.377 . S
C2457 C2458 1.379 . S
C2458 H2442 0.931 . S
C2458 C2452 1.383 . S
C2458 C2457 1.379 . S
H2459 C2453 0.959 . S
H2460 C2453 0.961 . S
H2461 C2453 0.960 . S
H2462 C2454 0.930 . S
H2463 C2455 0.929 . S
H2464 C2472 0.929 . S
H2465 C2474 0.930 . S
H2466 C2476 0.930 . S
H2467 C2479 0.929 . S
H2468 C2482 0.930 . S
H2469 C2484 0.960 . S
H2470 C2484 0.960 . S
H2471 C2484 0.960 . S
C2472 H2464 0.929 . S
C2472 C2473 1.377 . S
C2472 C2474 1.384 . S
C2473 C2472 1.377 . S
C2473 C2479 1.390 . S
C2474 H2465 0.930 . S
C2474 C2472 1.384 . S
C2474 C2475 1.372 . S
C2475 C2474 1.372 . S
C2475 C2476 1.400 . S
C2475 C2480 1.490 . S
C2476 H2466 0.930 . S
C2476 C2475 1.400 . S
C2476 C2479 1.386 . S
H2477 C2493 0.930 . S
H2478 C2494 0.931 . S
C2479 H2467 0.929 . S
C2479 C2473 1.390 . S
C2479 C2476 1.386 . S
C2480 C2475 1.490 . S
C2480 C2482 1.395 . S
C2480 C2483 1.403 . S
H2481 C2487 0.930 . S
C2482 H2468 0.930 . S
C2482 C2480 1.395 . S
C2482 C2485 1.403 . S
C2483 C2480 1.403 . S
C2483 C2484 1.524 . S
C2483 C2487 1.400 . S
C2484 H2469 0.960 . S
C2484 H2470 0.960 . S
C2484 H2471 0.960 . S
C2484 C2483 1.524 . S
C2485 C2482 1.403 . S
C2485 C2486 1.392 . S
C2485 C2489 1.495 . S
C2486 C2485 1.392 . S
C2486 C2487 1.385 . S
C2486 C2488 1.478 . S
C2487 H2481 0.930 . S
C2487 C2483 1.400 . S
C2487 C2486 1.385 . S
C2488 C2486 1.478 . S
C2488 C2490 1.381 . S
C2488 C2494 1.383 . S
C2489 C2485 1.495 . S
C2489 H2495 0.959 . S
C2489 H2496 0.961 . S
C2489 H2497 0.960 . S
C2490 C2488 1.381 . S
C2490 C2491 1.394 . S
C2490 H2498 0.930 . S
C2491 C2490 1.394 . S
C2491 C2492 1.383 . S
C2491 H2499 0.929 . S
C2492 C2491 1.383 . S
C2492 C2493 1.377 . S
C2493 H2477 0.930 . S
C2493 C2492 1.377 . S
C2493 C2494 1.379 . S
C2494 H2478 0.931 . S
C2494 C2488 1.383 . S
C2494 C2493 1.379 . S
H2495 C2489 0.959 . S
H2496 C2489 0.961 . S
H2497 C2489 0.960 . S
H2498 C2490 0.930 . S
H2499 C2491 0.929 . S
H2500 C2508 0.929 . S
H2501 C2510 0.930 . S
H2502 C2512 0.930 . S
H2503 C2515 0.929 . S
H2504 C2518 0.930 . S
H2505 C2520 0.960 . S
H2506 C2520 0.960 . S
H2507 C2520 0.960 . S
C2508 H2500 0.929 . S
C2508 C2509 1.377 . S
C2508 C2510 1.384 . S
C2509 C2508 1.377 . S
C2509 C2515 1.390 . S
C2510 H2501 0.930 . S
C2510 C2508 1.384 . S
C2510 C2511 1.372 . S
C2511 C2510 1.372 . S
C2511 C2512 1.400 . S
C2511 C2516 1.490 . S
C2512 H2502 0.930 . S
C2512 C2511 1.400 . S
C2512 C2515 1.386 . S
H2513 C2529 0.930 . S
H2514 C2530 0.931 . S
C2515 H2503 0.929 . S
C2515 C2509 1.390 . S
C2515 C2512 1.386 . S
C2516 C2511 1.490 . S
C2516 C2518 1.395 . S
C2516 C2519 1.403 . S
H2517 C2523 0.930 . S
C2518 H2504 0.930 . S
C2518 C2516 1.395 . S
C2518 C2521 1.403 . S
C2519 C2516 1.403 . S
C2519 C2520 1.524 . S
C2519 C2523 1.400 . S
C2520 H2505 0.960 . S
C2520 H2506 0.960 . S
C2520 H2507 0.960 . S
C2520 C2519 1.524 . S
C2521 C2518 1.403 . S
C2521 C2522 1.392 . S
C2521 C2525 1.495 . S
C2522 C2521 1.392 . S
C2522 C2523 1.385 . S
C2522 C2524 1.478 . S
C2523 H2517 0.930 . S
C2523 C2519 1.400 . S
C2523 C2522 1.385 . S
C2524 C2522 1.478 . S
C2524 C2526 1.381 . S
C2524 C2530 1.383 . S
C2525 C2521 1.495 . S
C2525 H2531 0.959 . S
C2525 H2532 0.961 . S
C2525 H2533 0.960 . S
C2526 C2524 1.381 . S
C2526 C2527 1.394 . S
C2526 H2534 0.930 . S
C2527 C2526 1.394 . S
C2527 C2528 1.383 . S
C2527 H2535 0.929 . S
C2528 C2527 1.383 . S
C2528 C2529 1.377 . S
C2529 H2513 0.930 . S
C2529 C2528 1.377 . S
C2529 C2530 1.379 . S
C2530 H2514 0.931 . S
C2530 C2524 1.383 . S
C2530 C2529 1.379 . S
H2531 C2525 0.959 . S
H2532 C2525 0.961 . S
H2533 C2525 0.960 . S
H2534 C2526 0.930 . S
H2535 C2527 0.929 . S
H2536 C2544 0.929 . S
H2537 C2546 0.930 . S
H2538 C2548 0.930 . S
H2539 C2551 0.929 . S
H2540 C2554 0.930 . S
H2541 C2556 0.960 . S
H2542 C2556 0.960 . S
H2543 C2556 0.960 . S
C2544 H2536 0.929 . S
C2544 C2545 1.377 . S
C2544 C2546 1.384 . S
C2545 C2544 1.377 . S
C2545 C2551 1.390 . S
C2546 H2537 0.930 . S
C2546 C2544 1.384 . S
C2546 C2547 1.372 . S
C2547 C2546 1.372 . S
C2547 C2548 1.400 . S
C2547 C2552 1.490 . S
C2548 H2538 0.930 . S
C2548 C2547 1.400 . S
C2548 C2551 1.386 . S
H2549 C2565 0.930 . S
H2550 C2566 0.931 . S
C2551 H2539 0.929 . S
C2551 C2545 1.390 . S
C2551 C2548 1.386 . S
C2552 C2547 1.490 . S
C2552 C2554 1.395 . S
C2552 C2555 1.403 . S
H2553 C2559 0.930 . S
C2554 H2540 0.930 . S
C2554 C2552 1.395 . S
C2554 C2557 1.403 . S
C2555 C2552 1.403 . S
C2555 C2556 1.524 . S
C2555 C2559 1.400 . S
C2556 H2541 0.960 . S
C2556 H2542 0.960 . S
C2556 H2543 0.960 . S
C2556 C2555 1.524 . S
C2557 C2554 1.403 . S
C2557 C2558 1.392 . S
C2557 C2561 1.495 . S
C2558 C2557 1.392 . S
C2558 C2559 1.385 . S
C2558 C2560 1.478 . S
C2559 H2553 0.930 . S
C2559 C2555 1.400 . S
C2559 C2558 1.385 . S
C2560 C2558 1.478 . S
C2560 C2562 1.381 . S
C2560 C2566 1.383 . S
C2561 C2557 1.495 . S
C2561 H2567 0.959 . S
C2561 H2568 0.961 . S
C2561 H2569 0.960 . S
C2562 C2560 1.381 . S
C2562 C2563 1.394 . S
C2562 H2570 0.930 . S
C2563 C2562 1.394 . S
C2563 C2564 1.383 . S
C2563 H2571 0.929 . S
C2564 C2563 1.383 . S
C2564 C2565 1.377 . S
C2565 H2549 0.930 . S
C2565 C2564 1.377 . S
C2565 C2566 1.379 . S
C2566 H2550 0.931 . S
C2566 C2560 1.383 . S
C2566 C2565 1.379 . S
H2567 C2561 0.959 . S
H2568 C2561 0.961 . S
H2569 C2561 0.960 . S
H2570 C2562 0.930 . S
H2571 C2563 0.929 . S
H2572 C2580 0.929 . S
H2573 C2582 0.930 . S
H2574 C2584 0.930 . S
H2575 C2587 0.929 . S
H2576 C2590 0.930 . S
H2577 C2592 0.960 . S
H2578 C2592 0.960 . S
H2579 C2592 0.960 . S
C2580 H2572 0.929 . S
C2580 C2581 1.377 . S
C2580 C2582 1.384 . S
C2581 C2580 1.377 . S
C2581 C2587 1.390 . S
C2582 H2573 0.930 . S
C2582 C2580 1.384 . S
C2582 C2583 1.372 . S
C2583 C2582 1.372 . S
C2583 C2584 1.400 . S
C2583 C2588 1.490 . S
C2584 H2574 0.930 . S
C2584 C2583 1.400 . S
C2584 C2587 1.386 . S
H2585 C2601 0.930 . S
H2586 C2602 0.931 . S
C2587 H2575 0.929 . S
C2587 C2581 1.390 . S
C2587 C2584 1.386 . S
C2588 C2583 1.490 . S
C2588 C2590 1.395 . S
C2588 C2591 1.403 . S
H2589 C2595 0.930 . S
C2590 H2576 0.930 . S
C2590 C2588 1.395 . S
C2590 C2593 1.403 . S
C2591 C2588 1.403 . S
C2591 C2592 1.524 . S
C2591 C2595 1.400 . S
C2592 H2577 0.960 . S
C2592 H2578 0.960 . S
C2592 H2579 0.960 . S
C2592 C2591 1.524 . S
C2593 C2590 1.403 . S
C2593 C2594 1.392 . S
C2593 C2597 1.495 . S
C2594 C2593 1.392 . S
C2594 C2595 1.385 . S
C2594 C2596 1.478 . S
C2595 H2589 0.930 . S
C2595 C2591 1.400 . S
C2595 C2594 1.385 . S
C2596 C2594 1.478 . S
C2596 C2598 1.381 . S
C2596 C2602 1.383 . S
C2597 C2593 1.495 . S
C2597 H2603 0.959 . S
C2597 H2604 0.961 . S
C2597 H2605 0.960 . S
C2598 C2596 1.381 . S
C2598 C2599 1.394 . S
C2598 H2606 0.930 . S
C2599 C2598 1.394 . S
C2599 C2600 1.383 . S
C2599 H2607 0.929 . S
C2600 C2599 1.383 . S
C2600 C2601 1.377 . S
C2601 H2585 0.930 . S
C2601 C2600 1.377 . S
C2601 C2602 1.379 . S
C2602 H2586 0.931 . S
C2602 C2596 1.383 . S
C2602 C2601 1.379 . S
H2603 C2597 0.959 . S
H2604 C2597 0.961 . S
H2605 C2597 0.960 . S
H2606 C2598 0.930 . S
H2607 C2599 0.929 . S
H2608 C2616 0.929 . S
H2609 C2618 0.930 . S
H2610 C2620 0.930 . S
H2611 C2623 0.929 . S
H2612 C2626 0.930 . S
H2613 C2628 0.960 . S
H2614 C2628 0.960 . S
H2615 C2628 0.960 . S
C2616 H2608 0.929 . S
C2616 C2617 1.377 . S
C2616 C2618 1.384 . S
C2617 C2616 1.377 . S
C2617 C2623 1.390 . S
C2618 H2609 0.930 . S
C2618 C2616 1.384 . S
C2618 C2619 1.372 . S
C2619 C2618 1.372 . S
C2619 C2620 1.400 . S
C2619 C2624 1.490 . S
C2620 H2610 0.930 . S
C2620 C2619 1.400 . S
C2620 C2623 1.386 . S
H2621 C2637 0.930 . S
H2622 C2638 0.931 . S
C2623 H2611 0.929 . S
C2623 C2617 1.390 . S
C2623 C2620 1.386 . S
C2624 C2619 1.490 . S
C2624 C2626 1.395 . S
C2624 C2627 1.403 . S
H2625 C2631 0.930 . S
C2626 H2612 0.930 . S
C2626 C2624 1.395 . S
C2626 C2629 1.403 . S
C2627 C2624 1.403 . S
C2627 C2628 1.524 . S
C2627 C2631 1.400 . S
C2628 H2613 0.960 . S
C2628 H2614 0.960 . S
C2628 H2615 0.960 . S
C2628 C2627 1.524 . S
C2629 C2626 1.403 . S
C2629 C2630 1.392 . S
C2629 C2633 1.495 . S
C2630 C2629 1.392 . S
C2630 C2631 1.385 . S
C2630 C2632 1.478 . S
C2631 H2625 0.930 . S
C2631 C2627 1.400 . S
C2631 C2630 1.385 . S
C2632 C2630 1.478 . S
C2632 C2634 1.381 . S
C2632 C2638 1.383 . S
C2633 C2629 1.495 . S
C2633 H2639 0.959 . S
C2633 H2640 0.961 . S
C2633 H2641 0.960 . S
C2634 C2632 1.381 . S
C2634 C2635 1.394 . S
C2634 H2642 0.930 . S
C2635 C2634 1.394 . S
C2635 C2636 1.383 . S
C2635 H2643 0.929 . S
C2636 C2635 1.383 . S
C2636 C2637 1.377 . S
C2637 H2621 0.930 . S
C2637 C2636 1.377 . S
C2637 C2638 1.379 . S
C2638 H2622 0.931 . S
C2638 C2632 1.383 . S
C2638 C2637 1.379 . S
H2639 C2633 0.959 . S
H2640 C2633 0.961 . S
H2641 C2633 0.960 . S
H2642 C2634 0.930 . S
H2643 C2635 0.929 . S
H2644 C2652 0.929 . S
H2645 C2654 0.930 . S
H2646 C2656 0.930 . S
H2647 C2659 0.929 . S
H2648 C2662 0.930 . S
H2649 C2664 0.960 . S
H2650 C2664 0.960 . S
H2651 C2664 0.960 . S
C2652 H2644 0.929 . S
C2652 C2653 1.377 . S
C2652 C2654 1.384 . S
C2653 C2652 1.377 . S
C2653 C2659 1.390 . S
C2654 H2645 0.930 . S
C2654 C2652 1.384 . S
C2654 C2655 1.372 . S
C2655 C2654 1.372 . S
C2655 C2656 1.400 . S
C2655 C2660 1.490 . S
C2656 H2646 0.930 . S
C2656 C2655 1.400 . S
C2656 C2659 1.386 . S
H2657 C2673 0.930 . S
H2658 C2674 0.931 . S
C2659 H2647 0.929 . S
C2659 C2653 1.390 . S
C2659 C2656 1.386 . S
C2660 C2655 1.490 . S
C2660 C2662 1.395 . S
C2660 C2663 1.403 . S
H2661 C2667 0.930 . S
C2662 H2648 0.930 . S
C2662 C2660 1.395 . S
C2662 C2665 1.403 . S
C2663 C2660 1.403 . S
C2663 C2664 1.524 . S
C2663 C2667 1.400 . S
C2664 H2649 0.960 . S
C2664 H2650 0.960 . S
C2664 H2651 0.960 . S
C2664 C2663 1.524 . S
C2665 C2662 1.403 . S
C2665 C2666 1.392 . S
C2665 C2669 1.495 . S
C2666 C2665 1.392 . S
C2666 C2667 1.385 . S
C2666 C2668 1.478 . S
C2667 H2661 0.930 . S
C2667 C2663 1.400 . S
C2667 C2666 1.385 . S
C2668 C2666 1.478 . S
C2668 C2670 1.381 . S
C2668 C2674 1.383 . S
C2669 C2665 1.495 . S
C2669 H2675 0.959 . S
C2669 H2676 0.961 . S
C2669 H2677 0.960 . S
C2670 C2668 1.381 . S
C2670 C2671 1.394 . S
C2670 H2678 0.930 . S
C2671 C2670 1.394 . S
C2671 C2672 1.383 . S
C2671 H2679 0.929 . S
C2672 C2671 1.383 . S
C2672 C2673 1.377 . S
C2673 H2657 0.930 . S
C2673 C2672 1.377 . S
C2673 C2674 1.379 . S
C2674 H2658 0.931 . S
C2674 C2668 1.383 . S
C2674 C2673 1.379 . S
H2675 C2669 0.959 . S
H2676 C2669 0.961 . S
H2677 C2669 0.960 . S
H2678 C2670 0.930 . S
H2679 C2671 0.929 . S
H2680 C2688 0.929 . S
H2681 C2690 0.930 . S
H2682 C2692 0.930 . S
H2683 C2695 0.929 . S
H2684 C2698 0.930 . S
H2685 C2700 0.960 . S
H2686 C2700 0.960 . S
H2687 C2700 0.960 . S
C2688 H2680 0.929 . S
C2688 C2689 1.377 . S
C2688 C2690 1.384 . S
C2689 C2688 1.377 . S
C2689 C2695 1.390 . S
C2690 H2681 0.930 . S
C2690 C2688 1.384 . S
C2690 C2691 1.372 . S
C2691 C2690 1.372 . S
C2691 C2692 1.400 . S
C2691 C2696 1.490 . S
C2692 H2682 0.930 . S
C2692 C2691 1.400 . S
C2692 C2695 1.386 . S
H2693 C2709 0.930 . S
H2694 C2710 0.931 . S
C2695 H2683 0.929 . S
C2695 C2689 1.390 . S
C2695 C2692 1.386 . S
C2696 C2691 1.490 . S
C2696 C2698 1.395 . S
C2696 C2699 1.403 . S
H2697 C2703 0.930 . S
C2698 H2684 0.930 . S
C2698 C2696 1.395 . S
C2698 C2701 1.403 . S
C2699 C2696 1.403 . S
C2699 C2700 1.524 . S
C2699 C2703 1.400 . S
C2700 H2685 0.960 . S
C2700 H2686 0.960 . S
C2700 H2687 0.960 . S
C2700 C2699 1.524 . S
C2701 C2698 1.403 . S
C2701 C2702 1.392 . S
C2701 C2705 1.495 . S
C2702 C2701 1.392 . S
C2702 C2703 1.385 . S
C2702 C2704 1.478 . S
C2703 H2697 0.930 . S
C2703 C2699 1.400 . S
C2703 C2702 1.385 . S
C2704 C2702 1.478 . S
C2704 C2706 1.381 . S
C2704 C2710 1.383 . S
C2705 C2701 1.495 . S
C2705 H2711 0.959 . S
C2705 H2712 0.961 . S
C2705 H2713 0.960 . S
C2706 C2704 1.381 . S
C2706 C2707 1.394 . S
C2706 H2714 0.930 . S
C2707 C2706 1.394 . S
C2707 C2708 1.383 . S
C2707 H2715 0.929 . S
C2708 C2707 1.383 . S
C2708 C2709 1.377 . S
C2709 H2693 0.930 . S
C2709 C2708 1.377 . S
C2709 C2710 1.379 . S
C2710 H2694 0.931 . S
C2710 C2704 1.383 . S
C2710 C2709 1.379 . S
H2711 C2705 0.959 . S
H2712 C2705 0.961 . S
H2713 C2705 0.960 . S
H2714 C2706 0.930 . S
H2715 C2707 0.929 . S
H2716 C2724 0.929 . S
H2717 C2726 0.930 . S
H2718 C2728 0.930 . S
H2719 C2731 0.929 . S
H2720 C2734 0.930 . S
H2721 C2736 0.960 . S
H2722 C2736 0.960 . S
H2723 C2736 0.960 . S
C2724 H2716 0.929 . S
C2724 C2725 1.377 . S
C2724 C2726 1.384 . S
C2725 C2724 1.377 . S
C2725 C2731 1.390 . S
C2726 H2717 0.930 . S
C2726 C2724 1.384 . S
C2726 C2727 1.372 . S
C2727 C2726 1.372 . S
C2727 C2728 1.400 . S
C2727 C2732 1.490 . S
C2728 H2718 0.930 . S
C2728 C2727 1.400 . S
C2728 C2731 1.386 . S
H2729 C2745 0.930 . S
H2730 C2746 0.931 . S
C2731 H2719 0.929 . S
C2731 C2725 1.390 . S
C2731 C2728 1.386 . S
C2732 C2727 1.490 . S
C2732 C2734 1.395 . S
C2732 C2735 1.403 . S
H2733 C2739 0.930 . S
C2734 H2720 0.930 . S
C2734 C2732 1.395 . S
C2734 C2737 1.403 . S
C2735 C2732 1.403 . S
C2735 C2736 1.524 . S
C2735 C2739 1.400 . S
C2736 H2721 0.960 . S
C2736 H2722 0.960 . S
C2736 H2723 0.960 . S
C2736 C2735 1.524 . S
C2737 C2734 1.403 . S
C2737 C2738 1.392 . S
C2737 C2741 1.495 . S
C2738 C2737 1.392 . S
C2738 C2739 1.385 . S
C2738 C2740 1.478 . S
C2739 H2733 0.930 . S
C2739 C2735 1.400 . S
C2739 C2738 1.385 . S
C2740 C2738 1.478 . S
C2740 C2742 1.381 . S
C2740 C2746 1.383 . S
C2741 C2737 1.495 . S
C2741 H2747 0.959 . S
C2741 H2748 0.961 . S
C2741 H2749 0.960 . S
C2742 C2740 1.381 . S
C2742 C2743 1.394 . S
C2742 H2750 0.930 . S
C2743 C2742 1.394 . S
C2743 C2744 1.383 . S
C2743 H2751 0.929 . S
C2744 C2743 1.383 . S
C2744 C2745 1.377 . S
C2745 H2729 0.930 . S
C2745 C2744 1.377 . S
C2745 C2746 1.379 . S
C2746 H2730 0.931 . S
C2746 C2740 1.383 . S
C2746 C2745 1.379 . S
H2747 C2741 0.959 . S
H2748 C2741 0.961 . S
H2749 C2741 0.960 . S
H2750 C2742 0.930 . S
H2751 C2743 0.929 . S
C457 C385 1.237 . S
C476 C9 1.254 . S
C493 C23 1.232 1_655 S
C512 C119 1.252 . S
C529 C357 1.240 . S
C548 C37 1.255 . S
C565 C51 1.236 . S
C584 C147 1.258 . S
C601 C65 1.231 . S
C620 C413 1.211 . S
C637 C79 1.228 . S
C656 C203 1.206 . S
C673 C93 1.226 . S
C692 C441 1.207 . S
C709 C107 1.230 1_655 S
C728 C175 1.210 . S
C745 C273 1.240 . S
C764 C121 1.205 . S
C781 C7 1.237 . S
C800 C135 1.226 1_455 S
C817 C245 1.240 . S
C836 C149 1.201 . S
C853 C163 1.234 . S
C872 C35 1.217 . S
C889 C301 1.230 . S
C908 C177 1.257 . S
C925 C91 1.236 . S
C944 C191 1.232 . S
C961 C205 1.236 . S
C980 C329 1.213 . S
C997 C63 1.233 . S
C1016 C219 1.231 1_455 S
C1033 C233 1.228 . S
C1052 C161 1.237 . S
C1069 C247 1.229 . S
C1088 C343 1.207 . S
C1105 C133 1.237 . S
C1124 C261 1.218 . S
C1141 C371 1.232 . S
C1160 C275 1.235 1_455 S
C1177 C189 1.235 . S
C1196 C289 1.209 . S
C1213 C427 1.236 . S
C1232 C303 1.252 1_455 S
C1249 C217 1.239 . S
C1268 C317 1.234 . S
C1285 C331 1.237 . S
C1304 C399 1.257 . S
C1321 C49 1.236 . S
C1340 C345 1.219 . S
C1357 C359 1.226 . S
C1376 C231 1.254 . S
C1393 C373 1.226 . S
C1412 C21 1.259 . S
C1429 C387 1.226 1_655 S
C1448 C259 1.258 . S
C1465 C401 1.226 . S
C1484 C77 1.256 . S
C1501 C415 1.232 1_655 S
C1520 C315 1.224 . S
C1537 C429 1.234 . S
C1556 C105 1.229 . S
C1573 C443 1.237 . S
C1592 C287 1.207 . S
C1609 C339 1.520 . S
C1628 C3 1.519 . S
C1645 C17 1.519 . S
C1664 C129 1.511 . S
C1681 C367 1.519 . S
C1700 C31 1.516 . S
C1717 C45 1.519 . S
C1736 C157 1.518 . S
C1753 C395 1.520 . S
C1772 C59 1.520 . S
C1789 C73 1.520 . S
C1808 C185 1.521 . S
C1825 C423 1.520 . S
C1844 C87 1.519 . S
C1861 C101 1.520 . S
C1880 C213 1.515 . S
C1897 C115 1.520 . S
C1916 C227 1.521 . S
C1933 C143 1.520 . S
C1952 C255 1.520 . S
C1969 C171 1.519 . S
C1988 C283 1.519 . S
C2005 C199 1.520 . S
C2024 C311 1.521 . S
C2041 C241 1.520 . S
C2060 C353 1.516 . S
C2077 C381 1.519 . S
C2096 C269 1.518 . S
C2113 C409 1.521 . S
C2132 C297 1.518 . S
C2149 C325 1.520 . S
C2168 C437 1.515 . S
C2185 C8 1.471 . S
C2204 C78 1.475 . S
C2221 C22 1.481 . S
C2240 C92 1.466 . S
C2257 C36 1.470 . S
C2276 C106 1.480 . S
C2293 C64 1.470 . S
C2312 C50 1.480 . S
C2329 C120 1.471 . S
C2348 C190 1.480 . S
C2365 C134 1.481 . S
C2384 C204 1.468 . S
C2401 C148 1.470 . S
C2420 C218 1.476 . S
C2437 C162 1.481 . S
C2456 C176 1.468 . S
C2473 C232 1.470 . S
C2492 C302 1.469 . S
C2509 C316 1.470 . S
C2528 C246 1.469 . S
C2545 C260 1.470 . S
C2564 C330 1.468 . S
C2581 C274 1.471 . S
C2600 C288 1.466 . S
C2617 C414 1.470 . S
C2636 C344 1.467 . S
C2653 C358 1.470 . S
C2672 C428 1.466 . S
C2689 C442 1.470 . S
C2708 C372 1.467 . S
C2725 C386 1.470 . S
C2744 C400 1.466 . S
