# Generated by pormake.
# Topology swd, (7)-cn, num edge types: 1
# Building blocks:
#     Node 0, Type 0, BuildingBlock: HICVOG_clean_sbu_0, # of connection points: 7
#     Node 1, Type 0, BuildingBlock: HICVOG_clean_sbu_0, # of connection points: 7
#     Node 2, Type 0, BuildingBlock: HICVOG_clean_sbu_0, # of connection points: 7
#     Node 3, Type 0, BuildingBlock: HICVOG_clean_sbu_0, # of connection points: 7
#     Node 4, Type 0, BuildingBlock: HICVOG_clean_sbu_0, # of connection points: 7
#     Node 5, Type 0, BuildingBlock: HICVOG_clean_sbu_0, # of connection points: 7
#     Node 6, Type 0, BuildingBlock: HICVOG_clean_sbu_0, # of connection points: 7
#     Node 7, Type 0, BuildingBlock: HICVOG_clean_sbu_0, # of connection points: 7
#     Node 8, Type 0, BuildingBlock: HICVOG_clean_sbu_0, # of connection points: 7
#     Node 9, Type 0, BuildingBlock: HICVOG_clean_sbu_0, # of connection points: 7
#     Node 10, Type 0, BuildingBlock: HICVOG_clean_sbu_0, # of connection points: 7
#     Node 11, Type 0, BuildingBlock: HICVOG_clean_sbu_0, # of connection points: 7
#     Node 12, Type 0, BuildingBlock: HICVOG_clean_sbu_0, # of connection points: 7
#     Node 13, Type 0, BuildingBlock: HICVOG_clean_sbu_0, # of connection points: 7
#     Node 14, Type 0, BuildingBlock: HICVOG_clean_sbu_0, # of connection points: 7
#     Node 15, Type 0, BuildingBlock: HICVOG_clean_sbu_0, # of connection points: 7
#     Node 16, Type 0, BuildingBlock: HICVOG_clean_sbu_0, # of connection points: 7
#     Node 17, Type 0, BuildingBlock: HICVOG_clean_sbu_0, # of connection points: 7
#     Edge 18, Type (0, 0), BuildingBlock: AJUNOK_clean_linker_0, # of connection points: 2
#     Edge 19, Type (0, 0), BuildingBlock: AJUNOK_clean_linker_0, # of connection points: 2
#     Edge 20, Type (0, 0), BuildingBlock: AJUNOK_clean_linker_0, # of connection points: 2
#     Edge 21, Type (0, 0), BuildingBlock: AJUNOK_clean_linker_0, # of connection points: 2
#     Edge 22, Type (0, 0), BuildingBlock: AJUNOK_clean_linker_0, # of connection points: 2
#     Edge 23, Type (0, 0), BuildingBlock: AJUNOK_clean_linker_0, # of connection points: 2
#     Edge 24, Type (0, 0), BuildingBlock: AJUNOK_clean_linker_0, # of connection points: 2
#     Edge 25, Type (0, 0), BuildingBlock: AJUNOK_clean_linker_0, # of connection points: 2
#     Edge 26, Type (0, 0), BuildingBlock: AJUNOK_clean_linker_0, # of connection points: 2
#     Edge 27, Type (0, 0), BuildingBlock: AJUNOK_clean_linker_0, # of connection points: 2
#     Edge 28, Type (0, 0), BuildingBlock: AJUNOK_clean_linker_0, # of connection points: 2
#     Edge 29, Type (0, 0), BuildingBlock: AJUNOK_clean_linker_0, # of connection points: 2
#     Edge 30, Type (0, 0), BuildingBlock: AJUNOK_clean_linker_0, # of connection points: 2
#     Edge 31, Type (0, 0), BuildingBlock: AJUNOK_clean_linker_0, # of connection points: 2
#     Edge 32, Type (0, 0), BuildingBlock: AJUNOK_clean_linker_0, # of connection points: 2
#     Edge 33, Type (0, 0), BuildingBlock: AJUNOK_clean_linker_0, # of connection points: 2
#     Edge 34, Type (0, 0), BuildingBlock: AJUNOK_clean_linker_0, # of connection points: 2
#     Edge 35, Type (0, 0), BuildingBlock: AJUNOK_clean_linker_0, # of connection points: 2
#     Edge 36, Type (0, 0), BuildingBlock: AJUNOK_clean_linker_0, # of connection points: 2
#     Edge 37, Type (0, 0), BuildingBlock: AJUNOK_clean_linker_0, # of connection points: 2
#     Edge 38, Type (0, 0), BuildingBlock: AJUNOK_clean_linker_0, # of connection points: 2
#     Edge 39, Type (0, 0), BuildingBlock: AJUNOK_clean_linker_0, # of connection points: 2
#     Edge 40, Type (0, 0), BuildingBlock: AJUNOK_clean_linker_0, # of connection points: 2
#     Edge 41, Type (0, 0), BuildingBlock: AJUNOK_clean_linker_0, # of connection points: 2
#     Edge 42, Type (0, 0), BuildingBlock: AJUNOK_clean_linker_0, # of connection points: 2
#     Edge 43, Type (0, 0), BuildingBlock: AJUNOK_clean_linker_0, # of connection points: 2
#     Edge 44, Type (0, 0), BuildingBlock: AJUNOK_clean_linker_0, # of connection points: 2
#     Edge 45, Type (0, 0), BuildingBlock: AJUNOK_clean_linker_0, # of connection points: 2
#     Edge 46, Type (0, 0), BuildingBlock: AJUNOK_clean_linker_0, # of connection points: 2
#     Edge 47, Type (0, 0), BuildingBlock: AJUNOK_clean_linker_0, # of connection points: 2
#     Edge 48, Type (0, 0), BuildingBlock: AJUNOK_clean_linker_0, # of connection points: 2
#     Edge 49, Type (0, 0), BuildingBlock: AJUNOK_clean_linker_0, # of connection points: 2
#     Edge 50, Type (0, 0), BuildingBlock: AJUNOK_clean_linker_0, # of connection points: 2
#     Edge 51, Type (0, 0), BuildingBlock: AJUNOK_clean_linker_0, # of connection points: 2
#     Edge 52, Type (0, 0), BuildingBlock: AJUNOK_clean_linker_0, # of connection points: 2
#     Edge 53, Type (0, 0), BuildingBlock: AJUNOK_clean_linker_0, # of connection points: 2
#     Edge 54, Type (0, 0), BuildingBlock: AJUNOK_clean_linker_0, # of connection points: 2
#     Edge 55, Type (0, 0), BuildingBlock: AJUNOK_clean_linker_0, # of connection points: 2
#     Edge 56, Type (0, 0), BuildingBlock: AJUNOK_clean_linker_0, # of connection points: 2
#     Edge 57, Type (0, 0), BuildingBlock: AJUNOK_clean_linker_0, # of connection points: 2
#     Edge 58, Type (0, 0), BuildingBlock: AJUNOK_clean_linker_0, # of connection points: 2
#     Edge 59, Type (0, 0), BuildingBlock: AJUNOK_clean_linker_0, # of connection points: 2
#     Edge 60, Type (0, 0), BuildingBlock: AJUNOK_clean_linker_0, # of connection points: 2
#     Edge 61, Type (0, 0), BuildingBlock: AJUNOK_clean_linker_0, # of connection points: 2
#     Edge 62, Type (0, 0), BuildingBlock: AJUNOK_clean_linker_0, # of connection points: 2
#     Edge 63, Type (0, 0), BuildingBlock: AJUNOK_clean_linker_0, # of connection points: 2
#     Edge 64, Type (0, 0), BuildingBlock: AJUNOK_clean_linker_0, # of connection points: 2
#     Edge 65, Type (0, 0), BuildingBlock: AJUNOK_clean_linker_0, # of connection points: 2
#     Edge 66, Type (0, 0), BuildingBlock: AJUNOK_clean_linker_0, # of connection points: 2
#     Edge 67, Type (0, 0), BuildingBlock: AJUNOK_clean_linker_0, # of connection points: 2
#     Edge 68, Type (0, 0), BuildingBlock: AJUNOK_clean_linker_0, # of connection points: 2
#     Edge 69, Type (0, 0), BuildingBlock: AJUNOK_clean_linker_0, # of connection points: 2
#     Edge 70, Type (0, 0), BuildingBlock: AJUNOK_clean_linker_0, # of connection points: 2
#     Edge 71, Type (0, 0), BuildingBlock: AJUNOK_clean_linker_0, # of connection points: 2
#     Edge 72, Type (0, 0), BuildingBlock: AJUNOK_clean_linker_0, # of connection points: 2
#     Edge 73, Type (0, 0), BuildingBlock: AJUNOK_clean_linker_0, # of connection points: 2
#     Edge 74, Type (0, 0), BuildingBlock: AJUNOK_clean_linker_0, # of connection points: 2
#     Edge 75, Type (0, 0), BuildingBlock: AJUNOK_clean_linker_0, # of connection points: 2
#     Edge 76, Type (0, 0), BuildingBlock: AJUNOK_clean_linker_0, # of connection points: 2
#     Edge 77, Type (0, 0), BuildingBlock: AJUNOK_clean_linker_0, # of connection points: 2
#     Edge 78, Type (0, 0), BuildingBlock: AJUNOK_clean_linker_0, # of connection points: 2
#     Edge 79, Type (0, 0), BuildingBlock: AJUNOK_clean_linker_0, # of connection points: 2
#     Edge 80, Type (0, 0), BuildingBlock: AJUNOK_clean_linker_0, # of connection points: 2
# Relax obj value: 0.469
# Max RMSD: 0.325
# Mean RMSD: 0.323
data_MOF--net-swd--node1-HICVOG_clean_sbu_0--edge1-AJUNOK_clean_linker_0
_symmetry_space_group_name_H-M    P1
_symmetry_Int_Tables_number       1
_symmetry_cell_setting            triclinic
loop_
_symmetry_equiv_pos_as_xyz
'x, y, z'
_cell_length_a     38.8946
_cell_length_b     38.987412
_cell_length_c     23.712195
_cell_angle_alpha  89.78884
_cell_angle_beta   90.395885
_cell_angle_gamma 119.7648
loop_
_atom_site_label
_atom_site_type_symbol
_atom_site_fract_x
_atom_site_fract_y
_atom_site_fract_z
_atom_type_partial_charge
Zn0 Zn 0.23312 0.1703 0.35977 0.0
C1 C 0.2086 0.0848 0.48224 0.0
N2 N 0.2091 0.11124 0.51768 0.0
C3 C 0.22124 0.14437 0.48743 0.0
N4 N 0.22817 0.13917 0.43243 0.0
N5 N 0.2213 0.10184 0.43021 0.0
C6 C 0.18403 0.01734 0.30535 0.0
O7 O 0.19978 0.04332 0.2645 0.0
O8 O 0.26367 0.23223 0.35248 0.0
Zn9 Zn 0.24382 0.08199 0.37537 0.0
N10 N 0.17881 0.14718 0.33066 0.0
C11 C 0.12398 0.08682 0.29899 0.0
C12 C 0.1634 0.10869 0.31584 0.0
C13 C 0.15607 0.16495 0.32896 0.0
N14 N 0.10108 0.10405 0.29887 0.0
C15 C 0.11554 0.14253 0.31391 0.0
O16 O 0.26855 0.10965 0.30188 0.0
C17 C 0.27728 0.14219 0.27857 0.0
O18 O 0.26533 0.16418 0.2994 0.0
H19 H 0.18167 0.09501 0.31802 0.0
H20 H 0.16935 0.1959 0.33871 0.0
C21 C 0.31617 0.0815 0.38509 0.0
C22 C 0.35419 0.09349 0.40634 0.0
C23 C 0.34109 0.12164 0.48563 0.0
C24 C 0.30394 0.11108 0.46331 0.0
N25 N 0.29183 0.09053 0.41384 0.0
N26 N 0.36544 0.1126 0.45669 0.0
H27 H 0.30588 0.06543 0.34579 0.0
C28 C 0.30113 0.25436 0.35586 0.0
O29 O 0.32273 0.23809 0.36883 0.0
O30 O 0.19991 0.02611 0.35424 0.0
H31 H 0.28581 0.1204 0.48501 0.0
H32 H 0.11142 0.05611 0.28711 0.0
H33 H 0.35082 0.13756 0.52509 0.0
Zn34 Zn 0.92305 0.1728 0.39564 0.0
C35 C 0.86286 0.0769 0.4889 0.0
N36 N 0.89529 0.09556 0.52209 0.0
C37 C 0.91976 0.12689 0.49119 0.0
N38 N 0.903 0.12711 0.44125 0.0
N39 N 0.86737 0.09539 0.43906 0.0
C40 C 0.75743 0.04861 0.37139 0.0
O41 O 0.77496 0.08732 0.36834 0.0
O42 O 0.9802 0.18862 0.37775 0.0
Zn43 Zn 0.83896 0.06988 0.36857 0.0
N44 N 0.9149 0.20947 0.44081 0.0
C45 C 0.88722 0.22503 0.5196 0.0
C46 C 0.90023 0.20132 0.49428 0.0
C47 C 0.91593 0.23974 0.41152 0.0
N48 N 0.88798 0.25516 0.48988 0.0
C49 C 0.90141 0.26273 0.43596 0.0
O50 O 0.8427 0.10849 0.30686 0.0
C51 C 0.86373 0.14472 0.29312 0.0
O52 O 0.89308 0.1684 0.32332 0.0
H53 H 0.89682 0.17587 0.51681 0.0
H54 H 0.92726 0.24508 0.36893 0.0
C55 C 0.84534 1.00081 0.33201 0.0
C56 C 0.86725 0.98391 0.31013 0.0
C57 C 0.92457 0.04771 0.30765 0.0
C58 C 0.90281 0.06423 0.3287 0.0
N59 N 0.86372 0.04077 0.33996 0.0
N60 N 0.90635 0.00819 0.29878 0.0
H61 H 0.81424 0.98268 0.34185 0.0
C62 C 0.98798 0.17943 0.32983 0.0
O63 O 0.96022 0.16557 0.29081 0.0
O64 O 0.77908 0.03271 0.37675 0.0
H65 H 0.91685 0.09562 0.33631 0.0
H66 H 0.87567 0.21893 0.56207 0.0
H67 H 0.95574 0.06609 0.29851 0.0
Zn68 Zn 0.94363 0.77428 0.33256 0.0
C69 C 0.89106 0.80667 0.454 0.0
N70 N 0.91906 0.80965 0.48941 0.0
C71 C 0.93992 0.79732 0.45853 0.0
N72 N 0.92525 0.78708 0.40476 0.0
N73 N 0.89417 0.79272 0.4032 0.0
C74 C 0.83118 0.82129 0.29676 0.0
O75 O 0.8416 0.80758 0.25357 0.0
O76 O 0.97797 0.74732 0.33769 0.0
Zn77 Zn 0.84649 0.76533 0.35977 0.0
N78 N 0.96922 0.82347 0.28855 0.0
C79 C 0.96027 0.87058 0.23545 0.0
C80 C 0.9446 0.8339 0.26225 0.0
C81 C 0.0091 0.84826 0.28775 0.0
N82 N 0.99985 0.89631 0.23844 0.0
C83 C 0.02478 0.8863 0.26483 0.0
O84 O 0.84255 0.73304 0.28956 0.0
C85 C 0.86418 0.72133 0.26592 0.0
O86 O 0.89987 0.73473 0.28164 0.0
H87 H 0.91297 0.81407 0.26294 0.0
H88 H 0.02862 0.83911 0.30538 0.0
C89 C 0.77648 0.71839 0.42033 0.0
C90 C 0.7521 0.68958 0.45938 0.0
C91 C 0.80535 0.67933 0.48454 0.0
C92 C 0.82912 0.70731 0.44458 0.0
N93 N 0.81405 0.72631 0.4136 0.0
N94 N 0.7671 0.67047 0.49024 0.0
H95 H 0.76534 0.7328 0.3926 0.0
C96 C 0.96132 0.71003 0.34438 0.0
O97 O 0.92293 0.69032 0.35312 0.0
O98 O 0.82777 0.80519 0.34472 0.0
H99 H 0.85932 0.71395 0.43846 0.0
H100 H 0.94094 0.87913 0.21437 0.0
H101 H 0.81685 0.66402 0.50966 0.0
Zn102 Zn 0.16254 0.22274 0.7045 0.0
C103 C 0.08054 0.19238 0.57951 0.0
N104 N 0.10938 0.19178 0.54959 0.0
C105 C 0.14006 0.20653 0.58578 0.0
N106 N 0.13079 0.21448 0.63642 0.0
N107 N 0.09391 0.20768 0.63204 0.0
C108 C 1.00467 0.17516 0.73525 0.0
O109 O 0.03018 0.18476 0.77697 0.0
O110 O 0.22265 0.24788 0.69117 0.0
Zn111 Zn 0.07425 0.23528 0.67665 0.0
N112 N 0.14234 0.17223 0.7431 0.0
C113 C 0.08792 0.12146 0.7931 0.0
C114 C 0.10593 0.15806 0.76624 0.0
C115 C 0.16185 0.1513 0.74636 0.0
N116 N 0.10662 0.09991 0.79433 0.0
C117 C 0.14309 0.11357 0.7712 0.0
O118 O 0.10226 0.26137 0.75163 0.0
C119 C 0.13513 0.27099 0.77609 0.0
O120 O 0.15755 0.25841 0.75862 0.0
H121 H 0.09106 0.17515 0.76344 0.0
H122 H 0.19133 0.16349 0.7292 0.0
C123 C 0.08323 0.31039 0.65613 0.0
C124 C 0.09686 0.34674 0.62881 0.0
C125 C 0.11413 0.32235 0.54933 0.0
C126 C 0.1019 0.28672 0.57741 0.0
N127 N 0.0859 0.28105 0.63004 0.0
N128 N 0.11124 0.35162 0.57556 0.0
H129 H 0.07077 0.30531 0.69805 0.0
C130 C 0.24366 0.28533 0.68713 0.0
O131 O 0.22554 0.30619 0.6867 0.0
O132 O 0.01573 0.19581 0.69049 0.0
H133 H 0.10615 0.26457 0.55714 0.0
H134 H 0.05892 0.10985 0.81172 0.0
H135 H 0.12636 0.32692 0.50734 0.0
Zn136 Zn 0.76243 0.83295 0.65045 0.0
C137 C 0.77318 0.91184 0.53378 0.0
N138 N 0.78271 0.89033 0.49976 0.0
C139 C 0.78485 0.86398 0.53389 0.0
N140 N 0.77429 0.86801 0.58732 0.0
N141 N 0.76738 0.8982 0.58716 0.0
C142 C 0.70857 0.95335 0.65852 0.0
O143 O 0.68631 0.91471 0.65922 0.0
O144 O 0.81101 0.82947 0.67167 0.0
Zn145 Zn 0.76683 0.92823 0.65549 0.0
N146 N 0.71882 0.78463 0.62566 0.0
C147 C 0.66115 0.74634 0.5702 0.0
C148 C 0.69733 0.78077 0.57819 0.0
C149 C 0.70585 0.75621 0.66539 0.0
N150 N 0.64778 0.718 0.61064 0.0
C151 C 0.66937 0.7222 0.65817 0.0
O152 O 0.73221 0.89343 0.71881 0.0
C153 C 0.72388 0.86081 0.74186 0.0
O154 O 0.73653 0.83924 0.72109 0.0
H155 H 0.70722 0.80457 0.54802 0.0
H156 H 0.72285 0.76173 0.70392 0.0
C157 C 0.84264 0.99557 0.69096 0.0
C158 C 0.87963 0.01201 0.71866 0.0
C159 C 0.86977 0.94742 0.73346 0.0
C160 C 0.83307 0.93132 0.7067 0.0
N161 N 0.82007 0.95549 0.68636 0.0
N162 N 0.892 0.9872 0.73904 0.0
H163 H 0.83148 0.0142 0.67474 0.0
C164 C 0.82104 0.82684 0.72189 0.0
O165 O 0.79785 0.82433 0.76358 0.0
O166 O 0.74549 0.96788 0.64837 0.0
H167 H 0.81465 0.89968 0.70281 0.0
H168 H 0.64315 0.74269 0.53332 0.0
H169 H 0.88038 0.92847 0.75014 0.0
Zn170 Zn 0.16965 0.92323 0.6771 0.0
C171 C 0.08309 0.86413 0.56889 0.0
N172 N 0.10367 0.89674 0.53715 0.0
C173 C 0.1302 0.92265 0.57339 0.0
N174 N 0.1261 0.90624 0.62536 0.0
N175 N 0.09561 0.86971 0.62301 0.0
C176 C 0.04723 0.75576 0.67306 0.0
O177 O 0.08607 0.77307 0.67161 0.0
O178 O 0.1869 0.98026 0.69627 0.0
Zn179 Zn 0.06908 0.83666 0.68938 0.0
N180 N 0.20786 0.91576 0.63553 0.0
C181 C 0.2241 0.88368 0.56354 0.0
C182 C 0.19788 0.89418 0.587 0.0
C183 C 0.24207 0.92534 0.66287 0.0
N184 N 0.25822 0.89301 0.59127 0.0
C185 C 0.26736 0.91272 0.6412 0.0
O186 O 0.10593 0.83541 0.74777 0.0
C187 C 0.13989 0.85681 0.76949 0.0
O188 O 0.16374 0.89063 0.74882 0.0
H189 H 0.16942 0.88385 0.56725 0.0
H190 H 0.24866 0.94156 0.70212 0.0
C191 C 1.00131 0.84336 0.72598 0.0
C192 C 0.98364 0.86264 0.75315 0.0
C193 C 0.04713 0.91247 0.78417 0.0
C194 C 0.06457 0.89382 0.75579 0.0
N195 N 0.04143 0.85971 0.72728 0.0
N196 N 0.00721 0.89667 0.78185 0.0
H197 H 0.98333 0.81572 0.70413 0.0
C198 C 0.18174 0.98888 0.74605 0.0
O199 O 0.1713 0.96184 0.78548 0.0
O200 O 0.0314 0.77754 0.67497 0.0
H201 H 0.09635 0.90633 0.75637 0.0
H202 H 0.21679 0.86711 0.52457 0.0
H203 H 0.06521 0.9396 0.80716 0.0
Zn204 Zn 0.90468 0.50287 0.70395 0.0
C205 C 0.89714 0.42815 0.82797 0.0
N206 N 0.89071 0.45255 0.85976 0.0
C207 C 0.89894 0.48293 0.82492 0.0
N208 N 0.90868 0.47702 0.77298 0.0
N209 N 0.90762 0.44263 0.77527 0.0
C210 C 0.86734 0.34971 0.66738 0.0
O211 O 0.87957 0.37409 0.6243 0.0
O212 O 0.92544 0.56237 0.71169 0.0
Zn213 Zn 0.92732 0.42076 0.72274 0.0
N214 N 0.84957 0.47508 0.68028 0.0
C215 C 0.79693 0.41213 0.65265 0.0
C216 C 0.83561 0.43596 0.67134 0.0
C217 C 0.82607 0.49157 0.6718 0.0
N218 N 0.7737 0.42844 0.6433 0.0
C219 C 0.78691 0.46757 0.65201 0.0
O220 O 0.94544 0.44815 0.64749 0.0
C221 C 0.9501 0.47834 0.6204 0.0
O222 O 0.93684 0.50001 0.63915 0.0
H223 H 0.8547 0.42353 0.67842 0.0
H224 H 0.83794 0.52285 0.6791 0.0
C225 C 0.99856 0.41948 0.72824 0.0
C226 C 0.03843 0.43418 0.74268 0.0
C227 C 0.03324 0.47376 0.81365 0.0
C228 C 0.99416 0.46053 0.79733 0.0
N229 N 0.97729 0.43283 0.75579 0.0
N230 N 0.05464 0.46048 0.78574 0.0
H231 H 0.98462 0.39855 0.69417 0.0
C232 C 0.96282 0.58405 0.70634 0.0
O233 O 0.98429 0.56664 0.70376 0.0
O234 O 0.88549 0.36195 0.71434 0.0
H235 H 0.97797 0.47299 0.81717 0.0
H236 H 0.78547 0.38094 0.64524 0.0
H237 H 0.04679 0.49525 0.84713 0.0
Zn238 Zn 0.58815 0.49134 0.68595 0.0
C239 C 0.52842 0.40518 0.78754 0.0
N240 N 0.56108 0.42616 0.81947 0.0
C241 C 0.58752 0.45083 0.78246 0.0
N242 N 0.57161 0.44522 0.7299 0.0
N243 N 0.53453 0.41574 0.73259 0.0
C244 C 0.41766 0.37349 0.68752 0.0
O245 O 0.43467 0.41216 0.68426 0.0
O246 O 0.64729 0.51302 0.67253 0.0
Zn247 Zn 0.49897 0.39241 0.66662 0.0
N248 N 0.57677 0.52188 0.73777 0.0
C249 C 0.53374 0.5263 0.80483 0.0
C250 C 0.54207 0.50424 0.76683 0.0
C251 C 0.60293 0.56058 0.74424 0.0
N252 N 0.5594 0.5656 0.80988 0.0
C253 C 0.59393 0.58326 0.78063 0.0
O254 O 0.50085 0.43343 0.61229 0.0
C255 C 0.52336 0.46792 0.59292 0.0
O256 O 0.55765 0.49013 0.61416 0.0
H257 H 0.52083 0.47343 0.76031 0.0
H258 H 0.6291 0.57383 0.71807 0.0
C259 C 0.50242 0.32204 0.63307 0.0
C260 C 0.51805 0.30198 0.60311 0.0
C261 C 0.55798 0.36024 0.5508 0.0
C262 C 0.54364 0.38052 0.58248 0.0
N263 N 0.51635 0.36122 0.62337 0.0
N264 N 0.54524 0.32161 0.56221 0.0
H265 H 0.47941 0.30623 0.66352 0.0
C266 C 0.65509 0.49649 0.63232 0.0
O267 O 0.62568 0.47236 0.5995 0.0
O268 O 0.43953 0.35772 0.68486 0.0
H269 H 0.55409 0.41143 0.57446 0.0
H270 H 0.50639 0.51266 0.82838 0.0
H271 H 0.57967 0.37531 0.51812 0.0
Zn272 Zn 0.61191 0.10888 0.704 0.0
C273 C 0.55199 0.13145 0.82802 0.0
N274 N 0.58263 0.13559 0.85906 0.0
C275 C 0.60245 0.12436 0.82445 0.0
N276 N 0.5851 0.11349 0.77331 0.0
N277 N 0.55307 0.11743 0.77571 0.0
C278 C 0.49445 0.14612 0.65508 0.0
O279 O 0.50086 0.12814 0.61317 0.0
O280 O 0.64757 0.08331 0.71378 0.0
Zn281 Zn 0.50981 0.09305 0.72424 0.0
N282 N 0.64425 0.16214 0.6744 0.0
C283 C 0.64308 0.21277 0.61963 0.0
C284 C 0.62337 0.17572 0.64492 0.0
C285 C 0.68444 0.18471 0.68079 0.0
N286 N 0.68302 0.23486 0.62471 0.0
C287 C 0.70458 0.22214 0.65458 0.0
O288 O 0.51593 0.07023 0.65151 0.0
C289 C 0.53911 0.06308 0.62305 0.0
O290 O 0.57451 0.07534 0.63984 0.0
H291 H 0.59156 0.15759 0.64081 0.0
H292 H 0.70048 0.17337 0.70466 0.0
C293 C 0.43964 0.02049 0.73511 0.0
C294 C 0.41513 0.98243 0.75625 0.0
C295 C 0.45922 0.99601 0.83296 0.0
C296 C 0.48401 0.03349 0.81102 0.0
N297 N 0.47338 0.04517 0.76286 0.0
N298 N 0.42528 0.97124 0.80513 0.0
H299 H 0.43244 0.03057 0.69654 0.0
C300 C 0.63079 0.04568 0.71114 0.0
O301 O 0.59191 0.02538 0.70962 0.0
O302 O 0.49312 0.13365 0.70517 0.0
H303 H 0.51185 0.05237 0.83176 0.0
H304 H 0.62681 0.22383 0.59577 0.0
H305 H 0.46725 0.98647 0.87124 0.0
Zn306 Zn 0.74423 0.57825 0.97918 0.0
C307 C 0.80941 0.55777 0.87233 0.0
N308 N 0.77849 0.54698 0.83719 0.0
C309 C 0.75019 0.54623 0.86976 0.0
N310 N 0.7643 0.5575 0.92348 0.0
N311 N 0.80125 0.56396 0.92511 0.0
C312 C 0.91358 0.62417 0.9976 0.0
O313 O 0.89553 0.64473 1.00476 0.0
O314 O 0.68938 0.53405 1.00157 0.0
Zn315 Zn 0.83142 0.56224 0.99344 0.0
N316 N 0.75032 0.62592 0.94399 0.0
C317 C 0.7849 0.67865 0.87885 0.0
C318 C 0.77216 0.6401 0.89608 0.0
C319 C 0.74102 0.64904 0.97533 0.0
N320 N 0.77638 0.70205 0.91098 0.0
C321 C 0.7551 0.68859 0.95929 0.0
O322 O 0.82778 0.59242 0.06176 0.0
C323 C 0.80637 0.60649 0.07903 0.0
O324 O 0.77644 0.60155 0.05064 0.0
H325 H 0.78156 0.62274 0.87251 0.0
H326 H 0.72398 0.63664 1.01322 0.0
C327 C 0.83078 0.487 1.01953 0.0
C328 C 0.81024 0.44571 0.03021 0.0
C329 C 0.74928 0.44653 0.02587 0.0
C330 C 0.7696 0.48686 1.01567 0.0
N331 N 0.8097 0.50639 1.0125 0.0
N332 N 0.76991 0.42722 0.03274 0.0
H333 H 0.8627 0.50373 1.01758 0.0
C334 C 0.68346 0.51709 0.04942 0.0
O335 O 0.71162 0.53205 0.0878 0.0
O336 O 0.89241 0.58752 0.98558 0.0
H337 H 0.75355 0.50267 1.00982 0.0
H338 H 0.80244 0.69032 0.84111 0.0
H339 H 0.71729 0.43056 0.02827 0.0
Zn340 Zn 0.44496 0.27457 0.0258 0.0
C341 C 0.47451 0.21904 0.90711 0.0
N342 N 0.47639 0.24612 0.87092 0.0
C343 C 0.46355 0.26671 0.90131 0.0
N344 N 0.45461 0.25319 0.9553 0.0
N345 N 0.46101 0.22271 0.95786 0.0
C346 C 0.49452 0.1621 0.06331 0.0
O347 O 0.48177 0.17224 0.10789 0.0
O348 O 0.41711 0.30814 1.02167 0.0
Zn349 Zn 0.43692 0.17762 1.00672 0.0
N350 N 0.49532 0.30029 0.06704 0.0
C351 C 0.54609 0.29195 0.11082 0.0
C352 C 0.50824 0.27592 0.08714 0.0
C353 C 0.5186 0.34016 0.07135 0.0
N354 N 0.5704 0.33178 0.11065 0.0
C355 C 0.55775 0.3564 0.09074 0.0
O356 O 0.41007 0.17776 0.08125 0.0
C357 C 0.39661 0.19948 0.09939 0.0
O358 O 0.40775 0.23307 0.07796 0.0
H359 H 0.48955 0.24427 0.08356 0.0
H360 H 0.50748 0.3592 0.05832 0.0
C361 C 0.37054 0.10541 0.98836 0.0
C362 C 0.33159 0.08004 0.97074 0.0
C363 C 0.33772 0.12671 0.9017 0.0
C364 C 0.37548 0.15302 0.92224 0.0
N365 N 0.39132 0.14137 0.9645 0.0
N366 N 0.31632 0.091 0.927 0.0
H367 H 0.38379 0.09792 1.02311 0.0
C368 C 0.37936 0.29002 1.02119 0.0
O369 O 0.36021 0.25148 1.01469 0.0
O370 O 0.47723 0.15896 1.01632 0.0
H371 H 0.39136 0.18261 0.9054 0.0
H372 H 0.55671 0.27282 0.12672 0.0
H373 H 0.32487 0.13523 0.86763 0.0
Zn374 Zn 0.74994 0.17706 1.00211 0.0
C375 C 0.81703 0.26165 0.88846 0.0
N376 N 0.78798 0.23856 0.85289 0.0
C377 C 0.76595 0.20555 0.88304 0.0
N378 N 0.7805 0.20806 0.93571 0.0
N379 N 0.81293 0.24324 0.93848 0.0
C380 C 0.85953 0.32647 0.0466 0.0
O381 O 0.84065 0.29789 0.08322 0.0
O382 O 0.71628 0.11702 0.9902 0.0
Zn383 Zn 0.85577 0.26001 0.98992 0.0
N384 N 0.7169 0.1992 0.02449 0.0
C385 C 0.71908 0.25894 0.05159 0.0
C386 C 0.7382 0.23869 0.03439 0.0
C387 C 0.67661 0.17894 0.0303 0.0
N388 N 0.67933 0.23886 0.05869 0.0
C389 C 0.65727 0.19937 0.04872 0.0
O390 O 0.84508 0.23088 0.06429 0.0
C391 C 0.8186 0.20127 0.0909 0.0
O392 O 0.78389 0.18052 0.07047 0.0
H393 H 0.76995 0.25427 0.02892 0.0
H394 H 0.66011 0.14753 1.02181 0.0
C395 C 0.91882 0.24319 0.98334 0.0
C396 C 0.93988 0.22569 0.96135 0.0
C397 C 0.90257 0.21071 0.87712 0.0
C398 C 0.88087 0.22701 0.89967 0.0
N399 N 0.89006 0.24402 0.95193 0.0
N400 N 0.93186 0.21066 0.90827 0.0
H401 H 0.92504 0.25595 0.02522 0.0
C402 C 0.73448 0.09756 0.99644 0.0
O403 O 0.7731 0.11749 1.00319 0.0
O404 O 0.87485 0.31937 1.00392 0.0
H405 H 0.85668 0.22535 0.87533 0.0
H406 H 0.73555 0.29037 0.0593 0.0
H407 H 0.89591 0.19784 0.83536 0.0
Zn408 Zn 0.57724 0.8455 1.01445 0.0
C409 C 0.53462 0.75555 0.1307 0.0
N410 N 0.53111 0.78133 0.16362 0.0
C411 C 0.5472 0.81492 0.13308 0.0
N412 N 0.55942 0.81005 0.08168 0.0
N413 N 0.55269 0.77304 0.08138 0.0
C414 C 0.50146 0.69044 1.00693 0.0
O415 O 0.5011 0.72326 0.99535 0.0
O416 O 0.61216 0.90571 0.02956 0.0
Zn417 Zn 0.57722 0.75155 0.0336 0.0
N418 N 0.53145 0.83808 0.96912 0.0
C419 C 0.51263 0.85331 0.88083 0.0
C420 C 0.54063 0.85099 0.91502 0.0
C421 C 0.49438 0.82583 0.98965 0.0
N422 N 0.47715 0.84462 0.90293 0.0
C423 C 0.46726 0.83154 0.9569 0.0
O424 O 0.60038 0.77525 0.95665 0.0
C425 C 0.61627 0.81 0.93634 0.0
O426 O 0.61033 0.83606 0.95867 0.0
H427 H 0.57003 0.8607 0.89906 0.0
H428 H 0.48751 0.81554 0.03275 0.0
C429 C 0.65136 0.7555 0.05127 0.0
C430 C 0.68709 0.7657 0.07887 0.0
C431 C 0.66778 0.79005 0.15617 0.0
C432 C 0.63256 0.78071 0.12812 0.0
N433 N 0.62456 0.76269 0.07663 0.0
N434 N 0.69423 0.78203 0.13114 0.0
H435 H 0.64465 0.74168 1.01008 0.0
C436 C 0.64914 0.92466 1.01896 0.0
O437 O 0.66674 0.90456 1.00542 0.0
O438 O 0.53438 0.69321 1.0214 0.0
H439 H 0.61213 0.78802 0.14768 0.0
H440 H 0.5197 0.86377 0.83785 0.0
H441 H 0.67409 0.80369 0.19741 0.0
Zn442 Zn 0.25479 0.82949 0.06279 0.0
C443 C 0.19139 0.73929 0.16564 0.0
N444 N 0.22271 0.75868 0.20042 0.0
C445 C 0.24916 0.78871 0.169 0.0
N446 N 0.23364 0.788 0.11707 0.0
N447 N 0.19766 0.75655 0.11483 0.0
C448 C 0.0843 0.70732 0.04985 0.0
O449 O 0.10185 0.74607 0.04796 0.0
O450 O 0.31061 0.84156 0.04242 0.0
Zn451 Zn 0.16664 0.72816 0.04658 0.0
N452 N 0.2515 0.87158 0.10021 0.0
C453 C 0.22719 0.8955 0.17347 0.0
C454 C 0.23329 0.86598 0.15111 0.0
C455 C 0.26218 0.90477 0.0699 0.0
N456 N 0.23826 0.92891 0.14327 0.0
C457 C 0.25488 0.93388 0.09149 0.0
O458 O 0.16888 0.76494 0.98473 0.0
C459 C 0.19086 0.7995 0.96548 0.0
O460 O 0.22313 0.82342 0.99032 0.0
H461 H 0.2227 0.83874 0.17403 0.0
H462 H 0.27595 0.90812 0.02919 0.0
C463 C 0.17755 0.65903 0.02932 0.0
C464 C 0.19837 0.64121 1.00672 0.0
C465 C 0.23861 0.69991 0.95471 0.0
C466 C 0.21904 0.71784 0.97869 0.0
N467 N 0.18911 0.69738 1.01559 0.0
N468 N 0.22814 0.66242 0.96964 0.0
H469 H 0.15373 0.64332 0.05898 0.0
C470 C 0.31919 0.81392 0.04338 0.0
O471 O 0.29203 0.77837 0.05915 0.0
O472 O 0.10599 0.69145 0.05608 0.0
H473 H 0.2279 0.74814 0.96842 0.0
H474 H 0.21325 0.89167 0.21411 0.0
H475 H 0.26254 0.71592 0.92532 0.0
Zn476 Zn 0.16103 0.40907 0.07073 0.0
C477 C 0.26072 0.44567 0.16053 0.0
N478 N 0.24154 0.45598 0.19764 0.0
C479 C 0.2079 0.44733 0.17052 0.0
N480 N 0.20643 0.43144 0.11924 0.0
N481 N 0.24036 0.43183 0.11231 0.0
C482 C 0.28817 0.37033 0.05893 0.0
O483 O 0.24951 0.34883 0.06367 0.0
O484 O 0.14635 0.45303 0.05919 0.0
Zn485 Zn 0.26527 0.42916 0.0422 0.0
N486 N 0.12427 0.36073 0.11 0.0
C487 C 0.10916 0.31293 0.18284 0.0
C488 C 0.13185 0.35135 0.16239 0.0
C489 C 0.09555 0.33285 0.07716 0.0
N490 N 0.08072 0.28492 0.14942 0.0
C491 C 0.07373 0.29372 0.09653 0.0
O492 O 0.22496 0.39231 0.98692 0.0
C493 C 0.18978 0.37927 0.96906 0.0
O494 O 0.16573 0.38713 0.99445 0.0
H495 H 0.15586 0.37287 0.18787 0.0
H496 H 0.09064 0.34127 0.03565 0.0
C497 C 0.33139 0.50988 1.0167 0.0
C498 C 0.34785 0.54609 0.98697 0.0
C499 C 0.28876 0.52076 0.93228 0.0
C500 C 0.27259 0.48548 0.96207 0.0
N501 N 0.29355 0.48079 1.00452 0.0
N502 N 0.32558 0.55011 0.94569 0.0
H503 H 0.34795 0.50508 0.04942 0.0
C504 C 0.17789 0.48425 0.0446 0.0
O505 O 0.20899 0.48087 0.03324 0.0
O506 O 0.30328 0.40749 0.05257 0.0
H507 H 0.24316 0.46206 0.95169 0.0
H508 H 0.11472 0.30522 0.22446 0.0
H509 H 0.27206 0.52497 0.89898 0.0
Zn510 Zn 0.41216 0.90828 0.33937 0.0
C511 C 0.47591 0.8839 0.2376 0.0
N512 N 0.44264 0.8688 0.20574 0.0
C513 C 0.4161 0.86872 0.2414 0.0
N514 N 0.43257 0.88302 0.2926 0.0
N515 N 0.46989 0.8912 0.29123 0.0
C516 C 0.58485 0.96251 0.34154 0.0
O517 O 0.56759 0.98406 0.33705 0.0
O518 O 0.35403 0.86555 0.35186 0.0
Zn519 Zn 0.5034 0.9031 0.35952 0.0
N520 N 0.42021 0.95257 0.29338 0.0
C521 C 0.45324 0.99926 0.21971 0.0
C522 C 0.44178 0.96285 0.24486 0.0
C523 C 0.41118 0.97804 0.3186 0.0
N524 N 0.44448 0.0249 0.24544 0.0
C525 C 0.42429 0.01542 0.29486 0.0
O526 O 0.50232 0.94426 0.40893 0.0
C527 C 0.47784 0.95289 0.43074 0.0
O528 O 0.44187 0.93651 0.41345 0.0
H529 H 0.4516 0.94412 0.22636 0.0
H530 H 0.39505 0.96947 0.35792 0.0
C531 C 0.49279 0.82705 0.39883 0.0
C532 C 0.4766 0.79342 0.43373 0.0
C533 C 0.4441 0.82038 0.48651 0.0
C534 C 0.4599 0.85336 0.45138 0.0
N535 N 0.48332 0.8559 0.40739 0.0
N536 N 0.45256 0.79115 0.4767 0.0
H537 H 0.51333 0.83038 0.36625 0.0
C538 C 0.35455 0.83623 0.37481 0.0
O539 O 0.3889 0.84163 0.39234 0.0
O540 O 0.56299 0.92525 0.34666 0.0
H541 H 0.45305 0.87653 0.45901 0.0
H542 H 0.47005 0.00759 0.18101 0.0
H543 H 0.42503 0.8179 0.52113 0.0
Zn544 Zn 0.10008 0.59349 0.33617 0.0
C545 C 0.11775 0.52424 0.22702 0.0
N546 N 0.12386 0.55214 0.18941 0.0
C547 C 0.11468 0.57612 0.21828 0.0
N548 N 0.10318 0.56351 0.27156 0.0
N549 N 0.10485 0.53056 0.27629 0.0
C550 C 0.14673 0.48801 0.38561 0.0
O551 O 0.13748 0.5075 0.42175 0.0
O552 O 0.07873 0.6314 0.32038 0.0
Zn553 Zn 0.08169 0.48898 0.32945 0.0
N554 N 0.15213 0.62256 0.37239 0.0
C555 C 0.19085 0.61883 0.44766 0.0
C556 C 0.15648 0.60191 0.41542 0.0
C557 C 0.18161 0.66 0.35957 0.0
N558 N 0.22002 0.65575 0.43519 0.0
C559 C 0.21705 0.67715 0.3918 0.0
O560 O 0.06096 0.49963 0.40215 0.0
C561 C 0.05153 0.52441 0.42097 0.0
O562 O 0.0629 0.55754 0.3969 0.0
H563 H 0.13313 0.57251 0.42512 0.0
H564 H 0.17768 0.67579 0.32477 0.0
C565 C 0.00533 0.42251 0.3257 0.0
C566 C 0.9664 0.39904 0.30564 0.0
C567 C 0.98525 0.43171 0.21764 0.0
C568 C 0.02348 0.45579 0.23833 0.0
N569 N 0.03308 0.45045 0.29188 0.0
N570 N 0.95759 0.4038 0.25162 0.0
H571 H 0.01375 0.41901 0.368 0.0
C572 C 0.04125 0.61675 0.32116 0.0
O573 O 0.01889 0.57815 0.32395 0.0
O574 O 0.12362 0.47209 0.34359 0.0
H575 H 0.04435 0.4792 0.2119 0.0
H576 H 0.19438 0.60281 0.48245 0.0
H577 H 0.97744 0.43558 0.17514 0.0
Zn578 Zn 0.49933 0.59873 0.31986 0.0
C579 C 0.4265 0.53407 0.1951 0.0
N580 N 0.44979 0.5668 0.16488 0.0
C581 C 0.47488 0.59176 0.20338 0.0
N582 N 0.46781 0.57439 0.25469 0.0
N583 N 0.43721 0.53817 0.24995 0.0
C584 C 0.38509 0.42517 0.30916 0.0
O585 O 0.42377 0.44382 0.31554 0.0
O586 O 0.49584 0.64669 0.34104 0.0
Zn587 Zn 0.40301 0.50625 0.31393 0.0
N588 N 0.55207 0.61472 0.29864 0.0
C589 C 0.60045 0.61073 0.24264 0.0
C590 C 0.56219 0.60443 0.24923 0.0
C591 C 0.5781 0.63022 0.34188 0.0
N592 N 0.62611 0.62501 0.28675 0.0
C593 C 0.61557 0.63464 0.33628 0.0
O594 O 0.4355 0.5072 0.38183 0.0
C595 C 0.46838 0.52918 0.40642 0.0
O596 O 0.49234 0.56322 0.38698 0.0
H597 H 0.54063 0.5897 0.21628 0.0
H598 H 0.56854 0.63612 0.38165 0.0
C599 C 0.33048 0.50981 0.34523 0.0
C600 C 0.31209 0.53142 0.36305 0.0
C601 C 0.37445 0.59061 0.35875 0.0
C602 C 0.39249 0.56917 0.34263 0.0
N603 N 0.37051 0.5294 0.33603 0.0
N604 N 0.335 0.57134 0.36868 0.0
H605 H 0.31356 0.47807 0.34009 0.0
C606 C 0.49859 0.65842 0.39161 0.0
O607 O 0.50384 0.63843 0.43218 0.0
O608 O 0.36824 0.44583 0.30148 0.0
H609 H 0.42401 0.58403 0.33563 0.0
H610 H 0.60913 0.6027 0.20382 0.0
H611 H 0.39171 0.62234 0.36391 0.0
C612 C 0.31508 0.13113 0.20121 0.0
C613 C 0.30557 0.15682 0.23016 0.0
C614 C 0.34434 0.14511 0.1591 0.0
C615 C 0.36604 0.18539 0.14484 0.0
H616 H 0.29995 0.09992 0.21129 0.0
H617 H 0.35002 0.12417 0.13739 0.0
S618 S 0.35136 0.26504 0.20567 0.0
N619 N 0.31897 0.22459 0.23871 0.0
N620 N 0.37456 0.25078 0.16181 0.0
C621 C 0.35618 0.21132 0.17254 0.0
C622 C 0.32591 0.19706 0.21457 0.0
C623 C 0.81721 0.13587 0.21253 0.0
C624 C 0.85272 0.16016 0.24213 0.0
C625 C 0.8059 0.14972 0.16496 0.0
C626 C 0.82968 0.18846 0.14437 0.0
H627 H 0.79781 0.10574 0.2261 0.0
H628 H 0.77859 0.12948 0.14349 0.0
S629 S 0.92525 0.26462 0.20672 0.0
N630 N 0.91125 0.22557 0.24751 0.0
N631 N 0.89025 0.25123 0.15829 0.0
C632 C 0.86507 0.21325 0.17386 0.0
C633 C 0.87646 0.19926 0.22257 0.0
C634 C 0.87259 0.67907 0.19285 0.0
C635 C 0.84786 0.691 0.21953 0.0
C636 C 0.8586 0.6509 0.14917 0.0
C637 C 0.81916 0.63322 0.12961 0.0
H638 H 0.90336 0.69184 0.20539 0.0
H639 H 0.87933 0.64371 0.12966 0.0
S640 S 0.74094 0.65117 0.18788 0.0
N641 N 0.78093 0.68073 0.22485 0.0
N642 N 0.75481 0.62818 0.14292 0.0
C643 C 0.79375 0.64408 0.15673 0.0
C644 C 0.80799 0.67274 0.20146 0.0
C645 C 0.12329 0.30798 0.85409 0.0
C646 C 0.1492 0.29899 0.82476 0.0
C647 C 0.13664 0.3344 0.90002 0.0
C648 C 0.17643 0.353 0.91842 0.0
H649 H 0.0924 0.29437 0.84179 0.0
H650 H 0.11548 0.34016 0.92129 0.0
S651 S 0.25699 0.34133 0.85385 0.0
N652 N 0.21718 0.31226 0.81644 0.0
N653 N 0.24195 0.36143 0.9017 0.0
C654 C 0.20276 0.34475 0.88867 0.0
C655 C 0.18924 0.31789 0.84227 0.0
C656 C 0.68681 0.87266 0.81905 0.0
C657 C 0.69693 0.8468 0.79201 0.0
C658 C 0.66065 0.86033 0.86491 0.0
C659 C 0.64305 0.8214 0.88617 0.0
H660 H 0.69917 0.90292 0.80474 0.0
H661 H 0.65429 0.8818 0.88384 0.0
S662 S 0.65812 0.74118 0.82961 0.0
N663 N 0.6861 0.77968 0.78946 0.0
N664 N 0.63721 0.75673 0.87551 0.0
C665 C 0.65259 0.79504 0.85936 0.0
C666 C 0.67937 0.80764 0.81252 0.0
C667 C 0.20115 0.85119 0.89269 0.0
C668 C 0.17747 0.81286 0.91458 0.0
C669 C 0.18887 0.86493 0.84596 0.0
C670 C 0.15208 0.84132 0.81928 0.0
H671 H 0.2295 0.87095 0.91198 0.0
H672 H 0.20843 0.89443 0.83052 0.0
S673 S 0.07827 0.73825 0.85971 0.0
N674 N 0.11501 0.75113 0.90509 0.0
N675 N 0.09187 0.77701 0.8185 0.0
C676 C 0.12793 0.80279 0.84073 0.0
C677 C 0.14059 0.78863 0.88795 0.0
C678 C 0.0229 0.48421 0.50873 0.0
C679 C 0.02603 0.51402 0.47196 0.0
C680 C 0.99828 0.47298 0.55618 0.0
C681 C 0.97505 0.4905 0.56862 0.0
H682 H 0.03976 0.46941 0.50105 0.0
H683 H 0.99753 0.45023 0.58334 0.0
S684 S 0.97262 0.57047 0.48605 0.0
N685 N 1.00413 0.56148 0.45188 0.0
N686 N 0.9574 0.53986 0.54026 0.0
C687 C 0.97809 0.52062 0.53242 0.0
C688 C 1.00358 0.53242 0.48437 0.0
C689 C 0.5319 0.52168 0.52481 0.0
C690 C 0.50858 0.48288 0.54545 0.0
C691 C 0.51837 0.53658 0.48102 0.0
C692 C 0.48079 0.51346 0.45568 0.0
H693 H 0.56101 0.54089 0.54251 0.0
H694 H 0.53788 0.56647 0.46659 0.0
S695 S 0.40764 0.40983 0.49406 0.0
N696 N 0.44554 0.42161 0.53679 0.0
N697 N 0.4203 0.4495 0.45526 0.0
C698 C 0.45699 0.47467 0.4762 0.0
C699 C 0.4708 0.45945 0.52069 0.0
C700 C 0.54632 0.02328 0.54508 0.0
C701 C 0.52322 0.03689 0.57203 0.0
C702 C 0.53132 0.99651 0.4998 0.0
C703 C 0.49231 0.9817 0.47902 0.0
H704 H 0.57622 0.03287 0.55953 0.0
H705 H 0.5507 0.98713 0.48132 0.0
S706 S 0.41984 0.00934 0.53245 0.0
N707 N 0.45943 0.03461 0.57253 0.0
N708 N 0.43125 0.98384 0.48847 0.0
C709 C 0.46896 0.99543 0.505 0.0
C710 C 0.48437 0.02303 0.55102 0.0
C711 C 0.16189 0.03013 0.54594 0.0
C712 C 0.191 0.0423 0.50302 0.0
C713 C 0.14516 0.99279 0.57213 0.0
C714 C 0.15613 0.96491 0.55675 0.0
H715 H 0.15124 0.04968 0.55953 0.0
H716 H 0.12199 0.98506 0.60295 0.0
S717 S 0.23214 0.98012 0.45093 0.0
N718 N 0.23212 0.02244 0.45147 0.0
N719 N 0.19786 0.95135 0.49632 0.0
C720 C 0.18507 0.97604 0.51457 0.0
C721 C 0.20321 0.01478 0.48896 0.0
C722 C 0.01635 0.19506 0.56717 0.0
C723 C 0.04023 0.17847 0.55373 0.0
C724 C 0.97802 0.18022 0.54414 0.0
C725 C 0.96272 0.1494 0.50444 0.0
H726 H 0.02684 0.21954 0.59567 0.0
H727 H 0.9599 0.1922 0.55899 0.0
S728 S 0.0143 0.0988 0.44788 0.0
N729 N 0.04594 0.13083 0.49381 0.0
N730 N 0.97522 0.10486 0.44885 0.0
C731 C 0.98709 0.13438 0.48741 0.0
C732 C 0.0255 0.14856 0.51203 0.0
C733 C 0.83903 0.86661 0.47346 0.0
C734 C 0.81001 0.84611 0.51539 0.0
C735 C 0.86327 0.85249 0.45163 0.0
C736 C 0.86073 0.81742 0.47143 0.0
H737 H 0.8437 0.89457 0.45724 0.0
H738 H 0.88512 0.86994 0.42012 0.0
S739 S 0.79282 0.75262 0.58273 0.0
N740 N 0.78103 0.78759 0.57469 0.0
N741 N 0.82959 0.76383 0.53871 0.0
C742 C 0.83339 0.79721 0.51472 0.0
C743 C 0.80736 0.81074 0.53538 0.0
C744 C 0.85548 0.01204 0.50086 0.0
C745 C 0.83696 0.03482 0.49632 0.0
C746 C 0.83393 0.97247 0.51435 0.0
C747 C 0.79287 0.95395 0.52244 0.0
H748 H 0.88718 0.02515 0.49496 0.0
H749 H 0.84968 0.95614 0.51848 0.0
S750 S 0.73029 1.00063 0.51414 0.0
N751 N 0.77573 0.03714 0.50198 0.0
N752 N 0.73388 0.96044 0.5234 0.0
C753 C 0.77351 0.97596 0.51699 0.0
C754 C 0.79596 0.01712 0.50456 0.0
C755 C 0.01173 0.81528 0.57475 0.0
C756 C 0.04746 0.83011 0.54606 0.0
C757 C 0.97588 0.79814 0.54508 0.0
C758 C 0.97497 0.79815 0.48536 0.0
H759 H 0.01165 0.82127 0.61895 0.0
H760 H 0.9492 0.78953 0.5691 0.0
S761 S 0.06139 0.82384 0.39409 0.0
N762 N 0.0798 0.83289 0.45837 0.0
N763 N 0.01361 0.80853 0.40081 0.0
C764 C 0.01041 0.80851 0.45733 0.0
C765 C 0.04641 0.82258 0.48836 0.0
C766 C 0.19047 0.18733 0.60102 0.0
C767 C 0.17763 0.20955 0.57103 0.0
C768 C 0.21292 0.17335 0.57466 0.0
C769 C 0.21855 0.17696 0.51549 0.0
H770 H 0.17909 0.17665 0.64228 0.0
H771 H 0.22023 0.15437 0.59938 0.0
S772 S 0.20642 0.24885 0.42763 0.0
N773 N 0.18706 0.24975 0.48874 0.0
N774 N 0.21984 0.21492 0.43402 0.0
C775 C 0.21105 0.20439 0.4881 0.0
C776 C 0.19251 0.22254 0.51725 0.0
C777 C 0.81856 0.32413 0.86421 0.0
C778 C 0.84001 0.30496 0.87843 0.0
C779 C 0.83767 0.36368 0.84695 0.0
C780 C 0.87909 0.38588 0.84311 0.0
H781 H 0.78648 0.3081 0.86536 0.0
H782 H 0.81978 0.37702 0.83624 0.0
S783 S 0.94951 0.35119 0.8798 0.0
N784 N 0.90537 0.312 0.88887 0.0
N785 N 0.94127 0.38705 0.85958 0.0
C786 C 0.90112 0.36776 0.85898 0.0
C787 C 0.88157 0.32709 0.87585 0.0
C788 C 0.69747 0.49318 0.80972 0.0
C789 C 0.70771 0.52419 0.84896 0.0
C790 C 0.65947 0.47177 0.78541 0.0
C791 C 0.6291 0.47947 0.79985 0.0
H792 H 0.71912 0.48483 0.79764 0.0
H793 H 0.65343 0.44788 0.75661 0.0
S794 S 0.6382 0.55638 0.90023 0.0
N795 N 0.6832 0.56211 0.89839 0.0
N796 N 0.61078 0.51887 0.85798 0.0
C797 C 0.63816 0.50961 0.83969 0.0
C798 C 0.67755 0.53266 0.86287 0.0
C799 C 0.53107 0.20609 0.90224 0.0
C800 C 0.49073 0.19259 0.8927 0.0
C801 C 0.54974 0.18614 0.87996 0.0
C802 C 0.52909 0.15126 0.84733 0.0
H803 H 0.54879 0.23318 0.92562 0.0
H804 H 0.58114 0.19863 0.88825 0.0
S805 S 0.42182 0.10284 0.81212 0.0
N806 N 0.43055 0.14282 0.84736 0.0
N807 N 0.46443 0.10322 0.81052 0.0
C808 C 0.48829 0.13698 0.83878 0.0
C809 C 0.46951 0.15814 0.86012 0.0
C810 C 0.47594 0.33542 0.78447 0.0
C811 C 0.49321 0.3717 0.81195 0.0
C812 C 0.45999 0.30031 0.81528 0.0
C813 C 0.46312 0.30089 0.8747 0.0
H814 H 0.47967 0.33447 0.73998 0.0
H815 H 0.45002 0.27305 0.79204 0.0
S816 S 0.4947 0.38945 0.96417 0.0
N817 N 0.50021 0.40621 0.89928 0.0
N818 N 0.4787 0.34157 0.95857 0.0
C819 C 0.47526 0.33695 0.90211 0.0
C820 C 0.48794 0.37211 0.8701 0.0
C821 C 0.66552 0.18331 0.83853 0.0
C822 C 0.64477 0.14216 0.83295 0.0
C823 C 0.70438 0.20274 0.85681 0.0
C824 C 0.7243 0.18186 0.86857 0.0
H825 H 0.65111 0.20059 0.83051 0.0
H826 H 0.719 0.23457 0.86176 0.0
S827 S 0.684 0.07401 0.85539 0.0
N828 N 0.64623 0.08068 0.83952 0.0
N829 N 0.72205 0.11839 0.86875 0.0
C830 C 0.70463 0.1408 0.86094 0.0
C831 C 0.66405 0.12058 0.84402 0.0
C832 C 0.81622 0.50081 0.85367 0.0
C833 C 0.83508 0.54174 0.86172 0.0
C834 C 0.83775 0.48282 0.83944 0.0
C835 C 0.8789 0.50507 0.8341 0.0
H836 H 0.78438 0.48251 0.85806 0.0
H837 H 0.82209 0.45104 0.83336 0.0
S838 S 0.94228 0.61306 0.85171 0.0
N839 N 0.89667 0.60458 0.862 0.0
N840 N 0.9384 0.56955 0.83909 0.0
C841 C 0.89853 0.54599 0.84255 0.0
C842 C 0.87618 0.56472 0.85569 0.0
C843 C 0.52786 0.65459 0.15973 0.0
C844 C 0.49399 0.63507 0.19348 0.0
C845 C 0.54141 0.69339 0.14014 0.0
C846 C 0.52067 0.71384 0.15067 0.0
H847 H 0.54358 0.63946 0.14714 0.0
H848 H 0.56782 0.70654 0.11559 0.0
S849 S 0.42808 0.67408 0.23439 0.0
N850 N 0.43941 0.63852 0.23631 0.0
N851 N 0.46337 0.71017 0.19729 0.0
C852 C 0.48654 0.69425 0.18463 0.0
C853 C 0.47346 0.65524 0.20602 0.0
C854 C 0.3174 0.85141 0.17835 0.0
C855 C 0.29226 0.81046 0.18616 0.0
C856 C 0.35715 0.87084 0.19806 0.0
C857 C 0.37321 0.85009 0.22653 0.0
H858 H 0.3066 0.86875 0.15728 0.0
H859 H 0.3755 0.90212 0.19003 0.0
S860 S 0.32261 0.74208 0.2501 0.0
N861 N 0.28848 0.7498 0.22075 0.0
N862 N 0.36252 0.78604 0.25552 0.0
C863 C 0.34902 0.80923 0.23269 0.0
C864 C 0.3088 0.78959 0.21338 0.0
C865 C 0.14198 0.44576 0.18098 0.0
C866 C 0.18336 0.46495 0.18878 0.0
C867 C 0.11986 0.4639 0.19621 0.0
C868 C 0.1383 0.5014 0.2213 0.0
H869 H 0.1264 0.4172 0.16156 0.0
H870 H 0.08848 0.44901 0.18669 0.0
S871 S 0.24529 0.5648 0.25157 0.0
N872 N 0.24159 0.52466 0.22269 0.0
N873 N 0.19965 0.55716 0.25416 0.0
C874 C 0.17922 0.5205 0.23092 0.0
C875 C 0.20182 0.50268 0.21413 0.0
C876 C 0.11055 0.63716 0.20206 0.0
C877 C 0.1321 0.61708 0.20124 0.0
C878 C 0.12904 0.67732 0.18783 0.0
C879 C 0.1687 0.69693 0.17083 0.0
H880 H 0.07965 0.62188 0.21385 0.0
H881 H 0.11281 0.69314 0.19125 0.0
S882 S 0.23617 0.65617 0.15606 0.0
N883 N 0.19446 0.61932 0.18009 0.0
N884 N 0.2276 0.69329 0.14842 0.0
C885 C 0.18943 0.67635 0.16628 0.0
C886 C 0.17144 0.63654 0.1826 0.0
C887 C 0.36581 0.46884 0.18118 0.0
C888 C 0.38538 0.5102 0.17857 0.0
C889 C 0.32474 0.44689 0.17298 0.0
C890 C 0.30336 0.46636 0.16153 0.0
H891 H 0.38209 0.45368 0.19098 0.0
H892 H 0.30961 0.41504 0.17731 0.0
S893 S 0.34169 0.57377 0.14625 0.0
N894 N 0.38081 0.56948 0.16135 0.0
N895 N 0.30414 0.52816 0.14431 0.0
C896 C 0.32296 0.50744 0.15645 0.0
C897 C 0.36411 0.52953 0.16511 0.0
C898 C 0.53012 0.86882 0.24572 0.0
C899 C 0.51203 0.8863 0.21557 0.0
C900 C 0.54953 0.85206 0.21749 0.0
C901 C 0.54958 0.85086 0.158 0.0
H902 H 0.52462 0.86329 0.28993 0.0
H903 H 0.55911 0.83483 0.24218 0.0
S904 S 0.52257 0.91003 0.0636 0.0
N905 N 0.50799 0.91493 0.12669 0.0
N906 N 0.54263 0.88168 0.07267 0.0
C907 C 0.53887 0.87557 0.12885 0.0
C908 C 0.52023 0.89367 0.15807 0.0
C909 C 0.05572 0.14294 0.27545 0.0
C910 C 0.08733 0.15823 0.31451 0.0
C911 C 0.02503 0.15186 0.27879 0.0
C912 C 0.02423 0.17627 0.32175 0.0
H913 H 0.05399 0.12284 0.24267 0.0
H914 H 1.00082 0.13793 0.24879 0.0
S915 S 0.10155 0.22795 0.43067 0.0
N916 N 0.11672 0.2014 0.39569 0.0
N917 N 0.05964 0.21905 0.4005 0.0
C918 C 0.05658 0.19365 0.35913 0.0
C919 C 0.08793 0.18445 0.35592 0.0
C920 C 0.8174 0.87306 0.33695 0.0
C921 C 0.83243 0.86014 0.29292 0.0
C922 C 0.82619 0.91268 0.34067 0.0
C923 C 0.85014 0.94074 0.30014 0.0
H924 H 0.80012 0.85276 0.37013 0.0
H925 H 0.81621 0.92179 0.37727 0.0
S926 S 0.88945 0.92046 0.16998 0.0
N927 N 0.86708 0.87761 0.20316 0.0
N928 N 0.88333 0.9515 0.21008 0.0
C929 C 0.86204 0.92732 0.25319 0.0
C930 C 0.85308 0.88715 0.24937 0.0
C931 C 0.09151 0.93828 0.23057 0.0
C932 C 0.06655 0.91689 0.27538 0.0
C933 C 0.13011 0.96956 0.24067 0.0
C934 C 0.14502 0.98098 0.296 0.0
H935 H 0.08095 0.93108 0.18748 0.0
H936 H 0.14805 0.9855 0.20473 0.0
S937 S 0.08943 0.93625 0.42773 0.0
N938 N 0.05831 0.91023 0.37684 0.0
N939 N 0.13047 0.96889 0.39611 0.0
C940 C 0.12013 0.95954 0.34112 0.0
C941 C 0.08099 0.92763 0.33073 0.0
C942 C 0.17562 0.08188 0.71796 0.0
C943 C 0.16015 0.08696 0.76876 0.0
C944 C 0.1849 0.05154 0.71194 0.0
C945 C 0.17921 0.02523 0.75653 0.0
H946 H 0.17839 0.09989 0.68151 0.0
H947 H 0.19486 0.04764 0.67116 0.0
S948 S 0.14508 0.03016 0.90082 0.0
N949 N 0.14347 0.06608 0.86602 0.0
N950 N 0.16138 0.0096 0.85541 0.0
C951 C 0.16647 0.03198 0.80878 0.0
C952 C 0.1567 0.06259 0.81462 0.0
C953 C 0.91496 0.0814 0.68061 0.0
C954 C 0.90585 0.05523 0.72627 0.0
C955 C 0.94526 0.12104 0.68497 0.0
C956 C 0.96753 0.13601 0.73513 0.0
H957 H 0.90024 0.07068 0.64031 0.0
H958 H 0.95251 0.13942 0.6478 0.0
S959 S 0.95006 0.08079 0.86969 0.0
N960 N 0.91786 0.04802 0.82505 0.0
N961 N 0.97426 0.12229 0.83361 0.0
C962 C 0.95638 0.11074 0.78231 0.0
C963 C 0.9258 0.07043 0.7777 0.0
C964 C 0.92166 0.83665 0.69519 0.0
C965 C 0.94065 0.84847 0.74798 0.0
C966 C 0.88251 0.8284 0.6877 0.0
C967 C 0.86064 0.83119 0.73282 0.0
H968 H 0.93769 0.83553 0.65869 0.0
H969 H 0.86972 0.8208 0.64576 0.0
S970 S 0.89586 0.85736 0.88076 0.0
N971 N 0.93412 0.8602 0.84681 0.0
N972 N 0.86029 0.84407 0.83318 0.0
C973 C 0.87871 0.84112 0.78646 0.0
C974 C 0.91879 0.85003 0.79386 0.0
C975 C 0.72243 0.51491 0.67295 0.0
C976 C 0.69374 0.497 0.62984 0.0
C977 C 0.75443 0.50768 0.6783 0.0
C978 C 0.75912 0.48268 0.64021 0.0
H979 H 0.71897 0.53289 0.70461 0.0
H980 H 0.77408 0.51974 0.71436 0.0
S981 S 0.69823 0.43666 0.51214 0.0
N982 N 0.67663 0.45888 0.54282 0.0
N983 N 0.7365 0.44577 0.55265 0.0
C984 C 0.73305 0.46804 0.59383 0.0
C985 C 0.70058 0.47523 0.58851 0.0
C986 C 0.49561 0.23187 0.57663 0.0
C987 C 0.50793 0.26121 0.61831 0.0
C988 C 0.48938 0.19403 0.58959 0.0
C989 C 0.4957 0.18431 0.64456 0.0
H990 H 0.49131 0.23842 0.53357 0.0
H991 H 0.4805 0.17254 0.55589 0.0
S992 S 0.53192 0.25246 0.76718 0.0
N993 N 0.52803 0.27897 0.71579 0.0
N994 N 0.51694 0.20826 0.74023 0.0
C995 C 0.50786 0.21354 0.68665 0.0
C996 C 0.5139 0.25191 0.67345 0.0
C997 C 0.80802 0.29171 0.71227 0.0
C998 C 0.82883 0.3118 0.66331 0.0
C999 C 0.76843 0.26058 0.70942 0.0
C1000 C 0.74832 0.24838 0.65739 0.0
H1001 H 0.8217 0.30139 0.75328 0.0
H1002 H 0.7528 0.24765 0.74828 0.0
S1003 S 0.7914 0.28571 0.51619 0.0
N1004 N 0.82761 0.31286 0.56067 0.0
N1005 N 0.75362 0.25512 0.5556 0.0
C1006 C 0.7697 0.26609 0.60805 0.0
C1007 C 0.80985 0.29749 0.61087 0.0
C1008 C 0.80723 0.38516 0.07091 0.0
C1009 C 0.8291 0.42038 0.03989 0.0
C1010 C 0.81888 0.3566 0.07513 0.0
C1011 C 0.85275 0.36102 0.04772 0.0
H1012 H 0.77992 0.37883 0.09151 0.0
H1013 H 0.79999 0.32995 0.09856 0.0
S1014 S 0.92732 0.45172 0.97512 0.0
N1015 N 0.89144 0.46117 0.9906 0.0
N1016 N 0.9125 0.40642 0.99776 0.0
C1017 C 0.87698 0.39721 1.0204 0.0
C1018 C 0.86546 0.42711 1.01681 0.0
C1019 C 0.63702 0.46332 0.1146 0.0
C1020 C 0.64823 0.4776 0.05912 0.0
C1021 C 0.60693 0.4243 0.12501 0.0
C1022 C 0.58683 0.39838 0.08029 0.0
H1023 H 0.65221 0.48218 0.15033 0.0
H1024 H 0.59973 0.41418 0.16818 0.0
S1025 S 0.60712 0.41928 0.92801 0.0
N1026 N 0.6379 0.46141 0.95923 0.0
N1027 N 0.58153 0.38842 0.97906 0.0
C1028 C 0.59758 0.41212 0.02485 0.0
C1029 C 0.62815 0.45168 1.01417 0.0
C1030 C 0.58711 0.16139 1.01305 0.0
C1031 C 0.61391 0.1803 0.05763 0.0
C1032 C 0.54745 0.15276 1.01672 0.0
C1033 C 0.53331 0.1629 0.06496 0.0
H1034 H 0.59747 0.1557 0.97382 0.0
H1035 H 0.52828 0.13982 0.98043 0.0
S1036 S 0.59065 0.20652 0.1968 0.0
N1037 N 0.62264 0.2042 0.15383 0.0
N1038 N 0.54856 0.18792 0.16123 0.0
C1039 C 0.55917 0.17855 0.1116 0.0
C1040 C 0.59938 0.18742 0.10767 0.0
C1041 C 0.36998 0.79224 0.03653 0.0
C1042 C 0.35837 0.8205 0.02425 0.0
C1043 C 0.40555 0.79617 1.0158 0.0
C1044 C 0.43059 0.82823 0.98127 0.0
H1045 H 0.35127 0.76658 0.062 0.0
H1046 H 0.41291 0.77342 0.02565 0.0
S1047 S 0.41533 0.91164 0.93954 0.0
N1048 N 0.37605 0.88268 0.97761 0.0
N1049 N 0.44248 0.8899 0.93837 0.0
C1050 C 0.41982 0.85714 0.96981 0.0
C1051 C 0.38391 0.85339 0.99144 0.0
C1052 C 0.14869 0.52981 0.03561 0.0
C1053 C 0.1817 0.5243 0.04234 0.0
C1054 C 0.1536 0.56794 0.0269 0.0
C1055 C 0.19168 0.60163 0.02449 0.0
H1056 H 0.11908 0.50449 0.03483 0.0
H1057 H 0.12764 0.5708 1.01941 0.0
S1058 S 0.28706 0.60408 0.05028 0.0
N1059 N 0.25336 0.55689 0.05421 0.0
N1060 N 0.26229 0.62734 0.03664 0.0
C1061 C 0.22448 0.59657 0.03485 0.0
C1062 C 0.21959 0.55827 0.04417 0.0
C1063 C 0.42791 0.65331 0.99754 0.0
C1064 C 0.46317 0.65223 1.00649 0.0
C1065 C 0.39114 0.6188 0.99414 0.0
C1066 C 0.38738 0.58116 0.9996 0.0
H1067 H 0.42847 0.68119 0.99219 0.0
H1068 H 0.3653 0.62178 0.98594 0.0
S1069 S 0.47007 0.56135 0.02696 0.0
N1070 N 0.49179 0.61006 0.024 0.0
N1071 N 0.42229 0.54477 1.0168 0.0
C1072 C 0.42208 0.57932 1.0109 0.0
C1073 C 0.45998 0.61488 1.01446 0.0
C1074 C 0.494 0.71713 0.35935 0.0
C1075 C 0.49495 0.69374 0.40405 0.0
C1076 C 0.48867 0.74957 0.36913 0.0
C1077 C 0.48451 0.76031 0.42422 0.0
H1078 H 0.49716 0.71024 0.31619 0.0
H1079 H 0.48686 0.76565 0.33295 0.0
S1080 S 0.48762 0.7106 0.55646 0.0
N1081 N 0.49286 0.68465 0.50583 0.0
N1082 N 0.48358 0.74608 0.52432 0.0
C1083 C 0.48636 0.73779 0.46945 0.0
C1084 C 0.4916 0.70457 0.45943 0.0
C1085 C 0.28078 0.78838 0.36278 0.0
C1086 C 0.31917 0.79566 0.37668 0.0
C1087 C 0.24763 0.74983 0.36512 0.0
C1088 C 0.25181 0.71716 0.38101 0.0
H1089 H 0.27619 0.81267 0.35091 0.0
H1090 H 0.21854 0.74588 0.35624 0.0
S1091 S 0.34653 0.71913 0.41245 0.0
N1092 N 0.35939 0.76574 0.4015 0.0
N1093 N 0.29803 0.69427 0.40428 0.0
C1094 C 0.29028 0.72393 0.3921 0.0
C1095 C 0.32365 0.76283 0.39047 0.0
C1096 C 0.23942 0.48414 0.34171 0.0
C1097 C 0.26899 0.51321 0.37639 0.0
C1098 C 0.19927 0.47401 0.34697 0.0
C1099 C 0.18721 0.49223 0.38757 0.0
H1100 H 0.24761 0.47104 0.30803 0.0
H1101 H 0.17792 0.45318 0.31725 0.0
S1102 S 0.25222 0.56317 0.49739 0.0
N1103 N 0.28246 0.55498 0.45865 0.0
N1104 N 0.20785 0.53578 0.46936 0.0
C1105 C 0.21612 0.51821 0.42618 0.0
C1106 C 0.25673 0.52875 0.42035 0.0
C1107 C 0.39852 0.06527 0.40862 0.0
C1108 C 0.38043 0.08259 0.3773 0.0
C1109 C 0.4158 0.04607 0.38137 0.0
C1110 C 0.41516 0.04351 0.32224 0.0
H1111 H 0.39688 0.06412 0.45425 0.0
H1112 H 0.42793 0.03143 0.40665 0.0
S1113 S 0.38152 0.0936 0.22202 0.0
N1114 N 0.37063 0.10372 0.28476 0.0
N1115 N 0.4023 0.06625 0.23342 0.0
C1116 C 0.40158 0.06481 0.29066 0.0
C1117 C 0.38417 0.08461 0.31832 0.0
C1118 C 0.91554 0.32882 0.31357 0.0
C1119 C 0.93701 0.36592 0.33943 0.0
C1120 C 0.89909 0.29448 0.34601 0.0
C1121 C 0.90394 0.2966 0.40495 0.0
H1122 H 0.9149 0.32611 0.2681 0.0
H1123 H 0.88569 0.26624 0.32457 0.0
S1124 S 0.94198 0.38663 0.49248 0.0
N1125 N 0.95065 0.40309 0.42689 0.0
N1126 N 0.92029 0.33807 0.48825 0.0
C1127 C 0.91855 0.33335 0.43138 0.0
C1128 C 0.93522 0.36837 0.39834 0.0
C1129 C 0.65419 0.6198 0.40451 0.0
C1130 C 0.64236 0.64619 0.38441 0.0
C1131 C 0.68698 0.63301 0.4401 0.0
C1132 C 0.70923 0.67317 0.45447 0.0
H1133 H 0.64002 0.58968 0.38902 0.0
H1134 H 0.69804 0.61297 0.44941 0.0
S1135 S 0.68411 0.75125 0.42311 0.0
N1136 N 0.6499 0.71176 0.38967 0.0
N1137 N 0.71213 0.73692 0.45689 0.0
C1138 C 0.69375 0.69815 0.442 0.0
C1139 C 0.66028 0.68465 0.40589 0.0
C1140 C 0.07179 0.39351 0.62531 0.0
C1141 C 0.09197 0.3778 0.65524 0.0
C1142 C 0.05703 0.41475 0.65337 0.0
C1143 C 0.06211 0.42073 0.71201 0.0
H1144 H 0.06466 0.38675 0.58102 0.0
H1145 H 0.03961 0.42455 0.62959 0.0
S1146 S 0.12209 0.3945 0.80567 0.0
N1147 N 0.12345 0.37625 0.74349 0.0
N1148 N 0.09502 0.41599 0.79679 0.0
C1149 C 0.0864 0.40936 0.74089 0.0
C1150 C 0.10144 0.38771 0.7123 0.0
C1151 C 0.59422 0.6432 0.75136 0.0
C1152 C 0.61566 0.62604 0.77363 0.0
C1153 C 0.61255 0.67578 0.71571 0.0
C1154 C 0.65285 0.69247 0.70277 0.0
H1155 H 0.5623 0.62857 0.75556 0.0
H1156 H 0.59462 0.6866 0.69574 0.0
S1157 S 0.72324 0.66347 0.76214 0.0
N1158 N 0.68008 0.63209 0.79011 0.0
N1159 N 0.71495 0.69332 0.72198 0.0
C1160 C 0.67562 0.67872 0.73091 0.0
C1161 C 0.6569 0.64569 0.76747 0.0
C1162 C 0.3759 0.95493 0.66838 0.0
C1163 C 0.3777 0.956 0.72762 0.0
C1164 C 0.33954 0.9382 0.64024 0.0
C1165 C 0.30415 0.92194 0.67076 0.0
H1166 H 0.4028 0.96895 0.64385 0.0
H1167 H 0.33928 0.94035 0.59468 0.0
S1168 S 0.29328 0.90793 0.82564 0.0
N1169 N 0.34151 0.93312 0.8154 0.0
N1170 N 0.27269 0.90026 0.7624 0.0
C1171 C 0.30551 0.91849 0.72966 0.0
C1172 C 0.34255 0.93575 0.75822 0.0
C1173 C 0.70828 0.01874 0.66107 0.0
C1174 C 0.69082 0.97835 0.67545 0.0
C1175 C 0.68997 0.04124 0.67498 0.0
C1176 C 0.65363 0.02429 0.70414 0.0
H1177 H 0.7357 0.0328 0.63761 0.0
H1178 H 0.70361 0.07164 0.66092 0.0
S1179 S 0.59943 0.9221 0.76077 0.0
N1180 N 0.63743 0.92421 0.72716 0.0
N1181 N 0.60367 0.96608 0.75277 0.0
C1182 C 0.63727 0.98475 0.72156 0.0
C1183 C 0.65565 0.96195 0.70743 0.0
C1184 C 0.02334 0.64902 0.68728 0.0
C1185 C 0.98243 0.62781 0.69852 0.0
C1186 C 0.0433 0.68985 0.67782 0.0
C1187 C 0.02354 0.71184 0.67923 0.0
H1188 H 0.04045 0.63403 0.68553 0.0
H1189 H 0.07482 0.70427 0.66979 0.0
S1190 S 0.91626 0.67092 0.70703 0.0
N1191 N 0.92257 0.63207 0.71026 0.0
N1192 N 0.96025 0.7091 0.69299 0.0
C1193 C 0.98251 0.69116 0.69022 0.0
C1194 C 0.96198 0.6492 0.69977 0.0
C1195 C 0.30947 0.3476 0.69101 0.0
C1196 C 0.28798 0.30607 0.6871 0.0
C1197 C 0.351 0.36859 0.69219 0.0
C1198 C 0.3734 0.34926 0.68947 0.0
H1199 H 0.29415 0.36436 0.69339 0.0
H1200 H 0.36559 0.4005 0.69491 0.0
S1201 S 0.33195 0.24066 0.67903 0.0
N1202 N 0.29252 0.24617 0.68074 0.0
N1203 N 0.37065 0.28565 0.68291 0.0
C1204 C 0.35243 0.30764 0.68593 0.0
C1205 C 0.30984 0.28611 0.68472 0.0
C1206 C 0.9822 0.62443 0.34003 0.0
C1207 C 0.02247 0.64206 0.32528 0.0
C1208 C 0.96333 0.64681 0.34679 0.0
C1209 C 0.98359 0.68805 0.33882 0.0
H1210 H 0.96488 0.59287 0.34715 0.0
H1211 H 0.93233 0.63132 0.35828 0.0
S1212 S 0.08934 0.74898 0.2983 0.0
N1213 N 0.08212 0.70356 0.30235 0.0
N1214 N 0.04649 0.74565 0.31406 0.0
C1215 C 0.02392 0.70624 0.32368 0.0
C1216 C 0.04333 0.68331 0.31715 0.0
C1217 C 0.36198 0.32142 0.35161 0.0
C1218 C 0.32087 0.29774 0.34298 0.0
C1219 C 0.38206 0.36201 0.33948 0.0
C1220 C 0.36218 0.38132 0.31815 0.0
H1221 H 0.3791 0.3086 0.36821 0.0
H1222 H 0.41362 0.37846 0.34784 0.0
S1223 S 0.2547 0.33291 0.285 0.0
N1224 N 0.26103 0.29665 0.30933 0.0
N1225 N 0.29878 0.37308 0.28736 0.0
C1226 C 0.32107 0.35807 0.30865 0.0
C1227 C 0.30049 0.3164 0.32082 0.0
C1228 C 0.65102 0.02404 0.34527 0.0
C1229 C 0.62895 0.98249 0.34706 0.0
C1230 C 0.69208 0.04461 0.35384 0.0
C1231 C 0.71346 0.02481 0.36441 0.0
H1232 H 0.63648 0.04121 0.33771 0.0
H1233 H 0.70712 0.07657 0.35194 0.0
S1234 S 0.67033 0.91595 0.37286 0.0
N1235 N 0.63187 0.92201 0.36006 0.0
N1236 N 0.70933 0.9608 0.37552 0.0
C1237 C 0.69201 0.98317 0.36586 0.0
C1238 C 0.64982 0.96204 0.35732 0.0
C1239 C 0.7215 0.7272 0.08061 0.0
C1240 C 0.71455 0.7551 0.0535 0.0
C1241 C 0.73761 0.70777 0.05096 0.0
C1242 C 0.7465 0.71522 0.99311 0.0
H1243 H 0.71187 0.71833 0.12364 0.0
H1244 H 0.74152 0.68572 0.07323 0.0
S1245 S 0.74574 0.79582 0.90999 0.0
N1246 N 0.72619 0.79654 0.97124 0.0
N1247 N 0.75619 0.7597 0.91445 0.0
C1248 C 0.7445 0.74701 0.96807 0.0
C1249 C 0.7283 0.76691 0.99852 0.0
C1250 C 0.29205 0.00642 0.0897 0.0
C1251 C 0.26824 0.97096 0.06109 0.0
C1252 C 0.31113 0.04192 0.06031 0.0
C1253 C 0.30696 0.04307 1.00142 0.0
H1254 H 0.29766 0.00651 0.13457 0.0
H1255 H 0.3302 0.06842 0.08381 0.0
S1256 S 0.24089 0.95921 0.9096 0.0
N1257 N 0.23614 0.93937 0.97276 0.0
N1258 N 0.27267 0.00677 0.91703 0.0
C1259 C 0.28041 0.00829 0.97319 0.0
C1260 C 0.26098 0.97195 1.00316 0.0
C1261 C 0.01118 0.24925 0.96814 0.0
C1262 C 0.97363 0.22846 0.99263 0.0
C1263 C 0.04495 0.26628 1.00219 0.0
C1264 C 0.04172 0.26352 0.06135 0.0
H1265 H 0.0143 0.25598 0.92344 0.0
H1266 H 0.0733 0.28472 0.98243 0.0
S1267 S 0.95116 0.19737 0.14164 0.0
N1268 N 0.93567 0.19499 0.07598 0.0
N1269 N 0.99949 0.22782 0.14075 0.0
C1270 C 0.00503 0.23659 0.08489 0.0
C1271 C 0.97065 0.219 0.05013 0.0
C1272 C 0.373 0.3515 1.02164 0.0
C1273 C 0.35692 0.31096 0.03339 0.0
C1274 C 0.35124 0.37096 0.03166 0.0
C1275 C 0.31269 0.35071 0.0543 0.0
H1276 H 0.40222 0.36809 1.00331 0.0
H1277 H 0.36438 0.40184 1.02021 0.0
S1278 S 0.25957 0.24573 0.10028 0.0
N1279 N 0.30155 0.25227 0.07394 0.0
N1280 N 0.26125 0.28866 0.0934 0.0
C1281 C 0.29718 0.31064 0.0687 0.0
C1282 C 0.31909 0.29084 0.05806 0.0
C1283 C 0.65103 0.99046 1.01423 0.0
C1284 C 0.67129 0.96883 1.01528 0.0
C1285 C 0.67135 0.03183 1.00688 0.0
C1286 C 0.71285 0.05342 1.00066 0.0
H1287 H 0.61911 0.9753 1.01838 0.0
H1288 H 0.65439 0.04701 1.00661 0.0
S1289 S 0.78001 0.01104 1.00039 0.0
N1290 N 0.73549 0.97256 1.00952 0.0
N1291 N 0.77334 0.04956 0.99571 0.0
C1292 C 0.73339 0.03208 1.00166 0.0
C1293 C 0.71276 0.9901 1.009 0.0
C1294 C 0.9781 0.68397 0.02326 0.0
C1295 C 0.9573 0.64353 1.0091 0.0
C1296 C 0.01846 0.70347 0.03752 0.0
C1297 C 0.04054 0.68374 0.03859 0.0
H1298 H 0.9631 0.7011 0.02364 0.0
H1299 H 0.03248 0.73463 0.04761 0.0
S1300 S 1.00086 0.57765 1.00435 0.0
N1301 N 0.96225 0.58421 0.99678 0.0
N1302 N 0.03832 0.62096 0.02343 0.0
C1303 C 0.02031 0.64318 0.02458 0.0
C1304 C 0.97883 0.62315 1.0098 0.0
loop_
_geom_bond_atom_site_label_1
_geom_bond_atom_site_label_2
_geom_bond_distance
_geom_bond_site_symmetry_2
_ccdc_geom_bond_type
Zn0 N4 2.020 . S
Zn0 O8 2.019 . S
Zn0 N10 2.119 . S
Zn0 O18 1.975 . S
C1 N2 1.334 . S
C1 N5 1.336 . S
N2 C1 1.334 . S
N2 C3 1.334 . S
C3 N2 1.334 . S
C3 N4 1.336 . S
N4 Zn0 2.020 . S
N4 C3 1.336 . S
N4 N5 1.354 . S
N5 C1 1.336 . S
N5 N4 1.354 . S
N5 Zn9 2.020 . S
C6 O7 1.244 . S
C6 O30 1.257 . S
O7 C6 1.244 . S
O8 Zn0 2.019 . S
O8 C28 1.257 . S
Zn9 N5 2.020 . S
Zn9 O16 1.975 . S
Zn9 N25 2.119 . S
Zn9 O30 2.019 . S
N10 Zn0 2.119 . S
N10 C12 1.334 . S
N10 C13 1.328 . S
C11 C12 1.391 . S
C11 N14 1.329 . S
C11 H32 0.930 . S
C12 N10 1.334 . S
C12 C11 1.391 . S
C12 H19 0.930 . S
C13 N10 1.328 . S
C13 C15 1.392 . S
C13 H20 0.930 . S
N14 C11 1.329 . S
N14 C15 1.331 . S
C15 C13 1.392 . S
C15 N14 1.331 . S
O16 Zn9 1.975 . S
O16 C17 1.252 . S
C17 O16 1.252 . S
C17 O18 1.252 . S
O18 Zn0 1.975 . S
O18 C17 1.252 . S
H19 C12 0.930 . S
H20 C13 0.930 . S
C21 C22 1.392 . S
C21 N25 1.328 . S
C21 H27 0.930 . S
C22 C21 1.392 . S
C22 N26 1.331 . S
C23 C24 1.391 . S
C23 N26 1.329 . S
C23 H33 0.930 . S
C24 C23 1.391 . S
C24 N25 1.334 . S
C24 H31 0.930 . S
N25 Zn9 2.119 . S
N25 C21 1.328 . S
N25 C24 1.334 . S
N26 C22 1.331 . S
N26 C23 1.329 . S
H27 C21 0.930 . S
C28 O8 1.257 . S
C28 O29 1.244 . S
O29 C28 1.244 . S
O30 C6 1.257 . S
O30 Zn9 2.019 . S
H31 C24 0.930 . S
H32 C11 0.930 . S
H33 C23 0.930 . S
Zn34 N38 2.020 . S
Zn34 O42 2.019 . S
Zn34 N44 2.119 . S
Zn34 O52 1.975 . S
C35 N36 1.334 . S
C35 N39 1.336 . S
N36 C35 1.334 . S
N36 C37 1.334 . S
C37 N36 1.334 . S
C37 N38 1.336 . S
N38 Zn34 2.020 . S
N38 C37 1.336 . S
N38 N39 1.354 . S
N39 C35 1.336 . S
N39 N38 1.354 . S
N39 Zn43 2.020 . S
C40 O41 1.244 . S
C40 O64 1.257 . S
O41 C40 1.244 . S
O42 Zn34 2.019 . S
O42 C62 1.257 . S
Zn43 N39 2.020 . S
Zn43 O50 1.975 . S
Zn43 N59 2.119 . S
Zn43 O64 2.019 . S
N44 Zn34 2.119 . S
N44 C46 1.334 . S
N44 C47 1.328 . S
C45 C46 1.391 . S
C45 N48 1.329 . S
C45 H66 0.930 . S
C46 N44 1.334 . S
C46 C45 1.391 . S
C46 H53 0.930 . S
C47 N44 1.328 . S
C47 C49 1.392 . S
C47 H54 0.930 . S
N48 C45 1.329 . S
N48 C49 1.331 . S
C49 C47 1.392 . S
C49 N48 1.331 . S
O50 Zn43 1.975 . S
O50 C51 1.252 . S
C51 O50 1.252 . S
C51 O52 1.252 . S
O52 Zn34 1.975 . S
O52 C51 1.252 . S
H53 C46 0.930 . S
H54 C47 0.930 . S
C55 C56 1.392 . S
C55 N59 1.328 1_565 S
C55 H61 0.930 . S
C56 C55 1.392 . S
C56 N60 1.331 . S
C57 C58 1.391 1_565 S
C57 N60 1.329 . S
C57 H67 0.930 1_565 S
C58 C57 1.391 1_545 S
C58 N59 1.334 . S
C58 H65 0.930 . S
N59 Zn43 2.119 . S
N59 C55 1.328 1_545 S
N59 C58 1.334 . S
N60 C56 1.331 . S
N60 C57 1.329 . S
H61 C55 0.930 . S
C62 O42 1.257 . S
C62 O63 1.244 . S
O63 C62 1.244 . S
O64 C40 1.257 . S
O64 Zn43 2.019 . S
H65 C58 0.930 . S
H66 C45 0.930 . S
H67 C57 0.930 1_545 S
Zn68 N72 2.020 . S
Zn68 O76 2.019 . S
Zn68 N78 2.119 . S
Zn68 O86 1.975 . S
C69 N70 1.334 . S
C69 N73 1.336 . S
N70 C69 1.334 . S
N70 C71 1.334 . S
C71 N70 1.334 . S
C71 N72 1.336 . S
N72 Zn68 2.020 . S
N72 C71 1.336 . S
N72 N73 1.354 . S
N73 C69 1.336 . S
N73 N72 1.354 . S
N73 Zn77 2.020 . S
C74 O75 1.244 . S
C74 O98 1.257 . S
O75 C74 1.244 . S
O76 Zn68 2.019 . S
O76 C96 1.257 . S
Zn77 N73 2.020 . S
Zn77 O84 1.975 . S
Zn77 N93 2.119 . S
Zn77 O98 2.019 . S
N78 Zn68 2.119 . S
N78 C80 1.334 . S
N78 C81 1.328 1_655 S
C79 C80 1.391 1_455 S
C79 N82 1.329 . S
C79 H100 0.930 1_455 S
C80 N78 1.334 . S
C80 C79 1.391 1_655 S
C80 H87 0.930 . S
C81 N78 1.328 1_455 S
C81 C83 1.392 . S
C81 H88 0.930 . S
N82 C79 1.329 . S
N82 C83 1.331 . S
C83 C81 1.392 . S
C83 N82 1.331 . S
O84 Zn77 1.975 . S
O84 C85 1.252 . S
C85 O84 1.252 . S
C85 O86 1.252 . S
O86 Zn68 1.975 . S
O86 C85 1.252 . S
H87 C80 0.930 . S
H88 C81 0.930 . S
C89 C90 1.392 . S
C89 N93 1.328 . S
C89 H95 0.930 . S
C90 C89 1.392 . S
C90 N94 1.331 . S
C91 C92 1.391 . S
C91 N94 1.329 . S
C91 H101 0.930 . S
C92 C91 1.391 . S
C92 N93 1.334 . S
C92 H99 0.930 . S
N93 Zn77 2.119 . S
N93 C89 1.328 . S
N93 C92 1.334 . S
N94 C90 1.331 . S
N94 C91 1.329 . S
H95 C89 0.930 . S
C96 O76 1.257 . S
C96 O97 1.244 . S
O97 C96 1.244 . S
O98 C74 1.257 . S
O98 Zn77 2.019 . S
H99 C92 0.930 . S
H100 C79 0.930 1_655 S
H101 C91 0.930 . S
Zn102 N106 2.020 . S
Zn102 O110 2.019 . S
Zn102 N112 2.119 . S
Zn102 O120 1.975 . S
C103 N104 1.334 . S
C103 N107 1.336 . S
N104 C103 1.334 . S
N104 C105 1.334 . S
C105 N104 1.334 . S
C105 N106 1.336 . S
N106 Zn102 2.020 . S
N106 C105 1.336 . S
N106 N107 1.354 . S
N107 C103 1.336 . S
N107 N106 1.354 . S
N107 Zn111 2.020 . S
C108 O109 1.244 . S
C108 O132 1.257 . S
O109 C108 1.244 . S
O110 Zn102 2.019 . S
O110 C130 1.257 . S
Zn111 N107 2.020 . S
Zn111 O118 1.975 . S
Zn111 N127 2.119 . S
Zn111 O132 2.019 . S
N112 Zn102 2.119 . S
N112 C114 1.334 . S
N112 C115 1.328 . S
C113 C114 1.391 . S
C113 N116 1.329 . S
C113 H134 0.930 . S
C114 N112 1.334 . S
C114 C113 1.391 . S
C114 H121 0.930 . S
C115 N112 1.328 . S
C115 C117 1.392 . S
C115 H122 0.930 . S
N116 C113 1.329 . S
N116 C117 1.331 . S
C117 C115 1.392 . S
C117 N116 1.331 . S
O118 Zn111 1.975 . S
O118 C119 1.252 . S
C119 O118 1.252 . S
C119 O120 1.252 . S
O120 Zn102 1.975 . S
O120 C119 1.252 . S
H121 C114 0.930 . S
H122 C115 0.930 . S
C123 C124 1.392 . S
C123 N127 1.328 . S
C123 H129 0.930 . S
C124 C123 1.392 . S
C124 N128 1.331 . S
C125 C126 1.391 . S
C125 N128 1.329 . S
C125 H135 0.930 . S
C126 C125 1.391 . S
C126 N127 1.334 . S
C126 H133 0.930 . S
N127 Zn111 2.119 . S
N127 C123 1.328 . S
N127 C126 1.334 . S
N128 C124 1.331 . S
N128 C125 1.329 . S
H129 C123 0.930 . S
C130 O110 1.257 . S
C130 O131 1.244 . S
O131 C130 1.244 . S
O132 C108 1.257 . S
O132 Zn111 2.019 . S
H133 C126 0.930 . S
H134 C113 0.930 . S
H135 C125 0.930 . S
Zn136 N140 2.020 . S
Zn136 O144 2.019 . S
Zn136 N146 2.119 . S
Zn136 O154 1.975 . S
C137 N138 1.334 . S
C137 N141 1.336 . S
N138 C137 1.334 . S
N138 C139 1.334 . S
C139 N138 1.334 . S
C139 N140 1.336 . S
N140 Zn136 2.020 . S
N140 C139 1.336 . S
N140 N141 1.354 . S
N141 C137 1.336 . S
N141 N140 1.354 . S
N141 Zn145 2.020 . S
C142 O143 1.244 . S
C142 O166 1.257 . S
O143 C142 1.244 . S
O144 Zn136 2.019 . S
O144 C164 1.257 . S
Zn145 N141 2.020 . S
Zn145 O152 1.975 . S
Zn145 N161 2.119 . S
Zn145 O166 2.019 . S
N146 Zn136 2.119 . S
N146 C148 1.334 . S
N146 C149 1.328 . S
C147 C148 1.391 . S
C147 N150 1.329 . S
C147 H168 0.930 . S
C148 N146 1.334 . S
C148 C147 1.391 . S
C148 H155 0.930 . S
C149 N146 1.328 . S
C149 C151 1.392 . S
C149 H156 0.930 . S
N150 C147 1.329 . S
N150 C151 1.331 . S
C151 C149 1.392 . S
C151 N150 1.331 . S
O152 Zn145 1.975 . S
O152 C153 1.252 . S
C153 O152 1.252 . S
C153 O154 1.252 . S
O154 Zn136 1.975 . S
O154 C153 1.252 . S
H155 C148 0.930 . S
H156 C149 0.930 . S
C157 C158 1.392 . S
C157 N161 1.328 1_545 S
C157 H163 0.930 . S
C158 C157 1.392 . S
C158 N162 1.331 . S
C159 C160 1.391 1_545 S
C159 N162 1.329 . S
C159 H169 0.930 1_545 S
C160 C159 1.391 1_565 S
C160 N161 1.334 . S
C160 H167 0.930 . S
N161 Zn145 2.119 . S
N161 C157 1.328 1_565 S
N161 C160 1.334 . S
N162 C158 1.331 . S
N162 C159 1.329 . S
H163 C157 0.930 . S
C164 O144 1.257 . S
C164 O165 1.244 . S
O165 C164 1.244 . S
O166 C142 1.257 . S
O166 Zn145 2.019 . S
H167 C160 0.930 . S
H168 C147 0.930 . S
H169 C159 0.930 1_565 S
Zn170 N174 2.020 . S
Zn170 O178 2.019 . S
Zn170 N180 2.119 . S
Zn170 O188 1.975 . S
C171 N172 1.334 . S
C171 N175 1.336 . S
N172 C171 1.334 . S
N172 C173 1.334 . S
C173 N172 1.334 . S
C173 N174 1.336 . S
N174 Zn170 2.020 . S
N174 C173 1.336 . S
N174 N175 1.354 . S
N175 C171 1.336 . S
N175 N174 1.354 . S
N175 Zn179 2.020 . S
C176 O177 1.244 . S
C176 O200 1.257 . S
O177 C176 1.244 . S
O178 Zn170 2.019 . S
O178 C198 1.257 . S
Zn179 N175 2.020 . S
Zn179 O186 1.975 . S
Zn179 N195 2.119 . S
Zn179 O200 2.019 . S
N180 Zn170 2.119 . S
N180 C182 1.334 . S
N180 C183 1.328 . S
C181 C182 1.391 . S
C181 N184 1.329 . S
C181 H202 0.930 . S
C182 N180 1.334 . S
C182 C181 1.391 . S
C182 H189 0.930 . S
C183 N180 1.328 . S
C183 C185 1.392 . S
C183 H190 0.930 . S
N184 C181 1.329 . S
N184 C185 1.331 . S
C185 C183 1.392 . S
C185 N184 1.331 . S
O186 Zn179 1.975 . S
O186 C187 1.252 . S
C187 O186 1.252 . S
C187 O188 1.252 . S
O188 Zn170 1.975 . S
O188 C187 1.252 . S
H189 C182 0.930 . S
H190 C183 0.930 . S
C191 C192 1.392 . S
C191 N195 1.328 1_655 S
C191 H197 0.930 . S
C192 C191 1.392 . S
C192 N196 1.331 . S
C193 C194 1.391 1_655 S
C193 N196 1.329 . S
C193 H203 0.930 1_655 S
C194 C193 1.391 1_455 S
C194 N195 1.334 . S
C194 H201 0.930 . S
N195 Zn179 2.119 . S
N195 C191 1.328 1_455 S
N195 C194 1.334 . S
N196 C192 1.331 . S
N196 C193 1.329 . S
H197 C191 0.930 . S
C198 O178 1.257 . S
C198 O199 1.244 . S
O199 C198 1.244 . S
O200 C176 1.257 . S
O200 Zn179 2.019 . S
H201 C194 0.930 . S
H202 C181 0.930 . S
H203 C193 0.930 1_455 S
Zn204 N208 2.020 . S
Zn204 O212 2.019 . S
Zn204 N214 2.119 . S
Zn204 O222 1.975 . S
C205 N206 1.334 . S
C205 N209 1.336 . S
N206 C205 1.334 . S
N206 C207 1.334 . S
C207 N206 1.334 . S
C207 N208 1.336 . S
N208 Zn204 2.020 . S
N208 C207 1.336 . S
N208 N209 1.354 . S
N209 C205 1.336 . S
N209 N208 1.354 . S
N209 Zn213 2.020 . S
C210 O211 1.244 . S
C210 O234 1.257 . S
O211 C210 1.244 . S
O212 Zn204 2.019 . S
O212 C232 1.257 . S
Zn213 N209 2.020 . S
Zn213 O220 1.975 . S
Zn213 N229 2.119 . S
Zn213 O234 2.019 . S
N214 Zn204 2.119 . S
N214 C216 1.334 . S
N214 C217 1.328 . S
C215 C216 1.391 . S
C215 N218 1.329 . S
C215 H236 0.930 . S
C216 N214 1.334 . S
C216 C215 1.391 . S
C216 H223 0.930 . S
C217 N214 1.328 . S
C217 C219 1.392 . S
C217 H224 0.930 . S
N218 C215 1.329 . S
N218 C219 1.331 . S
C219 C217 1.392 . S
C219 N218 1.331 . S
O220 Zn213 1.975 . S
O220 C221 1.252 . S
C221 O220 1.252 . S
C221 O222 1.252 . S
O222 Zn204 1.975 . S
O222 C221 1.252 . S
H223 C216 0.930 . S
H224 C217 0.930 . S
C225 C226 1.392 1_655 S
C225 N229 1.328 . S
C225 H231 0.930 . S
C226 C225 1.392 1_455 S
C226 N230 1.331 . S
C227 C228 1.391 1_455 S
C227 N230 1.329 . S
C227 H237 0.930 . S
C228 C227 1.391 1_655 S
C228 N229 1.334 . S
C228 H235 0.930 . S
N229 Zn213 2.119 . S
N229 C225 1.328 . S
N229 C228 1.334 . S
N230 C226 1.331 . S
N230 C227 1.329 . S
H231 C225 0.930 . S
C232 O212 1.257 . S
C232 O233 1.244 . S
O233 C232 1.244 . S
O234 C210 1.257 . S
O234 Zn213 2.019 . S
H235 C228 0.930 . S
H236 C215 0.930 . S
H237 C227 0.930 . S
Zn238 N242 2.020 . S
Zn238 O246 2.019 . S
Zn238 N248 2.119 . S
Zn238 O256 1.975 . S
C239 N240 1.334 . S
C239 N243 1.336 . S
N240 C239 1.334 . S
N240 C241 1.334 . S
C241 N240 1.334 . S
C241 N242 1.336 . S
N242 Zn238 2.020 . S
N242 C241 1.336 . S
N242 N243 1.354 . S
N243 C239 1.336 . S
N243 N242 1.354 . S
N243 Zn247 2.020 . S
C244 O245 1.244 . S
C244 O268 1.257 . S
O245 C244 1.244 . S
O246 Zn238 2.019 . S
O246 C266 1.257 . S
Zn247 N243 2.020 . S
Zn247 O254 1.975 . S
Zn247 N263 2.119 . S
Zn247 O268 2.019 . S
N248 Zn238 2.119 . S
N248 C250 1.334 . S
N248 C251 1.328 . S
C249 C250 1.391 . S
C249 N252 1.329 . S
C249 H270 0.930 . S
C250 N248 1.334 . S
C250 C249 1.391 . S
C250 H257 0.930 . S
C251 N248 1.328 . S
C251 C253 1.392 . S
C251 H258 0.930 . S
N252 C249 1.329 . S
N252 C253 1.331 . S
C253 C251 1.392 . S
C253 N252 1.331 . S
O254 Zn247 1.975 . S
O254 C255 1.252 . S
C255 O254 1.252 . S
C255 O256 1.252 . S
O256 Zn238 1.975 . S
O256 C255 1.252 . S
H257 C250 0.930 . S
H258 C251 0.930 . S
C259 C260 1.392 . S
C259 N263 1.328 . S
C259 H265 0.930 . S
C260 C259 1.392 . S
C260 N264 1.331 . S
C261 C262 1.391 . S
C261 N264 1.329 . S
C261 H271 0.930 . S
C262 C261 1.391 . S
C262 N263 1.334 . S
C262 H269 0.930 . S
N263 Zn247 2.119 . S
N263 C259 1.328 . S
N263 C262 1.334 . S
N264 C260 1.331 . S
N264 C261 1.329 . S
H265 C259 0.930 . S
C266 O246 1.257 . S
C266 O267 1.244 . S
O267 C266 1.244 . S
O268 C244 1.257 . S
O268 Zn247 2.019 . S
H269 C262 0.930 . S
H270 C249 0.930 . S
H271 C261 0.930 . S
Zn272 N276 2.020 . S
Zn272 O280 2.019 . S
Zn272 N282 2.119 . S
Zn272 O290 1.975 . S
C273 N274 1.334 . S
C273 N277 1.336 . S
N274 C273 1.334 . S
N274 C275 1.334 . S
C275 N274 1.334 . S
C275 N276 1.336 . S
N276 Zn272 2.020 . S
N276 C275 1.336 . S
N276 N277 1.354 . S
N277 C273 1.336 . S
N277 N276 1.354 . S
N277 Zn281 2.020 . S
C278 O279 1.244 . S
C278 O302 1.257 . S
O279 C278 1.244 . S
O280 Zn272 2.019 . S
O280 C300 1.257 . S
Zn281 N277 2.020 . S
Zn281 O288 1.975 . S
Zn281 N297 2.119 . S
Zn281 O302 2.019 . S
N282 Zn272 2.119 . S
N282 C284 1.334 . S
N282 C285 1.328 . S
C283 C284 1.391 . S
C283 N286 1.329 . S
C283 H304 0.930 . S
C284 N282 1.334 . S
C284 C283 1.391 . S
C284 H291 0.930 . S
C285 N282 1.328 . S
C285 C287 1.392 . S
C285 H292 0.930 . S
N286 C283 1.329 . S
N286 C287 1.331 . S
C287 C285 1.392 . S
C287 N286 1.331 . S
O288 Zn281 1.975 . S
O288 C289 1.252 . S
C289 O288 1.252 . S
C289 O290 1.252 . S
O290 Zn272 1.975 . S
O290 C289 1.252 . S
H291 C284 0.930 . S
H292 C285 0.930 . S
C293 C294 1.392 1_545 S
C293 N297 1.328 . S
C293 H299 0.930 . S
C294 C293 1.392 1_565 S
C294 N298 1.331 . S
C295 C296 1.391 1_565 S
C295 N298 1.329 . S
C295 H305 0.930 . S
C296 C295 1.391 1_545 S
C296 N297 1.334 . S
C296 H303 0.930 . S
N297 Zn281 2.119 . S
N297 C293 1.328 . S
N297 C296 1.334 . S
N298 C294 1.331 . S
N298 C295 1.329 . S
H299 C293 0.930 . S
C300 O280 1.257 . S
C300 O301 1.244 . S
O301 C300 1.244 . S
O302 C278 1.257 . S
O302 Zn281 2.019 . S
H303 C296 0.930 . S
H304 C283 0.930 . S
H305 C295 0.930 . S
Zn306 N310 2.020 1_554 S
Zn306 O314 2.019 . S
Zn306 N316 2.119 1_554 S
Zn306 O324 1.975 . S
C307 N308 1.334 . S
C307 N311 1.336 . S
N308 C307 1.334 . S
N308 C309 1.334 . S
C309 N308 1.334 . S
C309 N310 1.336 . S
N310 Zn306 2.020 1_556 S
N310 C309 1.336 . S
N310 N311 1.354 . S
N311 C307 1.336 . S
N311 N310 1.354 . S
N311 Zn315 2.020 1_556 S
C312 O313 1.244 . S
C312 O336 1.257 1_556 S
O313 C312 1.244 . S
O314 Zn306 2.019 . S
O314 C334 1.257 . S
Zn315 N311 2.020 1_554 S
Zn315 O322 1.975 . S
Zn315 N331 2.119 . S
Zn315 O336 2.019 . S
N316 Zn306 2.119 1_556 S
N316 C318 1.334 . S
N316 C319 1.328 . S
C317 C318 1.391 . S
C317 N320 1.329 . S
C317 H338 0.930 . S
C318 N316 1.334 . S
C318 C317 1.391 . S
C318 H325 0.930 . S
C319 N316 1.328 . S
C319 C321 1.392 . S
C319 H326 0.930 1_556 S
N320 C317 1.329 . S
N320 C321 1.331 . S
C321 C319 1.392 . S
C321 N320 1.331 . S
O322 Zn315 1.975 . S
O322 C323 1.252 . S
C323 O322 1.252 . S
C323 O324 1.252 . S
O324 Zn306 1.975 . S
O324 C323 1.252 . S
H325 C318 0.930 . S
H326 C319 0.930 1_554 S
C327 C328 1.392 . S
C327 N331 1.328 . S
C327 H333 0.930 . S
C328 C327 1.392 . S
C328 N332 1.331 . S
C329 C330 1.391 . S
C329 N332 1.329 . S
C329 H339 0.930 . S
C330 C329 1.391 . S
C330 N331 1.334 . S
C330 H337 0.930 . S
N331 Zn315 2.119 . S
N331 C327 1.328 . S
N331 C330 1.334 . S
N332 C328 1.331 . S
N332 C329 1.329 . S
H333 C327 0.930 . S
C334 O314 1.257 . S
C334 O335 1.244 . S
O335 C334 1.244 . S
O336 C312 1.257 1_554 S
O336 Zn315 2.019 . S
H337 C330 0.930 . S
H338 C317 0.930 . S
H339 C329 0.930 . S
Zn340 N344 2.020 1_554 S
Zn340 O348 2.019 . S
Zn340 N350 2.119 . S
Zn340 O358 1.975 . S
C341 N342 1.334 . S
C341 N345 1.336 . S
N342 C341 1.334 . S
N342 C343 1.334 . S
C343 N342 1.334 . S
C343 N344 1.336 . S
N344 Zn340 2.020 1_556 S
N344 C343 1.336 . S
N344 N345 1.354 . S
N345 C341 1.336 . S
N345 N344 1.354 . S
N345 Zn349 2.020 1_556 S
C346 O347 1.244 . S
C346 O370 1.257 . S
O347 C346 1.244 . S
O348 Zn340 2.019 . S
O348 C368 1.257 1_554 S
Zn349 N345 2.020 1_554 S
Zn349 O356 1.975 . S
Zn349 N365 2.119 1_554 S
Zn349 O370 2.019 . S
N350 Zn340 2.119 . S
N350 C352 1.334 . S
N350 C353 1.328 . S
C351 C352 1.391 . S
C351 N354 1.329 . S
C351 H372 0.930 . S
C352 N350 1.334 . S
C352 C351 1.391 . S
C352 H359 0.930 . S
C353 N350 1.328 . S
C353 C355 1.392 . S
C353 H360 0.930 . S
N354 C351 1.329 . S
N354 C355 1.331 . S
C355 C353 1.392 . S
C355 N354 1.331 . S
O356 Zn349 1.975 . S
O356 C357 1.252 . S
C357 O356 1.252 . S
C357 O358 1.252 . S
O358 Zn340 1.975 . S
O358 C357 1.252 . S
H359 C352 0.930 . S
H360 C353 0.930 . S
C361 C362 1.392 . S
C361 N365 1.328 . S
C361 H367 0.930 1_556 S
C362 C361 1.392 . S
C362 N366 1.331 . S
C363 C364 1.391 . S
C363 N366 1.329 . S
C363 H373 0.930 . S
C364 C363 1.391 . S
C364 N365 1.334 . S
C364 H371 0.930 . S
N365 Zn349 2.119 1_556 S
N365 C361 1.328 . S
N365 C364 1.334 . S
N366 C362 1.331 . S
N366 C363 1.329 . S
H367 C361 0.930 1_554 S
C368 O348 1.257 1_556 S
C368 O369 1.244 . S
O369 C368 1.244 . S
O370 C346 1.257 . S
O370 Zn349 2.019 . S
H371 C364 0.930 . S
H372 C351 0.930 . S
H373 C363 0.930 . S
Zn374 N378 2.020 1_554 S
Zn374 O382 2.019 . S
Zn374 N384 2.119 . S
Zn374 O392 1.975 . S
C375 N376 1.334 . S
C375 N379 1.336 . S
N376 C375 1.334 . S
N376 C377 1.334 . S
C377 N376 1.334 . S
C377 N378 1.336 . S
N378 Zn374 2.020 1_556 S
N378 C377 1.336 . S
N378 N379 1.354 . S
N379 C375 1.336 . S
N379 N378 1.354 . S
N379 Zn383 2.020 1_556 S
C380 O381 1.244 . S
C380 O404 1.257 . S
O381 C380 1.244 . S
O382 Zn374 2.019 . S
O382 C402 1.257 1_554 S
Zn383 N379 2.020 1_554 S
Zn383 O390 1.975 . S
Zn383 N399 2.119 1_554 S
Zn383 O404 2.019 . S
N384 Zn374 2.119 . S
N384 C386 1.334 . S
N384 C387 1.328 . S
C385 C386 1.391 . S
C385 N388 1.329 . S
C385 H406 0.930 . S
C386 N384 1.334 . S
C386 C385 1.391 . S
C386 H393 0.930 . S
C387 N384 1.328 . S
C387 C389 1.392 . S
C387 H394 0.930 . S
N388 C385 1.329 . S
N388 C389 1.331 . S
C389 C387 1.392 . S
C389 N388 1.331 . S
O390 Zn383 1.975 . S
O390 C391 1.252 . S
C391 O390 1.252 . S
C391 O392 1.252 . S
O392 Zn374 1.975 . S
O392 C391 1.252 . S
H393 C386 0.930 . S
H394 C387 0.930 . S
C395 C396 1.392 . S
C395 N399 1.328 . S
C395 H401 0.930 1_556 S
C396 C395 1.392 . S
C396 N400 1.331 . S
C397 C398 1.391 . S
C397 N400 1.329 . S
C397 H407 0.930 . S
C398 C397 1.391 . S
C398 N399 1.334 . S
C398 H405 0.930 . S
N399 Zn383 2.119 1_556 S
N399 C395 1.328 . S
N399 C398 1.334 . S
N400 C396 1.331 . S
N400 C397 1.329 . S
H401 C395 0.930 1_554 S
C402 O382 1.257 1_556 S
C402 O403 1.244 . S
O403 C402 1.244 . S
O404 C380 1.257 . S
O404 Zn383 2.019 . S
H405 C398 0.930 . S
H406 C385 0.930 . S
H407 C397 0.930 . S
Zn408 N412 2.020 1_556 S
Zn408 O416 2.019 . S
Zn408 N418 2.119 . S
Zn408 O426 1.975 . S
C409 N410 1.334 . S
C409 N413 1.336 . S
N410 C409 1.334 . S
N410 C411 1.334 . S
C411 N410 1.334 . S
C411 N412 1.336 . S
N412 Zn408 2.020 1_554 S
N412 C411 1.336 . S
N412 N413 1.354 . S
N413 C409 1.336 . S
N413 N412 1.354 . S
N413 Zn417 2.020 1_554 S
C414 O415 1.244 . S
C414 O438 1.257 . S
O415 C414 1.244 . S
O416 Zn408 2.019 . S
O416 C436 1.257 1_556 S
Zn417 N413 2.020 1_556 S
Zn417 O424 1.975 . S
Zn417 N433 2.119 1_556 S
Zn417 O438 2.019 . S
N418 Zn408 2.119 . S
N418 C420 1.334 . S
N418 C421 1.328 . S
C419 C420 1.391 . S
C419 N422 1.329 . S
C419 H440 0.930 . S
C420 N418 1.334 . S
C420 C419 1.391 . S
C420 H427 0.930 . S
C421 N418 1.328 . S
C421 C423 1.392 . S
C421 H428 0.930 . S
N422 C419 1.329 . S
N422 C423 1.331 . S
C423 C421 1.392 . S
C423 N422 1.331 . S
O424 Zn417 1.975 . S
O424 C425 1.252 . S
C425 O424 1.252 . S
C425 O426 1.252 . S
O426 Zn408 1.975 . S
O426 C425 1.252 . S
H427 C420 0.930 . S
H428 C421 0.930 . S
C429 C430 1.392 . S
C429 N433 1.328 . S
C429 H435 0.930 1_554 S
C430 C429 1.392 . S
C430 N434 1.331 . S
C431 C432 1.391 . S
C431 N434 1.329 . S
C431 H441 0.930 . S
C432 C431 1.391 . S
C432 N433 1.334 . S
C432 H439 0.930 . S
N433 Zn417 2.119 1_554 S
N433 C429 1.328 . S
N433 C432 1.334 . S
N434 C430 1.331 . S
N434 C431 1.329 . S
H435 C429 0.930 1_556 S
C436 O416 1.257 1_554 S
C436 O437 1.244 . S
O437 C436 1.244 . S
O438 C414 1.257 . S
O438 Zn417 2.019 . S
H439 C432 0.930 . S
H440 C419 0.930 . S
H441 C431 0.930 . S
Zn442 N446 2.020 1_556 S
Zn442 O450 2.019 . S
Zn442 N452 2.119 1_556 S
Zn442 O460 1.975 . S
C443 N444 1.334 . S
C443 N447 1.336 . S
N444 C443 1.334 . S
N444 C445 1.334 . S
C445 N444 1.334 . S
C445 N446 1.336 . S
N446 Zn442 2.020 1_554 S
N446 C445 1.336 . S
N446 N447 1.354 . S
N447 C443 1.336 . S
N447 N446 1.354 . S
N447 Zn451 2.020 1_554 S
C448 O449 1.244 . S
C448 O472 1.257 1_554 S
O449 C448 1.244 . S
O450 Zn442 2.019 . S
O450 C470 1.257 . S
Zn451 N447 2.020 1_556 S
Zn451 O458 1.975 . S
Zn451 N467 2.119 . S
Zn451 O472 2.019 . S
N452 Zn442 2.119 1_554 S
N452 C454 1.334 . S
N452 C455 1.328 . S
C453 C454 1.391 . S
C453 N456 1.329 . S
C453 H474 0.930 . S
C454 N452 1.334 . S
C454 C453 1.391 . S
C454 H461 0.930 . S
C455 N452 1.328 . S
C455 C457 1.392 . S
C455 H462 0.930 1_554 S
N456 C453 1.329 . S
N456 C457 1.331 . S
C457 C455 1.392 . S
C457 N456 1.331 . S
O458 Zn451 1.975 . S
O458 C459 1.252 . S
C459 O458 1.252 . S
C459 O460 1.252 . S
O460 Zn442 1.975 . S
O460 C459 1.252 . S
H461 C454 0.930 . S
H462 C455 0.930 1_556 S
C463 C464 1.392 . S
C463 N467 1.328 . S
C463 H469 0.930 . S
C464 C463 1.392 . S
C464 N468 1.331 . S
C465 C466 1.391 . S
C465 N468 1.329 . S
C465 H475 0.930 . S
C466 C465 1.391 . S
C466 N467 1.334 . S
C466 H473 0.930 . S
N467 Zn451 2.119 . S
N467 C463 1.328 . S
N467 C466 1.334 . S
N468 C464 1.331 . S
N468 C465 1.329 . S
H469 C463 0.930 . S
C470 O450 1.257 . S
C470 O471 1.244 . S
O471 C470 1.244 . S
O472 C448 1.257 1_556 S
O472 Zn451 2.019 . S
H473 C466 0.930 . S
H474 C453 0.930 . S
H475 C465 0.930 . S
Zn476 N480 2.020 1_556 S
Zn476 O484 2.019 . S
Zn476 N486 2.119 1_556 S
Zn476 O494 1.975 . S
C477 N478 1.334 . S
C477 N481 1.336 . S
N478 C477 1.334 . S
N478 C479 1.334 . S
C479 N478 1.334 . S
C479 N480 1.336 . S
N480 Zn476 2.020 1_554 S
N480 C479 1.336 . S
N480 N481 1.354 . S
N481 C477 1.336 . S
N481 N480 1.354 . S
N481 Zn485 2.020 1_554 S
C482 O483 1.244 . S
C482 O506 1.257 1_554 S
O483 C482 1.244 . S
O484 Zn476 2.019 . S
O484 C504 1.257 . S
Zn485 N481 2.020 1_556 S
Zn485 O492 1.975 . S
Zn485 N501 2.119 . S
Zn485 O506 2.019 . S
N486 Zn476 2.119 1_554 S
N486 C488 1.334 . S
N486 C489 1.328 . S
C487 C488 1.391 . S
C487 N490 1.329 . S
C487 H508 0.930 . S
C488 N486 1.334 . S
C488 C487 1.391 . S
C488 H495 0.930 . S
C489 N486 1.328 . S
C489 C491 1.392 . S
C489 H496 0.930 1_554 S
N490 C487 1.329 . S
N490 C491 1.331 . S
C491 C489 1.392 . S
C491 N490 1.331 . S
O492 Zn485 1.975 . S
O492 C493 1.252 . S
C493 O492 1.252 . S
C493 O494 1.252 . S
O494 Zn476 1.975 . S
O494 C493 1.252 . S
H495 C488 0.930 . S
H496 C489 0.930 1_556 S
C497 C498 1.392 . S
C497 N501 1.328 . S
C497 H503 0.930 . S
C498 C497 1.392 . S
C498 N502 1.331 . S
C499 C500 1.391 . S
C499 N502 1.329 . S
C499 H509 0.930 . S
C500 C499 1.391 . S
C500 N501 1.334 . S
C500 H507 0.930 . S
N501 Zn485 2.119 . S
N501 C497 1.328 . S
N501 C500 1.334 . S
N502 C498 1.331 . S
N502 C499 1.329 . S
H503 C497 0.930 . S
C504 O484 1.257 . S
C504 O505 1.244 . S
O505 C504 1.244 . S
O506 C482 1.257 1_556 S
O506 Zn485 2.019 . S
H507 C500 0.930 . S
H508 C487 0.930 . S
H509 C499 0.930 . S
Zn510 N514 2.020 . S
Zn510 O518 2.019 . S
Zn510 N520 2.119 . S
Zn510 O528 1.975 . S
C511 N512 1.334 . S
C511 N515 1.336 . S
N512 C511 1.334 . S
N512 C513 1.334 . S
C513 N512 1.334 . S
C513 N514 1.336 . S
N514 Zn510 2.020 . S
N514 C513 1.336 . S
N514 N515 1.354 . S
N515 C511 1.336 . S
N515 N514 1.354 . S
N515 Zn519 2.020 . S
C516 O517 1.244 . S
C516 O540 1.257 . S
O517 C516 1.244 . S
O518 Zn510 2.019 . S
O518 C538 1.257 . S
Zn519 N515 2.020 . S
Zn519 O526 1.975 . S
Zn519 N535 2.119 . S
Zn519 O540 2.019 . S
N520 Zn510 2.119 . S
N520 C522 1.334 . S
N520 C523 1.328 . S
C521 C522 1.391 1_545 S
C521 N524 1.329 . S
C521 H542 0.930 . S
C522 N520 1.334 . S
C522 C521 1.391 1_565 S
C522 H529 0.930 . S
C523 N520 1.328 . S
C523 C525 1.392 1_565 S
C523 H530 0.930 . S
N524 C521 1.329 . S
N524 C525 1.331 . S
C525 C523 1.392 1_545 S
C525 N524 1.331 . S
O526 Zn519 1.975 . S
O526 C527 1.252 . S
C527 O526 1.252 . S
C527 O528 1.252 . S
O528 Zn510 1.975 . S
O528 C527 1.252 . S
H529 C522 0.930 . S
H530 C523 0.930 . S
C531 C532 1.392 . S
C531 N535 1.328 . S
C531 H537 0.930 . S
C532 C531 1.392 . S
C532 N536 1.331 . S
C533 C534 1.391 . S
C533 N536 1.329 . S
C533 H543 0.930 . S
C534 C533 1.391 . S
C534 N535 1.334 . S
C534 H541 0.930 . S
N535 Zn519 2.119 . S
N535 C531 1.328 . S
N535 C534 1.334 . S
N536 C532 1.331 . S
N536 C533 1.329 . S
H537 C531 0.930 . S
C538 O518 1.257 . S
C538 O539 1.244 . S
O539 C538 1.244 . S
O540 C516 1.257 . S
O540 Zn519 2.019 . S
H541 C534 0.930 . S
H542 C521 0.930 . S
H543 C533 0.930 . S
Zn544 N548 2.020 . S
Zn544 O552 2.019 . S
Zn544 N554 2.119 . S
Zn544 O562 1.975 . S
C545 N546 1.334 . S
C545 N549 1.336 . S
N546 C545 1.334 . S
N546 C547 1.334 . S
C547 N546 1.334 . S
C547 N548 1.336 . S
N548 Zn544 2.020 . S
N548 C547 1.336 . S
N548 N549 1.354 . S
N549 C545 1.336 . S
N549 N548 1.354 . S
N549 Zn553 2.020 . S
C550 O551 1.244 . S
C550 O574 1.257 . S
O551 C550 1.244 . S
O552 Zn544 2.019 . S
O552 C572 1.257 . S
Zn553 N549 2.020 . S
Zn553 O560 1.975 . S
Zn553 N569 2.119 . S
Zn553 O574 2.019 . S
N554 Zn544 2.119 . S
N554 C556 1.334 . S
N554 C557 1.328 . S
C555 C556 1.391 . S
C555 N558 1.329 . S
C555 H576 0.930 . S
C556 N554 1.334 . S
C556 C555 1.391 . S
C556 H563 0.930 . S
C557 N554 1.328 . S
C557 C559 1.392 . S
C557 H564 0.930 . S
N558 C555 1.329 . S
N558 C559 1.331 . S
C559 C557 1.392 . S
C559 N558 1.331 . S
O560 Zn553 1.975 . S
O560 C561 1.252 . S
C561 O560 1.252 . S
C561 O562 1.252 . S
O562 Zn544 1.975 . S
O562 C561 1.252 . S
H563 C556 0.930 . S
H564 C557 0.930 . S
C565 C566 1.392 1_455 S
C565 N569 1.328 . S
C565 H571 0.930 . S
C566 C565 1.392 1_655 S
C566 N570 1.331 . S
C567 C568 1.391 1_655 S
C567 N570 1.329 . S
C567 H577 0.930 . S
C568 C567 1.391 1_455 S
C568 N569 1.334 . S
C568 H575 0.930 . S
N569 Zn553 2.119 . S
N569 C565 1.328 . S
N569 C568 1.334 . S
N570 C566 1.331 . S
N570 C567 1.329 . S
H571 C565 0.930 . S
C572 O552 1.257 . S
C572 O573 1.244 . S
O573 C572 1.244 . S
O574 C550 1.257 . S
O574 Zn553 2.019 . S
H575 C568 0.930 . S
H576 C555 0.930 . S
H577 C567 0.930 . S
Zn578 N582 2.020 . S
Zn578 O586 2.019 . S
Zn578 N588 2.119 . S
Zn578 O596 1.975 . S
C579 N580 1.334 . S
C579 N583 1.336 . S
N580 C579 1.334 . S
N580 C581 1.334 . S
C581 N580 1.334 . S
C581 N582 1.336 . S
N582 Zn578 2.020 . S
N582 C581 1.336 . S
N582 N583 1.354 . S
N583 C579 1.336 . S
N583 N582 1.354 . S
N583 Zn587 2.020 . S
C584 O585 1.244 . S
C584 O608 1.257 . S
O585 C584 1.244 . S
O586 Zn578 2.019 . S
O586 C606 1.257 . S
Zn587 N583 2.020 . S
Zn587 O594 1.975 . S
Zn587 N603 2.119 . S
Zn587 O608 2.019 . S
N588 Zn578 2.119 . S
N588 C590 1.334 . S
N588 C591 1.328 . S
C589 C590 1.391 . S
C589 N592 1.329 . S
C589 H610 0.930 . S
C590 N588 1.334 . S
C590 C589 1.391 . S
C590 H597 0.930 . S
C591 N588 1.328 . S
C591 C593 1.392 . S
C591 H598 0.930 . S
N592 C589 1.329 . S
N592 C593 1.331 . S
C593 C591 1.392 . S
C593 N592 1.331 . S
O594 Zn587 1.975 . S
O594 C595 1.252 . S
C595 O594 1.252 . S
C595 O596 1.252 . S
O596 Zn578 1.975 . S
O596 C595 1.252 . S
H597 C590 0.930 . S
H598 C591 0.930 . S
C599 C600 1.392 . S
C599 N603 1.328 . S
C599 H605 0.930 . S
C600 C599 1.392 . S
C600 N604 1.331 . S
C601 C602 1.391 . S
C601 N604 1.329 . S
C601 H611 0.930 . S
C602 C601 1.391 . S
C602 N603 1.334 . S
C602 H609 0.930 . S
N603 Zn587 2.119 . S
N603 C599 1.328 . S
N603 C602 1.334 . S
N604 C600 1.331 . S
N604 C601 1.329 . S
H605 C599 0.930 . S
C606 O586 1.257 . S
C606 O607 1.244 . S
O607 C606 1.244 . S
O608 C584 1.257 . S
O608 Zn587 2.019 . S
H609 C602 0.930 . S
H610 C589 0.930 . S
H611 C601 0.930 . S
C612 C613 1.369 . S
C612 C614 1.419 . S
C612 H616 0.930 . S
C613 C612 1.369 . S
C613 C622 1.429 . S
C614 C612 1.419 . S
C614 C615 1.363 . S
C614 H617 0.929 . S
C615 C614 1.363 . S
C615 C621 1.428 . S
H616 C612 0.930 . S
H617 C614 0.929 . S
S618 N619 1.613 . S
S618 N620 1.610 . S
N619 S618 1.613 . S
N619 C622 1.350 . S
N620 S618 1.610 . S
N620 C621 1.351 . S
C621 C615 1.428 . S
C621 N620 1.351 . S
C621 C622 1.434 . S
C622 C613 1.429 . S
C622 N619 1.350 . S
C622 C621 1.434 . S
C623 C624 1.369 . S
C623 C625 1.419 . S
C623 H627 0.930 . S
C624 C623 1.369 . S
C624 C633 1.429 . S
C625 C623 1.419 . S
C625 C626 1.363 . S
C625 H628 0.929 . S
C626 C625 1.363 . S
C626 C632 1.428 . S
H627 C623 0.930 . S
H628 C625 0.929 . S
S629 N630 1.613 . S
S629 N631 1.610 . S
N630 S629 1.613 . S
N630 C633 1.350 . S
N631 S629 1.610 . S
N631 C632 1.351 . S
C632 C626 1.428 . S
C632 N631 1.351 . S
C632 C633 1.434 . S
C633 C624 1.429 . S
C633 N630 1.350 . S
C633 C632 1.434 . S
C634 C635 1.369 . S
C634 C636 1.419 . S
C634 H638 0.930 . S
C635 C634 1.369 . S
C635 C644 1.429 . S
C636 C634 1.419 . S
C636 C637 1.363 . S
C636 H639 0.929 . S
C637 C636 1.363 . S
C637 C643 1.428 . S
H638 C634 0.930 . S
H639 C636 0.929 . S
S640 N641 1.613 . S
S640 N642 1.610 . S
N641 S640 1.613 . S
N641 C644 1.350 . S
N642 S640 1.610 . S
N642 C643 1.351 . S
C643 C637 1.428 . S
C643 N642 1.351 . S
C643 C644 1.434 . S
C644 C635 1.429 . S
C644 N641 1.350 . S
C644 C643 1.434 . S
C645 C646 1.369 . S
C645 C647 1.419 . S
C645 H649 0.930 . S
C646 C645 1.369 . S
C646 C655 1.429 . S
C647 C645 1.419 . S
C647 C648 1.363 . S
C647 H650 0.929 . S
C648 C647 1.363 . S
C648 C654 1.428 . S
H649 C645 0.930 . S
H650 C647 0.929 . S
S651 N652 1.613 . S
S651 N653 1.610 . S
N652 S651 1.613 . S
N652 C655 1.350 . S
N653 S651 1.610 . S
N653 C654 1.351 . S
C654 C648 1.428 . S
C654 N653 1.351 . S
C654 C655 1.434 . S
C655 C646 1.429 . S
C655 N652 1.350 . S
C655 C654 1.434 . S
C656 C657 1.369 . S
C656 C658 1.419 . S
C656 H660 0.930 . S
C657 C656 1.369 . S
C657 C666 1.429 . S
C658 C656 1.419 . S
C658 C659 1.363 . S
C658 H661 0.929 . S
C659 C658 1.363 . S
C659 C665 1.428 . S
H660 C656 0.930 . S
H661 C658 0.929 . S
S662 N663 1.613 . S
S662 N664 1.610 . S
N663 S662 1.613 . S
N663 C666 1.350 . S
N664 S662 1.610 . S
N664 C665 1.351 . S
C665 C659 1.428 . S
C665 N664 1.351 . S
C665 C666 1.434 . S
C666 C657 1.429 . S
C666 N663 1.350 . S
C666 C665 1.434 . S
C667 C668 1.369 . S
C667 C669 1.419 . S
C667 H671 0.930 . S
C668 C667 1.369 . S
C668 C677 1.429 . S
C669 C667 1.419 . S
C669 C670 1.363 . S
C669 H672 0.929 . S
C670 C669 1.363 . S
C670 C676 1.428 . S
H671 C667 0.930 . S
H672 C669 0.929 . S
S673 N674 1.613 . S
S673 N675 1.610 . S
N674 S673 1.613 . S
N674 C677 1.350 . S
N675 S673 1.610 . S
N675 C676 1.351 . S
C676 C670 1.428 . S
C676 N675 1.351 . S
C676 C677 1.434 . S
C677 C668 1.429 . S
C677 N674 1.350 . S
C677 C676 1.434 . S
C678 C679 1.369 . S
C678 C680 1.419 1_455 S
C678 H682 0.930 . S
C679 C678 1.369 . S
C679 C688 1.429 . S
C680 C678 1.419 1_655 S
C680 C681 1.363 . S
C680 H683 0.929 . S
C681 C680 1.363 . S
C681 C687 1.428 . S
H682 C678 0.930 . S
H683 C680 0.929 . S
S684 N685 1.613 1_655 S
S684 N686 1.610 . S
N685 S684 1.613 1_455 S
N685 C688 1.350 . S
N686 S684 1.610 . S
N686 C687 1.351 . S
C687 C681 1.428 . S
C687 N686 1.351 . S
C687 C688 1.434 1_655 S
C688 C679 1.429 . S
C688 N685 1.350 . S
C688 C687 1.434 1_455 S
C689 C690 1.369 . S
C689 C691 1.419 . S
C689 H693 0.930 . S
C690 C689 1.369 . S
C690 C699 1.429 . S
C691 C689 1.419 . S
C691 C692 1.363 . S
C691 H694 0.929 . S
C692 C691 1.363 . S
C692 C698 1.428 . S
H693 C689 0.930 . S
H694 C691 0.929 . S
S695 N696 1.613 . S
S695 N697 1.610 . S
N696 S695 1.613 . S
N696 C699 1.350 . S
N697 S695 1.610 . S
N697 C698 1.351 . S
C698 C692 1.428 . S
C698 N697 1.351 . S
C698 C699 1.434 . S
C699 C690 1.429 . S
C699 N696 1.350 . S
C699 C698 1.434 . S
C700 C701 1.369 . S
C700 C702 1.419 1_545 S
C700 H704 0.930 . S
C701 C700 1.369 . S
C701 C710 1.429 . S
C702 C700 1.419 1_565 S
C702 C703 1.363 . S
C702 H705 0.929 . S
C703 C702 1.363 . S
C703 C709 1.428 . S
H704 C700 0.930 . S
H705 C702 0.929 . S
S706 N707 1.613 1_565 S
S706 N708 1.610 . S
N707 S706 1.613 1_545 S
N707 C710 1.350 . S
N708 S706 1.610 . S
N708 C709 1.351 . S
C709 C703 1.428 . S
C709 N708 1.351 . S
C709 C710 1.434 1_565 S
C710 C701 1.429 . S
C710 N707 1.350 . S
C710 C709 1.434 1_545 S
C711 C712 1.369 . S
C711 C713 1.419 . S
C711 H715 0.930 . S
C712 C711 1.369 . S
C712 C721 1.429 1_545 S
C713 C711 1.419 . S
C713 C714 1.363 1_545 S
C713 H716 0.929 . S
C714 C713 1.363 1_565 S
C714 C720 1.428 . S
H715 C711 0.930 . S
H716 C713 0.929 . S
S717 N718 1.613 . S
S717 N719 1.610 . S
N718 S717 1.613 . S
N718 C721 1.350 . S
N719 S717 1.610 . S
N719 C720 1.351 . S
C720 C714 1.428 . S
C720 N719 1.351 . S
C720 C721 1.434 . S
C721 C712 1.429 1_565 S
C721 N718 1.350 . S
C721 C720 1.434 . S
C722 C723 1.369 . S
C722 C724 1.419 1_455 S
C722 H726 0.930 . S
C723 C722 1.369 . S
C723 C732 1.429 . S
C724 C722 1.419 1_655 S
C724 C725 1.363 . S
C724 H727 0.929 . S
C725 C724 1.363 . S
C725 C731 1.428 . S
H726 C722 0.930 . S
H727 C724 0.929 . S
S728 N729 1.613 . S
S728 N730 1.610 . S
N729 S728 1.613 . S
N729 C732 1.350 . S
N730 S728 1.610 . S
N730 C731 1.351 1_455 S
C731 C725 1.428 . S
C731 N730 1.351 1_655 S
C731 C732 1.434 1_655 S
C732 C723 1.429 . S
C732 N729 1.350 . S
C732 C731 1.434 1_455 S
C733 C734 1.369 . S
C733 C735 1.419 . S
C733 H737 0.930 . S
C734 C733 1.369 . S
C734 C743 1.429 . S
C735 C733 1.419 . S
C735 C736 1.363 . S
C735 H738 0.929 . S
C736 C735 1.363 . S
C736 C742 1.428 . S
H737 C733 0.930 . S
H738 C735 0.929 . S
S739 N740 1.613 . S
S739 N741 1.610 . S
N740 S739 1.613 . S
N740 C743 1.350 . S
N741 S739 1.610 . S
N741 C742 1.351 . S
C742 C736 1.428 . S
C742 N741 1.351 . S
C742 C743 1.434 . S
C743 C734 1.429 . S
C743 N740 1.350 . S
C743 C742 1.434 . S
C744 C745 1.369 . S
C744 C746 1.419 1_545 S
C744 H748 0.930 . S
C745 C744 1.369 . S
C745 C754 1.429 . S
C746 C744 1.419 1_565 S
C746 C747 1.363 . S
C746 H749 0.929 . S
C747 C746 1.363 . S
C747 C753 1.428 . S
H748 C744 0.930 . S
H749 C746 0.929 . S
S750 N751 1.613 1_565 S
S750 N752 1.610 . S
N751 S750 1.613 1_545 S
N751 C754 1.350 . S
N752 S750 1.610 . S
N752 C753 1.351 . S
C753 C747 1.428 . S
C753 N752 1.351 . S
C753 C754 1.434 1_565 S
C754 C745 1.429 . S
C754 N751 1.350 . S
C754 C753 1.434 1_545 S
C755 C756 1.369 1_655 S
C755 C757 1.419 . S
C755 H759 0.930 . S
C756 C755 1.369 1_455 S
C756 C765 1.429 . S
C757 C755 1.419 . S
C757 C758 1.363 . S
C757 H760 0.929 . S
C758 C757 1.363 . S
C758 C764 1.428 1_655 S
H759 C755 0.930 . S
H760 C757 0.929 . S
S761 N762 1.613 . S
S761 N763 1.610 . S
N762 S761 1.613 . S
N762 C765 1.350 . S
N763 S761 1.610 . S
N763 C764 1.351 . S
C764 C758 1.428 1_455 S
C764 N763 1.351 . S
C764 C765 1.434 . S
C765 C756 1.429 . S
C765 N762 1.350 . S
C765 C764 1.434 . S
C766 C767 1.369 . S
C766 C768 1.419 . S
C766 H770 0.930 . S
C767 C766 1.369 . S
C767 C776 1.429 . S
C768 C766 1.419 . S
C768 C769 1.363 . S
C768 H771 0.929 . S
C769 C768 1.363 . S
C769 C775 1.428 . S
H770 C766 0.930 . S
H771 C768 0.929 . S
S772 N773 1.613 . S
S772 N774 1.610 . S
N773 S772 1.613 . S
N773 C776 1.350 . S
N774 S772 1.610 . S
N774 C775 1.351 . S
C775 C769 1.428 . S
C775 N774 1.351 . S
C775 C776 1.434 . S
C776 C767 1.429 . S
C776 N773 1.350 . S
C776 C775 1.434 . S
C777 C778 1.369 . S
C777 C779 1.419 . S
C777 H781 0.930 . S
C778 C777 1.369 . S
C778 C787 1.429 . S
C779 C777 1.419 . S
C779 C780 1.363 . S
C779 H782 0.929 . S
C780 C779 1.363 . S
C780 C786 1.428 . S
H781 C777 0.930 . S
H782 C779 0.929 . S
S783 N784 1.613 . S
S783 N785 1.610 . S
N784 S783 1.613 . S
N784 C787 1.350 . S
N785 S783 1.610 . S
N785 C786 1.351 . S
C786 C780 1.428 . S
C786 N785 1.351 . S
C786 C787 1.434 . S
C787 C778 1.429 . S
C787 N784 1.350 . S
C787 C786 1.434 . S
C788 C789 1.369 . S
C788 C790 1.419 . S
C788 H792 0.930 . S
C789 C788 1.369 . S
C789 C798 1.429 . S
C790 C788 1.419 . S
C790 C791 1.363 . S
C790 H793 0.929 . S
C791 C790 1.363 . S
C791 C797 1.428 . S
H792 C788 0.930 . S
H793 C790 0.929 . S
S794 N795 1.613 . S
S794 N796 1.610 . S
N795 S794 1.613 . S
N795 C798 1.350 . S
N796 S794 1.610 . S
N796 C797 1.351 . S
C797 C791 1.428 . S
C797 N796 1.351 . S
C797 C798 1.434 . S
C798 C789 1.429 . S
C798 N795 1.350 . S
C798 C797 1.434 . S
C799 C800 1.369 . S
C799 C801 1.419 . S
C799 H803 0.930 . S
C800 C799 1.369 . S
C800 C809 1.429 . S
C801 C799 1.419 . S
C801 C802 1.363 . S
C801 H804 0.929 . S
C802 C801 1.363 . S
C802 C808 1.428 . S
H803 C799 0.930 . S
H804 C801 0.929 . S
S805 N806 1.613 . S
S805 N807 1.610 . S
N806 S805 1.613 . S
N806 C809 1.350 . S
N807 S805 1.610 . S
N807 C808 1.351 . S
C808 C802 1.428 . S
C808 N807 1.351 . S
C808 C809 1.434 . S
C809 C800 1.429 . S
C809 N806 1.350 . S
C809 C808 1.434 . S
C810 C811 1.369 . S
C810 C812 1.419 . S
C810 H814 0.930 . S
C811 C810 1.369 . S
C811 C820 1.429 . S
C812 C810 1.419 . S
C812 C813 1.363 . S
C812 H815 0.929 . S
C813 C812 1.363 . S
C813 C819 1.428 . S
H814 C810 0.930 . S
H815 C812 0.929 . S
S816 N817 1.613 . S
S816 N818 1.610 . S
N817 S816 1.613 . S
N817 C820 1.350 . S
N818 S816 1.610 . S
N818 C819 1.351 . S
C819 C813 1.428 . S
C819 N818 1.351 . S
C819 C820 1.434 . S
C820 C811 1.429 . S
C820 N817 1.350 . S
C820 C819 1.434 . S
C821 C822 1.369 . S
C821 C823 1.419 . S
C821 H825 0.930 . S
C822 C821 1.369 . S
C822 C831 1.429 . S
C823 C821 1.419 . S
C823 C824 1.363 . S
C823 H826 0.929 . S
C824 C823 1.363 . S
C824 C830 1.428 . S
H825 C821 0.930 . S
H826 C823 0.929 . S
S827 N828 1.613 . S
S827 N829 1.610 . S
N828 S827 1.613 . S
N828 C831 1.350 . S
N829 S827 1.610 . S
N829 C830 1.351 . S
C830 C824 1.428 . S
C830 N829 1.351 . S
C830 C831 1.434 . S
C831 C822 1.429 . S
C831 N828 1.350 . S
C831 C830 1.434 . S
C832 C833 1.369 . S
C832 C834 1.419 . S
C832 H836 0.930 . S
C833 C832 1.369 . S
C833 C842 1.429 . S
C834 C832 1.419 . S
C834 C835 1.363 . S
C834 H837 0.929 . S
C835 C834 1.363 . S
C835 C841 1.428 . S
H836 C832 0.930 . S
H837 C834 0.929 . S
S838 N839 1.613 . S
S838 N840 1.610 . S
N839 S838 1.613 . S
N839 C842 1.350 . S
N840 S838 1.610 . S
N840 C841 1.351 . S
C841 C835 1.428 . S
C841 N840 1.351 . S
C841 C842 1.434 . S
C842 C833 1.429 . S
C842 N839 1.350 . S
C842 C841 1.434 . S
C843 C844 1.369 . S
C843 C845 1.419 . S
C843 H847 0.930 . S
C844 C843 1.369 . S
C844 C853 1.429 . S
C845 C843 1.419 . S
C845 C846 1.363 . S
C845 H848 0.929 . S
C846 C845 1.363 . S
C846 C852 1.428 . S
H847 C843 0.930 . S
H848 C845 0.929 . S
S849 N850 1.613 . S
S849 N851 1.610 . S
N850 S849 1.613 . S
N850 C853 1.350 . S
N851 S849 1.610 . S
N851 C852 1.351 . S
C852 C846 1.428 . S
C852 N851 1.351 . S
C852 C853 1.434 . S
C853 C844 1.429 . S
C853 N850 1.350 . S
C853 C852 1.434 . S
C854 C855 1.369 . S
C854 C856 1.419 . S
C854 H858 0.930 . S
C855 C854 1.369 . S
C855 C864 1.429 . S
C856 C854 1.419 . S
C856 C857 1.363 . S
C856 H859 0.929 . S
C857 C856 1.363 . S
C857 C863 1.428 . S
H858 C854 0.930 . S
H859 C856 0.929 . S
S860 N861 1.613 . S
S860 N862 1.610 . S
N861 S860 1.613 . S
N861 C864 1.350 . S
N862 S860 1.610 . S
N862 C863 1.351 . S
C863 C857 1.428 . S
C863 N862 1.351 . S
C863 C864 1.434 . S
C864 C855 1.429 . S
C864 N861 1.350 . S
C864 C863 1.434 . S
C865 C866 1.369 . S
C865 C867 1.419 . S
C865 H869 0.930 . S
C866 C865 1.369 . S
C866 C875 1.429 . S
C867 C865 1.419 . S
C867 C868 1.363 . S
C867 H870 0.929 . S
C868 C867 1.363 . S
C868 C874 1.428 . S
H869 C865 0.930 . S
H870 C867 0.929 . S
S871 N872 1.613 . S
S871 N873 1.610 . S
N872 S871 1.613 . S
N872 C875 1.350 . S
N873 S871 1.610 . S
N873 C874 1.351 . S
C874 C868 1.428 . S
C874 N873 1.351 . S
C874 C875 1.434 . S
C875 C866 1.429 . S
C875 N872 1.350 . S
C875 C874 1.434 . S
C876 C877 1.369 . S
C876 C878 1.419 . S
C876 H880 0.930 . S
C877 C876 1.369 . S
C877 C886 1.429 . S
C878 C876 1.419 . S
C878 C879 1.363 . S
C878 H881 0.929 . S
C879 C878 1.363 . S
C879 C885 1.428 . S
H880 C876 0.930 . S
H881 C878 0.929 . S
S882 N883 1.613 . S
S882 N884 1.610 . S
N883 S882 1.613 . S
N883 C886 1.350 . S
N884 S882 1.610 . S
N884 C885 1.351 . S
C885 C879 1.428 . S
C885 N884 1.351 . S
C885 C886 1.434 . S
C886 C877 1.429 . S
C886 N883 1.350 . S
C886 C885 1.434 . S
C887 C888 1.369 . S
C887 C889 1.419 . S
C887 H891 0.930 . S
C888 C887 1.369 . S
C888 C897 1.429 . S
C889 C887 1.419 . S
C889 C890 1.363 . S
C889 H892 0.929 . S
C890 C889 1.363 . S
C890 C896 1.428 . S
H891 C887 0.930 . S
H892 C889 0.929 . S
S893 N894 1.613 . S
S893 N895 1.610 . S
N894 S893 1.613 . S
N894 C897 1.350 . S
N895 S893 1.610 . S
N895 C896 1.351 . S
C896 C890 1.428 . S
C896 N895 1.351 . S
C896 C897 1.434 . S
C897 C888 1.429 . S
C897 N894 1.350 . S
C897 C896 1.434 . S
C898 C899 1.369 . S
C898 C900 1.419 . S
C898 H902 0.930 . S
C899 C898 1.369 . S
C899 C908 1.429 . S
C900 C898 1.419 . S
C900 C901 1.363 . S
C900 H903 0.929 . S
C901 C900 1.363 . S
C901 C907 1.428 . S
H902 C898 0.930 . S
H903 C900 0.929 . S
S904 N905 1.613 . S
S904 N906 1.610 . S
N905 S904 1.613 . S
N905 C908 1.350 . S
N906 S904 1.610 . S
N906 C907 1.351 . S
C907 C901 1.428 . S
C907 N906 1.351 . S
C907 C908 1.434 . S
C908 C899 1.429 . S
C908 N905 1.350 . S
C908 C907 1.434 . S
C909 C910 1.369 . S
C909 C911 1.419 . S
C909 H913 0.930 . S
C910 C909 1.369 . S
C910 C919 1.429 . S
C911 C909 1.419 . S
C911 C912 1.363 . S
C911 H914 0.929 . S
C912 C911 1.363 . S
C912 C918 1.428 . S
H913 C909 0.930 . S
H914 C911 0.929 . S
S915 N916 1.613 . S
S915 N917 1.610 . S
N916 S915 1.613 . S
N916 C919 1.350 . S
N917 S915 1.610 . S
N917 C918 1.351 . S
C918 C912 1.428 . S
C918 N917 1.351 . S
C918 C919 1.434 . S
C919 C910 1.429 . S
C919 N916 1.350 . S
C919 C918 1.434 . S
C920 C921 1.369 . S
C920 C922 1.419 . S
C920 H924 0.930 . S
C921 C920 1.369 . S
C921 C930 1.429 . S
C922 C920 1.419 . S
C922 C923 1.363 . S
C922 H925 0.929 . S
C923 C922 1.363 . S
C923 C929 1.428 . S
H924 C920 0.930 . S
H925 C922 0.929 . S
S926 N927 1.613 . S
S926 N928 1.610 . S
N927 S926 1.613 . S
N927 C930 1.350 . S
N928 S926 1.610 . S
N928 C929 1.351 . S
C929 C923 1.428 . S
C929 N928 1.351 . S
C929 C930 1.434 . S
C930 C921 1.429 . S
C930 N927 1.350 . S
C930 C929 1.434 . S
C931 C932 1.369 . S
C931 C933 1.419 . S
C931 H935 0.930 . S
C932 C931 1.369 . S
C932 C941 1.429 . S
C933 C931 1.419 . S
C933 C934 1.363 . S
C933 H936 0.929 . S
C934 C933 1.363 . S
C934 C940 1.428 . S
H935 C931 0.930 . S
H936 C933 0.929 . S
S937 N938 1.613 . S
S937 N939 1.610 . S
N938 S937 1.613 . S
N938 C941 1.350 . S
N939 S937 1.610 . S
N939 C940 1.351 . S
C940 C934 1.428 . S
C940 N939 1.351 . S
C940 C941 1.434 . S
C941 C932 1.429 . S
C941 N938 1.350 . S
C941 C940 1.434 . S
C942 C943 1.369 . S
C942 C944 1.419 . S
C942 H946 0.930 . S
C943 C942 1.369 . S
C943 C952 1.429 . S
C944 C942 1.419 . S
C944 C945 1.363 . S
C944 H947 0.929 . S
C945 C944 1.363 . S
C945 C951 1.428 . S
H946 C942 0.930 . S
H947 C944 0.929 . S
S948 N949 1.613 . S
S948 N950 1.610 . S
N949 S948 1.613 . S
N949 C952 1.350 . S
N950 S948 1.610 . S
N950 C951 1.351 . S
C951 C945 1.428 . S
C951 N950 1.351 . S
C951 C952 1.434 . S
C952 C943 1.429 . S
C952 N949 1.350 . S
C952 C951 1.434 . S
C953 C954 1.369 . S
C953 C955 1.419 . S
C953 H957 0.930 . S
C954 C953 1.369 . S
C954 C963 1.429 . S
C955 C953 1.419 . S
C955 C956 1.363 . S
C955 H958 0.929 . S
C956 C955 1.363 . S
C956 C962 1.428 . S
H957 C953 0.930 . S
H958 C955 0.929 . S
S959 N960 1.613 . S
S959 N961 1.610 . S
N960 S959 1.613 . S
N960 C963 1.350 . S
N961 S959 1.610 . S
N961 C962 1.351 . S
C962 C956 1.428 . S
C962 N961 1.351 . S
C962 C963 1.434 . S
C963 C954 1.429 . S
C963 N960 1.350 . S
C963 C962 1.434 . S
C964 C965 1.369 . S
C964 C966 1.419 . S
C964 H968 0.930 . S
C965 C964 1.369 . S
C965 C974 1.429 . S
C966 C964 1.419 . S
C966 C967 1.363 . S
C966 H969 0.929 . S
C967 C966 1.363 . S
C967 C973 1.428 . S
H968 C964 0.930 . S
H969 C966 0.929 . S
S970 N971 1.613 . S
S970 N972 1.610 . S
N971 S970 1.613 . S
N971 C974 1.350 . S
N972 S970 1.610 . S
N972 C973 1.351 . S
C973 C967 1.428 . S
C973 N972 1.351 . S
C973 C974 1.434 . S
C974 C965 1.429 . S
C974 N971 1.350 . S
C974 C973 1.434 . S
C975 C976 1.369 . S
C975 C977 1.419 . S
C975 H979 0.930 . S
C976 C975 1.369 . S
C976 C985 1.429 . S
C977 C975 1.419 . S
C977 C978 1.363 . S
C977 H980 0.929 . S
C978 C977 1.363 . S
C978 C984 1.428 . S
H979 C975 0.930 . S
H980 C977 0.929 . S
S981 N982 1.613 . S
S981 N983 1.610 . S
N982 S981 1.613 . S
N982 C985 1.350 . S
N983 S981 1.610 . S
N983 C984 1.351 . S
C984 C978 1.428 . S
C984 N983 1.351 . S
C984 C985 1.434 . S
C985 C976 1.429 . S
C985 N982 1.350 . S
C985 C984 1.434 . S
C986 C987 1.369 . S
C986 C988 1.419 . S
C986 H990 0.930 . S
C987 C986 1.369 . S
C987 C996 1.429 . S
C988 C986 1.419 . S
C988 C989 1.363 . S
C988 H991 0.929 . S
C989 C988 1.363 . S
C989 C995 1.428 . S
H990 C986 0.930 . S
H991 C988 0.929 . S
S992 N993 1.613 . S
S992 N994 1.610 . S
N993 S992 1.613 . S
N993 C996 1.350 . S
N994 S992 1.610 . S
N994 C995 1.351 . S
C995 C989 1.428 . S
C995 N994 1.351 . S
C995 C996 1.434 . S
C996 C987 1.429 . S
C996 N993 1.350 . S
C996 C995 1.434 . S
C997 C998 1.369 . S
C997 C999 1.419 . S
C997 H1001 0.930 . S
C998 C997 1.369 . S
C998 C1007 1.429 . S
C999 C997 1.419 . S
C999 C1000 1.363 . S
C999 H1002 0.929 . S
C1000 C999 1.363 . S
C1000 C1006 1.428 . S
H1001 C997 0.930 . S
H1002 C999 0.929 . S
S1003 N1004 1.613 . S
S1003 N1005 1.610 . S
N1004 S1003 1.613 . S
N1004 C1007 1.350 . S
N1005 S1003 1.610 . S
N1005 C1006 1.351 . S
C1006 C1000 1.428 . S
C1006 N1005 1.351 . S
C1006 C1007 1.434 . S
C1007 C998 1.429 . S
C1007 N1004 1.350 . S
C1007 C1006 1.434 . S
C1008 C1009 1.369 . S
C1008 C1010 1.419 . S
C1008 H1012 0.930 . S
C1009 C1008 1.369 . S
C1009 C1018 1.429 . S
C1010 C1008 1.419 . S
C1010 C1011 1.363 . S
C1010 H1013 0.929 . S
C1011 C1010 1.363 . S
C1011 C1017 1.428 . S
H1012 C1008 0.930 . S
H1013 C1010 0.929 . S
S1014 N1015 1.613 1_556 S
S1014 N1016 1.610 . S
N1015 S1014 1.613 1_554 S
N1015 C1018 1.350 . S
N1016 S1014 1.610 . S
N1016 C1017 1.351 1_556 S
C1017 C1011 1.428 . S
C1017 N1016 1.351 1_554 S
C1017 C1018 1.434 . S
C1018 C1009 1.429 . S
C1018 N1015 1.350 . S
C1018 C1017 1.434 . S
C1019 C1020 1.369 . S
C1019 C1021 1.419 . S
C1019 H1023 0.930 . S
C1020 C1019 1.369 . S
C1020 C1029 1.429 . S
C1021 C1019 1.419 . S
C1021 C1022 1.363 . S
C1021 H1024 0.929 . S
C1022 C1021 1.363 . S
C1022 C1028 1.428 . S
H1023 C1019 0.930 . S
H1024 C1021 0.929 . S
S1025 N1026 1.613 . S
S1025 N1027 1.610 . S
N1026 S1025 1.613 . S
N1026 C1029 1.350 1_556 S
N1027 S1025 1.610 . S
N1027 C1028 1.351 1_556 S
C1028 C1022 1.428 . S
C1028 N1027 1.351 1_554 S
C1028 C1029 1.434 . S
C1029 C1020 1.429 . S
C1029 N1026 1.350 1_554 S
C1029 C1028 1.434 . S
C1030 C1031 1.369 . S
C1030 C1032 1.419 . S
C1030 H1034 0.930 . S
C1031 C1030 1.369 . S
C1031 C1040 1.429 . S
C1032 C1030 1.419 . S
C1032 C1033 1.363 . S
C1032 H1035 0.929 . S
C1033 C1032 1.363 . S
C1033 C1039 1.428 . S
H1034 C1030 0.930 . S
H1035 C1032 0.929 . S
S1036 N1037 1.613 . S
S1036 N1038 1.610 . S
N1037 S1036 1.613 . S
N1037 C1040 1.350 . S
N1038 S1036 1.610 . S
N1038 C1039 1.351 . S
C1039 C1033 1.428 . S
C1039 N1038 1.351 . S
C1039 C1040 1.434 . S
C1040 C1031 1.429 . S
C1040 N1037 1.350 . S
C1040 C1039 1.434 . S
C1041 C1042 1.369 . S
C1041 C1043 1.419 . S
C1041 H1045 0.930 . S
C1042 C1041 1.369 . S
C1042 C1051 1.429 . S
C1043 C1041 1.419 . S
C1043 C1044 1.363 . S
C1043 H1046 0.929 . S
C1044 C1043 1.363 . S
C1044 C1050 1.428 . S
H1045 C1041 0.930 . S
H1046 C1043 0.929 . S
S1047 N1048 1.613 . S
S1047 N1049 1.610 . S
N1048 S1047 1.613 . S
N1048 C1051 1.350 . S
N1049 S1047 1.610 . S
N1049 C1050 1.351 . S
C1050 C1044 1.428 . S
C1050 N1049 1.351 . S
C1050 C1051 1.434 . S
C1051 C1042 1.429 . S
C1051 N1048 1.350 . S
C1051 C1050 1.434 . S
C1052 C1053 1.369 . S
C1052 C1054 1.419 . S
C1052 H1056 0.930 . S
C1053 C1052 1.369 . S
C1053 C1062 1.429 . S
C1054 C1052 1.419 . S
C1054 C1055 1.363 . S
C1054 H1057 0.929 . S
C1055 C1054 1.363 . S
C1055 C1061 1.428 . S
H1056 C1052 0.930 . S
H1057 C1054 0.929 . S
S1058 N1059 1.613 . S
S1058 N1060 1.610 . S
N1059 S1058 1.613 . S
N1059 C1062 1.350 . S
N1060 S1058 1.610 . S
N1060 C1061 1.351 . S
C1061 C1055 1.428 . S
C1061 N1060 1.351 . S
C1061 C1062 1.434 . S
C1062 C1053 1.429 . S
C1062 N1059 1.350 . S
C1062 C1061 1.434 . S
C1063 C1064 1.369 . S
C1063 C1065 1.419 . S
C1063 H1067 0.930 . S
C1064 C1063 1.369 . S
C1064 C1073 1.429 . S
C1065 C1063 1.419 . S
C1065 C1066 1.363 . S
C1065 H1068 0.929 . S
C1066 C1065 1.363 . S
C1066 C1072 1.428 . S
H1067 C1063 0.930 . S
H1068 C1065 0.929 . S
S1069 N1070 1.613 . S
S1069 N1071 1.610 . S
N1070 S1069 1.613 . S
N1070 C1073 1.350 1_554 S
N1071 S1069 1.610 . S
N1071 C1072 1.351 1_554 S
C1072 C1066 1.428 . S
C1072 N1071 1.351 1_556 S
C1072 C1073 1.434 . S
C1073 C1064 1.429 . S
C1073 N1070 1.350 1_556 S
C1073 C1072 1.434 . S
C1074 C1075 1.369 . S
C1074 C1076 1.419 . S
C1074 H1078 0.930 . S
C1075 C1074 1.369 . S
C1075 C1084 1.429 . S
C1076 C1074 1.419 . S
C1076 C1077 1.363 . S
C1076 H1079 0.929 . S
C1077 C1076 1.363 . S
C1077 C1083 1.428 . S
H1078 C1074 0.930 . S
H1079 C1076 0.929 . S
S1080 N1081 1.613 . S
S1080 N1082 1.610 . S
N1081 S1080 1.613 . S
N1081 C1084 1.350 . S
N1082 S1080 1.610 . S
N1082 C1083 1.351 . S
C1083 C1077 1.428 . S
C1083 N1082 1.351 . S
C1083 C1084 1.434 . S
C1084 C1075 1.429 . S
C1084 N1081 1.350 . S
C1084 C1083 1.434 . S
C1085 C1086 1.369 . S
C1085 C1087 1.419 . S
C1085 H1089 0.930 . S
C1086 C1085 1.369 . S
C1086 C1095 1.429 . S
C1087 C1085 1.419 . S
C1087 C1088 1.363 . S
C1087 H1090 0.929 . S
C1088 C1087 1.363 . S
C1088 C1094 1.428 . S
H1089 C1085 0.930 . S
H1090 C1087 0.929 . S
S1091 N1092 1.613 . S
S1091 N1093 1.610 . S
N1092 S1091 1.613 . S
N1092 C1095 1.350 . S
N1093 S1091 1.610 . S
N1093 C1094 1.351 . S
C1094 C1088 1.428 . S
C1094 N1093 1.351 . S
C1094 C1095 1.434 . S
C1095 C1086 1.429 . S
C1095 N1092 1.350 . S
C1095 C1094 1.434 . S
C1096 C1097 1.369 . S
C1096 C1098 1.419 . S
C1096 H1100 0.930 . S
C1097 C1096 1.369 . S
C1097 C1106 1.429 . S
C1098 C1096 1.419 . S
C1098 C1099 1.363 . S
C1098 H1101 0.929 . S
C1099 C1098 1.363 . S
C1099 C1105 1.428 . S
H1100 C1096 0.930 . S
H1101 C1098 0.929 . S
S1102 N1103 1.613 . S
S1102 N1104 1.610 . S
N1103 S1102 1.613 . S
N1103 C1106 1.350 . S
N1104 S1102 1.610 . S
N1104 C1105 1.351 . S
C1105 C1099 1.428 . S
C1105 N1104 1.351 . S
C1105 C1106 1.434 . S
C1106 C1097 1.429 . S
C1106 N1103 1.350 . S
C1106 C1105 1.434 . S
C1107 C1108 1.369 . S
C1107 C1109 1.419 . S
C1107 H1111 0.930 . S
C1108 C1107 1.369 . S
C1108 C1117 1.429 . S
C1109 C1107 1.419 . S
C1109 C1110 1.363 . S
C1109 H1112 0.929 . S
C1110 C1109 1.363 . S
C1110 C1116 1.428 1_545 S
H1111 C1107 0.930 . S
H1112 C1109 0.929 . S
S1113 N1114 1.613 . S
S1113 N1115 1.610 . S
N1114 S1113 1.613 . S
N1114 C1117 1.350 1_565 S
N1115 S1113 1.610 . S
N1115 C1116 1.351 . S
C1116 C1110 1.428 1_565 S
C1116 N1115 1.351 . S
C1116 C1117 1.434 1_565 S
C1117 C1108 1.429 . S
C1117 N1114 1.350 1_545 S
C1117 C1116 1.434 1_545 S
C1118 C1119 1.369 . S
C1118 C1120 1.419 . S
C1118 H1122 0.930 1_655 S
C1119 C1118 1.369 . S
C1119 C1128 1.429 . S
C1120 C1118 1.419 . S
C1120 C1121 1.363 . S
C1120 H1123 0.929 . S
C1121 C1120 1.363 . S
C1121 C1127 1.428 . S
H1122 C1118 0.930 1_455 S
H1123 C1120 0.929 . S
S1124 N1125 1.613 . S
S1124 N1126 1.610 . S
N1125 S1124 1.613 . S
N1125 C1128 1.350 . S
N1126 S1124 1.610 . S
N1126 C1127 1.351 . S
C1127 C1121 1.428 . S
C1127 N1126 1.351 . S
C1127 C1128 1.434 . S
C1128 C1119 1.429 . S
C1128 N1125 1.350 . S
C1128 C1127 1.434 . S
C1129 C1130 1.369 . S
C1129 C1131 1.419 . S
C1129 H1133 0.930 . S
C1130 C1129 1.369 . S
C1130 C1139 1.429 . S
C1131 C1129 1.419 . S
C1131 C1132 1.363 . S
C1131 H1134 0.929 . S
C1132 C1131 1.363 . S
C1132 C1138 1.428 . S
H1133 C1129 0.930 . S
H1134 C1131 0.929 . S
S1135 N1136 1.613 . S
S1135 N1137 1.610 . S
N1136 S1135 1.613 . S
N1136 C1139 1.350 . S
N1137 S1135 1.610 . S
N1137 C1138 1.351 . S
C1138 C1132 1.428 . S
C1138 N1137 1.351 . S
C1138 C1139 1.434 . S
C1139 C1130 1.429 . S
C1139 N1136 1.350 . S
C1139 C1138 1.434 . S
C1140 C1141 1.369 . S
C1140 C1142 1.419 . S
C1140 H1144 0.930 . S
C1141 C1140 1.369 . S
C1141 C1150 1.429 . S
C1142 C1140 1.419 . S
C1142 C1143 1.363 . S
C1142 H1145 0.929 1_455 S
C1143 C1142 1.363 . S
C1143 C1149 1.428 . S
H1144 C1140 0.930 . S
H1145 C1142 0.929 1_655 S
S1146 N1147 1.613 . S
S1146 N1148 1.610 . S
N1147 S1146 1.613 . S
N1147 C1150 1.350 . S
N1148 S1146 1.610 . S
N1148 C1149 1.351 . S
C1149 C1143 1.428 . S
C1149 N1148 1.351 . S
C1149 C1150 1.434 . S
C1150 C1141 1.429 . S
C1150 N1147 1.350 . S
C1150 C1149 1.434 . S
C1151 C1152 1.369 . S
C1151 C1153 1.419 . S
C1151 H1155 0.930 . S
C1152 C1151 1.369 . S
C1152 C1161 1.429 . S
C1153 C1151 1.419 . S
C1153 C1154 1.363 . S
C1153 H1156 0.929 . S
C1154 C1153 1.363 . S
C1154 C1160 1.428 . S
H1155 C1151 0.930 . S
H1156 C1153 0.929 . S
S1157 N1158 1.613 . S
S1157 N1159 1.610 . S
N1158 S1157 1.613 . S
N1158 C1161 1.350 . S
N1159 S1157 1.610 . S
N1159 C1160 1.351 . S
C1160 C1154 1.428 . S
C1160 N1159 1.351 . S
C1160 C1161 1.434 . S
C1161 C1152 1.429 . S
C1161 N1158 1.350 . S
C1161 C1160 1.434 . S
C1162 C1163 1.369 . S
C1162 C1164 1.419 . S
C1162 H1166 0.930 . S
C1163 C1162 1.369 . S
C1163 C1172 1.429 . S
C1164 C1162 1.419 . S
C1164 C1165 1.363 . S
C1164 H1167 0.929 . S
C1165 C1164 1.363 . S
C1165 C1171 1.428 . S
H1166 C1162 0.930 . S
H1167 C1164 0.929 . S
S1168 N1169 1.613 . S
S1168 N1170 1.610 1_545 S
N1169 S1168 1.613 . S
N1169 C1172 1.350 1_545 S
N1170 S1168 1.610 1_565 S
N1170 C1171 1.351 . S
C1171 C1165 1.428 . S
C1171 N1170 1.351 . S
C1171 C1172 1.434 . S
C1172 C1163 1.429 . S
C1172 N1169 1.350 1_565 S
C1172 C1171 1.434 . S
C1173 C1174 1.369 . S
C1173 C1175 1.419 1_565 S
C1173 H1177 0.930 . S
C1174 C1173 1.369 . S
C1174 C1183 1.429 . S
C1175 C1173 1.419 1_545 S
C1175 C1176 1.363 . S
C1175 H1178 0.929 . S
C1176 C1175 1.363 . S
C1176 C1182 1.428 1_545 S
H1177 C1173 0.930 . S
H1178 C1175 0.929 . S
S1179 N1180 1.613 . S
S1179 N1181 1.610 . S
N1180 S1179 1.613 . S
N1180 C1183 1.350 . S
N1181 S1179 1.610 . S
N1181 C1182 1.351 . S
C1182 C1176 1.428 1_565 S
C1182 N1181 1.351 . S
C1182 C1183 1.434 . S
C1183 C1174 1.429 . S
C1183 N1180 1.350 . S
C1183 C1182 1.434 . S
C1184 C1185 1.369 1_455 S
C1184 C1186 1.419 . S
C1184 H1188 0.930 . S
C1185 C1184 1.369 1_655 S
C1185 C1194 1.429 . S
C1186 C1184 1.419 . S
C1186 C1187 1.363 . S
C1186 H1189 0.929 . S
C1187 C1186 1.363 . S
C1187 C1193 1.428 1_455 S
H1188 C1184 0.930 . S
H1189 C1186 0.929 . S
S1190 N1191 1.613 . S
S1190 N1192 1.610 . S
N1191 S1190 1.613 . S
N1191 C1194 1.350 . S
N1192 S1190 1.610 . S
N1192 C1193 1.351 . S
C1193 C1187 1.428 1_655 S
C1193 N1192 1.351 . S
C1193 C1194 1.434 . S
C1194 C1185 1.429 . S
C1194 N1191 1.350 . S
C1194 C1193 1.434 . S
C1195 C1196 1.369 . S
C1195 C1197 1.419 . S
C1195 H1199 0.930 . S
C1196 C1195 1.369 . S
C1196 C1205 1.429 . S
C1197 C1195 1.419 . S
C1197 C1198 1.363 . S
C1197 H1200 0.929 . S
C1198 C1197 1.363 . S
C1198 C1204 1.428 . S
H1199 C1195 0.930 . S
H1200 C1197 0.929 . S
S1201 N1202 1.613 . S
S1201 N1203 1.610 . S
N1202 S1201 1.613 . S
N1202 C1205 1.350 . S
N1203 S1201 1.610 . S
N1203 C1204 1.351 . S
C1204 C1198 1.428 . S
C1204 N1203 1.351 . S
C1204 C1205 1.434 . S
C1205 C1196 1.429 . S
C1205 N1202 1.350 . S
C1205 C1204 1.434 . S
C1206 C1207 1.369 1_655 S
C1206 C1208 1.419 . S
C1206 H1210 0.930 . S
C1207 C1206 1.369 1_455 S
C1207 C1216 1.429 . S
C1208 C1206 1.419 . S
C1208 C1209 1.363 . S
C1208 H1211 0.929 . S
C1209 C1208 1.363 . S
C1209 C1215 1.428 1_655 S
H1210 C1206 0.930 . S
H1211 C1208 0.929 . S
S1212 N1213 1.613 . S
S1212 N1214 1.610 . S
N1213 S1212 1.613 . S
N1213 C1216 1.350 . S
N1214 S1212 1.610 . S
N1214 C1215 1.351 . S
C1215 C1209 1.428 1_455 S
C1215 N1214 1.351 . S
C1215 C1216 1.434 . S
C1216 C1207 1.429 . S
C1216 N1213 1.350 . S
C1216 C1215 1.434 . S
C1217 C1218 1.369 . S
C1217 C1219 1.419 . S
C1217 H1221 0.930 . S
C1218 C1217 1.369 . S
C1218 C1227 1.429 . S
C1219 C1217 1.419 . S
C1219 C1220 1.363 . S
C1219 H1222 0.929 . S
C1220 C1219 1.363 . S
C1220 C1226 1.428 . S
H1221 C1217 0.930 . S
H1222 C1219 0.929 . S
S1223 N1224 1.613 . S
S1223 N1225 1.610 . S
N1224 S1223 1.613 . S
N1224 C1227 1.350 . S
N1225 S1223 1.610 . S
N1225 C1226 1.351 . S
C1226 C1220 1.428 . S
C1226 N1225 1.351 . S
C1226 C1227 1.434 . S
C1227 C1218 1.429 . S
C1227 N1224 1.350 . S
C1227 C1226 1.434 . S
C1228 C1229 1.369 1_545 S
C1228 C1230 1.419 . S
C1228 H1232 0.930 . S
C1229 C1228 1.369 1_565 S
C1229 C1238 1.429 . S
C1230 C1228 1.419 . S
C1230 C1231 1.363 . S
C1230 H1233 0.929 . S
C1231 C1230 1.363 . S
C1231 C1237 1.428 1_545 S
H1232 C1228 0.930 . S
H1233 C1230 0.929 . S
S1234 N1235 1.613 . S
S1234 N1236 1.610 . S
N1235 S1234 1.613 . S
N1235 C1238 1.350 . S
N1236 S1234 1.610 . S
N1236 C1237 1.351 . S
C1237 C1231 1.428 1_565 S
C1237 N1236 1.351 . S
C1237 C1238 1.434 . S
C1238 C1229 1.429 . S
C1238 N1235 1.350 . S
C1238 C1237 1.434 . S
C1239 C1240 1.369 . S
C1239 C1241 1.419 . S
C1239 H1243 0.930 . S
C1240 C1239 1.369 . S
C1240 C1249 1.429 1_554 S
C1241 C1239 1.419 . S
C1241 C1242 1.363 1_554 S
C1241 H1244 0.929 . S
C1242 C1241 1.363 1_556 S
C1242 C1248 1.428 . S
H1243 C1239 0.930 . S
H1244 C1241 0.929 . S
S1245 N1246 1.613 . S
S1245 N1247 1.610 . S
N1246 S1245 1.613 . S
N1246 C1249 1.350 . S
N1247 S1245 1.610 . S
N1247 C1248 1.351 . S
C1248 C1242 1.428 . S
C1248 N1247 1.351 . S
C1248 C1249 1.434 . S
C1249 C1240 1.429 1_556 S
C1249 N1246 1.350 . S
C1249 C1248 1.434 . S
C1250 C1251 1.369 . S
C1250 C1252 1.419 1_565 S
C1250 H1254 0.930 . S
C1251 C1250 1.369 . S
C1251 C1260 1.429 1_554 S
C1252 C1250 1.419 1_545 S
C1252 C1253 1.363 1_554 S
C1252 H1255 0.929 . S
C1253 C1252 1.363 1_556 S
C1253 C1259 1.428 . S
H1254 C1250 0.930 . S
H1255 C1252 0.929 . S
S1256 N1257 1.613 . S
S1256 N1258 1.610 1_565 S
N1257 S1256 1.613 . S
N1257 C1260 1.350 . S
N1258 S1256 1.610 1_545 S
N1258 C1259 1.351 . S
C1259 C1253 1.428 . S
C1259 N1258 1.351 . S
C1259 C1260 1.434 1_545 S
C1260 C1251 1.429 1_556 S
C1260 N1257 1.350 . S
C1260 C1259 1.434 1_565 S
C1261 C1262 1.369 . S
C1261 C1263 1.419 1_655 S
C1261 H1265 0.930 . S
C1262 C1261 1.369 . S
C1262 C1271 1.429 1_556 S
C1263 C1261 1.419 1_455 S
C1263 C1264 1.363 1_556 S
C1263 H1266 0.929 . S
C1264 C1263 1.363 1_554 S
C1264 C1270 1.428 . S
H1265 C1261 0.930 . S
H1266 C1263 0.929 . S
S1267 N1268 1.613 . S
S1267 N1269 1.610 1_655 S
N1268 S1267 1.613 . S
N1268 C1271 1.350 . S
N1269 S1267 1.610 1_455 S
N1269 C1270 1.351 . S
C1270 C1264 1.428 . S
C1270 N1269 1.351 . S
C1270 C1271 1.434 1_455 S
C1271 C1262 1.429 1_554 S
C1271 N1268 1.350 . S
C1271 C1270 1.434 1_655 S
C1272 C1273 1.369 . S
C1272 C1274 1.419 . S
C1272 H1276 0.930 . S
C1273 C1272 1.369 . S
C1273 C1282 1.429 1_556 S
C1274 C1272 1.419 . S
C1274 C1275 1.363 1_556 S
C1274 H1277 0.929 . S
C1275 C1274 1.363 1_554 S
C1275 C1281 1.428 . S
H1276 C1272 0.930 . S
H1277 C1274 0.929 . S
S1278 N1279 1.613 . S
S1278 N1280 1.610 . S
N1279 S1278 1.613 . S
N1279 C1282 1.350 . S
N1280 S1278 1.610 . S
N1280 C1281 1.351 . S
C1281 C1275 1.428 . S
C1281 N1280 1.351 . S
C1281 C1282 1.434 . S
C1282 C1273 1.429 1_554 S
C1282 N1279 1.350 . S
C1282 C1281 1.434 . S
C1283 C1284 1.369 1_556 S
C1283 C1285 1.419 1_565 S
C1283 H1287 0.930 . S
C1284 C1283 1.369 1_554 S
C1284 C1293 1.429 . S
C1285 C1283 1.419 1_545 S
C1285 C1286 1.363 . S
C1285 H1288 0.929 . S
C1286 C1285 1.363 . S
C1286 C1292 1.428 1_556 S
H1287 C1283 0.930 . S
H1288 C1285 0.929 . S
S1289 N1290 1.613 1_545 S
S1289 N1291 1.610 . S
N1290 S1289 1.613 1_565 S
N1290 C1293 1.350 . S
N1291 S1289 1.610 . S
N1291 C1292 1.351 . S
C1292 C1286 1.428 1_554 S
C1292 N1291 1.351 . S
C1292 C1293 1.434 1_545 S
C1293 C1284 1.429 . S
C1293 N1290 1.350 . S
C1293 C1292 1.434 1_565 S
C1294 C1295 1.369 . S
C1294 C1296 1.419 1_655 S
C1294 H1298 0.930 . S
C1295 C1294 1.369 . S
C1295 C1304 1.429 1_556 S
C1296 C1294 1.419 1_455 S
C1296 C1297 1.363 1_556 S
C1296 H1299 0.929 . S
C1297 C1296 1.363 1_554 S
C1297 C1303 1.428 . S
H1298 C1294 0.930 . S
H1299 C1296 0.929 . S
S1300 N1301 1.613 . S
S1300 N1302 1.610 1_655 S
N1301 S1300 1.613 . S
N1301 C1304 1.350 . S
N1302 S1300 1.610 1_455 S
N1302 C1303 1.351 . S
C1303 C1297 1.428 . S
C1303 N1302 1.351 . S
C1303 C1304 1.434 1_455 S
C1304 C1295 1.429 1_554 S
C1304 N1301 1.350 . S
C1304 C1303 1.434 1_655 S
C613 C17 1.694 . S
C615 C357 1.700 . S
C624 C51 1.693 . S
C626 C391 1.699 . S
C635 C85 1.703 . S
C637 C323 1.692 . S
C646 C119 1.692 . S
C648 C493 1.700 . S
C657 C153 1.693 . S
C659 C425 1.701 . S
C668 C459 1.700 . S
C670 C187 1.696 . S
C679 C561 1.554 . S
C681 C221 1.562 . S
C690 C255 1.564 . S
C692 C595 1.553 . S
C701 C289 1.552 . S
C703 C527 1.563 . S
C712 C1 2.176 . S
C714 C173 2.172 . S
C723 C103 2.171 . S
C725 C37 2.175 . S
C734 C139 2.175 . S
C736 C69 2.175 . S
C745 C35 1.676 . S
C747 C137 1.675 . S
C756 C171 1.668 . S
C758 C71 1.672 . S
C767 C105 1.668 . S
C769 C3 1.672 . S
C778 C375 2.130 . S
C780 C205 2.127 . S
C789 C309 2.126 . S
C791 C241 2.130 . S
C800 C341 2.130 . S
C802 C273 2.127 . S
C811 C239 1.619 . S
C813 C343 1.615 . S
C822 C275 1.626 . S
C824 C377 1.616 . S
C833 C307 1.617 . S
C835 C207 1.624 . S
C844 C581 2.127 . S
C846 C409 2.127 . S
C855 C445 2.124 . S
C857 C513 2.129 . S
C866 C479 2.124 . S
C868 C545 2.129 . S
C877 C547 1.618 . S
C879 C443 1.610 . S
C888 C579 1.617 . S
C890 C477 1.612 . S
C899 C511 1.618 . S
C901 C411 1.615 . S
C910 C15 1.407 . S
C912 C62 1.628 1_455 S
C921 C74 1.628 . S
C923 C56 1.406 . S
C932 C83 1.406 . S
C934 C6 1.628 1_565 S
C943 C117 1.413 . S
C945 C198 1.631 1_545 S
C954 C158 1.411 . S
C956 C108 1.630 1_655 S
C965 C192 1.408 . S
C967 C164 1.629 . S
C976 C266 1.633 . S
C978 C219 1.413 . S
C987 C260 1.407 . S
C989 C278 1.631 . S
C998 C210 1.631 . S
C1000 C287 1.409 . S
C1009 C328 1.399 . S
C1011 C380 1.612 . S
C1020 C334 1.611 . S
C1022 C355 1.396 . S
C1031 C389 1.403 . S
C1033 C346 1.613 . S
C1042 C470 1.614 . S
C1044 C423 1.402 . S
C1053 C504 1.610 . S
C1055 C464 1.389 . S
C1064 C414 1.613 . S
C1066 C498 1.401 . S
C1075 C606 1.635 . S
C1077 C532 1.418 . S
C1086 C538 1.630 . S
C1088 C559 1.409 . S
C1097 C600 1.423 . S
C1099 C550 1.634 . S
C1108 C22 0.830 . S
C1110 C525 0.829 . S
C1119 C566 0.825 . S
C1121 C49 0.824 . S
C1130 C593 0.830 . S
C1132 C90 0.829 . S
C1141 C124 0.824 . S
C1143 C226 0.824 . S
C1152 C253 0.830 . S
C1154 C151 0.829 . S
C1163 C294 0.825 . S
C1165 C185 0.826 . S
C1174 C142 1.211 . S
C1176 C300 1.211 . S
C1185 C232 1.209 . S
C1187 C176 1.209 . S
C1196 C130 1.209 . S
C1198 C244 1.209 . S
C1207 C572 1.209 . S
C1209 C96 1.209 . S
C1218 C28 1.209 . S
C1220 C584 1.209 . S
C1229 C516 1.209 . S
C1231 C40 1.209 . S
C1240 C430 0.842 . S
C1242 C321 0.845 . S
C1251 C457 0.839 . S
C1253 C362 0.843 . S
C1262 C396 0.836 . S
C1264 C491 0.840 . S
C1273 C368 1.210 . S
C1275 C482 1.211 . S
C1284 C436 1.212 . S
C1286 C402 1.209 . S
C1295 C312 1.207 . S
C1297 C448 1.210 . S
