# Generated by pormake.
# Topology wjq, (5)-cn, num edge types: 1
# Building blocks:
#     Node 0, Type 0, BuildingBlock: BEQFEK_clean_sbu_0, # of connection points: 5
#     Node 1, Type 0, BuildingBlock: BEQFEK_clean_sbu_0, # of connection points: 5
#     Node 2, Type 0, BuildingBlock: BEQFEK_clean_sbu_0, # of connection points: 5
#     Node 3, Type 0, BuildingBlock: BEQFEK_clean_sbu_0, # of connection points: 5
#     Node 4, Type 0, BuildingBlock: BEQFEK_clean_sbu_0, # of connection points: 5
#     Node 5, Type 0, BuildingBlock: BEQFEK_clean_sbu_0, # of connection points: 5
#     Node 6, Type 0, BuildingBlock: BEQFEK_clean_sbu_0, # of connection points: 5
#     Node 7, Type 0, BuildingBlock: BEQFEK_clean_sbu_0, # of connection points: 5
#     Node 8, Type 0, BuildingBlock: BEQFEK_clean_sbu_0, # of connection points: 5
#     Node 9, Type 0, BuildingBlock: BEQFEK_clean_sbu_0, # of connection points: 5
#     Node 10, Type 0, BuildingBlock: BEQFEK_clean_sbu_0, # of connection points: 5
#     Node 11, Type 0, BuildingBlock: BEQFEK_clean_sbu_0, # of connection points: 5
#     Edge 12, Type (0, 0), BuildingBlock: ZUJKAS_clean_linker_0, # of connection points: 2
#     Edge 13, Type (0, 0), BuildingBlock: ZUJKAS_clean_linker_0, # of connection points: 2
#     Edge 14, Type (0, 0), BuildingBlock: ZUJKAS_clean_linker_0, # of connection points: 2
#     Edge 15, Type (0, 0), BuildingBlock: ZUJKAS_clean_linker_0, # of connection points: 2
#     Edge 16, Type (0, 0), BuildingBlock: ZUJKAS_clean_linker_0, # of connection points: 2
#     Edge 17, Type (0, 0), BuildingBlock: ZUJKAS_clean_linker_0, # of connection points: 2
#     Edge 18, Type (0, 0), BuildingBlock: ZUJKAS_clean_linker_0, # of connection points: 2
#     Edge 19, Type (0, 0), BuildingBlock: ZUJKAS_clean_linker_0, # of connection points: 2
#     Edge 20, Type (0, 0), BuildingBlock: ZUJKAS_clean_linker_0, # of connection points: 2
#     Edge 21, Type (0, 0), BuildingBlock: ZUJKAS_clean_linker_0, # of connection points: 2
#     Edge 22, Type (0, 0), BuildingBlock: ZUJKAS_clean_linker_0, # of connection points: 2
#     Edge 23, Type (0, 0), BuildingBlock: ZUJKAS_clean_linker_0, # of connection points: 2
#     Edge 24, Type (0, 0), BuildingBlock: ZUJKAS_clean_linker_0, # of connection points: 2
#     Edge 25, Type (0, 0), BuildingBlock: ZUJKAS_clean_linker_0, # of connection points: 2
#     Edge 26, Type (0, 0), BuildingBlock: ZUJKAS_clean_linker_0, # of connection points: 2
#     Edge 27, Type (0, 0), BuildingBlock: ZUJKAS_clean_linker_0, # of connection points: 2
#     Edge 28, Type (0, 0), BuildingBlock: ZUJKAS_clean_linker_0, # of connection points: 2
#     Edge 29, Type (0, 0), BuildingBlock: ZUJKAS_clean_linker_0, # of connection points: 2
#     Edge 30, Type (0, 0), BuildingBlock: ZUJKAS_clean_linker_0, # of connection points: 2
#     Edge 31, Type (0, 0), BuildingBlock: ZUJKAS_clean_linker_0, # of connection points: 2
#     Edge 32, Type (0, 0), BuildingBlock: ZUJKAS_clean_linker_0, # of connection points: 2
#     Edge 33, Type (0, 0), BuildingBlock: ZUJKAS_clean_linker_0, # of connection points: 2
#     Edge 34, Type (0, 0), BuildingBlock: ZUJKAS_clean_linker_0, # of connection points: 2
#     Edge 35, Type (0, 0), BuildingBlock: ZUJKAS_clean_linker_0, # of connection points: 2
#     Edge 36, Type (0, 0), BuildingBlock: ZUJKAS_clean_linker_0, # of connection points: 2
#     Edge 37, Type (0, 0), BuildingBlock: ZUJKAS_clean_linker_0, # of connection points: 2
#     Edge 38, Type (0, 0), BuildingBlock: ZUJKAS_clean_linker_0, # of connection points: 2
#     Edge 39, Type (0, 0), BuildingBlock: ZUJKAS_clean_linker_0, # of connection points: 2
#     Edge 40, Type (0, 0), BuildingBlock: ZUJKAS_clean_linker_0, # of connection points: 2
#     Edge 41, Type (0, 0), BuildingBlock: ZUJKAS_clean_linker_0, # of connection points: 2
# Relax obj value: 0.357
# Max RMSD: 0.171
# Mean RMSD: 0.171
data_MOF--net-wjq--node1-BEQFEK_clean_sbu_0--edge1-ZUJKAS_clean_linker_0
_symmetry_space_group_name_H-M    P1
_symmetry_Int_Tables_number       1
_symmetry_cell_setting            triclinic
loop_
_symmetry_equiv_pos_as_xyz
'x, y, z'
_cell_length_a     43.13129
_cell_length_b     43.166623
_cell_length_c     97.899828
_cell_angle_alpha  90.003029
_cell_angle_beta   89.964253
_cell_angle_gamma 120.03687
loop_
_atom_site_label
_atom_site_type_symbol
_atom_site_fract_x
_atom_site_fract_y
_atom_site_fract_z
_atom_type_partial_charge
Co0 Co 0.22201 0.15209 0.07796 0.0
Co1 Co 0.29354 0.21514 0.06702 0.0
C2 C 0.22317 0.20928 0.05992 0.0
O3 O 0.20693 0.18095 0.06706 0.0
O4 O 0.25723 0.22635 0.05916 0.0
C5 C 0.16446 0.12663 0.09663 0.0
O6 O 0.17901 0.16078 0.09962 0.0
C7 C 0.34891 0.28974 0.06392 0.0
C8 C 0.39639 0.28626 0.05784 0.0
C9 C 0.38495 0.3105 0.06056 0.0
N10 N 0.33961 0.25509 0.06314 0.0
N11 N 0.36803 0.25311 0.05944 0.0
C12 C 0.32421 0.30215 0.06901 0.0
H13 H 0.30283 0.2812 0.07547 0.0
H14 H 0.33912 0.32722 0.075 0.0
H15 H 0.31133 0.30726 0.06016 0.0
C16 C 0.26202 0.17248 0.10398 0.0
N17 N 0.25881 0.17853 0.0907 0.0
N18 N 0.28879 0.20627 0.08644 0.0
C19 C 0.31172 0.21953 0.09715 0.0
C20 C 0.29521 0.19869 0.10868 0.0
C21 C 0.23672 0.13886 0.11148 0.0
H22 H 0.22271 0.11627 0.10426 0.0
H23 H 0.21682 0.14305 0.11712 0.0
H24 H 0.25125 0.13165 0.11904 0.0
O25 O 0.23763 0.12736 0.06532 0.0
O26 O 0.2882 0.17202 0.05682 0.0
H27 H 0.36498 0.24438 0.0892 0.0
H28 H 0.36208 0.25817 0.10641 0.0
C29 C 0.3489 0.25084 0.09626 0.0
H30 H 0.34794 0.27415 0.09205 0.0
H31 H 0.36817 0.22918 0.05817 0.0
O32 O 0.17865 0.1167 0.08753 0.0
C33 C 0.26447 0.13881 0.05733 0.0
Co34 Co 0.065 0.2226 0.41385 0.0
Co35 Co 0.07771 0.29438 0.40151 0.0
C36 C 0.01245 0.22254 0.39425 0.0
O37 O 0.02151 0.20587 0.40257 0.0
O38 O 0.0316 0.25639 0.39287 0.0
C39 C 0.0301 0.15809 0.42911 0.0
O40 O 0.00113 0.15952 0.42616 0.0
C41 C 0.05778 0.34935 0.39984 0.0
C42 C 0.10505 0.39469 0.39027 0.0
C43 C 0.07135 0.38467 0.39552 0.0
N44 N 0.08233 0.33961 0.3973 0.0
N45 N 0.11055 0.36677 0.39157 0.0
C46 C 0.02214 0.32442 0.40611 0.0
H47 H 0.01719 0.29668 0.40634 0.0
H48 H 0.02182 0.33249 0.41684 0.0
H49 H 0.0004 0.32514 0.40032 0.0
C50 C 0.08055 0.26313 0.4395 0.0
N51 N 0.07316 0.25971 0.42604 0.0
N52 N 0.08036 0.29084 0.42102 0.0
C53 C 0.09332 0.31536 0.43122 0.0
C54 C 0.09393 0.29851 0.44328 0.0
C55 C 0.07705 0.23346 0.44848 0.0
H56 H 0.09589 0.22466 0.44498 0.0
H57 H 0.04938 0.21056 0.44778 0.0
H58 H 0.08254 0.24166 0.45935 0.0
O59 O 0.10674 0.23836 0.40148 0.0
O60 O 0.11691 0.29003 0.39255 0.0
H61 H 0.12699 0.36328 0.41999 0.0
H62 H 0.12486 0.37017 0.43815 0.0
C63 C 0.10932 0.35476 0.4291 0.0
H64 H 0.08754 0.36079 0.42721 0.0
H65 H 0.13354 0.36628 0.38861 0.0
O66 O 0.0602 0.182 0.42452 0.0
C67 C 0.12455 0.26511 0.39362 0.0
Co68 Co 0.84156 0.06378 0.74636 0.0
Co69 Co 0.78291 0.07749 0.73422 0.0
C70 C 0.78595 0.01053 0.72754 0.0
O71 O 0.81255 0.02015 0.73546 0.0
O72 O 0.77143 0.02982 0.72621 0.0
C73 C 0.86563 0.02974 0.76486 0.0
O74 O 0.83124 0.00873 0.76715 0.0
C75 C 0.70888 0.06157 0.73251 0.0
C76 C 0.71329 0.10724 0.72073 0.0
C77 C 0.68876 0.07549 0.72702 0.0
N78 N 0.74362 0.08419 0.72973 0.0
N79 N 0.74612 0.1115 0.72272 0.0
C80 C 0.69534 0.02617 0.73945 0.0
H81 H 0.71638 0.01862 0.73984 0.0
H82 H 0.68753 0.02783 0.75009 0.0
H83 H 0.67134 0.00517 0.73406 0.0
C84 C 0.81973 0.08381 0.77208 0.0
N85 N 0.81498 0.07525 0.75869 0.0
N86 N 0.7903 0.08155 0.75373 0.0
C87 C 0.77864 0.09444 0.76393 0.0
C88 C 0.79645 0.09551 0.77593 0.0
C89 C 0.84987 0.08656 0.7806 0.0
H90 H 0.842 0.05996 0.785 0.0
H91 H 0.85627 0.10556 0.78921 0.0
H92 H 0.87428 0.09587 0.7743 0.0
O93 O 0.86835 0.104 0.73362 0.0
O94 O 0.8272 0.11459 0.72463 0.0
H95 H 0.7606 0.12506 0.7527 0.0
H96 H 0.75364 0.12424 0.77099 0.0
C97 C 0.75336 0.10832 0.76204 0.0
H98 H 0.72583 0.08547 0.76076 0.0
H99 H 0.77016 0.13278 0.71912 0.0
O100 O 0.87596 0.05517 0.75631 0.0
C101 C 0.8596 0.12148 0.72553 0.0
Co102 Co 0.77604 0.84301 0.07996 0.0
Co103 Co 0.70358 0.78667 0.06713 0.0
C104 C 0.77308 0.78832 0.06052 0.0
O105 O 0.79024 0.81397 0.06882 0.0
O106 O 0.73946 0.77501 0.05892 0.0
C107 C 0.83392 0.86465 0.09844 0.0
O108 O 0.82002 0.83005 0.10027 0.0
C109 C 0.64478 0.71325 0.06529 0.0
C110 C 0.60426 0.71803 0.05315 0.0
C111 C 0.61083 0.69337 0.05968 0.0
N112 N 0.65745 0.74796 0.06236 0.0
N113 N 0.63309 0.7507 0.05512 0.0
C114 C 0.66607 0.69951 0.07254 0.0
H115 H 0.69486 0.72008 0.07279 0.0
H116 H 0.65663 0.69274 0.08323 0.0
H117 H 0.66242 0.67488 0.06748 0.0
C118 C 0.73313 0.82054 0.10539 0.0
N119 N 0.73741 0.8162 0.092 0.0
N120 N 0.70629 0.79283 0.08671 0.0
C121 C 0.68111 0.7818 0.09667 0.0
C122 C 0.69754 0.79849 0.10887 0.0
C123 C 0.76091 0.84953 0.11421 0.0
H124 H 0.77646 0.87437 0.10819 0.0
H125 H 0.77928 0.84075 0.11824 0.0
H126 H 0.74869 0.85556 0.12305 0.0
O127 O 0.76354 0.87147 0.0676 0.0
O128 O 0.71183 0.83177 0.05805 0.0
H129 H 0.63389 0.76715 0.08487 0.0
H130 H 0.62598 0.75977 0.10308 0.0
C131 C 0.64173 0.75864 0.09433 0.0
H132 H 0.63525 0.73055 0.093 0.0
H133 H 0.63633 0.77479 0.05138 0.0
O134 O 0.81909 0.87604 0.09022 0.0
C135 C 0.73765 0.86385 0.05944 0.0
Co136 Co 0.92694 0.7778 0.41277 0.0
Co137 Co 0.91549 0.70612 0.40057 0.0
C138 C 0.98037 0.77673 0.39329 0.0
O139 O 0.96951 0.79303 0.40101 0.0
O140 O 0.96261 0.74274 0.39232 0.0
C141 C 0.96585 0.83428 0.43051 0.0
O142 O 0.98612 0.81954 0.43043 0.0
C143 C 0.93237 0.64936 0.39535 0.0
C144 C 0.87877 0.60109 0.39411 0.0
C145 C 0.91503 0.6123 0.39422 0.0
N146 N 0.90752 0.65936 0.3963 0.0
N147 N 0.87553 0.63044 0.39533 0.0
C148 C 0.9718 0.67536 0.39478 0.0
H149 H 0.97707 0.69574 0.38689 0.0
H150 H 0.98089 0.68917 0.40477 0.0
H151 H 0.98756 0.66248 0.39198 0.0
C152 C 0.91016 0.73673 0.43848 0.0
N153 N 0.91781 0.74038 0.42501 0.0
N154 N 0.91333 0.70999 0.42015 0.0
C155 C 0.90312 0.68614 0.43056 0.0
C156 C 0.90116 0.70254 0.4425 0.0
C157 C 0.90652 0.76353 0.44703 0.0
H158 H 0.89553 0.77731 0.44086 0.0
H159 H 0.93324 0.78355 0.451 0.0
H160 H 0.88866 0.75066 0.45593 0.0
O161 O 0.8849 0.76328 0.40094 0.0
O162 O 0.87726 0.71283 0.39162 0.0
H163 H 0.86807 0.63367 0.42291 0.0
H164 H 0.88827 0.63441 0.43914 0.0
C165 C 0.89294 0.64775 0.42905 0.0
H166 H 0.91451 0.64592 0.42361 0.0
H167 H 0.85146 0.6306 0.39598 0.0
O168 O 0.93755 0.82055 0.4233 0.0
C169 C 0.8683 0.73681 0.39285 0.0
Co170 Co 0.15351 0.93414 0.746 0.0
Co171 Co 0.21282 0.92119 0.73406 0.0
C172 C 0.20987 0.98753 0.72706 0.0
O173 O 0.18282 0.97745 0.7348 0.0
O174 O 0.22484 0.96864 0.72586 0.0
C175 C 0.13096 0.96883 0.76483 0.0
O176 O 0.16539 0.98826 0.76741 0.0
C177 C 0.28639 0.93796 0.73035 0.0
C178 C 0.28094 0.88647 0.72386 0.0
C179 C 0.30612 0.92183 0.72668 0.0
N180 N 0.25142 0.91341 0.72965 0.0
N181 N 0.24825 0.88269 0.72569 0.0
C182 C 0.30005 0.97506 0.7357 0.0
H183 H 0.27954 0.97599 0.74226 0.0
H184 H 0.32505 0.98418 0.74164 0.0
H185 H 0.30575 0.99358 0.72698 0.0
C186 C 0.17465 0.91392 0.77169 0.0
N187 N 0.17998 0.9229 0.75836 0.0
N188 N 0.20598 0.91837 0.75363 0.0
C189 C 0.21877 0.90727 0.76405 0.0
C190 C 0.19951 0.9045 0.77589 0.0
C191 C 0.14239 0.90792 0.77966 0.0
H192 H 0.11923 0.89984 0.77277 0.0
H193 H 0.1485 0.93293 0.78506 0.0
H194 H 0.13485 0.88662 0.78744 0.0
O195 O 0.12612 0.89299 0.73383 0.0
O196 O 0.16808 0.88372 0.72468 0.0
H197 H 0.23907 0.87559 0.7553 0.0
H198 H 0.25483 0.89094 0.77249 0.0
C199 C 0.24782 0.89818 0.76256 0.0
H200 H 0.27205 0.92151 0.75829 0.0
H201 H 0.22383 0.85908 0.72443 0.0
O202 O 0.11999 0.94401 0.75598 0.0
C203 C 0.1354 0.87582 0.72581 0.0
Co204 Co 0.84441 0.77326 0.6086 0.0
Co205 Co 0.78328 0.70191 0.62052 0.0
C206 C 0.78988 0.77333 0.62749 0.0
O207 O 0.81745 0.78984 0.61993 0.0
O208 O 0.77349 0.73929 0.62841 0.0
C209 C 0.87424 0.83725 0.59289 0.0
O210 O 0.8429 0.83469 0.59484 0.0
C211 C 0.70851 0.64792 0.62379 0.0
C212 C 0.71068 0.60076 0.63124 0.0
C213 C 0.68707 0.61254 0.62783 0.0
N214 N 0.74295 0.6566 0.62488 0.0
N215 N 0.74417 0.62837 0.62938 0.0
C216 C 0.69696 0.67255 0.61791 0.0
H217 H 0.71823 0.69271 0.61118 0.0
H218 H 0.67176 0.65732 0.61201 0.0
H219 H 0.69236 0.68695 0.62634 0.0
C220 C 0.81882 0.73367 0.58268 0.0
N221 N 0.8155 0.7365 0.59624 0.0
N222 N 0.79029 0.70564 0.60106 0.0
C223 C 0.77694 0.68197 0.5906 0.0
C224 C 0.79433 0.69919 0.57858 0.0
C225 C 0.84804 0.762 0.57409 0.0
H226 H 0.8742 0.77183 0.57923 0.0
H227 H 0.8431 0.78468 0.57283 0.0
H228 H 0.84953 0.75197 0.56382 0.0
O229 O 0.86983 0.75719 0.62088 0.0
O230 O 0.82668 0.70689 0.63009 0.0
H231 H 0.75812 0.63127 0.60031 0.0
H232 H 0.7454 0.62836 0.5825 0.0
C233 C 0.74953 0.64327 0.59219 0.0
H234 H 0.72376 0.64088 0.5954 0.0
H235 H 0.7678 0.62787 0.63106 0.0
O236 O 0.88071 0.81427 0.59821 0.0
C237 C 0.85967 0.7308 0.629 0.0
Co238 Co 0.06506 0.84396 0.94009 0.0
Co239 Co 0.08129 0.78754 0.95269 0.0
C240 C 0.01426 0.78909 0.96005 0.0
O241 O 0.02301 0.81516 0.95193 0.0
O242 O 0.03406 0.77513 0.96132 0.0
C243 C 0.02361 0.85943 0.92252 0.0
O244 O 0.00334 0.82443 0.92291 0.0
C245 C 0.0659 0.71485 0.9569 0.0
C246 C 0.1177 0.72111 0.96348 0.0
C247 C 0.08238 0.69559 0.96072 0.0
N248 N 0.09018 0.74989 0.95746 0.0
N249 N 0.12109 0.75357 0.96147 0.0
C250 C 0.02874 0.70066 0.9515 0.0
H251 H 0.02756 0.72081 0.94481 0.0
H252 H 0.01991 0.67555 0.94567 0.0
H253 H 0.01011 0.69499 0.96018 0.0
C254 C 0.08362 0.82086 0.9146 0.0
N255 N 0.07604 0.81678 0.92805 0.0
N256 N 0.08254 0.79234 0.93306 0.0
C257 C 0.09394 0.77955 0.92274 0.0
C258 C 0.09461 0.79701 0.91065 0.0
C259 C 0.08633 0.85115 0.90618 0.0
H260 H 0.0959 0.87546 0.91254 0.0
H261 H 0.05957 0.84351 0.90198 0.0
H262 H 0.10522 0.8577 0.89752 0.0
O263 O 0.10705 0.87365 0.95169 0.0
O264 O 0.11864 0.83367 0.96125 0.0
H265 H 0.12817 0.76276 0.93184 0.0
H266 H 0.11349 0.74566 0.91472 0.0
C267 C 0.10546 0.75238 0.92455 0.0
H268 H 0.08304 0.72761 0.92894 0.0
H269 H 0.14457 0.77816 0.96263 0.0
O270 O 0.05241 0.87445 0.92942 0.0
C271 C 0.12546 0.86591 0.95972 0.0
Co272 Co 0.22218 0.07131 0.27538 0.0
Co273 Co 0.29475 0.08477 0.28732 0.0
C274 C 0.22556 0.01919 0.29496 0.0
O275 O 0.20879 0.02951 0.28727 0.0
O276 O 0.25956 0.03742 0.29583 0.0
C277 C 0.16635 0.03024 0.25773 0.0
O278 O 0.18435 0.01311 0.25711 0.0
C279 C 0.3542 0.07076 0.28952 0.0
C280 C 0.39646 0.11975 0.29943 0.0
C281 C 0.38921 0.08692 0.29423 0.0
N282 N 0.34154 0.09319 0.29166 0.0
N283 N 0.36692 0.12244 0.2976 0.0
C284 C 0.3323 0.03373 0.28384 0.0
H285 H 0.30349 0.02531 0.28369 0.0
H286 H 0.34064 0.03299 0.2732 0.0
H287 H 0.33662 0.01456 0.28996 0.0
C288 C 0.26285 0.09014 0.24967 0.0
N289 N 0.25971 0.08178 0.26304 0.0
N290 N 0.29065 0.08739 0.26774 0.0
C291 C 0.31454 0.09922 0.25728 0.0
C292 C 0.2974 0.10075 0.24543 0.0
C293 C 0.23545 0.09413 0.24163 0.0
H294 H 0.22048 0.10264 0.24839 0.0
H295 H 0.21648 0.06813 0.23685 0.0
H296 H 0.24811 0.1143 0.23339 0.0
O297 O 0.23577 0.11324 0.28709 0.0
O298 O 0.28663 0.12196 0.29651 0.0
H299 H 0.36521 0.13073 0.26714 0.0
H300 H 0.36847 0.12235 0.24919 0.0
C301 C 0.35336 0.11081 0.25878 0.0
H302 H 0.35602 0.0874 0.26154 0.0
H303 H 0.36402 0.14414 0.30046 0.0
O304 O 0.17811 0.05799 0.26518 0.0
C305 C 0.26208 0.13017 0.29523 0.0
Co306 Co 0.15926 0.22545 0.60675 0.0
Co307 Co 0.21225 0.29827 0.6202 0.0
C308 C 0.213 0.22998 0.62694 0.0
O309 O 0.18843 0.21239 0.61829 0.0
O310 O 0.22483 0.2633 0.6287 0.0
C311 C 0.14258 0.16749 0.58926 0.0
O312 O 0.17747 0.18106 0.58962 0.0
C313 C 0.28461 0.35837 0.62243 0.0
C314 C 0.27818 0.39765 0.63474 0.0
C315 C 0.3036 0.39219 0.62821 0.0
N316 N 0.24969 0.34472 0.62527 0.0
N317 N 0.24593 0.36833 0.63261 0.0
C318 C 0.29937 0.33808 0.61511 0.0
H319 H 0.2795 0.30909 0.61486 0.0
H320 H 0.30571 0.34759 0.6044 0.0
H321 H 0.32441 0.34258 0.62009 0.0
C322 C 0.18288 0.26882 0.58158 0.0
N323 N 0.18627 0.26463 0.59504 0.0
N324 N 0.20777 0.29599 0.60057 0.0
C325 C 0.21823 0.32134 0.59072 0.0
C326 C 0.20332 0.30477 0.57832 0.0
C327 C 0.15609 0.24 0.57243 0.0
H328 H 0.13007 0.22476 0.57779 0.0
H329 H 0.1659 0.22147 0.56972 0.0
H330 H 0.15178 0.251 0.56284 0.0
O331 O 0.12863 0.23607 0.61875 0.0
O332 O 0.16587 0.28823 0.6286 0.0
H333 H 0.22894 0.36715 0.60275 0.0
H334 H 0.23697 0.37612 0.58462 0.0
C335 C 0.23893 0.36077 0.59333 0.0
H336 H 0.26753 0.3692 0.59486 0.0
H337 H 0.22146 0.36424 0.63631 0.0
O338 O 0.12858 0.1826 0.59595 0.0
C339 C 0.13442 0.26149 0.6269 0.0
Co340 Co 0.92686 0.15612 0.94137 0.0
Co341 Co 0.91584 0.21631 0.95372 0.0
C342 C 0.98086 0.20932 0.96055 0.0
O343 O 0.97033 0.18243 0.95269 0.0
O344 O 0.96284 0.22529 0.96169 0.0
C345 C 0.96082 0.12496 0.92631 0.0
O346 O 0.99027 0.155 0.92918 0.0
C347 C 0.93501 0.29122 0.95525 0.0
C348 C 0.89098 0.28933 0.96743 0.0
C349 C 0.92277 0.31267 0.96087 0.0
N350 N 0.91144 0.25691 0.95825 0.0
N351 N 0.88509 0.2559 0.96549 0.0
C352 C 0.96975 0.30304 0.948 0.0
H353 H 0.97632 0.2813 0.94779 0.0
H354 H 0.96756 0.31003 0.93728 0.0
H355 H 0.99167 0.32714 0.953 0.0
C356 C 0.91339 0.18264 0.91564 0.0
N357 N 0.91928 0.18554 0.92921 0.0
N358 N 0.91227 0.20963 0.93422 0.0
C359 C 0.90061 0.22214 0.9239 0.0
C360 C 0.90159 0.20584 0.91176 0.0
C361 C 0.91455 0.15485 0.90683 0.0
H362 H 0.89655 0.12793 0.91115 0.0
H363 H 0.94223 0.15943 0.90668 0.0
H364 H 0.90613 0.15547 0.89618 0.0
O365 O 0.88541 0.13055 0.95377 0.0
O366 O 0.87732 0.17286 0.96318 0.0
H367 H 0.86997 0.24 0.93529 0.0
H368 H 0.86929 0.2455 0.91693 0.0
C369 C 0.88603 0.24684 0.92577 0.0
H370 H 0.90859 0.27467 0.92667 0.0
H371 H 0.86338 0.23247 0.96928 0.0
O372 O 0.93098 0.11976 0.93079 0.0
C373 C 0.86877 0.14007 0.96197 0.0
Co374 Co 0.77004 0.92501 0.2753 0.0
Co375 Co 0.69862 0.91563 0.28686 0.0
C376 C 0.77127 0.98001 0.29391 0.0
O377 O 0.78774 0.96917 0.28623 0.0
O378 O 0.73718 0.96224 0.29494 0.0
C379 C 0.82902 0.91458 0.2703 0.0
O380 O 0.82304 0.90261 0.28292 0.0
C381 C 0.64557 0.9381 0.28904 0.0
C382 C 0.59821 0.89019 0.29732 0.0
C383 C 0.61037 0.92516 0.29317 0.0
N384 N 0.65377 0.91218 0.2908 0.0
N385 N 0.6254 0.88358 0.29576 0.0
C386 C 0.67059 0.97343 0.2826 0.0
H387 H 0.69054 0.97121 0.27614 0.0
H388 H 0.65559 0.98299 0.27634 0.0
H389 H 0.68528 0.99333 0.29075 0.0
C390 C 0.73216 0.91172 0.24933 0.0
N391 N 0.73431 0.91838 0.26281 0.0
N392 N 0.70301 0.91193 0.2674 0.0
C393 C 0.67952 0.90013 0.25685 0.0
C394 C 0.69729 0.89935 0.24503 0.0
C395 C 0.76273 0.91543 0.24084 0.0
H396 H 0.78735 0.94089 0.24339 0.0
H397 H 0.75723 0.91528 0.22976 0.0
H398 H 0.76743 0.89295 0.24315 0.0
O399 O 0.75164 0.88341 0.28771 0.0
O400 O 0.70121 0.87638 0.2967 0.0
H401 H 0.6253 0.87212 0.24903 0.0
H402 H 0.63562 0.90861 0.26063 0.0
C403 C 0.64021 0.88602 0.25841 0.0
H404 H 0.62988 0.86731 0.2672 0.0
H405 H 0.62455 0.85955 0.29802 0.0
O406 O 0.81015 0.92663 0.26519 0.0
C407 C 0.72489 0.86706 0.29565 0.0
H408 H 0.59699 0.64701 0.08098 0.0
H409 H 0.55888 0.5819 0.08082 0.0
H410 H 0.5299 0.586 0.03899 0.0
H411 H 0.56888 0.65123 0.03897 0.0
H412 H 0.48442 0.54062 0.07532 0.0
H413 H 0.56547 0.5128 0.03843 0.0
H414 H 0.58282 0.55516 0.04714 0.0
H415 H 0.55329 0.54492 0.0328 0.0
C416 C 0.58319 0.63404 0.07166 0.0
C417 C 0.58678 0.6541 0.05985 0.0
C418 C 0.56105 0.59687 0.07163 0.0
C419 C 0.54215 0.57911 0.05981 0.0
C420 C 0.54486 0.59915 0.04813 0.0
H421 H 0.36655 0.36033 0.0527 0.0
H422 H 0.40438 0.42543 0.05293 0.0
C423 C 0.56691 0.63637 0.04816 0.0
C424 C 0.51929 0.53964 0.05979 0.0
H425 H 0.50959 0.46359 0.04505 0.0
C426 C 0.48988 0.52373 0.06871 0.0
C427 C 0.52682 0.51774 0.05128 0.0
C428 C 0.55897 0.53338 0.04194 0.0
C429 C 0.46744 0.48643 0.0692 0.0
C430 C 0.47445 0.4646 0.06044 0.0
C431 C 0.50415 0.48047 0.05167 0.0
C432 C 0.45146 0.42514 0.06035 0.0
C433 C 0.43675 0.47064 0.07923 0.0
C434 C 0.46564 0.40339 0.06414 0.0
C435 C 0.44396 0.36614 0.06414 0.0
C436 C 0.40771 0.35 0.06038 0.0
C437 C 0.39388 0.37188 0.05622 0.0
C438 C 0.41555 0.40912 0.05624 0.0
H439 H 0.43994 0.49011 0.08731 0.0
H440 H 0.41138 0.46268 0.07372 0.0
H441 H 0.43437 0.44638 0.08418 0.0
H442 H 0.4934 0.41527 0.06722 0.0
H443 H 0.45546 0.34998 0.06728 0.0
H444 H 0.09196 0.44543 0.38077 0.0
H445 H 0.06678 0.48488 0.38103 0.0
H446 H 0.98738 0.41583 0.4103 0.0
H447 H 0.01446 0.37888 0.4113 0.0
H448 H 0.0062 0.47647 0.37372 0.0
H449 H 0.01985 0.5075 0.42884 0.0
H450 H 0.03969 0.48377 0.42103 0.0
H451 H 0.99329 0.46023 0.4262 0.0
C452 C 0.06938 0.43874 0.38742 0.0
C453 C 0.05497 0.40802 0.39576 0.0
C454 C 0.05486 0.46132 0.38748 0.0
C455 C 0.02537 0.45366 0.39581 0.0
C456 C 0.01064 0.4229 0.40401 0.0
H457 H 0.89056 0.54867 0.381 0.0
H458 H 0.91594 0.50907 0.38147 0.0
C459 C 0.02575 0.40088 0.40424 0.0
C460 C 0.00957 0.47738 0.39569 0.0
H461 H 0.98041 0.52113 0.41642 0.0
C462 C 0.00092 0.48655 0.38306 0.0
C463 C 0.00316 0.4911 0.40785 0.0
C464 C 0.01488 0.48546 0.42171 0.0
C465 C 0.98581 0.50872 0.38224 0.0
C466 C 0.97743 0.52065 0.39443 0.0
C467 C 0.98631 0.51165 0.40706 0.0
C468 C 0.96086 0.54371 0.39441 0.0
C469 C 0.98014 0.51991 0.36828 0.0
C470 C 0.97618 0.57523 0.40221 0.0
C471 C 0.96088 0.59704 0.40239 0.0
C472 C 0.93068 0.5886 0.39436 0.0
C473 C 0.91452 0.55642 0.38694 0.0
C474 C 0.92928 0.53401 0.38707 0.0
H475 H -0.0017 0.51849 0.36057 0.0
H476 H 0.95224 0.50148 0.36493 0.0
H477 H 0.98474 0.54762 0.36839 0.0
H478 H 7e-05 0.58303 0.40822 0.0
H479 H 0.97259 0.62032 0.40896 0.0
H480 H 0.64175 0.04124 0.74802 0.0
H481 H 0.57657 0.01383 0.74762 0.0
H482 H 0.58172 0.0491 0.70605 0.0
H483 H 0.64702 0.07575 0.70626 0.0
H484 H 0.53577 0.04744 0.74244 0.0
H485 H 0.50793 0.94056 0.70465 0.0
H486 H 0.55018 0.96491 0.7135 0.0
H487 H 0.54044 0.98507 0.69933 0.0
C488 C 0.629 0.04242 0.73869 0.0
C489 C 0.64939 0.05968 0.72703 0.0
C490 C 0.59178 0.02714 0.73853 0.0
C491 C 0.57431 0.02883 0.72672 0.0
C492 C 0.59465 0.04685 0.71517 0.0
H493 H 0.35737 0.98971 0.71902 0.0
H494 H 0.42234 0.01555 0.71942 0.0
C495 C 0.63191 0.06225 0.71534 0.0
C496 C 0.53483 0.01239 0.72661 0.0
H497 H 0.45885 0.9476 0.71121 0.0
C498 C 0.51891 0.02559 0.73564 0.0
C499 C 0.51297 0.9836 0.71782 0.0
C500 C 0.5286 0.9674 0.70834 0.0
C501 C 0.48164 0.01112 0.73596 0.0
C502 C 0.45986 0.983 0.72691 0.0
C503 C 0.47571 0.96938 0.71805 0.0
C504 C 0.42048 0.96724 0.72657 0.0
C505 C 0.46581 0.0257 0.7461 0.0
C506 C 0.39791 0.93124 0.73012 0.0
C507 C 0.36073 0.91649 0.73004 0.0
C508 C 0.34551 0.93751 0.72642 0.0
C509 C 0.36821 0.97323 0.72243 0.0
C510 C 0.40537 0.98798 0.72255 0.0
H511 H 0.48506 0.04122 0.75435 0.0
H512 H 0.45849 0.04377 0.74073 0.0
H513 H 0.44113 0.0037 0.7508 0.0
H514 H 0.4091 0.91471 0.73314 0.0
H515 H 0.3439 0.88879 0.73303 0.0
H516 H 0.6391 0.63399 0.63497 0.0
H517 H 0.57381 0.59777 0.63535 0.0
H518 H 0.58011 0.5053 0.62283 0.0
H519 H 0.64559 0.54157 0.62224 0.0
H520 H 0.52707 0.55894 0.61376 0.0
H521 H 0.51592 0.4707 0.657 0.0
H522 H 0.55661 0.51204 0.65328 0.0
H523 H 0.54484 0.47254 0.64342 0.0
C524 C 0.62666 0.60614 0.63205 0.0
C525 C 0.64749 0.59081 0.62827 0.0
C526 C 0.58932 0.58539 0.63241 0.0
C527 C 0.57216 0.54883 0.6292 0.0
C528 C 0.59286 0.53336 0.62553 0.0
H529 H 0.35085 0.40744 0.60708 0.0
H530 H 0.41583 0.44627 0.60756 0.0
C531 C 0.63022 0.55412 0.62516 0.0
C532 C 0.53256 0.52709 0.62946 0.0
H533 H 0.46253 0.45464 0.64466 0.0
C534 C 0.51291 0.53621 0.62054 0.0
C535 C 0.51421 0.49776 0.63845 0.0
C536 C 0.53389 0.48778 0.64868 0.0
C537 C 0.47535 0.51628 0.62017 0.0
C538 C 0.45707 0.48623 0.62884 0.0
C539 C 0.47667 0.47756 0.63796 0.0
C540 C 0.4176 0.46313 0.6285 0.0
C541 C 0.45555 0.52776 0.61061 0.0
C542 C 0.39707 0.45935 0.64017 0.0
C543 C 0.35991 0.4367 0.63998 0.0
C544 C 0.34277 0.41702 0.62818 0.0
C545 C 0.36335 0.42128 0.61646 0.0
C546 C 0.40045 0.44396 0.61664 0.0
H547 H 0.47246 0.55612 0.6074 0.0
H548 H 0.44779 0.51086 0.6013 0.0
H549 H 0.43077 0.52442 0.61545 0.0
H550 H 0.40983 0.47391 0.64943 0.0
H551 H 0.34467 0.43403 0.64914 0.0
H552 H 0.95807 0.3587 0.93969 0.0
H553 H 0.98757 0.42401 0.93987 0.0
H554 H 0.95374 0.42121 0.98153 0.0
H555 H 0.92496 0.35578 0.98154 0.0
H556 H 0.95598 0.46661 0.94496 0.0
H557 H 0.06285 0.49281 0.98254 0.0
H558 H 0.0374 0.45044 0.97386 0.0
H559 H 0.01819 0.46128 0.98807 0.0
C560 C 0.95765 0.37196 0.949 0.0
C561 C 0.94011 0.35218 0.96074 0.0
C562 C 0.97415 0.40928 0.94903 0.0
C563 C 0.97344 0.42744 0.9608 0.0
C564 C 0.95525 0.40772 0.97244 0.0
H565 H 0.01482 0.64438 0.96867 0.0
H566 H 0.98899 0.57949 0.96823 0.0
C567 C 0.93863 0.37039 0.9724 0.0
C568 C 0.99084 0.46697 0.96077 0.0
H569 H 0.05656 0.54246 0.97611 0.0
C570 C 0.97804 0.48323 0.95173 0.0
C571 C 0.01989 0.48854 0.9695 0.0
C572 C 0.03569 0.47251 0.97897 0.0
C573 C 0.99304 0.52054 0.95141 0.0
C574 C 0.02131 0.54202 0.96045 0.0
C575 C 0.03465 0.52584 0.96928 0.0
C576 C 0.03724 0.58138 0.96092 0.0
C577 C 0.97877 0.53672 0.9413 0.0
C578 C 0.07324 0.60394 0.95733 0.0
C579 C 0.08799 0.64111 0.95744 0.0
C580 C 0.06695 0.65627 0.96112 0.0
C581 C 0.03129 0.63357 0.96521 0.0
C582 C 0.01655 0.59646 0.96506 0.0
H583 H 0.96321 0.51766 0.93301 0.0
H584 H 0.96076 0.54413 0.94668 0.0
H585 H 0.00094 0.56136 0.93666 0.0
H586 H 0.08973 0.59277 0.95423 0.0
H587 H 0.11565 0.65795 0.95437 0.0
H588 H 0.63332 0.99588 0.2987 0.0
H589 H 0.59744 0.02525 0.29905 0.0
H590 H 0.50306 0.92508 0.28915 0.0
H591 H 0.53894 0.89556 0.28854 0.0
H592 H 0.55475 0.03003 0.27795 0.0
H593 H 0.47451 0.95942 0.32379 0.0
H594 H 0.51535 0.95989 0.31929 0.0
H595 H 0.47429 0.93043 0.31057 0.0
C596 C 0.60513 0.98021 0.29629 0.0
C597 C 0.58912 0.94351 0.29329 0.0
C598 C 0.58457 0.99698 0.29666 0.0
C599 C 0.54759 0.97728 0.29423 0.0
C600 C 0.5315 0.94066 0.29124 0.0
H601 H 0.40081 0.05106 0.2736 0.0
H602 H 0.44028 0.02569 0.2739 0.0
C603 C 0.55204 0.92388 0.29086 0.0
C604 C 0.52588 0.99511 0.29471 0.0
H605 H 0.45589 0.99448 0.31129 0.0
C606 C 0.53323 0.02241 0.28527 0.0
C607 C 0.49816 0.98539 0.3044 0.0
C608 C 0.49022 0.95741 0.31518 0.0
C609 C 0.51297 0.03966 0.28503 0.0
C610 C 0.48442 0.02903 0.29439 0.0
C611 C 0.47764 0.00236 0.30406 0.0
C612 C 0.46083 0.04481 0.29419 0.0
C613 C 0.52244 0.06929 0.27483 0.0
C614 C 0.45889 0.06351 0.30558 0.0
C615 C 0.43588 0.07758 0.30551 0.0
C616 C 0.414 0.0726 0.29414 0.0
C617 C 0.41633 0.05423 0.28269 0.0
C618 C 0.43939 0.04028 0.28275 0.0
H619 H 0.55021 0.08044 0.27093 0.0
H620 H 0.5039 0.05854 0.266 0.0
H621 H 0.5197 0.09132 0.27942 0.0
H622 H 0.47521 0.06724 0.31451 0.0
H623 H 0.43473 0.09181 0.31443 0.0
H624 H 0.1638 0.93687 0.95358 0.0
H625 H 0.20234 0.98602 0.96881 0.0
H626 H 0.18628 0.9101 1.00059 0.0
H627 H 0.14896 0.86075 0.98514 0.0
H628 H 0.1795 0.00152 0.99067 0.0
H629 H 0.28994 0.97924 1.0063 0.0
H630 H 0.26098 0.9559 0.99207 0.0
H631 H 0.24712 0.94032 1.00929 0.0
C632 C 0.16926 0.93063 0.9637 0.0
C633 C 0.15329 0.89496 0.96818 0.0
C634 C 0.1913 0.95876 0.97241 0.0
C635 C 0.19754 0.95193 0.98586 0.0
C636 C 0.18277 0.9162 0.99018 0.0
H637 H 0.23136 0.06632 0.05984 0.0
H638 H 0.22231 0.02306 0.04198 0.0
C639 C 0.1612 0.88795 0.98135 0.0
C640 C 0.21535 0.98203 0.99577 0.0
H641 H 0.27866 0.01766 0.02097 0.0
C642 C 0.20167 0.00538 0.99708 0.0
C643 C 0.24422 0.98716 1.00422 0.0
C644 C 0.26164 0.96452 1.0028 0.0
C645 C 0.21512 0.03276 1.00686 0.0
C646 C 0.24295 0.03697 0.01562 0.0
C647 C 0.25731 0.0143 0.0142 0.0
C648 C 0.25491 0.06299 0.027 0.0
C649 C 0.19864 0.05632 1.00814 0.0
C650 C 0.27732 0.09974 0.0246 0.0
C651 C 0.28276 0.12467 0.03484 0.0
C652 C 0.26543 0.1131 0.04754 0.0
C653 C 0.24489 0.07612 0.05014 0.0
C654 C 0.23979 0.05132 0.03997 0.0
H655 H 0.17595 0.04844 1.00097 0.0
H656 H 0.18886 0.05512 0.01873 0.0
H657 H 0.21926 0.08453 1.00603 0.0
H658 H 0.28905 0.10918 0.0146 0.0
H659 H 0.29861 0.15294 0.03251 0.0
H660 H 0.15858 0.22666 0.39682 0.0
H661 H 0.19445 0.21697 0.37982 0.0
H662 H 0.18701 0.29138 0.3526 0.0
H663 H 0.15137 0.3017 0.36962 0.0
H664 H 0.15561 0.20506 0.34636 0.0
H665 H 0.30007 0.29199 0.35895 0.0
H666 H 0.26761 0.27218 0.37254 0.0
H667 H 0.26777 0.30627 0.36207 0.0
C668 C 0.16531 0.2417 0.38736 0.0
C669 C 0.15187 0.26475 0.38453 0.0
C670 C 0.18594 0.23622 0.3777 0.0
C671 C 0.19342 0.25358 0.36503 0.0
C672 C 0.18177 0.27807 0.36241 0.0
H673 H 0.23519 0.1739 0.28959 0.0
H674 H 0.22353 0.20992 0.30582 0.0
C675 C 0.16143 0.28391 0.37215 0.0
C676 C 0.20829 0.24174 0.3539 0.0
H677 H 0.2857 0.24971 0.3412 0.0
C678 C 0.18407 0.21505 0.34509 0.0
C679 C 0.2453 0.25447 0.35254 0.0
C680 C 0.27196 0.2829 0.36197 0.0
C681 C 0.19577 0.20005 0.33506 0.0
C682 C 0.23298 0.21304 0.33349 0.0
C683 C 0.25729 0.24004 0.34229 0.0
C684 C 0.2466 0.19753 0.32314 0.0
C685 C 0.16792 0.16929 0.32668 0.0
C686 C 0.26606 0.18099 0.32723 0.0
C687 C 0.27367 0.16117 0.31786 0.0
C688 C 0.26153 0.15727 0.3043 0.0
C689 C 0.24443 0.17605 0.30002 0.0
C690 C 0.23753 0.19643 0.30931 0.0
H691 H 0.14122 0.15631 0.3317 0.0
H692 H 0.16518 0.17948 0.31662 0.0
H693 H 0.17567 0.14865 0.32494 0.0
H694 H 0.2736 0.18172 0.33783 0.0
H695 H 0.28686 0.14694 0.32144 0.0
H696 H 0.06296 0.21808 0.62226 0.0
H697 H 0.0137 0.20449 0.6379 0.0
H698 H 0.0881 0.28132 0.6667 0.0
H699 H 0.13755 0.29577 0.65091 0.0
H700 H 0.00902 0.17495 0.66222 0.0
H701 H 0.00545 0.30037 0.66962 0.0
H702 H 0.02925 0.29426 0.65564 0.0
H703 H 0.04905 0.30583 0.67238 0.0
C704 C 0.0688 0.23272 0.63179 0.0
C705 C 0.10425 0.25784 0.63538 0.0
C706 C 0.04056 0.22494 0.64071 0.0
C707 C 0.04707 0.24197 0.65346 0.0
C708 C 0.08223 0.26835 0.65681 0.0
H709 H 0.93193 0.14996 0.7273 0.0
H710 H 0.97656 0.18343 0.70977 0.0
C711 C 0.11054 0.27644 0.6478 0.0
C712 C 0.01799 0.22862 0.66383 0.0
H713 H 0.97349 0.25376 0.68614 0.0
C714 C 0.00103 0.19219 0.6673 0.0
C715 C 0.00744 0.25103 0.67048 0.0
C716 C 0.02349 0.28998 0.66676 0.0
C717 C 0.97454 0.17775 0.67743 0.0
C718 C 0.96501 0.20037 0.68444 0.0
C719 C 0.98114 0.23661 0.68079 0.0
C720 C 0.93917 0.1864 0.6959 0.0
C721 C 0.95713 0.13835 0.68068 0.0
C722 C 0.9036 0.17826 0.6941 0.0
C723 C 0.87782 0.15902 0.70415 0.0
C724 C 0.88732 0.14755 0.71608 0.0
C725 C 0.92355 0.15799 0.71818 0.0
C726 C 0.94918 0.17723 0.70819 0.0
H727 H 0.96245 0.12338 0.67267 0.0
H728 H 0.96782 0.13486 0.69051 0.0
H729 H 0.92771 0.12642 0.68182 0.0
H730 H 0.89543 0.1851 0.68464 0.0
H731 H 0.85019 0.15145 0.70221 0.0
H732 H 0.70934 0.85797 0.03389 0.0
H733 H 0.72258 0.90694 0.01797 0.0
H734 H 0.78298 0.98383 0.04936 0.0
H735 H 0.77115 0.93516 0.06509 0.0
H736 H 0.71361 0.9653 0.0166 0.0
H737 H 0.85819 0.00913 0.02046 0.0
H738 H 0.82393 0.96768 0.02775 0.0
H739 H 0.83856 0.00932 0.03658 0.0
C740 C 0.72496 0.88533 0.03745 0.0
C741 C 0.73971 0.89276 0.05066 0.0
C742 C 0.73253 0.91329 0.02834 0.0
C743 C 0.75464 0.94908 0.03235 0.0
C744 C 0.76683 0.95646 0.0459 0.0
H745 H 0.84671 0.15025 0.98702 0.0
H746 H 0.81311 0.10413 1.00428 0.0
C747 C 0.75986 0.9286 0.05491 0.0
C748 C 0.7672 0.97847 0.02215 0.0
H749 H 0.84309 0.04587 1.00753 0.0
C750 C 0.74191 0.98297 0.01465 0.0
C751 C 0.80419 0.0013 0.01945 0.0
C752 C 0.83278 0.99646 0.02637 0.0
C753 C 0.75273 0.00984 1.00463 0.0
C754 C 0.78959 0.03277 1.00216 0.0
C755 C 0.81482 0.02847 1.00966 0.0
C756 C 0.80299 0.05981 0.99113 0.0
C757 C 0.72497 0.01354 0.9966 0.0
C758 C 0.80762 0.04995 0.97798 0.0
C759 C 0.82703 0.07612 0.96818 0.0
C760 C 0.8421 0.11267 0.97133 0.0
C761 C 0.83528 0.12235 0.98424 0.0
C762 C 0.81614 0.09607 0.99412 0.0
H763 H 0.69736 0.99523 1.00035 0.0
H764 H 0.73048 0.04154 0.99719 0.0
H765 H 0.7266 0.00754 0.98568 0.0
H766 H 0.79789 0.02209 0.97555 0.0
H767 H 0.83167 0.06776 0.95832 0.0
H768 H 0.70384 0.85411 0.32237 0.0
H769 H 0.7175 0.81945 0.33868 0.0
H770 H 0.75772 0.78292 0.30577 0.0
H771 H 0.74589 0.81894 0.28961 0.0
H772 H 0.70294 0.75128 0.34316 0.0
H773 H 0.8458 0.83668 0.32876 0.0
H774 H 0.81148 0.84555 0.32282 0.0
H775 H 0.81808 0.81194 0.31462 0.0
C776 C 0.7148 0.83799 0.3186 0.0
C777 C 0.72427 0.83953 0.30478 0.0
C778 C 0.72269 0.81827 0.32792 0.0
C779 C 0.73971 0.7995 0.32351 0.0
C780 C 0.74572 0.79815 0.30948 0.0
H781 H 0.84437 0.70229 0.36834 0.0
H782 H 0.80726 0.71109 0.35157 0.0
C783 C 0.73866 0.81847 0.30024 0.0
C784 C 0.75425 0.78435 0.33362 0.0
H785 H 0.83229 0.78972 0.34423 0.0
C786 C 0.73118 0.75959 0.34337 0.0
C787 C 0.79128 0.79557 0.33402 0.0
C788 C 0.81816 0.82415 0.3246 0.0
C789 C 0.74418 0.74568 0.35342 0.0
C790 C 0.781 0.75663 0.35364 0.0
C791 C 0.80394 0.78099 0.34385 0.0
C792 C 0.79723 0.74565 0.36455 0.0
C793 C 0.71873 0.71954 0.36381 0.0
C794 C 0.8033 0.76172 0.37746 0.0
C795 C 0.82485 0.75718 0.38697 0.0
C796 C 0.84054 0.73629 0.38378 0.0
C797 C 0.83255 0.71839 0.37114 0.0
C798 C 0.81137 0.72338 0.36155 0.0
H799 H 0.69029 0.70954 0.36105 0.0
H800 H 0.72317 0.69643 0.36485 0.0
H801 H 0.72398 0.73291 0.37391 0.0
H802 H 0.79299 0.77937 0.37989 0.0
H803 H 0.83037 0.77122 0.39663 0.0
H804 H 0.14241 0.85867 0.69951 0.0
H805 H 0.09363 0.82202 0.68361 0.0
H806 H 0.01703 0.79334 0.71634 0.0
H807 H 0.06535 0.83123 0.73204 0.0
H808 H 0.0395 0.75333 0.68094 0.0
H809 H 0.9831 0.84204 0.69049 0.0
H810 H 0.02624 0.85198 0.69692 0.0
H811 H 0.98591 0.82047 0.7057 0.0
C812 C 0.11521 0.84401 0.70334 0.0
C813 C 0.10755 0.84821 0.71694 0.0
C814 C 0.08735 0.82312 0.69425 0.0
C815 C 0.05153 0.8058 0.69868 0.0
C816 C 0.0443 0.80741 0.71257 0.0
H817 H 0.84875 0.70002 0.65432 0.0
H818 H 0.89475 0.71144 0.67147 0.0
C819 C 0.07195 0.82886 0.72156 0.0
C820 C 0.02171 0.78858 0.68867 0.0
H821 H 0.94897 0.7916 0.67653 0.0
C822 C 0.01966 0.76163 0.68 0.0
C823 C 0.99599 0.79971 0.68731 0.0
C824 C 0.99805 0.83037 0.69549 0.0
C825 C 0.99249 0.74547 0.6701 0.0
C826 C 0.96672 0.75637 0.66894 0.0
C827 C 0.96851 0.78293 0.67765 0.0
C828 C 0.93938 0.7431 0.658 0.0
C829 C 0.99144 0.71702 0.66087 0.0
C830 C 0.94936 0.75654 0.64471 0.0
C831 C 0.92325 0.75051 0.63498 0.0
C832 C 0.88664 0.73071 0.63834 0.0
C833 C 0.8767 0.71516 0.65139 0.0
C834 C 0.90291 0.72169 0.6612 0.0
H835 H 0.00988 0.70767 0.66438 0.0
H836 H 0.9638 0.69378 0.66033 0.0
H837 H -0.00064 0.72799 0.65039 0.0
H838 H 0.97737 0.77349 0.6421 0.0
H839 H 0.93176 0.76276 0.625 0.0
H840 H 0.11598 0.06032 0.08793 0.0
H841 H 0.06244 0.01593 0.0997 0.0
H842 H 0.08928 0.08628 0.13451 0.0
H843 H 0.14243 0.13192 0.12233 0.0
H844 H 0.0508 0.97974 0.12317 0.0
H845 H 0.99064 0.06779 0.12654 0.0
H846 H 0.03081 0.08113 0.1168 0.0
H847 H 0.03228 0.0814 0.13515 0.0
C848 C 0.11052 0.06637 0.09809 0.0
C849 C 0.13295 0.09966 0.10415 0.0
C850 C 0.08004 0.04089 0.10487 0.0
C851 C 0.07162 0.04786 0.11796 0.0
C852 C 0.0948 0.08061 0.12431 0.0
H853 H 0.86035 0.85434 0.12241 0.0
H854 H 0.91547 0.89774 0.1342 0.0
C855 C 0.12509 0.10659 0.11736 0.0
C856 C 0.03703 0.02118 0.12409 0.0
H857 H 0.95205 0.0064 0.12731 0.0
C858 C 0.02917 0.98546 0.12447 0.0
C859 C 0.00919 0.02897 0.12619 0.0
C860 C 0.01588 0.06682 0.12613 0.0
C861 C 0.99369 0.95715 0.12448 0.0
C862 C 0.96561 0.96511 0.12475 0.0
C863 C 0.97377 0.0006 0.12682 0.0
C864 C 0.92976 0.93968 0.11922 0.0
C865 C 0.98677 0.91951 0.12255 0.0
C866 C 0.91876 0.94934 0.10724 0.0
C867 C 0.88722 0.92511 0.10073 0.0
C868 C 0.8662 0.89041 0.10591 0.0
C869 C 0.87651 0.88083 0.1181 0.0
C870 C 0.90794 0.90552 0.12482 0.0
H871 H 0.01192 0.91861 0.12132 0.0
H872 H 0.97231 0.90305 0.13157 0.0
H873 H 0.96985 0.90712 0.11339 0.0
H874 H 0.93525 0.97544 0.10264 0.0
H875 H 0.87991 0.93325 0.09136 0.0
H876 H 0.97116 0.09416 0.43518 0.0
H877 H 0.96966 0.04408 0.44722 0.0
H878 H 0.0828 0.1083 0.45567 0.0
H879 H 0.0847 0.15813 0.44312 0.0
H880 H 0.07005 0.0516 0.44289 0.0
H881 H 0.9712 0.00701 0.4842 0.0
H882 H 0.95109 0.01363 0.46933 0.0
H883 H 0.99008 0.05119 0.47681 0.0
C884 C 0.99553 0.09785 0.43987 0.0
C885 C 0.02814 0.12969 0.438 0.0
C886 C 0.99457 0.06938 0.44696 0.0
C887 C 0.02604 0.07256 0.45257 0.0
C888 C 0.05817 0.10532 0.45152 0.0
H889 H 0.02251 0.86834 0.44806 0.0
H890 H 0.0423 0.92544 0.45974 0.0
C891 C 0.05926 0.13361 0.44423 0.0
C892 C 0.0265 0.03982 0.45667 0.0
H893 H 0.97151 0.95787 0.4706 0.0
C894 C 0.04948 0.03151 0.44942 0.0
C895 C 0.00013 0.01382 0.46535 0.0
C896 C 0.97708 0.02217 0.47446 0.0
C897 C 0.04342 0.99653 0.44903 0.0
C898 C 0.01385 0.96943 0.45625 0.0
C899 C 0.99384 0.97867 0.46492 0.0
C900 C -0.00146 0.93164 0.45226 0.0
C901 C 0.06613 0.98819 0.43966 0.0
C902 C 0.96652 0.91559 0.44478 0.0
C903 C 0.95515 0.88316 0.43815 0.0
C904 C 0.97572 0.86628 0.43885 0.0
C905 C 0.00647 0.88111 0.44715 0.0
C906 C 0.01774 0.91359 0.45387 0.0
H907 H 0.08652 0.0122 0.43406 0.0
H908 H 0.08032 0.97739 0.44572 0.0
H909 H 0.04898 0.9676 0.43206 0.0
H910 H 0.95139 0.92922 0.44339 0.0
H911 H 0.93109 0.87217 0.43199 0.0
H912 H 0.93344 0.05114 0.75699 0.0
H913 H 0.97767 0.04203 0.76884 0.0
H914 H 0.90385 0.99126 0.80227 0.0
H915 H 0.85841 -0.00122 0.78997 0.0
H916 H 0.01123 0.06336 0.79297 0.0
H917 H 0.92593 0.91447 0.7927 0.0
H918 H 0.91248 0.94194 0.7835 0.0
H919 H 0.91058 0.94034 0.80185 0.0
C920 C 0.92659 0.03806 0.76687 0.0
C921 C 0.89241 0.02515 0.77248 0.0
C922 C 0.95198 0.03309 0.77371 0.0
C923 C 0.94402 0.01567 0.78641 0.0
C924 C 0.91033 0.00406 0.79236 0.0
H925 H 0.13943 0.00127 0.78972 0.0
H926 H 0.09496 0.01047 0.802 0.0
C927 C 0.88446 0.00837 0.78533 0.0
C928 C 0.97071 0.0077 0.79246 0.0
H929 H 0.98752 0.93862 0.79362 0.0
C930 C 0.00612 0.03609 0.79354 0.0
C931 C 0.96369 0.97208 0.79362 0.0
C932 C 0.9262 0.94034 0.79284 0.0
C933 C 0.03505 0.02987 0.79324 0.0
C934 C 0.02797 0.9942 0.79245 0.0
C935 C 0.99263 0.96591 0.79391 0.0
C936 C 0.05428 0.98576 0.78636 0.0
C937 C 0.07252 0.06148 0.79206 0.0
C938 C 0.04574 0.96783 0.77376 0.0
C939 C 0.0706 0.96202 0.76692 0.0
C940 C 0.1048 0.9745 0.77243 0.0
C941 C 0.11335 0.99191 0.78517 0.0
C942 C 0.08804 0.99718 0.79218 0.0
H943 H 0.07286 0.08739 0.7918 0.0
H944 H 0.08867 0.06188 0.80094 0.0
H945 H 0.08562 0.0593 0.78263 0.0
H946 H 0.01999 0.95907 0.76899 0.0
H947 H 0.06326 0.94851 0.75713 0.0
H948 H 0.87869 0.90059 0.58613 0.0
H949 H 0.92896 0.95182 0.57515 0.0
H950 H 0.98181 0.89027 0.56935 0.0
H951 H 0.93211 0.83931 0.58079 0.0
H952 H 0.02214 0.94779 0.58295 0.0
H953 H 0.97313 0.98857 0.5386 0.0
H954 H 0.94439 0.98185 0.55285 0.0
H955 H 0.9476 0.9446 0.54614 0.0
C956 C 0.90066 0.89775 0.58224 0.0
C957 C 0.90187 0.86631 0.58453 0.0
C958 C 0.92919 0.92689 0.57577 0.0
C959 C 0.95898 0.92475 0.57123 0.0
C960 C 0.95902 0.89244 0.5727 0.0
H961 H 0.16316 0.12751 0.57406 0.0
H962 H 0.12392 0.06835 0.56411 0.0
C963 C 0.93076 0.86349 0.57934 0.0
C964 C 0.99243 0.95795 0.56765 0.0
H965 H 0.02197 0.03815 0.55175 0.0
C966 C 0.02266 0.96714 0.57575 0.0
C967 C 0.99323 0.98302 0.55817 0.0
C968 C 0.96288 0.97373 0.54836 0.0
C969 C 0.05189 0.00201 0.57584 0.0
C970 C 0.05093 0.02816 0.56743 0.0
C971 C 0.02243 0.01806 0.55827 0.0
C972 C 0.07483 0.06655 0.57022 0.0
C973 C 0.08177 0.01136 0.58594 0.0
C974 C 0.06007 0.0857 0.57627 0.0
C975 C 0.08224 0.11933 0.58189 0.0
C976 C 0.1196 0.13434 0.58161 0.0
C977 C 0.13442 0.11631 0.57463 0.0
C978 C 0.11212 0.08262 0.56891 0.0
H979 H 0.07646 0.98846 0.59265 0.0
H980 H 0.10711 0.01964 0.58034 0.0
H981 H 0.08573 0.03405 0.59249 0.0
H982 H 0.03132 0.0737 0.57738 0.0
H983 H 0.06999 0.13275 0.58702 0.0
H984 H 0.96014 0.83725 0.90921 0.0
H985 H 0.93968 0.8753 0.89866 0.0
H986 H 0.04215 0.96851 0.90719 0.0
H987 H 0.06283 0.93091 0.9175 0.0
H988 H 0.93411 0.92237 0.91449 0.0
H989 H 0.01939 0.99626 0.87087 0.0
H990 H 0.01563 0.95497 0.87699 0.0
H991 H 0.04706 0.9972 0.88469 0.0
C992 C 0.97859 0.86577 0.9085 0.0
C993 C 0.01284 0.88124 0.91441 0.0
C994 C 0.96694 0.88739 0.90238 0.0
C995 C 0.98954 0.92466 0.90195 0.0
C996 C 0.02455 0.93976 0.90705 0.0
H997 H 0.01834 0.1163 0.9219 0.0
H998 H 0.01815 0.06523 0.91107 0.0
C999 C 0.03615 0.91826 0.91317 0.0
C1000 C 0.9749 0.94847 0.89915 0.0
H1001 H 0.0006 0.03063 0.88569 0.0
C1002 C 0.94762 0.94543 0.90781 0.0
C1003 C 0.9924 0.9783 0.89036 0.0
C1004 C 0.01998 0.9816 0.88011 0.0
C1005 C 0.94066 0.97363 0.90926 0.0
C1006 C 0.96101 0.00524 0.90154 0.0
C1007 C 0.98537 0.00654 0.89172 0.0
C1008 C 0.96213 0.03886 0.90536 0.0
C1009 C 0.91431 0.97068 0.92009 0.0
C1010 C 0.93107 0.04154 0.90526 0.0
C1011 C 0.93092 0.07026 0.91174 0.0
C1012 C 0.96208 0.09705 0.91812 0.0
C1013 C 0.99391 0.09585 0.91717 0.0
C1014 C 0.99386 0.06683 0.9109 0.0
H1015 H 0.90463 0.94621 0.92644 0.0
H1016 H 0.92669 0.99432 0.92695 0.0
H1017 H 0.8907 0.96966 0.91513 0.0
H1018 H 0.90655 0.0206 0.90077 0.0
H1019 H 0.90619 0.07098 0.91208 0.0
H1020 H 0.13727 0.97626 0.23888 0.0
H1021 H 0.07715 0.94886 0.22899 0.0
H1022 H 0.05818 0.02494 0.25067 0.0
H1023 H 0.11814 0.05299 0.26008 0.0
H1024 H 0.01955 0.91474 0.24272 0.0
H1025 H 0.00733 0.01967 0.21651 0.0
H1026 H 0.05067 0.02487 0.22036 0.0
H1027 H 0.02821 0.03849 0.23252 0.0
C1028 C 0.1205 0.98763 0.24124 0.0
C1029 C 0.1322 0.01653 0.25036 0.0
C1030 C 0.08626 0.97206 0.23553 0.0
C1031 C 0.06327 0.98516 0.23887 0.0
C1032 C 0.0757 0.01504 0.24751 0.0
H1033 H 0.88382 0.90635 0.27962 0.0
H1034 H 0.93515 0.91342 0.26676 0.0
C1035 C 0.10992 0.0308 0.25308 0.0
C1036 C 0.02462 0.96445 0.23559 0.0
H1037 H 0.95514 0.97983 0.23184 0.0
C1038 C 0.00537 0.92856 0.23982 0.0
C1039 C 0.00569 0.98152 0.2312 0.0
C1040 C 0.02426 0.01814 0.22474 0.0
C1041 C 0.9683 0.91147 0.24186 0.0
C1042 C 0.9506 0.93129 0.2401 0.0
C1043 C 0.96885 0.96496 0.23375 0.0
C1044 C 0.91651 0.92123 0.24718 0.0
C1045 C 0.94901 0.87321 0.24677 0.0
C1046 C 0.88914 0.92398 0.24056 0.0
C1047 C 0.86017 0.921 0.24803 0.0
C1048 C 0.85805 0.91503 0.26222 0.0
C1049 C 0.88465 0.91079 0.2687 0.0
C1050 C 0.91379 0.9143 0.26129 0.0
H1051 H 0.95982 0.8577 0.24159 0.0
H1052 H 0.95367 0.87257 0.25788 0.0
H1053 H 0.91974 0.85993 0.24485 0.0
H1054 H 0.89081 0.92966 0.22972 0.0
H1055 H 0.83984 0.9241 0.24274 0.0
H1056 H 0.01835 0.17414 0.9637 0.0
H1057 H 0.06401 0.18506 0.98064 0.0
H1058 H 0.0614 0.27833 0.99481 0.0
H1059 H 0.01442 0.26675 0.97813 0.0
H1060 H 0.12963 0.23702 0.98588 0.0
H1061 H 0.04287 0.22431 0.02993 0.0
H1062 H 0.02601 0.21383 0.01271 0.0
H1063 H 0.05083 0.25965 0.01829 0.0
C1064 C 0.02757 0.1972 0.97033 0.0
C1065 C 0.01227 0.21932 0.96961 0.0
C1066 C 0.05382 0.20343 0.98005 0.0
C1067 C 0.06571 0.23204 0.98928 0.0
C1068 C 0.05198 0.25542 0.98811 0.0
H1069 H 0.24671 0.26772 0.04283 0.0
H1070 H 0.21109 0.27936 0.02627 0.0
C1071 C 0.02532 0.24896 0.97846 0.0
C1072 C 0.09156 0.23625 1.00029 0.0
H1073 H 0.10115 0.23631 0.03498 0.0
C1074 C 0.12352 0.23714 0.99662 0.0
C1075 C 0.08351 0.23602 0.01435 0.0
C1076 C 0.04883 0.23307 0.0191 0.0
C1077 C 0.14698 0.23671 1.00651 0.0
C1078 C 0.13895 0.23654 0.02057 0.0
C1079 C 0.10754 0.23675 0.02424 0.0
C1080 C 0.16067 0.23241 0.03156 0.0
C1081 C 0.17912 0.2345 1.00175 0.0
C1082 C 0.14408 0.20339 0.04063 0.0
C1083 C 0.1642 0.19711 0.05028 0.0
C1084 C 0.2016 0.21958 0.05109 0.0
C1085 C 0.21803 0.24968 0.04244 0.0
C1086 C 0.19772 0.25617 0.03285 0.0
H1087 H 0.17664 0.22615 0.99089 0.0
H1088 H 0.20348 0.26123 1.00271 0.0
H1089 H 0.18288 0.21526 1.00806 0.0
H1090 H 0.11556 0.18474 0.03995 0.0
H1091 H 0.15045 0.17371 0.05675 0.0
H1092 H 0.96098 0.15188 0.39637 0.0
H1093 H 0.91629 0.11488 0.37935 0.0
H1094 H 0.94971 0.20743 0.35369 0.0
H1095 H 0.99415 0.24495 0.37084 0.0
H1096 H 0.87565 0.16123 0.35308 0.0
H1097 H 0.94763 0.08657 0.3446 0.0
H1098 H 0.93414 0.08547 0.36202 0.0
H1099 H 0.96652 0.12732 0.35444 0.0
C1100 C 0.95856 0.16457 0.38721 0.0
C1101 C 0.98156 0.20141 0.38494 0.0
C1102 C 0.93307 0.14327 0.37743 0.0
C1103 C 0.93022 0.15813 0.36506 0.0
C1104 C 0.95158 0.19526 0.3631 0.0
H1105 H 0.84253 0.02967 0.29185 0.0
H1106 H 0.87973 0.07577 0.30837 0.0
C1107 C 0.97698 0.21671 0.37295 0.0
C1108 C 0.90653 0.13461 0.35392 0.0
H1109 H 0.89126 0.06367 0.33378 0.0
C1110 C 0.87909 0.13995 0.34882 0.0
C1111 C 0.91138 0.10723 0.34815 0.0
C1112 C 0.94171 0.10145 0.35247 0.0
C1113 C 0.85598 0.1182 0.33835 0.0
C1114 C 0.86003 0.08995 0.33296 0.0
C1115 C 0.88786 0.08509 0.33793 0.0
C1116 C 0.83617 0.06508 0.32211 0.0
C1117 C 0.82794 0.12618 0.33299 0.0
C1118 C 0.79895 0.04405 0.32409 0.0
C1119 C 0.77741 0.01778 0.31453 0.0
C1120 C 0.79271 0.01158 0.30288 0.0
C1121 C 0.82976 0.03356 0.3007 0.0
C1122 C 0.85116 0.05995 0.31018 0.0
H1123 H 0.83509 0.15427 0.33512 0.0
H1124 H 0.82417 0.12146 0.32181 0.0
H1125 H 0.80204 0.10833 0.33812 0.0
H1126 H 0.78671 0.04682 0.33332 0.0
H1127 H 0.74906 0.00118 0.31662 0.0
H1128 H 0.73113 0.74894 0.64443 0.0
H1129 H 0.71802 0.78385 0.6608 0.0
H1130 H 0.81289 0.88007 0.64778 0.0
H1131 H 0.82538 0.84585 0.63117 0.0
H1132 H 0.75438 0.81948 0.68221 0.0
H1133 H 0.7447 0.91642 0.64848 0.0
H1134 H 0.7448 0.87745 0.64188 0.0
H1135 H 0.78637 0.91773 0.64565 0.0
C1136 C 0.74879 0.77765 0.64485 0.0
C1137 C 0.77924 0.79451 0.63639 0.0
C1138 C 0.74131 0.7976 0.65427 0.0
C1139 C 0.76409 0.83483 0.65544 0.0
C1140 C 0.79419 0.85167 0.64686 0.0
H1141 H 0.81723 0.96912 0.72549 0.0
H1142 H 0.80594 0.92347 0.70858 0.0
C1143 C 0.80147 0.83188 0.63738 0.0
C1144 C 0.7583 0.85579 0.66631 0.0
H1145 H 0.75967 0.93458 0.6721 0.0
C1146 C 0.75494 0.84435 0.67995 0.0
C1147 C 0.75814 0.88792 0.66347 0.0
C1148 C 0.75828 0.90033 0.64905 0.0
C1149 C 0.75351 0.865 0.69079 0.0
C1150 C 0.75664 0.89869 0.68802 0.0
C1151 C 0.75789 0.90913 0.67434 0.0
C1152 C 0.76114 0.92451 0.69909 0.0
C1153 C 0.74869 0.85036 0.70511 0.0
C1154 C 0.74017 0.94112 0.6994 0.0
C1155 C 0.747 0.96796 0.70901 0.0
C1156 C 0.77501 0.97882 0.71854 0.0
C1157 C 0.79519 0.96135 0.71844 0.0
C1158 C 0.78859 0.93488 0.70878 0.0
H1159 H 0.73337 0.82063 0.70509 0.0
H1160 H 0.77536 0.8588 0.70962 0.0
H1161 H 0.7345 0.86016 0.71174 0.0
H1162 H 0.71894 0.93382 0.692 0.0
H1163 H 0.731 0.98088 0.70872 0.0
H1164 H 0.84326 0.80587 0.06286 0.0
H1165 H 0.87987 0.79725 0.04593 0.0
H1166 H 0.78717 0.73874 0.02029 0.0
H1167 H 0.75001 0.74678 0.0373 0.0
H1168 H 0.83457 0.71034 0.02027 0.0
H1169 H 0.90666 0.85667 1.01066 0.0
H1170 H 0.90746 0.84484 0.02819 0.0
H1171 H 0.86562 0.83441 0.02037 0.0
C1172 C 0.8304 0.79063 0.05373 0.0
C1173 C 0.79366 0.7774 0.0514 0.0
C1174 C 0.85149 0.78587 0.04402 0.0
C1175 C 0.83649 0.76808 0.03168 0.0
C1176 C 0.79941 0.75278 0.02969 0.0
H1177 H 0.96157 0.8064 0.95776 0.0
H1178 H 0.91569 0.79681 0.97451 0.0
C1179 C 0.77817 0.75737 0.03945 0.0
C1180 C 0.85996 0.76779 0.02054 0.0
H1181 H 0.9297 0.82344 0.99985 0.0
C1182 C 0.85533 0.73503 0.01577 0.0
C1183 C 0.8867 0.79998 0.01449 0.0
C1184 C 0.89179 0.83597 0.01857 0.0
C1185 C 0.87719 0.73368 1.00532 0.0
C1186 C 0.90468 0.76599 0.9996 0.0
C1187 C 0.90884 0.79864 1.00426 0.0
C1188 C 0.92939 0.76705 0.98866 0.0
C1189 C 0.87021 0.6977 1.00034 0.0
C1190 C 0.95203 0.75278 0.99081 0.0
C1191 C 0.97829 0.758 0.98114 0.0
C1192 C 0.98277 0.77803 0.96919 0.0
C1193 C 0.95907 0.79097 0.96684 0.0
C1194 C 0.93278 0.78556 0.97644 0.0
H1195 H 0.84265 0.67613 1.0029 0.0
H1196 H 0.87404 0.69788 0.98912 0.0
H1197 H 0.88933 0.69118 1.00534 0.0
H1198 H 0.95053 0.73901 1.00024 0.0
H1199 H 0.9962 0.74788 0.98335 0.0
H1200 H 0.25013 0.98837 0.3136 0.0
H1201 H 0.21445 0.94065 0.33005 0.0
H1202 H 0.11784 0.93289 0.31386 0.0
H1203 H 0.1528 0.97916 0.29724 0.0
H1204 H 0.17411 0.94015 0.3502 0.0
H1205 H 0.08642 0.82952 0.3159 0.0
H1206 H 0.12536 0.86937 0.3097 0.0
H1207 H 0.08332 0.86836 0.31189 0.0
C1208 C 0.22122 0.97593 0.31335 0.0
C1209 C 0.20445 0.98763 0.304 0.0
C1210 C 0.20082 0.9487 0.32281 0.0
C1211 C 0.16324 0.93254 0.32311 0.0
C1212 C 0.14657 0.94393 0.31364 0.0
H1213 H 0.01836 0.84947 0.3904 0.0
H1214 H 0.06564 0.88466 0.37411 0.0
C1215 C 0.16679 0.97077 0.30416 0.0
C1216 C 0.14142 0.90587 0.33388 0.0
H1217 H 0.06359 0.82671 0.33878 0.0
C1218 C 0.15028 0.91506 0.34768 0.0
C1219 C 0.11066 0.87261 0.33073 0.0
C1220 C 0.10116 0.85924 0.31624 0.0
C1221 C 0.12826 0.89305 0.3583 0.0
C1222 C 0.09578 0.86141 0.3551 0.0
C1223 C 0.08804 0.8512 0.34133 0.0
C1224 C 0.0685 0.83973 0.36573 0.0
C1225 C 0.1402 0.90411 0.37285 0.0
C1226 C 0.05335 0.80233 0.36638 0.0
C1227 C 0.02555 0.78182 0.3756 0.0
C1228 C 0.01225 0.79824 0.38442 0.0
C1229 C 0.02802 0.83576 0.38392 0.0
C1230 C 0.05544 0.85611 0.37463 0.0
H1231 H 0.16989 0.91975 0.37357 0.0
H1232 H 0.12984 0.92155 0.37651 0.0
H1233 H 0.13021 0.88059 0.37974 0.0
H1234 H 0.06268 0.78889 0.35959 0.0
H1235 H 0.01402 0.75306 0.3756 0.0
H1236 H 0.18848 0.03736 0.72868 0.0
H1237 H 0.19788 0.08306 0.71188 0.0
H1238 H 0.26427 0.05511 0.688 0.0
H1239 H 0.25544 0.00944 0.70491 0.0
H1240 H 0.28931 0.13047 0.68864 0.0
H1241 H 0.14531 0.05097 0.67509 0.0
H1242 H 0.1534 0.06222 0.69289 0.0
H1243 H 0.16738 0.03313 0.6854 0.0
C1244 C 0.20558 0.04121 0.71998 0.0
C1245 C 0.22082 0.01929 0.7181 0.0
C1246 C 0.21079 0.06732 0.71034 0.0
C1247 C 0.2311 0.072 0.69851 0.0
C1248 C 0.24828 0.05183 0.697 0.0
H1249 H 0.20046 0.16171 0.62385 0.0
H1250 H 0.20963 0.12528 0.64063 0.0
C1251 C 0.24322 0.02572 0.7067 0.0
C1252 C 0.23217 0.09605 0.68735 0.0
H1253 H 0.17819 0.10856 0.66521 0.0
C1254 C 0.26507 0.12568 0.68348 0.0
C1255 C 0.20061 0.08949 0.68044 0.0
C1256 C 0.1647 0.05706 0.68355 0.0
C1257 C 0.26708 0.14931 0.6731 0.0
C1258 C 0.2353 0.14336 0.66652 0.0
C1259 C 0.20257 0.11336 0.67027 0.0
C1260 C 0.23488 0.16746 0.65566 0.0
C1261 C 0.30326 0.18004 0.66911 0.0
C1262 C 0.24684 0.20375 0.6583 0.0
C1263 C 0.24186 0.22489 0.64861 0.0
C1264 C 0.22439 0.21002 0.63616 0.0
C1265 C 0.21391 0.1741 0.63333 0.0
C1266 C 0.21907 0.15314 0.64295 0.0
H1267 H 0.32524 0.17518 0.67222 0.0
H1268 H 0.30495 0.18476 0.65792 0.0
H1269 H 0.30754 0.20471 0.67431 0.0
H1270 H 0.25848 0.21535 0.6681 0.0
H1271 H 0.25001 0.25232 0.6512 0.0
H1272 H 0.35854 0.20334 0.11694 0.0
H1273 H 0.37489 0.19649 0.14036 0.0
H1274 H 0.2771 0.18869 0.15534 0.0
H1275 H 0.26196 0.19754 0.13222 0.0
H1276 H 0.32872 0.22432 0.17292 0.0
H1277 H 0.33047 0.1007 0.15847 0.0
H1278 H 0.36294 0.14045 0.14979 0.0
H1279 H 0.31594 0.12325 0.14685 0.0
C1280 C 0.34119 0.20127 0.12532 0.0
C1281 C 0.30895 0.2009 0.12278 0.0
C1282 C 0.3502 0.1967 0.13867 0.0
C1283 C 0.32677 0.19104 0.14964 0.0
C1284 C 0.2956 0.19274 0.14712 0.0
H1285 H 0.27023 0.06645 0.22156 0.0
H1286 H 0.28457 0.09155 0.19855 0.0
C1287 C 0.28688 0.19772 0.13388 0.0
C1288 C 0.33305 0.18147 0.16363 0.0
H1289 H 0.33896 0.11667 0.18161 0.0
C1290 C 0.33136 0.20099 0.17482 0.0
C1291 C 0.33615 0.15079 0.16616 0.0
C1292 C 0.33618 0.12735 0.15472 0.0
C1293 C 0.33096 0.18987 0.18837 0.0
C1294 C 0.33372 0.15899 0.19089 0.0
C1295 C 0.33711 0.14044 0.17972 0.0
C1296 C 0.32861 0.14296 0.20482 0.0
C1297 C 0.32522 0.21008 0.19975 0.0
C1298 C 0.34938 0.16283 0.21608 0.0
C1299 C 0.34077 0.14855 0.22934 0.0
C1300 C 0.3118 0.11387 0.23151 0.0
C1301 C 0.29274 0.09324 0.22016 0.0
C1302 C 0.30097 0.1076 0.20699 0.0
H1303 H 0.31527 0.22771 0.19587 0.0
H1304 H 0.3057 0.19139 0.20735 0.0
H1305 H 0.35103 0.22724 0.20504 0.0
H1306 H 0.37145 0.18981 0.21468 0.0
H1307 H 0.35558 0.16526 0.23791 0.0
H1308 H 0.15134 0.29765 0.45399 0.0
H1309 H 0.1747 0.31341 0.47725 0.0
H1310 H 0.10155 0.35198 0.4854 0.0
H1311 H 0.07735 0.33509 0.46208 0.0
H1312 H 0.20612 0.37368 0.49285 0.0
H1313 H 0.07318 0.27564 0.51445 0.0
H1314 H 0.08277 0.27792 0.49643 0.0
H1315 H 0.0738 0.3104 0.50418 0.0
C1316 C 0.14062 0.30997 0.46071 0.0
C1317 C 0.11226 0.31474 0.45636 0.0
C1318 C 0.15399 0.31901 0.47399 0.0
C1319 C 0.13936 0.33312 0.48323 0.0
C1320 C 0.11269 0.3403 0.47858 0.0
H1321 H 0.17174 0.34438 0.57238 0.0
H1322 H 0.15915 0.35895 0.54949 0.0
C1323 C 0.09914 0.33106 0.46524 0.0
C1324 C 0.15071 0.33786 0.49784 0.0
H1325 H 0.12051 0.30535 0.52993 0.0
C1326 C 0.18731 0.35905 0.50097 0.0
C1327 C 0.12625 0.31869 0.50849 0.0
C1328 C 0.08685 0.29413 0.50577 0.0
C1329 C 0.20015 0.3609 0.51434 0.0
C1330 C 0.17584 0.34084 0.52486 0.0
C1331 C 0.13912 0.32085 0.52186 0.0
C1332 C 0.18801 0.33738 0.53873 0.0
C1333 C 0.23971 0.38395 0.51706 0.0
C1334 C 0.20884 0.32093 0.54032 0.0
C1335 C 0.21596 0.31264 0.55334 0.0
C1336 C 0.20263 0.32085 0.56503 0.0
C1337 C 0.18303 0.33861 0.56352 0.0
C1338 C 0.17562 0.34666 0.55046 0.0
H1339 H 0.25291 0.40534 0.50925 0.0
H1340 H 0.24467 0.39651 0.52732 0.0
H1341 H 0.25239 0.36706 0.51669 0.0
H1342 H 0.21798 0.31274 0.53145 0.0
H1343 H 0.2304 0.29819 0.55426 0.0
H1344 H 0.83187 0.17777 0.90408 0.0
H1345 H 0.80876 0.16493 0.88056 0.0
H1346 H 0.9169 0.22138 0.86511 0.0
H1347 H 0.93989 0.23362 0.88858 0.0
H1348 H 0.81758 0.20518 0.85557 0.0
H1349 H 0.87661 0.11685 0.85241 0.0
H1350 H 0.87209 0.13519 0.86835 0.0
H1351 H 0.90799 0.16244 0.85681 0.0
C1352 C 0.85053 0.18849 0.89563 0.0
C1353 C 0.88759 0.20691 0.89807 0.0
C1354 C 0.83737 0.18101 0.88221 0.0
C1355 C 0.86112 0.19171 0.87108 0.0
C1356 C 0.89809 0.21249 0.87354 0.0
H1357 H 0.81912 0.16478 0.78322 0.0
H1358 H 0.83111 0.18907 0.80656 0.0
C1359 C 0.91121 0.21979 0.88692 0.0
C1360 C 0.84767 0.17786 0.8571 0.0
H1361 H 0.85141 0.12444 0.83218 0.0
C1362 C 0.8249 0.1875 0.85043 0.0
C1363 C 0.85671 0.15426 0.8505 0.0
C1364 C 0.87941 0.14124 0.8574 0.0
C1365 C 0.81148 0.17466 0.83723 0.0
C1366 C 0.8214 0.15186 0.83049 0.0
C1367 C 0.84383 0.14198 0.83728 0.0
C1368 C 0.80889 0.13741 0.81647 0.0
C1369 C 0.78629 0.18504 0.83074 0.0
C1370 C 0.79205 0.10033 0.8142 0.0
C1371 C 0.78548 0.08659 0.80092 0.0
C1372 C 0.79529 0.10957 0.78961 0.0
C1373 C 0.81046 0.1465 0.79181 0.0
C1374 C 0.81733 0.16035 0.80514 0.0
H1375 H 0.77365 0.19403 0.83849 0.0
H1376 H 0.80154 0.20751 0.82354 0.0
H1377 H 0.76488 0.16234 0.82491 0.0
H1378 H 0.78541 0.08205 0.82272 0.0
H1379 H 0.77439 0.05809 0.79945 0.0
H1380 H 0.70108 0.84433 0.23352 0.0
H1381 H 0.68686 0.82277 0.21003 0.0
H1382 H 0.64471 0.89328 0.20277 0.0
H1383 H 0.66026 0.91591 0.22634 0.0
H1384 H 0.62739 0.79036 0.19446 0.0
H1385 H 0.72075 0.92557 0.1735 0.0
H1386 H 0.71891 0.91551 0.19146 0.0
H1387 H 0.68505 0.92267 0.18388 0.0
C1388 C 0.68847 0.855 0.22694 0.0
C1389 C 0.68226 0.88217 0.23165 0.0
C1390 C 0.68025 0.84259 0.21351 0.0
C1391 C 0.66547 0.85694 0.20447 0.0
C1392 C 0.65696 0.88243 0.20943 0.0
H1393 H 0.65402 0.82565 0.11505 0.0
H1394 H 0.63873 0.837 0.13805 0.0
C1395 C 0.66542 0.89505 0.22292 0.0
C1396 C 0.66113 0.8463 0.18977 0.0
H1397 H 0.69291 0.87854 0.15778 0.0
C1398 C 0.64139 0.80973 0.18643 0.0
C1399 C 0.67946 0.87148 0.17922 0.0
C1400 C 0.7025 0.91097 0.18214 0.0
C1401 C 0.64031 0.79766 0.17298 0.0
C1402 C 0.6596 0.82273 0.16258 0.0
C1403 C 0.67801 0.85936 0.16576 0.0
C1404 C 0.66404 0.81152 0.14866 0.0
C1405 C 0.61904 0.75808 0.17006 0.0
C1406 C 0.68291 0.79307 0.14697 0.0
C1407 C 0.69166 0.78672 0.1339 0.0
C1408 C 0.68142 0.79836 0.12226 0.0
C1409 C 0.66138 0.81562 0.12388 0.0
C1410 C 0.65292 0.82234 0.137 0.0
H1411 H 0.59806 0.74362 0.17792 0.0
H1412 H 0.60612 0.75289 0.15986 0.0
H1413 H 0.63733 0.74696 0.17012 0.0
H1414 H 0.69247 0.78516 0.15579 0.0
H1415 H 0.70788 0.77413 0.13289 0.0
H1416 H 0.93941 0.71259 0.4656 0.0
H1417 H 0.91633 0.69934 0.48904 0.0
H1418 H 0.80823 0.64846 0.47353 0.0
H1419 H 0.83154 0.6606 0.45008 0.0
H1420 H 0.88123 0.72773 0.50008 0.0
H1421 H 0.79512 0.58067 0.50395 0.0
H1422 H 0.82651 0.6019 0.49013 0.0
H1423 H 0.78339 0.59896 0.48974 0.0
C1424 C 0.91074 0.69724 0.46724 0.0
C1425 C 0.88718 0.68689 0.45612 0.0
C1426 C 0.89751 0.68993 0.48062 0.0
C1427 C 0.86043 0.67256 0.48314 0.0
C1428 C 0.83684 0.66097 0.47194 0.0
H1429 H 0.77308 0.71671 0.55527 0.0
H1430 H 0.78519 0.70553 0.53185 0.0
C1431 C 0.85013 0.66791 0.45853 0.0
C1432 C 0.847 0.67091 0.49735 0.0
H1433 H 0.78759 0.61534 0.52147 0.0
C1434 C 0.86097 0.70302 0.50475 0.0
C1435 C 0.82064 0.63873 0.50356 0.0
C1436 C 0.80579 0.60306 0.49649 0.0
C1437 C 0.84908 0.70402 0.51801 0.0
C1438 C 0.82171 0.67216 0.524 0.0
C1439 C 0.80817 0.63983 0.51678 0.0
C1440 C 0.80749 0.67247 0.53784 0.0
C1441 C 0.8663 0.73926 0.52555 0.0
C1442 C 0.81394 0.65577 0.54893 0.0
C1443 C 0.80652 0.66176 0.56232 0.0
C1444 C 0.79247 0.68441 0.56476 0.0
C1445 C 0.78356 0.69885 0.5536 0.0
C1446 C 0.79079 0.69275 0.54025 0.0
H1447 H 0.89254 0.75886 0.52102 0.0
H1448 H 0.84849 0.7509 0.52501 0.0
H1449 H 0.87043 0.73551 0.53649 0.0
H1450 H 0.82679 0.64 0.5473 0.0
H1451 H 0.8141 0.65081 0.57079 0.0
H1452 H 0.20251 0.93644 0.79998 0.0
H1453 H 0.19312 0.91073 0.8228 0.0
H1454 H 0.19051 0.81688 0.80614 0.0
H1455 H 0.19799 0.84205 0.78305 0.0
H1456 H 0.13662 0.79696 0.82243 0.0
H1457 H 0.25366 0.89963 0.85033 0.0
H1458 H 0.23168 0.92044 0.84214 0.0
H1459 H 0.25119 0.8997 0.83193 0.0
C1460 C 0.20071 0.91065 0.80122 0.0
C1461 C 0.20131 0.89141 0.78975 0.0
C1462 C 0.19565 0.89604 0.81432 0.0
C1463 C 0.19179 0.86205 0.81635 0.0
C1464 C 0.19374 0.84328 0.80492 0.0
H1465 H 0.15926 0.80336 0.90357 0.0
H1466 H 0.18448 0.8115 0.88047 0.0
C1467 C 0.19844 0.85782 0.79173 0.0
C1468 C 0.18201 0.84505 0.83017 0.0
H1469 H 0.20014 0.86378 0.86411 0.0
C1470 C 0.15101 0.8113 0.83152 0.0
C1471 C 0.20103 0.86302 0.84213 0.0
C1472 C 0.23645 0.89749 0.84152 0.0
C1473 C 0.13725 0.79635 0.84442 0.0
C1474 C 0.15416 0.81617 0.85638 0.0
C1475 C 0.18656 0.8487 0.85502 0.0
C1476 C 0.13728 0.80548 0.8702 0.0
C1477 C 0.10452 0.75954 0.84503 0.0
C1478 C 0.1021 0.79856 0.87221 0.0
C1479 C 0.08749 0.79306 0.88533 0.0
C1480 C 0.10789 0.79513 0.89683 0.0
C1481 C 0.14265 0.80086 0.89488 0.0
C1482 C 0.1572 0.80594 0.88168 0.0
H1483 H 0.104 0.7429 0.83628 0.0
H1484 H 0.10341 0.74545 0.85466 0.0
H1485 H 0.08014 0.76197 0.84431 0.0
H1486 H 0.08641 0.79917 0.8637 0.0
H1487 H 0.06076 0.78907 0.88656 0.0
loop_
_geom_bond_atom_site_label_1
_geom_bond_atom_site_label_2
_geom_bond_distance
_geom_bond_site_symmetry_2
_ccdc_geom_bond_type
Co0 O3 1.970 . S
Co0 N17 1.989 . S
Co0 O25 1.967 . S
Co0 O32 1.920 . S
Co1 O4 1.966 . S
Co1 N10 2.022 . S
Co1 N18 1.993 . S
Co1 O26 1.941 . S
C2 O3 1.258 . S
C2 O4 1.263 . S
O3 Co0 1.970 . S
O3 C2 1.258 . S
O4 Co1 1.966 . S
O4 C2 1.263 . S
C5 O6 1.235 . S
C5 O32 1.289 . S
O6 C5 1.235 . S
C7 C9 1.400 . S
C7 N10 1.351 . S
C7 C12 1.501 . S
C8 C9 1.387 . S
C8 N11 1.341 . S
C9 C7 1.400 . S
C9 C8 1.387 . S
N10 Co1 2.022 . S
N10 C7 1.351 . S
N10 N11 1.365 . S
N11 C8 1.341 . S
N11 N10 1.365 . S
N11 H31 0.862 . S
C12 C7 1.501 . S
C12 H13 0.961 . S
C12 H14 0.961 . S
C12 H15 0.960 . S
H13 C12 0.961 . S
H14 C12 0.961 . S
H15 C12 0.960 . S
C16 N17 1.342 . S
C16 C20 1.401 . S
C16 C21 1.499 . S
N17 Co0 1.989 . S
N17 C16 1.342 . S
N17 N18 1.388 . S
N18 Co1 1.993 . S
N18 N17 1.388 . S
N18 C19 1.346 . S
C19 N18 1.346 . S
C19 C20 1.396 . S
C19 C29 1.510 . S
C20 C16 1.401 . S
C20 C19 1.396 . S
C21 C16 1.499 . S
C21 H22 0.959 . S
C21 H23 0.960 . S
C21 H24 0.961 . S
H22 C21 0.959 . S
H23 C21 0.960 . S
H24 C21 0.961 . S
O25 Co0 1.967 . S
O25 C33 1.258 . S
O26 Co1 1.941 . S
O26 C33 1.266 . S
H27 C29 0.959 . S
H28 C29 0.961 . S
C29 C19 1.510 . S
C29 H27 0.959 . S
C29 H28 0.961 . S
C29 H30 0.960 . S
H30 C29 0.960 . S
H31 N11 0.862 . S
O32 Co0 1.920 . S
O32 C5 1.289 . S
C33 O25 1.258 . S
C33 O26 1.266 . S
Co34 O37 1.970 . S
Co34 N51 1.989 . S
Co34 O59 1.967 . S
Co34 O66 1.920 . S
Co35 O38 1.966 . S
Co35 N44 2.022 . S
Co35 N52 1.993 . S
Co35 O60 1.941 . S
C36 O37 1.258 . S
C36 O38 1.263 . S
O37 Co34 1.970 . S
O37 C36 1.258 . S
O38 Co35 1.966 . S
O38 C36 1.263 . S
C39 O40 1.235 . S
C39 O66 1.289 . S
O40 C39 1.235 . S
C41 C43 1.400 . S
C41 N44 1.351 . S
C41 C46 1.501 . S
C42 C43 1.387 . S
C42 N45 1.341 . S
C43 C41 1.400 . S
C43 C42 1.387 . S
N44 Co35 2.022 . S
N44 C41 1.351 . S
N44 N45 1.365 . S
N45 C42 1.341 . S
N45 N44 1.365 . S
N45 H65 0.862 . S
C46 C41 1.501 . S
C46 H47 0.961 . S
C46 H48 0.961 . S
C46 H49 0.960 . S
H47 C46 0.961 . S
H48 C46 0.961 . S
H49 C46 0.960 . S
C50 N51 1.342 . S
C50 C54 1.401 . S
C50 C55 1.499 . S
N51 Co34 1.989 . S
N51 C50 1.342 . S
N51 N52 1.388 . S
N52 Co35 1.993 . S
N52 N51 1.388 . S
N52 C53 1.346 . S
C53 N52 1.346 . S
C53 C54 1.396 . S
C53 C63 1.510 . S
C54 C50 1.401 . S
C54 C53 1.396 . S
C55 C50 1.499 . S
C55 H56 0.959 . S
C55 H57 0.960 . S
C55 H58 0.961 . S
H56 C55 0.959 . S
H57 C55 0.960 . S
H58 C55 0.961 . S
O59 Co34 1.967 . S
O59 C67 1.258 . S
O60 Co35 1.941 . S
O60 C67 1.266 . S
H61 C63 0.959 . S
H62 C63 0.961 . S
C63 C53 1.510 . S
C63 H61 0.959 . S
C63 H62 0.961 . S
C63 H64 0.960 . S
H64 C63 0.960 . S
H65 N45 0.862 . S
O66 Co34 1.920 . S
O66 C39 1.289 . S
C67 O59 1.258 . S
C67 O60 1.266 . S
Co68 O71 1.970 . S
Co68 N85 1.989 . S
Co68 O93 1.967 . S
Co68 O100 1.920 . S
Co69 O72 1.966 . S
Co69 N78 2.022 . S
Co69 N86 1.993 . S
Co69 O94 1.941 . S
C70 O71 1.258 . S
C70 O72 1.263 . S
O71 Co68 1.970 . S
O71 C70 1.258 . S
O72 Co69 1.966 . S
O72 C70 1.263 . S
C73 O74 1.235 . S
C73 O100 1.289 . S
O74 C73 1.235 . S
C75 C77 1.400 . S
C75 N78 1.351 . S
C75 C80 1.501 . S
C76 C77 1.387 . S
C76 N79 1.341 . S
C77 C75 1.400 . S
C77 C76 1.387 . S
N78 Co69 2.022 . S
N78 C75 1.351 . S
N78 N79 1.365 . S
N79 C76 1.341 . S
N79 N78 1.365 . S
N79 H99 0.862 . S
C80 C75 1.501 . S
C80 H81 0.961 . S
C80 H82 0.961 . S
C80 H83 0.960 . S
H81 C80 0.961 . S
H82 C80 0.961 . S
H83 C80 0.960 . S
C84 N85 1.342 . S
C84 C88 1.401 . S
C84 C89 1.499 . S
N85 Co68 1.989 . S
N85 C84 1.342 . S
N85 N86 1.388 . S
N86 Co69 1.993 . S
N86 N85 1.388 . S
N86 C87 1.346 . S
C87 N86 1.346 . S
C87 C88 1.396 . S
C87 C97 1.510 . S
C88 C84 1.401 . S
C88 C87 1.396 . S
C89 C84 1.499 . S
C89 H90 0.959 . S
C89 H91 0.960 . S
C89 H92 0.961 . S
H90 C89 0.959 . S
H91 C89 0.960 . S
H92 C89 0.961 . S
O93 Co68 1.967 . S
O93 C101 1.258 . S
O94 Co69 1.941 . S
O94 C101 1.266 . S
H95 C97 0.959 . S
H96 C97 0.961 . S
C97 C87 1.510 . S
C97 H95 0.959 . S
C97 H96 0.961 . S
C97 H98 0.960 . S
H98 C97 0.960 . S
H99 N79 0.862 . S
O100 Co68 1.920 . S
O100 C73 1.289 . S
C101 O93 1.258 . S
C101 O94 1.266 . S
Co102 O105 1.970 . S
Co102 N119 1.989 . S
Co102 O127 1.967 . S
Co102 O134 1.920 . S
Co103 O106 1.966 . S
Co103 N112 2.022 . S
Co103 N120 1.993 . S
Co103 O128 1.941 . S
C104 O105 1.258 . S
C104 O106 1.263 . S
O105 Co102 1.970 . S
O105 C104 1.258 . S
O106 Co103 1.966 . S
O106 C104 1.263 . S
C107 O108 1.235 . S
C107 O134 1.289 . S
O108 C107 1.235 . S
C109 C111 1.400 . S
C109 N112 1.351 . S
C109 C114 1.501 . S
C110 C111 1.387 . S
C110 N113 1.341 . S
C111 C109 1.400 . S
C111 C110 1.387 . S
N112 Co103 2.022 . S
N112 C109 1.351 . S
N112 N113 1.365 . S
N113 C110 1.341 . S
N113 N112 1.365 . S
N113 H133 0.862 . S
C114 C109 1.501 . S
C114 H115 0.961 . S
C114 H116 0.961 . S
C114 H117 0.960 . S
H115 C114 0.961 . S
H116 C114 0.961 . S
H117 C114 0.960 . S
C118 N119 1.342 . S
C118 C122 1.401 . S
C118 C123 1.499 . S
N119 Co102 1.989 . S
N119 C118 1.342 . S
N119 N120 1.388 . S
N120 Co103 1.993 . S
N120 N119 1.388 . S
N120 C121 1.346 . S
C121 N120 1.346 . S
C121 C122 1.396 . S
C121 C131 1.510 . S
C122 C118 1.401 . S
C122 C121 1.396 . S
C123 C118 1.499 . S
C123 H124 0.959 . S
C123 H125 0.960 . S
C123 H126 0.961 . S
H124 C123 0.959 . S
H125 C123 0.960 . S
H126 C123 0.961 . S
O127 Co102 1.967 . S
O127 C135 1.258 . S
O128 Co103 1.941 . S
O128 C135 1.266 . S
H129 C131 0.959 . S
H130 C131 0.961 . S
C131 C121 1.510 . S
C131 H129 0.959 . S
C131 H130 0.961 . S
C131 H132 0.960 . S
H132 C131 0.960 . S
H133 N113 0.862 . S
O134 Co102 1.920 . S
O134 C107 1.289 . S
C135 O127 1.258 . S
C135 O128 1.266 . S
Co136 O139 1.970 . S
Co136 N153 1.989 . S
Co136 O161 1.967 . S
Co136 O168 1.920 . S
Co137 O140 1.966 . S
Co137 N146 2.022 . S
Co137 N154 1.993 . S
Co137 O162 1.941 . S
C138 O139 1.258 . S
C138 O140 1.263 . S
O139 Co136 1.970 . S
O139 C138 1.258 . S
O140 Co137 1.966 . S
O140 C138 1.263 . S
C141 O142 1.235 . S
C141 O168 1.289 . S
O142 C141 1.235 . S
C143 C145 1.400 . S
C143 N146 1.351 . S
C143 C148 1.501 . S
C144 C145 1.387 . S
C144 N147 1.341 . S
C145 C143 1.400 . S
C145 C144 1.387 . S
N146 Co137 2.022 . S
N146 C143 1.351 . S
N146 N147 1.365 . S
N147 C144 1.341 . S
N147 N146 1.365 . S
N147 H167 0.862 . S
C148 C143 1.501 . S
C148 H149 0.961 . S
C148 H150 0.961 . S
C148 H151 0.960 . S
H149 C148 0.961 . S
H150 C148 0.961 . S
H151 C148 0.960 . S
C152 N153 1.342 . S
C152 C156 1.401 . S
C152 C157 1.499 . S
N153 Co136 1.989 . S
N153 C152 1.342 . S
N153 N154 1.388 . S
N154 Co137 1.993 . S
N154 N153 1.388 . S
N154 C155 1.346 . S
C155 N154 1.346 . S
C155 C156 1.396 . S
C155 C165 1.510 . S
C156 C152 1.401 . S
C156 C155 1.396 . S
C157 C152 1.499 . S
C157 H158 0.959 . S
C157 H159 0.960 . S
C157 H160 0.961 . S
H158 C157 0.959 . S
H159 C157 0.960 . S
H160 C157 0.961 . S
O161 Co136 1.967 . S
O161 C169 1.258 . S
O162 Co137 1.941 . S
O162 C169 1.266 . S
H163 C165 0.959 . S
H164 C165 0.961 . S
C165 C155 1.510 . S
C165 H163 0.959 . S
C165 H164 0.961 . S
C165 H166 0.960 . S
H166 C165 0.960 . S
H167 N147 0.862 . S
O168 Co136 1.920 . S
O168 C141 1.289 . S
C169 O161 1.258 . S
C169 O162 1.266 . S
Co170 O173 1.970 . S
Co170 N187 1.989 . S
Co170 O195 1.967 . S
Co170 O202 1.920 . S
Co171 O174 1.966 . S
Co171 N180 2.022 . S
Co171 N188 1.993 . S
Co171 O196 1.941 . S
C172 O173 1.258 . S
C172 O174 1.263 . S
O173 Co170 1.970 . S
O173 C172 1.258 . S
O174 Co171 1.966 . S
O174 C172 1.263 . S
C175 O176 1.235 . S
C175 O202 1.289 . S
O176 C175 1.235 . S
C177 C179 1.400 . S
C177 N180 1.351 . S
C177 C182 1.501 . S
C178 C179 1.387 . S
C178 N181 1.341 . S
C179 C177 1.400 . S
C179 C178 1.387 . S
N180 Co171 2.022 . S
N180 C177 1.351 . S
N180 N181 1.365 . S
N181 C178 1.341 . S
N181 N180 1.365 . S
N181 H201 0.862 . S
C182 C177 1.501 . S
C182 H183 0.961 . S
C182 H184 0.961 . S
C182 H185 0.960 . S
H183 C182 0.961 . S
H184 C182 0.961 . S
H185 C182 0.960 . S
C186 N187 1.342 . S
C186 C190 1.401 . S
C186 C191 1.499 . S
N187 Co170 1.989 . S
N187 C186 1.342 . S
N187 N188 1.388 . S
N188 Co171 1.993 . S
N188 N187 1.388 . S
N188 C189 1.346 . S
C189 N188 1.346 . S
C189 C190 1.396 . S
C189 C199 1.510 . S
C190 C186 1.401 . S
C190 C189 1.396 . S
C191 C186 1.499 . S
C191 H192 0.959 . S
C191 H193 0.960 . S
C191 H194 0.961 . S
H192 C191 0.959 . S
H193 C191 0.960 . S
H194 C191 0.961 . S
O195 Co170 1.967 . S
O195 C203 1.258 . S
O196 Co171 1.941 . S
O196 C203 1.266 . S
H197 C199 0.959 . S
H198 C199 0.961 . S
C199 C189 1.510 . S
C199 H197 0.959 . S
C199 H198 0.961 . S
C199 H200 0.960 . S
H200 C199 0.960 . S
H201 N181 0.862 . S
O202 Co170 1.920 . S
O202 C175 1.289 . S
C203 O195 1.258 . S
C203 O196 1.266 . S
Co204 O207 1.970 . S
Co204 N221 1.989 . S
Co204 O229 1.967 . S
Co204 O236 1.920 . S
Co205 O208 1.966 . S
Co205 N214 2.022 . S
Co205 N222 1.993 . S
Co205 O230 1.941 . S
C206 O207 1.258 . S
C206 O208 1.263 . S
O207 Co204 1.970 . S
O207 C206 1.258 . S
O208 Co205 1.966 . S
O208 C206 1.263 . S
C209 O210 1.235 . S
C209 O236 1.289 . S
O210 C209 1.235 . S
C211 C213 1.400 . S
C211 N214 1.351 . S
C211 C216 1.501 . S
C212 C213 1.387 . S
C212 N215 1.341 . S
C213 C211 1.400 . S
C213 C212 1.387 . S
N214 Co205 2.022 . S
N214 C211 1.351 . S
N214 N215 1.365 . S
N215 C212 1.341 . S
N215 N214 1.365 . S
N215 H235 0.862 . S
C216 C211 1.501 . S
C216 H217 0.961 . S
C216 H218 0.961 . S
C216 H219 0.960 . S
H217 C216 0.961 . S
H218 C216 0.961 . S
H219 C216 0.960 . S
C220 N221 1.342 . S
C220 C224 1.401 . S
C220 C225 1.499 . S
N221 Co204 1.989 . S
N221 C220 1.342 . S
N221 N222 1.388 . S
N222 Co205 1.993 . S
N222 N221 1.388 . S
N222 C223 1.346 . S
C223 N222 1.346 . S
C223 C224 1.396 . S
C223 C233 1.510 . S
C224 C220 1.401 . S
C224 C223 1.396 . S
C225 C220 1.499 . S
C225 H226 0.959 . S
C225 H227 0.960 . S
C225 H228 0.961 . S
H226 C225 0.959 . S
H227 C225 0.960 . S
H228 C225 0.961 . S
O229 Co204 1.967 . S
O229 C237 1.258 . S
O230 Co205 1.941 . S
O230 C237 1.266 . S
H231 C233 0.959 . S
H232 C233 0.961 . S
C233 C223 1.510 . S
C233 H231 0.959 . S
C233 H232 0.961 . S
C233 H234 0.960 . S
H234 C233 0.960 . S
H235 N215 0.862 . S
O236 Co204 1.920 . S
O236 C209 1.289 . S
C237 O229 1.258 . S
C237 O230 1.266 . S
Co238 O241 1.970 . S
Co238 N255 1.989 . S
Co238 O263 1.967 . S
Co238 O270 1.920 . S
Co239 O242 1.966 . S
Co239 N248 2.022 . S
Co239 N256 1.993 . S
Co239 O264 1.941 . S
C240 O241 1.258 . S
C240 O242 1.263 . S
O241 Co238 1.970 . S
O241 C240 1.258 . S
O242 Co239 1.966 . S
O242 C240 1.263 . S
C243 O244 1.235 . S
C243 O270 1.289 . S
O244 C243 1.235 . S
C245 C247 1.400 . S
C245 N248 1.351 . S
C245 C250 1.501 . S
C246 C247 1.387 . S
C246 N249 1.341 . S
C247 C245 1.400 . S
C247 C246 1.387 . S
N248 Co239 2.022 . S
N248 C245 1.351 . S
N248 N249 1.365 . S
N249 C246 1.341 . S
N249 N248 1.365 . S
N249 H269 0.862 . S
C250 C245 1.501 . S
C250 H251 0.961 . S
C250 H252 0.961 . S
C250 H253 0.960 . S
H251 C250 0.961 . S
H252 C250 0.961 . S
H253 C250 0.960 . S
C254 N255 1.342 . S
C254 C258 1.401 . S
C254 C259 1.499 . S
N255 Co238 1.989 . S
N255 C254 1.342 . S
N255 N256 1.388 . S
N256 Co239 1.993 . S
N256 N255 1.388 . S
N256 C257 1.346 . S
C257 N256 1.346 . S
C257 C258 1.396 . S
C257 C267 1.510 . S
C258 C254 1.401 . S
C258 C257 1.396 . S
C259 C254 1.499 . S
C259 H260 0.959 . S
C259 H261 0.960 . S
C259 H262 0.961 . S
H260 C259 0.959 . S
H261 C259 0.960 . S
H262 C259 0.961 . S
O263 Co238 1.967 . S
O263 C271 1.258 . S
O264 Co239 1.941 . S
O264 C271 1.266 . S
H265 C267 0.959 . S
H266 C267 0.961 . S
C267 C257 1.510 . S
C267 H265 0.959 . S
C267 H266 0.961 . S
C267 H268 0.960 . S
H268 C267 0.960 . S
H269 N249 0.862 . S
O270 Co238 1.920 . S
O270 C243 1.289 . S
C271 O263 1.258 . S
C271 O264 1.266 . S
Co272 O275 1.970 . S
Co272 N289 1.989 . S
Co272 O297 1.967 . S
Co272 O304 1.920 . S
Co273 O276 1.966 . S
Co273 N282 2.022 . S
Co273 N290 1.993 . S
Co273 O298 1.941 . S
C274 O275 1.258 . S
C274 O276 1.263 . S
O275 Co272 1.970 . S
O275 C274 1.258 . S
O276 Co273 1.966 . S
O276 C274 1.263 . S
C277 O278 1.235 . S
C277 O304 1.289 . S
O278 C277 1.235 . S
C279 C281 1.400 . S
C279 N282 1.351 . S
C279 C284 1.501 . S
C280 C281 1.387 . S
C280 N283 1.341 . S
C281 C279 1.400 . S
C281 C280 1.387 . S
N282 Co273 2.022 . S
N282 C279 1.351 . S
N282 N283 1.365 . S
N283 C280 1.341 . S
N283 N282 1.365 . S
N283 H303 0.862 . S
C284 C279 1.501 . S
C284 H285 0.961 . S
C284 H286 0.961 . S
C284 H287 0.960 . S
H285 C284 0.961 . S
H286 C284 0.961 . S
H287 C284 0.960 . S
C288 N289 1.342 . S
C288 C292 1.401 . S
C288 C293 1.499 . S
N289 Co272 1.989 . S
N289 C288 1.342 . S
N289 N290 1.388 . S
N290 Co273 1.993 . S
N290 N289 1.388 . S
N290 C291 1.346 . S
C291 N290 1.346 . S
C291 C292 1.396 . S
C291 C301 1.510 . S
C292 C288 1.401 . S
C292 C291 1.396 . S
C293 C288 1.499 . S
C293 H294 0.959 . S
C293 H295 0.960 . S
C293 H296 0.961 . S
H294 C293 0.959 . S
H295 C293 0.960 . S
H296 C293 0.961 . S
O297 Co272 1.967 . S
O297 C305 1.258 . S
O298 Co273 1.941 . S
O298 C305 1.266 . S
H299 C301 0.959 . S
H300 C301 0.961 . S
C301 C291 1.510 . S
C301 H299 0.959 . S
C301 H300 0.961 . S
C301 H302 0.960 . S
H302 C301 0.960 . S
H303 N283 0.862 . S
O304 Co272 1.920 . S
O304 C277 1.289 . S
C305 O297 1.258 . S
C305 O298 1.266 . S
Co306 O309 1.970 . S
Co306 N323 1.989 . S
Co306 O331 1.967 . S
Co306 O338 1.920 . S
Co307 O310 1.966 . S
Co307 N316 2.022 . S
Co307 N324 1.993 . S
Co307 O332 1.941 . S
C308 O309 1.258 . S
C308 O310 1.263 . S
O309 Co306 1.970 . S
O309 C308 1.258 . S
O310 Co307 1.966 . S
O310 C308 1.263 . S
C311 O312 1.235 . S
C311 O338 1.289 . S
O312 C311 1.235 . S
C313 C315 1.400 . S
C313 N316 1.351 . S
C313 C318 1.501 . S
C314 C315 1.387 . S
C314 N317 1.341 . S
C315 C313 1.400 . S
C315 C314 1.387 . S
N316 Co307 2.022 . S
N316 C313 1.351 . S
N316 N317 1.365 . S
N317 C314 1.341 . S
N317 N316 1.365 . S
N317 H337 0.862 . S
C318 C313 1.501 . S
C318 H319 0.961 . S
C318 H320 0.961 . S
C318 H321 0.960 . S
H319 C318 0.961 . S
H320 C318 0.961 . S
H321 C318 0.960 . S
C322 N323 1.342 . S
C322 C326 1.401 . S
C322 C327 1.499 . S
N323 Co306 1.989 . S
N323 C322 1.342 . S
N323 N324 1.388 . S
N324 Co307 1.993 . S
N324 N323 1.388 . S
N324 C325 1.346 . S
C325 N324 1.346 . S
C325 C326 1.396 . S
C325 C335 1.510 . S
C326 C322 1.401 . S
C326 C325 1.396 . S
C327 C322 1.499 . S
C327 H328 0.959 . S
C327 H329 0.960 . S
C327 H330 0.961 . S
H328 C327 0.959 . S
H329 C327 0.960 . S
H330 C327 0.961 . S
O331 Co306 1.967 . S
O331 C339 1.258 . S
O332 Co307 1.941 . S
O332 C339 1.266 . S
H333 C335 0.959 . S
H334 C335 0.961 . S
C335 C325 1.510 . S
C335 H333 0.959 . S
C335 H334 0.961 . S
C335 H336 0.960 . S
H336 C335 0.960 . S
H337 N317 0.862 . S
O338 Co306 1.920 . S
O338 C311 1.289 . S
C339 O331 1.258 . S
C339 O332 1.266 . S
Co340 O343 1.970 . S
Co340 N357 1.989 . S
Co340 O365 1.967 . S
Co340 O372 1.920 . S
Co341 O344 1.966 . S
Co341 N350 2.022 . S
Co341 N358 1.993 . S
Co341 O366 1.941 . S
C342 O343 1.258 . S
C342 O344 1.263 . S
O343 Co340 1.970 . S
O343 C342 1.258 . S
O344 Co341 1.966 . S
O344 C342 1.263 . S
C345 O346 1.235 . S
C345 O372 1.289 . S
O346 C345 1.235 . S
C347 C349 1.400 . S
C347 N350 1.351 . S
C347 C352 1.501 . S
C348 C349 1.387 . S
C348 N351 1.341 . S
C349 C347 1.400 . S
C349 C348 1.387 . S
N350 Co341 2.022 . S
N350 C347 1.351 . S
N350 N351 1.365 . S
N351 C348 1.341 . S
N351 N350 1.365 . S
N351 H371 0.862 . S
C352 C347 1.501 . S
C352 H353 0.961 . S
C352 H354 0.961 . S
C352 H355 0.960 . S
H353 C352 0.961 . S
H354 C352 0.961 . S
H355 C352 0.960 . S
C356 N357 1.342 . S
C356 C360 1.401 . S
C356 C361 1.499 . S
N357 Co340 1.989 . S
N357 C356 1.342 . S
N357 N358 1.388 . S
N358 Co341 1.993 . S
N358 N357 1.388 . S
N358 C359 1.346 . S
C359 N358 1.346 . S
C359 C360 1.396 . S
C359 C369 1.510 . S
C360 C356 1.401 . S
C360 C359 1.396 . S
C361 C356 1.499 . S
C361 H362 0.959 . S
C361 H363 0.960 . S
C361 H364 0.961 . S
H362 C361 0.959 . S
H363 C361 0.960 . S
H364 C361 0.961 . S
O365 Co340 1.967 . S
O365 C373 1.258 . S
O366 Co341 1.941 . S
O366 C373 1.266 . S
H367 C369 0.959 . S
H368 C369 0.961 . S
C369 C359 1.510 . S
C369 H367 0.959 . S
C369 H368 0.961 . S
C369 H370 0.960 . S
H370 C369 0.960 . S
H371 N351 0.862 . S
O372 Co340 1.920 . S
O372 C345 1.289 . S
C373 O365 1.258 . S
C373 O366 1.266 . S
Co374 O377 1.970 . S
Co374 N391 1.989 . S
Co374 O399 1.967 . S
Co374 O406 1.920 . S
Co375 O378 1.966 . S
Co375 N384 2.022 . S
Co375 N392 1.993 . S
Co375 O400 1.941 . S
C376 O377 1.258 . S
C376 O378 1.263 . S
O377 Co374 1.970 . S
O377 C376 1.258 . S
O378 Co375 1.966 . S
O378 C376 1.263 . S
C379 O380 1.235 . S
C379 O406 1.289 . S
O380 C379 1.235 . S
C381 C383 1.400 . S
C381 N384 1.351 . S
C381 C386 1.501 . S
C382 C383 1.387 . S
C382 N385 1.341 . S
C383 C381 1.400 . S
C383 C382 1.387 . S
N384 Co375 2.022 . S
N384 C381 1.351 . S
N384 N385 1.365 . S
N385 C382 1.341 . S
N385 N384 1.365 . S
N385 H405 0.862 . S
C386 C381 1.501 . S
C386 H387 0.961 . S
C386 H388 0.961 . S
C386 H389 0.960 . S
H387 C386 0.961 . S
H388 C386 0.961 . S
H389 C386 0.960 . S
C390 N391 1.342 . S
C390 C394 1.401 . S
C390 C395 1.499 . S
N391 Co374 1.989 . S
N391 C390 1.342 . S
N391 N392 1.388 . S
N392 Co375 1.993 . S
N392 N391 1.388 . S
N392 C393 1.346 . S
C393 N392 1.346 . S
C393 C394 1.396 . S
C393 C403 1.510 . S
C394 C390 1.401 . S
C394 C393 1.396 . S
C395 C390 1.499 . S
C395 H396 0.959 . S
C395 H397 0.960 . S
C395 H398 0.961 . S
H396 C395 0.959 . S
H397 C395 0.960 . S
H398 C395 0.961 . S
O399 Co374 1.967 . S
O399 C407 1.258 . S
O400 Co375 1.941 . S
O400 C407 1.266 . S
H401 C403 0.959 . S
H402 C403 0.961 . S
C403 C393 1.510 . S
C403 H401 0.959 . S
C403 H402 0.961 . S
C403 H404 0.960 . S
H404 C403 0.960 . S
H405 N385 0.862 . S
O406 Co374 1.920 . S
O406 C379 1.289 . S
C407 O399 1.258 . S
C407 O400 1.266 . S
H408 C416 0.929 . S
H409 C418 0.930 . S
H410 C420 0.930 . S
H411 C423 0.929 . S
H412 C426 0.930 . S
H413 C428 0.960 . S
H414 C428 0.960 . S
H415 C428 0.960 . S
C416 H408 0.929 . S
C416 C417 1.377 . S
C416 C418 1.384 . S
C417 C416 1.377 . S
C417 C423 1.390 . S
C418 H409 0.930 . S
C418 C416 1.384 . S
C418 C419 1.372 . S
C419 C418 1.372 . S
C419 C420 1.400 . S
C419 C424 1.490 . S
C420 H410 0.930 . S
C420 C419 1.400 . S
C420 C423 1.386 . S
H421 C437 0.930 . S
H422 C438 0.931 . S
C423 H411 0.929 . S
C423 C417 1.390 . S
C423 C420 1.386 . S
C424 C419 1.490 . S
C424 C426 1.395 . S
C424 C427 1.403 . S
H425 C431 0.930 . S
C426 H412 0.930 . S
C426 C424 1.395 . S
C426 C429 1.403 . S
C427 C424 1.403 . S
C427 C428 1.524 . S
C427 C431 1.400 . S
C428 H413 0.960 . S
C428 H414 0.960 . S
C428 H415 0.960 . S
C428 C427 1.524 . S
C429 C426 1.403 . S
C429 C430 1.392 . S
C429 C433 1.495 . S
C430 C429 1.392 . S
C430 C431 1.385 . S
C430 C432 1.478 . S
C431 H425 0.930 . S
C431 C427 1.400 . S
C431 C430 1.385 . S
C432 C430 1.478 . S
C432 C434 1.381 . S
C432 C438 1.383 . S
C433 C429 1.495 . S
C433 H439 0.959 . S
C433 H440 0.961 . S
C433 H441 0.960 . S
C434 C432 1.381 . S
C434 C435 1.394 . S
C434 H442 0.930 . S
C435 C434 1.394 . S
C435 C436 1.383 . S
C435 H443 0.929 . S
C436 C435 1.383 . S
C436 C437 1.377 . S
C437 H421 0.930 . S
C437 C436 1.377 . S
C437 C438 1.379 . S
C438 H422 0.931 . S
C438 C432 1.383 . S
C438 C437 1.379 . S
H439 C433 0.959 . S
H440 C433 0.961 . S
H441 C433 0.960 . S
H442 C434 0.930 . S
H443 C435 0.929 . S
H444 C452 0.929 . S
H445 C454 0.930 . S
H446 C456 0.930 1_655 S
H447 C459 0.929 . S
H448 C462 0.930 . S
H449 C464 0.960 . S
H450 C464 0.960 1_455 S
H451 C464 0.960 . S
C452 H444 0.929 . S
C452 C453 1.377 . S
C452 C454 1.384 . S
C453 C452 1.377 . S
C453 C459 1.390 . S
C454 H445 0.930 . S
C454 C452 1.384 . S
C454 C455 1.372 . S
C455 C454 1.372 . S
C455 C456 1.400 . S
C455 C460 1.490 . S
C456 H446 0.930 1_455 S
C456 C455 1.400 . S
C456 C459 1.386 . S
H457 C473 0.930 . S
H458 C474 0.931 . S
C459 H447 0.929 . S
C459 C453 1.390 . S
C459 C456 1.386 . S
C460 C455 1.490 . S
C460 C462 1.395 . S
C460 C463 1.411 . S
H461 C467 0.930 . S
C462 H448 0.930 . S
C462 C460 1.395 . S
C462 C465 1.403 . S
C463 C460 1.411 . S
C463 C464 1.526 1_455 S
C463 C467 1.389 1_455 S
C464 H449 0.960 . S
C464 H450 0.960 1_655 S
C464 H451 0.960 . S
C464 C463 1.526 1_655 S
C465 C462 1.403 . S
C465 C466 1.392 1_455 S
C465 C469 1.495 . S
C466 C465 1.392 1_655 S
C466 C467 1.385 . S
C466 C468 1.478 . S
C467 H461 0.930 . S
C467 C463 1.389 1_655 S
C467 C466 1.385 . S
C468 C466 1.478 . S
C468 C470 1.381 . S
C468 C474 1.383 . S
C469 C465 1.495 . S
C469 H475 0.959 . S
C469 H476 0.961 1_455 S
C469 H477 0.960 . S
C470 C468 1.381 . S
C470 C471 1.394 . S
C470 H478 0.930 1_655 S
C471 C470 1.394 . S
C471 C472 1.383 . S
C471 H479 0.929 . S
C472 C471 1.383 . S
C472 C473 1.377 . S
C473 H457 0.930 . S
C473 C472 1.377 . S
C473 C474 1.379 . S
C474 H458 0.931 . S
C474 C468 1.383 . S
C474 C473 1.379 . S
H475 C469 0.959 . S
H476 C469 0.961 1_655 S
H477 C469 0.960 . S
H478 C470 0.930 1_455 S
H479 C471 0.929 . S
H480 C488 0.929 . S
H481 C490 0.924 1_565 S
H482 C492 0.930 . S
H483 C495 0.929 . S
H484 C498 0.930 . S
H485 C500 0.960 . S
H486 C500 0.960 . S
H487 C500 0.960 1_545 S
C488 H480 0.929 . S
C488 C489 1.377 . S
C488 C490 1.384 . S
C489 C488 1.377 . S
C489 C495 1.390 . S
C490 H481 0.924 1_545 S
C490 C488 1.384 . S
C490 C491 1.372 . S
C491 C490 1.372 . S
C491 C492 1.400 . S
C491 C496 1.490 . S
C492 H482 0.930 . S
C492 C491 1.400 . S
C492 C495 1.386 . S
H493 C509 0.930 . S
H494 C510 0.931 1_545 S
C495 H483 0.929 . S
C495 C489 1.390 . S
C495 C492 1.386 . S
C496 C491 1.490 . S
C496 C498 1.395 . S
C496 C499 1.403 1_545 S
H497 C503 0.930 . S
C498 H484 0.930 . S
C498 C496 1.395 . S
C498 C501 1.400 . S
C499 C496 1.403 1_565 S
C499 C500 1.524 . S
C499 C503 1.400 . S
C500 H485 0.960 . S
C500 H486 0.960 . S
C500 H487 0.960 1_565 S
C500 C499 1.524 . S
C501 C498 1.400 . S
C501 C502 1.388 1_545 S
C501 C505 1.503 . S
C502 C501 1.388 1_565 S
C502 C503 1.385 . S
C502 C504 1.478 . S
C503 H497 0.930 . S
C503 C499 1.400 . S
C503 C502 1.385 . S
C504 C502 1.478 . S
C504 C506 1.381 . S
C504 C510 1.383 . S
C505 C501 1.503 . S
C505 H511 0.959 . S
C505 H512 0.961 . S
C505 H513 0.960 1_545 S
C506 C504 1.381 . S
C506 C507 1.394 . S
C506 H514 0.930 . S
C507 C506 1.394 . S
C507 C508 1.383 . S
C507 H515 0.929 . S
C508 C507 1.383 . S
C508 C509 1.377 . S
C509 H493 0.930 . S
C509 C508 1.377 . S
C509 C510 1.379 . S
C510 H494 0.931 1_565 S
C510 C504 1.383 . S
C510 C509 1.379 . S
H511 C505 0.959 . S
H512 C505 0.961 . S
H513 C505 0.960 1_565 S
H514 C506 0.930 . S
H515 C507 0.929 . S
H516 C524 0.929 . S
H517 C526 0.930 . S
H518 C528 0.930 . S
H519 C531 0.929 . S
H520 C534 0.930 . S
H521 C536 0.960 . S
H522 C536 0.960 . S
H523 C536 0.960 . S
C524 H516 0.929 . S
C524 C525 1.377 . S
C524 C526 1.384 . S
C525 C524 1.377 . S
C525 C531 1.390 . S
C526 H517 0.930 . S
C526 C524 1.384 . S
C526 C527 1.372 . S
C527 C526 1.372 . S
C527 C528 1.400 . S
C527 C532 1.490 . S
C528 H518 0.930 . S
C528 C527 1.400 . S
C528 C531 1.386 . S
H529 C545 0.930 . S
H530 C546 0.931 . S
C531 H519 0.929 . S
C531 C525 1.390 . S
C531 C528 1.386 . S
C532 C527 1.490 . S
C532 C534 1.395 . S
C532 C535 1.403 . S
H533 C539 0.930 . S
C534 H520 0.930 . S
C534 C532 1.395 . S
C534 C537 1.403 . S
C535 C532 1.403 . S
C535 C536 1.524 . S
C535 C539 1.400 . S
C536 H521 0.960 . S
C536 H522 0.960 . S
C536 H523 0.960 . S
C536 C535 1.524 . S
C537 C534 1.403 . S
C537 C538 1.392 . S
C537 C541 1.495 . S
C538 C537 1.392 . S
C538 C539 1.385 . S
C538 C540 1.478 . S
C539 H533 0.930 . S
C539 C535 1.400 . S
C539 C538 1.385 . S
C540 C538 1.478 . S
C540 C542 1.381 . S
C540 C546 1.383 . S
C541 C537 1.495 . S
C541 H547 0.959 . S
C541 H548 0.961 . S
C541 H549 0.960 . S
C542 C540 1.381 . S
C542 C543 1.394 . S
C542 H550 0.930 . S
C543 C542 1.394 . S
C543 C544 1.383 . S
C543 H551 0.929 . S
C544 C543 1.383 . S
C544 C545 1.377 . S
C545 H529 0.930 . S
C545 C544 1.377 . S
C545 C546 1.379 . S
C546 H530 0.931 . S
C546 C540 1.383 . S
C546 C545 1.379 . S
H547 C541 0.959 . S
H548 C541 0.961 . S
H549 C541 0.960 . S
H550 C542 0.930 . S
H551 C543 0.929 . S
H552 C560 0.929 . S
H553 C562 0.930 . S
H554 C564 0.930 . S
H555 C567 0.929 . S
H556 C570 0.930 . S
H557 C572 0.960 . S
H558 C572 0.960 . S
H559 C572 0.960 . S
C560 H552 0.929 . S
C560 C561 1.377 . S
C560 C562 1.384 . S
C561 C560 1.377 . S
C561 C567 1.390 . S
C562 H553 0.930 . S
C562 C560 1.384 . S
C562 C563 1.372 . S
C563 C562 1.372 . S
C563 C564 1.400 . S
C563 C568 1.490 . S
C564 H554 0.930 . S
C564 C563 1.400 . S
C564 C567 1.386 . S
H565 C581 0.930 . S
H566 C582 0.931 . S
C567 H555 0.929 . S
C567 C561 1.390 . S
C567 C564 1.386 . S
C568 C563 1.490 . S
C568 C570 1.395 . S
C568 C571 1.403 1_655 S
H569 C575 0.930 . S
C570 H556 0.930 . S
C570 C568 1.395 . S
C570 C573 1.403 . S
C571 C568 1.403 1_455 S
C571 C572 1.524 . S
C571 C575 1.400 . S
C572 H557 0.960 . S
C572 H558 0.960 . S
C572 H559 0.960 . S
C572 C571 1.524 . S
C573 C570 1.403 . S
C573 C574 1.392 1_655 S
C573 C577 1.495 . S
C574 C573 1.392 1_455 S
C574 C575 1.385 . S
C574 C576 1.478 . S
C575 H569 0.930 . S
C575 C571 1.400 . S
C575 C574 1.385 . S
C576 C574 1.478 . S
C576 C578 1.381 . S
C576 C582 1.383 . S
C577 C573 1.495 . S
C577 H583 0.959 . S
C577 H584 0.961 . S
C577 H585 0.960 . S
C578 C576 1.381 . S
C578 C579 1.394 . S
C578 H586 0.930 . S
C579 C578 1.394 . S
C579 C580 1.383 . S
C579 H587 0.929 . S
C580 C579 1.383 . S
C580 C581 1.377 . S
C581 H565 0.930 . S
C581 C580 1.377 . S
C581 C582 1.379 . S
C582 H566 0.931 . S
C582 C576 1.383 . S
C582 C581 1.379 . S
H583 C577 0.959 . S
H584 C577 0.961 . S
H585 C577 0.960 . S
H586 C578 0.930 . S
H587 C579 0.929 . S
H588 C596 0.929 . S
H589 C598 0.930 . S
H590 C600 0.930 . S
H591 C603 0.929 . S
H592 C606 0.930 . S
H593 C608 0.960 . S
H594 C608 0.960 . S
H595 C608 0.960 . S
C596 H588 0.929 . S
C596 C597 1.377 . S
C596 C598 1.384 . S
C597 C596 1.377 . S
C597 C603 1.390 . S
C598 H589 0.930 . S
C598 C596 1.384 . S
C598 C599 1.372 . S
C599 C598 1.372 . S
C599 C600 1.400 . S
C599 C604 1.490 . S
C600 H590 0.930 . S
C600 C599 1.400 . S
C600 C603 1.386 . S
H601 C617 0.930 . S
H602 C618 0.931 . S
C603 H591 0.929 . S
C603 C597 1.390 . S
C603 C600 1.386 . S
C604 C599 1.490 . S
C604 C606 1.395 1_565 S
C604 C607 1.403 . S
H605 C611 0.930 . S
C606 H592 0.930 . S
C606 C604 1.395 1_545 S
C606 C609 1.403 . S
C607 C604 1.403 . S
C607 C608 1.524 . S
C607 C611 1.400 . S
C608 H593 0.960 . S
C608 H594 0.960 . S
C608 H595 0.960 . S
C608 C607 1.524 . S
C609 C606 1.403 . S
C609 C610 1.392 . S
C609 C613 1.495 . S
C610 C609 1.392 . S
C610 C611 1.385 1_545 S
C610 C612 1.478 . S
C611 H605 0.930 . S
C611 C607 1.400 . S
C611 C610 1.385 1_565 S
C612 C610 1.478 . S
C612 C614 1.381 . S
C612 C618 1.383 . S
C613 C609 1.495 . S
C613 H619 0.959 . S
C613 H620 0.961 . S
C613 H621 0.960 . S
C614 C612 1.381 . S
C614 C615 1.394 . S
C614 H622 0.930 . S
C615 C614 1.394 . S
C615 C616 1.383 . S
C615 H623 0.929 . S
C616 C615 1.383 . S
C616 C617 1.377 . S
C617 H601 0.930 . S
C617 C616 1.377 . S
C617 C618 1.379 . S
C618 H602 0.931 . S
C618 C612 1.383 . S
C618 C617 1.379 . S
H619 C613 0.959 . S
H620 C613 0.961 . S
H621 C613 0.960 . S
H622 C614 0.930 . S
H623 C615 0.929 . S
H624 C632 0.929 . S
H625 C634 0.930 . S
H626 C636 0.930 . S
H627 C639 0.929 . S
H628 C642 0.930 . S
H629 C644 0.960 1_554 S
H630 C644 0.960 . S
H631 C644 0.967 . S
C632 H624 0.929 . S
C632 C633 1.377 . S
C632 C634 1.384 . S
C633 C632 1.377 . S
C633 C639 1.390 . S
C634 H625 0.930 . S
C634 C632 1.384 . S
C634 C635 1.372 . S
C635 C634 1.372 . S
C635 C636 1.400 . S
C635 C640 1.490 . S
C636 H626 0.930 . S
C636 C635 1.400 . S
C636 C639 1.386 . S
H637 C653 0.930 . S
H638 C654 0.931 . S
C639 H627 0.929 . S
C639 C633 1.390 . S
C639 C636 1.386 . S
C640 C635 1.490 . S
C640 C642 1.395 . S
C640 C643 1.403 . S
H641 C647 0.930 . S
C642 H628 0.930 . S
C642 C640 1.395 . S
C642 C645 1.397 1_566 S
C643 C640 1.403 . S
C643 C644 1.524 . S
C643 C647 1.400 1_566 S
C644 H629 0.960 1_556 S
C644 H630 0.960 . S
C644 H631 0.967 . S
C644 C643 1.524 . S
C645 C642 1.397 1_544 S
C645 C646 1.398 . S
C645 C649 1.493 . S
C646 C645 1.398 . S
C646 C647 1.385 . S
C646 C648 1.478 . S
C647 H641 0.930 . S
C647 C643 1.400 1_544 S
C647 C646 1.385 . S
C648 C646 1.478 . S
C648 C650 1.381 . S
C648 C654 1.383 . S
C649 C645 1.493 . S
C649 H655 0.907 1_554 S
C649 H656 1.043 . S
C649 H657 0.940 1_554 S
C650 C648 1.381 . S
C650 C651 1.394 . S
C650 H658 0.930 . S
C651 C650 1.394 . S
C651 C652 1.383 . S
C651 H659 0.929 . S
C652 C651 1.383 . S
C652 C653 1.377 . S
C653 H637 0.930 . S
C653 C652 1.377 . S
C653 C654 1.379 . S
C654 H638 0.931 . S
C654 C648 1.383 . S
C654 C653 1.379 . S
H655 C649 0.907 1_556 S
H656 C649 1.043 . S
H657 C649 0.940 1_556 S
H658 C650 0.930 . S
H659 C651 0.929 . S
H660 C668 0.929 . S
H661 C670 0.930 . S
H662 C672 0.930 . S
H663 C675 0.929 . S
H664 C678 0.930 . S
H665 C680 0.960 . S
H666 C680 0.960 . S
H667 C680 0.960 . S
C668 H660 0.929 . S
C668 C669 1.377 . S
C668 C670 1.384 . S
C669 C668 1.377 . S
C669 C675 1.390 . S
C670 H661 0.930 . S
C670 C668 1.384 . S
C670 C671 1.372 . S
C671 C670 1.372 . S
C671 C672 1.400 . S
C671 C676 1.490 . S
C672 H662 0.930 . S
C672 C671 1.400 . S
C672 C675 1.386 . S
H673 C689 0.930 . S
H674 C690 0.931 . S
C675 H663 0.929 . S
C675 C669 1.390 . S
C675 C672 1.386 . S
C676 C671 1.490 . S
C676 C678 1.395 . S
C676 C679 1.403 . S
H677 C683 0.930 . S
C678 H664 0.930 . S
C678 C676 1.395 . S
C678 C681 1.403 . S
C679 C676 1.403 . S
C679 C680 1.524 . S
C679 C683 1.400 . S
C680 H665 0.960 . S
C680 H666 0.960 . S
C680 H667 0.960 . S
C680 C679 1.524 . S
C681 C678 1.403 . S
C681 C682 1.392 . S
C681 C685 1.495 . S
C682 C681 1.392 . S
C682 C683 1.385 . S
C682 C684 1.478 . S
C683 H677 0.930 . S
C683 C679 1.400 . S
C683 C682 1.385 . S
C684 C682 1.478 . S
C684 C686 1.381 . S
C684 C690 1.383 . S
C685 C681 1.495 . S
C685 H691 0.959 . S
C685 H692 0.961 . S
C685 H693 0.960 . S
C686 C684 1.381 . S
C686 C687 1.394 . S
C686 H694 0.930 . S
C687 C686 1.394 . S
C687 C688 1.383 . S
C687 H695 0.929 . S
C688 C687 1.383 . S
C688 C689 1.377 . S
C689 H673 0.930 . S
C689 C688 1.377 . S
C689 C690 1.379 . S
C690 H674 0.931 . S
C690 C684 1.383 . S
C690 C689 1.379 . S
H691 C685 0.959 . S
H692 C685 0.961 . S
H693 C685 0.960 . S
H694 C686 0.930 . S
H695 C687 0.929 . S
H696 C704 0.929 . S
H697 C706 0.930 . S
H698 C708 0.930 . S
H699 C711 0.929 . S
H700 C714 0.930 . S
H701 C716 0.960 . S
H702 C716 0.960 . S
H703 C716 0.960 . S
C704 H696 0.929 . S
C704 C705 1.377 . S
C704 C706 1.384 . S
C705 C704 1.377 . S
C705 C711 1.390 . S
C706 H697 0.930 . S
C706 C704 1.384 . S
C706 C707 1.372 . S
C707 C706 1.372 . S
C707 C708 1.400 . S
C707 C712 1.490 . S
C708 H698 0.930 . S
C708 C707 1.400 . S
C708 C711 1.386 . S
H709 C725 0.930 . S
H710 C726 0.931 . S
C711 H699 0.929 . S
C711 C705 1.390 . S
C711 C708 1.386 . S
C712 C707 1.490 . S
C712 C714 1.395 . S
C712 C715 1.403 . S
H713 C719 0.930 . S
C714 H700 0.930 . S
C714 C712 1.395 . S
C714 C717 1.403 1_455 S
C715 C712 1.403 . S
C715 C716 1.524 . S
C715 C719 1.400 1_455 S
C716 H701 0.960 . S
C716 H702 0.960 . S
C716 H703 0.960 . S
C716 C715 1.524 . S
C717 C714 1.403 1_655 S
C717 C718 1.392 . S
C717 C721 1.495 . S
C718 C717 1.392 . S
C718 C719 1.385 . S
C718 C720 1.478 . S
C719 H713 0.930 . S
C719 C715 1.400 1_655 S
C719 C718 1.385 . S
C720 C718 1.478 . S
C720 C722 1.381 . S
C720 C726 1.383 . S
C721 C717 1.495 . S
C721 H727 0.959 . S
C721 H728 0.961 . S
C721 H729 0.960 . S
C722 C720 1.381 . S
C722 C723 1.394 . S
C722 H730 0.930 . S
C723 C722 1.394 . S
C723 C724 1.383 . S
C723 H731 0.929 . S
C724 C723 1.383 . S
C724 C725 1.377 . S
C725 H709 0.930 . S
C725 C724 1.377 . S
C725 C726 1.379 . S
C726 H710 0.931 . S
C726 C720 1.383 . S
C726 C725 1.379 . S
H727 C721 0.959 . S
H728 C721 0.961 . S
H729 C721 0.960 . S
H730 C722 0.930 . S
H731 C723 0.929 . S
H732 C740 0.929 . S
H733 C742 0.930 . S
H734 C744 0.930 . S
H735 C747 0.929 . S
H736 C750 0.937 . S
H737 C752 0.960 1_545 S
H738 C752 0.960 . S
H739 C752 0.960 . S
C740 H732 0.929 . S
C740 C741 1.377 . S
C740 C742 1.384 . S
C741 C740 1.377 . S
C741 C747 1.390 . S
C742 H733 0.930 . S
C742 C740 1.384 . S
C742 C743 1.372 . S
C743 C742 1.372 . S
C743 C744 1.400 . S
C743 C748 1.490 . S
C744 H734 0.930 . S
C744 C743 1.400 . S
C744 C747 1.386 . S
H745 C761 0.930 . S
H746 C762 0.931 . S
C747 H735 0.929 . S
C747 C741 1.390 . S
C747 C744 1.386 . S
C748 C743 1.490 . S
C748 C750 1.422 . S
C748 C751 1.403 . S
H749 C755 0.930 . S
C750 H736 0.937 . S
C750 C748 1.422 . S
C750 C753 1.372 1_564 S
C751 C748 1.403 . S
C751 C752 1.524 . S
C751 C755 1.400 1_564 S
C752 H737 0.960 1_565 S
C752 H738 0.960 . S
C752 H739 0.960 . S
C752 C751 1.524 . S
C753 C750 1.372 1_546 S
C753 C754 1.392 . S
C753 C757 1.495 . S
C754 C753 1.392 . S
C754 C755 1.385 . S
C754 C756 1.478 . S
C755 H749 0.930 . S
C755 C751 1.400 1_546 S
C755 C754 1.385 . S
C756 C754 1.478 . S
C756 C758 1.381 . S
C756 C762 1.383 . S
C757 C753 1.495 . S
C757 H763 0.959 1_545 S
C757 H764 0.961 . S
C757 H765 0.960 . S
C758 C756 1.381 . S
C758 C759 1.394 . S
C758 H766 0.930 . S
C759 C758 1.394 . S
C759 C760 1.383 . S
C759 H767 0.929 . S
C760 C759 1.383 . S
C760 C761 1.377 . S
C761 H745 0.930 . S
C761 C760 1.377 . S
C761 C762 1.379 . S
C762 H746 0.931 . S
C762 C756 1.383 . S
C762 C761 1.379 . S
H763 C757 0.959 1_565 S
H764 C757 0.961 . S
H765 C757 0.960 . S
H766 C758 0.930 . S
H767 C759 0.929 . S
H768 C776 0.929 . S
H769 C778 0.930 . S
H770 C780 0.930 . S
H771 C783 0.929 . S
H772 C786 0.930 . S
H773 C788 0.960 . S
H774 C788 0.960 . S
H775 C788 0.960 . S
C776 H768 0.929 . S
C776 C777 1.377 . S
C776 C778 1.384 . S
C777 C776 1.377 . S
C777 C783 1.390 . S
C778 H769 0.930 . S
C778 C776 1.384 . S
C778 C779 1.372 . S
C779 C778 1.372 . S
C779 C780 1.400 . S
C779 C784 1.490 . S
C780 H770 0.930 . S
C780 C779 1.400 . S
C780 C783 1.386 . S
H781 C797 0.930 . S
H782 C798 0.931 . S
C783 H771 0.929 . S
C783 C777 1.390 . S
C783 C780 1.386 . S
C784 C779 1.490 . S
C784 C786 1.395 . S
C784 C787 1.403 . S
H785 C791 0.930 . S
C786 H772 0.930 . S
C786 C784 1.395 . S
C786 C789 1.403 . S
C787 C784 1.403 . S
C787 C788 1.524 . S
C787 C791 1.400 . S
C788 H773 0.960 . S
C788 H774 0.960 . S
C788 H775 0.960 . S
C788 C787 1.524 . S
C789 C786 1.403 . S
C789 C790 1.392 . S
C789 C793 1.495 . S
C790 C789 1.392 . S
C790 C791 1.385 . S
C790 C792 1.478 . S
C791 H785 0.930 . S
C791 C787 1.400 . S
C791 C790 1.385 . S
C792 C790 1.478 . S
C792 C794 1.381 . S
C792 C798 1.383 . S
C793 C789 1.495 . S
C793 H799 0.959 . S
C793 H800 0.961 . S
C793 H801 0.960 . S
C794 C792 1.381 . S
C794 C795 1.394 . S
C794 H802 0.930 . S
C795 C794 1.394 . S
C795 C796 1.383 . S
C795 H803 0.929 . S
C796 C795 1.383 . S
C796 C797 1.377 . S
C797 H781 0.930 . S
C797 C796 1.377 . S
C797 C798 1.379 . S
C798 H782 0.931 . S
C798 C792 1.383 . S
C798 C797 1.379 . S
H799 C793 0.959 . S
H800 C793 0.961 . S
H801 C793 0.960 . S
H802 C794 0.930 . S
H803 C795 0.929 . S
H804 C812 0.929 . S
H805 C814 0.930 . S
H806 C816 0.930 . S
H807 C819 0.929 . S
H808 C822 0.930 . S
H809 C824 0.960 1_655 S
H810 C824 0.960 . S
H811 C824 0.960 . S
C812 H804 0.929 . S
C812 C813 1.377 . S
C812 C814 1.384 . S
C813 C812 1.377 . S
C813 C819 1.390 . S
C814 H805 0.930 . S
C814 C812 1.384 . S
C814 C815 1.372 . S
C815 C814 1.372 . S
C815 C816 1.400 . S
C815 C820 1.490 . S
C816 H806 0.930 . S
C816 C815 1.400 . S
C816 C819 1.386 . S
H817 C833 0.930 . S
H818 C834 0.931 . S
C819 H807 0.929 . S
C819 C813 1.390 . S
C819 C816 1.386 . S
C820 C815 1.490 . S
C820 C822 1.395 . S
C820 C823 1.403 . S
H821 C827 0.930 . S
C822 H808 0.930 . S
C822 C820 1.395 . S
C822 C825 1.403 1_455 S
C823 C820 1.403 . S
C823 C824 1.524 . S
C823 C827 1.400 1_455 S
C824 H809 0.960 1_455 S
C824 H810 0.960 . S
C824 H811 0.960 . S
C824 C823 1.524 . S
C825 C822 1.403 1_655 S
C825 C826 1.392 . S
C825 C829 1.495 . S
C826 C825 1.392 . S
C826 C827 1.385 . S
C826 C828 1.478 . S
C827 H821 0.930 . S
C827 C823 1.400 1_655 S
C827 C826 1.385 . S
C828 C826 1.478 . S
C828 C830 1.381 . S
C828 C834 1.383 . S
C829 C825 1.495 . S
C829 H835 0.959 1_655 S
C829 H836 0.961 . S
C829 H837 0.960 . S
C830 C828 1.381 . S
C830 C831 1.394 . S
C830 H838 0.930 . S
C831 C830 1.394 . S
C831 C832 1.383 . S
C831 H839 0.929 . S
C832 C831 1.383 . S
C832 C833 1.377 . S
C833 H817 0.930 . S
C833 C832 1.377 . S
C833 C834 1.379 . S
C834 H818 0.931 . S
C834 C828 1.383 . S
C834 C833 1.379 . S
H835 C829 0.959 1_455 S
H836 C829 0.961 . S
H837 C829 0.960 . S
H838 C830 0.930 . S
H839 C831 0.929 . S
H840 C848 0.929 . S
H841 C850 0.930 . S
H842 C852 0.930 . S
H843 C855 0.929 . S
H844 C858 0.930 . S
H845 C860 0.960 . S
H846 C860 0.960 . S
H847 C860 0.960 . S
C848 H840 0.929 . S
C848 C849 1.377 . S
C848 C850 1.384 . S
C849 C848 1.377 . S
C849 C855 1.390 . S
C850 H841 0.930 . S
C850 C848 1.384 . S
C850 C851 1.372 . S
C851 C850 1.372 . S
C851 C852 1.400 . S
C851 C856 1.490 . S
C852 H842 0.930 . S
C852 C851 1.400 . S
C852 C855 1.386 . S
H853 C869 0.930 . S
H854 C870 0.931 . S
C855 H843 0.929 . S
C855 C849 1.390 . S
C855 C852 1.386 . S
C856 C851 1.490 . S
C856 C858 1.395 1_545 S
C856 C859 1.403 . S
H857 C863 0.930 . S
C858 H844 0.930 . S
C858 C856 1.395 1_565 S
C858 C861 1.403 1_455 S
C859 C856 1.403 . S
C859 C860 1.524 . S
C859 C863 1.400 1_455 S
C860 H845 0.960 . S
C860 H846 0.960 . S
C860 H847 0.960 . S
C860 C859 1.524 . S
C861 C858 1.403 1_655 S
C861 C862 1.392 . S
C861 C865 1.495 . S
C862 C861 1.392 . S
C862 C863 1.385 1_565 S
C862 C864 1.478 . S
C863 H857 0.930 . S
C863 C859 1.400 1_655 S
C863 C862 1.385 1_545 S
C864 C862 1.478 . S
C864 C866 1.381 . S
C864 C870 1.383 . S
C865 C861 1.495 . S
C865 H871 0.959 . S
C865 H872 0.961 . S
C865 H873 0.960 . S
C866 C864 1.381 . S
C866 C867 1.394 . S
C866 H874 0.930 . S
C867 C866 1.394 . S
C867 C868 1.383 . S
C867 H875 0.929 . S
C868 C867 1.383 . S
C868 C869 1.377 . S
C869 H853 0.930 . S
C869 C868 1.377 . S
C869 C870 1.379 . S
C870 H854 0.931 . S
C870 C864 1.383 . S
C870 C869 1.379 . S
H871 C865 0.959 . S
H872 C865 0.961 . S
H873 C865 0.960 . S
H874 C866 0.930 . S
H875 C867 0.929 . S
H876 C884 0.929 . S
H877 C886 0.930 . S
H878 C888 0.930 . S
H879 C891 0.929 . S
H880 C894 0.930 . S
H881 C896 0.960 . S
H882 C896 0.960 . S
H883 C896 0.960 1_455 S
C884 H876 0.929 . S
C884 C885 1.377 . S
C884 C886 1.384 . S
C885 C884 1.377 . S
C885 C891 1.390 . S
C886 H877 0.930 . S
C886 C884 1.384 . S
C886 C887 1.372 . S
C887 C886 1.372 . S
C887 C888 1.400 . S
C887 C892 1.490 . S
C888 H878 0.930 . S
C888 C887 1.400 . S
C888 C891 1.386 . S
H889 C905 0.930 . S
H890 C906 0.931 1_455 S
C891 H879 0.929 . S
C891 C885 1.390 . S
C891 C888 1.386 . S
C892 C887 1.490 . S
C892 C894 1.395 . S
C892 C895 1.403 1_455 S
H893 C899 0.930 . S
C894 H880 0.930 . S
C894 C892 1.395 . S
C894 C897 1.403 1_545 S
C895 C892 1.403 1_655 S
C895 C896 1.524 . S
C895 C899 1.400 1_545 S
C896 H881 0.960 . S
C896 H882 0.960 . S
C896 H883 0.960 1_655 S
C896 C895 1.524 . S
C897 C894 1.403 1_565 S
C897 C898 1.392 1_455 S
C897 C901 1.495 . S
C898 C897 1.392 1_655 S
C898 C899 1.385 . S
C898 C900 1.478 . S
C899 H893 0.930 . S
C899 C895 1.400 1_565 S
C899 C898 1.385 . S
C900 C898 1.478 . S
C900 C902 1.381 . S
C900 C906 1.383 . S
C901 C897 1.495 . S
C901 H907 0.959 . S
C901 H908 0.961 . S
C901 H909 0.960 1_455 S
C902 C900 1.381 . S
C902 C903 1.394 . S
C902 H910 0.930 . S
C903 C902 1.394 . S
C903 C904 1.383 . S
C903 H911 0.929 . S
C904 C903 1.383 . S
C904 C905 1.377 . S
C905 H889 0.930 . S
C905 C904 1.377 . S
C905 C906 1.379 . S
C906 H890 0.931 1_655 S
C906 C900 1.383 . S
C906 C905 1.379 . S
H907 C901 0.959 . S
H908 C901 0.961 . S
H909 C901 0.960 1_655 S
H910 C902 0.930 . S
H911 C903 0.929 . S
H912 C920 0.929 . S
H913 C922 0.930 . S
H914 C924 0.930 . S
H915 C927 0.929 . S
H916 C930 0.930 . S
H917 C932 0.960 . S
H918 C932 0.960 . S
H919 C932 0.960 . S
C920 H912 0.929 . S
C920 C921 1.377 . S
C920 C922 1.384 . S
C921 C920 1.377 . S
C921 C927 1.390 . S
C922 H913 0.930 . S
C922 C920 1.384 . S
C922 C923 1.372 . S
C923 C922 1.372 . S
C923 C924 1.400 . S
C923 C928 1.490 . S
C924 H914 0.930 . S
C924 C923 1.400 . S
C924 C927 1.386 . S
H925 C941 0.930 . S
H926 C942 0.931 . S
C927 H915 0.929 . S
C927 C921 1.390 . S
C927 C924 1.386 . S
C928 C923 1.490 . S
C928 C930 1.395 1_655 S
C928 C931 1.403 1_545 S
H929 C935 0.930 . S
C930 H916 0.930 . S
C930 C928 1.395 1_455 S
C930 C933 1.403 . S
C931 C928 1.403 1_565 S
C931 C932 1.524 . S
C931 C935 1.400 . S
C932 H917 0.960 . S
C932 H918 0.960 . S
C932 H919 0.960 . S
C932 C931 1.524 . S
C933 C930 1.403 . S
C933 C934 1.392 1_545 S
C933 C937 1.495 . S
C934 C933 1.392 1_565 S
C934 C935 1.385 1_455 S
C934 C936 1.478 . S
C935 H929 0.930 . S
C935 C931 1.400 . S
C935 C934 1.385 1_655 S
C936 C934 1.478 . S
C936 C938 1.381 . S
C936 C942 1.383 . S
C937 C933 1.495 . S
C937 H943 0.959 . S
C937 H944 0.961 . S
C937 H945 0.960 . S
C938 C936 1.381 . S
C938 C939 1.394 . S
C938 H946 0.930 . S
C939 C938 1.394 . S
C939 C940 1.383 . S
C939 H947 0.929 . S
C940 C939 1.383 . S
C940 C941 1.377 . S
C941 H925 0.930 . S
C941 C940 1.377 . S
C941 C942 1.379 . S
C942 H926 0.931 . S
C942 C936 1.383 . S
C942 C941 1.379 . S
H943 C937 0.959 . S
H944 C937 0.961 . S
H945 C937 0.960 . S
H946 C938 0.930 . S
H947 C939 0.929 . S
H948 C956 0.929 . S
H949 C958 0.930 . S
H950 C960 0.930 . S
H951 C963 0.929 . S
H952 C966 0.930 . S
H953 C968 0.960 . S
H954 C968 0.960 . S
H955 C968 0.960 . S
C956 H948 0.929 . S
C956 C957 1.377 . S
C956 C958 1.384 . S
C957 C956 1.377 . S
C957 C963 1.390 . S
C958 H949 0.930 . S
C958 C956 1.384 . S
C958 C959 1.372 . S
C959 C958 1.372 . S
C959 C960 1.400 . S
C959 C964 1.490 . S
C960 H950 0.930 . S
C960 C959 1.400 . S
C960 C963 1.386 . S
H961 C977 0.930 . S
H962 C978 0.931 . S
C963 H951 0.929 . S
C963 C957 1.390 . S
C963 C960 1.386 . S
C964 C959 1.490 . S
C964 C966 1.395 . S
C964 C967 1.403 . S
H965 C971 0.930 . S
C966 H952 0.930 . S
C966 C964 1.395 . S
C966 C969 1.403 1_665 S
C967 C964 1.403 . S
C967 C968 1.524 . S
C967 C971 1.400 1_665 S
C968 H953 0.960 . S
C968 H954 0.960 . S
C968 H955 0.960 . S
C968 C967 1.524 . S
C969 C966 1.403 1_445 S
C969 C970 1.392 . S
C969 C973 1.495 . S
C970 C969 1.392 . S
C970 C971 1.385 . S
C970 C972 1.478 . S
C971 H965 0.930 . S
C971 C967 1.400 1_445 S
C971 C970 1.385 . S
C972 C970 1.478 . S
C972 C974 1.381 . S
C972 C978 1.383 . S
C973 C969 1.495 . S
C973 H979 0.959 . S
C973 H980 0.961 . S
C973 H981 0.960 . S
C974 C972 1.381 . S
C974 C975 1.394 . S
C974 H982 0.930 . S
C975 C974 1.394 . S
C975 C976 1.383 . S
C975 H983 0.929 . S
C976 C975 1.383 . S
C976 C977 1.377 . S
C977 H961 0.930 . S
C977 C976 1.377 . S
C977 C978 1.379 . S
C978 H962 0.931 . S
C978 C972 1.383 . S
C978 C977 1.379 . S
H979 C973 0.959 . S
H980 C973 0.961 . S
H981 C973 0.960 . S
H982 C974 0.930 . S
H983 C975 0.929 . S
H984 C992 0.929 . S
H985 C994 0.930 . S
H986 C996 0.930 . S
H987 C999 0.929 . S
H988 C1002 0.930 . S
H989 C1004 0.960 . S
H990 C1004 0.960 . S
H991 C1004 0.960 . S
C992 H984 0.929 . S
C992 C993 1.377 . S
C992 C994 1.384 . S
C993 C992 1.377 . S
C993 C999 1.390 . S
C994 H985 0.930 . S
C994 C992 1.384 . S
C994 C995 1.372 . S
C995 C994 1.372 . S
C995 C996 1.400 . S
C995 C1000 1.490 . S
C996 H986 0.930 . S
C996 C995 1.400 . S
C996 C999 1.386 . S
H997 C1013 0.930 . S
H998 C1014 0.931 . S
C999 H987 0.929 . S
C999 C993 1.390 . S
C999 C996 1.386 . S
C1000 C995 1.490 . S
C1000 C1002 1.395 1_455 S
C1000 C1003 1.403 1_565 S
H1001 C1007 0.930 . S
C1002 H988 0.930 . S
C1002 C1000 1.395 1_655 S
C1002 C1005 1.403 . S
C1003 C1000 1.403 1_545 S
C1003 C1004 1.524 . S
C1003 C1007 1.400 . S
C1004 H989 0.960 . S
C1004 H990 0.960 . S
C1004 H991 0.960 . S
C1004 C1003 1.524 . S
C1005 C1002 1.403 . S
C1005 C1006 1.392 1_565 S
C1005 C1009 1.495 . S
C1006 C1005 1.392 1_545 S
C1006 C1007 1.385 1_655 S
C1006 C1008 1.478 . S
C1007 H1001 0.930 . S
C1007 C1003 1.400 . S
C1007 C1006 1.385 1_455 S
C1008 C1006 1.478 . S
C1008 C1010 1.381 . S
C1008 C1014 1.383 . S
C1009 C1005 1.495 . S
C1009 H1015 0.959 . S
C1009 H1016 0.961 . S
C1009 H1017 0.960 . S
C1010 C1008 1.381 . S
C1010 C1011 1.394 . S
C1010 H1018 0.930 . S
C1011 C1010 1.394 . S
C1011 C1012 1.383 . S
C1011 H1019 0.929 . S
C1012 C1011 1.383 . S
C1012 C1013 1.377 . S
C1013 H997 0.930 . S
C1013 C1012 1.377 . S
C1013 C1014 1.379 . S
C1014 H998 0.931 . S
C1014 C1008 1.383 . S
C1014 C1013 1.379 . S
H1015 C1009 0.959 . S
H1016 C1009 0.961 . S
H1017 C1009 0.960 . S
H1018 C1010 0.930 . S
H1019 C1011 0.929 . S
H1020 C1028 0.929 . S
H1021 C1030 0.930 . S
H1022 C1032 0.930 . S
H1023 C1035 0.929 . S
H1024 C1038 0.930 . S
H1025 C1040 0.960 . S
H1026 C1040 0.960 . S
H1027 C1040 0.960 . S
C1028 H1020 0.929 . S
C1028 C1029 1.377 . S
C1028 C1030 1.384 . S
C1029 C1028 1.377 . S
C1029 C1035 1.390 . S
C1030 H1021 0.930 . S
C1030 C1028 1.384 . S
C1030 C1031 1.372 . S
C1031 C1030 1.372 . S
C1031 C1032 1.400 . S
C1031 C1036 1.490 . S
C1032 H1022 0.930 . S
C1032 C1031 1.400 . S
C1032 C1035 1.386 . S
H1033 C1049 0.930 . S
H1034 C1050 0.931 . S
C1035 H1023 0.929 . S
C1035 C1029 1.390 . S
C1035 C1032 1.386 . S
C1036 C1031 1.490 . S
C1036 C1038 1.395 1_545 S
C1036 C1039 1.403 . S
H1037 C1043 0.930 . S
C1038 H1024 0.930 . S
C1038 C1036 1.395 1_565 S
C1038 C1041 1.403 1_455 S
C1039 C1036 1.403 . S
C1039 C1040 1.524 . S
C1039 C1043 1.400 1_455 S
C1040 H1025 0.960 . S
C1040 H1026 0.960 . S
C1040 H1027 0.960 . S
C1040 C1039 1.524 . S
C1041 C1038 1.403 1_655 S
C1041 C1042 1.392 . S
C1041 C1045 1.495 . S
C1042 C1041 1.392 . S
C1042 C1043 1.385 1_565 S
C1042 C1044 1.478 . S
C1043 H1037 0.930 . S
C1043 C1039 1.400 1_655 S
C1043 C1042 1.385 1_545 S
C1044 C1042 1.478 . S
C1044 C1046 1.381 . S
C1044 C1050 1.383 . S
C1045 C1041 1.495 . S
C1045 H1051 0.959 . S
C1045 H1052 0.961 . S
C1045 H1053 0.960 . S
C1046 C1044 1.381 . S
C1046 C1047 1.394 . S
C1046 H1054 0.930 . S
C1047 C1046 1.394 . S
C1047 C1048 1.383 . S
C1047 H1055 0.929 . S
C1048 C1047 1.383 . S
C1048 C1049 1.377 . S
C1049 H1033 0.930 . S
C1049 C1048 1.377 . S
C1049 C1050 1.379 . S
C1050 H1034 0.931 . S
C1050 C1044 1.383 . S
C1050 C1049 1.379 . S
H1051 C1045 0.959 . S
H1052 C1045 0.961 . S
H1053 C1045 0.960 . S
H1054 C1046 0.930 . S
H1055 C1047 0.929 . S
H1056 C1064 0.933 . S
H1057 C1066 0.930 . S
H1058 C1068 0.930 . S
H1059 C1071 0.929 . S
H1060 C1074 0.930 . S
H1061 C1076 0.960 . S
H1062 C1076 0.960 . S
H1063 C1076 0.960 . S
C1064 H1056 0.933 . S
C1064 C1065 1.384 . S
C1064 C1066 1.374 1_655 S
C1065 C1064 1.384 . S
C1065 C1071 1.390 1_655 S
C1066 H1057 0.930 . S
C1066 C1064 1.374 1_455 S
C1066 C1067 1.372 . S
C1067 C1066 1.372 . S
C1067 C1068 1.400 . S
C1067 C1072 1.490 . S
C1068 H1058 0.930 . S
C1068 C1067 1.400 . S
C1068 C1071 1.386 . S
H1069 C1085 0.930 . S
H1070 C1086 0.931 . S
C1071 H1059 0.929 . S
C1071 C1065 1.390 1_455 S
C1071 C1068 1.386 . S
C1072 C1067 1.490 . S
C1072 C1074 1.395 . S
C1072 C1075 1.403 1_556 S
H1073 C1079 0.930 . S
C1074 H1060 0.930 . S
C1074 C1072 1.395 . S
C1074 C1077 1.403 . S
C1075 C1072 1.403 1_554 S
C1075 C1076 1.524 . S
C1075 C1079 1.400 . S
C1076 H1061 0.960 . S
C1076 H1062 0.960 . S
C1076 H1063 0.960 . S
C1076 C1075 1.524 . S
C1077 C1074 1.403 . S
C1077 C1078 1.392 1_556 S
C1077 C1081 1.495 . S
C1078 C1077 1.392 1_554 S
C1078 C1079 1.385 . S
C1078 C1080 1.478 . S
C1079 H1073 0.930 . S
C1079 C1075 1.400 . S
C1079 C1078 1.385 . S
C1080 C1078 1.478 . S
C1080 C1082 1.381 . S
C1080 C1086 1.383 . S
C1081 C1077 1.495 . S
C1081 H1087 0.959 . S
C1081 H1088 0.961 . S
C1081 H1089 0.960 . S
C1082 C1080 1.381 . S
C1082 C1083 1.394 . S
C1082 H1090 0.930 . S
C1083 C1082 1.394 . S
C1083 C1084 1.383 . S
C1083 H1091 0.929 . S
C1084 C1083 1.383 . S
C1084 C1085 1.377 . S
C1085 H1069 0.930 . S
C1085 C1084 1.377 . S
C1085 C1086 1.379 . S
C1086 H1070 0.931 . S
C1086 C1080 1.383 . S
C1086 C1085 1.379 . S
H1087 C1081 0.959 . S
H1088 C1081 0.961 . S
H1089 C1081 0.960 . S
H1090 C1082 0.930 . S
H1091 C1083 0.929 . S
H1092 C1100 0.929 . S
H1093 C1102 0.930 . S
H1094 C1104 0.930 . S
H1095 C1107 0.929 . S
H1096 C1110 0.930 . S
H1097 C1112 0.960 . S
H1098 C1112 0.960 . S
H1099 C1112 0.960 . S
C1100 H1092 0.929 . S
C1100 C1101 1.377 1_655 S
C1100 C1102 1.384 . S
C1101 C1100 1.377 1_455 S
C1101 C1107 1.390 . S
C1102 H1093 0.930 . S
C1102 C1100 1.384 . S
C1102 C1103 1.372 . S
C1103 C1102 1.372 . S
C1103 C1104 1.400 . S
C1103 C1108 1.490 . S
C1104 H1094 0.930 . S
C1104 C1103 1.400 . S
C1104 C1107 1.386 1_655 S
H1105 C1121 0.930 . S
H1106 C1122 0.931 . S
C1107 H1095 0.929 . S
C1107 C1101 1.390 . S
C1107 C1104 1.386 1_455 S
C1108 C1103 1.490 . S
C1108 C1110 1.395 . S
C1108 C1111 1.403 . S
H1109 C1115 0.930 . S
C1110 H1096 0.930 . S
C1110 C1108 1.395 . S
C1110 C1113 1.403 . S
C1111 C1108 1.403 . S
C1111 C1112 1.524 . S
C1111 C1115 1.400 . S
C1112 H1097 0.960 . S
C1112 H1098 0.960 . S
C1112 H1099 0.960 . S
C1112 C1111 1.524 . S
C1113 C1110 1.403 . S
C1113 C1114 1.392 . S
C1113 C1117 1.495 . S
C1114 C1113 1.392 . S
C1114 C1115 1.385 . S
C1114 C1116 1.478 . S
C1115 H1109 0.930 . S
C1115 C1111 1.400 . S
C1115 C1114 1.385 . S
C1116 C1114 1.478 . S
C1116 C1118 1.381 . S
C1116 C1122 1.383 . S
C1117 C1113 1.495 . S
C1117 H1123 0.959 . S
C1117 H1124 0.961 . S
C1117 H1125 0.960 . S
C1118 C1116 1.381 . S
C1118 C1119 1.394 . S
C1118 H1126 0.930 . S
C1119 C1118 1.394 . S
C1119 C1120 1.371 1_545 S
C1119 H1127 0.929 1_545 S
C1120 C1119 1.371 1_565 S
C1120 C1121 1.378 1_565 S
C1121 H1105 0.930 . S
C1121 C1120 1.378 1_545 S
C1121 C1122 1.379 . S
C1122 H1106 0.931 . S
C1122 C1116 1.383 . S
C1122 C1121 1.379 . S
H1123 C1117 0.959 . S
H1124 C1117 0.961 . S
H1125 C1117 0.960 . S
H1126 C1118 0.930 . S
H1127 C1119 0.929 1_565 S
H1128 C1136 0.929 . S
H1129 C1138 0.930 . S
H1130 C1140 0.930 . S
H1131 C1143 0.929 . S
H1132 C1146 0.930 . S
H1133 C1148 0.960 . S
H1134 C1148 0.960 . S
H1135 C1148 0.960 . S
C1136 H1128 0.929 . S
C1136 C1137 1.377 . S
C1136 C1138 1.384 . S
C1137 C1136 1.377 . S
C1137 C1143 1.390 . S
C1138 H1129 0.930 . S
C1138 C1136 1.384 . S
C1138 C1139 1.372 . S
C1139 C1138 1.372 . S
C1139 C1140 1.400 . S
C1139 C1144 1.490 . S
C1140 H1130 0.930 . S
C1140 C1139 1.400 . S
C1140 C1143 1.386 . S
H1141 C1157 0.930 . S
H1142 C1158 0.931 . S
C1143 H1131 0.929 . S
C1143 C1137 1.390 . S
C1143 C1140 1.386 . S
C1144 C1139 1.490 . S
C1144 C1146 1.395 . S
C1144 C1147 1.403 . S
H1145 C1151 0.930 . S
C1146 H1132 0.930 . S
C1146 C1144 1.395 . S
C1146 C1149 1.403 . S
C1147 C1144 1.403 . S
C1147 C1148 1.524 . S
C1147 C1151 1.400 . S
C1148 H1133 0.960 . S
C1148 H1134 0.960 . S
C1148 H1135 0.960 . S
C1148 C1147 1.524 . S
C1149 C1146 1.403 . S
C1149 C1150 1.392 . S
C1149 C1153 1.495 . S
C1150 C1149 1.392 . S
C1150 C1151 1.385 . S
C1150 C1152 1.478 . S
C1151 H1145 0.930 . S
C1151 C1147 1.400 . S
C1151 C1150 1.385 . S
C1152 C1150 1.478 . S
C1152 C1154 1.381 . S
C1152 C1158 1.383 . S
C1153 C1149 1.495 . S
C1153 H1159 0.959 . S
C1153 H1160 0.961 . S
C1153 H1161 0.960 . S
C1154 C1152 1.381 . S
C1154 C1155 1.394 . S
C1154 H1162 0.930 . S
C1155 C1154 1.394 . S
C1155 C1156 1.383 1_565 S
C1155 H1163 0.926 . S
C1156 C1155 1.383 1_545 S
C1156 C1157 1.357 1_545 S
C1157 H1141 0.930 . S
C1157 C1156 1.357 1_565 S
C1157 C1158 1.379 . S
C1158 H1142 0.931 . S
C1158 C1152 1.383 . S
C1158 C1157 1.379 . S
H1159 C1153 0.959 . S
H1160 C1153 0.961 . S
H1161 C1153 0.960 . S
H1162 C1154 0.930 . S
H1163 C1155 0.926 . S
H1164 C1172 0.929 . S
H1165 C1174 0.930 . S
H1166 C1176 0.930 . S
H1167 C1179 0.929 . S
H1168 C1182 0.930 . S
H1169 C1184 0.960 . S
H1170 C1184 0.900 1_554 S
H1171 C1184 0.960 . S
C1172 H1164 0.929 . S
C1172 C1173 1.377 . S
C1172 C1174 1.384 . S
C1173 C1172 1.377 . S
C1173 C1179 1.390 . S
C1174 H1165 0.930 . S
C1174 C1172 1.384 . S
C1174 C1175 1.372 . S
C1175 C1174 1.372 . S
C1175 C1176 1.400 . S
C1175 C1180 1.490 . S
C1176 H1166 0.930 . S
C1176 C1175 1.400 . S
C1176 C1179 1.386 . S
H1177 C1193 0.930 . S
H1178 C1194 0.931 . S
C1179 H1167 0.929 . S
C1179 C1173 1.390 . S
C1179 C1176 1.386 . S
C1180 C1175 1.490 . S
C1180 C1182 1.395 . S
C1180 C1183 1.403 1_554 S
H1181 C1187 0.930 . S
C1182 H1168 0.930 . S
C1182 C1180 1.395 . S
C1182 C1185 1.403 . S
C1183 C1180 1.403 1_556 S
C1183 C1184 1.524 . S
C1183 C1187 1.400 . S
C1184 H1169 0.960 . S
C1184 H1170 0.900 1_556 S
C1184 H1171 0.960 . S
C1184 C1183 1.524 . S
C1185 C1182 1.403 . S
C1185 C1186 1.392 1_554 S
C1185 C1189 1.495 . S
C1186 C1185 1.392 1_556 S
C1186 C1187 1.385 . S
C1186 C1188 1.478 . S
C1187 H1181 0.930 . S
C1187 C1183 1.400 . S
C1187 C1186 1.385 . S
C1188 C1186 1.478 . S
C1188 C1190 1.381 . S
C1188 C1194 1.383 . S
C1189 C1185 1.495 . S
C1189 H1195 0.959 . S
C1189 H1196 0.961 . S
C1189 H1197 0.960 . S
C1190 C1188 1.381 . S
C1190 C1191 1.394 1_655 S
C1190 H1198 0.930 . S
C1191 C1190 1.394 1_455 S
C1191 C1192 1.383 . S
C1191 H1199 0.929 . S
C1192 C1191 1.383 . S
C1192 C1193 1.377 1_455 S
C1193 H1177 0.930 . S
C1193 C1192 1.377 1_655 S
C1193 C1194 1.379 . S
C1194 H1178 0.931 . S
C1194 C1188 1.383 . S
C1194 C1193 1.379 . S
H1195 C1189 0.959 . S
H1196 C1189 0.961 . S
H1197 C1189 0.960 . S
H1198 C1190 0.930 . S
H1199 C1191 0.929 . S
H1200 C1208 0.929 . S
H1201 C1210 0.930 . S
H1202 C1212 0.930 . S
H1203 C1215 0.929 . S
H1204 C1218 0.930 . S
H1205 C1220 0.960 . S
H1206 C1220 0.960 . S
H1207 C1220 0.960 . S
C1208 H1200 0.929 . S
C1208 C1209 1.377 1_565 S
C1208 C1210 1.384 . S
C1209 C1208 1.377 1_545 S
C1209 C1215 1.390 . S
C1210 H1201 0.930 . S
C1210 C1208 1.384 . S
C1210 C1211 1.372 . S
C1211 C1210 1.372 . S
C1211 C1212 1.400 . S
C1211 C1216 1.490 . S
C1212 H1202 0.930 . S
C1212 C1211 1.400 . S
C1212 C1215 1.386 1_565 S
H1213 C1229 0.930 . S
H1214 C1230 0.931 . S
C1215 H1203 0.929 . S
C1215 C1209 1.390 . S
C1215 C1212 1.386 1_545 S
C1216 C1211 1.490 . S
C1216 C1218 1.395 . S
C1216 C1219 1.403 . S
H1217 C1223 0.930 . S
C1218 H1204 0.930 . S
C1218 C1216 1.395 . S
C1218 C1221 1.403 . S
C1219 C1216 1.403 . S
C1219 C1220 1.524 . S
C1219 C1223 1.400 . S
C1220 H1205 0.960 . S
C1220 H1206 0.960 . S
C1220 H1207 0.960 . S
C1220 C1219 1.524 . S
C1221 C1218 1.403 . S
C1221 C1222 1.392 . S
C1221 C1225 1.495 . S
C1222 C1221 1.392 . S
C1222 C1223 1.385 . S
C1222 C1224 1.478 . S
C1223 H1217 0.930 . S
C1223 C1219 1.400 . S
C1223 C1222 1.385 . S
C1224 C1222 1.478 . S
C1224 C1226 1.381 . S
C1224 C1230 1.383 . S
C1225 C1221 1.495 . S
C1225 H1231 0.959 . S
C1225 H1232 0.961 . S
C1225 H1233 0.960 . S
C1226 C1224 1.381 . S
C1226 C1227 1.394 . S
C1226 H1234 0.930 . S
C1227 C1226 1.394 . S
C1227 C1228 1.370 1_455 S
C1227 H1235 0.929 . S
C1228 C1227 1.370 1_655 S
C1228 C1229 1.380 1_655 S
C1229 H1213 0.930 . S
C1229 C1228 1.380 1_455 S
C1229 C1230 1.379 . S
C1230 H1214 0.931 . S
C1230 C1224 1.383 . S
C1230 C1229 1.379 . S
H1231 C1225 0.959 . S
H1232 C1225 0.961 . S
H1233 C1225 0.960 . S
H1234 C1226 0.930 . S
H1235 C1227 0.929 . S
H1236 C1244 0.929 . S
H1237 C1246 0.930 . S
H1238 C1248 0.930 . S
H1239 C1251 0.929 . S
H1240 C1254 0.930 . S
H1241 C1256 0.960 . S
H1242 C1256 0.960 . S
H1243 C1256 0.960 . S
C1244 H1236 0.929 . S
C1244 C1245 1.377 1_545 S
C1244 C1246 1.384 . S
C1245 C1244 1.377 1_565 S
C1245 C1251 1.390 . S
C1246 H1237 0.930 . S
C1246 C1244 1.384 . S
C1246 C1247 1.372 . S
C1247 C1246 1.372 . S
C1247 C1248 1.400 . S
C1247 C1252 1.490 . S
C1248 H1238 0.930 . S
C1248 C1247 1.400 . S
C1248 C1251 1.386 1_545 S
H1249 C1265 0.930 . S
H1250 C1266 0.931 . S
C1251 H1239 0.929 . S
C1251 C1245 1.390 . S
C1251 C1248 1.386 1_565 S
C1252 C1247 1.490 . S
C1252 C1254 1.395 . S
C1252 C1255 1.403 . S
H1253 C1259 0.930 . S
C1254 H1240 0.930 . S
C1254 C1252 1.395 . S
C1254 C1257 1.403 . S
C1255 C1252 1.403 . S
C1255 C1256 1.524 . S
C1255 C1259 1.400 . S
C1256 H1241 0.960 . S
C1256 H1242 0.960 . S
C1256 H1243 0.960 . S
C1256 C1255 1.524 . S
C1257 C1254 1.403 . S
C1257 C1258 1.392 . S
C1257 C1261 1.495 . S
C1258 C1257 1.392 . S
C1258 C1259 1.385 . S
C1258 C1260 1.478 . S
C1259 H1253 0.930 . S
C1259 C1255 1.400 . S
C1259 C1258 1.385 . S
C1260 C1258 1.478 . S
C1260 C1262 1.381 . S
C1260 C1266 1.383 . S
C1261 C1257 1.495 . S
C1261 H1267 0.959 . S
C1261 H1268 0.961 . S
C1261 H1269 0.960 . S
C1262 C1260 1.381 . S
C1262 C1263 1.394 . S
C1262 H1270 0.930 . S
C1263 C1262 1.394 . S
C1263 C1264 1.383 . S
C1263 H1271 0.929 . S
C1264 C1263 1.383 . S
C1264 C1265 1.377 . S
C1265 H1249 0.930 . S
C1265 C1264 1.377 . S
C1265 C1266 1.379 . S
C1266 H1250 0.931 . S
C1266 C1260 1.383 . S
C1266 C1265 1.379 . S
H1267 C1261 0.959 . S
H1268 C1261 0.961 . S
H1269 C1261 0.960 . S
H1270 C1262 0.930 . S
H1271 C1263 0.929 . S
H1272 C1280 0.929 . S
H1273 C1282 0.930 . S
H1274 C1284 0.930 . S
H1275 C1287 0.929 . S
H1276 C1290 0.930 . S
H1277 C1292 0.960 . S
H1278 C1292 0.960 . S
H1279 C1292 0.960 . S
C1280 H1272 0.929 . S
C1280 C1281 1.377 . S
C1280 C1282 1.384 . S
C1281 C1280 1.377 . S
C1281 C1287 1.390 . S
C1282 H1273 0.930 . S
C1282 C1280 1.384 . S
C1282 C1283 1.372 . S
C1283 C1282 1.372 . S
C1283 C1284 1.400 . S
C1283 C1288 1.490 . S
C1284 H1274 0.930 . S
C1284 C1283 1.400 . S
C1284 C1287 1.386 . S
H1285 C1301 0.930 . S
H1286 C1302 0.931 . S
C1287 H1275 0.929 . S
C1287 C1281 1.390 . S
C1287 C1284 1.386 . S
C1288 C1283 1.490 . S
C1288 C1290 1.395 . S
C1288 C1291 1.403 . S
H1289 C1295 0.930 . S
C1290 H1276 0.930 . S
C1290 C1288 1.395 . S
C1290 C1293 1.403 . S
C1291 C1288 1.403 . S
C1291 C1292 1.524 . S
C1291 C1295 1.400 . S
C1292 H1277 0.960 . S
C1292 H1278 0.960 . S
C1292 H1279 0.960 . S
C1292 C1291 1.524 . S
C1293 C1290 1.403 . S
C1293 C1294 1.392 . S
C1293 C1297 1.495 . S
C1294 C1293 1.392 . S
C1294 C1295 1.385 . S
C1294 C1296 1.478 . S
C1295 H1289 0.930 . S
C1295 C1291 1.400 . S
C1295 C1294 1.385 . S
C1296 C1294 1.478 . S
C1296 C1298 1.381 . S
C1296 C1302 1.383 . S
C1297 C1293 1.495 . S
C1297 H1303 0.959 . S
C1297 H1304 0.961 . S
C1297 H1305 0.960 . S
C1298 C1296 1.381 . S
C1298 C1299 1.394 . S
C1298 H1306 0.930 . S
C1299 C1298 1.394 . S
C1299 C1300 1.383 . S
C1299 H1307 0.929 . S
C1300 C1299 1.383 . S
C1300 C1301 1.377 . S
C1301 H1285 0.930 . S
C1301 C1300 1.377 . S
C1301 C1302 1.379 . S
C1302 H1286 0.931 . S
C1302 C1296 1.383 . S
C1302 C1301 1.379 . S
H1303 C1297 0.959 . S
H1304 C1297 0.961 . S
H1305 C1297 0.960 . S
H1306 C1298 0.930 . S
H1307 C1299 0.929 . S
H1308 C1316 0.929 . S
H1309 C1318 0.930 . S
H1310 C1320 0.930 . S
H1311 C1323 0.929 . S
H1312 C1326 0.930 . S
H1313 C1328 0.960 . S
H1314 C1328 0.960 . S
H1315 C1328 0.960 . S
C1316 H1308 0.929 . S
C1316 C1317 1.377 . S
C1316 C1318 1.384 . S
C1317 C1316 1.377 . S
C1317 C1323 1.390 . S
C1318 H1309 0.930 . S
C1318 C1316 1.384 . S
C1318 C1319 1.372 . S
C1319 C1318 1.372 . S
C1319 C1320 1.400 . S
C1319 C1324 1.490 . S
C1320 H1310 0.930 . S
C1320 C1319 1.400 . S
C1320 C1323 1.386 . S
H1321 C1337 0.930 . S
H1322 C1338 0.931 . S
C1323 H1311 0.929 . S
C1323 C1317 1.390 . S
C1323 C1320 1.386 . S
C1324 C1319 1.490 . S
C1324 C1326 1.395 . S
C1324 C1327 1.403 . S
H1325 C1331 0.930 . S
C1326 H1312 0.930 . S
C1326 C1324 1.395 . S
C1326 C1329 1.403 . S
C1327 C1324 1.403 . S
C1327 C1328 1.524 . S
C1327 C1331 1.400 . S
C1328 H1313 0.960 . S
C1328 H1314 0.960 . S
C1328 H1315 0.960 . S
C1328 C1327 1.524 . S
C1329 C1326 1.403 . S
C1329 C1330 1.392 . S
C1329 C1333 1.495 . S
C1330 C1329 1.392 . S
C1330 C1331 1.385 . S
C1330 C1332 1.478 . S
C1331 H1325 0.930 . S
C1331 C1327 1.400 . S
C1331 C1330 1.385 . S
C1332 C1330 1.478 . S
C1332 C1334 1.381 . S
C1332 C1338 1.383 . S
C1333 C1329 1.495 . S
C1333 H1339 0.959 . S
C1333 H1340 0.961 . S
C1333 H1341 0.960 . S
C1334 C1332 1.381 . S
C1334 C1335 1.394 . S
C1334 H1342 0.930 . S
C1335 C1334 1.394 . S
C1335 C1336 1.383 . S
C1335 H1343 0.929 . S
C1336 C1335 1.383 . S
C1336 C1337 1.377 . S
C1337 H1321 0.930 . S
C1337 C1336 1.377 . S
C1337 C1338 1.379 . S
C1338 H1322 0.931 . S
C1338 C1332 1.383 . S
C1338 C1337 1.379 . S
H1339 C1333 0.959 . S
H1340 C1333 0.961 . S
H1341 C1333 0.960 . S
H1342 C1334 0.930 . S
H1343 C1335 0.929 . S
H1344 C1352 0.929 . S
H1345 C1354 0.930 . S
H1346 C1356 0.930 . S
H1347 C1359 0.929 . S
H1348 C1362 0.930 . S
H1349 C1364 0.960 . S
H1350 C1364 0.960 . S
H1351 C1364 0.960 . S
C1352 H1344 0.929 . S
C1352 C1353 1.377 . S
C1352 C1354 1.384 . S
C1353 C1352 1.377 . S
C1353 C1359 1.390 . S
C1354 H1345 0.930 . S
C1354 C1352 1.384 . S
C1354 C1355 1.372 . S
C1355 C1354 1.372 . S
C1355 C1356 1.400 . S
C1355 C1360 1.490 . S
C1356 H1346 0.930 . S
C1356 C1355 1.400 . S
C1356 C1359 1.386 . S
H1357 C1373 0.930 . S
H1358 C1374 0.931 . S
C1359 H1347 0.929 . S
C1359 C1353 1.390 . S
C1359 C1356 1.386 . S
C1360 C1355 1.490 . S
C1360 C1362 1.395 . S
C1360 C1363 1.403 . S
H1361 C1367 0.930 . S
C1362 H1348 0.930 . S
C1362 C1360 1.395 . S
C1362 C1365 1.403 . S
C1363 C1360 1.403 . S
C1363 C1364 1.524 . S
C1363 C1367 1.400 . S
C1364 H1349 0.960 . S
C1364 H1350 0.960 . S
C1364 H1351 0.960 . S
C1364 C1363 1.524 . S
C1365 C1362 1.403 . S
C1365 C1366 1.392 . S
C1365 C1369 1.495 . S
C1366 C1365 1.392 . S
C1366 C1367 1.385 . S
C1366 C1368 1.478 . S
C1367 H1361 0.930 . S
C1367 C1363 1.400 . S
C1367 C1366 1.385 . S
C1368 C1366 1.478 . S
C1368 C1370 1.381 . S
C1368 C1374 1.383 . S
C1369 C1365 1.495 . S
C1369 H1375 0.959 . S
C1369 H1376 0.961 . S
C1369 H1377 0.960 . S
C1370 C1368 1.381 . S
C1370 C1371 1.394 . S
C1370 H1378 0.930 . S
C1371 C1370 1.394 . S
C1371 C1372 1.383 . S
C1371 H1379 0.929 . S
C1372 C1371 1.383 . S
C1372 C1373 1.377 . S
C1373 H1357 0.930 . S
C1373 C1372 1.377 . S
C1373 C1374 1.379 . S
C1374 H1358 0.931 . S
C1374 C1368 1.383 . S
C1374 C1373 1.379 . S
H1375 C1369 0.959 . S
H1376 C1369 0.961 . S
H1377 C1369 0.960 . S
H1378 C1370 0.930 . S
H1379 C1371 0.929 . S
H1380 C1388 0.929 . S
H1381 C1390 0.930 . S
H1382 C1392 0.930 . S
H1383 C1395 0.929 . S
H1384 C1398 0.930 . S
H1385 C1400 0.960 . S
H1386 C1400 0.960 . S
H1387 C1400 0.960 . S
C1388 H1380 0.929 . S
C1388 C1389 1.377 . S
C1388 C1390 1.384 . S
C1389 C1388 1.377 . S
C1389 C1395 1.390 . S
C1390 H1381 0.930 . S
C1390 C1388 1.384 . S
C1390 C1391 1.372 . S
C1391 C1390 1.372 . S
C1391 C1392 1.400 . S
C1391 C1396 1.490 . S
C1392 H1382 0.930 . S
C1392 C1391 1.400 . S
C1392 C1395 1.386 . S
H1393 C1409 0.930 . S
H1394 C1410 0.931 . S
C1395 H1383 0.929 . S
C1395 C1389 1.390 . S
C1395 C1392 1.386 . S
C1396 C1391 1.490 . S
C1396 C1398 1.395 . S
C1396 C1399 1.403 . S
H1397 C1403 0.930 . S
C1398 H1384 0.930 . S
C1398 C1396 1.395 . S
C1398 C1401 1.403 . S
C1399 C1396 1.403 . S
C1399 C1400 1.524 . S
C1399 C1403 1.400 . S
C1400 H1385 0.960 . S
C1400 H1386 0.960 . S
C1400 H1387 0.960 . S
C1400 C1399 1.524 . S
C1401 C1398 1.403 . S
C1401 C1402 1.392 . S
C1401 C1405 1.495 . S
C1402 C1401 1.392 . S
C1402 C1403 1.385 . S
C1402 C1404 1.478 . S
C1403 H1397 0.930 . S
C1403 C1399 1.400 . S
C1403 C1402 1.385 . S
C1404 C1402 1.478 . S
C1404 C1406 1.381 . S
C1404 C1410 1.383 . S
C1405 C1401 1.495 . S
C1405 H1411 0.959 . S
C1405 H1412 0.961 . S
C1405 H1413 0.960 . S
C1406 C1404 1.381 . S
C1406 C1407 1.394 . S
C1406 H1414 0.930 . S
C1407 C1406 1.394 . S
C1407 C1408 1.383 . S
C1407 H1415 0.929 . S
C1408 C1407 1.383 . S
C1408 C1409 1.377 . S
C1409 H1393 0.930 . S
C1409 C1408 1.377 . S
C1409 C1410 1.379 . S
C1410 H1394 0.931 . S
C1410 C1404 1.383 . S
C1410 C1409 1.379 . S
H1411 C1405 0.959 . S
H1412 C1405 0.961 . S
H1413 C1405 0.960 . S
H1414 C1406 0.930 . S
H1415 C1407 0.929 . S
H1416 C1424 0.929 . S
H1417 C1426 0.930 . S
H1418 C1428 0.930 . S
H1419 C1431 0.929 . S
H1420 C1434 0.930 . S
H1421 C1436 0.960 . S
H1422 C1436 0.960 . S
H1423 C1436 0.960 . S
C1424 H1416 0.929 . S
C1424 C1425 1.377 . S
C1424 C1426 1.384 . S
C1425 C1424 1.377 . S
C1425 C1431 1.390 . S
C1426 H1417 0.930 . S
C1426 C1424 1.384 . S
C1426 C1427 1.372 . S
C1427 C1426 1.372 . S
C1427 C1428 1.400 . S
C1427 C1432 1.490 . S
C1428 H1418 0.930 . S
C1428 C1427 1.400 . S
C1428 C1431 1.386 . S
H1429 C1445 0.930 . S
H1430 C1446 0.931 . S
C1431 H1419 0.929 . S
C1431 C1425 1.390 . S
C1431 C1428 1.386 . S
C1432 C1427 1.490 . S
C1432 C1434 1.395 . S
C1432 C1435 1.403 . S
H1433 C1439 0.930 . S
C1434 H1420 0.930 . S
C1434 C1432 1.395 . S
C1434 C1437 1.403 . S
C1435 C1432 1.403 . S
C1435 C1436 1.524 . S
C1435 C1439 1.400 . S
C1436 H1421 0.960 . S
C1436 H1422 0.960 . S
C1436 H1423 0.960 . S
C1436 C1435 1.524 . S
C1437 C1434 1.403 . S
C1437 C1438 1.392 . S
C1437 C1441 1.495 . S
C1438 C1437 1.392 . S
C1438 C1439 1.385 . S
C1438 C1440 1.478 . S
C1439 H1433 0.930 . S
C1439 C1435 1.400 . S
C1439 C1438 1.385 . S
C1440 C1438 1.478 . S
C1440 C1442 1.381 . S
C1440 C1446 1.383 . S
C1441 C1437 1.495 . S
C1441 H1447 0.959 . S
C1441 H1448 0.961 . S
C1441 H1449 0.960 . S
C1442 C1440 1.381 . S
C1442 C1443 1.394 . S
C1442 H1450 0.930 . S
C1443 C1442 1.394 . S
C1443 C1444 1.383 . S
C1443 H1451 0.929 . S
C1444 C1443 1.383 . S
C1444 C1445 1.377 . S
C1445 H1429 0.930 . S
C1445 C1444 1.377 . S
C1445 C1446 1.379 . S
C1446 H1430 0.931 . S
C1446 C1440 1.383 . S
C1446 C1445 1.379 . S
H1447 C1441 0.959 . S
H1448 C1441 0.961 . S
H1449 C1441 0.960 . S
H1450 C1442 0.930 . S
H1451 C1443 0.929 . S
H1452 C1460 0.929 . S
H1453 C1462 0.930 . S
H1454 C1464 0.930 . S
H1455 C1467 0.929 . S
H1456 C1470 0.930 . S
H1457 C1472 0.960 . S
H1458 C1472 0.960 . S
H1459 C1472 0.960 . S
C1460 H1452 0.929 . S
C1460 C1461 1.377 . S
C1460 C1462 1.384 . S
C1461 C1460 1.377 . S
C1461 C1467 1.390 . S
C1462 H1453 0.930 . S
C1462 C1460 1.384 . S
C1462 C1463 1.372 . S
C1463 C1462 1.372 . S
C1463 C1464 1.400 . S
C1463 C1468 1.490 . S
C1464 H1454 0.930 . S
C1464 C1463 1.400 . S
C1464 C1467 1.386 . S
H1465 C1481 0.930 . S
H1466 C1482 0.931 . S
C1467 H1455 0.929 . S
C1467 C1461 1.390 . S
C1467 C1464 1.386 . S
C1468 C1463 1.490 . S
C1468 C1470 1.395 . S
C1468 C1471 1.403 . S
H1469 C1475 0.930 . S
C1470 H1456 0.930 . S
C1470 C1468 1.395 . S
C1470 C1473 1.403 . S
C1471 C1468 1.403 . S
C1471 C1472 1.524 . S
C1471 C1475 1.400 . S
C1472 H1457 0.960 . S
C1472 H1458 0.960 . S
C1472 H1459 0.960 . S
C1472 C1471 1.524 . S
C1473 C1470 1.403 . S
C1473 C1474 1.392 . S
C1473 C1477 1.495 . S
C1474 C1473 1.392 . S
C1474 C1475 1.385 . S
C1474 C1476 1.478 . S
C1475 H1469 0.930 . S
C1475 C1471 1.400 . S
C1475 C1474 1.385 . S
C1476 C1474 1.478 . S
C1476 C1478 1.381 . S
C1476 C1482 1.383 . S
C1477 C1473 1.495 . S
C1477 H1483 0.959 . S
C1477 H1484 0.961 . S
C1477 H1485 0.960 . S
C1478 C1476 1.381 . S
C1478 C1479 1.394 . S
C1478 H1486 0.930 . S
C1479 C1478 1.394 . S
C1479 C1480 1.383 . S
C1479 H1487 0.929 . S
C1480 C1479 1.383 . S
C1480 C1481 1.377 . S
C1481 H1465 0.930 . S
C1481 C1480 1.377 . S
C1481 C1482 1.379 . S
C1482 H1466 0.931 . S
C1482 C1476 1.383 . S
C1482 C1481 1.379 . S
H1483 C1477 0.959 . S
H1484 C1477 0.961 . S
H1485 C1477 0.960 . S
H1486 C1478 0.930 . S
H1487 C1479 0.929 . S
C417 C111 1.668 . S
C436 C9 1.671 . S
C453 C43 1.667 . S
C472 C145 1.661 . S
C489 C77 1.668 . S
C508 C179 1.669 . S
C525 C213 1.666 . S
C544 C315 1.659 . S
C561 C349 1.669 . S
C580 C247 1.671 . S
C597 C383 1.666 . S
C616 C281 1.659 . S
C633 C271 0.876 . S
C652 C33 0.831 . S
C669 C67 0.866 . S
C688 C305 0.840 . S
C705 C339 0.873 . S
C724 C101 0.827 . S
C741 C135 0.867 . S
C760 C373 0.910 . S
C777 C407 0.863 . S
C796 C169 0.864 . S
C813 C203 0.867 . S
C832 C237 0.909 . S
C849 C5 0.378 . S
C868 C107 0.308 . S
C885 C39 0.376 . S
C904 C141 0.349 . S
C921 C73 0.379 . S
C940 C175 0.307 . S
C957 C209 0.376 . S
C976 C311 0.349 . S
C993 C243 0.402 . S
C1012 C345 0.482 . S
C1029 C277 0.404 . S
C1048 C379 0.484 . S
C1065 C342 1.360 . S
C1084 C2 1.366 . S
C1101 C36 1.360 . S
C1120 C376 1.394 . S
C1137 C206 1.361 . S
C1156 C70 1.396 . S
C1173 C104 1.358 . S
C1192 C240 1.383 . S
C1209 C274 1.361 . S
C1228 C138 1.388 . S
C1245 C172 1.359 . S
C1264 C308 1.384 . S
C1281 C20 1.786 . S
C1300 C292 1.784 . S
C1317 C54 1.782 . S
C1336 C326 1.792 . S
C1353 C360 1.783 . S
C1372 C88 1.792 . S
C1389 C394 1.782 . S
C1408 C122 1.784 . S
C1425 C156 1.786 . S
C1444 C224 1.768 . S
C1461 C190 1.784 . S
C1480 C258 1.772 . S
