# Generated by pormake.
# Topology hcp, (12)-cn, num edge types: 1
# Building blocks:
#     Node 0, Type 0, BuildingBlock: ZALLEG_clean_sbu_0, # of connection points: 12
#     Node 1, Type 0, BuildingBlock: ZALLEG_clean_sbu_0, # of connection points: 12
#     Edge 2, Type (0, 0), BuildingBlock: UVAHIK_clean_linker_0, # of connection points: 2
#     Edge 3, Type (0, 0), BuildingBlock: UVAHIK_clean_linker_0, # of connection points: 2
#     Edge 4, Type (0, 0), BuildingBlock: UVAHIK_clean_linker_0, # of connection points: 2
#     Edge 5, Type (0, 0), BuildingBlock: UVAHIK_clean_linker_0, # of connection points: 2
#     Edge 6, Type (0, 0), BuildingBlock: UVAHIK_clean_linker_0, # of connection points: 2
#     Edge 7, Type (0, 0), BuildingBlock: UVAHIK_clean_linker_0, # of connection points: 2
#     Edge 8, Type (0, 0), BuildingBlock: UVAHIK_clean_linker_0, # of connection points: 2
#     Edge 9, Type (0, 0), BuildingBlock: UVAHIK_clean_linker_0, # of connection points: 2
#     Edge 10, Type (0, 0), BuildingBlock: UVAHIK_clean_linker_0, # of connection points: 2
#     Edge 11, Type (0, 0), BuildingBlock: UVAHIK_clean_linker_0, # of connection points: 2
#     Edge 12, Type (0, 0), BuildingBlock: UVAHIK_clean_linker_0, # of connection points: 2
#     Edge 13, Type (0, 0), BuildingBlock: UVAHIK_clean_linker_0, # of connection points: 2
# Relax obj value: 0.186
# Max RMSD: 0.270
# Mean RMSD: 0.270
data_MOF--net-hcp--node1-ZALLEG_clean_sbu_0--edge1-UVAHIK_clean_linker_0
_symmetry_space_group_name_H-M    P1
_symmetry_Int_Tables_number       1
_symmetry_cell_setting            triclinic
loop_
_symmetry_equiv_pos_as_xyz
'x, y, z'
_cell_length_a     23.002221
_cell_length_b     23.011191
_cell_length_c     35.737908
_cell_angle_alpha  89.984366
_cell_angle_beta   89.999915
_cell_angle_gamma 120.01601
loop_
_atom_site_label
_atom_site_type_symbol
_atom_site_fract_x
_atom_site_fract_y
_atom_site_fract_z
_atom_type_partial_charge
H0 H 0.58563 0.17554 0.25977 0.0
O1 O 0.6057 0.2222 0.26883 0.0
Tb2 Tb 0.55209 0.26833 0.24921 0.0
Tb3 Tb 0.60907 0.22481 0.32773 0.0
Tb4 Tb 0.70359 0.27767 0.24896 0.0
O5 O 0.55018 0.2653 0.30833 0.0
O6 O 0.64984 0.32181 0.22758 0.0
O7 O 0.59466 0.36645 0.26868 0.0
O8 O 0.65068 0.32254 0.34821 0.0
O9 O 0.75005 0.37754 0.26839 0.0
O10 O 0.70741 0.27909 0.30805 0.0
H11 H 0.50391 0.23908 0.31807 0.0
H12 H 0.64961 0.32164 0.1999 0.0
Tb13 Tb 0.59438 0.36386 0.32757 0.0
Tb14 Tb 0.69429 0.41981 0.2488 0.0
H15 H 0.568 0.3864 0.25956 0.0
H16 H 0.65087 0.3227 0.37579 0.0
Tb17 Tb 0.74819 0.37858 0.3273 0.0
H18 H 0.79659 0.40412 0.25913 0.0
H19 H 0.73375 0.25911 0.31767 0.0
O20 O 0.69364 0.42249 0.3079 0.0
H21 H 0.71375 0.46884 0.31746 0.0
O22 O 0.47344 0.16562 0.26113 0.0
O23 O 0.82698 0.48113 0.31616 0.0
O24 O 0.76623 0.33255 0.37534 0.0
O25 O 0.53786 0.32237 0.20126 0.0
O26 O 0.63268 0.14586 0.31689 0.0
O27 O 0.67034 0.49858 0.26039 0.0
O28 O 0.76194 0.43329 0.20067 0.0
O29 O 0.54533 0.20742 0.37585 0.0
O30 O 0.64895 0.20923 0.20118 0.0
O31 O 0.6411 0.42817 0.37544 0.0
O32 O 0.4917 0.34009 0.31686 0.0
O33 O 0.80646 0.30184 0.2604 0.0
O34 O 0.51221 0.13509 0.31565 0.0
O35 O 0.7903 0.51008 0.26057 0.0
O36 O 0.64102 0.42634 0.20001 0.0
O37 O 0.66619 0.22597 0.37893 0.0
O38 O 0.46203 0.27414 0.26138 0.0
O39 O 0.83774 0.37142 0.3148 0.0
O40 O 0.74776 0.43479 0.37852 0.0
O41 O 0.54495 0.20836 0.20038 0.0
O42 O 0.53873 0.30742 0.379 0.0
O43 O 0.76294 0.33027 0.19988 0.0
O44 O 0.69787 0.18183 0.2611 0.0
O45 O 0.60148 0.46056 0.31511 0.0
C46 C 0.46776 0.12277 0.28819 0.0
C47 C 0.83377 0.52326 0.28856 0.0
C48 C 0.72699 0.27339 0.39154 0.0
C49 C 0.57982 0.38354 0.18687 0.0
C50 C 0.66773 0.13869 0.28927 0.0
C51 C 0.63341 0.50463 0.28745 0.0
C52 C 0.78106 0.3912 0.18643 0.0
C53 C 0.52547 0.24683 0.39187 0.0
C54 C 0.5876 0.18995 0.18703 0.0
C55 C 0.7005 0.4482 0.39136 0.0
C56 C 0.44925 0.30464 0.28941 0.0
C57 C 0.84967 0.33916 0.28727 0.0
H58 H 0.17177 0.592 0.75902 0.0
O59 O 0.21835 0.61188 0.76819 0.0
Tb60 Tb 0.22038 0.61463 0.82709 0.0
Tb61 Tb 0.26451 0.55834 0.74851 0.0
Tb62 Tb 0.27416 0.70994 0.74864 0.0
O63 O 0.26088 0.5558 0.80761 0.0
O64 O 0.27504 0.7131 0.80774 0.0
O65 O 0.3179 0.65575 0.84788 0.0
O66 O 0.36247 0.60049 0.76826 0.0
O67 O 0.37386 0.75597 0.7684 0.0
O68 O 0.31837 0.65629 0.7272 0.0
H69 H 0.2345 0.50943 0.81717 0.0
H70 H 0.25502 0.73939 0.81738 0.0
Tb71 Tb 0.35925 0.59951 0.82715 0.0
Tb72 Tb 0.37432 0.75345 0.8273 0.0
H73 H 0.3177 0.65557 0.87546 0.0
H74 H 0.38242 0.57387 0.75912 0.0
Tb75 Tb 0.41619 0.70032 0.74874 0.0
H76 H 0.40057 0.8026 0.75933 0.0
H77 H 0.31846 0.6564 0.69954 0.0
O78 O 0.41826 0.69896 0.80785 0.0
H79 H 0.46453 0.71889 0.81756 0.0
O80 O 0.13068 0.51798 0.81465 0.0
O81 O 0.50644 0.79607 0.76091 0.0
O82 O 0.42307 0.64754 0.69981 0.0
O83 O 0.22111 0.6714 0.87836 0.0
O84 O 0.20496 0.55181 0.69959 0.0
O85 O 0.42986 0.75221 0.87866 0.0
O86 O 0.36743 0.84324 0.81502 0.0
O87 O 0.26994 0.46796 0.76046 0.0
O88 O 0.1783 0.70438 0.76061 0.0
O89 O 0.45601 0.60656 0.8149 0.0
O90 O 0.30206 0.54296 0.8782 0.0
O91 O 0.32736 0.7698 0.69984 0.0
O92 O 0.16161 0.47974 0.76007 0.0
O93 O 0.47707 0.8322 0.81656 0.0
O94 O 0.32794 0.77121 0.87524 0.0
O95 O 0.31896 0.54451 0.70064 0.0
O96 O 0.20251 0.55046 0.87505 0.0
O97 O 0.43042 0.7688 0.7009 0.0
O98 O 0.49478 0.67607 0.76046 0.0
O99 O 0.14161 0.6385 0.81612 0.0
O100 O 0.33544 0.49693 0.81609 0.0
O101 O 0.29835 0.81273 0.76042 0.0
O102 O 0.20594 0.65582 0.70068 0.0
O103 O 0.423 0.64551 0.87531 0.0
C104 C 0.11856 0.47384 0.78705 0.0
C105 C 0.51941 0.83923 0.78903 0.0
C106 C 0.38031 0.58652 0.68646 0.0
C107 C 0.26853 0.73201 0.89119 0.0
C108 C 0.18666 0.59462 0.68636 0.0
C109 C 0.44294 0.7047 0.89144 0.0
C110 C 0.33543 0.85559 0.78749 0.0
C111 C 0.30014 0.45477 0.7885 0.0
C112 C 0.13483 0.67399 0.7886 0.0
C113 C 0.50045 0.63877 0.78744 0.0
C114 C 0.24147 0.52993 0.89096 0.0
C115 C 0.3885 0.78815 0.68662 0.0
C116 C 0.27476 0.7306 0.96028 0.0
C117 C 0.26201 0.75718 0.92798 0.0
C118 C 0.30137 0.7703 0.99247 0.0
C119 C 0.33591 0.92901 1.03886 0.0
H120 H 0.50307 0.94095 0.07005 0.0
C121 C 0.52507 0.1527 0.12694 0.0
C122 C 0.56148 0.14244 0.15515 0.0
C123 C 0.48788 0.10262 0.1007 0.0
C124 C 0.4561 0.93778 0.06225 0.0
H125 H 0.26232 0.84419 0.90491 0.0
H126 H 0.30446 0.91194 0.96153 0.0
H127 H 0.43039 0.85478 1.02531 0.0
H128 H 0.5888 0.07202 0.17751 0.0
H129 H 0.52262 0.98333 0.132 0.0
H130 H 0.36063 0.01119 0.07575 0.0
C131 C 0.29486 0.86081 0.96211 0.0
C132 C 0.41426 0.88814 1.03656 0.0
C133 C 0.26972 0.82165 0.92977 0.0
C134 C 0.56213 0.08173 0.15564 0.0
C135 C 0.52381 0.03081 0.1296 0.0
C136 C 0.37718 0.978 0.06482 0.0
C137 C 0.31431 0.83692 0.99317 0.0
C138 C 0.35422 0.88392 1.02403 0.0
C139 C 0.48458 0.03989 0.10232 0.0
C140 C 0.43877 0.9843 0.07633 0.0
H141 H 0.27085 0.68177 0.95936 0.0
H142 H 0.31517 0.75012 1.01604 0.0
H143 H 0.28973 0.92675 1.03012 0.0
H144 H 0.52371 0.19908 0.12587 0.0
H145 H 0.46056 0.11289 0.07953 0.0
C146 C 0.44306 0.61167 0.62645 0.0
C147 C 0.40641 0.56501 0.65463 0.0
C148 C 0.48042 0.59873 0.60036 0.0
C149 C 0.51237 0.46568 0.56216 0.0
H150 H 0.67934 0.621 0.53066 0.0
C151 C 0.69409 0.44002 0.46042 0.0
C152 C 0.70708 0.47966 0.42822 0.0
C153 C 0.66746 0.45299 0.49264 0.0
C154 C 0.63299 0.57708 0.53923 0.0
H155 H 0.3788 0.46724 0.67707 0.0
H156 H 0.44524 0.44462 0.63178 0.0
H157 H 0.60802 0.63444 0.57605 0.0
H158 H 0.70725 0.56674 0.40537 0.0
H159 H 0.66504 0.59207 0.46205 0.0
H160 H 0.53829 0.40849 0.52526 0.0
C161 C 0.44412 0.49093 0.62931 0.0
C162 C 0.59149 0.58475 0.56505 0.0
C163 C 0.40565 0.50359 0.65521 0.0
C164 C 0.69964 0.53657 0.43015 0.0
C165 C 0.67447 0.55044 0.46253 0.0
C166 C 0.55442 0.45792 0.53661 0.0
C167 C 0.48364 0.53925 0.6021 0.0
C168 C 0.52968 0.52948 0.57631 0.0
C169 C 0.65474 0.50682 0.49347 0.0
C170 C 0.61467 0.51376 0.52429 0.0
H171 H 0.44452 0.65945 0.62532 0.0
H172 H 0.50798 0.63632 0.57922 0.0
H173 H 0.46524 0.4219 0.56979 0.0
H174 H 0.69779 0.39498 0.45937 0.0
H175 H 0.65343 0.41879 0.51613 0.0
C176 C 0.81698 0.36481 0.12622 0.0
C177 C 0.82752 0.41221 0.15405 0.0
C178 C 0.8656 0.37839 0.09889 0.0
C179 C 0.04709 0.47547 0.08207 0.0
H180 H -0.0043 0.42571 0.97868 0.0
C181 C 0.23829 0.5375 0.9598 0.0
C182 C 0.21564 0.49749 0.9275 0.0
C183 C 0.19541 0.52369 0.99063 0.0
C184 C 0.0111 0.43864 1.00753 0.0
H185 H 0.89724 0.5115 0.17493 0.0
H186 H 0.98332 0.53544 0.12694 0.0
H187 H 0.91189 0.41434 1.02389 0.0
H188 H 0.13325 0.40782 0.9036 0.0
H189 H 0.06068 0.38015 0.95818 0.0
H190 H 0.1463 0.49882 0.06576 0.0
C191 C 0.93687 0.48777 0.12628 0.0
C192 C 0.96285 0.43273 1.03345 0.0
C193 C 0.88733 0.47453 0.1534 0.0
C194 C 0.15253 0.43888 0.92838 0.0
C195 C 0.11019 0.42423 0.95937 0.0
C196 C 0.09551 0.48085 0.05611 0.0
C197 C 0.92681 0.4394 0.09896 0.0
C198 C 0.97995 0.45062 0.0711 0.0
C199 C 0.12921 0.46884 0.98992 0.0
C200 C 0.0781 0.46191 1.01844 0.0
H201 H 0.77162 0.3161 0.12625 0.0
H202 H 0.85628 0.33979 0.07855 0.0
H203 H 0.0618 0.48902 0.11097 0.0
H204 H 0.28618 0.58368 0.95955 0.0
H205 H 0.21238 0.55932 1.01349 0.0
C206 C 0.47145 0.8967 0.65557 0.0
C207 C 0.4102 0.83584 0.65481 0.0
C208 C 0.48408 0.9479 0.62972 0.0
C209 C 0.39006 0.00116 0.56555 0.0
H210 H 0.56624 0.12488 0.52576 0.0
C211 C 0.43738 0.15767 0.43085 0.0
C212 C 0.4943 0.22202 0.42881 0.0
C213 C 0.42374 0.11865 0.46322 0.0
C214 C 0.51684 0.09141 0.53711 0.0
H215 H 0.31605 0.77922 0.62525 0.0
H216 H 0.33913 0.86598 0.57927 0.0
H217 H 0.55314 0.03841 0.5702 0.0
H218 H 0.57925 0.29748 0.45978 0.0
H219 H 0.5558 0.22937 0.51655 0.0
H220 H 0.35352 0.05261 0.5313 0.0
C221 C 0.37661 0.87609 0.60048 0.0
C222 C 0.50925 0.04159 0.56261 0.0
C223 C 0.36371 0.8257 0.62651 0.0
C224 C 0.53419 0.24872 0.46092 0.0
C225 C 0.52143 0.20916 0.49314 0.0
C226 C 0.39755 0.05036 0.53981 0.0
C227 C 0.43587 0.93896 0.60241 0.0
C228 C 0.44548 -0.00516 0.57674 0.0
C229 C 0.46759 0.14259 0.49406 0.0
C230 C 0.46084 0.0956 0.52485 0.0
H231 H 0.50766 0.9063 0.67752 0.0
H232 H 0.53024 -0.00452 0.63231 0.0
H233 H 0.34039 0.96777 0.57655 0.0
H234 H 0.40701 0.13507 0.40614 0.0
H235 H 0.38208 0.06757 0.46281 0.0
C236 C 0.4968 0.40884 0.15563 0.0
C237 C 0.55815 0.40941 0.15499 0.0
C238 C 0.48413 0.44723 0.12967 0.0
C239 C 0.57803 0.59431 0.06533 0.0
H240 H 0.40185 0.54121 1.02535 0.0
C241 C 0.53086 0.70353 0.93054 0.0
C242 C 0.47378 0.71068 0.92844 0.0
C243 C 0.54442 0.67806 0.96291 0.0
C244 C 0.45125 0.55732 1.03674 0.0
H245 H 0.6524 0.44703 0.12551 0.0
H246 H 0.62926 0.5104 0.07934 0.0
H247 H 0.41509 0.46816 0.06995 0.0
H248 H 0.38829 0.70031 0.95923 0.0
H249 H 0.41166 0.65559 1.01599 0.0
H250 H 0.61443 0.68219 1.03099 0.0
C251 C 0.59174 0.48303 0.10056 0.0
C252 C 0.45891 0.51526 0.06234 0.0
C253 C 0.60468 0.44573 0.12669 0.0
C254 C 0.43352 0.69693 0.96044 0.0
C255 C 0.44623 0.67007 0.99265 0.0
C256 C 0.57046 0.63584 1.0395 0.0
C257 C 0.53238 0.48647 0.10236 0.0
C258 C 0.52269 0.53253 0.07655 0.0
C259 C 0.50033 0.65774 0.99366 0.0
C260 C 0.50716 0.61757 1.02447 0.0
H261 H 0.46055 0.38225 0.17757 0.0
H262 H 0.4379 0.44853 0.13217 0.0
H263 H 0.6277 0.61077 0.07638 0.0
H264 H 0.56149 0.71167 0.9059 0.0
H265 H 0.58627 0.66892 0.96255 0.0
C266 C 0.72569 0.28041 0.46062 0.0
C267 C 0.75224 0.26732 0.42841 0.0
C268 C 0.76547 0.30727 0.49276 0.0
C269 C 0.92448 0.34218 0.53913 0.0
H270 H 0.93654 0.5095 0.5699 0.0
C271 C 0.14911 0.5323 0.62624 0.0
C272 C 0.13901 0.56867 0.65452 0.0
C273 C 0.09876 0.49495 0.60015 0.0
C274 C 0.93334 0.46249 0.56221 0.0
H275 H 0.83919 0.26728 0.40548 0.0
H276 H 0.90705 0.30992 0.46203 0.0
H277 H 0.85 0.43639 0.52543 0.0
H278 H 0.06861 0.5958 0.67716 0.0
H279 H 0.9795 0.52941 0.63188 0.0
H280 H 0.00706 0.36735 0.57582 0.0
C281 C 0.85592 0.30038 0.46257 0.0
C282 C 0.88348 0.4204 0.53668 0.0
C283 C 0.8167 0.27497 0.43027 0.0
C284 C 0.0782 0.56918 0.65522 0.0
C285 C 0.02703 0.53073 0.62932 0.0
C286 C 0.97371 0.38372 0.56491 0.0
C287 C 0.83211 0.32015 0.49352 0.0
C288 C 0.87923 0.36029 0.52429 0.0
C289 C 0.03593 0.49147 0.60201 0.0
C290 C 0.98007 0.44539 0.57625 0.0
H291 H 0.67686 0.27655 0.45962 0.0
H292 H 0.74534 0.32132 0.51625 0.0
H293 H 0.92219 0.29594 0.53051 0.0
H294 H 0.19554 0.53101 0.62502 0.0
H295 H 0.10887 0.46759 0.57894 0.0
C296 C 0.65689 0.03931 0.32267 0.0
C297 C 0.67153 0.07712 0.28963 0.0
C298 C 0.65421 0.97771 0.32248 0.0
C299 C 0.70504 0.8741 0.27041 0.0
H300 H 0.54902 0.72678 0.31793 0.0
C301 C 0.64278 0.60284 0.2535 0.0
C302 C 0.62889 0.56576 0.28677 0.0
C303 C 0.64451 0.66398 0.25331 0.0
C304 C 0.59298 0.76763 0.30484 0.0
H305 H 0.69722 0.08173 0.23082 0.0
H306 H 0.69197 0.97326 0.2305 0.0
H307 H 0.56356 0.83929 0.31923 0.0
H308 H 0.60334 0.5617 0.34555 0.0
H309 H 0.60701 0.66949 0.34524 0.0
H310 H 0.7345 0.80248 0.25605 0.0
C311 C 0.68313 -0.00825 0.25651 0.0
C312 C 0.6014 0.83178 0.30564 0.0
C313 C 0.68605 0.05363 0.25671 0.0
C314 C 0.61401 0.58935 0.31952 0.0
C315 C 0.61599 0.65079 0.31934 0.0
C316 C 0.69661 0.80996 0.26961 0.0
C317 C 0.66593 0.95291 0.28925 0.0
C318 C 0.65755 0.88542 0.2885 0.0
C319 C 0.63258 0.68903 0.28639 0.0
C320 C 0.64053 0.75634 0.28681 0.0
H321 H 0.64653 0.05677 0.34861 0.0
H322 H 0.64218 0.94908 0.34822 0.0
H323 H 0.74906 0.91496 0.25737 0.0
H324 H 0.65322 0.58513 0.22767 0.0
H325 H 0.65607 0.69213 0.22742 0.0
C326 C 0.05083 0.69427 0.7562 0.0
C327 C 0.07344 0.6782 0.78895 0.0
C328 C -0.01076 0.69202 0.75597 0.0
C329 C 0.86121 0.69179 0.81685 0.0
H330 H 0.73939 0.59067 0.73616 0.0
C331 C 0.58398 0.6176 0.81961 0.0
C332 C 0.56154 0.6341 0.78695 0.0
C333 C 0.64529 0.61927 0.8197 0.0
C334 C 0.77314 0.61926 0.75871 0.0
H335 H 0.05156 0.65064 0.84757 0.0
H336 H 0.94394 0.64628 0.84695 0.0
H337 H 0.85322 0.60834 0.73625 0.0
H338 H 0.58312 0.66147 0.7283 0.0
H339 H 0.69037 0.66491 0.72867 0.0
H340 H 0.78117 0.70273 0.83931 0.0
C341 C 0.97373 0.66065 0.82158 0.0
C342 C 0.83811 0.62969 0.75864 0.0
C343 C 0.03501 0.6626 0.8218 0.0
C344 C 0.59971 0.64936 0.75402 0.0
C345 C 0.66071 0.65072 0.75408 0.0
C346 C 0.79626 0.68135 0.81692 0.0
C347 C 0.9499 0.67414 0.78852 0.0
C348 C 0.88251 0.66601 0.78772 0.0
C349 C 0.68449 0.63698 0.78709 0.0
C350 C 0.75184 0.64502 0.78785 0.0
H351 H 0.07953 0.70644 0.73048 0.0
H352 H 0.97191 0.70331 0.73026 0.0
H353 H 0.89496 0.72042 0.83939 0.0
H354 H 0.55541 0.60561 0.84537 0.0
H355 H 0.66258 0.60777 0.84535 0.0
C356 C 0.3839 0.01831 0.32043 0.0
C357 C 0.4067 0.05699 0.2877 0.0
C358 C 0.32261 0.95863 0.32046 0.0
C359 C 0.1956 0.83029 0.25933 0.0
H360 H 0.07264 0.81017 0.33926 0.0
C361 C 0.91798 0.62738 0.2561 0.0
C362 C 0.89508 0.58891 0.28892 0.0
C363 C 0.97951 0.68682 0.25593 0.0
C364 C 0.1067 0.81514 0.31693 0.0
H365 H 0.38584 0.06232 0.22888 0.0
H366 H 0.27864 0.95848 0.22914 0.0
H367 H 0.18644 0.90628 0.33944 0.0
H368 H 0.91631 0.5837 0.3477 0.0
H369 H 0.02381 0.6871 0.34719 0.0
H370 H 0.11582 0.73914 0.23683 0.0
C371 C 0.30798 0.97416 0.25466 0.0
C372 C 0.17166 0.86965 0.31716 0.0
C373 C 0.36895 0.03382 0.25465 0.0
C374 C 0.93312 0.61204 0.32188 0.0
C375 C -0.00569 0.67145 0.32172 0.0
C376 C 0.13062 0.77577 0.25911 0.0
C377 C 0.28382 0.93687 0.28772 0.0
C378 C 0.21648 0.87753 0.28836 0.0
C379 C 0.01846 0.70857 0.28862 0.0
C380 C 0.08582 0.76788 0.28792 0.0
H381 H 0.41217 0.03512 0.34628 0.0
H382 H 0.30502 0.93003 0.34617 0.0
H383 H 0.22966 0.8353 0.237 0.0
H384 H 0.88958 0.61062 0.2303 0.0
H385 H -0.00289 0.71528 0.23019 0.0
C386 C 0.31125 0.36619 0.82173 0.0
C387 C 0.29592 0.38916 0.78884 0.0
C388 C 0.31318 0.30686 0.82152 0.0
C389 C 0.3444 0.20225 0.75866 0.0
H390 H 0.27087 0.07215 0.83929 0.0
C391 C 0.32497 0.94433 0.75407 0.0
C392 C 0.34 0.92131 0.78704 0.0
C393 C 0.32348 0.00389 0.75414 0.0
C394 C 0.29239 0.10865 0.81691 0.0
H395 H 0.26814 0.36723 0.73031 0.0
H396 H 0.27123 0.26274 0.73012 0.0
H397 H 0.25331 0.16829 0.83929 0.0
H398 H 0.36786 0.94338 0.84554 0.0
H399 H 0.36549 0.04825 0.84553 0.0
H400 H 0.38345 0.14257 0.73626 0.0
C401 C 0.28233 0.29125 0.75584 0.0
C402 C 0.28203 0.1632 0.8168 0.0
C403 C 0.28011 0.3506 0.75606 0.0
C404 C 0.35608 0.96005 0.81974 0.0
C405 C 0.35428 0.01962 0.81984 0.0
C406 C 0.35476 0.14769 0.75876 0.0
C407 C 0.29993 0.26965 0.78844 0.0
C408 C 0.30799 0.21034 0.78768 0.0
C409 C 0.33685 0.04124 0.78718 0.0
C410 C 0.32883 0.10057 0.7879 0.0
H411 H 0.32302 0.39459 0.84752 0.0
H412 H 0.32733 0.29134 0.84693 0.0
H413 H 0.3659 0.23875 0.73628 0.0
H414 H 0.31316 0.9158 0.72831 0.0
H415 H 0.3095 0.01944 0.72868 0.0
C416 C 0.34565 0.28589 0.25691 0.0
C417 C 0.38387 0.30085 0.28978 0.0
C418 C 0.28671 0.28887 0.25667 0.0
C419 C 0.20911 0.3716 0.30523 0.0
H420 H 0.04612 0.23784 0.25638 0.0
C421 C 0.95415 0.35921 0.31919 0.0
C422 C 0.91538 0.34381 0.28653 0.0
C423 C 0.01369 0.35735 0.319 0.0
C424 C 0.09165 0.27591 0.26972 0.0
H425 H 0.38893 0.32667 0.34865 0.0
H426 H 0.28561 0.33113 0.34817 0.0
H427 H 0.14394 0.22307 0.25787 0.0
H428 H 0.90994 0.3187 0.22754 0.0
H429 H 0.01424 0.31604 0.22725 0.0
H430 H 0.15675 0.42435 0.31715 0.0
C431 C 0.30204 0.31871 0.3225 0.0
C432 C 0.14731 0.26736 0.27062 0.0
C433 C 0.36094 0.31597 0.32274 0.0
C434 C 0.93834 0.32954 0.25331 0.0
C435 C -0.00217 0.32793 0.2531 0.0
C436 C 0.15345 0.38014 0.30434 0.0
C437 C 0.26532 0.30657 0.2893 0.0
C438 C 0.2063 0.31508 0.28846 0.0
C439 C 0.03509 0.34035 0.28611 0.0
C440 C 0.09441 0.33235 0.28657 0.0
H441 H 0.36242 0.27435 0.23108 0.0
H442 H 0.25922 0.2797 0.23068 0.0
H443 H 0.25462 0.4096 0.31862 0.0
H444 H 0.93736 0.37019 0.34519 0.0
H445 H 0.0416 0.36671 0.34484 0.0
C446 C 0.02961 0.37568 0.75315 0.0
C447 C 0.05287 0.41273 0.78641 0.0
C448 C 0.97025 0.31444 0.75303 0.0
C449 C 0.81536 0.21024 0.80474 0.0
H450 H 0.82477 0.06337 0.75729 0.0
C451 C 0.60807 0.93833 0.82255 0.0
C452 C 0.5849 0.9007 0.78947 0.0
C453 C 0.66703 -7e-05 0.82241 0.0
C454 C 0.82143 0.1041 0.77033 0.0
H455 H 0.03157 0.41668 0.84524 0.0
H456 H 0.92754 0.30872 0.84503 0.0
H457 H 0.92243 0.1761 0.75588 0.0
H458 H 0.60602 0.89633 0.73065 0.0
H459 H 0.70931 0.00482 0.7304 0.0
H460 H 0.71437 0.13822 0.8192 0.0
C461 C 0.95512 0.32751 0.81909 0.0
C462 C 0.87699 0.16838 0.76947 0.0
C463 C 0.01452 0.38906 0.81921 0.0
C464 C 0.62297 0.92431 0.75656 0.0
C465 C 0.68196 0.9862 0.75641 0.0
C466 C 0.75979 0.14596 0.80559 0.0
C467 C 0.93343 0.28928 0.78616 0.0
C468 C 0.87426 0.22182 0.78665 0.0
C469 C 0.70357 0.02491 0.78918 0.0
C470 C 0.76255 0.09249 0.78845 0.0
H471 H 0.05769 0.39348 0.72729 0.0
H472 H 0.95361 0.28628 0.72715 0.0
H473 H 0.81206 0.25097 0.81782 0.0
H474 H 0.5802 0.92075 0.84849 0.0
H475 H 0.68361 0.02847 0.84817 0.0
loop_
_geom_bond_atom_site_label_1
_geom_bond_atom_site_label_2
_geom_bond_distance
_geom_bond_site_symmetry_2
_ccdc_geom_bond_type
H0 O1 0.850 . S
O1 H0 0.850 . S
O1 Tb2 2.341 . S
O1 Tb3 2.341 . S
O1 Tb4 2.341 . S
Tb2 O1 2.341 . S
Tb2 O5 2.341 . S
Tb2 O6 2.341 . S
Tb2 O7 2.341 . S
Tb2 O22 2.344 . S
Tb2 O25 2.344 . S
Tb2 O38 2.344 . S
Tb2 O41 2.344 . S
Tb3 O1 2.341 . S
Tb3 O5 2.341 . S
Tb3 O8 2.341 . S
Tb3 O10 2.341 . S
Tb3 O26 2.344 . S
Tb3 O29 2.344 . S
Tb3 O34 2.344 . S
Tb3 O37 2.344 . S
Tb4 O1 2.341 . S
Tb4 O6 2.341 . S
Tb4 O9 2.341 . S
Tb4 O10 2.341 . S
Tb4 O30 2.344 . S
Tb4 O33 2.344 . S
Tb4 O43 2.344 . S
Tb4 O44 2.344 . S
O5 Tb2 2.341 . S
O5 Tb3 2.341 . S
O5 H11 0.850 . S
O5 Tb13 2.341 . S
O6 Tb2 2.341 . S
O6 Tb4 2.341 . S
O6 H12 0.850 . S
O6 Tb14 2.341 . S
O7 Tb2 2.341 . S
O7 Tb13 2.341 . S
O7 Tb14 2.341 . S
O7 H15 0.850 . S
O8 Tb3 2.341 . S
O8 Tb13 2.341 . S
O8 H16 0.850 . S
O8 Tb17 2.341 . S
O9 Tb4 2.341 . S
O9 Tb14 2.341 . S
O9 Tb17 2.341 . S
O9 H18 0.850 . S
O10 Tb3 2.341 . S
O10 Tb4 2.341 . S
O10 Tb17 2.341 . S
O10 H19 0.850 . S
H11 O5 0.850 . S
H12 O6 0.850 . S
Tb13 O5 2.341 . S
Tb13 O7 2.341 . S
Tb13 O8 2.341 . S
Tb13 O20 2.341 . S
Tb13 O31 2.344 . S
Tb13 O32 2.344 . S
Tb13 O42 2.344 . S
Tb13 O45 2.344 . S
Tb14 O6 2.341 . S
Tb14 O7 2.341 . S
Tb14 O9 2.341 . S
Tb14 O20 2.341 . S
Tb14 O27 2.344 . S
Tb14 O28 2.344 . S
Tb14 O35 2.344 . S
Tb14 O36 2.344 . S
H15 O7 0.850 . S
H16 O8 0.850 . S
Tb17 O8 2.341 . S
Tb17 O9 2.341 . S
Tb17 O10 2.341 . S
Tb17 O20 2.341 . S
Tb17 O23 2.344 . S
Tb17 O24 2.344 . S
Tb17 O39 2.344 . S
Tb17 O40 2.344 . S
H18 O9 0.850 . S
H19 O10 0.850 . S
O20 Tb13 2.341 . S
O20 Tb14 2.341 . S
O20 Tb17 2.341 . S
O20 H21 0.850 . S
H21 O20 0.850 . S
O22 Tb2 2.344 . S
O22 C46 1.272 . S
O23 Tb17 2.344 . S
O23 C47 1.272 . S
O24 Tb17 2.344 . S
O24 C48 1.272 . S
O25 Tb2 2.344 . S
O25 C49 1.272 . S
O26 Tb3 2.344 . S
O26 C50 1.272 . S
O27 Tb14 2.344 . S
O27 C51 1.272 . S
O28 Tb14 2.344 . S
O28 C52 1.272 . S
O29 Tb3 2.344 . S
O29 C53 1.272 . S
O30 Tb4 2.344 . S
O30 C54 1.272 . S
O31 Tb13 2.344 . S
O31 C55 1.272 . S
O32 Tb13 2.344 . S
O32 C56 1.272 . S
O33 Tb4 2.344 . S
O33 C57 1.272 . S
O34 Tb3 2.344 . S
O34 C46 1.272 . S
O35 Tb14 2.344 . S
O35 C47 1.272 . S
O36 Tb14 2.344 . S
O36 C49 1.272 . S
O37 Tb3 2.344 . S
O37 C48 1.272 . S
O38 Tb2 2.344 . S
O38 C56 1.272 . S
O39 Tb17 2.344 . S
O39 C57 1.272 . S
O40 Tb17 2.344 . S
O40 C55 1.272 . S
O41 Tb2 2.344 . S
O41 C54 1.272 . S
O42 Tb13 2.344 . S
O42 C53 1.272 . S
O43 Tb4 2.344 . S
O43 C52 1.272 . S
O44 Tb4 2.344 . S
O44 C50 1.272 . S
O45 Tb13 2.344 . S
O45 C51 1.272 . S
C46 O22 1.272 . S
C46 O34 1.272 . S
C47 O23 1.272 . S
C47 O35 1.272 . S
C48 O24 1.272 . S
C48 O37 1.272 . S
C49 O25 1.272 . S
C49 O36 1.272 . S
C50 O26 1.272 . S
C50 O44 1.272 . S
C51 O27 1.272 . S
C51 O45 1.272 . S
C52 O28 1.272 . S
C52 O43 1.272 . S
C53 O29 1.272 . S
C53 O42 1.272 . S
C54 O30 1.272 . S
C54 O41 1.272 . S
C55 O31 1.272 . S
C55 O40 1.272 . S
C56 O32 1.272 . S
C56 O38 1.272 . S
C57 O33 1.272 . S
C57 O39 1.272 . S
H58 O59 0.850 . S
O59 H58 0.850 . S
O59 Tb60 2.341 . S
O59 Tb61 2.341 . S
O59 Tb62 2.341 . S
Tb60 O59 2.341 . S
Tb60 O63 2.341 . S
Tb60 O64 2.341 . S
Tb60 O65 2.341 . S
Tb60 O80 2.344 . S
Tb60 O83 2.344 . S
Tb60 O96 2.344 . S
Tb60 O99 2.344 . S
Tb61 O59 2.341 . S
Tb61 O63 2.341 . S
Tb61 O66 2.341 . S
Tb61 O68 2.341 . S
Tb61 O84 2.344 . S
Tb61 O87 2.344 . S
Tb61 O92 2.344 . S
Tb61 O95 2.344 . S
Tb62 O59 2.341 . S
Tb62 O64 2.341 . S
Tb62 O67 2.341 . S
Tb62 O68 2.341 . S
Tb62 O88 2.344 . S
Tb62 O91 2.344 . S
Tb62 O101 2.344 . S
Tb62 O102 2.344 . S
O63 Tb60 2.341 . S
O63 Tb61 2.341 . S
O63 H69 0.850 . S
O63 Tb71 2.341 . S
O64 Tb60 2.341 . S
O64 Tb62 2.341 . S
O64 H70 0.850 . S
O64 Tb72 2.341 . S
O65 Tb60 2.341 . S
O65 Tb71 2.341 . S
O65 Tb72 2.341 . S
O65 H73 0.850 . S
O66 Tb61 2.341 . S
O66 Tb71 2.341 . S
O66 H74 0.850 . S
O66 Tb75 2.341 . S
O67 Tb62 2.341 . S
O67 Tb72 2.341 . S
O67 Tb75 2.341 . S
O67 H76 0.850 . S
O68 Tb61 2.341 . S
O68 Tb62 2.341 . S
O68 Tb75 2.341 . S
O68 H77 0.850 . S
H69 O63 0.850 . S
H70 O64 0.850 . S
Tb71 O63 2.341 . S
Tb71 O65 2.341 . S
Tb71 O66 2.341 . S
Tb71 O78 2.341 . S
Tb71 O89 2.344 . S
Tb71 O90 2.344 . S
Tb71 O100 2.344 . S
Tb71 O103 2.344 . S
Tb72 O64 2.341 . S
Tb72 O65 2.341 . S
Tb72 O67 2.341 . S
Tb72 O78 2.341 . S
Tb72 O85 2.344 . S
Tb72 O86 2.344 . S
Tb72 O93 2.344 . S
Tb72 O94 2.344 . S
H73 O65 0.850 . S
H74 O66 0.850 . S
Tb75 O66 2.341 . S
Tb75 O67 2.341 . S
Tb75 O68 2.341 . S
Tb75 O78 2.341 . S
Tb75 O81 2.344 . S
Tb75 O82 2.344 . S
Tb75 O97 2.344 . S
Tb75 O98 2.344 . S
H76 O67 0.850 . S
H77 O68 0.850 . S
O78 Tb71 2.341 . S
O78 Tb72 2.341 . S
O78 Tb75 2.341 . S
O78 H79 0.850 . S
H79 O78 0.850 . S
O80 Tb60 2.344 . S
O80 C104 1.272 . S
O81 Tb75 2.344 . S
O81 C105 1.272 . S
O82 Tb75 2.344 . S
O82 C106 1.272 . S
O83 Tb60 2.344 . S
O83 C107 1.272 . S
O84 Tb61 2.344 . S
O84 C108 1.272 . S
O85 Tb72 2.344 . S
O85 C109 1.272 . S
O86 Tb72 2.344 . S
O86 C110 1.272 . S
O87 Tb61 2.344 . S
O87 C111 1.272 . S
O88 Tb62 2.344 . S
O88 C112 1.272 . S
O89 Tb71 2.344 . S
O89 C113 1.272 . S
O90 Tb71 2.344 . S
O90 C114 1.272 . S
O91 Tb62 2.344 . S
O91 C115 1.272 . S
O92 Tb61 2.344 . S
O92 C104 1.272 . S
O93 Tb72 2.344 . S
O93 C105 1.272 . S
O94 Tb72 2.344 . S
O94 C107 1.272 . S
O95 Tb61 2.344 . S
O95 C106 1.272 . S
O96 Tb60 2.344 . S
O96 C114 1.272 . S
O97 Tb75 2.344 . S
O97 C115 1.272 . S
O98 Tb75 2.344 . S
O98 C113 1.272 . S
O99 Tb60 2.344 . S
O99 C112 1.272 . S
O100 Tb71 2.344 . S
O100 C111 1.272 . S
O101 Tb62 2.344 . S
O101 C110 1.272 . S
O102 Tb62 2.344 . S
O102 C108 1.272 . S
O103 Tb71 2.344 . S
O103 C109 1.272 . S
C104 O80 1.272 . S
C104 O92 1.272 . S
C105 O81 1.272 . S
C105 O93 1.272 . S
C106 O82 1.272 . S
C106 O95 1.272 . S
C107 O83 1.272 . S
C107 O94 1.272 . S
C108 O84 1.272 . S
C108 O102 1.272 . S
C109 O85 1.272 . S
C109 O103 1.272 . S
C110 O86 1.272 . S
C110 O101 1.272 . S
C111 O87 1.272 . S
C111 O100 1.272 . S
C112 O88 1.272 . S
C112 O99 1.272 . S
C113 O89 1.272 . S
C113 O98 1.272 . S
C114 O90 1.272 . S
C114 O96 1.272 . S
C115 O91 1.272 . S
C115 O97 1.272 . S
C116 C117 1.349 . S
C116 C118 1.327 . S
C116 H141 0.950 . S
C117 C116 1.349 . S
C117 C133 1.349 . S
C118 C116 1.327 . S
C118 C137 1.429 . S
C118 H142 0.950 . S
C119 C136 1.574 1_556 S
C119 C138 1.368 . S
C119 H143 0.949 . S
H120 C124 0.949 . S
C121 C122 1.349 . S
C121 C123 1.327 . S
C121 H144 0.950 . S
C122 C121 1.349 . S
C122 C134 1.349 . S
C123 C121 1.327 . S
C123 C139 1.429 . S
C123 H145 0.950 . S
C124 H120 0.949 . S
C124 C132 1.574 1_544 S
C124 C140 1.368 . S
H125 C133 0.950 . S
H126 C131 0.950 . S
H127 C132 0.949 . S
H128 C134 0.950 . S
H129 C135 0.950 . S
H130 C136 0.949 . S
C131 H126 0.950 . S
C131 C133 1.327 . S
C131 C137 1.429 . S
C132 C124 1.574 1_566 S
C132 H127 0.949 . S
C132 C138 1.368 . S
C133 C117 1.349 . S
C133 H125 0.950 . S
C133 C131 1.327 . S
C134 C122 1.349 . S
C134 H128 0.950 . S
C134 C135 1.327 . S
C135 H129 0.950 . S
C135 C134 1.327 . S
C135 C139 1.429 . S
C136 C119 1.574 1_554 S
C136 H130 0.949 . S
C136 C140 1.368 1_565 S
C137 C118 1.429 . S
C137 C131 1.429 . S
C137 C138 1.523 . S
C138 C119 1.368 . S
C138 C132 1.368 . S
C138 C137 1.523 . S
C139 C123 1.429 . S
C139 C135 1.429 . S
C139 C140 1.523 . S
C140 C124 1.368 . S
C140 C136 1.368 1_545 S
C140 C139 1.523 . S
H141 C116 0.950 . S
H142 C118 0.950 . S
H143 C119 0.949 . S
H144 C121 0.950 . S
H145 C123 0.950 . S
C146 C147 1.349 . S
C146 C148 1.327 . S
C146 H171 0.950 . S
C147 C146 1.349 . S
C147 C163 1.349 . S
C148 C146 1.327 . S
C148 C167 1.429 . S
C148 H172 0.950 . S
C149 C166 1.574 . S
C149 C168 1.368 . S
C149 H173 0.949 . S
H150 C154 0.949 . S
C151 C152 1.349 . S
C151 C153 1.327 . S
C151 H174 0.950 . S
C152 C151 1.349 . S
C152 C164 1.349 . S
C153 C151 1.327 . S
C153 C169 1.429 . S
C153 H175 0.950 . S
C154 H150 0.949 . S
C154 C162 1.574 . S
C154 C170 1.368 . S
H155 C163 0.950 . S
H156 C161 0.950 . S
H157 C162 0.949 . S
H158 C164 0.950 . S
H159 C165 0.950 . S
H160 C166 0.949 . S
C161 H156 0.950 . S
C161 C163 1.327 . S
C161 C167 1.429 . S
C162 C154 1.574 . S
C162 H157 0.949 . S
C162 C168 1.368 . S
C163 C147 1.349 . S
C163 H155 0.950 . S
C163 C161 1.327 . S
C164 C152 1.349 . S
C164 H158 0.950 . S
C164 C165 1.327 . S
C165 H159 0.950 . S
C165 C164 1.327 . S
C165 C169 1.429 . S
C166 C149 1.574 . S
C166 H160 0.949 . S
C166 C170 1.368 . S
C167 C148 1.429 . S
C167 C161 1.429 . S
C167 C168 1.523 . S
C168 C149 1.368 . S
C168 C162 1.368 . S
C168 C167 1.523 . S
C169 C153 1.429 . S
C169 C165 1.429 . S
C169 C170 1.523 . S
C170 C154 1.368 . S
C170 C166 1.368 . S
C170 C169 1.523 . S
H171 C146 0.950 . S
H172 C148 0.950 . S
H173 C149 0.949 . S
H174 C151 0.950 . S
H175 C153 0.950 . S
C176 C177 1.349 . S
C176 C178 1.327 . S
C176 H201 0.950 . S
C177 C176 1.349 . S
C177 C193 1.349 . S
C178 C176 1.327 . S
C178 C197 1.429 . S
C178 H202 0.950 . S
C179 C196 1.574 . S
C179 C198 1.368 1_455 S
C179 H203 0.949 . S
H180 C184 0.949 1_655 S
C181 C182 1.349 . S
C181 C183 1.327 . S
C181 H204 0.950 . S
C182 C181 1.349 . S
C182 C194 1.349 . S
C183 C181 1.327 . S
C183 C199 1.429 . S
C183 H205 0.950 . S
C184 H180 0.949 1_455 S
C184 C192 1.574 1_455 S
C184 C200 1.368 . S
H185 C193 0.950 . S
H186 C191 0.950 1_455 S
H187 C192 0.949 . S
H188 C194 0.950 . S
H189 C195 0.950 . S
H190 C196 0.949 . S
C191 H186 0.950 1_655 S
C191 C193 1.327 . S
C191 C197 1.429 . S
C192 C184 1.574 1_655 S
C192 H187 0.949 . S
C192 C198 1.368 1_556 S
C193 C177 1.349 . S
C193 H185 0.950 . S
C193 C191 1.327 . S
C194 C182 1.349 . S
C194 H188 0.950 . S
C194 C195 1.327 . S
C195 H189 0.950 . S
C195 C194 1.327 . S
C195 C199 1.429 . S
C196 C179 1.574 . S
C196 H190 0.949 . S
C196 C200 1.368 1_554 S
C197 C178 1.429 . S
C197 C191 1.429 . S
C197 C198 1.523 . S
C198 C179 1.368 1_655 S
C198 C192 1.368 1_554 S
C198 C197 1.523 . S
C199 C183 1.429 . S
C199 C195 1.429 . S
C199 C200 1.523 . S
C200 C184 1.368 . S
C200 C196 1.368 1_556 S
C200 C199 1.523 . S
H201 C176 0.950 . S
H202 C178 0.950 . S
H203 C179 0.949 . S
H204 C181 0.950 . S
H205 C183 0.950 . S
C206 C207 1.349 . S
C206 C208 1.327 . S
C206 H231 0.950 . S
C207 C206 1.349 . S
C207 C223 1.349 . S
C208 C206 1.327 . S
C208 C227 1.429 . S
C208 H232 0.950 . S
C209 C226 1.574 . S
C209 C228 1.368 1_545 S
C209 H233 0.949 . S
H210 C214 0.949 . S
C211 C212 1.349 . S
C211 C213 1.327 . S
C211 H234 0.950 . S
C212 C211 1.349 . S
C212 C224 1.349 . S
C213 C211 1.327 . S
C213 C229 1.429 . S
C213 H235 0.950 . S
C214 H210 0.949 . S
C214 C222 1.574 1_545 S
C214 C230 1.368 . S
H215 C223 0.950 . S
H216 C221 0.950 . S
H217 C222 0.949 . S
H218 C224 0.950 . S
H219 C225 0.950 . S
H220 C226 0.949 . S
C221 H216 0.950 . S
C221 C223 1.327 . S
C221 C227 1.429 . S
C222 C214 1.574 1_565 S
C222 H217 0.949 . S
C222 C228 1.368 . S
C223 C207 1.349 . S
C223 H215 0.950 . S
C223 C221 1.327 . S
C224 C212 1.349 . S
C224 H218 0.950 . S
C224 C225 1.327 . S
C225 H219 0.950 . S
C225 C224 1.327 . S
C225 C229 1.429 . S
C226 C209 1.574 . S
C226 H220 0.949 . S
C226 C230 1.368 . S
C227 C208 1.429 . S
C227 C221 1.429 . S
C227 C228 1.523 . S
C228 C209 1.368 1_565 S
C228 C222 1.368 . S
C228 C227 1.523 . S
C229 C213 1.429 . S
C229 C225 1.429 . S
C229 C230 1.523 . S
C230 C214 1.368 . S
C230 C226 1.368 . S
C230 C229 1.523 . S
H231 C206 0.950 . S
H232 C208 0.950 . S
H233 C209 0.949 . S
H234 C211 0.950 . S
H235 C213 0.950 . S
C236 C237 1.349 . S
C236 C238 1.327 . S
C236 H261 0.950 . S
C237 C236 1.349 . S
C237 C253 1.349 . S
C238 C236 1.327 . S
C238 C257 1.429 . S
C238 H262 0.950 . S
C239 C256 1.574 1_554 S
C239 C258 1.368 . S
C239 H263 0.949 . S
H240 C244 0.949 . S
C241 C242 1.349 . S
C241 C243 1.327 . S
C241 H264 0.950 . S
C242 C241 1.349 . S
C242 C254 1.349 . S
C243 C241 1.327 . S
C243 C259 1.429 . S
C243 H265 0.950 . S
C244 H240 0.949 . S
C244 C252 1.574 1_556 S
C244 C260 1.368 . S
H245 C253 0.950 . S
H246 C251 0.950 . S
H247 C252 0.949 . S
H248 C254 0.950 . S
H249 C255 0.950 . S
H250 C256 0.949 . S
C251 H246 0.950 . S
C251 C253 1.327 . S
C251 C257 1.429 . S
C252 C244 1.574 1_554 S
C252 H247 0.949 . S
C252 C258 1.368 . S
C253 C237 1.349 . S
C253 H245 0.950 . S
C253 C251 1.327 . S
C254 C242 1.349 . S
C254 H248 0.950 . S
C254 C255 1.327 . S
C255 H249 0.950 . S
C255 C254 1.327 . S
C255 C259 1.429 . S
C256 C239 1.574 1_556 S
C256 H250 0.949 . S
C256 C260 1.368 . S
C257 C238 1.429 . S
C257 C251 1.429 . S
C257 C258 1.523 . S
C258 C239 1.368 . S
C258 C252 1.368 . S
C258 C257 1.523 . S
C259 C243 1.429 . S
C259 C255 1.429 . S
C259 C260 1.523 . S
C260 C244 1.368 . S
C260 C256 1.368 . S
C260 C259 1.523 . S
H261 C236 0.950 . S
H262 C238 0.950 . S
H263 C239 0.949 . S
H264 C241 0.950 . S
H265 C243 0.950 . S
C266 C267 1.349 . S
C266 C268 1.327 . S
C266 H291 0.950 . S
C267 C266 1.349 . S
C267 C283 1.349 . S
C268 C266 1.327 . S
C268 C287 1.429 . S
C268 H292 0.950 . S
C269 C286 1.574 1_655 S
C269 C288 1.368 . S
C269 H293 0.949 . S
H270 C274 0.949 . S
C271 C272 1.349 . S
C271 C273 1.327 . S
C271 H294 0.950 . S
C272 C271 1.349 . S
C272 C284 1.349 . S
C273 C271 1.327 . S
C273 C289 1.429 . S
C273 H295 0.950 . S
C274 H270 0.949 . S
C274 C282 1.574 . S
C274 C290 1.368 1_655 S
H275 C283 0.950 . S
H276 C281 0.950 . S
H277 C282 0.949 . S
H278 C284 0.950 . S
H279 C285 0.950 . S
H280 C286 0.949 . S
C281 H276 0.950 . S
C281 C283 1.327 . S
C281 C287 1.429 . S
C282 C274 1.574 . S
C282 H277 0.949 . S
C282 C288 1.368 . S
C283 C267 1.349 . S
C283 H275 0.950 . S
C283 C281 1.327 . S
C284 C272 1.349 . S
C284 H278 0.950 . S
C284 C285 1.327 . S
C285 H279 0.950 . S
C285 C284 1.327 . S
C285 C289 1.429 . S
C286 C269 1.574 1_455 S
C286 H280 0.949 . S
C286 C290 1.368 . S
C287 C268 1.429 . S
C287 C281 1.429 . S
C287 C288 1.523 . S
C288 C269 1.368 . S
C288 C282 1.368 . S
C288 C287 1.523 . S
C289 C273 1.429 . S
C289 C285 1.429 . S
C289 C290 1.523 . S
C290 C274 1.368 1_455 S
C290 C286 1.368 . S
C290 C289 1.523 . S
H291 C266 0.950 . S
H292 C268 0.950 . S
H293 C269 0.949 . S
H294 C271 0.950 . S
H295 C273 0.950 . S
C296 C297 1.349 . S
C296 C298 1.327 1_545 S
C296 H321 0.950 . S
C297 C296 1.349 . S
C297 C313 1.349 . S
C298 C296 1.327 1_565 S
C298 C317 1.429 . S
C298 H322 0.950 . S
C299 C316 1.574 . S
C299 C318 1.368 . S
C299 H323 0.949 . S
H300 C304 0.949 . S
C301 C302 1.349 . S
C301 C303 1.327 . S
C301 H324 0.950 . S
C302 C301 1.349 . S
C302 C314 1.349 . S
C303 C301 1.327 . S
C303 C319 1.429 . S
C303 H325 0.950 . S
C304 H300 0.949 . S
C304 C312 1.574 . S
C304 C320 1.368 . S
H305 C313 0.950 . S
H306 C311 0.950 . S
H307 C312 0.949 . S
H308 C314 0.950 . S
H309 C315 0.950 . S
H310 C316 0.949 . S
C311 H306 0.950 . S
C311 C313 1.327 . S
C311 C317 1.429 1_545 S
C312 C304 1.574 . S
C312 H307 0.949 . S
C312 C318 1.368 . S
C313 C297 1.349 . S
C313 H305 0.950 . S
C313 C311 1.327 . S
C314 C302 1.349 . S
C314 H308 0.950 . S
C314 C315 1.327 . S
C315 H309 0.950 . S
C315 C314 1.327 . S
C315 C319 1.429 . S
C316 C299 1.574 . S
C316 H310 0.949 . S
C316 C320 1.368 . S
C317 C298 1.429 . S
C317 C311 1.429 1_565 S
C317 C318 1.523 . S
C318 C299 1.368 . S
C318 C312 1.368 . S
C318 C317 1.523 . S
C319 C303 1.429 . S
C319 C315 1.429 . S
C319 C320 1.523 . S
C320 C304 1.368 . S
C320 C316 1.368 . S
C320 C319 1.523 . S
H321 C296 0.950 . S
H322 C298 0.950 . S
H323 C299 0.949 . S
H324 C301 0.950 . S
H325 C303 0.950 . S
C326 C327 1.349 . S
C326 C328 1.327 1_455 S
C326 H351 0.950 . S
C327 C326 1.349 . S
C327 C343 1.349 . S
C328 C326 1.327 1_655 S
C328 C347 1.429 . S
C328 H352 0.950 . S
C329 C346 1.574 . S
C329 C348 1.368 . S
C329 H353 0.949 . S
H330 C334 0.949 . S
C331 C332 1.349 . S
C331 C333 1.327 . S
C331 H354 0.950 . S
C332 C331 1.349 . S
C332 C344 1.349 . S
C333 C331 1.327 . S
C333 C349 1.429 . S
C333 H355 0.950 . S
C334 H330 0.949 . S
C334 C342 1.574 . S
C334 C350 1.368 . S
H335 C343 0.950 . S
H336 C341 0.950 . S
H337 C342 0.949 . S
H338 C344 0.950 . S
H339 C345 0.950 . S
H340 C346 0.949 . S
C341 H336 0.950 . S
C341 C343 1.327 . S
C341 C347 1.429 1_455 S
C342 C334 1.574 . S
C342 H337 0.949 . S
C342 C348 1.368 . S
C343 C327 1.349 . S
C343 H335 0.950 . S
C343 C341 1.327 . S
C344 C332 1.349 . S
C344 H338 0.950 . S
C344 C345 1.327 . S
C345 H339 0.950 . S
C345 C344 1.327 . S
C345 C349 1.429 . S
C346 C329 1.574 . S
C346 H340 0.949 . S
C346 C350 1.368 . S
C347 C328 1.429 . S
C347 C341 1.429 1_655 S
C347 C348 1.523 . S
C348 C329 1.368 . S
C348 C342 1.368 . S
C348 C347 1.523 . S
C349 C333 1.429 . S
C349 C345 1.429 . S
C349 C350 1.523 . S
C350 C334 1.368 . S
C350 C346 1.368 . S
C350 C349 1.523 . S
H351 C326 0.950 . S
H352 C328 0.950 . S
H353 C329 0.949 . S
H354 C331 0.950 . S
H355 C333 0.950 . S
C356 C357 1.349 . S
C356 C358 1.327 . S
C356 H381 0.950 . S
C357 C356 1.349 . S
C357 C373 1.349 . S
C358 C356 1.327 . S
C358 C377 1.429 1_545 S
C358 H382 0.947 . S
C359 C376 1.574 . S
C359 C378 1.368 . S
C359 H383 0.949 . S
H360 C364 0.949 . S
C361 C362 1.349 . S
C361 C363 1.327 1_655 S
C361 H384 0.950 . S
C362 C361 1.349 . S
C362 C374 1.349 . S
C363 C361 1.327 1_455 S
C363 C379 1.429 . S
C363 H385 0.950 . S
C364 H360 0.949 . S
C364 C372 1.574 . S
C364 C380 1.368 . S
H365 C373 0.950 . S
H366 C371 0.950 . S
H367 C372 0.949 . S
H368 C374 0.950 . S
H369 C375 0.950 . S
H370 C376 0.949 . S
C371 H366 0.950 . S
C371 C373 1.327 1_565 S
C371 C377 1.429 . S
C372 C364 1.574 . S
C372 H367 0.949 . S
C372 C378 1.368 . S
C373 C357 1.349 . S
C373 H365 0.950 . S
C373 C371 1.327 1_545 S
C374 C362 1.349 . S
C374 H368 0.950 . S
C374 C375 1.327 . S
C375 H369 0.950 . S
C375 C374 1.327 . S
C375 C379 1.429 1_655 S
C376 C359 1.574 . S
C376 H370 0.949 . S
C376 C380 1.368 . S
C377 C358 1.429 1_565 S
C377 C371 1.429 . S
C377 C378 1.523 . S
C378 C359 1.368 . S
C378 C372 1.368 . S
C378 C377 1.523 . S
C379 C363 1.429 . S
C379 C375 1.429 1_455 S
C379 C380 1.523 . S
C380 C364 1.368 . S
C380 C376 1.368 . S
C380 C379 1.523 . S
H381 C356 0.950 . S
H382 C358 0.947 . S
H383 C359 0.949 . S
H384 C361 0.950 . S
H385 C363 0.950 . S
C386 C387 1.349 . S
C386 C388 1.327 . S
C386 H411 0.950 . S
C387 C386 1.349 . S
C387 C403 1.349 . S
C388 C386 1.327 . S
C388 C407 1.429 . S
C388 H412 0.950 . S
C389 C406 1.574 . S
C389 C408 1.368 . S
C389 H413 0.949 . S
H390 C394 0.949 . S
C391 C392 1.349 . S
C391 C393 1.327 1_565 S
C391 H414 0.950 . S
C392 C391 1.349 . S
C392 C404 1.349 . S
C393 C391 1.327 1_545 S
C393 C409 1.429 . S
C393 H415 0.950 . S
C394 H390 0.949 . S
C394 C402 1.574 . S
C394 C410 1.368 . S
H395 C403 0.950 . S
H396 C401 0.950 . S
H397 C402 0.949 . S
H398 C404 0.950 . S
H399 C405 0.953 . S
H400 C406 0.949 . S
C401 H396 0.950 . S
C401 C403 1.327 . S
C401 C407 1.429 . S
C402 C394 1.574 . S
C402 H397 0.949 . S
C402 C408 1.368 . S
C403 C387 1.349 . S
C403 H395 0.950 . S
C403 C401 1.327 . S
C404 C392 1.349 . S
C404 H398 0.950 . S
C404 C405 1.327 . S
C405 H399 0.953 . S
C405 C404 1.327 . S
C405 C409 1.429 1_565 S
C406 C389 1.574 . S
C406 H400 0.949 . S
C406 C410 1.368 . S
C407 C388 1.429 . S
C407 C401 1.429 . S
C407 C408 1.523 . S
C408 C389 1.368 . S
C408 C402 1.368 . S
C408 C407 1.523 . S
C409 C393 1.429 . S
C409 C405 1.429 1_545 S
C409 C410 1.523 . S
C410 C394 1.368 . S
C410 C406 1.368 . S
C410 C409 1.523 . S
H411 C386 0.950 . S
H412 C388 0.950 . S
H413 C389 0.949 . S
H414 C391 0.950 . S
H415 C393 0.950 . S
C416 C417 1.349 . S
C416 C418 1.327 . S
C416 H441 0.950 . S
C417 C416 1.349 . S
C417 C433 1.349 . S
C418 C416 1.327 . S
C418 C437 1.429 . S
C418 H442 0.950 . S
C419 C436 1.574 . S
C419 C438 1.368 . S
C419 H443 0.949 . S
H420 C424 0.949 . S
C421 C422 1.349 . S
C421 C423 1.327 1_655 S
C421 H444 0.950 . S
C422 C421 1.349 . S
C422 C434 1.349 . S
C423 C421 1.327 1_455 S
C423 C439 1.429 . S
C423 H445 0.950 . S
C424 H420 0.949 . S
C424 C432 1.574 . S
C424 C440 1.368 . S
H425 C433 0.950 . S
H426 C431 0.950 . S
H427 C432 0.949 . S
H428 C434 0.950 . S
H429 C435 0.953 . S
H430 C436 0.949 . S
C431 H426 0.950 . S
C431 C433 1.327 . S
C431 C437 1.429 . S
C432 C424 1.574 . S
C432 H427 0.949 . S
C432 C438 1.368 . S
C433 C417 1.349 . S
C433 H425 0.950 . S
C433 C431 1.327 . S
C434 C422 1.349 . S
C434 H428 0.950 . S
C434 C435 1.327 . S
C435 H429 0.953 . S
C435 C434 1.327 . S
C435 C439 1.429 1_655 S
C436 C419 1.574 . S
C436 H430 0.949 . S
C436 C440 1.368 . S
C437 C418 1.429 . S
C437 C431 1.429 . S
C437 C438 1.523 . S
C438 C419 1.368 . S
C438 C432 1.368 . S
C438 C437 1.523 . S
C439 C423 1.429 . S
C439 C435 1.429 1_455 S
C439 C440 1.523 . S
C440 C424 1.368 . S
C440 C436 1.368 . S
C440 C439 1.523 . S
H441 C416 0.950 . S
H442 C418 0.950 . S
H443 C419 0.949 . S
H444 C421 0.950 . S
H445 C423 0.950 . S
C446 C447 1.349 . S
C446 C448 1.327 . S
C446 H471 0.950 . S
C447 C446 1.349 . S
C447 C463 1.349 . S
C448 C446 1.327 . S
C448 C467 1.429 1_455 S
C448 H472 0.947 . S
C449 C466 1.574 . S
C449 C468 1.368 . S
C449 H473 0.949 . S
H450 C454 0.949 . S
C451 C452 1.349 . S
C451 C453 1.327 1_565 S
C451 H474 0.950 . S
C452 C451 1.349 . S
C452 C464 1.349 . S
C453 C451 1.327 1_545 S
C453 C469 1.429 . S
C453 H475 0.950 . S
C454 H450 0.949 . S
C454 C462 1.574 . S
C454 C470 1.368 . S
H455 C463 0.950 . S
H456 C461 0.950 . S
H457 C462 0.949 . S
H458 C464 0.950 . S
H459 C465 0.950 . S
H460 C466 0.949 . S
C461 H456 0.950 . S
C461 C463 1.327 1_655 S
C461 C467 1.429 . S
C462 C454 1.574 . S
C462 H457 0.949 . S
C462 C468 1.368 . S
C463 C447 1.349 . S
C463 H455 0.950 . S
C463 C461 1.327 1_455 S
C464 C452 1.349 . S
C464 H458 0.950 . S
C464 C465 1.327 . S
C465 H459 0.950 . S
C465 C464 1.327 . S
C465 C469 1.429 1_565 S
C466 C449 1.574 . S
C466 H460 0.949 . S
C466 C470 1.368 . S
C467 C448 1.429 1_655 S
C467 C461 1.429 . S
C467 C468 1.523 . S
C468 C449 1.368 . S
C468 C462 1.368 . S
C468 C467 1.523 . S
C469 C453 1.429 . S
C469 C465 1.429 1_545 S
C469 C470 1.523 . S
C470 C454 1.368 . S
C470 C466 1.368 . S
C470 C469 1.523 . S
H471 C446 0.950 . S
H472 C448 0.947 . S
H473 C449 0.949 . S
H474 C451 0.950 . S
H475 C453 0.950 . S
C117 C107 1.755 . S
C122 C54 1.859 . S
C147 C106 1.859 . S
C152 C55 1.755 . S
C177 C52 1.859 . S
C182 C114 1.755 . S
C207 C115 1.859 . S
C212 C53 1.755 . S
C237 C49 1.859 . S
C242 C109 1.755 . S
C267 C48 1.755 . S
C272 C108 1.859 . S
C297 C50 1.013 . S
C302 C51 1.013 . S
C327 C112 1.013 . S
C332 C113 1.013 . S
C357 C46 1.013 . S
C362 C47 1.013 . S
C387 C111 1.013 . S
C392 C110 1.013 . S
C417 C56 1.013 . S
C422 C57 1.013 . S
C447 C104 1.013 . S
C452 C105 1.013 . S
