# Generated by pormake.
# Topology umd, (4)-cn, num edge types: 1
# Building blocks:
#     Node 0, Type 0, BuildingBlock: KOZSID_clean_sbu_0, # of connection points: 4
#     Node 1, Type 0, BuildingBlock: KOZSID_clean_sbu_0, # of connection points: 4
#     Node 2, Type 0, BuildingBlock: KOZSID_clean_sbu_0, # of connection points: 4
#     Node 3, Type 0, BuildingBlock: KOZSID_clean_sbu_0, # of connection points: 4
#     Node 4, Type 0, BuildingBlock: KOZSID_clean_sbu_0, # of connection points: 4
#     Node 5, Type 0, BuildingBlock: KOZSID_clean_sbu_0, # of connection points: 4
#     Node 6, Type 0, BuildingBlock: KOZSID_clean_sbu_0, # of connection points: 4
#     Node 7, Type 0, BuildingBlock: KOZSID_clean_sbu_0, # of connection points: 4
#     Node 8, Type 0, BuildingBlock: KOZSID_clean_sbu_0, # of connection points: 4
#     Node 9, Type 0, BuildingBlock: KOZSID_clean_sbu_0, # of connection points: 4
#     Node 10, Type 0, BuildingBlock: KOZSID_clean_sbu_0, # of connection points: 4
#     Node 11, Type 0, BuildingBlock: KOZSID_clean_sbu_0, # of connection points: 4
#     Node 12, Type 0, BuildingBlock: KOZSID_clean_sbu_0, # of connection points: 4
#     Node 13, Type 0, BuildingBlock: KOZSID_clean_sbu_0, # of connection points: 4
#     Node 14, Type 0, BuildingBlock: KOZSID_clean_sbu_0, # of connection points: 4
#     Node 15, Type 0, BuildingBlock: KOZSID_clean_sbu_0, # of connection points: 4
#     Edge 16, Type (0, 0), BuildingBlock: EZIPEK_clean_linker_0, # of connection points: 2
#     Edge 17, Type (0, 0), BuildingBlock: EZIPEK_clean_linker_0, # of connection points: 2
#     Edge 18, Type (0, 0), BuildingBlock: EZIPEK_clean_linker_0, # of connection points: 2
#     Edge 19, Type (0, 0), BuildingBlock: EZIPEK_clean_linker_0, # of connection points: 2
#     Edge 20, Type (0, 0), BuildingBlock: EZIPEK_clean_linker_0, # of connection points: 2
#     Edge 21, Type (0, 0), BuildingBlock: EZIPEK_clean_linker_0, # of connection points: 2
#     Edge 22, Type (0, 0), BuildingBlock: EZIPEK_clean_linker_0, # of connection points: 2
#     Edge 23, Type (0, 0), BuildingBlock: EZIPEK_clean_linker_0, # of connection points: 2
#     Edge 24, Type (0, 0), BuildingBlock: EZIPEK_clean_linker_0, # of connection points: 2
#     Edge 25, Type (0, 0), BuildingBlock: EZIPEK_clean_linker_0, # of connection points: 2
#     Edge 26, Type (0, 0), BuildingBlock: EZIPEK_clean_linker_0, # of connection points: 2
#     Edge 27, Type (0, 0), BuildingBlock: EZIPEK_clean_linker_0, # of connection points: 2
#     Edge 28, Type (0, 0), BuildingBlock: EZIPEK_clean_linker_0, # of connection points: 2
#     Edge 29, Type (0, 0), BuildingBlock: EZIPEK_clean_linker_0, # of connection points: 2
#     Edge 30, Type (0, 0), BuildingBlock: EZIPEK_clean_linker_0, # of connection points: 2
#     Edge 31, Type (0, 0), BuildingBlock: EZIPEK_clean_linker_0, # of connection points: 2
#     Edge 32, Type (0, 0), BuildingBlock: EZIPEK_clean_linker_0, # of connection points: 2
#     Edge 33, Type (0, 0), BuildingBlock: EZIPEK_clean_linker_0, # of connection points: 2
#     Edge 34, Type (0, 0), BuildingBlock: EZIPEK_clean_linker_0, # of connection points: 2
#     Edge 35, Type (0, 0), BuildingBlock: EZIPEK_clean_linker_0, # of connection points: 2
#     Edge 36, Type (0, 0), BuildingBlock: EZIPEK_clean_linker_0, # of connection points: 2
#     Edge 37, Type (0, 0), BuildingBlock: EZIPEK_clean_linker_0, # of connection points: 2
#     Edge 38, Type (0, 0), BuildingBlock: EZIPEK_clean_linker_0, # of connection points: 2
#     Edge 39, Type (0, 0), BuildingBlock: EZIPEK_clean_linker_0, # of connection points: 2
#     Edge 40, Type (0, 0), BuildingBlock: EZIPEK_clean_linker_0, # of connection points: 2
#     Edge 41, Type (0, 0), BuildingBlock: EZIPEK_clean_linker_0, # of connection points: 2
#     Edge 42, Type (0, 0), BuildingBlock: EZIPEK_clean_linker_0, # of connection points: 2
#     Edge 43, Type (0, 0), BuildingBlock: EZIPEK_clean_linker_0, # of connection points: 2
#     Edge 44, Type (0, 0), BuildingBlock: EZIPEK_clean_linker_0, # of connection points: 2
#     Edge 45, Type (0, 0), BuildingBlock: EZIPEK_clean_linker_0, # of connection points: 2
#     Edge 46, Type (0, 0), BuildingBlock: EZIPEK_clean_linker_0, # of connection points: 2
#     Edge 47, Type (0, 0), BuildingBlock: EZIPEK_clean_linker_0, # of connection points: 2
# Relax obj value: 0.057
# Max RMSD: 0.221
# Mean RMSD: 0.221
data_MOF--net-umd--node1-KOZSID_clean_sbu_0--edge1-EZIPEK_clean_linker_0
_symmetry_space_group_name_H-M    P1
_symmetry_Int_Tables_number       1
_symmetry_cell_setting            triclinic
loop_
_symmetry_equiv_pos_as_xyz
'x, y, z'
_cell_length_a     42.615139
_cell_length_b     42.771667
_cell_length_c     47.361513
_cell_angle_alpha  90.044619
_cell_angle_beta   89.928826
_cell_angle_gamma 89.912261
loop_
_atom_site_label
_atom_site_type_symbol
_atom_site_fract_x
_atom_site_fract_y
_atom_site_fract_z
_atom_type_partial_charge
C0 C 0.16657 0.44212 0.20471 0.0
C1 C 0.1434 0.43203 0.22323 0.0
C2 C 0.12689 0.40917 0.20972 0.0
C3 C 0.14015 0.40681 0.18347 0.0
N4 N 0.16452 0.42633 0.17941 0.0
Co5 Co 0.18432 0.43469 0.1414 0.0
N6 N 0.15957 0.40131 0.12115 0.0
C7 C 0.13463 0.38663 0.13243 0.0
C8 C 0.11609 0.37208 0.11286 0.0
C9 C 0.12997 0.37793 0.08739 0.0
C10 C 0.15718 0.39475 0.09279 0.0
N11 N 0.20503 0.44287 0.10425 0.0
C12 C 0.20671 0.42327 0.0817 0.0
C13 C 0.23295 0.42961 0.06528 0.0
C14 C 0.24626 0.45599 0.07622 0.0
C15 C 0.22839 0.46341 0.09939 0.0
N16 N 0.20865 0.46885 0.16081 0.0
C17 C 0.22955 0.48815 0.14834 0.0
C18 C 0.24556 0.50678 0.16691 0.0
C19 C 0.23361 0.49965 0.1928 0.0
C20 C 0.21021 0.4776 0.18851 0.0
N21 N 0.21903 0.40336 0.14954 0.0
C22 C 0.26758 0.35626 0.15202 0.0
C23 C 0.27416 0.38769 0.1459 0.0
C24 C 0.25016 0.41054 0.1454 0.0
C25 C 0.23588 0.34942 0.15819 0.0
C26 C 0.21224 0.37292 0.15659 0.0
N27 N 0.14852 0.46441 0.13286 0.0
C28 C 0.10339 0.4928 0.15164 0.0
C29 C 0.0861 0.4882 0.12687 0.0
C30 C 0.10204 0.4743 0.10411 0.0
C31 C 0.1332 0.46341 0.10736 0.0
C32 C 0.13425 0.48119 0.15401 0.0
H33 H 0.14401 0.45275 0.08941 0.0
H34 H 0.14553 0.48464 0.17369 0.0
H35 H 0.25742 0.43388 0.14103 0.0
H36 H 0.18833 0.3661 0.16059 0.0
C37 C 0.1274 0.39018 0.16094 0.0
C38 C 0.1871 0.46965 0.21056 0.0
C39 C 0.17933 0.40613 0.07068 0.0
C40 C 0.23727 0.4848 0.11996 0.0
H41 H 0.13742 0.44145 0.2437 0.0
H42 H 0.10612 0.39735 0.21741 0.0
H43 H 0.09393 0.36039 0.11646 0.0
H44 H 0.11982 0.37187 0.06729 0.0
H45 H 0.23998 0.41806 0.04593 0.0
H46 H 0.26716 0.46772 0.06873 0.0
H47 H 0.26431 0.52302 0.16226 0.0
H48 H 0.24051 0.5104 0.21253 0.0
H49 H 0.29802 0.39475 0.14131 0.0
H50 H 0.22918 0.32575 0.16358 0.0
H51 H 0.09268 0.50434 0.16961 0.0
H52 H 0.09021 0.47106 0.0841 0.0
C53 C 0.58328 0.1716 0.7018 0.0
C54 C 0.60252 0.1642 0.7244 0.0
C55 C 0.63207 0.15915 0.71353 0.0
C56 C 0.62942 0.16382 0.68491 0.0
N57 N 0.60004 0.17137 0.67711 0.0
Co58 Co 0.58675 0.18032 0.63758 0.0
N59 N 0.6248 0.16083 0.62048 0.0
C60 C 0.65124 0.15399 0.6347 0.0
C61 C 0.67396 0.14094 0.61773 0.0
C62 C 0.66114 0.13991 0.59111 0.0
C63 C 0.63125 0.15255 0.5932 0.0
N64 N 0.57253 0.1894 0.59833 0.0
C65 C 0.58269 0.17824 0.57305 0.0
C66 C 0.56494 0.19036 0.5511 0.0
C67 C 0.54372 0.2105 0.56275 0.0
C68 C 0.54937 0.20934 0.59118 0.0
N69 N 0.54845 0.19988 0.65445 0.0
C70 C 0.52812 0.21866 0.64077 0.0
C71 C 0.50238 0.2266 0.65658 0.0
C72 C 0.50659 0.21207 0.68193 0.0
C73 C 0.53517 0.19645 0.68045 0.0
N74 N 0.61016 0.22148 0.63877 0.0
C75 C 0.65337 0.27316 0.64183 0.0
C76 C 0.64839 0.25646 0.61668 0.0
C77 C 0.62705 0.23112 0.6156 0.0
C78 C 0.63495 0.26399 0.66521 0.0
C79 C 0.6135 0.23854 0.6632 0.0
N80 N 0.56551 0.13857 0.63634 0.0
C81 C 0.52229 0.10394 0.62395 0.0
C82 C 0.53886 0.07735 0.63344 0.0
C83 C 0.56888 0.08245 0.64449 0.0
C84 C 0.58158 0.11276 0.64578 0.0
C85 C 0.53596 0.1342 0.62556 0.0
H86 H 0.60478 0.11505 0.65436 0.0
H87 H 0.52268 0.15398 0.61797 0.0
H88 H 0.62521 0.21866 0.59597 0.0
H89 H 0.60036 0.23212 0.68181 0.0
C90 C 0.65221 0.15672 0.66433 0.0
C91 C 0.54977 0.18069 0.70484 0.0
C92 C 0.611 0.15921 0.56846 0.0
C93 C 0.53036 0.22278 0.61174 0.0
H94 H 0.59588 0.16269 0.74642 0.0
H95 H 0.65274 0.15188 0.72506 0.0
H96 H 0.69691 0.13264 0.62401 0.0
H97 H 0.6727 0.13159 0.57218 0.0
H98 H 0.56712 0.1852 0.52896 0.0
H99 H 0.52562 0.22354 0.55188 0.0
H100 H 0.48201 0.2398 0.6499 0.0
H101 H 0.49021 0.21284 0.69937 0.0
H102 H 0.66166 0.26241 0.59793 0.0
H103 H 0.63751 0.27609 0.68516 0.0
H104 H 0.49891 0.10137 0.61534 0.0
H105 H 0.58265 0.06293 0.65217 0.0
C106 C 0.87548 0.58263 0.20097 0.0
C107 C 0.89271 0.59981 0.22036 0.0
C108 C 0.8967 0.62916 0.20906 0.0
C109 C 0.88264 0.62835 0.18296 0.0
N110 N 0.87028 0.60013 0.17717 0.0
Co111 Co 0.85547 0.58635 0.13924 0.0
N112 N 0.8756 0.62183 0.11902 0.0
C113 C 0.88574 0.64822 0.13148 0.0
C114 C 0.89838 0.66902 0.11251 0.0
C115 C 0.89557 0.655 0.08649 0.0
C116 C 0.88128 0.62632 0.09094 0.0
N117 N 0.8409 0.57121 0.10172 0.0
C118 C 0.84964 0.57946 0.07515 0.0
C119 C 0.83234 0.56315 0.05518 0.0
C120 C 0.81162 0.54474 0.06962 0.0
C121 C 0.81747 0.55061 0.09757 0.0
N122 N 0.83452 0.55128 0.15927 0.0
C123 C 0.81013 0.53485 0.14909 0.0
C124 C 0.79728 0.51479 0.16847 0.0
C125 C 0.81471 0.51875 0.19245 0.0
C126 C 0.83767 0.54072 0.18617 0.0
N127 N 0.81633 0.61253 0.14312 0.0
C128 C 0.76473 0.65536 0.14815 0.0
C129 C 0.77937 0.64946 0.12214 0.0
C130 C 0.80477 0.62834 0.12011 0.0
C131 C 0.77625 0.6386 0.17161 0.0
C132 C 0.80175 0.61734 0.16866 0.0
N133 N 0.89533 0.56203 0.13526 0.0
C134 C 0.92592 0.51581 0.12313 0.0
C135 C 0.95437 0.53133 0.12925 0.0
C136 C 0.95225 0.56226 0.13845 0.0
C137 C 0.92305 0.57695 0.14119 0.0
C138 C 0.89667 0.53153 0.12634 0.0
H139 H 0.92332 0.6008 0.14806 0.0
H140 H 0.87523 0.51918 0.12149 0.0
H141 H 0.81547 0.62546 0.09974 0.0
H142 H 0.81003 0.60524 0.18723 0.0
C143 C 0.88785 0.65003 0.16109 0.0
C144 C 0.86201 0.55085 0.20631 0.0
C145 C 0.87077 0.60542 0.06786 0.0
C146 C 0.80312 0.53561 0.12034 0.0
H147 H 0.90173 0.59207 0.24049 0.0
H148 H 0.91035 0.64806 0.21798 0.0
H149 H 0.90924 0.69131 0.11708 0.0
H150 H 0.90267 0.66493 0.06647 0.0
H151 H 0.83372 0.56518 0.03253 0.0
H152 H 0.79442 0.52893 0.06078 0.0
H153 H 0.77818 0.49851 0.16531 0.0
H154 H 0.811 0.50663 0.21221 0.0
H155 H 0.77158 0.66166 0.10338 0.0
H156 H 0.76583 0.64218 0.19223 0.0
H157 H 0.9263 0.49181 0.11586 0.0
H158 H 0.97332 0.57529 0.14341 0.0
C159 C 0.44311 0.85548 0.69988 0.0
C160 C 0.42411 0.86365 0.72249 0.0
C161 C 0.39456 0.86887 0.71174 0.0
C162 C 0.39695 0.86351 0.68317 0.0
N163 N 0.42619 0.85537 0.67536 0.0
Co164 Co 0.43931 0.84554 0.636 0.0
N165 N 0.40186 0.86579 0.61879 0.0
C166 C 0.37551 0.87339 0.63289 0.0
C167 C 0.35339 0.88711 0.61578 0.0
C168 C 0.36654 0.88778 0.58922 0.0
C169 C 0.39602 0.87429 0.5915 0.0
N170 N 0.45325 0.83515 0.59696 0.0
C171 C 0.44237 0.84479 0.57149 0.0
C172 C 0.45688 0.82852 0.54973 0.0
C173 C 0.47765 0.80827 0.56179 0.0
C174 C 0.47449 0.813 0.59023 0.0
N175 N 0.47706 0.8253 0.65296 0.0
C176 C 0.4965 0.80526 0.63966 0.0
C177 C 0.52214 0.79706 0.65542 0.0
C178 C 0.51872 0.81273 0.68037 0.0
C179 C 0.49066 0.82923 0.6787 0.0
N180 N 0.41491 0.80503 0.63766 0.0
C181 C 0.37127 0.75385 0.64134 0.0
C182 C 0.37561 0.7708 0.61627 0.0
C183 C 0.39712 0.79591 0.61489 0.0
C184 C 0.3904 0.7626 0.66436 0.0
C185 C 0.41206 0.78784 0.66205 0.0
N186 N 0.46151 0.88678 0.63439 0.0
C187 C 0.50561 0.92051 0.6224 0.0
C188 C 0.48959 0.9474 0.63213 0.0
C189 C 0.45937 0.9429 0.64294 0.0
C190 C 0.44598 0.91291 0.64389 0.0
C191 C 0.4912 0.89053 0.62368 0.0
H192 H 0.42267 0.91115 0.65238 0.0
H193 H 0.50403 0.87045 0.61599 0.0
H194 H 0.39834 0.80862 0.59536 0.0
H195 H 0.42579 0.79401 0.68037 0.0
C196 C 0.37431 0.8709 0.66255 0.0
C197 C 0.47657 0.84618 0.70269 0.0
C198 C 0.41626 0.86665 0.56695 0.0
C199 C 0.49333 0.79955 0.61089 0.0
H200 H 0.43095 0.86564 0.74442 0.0
H201 H 0.3741 0.87682 0.72327 0.0
H202 H 0.33064 0.89612 0.62192 0.0
H203 H 0.35542 0.89637 0.57021 0.0
H204 H 0.45194 0.83002 0.52753 0.0
H205 H 0.49324 0.79213 0.5511 0.0
H206 H 0.54188 0.78276 0.64899 0.0
H207 H 0.53521 0.81198 0.69767 0.0
H208 H 0.36169 0.76521 0.59782 0.0
H209 H 0.38828 0.75032 0.68425 0.0
H210 H 0.52911 0.92264 0.61393 0.0
H211 H 0.44599 0.96265 0.65077 0.0
C212 C 0.16952 0.58702 0.31367 0.0
C213 C 0.15463 0.60363 0.29238 0.0
C214 C 0.1495 0.63336 0.30253 0.0
C215 C 0.16069 0.63336 0.32974 0.0
N216 N 0.1723 0.60531 0.33728 0.0
Co217 Co 0.18426 0.59317 0.37638 0.0
N218 N 0.16259 0.62946 0.39405 0.0
C219 C 0.15346 0.65535 0.3802 0.0
C220 C 0.13905 0.6767 0.39767 0.0
C221 C 0.13954 0.66351 0.42416 0.0
C222 C 0.15429 0.63475 0.42146 0.0
N223 N 0.19627 0.57983 0.41509 0.0
C224 C 0.18588 0.58953 0.44074 0.0
C225 C 0.20311 0.57569 0.46223 0.0
C226 C 0.22504 0.5569 0.44971 0.0
C227 C 0.22014 0.56034 0.42131 0.0
N228 N 0.20668 0.55717 0.35901 0.0
C229 C 0.2304 0.54135 0.37115 0.0
C230 C 0.24441 0.52014 0.35344 0.0
C231 C 0.22857 0.52274 0.32846 0.0
C232 C 0.20539 0.54521 0.33248 0.0
N233 N 0.22353 0.61922 0.37385 0.0
C234 C 0.27533 0.6618 0.37004 0.0
C235 C 0.25851 0.65766 0.39524 0.0
C236 C 0.233 0.63667 0.39667 0.0
C237 C 0.26586 0.64342 0.34682 0.0
C238 C 0.24022 0.62232 0.34917 0.0
N239 N 0.14411 0.56907 0.3789 0.0
C240 C 0.11249 0.52347 0.39058 0.0
C241 C 0.08458 0.53887 0.38235 0.0
C242 C 0.08748 0.56944 0.37246 0.0
C243 C 0.1169 0.58386 0.37092 0.0
C244 C 0.14199 0.53898 0.38872 0.0
H245 H 0.11723 0.60737 0.36317 0.0
H246 H 0.16299 0.52675 0.39521 0.0
H247 H 0.22051 0.63526 0.41636 0.0
H248 H 0.23355 0.60895 0.33077 0.0
C249 C 0.15376 0.656 0.35047 0.0
C250 C 0.18319 0.55499 0.31038 0.0
C251 C 0.16278 0.61452 0.44564 0.0
C252 C 0.23595 0.5441 0.40004 0.0
H253 H 0.14802 0.59528 0.27168 0.0
H254 H 0.13711 0.65206 0.29192 0.0
H255 H 0.12846 0.69875 0.39175 0.0
H256 H 0.13058 0.67401 0.44334 0.0
H257 H 0.20121 0.57997 0.48456 0.0
H258 H 0.24255 0.54261 0.46008 0.0
H259 H 0.26334 0.50413 0.3583 0.0
H260 H 0.23364 0.50961 0.30946 0.0
H261 H 0.26465 0.67117 0.41378 0.0
H262 H 0.27799 0.6456 0.32682 0.0
H263 H 0.11153 0.49967 0.39827 0.0
H264 H 0.06686 0.58231 0.36578 0.0
C265 C 0.44188 0.17793 0.81396 0.0
C266 C 0.42298 0.16933 0.79147 0.0
C267 C 0.39329 0.16475 0.80223 0.0
C268 C 0.3955 0.1709 0.83067 0.0
N269 N 0.42473 0.17901 0.83837 0.0
Co270 Co 0.43779 0.1893 0.87757 0.0
N271 N 0.40057 0.16902 0.89502 0.0
C272 C 0.37412 0.16156 0.88111 0.0
C273 C 0.35215 0.14782 0.89839 0.0
C274 C 0.36555 0.14698 0.92482 0.0
C275 C 0.39504 0.16033 0.9223 0.0
N276 N 0.45173 0.1999 0.91649 0.0
C277 C 0.44154 0.1896 0.94201 0.0
C278 C 0.45653 0.20538 0.96376 0.0
C279 C 0.47668 0.22619 0.95153 0.0
C280 C 0.47282 0.22215 0.92305 0.0
N281 N 0.47528 0.20949 0.86027 0.0
C282 C 0.49441 0.22994 0.87328 0.0
C283 C 0.52012 0.2378 0.85739 0.0
C284 C 0.51705 0.22137 0.83278 0.0
C285 C 0.48915 0.20472 0.83471 0.0
N286 N 0.41312 0.22973 0.87587 0.0
C287 C 0.37009 0.28166 0.87272 0.0
C288 C 0.37445 0.26455 0.89772 0.0
C289 C 0.39563 0.23906 0.89882 0.0
C290 C 0.3888 0.27254 0.84946 0.0
C291 C 0.41014 0.24692 0.85149 0.0
N292 N 0.4604 0.14841 0.87935 0.0
C293 C 0.50527 0.1157 0.89115 0.0
C294 C 0.48947 0.08849 0.88224 0.0
C295 C 0.45904 0.09219 0.87177 0.0
C296 C 0.44513 0.12194 0.87045 0.0
C297 C 0.49034 0.14536 0.88959 0.0
H298 H 0.42167 0.12329 0.86225 0.0
H299 H 0.50292 0.16577 0.89678 0.0
H300 H 0.39692 0.22629 0.91833 0.0
H301 H 0.42361 0.24053 0.83302 0.0
C302 C 0.37285 0.16383 0.85142 0.0
C303 C 0.47552 0.18659 0.81115 0.0
C304 C 0.41574 0.16741 0.94661 0.0
C305 C 0.49133 0.23575 0.90212 0.0
H306 H 0.42999 0.16654 0.76964 0.0
H307 H 0.37291 0.15655 0.79083 0.0
H308 H 0.32939 0.13881 0.89241 0.0
H309 H 0.35466 0.13822 0.94388 0.0
H310 H 0.45259 0.20291 0.98612 0.0
H311 H 0.49258 0.24201 0.96215 0.0
H312 H 0.53979 0.25221 0.86364 0.0
H313 H 0.53373 0.2216 0.81557 0.0
H314 H 0.36085 0.27035 0.91633 0.0
H315 H 0.38663 0.28489 0.82961 0.0
H316 H 0.52887 0.11404 0.89944 0.0
H317 H 0.4459 0.07203 0.86462 0.0
C318 C 0.87587 0.43565 0.31229 0.0
C319 C 0.89295 0.41806 0.29301 0.0
C320 C 0.89697 0.38888 0.30469 0.0
C321 C 0.88305 0.39018 0.33087 0.0
N322 N 0.87076 0.41854 0.33635 0.0
Co323 Co 0.85622 0.43302 0.37418 0.0
N324 N 0.87627 0.39773 0.39475 0.0
C325 C 0.88613 0.37102 0.3826 0.0
C326 C 0.89882 0.35048 0.40179 0.0
C327 C 0.89636 0.36505 0.42761 0.0
C328 C 0.88223 0.39378 0.42284 0.0
N329 N 0.84195 0.44891 0.41155 0.0
C330 C 0.85085 0.44109 0.43817 0.0
C331 C 0.83349 0.45762 0.45801 0.0
C332 C 0.81266 0.47581 0.44348 0.0
C333 C 0.81846 0.46956 0.41559 0.0
N334 N 0.83524 0.46789 0.35385 0.0
C335 C 0.81084 0.48448 0.36394 0.0
C336 C 0.79777 0.50414 0.34434 0.0
C337 C 0.81505 0.49972 0.3203 0.0
C338 C 0.83815 0.47789 0.32676 0.0
N339 N 0.81689 0.40704 0.37094 0.0
C340 C 0.76488 0.36465 0.36683 0.0
C341 C 0.77981 0.37076 0.39264 0.0
C342 C 0.80542 0.39164 0.39422 0.0
C343 C 0.77638 0.38096 0.34309 0.0
C344 C 0.80208 0.402 0.34558 0.0
N345 N 0.89633 0.45708 0.3775 0.0
C346 C 0.92733 0.50365 0.38723 0.0
C347 C 0.95565 0.48756 0.38155 0.0
C348 C 0.95328 0.45614 0.37397 0.0
C349 C 0.92395 0.44159 0.3721 0.0
C350 C 0.89794 0.48799 0.38512 0.0
H351 H 0.92405 0.41746 0.36609 0.0
H352 H 0.87661 0.5008 0.38953 0.0
H353 H 0.81632 0.39468 0.41447 0.0
H354 H 0.81031 0.41374 0.3268 0.0
C355 C 0.88818 0.36876 0.35299 0.0
C356 C 0.8624 0.46741 0.30664 0.0
C357 C 0.8722 0.41533 0.44566 0.0
C358 C 0.80394 0.48419 0.39272 0.0
H359 H 0.90183 0.42544 0.2727 0.0
H360 H 0.91049 0.36976 0.29591 0.0
H361 H 0.90956 0.32804 0.39746 0.0
H362 H 0.90364 0.35547 0.44771 0.0
H363 H 0.83485 0.4558 0.48065 0.0
H364 H 0.79538 0.49168 0.45222 0.0
H365 H 0.77861 0.52044 0.34738 0.0
H366 H 0.81116 0.51142 0.30037 0.0
H367 H 0.77208 0.35891 0.41161 0.0
H368 H 0.76578 0.37723 0.32261 0.0
H369 H 0.92789 0.52811 0.39307 0.0
H370 H 0.97424 0.44272 0.36929 0.0
C371 C 0.58271 0.86394 0.81268 0.0
C372 C 0.59879 0.87864 0.79098 0.0
C373 C 0.62325 0.89436 0.80311 0.0
C374 C 0.62105 0.88822 0.83148 0.0
N375 N 0.59721 0.86888 0.83816 0.0
Co376 Co 0.58584 0.85569 0.87769 0.0
N377 N 0.6237 0.87595 0.89516 0.0
C378 C 0.64461 0.89384 0.88132 0.0
C379 C 0.6683 0.90476 0.8983 0.0
C380 C 0.66185 0.89337 0.92471 0.0
C381 C 0.63447 0.87616 0.92241 0.0
N382 N 0.57331 0.84339 0.91703 0.0
C383 C 0.58745 0.84802 0.94245 0.0
C384 C 0.5688 0.83748 0.96447 0.0
C385 C 0.54224 0.82559 0.95281 0.0
C386 C 0.54599 0.82978 0.92439 0.0
N387 N 0.54799 0.83486 0.86034 0.0
C388 C 0.52459 0.82104 0.87488 0.0
C389 C 0.50036 0.81062 0.85852 0.0
C390 C 0.50833 0.81862 0.8317 0.0
C391 C 0.53742 0.83326 0.83308 0.0
N392 N 0.61162 0.81581 0.87357 0.0
C393 C 0.65389 0.76269 0.87318 0.0
C394 C 0.62452 0.76189 0.8871 0.0
C395 C 0.60387 0.78824 0.88683 0.0
C396 C 0.66074 0.79061 0.85884 0.0
C397 C 0.63987 0.81641 0.85944 0.0
N398 N 0.56189 0.89617 0.88207 0.0
C399 C 0.52946 0.93763 0.86207 0.0
C400 C 0.53718 0.95838 0.88396 0.0
C401 C 0.55605 0.94654 0.90573 0.0
C402 C 0.56762 0.91561 0.90455 0.0
C403 C 0.54175 0.90692 0.86167 0.0
H404 H 0.58169 0.90782 0.92179 0.0
H405 H 0.53507 0.89224 0.84452 0.0
H406 H 0.58193 0.78623 0.89796 0.0
H407 H 0.64753 0.83713 0.84885 0.0
C408 C 0.64163 0.89903 0.8523 0.0
C409 C 0.55208 0.84828 0.8083 0.0
C410 C 0.61769 0.86343 0.94715 0.0
C411 C 0.52487 0.8201 0.90407 0.0
H412 H 0.5927 0.87894 0.7688 0.0
H413 H 0.64045 0.90881 0.79252 0.0
H414 H 0.68784 0.91944 0.89224 0.0
H415 H 0.67514 0.89802 0.94372 0.0
H416 H 0.57356 0.83896 0.98672 0.0
H417 H 0.52249 0.81527 0.96375 0.0
H418 H 0.47876 0.79972 0.86544 0.0
H419 H 0.49341 0.81529 0.81354 0.0
H420 H 0.61764 0.74108 0.89852 0.0
H421 H 0.68278 0.79287 0.84762 0.0
H422 H 0.51433 0.94525 0.84505 0.0
H423 H 0.56217 0.96124 0.92351 0.0
C424 C 0.82314 0.53827 0.8328 0.0
C425 C 0.80615 0.51067 0.83053 0.0
C426 C 0.78992 0.50719 0.85523 0.0
C427 C 0.79829 0.53231 0.87152 0.0
N428 N 0.81883 0.55151 0.85867 0.0
Co429 Co 0.84003 0.58798 0.87655 0.0
N430 N 0.82984 0.57302 0.91528 0.0
C431 C 0.80771 0.55173 0.92171 0.0
C432 C 0.8052 0.54602 0.95008 0.0
C433 C 0.82687 0.56515 0.9624 0.0
C434 C 0.84141 0.58164 0.94082 0.0
N435 N 0.86116 0.6242 0.89462 0.0
C436 C 0.86992 0.629 0.922 0.0
C437 C 0.88333 0.65831 0.92511 0.0
C438 C 0.88254 0.67231 0.89895 0.0
C439 C 0.86874 0.65087 0.88124 0.0
N440 N 0.85011 0.60191 0.83755 0.0
C441 C 0.85868 0.63108 0.83042 0.0
C442 C 0.86456 0.63395 0.80197 0.0
C443 C 0.85931 0.60476 0.79061 0.0
C444 C 0.85059 0.58548 0.81277 0.0
N445 N 0.79984 0.61347 0.87582 0.0
C446 C 0.74983 0.65916 0.87418 0.0
C447 C 0.75887 0.6418 0.85006 0.0
C448 C 0.78339 0.61908 0.85136 0.0
C449 C 0.76583 0.65172 0.89927 0.0
C450 C 0.79041 0.62938 0.89961 0.0
N451 N 0.88075 0.56467 0.87731 0.0
C452 C 0.93698 0.56498 0.86832 0.0
C453 C 0.94044 0.53443 0.87837 0.0
C454 C 0.91307 0.51917 0.88787 0.0
C455 C 0.88354 0.53462 0.88713 0.0
C456 C 0.90738 0.57952 0.86806 0.0
H457 H 0.86302 0.52232 0.89456 0.0
H458 H 0.90629 0.60312 0.86033 0.0
H459 H 0.78965 0.60679 0.83223 0.0
H460 H 0.8025 0.62594 0.91924 0.0
C461 C 0.79329 0.53431 0.90054 0.0
C462 C 0.84127 0.5522 0.80935 0.0
C463 C 0.8633 0.60756 0.94586 0.0
C464 C 0.86626 0.65297 0.8516 0.0
H465 H 0.80564 0.49436 0.8131 0.0
H466 H 0.77549 0.48749 0.86129 0.0
H467 H 0.79006 0.52932 0.96051 0.0
H468 H 0.83101 0.56718 0.98477 0.0
H469 H 0.8922 0.66864 0.94438 0.0
H470 H 0.89161 0.69512 0.89343 0.0
H471 H 0.873 0.65443 0.79093 0.0
H472 H 0.86173 0.59832 0.76861 0.0
H473 H 0.74741 0.64615 0.83006 0.0
H474 H 0.75999 0.66392 0.91864 0.0
H475 H 0.95723 0.57776 0.86075 0.0
H476 H 0.91448 0.49547 0.89579 0.0
C477 C 0.49665 0.83278 0.33475 0.0
C478 C 0.5252 0.81708 0.33345 0.0
C479 C 0.52896 0.80217 0.35869 0.0
C480 C 0.50299 0.80996 0.37427 0.0
N481 N 0.48295 0.82896 0.3605 0.0
Co482 Co 0.44447 0.84843 0.377 0.0
N483 N 0.45823 0.83932 0.41633 0.0
C484 C 0.48135 0.81945 0.42372 0.0
C485 C 0.48727 0.81914 0.45213 0.0
C486 C 0.46627 0.83976 0.46346 0.0
C487 C 0.44826 0.85119 0.4414 0.0
N488 N 0.40616 0.86775 0.39373 0.0
C489 C 0.39938 0.87594 0.42096 0.0
C490 C 0.36919 0.88786 0.42289 0.0
C491 C 0.3566 0.88662 0.39618 0.0
C492 C 0.37972 0.8741 0.37933 0.0
N493 N 0.43165 0.85756 0.33743 0.0
C494 C 0.40231 0.86485 0.32932 0.0
C495 C 0.40011 0.86983 0.3007 0.0
C496 C 0.42991 0.86526 0.29021 0.0
C497 C 0.44884 0.85782 0.31302 0.0
N498 N 0.42128 0.80746 0.37537 0.0
C499 C 0.37725 0.75706 0.3712 0.0
C500 C 0.39664 0.76555 0.34831 0.0
C501 C 0.41846 0.79052 0.35084 0.0
C502 C 0.3818 0.77344 0.39653 0.0
C503 C 0.4038 0.79804 0.39821 0.0
N504 N 0.46558 0.88992 0.37858 0.0
C505 C 0.46219 0.94593 0.37084 0.0
C506 C 0.49226 0.9507 0.38182 0.0
C507 C 0.50889 0.92412 0.39108 0.0
C508 C 0.49516 0.89402 0.38931 0.0
C509 C 0.44947 0.91575 0.36936 0.0
H510 H 0.50841 0.87412 0.39671 0.0
H511 H 0.42625 0.91354 0.36078 0.0
H512 H 0.43221 0.79681 0.33255 0.0
H513 H 0.40564 0.81028 0.41792 0.0
C514 C 0.50047 0.80582 0.40331 0.0
C515 C 0.48248 0.8491 0.31045 0.0
C516 C 0.41979 0.87009 0.44574 0.0
C517 C 0.37912 0.87149 0.34968 0.0
H518 H 0.54188 0.81656 0.31625 0.0
H519 H 0.54924 0.78891 0.36552 0.0
H520 H 0.50559 0.80655 0.46315 0.0
H521 H 0.46457 0.84591 0.48542 0.0
H522 H 0.35735 0.89598 0.44176 0.0
H523 H 0.33354 0.89449 0.38977 0.0
H524 H 0.37956 0.877 0.28895 0.0
H525 H 0.43693 0.8671 0.26831 0.0
H526 H 0.39437 0.7535 0.3283 0.0
H527 H 0.3678 0.76777 0.41492 0.0
H528 H 0.44848 0.96558 0.36332 0.0
H529 H 0.53232 0.9266 0.39959 0.0
C530 C 0.1911 0.49547 0.83217 0.0
C531 C 0.20451 0.52497 0.83 0.0
C532 C 0.2162 0.53221 0.85597 0.0
C533 C 0.20898 0.50715 0.87274 0.0
N534 N 0.19366 0.48421 0.85891 0.0
Co535 Co 0.17718 0.44492 0.87629 0.0
N536 N 0.18187 0.46175 0.91513 0.0
C537 C 0.19271 0.49027 0.92205 0.0
C538 C 0.18063 0.50118 0.94707 0.0
C539 C 0.16181 0.47768 0.95688 0.0
C540 C 0.16491 0.45299 0.93799 0.0
N541 N 0.16229 0.40525 0.89438 0.0
C542 C 0.1608 0.39721 0.92244 0.0
C543 C 0.16042 0.36489 0.92529 0.0
C544 C 0.16014 0.35251 0.89856 0.0
C545 C 0.16146 0.37767 0.88067 0.0
N546 N 0.17065 0.42945 0.83708 0.0
C547 C 0.16598 0.39944 0.82995 0.0
C548 C 0.16193 0.39542 0.80138 0.0
C549 C 0.16425 0.42485 0.78984 0.0
C550 C 0.16964 0.44529 0.81203 0.0
N551 N 0.22076 0.42583 0.87648 0.0
C552 C 0.27287 0.38297 0.87375 0.0
C553 C 0.26315 0.40041 0.85006 0.0
C554 C 0.23751 0.4217 0.85189 0.0
C555 C 0.25718 0.38944 0.89921 0.0
C556 C 0.23183 0.41091 0.90017 0.0
N557 N 0.13335 0.46196 0.87577 0.0
C558 C 0.0773 0.45316 0.86976 0.0
C559 C 0.07019 0.48432 0.87662 0.0
C560 C 0.09561 0.50411 0.88266 0.0
C561 C 0.12674 0.49263 0.88203 0.0
C562 C 0.10871 0.44256 0.86941 0.0
H563 H 0.14533 0.50877 0.88675 0.0
H564 H 0.11296 0.41846 0.86398 0.0
H565 H 0.23038 0.43367 0.83291 0.0
H566 H 0.22013 0.41393 0.92003 0.0
C567 C 0.20752 0.5089 0.90204 0.0
C568 C 0.1765 0.47901 0.80827 0.0
C569 C 0.16181 0.41989 0.94645 0.0
C570 C 0.16324 0.37652 0.85102 0.0
H571 H 0.20489 0.54036 0.81191 0.0
H572 H 0.2261 0.55438 0.86244 0.0
H573 H 0.18409 0.52396 0.95653 0.0
H574 H 0.14973 0.47755 0.977 0.0
H575 H 0.16154 0.35136 0.9445 0.0
H576 H 0.16031 0.32799 0.8929 0.0
H577 H 0.1574 0.37378 0.79026 0.0
H578 H 0.16272 0.43059 0.76763 0.0
H579 H 0.27465 0.39687 0.82991 0.0
H580 H 0.26384 0.37717 0.91828 0.0
H581 H 0.05861 0.43696 0.86475 0.0
H582 H 0.09145 0.52842 0.88788 0.0
C583 C 0.5412 0.19409 0.33391 0.0
C584 C 0.51285 0.21006 0.33181 0.0
C585 C 0.50957 0.22723 0.35596 0.0
C586 C 0.53554 0.22038 0.37183 0.0
N587 N 0.55505 0.19982 0.35928 0.0
Co588 Co 0.59268 0.18038 0.37706 0.0
N589 N 0.57854 0.19219 0.41569 0.0
C590 C 0.55721 0.21451 0.42165 0.0
C591 C 0.5532 0.21952 0.44998 0.0
C592 C 0.57349 0.19929 0.46276 0.0
C593 C 0.58873 0.18284 0.44151 0.0
N594 N 0.63004 0.1609 0.39511 0.0
C595 C 0.63576 0.15352 0.42269 0.0
C596 C 0.66555 0.1409 0.4256 0.0
C597 C 0.67892 0.1408 0.39911 0.0
C598 C 0.65664 0.15332 0.38141 0.0
N599 N 0.60596 0.16894 0.33814 0.0
C600 C 0.63531 0.16083 0.3307 0.0
C601 C 0.6378 0.15416 0.30236 0.0
C602 C 0.60817 0.15845 0.29139 0.0
C603 C 0.58902 0.16741 0.31366 0.0
N604 N 0.61708 0.22065 0.37418 0.0
C605 C 0.66195 0.27028 0.36873 0.0
C606 C 0.64236 0.2614 0.3461 0.0
C607 C 0.62015 0.23679 0.34925 0.0
C608 C 0.65731 0.25455 0.39435 0.0
C609 C 0.63499 0.23031 0.39666 0.0
N610 N 0.57052 0.13951 0.37987 0.0
C611 C 0.57255 0.0833 0.37287 0.0
C612 C 0.54197 0.07956 0.38297 0.0
C613 C 0.52583 0.10675 0.39165 0.0
C614 C 0.54052 0.13645 0.38998 0.0
C615 C 0.58621 0.11304 0.37149 0.0
H616 H 0.52765 0.1569 0.39678 0.0
H617 H 0.60975 0.11439 0.36348 0.0
H618 H 0.60625 0.23014 0.33116 0.0
H619 H 0.6333 0.21855 0.41661 0.0
C620 C 0.53856 0.2272 0.40044 0.0
C621 C 0.55534 0.17597 0.31053 0.0
C622 C 0.61488 0.1612 0.44682 0.0
C623 C 0.65797 0.15464 0.35166 0.0
H624 H 0.49602 0.20939 0.31478 0.0
H625 H 0.48961 0.24144 0.36198 0.0
H626 H 0.53713 0.23561 0.46015 0.0
H627 H 0.57744 0.19771 0.48512 0.0
H628 H 0.67666 0.13327 0.44495 0.0
H629 H 0.70191 0.13205 0.39341 0.0
H630 H 0.65836 0.14592 0.29116 0.0
H631 H 0.60138 0.15528 0.26957 0.0
H632 H 0.64473 0.27286 0.32583 0.0
H633 H 0.67152 0.26045 0.41254 0.0
H634 H 0.58593 0.06317 0.36586 0.0
H635 H 0.50203 0.10506 0.39952 0.0
C636 C 0.82763 0.49223 0.67884 0.0
C637 C 0.81144 0.52043 0.68023 0.0
C638 C 0.7961 0.52388 0.65512 0.0
C639 C 0.80417 0.49811 0.63952 0.0
N640 N 0.82377 0.47853 0.65312 0.0
Co641 Co 0.84401 0.4407 0.63641 0.0
N642 N 0.83442 0.45446 0.59719 0.0
C643 C 0.81317 0.47641 0.59004 0.0
C644 C 0.81105 0.48122 0.56152 0.0
C645 C 0.83204 0.46081 0.54987 0.0
C646 C 0.84577 0.44448 0.57194 0.0
N647 N 0.86426 0.40316 0.61945 0.0
C648 C 0.87302 0.39706 0.59223 0.0
C649 C 0.88577 0.36733 0.59007 0.0
C650 C 0.88454 0.35437 0.61664 0.0
C651 C 0.87117 0.37682 0.63364 0.0
N652 N 0.85333 0.4278 0.67588 0.0
C653 C 0.86111 0.39863 0.68381 0.0
C654 C 0.86615 0.39632 0.71242 0.0
C655 C 0.8611 0.42587 0.72308 0.0
C656 C 0.85333 0.44478 0.70037 0.0
N657 N 0.80317 0.41665 0.63784 0.0
C658 C 0.75198 0.37292 0.64142 0.0
C659 C 0.7602 0.39247 0.66428 0.0
C660 C 0.78557 0.41405 0.66208 0.0
C661 C 0.76936 0.37698 0.61648 0.0
C662 C 0.79432 0.39874 0.6151 0.0
N663 N 0.88544 0.4626 0.635 0.0
C664 C 0.94172 0.46037 0.64341 0.0
C665 C 0.94623 0.49038 0.6324 0.0
C666 C 0.9193 0.50635 0.62274 0.0
C667 C 0.88924 0.49211 0.62419 0.0
C668 C 0.91159 0.4471 0.64453 0.0
H669 H 0.86912 0.5049 0.61651 0.0
H670 H 0.90971 0.42392 0.65311 0.0
H671 H 0.7915 0.42793 0.68036 0.0
H672 H 0.80718 0.40015 0.59563 0.0
C673 C 0.79936 0.49523 0.61057 0.0
C674 C 0.84422 0.47821 0.70309 0.0
C675 C 0.8668 0.41763 0.56766 0.0
C676 C 0.86838 0.37585 0.66329 0.0
H677 H 0.81078 0.53704 0.69743 0.0
H678 H 0.78229 0.5438 0.64843 0.0
H679 H 0.7967 0.49821 0.55056 0.0
H680 H 0.8364 0.45796 0.52762 0.0
H681 H 0.89444 0.35602 0.57115 0.0
H682 H 0.89302 0.33153 0.62288 0.0
H683 H 0.87375 0.37591 0.72405 0.0
H684 H 0.8629 0.43275 0.74501 0.0
H685 H 0.74755 0.39061 0.68404 0.0
H686 H 0.76411 0.36284 0.59811 0.0
H687 H 0.96155 0.44707 0.65119 0.0
H688 H 0.92147 0.52969 0.61413 0.0
C689 C 0.5433 0.82867 0.18117 0.0
C690 C 0.51483 0.81299 0.1832 0.0
C691 C 0.51133 0.7963 0.15883 0.0
C692 C 0.53733 0.80312 0.14297 0.0
N693 N 0.55711 0.82318 0.15571 0.0
Co694 Co 0.59524 0.84207 0.13817 0.0
N695 N 0.58147 0.83029 0.09938 0.0
C696 C 0.55959 0.8086 0.0933 0.0
C697 C 0.55616 0.80315 0.065 0.0
C698 C 0.57746 0.82234 0.05232 0.0
C699 C 0.59266 0.83866 0.07361 0.0
N700 N 0.63315 0.86094 0.12043 0.0
C701 C 0.63973 0.86749 0.09282 0.0
C702 C 0.66971 0.87968 0.0902 0.0
C703 C 0.68239 0.88029 0.1169 0.0
C704 C 0.65953 0.8685 0.13441 0.0
N705 N 0.60817 0.85342 0.17723 0.0
C706 C 0.63746 0.86139 0.18489 0.0
C707 C 0.63974 0.86792 0.21325 0.0
C708 C 0.61005 0.86367 0.22406 0.0
C709 C 0.59109 0.85488 0.20168 0.0
N710 N 0.6191 0.80147 0.14131 0.0
C711 C 0.66311 0.75108 0.14707 0.0
C712 C 0.64344 0.76031 0.16958 0.0
C713 C 0.62165 0.78531 0.16627 0.0
C714 C 0.65902 0.76685 0.12141 0.0
C715 C 0.63712 0.79147 0.11896 0.0
N716 N 0.57349 0.88331 0.13508 0.0
C717 C 0.57571 0.93957 0.14209 0.0
C718 C 0.54527 0.94361 0.13172 0.0
C719 C 0.52915 0.91654 0.12288 0.0
C720 C 0.54364 0.88668 0.1247 0.0
C721 C 0.58921 0.90966 0.14357 0.0
H722 H 0.53072 0.86637 0.1178 0.0
H723 H 0.61264 0.90809 0.15178 0.0
H724 H 0.60765 0.79222 0.18425 0.0
H725 H 0.63591 0.8032 0.09898 0.0
C726 C 0.54044 0.7964 0.11437 0.0
C727 C 0.55747 0.8463 0.20472 0.0
C728 C 0.61966 0.85918 0.06844 0.0
C729 C 0.66039 0.86736 0.16414 0.0
H730 H 0.4981 0.81352 0.20037 0.0
H731 H 0.49127 0.78235 0.15273 0.0
H732 H 0.53999 0.78729 0.05478 0.0
H733 H 0.58215 0.82318 0.03002 0.0
H734 H 0.68143 0.88657 0.07091 0.0
H735 H 0.70539 0.88872 0.12284 0.0
H736 H 0.66024 0.87596 0.22458 0.0
H737 H 0.6031 0.86671 0.24588 0.0
H738 H 0.64542 0.74882 0.18986 0.0
H739 H 0.67333 0.76068 0.10333 0.0
H740 H 0.58911 0.95958 0.14921 0.0
H741 H 0.50548 0.91842 0.11478 0.0
C742 C 0.19421 0.5376 0.67829 0.0
C743 C 0.21019 0.50931 0.68004 0.0
C744 C 0.22561 0.50537 0.655 0.0
C745 C 0.21784 0.53099 0.63912 0.0
N746 N 0.1984 0.55096 0.65252 0.0
Co747 Co 0.1789 0.58901 0.63565 0.0
N748 N 0.18841 0.57475 0.59654 0.0
C749 C 0.20873 0.55188 0.58946 0.0
C750 C 0.20982 0.54599 0.56106 0.0
C751 C 0.18923 0.56673 0.54938 0.0
C752 C 0.17697 0.58451 0.5713 0.0
N753 N 0.15954 0.62689 0.61855 0.0
C754 C 0.15143 0.63319 0.59126 0.0
C755 C 0.13927 0.66317 0.58899 0.0
C756 C 0.14034 0.67613 0.61557 0.0
C757 C 0.15298 0.65342 0.63267 0.0
N758 N 0.16947 0.60235 0.675 0.0
C759 C 0.1621 0.63166 0.68288 0.0
C760 C 0.15671 0.63411 0.71143 0.0
C761 C 0.16104 0.60448 0.72211 0.0
C762 C 0.16877 0.58543 0.69945 0.0
N763 N 0.22015 0.61224 0.63719 0.0
C764 C 0.27188 0.65519 0.64091 0.0
C765 C 0.26291 0.63624 0.66393 0.0
C766 C 0.23729 0.61502 0.66165 0.0
C767 C 0.25505 0.65085 0.61574 0.0
C768 C 0.22982 0.62943 0.61429 0.0
N769 N 0.13711 0.5678 0.63421 0.0
C770 C 0.0808 0.57087 0.64242 0.0
C771 C 0.07602 0.54061 0.63201 0.0
C772 C 0.10282 0.52412 0.62271 0.0
C773 C 0.13302 0.53808 0.62396 0.0
C774 C 0.11108 0.58384 0.64337 0.0
H775 H 0.15302 0.52484 0.6166 0.0
H776 H 0.11321 0.60718 0.65156 0.0
H777 H 0.23078 0.60158 0.68003 0.0
H778 H 0.21743 0.62768 0.59465 0.0
C779 C 0.22239 0.53318 0.6101 0.0
C780 C 0.17719 0.55189 0.70216 0.0
C781 C 0.15772 0.61259 0.56673 0.0
C782 C 0.15546 0.65449 0.66232 0.0
H783 H 0.21057 0.49292 0.6974 0.0
H784 H 0.23919 0.48519 0.6485 0.0
H785 H 0.22305 0.52798 0.55022 0.0
H786 H 0.18386 0.56857 0.52725 0.0
H787 H 0.13118 0.67464 0.56998 0.0
H788 H 0.13229 0.69915 0.62173 0.0
H789 H 0.1493 0.65467 0.723 0.0
H790 H 0.15879 0.59765 0.74402 0.0
H791 H 0.27516 0.63833 0.68385 0.0
H792 H 0.26096 0.66451 0.59724 0.0
H793 H 0.06108 0.58456 0.64993 0.0
H794 H 0.10045 0.50058 0.61458 0.0
C795 C 0.49507 0.18841 0.1809 0.0
C796 C 0.52353 0.20412 0.18284 0.0
C797 C 0.52743 0.22001 0.15814 0.0
C798 C 0.50169 0.2127 0.14219 0.0
N799 N 0.48161 0.19307 0.15519 0.0
Co800 Co 0.44363 0.17381 0.13766 0.0
N801 N 0.45781 0.18492 0.09874 0.0
C802 C 0.48084 0.20525 0.09231 0.0
C803 C 0.48656 0.20772 0.06394 0.0
C804 C 0.46553 0.18805 0.05154 0.0
C805 C 0.4478 0.17488 0.07305 0.0
N806 N 0.40573 0.15503 0.11986 0.0
C807 C 0.39894 0.14894 0.0922 0.0
C808 C 0.36883 0.13706 0.0896 0.0
C809 C 0.35627 0.13617 0.11635 0.0
C810 C 0.37932 0.14748 0.13388 0.0
N811 N 0.43067 0.16235 0.17679 0.0
C812 C 0.4015 0.1538 0.18437 0.0
C813 C 0.39909 0.14745 0.21275 0.0
C814 C 0.42857 0.15245 0.22369 0.0
C815 C 0.44754 0.16153 0.20137 0.0
N816 N 0.41939 0.21438 0.14078 0.0
C817 C 0.3722 0.26238 0.14599 0.0
C818 C 0.38897 0.25103 0.16956 0.0
C819 C 0.41271 0.22788 0.16647 0.0
C820 C 0.38138 0.25023 0.11962 0.0
C821 C 0.40435 0.22641 0.11753 0.0
N822 N 0.4655 0.13258 0.13474 0.0
C823 C 0.46307 0.07626 0.14124 0.0
C824 C 0.49385 0.0723 0.13159 0.0
C825 C 0.51025 0.09944 0.12339 0.0
C826 C 0.49569 0.12928 0.12509 0.0
C827 C 0.44953 0.10615 0.14264 0.0
H828 H 0.50887 0.14961 0.11867 0.0
H829 H 0.42586 0.10763 0.15033 0.0
H830 H 0.42468 0.22009 0.18524 0.0
H831 H 0.4088 0.21694 0.09693 0.0
C832 C 0.49954 0.21803 0.11333 0.0
C833 C 0.4808 0.1713 0.20469 0.0
C834 C 0.4193 0.15653 0.06776 0.0
C835 C 0.37858 0.14809 0.16361 0.0
H836 H 0.54009 0.204 0.20011 0.0
H837 H 0.54769 0.23359 0.15186 0.0
H838 H 0.50452 0.22143 0.05356 0.0
H839 H 0.46327 0.18411 0.02916 0.0
H840 H 0.35703 0.13036 0.07031 0.0
H841 H 0.33325 0.12779 0.12232 0.0
H842 H 0.37859 0.1393 0.22405 0.0
H843 H 0.43533 0.14991 0.24559 0.0
H844 H 0.38344 0.25966 0.19048 0.0
H845 H 0.3699 0.25826 0.10056 0.0
H846 H 0.44946 0.05619 0.14787 0.0
H847 H 0.53419 0.09763 0.11587 0.0
C848 C 0.02915 0.48174 0.143 0.0
C849 C 0.05149 0.49711 0.12539 0.0
C850 C 1.00804 0.52875 0.10555 0.0
C851 C 0.98671 0.51658 0.12595 0.0
N852 N 0.97846 0.48377 0.16661 0.0
N853 N 0.06226 0.53846 0.09224 0.0
C854 C 0.99765 0.49351 0.14524 0.0
C855 C 0.04086 0.52134 0.10712 0.0
N856 N 0.03775 0.45519 0.15706 0.0
N857 N 0.99676 0.54706 0.08422 0.0
H858 H 0.08634 0.5342 0.09308 0.0
H859 H 0.05648 0.5586 0.08104 0.0
H860 H 0.97299 0.55256 0.08221 0.0
H861 H 1.01029 0.55417 0.06707 0.0
H862 H 0.0219 0.44108 0.16789 0.0
H863 H 0.06019 0.44553 0.1556 0.0
H864 H 0.98617 0.46992 0.18331 0.0
H865 H 0.95538 0.49148 0.16889 0.0
C866 C 0.51071 0.99558 0.65788 0.0
C867 C 0.50383 0.9802 0.63192 0.0
C868 C 0.52132 0.02801 0.60656 0.0
C869 C 0.5253 0.0443 0.63261 0.0
N870 N 0.51818 0.0446 0.68306 0.0
N871 N 0.4981 0.98404 0.58145 0.0
C872 C 0.51843 0.02827 0.65825 0.0
C873 C 0.50798 0.99708 0.60622 0.0
N874 N 0.51089 0.97863 0.68232 0.0
N875 N 0.53134 0.04163 0.58208 0.0
H876 H 0.48852 0.96165 0.58026 0.0
H877 H 0.49705 0.99627 0.56247 0.0
H878 H 0.54102 0.06399 0.58139 0.0
H879 H 0.53246 0.02985 0.56285 0.0
H880 H 0.51889 0.98739 0.70153 0.0
H881 H 0.50593 0.95477 0.68287 0.0
H882 H 0.51015 0.03532 0.70206 0.0
H883 H 0.52316 0.06844 0.68421 0.0
C884 C 0.0371 0.51612 0.35698 0.0
C885 C 0.05221 0.5238 0.38288 0.0
C886 C 1.00385 0.50784 0.4084 0.0
C887 C 0.98797 0.5027 0.38234 0.0
N888 N 0.98829 0.50698 0.33168 0.0
N889 N 0.04814 0.53114 0.43316 0.0
C890 C 1.00436 0.50829 0.35661 0.0
C891 C 0.03504 0.52074 0.40858 0.0
N892 N 0.0544 0.51539 0.33267 0.0
N893 N 0.9895 0.49944 0.43306 0.0
H894 H 0.07089 0.54001 0.43423 0.0
H895 H 0.03579 0.53305 0.45207 0.0
H896 H 0.96669 0.49067 0.43383 0.0
H897 H 1.00089 0.49907 0.4525 0.0
H898 H 0.04591 0.50686 0.31356 0.0
H899 H 0.07831 0.52061 0.33214 0.0
H900 H 0.99773 0.51397 0.31241 0.0
H901 H 0.96444 0.50164 0.33058 0.0
C902 C 0.53688 0.01381 0.8634 0.0
C903 C 0.52578 0.99219 0.88404 0.0
C904 C 0.49534 0.0353 0.90608 0.0
C905 C 0.50392 0.05599 0.88384 0.0
N906 N 0.52988 0.06356 0.83922 0.0
N907 N 0.49052 0.98171 0.92269 0.0
C908 C 0.52393 0.04482 0.86195 0.0
C909 C 0.50405 1.00287 0.90484 0.0
N910 N 0.56075 1.00512 0.84576 0.0
N911 N 0.47922 0.04684 0.92877 0.0
H912 H 0.49581 0.9579 0.92222 0.0
H913 H 0.47207 0.98717 0.93626 0.0
H914 H 0.4723 0.07018 0.93024 0.0
H915 H 0.47514 0.03412 0.94714 0.0
H916 H 0.57224 0.02058 0.83231 0.0
H917 H 0.57106 0.983 0.8463 0.0
H918 H 0.54094 0.05572 0.82092 0.0
H919 H 0.52171 0.08651 0.83781 0.0
C920 C 0.98677 0.50921 0.85264 0.0
C921 C 0.97276 0.5191 0.87847 0.0
C922 C 0.02135 0.50305 0.90347 0.0
C923 C 0.03642 0.49613 0.8773 0.0
N924 N 0.03445 0.49698 0.82649 0.0
N925 N 0.97848 0.52902 0.92825 0.0
C926 C 0.01928 0.5003 0.85176 0.0
C927 C 0.99056 0.51687 0.90384 0.0
N928 N 0.96865 0.50754 0.82891 0.0
N929 N 0.03612 0.49551 0.92815 0.0
H930 H 0.95603 0.53869 0.9295 0.0
H931 H 0.99143 0.53163 0.94672 0.0
H932 H 0.05846 0.48553 0.92877 0.0
H933 H 0.02531 0.49666 0.94784 0.0
H934 H 0.9762 0.49754 0.81004 0.0
H935 H 0.94493 0.51359 0.82886 0.0
H936 H 0.02453 0.50305 0.80717 0.0
H937 H 0.05803 0.49063 0.82492 0.0
C938 C 0.52302 0.03056 0.40904 0.0
C939 C 0.52737 0.04718 0.38328 0.0
C940 C 0.51293 0.99927 0.35699 0.0
C941 C 0.50591 0.98347 0.38267 0.0
N942 N 0.49943 0.98618 0.43317 0.0
N943 N 0.52056 0.04877 0.33285 0.0
C944 C 0.50966 0.99973 0.40872 0.0
C945 C 0.52061 0.03185 0.3573 0.0
N946 N 0.53269 0.04376 0.43382 0.0
N947 N 0.51334 0.98283 0.33223 0.0
H948 H 0.52543 0.07264 0.33234 0.0
H949 H 0.51272 0.03997 0.3136 0.0
H950 H 0.50841 0.95898 0.33116 0.0
H951 H 0.52147 0.99202 0.31324 0.0
H952 H 0.53355 0.03165 0.45287 0.0
H953 H 0.54219 0.06618 0.43496 0.0
H954 H 0.4982 0.998 0.45237 0.0
H955 H 0.48972 0.96383 0.43385 0.0
C956 C 0.99571 0.50844 0.6059 0.0
C957 C 0.97908 0.50455 0.6318 0.0
C958 C 0.02731 0.52006 0.65752 0.0
C959 C 0.04306 0.52669 0.63165 0.0
N960 N 0.03992 0.53183 0.58108 0.0
N961 N 0.97784 0.51225 0.68216 0.0
C962 C 0.02657 0.52209 0.6058 0.0
C963 C 0.99463 0.51195 0.65756 0.0
N964 N 0.98253 0.49802 0.58136 0.0
N965 N 0.04394 0.52043 0.68217 0.0
H966 H 0.95397 0.50696 0.68303 0.0
H967 H 0.98671 0.5206 0.7012 0.0
H968 H 0.06779 0.52573 0.68298 0.0
H969 H 0.03494 0.51262 0.70136 0.0
H970 H 0.99464 0.49681 0.56228 0.0
H971 H 0.96019 0.48814 0.58049 0.0
H972 H 0.02793 0.53248 0.56195 0.0
H973 H 0.06225 0.54172 0.58008 0.0
C974 C 0.51322 0.02347 0.10521 0.0
C975 C 0.50838 0.03976 0.13112 0.0
C976 C 0.52324 0.99159 0.15693 0.0
C977 C 0.53077 0.97617 0.13113 0.0
N978 N 0.5374 0.97949 0.08071 0.0
N979 N 0.51422 0.04063 0.18168 0.0
C980 C 0.52693 0.99271 0.10526 0.0
C981 C 0.51494 0.0241 0.15697 0.0
N982 N 0.5037 0.03693 0.0805 0.0
N983 N 0.523 0.97482 0.18148 0.0
H984 H 0.50868 0.06437 0.18255 0.0
H985 H 0.52194 0.03167 0.20089 0.0
H986 H 0.52845 0.95106 0.18224 0.0
H987 H 0.51457 0.98359 0.20056 0.0
H988 H 0.50319 0.02509 0.06129 0.0
H989 H 0.49394 0.05928 0.07954 0.0
H990 H 0.53866 0.99152 0.06164 0.0
H991 H 0.54718 0.95714 0.07983 0.0
C992 C 0.1873 0.54496 0.25651 0.0
C993 C 0.18 0.53414 0.28408 0.0
C994 C 0.18164 0.48049 0.26444 0.0
C995 C 0.18257 0.49182 0.23615 0.0
N996 N 0.17642 0.53833 0.20703 0.0
N997 N 0.16239 0.49012 0.31184 0.0
C998 C 0.18187 0.52512 0.23274 0.0
C999 C 0.17425 0.50145 0.28714 0.0
N1000 N 0.2021 0.57289 0.25274 0.0
N1001 N 0.19005 0.4504 0.27023 0.0
H1002 H 0.15589 0.50473 0.32853 0.0
H1003 H 0.15617 0.4667 0.31434 0.0
H1004 H 0.19813 0.43508 0.25468 0.0
H1005 H 0.1921 0.44201 0.29082 0.0
H1006 H 0.20989 0.58034 0.23296 0.0
H1007 H 0.20992 0.58649 0.26959 0.0
H1008 H 0.17388 0.56244 0.2045 0.0
H1009 H 0.17162 0.52532 0.18903 0.0
C1010 C 0.52495 0.21025 0.74626 0.0
C1011 C 0.53286 0.18116 0.73351 0.0
C1012 C 0.50431 0.15469 0.77256 0.0
C1013 C 0.49331 0.18403 0.78301 0.0
N1014 N 0.48679 0.23908 0.77397 0.0
N1015 N 0.52649 0.12524 0.73313 0.0
C1016 C 0.50166 0.21156 0.76797 0.0
C1017 C 0.52155 0.1532 0.74635 0.0
N1018 N 0.54001 0.23682 0.73786 0.0
N1019 N 0.49898 0.12828 0.78801 0.0
H1020 H 0.53934 0.12328 0.71444 0.0
H1021 H 0.51608 0.10443 0.73959 0.0
H1022 H 0.48618 0.12845 0.8068 0.0
H1023 H 0.50909 0.10672 0.78326 0.0
H1024 H 0.53718 0.25823 0.74808 0.0
H1025 H 0.55768 0.23665 0.72258 0.0
H1026 H 0.48992 0.25928 0.762 0.0
H1027 H 0.46899 0.24077 0.78905 0.0
C1028 C 0.87214 0.49723 0.22903 0.0
C1029 C 0.86825 0.53019 0.23243 0.0
C1030 C 0.8724 0.52085 0.28373 0.0
C1031 C 0.86862 0.48788 0.28039 0.0
N1032 N 0.8528 0.4481 0.24693 0.0
N1033 N 0.85245 0.56987 0.26608 0.0
C1034 C 0.86551 0.47673 0.25218 0.0
C1035 C 0.86534 0.54131 0.26068 0.0
N1036 N 0.88078 0.4852 0.20352 0.0
N1037 N 0.88127 0.53292 0.30913 0.0
H1038 H 0.84273 0.58373 0.25023 0.0
H1039 H 0.84794 0.57765 0.28658 0.0
H1040 H 0.88744 0.51871 0.32616 0.0
H1041 H 0.88545 0.55675 0.31195 0.0
H1042 H 0.8851 0.46139 0.20064 0.0
H1043 H 0.88664 0.49943 0.1864 0.0
H1044 H 0.84814 0.44029 0.22649 0.0
H1045 H 0.84335 0.43421 0.26288 0.0
C1046 C 0.52275 0.87732 0.7678 0.0
C1047 C 0.53441 0.84893 0.77992 0.0
C1048 C 0.50257 0.81971 0.74517 0.0
C1049 C 0.49419 0.84771 0.73085 0.0
N1050 N 0.50036 0.90342 0.72677 0.0
N1051 N 0.541 0.7933 0.77441 0.0
C1052 C 0.50542 0.8766 0.74173 0.0
C1053 C 0.52611 0.82024 0.76667 0.0
N1054 N 0.52721 0.90505 0.78145 0.0
N1055 N 0.48762 0.79246 0.73854 0.0
H1056 H 0.55873 0.79286 0.78959 0.0
H1057 H 0.53793 0.77217 0.76379 0.0
H1058 H 0.4698 0.79136 0.72348 0.0
H1059 H 0.49073 0.77187 0.74995 0.0
H1060 H 0.51596 0.9257 0.77566 0.0
H1061 H 0.54055 0.90714 0.79968 0.0
H1062 H 0.51098 0.92464 0.73171 0.0
H1063 H 0.48738 0.90392 0.70812 0.0
C1064 C 0.81514 0.52706 0.76634 0.0
C1065 C 0.84317 0.53509 0.78088 0.0
C1066 C 0.873 0.5068 0.74359 0.0
C1067 C 0.84455 0.49553 0.73148 0.0
N1068 N 0.78877 0.48872 0.73715 0.0
N1069 N 0.89924 0.52948 0.7845 0.0
C1070 C 0.81574 0.50368 0.74479 0.0
C1071 C 0.87229 0.5241 0.76975 0.0
N1072 N 0.78782 0.54218 0.77277 0.0
N1073 N 0.90066 0.50171 0.72974 0.0
H1074 H 0.89963 0.54237 0.80321 0.0
H1075 H 0.92074 0.51946 0.77922 0.0
H1076 H 0.90205 0.4888 0.71108 0.0
H1077 H 0.92177 0.51204 0.73564 0.0
H1078 H 0.76725 0.53918 0.76121 0.0
H1079 H 0.78668 0.56003 0.78778 0.0
H1080 H 0.76758 0.49181 0.74782 0.0
H1081 H 0.78843 0.47091 0.72208 0.0
C1082 C 0.51135 0.87783 0.27012 0.0
C1083 C 0.49996 0.84947 0.28213 0.0
C1084 C 0.53177 0.82017 0.24742 0.0
C1085 C 0.5401 0.84816 0.23307 0.0
N1086 N 0.53456 0.90402 0.22942 0.0
N1087 N 0.49311 0.79391 0.27646 0.0
C1088 C 0.52898 0.87715 0.24411 0.0
C1089 C 0.50819 0.82077 0.26886 0.0
N1090 N 0.50605 0.90538 0.28392 0.0
N1091 N 0.54678 0.79289 0.24086 0.0
H1092 H 0.4752 0.79357 0.2915 0.0
H1093 H 0.4962 0.77279 0.26581 0.0
H1094 H 0.56473 0.79173 0.22589 0.0
H1095 H 0.54361 0.77232 0.2523 0.0
H1096 H 0.51645 0.92643 0.2781 0.0
H1097 H 0.49287 0.90675 0.30247 0.0
H1098 H 0.52437 0.92543 0.23454 0.0
H1099 H 0.54781 0.90442 0.21088 0.0
C1100 C 0.20426 0.50376 0.76623 0.0
C1101 C 0.17563 0.4951 0.77948 0.0
C1102 C 0.14708 0.52305 0.74147 0.0
C1103 C 0.17591 0.53463 0.73039 0.0
N1104 N 0.23134 0.54216 0.73761 0.0
N1105 N 0.11936 0.49981 0.78133 0.0
C1106 C 0.20428 0.5269 0.74454 0.0
C1107 C 0.14686 0.50564 0.76748 0.0
N1108 N 0.23159 0.48968 0.77429 0.0
N1109 N 0.11997 0.52803 0.72681 0.0
H1110 H 0.11833 0.48665 0.79985 0.0
H1111 H 0.09797 0.50966 0.77552 0.0
H1112 H 0.11923 0.54116 0.70826 0.0
H1113 H 0.09872 0.51749 0.73198 0.0
H1114 H 0.25278 0.493 0.76372 0.0
H1115 H 0.23234 0.4723 0.78973 0.0
H1116 H 0.25215 0.53955 0.74891 0.0
H1117 H 0.23209 0.55977 0.72238 0.0
C1118 C 0.52886 0.20129 0.26779 0.0
C1119 C 0.53792 0.17359 0.28224 0.0
C1120 C 0.5099 0.14316 0.2453 0.0
C1121 C 0.49769 0.1712 0.2333 0.0
N1122 N 0.48927 0.22656 0.23905 0.0
N1123 N 0.53387 0.11761 0.28597 0.0
C1124 C 0.50512 0.20009 0.24658 0.0
C1125 C 0.52753 0.14431 0.27128 0.0
N1126 N 0.54339 0.22888 0.27395 0.0
N1127 N 0.50544 0.11548 0.23151 0.0
H1128 H 0.54711 0.11757 0.30448 0.0
H1129 H 0.52429 0.09595 0.28086 0.0
H1130 H 0.49226 0.11378 0.21302 0.0
H1131 H 0.51647 0.09472 0.23731 0.0
H1132 H 0.53961 0.24929 0.26241 0.0
H1133 H 0.56154 0.23046 0.28865 0.0
H1134 H 0.49188 0.24775 0.24967 0.0
H1135 H 0.47125 0.22642 0.22415 0.0
C1136 C 0.15091 0.38832 0.99342 0.0
C1137 C 0.16775 0.41138 0.97766 0.0
C1138 C 0.18233 0.43397 0.02279 0.0
C1139 C 0.17249 0.40752 0.03867 0.0
N1140 N 0.15858 0.35283 0.03259 0.0
N1141 N 0.21386 0.44447 0.98211 0.0
C1142 C 0.15982 0.38243 0.02224 0.0
C1143 C 0.18854 0.4301 0.99382 0.0
N1144 N 0.12552 0.37356 0.98235 0.0
N1145 N 0.18496 0.46296 0.03442 0.0
H1146 H 0.22067 0.4404 0.96131 0.0
H1147 H 0.22921 0.45792 0.99426 0.0
H1148 H 0.19166 0.48227 0.02236 0.0
H1149 H 0.17738 0.46795 0.05484 0.0
H1150 H 0.11242 0.35763 0.99417 0.0
H1151 H 0.11607 0.37985 0.96286 0.0
H1152 H 0.15071 0.33416 0.02028 0.0
H1153 H 0.1684 0.34699 0.05206 0.0
C1154 C 0.60776 0.12943 0.49173 0.0
C1155 C 0.62325 0.15424 0.4775 0.0
C1156 C 0.64056 0.17517 0.52372 0.0
C1157 C 0.62105 0.1532 0.53796 0.0
N1158 N 0.5878 0.10799 0.53602 0.0
N1159 N 0.65613 0.19976 0.47947 0.0
C1160 C 0.60567 0.12951 0.52202 0.0
C1161 C 0.6408 0.17636 0.49343 0.0
N1162 N 0.59478 0.10598 0.476 0.0
N1163 N 0.65847 0.19531 0.53924 0.0
H1164 H 0.65832 0.20017 0.45757 0.0
H1165 H 0.66591 0.21924 0.4892 0.0
H1166 H 0.65809 0.19584 0.5612 0.0
H1167 H 0.67542 0.21001 0.53073 0.0
H1168 H 0.58468 0.08595 0.48445 0.0
H1169 H 0.59619 0.10559 0.45399 0.0
H1170 H 0.57308 0.09197 0.52619 0.0
H1171 H 0.58714 0.10669 0.55802 0.0
C1172 C 0.8533 0.63388 0.02315 0.0
C1173 C 0.87498 0.61349 0.03673 0.0
C1174 C 0.89614 0.59866 0.98985 0.0
C1175 C 0.87145 0.61527 0.97638 0.0
N1176 N 0.82664 0.64931 0.97994 0.0
N1177 N 0.91797 0.57726 0.03337 0.0
C1178 C 0.8505 0.63361 0.993 0.0
C1179 C 0.89702 0.5965 0.0201 0.0
N1180 N 0.83507 0.65334 0.03917 0.0
N1181 N 0.91862 0.58479 0.97345 0.0
H1182 H 0.92009 0.57639 0.05531 0.0
H1183 H 0.93249 0.56145 0.02295 0.0
H1184 H 0.91833 0.58619 0.95145 0.0
H1185 H 0.93868 0.57407 0.98138 0.0
H1186 H 0.82113 0.67107 0.03089 0.0
H1187 H 0.83567 0.65349 0.06112 0.0
H1188 H 0.80779 0.65945 0.99051 0.0
H1189 H 0.82498 0.65119 0.95808 0.0
C1190 C 0.38872 0.85368 0.52073 0.0
C1191 C 0.40781 0.87457 0.53654 0.0
C1192 C 0.42393 0.90007 0.4919 0.0
C1193 C 0.40929 0.87589 0.47611 0.0
N1194 N 0.37643 0.83019 0.47531 0.0
N1195 N 0.44243 0.91879 0.53763 0.0
C1196 C 0.39068 0.85329 0.4905 0.0
C1197 C 0.42459 0.89851 0.52219 0.0
N1198 N 0.36919 0.83368 0.53475 0.0
N1199 N 0.43758 0.92428 0.47768 0.0
H1200 H 0.44212 0.91903 0.55968 0.0
H1201 H 0.45818 0.93462 0.52888 0.0
H1202 H 0.43726 0.92572 0.45567 0.0
H1203 H 0.44691 0.94399 0.4874 0.0
H1204 H 0.35235 0.81989 0.5249 0.0
H1205 H 0.36806 0.8326 0.55669 0.0
H1206 H 0.36637 0.81035 0.4842 0.0
H1207 H 0.37548 0.83035 0.45337 0.0
C1208 C 0.13066 0.60579 0.49026 0.0
C1209 C 0.15465 0.62266 0.47602 0.0
C1210 C 0.17479 0.64115 0.52197 0.0
C1211 C 0.1521 0.62258 0.53631 0.0
N1212 N 0.10405 0.59356 0.53458 0.0
N1213 N 0.19477 0.66214 0.47773 0.0
C1214 C 0.12841 0.60721 0.52046 0.0
C1215 C 0.17492 0.64247 0.49176 0.0
N1216 N 0.11099 0.58724 0.47484 0.0
N1217 N 0.19754 0.65595 0.53722 0.0
H1218 H 0.19623 0.6629 0.45579 0.0
H1219 H 0.20795 0.67947 0.48754 0.0
H1220 H 0.19701 0.65736 0.55914 0.0
H1221 H 0.21749 0.66597 0.52839 0.0
H1222 H 0.09521 0.57148 0.48365 0.0
H1223 H 0.11125 0.58691 0.4528 0.0
H1224 H 0.08464 0.58367 0.52474 0.0
H1225 H 0.10213 0.59443 0.55655 0.0
C1226 C 0.38907 0.17852 0.99378 0.0
C1227 C 0.40792 0.15834 0.9769 0.0
C1228 C 0.42333 0.12961 0.0201 0.0
C1229 C 0.40885 0.15288 0.03714 0.0
N1230 N 0.37667 0.19901 0.04043 0.0
N1231 N 0.44201 0.11374 0.97352 0.0
C1232 C 0.39074 0.17679 0.02398 0.0
C1233 C 0.4243 0.13323 0.98997 0.0
N1234 N 0.36996 0.19978 0.98081 0.0
N1235 N 0.43651 0.10424 0.03301 0.0
H1236 H 0.44196 0.11504 0.95151 0.0
H1237 H 0.45747 0.09709 0.98145 0.0
H1238 H 0.43595 0.1013 0.05489 0.0
H1239 H 0.44564 0.08506 0.02224 0.0
H1240 H 0.35332 0.21326 0.99135 0.0
H1241 H 0.36899 0.2023 0.95895 0.0
H1242 H 0.36688 0.21956 0.03265 0.0
H1243 H 0.37563 0.19735 0.06233 0.0
C1244 C 0.85545 0.38846 0.49138 0.0
C1245 C 0.87702 0.40816 0.47689 0.0
C1246 C 0.89915 0.42427 0.523 0.0
C1247 C 0.87454 0.40846 0.53733 0.0
N1248 N 0.82938 0.37486 0.5354 0.0
N1249 N 0.92027 0.44407 0.47857 0.0
C1250 C 0.85316 0.3898 0.52156 0.0
C1251 C 0.89948 0.42545 0.49269 0.0
N1252 N 0.83677 0.36871 0.47619 0.0
N1253 N 0.92204 0.4384 0.53863 0.0
H1254 H 0.92199 0.44423 0.45658 0.0
H1255 H 0.93504 0.46011 0.48833 0.0
H1256 H 0.92214 0.43771 0.56067 0.0
H1257 H 0.94205 0.44857 0.53007 0.0
H1258 H 0.82285 0.35141 0.48518 0.0
H1259 H 0.83695 0.36787 0.45423 0.0
H1260 H 0.81025 0.36463 0.5254 0.0
H1261 H 0.8281 0.37369 0.55731 0.0
C1262 C 0.6155 0.89176 0.02363 0.0
C1263 C 0.62881 0.86576 0.03792 0.0
C1264 C 0.6436 0.84269 0.99184 0.0
C1265 C 0.62869 0.86784 0.97754 0.0
N1266 N 0.60945 0.92061 0.97969 0.0
N1267 N 0.66258 0.82072 0.03612 0.0
C1268 C 0.61769 0.89385 0.99348 0.0
C1269 C 0.64545 0.84277 0.02209 0.0
N1270 N 0.59949 0.91377 0.03884 0.0
N1271 N 0.65457 0.81796 0.97643 0.0
H1272 H 0.66416 0.82026 0.05808 0.0
H1273 H 0.67731 0.80469 0.02619 0.0
H1274 H 0.65488 0.81805 0.95439 0.0
H1275 H 0.6622 0.79703 0.98527 0.0
H1276 H 0.5858 0.93123 0.02974 0.0
H1277 H 0.59876 0.91364 0.06088 0.0
H1278 H 0.60333 0.94131 0.98988 0.0
H1279 H 0.61221 0.92305 0.95796 0.0
C1280 C 0.2914 0.30375 0.1347 0.0
C1281 C 0.29375 0.33125 0.15168 0.0
C1282 C 0.34864 0.31525 0.16284 0.0
C1283 C 0.34494 0.28603 0.14862 0.0
N1284 N 0.30816 0.25004 0.12754 0.0
N1285 N 0.32323 0.35797 0.18785 0.0
C1286 C 0.31494 0.27963 0.13647 0.0
C1287 C 0.322 0.33542 0.16747 0.0
N1288 N 0.26753 0.30103 0.11566 0.0
N1289 N 0.37787 0.32475 0.17085 0.0
H1290 H 0.30404 0.37206 0.19293 0.0
H1291 H 0.342 0.3602 0.20178 0.0
H1292 H 0.39806 0.31175 0.16671 0.0
H1293 H 0.38239 0.34704 0.17874 0.0
H1294 H 0.26645 0.28302 0.10085 0.0
H1295 H 0.25081 0.31847 0.11249 0.0
H1296 H 0.28581 0.24334 0.12099 0.0
H1297 H 0.32374 0.23138 0.12977 0.0
C1298 C 0.73461 0.31551 0.64678 0.0
C1299 C 0.72631 0.34763 0.64343 0.0
C1300 C 0.67 0.33139 0.6425 0.0
C1301 C 0.67847 0.29908 0.64355 0.0
N1302 N 0.71962 0.2605 0.64462 0.0
N1303 N 0.68581 0.38573 0.63535 0.0
C1304 C 0.71104 0.2913 0.64512 0.0
C1305 C 0.69385 0.35538 0.64074 0.0
N1306 N 0.76516 0.30812 0.65254 0.0
N1307 N 0.63892 0.33926 0.64335 0.0
H1308 H 0.70228 0.40372 0.63447 0.0
H1309 H 0.66329 0.39293 0.62989 0.0
H1310 H 0.62104 0.32264 0.64333 0.0
H1311 H 0.63076 0.36202 0.64594 0.0
H1312 H 0.77271 0.2859 0.65834 0.0
H1313 H 0.78287 0.32489 0.65373 0.0
H1314 H 0.74263 0.25285 0.64198 0.0
H1315 H 0.70342 0.24226 0.64526 0.0
C1316 C 0.74556 0.71227 0.1514 0.0
C1317 C 0.73838 0.67971 0.15047 0.0
C1318 C 0.68161 0.69366 0.14821 0.0
C1319 C 0.6888 0.72615 0.15008 0.0
N1320 N 0.72756 0.76594 0.15817 0.0
N1321 N 0.6991 0.63941 0.1519 0.0
C1322 C 0.72082 0.73523 0.15301 0.0
C1323 C 0.70621 0.67049 0.15015 0.0
N1324 N 0.77627 0.72138 0.15017 0.0
N1325 N 0.65125 0.68492 0.14341 0.0
H1326 H 0.71623 0.62198 0.15229 0.0
H1327 H 0.6765 0.63089 0.15493 0.0
H1328 H 0.6328 0.70095 0.14251 0.0
H1329 H 0.64447 0.6622 0.13853 0.0
H1330 H 0.78337 0.74439 0.1471 0.0
H1331 H 0.79492 0.70556 0.1506 0.0
H1332 H 0.74977 0.77404 0.16357 0.0
H1333 H 0.71032 0.78324 0.15934 0.0
C1334 C 0.28982 0.71224 0.64718 0.0
C1335 C 0.29778 0.68015 0.64301 0.0
C1336 C 0.3542 0.69583 0.64145 0.0
C1337 C 0.34603 0.72817 0.64332 0.0
N1338 N 0.30533 0.76713 0.64605 0.0
N1339 N 0.33773 0.64178 0.63367 0.0
C1340 C 0.31359 0.73624 0.64568 0.0
C1341 C 0.3301 0.67212 0.63966 0.0
N1342 N 0.25941 0.71976 0.65345 0.0
N1343 N 0.38521 0.68768 0.64155 0.0
H1344 H 0.32106 0.62396 0.63286 0.0
H1345 H 0.36006 0.63445 0.62774 0.0
H1346 H 0.40325 0.70414 0.64158 0.0
H1347 H 0.39323 0.6648 0.64347 0.0
H1348 H 0.25213 0.74189 0.65984 0.0
H1349 H 0.24154 0.70315 0.6544 0.0
H1350 H 0.28237 0.77511 0.64403 0.0
H1351 H 0.32175 0.78517 0.64686 0.0
C1352 C 0.35849 0.6998 0.37216 0.0
C1353 C 0.35149 0.7322 0.36877 0.0
C1354 C 0.2948 0.71849 0.36577 0.0
C1355 C 0.30185 0.68596 0.36817 0.0
N1356 N 0.34104 0.64548 0.37009 0.0
N1357 N 0.31324 0.77181 0.35807 0.0
C1358 C 0.33394 0.67665 0.37021 0.0
C1359 C 0.31966 0.74128 0.36438 0.0
N1360 N 0.38861 0.6912 0.37834 0.0
N1361 N 0.26408 0.72774 0.36529 0.0
H1362 H 0.33052 0.78903 0.3572 0.0
H1363 H 0.29134 0.77981 0.35156 0.0
H1364 H 0.24544 0.71199 0.3645 0.0
H1365 H 0.25685 0.75089 0.36724 0.0
H1366 H 0.39515 0.66872 0.38431 0.0
H1367 H 0.40704 0.70718 0.37924 0.0
H1368 H 0.36373 0.63671 0.36831 0.0
H1369 H 0.32391 0.6281 0.36989 0.0
C1370 C 0.31266 0.30071 0.86961 0.0
C1371 C 0.34535 0.30798 0.87113 0.0
C1372 C 0.33071 0.36448 0.8745 0.0
C1373 C 0.29815 0.35724 0.87194 0.0
N1374 N 0.25861 0.31842 0.86317 0.0
N1375 N 0.38543 0.34749 0.87181 0.0
C1376 C 0.28938 0.32528 0.86844 0.0
C1377 C 0.35425 0.34013 0.87254 0.0
N1378 N 0.30374 0.27002 0.86969 0.0
N1379 N 0.33913 0.39474 0.87983 0.0
H1380 H 0.40309 0.33059 0.8717 0.0
H1381 H 0.39393 0.37013 0.86952 0.0
H1382 H 0.32287 0.41297 0.88069 0.0
H1383 H 0.36175 0.40165 0.88515 0.0
H1384 H 0.28068 0.26262 0.87234 0.0
H1385 H 0.31973 0.25157 0.86859 0.0
H1386 H 0.25063 0.2964 0.85725 0.0
H1387 H 0.24102 0.33542 0.86269 0.0
C1388 C 0.68125 0.32744 0.36718 0.0
C1389 C 0.68805 0.29481 0.36582 0.0
C1390 C 0.74501 0.30789 0.36465 0.0
C1391 C 0.73822 0.34058 0.36498 0.0
N1392 N 0.69939 0.38137 0.36278 0.0
N1393 N 0.72647 0.25434 0.35862 0.0
C1394 C 0.70614 0.35023 0.36501 0.0
C1395 C 0.72001 0.28524 0.36326 0.0
N1396 N 0.65096 0.33671 0.37171 0.0
N1397 N 0.7756 0.29836 0.3662 0.0
H1398 H 0.70906 0.23726 0.35761 0.0
H1399 H 0.74864 0.24584 0.35348 0.0
H1400 H 0.79444 0.31388 0.36559 0.0
H1401 H 0.78239 0.27532 0.36972 0.0
H1402 H 0.6444 0.35962 0.37622 0.0
H1403 H 0.63232 0.32097 0.37281 0.0
H1404 H 0.67691 0.39014 0.35948 0.0
H1405 H 0.7167 0.39857 0.36229 0.0
C1406 C 0.69309 0.67976 0.86537 0.0
C1407 C 0.72489 0.68556 0.87341 0.0
C1408 C 0.70868 0.74017 0.88516 0.0
C1409 C 0.67789 0.73546 0.87406 0.0
N1410 N 0.64333 0.70092 0.84866 0.0
N1411 N 0.76356 0.72456 0.88509 0.0
C1412 C 0.67085 0.70522 0.86285 0.0
C1413 C 0.73274 0.71671 0.88168 0.0
N1414 N 0.68354 0.64966 0.86118 0.0
N1415 N 0.71485 0.76671 0.90021 0.0
H1416 H 0.78189 0.70879 0.88176 0.0
H1417 H 0.77109 0.74747 0.88819 0.0
H1418 H 0.69793 0.7838 0.90418 0.0
H1419 H 0.73566 0.77013 0.91131 0.0
H1420 H 0.66014 0.64345 0.85829 0.0
H1421 H 0.69857 0.63056 0.86333 0.0
H1422 H 0.6382 0.68065 0.83737 0.0
H1423 H 0.62688 0.71871 0.84588 0.0
loop_
_geom_bond_atom_site_label_1
_geom_bond_atom_site_label_2
_geom_bond_distance
_geom_bond_site_symmetry_2
_ccdc_geom_bond_type
C0 C1 1.443 . S
C0 N4 1.376 . S
C0 C38 1.389 . S
C1 C0 1.443 . S
C1 C2 1.340 . S
C1 H41 0.951 . S
C2 C1 1.340 . S
C2 C3 1.439 . S
C2 H42 0.950 . S
C3 C2 1.439 . S
C3 N4 1.374 . S
C3 C37 1.395 . S
N4 C0 1.376 . S
N4 C3 1.374 . S
N4 Co5 2.008 . S
Co5 N4 2.008 . S
Co5 N6 1.995 . S
Co5 N11 2.008 . S
Co5 N16 1.995 . S
Co5 N21 2.282 . S
Co5 N27 2.282 . S
N6 Co5 1.995 . S
N6 C7 1.376 . S
N6 C10 1.383 . S
C7 N6 1.376 . S
C7 C8 1.446 . S
C7 C37 1.391 . S
C8 C7 1.446 . S
C8 C9 1.339 . S
C8 H43 0.949 . S
C9 C8 1.339 . S
C9 C10 1.439 . S
C9 H44 0.950 . S
C10 N6 1.383 . S
C10 C9 1.439 . S
C10 C39 1.392 . S
N11 Co5 2.008 . S
N11 C12 1.376 . S
N11 C15 1.374 . S
C12 N11 1.376 . S
C12 C13 1.443 . S
C12 C39 1.389 . S
C13 C12 1.443 . S
C13 C14 1.340 . S
C13 H45 0.951 . S
C14 C13 1.340 . S
C14 C15 1.439 . S
C14 H46 0.950 . S
C15 N11 1.374 . S
C15 C14 1.439 . S
C15 C40 1.395 . S
N16 Co5 1.995 . S
N16 C17 1.376 . S
N16 C20 1.383 . S
C17 N16 1.376 . S
C17 C18 1.446 . S
C17 C40 1.391 . S
C18 C17 1.446 . S
C18 C19 1.339 . S
C18 H47 0.949 . S
C19 C18 1.339 . S
C19 C20 1.439 . S
C19 H48 0.950 . S
C20 N16 1.383 . S
C20 C19 1.439 . S
C20 C38 1.392 . S
N21 Co5 2.282 . S
N21 C24 1.332 . S
N21 C26 1.332 . S
C22 C23 1.386 . S
C22 C25 1.388 . S
C23 C22 1.386 . S
C23 C24 1.382 . S
C23 H49 0.950 . S
C24 N21 1.332 . S
C24 C23 1.382 . S
C24 H35 0.952 . S
C25 C22 1.388 . S
C25 C26 1.382 . S
C25 H50 0.950 . S
C26 N21 1.332 . S
C26 C25 1.382 . S
C26 H36 0.948 . S
N27 Co5 2.282 . S
N27 C31 1.332 . S
N27 C32 1.332 . S
C28 C29 1.388 . S
C28 C32 1.382 . S
C28 H51 0.950 . S
C29 C28 1.388 . S
C29 C30 1.386 . S
C30 C29 1.386 . S
C30 C31 1.382 . S
C30 H52 0.950 . S
C31 N27 1.332 . S
C31 C30 1.382 . S
C31 H33 0.952 . S
C32 N27 1.332 . S
C32 C28 1.382 . S
C32 H34 0.948 . S
H33 C31 0.952 . S
H34 C32 0.948 . S
H35 C24 0.952 . S
H36 C26 0.948 . S
C37 C3 1.395 . S
C37 C7 1.391 . S
C38 C0 1.389 . S
C38 C20 1.392 . S
C39 C10 1.392 . S
C39 C12 1.389 . S
C40 C15 1.395 . S
C40 C17 1.391 . S
H41 C1 0.951 . S
H42 C2 0.950 . S
H43 C8 0.949 . S
H44 C9 0.950 . S
H45 C13 0.951 . S
H46 C14 0.950 . S
H47 C18 0.949 . S
H48 C19 0.950 . S
H49 C23 0.950 . S
H50 C25 0.950 . S
H51 C28 0.950 . S
H52 C30 0.950 . S
C53 C54 1.443 . S
C53 N57 1.376 . S
C53 C91 1.389 . S
C54 C53 1.443 . S
C54 C55 1.340 . S
C54 H94 0.951 . S
C55 C54 1.340 . S
C55 C56 1.439 . S
C55 H95 0.950 . S
C56 C55 1.439 . S
C56 N57 1.374 . S
C56 C90 1.395 . S
N57 C53 1.376 . S
N57 C56 1.374 . S
N57 Co58 2.008 . S
Co58 N57 2.008 . S
Co58 N59 1.995 . S
Co58 N64 2.008 . S
Co58 N69 1.995 . S
Co58 N74 2.282 . S
Co58 N80 2.282 . S
N59 Co58 1.995 . S
N59 C60 1.376 . S
N59 C63 1.383 . S
C60 N59 1.376 . S
C60 C61 1.446 . S
C60 C90 1.391 . S
C61 C60 1.446 . S
C61 C62 1.339 . S
C61 H96 0.949 . S
C62 C61 1.339 . S
C62 C63 1.439 . S
C62 H97 0.950 . S
C63 N59 1.383 . S
C63 C62 1.439 . S
C63 C92 1.392 . S
N64 Co58 2.008 . S
N64 C65 1.376 . S
N64 C68 1.374 . S
C65 N64 1.376 . S
C65 C66 1.443 . S
C65 C92 1.389 . S
C66 C65 1.443 . S
C66 C67 1.340 . S
C66 H98 0.951 . S
C67 C66 1.340 . S
C67 C68 1.439 . S
C67 H99 0.950 . S
C68 N64 1.374 . S
C68 C67 1.439 . S
C68 C93 1.395 . S
N69 Co58 1.995 . S
N69 C70 1.376 . S
N69 C73 1.383 . S
C70 N69 1.376 . S
C70 C71 1.446 . S
C70 C93 1.391 . S
C71 C70 1.446 . S
C71 C72 1.339 . S
C71 H100 0.949 . S
C72 C71 1.339 . S
C72 C73 1.439 . S
C72 H101 0.950 . S
C73 N69 1.383 . S
C73 C72 1.439 . S
C73 C91 1.392 . S
N74 Co58 2.282 . S
N74 C77 1.332 . S
N74 C79 1.332 . S
C75 C76 1.386 . S
C75 C78 1.388 . S
C76 C75 1.386 . S
C76 C77 1.382 . S
C76 H102 0.950 . S
C77 N74 1.332 . S
C77 C76 1.382 . S
C77 H88 0.952 . S
C78 C75 1.388 . S
C78 C79 1.382 . S
C78 H103 0.950 . S
C79 N74 1.332 . S
C79 C78 1.382 . S
C79 H89 0.948 . S
N80 Co58 2.282 . S
N80 C84 1.332 . S
N80 C85 1.332 . S
C81 C82 1.388 . S
C81 C85 1.382 . S
C81 H104 0.950 . S
C82 C81 1.388 . S
C82 C83 1.386 . S
C83 C82 1.386 . S
C83 C84 1.382 . S
C83 H105 0.950 . S
C84 N80 1.332 . S
C84 C83 1.382 . S
C84 H86 0.952 . S
C85 N80 1.332 . S
C85 C81 1.382 . S
C85 H87 0.948 . S
H86 C84 0.952 . S
H87 C85 0.948 . S
H88 C77 0.952 . S
H89 C79 0.948 . S
C90 C56 1.395 . S
C90 C60 1.391 . S
C91 C53 1.389 . S
C91 C73 1.392 . S
C92 C63 1.392 . S
C92 C65 1.389 . S
C93 C68 1.395 . S
C93 C70 1.391 . S
H94 C54 0.951 . S
H95 C55 0.950 . S
H96 C61 0.949 . S
H97 C62 0.950 . S
H98 C66 0.951 . S
H99 C67 0.950 . S
H100 C71 0.949 . S
H101 C72 0.950 . S
H102 C76 0.950 . S
H103 C78 0.950 . S
H104 C81 0.950 . S
H105 C83 0.950 . S
C106 C107 1.443 . S
C106 N110 1.376 . S
C106 C144 1.389 . S
C107 C106 1.443 . S
C107 C108 1.340 . S
C107 H147 0.951 . S
C108 C107 1.340 . S
C108 C109 1.439 . S
C108 H148 0.950 . S
C109 C108 1.439 . S
C109 N110 1.374 . S
C109 C143 1.395 . S
N110 C106 1.376 . S
N110 C109 1.374 . S
N110 Co111 2.008 . S
Co111 N110 2.008 . S
Co111 N112 1.995 . S
Co111 N117 2.008 . S
Co111 N122 1.995 . S
Co111 N127 2.282 . S
Co111 N133 2.282 . S
N112 Co111 1.995 . S
N112 C113 1.376 . S
N112 C116 1.383 . S
C113 N112 1.376 . S
C113 C114 1.446 . S
C113 C143 1.391 . S
C114 C113 1.446 . S
C114 C115 1.339 . S
C114 H149 0.949 . S
C115 C114 1.339 . S
C115 C116 1.439 . S
C115 H150 0.950 . S
C116 N112 1.383 . S
C116 C115 1.439 . S
C116 C145 1.392 . S
N117 Co111 2.008 . S
N117 C118 1.376 . S
N117 C121 1.374 . S
C118 N117 1.376 . S
C118 C119 1.443 . S
C118 C145 1.389 . S
C119 C118 1.443 . S
C119 C120 1.340 . S
C119 H151 0.951 . S
C120 C119 1.340 . S
C120 C121 1.439 . S
C120 H152 0.950 . S
C121 N117 1.374 . S
C121 C120 1.439 . S
C121 C146 1.395 . S
N122 Co111 1.995 . S
N122 C123 1.376 . S
N122 C126 1.383 . S
C123 N122 1.376 . S
C123 C124 1.446 . S
C123 C146 1.391 . S
C124 C123 1.446 . S
C124 C125 1.339 . S
C124 H153 0.949 . S
C125 C124 1.339 . S
C125 C126 1.439 . S
C125 H154 0.950 . S
C126 N122 1.383 . S
C126 C125 1.439 . S
C126 C144 1.392 . S
N127 Co111 2.282 . S
N127 C130 1.332 . S
N127 C132 1.332 . S
C128 C129 1.386 . S
C128 C131 1.388 . S
C129 C128 1.386 . S
C129 C130 1.382 . S
C129 H155 0.950 . S
C130 N127 1.332 . S
C130 C129 1.382 . S
C130 H141 0.952 . S
C131 C128 1.388 . S
C131 C132 1.382 . S
C131 H156 0.950 . S
C132 N127 1.332 . S
C132 C131 1.382 . S
C132 H142 0.948 . S
N133 Co111 2.282 . S
N133 C137 1.332 . S
N133 C138 1.332 . S
C134 C135 1.388 . S
C134 C138 1.382 . S
C134 H157 0.950 . S
C135 C134 1.388 . S
C135 C136 1.386 . S
C136 C135 1.386 . S
C136 C137 1.382 . S
C136 H158 0.950 . S
C137 N133 1.332 . S
C137 C136 1.382 . S
C137 H139 0.952 . S
C138 N133 1.332 . S
C138 C134 1.382 . S
C138 H140 0.948 . S
H139 C137 0.952 . S
H140 C138 0.948 . S
H141 C130 0.952 . S
H142 C132 0.948 . S
C143 C109 1.395 . S
C143 C113 1.391 . S
C144 C106 1.389 . S
C144 C126 1.392 . S
C145 C116 1.392 . S
C145 C118 1.389 . S
C146 C121 1.395 . S
C146 C123 1.391 . S
H147 C107 0.951 . S
H148 C108 0.950 . S
H149 C114 0.949 . S
H150 C115 0.950 . S
H151 C119 0.951 . S
H152 C120 0.950 . S
H153 C124 0.949 . S
H154 C125 0.950 . S
H155 C129 0.950 . S
H156 C131 0.950 . S
H157 C134 0.950 . S
H158 C136 0.950 . S
C159 C160 1.443 . S
C159 N163 1.376 . S
C159 C197 1.389 . S
C160 C159 1.443 . S
C160 C161 1.340 . S
C160 H200 0.951 . S
C161 C160 1.340 . S
C161 C162 1.439 . S
C161 H201 0.950 . S
C162 C161 1.439 . S
C162 N163 1.374 . S
C162 C196 1.395 . S
N163 C159 1.376 . S
N163 C162 1.374 . S
N163 Co164 2.008 . S
Co164 N163 2.008 . S
Co164 N165 1.995 . S
Co164 N170 2.008 . S
Co164 N175 1.995 . S
Co164 N180 2.282 . S
Co164 N186 2.282 . S
N165 Co164 1.995 . S
N165 C166 1.376 . S
N165 C169 1.383 . S
C166 N165 1.376 . S
C166 C167 1.446 . S
C166 C196 1.391 . S
C167 C166 1.446 . S
C167 C168 1.339 . S
C167 H202 0.949 . S
C168 C167 1.339 . S
C168 C169 1.439 . S
C168 H203 0.950 . S
C169 N165 1.383 . S
C169 C168 1.439 . S
C169 C198 1.392 . S
N170 Co164 2.008 . S
N170 C171 1.376 . S
N170 C174 1.374 . S
C171 N170 1.376 . S
C171 C172 1.443 . S
C171 C198 1.389 . S
C172 C171 1.443 . S
C172 C173 1.340 . S
C172 H204 0.951 . S
C173 C172 1.340 . S
C173 C174 1.439 . S
C173 H205 0.950 . S
C174 N170 1.374 . S
C174 C173 1.439 . S
C174 C199 1.395 . S
N175 Co164 1.995 . S
N175 C176 1.376 . S
N175 C179 1.383 . S
C176 N175 1.376 . S
C176 C177 1.446 . S
C176 C199 1.391 . S
C177 C176 1.446 . S
C177 C178 1.339 . S
C177 H206 0.949 . S
C178 C177 1.339 . S
C178 C179 1.439 . S
C178 H207 0.950 . S
C179 N175 1.383 . S
C179 C178 1.439 . S
C179 C197 1.392 . S
N180 Co164 2.282 . S
N180 C183 1.332 . S
N180 C185 1.332 . S
C181 C182 1.386 . S
C181 C184 1.388 . S
C182 C181 1.386 . S
C182 C183 1.382 . S
C182 H208 0.950 . S
C183 N180 1.332 . S
C183 C182 1.382 . S
C183 H194 0.952 . S
C184 C181 1.388 . S
C184 C185 1.382 . S
C184 H209 0.950 . S
C185 N180 1.332 . S
C185 C184 1.382 . S
C185 H195 0.948 . S
N186 Co164 2.282 . S
N186 C190 1.332 . S
N186 C191 1.332 . S
C187 C188 1.388 . S
C187 C191 1.382 . S
C187 H210 0.950 . S
C188 C187 1.388 . S
C188 C189 1.386 . S
C189 C188 1.386 . S
C189 C190 1.382 . S
C189 H211 0.950 . S
C190 N186 1.332 . S
C190 C189 1.382 . S
C190 H192 0.952 . S
C191 N186 1.332 . S
C191 C187 1.382 . S
C191 H193 0.948 . S
H192 C190 0.952 . S
H193 C191 0.948 . S
H194 C183 0.952 . S
H195 C185 0.948 . S
C196 C162 1.395 . S
C196 C166 1.391 . S
C197 C159 1.389 . S
C197 C179 1.392 . S
C198 C169 1.392 . S
C198 C171 1.389 . S
C199 C174 1.395 . S
C199 C176 1.391 . S
H200 C160 0.951 . S
H201 C161 0.950 . S
H202 C167 0.949 . S
H203 C168 0.950 . S
H204 C172 0.951 . S
H205 C173 0.950 . S
H206 C177 0.949 . S
H207 C178 0.950 . S
H208 C182 0.950 . S
H209 C184 0.950 . S
H210 C187 0.950 . S
H211 C189 0.950 . S
C212 C213 1.443 . S
C212 N216 1.376 . S
C212 C250 1.389 . S
C213 C212 1.443 . S
C213 C214 1.340 . S
C213 H253 0.951 . S
C214 C213 1.340 . S
C214 C215 1.439 . S
C214 H254 0.950 . S
C215 C214 1.439 . S
C215 N216 1.374 . S
C215 C249 1.395 . S
N216 C212 1.376 . S
N216 C215 1.374 . S
N216 Co217 2.008 . S
Co217 N216 2.008 . S
Co217 N218 1.995 . S
Co217 N223 2.008 . S
Co217 N228 1.995 . S
Co217 N233 2.282 . S
Co217 N239 2.282 . S
N218 Co217 1.995 . S
N218 C219 1.376 . S
N218 C222 1.383 . S
C219 N218 1.376 . S
C219 C220 1.446 . S
C219 C249 1.391 . S
C220 C219 1.446 . S
C220 C221 1.339 . S
C220 H255 0.949 . S
C221 C220 1.339 . S
C221 C222 1.439 . S
C221 H256 0.950 . S
C222 N218 1.383 . S
C222 C221 1.439 . S
C222 C251 1.392 . S
N223 Co217 2.008 . S
N223 C224 1.376 . S
N223 C227 1.374 . S
C224 N223 1.376 . S
C224 C225 1.443 . S
C224 C251 1.389 . S
C225 C224 1.443 . S
C225 C226 1.340 . S
C225 H257 0.951 . S
C226 C225 1.340 . S
C226 C227 1.439 . S
C226 H258 0.950 . S
C227 N223 1.374 . S
C227 C226 1.439 . S
C227 C252 1.395 . S
N228 Co217 1.995 . S
N228 C229 1.376 . S
N228 C232 1.383 . S
C229 N228 1.376 . S
C229 C230 1.446 . S
C229 C252 1.391 . S
C230 C229 1.446 . S
C230 C231 1.339 . S
C230 H259 0.949 . S
C231 C230 1.339 . S
C231 C232 1.439 . S
C231 H260 0.950 . S
C232 N228 1.383 . S
C232 C231 1.439 . S
C232 C250 1.392 . S
N233 Co217 2.282 . S
N233 C236 1.332 . S
N233 C238 1.332 . S
C234 C235 1.386 . S
C234 C237 1.388 . S
C235 C234 1.386 . S
C235 C236 1.382 . S
C235 H261 0.950 . S
C236 N233 1.332 . S
C236 C235 1.382 . S
C236 H247 0.952 . S
C237 C234 1.388 . S
C237 C238 1.382 . S
C237 H262 0.950 . S
C238 N233 1.332 . S
C238 C237 1.382 . S
C238 H248 0.948 . S
N239 Co217 2.282 . S
N239 C243 1.332 . S
N239 C244 1.332 . S
C240 C241 1.388 . S
C240 C244 1.382 . S
C240 H263 0.950 . S
C241 C240 1.388 . S
C241 C242 1.386 . S
C242 C241 1.386 . S
C242 C243 1.382 . S
C242 H264 0.950 . S
C243 N239 1.332 . S
C243 C242 1.382 . S
C243 H245 0.952 . S
C244 N239 1.332 . S
C244 C240 1.382 . S
C244 H246 0.948 . S
H245 C243 0.952 . S
H246 C244 0.948 . S
H247 C236 0.952 . S
H248 C238 0.948 . S
C249 C215 1.395 . S
C249 C219 1.391 . S
C250 C212 1.389 . S
C250 C232 1.392 . S
C251 C222 1.392 . S
C251 C224 1.389 . S
C252 C227 1.395 . S
C252 C229 1.391 . S
H253 C213 0.951 . S
H254 C214 0.950 . S
H255 C220 0.949 . S
H256 C221 0.950 . S
H257 C225 0.951 . S
H258 C226 0.950 . S
H259 C230 0.949 . S
H260 C231 0.950 . S
H261 C235 0.950 . S
H262 C237 0.950 . S
H263 C240 0.950 . S
H264 C242 0.950 . S
C265 C266 1.443 . S
C265 N269 1.376 . S
C265 C303 1.389 . S
C266 C265 1.443 . S
C266 C267 1.340 . S
C266 H306 0.951 . S
C267 C266 1.340 . S
C267 C268 1.439 . S
C267 H307 0.950 . S
C268 C267 1.439 . S
C268 N269 1.374 . S
C268 C302 1.395 . S
N269 C265 1.376 . S
N269 C268 1.374 . S
N269 Co270 2.008 . S
Co270 N269 2.008 . S
Co270 N271 1.995 . S
Co270 N276 2.008 . S
Co270 N281 1.995 . S
Co270 N286 2.282 . S
Co270 N292 2.282 . S
N271 Co270 1.995 . S
N271 C272 1.376 . S
N271 C275 1.383 . S
C272 N271 1.376 . S
C272 C273 1.446 . S
C272 C302 1.391 . S
C273 C272 1.446 . S
C273 C274 1.339 . S
C273 H308 0.949 . S
C274 C273 1.339 . S
C274 C275 1.439 . S
C274 H309 0.950 . S
C275 N271 1.383 . S
C275 C274 1.439 . S
C275 C304 1.392 . S
N276 Co270 2.008 . S
N276 C277 1.376 . S
N276 C280 1.374 . S
C277 N276 1.376 . S
C277 C278 1.443 . S
C277 C304 1.389 . S
C278 C277 1.443 . S
C278 C279 1.340 . S
C278 H310 0.951 . S
C279 C278 1.340 . S
C279 C280 1.439 . S
C279 H311 0.950 . S
C280 N276 1.374 . S
C280 C279 1.439 . S
C280 C305 1.395 . S
N281 Co270 1.995 . S
N281 C282 1.376 . S
N281 C285 1.383 . S
C282 N281 1.376 . S
C282 C283 1.446 . S
C282 C305 1.391 . S
C283 C282 1.446 . S
C283 C284 1.339 . S
C283 H312 0.949 . S
C284 C283 1.339 . S
C284 C285 1.439 . S
C284 H313 0.950 . S
C285 N281 1.383 . S
C285 C284 1.439 . S
C285 C303 1.392 . S
N286 Co270 2.282 . S
N286 C289 1.332 . S
N286 C291 1.332 . S
C287 C288 1.386 . S
C287 C290 1.388 . S
C288 C287 1.386 . S
C288 C289 1.382 . S
C288 H314 0.950 . S
C289 N286 1.332 . S
C289 C288 1.382 . S
C289 H300 0.952 . S
C290 C287 1.388 . S
C290 C291 1.382 . S
C290 H315 0.950 . S
C291 N286 1.332 . S
C291 C290 1.382 . S
C291 H301 0.948 . S
N292 Co270 2.282 . S
N292 C296 1.332 . S
N292 C297 1.332 . S
C293 C294 1.388 . S
C293 C297 1.382 . S
C293 H316 0.950 . S
C294 C293 1.388 . S
C294 C295 1.386 . S
C295 C294 1.386 . S
C295 C296 1.382 . S
C295 H317 0.950 . S
C296 N292 1.332 . S
C296 C295 1.382 . S
C296 H298 0.952 . S
C297 N292 1.332 . S
C297 C293 1.382 . S
C297 H299 0.948 . S
H298 C296 0.952 . S
H299 C297 0.948 . S
H300 C289 0.952 . S
H301 C291 0.948 . S
C302 C268 1.395 . S
C302 C272 1.391 . S
C303 C265 1.389 . S
C303 C285 1.392 . S
C304 C275 1.392 . S
C304 C277 1.389 . S
C305 C280 1.395 . S
C305 C282 1.391 . S
H306 C266 0.951 . S
H307 C267 0.950 . S
H308 C273 0.949 . S
H309 C274 0.950 . S
H310 C278 0.951 . S
H311 C279 0.950 . S
H312 C283 0.949 . S
H313 C284 0.950 . S
H314 C288 0.950 . S
H315 C290 0.950 . S
H316 C293 0.950 . S
H317 C295 0.950 . S
C318 C319 1.443 . S
C318 N322 1.376 . S
C318 C356 1.389 . S
C319 C318 1.443 . S
C319 C320 1.340 . S
C319 H359 0.951 . S
C320 C319 1.340 . S
C320 C321 1.439 . S
C320 H360 0.950 . S
C321 C320 1.439 . S
C321 N322 1.374 . S
C321 C355 1.395 . S
N322 C318 1.376 . S
N322 C321 1.374 . S
N322 Co323 2.008 . S
Co323 N322 2.008 . S
Co323 N324 1.995 . S
Co323 N329 2.008 . S
Co323 N334 1.995 . S
Co323 N339 2.282 . S
Co323 N345 2.282 . S
N324 Co323 1.995 . S
N324 C325 1.376 . S
N324 C328 1.383 . S
C325 N324 1.376 . S
C325 C326 1.446 . S
C325 C355 1.391 . S
C326 C325 1.446 . S
C326 C327 1.339 . S
C326 H361 0.949 . S
C327 C326 1.339 . S
C327 C328 1.439 . S
C327 H362 0.950 . S
C328 N324 1.383 . S
C328 C327 1.439 . S
C328 C357 1.392 . S
N329 Co323 2.008 . S
N329 C330 1.376 . S
N329 C333 1.374 . S
C330 N329 1.376 . S
C330 C331 1.443 . S
C330 C357 1.389 . S
C331 C330 1.443 . S
C331 C332 1.340 . S
C331 H363 0.951 . S
C332 C331 1.340 . S
C332 C333 1.439 . S
C332 H364 0.950 . S
C333 N329 1.374 . S
C333 C332 1.439 . S
C333 C358 1.395 . S
N334 Co323 1.995 . S
N334 C335 1.376 . S
N334 C338 1.383 . S
C335 N334 1.376 . S
C335 C336 1.446 . S
C335 C358 1.391 . S
C336 C335 1.446 . S
C336 C337 1.339 . S
C336 H365 0.949 . S
C337 C336 1.339 . S
C337 C338 1.439 . S
C337 H366 0.950 . S
C338 N334 1.383 . S
C338 C337 1.439 . S
C338 C356 1.392 . S
N339 Co323 2.282 . S
N339 C342 1.332 . S
N339 C344 1.332 . S
C340 C341 1.386 . S
C340 C343 1.388 . S
C341 C340 1.386 . S
C341 C342 1.382 . S
C341 H367 0.950 . S
C342 N339 1.332 . S
C342 C341 1.382 . S
C342 H353 0.952 . S
C343 C340 1.388 . S
C343 C344 1.382 . S
C343 H368 0.950 . S
C344 N339 1.332 . S
C344 C343 1.382 . S
C344 H354 0.948 . S
N345 Co323 2.282 . S
N345 C349 1.332 . S
N345 C350 1.332 . S
C346 C347 1.388 . S
C346 C350 1.382 . S
C346 H369 0.950 . S
C347 C346 1.388 . S
C347 C348 1.386 . S
C348 C347 1.386 . S
C348 C349 1.382 . S
C348 H370 0.950 . S
C349 N345 1.332 . S
C349 C348 1.382 . S
C349 H351 0.952 . S
C350 N345 1.332 . S
C350 C346 1.382 . S
C350 H352 0.948 . S
H351 C349 0.952 . S
H352 C350 0.948 . S
H353 C342 0.952 . S
H354 C344 0.948 . S
C355 C321 1.395 . S
C355 C325 1.391 . S
C356 C318 1.389 . S
C356 C338 1.392 . S
C357 C328 1.392 . S
C357 C330 1.389 . S
C358 C333 1.395 . S
C358 C335 1.391 . S
H359 C319 0.951 . S
H360 C320 0.950 . S
H361 C326 0.949 . S
H362 C327 0.950 . S
H363 C331 0.951 . S
H364 C332 0.950 . S
H365 C336 0.949 . S
H366 C337 0.950 . S
H367 C341 0.950 . S
H368 C343 0.950 . S
H369 C346 0.950 . S
H370 C348 0.950 . S
C371 C372 1.443 . S
C371 N375 1.376 . S
C371 C409 1.389 . S
C372 C371 1.443 . S
C372 C373 1.340 . S
C372 H412 0.951 . S
C373 C372 1.340 . S
C373 C374 1.439 . S
C373 H413 0.950 . S
C374 C373 1.439 . S
C374 N375 1.374 . S
C374 C408 1.395 . S
N375 C371 1.376 . S
N375 C374 1.374 . S
N375 Co376 2.008 . S
Co376 N375 2.008 . S
Co376 N377 1.995 . S
Co376 N382 2.008 . S
Co376 N387 1.995 . S
Co376 N392 2.282 . S
Co376 N398 2.282 . S
N377 Co376 1.995 . S
N377 C378 1.376 . S
N377 C381 1.383 . S
C378 N377 1.376 . S
C378 C379 1.446 . S
C378 C408 1.391 . S
C379 C378 1.446 . S
C379 C380 1.339 . S
C379 H414 0.949 . S
C380 C379 1.339 . S
C380 C381 1.439 . S
C380 H415 0.950 . S
C381 N377 1.383 . S
C381 C380 1.439 . S
C381 C410 1.392 . S
N382 Co376 2.008 . S
N382 C383 1.376 . S
N382 C386 1.374 . S
C383 N382 1.376 . S
C383 C384 1.443 . S
C383 C410 1.389 . S
C384 C383 1.443 . S
C384 C385 1.340 . S
C384 H416 0.951 . S
C385 C384 1.340 . S
C385 C386 1.439 . S
C385 H417 0.950 . S
C386 N382 1.374 . S
C386 C385 1.439 . S
C386 C411 1.395 . S
N387 Co376 1.995 . S
N387 C388 1.376 . S
N387 C391 1.383 . S
C388 N387 1.376 . S
C388 C389 1.446 . S
C388 C411 1.391 . S
C389 C388 1.446 . S
C389 C390 1.339 . S
C389 H418 0.949 . S
C390 C389 1.339 . S
C390 C391 1.439 . S
C390 H419 0.950 . S
C391 N387 1.383 . S
C391 C390 1.439 . S
C391 C409 1.392 . S
N392 Co376 2.282 . S
N392 C395 1.332 . S
N392 C397 1.332 . S
C393 C394 1.386 . S
C393 C396 1.388 . S
C394 C393 1.386 . S
C394 C395 1.382 . S
C394 H420 0.950 . S
C395 N392 1.332 . S
C395 C394 1.382 . S
C395 H406 0.952 . S
C396 C393 1.388 . S
C396 C397 1.382 . S
C396 H421 0.950 . S
C397 N392 1.332 . S
C397 C396 1.382 . S
C397 H407 0.948 . S
N398 Co376 2.282 . S
N398 C402 1.332 . S
N398 C403 1.332 . S
C399 C400 1.388 . S
C399 C403 1.382 . S
C399 H422 0.950 . S
C400 C399 1.388 . S
C400 C401 1.386 . S
C401 C400 1.386 . S
C401 C402 1.382 . S
C401 H423 0.950 . S
C402 N398 1.332 . S
C402 C401 1.382 . S
C402 H404 0.952 . S
C403 N398 1.332 . S
C403 C399 1.382 . S
C403 H405 0.948 . S
H404 C402 0.952 . S
H405 C403 0.948 . S
H406 C395 0.952 . S
H407 C397 0.948 . S
C408 C374 1.395 . S
C408 C378 1.391 . S
C409 C371 1.389 . S
C409 C391 1.392 . S
C410 C381 1.392 . S
C410 C383 1.389 . S
C411 C386 1.395 . S
C411 C388 1.391 . S
H412 C372 0.951 . S
H413 C373 0.950 . S
H414 C379 0.949 . S
H415 C380 0.950 . S
H416 C384 0.951 . S
H417 C385 0.950 . S
H418 C389 0.949 . S
H419 C390 0.950 . S
H420 C394 0.950 . S
H421 C396 0.950 . S
H422 C399 0.950 . S
H423 C401 0.950 . S
C424 C425 1.443 . S
C424 N428 1.376 . S
C424 C462 1.389 . S
C425 C424 1.443 . S
C425 C426 1.340 . S
C425 H465 0.951 . S
C426 C425 1.340 . S
C426 C427 1.439 . S
C426 H466 0.950 . S
C427 C426 1.439 . S
C427 N428 1.374 . S
C427 C461 1.395 . S
N428 C424 1.376 . S
N428 C427 1.374 . S
N428 Co429 2.008 . S
Co429 N428 2.008 . S
Co429 N430 1.995 . S
Co429 N435 2.008 . S
Co429 N440 1.995 . S
Co429 N445 2.282 . S
Co429 N451 2.282 . S
N430 Co429 1.995 . S
N430 C431 1.376 . S
N430 C434 1.383 . S
C431 N430 1.376 . S
C431 C432 1.446 . S
C431 C461 1.391 . S
C432 C431 1.446 . S
C432 C433 1.339 . S
C432 H467 0.949 . S
C433 C432 1.339 . S
C433 C434 1.439 . S
C433 H468 0.950 . S
C434 N430 1.383 . S
C434 C433 1.439 . S
C434 C463 1.392 . S
N435 Co429 2.008 . S
N435 C436 1.376 . S
N435 C439 1.374 . S
C436 N435 1.376 . S
C436 C437 1.443 . S
C436 C463 1.389 . S
C437 C436 1.443 . S
C437 C438 1.340 . S
C437 H469 0.951 . S
C438 C437 1.340 . S
C438 C439 1.439 . S
C438 H470 0.950 . S
C439 N435 1.374 . S
C439 C438 1.439 . S
C439 C464 1.395 . S
N440 Co429 1.995 . S
N440 C441 1.376 . S
N440 C444 1.383 . S
C441 N440 1.376 . S
C441 C442 1.446 . S
C441 C464 1.391 . S
C442 C441 1.446 . S
C442 C443 1.339 . S
C442 H471 0.949 . S
C443 C442 1.339 . S
C443 C444 1.439 . S
C443 H472 0.950 . S
C444 N440 1.383 . S
C444 C443 1.439 . S
C444 C462 1.392 . S
N445 Co429 2.282 . S
N445 C448 1.332 . S
N445 C450 1.332 . S
C446 C447 1.386 . S
C446 C449 1.388 . S
C447 C446 1.386 . S
C447 C448 1.382 . S
C447 H473 0.950 . S
C448 N445 1.332 . S
C448 C447 1.382 . S
C448 H459 0.952 . S
C449 C446 1.388 . S
C449 C450 1.382 . S
C449 H474 0.950 . S
C450 N445 1.332 . S
C450 C449 1.382 . S
C450 H460 0.948 . S
N451 Co429 2.282 . S
N451 C455 1.332 . S
N451 C456 1.332 . S
C452 C453 1.388 . S
C452 C456 1.382 . S
C452 H475 0.950 . S
C453 C452 1.388 . S
C453 C454 1.386 . S
C454 C453 1.386 . S
C454 C455 1.382 . S
C454 H476 0.950 . S
C455 N451 1.332 . S
C455 C454 1.382 . S
C455 H457 0.952 . S
C456 N451 1.332 . S
C456 C452 1.382 . S
C456 H458 0.948 . S
H457 C455 0.952 . S
H458 C456 0.948 . S
H459 C448 0.952 . S
H460 C450 0.948 . S
C461 C427 1.395 . S
C461 C431 1.391 . S
C462 C424 1.389 . S
C462 C444 1.392 . S
C463 C434 1.392 . S
C463 C436 1.389 . S
C464 C439 1.395 . S
C464 C441 1.391 . S
H465 C425 0.951 . S
H466 C426 0.950 . S
H467 C432 0.949 . S
H468 C433 0.950 . S
H469 C437 0.951 . S
H470 C438 0.950 . S
H471 C442 0.949 . S
H472 C443 0.950 . S
H473 C447 0.950 . S
H474 C449 0.950 . S
H475 C452 0.950 . S
H476 C454 0.950 . S
C477 C478 1.443 . S
C477 N481 1.376 . S
C477 C515 1.389 . S
C478 C477 1.443 . S
C478 C479 1.340 . S
C478 H518 0.951 . S
C479 C478 1.340 . S
C479 C480 1.439 . S
C479 H519 0.950 . S
C480 C479 1.439 . S
C480 N481 1.374 . S
C480 C514 1.395 . S
N481 C477 1.376 . S
N481 C480 1.374 . S
N481 Co482 2.008 . S
Co482 N481 2.008 . S
Co482 N483 1.995 . S
Co482 N488 2.008 . S
Co482 N493 1.995 . S
Co482 N498 2.282 . S
Co482 N504 2.282 . S
N483 Co482 1.995 . S
N483 C484 1.376 . S
N483 C487 1.383 . S
C484 N483 1.376 . S
C484 C485 1.446 . S
C484 C514 1.391 . S
C485 C484 1.446 . S
C485 C486 1.339 . S
C485 H520 0.949 . S
C486 C485 1.339 . S
C486 C487 1.439 . S
C486 H521 0.950 . S
C487 N483 1.383 . S
C487 C486 1.439 . S
C487 C516 1.392 . S
N488 Co482 2.008 . S
N488 C489 1.376 . S
N488 C492 1.374 . S
C489 N488 1.376 . S
C489 C490 1.443 . S
C489 C516 1.389 . S
C490 C489 1.443 . S
C490 C491 1.340 . S
C490 H522 0.951 . S
C491 C490 1.340 . S
C491 C492 1.439 . S
C491 H523 0.950 . S
C492 N488 1.374 . S
C492 C491 1.439 . S
C492 C517 1.395 . S
N493 Co482 1.995 . S
N493 C494 1.376 . S
N493 C497 1.383 . S
C494 N493 1.376 . S
C494 C495 1.446 . S
C494 C517 1.391 . S
C495 C494 1.446 . S
C495 C496 1.339 . S
C495 H524 0.949 . S
C496 C495 1.339 . S
C496 C497 1.439 . S
C496 H525 0.950 . S
C497 N493 1.383 . S
C497 C496 1.439 . S
C497 C515 1.392 . S
N498 Co482 2.282 . S
N498 C501 1.332 . S
N498 C503 1.332 . S
C499 C500 1.386 . S
C499 C502 1.388 . S
C500 C499 1.386 . S
C500 C501 1.382 . S
C500 H526 0.950 . S
C501 N498 1.332 . S
C501 C500 1.382 . S
C501 H512 0.952 . S
C502 C499 1.388 . S
C502 C503 1.382 . S
C502 H527 0.950 . S
C503 N498 1.332 . S
C503 C502 1.382 . S
C503 H513 0.948 . S
N504 Co482 2.282 . S
N504 C508 1.332 . S
N504 C509 1.332 . S
C505 C506 1.388 . S
C505 C509 1.382 . S
C505 H528 0.950 . S
C506 C505 1.388 . S
C506 C507 1.386 . S
C507 C506 1.386 . S
C507 C508 1.382 . S
C507 H529 0.950 . S
C508 N504 1.332 . S
C508 C507 1.382 . S
C508 H510 0.952 . S
C509 N504 1.332 . S
C509 C505 1.382 . S
C509 H511 0.948 . S
H510 C508 0.952 . S
H511 C509 0.948 . S
H512 C501 0.952 . S
H513 C503 0.948 . S
C514 C480 1.395 . S
C514 C484 1.391 . S
C515 C477 1.389 . S
C515 C497 1.392 . S
C516 C487 1.392 . S
C516 C489 1.389 . S
C517 C492 1.395 . S
C517 C494 1.391 . S
H518 C478 0.951 . S
H519 C479 0.950 . S
H520 C485 0.949 . S
H521 C486 0.950 . S
H522 C490 0.951 . S
H523 C491 0.950 . S
H524 C495 0.949 . S
H525 C496 0.950 . S
H526 C500 0.950 . S
H527 C502 0.950 . S
H528 C505 0.950 . S
H529 C507 0.950 . S
C530 C531 1.443 . S
C530 N534 1.376 . S
C530 C568 1.389 . S
C531 C530 1.443 . S
C531 C532 1.340 . S
C531 H571 0.951 . S
C532 C531 1.340 . S
C532 C533 1.439 . S
C532 H572 0.950 . S
C533 C532 1.439 . S
C533 N534 1.374 . S
C533 C567 1.395 . S
N534 C530 1.376 . S
N534 C533 1.374 . S
N534 Co535 2.008 . S
Co535 N534 2.008 . S
Co535 N536 1.995 . S
Co535 N541 2.008 . S
Co535 N546 1.995 . S
Co535 N551 2.282 . S
Co535 N557 2.282 . S
N536 Co535 1.995 . S
N536 C537 1.376 . S
N536 C540 1.383 . S
C537 N536 1.376 . S
C537 C538 1.446 . S
C537 C567 1.391 . S
C538 C537 1.446 . S
C538 C539 1.339 . S
C538 H573 0.949 . S
C539 C538 1.339 . S
C539 C540 1.439 . S
C539 H574 0.950 . S
C540 N536 1.383 . S
C540 C539 1.439 . S
C540 C569 1.392 . S
N541 Co535 2.008 . S
N541 C542 1.376 . S
N541 C545 1.374 . S
C542 N541 1.376 . S
C542 C543 1.443 . S
C542 C569 1.389 . S
C543 C542 1.443 . S
C543 C544 1.340 . S
C543 H575 0.951 . S
C544 C543 1.340 . S
C544 C545 1.439 . S
C544 H576 0.950 . S
C545 N541 1.374 . S
C545 C544 1.439 . S
C545 C570 1.395 . S
N546 Co535 1.995 . S
N546 C547 1.376 . S
N546 C550 1.383 . S
C547 N546 1.376 . S
C547 C548 1.446 . S
C547 C570 1.391 . S
C548 C547 1.446 . S
C548 C549 1.339 . S
C548 H577 0.949 . S
C549 C548 1.339 . S
C549 C550 1.439 . S
C549 H578 0.950 . S
C550 N546 1.383 . S
C550 C549 1.439 . S
C550 C568 1.392 . S
N551 Co535 2.282 . S
N551 C554 1.332 . S
N551 C556 1.332 . S
C552 C553 1.386 . S
C552 C555 1.388 . S
C553 C552 1.386 . S
C553 C554 1.382 . S
C553 H579 0.950 . S
C554 N551 1.332 . S
C554 C553 1.382 . S
C554 H565 0.952 . S
C555 C552 1.388 . S
C555 C556 1.382 . S
C555 H580 0.950 . S
C556 N551 1.332 . S
C556 C555 1.382 . S
C556 H566 0.948 . S
N557 Co535 2.282 . S
N557 C561 1.332 . S
N557 C562 1.332 . S
C558 C559 1.388 . S
C558 C562 1.382 . S
C558 H581 0.950 . S
C559 C558 1.388 . S
C559 C560 1.386 . S
C560 C559 1.386 . S
C560 C561 1.382 . S
C560 H582 0.950 . S
C561 N557 1.332 . S
C561 C560 1.382 . S
C561 H563 0.952 . S
C562 N557 1.332 . S
C562 C558 1.382 . S
C562 H564 0.948 . S
H563 C561 0.952 . S
H564 C562 0.948 . S
H565 C554 0.952 . S
H566 C556 0.948 . S
C567 C533 1.395 . S
C567 C537 1.391 . S
C568 C530 1.389 . S
C568 C550 1.392 . S
C569 C540 1.392 . S
C569 C542 1.389 . S
C570 C545 1.395 . S
C570 C547 1.391 . S
H571 C531 0.951 . S
H572 C532 0.950 . S
H573 C538 0.949 . S
H574 C539 0.950 . S
H575 C543 0.951 . S
H576 C544 0.950 . S
H577 C548 0.949 . S
H578 C549 0.950 . S
H579 C553 0.950 . S
H580 C555 0.950 . S
H581 C558 0.950 . S
H582 C560 0.950 . S
C583 C584 1.443 . S
C583 N587 1.376 . S
C583 C621 1.389 . S
C584 C583 1.443 . S
C584 C585 1.340 . S
C584 H624 0.951 . S
C585 C584 1.340 . S
C585 C586 1.439 . S
C585 H625 0.950 . S
C586 C585 1.439 . S
C586 N587 1.374 . S
C586 C620 1.395 . S
N587 C583 1.376 . S
N587 C586 1.374 . S
N587 Co588 2.008 . S
Co588 N587 2.008 . S
Co588 N589 1.995 . S
Co588 N594 2.008 . S
Co588 N599 1.995 . S
Co588 N604 2.282 . S
Co588 N610 2.282 . S
N589 Co588 1.995 . S
N589 C590 1.376 . S
N589 C593 1.383 . S
C590 N589 1.376 . S
C590 C591 1.446 . S
C590 C620 1.391 . S
C591 C590 1.446 . S
C591 C592 1.339 . S
C591 H626 0.949 . S
C592 C591 1.339 . S
C592 C593 1.439 . S
C592 H627 0.950 . S
C593 N589 1.383 . S
C593 C592 1.439 . S
C593 C622 1.392 . S
N594 Co588 2.008 . S
N594 C595 1.376 . S
N594 C598 1.374 . S
C595 N594 1.376 . S
C595 C596 1.443 . S
C595 C622 1.389 . S
C596 C595 1.443 . S
C596 C597 1.340 . S
C596 H628 0.951 . S
C597 C596 1.340 . S
C597 C598 1.439 . S
C597 H629 0.950 . S
C598 N594 1.374 . S
C598 C597 1.439 . S
C598 C623 1.395 . S
N599 Co588 1.995 . S
N599 C600 1.376 . S
N599 C603 1.383 . S
C600 N599 1.376 . S
C600 C601 1.446 . S
C600 C623 1.391 . S
C601 C600 1.446 . S
C601 C602 1.339 . S
C601 H630 0.949 . S
C602 C601 1.339 . S
C602 C603 1.439 . S
C602 H631 0.950 . S
C603 N599 1.383 . S
C603 C602 1.439 . S
C603 C621 1.392 . S
N604 Co588 2.282 . S
N604 C607 1.332 . S
N604 C609 1.332 . S
C605 C606 1.386 . S
C605 C608 1.388 . S
C606 C605 1.386 . S
C606 C607 1.382 . S
C606 H632 0.950 . S
C607 N604 1.332 . S
C607 C606 1.382 . S
C607 H618 0.952 . S
C608 C605 1.388 . S
C608 C609 1.382 . S
C608 H633 0.950 . S
C609 N604 1.332 . S
C609 C608 1.382 . S
C609 H619 0.948 . S
N610 Co588 2.282 . S
N610 C614 1.332 . S
N610 C615 1.332 . S
C611 C612 1.388 . S
C611 C615 1.382 . S
C611 H634 0.950 . S
C612 C611 1.388 . S
C612 C613 1.386 . S
C613 C612 1.386 . S
C613 C614 1.382 . S
C613 H635 0.950 . S
C614 N610 1.332 . S
C614 C613 1.382 . S
C614 H616 0.952 . S
C615 N610 1.332 . S
C615 C611 1.382 . S
C615 H617 0.948 . S
H616 C614 0.952 . S
H617 C615 0.948 . S
H618 C607 0.952 . S
H619 C609 0.948 . S
C620 C586 1.395 . S
C620 C590 1.391 . S
C621 C583 1.389 . S
C621 C603 1.392 . S
C622 C593 1.392 . S
C622 C595 1.389 . S
C623 C598 1.395 . S
C623 C600 1.391 . S
H624 C584 0.951 . S
H625 C585 0.950 . S
H626 C591 0.949 . S
H627 C592 0.950 . S
H628 C596 0.951 . S
H629 C597 0.950 . S
H630 C601 0.949 . S
H631 C602 0.950 . S
H632 C606 0.950 . S
H633 C608 0.950 . S
H634 C611 0.950 . S
H635 C613 0.950 . S
C636 C637 1.443 . S
C636 N640 1.376 . S
C636 C674 1.389 . S
C637 C636 1.443 . S
C637 C638 1.340 . S
C637 H677 0.951 . S
C638 C637 1.340 . S
C638 C639 1.439 . S
C638 H678 0.950 . S
C639 C638 1.439 . S
C639 N640 1.374 . S
C639 C673 1.395 . S
N640 C636 1.376 . S
N640 C639 1.374 . S
N640 Co641 2.008 . S
Co641 N640 2.008 . S
Co641 N642 1.995 . S
Co641 N647 2.008 . S
Co641 N652 1.995 . S
Co641 N657 2.282 . S
Co641 N663 2.282 . S
N642 Co641 1.995 . S
N642 C643 1.376 . S
N642 C646 1.383 . S
C643 N642 1.376 . S
C643 C644 1.446 . S
C643 C673 1.391 . S
C644 C643 1.446 . S
C644 C645 1.339 . S
C644 H679 0.949 . S
C645 C644 1.339 . S
C645 C646 1.439 . S
C645 H680 0.950 . S
C646 N642 1.383 . S
C646 C645 1.439 . S
C646 C675 1.392 . S
N647 Co641 2.008 . S
N647 C648 1.376 . S
N647 C651 1.374 . S
C648 N647 1.376 . S
C648 C649 1.443 . S
C648 C675 1.389 . S
C649 C648 1.443 . S
C649 C650 1.340 . S
C649 H681 0.951 . S
C650 C649 1.340 . S
C650 C651 1.439 . S
C650 H682 0.950 . S
C651 N647 1.374 . S
C651 C650 1.439 . S
C651 C676 1.395 . S
N652 Co641 1.995 . S
N652 C653 1.376 . S
N652 C656 1.383 . S
C653 N652 1.376 . S
C653 C654 1.446 . S
C653 C676 1.391 . S
C654 C653 1.446 . S
C654 C655 1.339 . S
C654 H683 0.949 . S
C655 C654 1.339 . S
C655 C656 1.439 . S
C655 H684 0.950 . S
C656 N652 1.383 . S
C656 C655 1.439 . S
C656 C674 1.392 . S
N657 Co641 2.282 . S
N657 C660 1.332 . S
N657 C662 1.332 . S
C658 C659 1.386 . S
C658 C661 1.388 . S
C659 C658 1.386 . S
C659 C660 1.382 . S
C659 H685 0.950 . S
C660 N657 1.332 . S
C660 C659 1.382 . S
C660 H671 0.952 . S
C661 C658 1.388 . S
C661 C662 1.382 . S
C661 H686 0.950 . S
C662 N657 1.332 . S
C662 C661 1.382 . S
C662 H672 0.948 . S
N663 Co641 2.282 . S
N663 C667 1.332 . S
N663 C668 1.332 . S
C664 C665 1.388 . S
C664 C668 1.382 . S
C664 H687 0.950 . S
C665 C664 1.388 . S
C665 C666 1.386 . S
C666 C665 1.386 . S
C666 C667 1.382 . S
C666 H688 0.950 . S
C667 N663 1.332 . S
C667 C666 1.382 . S
C667 H669 0.952 . S
C668 N663 1.332 . S
C668 C664 1.382 . S
C668 H670 0.948 . S
H669 C667 0.952 . S
H670 C668 0.948 . S
H671 C660 0.952 . S
H672 C662 0.948 . S
C673 C639 1.395 . S
C673 C643 1.391 . S
C674 C636 1.389 . S
C674 C656 1.392 . S
C675 C646 1.392 . S
C675 C648 1.389 . S
C676 C651 1.395 . S
C676 C653 1.391 . S
H677 C637 0.951 . S
H678 C638 0.950 . S
H679 C644 0.949 . S
H680 C645 0.950 . S
H681 C649 0.951 . S
H682 C650 0.950 . S
H683 C654 0.949 . S
H684 C655 0.950 . S
H685 C659 0.950 . S
H686 C661 0.950 . S
H687 C664 0.950 . S
H688 C666 0.950 . S
C689 C690 1.443 . S
C689 N693 1.376 . S
C689 C727 1.389 . S
C690 C689 1.443 . S
C690 C691 1.340 . S
C690 H730 0.951 . S
C691 C690 1.340 . S
C691 C692 1.439 . S
C691 H731 0.950 . S
C692 C691 1.439 . S
C692 N693 1.374 . S
C692 C726 1.395 . S
N693 C689 1.376 . S
N693 C692 1.374 . S
N693 Co694 2.008 . S
Co694 N693 2.008 . S
Co694 N695 1.995 . S
Co694 N700 2.008 . S
Co694 N705 1.995 . S
Co694 N710 2.282 . S
Co694 N716 2.282 . S
N695 Co694 1.995 . S
N695 C696 1.376 . S
N695 C699 1.383 . S
C696 N695 1.376 . S
C696 C697 1.446 . S
C696 C726 1.391 . S
C697 C696 1.446 . S
C697 C698 1.339 . S
C697 H732 0.949 . S
C698 C697 1.339 . S
C698 C699 1.439 . S
C698 H733 0.950 . S
C699 N695 1.383 . S
C699 C698 1.439 . S
C699 C728 1.392 . S
N700 Co694 2.008 . S
N700 C701 1.376 . S
N700 C704 1.374 . S
C701 N700 1.376 . S
C701 C702 1.443 . S
C701 C728 1.389 . S
C702 C701 1.443 . S
C702 C703 1.340 . S
C702 H734 0.951 . S
C703 C702 1.340 . S
C703 C704 1.439 . S
C703 H735 0.950 . S
C704 N700 1.374 . S
C704 C703 1.439 . S
C704 C729 1.395 . S
N705 Co694 1.995 . S
N705 C706 1.376 . S
N705 C709 1.383 . S
C706 N705 1.376 . S
C706 C707 1.446 . S
C706 C729 1.391 . S
C707 C706 1.446 . S
C707 C708 1.339 . S
C707 H736 0.949 . S
C708 C707 1.339 . S
C708 C709 1.439 . S
C708 H737 0.950 . S
C709 N705 1.383 . S
C709 C708 1.439 . S
C709 C727 1.392 . S
N710 Co694 2.282 . S
N710 C713 1.332 . S
N710 C715 1.332 . S
C711 C712 1.386 . S
C711 C714 1.388 . S
C712 C711 1.386 . S
C712 C713 1.382 . S
C712 H738 0.950 . S
C713 N710 1.332 . S
C713 C712 1.382 . S
C713 H724 0.952 . S
C714 C711 1.388 . S
C714 C715 1.382 . S
C714 H739 0.950 . S
C715 N710 1.332 . S
C715 C714 1.382 . S
C715 H725 0.948 . S
N716 Co694 2.282 . S
N716 C720 1.332 . S
N716 C721 1.332 . S
C717 C718 1.388 . S
C717 C721 1.382 . S
C717 H740 0.950 . S
C718 C717 1.388 . S
C718 C719 1.386 . S
C719 C718 1.386 . S
C719 C720 1.382 . S
C719 H741 0.950 . S
C720 N716 1.332 . S
C720 C719 1.382 . S
C720 H722 0.952 . S
C721 N716 1.332 . S
C721 C717 1.382 . S
C721 H723 0.948 . S
H722 C720 0.952 . S
H723 C721 0.948 . S
H724 C713 0.952 . S
H725 C715 0.948 . S
C726 C692 1.395 . S
C726 C696 1.391 . S
C727 C689 1.389 . S
C727 C709 1.392 . S
C728 C699 1.392 . S
C728 C701 1.389 . S
C729 C704 1.395 . S
C729 C706 1.391 . S
H730 C690 0.951 . S
H731 C691 0.950 . S
H732 C697 0.949 . S
H733 C698 0.950 . S
H734 C702 0.951 . S
H735 C703 0.950 . S
H736 C707 0.949 . S
H737 C708 0.950 . S
H738 C712 0.950 . S
H739 C714 0.950 . S
H740 C717 0.950 . S
H741 C719 0.950 . S
C742 C743 1.443 . S
C742 N746 1.376 . S
C742 C780 1.389 . S
C743 C742 1.443 . S
C743 C744 1.340 . S
C743 H783 0.951 . S
C744 C743 1.340 . S
C744 C745 1.439 . S
C744 H784 0.950 . S
C745 C744 1.439 . S
C745 N746 1.374 . S
C745 C779 1.395 . S
N746 C742 1.376 . S
N746 C745 1.374 . S
N746 Co747 2.008 . S
Co747 N746 2.008 . S
Co747 N748 1.995 . S
Co747 N753 2.008 . S
Co747 N758 1.995 . S
Co747 N763 2.282 . S
Co747 N769 2.282 . S
N748 Co747 1.995 . S
N748 C749 1.376 . S
N748 C752 1.383 . S
C749 N748 1.376 . S
C749 C750 1.446 . S
C749 C779 1.391 . S
C750 C749 1.446 . S
C750 C751 1.339 . S
C750 H785 0.949 . S
C751 C750 1.339 . S
C751 C752 1.439 . S
C751 H786 0.950 . S
C752 N748 1.383 . S
C752 C751 1.439 . S
C752 C781 1.392 . S
N753 Co747 2.008 . S
N753 C754 1.376 . S
N753 C757 1.374 . S
C754 N753 1.376 . S
C754 C755 1.443 . S
C754 C781 1.389 . S
C755 C754 1.443 . S
C755 C756 1.340 . S
C755 H787 0.951 . S
C756 C755 1.340 . S
C756 C757 1.439 . S
C756 H788 0.950 . S
C757 N753 1.374 . S
C757 C756 1.439 . S
C757 C782 1.395 . S
N758 Co747 1.995 . S
N758 C759 1.376 . S
N758 C762 1.383 . S
C759 N758 1.376 . S
C759 C760 1.446 . S
C759 C782 1.391 . S
C760 C759 1.446 . S
C760 C761 1.339 . S
C760 H789 0.949 . S
C761 C760 1.339 . S
C761 C762 1.439 . S
C761 H790 0.950 . S
C762 N758 1.383 . S
C762 C761 1.439 . S
C762 C780 1.392 . S
N763 Co747 2.282 . S
N763 C766 1.332 . S
N763 C768 1.332 . S
C764 C765 1.386 . S
C764 C767 1.388 . S
C765 C764 1.386 . S
C765 C766 1.382 . S
C765 H791 0.950 . S
C766 N763 1.332 . S
C766 C765 1.382 . S
C766 H777 0.952 . S
C767 C764 1.388 . S
C767 C768 1.382 . S
C767 H792 0.950 . S
C768 N763 1.332 . S
C768 C767 1.382 . S
C768 H778 0.948 . S
N769 Co747 2.282 . S
N769 C773 1.332 . S
N769 C774 1.332 . S
C770 C771 1.388 . S
C770 C774 1.382 . S
C770 H793 0.950 . S
C771 C770 1.388 . S
C771 C772 1.386 . S
C772 C771 1.386 . S
C772 C773 1.382 . S
C772 H794 0.950 . S
C773 N769 1.332 . S
C773 C772 1.382 . S
C773 H775 0.952 . S
C774 N769 1.332 . S
C774 C770 1.382 . S
C774 H776 0.948 . S
H775 C773 0.952 . S
H776 C774 0.948 . S
H777 C766 0.952 . S
H778 C768 0.948 . S
C779 C745 1.395 . S
C779 C749 1.391 . S
C780 C742 1.389 . S
C780 C762 1.392 . S
C781 C752 1.392 . S
C781 C754 1.389 . S
C782 C757 1.395 . S
C782 C759 1.391 . S
H783 C743 0.951 . S
H784 C744 0.950 . S
H785 C750 0.949 . S
H786 C751 0.950 . S
H787 C755 0.951 . S
H788 C756 0.950 . S
H789 C760 0.949 . S
H790 C761 0.950 . S
H791 C765 0.950 . S
H792 C767 0.950 . S
H793 C770 0.950 . S
H794 C772 0.950 . S
C795 C796 1.443 . S
C795 N799 1.376 . S
C795 C833 1.389 . S
C796 C795 1.443 . S
C796 C797 1.340 . S
C796 H836 0.951 . S
C797 C796 1.340 . S
C797 C798 1.439 . S
C797 H837 0.950 . S
C798 C797 1.439 . S
C798 N799 1.374 . S
C798 C832 1.395 . S
N799 C795 1.376 . S
N799 C798 1.374 . S
N799 Co800 2.008 . S
Co800 N799 2.008 . S
Co800 N801 1.995 . S
Co800 N806 2.008 . S
Co800 N811 1.995 . S
Co800 N816 2.282 . S
Co800 N822 2.282 . S
N801 Co800 1.995 . S
N801 C802 1.376 . S
N801 C805 1.383 . S
C802 N801 1.376 . S
C802 C803 1.446 . S
C802 C832 1.391 . S
C803 C802 1.446 . S
C803 C804 1.339 . S
C803 H838 0.949 . S
C804 C803 1.339 . S
C804 C805 1.439 . S
C804 H839 0.950 . S
C805 N801 1.383 . S
C805 C804 1.439 . S
C805 C834 1.392 . S
N806 Co800 2.008 . S
N806 C807 1.376 . S
N806 C810 1.374 . S
C807 N806 1.376 . S
C807 C808 1.443 . S
C807 C834 1.389 . S
C808 C807 1.443 . S
C808 C809 1.340 . S
C808 H840 0.951 . S
C809 C808 1.340 . S
C809 C810 1.439 . S
C809 H841 0.950 . S
C810 N806 1.374 . S
C810 C809 1.439 . S
C810 C835 1.395 . S
N811 Co800 1.995 . S
N811 C812 1.376 . S
N811 C815 1.383 . S
C812 N811 1.376 . S
C812 C813 1.446 . S
C812 C835 1.391 . S
C813 C812 1.446 . S
C813 C814 1.339 . S
C813 H842 0.949 . S
C814 C813 1.339 . S
C814 C815 1.439 . S
C814 H843 0.950 . S
C815 N811 1.383 . S
C815 C814 1.439 . S
C815 C833 1.392 . S
N816 Co800 2.282 . S
N816 C819 1.332 . S
N816 C821 1.332 . S
C817 C818 1.386 . S
C817 C820 1.388 . S
C818 C817 1.386 . S
C818 C819 1.382 . S
C818 H844 0.950 . S
C819 N816 1.332 . S
C819 C818 1.382 . S
C819 H830 0.952 . S
C820 C817 1.388 . S
C820 C821 1.382 . S
C820 H845 0.950 . S
C821 N816 1.332 . S
C821 C820 1.382 . S
C821 H831 0.948 . S
N822 Co800 2.282 . S
N822 C826 1.332 . S
N822 C827 1.332 . S
C823 C824 1.388 . S
C823 C827 1.382 . S
C823 H846 0.950 . S
C824 C823 1.388 . S
C824 C825 1.386 . S
C825 C824 1.386 . S
C825 C826 1.382 . S
C825 H847 0.950 . S
C826 N822 1.332 . S
C826 C825 1.382 . S
C826 H828 0.952 . S
C827 N822 1.332 . S
C827 C823 1.382 . S
C827 H829 0.948 . S
H828 C826 0.952 . S
H829 C827 0.948 . S
H830 C819 0.952 . S
H831 C821 0.948 . S
C832 C798 1.395 . S
C832 C802 1.391 . S
C833 C795 1.389 . S
C833 C815 1.392 . S
C834 C805 1.392 . S
C834 C807 1.389 . S
C835 C810 1.395 . S
C835 C812 1.391 . S
H836 C796 0.951 . S
H837 C797 0.950 . S
H838 C803 0.949 . S
H839 C804 0.950 . S
H840 C808 0.951 . S
H841 C809 0.950 . S
H842 C813 0.949 . S
H843 C814 0.950 . S
H844 C818 0.950 . S
H845 C820 0.950 . S
H846 C823 0.950 . S
H847 C825 0.950 . S
C848 C849 1.363 . S
C848 C854 1.379 1_455 S
C848 N856 1.356 . S
C849 C848 1.363 . S
C849 C855 1.363 . S
C850 C851 1.363 . S
C850 C855 1.379 1_655 S
C850 N857 1.356 . S
C851 C850 1.363 . S
C851 C854 1.363 . S
N852 C854 1.356 . S
N852 H864 0.984 . S
N852 H865 0.985 . S
N853 C855 1.356 . S
N853 H858 0.984 . S
N853 H859 0.985 . S
C854 C848 1.379 1_655 S
C854 C851 1.363 . S
C854 N852 1.356 . S
C855 C849 1.363 . S
C855 C850 1.379 1_455 S
C855 N853 1.356 . S
N856 C848 1.356 . S
N856 H862 0.984 . S
N856 H863 0.984 . S
N857 C850 1.356 . S
N857 H860 0.984 . S
N857 H861 0.985 . S
H858 N853 0.984 . S
H859 N853 0.985 . S
H860 N857 0.984 . S
H861 N857 0.985 . S
H862 N856 0.984 . S
H863 N856 0.984 . S
H864 N852 0.984 . S
H865 N852 0.985 . S
C866 C867 1.363 . S
C866 C872 1.379 1_565 S
C866 N874 1.356 . S
C867 C866 1.363 . S
C867 C873 1.363 . S
C868 C869 1.363 . S
C868 C873 1.379 1_545 S
C868 N875 1.356 . S
C869 C868 1.363 . S
C869 C872 1.363 . S
N870 C872 1.356 . S
N870 H882 0.984 . S
N870 H883 0.985 . S
N871 C873 1.356 . S
N871 H876 0.984 . S
N871 H877 0.985 . S
C872 C866 1.379 1_545 S
C872 C869 1.363 . S
C872 N870 1.356 . S
C873 C867 1.363 . S
C873 C868 1.379 1_565 S
C873 N871 1.356 . S
N874 C866 1.356 . S
N874 H880 0.984 . S
N874 H881 0.984 . S
N875 C868 1.356 . S
N875 H878 0.984 . S
N875 H879 0.985 . S
H876 N871 0.984 . S
H877 N871 0.985 . S
H878 N875 0.984 . S
H879 N875 0.985 . S
H880 N874 0.984 . S
H881 N874 0.984 . S
H882 N870 0.984 . S
H883 N870 0.985 . S
C884 C885 1.363 . S
C884 C890 1.379 1_455 S
C884 N892 1.356 . S
C885 C884 1.363 . S
C885 C891 1.363 . S
C886 C887 1.363 . S
C886 C891 1.379 1_655 S
C886 N893 1.356 . S
C887 C886 1.363 . S
C887 C890 1.363 . S
N888 C890 1.356 . S
N888 H900 0.984 . S
N888 H901 0.985 . S
N889 C891 1.356 . S
N889 H894 0.984 . S
N889 H895 0.985 . S
C890 C884 1.379 1_655 S
C890 C887 1.363 . S
C890 N888 1.356 . S
C891 C885 1.363 . S
C891 C886 1.379 1_455 S
C891 N889 1.356 . S
N892 C884 1.356 . S
N892 H898 0.984 . S
N892 H899 0.984 . S
N893 C886 1.356 . S
N893 H896 0.984 . S
N893 H897 0.985 . S
H894 N889 0.984 . S
H895 N889 0.985 . S
H896 N893 0.984 . S
H897 N893 0.985 . S
H898 N892 0.984 . S
H899 N892 0.984 . S
H900 N888 0.984 . S
H901 N888 0.985 . S
C902 C903 1.363 . S
C902 C908 1.379 1_565 S
C902 N910 1.356 . S
C903 C902 1.363 . S
C903 C909 1.363 . S
C904 C905 1.363 . S
C904 C909 1.379 1_545 S
C904 N911 1.356 . S
C905 C904 1.363 . S
C905 C908 1.363 . S
N906 C908 1.356 . S
N906 H918 0.984 . S
N906 H919 0.985 . S
N907 C909 1.356 . S
N907 H912 0.984 . S
N907 H913 0.985 . S
C908 C902 1.379 1_545 S
C908 C905 1.363 . S
C908 N906 1.356 . S
C909 C903 1.363 . S
C909 C904 1.379 1_565 S
C909 N907 1.356 . S
N910 C902 1.356 . S
N910 H916 0.984 . S
N910 H917 0.984 . S
N911 C904 1.356 . S
N911 H914 0.984 . S
N911 H915 0.985 . S
H912 N907 0.984 . S
H913 N907 0.985 . S
H914 N911 0.984 . S
H915 N911 0.985 . S
H916 N910 0.984 . S
H917 N910 0.984 . S
H918 N906 0.984 . S
H919 N906 0.985 . S
C920 C921 1.363 . S
C920 C926 1.379 1_655 S
C920 N928 1.356 . S
C921 C920 1.363 . S
C921 C927 1.363 . S
C922 C923 1.363 . S
C922 C927 1.379 1_455 S
C922 N929 1.356 . S
C923 C922 1.363 . S
C923 C926 1.363 . S
N924 C926 1.356 . S
N924 H936 0.984 . S
N924 H937 0.985 . S
N925 C927 1.356 . S
N925 H930 0.984 . S
N925 H931 0.985 . S
C926 C920 1.379 1_455 S
C926 C923 1.363 . S
C926 N924 1.356 . S
C927 C921 1.363 . S
C927 C922 1.379 1_655 S
C927 N925 1.356 . S
N928 C920 1.356 . S
N928 H934 0.984 . S
N928 H935 0.984 . S
N929 C922 1.356 . S
N929 H932 0.984 . S
N929 H933 0.985 . S
H930 N925 0.984 . S
H931 N925 0.985 . S
H932 N929 0.984 . S
H933 N929 0.985 . S
H934 N928 0.984 . S
H935 N928 0.984 . S
H936 N924 0.984 . S
H937 N924 0.985 . S
C938 C939 1.363 . S
C938 C944 1.379 1_545 S
C938 N946 1.356 . S
C939 C938 1.363 . S
C939 C945 1.363 . S
C940 C941 1.363 . S
C940 C945 1.379 1_565 S
C940 N947 1.356 . S
C941 C940 1.363 . S
C941 C944 1.363 . S
N942 C944 1.356 . S
N942 H954 0.984 . S
N942 H955 0.985 . S
N943 C945 1.356 . S
N943 H948 0.984 . S
N943 H949 0.985 . S
C944 C938 1.379 1_565 S
C944 C941 1.363 . S
C944 N942 1.356 . S
C945 C939 1.363 . S
C945 C940 1.379 1_545 S
C945 N943 1.356 . S
N946 C938 1.356 . S
N946 H952 0.984 . S
N946 H953 0.984 . S
N947 C940 1.356 . S
N947 H950 0.984 . S
N947 H951 0.985 . S
H948 N943 0.984 . S
H949 N943 0.985 . S
H950 N947 0.984 . S
H951 N947 0.985 . S
H952 N946 0.984 . S
H953 N946 0.984 . S
H954 N942 0.984 . S
H955 N942 0.985 . S
C956 C957 1.363 . S
C956 C962 1.379 1_655 S
C956 N964 1.356 . S
C957 C956 1.363 . S
C957 C963 1.363 . S
C958 C959 1.363 . S
C958 C963 1.379 1_455 S
C958 N965 1.356 . S
C959 C958 1.363 . S
C959 C962 1.363 . S
N960 C962 1.356 . S
N960 H972 0.984 . S
N960 H973 0.985 . S
N961 C963 1.356 . S
N961 H966 0.984 . S
N961 H967 0.985 . S
C962 C956 1.379 1_455 S
C962 C959 1.363 . S
C962 N960 1.356 . S
C963 C957 1.363 . S
C963 C958 1.379 1_655 S
C963 N961 1.356 . S
N964 C956 1.356 . S
N964 H970 0.984 . S
N964 H971 0.984 . S
N965 C958 1.356 . S
N965 H968 0.984 . S
N965 H969 0.985 . S
H966 N961 0.984 . S
H967 N961 0.985 . S
H968 N965 0.984 . S
H969 N965 0.985 . S
H970 N964 0.984 . S
H971 N964 0.984 . S
H972 N960 0.984 . S
H973 N960 0.985 . S
C974 C975 1.363 . S
C974 C980 1.379 1_545 S
C974 N982 1.356 . S
C975 C974 1.363 . S
C975 C981 1.363 . S
C976 C977 1.363 . S
C976 C981 1.379 1_565 S
C976 N983 1.356 . S
C977 C976 1.363 . S
C977 C980 1.363 . S
N978 C980 1.356 . S
N978 H990 0.984 . S
N978 H991 0.985 . S
N979 C981 1.356 . S
N979 H984 0.984 . S
N979 H985 0.985 . S
C980 C974 1.379 1_565 S
C980 C977 1.363 . S
C980 N978 1.356 . S
C981 C975 1.363 . S
C981 C976 1.379 1_545 S
C981 N979 1.356 . S
N982 C974 1.356 . S
N982 H988 0.984 . S
N982 H989 0.984 . S
N983 C976 1.356 . S
N983 H986 0.984 . S
N983 H987 0.985 . S
H984 N979 0.984 . S
H985 N979 0.985 . S
H986 N983 0.984 . S
H987 N983 0.985 . S
H988 N982 0.984 . S
H989 N982 0.984 . S
H990 N978 0.984 . S
H991 N978 0.985 . S
C992 C993 1.363 . S
C992 C998 1.379 . S
C992 N1000 1.356 . S
C993 C992 1.363 . S
C993 C999 1.363 . S
C994 C995 1.363 . S
C994 C999 1.379 . S
C994 N1001 1.356 . S
C995 C994 1.363 . S
C995 C998 1.363 . S
N996 C998 1.356 . S
N996 H1008 0.984 . S
N996 H1009 0.985 . S
N997 C999 1.356 . S
N997 H1002 0.984 . S
N997 H1003 0.985 . S
C998 C992 1.379 . S
C998 C995 1.363 . S
C998 N996 1.356 . S
C999 C993 1.363 . S
C999 C994 1.379 . S
C999 N997 1.356 . S
N1000 C992 1.356 . S
N1000 H1006 0.984 . S
N1000 H1007 0.984 . S
N1001 C994 1.356 . S
N1001 H1004 0.984 . S
N1001 H1005 0.985 . S
H1002 N997 0.984 . S
H1003 N997 0.985 . S
H1004 N1001 0.984 . S
H1005 N1001 0.985 . S
H1006 N1000 0.984 . S
H1007 N1000 0.984 . S
H1008 N996 0.984 . S
H1009 N996 0.985 . S
C1010 C1011 1.363 . S
C1010 C1016 1.379 . S
C1010 N1018 1.356 . S
C1011 C1010 1.363 . S
C1011 C1017 1.363 . S
C1012 C1013 1.363 . S
C1012 C1017 1.379 . S
C1012 N1019 1.356 . S
C1013 C1012 1.363 . S
C1013 C1016 1.363 . S
N1014 C1016 1.356 . S
N1014 H1026 0.984 . S
N1014 H1027 0.985 . S
N1015 C1017 1.356 . S
N1015 H1020 0.984 . S
N1015 H1021 0.985 . S
C1016 C1010 1.379 . S
C1016 C1013 1.363 . S
C1016 N1014 1.356 . S
C1017 C1011 1.363 . S
C1017 C1012 1.379 . S
C1017 N1015 1.356 . S
N1018 C1010 1.356 . S
N1018 H1024 0.984 . S
N1018 H1025 0.984 . S
N1019 C1012 1.356 . S
N1019 H1022 0.984 . S
N1019 H1023 0.985 . S
H1020 N1015 0.984 . S
H1021 N1015 0.985 . S
H1022 N1019 0.984 . S
H1023 N1019 0.985 . S
H1024 N1018 0.984 . S
H1025 N1018 0.984 . S
H1026 N1014 0.984 . S
H1027 N1014 0.985 . S
C1028 C1029 1.363 . S
C1028 C1034 1.379 . S
C1028 N1036 1.356 . S
C1029 C1028 1.363 . S
C1029 C1035 1.363 . S
C1030 C1031 1.363 . S
C1030 C1035 1.379 . S
C1030 N1037 1.356 . S
C1031 C1030 1.363 . S
C1031 C1034 1.363 . S
N1032 C1034 1.356 . S
N1032 H1044 0.984 . S
N1032 H1045 0.985 . S
N1033 C1035 1.356 . S
N1033 H1038 0.984 . S
N1033 H1039 0.985 . S
C1034 C1028 1.379 . S
C1034 C1031 1.363 . S
C1034 N1032 1.356 . S
C1035 C1029 1.363 . S
C1035 C1030 1.379 . S
C1035 N1033 1.356 . S
N1036 C1028 1.356 . S
N1036 H1042 0.984 . S
N1036 H1043 0.984 . S
N1037 C1030 1.356 . S
N1037 H1040 0.984 . S
N1037 H1041 0.985 . S
H1038 N1033 0.984 . S
H1039 N1033 0.985 . S
H1040 N1037 0.984 . S
H1041 N1037 0.985 . S
H1042 N1036 0.984 . S
H1043 N1036 0.984 . S
H1044 N1032 0.984 . S
H1045 N1032 0.985 . S
C1046 C1047 1.363 . S
C1046 C1052 1.379 . S
C1046 N1054 1.356 . S
C1047 C1046 1.363 . S
C1047 C1053 1.363 . S
C1048 C1049 1.363 . S
C1048 C1053 1.379 . S
C1048 N1055 1.356 . S
C1049 C1048 1.363 . S
C1049 C1052 1.363 . S
N1050 C1052 1.356 . S
N1050 H1062 0.984 . S
N1050 H1063 0.985 . S
N1051 C1053 1.356 . S
N1051 H1056 0.984 . S
N1051 H1057 0.985 . S
C1052 C1046 1.379 . S
C1052 C1049 1.363 . S
C1052 N1050 1.356 . S
C1053 C1047 1.363 . S
C1053 C1048 1.379 . S
C1053 N1051 1.356 . S
N1054 C1046 1.356 . S
N1054 H1060 0.984 . S
N1054 H1061 0.984 . S
N1055 C1048 1.356 . S
N1055 H1058 0.984 . S
N1055 H1059 0.985 . S
H1056 N1051 0.984 . S
H1057 N1051 0.985 . S
H1058 N1055 0.984 . S
H1059 N1055 0.985 . S
H1060 N1054 0.984 . S
H1061 N1054 0.984 . S
H1062 N1050 0.984 . S
H1063 N1050 0.985 . S
C1064 C1065 1.363 . S
C1064 C1070 1.379 . S
C1064 N1072 1.356 . S
C1065 C1064 1.363 . S
C1065 C1071 1.363 . S
C1066 C1067 1.363 . S
C1066 C1071 1.379 . S
C1066 N1073 1.356 . S
C1067 C1066 1.363 . S
C1067 C1070 1.363 . S
N1068 C1070 1.356 . S
N1068 H1080 0.984 . S
N1068 H1081 0.985 . S
N1069 C1071 1.356 . S
N1069 H1074 0.984 . S
N1069 H1075 0.985 . S
C1070 C1064 1.379 . S
C1070 C1067 1.363 . S
C1070 N1068 1.356 . S
C1071 C1065 1.363 . S
C1071 C1066 1.379 . S
C1071 N1069 1.356 . S
N1072 C1064 1.356 . S
N1072 H1078 0.984 . S
N1072 H1079 0.984 . S
N1073 C1066 1.356 . S
N1073 H1076 0.984 . S
N1073 H1077 0.985 . S
H1074 N1069 0.984 . S
H1075 N1069 0.985 . S
H1076 N1073 0.984 . S
H1077 N1073 0.985 . S
H1078 N1072 0.984 . S
H1079 N1072 0.984 . S
H1080 N1068 0.984 . S
H1081 N1068 0.985 . S
C1082 C1083 1.363 . S
C1082 C1088 1.379 . S
C1082 N1090 1.356 . S
C1083 C1082 1.363 . S
C1083 C1089 1.363 . S
C1084 C1085 1.363 . S
C1084 C1089 1.379 . S
C1084 N1091 1.356 . S
C1085 C1084 1.363 . S
C1085 C1088 1.363 . S
N1086 C1088 1.356 . S
N1086 H1098 0.984 . S
N1086 H1099 0.985 . S
N1087 C1089 1.356 . S
N1087 H1092 0.984 . S
N1087 H1093 0.985 . S
C1088 C1082 1.379 . S
C1088 C1085 1.363 . S
C1088 N1086 1.356 . S
C1089 C1083 1.363 . S
C1089 C1084 1.379 . S
C1089 N1087 1.356 . S
N1090 C1082 1.356 . S
N1090 H1096 0.984 . S
N1090 H1097 0.984 . S
N1091 C1084 1.356 . S
N1091 H1094 0.984 . S
N1091 H1095 0.985 . S
H1092 N1087 0.984 . S
H1093 N1087 0.985 . S
H1094 N1091 0.984 . S
H1095 N1091 0.985 . S
H1096 N1090 0.984 . S
H1097 N1090 0.984 . S
H1098 N1086 0.984 . S
H1099 N1086 0.985 . S
C1100 C1101 1.363 . S
C1100 C1106 1.379 . S
C1100 N1108 1.356 . S
C1101 C1100 1.363 . S
C1101 C1107 1.363 . S
C1102 C1103 1.363 . S
C1102 C1107 1.379 . S
C1102 N1109 1.356 . S
C1103 C1102 1.363 . S
C1103 C1106 1.363 . S
N1104 C1106 1.356 . S
N1104 H1116 0.984 . S
N1104 H1117 0.985 . S
N1105 C1107 1.356 . S
N1105 H1110 0.984 . S
N1105 H1111 0.985 . S
C1106 C1100 1.379 . S
C1106 C1103 1.363 . S
C1106 N1104 1.356 . S
C1107 C1101 1.363 . S
C1107 C1102 1.379 . S
C1107 N1105 1.356 . S
N1108 C1100 1.356 . S
N1108 H1114 0.984 . S
N1108 H1115 0.984 . S
N1109 C1102 1.356 . S
N1109 H1112 0.984 . S
N1109 H1113 0.985 . S
H1110 N1105 0.984 . S
H1111 N1105 0.985 . S
H1112 N1109 0.984 . S
H1113 N1109 0.985 . S
H1114 N1108 0.984 . S
H1115 N1108 0.984 . S
H1116 N1104 0.984 . S
H1117 N1104 0.985 . S
C1118 C1119 1.363 . S
C1118 C1124 1.379 . S
C1118 N1126 1.356 . S
C1119 C1118 1.363 . S
C1119 C1125 1.363 . S
C1120 C1121 1.363 . S
C1120 C1125 1.379 . S
C1120 N1127 1.356 . S
C1121 C1120 1.363 . S
C1121 C1124 1.363 . S
N1122 C1124 1.356 . S
N1122 H1134 0.984 . S
N1122 H1135 0.985 . S
N1123 C1125 1.356 . S
N1123 H1128 0.984 . S
N1123 H1129 0.985 . S
C1124 C1118 1.379 . S
C1124 C1121 1.363 . S
C1124 N1122 1.356 . S
C1125 C1119 1.363 . S
C1125 C1120 1.379 . S
C1125 N1123 1.356 . S
N1126 C1118 1.356 . S
N1126 H1132 0.984 . S
N1126 H1133 0.984 . S
N1127 C1120 1.356 . S
N1127 H1130 0.984 . S
N1127 H1131 0.985 . S
H1128 N1123 0.984 . S
H1129 N1123 0.985 . S
H1130 N1127 0.984 . S
H1131 N1127 0.985 . S
H1132 N1126 0.984 . S
H1133 N1126 0.984 . S
H1134 N1122 0.984 . S
H1135 N1122 0.985 . S
C1136 C1137 1.363 . S
C1136 C1142 1.379 1_556 S
C1136 N1144 1.356 . S
C1137 C1136 1.363 . S
C1137 C1143 1.363 . S
C1138 C1139 1.363 . S
C1138 C1143 1.379 1_554 S
C1138 N1145 1.356 . S
C1139 C1138 1.363 . S
C1139 C1142 1.363 . S
N1140 C1142 1.356 . S
N1140 H1152 0.984 . S
N1140 H1153 0.985 . S
N1141 C1143 1.356 . S
N1141 H1146 0.984 . S
N1141 H1147 0.985 . S
C1142 C1136 1.379 1_554 S
C1142 C1139 1.363 . S
C1142 N1140 1.356 . S
C1143 C1137 1.363 . S
C1143 C1138 1.379 1_556 S
C1143 N1141 1.356 . S
N1144 C1136 1.356 . S
N1144 H1150 0.984 . S
N1144 H1151 0.984 . S
N1145 C1138 1.356 . S
N1145 H1148 0.984 . S
N1145 H1149 0.985 . S
H1146 N1141 0.984 . S
H1147 N1141 0.985 . S
H1148 N1145 0.984 . S
H1149 N1145 0.985 . S
H1150 N1144 0.984 . S
H1151 N1144 0.984 . S
H1152 N1140 0.984 . S
H1153 N1140 0.985 . S
C1154 C1155 1.363 . S
C1154 C1160 1.379 . S
C1154 N1162 1.356 . S
C1155 C1154 1.363 . S
C1155 C1161 1.363 . S
C1156 C1157 1.363 . S
C1156 C1161 1.379 . S
C1156 N1163 1.356 . S
C1157 C1156 1.363 . S
C1157 C1160 1.363 . S
N1158 C1160 1.356 . S
N1158 H1170 0.984 . S
N1158 H1171 0.985 . S
N1159 C1161 1.356 . S
N1159 H1164 0.984 . S
N1159 H1165 0.985 . S
C1160 C1154 1.379 . S
C1160 C1157 1.363 . S
C1160 N1158 1.356 . S
C1161 C1155 1.363 . S
C1161 C1156 1.379 . S
C1161 N1159 1.356 . S
N1162 C1154 1.356 . S
N1162 H1168 0.984 . S
N1162 H1169 0.984 . S
N1163 C1156 1.356 . S
N1163 H1166 0.984 . S
N1163 H1167 0.985 . S
H1164 N1159 0.984 . S
H1165 N1159 0.985 . S
H1166 N1163 0.984 . S
H1167 N1163 0.985 . S
H1168 N1162 0.984 . S
H1169 N1162 0.984 . S
H1170 N1158 0.984 . S
H1171 N1158 0.985 . S
C1172 C1173 1.363 . S
C1172 C1178 1.379 1_554 S
C1172 N1180 1.356 . S
C1173 C1172 1.363 . S
C1173 C1179 1.363 . S
C1174 C1175 1.363 . S
C1174 C1179 1.379 1_556 S
C1174 N1181 1.356 . S
C1175 C1174 1.363 . S
C1175 C1178 1.363 . S
N1176 C1178 1.356 . S
N1176 H1188 0.984 . S
N1176 H1189 0.985 . S
N1177 C1179 1.356 . S
N1177 H1182 0.984 . S
N1177 H1183 0.985 . S
C1178 C1172 1.379 1_556 S
C1178 C1175 1.363 . S
C1178 N1176 1.356 . S
C1179 C1173 1.363 . S
C1179 C1174 1.379 1_554 S
C1179 N1177 1.356 . S
N1180 C1172 1.356 . S
N1180 H1186 0.984 . S
N1180 H1187 0.984 . S
N1181 C1174 1.356 . S
N1181 H1184 0.984 . S
N1181 H1185 0.985 . S
H1182 N1177 0.984 . S
H1183 N1177 0.985 . S
H1184 N1181 0.984 . S
H1185 N1181 0.985 . S
H1186 N1180 0.984 . S
H1187 N1180 0.984 . S
H1188 N1176 0.984 . S
H1189 N1176 0.985 . S
C1190 C1191 1.363 . S
C1190 C1196 1.379 . S
C1190 N1198 1.356 . S
C1191 C1190 1.363 . S
C1191 C1197 1.363 . S
C1192 C1193 1.363 . S
C1192 C1197 1.379 . S
C1192 N1199 1.356 . S
C1193 C1192 1.363 . S
C1193 C1196 1.363 . S
N1194 C1196 1.356 . S
N1194 H1206 0.984 . S
N1194 H1207 0.985 . S
N1195 C1197 1.356 . S
N1195 H1200 0.984 . S
N1195 H1201 0.985 . S
C1196 C1190 1.379 . S
C1196 C1193 1.363 . S
C1196 N1194 1.356 . S
C1197 C1191 1.363 . S
C1197 C1192 1.379 . S
C1197 N1195 1.356 . S
N1198 C1190 1.356 . S
N1198 H1204 0.984 . S
N1198 H1205 0.984 . S
N1199 C1192 1.356 . S
N1199 H1202 0.984 . S
N1199 H1203 0.985 . S
H1200 N1195 0.984 . S
H1201 N1195 0.985 . S
H1202 N1199 0.984 . S
H1203 N1199 0.985 . S
H1204 N1198 0.984 . S
H1205 N1198 0.984 . S
H1206 N1194 0.984 . S
H1207 N1194 0.985 . S
C1208 C1209 1.363 . S
C1208 C1214 1.379 . S
C1208 N1216 1.356 . S
C1209 C1208 1.363 . S
C1209 C1215 1.363 . S
C1210 C1211 1.363 . S
C1210 C1215 1.379 . S
C1210 N1217 1.356 . S
C1211 C1210 1.363 . S
C1211 C1214 1.363 . S
N1212 C1214 1.356 . S
N1212 H1224 0.984 . S
N1212 H1225 0.985 . S
N1213 C1215 1.356 . S
N1213 H1218 0.984 . S
N1213 H1219 0.985 . S
C1214 C1208 1.379 . S
C1214 C1211 1.363 . S
C1214 N1212 1.356 . S
C1215 C1209 1.363 . S
C1215 C1210 1.379 . S
C1215 N1213 1.356 . S
N1216 C1208 1.356 . S
N1216 H1222 0.984 . S
N1216 H1223 0.984 . S
N1217 C1210 1.356 . S
N1217 H1220 0.984 . S
N1217 H1221 0.985 . S
H1218 N1213 0.984 . S
H1219 N1213 0.985 . S
H1220 N1217 0.984 . S
H1221 N1217 0.985 . S
H1222 N1216 0.984 . S
H1223 N1216 0.984 . S
H1224 N1212 0.984 . S
H1225 N1212 0.985 . S
C1226 C1227 1.363 . S
C1226 C1232 1.379 1_556 S
C1226 N1234 1.356 . S
C1227 C1226 1.363 . S
C1227 C1233 1.363 . S
C1228 C1229 1.363 . S
C1228 C1233 1.379 1_554 S
C1228 N1235 1.356 . S
C1229 C1228 1.363 . S
C1229 C1232 1.363 . S
N1230 C1232 1.356 . S
N1230 H1242 0.984 . S
N1230 H1243 0.985 . S
N1231 C1233 1.356 . S
N1231 H1236 0.984 . S
N1231 H1237 0.985 . S
C1232 C1226 1.379 1_554 S
C1232 C1229 1.363 . S
C1232 N1230 1.356 . S
C1233 C1227 1.363 . S
C1233 C1228 1.379 1_556 S
C1233 N1231 1.356 . S
N1234 C1226 1.356 . S
N1234 H1240 0.984 . S
N1234 H1241 0.984 . S
N1235 C1228 1.356 . S
N1235 H1238 0.984 . S
N1235 H1239 0.985 . S
H1236 N1231 0.984 . S
H1237 N1231 0.985 . S
H1238 N1235 0.984 . S
H1239 N1235 0.985 . S
H1240 N1234 0.984 . S
H1241 N1234 0.984 . S
H1242 N1230 0.984 . S
H1243 N1230 0.985 . S
C1244 C1245 1.363 . S
C1244 C1250 1.379 . S
C1244 N1252 1.356 . S
C1245 C1244 1.363 . S
C1245 C1251 1.363 . S
C1246 C1247 1.363 . S
C1246 C1251 1.379 . S
C1246 N1253 1.356 . S
C1247 C1246 1.363 . S
C1247 C1250 1.363 . S
N1248 C1250 1.356 . S
N1248 H1260 0.984 . S
N1248 H1261 0.985 . S
N1249 C1251 1.356 . S
N1249 H1254 0.984 . S
N1249 H1255 0.985 . S
C1250 C1244 1.379 . S
C1250 C1247 1.363 . S
C1250 N1248 1.356 . S
C1251 C1245 1.363 . S
C1251 C1246 1.379 . S
C1251 N1249 1.356 . S
N1252 C1244 1.356 . S
N1252 H1258 0.984 . S
N1252 H1259 0.984 . S
N1253 C1246 1.356 . S
N1253 H1256 0.984 . S
N1253 H1257 0.985 . S
H1254 N1249 0.984 . S
H1255 N1249 0.985 . S
H1256 N1253 0.984 . S
H1257 N1253 0.985 . S
H1258 N1252 0.984 . S
H1259 N1252 0.984 . S
H1260 N1248 0.984 . S
H1261 N1248 0.985 . S
C1262 C1263 1.363 . S
C1262 C1268 1.379 1_554 S
C1262 N1270 1.356 . S
C1263 C1262 1.363 . S
C1263 C1269 1.363 . S
C1264 C1265 1.363 . S
C1264 C1269 1.379 1_556 S
C1264 N1271 1.356 . S
C1265 C1264 1.363 . S
C1265 C1268 1.363 . S
N1266 C1268 1.356 . S
N1266 H1278 0.984 . S
N1266 H1279 0.985 . S
N1267 C1269 1.356 . S
N1267 H1272 0.984 . S
N1267 H1273 0.985 . S
C1268 C1262 1.379 1_556 S
C1268 C1265 1.363 . S
C1268 N1266 1.356 . S
C1269 C1263 1.363 . S
C1269 C1264 1.379 1_554 S
C1269 N1267 1.356 . S
N1270 C1262 1.356 . S
N1270 H1276 0.984 . S
N1270 H1277 0.984 . S
N1271 C1264 1.356 . S
N1271 H1274 0.984 . S
N1271 H1275 0.985 . S
H1272 N1267 0.984 . S
H1273 N1267 0.985 . S
H1274 N1271 0.984 . S
H1275 N1271 0.985 . S
H1276 N1270 0.984 . S
H1277 N1270 0.984 . S
H1278 N1266 0.984 . S
H1279 N1266 0.985 . S
C1280 C1281 1.363 . S
C1280 C1286 1.379 . S
C1280 N1288 1.356 . S
C1281 C1280 1.363 . S
C1281 C1287 1.363 . S
C1282 C1283 1.363 . S
C1282 C1287 1.379 . S
C1282 N1289 1.356 . S
C1283 C1282 1.363 . S
C1283 C1286 1.363 . S
N1284 C1286 1.356 . S
N1284 H1296 0.984 . S
N1284 H1297 0.985 . S
N1285 C1287 1.356 . S
N1285 H1290 0.984 . S
N1285 H1291 0.985 . S
C1286 C1280 1.379 . S
C1286 C1283 1.363 . S
C1286 N1284 1.356 . S
C1287 C1281 1.363 . S
C1287 C1282 1.379 . S
C1287 N1285 1.356 . S
N1288 C1280 1.356 . S
N1288 H1294 0.984 . S
N1288 H1295 0.984 . S
N1289 C1282 1.356 . S
N1289 H1292 0.984 . S
N1289 H1293 0.985 . S
H1290 N1285 0.984 . S
H1291 N1285 0.985 . S
H1292 N1289 0.984 . S
H1293 N1289 0.985 . S
H1294 N1288 0.984 . S
H1295 N1288 0.984 . S
H1296 N1284 0.984 . S
H1297 N1284 0.985 . S
C1298 C1299 1.363 . S
C1298 C1304 1.379 . S
C1298 N1306 1.356 . S
C1299 C1298 1.363 . S
C1299 C1305 1.363 . S
C1300 C1301 1.363 . S
C1300 C1305 1.379 . S
C1300 N1307 1.356 . S
C1301 C1300 1.363 . S
C1301 C1304 1.363 . S
N1302 C1304 1.356 . S
N1302 H1314 0.984 . S
N1302 H1315 0.985 . S
N1303 C1305 1.356 . S
N1303 H1308 0.984 . S
N1303 H1309 0.985 . S
C1304 C1298 1.379 . S
C1304 C1301 1.363 . S
C1304 N1302 1.356 . S
C1305 C1299 1.363 . S
C1305 C1300 1.379 . S
C1305 N1303 1.356 . S
N1306 C1298 1.356 . S
N1306 H1312 0.984 . S
N1306 H1313 0.984 . S
N1307 C1300 1.356 . S
N1307 H1310 0.984 . S
N1307 H1311 0.985 . S
H1308 N1303 0.984 . S
H1309 N1303 0.985 . S
H1310 N1307 0.984 . S
H1311 N1307 0.985 . S
H1312 N1306 0.984 . S
H1313 N1306 0.984 . S
H1314 N1302 0.984 . S
H1315 N1302 0.985 . S
C1316 C1317 1.363 . S
C1316 C1322 1.379 . S
C1316 N1324 1.356 . S
C1317 C1316 1.363 . S
C1317 C1323 1.363 . S
C1318 C1319 1.363 . S
C1318 C1323 1.379 . S
C1318 N1325 1.356 . S
C1319 C1318 1.363 . S
C1319 C1322 1.363 . S
N1320 C1322 1.356 . S
N1320 H1332 0.984 . S
N1320 H1333 0.985 . S
N1321 C1323 1.356 . S
N1321 H1326 0.984 . S
N1321 H1327 0.985 . S
C1322 C1316 1.379 . S
C1322 C1319 1.363 . S
C1322 N1320 1.356 . S
C1323 C1317 1.363 . S
C1323 C1318 1.379 . S
C1323 N1321 1.356 . S
N1324 C1316 1.356 . S
N1324 H1330 0.984 . S
N1324 H1331 0.984 . S
N1325 C1318 1.356 . S
N1325 H1328 0.984 . S
N1325 H1329 0.985 . S
H1326 N1321 0.984 . S
H1327 N1321 0.985 . S
H1328 N1325 0.984 . S
H1329 N1325 0.985 . S
H1330 N1324 0.984 . S
H1331 N1324 0.984 . S
H1332 N1320 0.984 . S
H1333 N1320 0.985 . S
C1334 C1335 1.363 . S
C1334 C1340 1.379 . S
C1334 N1342 1.356 . S
C1335 C1334 1.363 . S
C1335 C1341 1.363 . S
C1336 C1337 1.363 . S
C1336 C1341 1.379 . S
C1336 N1343 1.356 . S
C1337 C1336 1.363 . S
C1337 C1340 1.363 . S
N1338 C1340 1.356 . S
N1338 H1350 0.984 . S
N1338 H1351 0.985 . S
N1339 C1341 1.356 . S
N1339 H1344 0.984 . S
N1339 H1345 0.985 . S
C1340 C1334 1.379 . S
C1340 C1337 1.363 . S
C1340 N1338 1.356 . S
C1341 C1335 1.363 . S
C1341 C1336 1.379 . S
C1341 N1339 1.356 . S
N1342 C1334 1.356 . S
N1342 H1348 0.984 . S
N1342 H1349 0.984 . S
N1343 C1336 1.356 . S
N1343 H1346 0.984 . S
N1343 H1347 0.985 . S
H1344 N1339 0.984 . S
H1345 N1339 0.985 . S
H1346 N1343 0.984 . S
H1347 N1343 0.985 . S
H1348 N1342 0.984 . S
H1349 N1342 0.984 . S
H1350 N1338 0.984 . S
H1351 N1338 0.985 . S
C1352 C1353 1.363 . S
C1352 C1358 1.379 . S
C1352 N1360 1.356 . S
C1353 C1352 1.363 . S
C1353 C1359 1.363 . S
C1354 C1355 1.363 . S
C1354 C1359 1.379 . S
C1354 N1361 1.356 . S
C1355 C1354 1.363 . S
C1355 C1358 1.363 . S
N1356 C1358 1.356 . S
N1356 H1368 0.984 . S
N1356 H1369 0.985 . S
N1357 C1359 1.356 . S
N1357 H1362 0.984 . S
N1357 H1363 0.985 . S
C1358 C1352 1.379 . S
C1358 C1355 1.363 . S
C1358 N1356 1.356 . S
C1359 C1353 1.363 . S
C1359 C1354 1.379 . S
C1359 N1357 1.356 . S
N1360 C1352 1.356 . S
N1360 H1366 0.984 . S
N1360 H1367 0.984 . S
N1361 C1354 1.356 . S
N1361 H1364 0.984 . S
N1361 H1365 0.985 . S
H1362 N1357 0.984 . S
H1363 N1357 0.985 . S
H1364 N1361 0.984 . S
H1365 N1361 0.985 . S
H1366 N1360 0.984 . S
H1367 N1360 0.984 . S
H1368 N1356 0.984 . S
H1369 N1356 0.985 . S
C1370 C1371 1.363 . S
C1370 C1376 1.379 . S
C1370 N1378 1.356 . S
C1371 C1370 1.363 . S
C1371 C1377 1.363 . S
C1372 C1373 1.363 . S
C1372 C1377 1.379 . S
C1372 N1379 1.356 . S
C1373 C1372 1.363 . S
C1373 C1376 1.363 . S
N1374 C1376 1.356 . S
N1374 H1386 0.984 . S
N1374 H1387 0.985 . S
N1375 C1377 1.356 . S
N1375 H1380 0.984 . S
N1375 H1381 0.985 . S
C1376 C1370 1.379 . S
C1376 C1373 1.363 . S
C1376 N1374 1.356 . S
C1377 C1371 1.363 . S
C1377 C1372 1.379 . S
C1377 N1375 1.356 . S
N1378 C1370 1.356 . S
N1378 H1384 0.984 . S
N1378 H1385 0.984 . S
N1379 C1372 1.356 . S
N1379 H1382 0.984 . S
N1379 H1383 0.985 . S
H1380 N1375 0.984 . S
H1381 N1375 0.985 . S
H1382 N1379 0.984 . S
H1383 N1379 0.985 . S
H1384 N1378 0.984 . S
H1385 N1378 0.984 . S
H1386 N1374 0.984 . S
H1387 N1374 0.985 . S
C1388 C1389 1.363 . S
C1388 C1394 1.379 . S
C1388 N1396 1.356 . S
C1389 C1388 1.363 . S
C1389 C1395 1.363 . S
C1390 C1391 1.363 . S
C1390 C1395 1.379 . S
C1390 N1397 1.356 . S
C1391 C1390 1.363 . S
C1391 C1394 1.363 . S
N1392 C1394 1.356 . S
N1392 H1404 0.984 . S
N1392 H1405 0.985 . S
N1393 C1395 1.356 . S
N1393 H1398 0.984 . S
N1393 H1399 0.985 . S
C1394 C1388 1.379 . S
C1394 C1391 1.363 . S
C1394 N1392 1.356 . S
C1395 C1389 1.363 . S
C1395 C1390 1.379 . S
C1395 N1393 1.356 . S
N1396 C1388 1.356 . S
N1396 H1402 0.984 . S
N1396 H1403 0.984 . S
N1397 C1390 1.356 . S
N1397 H1400 0.984 . S
N1397 H1401 0.985 . S
H1398 N1393 0.984 . S
H1399 N1393 0.985 . S
H1400 N1397 0.984 . S
H1401 N1397 0.985 . S
H1402 N1396 0.984 . S
H1403 N1396 0.984 . S
H1404 N1392 0.984 . S
H1405 N1392 0.985 . S
C1406 C1407 1.363 . S
C1406 C1412 1.379 . S
C1406 N1414 1.356 . S
C1407 C1406 1.363 . S
C1407 C1413 1.363 . S
C1408 C1409 1.363 . S
C1408 C1413 1.379 . S
C1408 N1415 1.356 . S
C1409 C1408 1.363 . S
C1409 C1412 1.363 . S
N1410 C1412 1.356 . S
N1410 H1422 0.984 . S
N1410 H1423 0.985 . S
N1411 C1413 1.356 . S
N1411 H1416 0.984 . S
N1411 H1417 0.985 . S
C1412 C1406 1.379 . S
C1412 C1409 1.363 . S
C1412 N1410 1.356 . S
C1413 C1407 1.363 . S
C1413 C1408 1.379 . S
C1413 N1411 1.356 . S
N1414 C1406 1.356 . S
N1414 H1420 0.984 . S
N1414 H1421 0.984 . S
N1415 C1408 1.356 . S
N1415 H1418 0.984 . S
N1415 H1419 0.985 . S
H1416 N1411 0.984 . S
H1417 N1411 0.985 . S
H1418 N1415 0.984 . S
H1419 N1415 0.985 . S
H1420 N1414 0.984 . S
H1421 N1414 0.984 . S
H1422 N1410 0.984 . S
H1423 N1410 0.985 . S
C849 C29 1.844 . S
C851 C135 1.844 . S
C867 C188 1.844 . S
C869 C82 1.844 . S
C885 C241 1.844 . S
C887 C347 1.844 . S
C903 C400 1.844 . S
C905 C294 1.844 . S
C921 C453 1.835 . S
C923 C559 1.835 . S
C939 C612 1.835 . S
C941 C506 1.835 . S
C957 C665 1.835 . S
C959 C771 1.835 . S
C975 C824 1.835 . S
C977 C718 1.835 . S
C993 C250 1.895 . S
C995 C38 1.895 . S
C1011 C91 1.895 . S
C1013 C303 1.895 . S
C1029 C144 1.895 . S
C1031 C356 1.895 . S
C1047 C409 1.895 . S
C1049 C197 1.895 . S
C1065 C462 1.884 . S
C1067 C674 1.884 . S
C1083 C515 1.884 . S
C1085 C727 1.884 . S
C1101 C568 1.884 . S
C1103 C780 1.884 . S
C1119 C621 1.884 . S
C1121 C833 1.884 . S
C1137 C569 1.803 . S
C1139 C39 1.799 . S
C1155 C622 1.803 . S
C1157 C92 1.799 . S
C1173 C145 1.799 . S
C1175 C463 1.803 . S
C1191 C198 1.799 . S
C1193 C516 1.803 . S
C1209 C251 1.799 . S
C1211 C781 1.803 . S
C1227 C304 1.799 . S
C1229 C834 1.803 . S
C1245 C357 1.799 . S
C1247 C675 1.803 . S
C1263 C728 1.803 . S
C1265 C410 1.799 . S
C1281 C22 1.654 . S
C1283 C817 1.656 . S
C1299 C658 1.656 . S
C1301 C75 1.654 . S
C1317 C128 1.654 . S
C1319 C711 1.656 . S
C1335 C764 1.656 . S
C1337 C181 1.654 . S
C1353 C499 1.656 . S
C1355 C234 1.654 . S
C1371 C287 1.654 . S
C1373 C552 1.656 . S
C1389 C605 1.656 . S
C1391 C340 1.654 . S
C1407 C446 1.656 . S
C1409 C393 1.654 . S
