# Generated by pormake.
# Topology sml, (6)-cn, num edge types: 1
# Building blocks:
#     Node 0, Type 0, BuildingBlock: VOLQOD_clean_sbu_1, # of connection points: 6
#     Node 1, Type 0, BuildingBlock: VOLQOD_clean_sbu_1, # of connection points: 6
#     Node 2, Type 0, BuildingBlock: VOLQOD_clean_sbu_1, # of connection points: 6
#     Node 3, Type 0, BuildingBlock: VOLQOD_clean_sbu_1, # of connection points: 6
#     Node 4, Type 0, BuildingBlock: VOLQOD_clean_sbu_1, # of connection points: 6
#     Node 5, Type 0, BuildingBlock: VOLQOD_clean_sbu_1, # of connection points: 6
#     Edge 6, Type (0, 0), BuildingBlock: AJUNOK_clean_linker_0, # of connection points: 2
#     Edge 7, Type (0, 0), BuildingBlock: AJUNOK_clean_linker_0, # of connection points: 2
#     Edge 8, Type (0, 0), BuildingBlock: AJUNOK_clean_linker_0, # of connection points: 2
#     Edge 9, Type (0, 0), BuildingBlock: AJUNOK_clean_linker_0, # of connection points: 2
#     Edge 10, Type (0, 0), BuildingBlock: AJUNOK_clean_linker_0, # of connection points: 2
#     Edge 11, Type (0, 0), BuildingBlock: AJUNOK_clean_linker_0, # of connection points: 2
#     Edge 12, Type (0, 0), BuildingBlock: AJUNOK_clean_linker_0, # of connection points: 2
#     Edge 13, Type (0, 0), BuildingBlock: AJUNOK_clean_linker_0, # of connection points: 2
#     Edge 14, Type (0, 0), BuildingBlock: AJUNOK_clean_linker_0, # of connection points: 2
#     Edge 15, Type (0, 0), BuildingBlock: AJUNOK_clean_linker_0, # of connection points: 2
#     Edge 16, Type (0, 0), BuildingBlock: AJUNOK_clean_linker_0, # of connection points: 2
#     Edge 17, Type (0, 0), BuildingBlock: AJUNOK_clean_linker_0, # of connection points: 2
#     Edge 18, Type (0, 0), BuildingBlock: AJUNOK_clean_linker_0, # of connection points: 2
#     Edge 19, Type (0, 0), BuildingBlock: AJUNOK_clean_linker_0, # of connection points: 2
#     Edge 20, Type (0, 0), BuildingBlock: AJUNOK_clean_linker_0, # of connection points: 2
#     Edge 21, Type (0, 0), BuildingBlock: AJUNOK_clean_linker_0, # of connection points: 2
#     Edge 22, Type (0, 0), BuildingBlock: AJUNOK_clean_linker_0, # of connection points: 2
#     Edge 23, Type (0, 0), BuildingBlock: AJUNOK_clean_linker_0, # of connection points: 2
# Relax obj value: 0.292
# Max RMSD: 0.187
# Mean RMSD: 0.187
data_MOF--net-sml--node1-VOLQOD_clean_sbu_1--edge1-AJUNOK_clean_linker_0
_symmetry_space_group_name_H-M    P1
_symmetry_Int_Tables_number       1
_symmetry_cell_setting            triclinic
loop_
_symmetry_equiv_pos_as_xyz
'x, y, z'
_cell_length_a     33.289297
_cell_length_b     33.390427
_cell_length_c     12.364897
_cell_angle_alpha  90.674234
_cell_angle_beta   89.357399
_cell_angle_gamma 120.34463
loop_
_atom_site_label
_atom_site_type_symbol
_atom_site_fract_x
_atom_site_fract_y
_atom_site_fract_z
_atom_type_partial_charge
O0 O 0.11722 0.3798 0.92272 0.0
Zn1 Zn 0.17734 0.43363 0.86631 0.0
O2 O 0.22927 0.42549 0.91285 0.0
Zn3 Zn 0.27186 0.4769 0.00282 0.0
Zn4 Zn 0.20576 0.36588 -0.01466 0.0
Zn5 Zn 0.26691 0.42703 0.79518 0.0
O6 O 0.33624 0.5181 0.93964 0.0
O7 O 0.32746 0.48634 0.77779 0.0
O8 O 0.18172 0.49239 0.93386 0.0
O9 O 0.24672 0.51853 0.02687 0.0
O10 O 0.2705 0.45577 0.15207 0.0
O11 O 0.21657 0.38091 0.14225 0.0
O12 O 0.23272 0.32642 0.92331 0.0
O13 O 0.17431 0.43249 0.70099 0.0
O14 O 0.27712 0.37421 0.79397 0.0
O15 O 0.23257 0.41946 0.66592 0.0
C16 C 0.10558 0.3408 -0.03455 0.0
C17 C 0.35149 0.51881 0.84429 0.0
C18 C 0.24125 0.41783 0.19681 0.0
C19 C 0.21206 0.52193 -0.00108 0.0
C20 C 0.26102 0.33612 0.84388 0.0
C21 C 0.19837 0.42299 0.63573 0.0
O22 O 0.13559 0.32902 -0.01403 0.0
O23 O 0.76111 0.1291 0.28985 0.0
Zn24 Zn 0.76549 0.18759 0.23293 0.0
O25 O 0.81755 0.2404 0.30482 0.0
Zn26 Zn 0.79697 0.27189 0.39635 0.0
Zn27 Zn 0.85915 0.22285 0.36926 0.0
Zn28 Zn 0.84887 0.2861 0.198 0.0
O29 O 0.80476 0.33108 0.33187 0.0
O30 O 0.86645 0.35162 0.22989 0.0
O31 O 0.70332 0.18211 0.28229 0.0
O32 O 0.73007 0.2309 0.42242 0.0
O33 O 0.82699 0.28017 0.53715 0.0
O34 O 0.86978 0.24594 0.52487 0.0
O35 O 0.9176 0.24486 0.27098 0.0
O36 O 0.78016 0.19526 0.06908 0.0
O37 O 0.90344 0.2833 0.14542 0.0
O38 O 0.8038 0.26933 0.08223 0.0
C39 C 0.78565 0.12057 0.35375 0.0
C40 C 0.83634 0.36033 0.26922 0.0
C41 C 0.8529 0.26683 0.57949 0.0
C42 C 0.69653 0.19864 0.3701 0.0
C43 C 0.92781 0.26691 0.18118 0.0
C44 C 0.79487 0.23455 0.02422 0.0
O45 O 0.82465 0.15297 0.38866 0.0
O46 O 0.642 0.75447 0.63579 0.0
Zn47 Zn 0.59052 0.75944 0.56513 0.0
O48 O 0.59198 0.81547 0.62179 0.0
Zn49 Zn 0.53875 0.79768 0.71365 0.0
Zn50 Zn 0.65184 0.8559 0.69282 0.0
Zn51 Zn 0.58572 0.85131 0.51205 0.0
O52 O 0.49197 0.81468 0.65924 0.0
O53 O 0.52268 0.84502 0.5007 0.0
O54 O 0.5313 0.69967 0.60963 0.0
O55 O 0.50294 0.72927 0.72853 0.0
O56 O 0.56104 0.81811 0.86141 0.0
O57 O 0.63837 0.85987 0.84857 0.0
O58 O 0.69031 0.9198 0.61861 0.0
O59 O 0.60005 0.76452 0.40207 0.0
O60 O 0.63567 0.91709 0.51236 0.0
O61 O 0.59709 0.82907 0.37821 0.0
C62 C 0.67824 0.78165 0.68992 0.0
C63 C 0.48923 0.83058 0.56815 0.0
C64 C 0.60108 0.8396 0.90456 0.0
C65 C 0.50197 0.69446 0.68341 0.0
C66 C 0.67682 0.93865 0.54941 0.0
C67 C 0.60294 0.79677 0.34239 0.0
O68 O 0.68899 0.82341 0.7098 0.0
O69 O 0.88095 0.62592 -0.00892 0.0
Zn70 Zn 0.82085 0.57653 0.92709 0.0
O71 O 0.77117 0.58417 -0.01005 0.0
Zn72 Zn 0.73193 0.53169 0.07804 0.0
Zn73 Zn 0.79606 0.64471 0.05949 0.0
Zn74 Zn 0.73017 0.5836 0.88541 0.0
O75 O 0.67097 0.48411 0.00687 0.0
O76 O 0.67461 0.52152 0.85774 0.0
O77 O 0.81881 0.51742 -0.01954 0.0
O78 O 0.76473 0.4974 0.10751 0.0
O79 O 0.72744 0.55447 0.22322 0.0
O80 O 0.77646 0.63105 0.21378 0.0
O81 O 0.77653 0.68688 -0.01928 0.0
O82 O 0.82081 0.58323 0.7627 0.0
O83 O 0.71198 0.63085 0.90621 0.0
O84 O 0.7645 0.60059 0.75186 0.0
C85 C 0.89423 0.662 0.04987 0.0
C86 C 0.65473 0.48512 0.91465 0.0
C87 C 0.75202 0.59408 0.26787 0.0
C88 C 0.79684 0.49306 0.06275 0.0
C89 C 0.73937 0.67358 0.9263 0.0
C90 C 0.79748 0.59726 0.70974 0.0
O91 O 0.86613 0.67584 0.0765 0.0
O92 O 0.25116 0.87267 0.3234 0.0
Zn93 Zn 0.24535 0.8119 0.27416 0.0
O94 O 0.19057 0.76252 0.34229 0.0
Zn95 Zn 0.20606 0.72396 0.42198 0.0
Zn96 Zn 0.15266 0.78319 0.41376 0.0
Zn97 Zn 0.14923 0.72388 0.23579 0.0
O98 O 0.1955 0.6674 0.33387 0.0
O99 O 0.16198 0.67442 0.18686 0.0
O100 O 0.30472 0.81471 0.32991 0.0
O101 O 0.27392 0.75924 0.4533 0.0
O102 O 0.17644 0.71405 0.56768 0.0
O103 O 0.14655 0.76071 0.56424 0.0
O104 O 0.08993 0.76115 0.3361 0.0
O105 O 0.23618 0.80121 0.11108 0.0
O106 O 0.08315 0.69578 0.27629 0.0
O107 O 0.15882 0.76381 0.1132 0.0
C108 C 0.22786 0.8835 0.38804 0.0
C109 C 0.18001 0.6547 0.23798 0.0
C110 C 0.1583 0.73527 0.61543 0.0
C111 C 0.30921 0.79318 0.40939 0.0
C112 C 0.06579 0.72164 0.29013 0.0
C113 C 0.19719 0.78497 0.06272 0.0
O114 O 0.18917 0.85276 0.42825 0.0
O115 O 0.37798 0.25623 0.62409 0.0
Zn116 Zn 0.4332 0.25298 0.56919 0.0
O117 O 0.42752 0.19458 0.61844 0.0
Zn118 Zn 0.48102 0.20805 0.70543 0.0
Zn119 Zn 0.36828 0.15674 0.69477 0.0
Zn120 Zn 0.42899 0.1582 0.50109 0.0
O121 O 0.52393 0.18803 0.63724 0.0
O122 O 0.48805 0.15728 0.48313 0.0
O123 O 0.48921 0.30955 0.63614 0.0
O124 O 0.51949 0.27615 0.73343 0.0
O125 O 0.46047 0.18481 0.85373 0.0
O126 O 0.38492 0.16111 0.84961 0.0
O127 O 0.32907 0.08982 0.63424 0.0
O128 O 0.43392 0.25542 0.40466 0.0
O129 O 0.3762 0.09461 0.50089 0.0
O130 O 0.42247 0.18474 0.37077 0.0
C131 C 0.34024 0.22906 0.67376 0.0
C132 C 0.5225 0.16976 0.54522 0.0
C133 C 0.42239 0.17425 0.90152 0.0
C134 C 0.51924 0.31231 0.70358 0.0
C135 C 0.33847 0.0717 0.55333 0.0
C136 C 0.42593 0.22227 0.33985 0.0
O137 O 0.33005 0.18824 0.70022 0.0
C138 C 0.30972 0.28239 0.65084 0.0
C139 C 0.31132 0.24837 0.71276 0.0
C140 C 0.29144 0.30874 0.69343 0.0
C141 C 0.27439 0.30275 0.8006 0.0
H142 H 0.32433 0.28995 0.56981 0.0
H143 H 0.29206 0.33515 0.64216 0.0
S144 S 0.2679 0.21579 -0.00558 0.0
N145 N 0.29183 0.20776 0.88468 0.0
N146 N 0.25749 0.25788 -0.03459 0.0
C147 C 0.27333 0.26702 0.86178 0.0
C148 C 0.29183 0.23973 0.81773 0.0
C149 C 0.05069 0.2936 0.11346 0.0
C150 C 0.05776 0.31266 0.00905 0.0
C151 C 0.00765 0.27615 0.16718 0.0
C152 C 0.97015 0.2769 0.1179 0.0
H153 H 0.07949 0.29505 0.15693 0.0
H154 H 0.00465 0.2645 0.24982 0.0
S155 S 0.96847 0.31443 0.83641 0.0
N156 N 0.0223 0.32558 0.85319 0.0
N157 N 0.94112 0.29156 0.95129 0.0
C158 C 0.97579 0.29205 0.00956 0.0
C159 C 0.01968 0.31032 -0.04407 0.0
C160 C 0.72709 0.03607 0.3452 0.0
C161 C 0.76457 0.07303 0.39945 0.0
C162 C 0.70029 0.99281 0.394 0.0
C163 C 0.70951 0.98426 0.49967 0.0
H164 H 0.71726 0.04095 0.26531 0.0
H165 H 0.67135 0.96598 0.34859 0.0
S166 S 0.80579 0.0681 0.67457 0.0
N167 N 0.81137 0.09742 0.56325 0.0
N168 N 0.76077 0.0155 0.65455 0.0
C169 C 0.7484 0.01994 0.55304 0.0
C170 C 0.77593 0.06442 0.5031 0.0
C171 C 0.70056 0.72106 0.69992 0.0
C172 C 0.70333 0.76127 0.74432 0.0
C173 C 0.71417 0.6945 0.7589 0.0
C174 C 0.73118 0.70678 0.86524 0.0
H175 H 0.6859 0.70883 0.62029 0.0
H176 H 0.71012 0.66316 0.72145 0.0
S177 S 0.74853 0.81053 0.01708 0.0
N178 N 0.72695 0.81369 0.89984 0.0
N179 N 0.75305 0.76349 0.01025 0.0
C180 C 0.73694 0.74834 0.90877 0.0
C181 C 0.72286 0.77563 0.84845 0.0
C182 C 1.00155 0.66803 0.16777 0.0
C183 C 0.02127 0.70811 0.23377 0.0
C184 C 0.96231 0.65534 0.10494 0.0
C185 C 0.93991 0.68153 0.10564 0.0
H186 H 0.01671 0.64598 0.16318 0.0
H187 H 0.9488 0.62367 0.05761 0.0
S188 S 0.97738 0.79019 0.26263 0.0
N189 N 0.01586 0.77488 0.2939 0.0
N190 N 0.94078 0.75016 0.17748 0.0
C191 C 0.95908 0.72191 0.17083 0.0
C192 C 0.99987 0.73531 0.23442 0.0
C193 C 0.31201 0.01241 0.40616 0.0
C194 C 0.3053 0.0243 0.51208 0.0
C195 C 0.28501 0.96749 0.36498 0.0
C196 C 0.24967 0.9322 0.42725 0.0
H197 H 0.33923 0.03784 0.3544 0.0
H198 H 0.29288 0.9601 0.28446 0.0
S199 S 0.21509 0.94531 0.70655 0.0
N200 N 0.25861 0.99752 0.67622 0.0
N201 N 0.20736 0.91253 0.59875 0.0
C202 C 0.24069 0.94387 0.53139 0.0
C203 C 0.26857 0.99 0.57377 0.0
C204 C 0.18298 0.37818 0.46979 0.0
C205 C 0.19182 0.41987 0.51952 0.0
C206 C 0.19983 0.3779 0.36598 0.0
C207 C 0.22641 0.41944 0.3088 0.0
H208 H 0.16659 0.34616 0.51531 0.0
H209 H 0.1933 0.34512 0.33191 0.0
S210 S 0.25249 0.53685 0.3991 0.0
N211 N 0.2239 0.50263 0.50154 0.0
N212 N 0.25526 0.50282 0.305 0.0
C213 C 0.23234 0.46098 0.355 0.0
C214 C 0.21472 0.46093 0.4604 0.0
C215 C 0.81903 0.21134 0.85224 0.0
C216 C 0.81224 0.24377 0.91114 0.0
C217 C 0.838 0.22127 0.74732 0.0
C218 C 0.85077 0.26394 0.69806 0.0
H219 H 0.80907 0.17787 0.88662 0.0
H220 H 0.83963 0.19416 0.70195 0.0
S221 S 0.84446 0.36239 0.82018 0.0
N222 N 0.82294 0.32181 0.91357 0.0
N223 N 0.85905 0.34002 0.71804 0.0
C224 C 0.84676 0.29754 0.75818 0.0
C225 C 0.82714 0.2875 0.86395 0.0
C226 C 0.57042 0.77153 0.16352 0.0
C227 C 0.61001 0.7976 0.22659 0.0
C228 C 0.56754 0.78648 0.06067 0.0
C229 C 0.6044 0.82789 0.01714 0.0
H230 H 0.53994 0.74173 0.19744 0.0
H231 H 0.53579 0.76545 0.01567 0.0
S232 S 0.71757 0.90568 0.14881 0.0
N233 N 0.68797 0.86448 0.23824 0.0
N234 N 0.68335 0.89232 0.04256 0.0
C235 C 0.64549 0.8525 0.07717 0.0
C236 C 0.6482 0.83724 0.18224 0.0
C237 C 0.79698 0.63854 0.54802 0.0
C238 C 0.80037 0.60176 0.5926 0.0
C239 C 0.78005 0.63542 0.44361 0.0
C240 C 0.76521 0.59507 0.38122 0.0
H241 H 0.80457 0.66866 0.59711 0.0
H242 H 0.7775 0.66427 0.41253 0.0
S243 S 0.77319 0.49173 0.4568 0.0
N244 N 0.79202 0.52601 0.5642 0.0
N245 N 0.76039 0.51969 0.3669 0.0
C246 C 0.77115 0.55916 0.42279 0.0
C247 C 0.78903 0.56278 0.52858 0.0
C248 C 0.15051 0.77196 0.78419 0.0
C249 C 0.16411 0.74255 0.73361 0.0
C250 C 0.16483 0.78888 0.88876 0.0
C251 C 0.19358 0.77744 0.94638 0.0
H252 H 0.1294 0.78296 0.74204 0.0
H253 H 0.15251 0.8103 0.9259 0.0
S254 S 0.23373 0.69686 0.85974 0.0
N255 N 0.20475 0.69937 0.75499 0.0
N256 N 0.23141 0.73162 0.95247 0.0
C257 C 0.20636 0.7471 0.89936 0.0
C258 C 0.19142 0.7293 0.79304 0.0
C259 C 0.38291 0.19595 0.17231 0.0
C260 C 0.42506 0.22632 0.22363 0.0
C261 C 0.38245 0.17824 0.06923 0.0
C262 C 0.42422 0.19011 0.0142 0.0
H263 H 0.35025 0.18265 0.21599 0.0
H264 H 0.34906 0.15412 0.03379 0.0
S265 S 0.54378 0.27301 0.11184 0.0
N266 N 0.50911 0.27073 0.21101 0.0
N267 N 0.5091 0.23821 0.01616 0.0
C268 C 0.46665 0.22292 0.06276 0.0
C269 C 0.46681 0.24118 0.16732 0.0
C270 C 0.16284 0.5575 0.04602 0.0
C271 C 0.20536 0.55815 0.05376 0.0
C272 C 0.15452 0.58848 0.10682 0.0
C273 C 0.18795 0.62047 0.17934 0.0
H274 H 0.13549 0.53246 -0.00598 0.0
H275 H 0.12145 0.587 0.09807 0.0
S276 S 0.30694 0.64084 0.22032 0.0
N277 N 0.28311 0.59745 0.13274 0.0
N278 N 0.26637 0.65393 0.24867 0.0
C279 C 0.23088 0.62238 0.186 0.0
C280 C 0.23986 0.59174 0.12272 0.0
C281 C 0.61163 0.17131 0.34748 0.0
C282 C 0.64933 0.18179 0.415 0.0
C283 C 0.56953 0.16468 0.39104 0.0
C284 C 0.56377 0.16829 0.50354 0.0
H285 H 0.61556 0.17104 0.26043 0.0
H286 H 0.54229 0.15923 0.33539 0.0
S287 S 0.64943 0.18618 0.71545 0.0
N288 N 0.67619 0.18881 0.6003 0.0
N289 N 0.59746 0.17664 0.68167 0.0
C290 C 0.60007 0.17506 0.57202 0.0
C291 C 0.64272 0.1817 0.52784 0.0
C292 C 0.41375 0.60157 0.86953 0.0
C293 C 0.39433 0.56101 0.80572 0.0
C294 C 0.44909 0.64394 0.82935 0.0
C295 C 0.46708 0.64778 0.72383 0.0
H296 H 0.40037 0.60122 0.94999 0.0
H297 H 0.46191 0.67422 0.88147 0.0
S298 S 0.43188 0.55133 0.52689 0.0
N299 N 0.39828 0.52675 0.63352 0.0
N300 N 0.46524 0.60673 0.5588 0.0
C301 C 0.44994 0.60719 0.66088 0.0
C302 C 0.41346 0.5638 0.70155 0.0
C303 C 0.79295 0.40297 0.25435 0.0
C304 C 0.83143 0.39875 0.22343 0.0
C305 C 0.78217 0.43294 0.2007 0.0
C306 C 0.80946 0.46065 0.11372 0.0
H307 H 0.76984 0.38186 0.3187 0.0
H308 H 0.75158 0.43387 0.22771 0.0
S309 S 0.91646 0.46582 0.00569 0.0
N310 N 0.89863 0.4269 0.10288 0.0
N311 N 0.87852 0.48383 0.00307 0.0
C312 C 0.849 0.45805 0.08378 0.0
C313 C 0.86001 0.42719 0.1385 0.0
C314 C 0.39579 0.82809 0.38763 0.0
C315 C 0.3559 0.80743 0.4539 0.0
C316 C 0.43922 0.83747 0.42679 0.0
C317 C 0.4446 0.82694 0.53413 0.0
H318 H 0.39315 0.83541 0.30373 0.0
H319 H 0.46842 0.85165 0.37099 0.0
S320 S 0.352 0.77915 0.74509 0.0
N321 N 0.32543 0.78137 0.63541 0.0
N322 N 0.4067 0.79915 0.70885 0.0
C323 C 0.4054 0.80885 0.6029 0.0
C324 C 0.36121 0.79903 0.56285 0.0
C325 C 0.60689 0.3985 0.90446 0.0
C326 C 0.61637 0.44186 0.86582 0.0
C327 C 0.57584 0.35726 0.85071 0.0
C328 C 0.55233 0.35731 0.75649 0.0
H329 H 0.62477 0.39632 -0.02518 0.0
H330 H 0.57046 0.32499 0.88361 0.0
S331 S 0.56239 0.46154 0.62585 0.0
N332 N 0.59808 0.48234 0.72983 0.0
N333 N 0.53926 0.40466 0.62977 0.0
C334 C 0.56028 0.40033 0.71883 0.0
C335 C 0.59234 0.44254 0.77316 0.0
loop_
_geom_bond_atom_site_label_1
_geom_bond_atom_site_label_2
_geom_bond_distance
_geom_bond_site_symmetry_2
_ccdc_geom_bond_type
O0 Zn1 1.953 1_554 S
O0 C16 1.225 . S
Zn1 O0 1.953 1_556 S
Zn1 O2 1.949 1_556 S
Zn1 O8 1.919 1_556 S
Zn1 O13 1.924 . S
O2 Zn1 1.949 1_554 S
O2 Zn3 1.923 . S
O2 Zn4 1.950 . S
O2 Zn5 1.945 1_554 S
Zn3 O2 1.923 . S
Zn3 O6 1.933 . S
Zn3 O9 1.941 . S
Zn3 O10 1.965 . S
Zn4 O2 1.950 . S
Zn4 O11 1.938 . S
Zn4 O12 1.906 . S
Zn4 O22 1.953 . S
Zn5 O2 1.945 1_556 S
Zn5 O7 1.932 . S
Zn5 O14 1.977 . S
Zn5 O15 1.910 . S
O6 Zn3 1.933 . S
O6 C17 1.226 1_554 S
O7 Zn5 1.932 . S
O7 C17 1.307 . S
O8 Zn1 1.919 1_554 S
O8 C19 1.253 . S
O9 Zn3 1.941 . S
O9 C19 1.283 . S
O10 Zn3 1.965 . S
O10 C18 1.303 . S
O11 Zn4 1.938 . S
O11 C18 1.247 . S
O12 Zn4 1.906 . S
O12 C20 1.304 1_554 S
O13 Zn1 1.924 . S
O13 C21 1.311 . S
O14 Zn5 1.977 . S
O14 C20 1.272 . S
O15 Zn5 1.910 . S
O15 C21 1.231 . S
C16 O0 1.225 . S
C16 O22 1.298 . S
C17 O6 1.226 1_556 S
C17 O7 1.307 . S
C18 O10 1.303 . S
C18 O11 1.247 . S
C19 O8 1.253 . S
C19 O9 1.283 . S
C20 O12 1.304 1_556 S
C20 O14 1.272 . S
C21 O13 1.311 . S
C21 O15 1.231 . S
O22 Zn4 1.953 . S
O22 C16 1.298 . S
O23 Zn24 1.953 . S
O23 C39 1.225 . S
Zn24 O23 1.953 . S
Zn24 O25 1.949 . S
Zn24 O31 1.919 . S
Zn24 O36 1.924 . S
O25 Zn24 1.949 . S
O25 Zn26 1.923 . S
O25 Zn27 1.950 . S
O25 Zn28 1.945 . S
Zn26 O25 1.923 . S
Zn26 O29 1.933 . S
Zn26 O32 1.941 . S
Zn26 O33 1.965 . S
Zn27 O25 1.950 . S
Zn27 O34 1.938 . S
Zn27 O35 1.906 . S
Zn27 O45 1.953 . S
Zn28 O25 1.945 . S
Zn28 O30 1.932 . S
Zn28 O37 1.977 . S
Zn28 O38 1.910 . S
O29 Zn26 1.933 . S
O29 C40 1.226 . S
O30 Zn28 1.932 . S
O30 C40 1.307 . S
O31 Zn24 1.919 . S
O31 C42 1.253 . S
O32 Zn26 1.941 . S
O32 C42 1.283 . S
O33 Zn26 1.965 . S
O33 C41 1.303 . S
O34 Zn27 1.938 . S
O34 C41 1.247 . S
O35 Zn27 1.906 . S
O35 C43 1.304 . S
O36 Zn24 1.924 . S
O36 C44 1.311 . S
O37 Zn28 1.977 . S
O37 C43 1.272 . S
O38 Zn28 1.910 . S
O38 C44 1.231 . S
C39 O23 1.225 . S
C39 O45 1.298 . S
C40 O29 1.226 . S
C40 O30 1.307 . S
C41 O33 1.303 . S
C41 O34 1.247 . S
C42 O31 1.253 . S
C42 O32 1.283 . S
C43 O35 1.304 . S
C43 O37 1.272 . S
C44 O36 1.311 . S
C44 O38 1.231 . S
O45 Zn27 1.953 . S
O45 C39 1.298 . S
O46 Zn47 1.953 . S
O46 C62 1.225 . S
Zn47 O46 1.953 . S
Zn47 O48 1.949 . S
Zn47 O54 1.919 . S
Zn47 O59 1.924 . S
O48 Zn47 1.949 . S
O48 Zn49 1.923 . S
O48 Zn50 1.950 . S
O48 Zn51 1.945 . S
Zn49 O48 1.923 . S
Zn49 O52 1.933 . S
Zn49 O55 1.941 . S
Zn49 O56 1.965 . S
Zn50 O48 1.950 . S
Zn50 O57 1.938 . S
Zn50 O58 1.906 . S
Zn50 O68 1.953 . S
Zn51 O48 1.945 . S
Zn51 O53 1.932 . S
Zn51 O60 1.977 . S
Zn51 O61 1.910 . S
O52 Zn49 1.933 . S
O52 C63 1.226 . S
O53 Zn51 1.932 . S
O53 C63 1.307 . S
O54 Zn47 1.919 . S
O54 C65 1.253 . S
O55 Zn49 1.941 . S
O55 C65 1.283 . S
O56 Zn49 1.965 . S
O56 C64 1.303 . S
O57 Zn50 1.938 . S
O57 C64 1.247 . S
O58 Zn50 1.906 . S
O58 C66 1.304 . S
O59 Zn47 1.924 . S
O59 C67 1.311 . S
O60 Zn51 1.977 . S
O60 C66 1.272 . S
O61 Zn51 1.910 . S
O61 C67 1.231 . S
C62 O46 1.225 . S
C62 O68 1.298 . S
C63 O52 1.226 . S
C63 O53 1.307 . S
C64 O56 1.303 . S
C64 O57 1.247 . S
C65 O54 1.253 . S
C65 O55 1.283 . S
C66 O58 1.304 . S
C66 O60 1.272 . S
C67 O59 1.311 . S
C67 O61 1.231 . S
O68 Zn50 1.953 . S
O68 C62 1.298 . S
O69 Zn70 1.953 1_554 S
O69 C85 1.225 . S
Zn70 O69 1.953 1_556 S
Zn70 O71 1.949 1_556 S
Zn70 O77 1.919 1_556 S
Zn70 O82 1.924 . S
O71 Zn70 1.949 1_554 S
O71 Zn72 1.923 . S
O71 Zn73 1.950 . S
O71 Zn74 1.945 1_554 S
Zn72 O71 1.923 . S
Zn72 O75 1.933 . S
Zn72 O78 1.941 . S
Zn72 O79 1.965 . S
Zn73 O71 1.950 . S
Zn73 O80 1.938 . S
Zn73 O81 1.906 . S
Zn73 O91 1.953 . S
Zn74 O71 1.945 1_556 S
Zn74 O76 1.932 . S
Zn74 O83 1.977 . S
Zn74 O84 1.910 . S
O75 Zn72 1.933 . S
O75 C86 1.226 1_554 S
O76 Zn74 1.932 . S
O76 C86 1.307 . S
O77 Zn70 1.919 1_554 S
O77 C88 1.253 . S
O78 Zn72 1.941 . S
O78 C88 1.283 . S
O79 Zn72 1.965 . S
O79 C87 1.303 . S
O80 Zn73 1.938 . S
O80 C87 1.247 . S
O81 Zn73 1.906 . S
O81 C89 1.304 1_554 S
O82 Zn70 1.924 . S
O82 C90 1.311 . S
O83 Zn74 1.977 . S
O83 C89 1.272 . S
O84 Zn74 1.910 . S
O84 C90 1.231 . S
C85 O69 1.225 . S
C85 O91 1.298 . S
C86 O75 1.226 1_556 S
C86 O76 1.307 . S
C87 O79 1.303 . S
C87 O80 1.247 . S
C88 O77 1.253 . S
C88 O78 1.283 . S
C89 O81 1.304 1_556 S
C89 O83 1.272 . S
C90 O82 1.311 . S
C90 O84 1.231 . S
O91 Zn73 1.953 . S
O91 C85 1.298 . S
O92 Zn93 1.953 . S
O92 C108 1.225 . S
Zn93 O92 1.953 . S
Zn93 O94 1.949 . S
Zn93 O100 1.919 . S
Zn93 O105 1.924 . S
O94 Zn93 1.949 . S
O94 Zn95 1.923 . S
O94 Zn96 1.950 . S
O94 Zn97 1.945 . S
Zn95 O94 1.923 . S
Zn95 O98 1.933 . S
Zn95 O101 1.941 . S
Zn95 O102 1.965 . S
Zn96 O94 1.950 . S
Zn96 O103 1.938 . S
Zn96 O104 1.906 . S
Zn96 O114 1.953 . S
Zn97 O94 1.945 . S
Zn97 O99 1.932 . S
Zn97 O106 1.977 . S
Zn97 O107 1.910 . S
O98 Zn95 1.933 . S
O98 C109 1.226 . S
O99 Zn97 1.932 . S
O99 C109 1.307 . S
O100 Zn93 1.919 . S
O100 C111 1.253 . S
O101 Zn95 1.941 . S
O101 C111 1.283 . S
O102 Zn95 1.965 . S
O102 C110 1.303 . S
O103 Zn96 1.938 . S
O103 C110 1.247 . S
O104 Zn96 1.906 . S
O104 C112 1.304 . S
O105 Zn93 1.924 . S
O105 C113 1.311 . S
O106 Zn97 1.977 . S
O106 C112 1.272 . S
O107 Zn97 1.910 . S
O107 C113 1.231 . S
C108 O92 1.225 . S
C108 O114 1.298 . S
C109 O98 1.226 . S
C109 O99 1.307 . S
C110 O102 1.303 . S
C110 O103 1.247 . S
C111 O100 1.253 . S
C111 O101 1.283 . S
C112 O104 1.304 . S
C112 O106 1.272 . S
C113 O105 1.311 . S
C113 O107 1.231 . S
O114 Zn96 1.953 . S
O114 C108 1.298 . S
O115 Zn116 1.953 . S
O115 C131 1.225 . S
Zn116 O115 1.953 . S
Zn116 O117 1.949 . S
Zn116 O123 1.919 . S
Zn116 O128 1.924 . S
O117 Zn116 1.949 . S
O117 Zn118 1.923 . S
O117 Zn119 1.950 . S
O117 Zn120 1.945 . S
Zn118 O117 1.923 . S
Zn118 O121 1.933 . S
Zn118 O124 1.941 . S
Zn118 O125 1.965 . S
Zn119 O117 1.950 . S
Zn119 O126 1.938 . S
Zn119 O127 1.906 . S
Zn119 O137 1.953 . S
Zn120 O117 1.945 . S
Zn120 O122 1.932 . S
Zn120 O129 1.977 . S
Zn120 O130 1.910 . S
O121 Zn118 1.933 . S
O121 C132 1.226 . S
O122 Zn120 1.932 . S
O122 C132 1.307 . S
O123 Zn116 1.919 . S
O123 C134 1.253 . S
O124 Zn118 1.941 . S
O124 C134 1.283 . S
O125 Zn118 1.965 . S
O125 C133 1.303 . S
O126 Zn119 1.938 . S
O126 C133 1.247 . S
O127 Zn119 1.906 . S
O127 C135 1.304 . S
O128 Zn116 1.924 . S
O128 C136 1.311 . S
O129 Zn120 1.977 . S
O129 C135 1.272 . S
O130 Zn120 1.910 . S
O130 C136 1.231 . S
C131 O115 1.225 . S
C131 O137 1.298 . S
C132 O121 1.226 . S
C132 O122 1.307 . S
C133 O125 1.303 . S
C133 O126 1.247 . S
C134 O123 1.253 . S
C134 O124 1.283 . S
C135 O127 1.304 . S
C135 O129 1.272 . S
C136 O128 1.311 . S
C136 O130 1.231 . S
O137 Zn119 1.953 . S
O137 C131 1.298 . S
C138 C139 1.369 . S
C138 C140 1.419 . S
C138 H142 0.930 . S
C139 C138 1.369 . S
C139 C148 1.429 . S
C140 C138 1.419 . S
C140 C141 1.363 . S
C140 H143 0.929 . S
C141 C140 1.363 . S
C141 C147 1.428 . S
H142 C138 0.930 . S
H143 C140 0.929 . S
S144 N145 1.613 1_554 S
S144 N146 1.610 . S
N145 S144 1.613 1_556 S
N145 C148 1.350 . S
N146 S144 1.610 . S
N146 C147 1.351 1_554 S
C147 C141 1.428 . S
C147 N146 1.351 1_556 S
C147 C148 1.434 . S
C148 C139 1.429 . S
C148 N145 1.350 . S
C148 C147 1.434 . S
C149 C150 1.369 . S
C149 C151 1.412 1_455 S
C149 H153 0.937 . S
C150 C149 1.369 . S
C150 C159 1.429 . S
C151 C149 1.412 1_655 S
C151 C152 1.363 . S
C151 H154 0.929 . S
C152 C151 1.363 . S
C152 C158 1.428 . S
H153 C149 0.937 . S
H154 C151 0.929 . S
S155 N156 1.613 1_655 S
S155 N157 1.610 . S
N156 S155 1.613 1_455 S
N156 C159 1.350 . S
N157 S155 1.610 . S
N157 C158 1.351 . S
C158 C152 1.428 . S
C158 N157 1.351 . S
C158 C159 1.434 1_655 S
C159 C150 1.429 . S
C159 N156 1.350 . S
C159 C158 1.434 1_455 S
C160 C161 1.369 1_565 S
C160 C162 1.419 . S
C160 H164 0.930 . S
C161 C160 1.369 1_545 S
C161 C170 1.429 . S
C162 C160 1.419 . S
C162 C163 1.363 . S
C162 H165 0.929 . S
C163 C162 1.363 . S
C163 C169 1.428 . S
H164 C160 0.930 . S
H165 C162 0.929 . S
S166 N167 1.613 . S
S166 N168 1.610 1_545 S
N167 S166 1.613 . S
N167 C170 1.350 . S
N168 S166 1.610 1_565 S
N168 C169 1.351 . S
C169 C163 1.428 . S
C169 N168 1.351 . S
C169 C170 1.434 1_565 S
C170 C161 1.429 . S
C170 N167 1.350 . S
C170 C169 1.434 1_545 S
C171 C172 1.369 . S
C171 C173 1.419 . S
C171 H175 0.930 . S
C172 C171 1.369 . S
C172 C181 1.429 . S
C173 C171 1.419 . S
C173 C174 1.363 . S
C173 H176 0.929 . S
C174 C173 1.363 . S
C174 C180 1.428 . S
H175 C171 0.930 . S
H176 C173 0.929 . S
S177 N178 1.613 1_554 S
S177 N179 1.610 . S
N178 S177 1.613 1_556 S
N178 C181 1.350 . S
N179 S177 1.610 . S
N179 C180 1.351 1_554 S
C180 C174 1.428 . S
C180 N179 1.351 1_556 S
C180 C181 1.434 . S
C181 C172 1.429 . S
C181 N178 1.350 . S
C181 C180 1.434 . S
C182 C183 1.369 . S
C182 C184 1.419 . S
C182 H186 0.930 . S
C183 C182 1.369 . S
C183 C192 1.429 . S
C184 C182 1.419 . S
C184 C185 1.363 1_455 S
C184 H187 0.929 . S
C185 C184 1.363 1_655 S
C185 C191 1.428 . S
H186 C182 0.930 . S
H187 C184 0.929 . S
S188 N189 1.613 1_655 S
S188 N190 1.610 . S
N189 S188 1.613 1_455 S
N189 C192 1.350 . S
N190 S188 1.610 . S
N190 C191 1.351 . S
C191 C185 1.428 . S
C191 N190 1.351 . S
C191 C192 1.434 1_655 S
C192 C183 1.429 . S
C192 N189 1.350 . S
C192 C191 1.434 1_455 S
C193 C194 1.369 . S
C193 C195 1.419 . S
C193 H197 0.930 . S
C194 C193 1.369 . S
C194 C203 1.429 . S
C195 C193 1.419 . S
C195 C196 1.363 1_545 S
C195 H198 0.929 . S
C196 C195 1.363 1_565 S
C196 C202 1.428 . S
H197 C193 0.930 . S
H198 C195 0.929 . S
S199 N200 1.613 1_565 S
S199 N201 1.610 . S
N200 S199 1.613 1_545 S
N200 C203 1.350 . S
N201 S199 1.610 . S
N201 C202 1.351 . S
C202 C196 1.428 . S
C202 N201 1.351 . S
C202 C203 1.434 1_565 S
C203 C194 1.429 . S
C203 N200 1.350 . S
C203 C202 1.434 1_545 S
C204 C205 1.369 . S
C204 C206 1.419 . S
C204 H208 0.930 . S
C205 C204 1.369 . S
C205 C214 1.429 . S
C206 C204 1.419 . S
C206 C207 1.363 . S
C206 H209 0.929 . S
C207 C206 1.363 . S
C207 C213 1.428 . S
H208 C204 0.930 . S
H209 C206 0.929 . S
S210 N211 1.613 . S
S210 N212 1.610 . S
N211 S210 1.613 . S
N211 C214 1.350 . S
N212 S210 1.610 . S
N212 C213 1.351 . S
C213 C207 1.428 . S
C213 N212 1.351 . S
C213 C214 1.434 . S
C214 C205 1.429 . S
C214 N211 1.350 . S
C214 C213 1.434 . S
C215 C216 1.369 . S
C215 C217 1.419 . S
C215 H219 0.930 . S
C216 C215 1.369 . S
C216 C225 1.429 . S
C217 C215 1.419 . S
C217 C218 1.363 . S
C217 H220 0.929 . S
C218 C217 1.363 . S
C218 C224 1.428 . S
H219 C215 0.930 . S
H220 C217 0.929 . S
S221 N222 1.613 1_556 S
S221 N223 1.610 . S
N222 S221 1.613 1_554 S
N222 C225 1.350 1_554 S
N223 S221 1.610 . S
N223 C224 1.351 . S
C224 C218 1.428 . S
C224 N223 1.351 . S
C224 C225 1.434 . S
C225 C216 1.429 . S
C225 N222 1.350 1_556 S
C225 C224 1.434 . S
C226 C227 1.369 . S
C226 C228 1.419 . S
C226 H230 0.930 . S
C227 C226 1.369 . S
C227 C236 1.429 . S
C228 C226 1.419 . S
C228 C229 1.363 . S
C228 H231 0.929 . S
C229 C228 1.363 . S
C229 C235 1.428 . S
H230 C226 0.930 . S
H231 C228 0.929 . S
S232 N233 1.613 . S
S232 N234 1.610 . S
N233 S232 1.613 . S
N233 C236 1.350 . S
N234 S232 1.610 . S
N234 C235 1.351 . S
C235 C229 1.428 . S
C235 N234 1.351 . S
C235 C236 1.434 . S
C236 C227 1.429 . S
C236 N233 1.350 . S
C236 C235 1.434 . S
C237 C238 1.369 . S
C237 C239 1.419 . S
C237 H241 0.930 . S
C238 C237 1.369 . S
C238 C247 1.429 . S
C239 C237 1.419 . S
C239 C240 1.363 . S
C239 H242 0.929 . S
C240 C239 1.363 . S
C240 C246 1.428 . S
H241 C237 0.930 . S
H242 C239 0.929 . S
S243 N244 1.613 . S
S243 N245 1.610 . S
N244 S243 1.613 . S
N244 C247 1.350 . S
N245 S243 1.610 . S
N245 C246 1.351 . S
C246 C240 1.428 . S
C246 N245 1.351 . S
C246 C247 1.434 . S
C247 C238 1.429 . S
C247 N244 1.350 . S
C247 C246 1.434 . S
C248 C249 1.369 . S
C248 C250 1.419 . S
C248 H252 0.930 . S
C249 C248 1.369 . S
C249 C258 1.429 . S
C250 C248 1.419 . S
C250 C251 1.363 . S
C250 H253 0.929 1_556 S
C251 C250 1.363 . S
C251 C257 1.428 . S
H252 C248 0.930 . S
H253 C250 0.929 1_554 S
S254 N255 1.613 . S
S254 N256 1.610 . S
N255 S254 1.613 . S
N255 C258 1.350 . S
N256 S254 1.610 . S
N256 C257 1.351 . S
C257 C251 1.428 . S
C257 N256 1.351 . S
C257 C258 1.434 . S
C258 C249 1.429 . S
C258 N255 1.350 . S
C258 C257 1.434 . S
C259 C260 1.369 . S
C259 C261 1.419 . S
C259 H263 0.930 . S
C260 C259 1.369 . S
C260 C269 1.429 . S
C261 C259 1.419 . S
C261 C262 1.363 . S
C261 H264 0.929 . S
C262 C261 1.363 . S
C262 C268 1.428 . S
H263 C259 0.930 . S
H264 C261 0.929 . S
S265 N266 1.613 . S
S265 N267 1.610 . S
N266 S265 1.613 . S
N266 C269 1.350 . S
N267 S265 1.610 . S
N267 C268 1.351 . S
C268 C262 1.428 . S
C268 N267 1.351 . S
C268 C269 1.434 . S
C269 C260 1.429 . S
C269 N266 1.350 . S
C269 C268 1.434 . S
C270 C271 1.369 . S
C270 C272 1.419 . S
C270 H274 0.930 . S
C271 C270 1.369 . S
C271 C280 1.429 . S
C272 C270 1.419 . S
C272 C273 1.363 . S
C272 H275 0.929 . S
C273 C272 1.363 . S
C273 C279 1.428 . S
H274 C270 0.930 . S
H275 C272 0.929 . S
S276 N277 1.613 . S
S276 N278 1.610 . S
N277 S276 1.613 . S
N277 C280 1.350 . S
N278 S276 1.610 . S
N278 C279 1.351 . S
C279 C273 1.428 . S
C279 N278 1.351 . S
C279 C280 1.434 . S
C280 C271 1.429 . S
C280 N277 1.350 . S
C280 C279 1.434 . S
C281 C282 1.369 . S
C281 C283 1.419 . S
C281 H285 0.930 . S
C282 C281 1.369 . S
C282 C291 1.429 . S
C283 C281 1.419 . S
C283 C284 1.363 . S
C283 H286 0.929 . S
C284 C283 1.363 . S
C284 C290 1.428 . S
H285 C281 0.930 . S
H286 C283 0.929 . S
S287 N288 1.613 . S
S287 N289 1.610 . S
N288 S287 1.613 . S
N288 C291 1.350 . S
N289 S287 1.610 . S
N289 C290 1.351 . S
C290 C284 1.428 . S
C290 N289 1.351 . S
C290 C291 1.434 . S
C291 C282 1.429 . S
C291 N288 1.350 . S
C291 C290 1.434 . S
C292 C293 1.369 . S
C292 C294 1.419 . S
C292 H296 0.930 1_556 S
C293 C292 1.369 . S
C293 C302 1.429 . S
C294 C292 1.419 . S
C294 C295 1.363 . S
C294 H297 0.929 . S
C295 C294 1.363 . S
C295 C301 1.428 . S
H296 C292 0.930 1_554 S
H297 C294 0.929 . S
S298 N299 1.613 . S
S298 N300 1.610 . S
N299 S298 1.613 . S
N299 C302 1.350 . S
N300 S298 1.610 . S
N300 C301 1.351 . S
C301 C295 1.428 . S
C301 N300 1.351 . S
C301 C302 1.434 . S
C302 C293 1.429 . S
C302 N299 1.350 . S
C302 C301 1.434 . S
C303 C304 1.369 . S
C303 C305 1.419 . S
C303 H307 0.930 . S
C304 C303 1.369 . S
C304 C313 1.429 . S
C305 C303 1.419 . S
C305 C306 1.363 . S
C305 H308 0.929 . S
C306 C305 1.363 . S
C306 C312 1.428 . S
H307 C303 0.930 . S
H308 C305 0.929 . S
S309 N310 1.613 . S
S309 N311 1.610 . S
N310 S309 1.613 . S
N310 C313 1.350 . S
N311 S309 1.610 . S
N311 C312 1.351 . S
C312 C306 1.428 . S
C312 N311 1.351 . S
C312 C313 1.434 . S
C313 C304 1.429 . S
C313 N310 1.350 . S
C313 C312 1.434 . S
C314 C315 1.369 . S
C314 C316 1.419 . S
C314 H318 0.930 . S
C315 C314 1.369 . S
C315 C324 1.429 . S
C316 C314 1.419 . S
C316 C317 1.363 . S
C316 H319 0.929 . S
C317 C316 1.363 . S
C317 C323 1.428 . S
H318 C314 0.930 . S
H319 C316 0.929 . S
S320 N321 1.613 . S
S320 N322 1.610 . S
N321 S320 1.613 . S
N321 C324 1.350 . S
N322 S320 1.610 . S
N322 C323 1.351 . S
C323 C317 1.428 . S
C323 N322 1.351 . S
C323 C324 1.434 . S
C324 C315 1.429 . S
C324 N321 1.350 . S
C324 C323 1.434 . S
C325 C326 1.369 . S
C325 C327 1.419 . S
C325 H329 0.930 1_556 S
C326 C325 1.369 . S
C326 C335 1.429 . S
C327 C325 1.419 . S
C327 C328 1.363 . S
C327 H330 0.929 . S
C328 C327 1.363 . S
C328 C334 1.428 . S
H329 C325 0.930 1_554 S
H330 C327 0.929 . S
S331 N332 1.613 . S
S331 N333 1.610 . S
N332 S331 1.613 . S
N332 C335 1.350 . S
N333 S331 1.610 . S
N333 C334 1.351 . S
C334 C328 1.428 . S
C334 N333 1.351 . S
C334 C335 1.434 . S
C335 C326 1.429 . S
C335 N332 1.350 . S
C335 C334 1.434 . S
C139 C131 1.520 . S
C141 C20 1.510 . S
C150 C16 1.517 . S
C152 C43 1.509 . S
C161 C39 1.517 . S
C163 C66 1.511 . S
C172 C62 1.521 . S
C174 C89 1.510 . S
C183 C112 1.511 . S
C185 C85 1.520 . S
C194 C135 1.511 . S
C196 C108 1.518 . S
C205 C21 0.978 . S
C207 C18 1.062 . S
C216 C44 0.956 1_556 S
C218 C41 1.066 . S
C227 C67 0.961 . S
C229 C64 1.066 1_554 S
C238 C90 0.978 . S
C240 C87 1.062 . S
C249 C110 1.062 . S
C251 C113 0.975 1_556 S
C260 C136 0.975 . S
C262 C133 1.062 1_554 S
C271 C19 1.582 . S
C273 C109 1.632 . S
C282 C42 1.580 . S
C284 C132 1.634 . S
C293 C17 1.631 . S
C295 C65 1.585 . S
C304 C40 1.635 . S
C306 C88 1.581 . S
C315 C111 1.579 . S
C317 C63 1.634 . S
C326 C86 1.631 . S
C328 C134 1.586 . S
