# Generated by pormake.
# Topology fnp, (5)-cn, num edge types: 1
# Building blocks:
#     Node 0, Type 0, BuildingBlock: BEQFEK_clean_sbu_0, # of connection points: 5
#     Node 1, Type 0, BuildingBlock: BEQFEK_clean_sbu_0, # of connection points: 5
#     Node 2, Type 0, BuildingBlock: BEQFEK_clean_sbu_0, # of connection points: 5
#     Node 3, Type 0, BuildingBlock: BEQFEK_clean_sbu_0, # of connection points: 5
#     Node 4, Type 0, BuildingBlock: BEQFEK_clean_sbu_0, # of connection points: 5
#     Node 5, Type 0, BuildingBlock: BEQFEK_clean_sbu_0, # of connection points: 5
#     Node 6, Type 0, BuildingBlock: BEQFEK_clean_sbu_0, # of connection points: 5
#     Node 7, Type 0, BuildingBlock: BEQFEK_clean_sbu_0, # of connection points: 5
#     Node 8, Type 0, BuildingBlock: BEQFEK_clean_sbu_0, # of connection points: 5
#     Node 9, Type 0, BuildingBlock: BEQFEK_clean_sbu_0, # of connection points: 5
#     Node 10, Type 0, BuildingBlock: BEQFEK_clean_sbu_0, # of connection points: 5
#     Node 11, Type 0, BuildingBlock: BEQFEK_clean_sbu_0, # of connection points: 5
#     Node 12, Type 0, BuildingBlock: BEQFEK_clean_sbu_0, # of connection points: 5
#     Node 13, Type 0, BuildingBlock: BEQFEK_clean_sbu_0, # of connection points: 5
#     Node 14, Type 0, BuildingBlock: BEQFEK_clean_sbu_0, # of connection points: 5
#     Node 15, Type 0, BuildingBlock: BEQFEK_clean_sbu_0, # of connection points: 5
#     Node 16, Type 0, BuildingBlock: BEQFEK_clean_sbu_0, # of connection points: 5
#     Node 17, Type 0, BuildingBlock: BEQFEK_clean_sbu_0, # of connection points: 5
#     Node 18, Type 0, BuildingBlock: BEQFEK_clean_sbu_0, # of connection points: 5
#     Node 19, Type 0, BuildingBlock: BEQFEK_clean_sbu_0, # of connection points: 5
#     Node 20, Type 0, BuildingBlock: BEQFEK_clean_sbu_0, # of connection points: 5
#     Node 21, Type 0, BuildingBlock: BEQFEK_clean_sbu_0, # of connection points: 5
#     Node 22, Type 0, BuildingBlock: BEQFEK_clean_sbu_0, # of connection points: 5
#     Node 23, Type 0, BuildingBlock: BEQFEK_clean_sbu_0, # of connection points: 5
#     Edge 24, Type (0, 0), BuildingBlock: XIVTED_clean_linker_0, # of connection points: 2
#     Edge 25, Type (0, 0), BuildingBlock: XIVTED_clean_linker_0, # of connection points: 2
#     Edge 26, Type (0, 0), BuildingBlock: XIVTED_clean_linker_0, # of connection points: 2
#     Edge 27, Type (0, 0), BuildingBlock: XIVTED_clean_linker_0, # of connection points: 2
#     Edge 28, Type (0, 0), BuildingBlock: XIVTED_clean_linker_0, # of connection points: 2
#     Edge 29, Type (0, 0), BuildingBlock: XIVTED_clean_linker_0, # of connection points: 2
#     Edge 30, Type (0, 0), BuildingBlock: XIVTED_clean_linker_0, # of connection points: 2
#     Edge 31, Type (0, 0), BuildingBlock: XIVTED_clean_linker_0, # of connection points: 2
#     Edge 32, Type (0, 0), BuildingBlock: XIVTED_clean_linker_0, # of connection points: 2
#     Edge 33, Type (0, 0), BuildingBlock: XIVTED_clean_linker_0, # of connection points: 2
#     Edge 34, Type (0, 0), BuildingBlock: XIVTED_clean_linker_0, # of connection points: 2
#     Edge 35, Type (0, 0), BuildingBlock: XIVTED_clean_linker_0, # of connection points: 2
#     Edge 36, Type (0, 0), BuildingBlock: XIVTED_clean_linker_0, # of connection points: 2
#     Edge 37, Type (0, 0), BuildingBlock: XIVTED_clean_linker_0, # of connection points: 2
#     Edge 38, Type (0, 0), BuildingBlock: XIVTED_clean_linker_0, # of connection points: 2
#     Edge 39, Type (0, 0), BuildingBlock: XIVTED_clean_linker_0, # of connection points: 2
#     Edge 40, Type (0, 0), BuildingBlock: XIVTED_clean_linker_0, # of connection points: 2
#     Edge 41, Type (0, 0), BuildingBlock: XIVTED_clean_linker_0, # of connection points: 2
#     Edge 42, Type (0, 0), BuildingBlock: XIVTED_clean_linker_0, # of connection points: 2
#     Edge 43, Type (0, 0), BuildingBlock: XIVTED_clean_linker_0, # of connection points: 2
#     Edge 44, Type (0, 0), BuildingBlock: XIVTED_clean_linker_0, # of connection points: 2
#     Edge 45, Type (0, 0), BuildingBlock: XIVTED_clean_linker_0, # of connection points: 2
#     Edge 46, Type (0, 0), BuildingBlock: XIVTED_clean_linker_0, # of connection points: 2
#     Edge 47, Type (0, 0), BuildingBlock: XIVTED_clean_linker_0, # of connection points: 2
#     Edge 48, Type (0, 0), BuildingBlock: XIVTED_clean_linker_0, # of connection points: 2
#     Edge 49, Type (0, 0), BuildingBlock: XIVTED_clean_linker_0, # of connection points: 2
#     Edge 50, Type (0, 0), BuildingBlock: XIVTED_clean_linker_0, # of connection points: 2
#     Edge 51, Type (0, 0), BuildingBlock: XIVTED_clean_linker_0, # of connection points: 2
#     Edge 52, Type (0, 0), BuildingBlock: XIVTED_clean_linker_0, # of connection points: 2
#     Edge 53, Type (0, 0), BuildingBlock: XIVTED_clean_linker_0, # of connection points: 2
#     Edge 54, Type (0, 0), BuildingBlock: XIVTED_clean_linker_0, # of connection points: 2
#     Edge 55, Type (0, 0), BuildingBlock: XIVTED_clean_linker_0, # of connection points: 2
#     Edge 56, Type (0, 0), BuildingBlock: XIVTED_clean_linker_0, # of connection points: 2
#     Edge 57, Type (0, 0), BuildingBlock: XIVTED_clean_linker_0, # of connection points: 2
#     Edge 58, Type (0, 0), BuildingBlock: XIVTED_clean_linker_0, # of connection points: 2
#     Edge 59, Type (0, 0), BuildingBlock: XIVTED_clean_linker_0, # of connection points: 2
#     Edge 60, Type (0, 0), BuildingBlock: XIVTED_clean_linker_0, # of connection points: 2
#     Edge 61, Type (0, 0), BuildingBlock: XIVTED_clean_linker_0, # of connection points: 2
#     Edge 62, Type (0, 0), BuildingBlock: XIVTED_clean_linker_0, # of connection points: 2
#     Edge 63, Type (0, 0), BuildingBlock: XIVTED_clean_linker_0, # of connection points: 2
#     Edge 64, Type (0, 0), BuildingBlock: XIVTED_clean_linker_0, # of connection points: 2
#     Edge 65, Type (0, 0), BuildingBlock: XIVTED_clean_linker_0, # of connection points: 2
#     Edge 66, Type (0, 0), BuildingBlock: XIVTED_clean_linker_0, # of connection points: 2
#     Edge 67, Type (0, 0), BuildingBlock: XIVTED_clean_linker_0, # of connection points: 2
#     Edge 68, Type (0, 0), BuildingBlock: XIVTED_clean_linker_0, # of connection points: 2
#     Edge 69, Type (0, 0), BuildingBlock: XIVTED_clean_linker_0, # of connection points: 2
#     Edge 70, Type (0, 0), BuildingBlock: XIVTED_clean_linker_0, # of connection points: 2
#     Edge 71, Type (0, 0), BuildingBlock: XIVTED_clean_linker_0, # of connection points: 2
#     Edge 72, Type (0, 0), BuildingBlock: XIVTED_clean_linker_0, # of connection points: 2
#     Edge 73, Type (0, 0), BuildingBlock: XIVTED_clean_linker_0, # of connection points: 2
#     Edge 74, Type (0, 0), BuildingBlock: XIVTED_clean_linker_0, # of connection points: 2
#     Edge 75, Type (0, 0), BuildingBlock: XIVTED_clean_linker_0, # of connection points: 2
#     Edge 76, Type (0, 0), BuildingBlock: XIVTED_clean_linker_0, # of connection points: 2
#     Edge 77, Type (0, 0), BuildingBlock: XIVTED_clean_linker_0, # of connection points: 2
#     Edge 78, Type (0, 0), BuildingBlock: XIVTED_clean_linker_0, # of connection points: 2
#     Edge 79, Type (0, 0), BuildingBlock: XIVTED_clean_linker_0, # of connection points: 2
#     Edge 80, Type (0, 0), BuildingBlock: XIVTED_clean_linker_0, # of connection points: 2
#     Edge 81, Type (0, 0), BuildingBlock: XIVTED_clean_linker_0, # of connection points: 2
#     Edge 82, Type (0, 0), BuildingBlock: XIVTED_clean_linker_0, # of connection points: 2
#     Edge 83, Type (0, 0), BuildingBlock: XIVTED_clean_linker_0, # of connection points: 2
# Relax obj value: 0.502
# Max RMSD: 0.210
# Mean RMSD: 0.210
data_MOF--net-fnp--node1-BEQFEK_clean_sbu_0--edge1-XIVTED_clean_linker_0
_symmetry_space_group_name_H-M    P1
_symmetry_Int_Tables_number       1
_symmetry_cell_setting            triclinic
loop_
_symmetry_equiv_pos_as_xyz
'x, y, z'
_cell_length_a     56.620813
_cell_length_b     56.492495
_cell_length_c     56.689022
_cell_angle_alpha  89.812568
_cell_angle_beta   89.865637
_cell_angle_gamma 90.124873
loop_
_atom_site_label
_atom_site_type_symbol
_atom_site_fract_x
_atom_site_fract_y
_atom_site_fract_z
_atom_type_partial_charge
Co0 Co 0.22193 0.17514 0.67674 0.0
Co1 Co 0.17372 0.19088 0.65897 0.0
C2 C 0.18828 0.2073 0.70556 0.0
O3 O 0.20794 0.19693 0.70174 0.0
O4 O 0.17134 0.20499 0.69104 0.0
C5 C 0.23569 0.1428 0.70768 0.0
O6 O 0.21306 0.14555 0.7121 0.0
C7 C 0.12392 0.20237 0.65264 0.0
C8 C 0.11539 0.18132 0.62107 0.0
C9 C 0.10505 0.19383 0.6394 0.0
N10 N 0.14413 0.19428 0.6432 0.0
N11 N 0.13895 0.18234 0.6239 0.0
C12 C 0.1231 0.21844 0.67356 0.0
H13 H 0.1386 0.23049 0.67331 0.0
H14 H 0.12377 0.20771 0.68998 0.0
H15 H 0.10679 0.22929 0.6735 0.0
C16 C 0.20512 0.1283 0.66143 0.0
N17 N 0.20195 0.15187 0.66339 0.0
N18 N 0.17968 0.157 0.66042 0.0
C19 C 0.16748 0.13626 0.65854 0.0
C20 C 0.18332 0.11715 0.65941 0.0
C21 C 0.22881 0.11683 0.65836 0.0
H22 H 0.24252 0.1303 0.65422 0.0
H23 H 0.23394 0.10711 0.6745 0.0
H24 H 0.22798 0.10371 0.64384 0.0
O25 O 0.23464 0.1956 0.65247 0.0
O26 O 0.19991 0.21084 0.64215 0.0
H27 H 0.13542 0.13278 0.63921 0.0
H28 H 0.13496 0.11868 0.66763 0.0
C29 C 0.14115 0.13457 0.65782 0.0
H30 H 0.13304 0.15069 0.66544 0.0
H31 H 0.15134 0.17318 0.6138 0.0
O32 O 0.24575 0.15646 0.69287 0.0
C33 C 0.22262 0.21076 0.64103 0.0
Co34 Co 0.8795 0.71261 0.20102 0.0
Co35 Co 0.86215 0.67137 0.17007 0.0
C36 C 0.83982 0.67862 0.2165 0.0
O37 O 0.85276 0.6969 0.21797 0.0
O38 O 0.84257 0.6645 0.19931 0.0
C39 C 0.90285 0.70887 0.2406 0.0
O40 O 0.89729 0.6874 0.23369 0.0
C41 C 0.86083 0.6224 0.15847 0.0
C42 C 0.85565 0.62085 0.11994 0.0
C43 C 0.86006 0.60694 0.13964 0.0
N44 N 0.85744 0.64447 0.15041 0.0
N45 N 0.85403 0.64351 0.12736 0.0
C46 C 0.86505 0.61658 0.18393 0.0
H47 H 0.87643 0.63029 0.19209 0.0
H48 H 0.87307 0.59888 0.18635 0.0
H49 H 0.84785 0.61669 0.19335 0.0
C50 C 0.92636 0.69581 0.18522 0.0
N51 N 0.90258 0.69367 0.18587 0.0
N52 N 0.8961 0.67463 0.17443 0.0
C53 C 0.91601 0.66361 0.16665 0.0
C54 C 0.93588 0.67661 0.17341 0.0
C55 C 0.93983 0.71589 0.19601 0.0
H56 H 0.92859 0.73188 0.19723 0.0
H57 H 0.9457 0.71067 0.21395 0.0
H58 H 0.95581 0.72023 0.18555 0.0
O59 O 0.86301 0.7324 0.17738 0.0
O60 O 0.84818 0.70215 0.15659 0.0
H61 H 0.90326 0.64324 0.13752 0.0
H62 H 0.93409 0.6386 0.14424 0.0
C63 C 0.91634 0.64175 0.15194 0.0
H64 H 0.91162 0.62649 0.16328 0.0
H65 H 0.85164 0.65834 0.11659 0.0
O66 O 0.89642 0.72652 0.22802 0.0
C67 C 0.84965 0.72448 0.16094 0.0
Co68 Co 0.33303 0.37713 0.69291 0.0
Co69 Co 0.37588 0.36085 0.66454 0.0
C70 C 0.36175 0.34049 0.71423 0.0
O71 O 0.34504 0.35521 0.71788 0.0
O72 O 0.37379 0.34132 0.69507 0.0
C73 C 0.29567 0.40774 0.68448 0.0
O74 O 0.30722 0.41101 0.66463 0.0
C75 C 0.42622 0.36213 0.66601 0.0
C76 C 0.43745 0.35676 0.6291 0.0
C77 C 0.44588 0.3621 0.65143 0.0
N78 N 0.40713 0.35706 0.65301 0.0
N79 N 0.41389 0.35352 0.63097 0.0
C80 C 0.42492 0.37025 0.69112 0.0
H81 H 0.40671 0.37565 0.6958 0.0
H82 H 0.43719 0.38529 0.69412 0.0
H83 H 0.43011 0.35545 0.70291 0.0
C84 C 0.35738 0.42408 0.68918 0.0
N85 N 0.35551 0.40068 0.6845 0.0
N86 N 0.37158 0.39475 0.66896 0.0
C87 C 0.38317 0.41473 0.66204 0.0
C88 C 0.37454 0.43407 0.67473 0.0
C89 C 0.34428 0.43668 0.7083 0.0
H90 H 0.33684 0.45342 0.70132 0.0
H91 H 0.33037 0.42543 0.71627 0.0
H92 H 0.35693 0.4416 0.72239 0.0
O93 O 0.32242 0.35654 0.66647 0.0
O94 O 0.3519 0.3458 0.64327 0.0
H95 H 0.4002 0.4013 0.63099 0.0
H96 H 0.40387 0.43288 0.63565 0.0
C97 C 0.40281 0.4153 0.6444 0.0
H98 H 0.41978 0.41209 0.65359 0.0
H99 H 0.40234 0.35023 0.61705 0.0
O100 O 0.30381 0.39386 0.70027 0.0
C101 C 0.32999 0.34533 0.64857 0.0
Co102 Co 0.67573 0.81608 0.18262 0.0
Co103 Co 0.6893 0.86717 0.16827 0.0
C104 C 0.70671 0.84418 0.21413 0.0
O105 O 0.69547 0.82486 0.21056 0.0
O106 O 0.70487 0.8616 0.19981 0.0
C107 C 0.6508 0.77535 0.16739 0.0
O108 O 0.64643 0.78831 0.14864 0.0
C109 C 0.68667 0.91868 0.17379 0.0
C110 C 0.69902 0.93143 0.13899 0.0
C111 C 0.69047 0.93913 0.16058 0.0
N112 N 0.69236 0.89988 0.16045 0.0
N113 N 0.69983 0.90763 0.13971 0.0
C114 C 0.67873 0.91686 0.19896 0.0
H115 H 0.68435 0.89988 0.20688 0.0
H116 H 0.65919 0.91754 0.19978 0.0
H117 H 0.68594 0.93178 0.20944 0.0
C118 C 0.62698 0.83596 0.17943 0.0
N119 N 0.65066 0.83787 0.17694 0.0
N120 N 0.65586 0.85888 0.16842 0.0
C121 C 0.63529 0.87056 0.16414 0.0
C122 C 0.61618 0.85628 0.17088 0.0
C123 C 0.6148 0.81659 0.19275 0.0
H124 H 0.62757 0.80535 0.20239 0.0
H125 H 0.60214 0.82432 0.20556 0.0
H126 H 0.60438 0.80584 0.1803 0.0
O127 O 0.69867 0.81248 0.15684 0.0
O128 O 0.71026 0.84837 0.14636 0.0
H129 H 0.61695 0.89648 0.14319 0.0
H130 H 0.63387 0.90817 0.16721 0.0
C131 C 0.63369 0.89459 0.15315 0.0
H132 H 0.64889 0.89772 0.14117 0.0
H133 H 0.70522 0.89665 0.12596 0.0
O134 O 0.66242 0.78408 0.18454 0.0
C135 C 0.71208 0.82592 0.14484 0.0
Co136 Co 0.21854 0.37855 0.84625 0.0
Co137 Co 0.1742 0.35963 0.87116 0.0
C138 C 0.18568 0.34089 0.82429 0.0
O139 O 0.20421 0.35356 0.82551 0.0
O140 O 0.16991 0.34258 0.8402 0.0
C141 C 0.21963 0.40661 0.80951 0.0
O142 O 0.19759 0.39997 0.81266 0.0
C143 C 0.12462 0.35261 0.88037 0.0
C144 C 0.12207 0.35165 0.91923 0.0
C145 C 0.10861 0.35135 0.89882 0.0
N146 N 0.14653 0.35334 0.88933 0.0
N147 N 0.14497 0.3525 0.91259 0.0
C148 C 0.11917 0.35646 0.85479 0.0
H149 H 0.13311 0.36743 0.84635 0.0
H150 H 0.10188 0.36535 0.85245 0.0
H151 H 0.11856 0.33906 0.84578 0.0
C152 C 0.20021 0.42444 0.86252 0.0
N153 N 0.19832 0.40066 0.86123 0.0
N154 N 0.17764 0.39392 0.86913 0.0
C155 C 0.16518 0.41373 0.87492 0.0
C156 C 0.17907 0.43397 0.87051 0.0
C157 C 0.22262 0.43785 0.85781 0.0
H158 H 0.23815 0.42606 0.85976 0.0
H159 H 0.22242 0.44516 0.83965 0.0
H160 H 0.22426 0.45295 0.87019 0.0
O161 O 0.23604 0.35985 0.86972 0.0
O162 O 0.20361 0.34338 0.88534 0.0
H163 H 0.13925 0.40302 0.90026 0.0
H164 H 0.13337 0.43145 0.88665 0.0
C165 C 0.14023 0.41335 0.88361 0.0
H166 H 0.1289 0.40439 0.87045 0.0
H167 H 0.15943 0.35364 0.92393 0.0
O168 O 0.23555 0.39814 0.82302 0.0
C169 C 0.22625 0.34464 0.88339 0.0
Co170 Co 0.65917 0.72088 0.33885 0.0
Co171 Co 0.67539 0.67927 0.37017 0.0
C172 C 0.69671 0.68482 0.32302 0.0
O173 O 0.68455 0.70359 0.32142 0.0
O174 O 0.6939 0.67125 0.34071 0.0
C175 C 0.63386 0.71642 0.30053 0.0
O176 O 0.63847 0.69516 0.30875 0.0
C177 C 0.67545 0.63037 0.38213 0.0
C178 C 0.68122 0.62858 0.42057 0.0
C179 C 0.67626 0.61483 0.40096 0.0
N180 N 0.67938 0.65235 0.39007 0.0
N181 N 0.6831 0.65126 0.41307 0.0
C182 C 0.67084 0.62466 0.35673 0.0
H183 H 0.68798 0.62403 0.34723 0.0
H184 H 0.65999 0.63876 0.34851 0.0
H185 H 0.66204 0.60729 0.35451 0.0
C186 C 0.61212 0.7065 0.35654 0.0
N187 N 0.63576 0.7034 0.35548 0.0
N188 N 0.64154 0.68387 0.36654 0.0
C189 C 0.62126 0.67342 0.37433 0.0
C190 C 0.60191 0.68744 0.36811 0.0
C191 C 0.59931 0.72722 0.34618 0.0
H192 H 0.6114 0.74254 0.34402 0.0
H193 H 0.592 0.72219 0.32875 0.0
H194 H 0.58428 0.73241 0.35762 0.0
O195 O 0.67753 0.74027 0.36147 0.0
O196 O 0.69113 0.70961 0.38267 0.0
H197 H 0.63307 0.65147 0.40279 0.0
H198 H 0.60216 0.64796 0.3956 0.0
C199 C 0.6201 0.65093 0.38821 0.0
H200 H 0.62452 0.63597 0.37644 0.0
H201 H 0.686 0.66599 0.42374 0.0
O202 O 0.64186 0.7344 0.31164 0.0
C203 C 0.69079 0.73192 0.37782 0.0
Co204 Co 0.33344 0.16758 0.85077 0.0
Co205 Co 0.37705 0.18484 0.8776 0.0
C206 C 0.36739 0.20308 0.82874 0.0
O207 O 0.34949 0.18949 0.82733 0.0
O208 O 0.38038 0.20261 0.84701 0.0
C209 C 0.32403 0.1365 0.81713 0.0
O210 O 0.34697 0.13973 0.81557 0.0
C211 C 0.42713 0.18728 0.88308 0.0
C212 C 0.43289 0.19054 0.92143 0.0
C213 C 0.44461 0.18784 0.90008 0.0
N214 N 0.40609 0.18964 0.89372 0.0
N215 N 0.40956 0.19187 0.91666 0.0
C216 C 0.42993 0.18107 0.85753 0.0
H217 H 0.4139 0.17192 0.85097 0.0
H218 H 0.44546 0.16948 0.85471 0.0
H219 H 0.43244 0.19758 0.84715 0.0
C220 C 0.34944 0.12044 0.86864 0.0
N221 N 0.35208 0.14419 0.86631 0.0
N222 N 0.3724 0.15061 0.87529 0.0
C223 C 0.38397 0.13063 0.88232 0.0
C224 C 0.36974 0.11081 0.87813 0.0
C225 C 0.32729 0.10681 0.86372 0.0
H226 H 0.3117 0.11861 0.86333 0.0
H227 H 0.32917 0.0973 0.84674 0.0
H228 H 0.32447 0.09315 0.87757 0.0
O229 O 0.31778 0.18873 0.87364 0.0
O230 O 0.34933 0.20231 0.89295 0.0
H231 H 0.40839 0.14279 0.90835 0.0
H232 H 0.41247 0.11226 0.89975 0.0
C233 C 0.4079 0.13027 0.89336 0.0
H234 H 0.42126 0.13596 0.88019 0.0
H235 H 0.39603 0.1931 0.92913 0.0
O236 O 0.3121 0.14905 0.83144 0.0
C237 C 0.32701 0.20256 0.88886 0.0
Co238 Co 0.87304 0.81802 0.36268 0.0
Co239 Co 0.85784 0.86889 0.37471 0.0
C240 C 0.84267 0.84594 0.32916 0.0
O241 O 0.85351 0.82677 0.33433 0.0
O242 O 0.8442 0.86409 0.34245 0.0
C243 C 0.89851 0.77613 0.3758 0.0
O244 O 0.90305 0.78714 0.39564 0.0
C245 C 0.85727 0.91982 0.36878 0.0
C246 C 0.85204 0.9326 0.40522 0.0
C247 C 0.85624 0.94007 0.38231 0.0
N248 N 0.85379 0.9011 0.38299 0.0
N249 N 0.85027 0.90881 0.40471 0.0
C250 C 0.86403 0.91803 0.34332 0.0
H251 H 0.87439 0.90167 0.34025 0.0
H252 H 0.87439 0.93373 0.33754 0.0
H253 H 0.84772 0.91703 0.33255 0.0
C254 C 0.9214 0.83926 0.36763 0.0
N255 N 0.89757 0.84041 0.36908 0.0
N256 N 0.89144 0.86171 0.37592 0.0
C257 C 0.91146 0.87452 0.37981 0.0
C258 C 0.93127 0.8606 0.37484 0.0
C259 C 0.9347 0.81912 0.35704 0.0
H260 H 0.92324 0.80853 0.34528 0.0
H261 H 0.95012 0.82572 0.3468 0.0
H262 H 0.94149 0.80793 0.37154 0.0
O263 O 0.84963 0.8132 0.38804 0.0
O264 O 0.83594 0.84911 0.39495 0.0
H265 H 0.92924 0.90422 0.39589 0.0
H266 H 0.90796 0.91161 0.37347 0.0
C267 C 0.91177 0.89951 0.38841 0.0
H268 H 0.89802 0.90194 0.40211 0.0
H269 H 0.84786 0.8978 0.41933 0.0
O270 O 0.88692 0.78643 0.3595 0.0
C271 C 0.83465 0.82674 0.39777 0.0
Co272 Co 0.68794 0.23066 0.1799 0.0
Co273 Co 0.66856 0.18174 0.19428 0.0
C274 C 0.71502 0.20278 0.21442 0.0
O275 O 0.71401 0.22165 0.20192 0.0
O276 O 0.69921 0.18666 0.21249 0.0
C277 C 0.67354 0.26842 0.15197 0.0
O278 O 0.65502 0.25461 0.14962 0.0
C279 C 0.67253 0.13036 0.19203 0.0
C280 C 0.63727 0.11837 0.20386 0.0
C281 C 0.65881 0.11021 0.1955 0.0
N282 N 0.65955 0.14942 0.19768 0.0
N283 N 0.63854 0.14214 0.20486 0.0
C284 C 0.69782 0.13173 0.18433 0.0
H285 H 0.70608 0.14839 0.19045 0.0
H286 H 0.69877 0.1316 0.1648 0.0
H287 H 0.70792 0.11638 0.19122 0.0
C288 C 0.68755 0.20889 0.13205 0.0
N289 N 0.68328 0.20806 0.15551 0.0
N290 N 0.67199 0.18841 0.16071 0.0
C291 C 0.66753 0.17672 0.14024 0.0
C292 C 0.67718 0.18943 0.12128 0.0
C293 C 0.70474 0.22546 0.12049 0.0
H294 H 0.71135 0.23898 0.13292 0.0
H295 H 0.72004 0.21509 0.11398 0.0
H296 H 0.69671 0.23388 0.10482 0.0
O297 O 0.66028 0.23623 0.20005 0.0
O298 O 0.64472 0.20215 0.21123 0.0
H299 H 0.6436 0.15379 0.1217 0.0
H300 H 0.66575 0.13899 0.13878 0.0
C301 C 0.65355 0.15431 0.13855 0.0
H302 H 0.64111 0.15274 0.15361 0.0
H303 H 0.62493 0.15344 0.21011 0.0
O304 O 0.69088 0.26164 0.16463 0.0
C305 C 0.64496 0.22471 0.21172 0.0
Co306 Co 0.82128 0.18899 0.66891 0.0
Co307 Co 0.86847 0.16706 0.68445 0.0
C308 C 0.8517 0.21655 0.70028 0.0
O309 O 0.83347 0.21688 0.68702 0.0
O310 O 0.86579 0.1989 0.70024 0.0
C311 C 0.7801 0.17777 0.64293 0.0
O312 O 0.79058 0.15734 0.63962 0.0
C313 C 0.91923 0.16985 0.68396 0.0
C314 C 0.93034 0.13267 0.68865 0.0
C315 C 0.9388 0.15528 0.68419 0.0
N316 N 0.90002 0.15655 0.68812 0.0
N317 N 0.90673 0.13437 0.6913 0.0
C318 C 0.91836 0.19536 0.6768 0.0
H319 H 0.90117 0.19947 0.66839 0.0
H320 H 0.93298 0.19979 0.66447 0.0
H321 H 0.9202 0.20651 0.69278 0.0
C322 C 0.84198 0.18185 0.62096 0.0
N323 N 0.84252 0.17934 0.64468 0.0
N324 N 0.86193 0.16828 0.65073 0.0
C325 C 0.87399 0.1627 0.63068 0.0
C326 C 0.86157 0.17097 0.61098 0.0
C327 C 0.82457 0.19679 0.60796 0.0
H328 H 0.81192 0.18497 0.59897 0.0
H329 H 0.8151 0.20886 0.62007 0.0
H330 H 0.83369 0.20739 0.59414 0.0
O331 O 0.81388 0.16526 0.6938 0.0
O332 O 0.84672 0.14718 0.70459 0.0
H333 H 0.89689 0.13564 0.644 0.0
H334 H 0.89996 0.14139 0.61271 0.0
C335 C 0.89688 0.14958 0.63022 0.0
H336 H 0.91153 0.16211 0.63384 0.0
H337 H 0.89512 0.12025 0.69398 0.0
O338 O 0.79033 0.19419 0.65443 0.0
C339 C 0.82457 0.15055 0.70698 0.0
Co340 Co 0.83861 0.32549 0.16058 0.0
Co341 Co 0.8645 0.37063 0.17724 0.0
C342 C 0.81766 0.35984 0.19743 0.0
O343 O 0.81818 0.34089 0.18539 0.0
O344 O 0.83392 0.37516 0.19481 0.0
C345 C 0.80215 0.32491 0.1325 0.0
O346 O 0.80677 0.34696 0.13819 0.0
C347 C 0.87282 0.42086 0.1802 0.0
C348 C 0.91125 0.42424 0.17466 0.0
C349 C 0.8905 0.43722 0.1755 0.0
N350 N 0.88241 0.39914 0.18109 0.0
N351 N 0.90552 0.40131 0.17837 0.0
C352 C 0.84694 0.42557 0.18312 0.0
H353 H 0.84101 0.41826 0.20031 0.0
H354 H 0.83695 0.41653 0.16893 0.0
H355 H 0.84284 0.44474 0.18311 0.0
C356 C 0.85655 0.34159 0.11403 0.0
N357 N 0.85425 0.34459 0.13759 0.0
N358 N 0.86184 0.36566 0.14345 0.0
C359 C 0.86807 0.37729 0.12328 0.0
C360 C 0.86495 0.36233 0.10391 0.0
C361 C 0.85023 0.31937 0.10115 0.0
H362 H 0.84929 0.30411 0.11348 0.0
H363 H 0.83295 0.32174 0.09228 0.0
H364 H 0.86352 0.31557 0.08728 0.0
O365 O 0.86239 0.30877 0.17981 0.0
O366 O 0.87949 0.34171 0.19372 0.0
H367 H 0.89483 0.40272 0.13091 0.0
H368 H 0.87912 0.40845 0.10389 0.0
C369 C 0.87729 0.40205 0.12233 0.0
H370 H 0.8651 0.41382 0.13206 0.0
H371 H 0.91712 0.38703 0.17718 0.0
O372 O 0.81454 0.30845 0.14178 0.0
C373 C 0.87711 0.31901 0.19361 0.0
Co374 Co 0.71516 0.34992 0.66736 0.0
Co375 Co 0.67419 0.38085 0.68472 0.0
C376 C 0.68271 0.33502 0.70839 0.0
O377 O 0.70065 0.33334 0.69507 0.0
O378 O 0.66836 0.35205 0.70549 0.0
C379 C 0.71053 0.3101 0.64464 0.0
O380 O 0.68941 0.31688 0.65144 0.0
C381 C 0.62562 0.39257 0.69109 0.0
C382 C 0.62412 0.43149 0.68794 0.0
C383 C 0.61012 0.41143 0.69022 0.0
N384 N 0.64775 0.40096 0.6897 0.0
N385 N 0.64686 0.42429 0.68813 0.0
C386 C 0.61949 0.3668 0.68914 0.0
H387 H 0.63311 0.35739 0.67869 0.0
H388 H 0.60209 0.36415 0.68059 0.0
H389 H 0.61883 0.35892 0.70709 0.0
C390 C 0.69707 0.36394 0.62087 0.0
N391 N 0.69544 0.36437 0.64459 0.0
N392 N 0.67617 0.37539 0.65095 0.0
C393 C 0.66434 0.38177 0.631 0.0
C394 C 0.67715 0.37438 0.61107 0.0
C395 C 0.71846 0.35546 0.60779 0.0
H396 H 0.73436 0.35675 0.61913 0.0
H397 H 0.71597 0.33672 0.6026 0.0
H398 H 0.72128 0.36608 0.5915 0.0
O399 O 0.73532 0.37408 0.6822 0.0
O400 O 0.70527 0.39487 0.69734 0.0
H401 H 0.64318 0.412 0.6389 0.0
H402 H 0.63377 0.39601 0.61294 0.0
C403 C 0.64104 0.3942 0.63098 0.0
H404 H 0.62828 0.38412 0.64193 0.0
H405 H 0.66162 0.43515 0.6858 0.0
O406 O 0.72842 0.32271 0.65024 0.0
C407 C 0.72755 0.39076 0.69535 0.0
Co408 Co 0.68343 0.33198 0.37537 0.0
Co409 Co 0.66183 0.37902 0.35958 0.0
C410 C 0.70723 0.36449 0.33846 0.0
O411 O 0.70534 0.34544 0.35043 0.0
O412 O 0.69231 0.38105 0.34132 0.0
C413 C 0.71861 0.32262 0.40385 0.0
O414 O 0.72068 0.34517 0.39846 0.0
C415 C 0.65633 0.42982 0.35628 0.0
C416 C 0.61855 0.43477 0.36449 0.0
C417 C 0.63972 0.44691 0.36196 0.0
N418 N 0.64571 0.40852 0.35639 0.0
N419 N 0.62299 0.41164 0.36075 0.0
C420 C 0.68212 0.43339 0.35144 0.0
H421 H 0.68671 0.42482 0.33449 0.0
H422 H 0.69266 0.42483 0.36556 0.0
H423 H 0.68685 0.45239 0.35002 0.0
C424 C 0.67018 0.34932 0.42245 0.0
N425 N 0.67146 0.35238 0.39887 0.0
N426 N 0.6657 0.37409 0.39339 0.0
C427 C 0.66211 0.38616 0.41389 0.0
C428 C 0.66516 0.37079 0.43318 0.0
C429 C 0.67052 0.32556 0.43436 0.0
H430 H 0.66659 0.31131 0.42153 0.0
H431 H 0.68803 0.32228 0.44233 0.0
H432 H 0.65726 0.32501 0.44881 0.0
O433 O 0.65749 0.31781 0.35826 0.0
O434 O 0.64346 0.35161 0.34339 0.0
H435 H 0.63839 0.41515 0.40964 0.0
H436 H 0.6595 0.41906 0.43315 0.0
C437 C 0.65692 0.41205 0.4151 0.0
H438 H 0.66871 0.42172 0.40281 0.0
H439 H 0.61089 0.39785 0.36298 0.0
O440 O 0.70303 0.31023 0.39342 0.0
C441 C 0.6435 0.32883 0.34451 0.0
Co442 Co 0.72323 0.20657 0.88682 0.0
Co443 Co 0.67968 0.17854 0.87008 0.0
C444 C 0.68786 0.22609 0.85023 0.0
O445 O 0.70675 0.2263 0.86228 0.0
O446 O 0.67344 0.20899 0.85254 0.0
C447 C 0.72222 0.2441 0.91384 0.0
O448 O 0.70036 0.2378 0.90927 0.0
C449 C 0.63017 0.16939 0.86649 0.0
C450 C 0.62681 0.13053 0.8643 0.0
C451 C 0.61379 0.15126 0.86558 0.0
N452 N 0.6519 0.16003 0.8655 0.0
N453 N 0.64987 0.13676 0.86399 0.0
C454 C 0.62537 0.19497 0.87151 0.0
H455 H 0.63999 0.20275 0.88192 0.0
H456 H 0.6086 0.19719 0.88143 0.0
H457 H 0.62396 0.20475 0.85457 0.0
C458 C 0.70759 0.18853 0.93357 0.0
N459 N 0.70481 0.19025 0.90994 0.0
N460 N 0.68441 0.18115 0.90391 0.0
C461 C 0.67302 0.17426 0.92399 0.0
C462 C 0.6874 0.17878 0.94355 0.0
C463 C 0.72899 0.19683 0.94666 0.0
H464 H 0.74436 0.19843 0.93461 0.0
H465 H 0.72524 0.21425 0.95483 0.0
H466 H 0.7334 0.1843 0.96107 0.0
O467 O 0.74104 0.18358 0.86724 0.0
O468 O 0.70902 0.16495 0.85333 0.0
H469 H 0.64895 0.14733 0.91283 0.0
H470 H 0.64433 0.15725 0.94278 0.0
C471 C 0.64915 0.16293 0.92463 0.0
H472 H 0.6358 0.1757 0.91817 0.0
H473 H 0.66415 0.12512 0.86374 0.0
O474 O 0.73907 0.23201 0.90493 0.0
C475 C 0.73151 0.16845 0.85334 0.0
Co476 Co 0.8664 0.22608 0.37916 0.0
Co477 Co 0.87879 0.177 0.36086 0.0
C478 C 0.83298 0.19501 0.34822 0.0
O479 O 0.83942 0.21405 0.35851 0.0
O480 O 0.84563 0.17649 0.34978 0.0
C481 C 0.83771 0.2406 0.4132 0.0
O482 O 0.8333 0.21785 0.41113 0.0
C483 C 0.88319 0.12763 0.34601 0.0
C484 C 0.91702 0.11774 0.36257 0.0
C485 C 0.89752 0.10829 0.35117 0.0
N486 N 0.89333 0.1472 0.35485 0.0
N487 N 0.91386 0.14127 0.36414 0.0
C488 C 0.86067 0.12794 0.33225 0.0
H489 H 0.85972 0.14436 0.32151 0.0
H490 H 0.84544 0.12772 0.34461 0.0
H491 H 0.85953 0.1125 0.32025 0.0
C492 C 0.88414 0.20578 0.42455 0.0
N493 N 0.88007 0.20431 0.40106 0.0
N494 N 0.88087 0.18214 0.39458 0.0
C495 C 0.88339 0.16854 0.41426 0.0
C496 C 0.88567 0.18315 0.43409 0.0
C497 C 0.88566 0.22845 0.43811 0.0
H498 H 0.88686 0.24391 0.42608 0.0
H499 H 0.87008 0.23007 0.44991 0.0
H500 H 0.90156 0.2283 0.44948 0.0
O501 O 0.88939 0.23801 0.35631 0.0
O502 O 0.89399 0.2027 0.33973 0.0
H503 H 0.90167 0.13563 0.41306 0.0
H504 H 0.87539 0.135 0.43075 0.0
C505 C 0.88321 0.14208 0.41421 0.0
H506 H 0.87323 0.13535 0.39879 0.0
H507 H 0.92494 0.15304 0.373 0.0
O508 O 0.85209 0.25038 0.39888 0.0
C509 C 0.89695 0.22525 0.33941 0.0
Co510 Co 0.82106 0.36144 0.86516 0.0
Co511 Co 0.87046 0.38126 0.85351 0.0
C512 C 0.85101 0.33393 0.83363 0.0
O513 O 0.832 0.33413 0.84583 0.0
O514 O 0.8663 0.35055 0.83543 0.0
C515 C 0.78083 0.37597 0.88962 0.0
O516 O 0.79394 0.39488 0.8929 0.0
C517 C 0.92094 0.37536 0.85845 0.0
C518 C 0.9349 0.41139 0.85224 0.0
C519 C 0.94157 0.38864 0.85861 0.0
N520 N 0.90299 0.38957 0.85232 0.0
N521 N 0.91143 0.41104 0.84836 0.0
C522 C 0.91768 0.35035 0.86665 0.0
H523 H 0.8991 0.3472 0.87209 0.0
H524 H 0.92969 0.34634 0.88158 0.0
H525 H 0.9219 0.33818 0.85191 0.0
C526 C 0.83935 0.3637 0.91431 0.0
N527 N 0.84154 0.36759 0.89087 0.0
N528 N 0.86153 0.3786 0.88661 0.0
C529 C 0.87218 0.38309 0.90762 0.0
C530 C 0.85831 0.37394 0.92598 0.0
C531 C 0.82193 0.3469 0.92518 0.0
H532 H 0.81188 0.35583 0.93931 0.0
H533 H 0.80984 0.33934 0.91186 0.0
H534 H 0.83168 0.33218 0.93374 0.0
O535 O 0.81719 0.38773 0.8426 0.0
O536 O 0.85156 0.40438 0.83425 0.0
H537 H 0.89691 0.40963 0.8962 0.0
H538 H 0.89616 0.40463 0.92782 0.0
C539 C 0.89505 0.39607 0.91026 0.0
H540 H 0.90983 0.38331 0.9087 0.0
H541 H 0.90105 0.42564 0.84396 0.0
O542 O 0.78907 0.35859 0.87792 0.0
C543 C 0.82927 0.40299 0.83136 0.0
Co544 Co 0.16805 0.68459 0.21881 0.0
Co545 Co 0.18614 0.6589 0.17493 0.0
C546 C 0.2055 0.70635 0.18597 0.0
O547 O 0.19272 0.70605 0.20446 0.0
O548 O 0.20387 0.68963 0.17111 0.0
C549 C 0.13889 0.72033 0.22355 0.0
O550 O 0.14472 0.72005 0.20111 0.0
C551 C 0.18901 0.65212 0.12521 0.0
C552 C 0.19428 0.61375 0.12035 0.0
C553 C 0.19038 0.63472 0.10821 0.0
N554 N 0.19175 0.64208 0.14647 0.0
N555 N 0.19525 0.61913 0.14355 0.0
C556 C 0.18437 0.67799 0.12154 0.0
H557 H 0.20138 0.68771 0.12267 0.0
H558 H 0.17264 0.68477 0.13568 0.0
H559 H 0.1765 0.68172 0.10405 0.0
C560 C 0.1217 0.66776 0.20126 0.0
N561 N 0.14538 0.67004 0.19894 0.0
N562 N 0.15205 0.66179 0.17843 0.0
C563 C 0.13227 0.65533 0.16638 0.0
C564 C 0.11236 0.65907 0.1805 0.0
C565 C 0.108 0.67305 0.22327 0.0
H566 H 0.11974 0.67365 0.23886 0.0
H567 H 0.09863 0.69014 0.22113 0.0
H568 H 0.09439 0.65927 0.22642 0.0
O569 O 0.18577 0.66019 0.2356 0.0
O570 O 0.2013 0.64273 0.20384 0.0
H571 H 0.14525 0.63053 0.14103 0.0
H572 H 0.1144 0.638 0.13756 0.0
C573 C 0.13213 0.64499 0.14219 0.0
H574 H 0.13698 0.65902 0.12937 0.0
H575 H 0.19715 0.60703 0.15735 0.0
O576 O 0.14907 0.70611 0.23773 0.0
C577 C 0.19965 0.64501 0.22637 0.0
Co578 Co 0.16483 0.86545 0.32301 0.0
Co579 Co 0.18133 0.87697 0.37286 0.0
C580 C 0.19453 0.83134 0.35429 0.0
O581 O 0.18484 0.83802 0.33507 0.0
O582 O 0.19245 0.8438 0.3728 0.0
C583 C 0.13136 0.83738 0.30621 0.0
O584 O 0.13266 0.83205 0.32876 0.0
C585 C 0.18474 0.87828 0.42398 0.0
C586 C 0.18394 0.91665 0.43127 0.0
C587 C 0.18276 0.89463 0.44207 0.0
N588 N 0.1862 0.89007 0.4034 0.0
N589 N 0.18616 0.91301 0.40789 0.0
C590 C 0.18566 0.85185 0.42602 0.0
H591 H 0.20155 0.84533 0.41663 0.0
H592 H 0.16994 0.84395 0.41744 0.0
H593 H 0.18676 0.84584 0.44461 0.0
C594 C 0.11871 0.88322 0.34167 0.0
N595 N 0.14209 0.87875 0.34408 0.0
N596 N 0.14779 0.87973 0.3664 0.0
C597 C 0.12767 0.88301 0.37914 0.0
C598 C 0.10839 0.88525 0.36383 0.0
C599 C 0.10605 0.88495 0.31854 0.0
H600 H 0.11869 0.88609 0.30364 0.0
H601 H 0.09412 0.8695 0.31644 0.0
H602 H 0.09492 0.90105 0.31817 0.0
O603 O 0.18827 0.88865 0.31268 0.0
O604 O 0.20377 0.89264 0.34848 0.0
H605 H 0.13742 0.89918 0.41167 0.0
H606 H 0.10839 0.88603 0.41202 0.0
C607 C 0.12675 0.88397 0.40547 0.0
H608 H 0.13448 0.86758 0.41291 0.0
H609 H 0.18621 0.92616 0.39492 0.0
O610 O 0.1461 0.85202 0.29751 0.0
C611 C 0.20483 0.89588 0.32605 0.0
Co612 Co 0.18146 0.67193 0.82388 0.0
Co613 Co 0.16913 0.68633 0.87412 0.0
C614 C 0.21415 0.7027 0.85555 0.0
O615 O 0.20804 0.69324 0.83603 0.0
O616 O 0.20171 0.69939 0.87399 0.0
C617 C 0.21016 0.63968 0.80674 0.0
O618 O 0.21617 0.64197 0.829 0.0
C619 C 0.16807 0.68852 0.92519 0.0
C620 C 0.13051 0.6813 0.93291 0.0
C621 C 0.15257 0.68286 0.94334 0.0
N622 N 0.15592 0.68934 0.90489 0.0
N623 N 0.13337 0.68558 0.90968 0.0
C624 C 0.19414 0.69274 0.9269 0.0
H625 H 0.19868 0.70932 0.91741 0.0
H626 H 0.20377 0.67798 0.91835 0.0
H627 H 0.19998 0.69456 0.94546 0.0
C628 C 0.16588 0.62469 0.84095 0.0
N629 N 0.16924 0.64811 0.84442 0.0
N630 N 0.16805 0.65274 0.86695 0.0
C631 C 0.16563 0.63183 0.8788 0.0
C632 C 0.16448 0.6131 0.8626 0.0
C633 C 0.16138 0.61376 0.8173 0.0
H634 H 0.15697 0.62756 0.80406 0.0
H635 H 0.17704 0.60379 0.81125 0.0
H636 H 0.14655 0.60093 0.81865 0.0
O637 O 0.15697 0.69379 0.81421 0.0
O638 O 0.152 0.70839 0.8503 0.0
H639 H 0.1487 0.63504 0.91228 0.0
H640 H 0.16986 0.61124 0.91075 0.0
C641 C 0.1661 0.62965 0.90508 0.0
H642 H 0.17974 0.64164 0.91236 0.0
H643 H 0.12023 0.6841 0.89688 0.0
O644 O 0.19502 0.65378 0.79803 0.0
C645 C 0.14862 0.70954 0.82789 0.0
Co646 Co 0.36379 0.68701 0.32141 0.0
Co647 Co 0.35148 0.67006 0.37173 0.0
C648 C 0.33033 0.71538 0.34955 0.0
O649 O 0.34206 0.71335 0.33036 0.0
O650 O 0.33302 0.70049 0.36642 0.0
C651 C 0.38952 0.67184 0.28227 0.0
O652 O 0.3935 0.65372 0.29626 0.0
C653 C 0.3574 0.67557 0.42245 0.0
C654 C 0.34932 0.63965 0.43572 0.0
C655 C 0.35751 0.66169 0.44277 0.0
N656 N 0.35013 0.66211 0.40433 0.0
N657 N 0.34503 0.64076 0.41241 0.0
C658 C 0.36376 0.7012 0.41998 0.0
H659 H 0.35444 0.7092 0.40479 0.0
H660 H 0.38299 0.70296 0.41668 0.0
H661 H 0.35918 0.71103 0.43627 0.0
C662 C 0.41263 0.68706 0.34096 0.0
N663 N 0.38915 0.68313 0.34295 0.0
N664 N 0.38467 0.67299 0.36333 0.0
C665 C 0.40558 0.66897 0.37441 0.0
C666 C 0.42405 0.67775 0.36052 0.0
C667 C 0.4238 0.70242 0.3225 0.0
H668 H 0.41046 0.71017 0.31052 0.0
H669 H 0.43362 0.71699 0.33121 0.0
H670 H 0.43694 0.69211 0.31242 0.0
O671 O 0.34348 0.65908 0.31802 0.0
O672 O 0.33344 0.64553 0.35322 0.0
H673 H 0.42534 0.64634 0.39772 0.0
H674 H 0.40794 0.66856 0.41203 0.0
C675 C 0.4082 0.65583 0.3972 0.0
H676 H 0.39357 0.64296 0.39951 0.0
H677 H 0.33953 0.62668 0.40185 0.0
O678 O 0.37721 0.68922 0.28963 0.0
C679 C 0.33209 0.64454 0.3308 0.0
Co680 Co 0.35927 0.87318 0.8246 0.0
Co681 Co 0.37665 0.85839 0.87389 0.0
C682 C 0.32994 0.83989 0.853 0.0
O683 O 0.33234 0.8521 0.83409 0.0
O684 O 0.34503 0.84157 0.86972 0.0
C685 C 0.37274 0.89992 0.78465 0.0
O686 O 0.39168 0.90432 0.79721 0.0
C687 C 0.37253 0.86141 0.92478 0.0
C688 C 0.40871 0.85345 0.93689 0.0
C689 C 0.3866 0.86048 0.94476 0.0
N690 N 0.38571 0.85534 0.90604 0.0
N691 N 0.40725 0.85028 0.9134 0.0
C692 C 0.34785 0.87067 0.9229 0.0
H693 H 0.34414 0.87663 0.90461 0.0
H694 H 0.34506 0.88553 0.93535 0.0
H695 H 0.33526 0.85628 0.92746 0.0
C696 C 0.36262 0.92149 0.84525 0.0
N697 N 0.36529 0.89777 0.84661 0.0
N698 N 0.37536 0.89224 0.86668 0.0
C699 C 0.38055 0.91273 0.87822 0.0
C700 C 0.37278 0.93213 0.86486 0.0
C701 C 0.34795 0.93375 0.82707 0.0
H702 H 0.33676 0.92097 0.81734 0.0
H703 H 0.33654 0.94721 0.83559 0.0
H704 H 0.35969 0.94319 0.81466 0.0
O705 O 0.38581 0.85155 0.81899 0.0
O706 O 0.39893 0.83913 0.85353 0.0
H707 H 0.40302 0.93101 0.90285 0.0
H708 H 0.38057 0.91254 0.91586 0.0
C709 C 0.39347 0.91393 0.90116 0.0
H710 H 0.40618 0.89911 0.90257 0.0
H711 H 0.42121 0.84575 0.90226 0.0
O712 O 0.35592 0.88758 0.79334 0.0
C713 C 0.39941 0.83844 0.83103 0.0
Co714 Co 0.383 0.83794 0.22096 0.0
Co715 Co 0.36461 0.86638 0.17836 0.0
C716 C 0.34484 0.81896 0.18701 0.0
O717 O 0.35764 0.81864 0.20538 0.0
O718 O 0.34676 0.836 0.17245 0.0
C719 C 0.41011 0.8004 0.2185 0.0
O720 O 0.40475 0.80686 0.19688 0.0
C721 C 0.35774 0.87748 0.12936 0.0
C722 C 0.35578 0.91647 0.12794 0.0
C723 C 0.3557 0.89638 0.11395 0.0
N724 N 0.35862 0.88582 0.15148 0.0
N725 N 0.35725 0.90917 0.15061 0.0
C726 C 0.36186 0.85208 0.12306 0.0
H727 H 0.37326 0.84346 0.13643 0.0
H728 H 0.37032 0.85049 0.10546 0.0
H729 H 0.34464 0.84267 0.12263 0.0
C730 C 0.42908 0.8563 0.20388 0.0
N731 N 0.40537 0.85442 0.2018 0.0
N732 N 0.39863 0.86371 0.18173 0.0
C733 C 0.4183 0.87093 0.16982 0.0
C734 C 0.43837 0.8664 0.18354 0.0
C735 C 0.44287 0.84797 0.22482 0.0
H736 H 0.43125 0.84614 0.24049 0.0
H737 H 0.45109 0.83064 0.22073 0.0
H738 H 0.45731 0.86058 0.22891 0.0
O739 O 0.36428 0.86071 0.23986 0.0
O740 O 0.34923 0.87955 0.20852 0.0
H741 H 0.40679 0.89872 0.14695 0.0
H742 H 0.43604 0.88768 0.14034 0.0
C743 C 0.41798 0.88266 0.14616 0.0
H744 H 0.4101 0.87045 0.13307 0.0
H745 H 0.3582 0.92014 0.16536 0.0
O746 O 0.40171 0.81231 0.23572 0.0
C747 C 0.35008 0.87595 0.23095 0.0
Co748 Co 0.20545 0.88244 0.71849 0.0
Co749 Co 0.17644 0.8646 0.67633 0.0
C750 C 0.22308 0.84315 0.6853 0.0
O751 O 0.22379 0.85598 0.70363 0.0
O752 O 0.2063 0.84574 0.67066 0.0
C753 C 0.24391 0.90789 0.71556 0.0
O754 O 0.23798 0.90143 0.69413 0.0
C755 C 0.16596 0.86064 0.62719 0.0
C756 C 0.12707 0.85928 0.62518 0.0
C757 C 0.14733 0.86086 0.61147 0.0
N758 N 0.15729 0.85936 0.6492 0.0
N759 N 0.134 0.85818 0.64796 0.0
C760 C 0.19183 0.86219 0.62161 0.0
H761 H 0.19992 0.8446 0.62477 0.0
H762 H 0.20053 0.87503 0.63356 0.0
H763 H 0.19527 0.86714 0.603 0.0
C764 C 0.18976 0.929 0.70094 0.0
N765 N 0.19024 0.9052 0.69905 0.0
N766 N 0.18017 0.89874 0.67934 0.0
C767 C 0.17355 0.91873 0.66754 0.0
C768 C 0.17975 0.93878 0.68078 0.0
C769 C 0.19724 0.94218 0.72258 0.0
H770 H 0.19606 0.93053 0.73835 0.0
H771 H 0.21575 0.9483 0.72055 0.0
H772 H 0.18596 0.958 0.72524 0.0
O773 O 0.18176 0.86529 0.73763 0.0
O774 O 0.16245 0.85004 0.70673 0.0
H775 H 0.14625 0.90801 0.64386 0.0
H776 H 0.15872 0.93681 0.63721 0.0
C777 C 0.16269 0.9187 0.64357 0.0
H778 H 0.17521 0.91042 0.63109 0.0
H779 H 0.12282 0.85789 0.66263 0.0
O780 O 0.23132 0.90078 0.73295 0.0
C781 C 0.16602 0.8514 0.72914 0.0
Co782 Co 0.35822 0.66733 0.72005 0.0
Co783 Co 0.38376 0.68627 0.67629 0.0
C784 C 0.33559 0.70396 0.68709 0.0
O785 O 0.33599 0.69102 0.70549 0.0
O786 O 0.35259 0.70302 0.67246 0.0
C787 C 0.32355 0.63657 0.72452 0.0
O788 O 0.32418 0.64202 0.70198 0.0
C789 C 0.38979 0.6892 0.62647 0.0
C790 C 0.42751 0.69726 0.62059 0.0
C791 C 0.40664 0.69193 0.60898 0.0
N792 N 0.4001 0.69241 0.64748 0.0
N793 N 0.42265 0.69749 0.64396 0.0
C794 C 0.364 0.68384 0.62355 0.0
H795 H 0.3539 0.70049 0.62574 0.0
H796 H 0.35805 0.67128 0.63744 0.0
H797 H 0.35976 0.67663 0.60593 0.0
C798 C 0.377 0.62138 0.70308 0.0
N799 N 0.37392 0.64501 0.70051 0.0
N800 N 0.38211 0.65186 0.67998 0.0
C801 C 0.38934 0.63218 0.66811 0.0
C802 C 0.38617 0.61209 0.68238 0.0
C803 C 0.37157 0.60777 0.72521 0.0
H804 H 0.36982 0.61976 0.74052 0.0
H805 H 0.35513 0.59737 0.72274 0.0
H806 H 0.38585 0.59508 0.7293 0.0
O807 O 0.38154 0.68654 0.73693 0.0
O808 O 0.39897 0.70258 0.70522 0.0
H809 H 0.40784 0.61497 0.63956 0.0
H810 H 0.38633 0.63683 0.63094 0.0
C811 C 0.40014 0.63245 0.64405 0.0
H812 H 0.41411 0.64619 0.64309 0.0
H813 H 0.43485 0.70027 0.65744 0.0
O814 O 0.337 0.6476 0.73878 0.0
C815 C 0.39622 0.70114 0.72776 0.0
H816 H 0.28189 0.34844 0.64634 0.0
H817 H 0.26765 0.21077 0.62351 0.0
H818 H 0.3397 0.30355 0.62544 0.0
H819 H 0.20875 0.25723 0.63632 0.0
H820 H 0.29312 0.24526 0.61762 0.0
H821 H 0.25419 0.3168 0.63648 0.0
C822 C 0.28876 0.3321 0.63912 0.0
C823 C 0.31326 0.32868 0.63687 0.0
C824 C 0.27453 0.248 0.62119 0.0
C825 C 0.28143 0.29192 0.62601 0.0
C826 C 0.25989 0.22825 0.62442 0.0
C827 C 0.23597 0.23102 0.63054 0.0
C828 C 0.26537 0.27085 0.62445 0.0
C829 C 0.227 0.25417 0.63153 0.0
C830 C 0.27287 0.31395 0.63357 0.0
C831 C 0.32102 0.30707 0.62741 0.0
N832 N 0.24178 0.27315 0.62901 0.0
N833 N 0.30522 0.2894 0.62276 0.0
H834 H 0.81195 0.71392 0.13219 0.0
H835 H 0.75704 0.84407 0.14253 0.0
H836 H 0.84816 0.77318 0.1637 0.0
H837 H 0.71659 0.78148 0.12637 0.0
H838 H 0.79337 0.82066 0.13974 0.0
H839 H 0.7802 0.74058 0.12005 0.0
C840 C 0.81354 0.7326 0.13615 0.0
C841 C 0.83278 0.74115 0.14929 0.0
C842 C 0.77658 0.81219 0.13619 0.0
C843 C 0.79616 0.7719 0.13546 0.0
C844 C 0.75581 0.82566 0.13741 0.0
C845 C 0.73364 0.81475 0.13474 0.0
C846 C 0.77522 0.78766 0.1321 0.0
C847 C 0.73325 0.79064 0.12862 0.0
C848 C 0.79528 0.74782 0.12929 0.0
C849 C 0.83366 0.76563 0.15382 0.0
N850 N 0.75362 0.77789 0.12782 0.0
N851 N 0.81554 0.78004 0.14717 0.0
H852 H 0.27458 0.34371 0.8887 0.0
H853 H 0.2788 0.20375 0.89388 0.0
H854 H 0.21236 0.30087 0.89986 0.0
H855 H 0.34095 0.24697 0.90305 0.0
H856 H 0.2542 0.23889 0.89916 0.0
H857 H 0.29915 0.30905 0.89688 0.0
C858 C 0.26604 0.32716 0.89336 0.0
C859 C 0.24125 0.32533 0.89346 0.0
C860 C 0.27319 0.24067 0.90051 0.0
C861 C 0.26947 0.28521 0.90234 0.0
C862 C 0.28729 0.22053 0.89759 0.0
C863 C 0.31207 0.22228 0.898 0.0
C864 C 0.28385 0.26298 0.90337 0.0
C865 C 0.32197 0.24463 0.90274 0.0
C866 C 0.28013 0.3073 0.89798 0.0
C867 C 0.23133 0.30328 0.89959 0.0
N868 N 0.30789 0.26411 0.90478 0.0
N869 N 0.24541 0.28407 0.90335 0.0
H870 H 0.82826 0.78182 0.41518 0.0
H871 H 0.69419 0.78053 0.37493 0.0
H872 H 0.78984 0.84532 0.39782 0.0
H873 H 0.7289 0.71984 0.40547 0.0
H874 H 0.72741 0.80533 0.38718 0.0
H875 H 0.79099 0.75992 0.41654 0.0
C876 C 0.81191 0.79136 0.41239 0.0
C877 C 0.81232 0.81552 0.40633 0.0
C878 C 0.72761 0.78666 0.39156 0.0
C879 C 0.76939 0.79021 0.40701 0.0
C880 C 0.70857 0.77243 0.38457 0.0
C881 C 0.70867 0.7479 0.38895 0.0
C882 C 0.74719 0.77636 0.4028 0.0
C883 C 0.72792 0.73859 0.40159 0.0
C884 C 0.79058 0.77876 0.41297 0.0
C885 C 0.79049 0.82679 0.40271 0.0
N886 N 0.74648 0.7527 0.40771 0.0
N887 N 0.77002 0.81398 0.4026 0.0
H888 H 0.63051 0.28225 0.34765 0.0
H889 H 0.6298 0.27037 0.20848 0.0
H890 H 0.62905 0.34184 0.29996 0.0
H891 H 0.63058 0.2107 0.25603 0.0
H892 H 0.61992 0.29625 0.24145 0.0
H893 H 0.62113 0.25599 0.31485 0.0
C894 C 0.62757 0.28994 0.33037 0.0
C895 C 0.63087 0.31435 0.32658 0.0
C896 C 0.62166 0.27743 0.24467 0.0
C897 C 0.6206 0.28411 0.28863 0.0
C898 C 0.62712 0.26257 0.22577 0.0
C899 C 0.63122 0.2383 0.22948 0.0
C900 C 0.62058 0.2681 0.26764 0.0
C901 C 0.62754 0.22924 0.25229 0.0
C902 C 0.62232 0.27485 0.31158 0.0
C903 C 0.62672 0.3232 0.30378 0.0
N904 N 0.62295 0.24421 0.27058 0.0
N905 N 0.62229 0.30805 0.28561 0.0
H906 H 0.77733 0.14134 0.71211 0.0
H907 H 0.78011 0.16759 0.84931 0.0
H908 H 0.84227 0.14344 0.75155 0.0
H909 H 0.71688 0.14547 0.81314 0.0
H910 H 0.80341 0.15634 0.81466 0.0
H911 H 0.75518 0.13973 0.7492 0.0
C912 C 0.78699 0.14073 0.72858 0.0
C913 C 0.81177 0.14238 0.72859 0.0
C914 C 0.78448 0.15357 0.81444 0.0
C915 C 0.78633 0.1415 0.77143 0.0
C916 C 0.77111 0.15998 0.83429 0.0
C917 C 0.74636 0.15763 0.83429 0.0
C918 C 0.7731 0.14506 0.79412 0.0
C919 C 0.73585 0.14765 0.81413 0.0
C920 C 0.77429 0.13999 0.74982 0.0
C921 C 0.82323 0.14187 0.75059 0.0
N922 N 0.74918 0.14213 0.79483 0.0
N923 N 0.81044 0.14197 0.77106 0.0
H924 H 0.89986 0.20652 0.29471 0.0
H925 H 0.90099 0.3345 0.23297 0.0
H926 H 0.90864 0.27209 0.33254 0.0
H927 H 0.87873 0.27044 0.19814 0.0
H928 H 0.91251 0.31094 0.26737 0.0
H929 H 0.90109 0.22865 0.25752 0.0
C930 C 0.90272 0.22547 0.29526 0.0
C931 C 0.90397 0.23739 0.31697 0.0
C932 C 0.90543 0.302 0.25206 0.0
C933 C 0.90501 0.26299 0.27419 0.0
C934 C 0.89897 0.31545 0.23228 0.0
C935 C 0.88863 0.30457 0.21253 0.0
C936 C 0.90167 0.27738 0.25222 0.0
C937 C 0.88644 0.27973 0.21292 0.0
C938 C 0.90317 0.23815 0.27394 0.0
C939 C 0.90745 0.26207 0.31634 0.0
N940 N 0.89266 0.26707 0.23245 0.0
N941 N 0.90758 0.27402 0.2954 0.0
H942 H 0.78458 0.42068 0.82959 0.0
H943 H 0.77618 0.39005 0.6944 0.0
H944 H 0.84611 0.40891 0.7864 0.0
H945 H 0.71757 0.41783 0.73437 0.0
H946 H 0.80289 0.40194 0.72608 0.0
H947 H 0.76088 0.4256 0.79395 0.0
C948 C 0.79328 0.42004 0.81256 0.0
C949 C 0.8174 0.41447 0.81101 0.0
C950 C 0.78425 0.40588 0.72774 0.0
C951 C 0.79008 0.41898 0.76992 0.0
C952 C 0.76893 0.3991 0.70959 0.0
C953 C 0.74443 0.40266 0.71172 0.0
C954 C 0.77508 0.41601 0.74843 0.0
C955 C 0.73624 0.41458 0.73188 0.0
C956 C 0.77968 0.42261 0.79216 0.0
C957 C 0.82765 0.41345 0.78845 0.0
N958 N 0.75142 0.42039 0.74958 0.0
N959 N 0.81385 0.41509 0.76881 0.0
H960 H 0.24167 0.62343 0.21471 0.0
H961 H 0.28782 0.63313 0.34721 0.0
H962 H 0.19749 0.64011 0.27448 0.0
H963 H 0.33303 0.62631 0.28633 0.0
H964 H 0.25363 0.62408 0.32231 0.0
H965 H 0.27369 0.61326 0.24186 0.0
C966 C 0.23844 0.62435 0.23353 0.0
C967 C 0.21689 0.63302 0.24224 0.0
C968 C 0.27111 0.62391 0.31452 0.0
C969 C 0.2537 0.62168 0.27351 0.0
C970 C 0.2907 0.62876 0.32883 0.0
C971 C 0.31332 0.6307 0.31881 0.0
C972 C 0.27419 0.62096 0.29004 0.0
C973 C 0.31588 0.62519 0.29476 0.0
C974 C 0.25683 0.61868 0.24905 0.0
C975 C 0.21387 0.63385 0.26688 0.0
N976 N 0.29656 0.621 0.28115 0.0
N977 N 0.23213 0.62864 0.28158 0.0
H978 H 0.24957 0.89471 0.345 0.0
H979 H 0.31191 0.90314 0.21791 0.0
H980 H 0.21262 0.91085 0.28048 0.0
H981 H 0.34526 0.8729 0.27937 0.0
H982 H 0.27811 0.9143 0.24236 0.0
H983 H 0.28695 0.89532 0.3231 0.0
C984 C 0.2493 0.89911 0.32639 0.0
C985 C 0.22773 0.90264 0.31463 0.0
C986 C 0.29296 0.90551 0.25058 0.0
C987 C 0.27067 0.90295 0.28928 0.0
C988 C 0.31242 0.89922 0.23662 0.0
C989 C 0.33158 0.88682 0.24643 0.0
C990 C 0.2925 0.89952 0.27467 0.0
C991 C 0.33095 0.88229 0.27088 0.0
C992 C 0.2707 0.89917 0.31382 0.0
C993 C 0.2287 0.90792 0.29035 0.0
N994 N 0.31172 0.88842 0.28405 0.0
N995 N 0.24968 0.90768 0.27851 0.0
H996 H 0.14923 0.75463 0.84613 0.0
H997 H 0.13838 0.81296 0.71753 0.0
H998 H 0.13084 0.71588 0.78336 0.0
H999 H 0.16825 0.84876 0.77765 0.0
H1000 H 0.12686 0.78009 0.74332 0.0
H1001 H 0.14714 0.79158 0.82343 0.0
C1002 C 0.14395 0.75389 0.8278 0.0
C1003 C 0.14034 0.73197 0.81667 0.0
C1004 C 0.13561 0.7953 0.75095 0.0
C1005 C 0.13841 0.77434 0.79037 0.0
C1006 C 0.1421 0.81422 0.73621 0.0
C1007 C 0.15458 0.83372 0.74527 0.0
C1008 C 0.14155 0.79576 0.77503 0.0
C1009 C 0.15886 0.83411 0.76973 0.0
C1010 C 0.14306 0.77503 0.81474 0.0
C1011 C 0.13391 0.73228 0.7927 0.0
N1012 N 0.15261 0.81537 0.78364 0.0
N1013 N 0.13344 0.753 0.78035 0.0
H1014 H 0.40086 0.69939 0.77591 0.0
H1015 H 0.41587 0.83875 0.7857 0.0
H1016 H 0.41524 0.74469 0.71617 0.0
H1017 H 0.40793 0.79291 0.84613 0.0
H1018 H 0.42271 0.80412 0.76093 0.0
H1019 H 0.40992 0.73225 0.8023 0.0
C1020 C 0.40641 0.71611 0.76829 0.0
C1021 C 0.40705 0.71921 0.74365 0.0
C1022 C 0.42004 0.80158 0.77968 0.0
C1023 C 0.41712 0.75732 0.77404 0.0
C1024 C 0.41633 0.82142 0.79393 0.0
C1025 C 0.41125 0.81882 0.8181 0.0
C1026 C 0.41831 0.77877 0.78951 0.0
C1027 C 0.41192 0.79585 0.82767 0.0
C1028 C 0.41154 0.73495 0.78345 0.0
C1029 C 0.41447 0.74136 0.73497 0.0
N1030 N 0.41485 0.77672 0.81329 0.0
N1031 N 0.4188 0.75961 0.7501 0.0
H1032 H 0.22066 0.32668 0.79417 0.0
H1033 H 0.14815 0.22844 0.72388 0.0
H1034 H 0.14818 0.31128 0.81236 0.0
H1035 H 0.22391 0.22721 0.73165 0.0
H1036 H 0.14625 0.26086 0.75272 0.0
H1037 H 0.22046 0.29345 0.76689 0.0
C1038 C 0.20454 0.31652 0.79229 0.0
C1039 C 0.18438 0.32201 0.80576 0.0
C1040 C 0.16324 0.25331 0.74824 0.0
C1041 C 0.18414 0.28343 0.77416 0.0
C1042 C 0.16437 0.23474 0.73179 0.0
C1043 C 0.18624 0.22486 0.72525 0.0
C1044 C 0.18417 0.26252 0.75789 0.0
C1045 C 0.20661 0.234 0.73613 0.0
C1046 C 0.20454 0.29733 0.77676 0.0
C1047 C 0.16414 0.30784 0.80242 0.0
N1048 N 0.20509 0.25238 0.75159 0.0
N1049 N 0.1645 0.2893 0.78692 0.0
H1050 H 0.71391 0.71629 0.29065 0.0
H1051 H 0.81088 0.63952 0.22574 0.0
H1052 H 0.72488 0.64495 0.31576 0.0
H1053 H 0.82172 0.71246 0.24544 0.0
H1054 H 0.77543 0.6385 0.25144 0.0
H1055 H 0.74856 0.71251 0.26545 0.0
C1056 C 0.72335 0.69963 0.29069 0.0
C1057 C 0.71631 0.68094 0.3056 0.0
C1058 C 0.7858 0.65458 0.25018 0.0
C1059 C 0.75638 0.67653 0.27626 0.0
C1060 C 0.80601 0.6552 0.23553 0.0
C1061 C 0.8195 0.67609 0.23336 0.0
C1062 C 0.77868 0.67518 0.26212 0.0
C1063 C 0.81214 0.69588 0.24648 0.0
C1064 C 0.7433 0.69759 0.27632 0.0
C1065 C 0.7296 0.65987 0.30467 0.0
N1066 N 0.79221 0.69501 0.2599 0.0
N1067 N 0.74898 0.65818 0.29022 0.0
H1068 H 0.38538 0.24753 0.83578 0.0
H1069 H 0.37622 0.29539 0.70424 0.0
H1070 H 0.35558 0.20353 0.78139 0.0
H1071 H 0.35542 0.33941 0.76265 0.0
H1072 H 0.37929 0.26149 0.73136 0.0
H1073 H 0.38531 0.28118 0.80821 0.0
C1074 C 0.37931 0.24475 0.81789 0.0
C1075 C 0.3706 0.22249 0.81092 0.0
C1076 C 0.37425 0.27862 0.73823 0.0
C1077 C 0.37069 0.26112 0.77917 0.0
C1078 C 0.37265 0.29806 0.72282 0.0
C1079 C 0.3656 0.32042 0.73113 0.0
C1080 C 0.36949 0.28158 0.76235 0.0
C1081 C 0.36091 0.32258 0.75541 0.0
C1082 C 0.37906 0.26408 0.80227 0.0
C1083 C 0.36254 0.22026 0.78756 0.0
N1084 N 0.36316 0.30352 0.77017 0.0
N1085 N 0.36296 0.23922 0.7725 0.0
H1086 H 0.82503 0.80802 0.30436 0.0
H1087 H 0.73005 0.88336 0.23109 0.0
H1088 H 0.81861 0.88388 0.3103 0.0
H1089 H 0.72612 0.80753 0.23964 0.0
H1090 H 0.76395 0.88414 0.25785 0.0
H1091 H 0.79134 0.80779 0.27738 0.0
C1092 C 0.81686 0.82471 0.29971 0.0
C1093 C 0.82485 0.84602 0.30971 0.0
C1094 C 0.75556 0.86735 0.25403 0.0
C1095 C 0.78581 0.84579 0.2789 0.0
C1096 C 0.73608 0.86688 0.2388 0.0
C1097 C 0.725 0.84534 0.23308 0.0
C1098 C 0.76439 0.84609 0.26343 0.0
C1099 C 0.73385 0.82459 0.24361 0.0
C1100 C 0.7974 0.82451 0.28446 0.0
C1101 C 0.81319 0.867 0.30309 0.0
N1102 N 0.75307 0.82547 0.25805 0.0
N1103 N 0.79432 0.86635 0.28819 0.0
H1104 H 0.72808 0.16297 0.23945 0.0
H1105 H 0.80902 0.23384 0.33143 0.0
H1106 H 0.7433 0.23759 0.23333 0.0
H1107 H 0.8119 0.15786 0.3245 0.0
H1108 H 0.78087 0.23535 0.2988 0.0
H1109 H 0.75541 0.16058 0.27292 0.0
C1110 C 0.73727 0.17884 0.24498 0.0
C1111 C 0.73335 0.20052 0.23333 0.0
C1112 C 0.78752 0.21832 0.30451 0.0
C1113 C 0.76441 0.19795 0.27219 0.0
C1114 C 0.80347 0.21739 0.32338 0.0
C1115 C 0.81297 0.19566 0.33094 0.0
C1116 C 0.78065 0.19737 0.29308 0.0
C1117 C 0.80512 0.17503 0.31942 0.0
C1118 C 0.75286 0.17745 0.26417 0.0
C1119 C 0.7458 0.22045 0.24151 0.0
N1120 N 0.78949 0.1764 0.30115 0.0
N1121 N 0.76054 0.21872 0.26046 0.0
H1122 H 0.86925 0.34118 0.78966 0.0
H1123 H 0.86864 0.20981 0.74466 0.0
H1124 H 0.83816 0.28675 0.83333 0.0
H1125 H 0.84003 0.26418 0.6995 0.0
H1126 H 0.86923 0.23804 0.77743 0.0
H1127 H 0.87019 0.3133 0.75647 0.0
C1128 C 0.86301 0.32324 0.7924 0.0
C1129 C 0.85376 0.31623 0.8144 0.0
C1130 C 0.86305 0.2438 0.76027 0.0
C1131 C 0.8551 0.28427 0.77652 0.0
C1132 C 0.8629 0.22782 0.74147 0.0
C1133 C 0.85442 0.23467 0.71916 0.0
C1134 C 0.85536 0.26707 0.75669 0.0
C1135 C 0.84679 0.25816 0.71632 0.0
C1136 C 0.86336 0.30748 0.77338 0.0
C1137 C 0.84552 0.29286 0.81674 0.0
N1138 N 0.84768 0.27362 0.7348 0.0
N1139 N 0.84665 0.27762 0.79813 0.0
H1140 H 0.72231 0.40358 0.31256 0.0
H1141 H 0.78812 0.32566 0.21518 0.0
H1142 H 0.73248 0.32817 0.31882 0.0
H1143 H 0.80668 0.39909 0.22489 0.0
H1144 H 0.76235 0.32783 0.24966 0.0
H1145 H 0.74873 0.4038 0.27791 0.0
C1146 C 0.7302 0.38712 0.30686 0.0
C1147 C 0.72511 0.36583 0.31887 0.0
C1148 C 0.77194 0.34354 0.24422 0.0
C1149 C 0.7549 0.36592 0.27872 0.0
C1150 C 0.78659 0.34239 0.22431 0.0
C1151 C 0.79976 0.36223 0.21689 0.0
C1152 C 0.76993 0.36478 0.25688 0.0
C1153 C 0.79695 0.38332 0.22983 0.0
C1154 C 0.74527 0.38728 0.28703 0.0
C1155 C 0.73588 0.34507 0.3104 0.0
N1156 N 0.78232 0.38407 0.24909 0.0
N1157 N 0.74993 0.34562 0.29085 0.0
H1158 H 0.72053 0.25763 0.83344 0.0
H1159 H 0.64369 0.32476 0.73687 0.0
H1160 H 0.64824 0.23585 0.8228 0.0
H1161 H 0.71735 0.30768 0.72754 0.0
H1162 H 0.64286 0.29889 0.77221 0.0
H1163 H 0.71746 0.28382 0.79934 0.0
C1164 C 0.70383 0.25855 0.8242 0.0
C1165 C 0.68464 0.24428 0.83116 0.0
C1166 C 0.6591 0.3008 0.76224 0.0
C1167 C 0.68105 0.2747 0.79171 0.0
C1168 C 0.65961 0.31555 0.7421 0.0
C1169 C 0.6806 0.31842 0.729 0.0
C1170 C 0.67989 0.28944 0.76973 0.0
C1171 C 0.70068 0.30603 0.7368 0.0
C1172 C 0.70219 0.27346 0.80455 0.0
C1173 C 0.66354 0.24641 0.81814 0.0
N1174 N 0.69988 0.29244 0.75664 0.0
N1175 N 0.66227 0.26134 0.79908 0.0
H1176 H 0.32829 0.78865 0.2209 0.0
H1177 H 0.23181 0.71915 0.14646 0.0
H1178 H 0.31635 0.80851 0.14834 0.0
H1179 H 0.22366 0.73481 0.22046 0.0
H1180 H 0.26591 0.74646 0.14497 0.0
H1181 H 0.29406 0.76248 0.21922 0.0
C1182 C 0.31871 0.78732 0.20444 0.0
C1183 C 0.32542 0.80098 0.18472 0.0
C1184 C 0.25646 0.744 0.16143 0.0
C1185 C 0.28577 0.77061 0.18275 0.0
C1186 C 0.23698 0.72844 0.16232 0.0
C1187 C 0.22464 0.72463 0.18361 0.0
C1188 C 0.2641 0.75534 0.18212 0.0
C1189 C 0.23237 0.73716 0.20359 0.0
C1190 C 0.29896 0.77245 0.2036 0.0
C1191 C 0.31193 0.7984 0.164 0.0
N1192 N 0.25165 0.75158 0.20241 0.0
N1193 N 0.29284 0.78346 0.16351 0.0
H1194 H 0.21235 0.8076 0.31591 0.0
H1195 H 0.3053 0.72933 0.38892 0.0
H1196 H 0.2175 0.81022 0.39179 0.0
H1197 H 0.31089 0.74239 0.31408 0.0
H1198 H 0.27121 0.75601 0.39049 0.0
H1199 H 0.24549 0.77991 0.3151 0.0
C1200 C 0.22011 0.80207 0.33248 0.0
C1201 C 0.21192 0.81139 0.35397 0.0
C1202 C 0.27998 0.75314 0.37375 0.0
C1203 C 0.25039 0.77968 0.35308 0.0
C1204 C 0.29955 0.73794 0.37284 0.0
C1205 C 0.31121 0.73357 0.35134 0.0
C1206 C 0.27165 0.76388 0.35297 0.0
C1207 C 0.30271 0.74526 0.33111 0.0
C1208 C 0.23927 0.7864 0.33195 0.0
C1209 C 0.22307 0.80359 0.37478 0.0
N1210 N 0.28344 0.75965 0.3324 0.0
N1211 N 0.24168 0.78828 0.37381 0.0
H1212 H 0.23576 0.72332 0.89404 0.0
H1213 H 0.30101 0.82388 0.81745 0.0
H1214 H 0.23613 0.72458 0.81795 0.0
H1215 H 0.31666 0.81192 0.89098 0.0
H1216 H 0.27425 0.78983 0.81827 0.0
H1217 H 0.26324 0.75698 0.89404 0.0
C1218 C 0.24181 0.73042 0.87731 0.0
C1219 C 0.23355 0.72084 0.85595 0.0
C1220 C 0.28344 0.79469 0.83427 0.0
C1221 C 0.26476 0.76002 0.85588 0.0
C1222 C 0.29862 0.81435 0.8339 0.0
C1223 C 0.31123 0.82102 0.8542 0.0
C1224 C 0.28047 0.78149 0.85515 0.0
C1225 C 0.30738 0.80761 0.87487 0.0
C1226 C 0.25747 0.74976 0.87735 0.0
C1227 C 0.24204 0.73108 0.83488 0.0
N1228 N 0.2924 0.78859 0.87481 0.0
N1229 N 0.25691 0.75013 0.8354 0.0
H1230 H 0.30472 0.71944 0.72091 0.0
H1231 H 0.23473 0.81611 0.64589 0.0
H1232 H 0.32403 0.73184 0.64824 0.0
H1233 H 0.25054 0.82385 0.71988 0.0
H1234 H 0.26137 0.7815 0.64458 0.0
H1235 H 0.27777 0.75306 0.71898 0.0
C1236 C 0.30308 0.72895 0.70437 0.0
C1237 C 0.31686 0.72261 0.68471 0.0
C1238 C 0.25902 0.79094 0.66101 0.0
C1239 C 0.28563 0.76152 0.68243 0.0
C1240 C 0.24384 0.8107 0.66179 0.0
C1241 C 0.24038 0.82317 0.683 0.0
C1242 C 0.27028 0.78313 0.68174 0.0
C1243 C 0.25266 0.8151 0.70304 0.0
C1244 C 0.28776 0.74834 0.70337 0.0
C1245 C 0.31386 0.73598 0.66387 0.0
N1246 N 0.26671 0.7956 0.70196 0.0
N1247 N 0.29855 0.75472 0.66324 0.0
H1248 H 0.94578 0.76863 0.36987 0.0
H1249 H 0.92637 0.74777 0.25748 0.0
H1250 H 0.87812 0.73389 0.36682 0.0
H1251 H 0.90639 0.67615 0.27552 0.0
H1252 H 0.9392 0.75368 0.29824 0.0
H1253 H 0.95994 0.74315 0.33804 0.0
C1254 C 0.93429 0.75486 0.36335 0.0
C1255 C 0.91039 0.75406 0.36981 0.0
C1256 C 0.93292 0.73635 0.29298 0.0
C1257 C 0.92653 0.72476 0.33446 0.0
C1258 C 0.92518 0.73318 0.26988 0.0
C1259 C 0.91462 0.71177 0.26345 0.0
C1260 C 0.92929 0.71823 0.30969 0.0
C1261 C 0.91393 0.69318 0.27997 0.0
C1262 C 0.94243 0.74032 0.34528 0.0
C1263 C 0.8965 0.73537 0.36165 0.0
N1264 N 0.92031 0.69713 0.30263 0.0
N1265 N 0.9046 0.7217 0.34383 0.0
H1266 H 0.29685 0.45456 0.69507 0.0
H1267 H 0.26148 0.42929 0.80004 0.0
H1268 H 0.24985 0.39501 0.68856 0.0
H1269 H 0.18997 0.42159 0.77492 0.0
H1270 H 0.27204 0.44822 0.76274 0.0
H1271 H 0.27022 0.47187 0.72445 0.0
C1272 C 0.28035 0.44573 0.69901 0.0
C1273 C 0.27586 0.4229 0.6906 0.0
C1274 C 0.25377 0.44334 0.76577 0.0
C1275 C 0.24558 0.44248 0.72325 0.0
C1276 C 0.24791 0.43209 0.78689 0.0
C1277 C 0.22521 0.42278 0.78995 0.0
C1278 C 0.237 0.44435 0.7475 0.0
C1279 C 0.20801 0.42761 0.77279 0.0
C1280 C 0.26516 0.45567 0.7156 0.0
C1281 C 0.25407 0.41239 0.6954 0.0
N1282 N 0.21448 0.43724 0.75184 0.0
N1283 N 0.23982 0.42208 0.71192 0.0
H1284 H 0.62167 0.68038 0.27123 0.0
H1285 H 0.66863 0.73249 0.1788 0.0
H1286 H 0.61879 0.75651 0.27741 0.0
H1287 H 0.60301 0.76882 0.16697 0.0
H1288 H 0.64887 0.70672 0.20708 0.0
H1289 H 0.61225 0.68388 0.22941 0.0
C1290 C 0.61834 0.69783 0.26401 0.0
C1291 C 0.62211 0.71836 0.2775 0.0
C1292 C 0.63841 0.71962 0.19755 0.0
C1293 C 0.61049 0.72211 0.23011 0.0
C1294 C 0.64974 0.73428 0.18135 0.0
C1295 C 0.63762 0.75353 0.17178 0.0
C1296 C 0.61552 0.72553 0.20506 0.0
C1297 C 0.61319 0.75502 0.17535 0.0
C1298 C 0.61264 0.69965 0.24024 0.0
C1299 C 0.6169 0.74034 0.2674 0.0
N1300 N 0.60312 0.74223 0.19303 0.0
N1301 N 0.61181 0.74168 0.24404 0.0
H1302 H 0.27967 0.11835 0.82266 0.0
H1303 H 0.21796 0.10748 0.73572 0.0
H1304 H 0.34325 0.11035 0.78148 0.0
H1305 H 0.28241 0.13181 0.70285 0.0
H1306 H 0.24104 0.08115 0.76085 0.0
H1307 H 0.25836 0.09531 0.79387 0.0
C1308 C 0.28919 0.11146 0.80758 0.0
C1309 C 0.31266 0.11788 0.80325 0.0
C1310 C 0.25012 0.09206 0.74796 0.0
C1311 C 0.28841 0.09191 0.76984 0.0
C1312 C 0.237 0.10724 0.73377 0.0
C1313 C 0.24862 0.12331 0.7188 0.0
C1314 C 0.27484 0.09413 0.74784 0.0
C1315 C 0.27296 0.12094 0.71551 0.0
C1316 C 0.27712 0.0978 0.79121 0.0
C1317 C 0.32463 0.10713 0.7845 0.0
N1318 N 0.28542 0.1071 0.73047 0.0
N1319 N 0.31216 0.09524 0.76795 0.0
H1320 H 0.25986 0.93044 0.75532 0.0
H1321 H 0.37177 0.94784 0.77764 0.0
H1322 H 0.27759 0.91685 0.6825 0.0
H1323 H 0.36311 0.8813 0.7419 0.0
H1324 H 0.34205 0.96544 0.75153 0.0
H1325 H 0.30019 0.94456 0.76165 0.0
C1326 C 0.27205 0.93099 0.74057 0.0
C1327 C 0.26582 0.92147 0.71871 0.0
C1328 C 0.34774 0.94738 0.74861 0.0
C1329 C 0.31162 0.9375 0.72572 0.0
C1330 C 0.36442 0.93725 0.76361 0.0
C1331 C 0.36829 0.91278 0.76275 0.0
C1332 C 0.33604 0.93285 0.7324 0.0
C1333 C 0.35968 0.90008 0.74353 0.0
C1334 C 0.2949 0.93949 0.74401 0.0
C1335 C 0.282 0.92322 0.69994 0.0
N1336 N 0.34341 0.91017 0.72928 0.0
N1337 N 0.30453 0.9301 0.70411 0.0
H1338 H 0.11765 0.75571 0.19863 0.0
H1339 H 0.09634 0.80724 0.32037 0.0
H1340 H 0.11598 0.72002 0.26603 0.0
H1341 H 0.12407 0.84277 0.25874 0.0
H1342 H 0.07575 0.77945 0.29485 0.0
H1343 H 0.09309 0.78708 0.21496 0.0
C1344 C 0.11175 0.75425 0.21676 0.0
C1345 C 0.12017 0.73625 0.23161 0.0
C1346 C 0.0856 0.79389 0.2869 0.0
C1347 C 0.09205 0.77173 0.25008 0.0
C1348 C 0.09768 0.80952 0.30144 0.0
C1349 C 0.11342 0.82597 0.2915 0.0
C1350 C 0.09019 0.79437 0.26258 0.0
C1351 C 0.11333 0.82921 0.26703 0.0
C1352 C 0.0974 0.77195 0.22591 0.0
C1353 C 0.11105 0.73448 0.25448 0.0
N1354 N 0.10245 0.81298 0.25326 0.0
N1355 N 0.09789 0.7524 0.26325 0.0
H1356 H 0.23737 0.60311 0.82238 0.0
H1357 H 0.28813 0.6151 0.69998 0.0
H1358 H 0.20419 0.63069 0.75965 0.0
H1359 H 0.32402 0.61357 0.767 0.0
H1360 H 0.256 0.59192 0.71715 0.0
H1361 H 0.26235 0.57818 0.79783 0.0
C1362 C 0.23509 0.60365 0.80342 0.0
C1363 C 0.22027 0.6204 0.79275 0.0
C1364 C 0.27134 0.59585 0.72784 0.0
C1365 C 0.24868 0.5922 0.76492 0.0
C1366 C 0.28949 0.60944 0.7182 0.0
C1367 C 0.30768 0.61776 0.73275 0.0
C1368 C 0.2713 0.59138 0.7522 0.0
C1369 C 0.30936 0.60887 0.75571 0.0
C1370 C 0.249 0.58904 0.78946 0.0
C1371 C 0.2167 0.61918 0.76839 0.0
N1372 N 0.29099 0.59656 0.76497 0.0
N1373 N 0.23141 0.6058 0.75512 0.0
H1374 H 0.42516 0.77004 0.18444 0.0
H1375 H 0.37459 0.68241 0.23818 0.0
H1376 H 0.42505 0.77995 0.25995 0.0
H1377 H 0.43745 0.67041 0.27895 0.0
H1378 H 0.39695 0.70829 0.21201 0.0
H1379 H 0.43508 0.72847 0.19032 0.0
C1380 C 0.42798 0.76372 0.20227 0.0
C1381 C 0.423 0.77807 0.22189 0.0
C1382 C 0.40627 0.69918 0.22603 0.0
C1383 C 0.43512 0.73098 0.22839 0.0
C1384 C 0.39342 0.68443 0.24095 0.0
C1385 C 0.40406 0.67551 0.26129 0.0
C1386 C 0.4291 0.7062 0.23277 0.0
C1387 C 0.42847 0.67829 0.26406 0.0
C1388 C 0.43399 0.74007 0.20547 0.0
C1389 C 0.42775 0.76918 0.24442 0.0
N1390 N 0.44 0.69476 0.25086 0.0
N1391 N 0.43303 0.74591 0.24711 0.0
H1392 H 0.76427 0.26384 0.92817 0.0
H1393 H 0.77907 0.37926 0.9374 0.0
H1394 H 0.68887 0.27518 0.92884 0.0
H1395 H 0.73706 0.36129 0.87687 0.0
H1396 H 0.75828 0.34865 0.96034 0.0
H1397 H 0.7699 0.3054 0.93882 0.0
C1398 C 0.74893 0.27484 0.93124 0.0
C1399 C 0.72618 0.26644 0.92652 0.0
C1400 C 0.75268 0.35252 0.94248 0.0
C1401 C 0.73243 0.31362 0.9385 0.0
C1402 C 0.76455 0.36978 0.92936 0.0
C1403 C 0.76064 0.37132 0.905 0.0
C1404 C 0.73615 0.33809 0.93107 0.0
C1405 C 0.74106 0.35978 0.89549 0.0
C1406 C 0.75209 0.29843 0.93772 0.0
C1407 C 0.70683 0.28125 0.93135 0.0
N1408 N 0.72977 0.3431 0.90849 0.0
N1409 N 0.71041 0.30447 0.93604 0.0
H1410 H 0.73716 0.18135 0.66318 0.0
H1411 H 0.67638 0.2768 0.6382 0.0
H1412 H 0.77302 0.18813 0.59649 0.0
H1413 H 0.74928 0.29238 0.62163 0.0
H1414 H 0.68212 0.23634 0.62438 0.0
H1415 H 0.708 0.20995 0.64988 0.0
C1416 C 0.73817 0.18798 0.64524 0.0
C1417 C 0.7579 0.18329 0.63121 0.0
C1418 C 0.69655 0.24891 0.62307 0.0
C1419 C 0.72572 0.21679 0.61647 0.0
C1420 C 0.69347 0.2719 0.63116 0.0
C1421 C 0.71278 0.28757 0.63203 0.0
C1422 C 0.71901 0.24175 0.61578 0.0
C1423 C 0.73424 0.28052 0.62209 0.0
C1424 C 0.72153 0.20434 0.63758 0.0
C1425 C 0.75856 0.19222 0.60817 0.0
N1426 N 0.73692 0.25787 0.61473 0.0
N1427 N 0.74336 0.20962 0.60186 0.0
H1428 H 0.78406 0.28199 0.11826 0.0
H1429 H 0.67149 0.26556 0.1042 0.0
H1430 H 0.77362 0.35739 0.11158 0.0
H1431 H 0.68623 0.31389 0.16078 0.0
H1432 H 0.70214 0.28501 0.08026 0.0
H1433 H 0.74392 0.27579 0.10374 0.0
C1434 C 0.77362 0.29718 0.11307 0.0
C1435 C 0.78156 0.3202 0.11742 0.0
C1436 C 0.69752 0.29226 0.09732 0.0
C1437 C 0.73595 0.31332 0.10106 0.0
C1438 C 0.68025 0.28113 0.11104 0.0
C1439 C 0.67792 0.28728 0.13486 0.0
C1440 C 0.71117 0.3102 0.10754 0.0
C1441 C 0.68846 0.30814 0.14271 0.0
C1442 C 0.75086 0.29368 0.10436 0.0
C1443 C 0.76764 0.33929 0.10967 0.0
N1444 N 0.70517 0.31867 0.12917 0.0
N1445 N 0.74505 0.33548 0.10286 0.0
H1446 H 0.71718 0.27779 0.42208 0.0
H1447 H 0.80883 0.2241 0.4483 0.0
H1448 H 0.75209 0.34525 0.42996 0.0
H1449 H 0.83907 0.28848 0.42024 0.0
H1450 H 0.77875 0.24743 0.4684 0.0
H1451 H 0.74685 0.25979 0.44696 0.0
C1452 C 0.73097 0.28887 0.42938 0.0
C1453 C 0.73329 0.31258 0.42264 0.0
C1454 C 0.79224 0.25649 0.45821 0.0
C1455 C 0.7674 0.29229 0.45123 0.0
C1456 C 0.80934 0.2432 0.44664 0.0
C1457 C 0.82509 0.2544 0.43104 0.0
C1458 C 0.79055 0.28074 0.45309 0.0
C1459 C 0.82614 0.27911 0.43086 0.0
C1460 C 0.74778 0.27871 0.44408 0.0
C1461 C 0.7506 0.32648 0.43359 0.0
N1462 N 0.80851 0.29153 0.44113 0.0
N1463 N 0.76751 0.31596 0.4468 0.0
H1464 H 0.21547 0.97091 0.68454 0.0
H1465 H 0.15323 0.08692 0.6344 0.0
H1466 H 0.14259 0.96635 0.66328 0.0
H1467 H 0.20306 0.08734 0.69171 0.0
H1468 H 0.15063 0.04321 0.63804 0.0
H1469 H 0.21404 1.01377 0.67941 0.0
C1470 C 0.19909 0.97889 0.67877 0.0
C1471 C 0.17905 0.96479 0.67468 0.0
C1472 C 0.16213 0.053 0.64974 0.0
C1473 C 0.17748 1.01444 0.66808 0.0
C1474 C 0.16356 0.07794 0.64773 0.0
C1475 C 0.17899 0.09094 0.66225 0.0
C1476 C 0.17646 0.04099 0.66617 0.0
C1477 C 0.1918 0.0782 0.67932 0.0
C1478 C 0.19833 1.00345 0.67575 0.0
C1479 C 0.15857 0.97636 0.66647 0.0
N1480 N 0.19051 0.05417 0.68054 0.0
N1481 N 0.15829 1.00048 0.66342 0.0
H1482 H 0.07935 0.62848 0.19889 0.0
H1483 H 0.96905 0.70195 0.14853 0.0
H1484 H 0.08672 0.68636 0.14987 0.0
H1485 H 0.96118 0.63906 0.19088 0.0
H1486 H 1.01189 0.69536 0.14712 0.0
H1487 H 0.03624 0.63053 0.19448 0.0
C1488 C 0.07186 0.64138 0.18688 0.0
C1489 C 0.08665 0.65723 0.17467 0.0
C1490 C 1.00085 0.68284 0.15658 0.0
C1491 C 0.03712 0.66004 0.1698 0.0
C1492 C 0.97637 0.68664 0.15741 0.0
C1493 C 0.96153 0.67115 0.17001 0.0
C1494 C 1.01078 0.66343 0.1686 0.0
C1495 C 0.97196 0.65144 0.18097 0.0
C1496 C 0.04722 0.64261 0.18441 0.0
C1497 C 0.07599 0.67366 0.15944 0.0
N1498 N 0.99588 0.64829 0.18022 0.0
N1499 N 0.05195 0.6748 0.15762 0.0
H1500 H 0.36474 0.5858 0.6476 0.0
H1501 H 0.39656 0.46147 0.7079 0.0
H1502 H 0.41411 0.57914 0.70483 0.0
H1503 H 0.36573 0.46559 0.63871 0.0
H1504 H 0.40238 0.50459 0.70735 0.0
H1505 H 0.36448 0.54234 0.64355 0.0
C1506 C 0.37579 0.57524 0.65909 0.0
C1507 C 0.38916 0.58622 0.67685 0.0
C1508 C 0.3946 0.49612 0.69212 0.0
C1509 C 0.38857 0.53626 0.67271 0.0
C1510 C 0.39133 0.47145 0.69243 0.0
C1511 C 0.38093 0.45983 0.67321 0.0
C1512 C 0.38694 0.50958 0.67263 0.0
C1513 C 0.37415 0.47377 0.65376 0.0
C1514 C 0.37552 0.55038 0.65689 0.0
C1515 C 0.40302 0.57151 0.69132 0.0
N1516 N 0.37703 0.49784 0.65406 0.0
N1517 N 0.40213 0.54745 0.68915 0.0
H1518 H 0.47083 0.89631 0.20368 0.0
H1519 H 0.58276 0.82827 0.15019 0.0
H1520 H 0.46482 0.84163 0.15138 0.0
H1521 H 0.58979 0.8938 0.18809 0.0
H1522 H 0.53974 0.83285 0.15076 0.0
H1523 H 0.51401 0.89607 0.19849 0.0
C1524 C 0.4786 0.88453 0.19079 0.0
C1525 C 0.46413 0.86911 0.17779 0.0
C1526 C 0.55059 0.84637 0.15883 0.0
C1527 C 0.51381 0.86826 0.17213 0.0
C1528 C 0.57523 0.84372 0.15859 0.0
C1529 C 0.59002 0.86061 0.16921 0.0
C1530 C 0.5403 0.86596 0.17011 0.0
C1531 C 0.57915 0.88039 0.17958 0.0
C1532 C 0.50329 0.88433 0.18789 0.0
C1533 C 0.47522 0.85401 0.16156 0.0
N1534 N 0.55503 0.88239 0.18001 0.0
N1535 N 0.49929 0.85379 0.15938 0.0
H1536 H 0.1588 0.46182 0.90595 0.0
H1537 H 0.1948 0.58247 0.84123 0.0
H1538 H 0.18587 0.46582 0.83497 0.0
H1539 H 0.13883 0.58314 0.89283 0.0
H1540 H 0.19583 0.53945 0.84346 0.0
H1541 H 0.15404 0.50542 0.90568 0.0
C1542 C 0.16346 0.47173 0.89024 0.0
C1543 C 0.173 0.45997 0.87052 0.0
C1544 C 0.18321 0.54887 0.85429 0.0
C1545 C 0.16828 0.50995 0.87038 0.0
C1546 C 0.18247 0.57358 0.85289 0.0
C1547 C 0.16622 0.58667 0.86631 0.0
C1548 C 0.16792 0.53665 0.86965 0.0
C1549 C 0.15159 0.57389 0.88203 0.0
C1550 C 0.16089 0.49665 0.89016 0.0
C1551 C 0.17899 0.47396 0.85081 0.0
N1552 N 0.15276 0.54962 0.88326 0.0
N1553 N 0.1768 0.49796 0.85136 0.0
H1554 H 0.5757 0.65418 0.34492 0.0
H1555 H 0.44997 0.69427 0.39828 0.0
H1556 H 0.56917 0.71022 0.39573 0.0
H1557 H 0.45771 0.65881 0.3316 0.0
H1558 H 0.49338 0.69479 0.40235 0.0
H1559 H 0.53241 0.64993 0.34468 0.0
C1560 C 0.56514 0.66528 0.35635 0.0
C1561 C 0.57603 0.6825 0.37044 0.0
C1562 C 0.48555 0.6868 0.38689 0.0
C1563 C 0.52638 0.67788 0.37022 0.0
C1564 C 0.46079 0.6864 0.38463 0.0
C1565 C 0.4502 0.67666 0.36448 0.0
C1566 C 0.49987 0.67697 0.36908 0.0
C1567 C 0.46512 0.66677 0.34728 0.0
C1568 C 0.54043 0.66301 0.35609 0.0
C1569 C 0.56147 0.69667 0.38468 0.0
N1570 N 0.48905 0.66713 0.34999 0.0
N1571 N 0.53746 0.69406 0.38424 0.0
H1572 H 0.36055 0.07921 0.91425 0.0
H1573 H 0.38961 0.9654 0.83395 0.0
H1574 H 0.38929 0.08306 0.84405 0.0
H1575 H 0.36287 0.95893 0.90485 0.0
H1576 H 0.39135 1.00834 0.83858 0.0
H1577 H 0.36333 0.03563 0.91273 0.0
C1578 C 0.36799 0.07089 0.89875 0.0
C1579 C 0.37521 0.08485 0.87945 0.0
C1580 C 0.38514 0.99766 0.85324 0.0
C1581 C 0.37777 0.03481 0.8772 0.0
C1582 C 0.38399 0.97301 0.85054 0.0
C1583 C 0.37574 0.95835 0.86889 0.0
C1584 C 0.37795 1.00818 0.87453 0.0
C1585 C 0.36937 0.96942 0.8902 0.0
C1586 C 0.36939 0.04598 0.89778 0.0
C1587 C 0.38401 0.07306 0.85952 0.0
N1588 N 0.37042 0.99359 0.89237 0.0
N1589 N 0.38495 0.0489 0.85889 0.0
H1590 H 0.07376 0.91677 0.3502 0.0
H1591 H 0.96639 0.83441 0.39531 0.0
H1592 H 0.08344 0.8519 0.38901 0.0
H1593 H 0.95558 0.89978 0.35762 0.0
H1594 H 1.00902 0.84169 0.39479 0.0
H1595 H 0.03078 0.91224 0.35439 0.0
C1596 C 0.06686 0.9016 0.35971 0.0
C1597 C 0.08235 0.88462 0.36915 0.0
C1598 C 0.99741 0.85457 0.38672 0.0
C1599 C 0.03283 0.87927 0.37409 0.0
C1600 C 0.97297 0.85037 0.38693 0.0
C1601 C 0.95721 0.8664 0.37636 0.0
C1602 C 1.00653 0.87503 0.37576 0.0
C1603 C 0.96694 0.88698 0.36613 0.0
C1604 C 0.04225 0.89905 0.36216 0.0
C1605 C 0.07227 0.86555 0.38161 0.0
N1606 N 0.99087 0.8906 0.36595 0.0
N1607 N 0.04829 0.86332 0.38356 0.0
H1608 H 0.69204 0.1503 0.09603 0.0
H1609 H 0.65534 0.20423 0.96929 0.0
H1610 H 0.65931 0.21844 0.08709 0.0
H1611 H 0.70801 0.14996 0.97686 0.0
H1612 H 0.6508 0.20519 1.01248 0.0
H1613 H 0.69249 0.14552 0.05272 0.0
C1614 C 0.68471 0.16412 0.08498 0.0
C1615 C 0.67576 0.18487 0.09523 0.0
C1616 C 0.66319 0.19287 1.00473 0.0
C1617 C 0.67604 0.17949 0.0456 0.0
C1618 C 0.66562 0.19219 0.98004 0.0
C1619 C 0.68201 0.17694 0.96942 0.0
C1620 C 0.67705 0.17798 1.01907 0.0
C1621 C 0.69514 0.16196 0.9843 0.0
C1622 C 0.68508 0.16146 0.06025 0.0
C1623 C 0.66659 0.20225 0.07998 0.0
N1624 N 0.69239 0.16284 1.00827 0.0
N1625 N 0.66692 0.19918 0.0561 0.0
H1626 H 0.91831 0.1934 0.46856 0.0
H1627 H 0.83255 0.1555 0.57569 0.0
H1628 H 0.85056 0.16022 0.45881 0.0
H1629 H 0.90284 0.18238 0.58681 0.0
H1630 H 0.83955 0.15604 0.53307 0.0
H1631 H 0.91393 0.18845 0.51149 0.0
C1632 C 0.90262 0.18479 0.47543 0.0
C1633 C 0.88487 0.17705 0.45993 0.0
C1634 C 0.85356 0.16172 0.54473 0.0
C1635 C 0.87951 0.17155 0.50938 0.0
C1636 C 0.84953 0.1615 0.56917 0.0
C1637 C 0.86704 0.16906 0.58502 0.0
C1638 C 0.87532 0.16974 0.53568 0.0
C1639 C 0.88884 0.17627 0.57536 0.0
C1640 C 0.90011 0.18198 0.5 0.0
C1641 C 0.8649 0.1661 0.46997 0.0
N1642 N 0.89228 0.17662 0.55142 0.0
N1643 N 0.86271 0.16384 0.49391 0.0
H1644 H 0.82761 0.3917 0.95853 0.0
H1645 H 0.89628 0.34322 0.0722 0.0
H1646 H 0.89612 0.3592 0.9533 0.0
H1647 H 0.83829 0.39213 0.07655 0.0
H1648 H 0.89657 0.34801 0.02901 0.0
H1649 H 0.83092 0.39115 1.00162 0.0
C1650 C 0.84343 0.38449 0.96649 0.0
C1651 C 0.86156 0.37538 0.95222 0.0
C1652 C 0.88394 0.35792 0.03938 0.0
C1653 C 0.86546 0.37451 1.00194 0.0
C1654 C 0.8838 0.35521 0.06405 0.0
C1655 C 0.86732 0.3674 0.07803 0.0
C1656 C 0.86718 0.37264 0.02841 0.0
C1657 C 0.85144 0.38257 0.0665 0.0
C1658 C 0.84535 0.38426 0.99115 0.0
C1659 C 0.88175 0.36649 0.96358 0.0
N1660 N 0.8516 0.38457 0.04246 0.0
N1661 N 0.88305 0.36604 0.98771 0.0
H1662 H 0.6343 0.39681 0.46173 0.0
H1663 H 0.68028 0.33827 0.57956 0.0
H1664 H 0.69807 0.35537 0.46465 0.0
H1665 H 0.66087 0.4119 0.58313 0.0
H1666 H 0.67692 0.33991 0.53667 0.0
H1667 H 0.63508 0.39971 0.50535 0.0
C1668 C 0.64854 0.38851 0.4714 0.0
C1669 C 0.66591 0.37541 0.45934 0.0
C1670 C 0.6732 0.35569 0.54682 0.0
C1671 C 0.6664 0.37803 0.50916 0.0
C1672 C 0.67521 0.35483 0.57137 0.0
C1673 C 0.67129 0.37508 0.58517 0.0
C1674 C 0.66661 0.37682 0.53559 0.0
C1675 C 0.66396 0.3958 0.57334 0.0
C1676 C 0.64888 0.39008 0.49628 0.0
C1677 C 0.68379 0.36491 0.473 0.0
N1678 N 0.66186 0.39617 0.54922 0.0
N1679 N 0.68334 0.3661 0.49697 0.0
H1680 H 0.83202 0.96885 0.35248 0.0
H1681 H 0.92847 0.07141 0.35102 0.0
H1682 H 0.89489 0.96529 0.39501 0.0
H1683 H 0.85368 0.08638 0.35197 0.0
H1684 H 0.91925 0.02925 0.35604 0.0
H1685 H 0.84277 1.00955 0.34086 0.0
C1686 C 0.8481 0.97671 0.35924 0.0
C1687 C 0.86249 0.96417 0.37491 0.0
C1688 C 0.90496 0.04189 0.35454 0.0
C1689 C 0.87514 1.00981 0.36129 0.0
C1690 C 0.91015 0.06589 0.35161 0.0
C1691 C 0.89188 0.08263 0.35037 0.0
C1692 C 0.88134 0.03457 0.35593 0.0
C1693 C 0.86845 0.07438 0.3516 0.0
C1694 C 0.85422 0.99974 0.35263 0.0
C1695 C 0.88326 0.97475 0.38313 0.0
N1696 N 0.86387 0.05093 0.35425 0.0
N1697 N 0.88908 0.99703 0.37614 0.0
H1698 H 0.08002 0.38176 0.92274 0.0
H1699 H 0.96467 0.34721 0.84881 0.0
H1700 H 0.07871 0.32643 0.87059 0.0
H1701 H 0.97272 0.41352 0.88543 0.0
H1702 H 1.00417 0.33562 0.86184 0.0
H1703 H 0.0381 0.38949 0.915 0.0
C1704 C 0.07074 0.37098 0.90998 0.0
C1705 C 0.08273 0.35364 0.89707 0.0
C1706 C 0.99723 0.35264 0.86715 0.0
C1707 C 0.0351 0.3624 0.88803 0.0
C1708 C 0.97464 0.35919 0.85985 0.0
C1709 C 0.96537 0.38125 0.86626 0.0
C1710 C 1.01059 0.36824 0.88104 0.0
C1711 C 0.97929 0.39637 0.88006 0.0
C1712 C 0.04694 0.37552 0.90541 0.0
C1713 C 0.07005 0.34018 0.88066 0.0
N1714 N 1.00119 0.38956 0.88706 0.0
N1715 N 0.04692 0.34492 0.87649 0.0
H1716 H 0.61254 0.4858 0.3534 0.0
H1717 H 0.70346 0.57654 0.41212 0.0
H1718 H 0.6757 0.46365 0.38956 0.0
H1719 H 0.63391 0.5962 0.38865 0.0
H1720 H 0.69351 0.53477 0.40505 0.0
H1721 H 0.61986 0.52647 0.36658 0.0
C1722 C 0.62803 0.48956 0.36394 0.0
C1723 C 0.64403 0.47155 0.36957 0.0
C1724 C 0.68033 0.54821 0.40168 0.0
C1725 C 0.65239 0.51778 0.38502 0.0
C1726 C 0.68599 0.57195 0.40584 0.0
C1727 C 0.66957 0.58964 0.40056 0.0
C1728 C 0.65814 0.54235 0.39213 0.0
C1729 C 0.64715 0.58298 0.3925 0.0
C1730 C 0.63218 0.5127 0.37154 0.0
C1731 C 0.66352 0.47719 0.3838 0.0
N1732 N 0.64217 0.55989 0.38824 0.0
N1733 N 0.66728 0.49982 0.39084 0.0
H1734 H 0.58485 0.18057 0.84119 0.0
H1735 H 0.47318 0.15837 0.92554 0.0
H1736 H 0.58461 0.12827 0.89668 0.0
H1737 H 0.47349 0.20632 0.86624 0.0
H1738 H 0.51415 0.14748 0.91624 0.0
H1739 H 0.54364 0.1896 0.85 0.0
C1740 C 0.57592 0.17081 0.85508 0.0
C1741 C 0.58803 0.15379 0.86835 0.0
C1742 C 0.50524 0.16039 0.90528 0.0
C1743 C 0.54099 0.16418 0.87883 0.0
C1744 C 0.482 0.16675 0.91072 0.0
C1745 C 0.46997 0.18304 0.89644 0.0
C1746 C 0.51648 0.17059 0.88557 0.0
C1747 C 0.48205 0.19337 0.87742 0.0
C1748 C 0.55244 0.176 0.86019 0.0
C1749 C 0.57574 0.14147 0.88604 0.0
N1750 N 0.50459 0.18692 0.8725 0.0
N1751 N 0.55288 0.14707 0.89096 0.0
H1752 H 0.90209 0.58815 0.1529 0.0
H1753 H 0.85786 0.45427 0.1443 0.0
H1754 H 0.83327 0.56868 0.12717 0.0
H1755 H 0.91738 0.47598 0.18639 0.0
H1756 H 0.85187 0.49522 0.13219 0.0
H1757 H 0.91134 0.5464 0.15899 0.0
C1758 C 0.88899 0.575 0.14839 0.0
C1759 C 0.86672 0.58175 0.14002 0.0
C1760 C 0.86619 0.49108 0.14413 0.0
C1761 C 0.87718 0.53398 0.14676 0.0
C1762 C 0.8695 0.46772 0.15128 0.0
C1763 C 0.88754 0.46189 0.16723 0.0
C1764 C 0.88132 0.50875 0.1526 0.0
C1765 C 0.90293 0.47986 0.17452 0.0
C1766 C 0.89426 0.55119 0.15189 0.0
C1767 C 0.85055 0.56408 0.13387 0.0
N1768 N 0.89935 0.50257 0.16731 0.0
N1769 N 0.85601 0.54091 0.13759 0.0
H1770 H 0.58319 0.43024 0.65502 0.0
H1771 H 0.47123 0.35094 0.69083 0.0
H1772 H 0.57907 0.38746 0.71796 0.0
H1773 H 0.47539 0.39073 0.62591 0.0
H1774 H 0.50969 0.36657 0.70226 0.0
H1775 H 0.54217 0.41956 0.64582 0.0
C1776 C 0.57339 0.41909 0.66718 0.0
C1777 C 0.58436 0.40958 0.68719 0.0
C1778 C 0.50222 0.37199 0.68553 0.0
C1779 C 0.53793 0.39689 0.67664 0.0
C1780 C 0.48022 0.36311 0.67904 0.0
C1781 C 0.47001 0.36985 0.65757 0.0
C1782 C 0.51422 0.38766 0.67037 0.0
C1783 C 0.48272 0.38509 0.64262 0.0
C1784 C 0.55013 0.41277 0.66181 0.0
C1785 C 0.57114 0.39501 0.70229 0.0
N1786 N 0.50417 0.39358 0.64934 0.0
N1787 N 0.54868 0.38892 0.6966 0.0
H1788 H 0.68699 0.09183 0.16029 0.0
H1789 H 0.65543 0.95755 0.18906 0.0
H1790 H 0.64258 0.07118 0.21884 0.0
H1791 H 0.71463 0.97805 0.1454 0.0
H1792 H 0.64877 0.999 0.19856 0.0
H1793 H 0.69566 0.05033 0.15291 0.0
C1794 C 0.67952 0.07868 0.17201 0.0
C1795 C 0.66466 0.08512 0.19076 0.0
C1796 C 0.6634 0.9944 0.18713 0.0
C1797 C 0.67367 0.03734 0.18164 0.0
C1798 C 0.66744 0.97063 0.18192 0.0
C1799 C 0.68614 0.96416 0.167 0.0
C1800 C 0.67786 1.0119 0.17699 0.0
C1801 C 0.70015 0.98221 0.15717 0.0
C1802 C 0.68425 0.05489 0.16756 0.0
C1803 C 0.65434 0.06703 0.20436 0.0
N1804 N 0.69572 1.00525 0.16232 0.0
N1805 N 0.65903 0.04396 0.19954 0.0
H1806 H 0.96528 0.13626 0.64902 0.0
H1807 H 0.08414 0.19596 0.68372 0.0
H1808 H 0.96671 0.18925 0.70353 0.0
H1809 H 0.06783 0.1854 0.61006 0.0
H1810 H 0.0431 0.18925 0.69353 0.0
H1811 H 1.00518 0.14857 0.6367 0.0
C1812 C 0.97415 0.15035 0.65846 0.0
C1813 C 0.96301 0.16175 0.67734 0.0
C1814 C 0.04847 0.18891 0.67518 0.0
C1815 C 1.00818 0.17568 0.66358 0.0
C1816 C 0.07199 0.19323 0.66938 0.0
C1817 C 0.0796 0.19231 0.64577 0.0
C1818 C 0.03254 0.1826 0.65745 0.0
C1819 C 0.06278 0.18665 0.62845 0.0
C1820 C 0.99667 0.1575 0.65131 0.0
C1821 C 0.97491 0.18008 0.68891 0.0
N1822 N 0.04008 0.1817 0.63465 0.0
N1823 N 0.99706 0.18634 0.68202 0.0
H1824 H 0.32861 0.86925 0.08513 0.0
H1825 H 0.41404 0.88583 0.97492 0.0
H1826 H 0.3853 0.92026 0.08416 0.0
H1827 H 0.34597 0.85188 0.96983 0.0
H1828 H 0.40439 0.89794 1.01524 0.0
H1829 H 0.33453 0.86256 0.04288 0.0
C1830 C 0.34209 0.87927 0.07585 0.0
C1831 C 0.3566 0.8952 0.088 0.0
C1832 C 0.39146 0.88805 1.00522 0.0
C1833 C 0.36377 0.88741 0.03992 0.0
C1834 C 0.39703 0.88099 0.9823 0.0
C1835 C 0.38069 0.86802 0.969 0.0
C1836 C 0.36956 0.88168 1.01506 0.0
C1837 C 0.35889 0.86223 0.97933 0.0
C1838 C 0.34548 0.87545 0.05179 0.0
C1839 C 0.37374 0.90786 0.0753 0.0
N1840 N 0.35402 0.86896 1.00182 0.0
N1841 N 0.37711 0.90344 0.05196 0.0
H1842 H 0.1308 0.83557 0.57379 0.0
H1843 H 0.19861 0.91816 0.48074 0.0
H1844 H 0.16655 0.90033 0.59202 0.0
H1845 H 0.15081 0.8626 0.45975 0.0
H1846 H 0.1873 0.91134 0.5219 0.0
H1847 H 0.13759 0.84461 0.53179 0.0
C1848 C 0.13986 0.85177 0.56888 0.0
C1849 C 0.14861 0.867 0.58622 0.0
C1850 C 0.17937 0.90053 0.50831 0.0
C1851 C 0.15655 0.8774 0.5387 0.0
C1852 C 0.1859 0.90439 0.48486 0.0
C1853 C 0.17633 0.89032 0.46698 0.0
C1854 C 0.16302 0.88256 0.51386 0.0
C1855 C 0.15949 0.87306 0.47314 0.0
C1856 C 0.14381 0.8569 0.54502 0.0
C1857 C 0.16003 0.88789 0.57914 0.0
N1858 N 0.15351 0.86952 0.4961 0.0
N1859 N 0.16392 0.89235 0.55595 0.0
H1860 H 0.18934 0.65445 0.95689 0.0
H1861 H 0.14742 0.64649 0.09111 0.0
H1862 H 0.12772 0.69013 0.98389 0.0
H1863 H 0.21807 0.62901 0.06907 0.0
H1864 H 0.13749 0.65671 0.05046 0.0
H1865 H 0.1981 0.64014 0.99656 0.0
C1866 C 0.17796 0.65978 0.97127 0.0
C1867 C 0.15832 0.6744 0.96732 0.0
C1868 C 0.15514 0.65053 0.05442 0.0
C1869 C 0.1676 0.657 1.01252 0.0
C1870 C 0.16076 0.64463 0.07757 0.0
C1871 C 0.18365 0.6373 0.08331 0.0
C1872 C 0.17252 0.64887 0.03685 0.0
C1873 C 0.20026 0.63474 0.0652 0.0
C1874 C 0.1828 0.65128 0.99385 0.0
C1875 C 0.14331 0.67933 0.98633 0.0
N1876 N 0.19442 0.64071 0.04269 0.0
N1877 N 0.14831 0.67073 1.00816 0.0
H1878 H 0.39144 0.6507 0.59008 0.0
H1879 H 0.39283 0.69306 0.45626 0.0
H1880 H 0.41546 0.72055 0.57078 0.0
H1881 H 0.34339 0.64173 0.4841 0.0
H1882 H 0.40695 0.70044 0.49621 0.0
H1883 H 0.38078 0.64334 0.54904 0.0
C1884 C 0.39456 0.66444 0.57708 0.0
C1885 C 0.40368 0.68647 0.58376 0.0
C1886 C 0.39285 0.68776 0.4935 0.0
C1887 C 0.39187 0.67812 0.53682 0.0
C1888 C 0.38443 0.68378 0.4707 0.0
C1889 C 0.36619 0.66732 0.46678 0.0
C1890 C 0.38344 0.67473 0.5124 0.0
C1891 C 0.35726 0.65476 0.48625 0.0
C1892 C 0.38845 0.66026 0.55372 0.0
C1893 C 0.40814 0.70345 0.56623 0.0
N1894 N 0.36599 0.65868 0.50817 0.0
N1895 N 0.40199 0.699 0.54344 0.0
loop_
_geom_bond_atom_site_label_1
_geom_bond_atom_site_label_2
_geom_bond_distance
_geom_bond_site_symmetry_2
_ccdc_geom_bond_type
Co0 O3 1.970 . S
Co0 N17 1.989 . S
Co0 O25 1.967 . S
Co0 O32 1.920 . S
Co1 O4 1.966 . S
Co1 N10 2.022 . S
Co1 N18 1.993 . S
Co1 O26 1.941 . S
C2 O3 1.258 . S
C2 O4 1.263 . S
O3 Co0 1.970 . S
O3 C2 1.258 . S
O4 Co1 1.966 . S
O4 C2 1.263 . S
C5 O6 1.235 . S
C5 O32 1.289 . S
O6 C5 1.235 . S
C7 C9 1.400 . S
C7 N10 1.351 . S
C7 C12 1.501 . S
C8 C9 1.387 . S
C8 N11 1.341 . S
C9 C7 1.400 . S
C9 C8 1.387 . S
N10 Co1 2.022 . S
N10 C7 1.351 . S
N10 N11 1.365 . S
N11 C8 1.341 . S
N11 N10 1.365 . S
N11 H31 0.862 . S
C12 C7 1.501 . S
C12 H13 0.961 . S
C12 H14 0.961 . S
C12 H15 0.960 . S
H13 C12 0.961 . S
H14 C12 0.961 . S
H15 C12 0.960 . S
C16 N17 1.342 . S
C16 C20 1.401 . S
C16 C21 1.499 . S
N17 Co0 1.989 . S
N17 C16 1.342 . S
N17 N18 1.388 . S
N18 Co1 1.993 . S
N18 N17 1.388 . S
N18 C19 1.346 . S
C19 N18 1.346 . S
C19 C20 1.396 . S
C19 C29 1.510 . S
C20 C16 1.401 . S
C20 C19 1.396 . S
C21 C16 1.499 . S
C21 H22 0.959 . S
C21 H23 0.960 . S
C21 H24 0.961 . S
H22 C21 0.959 . S
H23 C21 0.960 . S
H24 C21 0.961 . S
O25 Co0 1.967 . S
O25 C33 1.258 . S
O26 Co1 1.941 . S
O26 C33 1.266 . S
H27 C29 0.959 . S
H28 C29 0.961 . S
C29 C19 1.510 . S
C29 H27 0.959 . S
C29 H28 0.961 . S
C29 H30 0.960 . S
H30 C29 0.960 . S
H31 N11 0.862 . S
O32 Co0 1.920 . S
O32 C5 1.289 . S
C33 O25 1.258 . S
C33 O26 1.266 . S
Co34 O37 1.970 . S
Co34 N51 1.989 . S
Co34 O59 1.967 . S
Co34 O66 1.920 . S
Co35 O38 1.966 . S
Co35 N44 2.022 . S
Co35 N52 1.993 . S
Co35 O60 1.941 . S
C36 O37 1.258 . S
C36 O38 1.263 . S
O37 Co34 1.970 . S
O37 C36 1.258 . S
O38 Co35 1.966 . S
O38 C36 1.263 . S
C39 O40 1.235 . S
C39 O66 1.289 . S
O40 C39 1.235 . S
C41 C43 1.400 . S
C41 N44 1.351 . S
C41 C46 1.501 . S
C42 C43 1.387 . S
C42 N45 1.341 . S
C43 C41 1.400 . S
C43 C42 1.387 . S
N44 Co35 2.022 . S
N44 C41 1.351 . S
N44 N45 1.365 . S
N45 C42 1.341 . S
N45 N44 1.365 . S
N45 H65 0.862 . S
C46 C41 1.501 . S
C46 H47 0.961 . S
C46 H48 0.961 . S
C46 H49 0.960 . S
H47 C46 0.961 . S
H48 C46 0.961 . S
H49 C46 0.960 . S
C50 N51 1.342 . S
C50 C54 1.401 . S
C50 C55 1.499 . S
N51 Co34 1.989 . S
N51 C50 1.342 . S
N51 N52 1.388 . S
N52 Co35 1.993 . S
N52 N51 1.388 . S
N52 C53 1.346 . S
C53 N52 1.346 . S
C53 C54 1.396 . S
C53 C63 1.510 . S
C54 C50 1.401 . S
C54 C53 1.396 . S
C55 C50 1.499 . S
C55 H56 0.959 . S
C55 H57 0.960 . S
C55 H58 0.961 . S
H56 C55 0.959 . S
H57 C55 0.960 . S
H58 C55 0.961 . S
O59 Co34 1.967 . S
O59 C67 1.258 . S
O60 Co35 1.941 . S
O60 C67 1.266 . S
H61 C63 0.959 . S
H62 C63 0.961 . S
C63 C53 1.510 . S
C63 H61 0.959 . S
C63 H62 0.961 . S
C63 H64 0.960 . S
H64 C63 0.960 . S
H65 N45 0.862 . S
O66 Co34 1.920 . S
O66 C39 1.289 . S
C67 O59 1.258 . S
C67 O60 1.266 . S
Co68 O71 1.970 . S
Co68 N85 1.989 . S
Co68 O93 1.967 . S
Co68 O100 1.920 . S
Co69 O72 1.966 . S
Co69 N78 2.022 . S
Co69 N86 1.993 . S
Co69 O94 1.941 . S
C70 O71 1.258 . S
C70 O72 1.263 . S
O71 Co68 1.970 . S
O71 C70 1.258 . S
O72 Co69 1.966 . S
O72 C70 1.263 . S
C73 O74 1.235 . S
C73 O100 1.289 . S
O74 C73 1.235 . S
C75 C77 1.400 . S
C75 N78 1.351 . S
C75 C80 1.501 . S
C76 C77 1.387 . S
C76 N79 1.341 . S
C77 C75 1.400 . S
C77 C76 1.387 . S
N78 Co69 2.022 . S
N78 C75 1.351 . S
N78 N79 1.365 . S
N79 C76 1.341 . S
N79 N78 1.365 . S
N79 H99 0.862 . S
C80 C75 1.501 . S
C80 H81 0.961 . S
C80 H82 0.961 . S
C80 H83 0.960 . S
H81 C80 0.961 . S
H82 C80 0.961 . S
H83 C80 0.960 . S
C84 N85 1.342 . S
C84 C88 1.401 . S
C84 C89 1.499 . S
N85 Co68 1.989 . S
N85 C84 1.342 . S
N85 N86 1.388 . S
N86 Co69 1.993 . S
N86 N85 1.388 . S
N86 C87 1.346 . S
C87 N86 1.346 . S
C87 C88 1.396 . S
C87 C97 1.510 . S
C88 C84 1.401 . S
C88 C87 1.396 . S
C89 C84 1.499 . S
C89 H90 0.959 . S
C89 H91 0.960 . S
C89 H92 0.961 . S
H90 C89 0.959 . S
H91 C89 0.960 . S
H92 C89 0.961 . S
O93 Co68 1.967 . S
O93 C101 1.258 . S
O94 Co69 1.941 . S
O94 C101 1.266 . S
H95 C97 0.959 . S
H96 C97 0.961 . S
C97 C87 1.510 . S
C97 H95 0.959 . S
C97 H96 0.961 . S
C97 H98 0.960 . S
H98 C97 0.960 . S
H99 N79 0.862 . S
O100 Co68 1.920 . S
O100 C73 1.289 . S
C101 O93 1.258 . S
C101 O94 1.266 . S
Co102 O105 1.970 . S
Co102 N119 1.989 . S
Co102 O127 1.967 . S
Co102 O134 1.920 . S
Co103 O106 1.966 . S
Co103 N112 2.022 . S
Co103 N120 1.993 . S
Co103 O128 1.941 . S
C104 O105 1.258 . S
C104 O106 1.263 . S
O105 Co102 1.970 . S
O105 C104 1.258 . S
O106 Co103 1.966 . S
O106 C104 1.263 . S
C107 O108 1.235 . S
C107 O134 1.289 . S
O108 C107 1.235 . S
C109 C111 1.400 . S
C109 N112 1.351 . S
C109 C114 1.501 . S
C110 C111 1.387 . S
C110 N113 1.341 . S
C111 C109 1.400 . S
C111 C110 1.387 . S
N112 Co103 2.022 . S
N112 C109 1.351 . S
N112 N113 1.365 . S
N113 C110 1.341 . S
N113 N112 1.365 . S
N113 H133 0.862 . S
C114 C109 1.501 . S
C114 H115 0.961 . S
C114 H116 0.961 . S
C114 H117 0.960 . S
H115 C114 0.961 . S
H116 C114 0.961 . S
H117 C114 0.960 . S
C118 N119 1.342 . S
C118 C122 1.401 . S
C118 C123 1.499 . S
N119 Co102 1.989 . S
N119 C118 1.342 . S
N119 N120 1.388 . S
N120 Co103 1.993 . S
N120 N119 1.388 . S
N120 C121 1.346 . S
C121 N120 1.346 . S
C121 C122 1.396 . S
C121 C131 1.510 . S
C122 C118 1.401 . S
C122 C121 1.396 . S
C123 C118 1.499 . S
C123 H124 0.959 . S
C123 H125 0.960 . S
C123 H126 0.961 . S
H124 C123 0.959 . S
H125 C123 0.960 . S
H126 C123 0.961 . S
O127 Co102 1.967 . S
O127 C135 1.258 . S
O128 Co103 1.941 . S
O128 C135 1.266 . S
H129 C131 0.959 . S
H130 C131 0.961 . S
C131 C121 1.510 . S
C131 H129 0.959 . S
C131 H130 0.961 . S
C131 H132 0.960 . S
H132 C131 0.960 . S
H133 N113 0.862 . S
O134 Co102 1.920 . S
O134 C107 1.289 . S
C135 O127 1.258 . S
C135 O128 1.266 . S
Co136 O139 1.970 . S
Co136 N153 1.989 . S
Co136 O161 1.967 . S
Co136 O168 1.920 . S
Co137 O140 1.966 . S
Co137 N146 2.022 . S
Co137 N154 1.993 . S
Co137 O162 1.941 . S
C138 O139 1.258 . S
C138 O140 1.263 . S
O139 Co136 1.970 . S
O139 C138 1.258 . S
O140 Co137 1.966 . S
O140 C138 1.263 . S
C141 O142 1.235 . S
C141 O168 1.289 . S
O142 C141 1.235 . S
C143 C145 1.400 . S
C143 N146 1.351 . S
C143 C148 1.501 . S
C144 C145 1.387 . S
C144 N147 1.341 . S
C145 C143 1.400 . S
C145 C144 1.387 . S
N146 Co137 2.022 . S
N146 C143 1.351 . S
N146 N147 1.365 . S
N147 C144 1.341 . S
N147 N146 1.365 . S
N147 H167 0.862 . S
C148 C143 1.501 . S
C148 H149 0.961 . S
C148 H150 0.961 . S
C148 H151 0.960 . S
H149 C148 0.961 . S
H150 C148 0.961 . S
H151 C148 0.960 . S
C152 N153 1.342 . S
C152 C156 1.401 . S
C152 C157 1.499 . S
N153 Co136 1.989 . S
N153 C152 1.342 . S
N153 N154 1.388 . S
N154 Co137 1.993 . S
N154 N153 1.388 . S
N154 C155 1.346 . S
C155 N154 1.346 . S
C155 C156 1.396 . S
C155 C165 1.510 . S
C156 C152 1.401 . S
C156 C155 1.396 . S
C157 C152 1.499 . S
C157 H158 0.959 . S
C157 H159 0.960 . S
C157 H160 0.961 . S
H158 C157 0.959 . S
H159 C157 0.960 . S
H160 C157 0.961 . S
O161 Co136 1.967 . S
O161 C169 1.258 . S
O162 Co137 1.941 . S
O162 C169 1.266 . S
H163 C165 0.959 . S
H164 C165 0.961 . S
C165 C155 1.510 . S
C165 H163 0.959 . S
C165 H164 0.961 . S
C165 H166 0.960 . S
H166 C165 0.960 . S
H167 N147 0.862 . S
O168 Co136 1.920 . S
O168 C141 1.289 . S
C169 O161 1.258 . S
C169 O162 1.266 . S
Co170 O173 1.970 . S
Co170 N187 1.989 . S
Co170 O195 1.967 . S
Co170 O202 1.920 . S
Co171 O174 1.966 . S
Co171 N180 2.022 . S
Co171 N188 1.993 . S
Co171 O196 1.941 . S
C172 O173 1.258 . S
C172 O174 1.263 . S
O173 Co170 1.970 . S
O173 C172 1.258 . S
O174 Co171 1.966 . S
O174 C172 1.263 . S
C175 O176 1.235 . S
C175 O202 1.289 . S
O176 C175 1.235 . S
C177 C179 1.400 . S
C177 N180 1.351 . S
C177 C182 1.501 . S
C178 C179 1.387 . S
C178 N181 1.341 . S
C179 C177 1.400 . S
C179 C178 1.387 . S
N180 Co171 2.022 . S
N180 C177 1.351 . S
N180 N181 1.365 . S
N181 C178 1.341 . S
N181 N180 1.365 . S
N181 H201 0.862 . S
C182 C177 1.501 . S
C182 H183 0.961 . S
C182 H184 0.961 . S
C182 H185 0.960 . S
H183 C182 0.961 . S
H184 C182 0.961 . S
H185 C182 0.960 . S
C186 N187 1.342 . S
C186 C190 1.401 . S
C186 C191 1.499 . S
N187 Co170 1.989 . S
N187 C186 1.342 . S
N187 N188 1.388 . S
N188 Co171 1.993 . S
N188 N187 1.388 . S
N188 C189 1.346 . S
C189 N188 1.346 . S
C189 C190 1.396 . S
C189 C199 1.510 . S
C190 C186 1.401 . S
C190 C189 1.396 . S
C191 C186 1.499 . S
C191 H192 0.959 . S
C191 H193 0.960 . S
C191 H194 0.961 . S
H192 C191 0.959 . S
H193 C191 0.960 . S
H194 C191 0.961 . S
O195 Co170 1.967 . S
O195 C203 1.258 . S
O196 Co171 1.941 . S
O196 C203 1.266 . S
H197 C199 0.959 . S
H198 C199 0.961 . S
C199 C189 1.510 . S
C199 H197 0.959 . S
C199 H198 0.961 . S
C199 H200 0.960 . S
H200 C199 0.960 . S
H201 N181 0.862 . S
O202 Co170 1.920 . S
O202 C175 1.289 . S
C203 O195 1.258 . S
C203 O196 1.266 . S
Co204 O207 1.970 . S
Co204 N221 1.989 . S
Co204 O229 1.967 . S
Co204 O236 1.920 . S
Co205 O208 1.966 . S
Co205 N214 2.022 . S
Co205 N222 1.993 . S
Co205 O230 1.941 . S
C206 O207 1.258 . S
C206 O208 1.263 . S
O207 Co204 1.970 . S
O207 C206 1.258 . S
O208 Co205 1.966 . S
O208 C206 1.263 . S
C209 O210 1.235 . S
C209 O236 1.289 . S
O210 C209 1.235 . S
C211 C213 1.400 . S
C211 N214 1.351 . S
C211 C216 1.501 . S
C212 C213 1.387 . S
C212 N215 1.341 . S
C213 C211 1.400 . S
C213 C212 1.387 . S
N214 Co205 2.022 . S
N214 C211 1.351 . S
N214 N215 1.365 . S
N215 C212 1.341 . S
N215 N214 1.365 . S
N215 H235 0.862 . S
C216 C211 1.501 . S
C216 H217 0.961 . S
C216 H218 0.961 . S
C216 H219 0.960 . S
H217 C216 0.961 . S
H218 C216 0.961 . S
H219 C216 0.960 . S
C220 N221 1.342 . S
C220 C224 1.401 . S
C220 C225 1.499 . S
N221 Co204 1.989 . S
N221 C220 1.342 . S
N221 N222 1.388 . S
N222 Co205 1.993 . S
N222 N221 1.388 . S
N222 C223 1.346 . S
C223 N222 1.346 . S
C223 C224 1.396 . S
C223 C233 1.510 . S
C224 C220 1.401 . S
C224 C223 1.396 . S
C225 C220 1.499 . S
C225 H226 0.959 . S
C225 H227 0.960 . S
C225 H228 0.961 . S
H226 C225 0.959 . S
H227 C225 0.960 . S
H228 C225 0.961 . S
O229 Co204 1.967 . S
O229 C237 1.258 . S
O230 Co205 1.941 . S
O230 C237 1.266 . S
H231 C233 0.959 . S
H232 C233 0.961 . S
C233 C223 1.510 . S
C233 H231 0.959 . S
C233 H232 0.961 . S
C233 H234 0.960 . S
H234 C233 0.960 . S
H235 N215 0.862 . S
O236 Co204 1.920 . S
O236 C209 1.289 . S
C237 O229 1.258 . S
C237 O230 1.266 . S
Co238 O241 1.970 . S
Co238 N255 1.989 . S
Co238 O263 1.967 . S
Co238 O270 1.920 . S
Co239 O242 1.966 . S
Co239 N248 2.022 . S
Co239 N256 1.993 . S
Co239 O264 1.941 . S
C240 O241 1.258 . S
C240 O242 1.263 . S
O241 Co238 1.970 . S
O241 C240 1.258 . S
O242 Co239 1.966 . S
O242 C240 1.263 . S
C243 O244 1.235 . S
C243 O270 1.289 . S
O244 C243 1.235 . S
C245 C247 1.400 . S
C245 N248 1.351 . S
C245 C250 1.501 . S
C246 C247 1.387 . S
C246 N249 1.341 . S
C247 C245 1.400 . S
C247 C246 1.387 . S
N248 Co239 2.022 . S
N248 C245 1.351 . S
N248 N249 1.365 . S
N249 C246 1.341 . S
N249 N248 1.365 . S
N249 H269 0.862 . S
C250 C245 1.501 . S
C250 H251 0.961 . S
C250 H252 0.961 . S
C250 H253 0.960 . S
H251 C250 0.961 . S
H252 C250 0.961 . S
H253 C250 0.960 . S
C254 N255 1.342 . S
C254 C258 1.401 . S
C254 C259 1.499 . S
N255 Co238 1.989 . S
N255 C254 1.342 . S
N255 N256 1.388 . S
N256 Co239 1.993 . S
N256 N255 1.388 . S
N256 C257 1.346 . S
C257 N256 1.346 . S
C257 C258 1.396 . S
C257 C267 1.510 . S
C258 C254 1.401 . S
C258 C257 1.396 . S
C259 C254 1.499 . S
C259 H260 0.959 . S
C259 H261 0.960 . S
C259 H262 0.961 . S
H260 C259 0.959 . S
H261 C259 0.960 . S
H262 C259 0.961 . S
O263 Co238 1.967 . S
O263 C271 1.258 . S
O264 Co239 1.941 . S
O264 C271 1.266 . S
H265 C267 0.959 . S
H266 C267 0.961 . S
C267 C257 1.510 . S
C267 H265 0.959 . S
C267 H266 0.961 . S
C267 H268 0.960 . S
H268 C267 0.960 . S
H269 N249 0.862 . S
O270 Co238 1.920 . S
O270 C243 1.289 . S
C271 O263 1.258 . S
C271 O264 1.266 . S
Co272 O275 1.970 . S
Co272 N289 1.989 . S
Co272 O297 1.967 . S
Co272 O304 1.920 . S
Co273 O276 1.966 . S
Co273 N282 2.022 . S
Co273 N290 1.993 . S
Co273 O298 1.941 . S
C274 O275 1.258 . S
C274 O276 1.263 . S
O275 Co272 1.970 . S
O275 C274 1.258 . S
O276 Co273 1.966 . S
O276 C274 1.263 . S
C277 O278 1.235 . S
C277 O304 1.289 . S
O278 C277 1.235 . S
C279 C281 1.400 . S
C279 N282 1.351 . S
C279 C284 1.501 . S
C280 C281 1.387 . S
C280 N283 1.341 . S
C281 C279 1.400 . S
C281 C280 1.387 . S
N282 Co273 2.022 . S
N282 C279 1.351 . S
N282 N283 1.365 . S
N283 C280 1.341 . S
N283 N282 1.365 . S
N283 H303 0.862 . S
C284 C279 1.501 . S
C284 H285 0.961 . S
C284 H286 0.961 . S
C284 H287 0.960 . S
H285 C284 0.961 . S
H286 C284 0.961 . S
H287 C284 0.960 . S
C288 N289 1.342 . S
C288 C292 1.401 . S
C288 C293 1.499 . S
N289 Co272 1.989 . S
N289 C288 1.342 . S
N289 N290 1.388 . S
N290 Co273 1.993 . S
N290 N289 1.388 . S
N290 C291 1.346 . S
C291 N290 1.346 . S
C291 C292 1.396 . S
C291 C301 1.510 . S
C292 C288 1.401 . S
C292 C291 1.396 . S
C293 C288 1.499 . S
C293 H294 0.959 . S
C293 H295 0.960 . S
C293 H296 0.961 . S
H294 C293 0.959 . S
H295 C293 0.960 . S
H296 C293 0.961 . S
O297 Co272 1.967 . S
O297 C305 1.258 . S
O298 Co273 1.941 . S
O298 C305 1.266 . S
H299 C301 0.959 . S
H300 C301 0.961 . S
C301 C291 1.510 . S
C301 H299 0.959 . S
C301 H300 0.961 . S
C301 H302 0.960 . S
H302 C301 0.960 . S
H303 N283 0.862 . S
O304 Co272 1.920 . S
O304 C277 1.289 . S
C305 O297 1.258 . S
C305 O298 1.266 . S
Co306 O309 1.970 . S
Co306 N323 1.989 . S
Co306 O331 1.967 . S
Co306 O338 1.920 . S
Co307 O310 1.966 . S
Co307 N316 2.022 . S
Co307 N324 1.993 . S
Co307 O332 1.941 . S
C308 O309 1.258 . S
C308 O310 1.263 . S
O309 Co306 1.970 . S
O309 C308 1.258 . S
O310 Co307 1.966 . S
O310 C308 1.263 . S
C311 O312 1.235 . S
C311 O338 1.289 . S
O312 C311 1.235 . S
C313 C315 1.400 . S
C313 N316 1.351 . S
C313 C318 1.501 . S
C314 C315 1.387 . S
C314 N317 1.341 . S
C315 C313 1.400 . S
C315 C314 1.387 . S
N316 Co307 2.022 . S
N316 C313 1.351 . S
N316 N317 1.365 . S
N317 C314 1.341 . S
N317 N316 1.365 . S
N317 H337 0.862 . S
C318 C313 1.501 . S
C318 H319 0.961 . S
C318 H320 0.961 . S
C318 H321 0.960 . S
H319 C318 0.961 . S
H320 C318 0.961 . S
H321 C318 0.960 . S
C322 N323 1.342 . S
C322 C326 1.401 . S
C322 C327 1.499 . S
N323 Co306 1.989 . S
N323 C322 1.342 . S
N323 N324 1.388 . S
N324 Co307 1.993 . S
N324 N323 1.388 . S
N324 C325 1.346 . S
C325 N324 1.346 . S
C325 C326 1.396 . S
C325 C335 1.510 . S
C326 C322 1.401 . S
C326 C325 1.396 . S
C327 C322 1.499 . S
C327 H328 0.959 . S
C327 H329 0.960 . S
C327 H330 0.961 . S
H328 C327 0.959 . S
H329 C327 0.960 . S
H330 C327 0.961 . S
O331 Co306 1.967 . S
O331 C339 1.258 . S
O332 Co307 1.941 . S
O332 C339 1.266 . S
H333 C335 0.959 . S
H334 C335 0.961 . S
C335 C325 1.510 . S
C335 H333 0.959 . S
C335 H334 0.961 . S
C335 H336 0.960 . S
H336 C335 0.960 . S
H337 N317 0.862 . S
O338 Co306 1.920 . S
O338 C311 1.289 . S
C339 O331 1.258 . S
C339 O332 1.266 . S
Co340 O343 1.970 . S
Co340 N357 1.989 . S
Co340 O365 1.967 . S
Co340 O372 1.920 . S
Co341 O344 1.966 . S
Co341 N350 2.022 . S
Co341 N358 1.993 . S
Co341 O366 1.941 . S
C342 O343 1.258 . S
C342 O344 1.263 . S
O343 Co340 1.970 . S
O343 C342 1.258 . S
O344 Co341 1.966 . S
O344 C342 1.263 . S
C345 O346 1.235 . S
C345 O372 1.289 . S
O346 C345 1.235 . S
C347 C349 1.400 . S
C347 N350 1.351 . S
C347 C352 1.501 . S
C348 C349 1.387 . S
C348 N351 1.341 . S
C349 C347 1.400 . S
C349 C348 1.387 . S
N350 Co341 2.022 . S
N350 C347 1.351 . S
N350 N351 1.365 . S
N351 C348 1.341 . S
N351 N350 1.365 . S
N351 H371 0.862 . S
C352 C347 1.501 . S
C352 H353 0.961 . S
C352 H354 0.961 . S
C352 H355 0.960 . S
H353 C352 0.961 . S
H354 C352 0.961 . S
H355 C352 0.960 . S
C356 N357 1.342 . S
C356 C360 1.401 . S
C356 C361 1.499 . S
N357 Co340 1.989 . S
N357 C356 1.342 . S
N357 N358 1.388 . S
N358 Co341 1.993 . S
N358 N357 1.388 . S
N358 C359 1.346 . S
C359 N358 1.346 . S
C359 C360 1.396 . S
C359 C369 1.510 . S
C360 C356 1.401 . S
C360 C359 1.396 . S
C361 C356 1.499 . S
C361 H362 0.959 . S
C361 H363 0.960 . S
C361 H364 0.961 . S
H362 C361 0.959 . S
H363 C361 0.960 . S
H364 C361 0.961 . S
O365 Co340 1.967 . S
O365 C373 1.258 . S
O366 Co341 1.941 . S
O366 C373 1.266 . S
H367 C369 0.959 . S
H368 C369 0.961 . S
C369 C359 1.510 . S
C369 H367 0.959 . S
C369 H368 0.961 . S
C369 H370 0.960 . S
H370 C369 0.960 . S
H371 N351 0.862 . S
O372 Co340 1.920 . S
O372 C345 1.289 . S
C373 O365 1.258 . S
C373 O366 1.266 . S
Co374 O377 1.970 . S
Co374 N391 1.989 . S
Co374 O399 1.967 . S
Co374 O406 1.920 . S
Co375 O378 1.966 . S
Co375 N384 2.022 . S
Co375 N392 1.993 . S
Co375 O400 1.941 . S
C376 O377 1.258 . S
C376 O378 1.263 . S
O377 Co374 1.970 . S
O377 C376 1.258 . S
O378 Co375 1.966 . S
O378 C376 1.263 . S
C379 O380 1.235 . S
C379 O406 1.289 . S
O380 C379 1.235 . S
C381 C383 1.400 . S
C381 N384 1.351 . S
C381 C386 1.501 . S
C382 C383 1.387 . S
C382 N385 1.341 . S
C383 C381 1.400 . S
C383 C382 1.387 . S
N384 Co375 2.022 . S
N384 C381 1.351 . S
N384 N385 1.365 . S
N385 C382 1.341 . S
N385 N384 1.365 . S
N385 H405 0.862 . S
C386 C381 1.501 . S
C386 H387 0.961 . S
C386 H388 0.961 . S
C386 H389 0.960 . S
H387 C386 0.961 . S
H388 C386 0.961 . S
H389 C386 0.960 . S
C390 N391 1.342 . S
C390 C394 1.401 . S
C390 C395 1.499 . S
N391 Co374 1.989 . S
N391 C390 1.342 . S
N391 N392 1.388 . S
N392 Co375 1.993 . S
N392 N391 1.388 . S
N392 C393 1.346 . S
C393 N392 1.346 . S
C393 C394 1.396 . S
C393 C403 1.510 . S
C394 C390 1.401 . S
C394 C393 1.396 . S
C395 C390 1.499 . S
C395 H396 0.959 . S
C395 H397 0.960 . S
C395 H398 0.961 . S
H396 C395 0.959 . S
H397 C395 0.960 . S
H398 C395 0.961 . S
O399 Co374 1.967 . S
O399 C407 1.258 . S
O400 Co375 1.941 . S
O400 C407 1.266 . S
H401 C403 0.959 . S
H402 C403 0.961 . S
C403 C393 1.510 . S
C403 H401 0.959 . S
C403 H402 0.961 . S
C403 H404 0.960 . S
H404 C403 0.960 . S
H405 N385 0.862 . S
O406 Co374 1.920 . S
O406 C379 1.289 . S
C407 O399 1.258 . S
C407 O400 1.266 . S
Co408 O411 1.970 . S
Co408 N425 1.989 . S
Co408 O433 1.967 . S
Co408 O440 1.920 . S
Co409 O412 1.966 . S
Co409 N418 2.022 . S
Co409 N426 1.993 . S
Co409 O434 1.941 . S
C410 O411 1.258 . S
C410 O412 1.263 . S
O411 Co408 1.970 . S
O411 C410 1.258 . S
O412 Co409 1.966 . S
O412 C410 1.263 . S
C413 O414 1.235 . S
C413 O440 1.289 . S
O414 C413 1.235 . S
C415 C417 1.400 . S
C415 N418 1.351 . S
C415 C420 1.501 . S
C416 C417 1.387 . S
C416 N419 1.341 . S
C417 C415 1.400 . S
C417 C416 1.387 . S
N418 Co409 2.022 . S
N418 C415 1.351 . S
N418 N419 1.365 . S
N419 C416 1.341 . S
N419 N418 1.365 . S
N419 H439 0.862 . S
C420 C415 1.501 . S
C420 H421 0.961 . S
C420 H422 0.961 . S
C420 H423 0.960 . S
H421 C420 0.961 . S
H422 C420 0.961 . S
H423 C420 0.960 . S
C424 N425 1.342 . S
C424 C428 1.401 . S
C424 C429 1.499 . S
N425 Co408 1.989 . S
N425 C424 1.342 . S
N425 N426 1.388 . S
N426 Co409 1.993 . S
N426 N425 1.388 . S
N426 C427 1.346 . S
C427 N426 1.346 . S
C427 C428 1.396 . S
C427 C437 1.510 . S
C428 C424 1.401 . S
C428 C427 1.396 . S
C429 C424 1.499 . S
C429 H430 0.959 . S
C429 H431 0.960 . S
C429 H432 0.961 . S
H430 C429 0.959 . S
H431 C429 0.960 . S
H432 C429 0.961 . S
O433 Co408 1.967 . S
O433 C441 1.258 . S
O434 Co409 1.941 . S
O434 C441 1.266 . S
H435 C437 0.959 . S
H436 C437 0.961 . S
C437 C427 1.510 . S
C437 H435 0.959 . S
C437 H436 0.961 . S
C437 H438 0.960 . S
H438 C437 0.960 . S
H439 N419 0.862 . S
O440 Co408 1.920 . S
O440 C413 1.289 . S
C441 O433 1.258 . S
C441 O434 1.266 . S
Co442 O445 1.970 . S
Co442 N459 1.989 . S
Co442 O467 1.967 . S
Co442 O474 1.920 . S
Co443 O446 1.966 . S
Co443 N452 2.022 . S
Co443 N460 1.993 . S
Co443 O468 1.941 . S
C444 O445 1.258 . S
C444 O446 1.263 . S
O445 Co442 1.970 . S
O445 C444 1.258 . S
O446 Co443 1.966 . S
O446 C444 1.263 . S
C447 O448 1.235 . S
C447 O474 1.289 . S
O448 C447 1.235 . S
C449 C451 1.400 . S
C449 N452 1.351 . S
C449 C454 1.501 . S
C450 C451 1.387 . S
C450 N453 1.341 . S
C451 C449 1.400 . S
C451 C450 1.387 . S
N452 Co443 2.022 . S
N452 C449 1.351 . S
N452 N453 1.365 . S
N453 C450 1.341 . S
N453 N452 1.365 . S
N453 H473 0.862 . S
C454 C449 1.501 . S
C454 H455 0.961 . S
C454 H456 0.961 . S
C454 H457 0.960 . S
H455 C454 0.961 . S
H456 C454 0.961 . S
H457 C454 0.960 . S
C458 N459 1.342 . S
C458 C462 1.401 . S
C458 C463 1.499 . S
N459 Co442 1.989 . S
N459 C458 1.342 . S
N459 N460 1.388 . S
N460 Co443 1.993 . S
N460 N459 1.388 . S
N460 C461 1.346 . S
C461 N460 1.346 . S
C461 C462 1.396 . S
C461 C471 1.510 . S
C462 C458 1.401 . S
C462 C461 1.396 . S
C463 C458 1.499 . S
C463 H464 0.959 . S
C463 H465 0.960 . S
C463 H466 0.961 . S
H464 C463 0.959 . S
H465 C463 0.960 . S
H466 C463 0.961 . S
O467 Co442 1.967 . S
O467 C475 1.258 . S
O468 Co443 1.941 . S
O468 C475 1.266 . S
H469 C471 0.959 . S
H470 C471 0.961 . S
C471 C461 1.510 . S
C471 H469 0.959 . S
C471 H470 0.961 . S
C471 H472 0.960 . S
H472 C471 0.960 . S
H473 N453 0.862 . S
O474 Co442 1.920 . S
O474 C447 1.289 . S
C475 O467 1.258 . S
C475 O468 1.266 . S
Co476 O479 1.970 . S
Co476 N493 1.989 . S
Co476 O501 1.967 . S
Co476 O508 1.920 . S
Co477 O480 1.966 . S
Co477 N486 2.022 . S
Co477 N494 1.993 . S
Co477 O502 1.941 . S
C478 O479 1.258 . S
C478 O480 1.263 . S
O479 Co476 1.970 . S
O479 C478 1.258 . S
O480 Co477 1.966 . S
O480 C478 1.263 . S
C481 O482 1.235 . S
C481 O508 1.289 . S
O482 C481 1.235 . S
C483 C485 1.400 . S
C483 N486 1.351 . S
C483 C488 1.501 . S
C484 C485 1.387 . S
C484 N487 1.341 . S
C485 C483 1.400 . S
C485 C484 1.387 . S
N486 Co477 2.022 . S
N486 C483 1.351 . S
N486 N487 1.365 . S
N487 C484 1.341 . S
N487 N486 1.365 . S
N487 H507 0.862 . S
C488 C483 1.501 . S
C488 H489 0.961 . S
C488 H490 0.961 . S
C488 H491 0.960 . S
H489 C488 0.961 . S
H490 C488 0.961 . S
H491 C488 0.960 . S
C492 N493 1.342 . S
C492 C496 1.401 . S
C492 C497 1.499 . S
N493 Co476 1.989 . S
N493 C492 1.342 . S
N493 N494 1.388 . S
N494 Co477 1.993 . S
N494 N493 1.388 . S
N494 C495 1.346 . S
C495 N494 1.346 . S
C495 C496 1.396 . S
C495 C505 1.510 . S
C496 C492 1.401 . S
C496 C495 1.396 . S
C497 C492 1.499 . S
C497 H498 0.959 . S
C497 H499 0.960 . S
C497 H500 0.961 . S
H498 C497 0.959 . S
H499 C497 0.960 . S
H500 C497 0.961 . S
O501 Co476 1.967 . S
O501 C509 1.258 . S
O502 Co477 1.941 . S
O502 C509 1.266 . S
H503 C505 0.959 . S
H504 C505 0.961 . S
C505 C495 1.510 . S
C505 H503 0.959 . S
C505 H504 0.961 . S
C505 H506 0.960 . S
H506 C505 0.960 . S
H507 N487 0.862 . S
O508 Co476 1.920 . S
O508 C481 1.289 . S
C509 O501 1.258 . S
C509 O502 1.266 . S
Co510 O513 1.970 . S
Co510 N527 1.989 . S
Co510 O535 1.967 . S
Co510 O542 1.920 . S
Co511 O514 1.966 . S
Co511 N520 2.022 . S
Co511 N528 1.993 . S
Co511 O536 1.941 . S
C512 O513 1.258 . S
C512 O514 1.263 . S
O513 Co510 1.970 . S
O513 C512 1.258 . S
O514 Co511 1.966 . S
O514 C512 1.263 . S
C515 O516 1.235 . S
C515 O542 1.289 . S
O516 C515 1.235 . S
C517 C519 1.400 . S
C517 N520 1.351 . S
C517 C522 1.501 . S
C518 C519 1.387 . S
C518 N521 1.341 . S
C519 C517 1.400 . S
C519 C518 1.387 . S
N520 Co511 2.022 . S
N520 C517 1.351 . S
N520 N521 1.365 . S
N521 C518 1.341 . S
N521 N520 1.365 . S
N521 H541 0.862 . S
C522 C517 1.501 . S
C522 H523 0.961 . S
C522 H524 0.961 . S
C522 H525 0.960 . S
H523 C522 0.961 . S
H524 C522 0.961 . S
H525 C522 0.960 . S
C526 N527 1.342 . S
C526 C530 1.401 . S
C526 C531 1.499 . S
N527 Co510 1.989 . S
N527 C526 1.342 . S
N527 N528 1.388 . S
N528 Co511 1.993 . S
N528 N527 1.388 . S
N528 C529 1.346 . S
C529 N528 1.346 . S
C529 C530 1.396 . S
C529 C539 1.510 . S
C530 C526 1.401 . S
C530 C529 1.396 . S
C531 C526 1.499 . S
C531 H532 0.959 . S
C531 H533 0.960 . S
C531 H534 0.961 . S
H532 C531 0.959 . S
H533 C531 0.960 . S
H534 C531 0.961 . S
O535 Co510 1.967 . S
O535 C543 1.258 . S
O536 Co511 1.941 . S
O536 C543 1.266 . S
H537 C539 0.959 . S
H538 C539 0.961 . S
C539 C529 1.510 . S
C539 H537 0.959 . S
C539 H538 0.961 . S
C539 H540 0.960 . S
H540 C539 0.960 . S
H541 N521 0.862 . S
O542 Co510 1.920 . S
O542 C515 1.289 . S
C543 O535 1.258 . S
C543 O536 1.266 . S
Co544 O547 1.970 . S
Co544 N561 1.989 . S
Co544 O569 1.967 . S
Co544 O576 1.920 . S
Co545 O548 1.966 . S
Co545 N554 2.022 . S
Co545 N562 1.993 . S
Co545 O570 1.941 . S
C546 O547 1.258 . S
C546 O548 1.263 . S
O547 Co544 1.970 . S
O547 C546 1.258 . S
O548 Co545 1.966 . S
O548 C546 1.263 . S
C549 O550 1.235 . S
C549 O576 1.289 . S
O550 C549 1.235 . S
C551 C553 1.400 . S
C551 N554 1.351 . S
C551 C556 1.501 . S
C552 C553 1.387 . S
C552 N555 1.341 . S
C553 C551 1.400 . S
C553 C552 1.387 . S
N554 Co545 2.022 . S
N554 C551 1.351 . S
N554 N555 1.365 . S
N555 C552 1.341 . S
N555 N554 1.365 . S
N555 H575 0.862 . S
C556 C551 1.501 . S
C556 H557 0.961 . S
C556 H558 0.961 . S
C556 H559 0.960 . S
H557 C556 0.961 . S
H558 C556 0.961 . S
H559 C556 0.960 . S
C560 N561 1.342 . S
C560 C564 1.401 . S
C560 C565 1.499 . S
N561 Co544 1.989 . S
N561 C560 1.342 . S
N561 N562 1.388 . S
N562 Co545 1.993 . S
N562 N561 1.388 . S
N562 C563 1.346 . S
C563 N562 1.346 . S
C563 C564 1.396 . S
C563 C573 1.510 . S
C564 C560 1.401 . S
C564 C563 1.396 . S
C565 C560 1.499 . S
C565 H566 0.959 . S
C565 H567 0.960 . S
C565 H568 0.961 . S
H566 C565 0.959 . S
H567 C565 0.960 . S
H568 C565 0.961 . S
O569 Co544 1.967 . S
O569 C577 1.258 . S
O570 Co545 1.941 . S
O570 C577 1.266 . S
H571 C573 0.959 . S
H572 C573 0.961 . S
C573 C563 1.510 . S
C573 H571 0.959 . S
C573 H572 0.961 . S
C573 H574 0.960 . S
H574 C573 0.960 . S
H575 N555 0.862 . S
O576 Co544 1.920 . S
O576 C549 1.289 . S
C577 O569 1.258 . S
C577 O570 1.266 . S
Co578 O581 1.970 . S
Co578 N595 1.989 . S
Co578 O603 1.967 . S
Co578 O610 1.920 . S
Co579 O582 1.966 . S
Co579 N588 2.022 . S
Co579 N596 1.993 . S
Co579 O604 1.941 . S
C580 O581 1.258 . S
C580 O582 1.263 . S
O581 Co578 1.970 . S
O581 C580 1.258 . S
O582 Co579 1.966 . S
O582 C580 1.263 . S
C583 O584 1.235 . S
C583 O610 1.289 . S
O584 C583 1.235 . S
C585 C587 1.400 . S
C585 N588 1.351 . S
C585 C590 1.501 . S
C586 C587 1.387 . S
C586 N589 1.341 . S
C587 C585 1.400 . S
C587 C586 1.387 . S
N588 Co579 2.022 . S
N588 C585 1.351 . S
N588 N589 1.365 . S
N589 C586 1.341 . S
N589 N588 1.365 . S
N589 H609 0.862 . S
C590 C585 1.501 . S
C590 H591 0.961 . S
C590 H592 0.961 . S
C590 H593 0.960 . S
H591 C590 0.961 . S
H592 C590 0.961 . S
H593 C590 0.960 . S
C594 N595 1.342 . S
C594 C598 1.401 . S
C594 C599 1.499 . S
N595 Co578 1.989 . S
N595 C594 1.342 . S
N595 N596 1.388 . S
N596 Co579 1.993 . S
N596 N595 1.388 . S
N596 C597 1.346 . S
C597 N596 1.346 . S
C597 C598 1.396 . S
C597 C607 1.510 . S
C598 C594 1.401 . S
C598 C597 1.396 . S
C599 C594 1.499 . S
C599 H600 0.959 . S
C599 H601 0.960 . S
C599 H602 0.961 . S
H600 C599 0.959 . S
H601 C599 0.960 . S
H602 C599 0.961 . S
O603 Co578 1.967 . S
O603 C611 1.258 . S
O604 Co579 1.941 . S
O604 C611 1.266 . S
H605 C607 0.959 . S
H606 C607 0.961 . S
C607 C597 1.510 . S
C607 H605 0.959 . S
C607 H606 0.961 . S
C607 H608 0.960 . S
H608 C607 0.960 . S
H609 N589 0.862 . S
O610 Co578 1.920 . S
O610 C583 1.289 . S
C611 O603 1.258 . S
C611 O604 1.266 . S
Co612 O615 1.970 . S
Co612 N629 1.989 . S
Co612 O637 1.967 . S
Co612 O644 1.920 . S
Co613 O616 1.966 . S
Co613 N622 2.022 . S
Co613 N630 1.993 . S
Co613 O638 1.941 . S
C614 O615 1.258 . S
C614 O616 1.263 . S
O615 Co612 1.970 . S
O615 C614 1.258 . S
O616 Co613 1.966 . S
O616 C614 1.263 . S
C617 O618 1.235 . S
C617 O644 1.289 . S
O618 C617 1.235 . S
C619 C621 1.400 . S
C619 N622 1.351 . S
C619 C624 1.501 . S
C620 C621 1.387 . S
C620 N623 1.341 . S
C621 C619 1.400 . S
C621 C620 1.387 . S
N622 Co613 2.022 . S
N622 C619 1.351 . S
N622 N623 1.365 . S
N623 C620 1.341 . S
N623 N622 1.365 . S
N623 H643 0.862 . S
C624 C619 1.501 . S
C624 H625 0.961 . S
C624 H626 0.961 . S
C624 H627 0.960 . S
H625 C624 0.961 . S
H626 C624 0.961 . S
H627 C624 0.960 . S
C628 N629 1.342 . S
C628 C632 1.401 . S
C628 C633 1.499 . S
N629 Co612 1.989 . S
N629 C628 1.342 . S
N629 N630 1.388 . S
N630 Co613 1.993 . S
N630 N629 1.388 . S
N630 C631 1.346 . S
C631 N630 1.346 . S
C631 C632 1.396 . S
C631 C641 1.510 . S
C632 C628 1.401 . S
C632 C631 1.396 . S
C633 C628 1.499 . S
C633 H634 0.959 . S
C633 H635 0.960 . S
C633 H636 0.961 . S
H634 C633 0.959 . S
H635 C633 0.960 . S
H636 C633 0.961 . S
O637 Co612 1.967 . S
O637 C645 1.258 . S
O638 Co613 1.941 . S
O638 C645 1.266 . S
H639 C641 0.959 . S
H640 C641 0.961 . S
C641 C631 1.510 . S
C641 H639 0.959 . S
C641 H640 0.961 . S
C641 H642 0.960 . S
H642 C641 0.960 . S
H643 N623 0.862 . S
O644 Co612 1.920 . S
O644 C617 1.289 . S
C645 O637 1.258 . S
C645 O638 1.266 . S
Co646 O649 1.970 . S
Co646 N663 1.989 . S
Co646 O671 1.967 . S
Co646 O678 1.920 . S
Co647 O650 1.966 . S
Co647 N656 2.022 . S
Co647 N664 1.993 . S
Co647 O672 1.941 . S
C648 O649 1.258 . S
C648 O650 1.263 . S
O649 Co646 1.970 . S
O649 C648 1.258 . S
O650 Co647 1.966 . S
O650 C648 1.263 . S
C651 O652 1.235 . S
C651 O678 1.289 . S
O652 C651 1.235 . S
C653 C655 1.400 . S
C653 N656 1.351 . S
C653 C658 1.501 . S
C654 C655 1.387 . S
C654 N657 1.341 . S
C655 C653 1.400 . S
C655 C654 1.387 . S
N656 Co647 2.022 . S
N656 C653 1.351 . S
N656 N657 1.365 . S
N657 C654 1.341 . S
N657 N656 1.365 . S
N657 H677 0.862 . S
C658 C653 1.501 . S
C658 H659 0.961 . S
C658 H660 0.961 . S
C658 H661 0.960 . S
H659 C658 0.961 . S
H660 C658 0.961 . S
H661 C658 0.960 . S
C662 N663 1.342 . S
C662 C666 1.401 . S
C662 C667 1.499 . S
N663 Co646 1.989 . S
N663 C662 1.342 . S
N663 N664 1.388 . S
N664 Co647 1.993 . S
N664 N663 1.388 . S
N664 C665 1.346 . S
C665 N664 1.346 . S
C665 C666 1.396 . S
C665 C675 1.510 . S
C666 C662 1.401 . S
C666 C665 1.396 . S
C667 C662 1.499 . S
C667 H668 0.959 . S
C667 H669 0.960 . S
C667 H670 0.961 . S
H668 C667 0.959 . S
H669 C667 0.960 . S
H670 C667 0.961 . S
O671 Co646 1.967 . S
O671 C679 1.258 . S
O672 Co647 1.941 . S
O672 C679 1.266 . S
H673 C675 0.959 . S
H674 C675 0.961 . S
C675 C665 1.510 . S
C675 H673 0.959 . S
C675 H674 0.961 . S
C675 H676 0.960 . S
H676 C675 0.960 . S
H677 N657 0.862 . S
O678 Co646 1.920 . S
O678 C651 1.289 . S
C679 O671 1.258 . S
C679 O672 1.266 . S
Co680 O683 1.970 . S
Co680 N697 1.989 . S
Co680 O705 1.967 . S
Co680 O712 1.920 . S
Co681 O684 1.966 . S
Co681 N690 2.022 . S
Co681 N698 1.993 . S
Co681 O706 1.941 . S
C682 O683 1.258 . S
C682 O684 1.263 . S
O683 Co680 1.970 . S
O683 C682 1.258 . S
O684 Co681 1.966 . S
O684 C682 1.263 . S
C685 O686 1.235 . S
C685 O712 1.289 . S
O686 C685 1.235 . S
C687 C689 1.400 . S
C687 N690 1.351 . S
C687 C692 1.501 . S
C688 C689 1.387 . S
C688 N691 1.341 . S
C689 C687 1.400 . S
C689 C688 1.387 . S
N690 Co681 2.022 . S
N690 C687 1.351 . S
N690 N691 1.365 . S
N691 C688 1.341 . S
N691 N690 1.365 . S
N691 H711 0.862 . S
C692 C687 1.501 . S
C692 H693 0.961 . S
C692 H694 0.961 . S
C692 H695 0.960 . S
H693 C692 0.961 . S
H694 C692 0.961 . S
H695 C692 0.960 . S
C696 N697 1.342 . S
C696 C700 1.401 . S
C696 C701 1.499 . S
N697 Co680 1.989 . S
N697 C696 1.342 . S
N697 N698 1.388 . S
N698 Co681 1.993 . S
N698 N697 1.388 . S
N698 C699 1.346 . S
C699 N698 1.346 . S
C699 C700 1.396 . S
C699 C709 1.510 . S
C700 C696 1.401 . S
C700 C699 1.396 . S
C701 C696 1.499 . S
C701 H702 0.959 . S
C701 H703 0.960 . S
C701 H704 0.961 . S
H702 C701 0.959 . S
H703 C701 0.960 . S
H704 C701 0.961 . S
O705 Co680 1.967 . S
O705 C713 1.258 . S
O706 Co681 1.941 . S
O706 C713 1.266 . S
H707 C709 0.959 . S
H708 C709 0.961 . S
C709 C699 1.510 . S
C709 H707 0.959 . S
C709 H708 0.961 . S
C709 H710 0.960 . S
H710 C709 0.960 . S
H711 N691 0.862 . S
O712 Co680 1.920 . S
O712 C685 1.289 . S
C713 O705 1.258 . S
C713 O706 1.266 . S
Co714 O717 1.970 . S
Co714 N731 1.989 . S
Co714 O739 1.967 . S
Co714 O746 1.920 . S
Co715 O718 1.966 . S
Co715 N724 2.022 . S
Co715 N732 1.993 . S
Co715 O740 1.941 . S
C716 O717 1.258 . S
C716 O718 1.263 . S
O717 Co714 1.970 . S
O717 C716 1.258 . S
O718 Co715 1.966 . S
O718 C716 1.263 . S
C719 O720 1.235 . S
C719 O746 1.289 . S
O720 C719 1.235 . S
C721 C723 1.400 . S
C721 N724 1.351 . S
C721 C726 1.501 . S
C722 C723 1.387 . S
C722 N725 1.341 . S
C723 C721 1.400 . S
C723 C722 1.387 . S
N724 Co715 2.022 . S
N724 C721 1.351 . S
N724 N725 1.365 . S
N725 C722 1.341 . S
N725 N724 1.365 . S
N725 H745 0.862 . S
C726 C721 1.501 . S
C726 H727 0.961 . S
C726 H728 0.961 . S
C726 H729 0.960 . S
H727 C726 0.961 . S
H728 C726 0.961 . S
H729 C726 0.960 . S
C730 N731 1.342 . S
C730 C734 1.401 . S
C730 C735 1.499 . S
N731 Co714 1.989 . S
N731 C730 1.342 . S
N731 N732 1.388 . S
N732 Co715 1.993 . S
N732 N731 1.388 . S
N732 C733 1.346 . S
C733 N732 1.346 . S
C733 C734 1.396 . S
C733 C743 1.510 . S
C734 C730 1.401 . S
C734 C733 1.396 . S
C735 C730 1.499 . S
C735 H736 0.959 . S
C735 H737 0.960 . S
C735 H738 0.961 . S
H736 C735 0.959 . S
H737 C735 0.960 . S
H738 C735 0.961 . S
O739 Co714 1.967 . S
O739 C747 1.258 . S
O740 Co715 1.941 . S
O740 C747 1.266 . S
H741 C743 0.959 . S
H742 C743 0.961 . S
C743 C733 1.510 . S
C743 H741 0.959 . S
C743 H742 0.961 . S
C743 H744 0.960 . S
H744 C743 0.960 . S
H745 N725 0.862 . S
O746 Co714 1.920 . S
O746 C719 1.289 . S
C747 O739 1.258 . S
C747 O740 1.266 . S
Co748 O751 1.970 . S
Co748 N765 1.989 . S
Co748 O773 1.967 . S
Co748 O780 1.920 . S
Co749 O752 1.966 . S
Co749 N758 2.022 . S
Co749 N766 1.993 . S
Co749 O774 1.941 . S
C750 O751 1.258 . S
C750 O752 1.263 . S
O751 Co748 1.970 . S
O751 C750 1.258 . S
O752 Co749 1.966 . S
O752 C750 1.263 . S
C753 O754 1.235 . S
C753 O780 1.289 . S
O754 C753 1.235 . S
C755 C757 1.400 . S
C755 N758 1.351 . S
C755 C760 1.501 . S
C756 C757 1.387 . S
C756 N759 1.341 . S
C757 C755 1.400 . S
C757 C756 1.387 . S
N758 Co749 2.022 . S
N758 C755 1.351 . S
N758 N759 1.365 . S
N759 C756 1.341 . S
N759 N758 1.365 . S
N759 H779 0.862 . S
C760 C755 1.501 . S
C760 H761 0.961 . S
C760 H762 0.961 . S
C760 H763 0.960 . S
H761 C760 0.961 . S
H762 C760 0.961 . S
H763 C760 0.960 . S
C764 N765 1.342 . S
C764 C768 1.401 . S
C764 C769 1.499 . S
N765 Co748 1.989 . S
N765 C764 1.342 . S
N765 N766 1.388 . S
N766 Co749 1.993 . S
N766 N765 1.388 . S
N766 C767 1.346 . S
C767 N766 1.346 . S
C767 C768 1.396 . S
C767 C777 1.510 . S
C768 C764 1.401 . S
C768 C767 1.396 . S
C769 C764 1.499 . S
C769 H770 0.959 . S
C769 H771 0.960 . S
C769 H772 0.961 . S
H770 C769 0.959 . S
H771 C769 0.960 . S
H772 C769 0.961 . S
O773 Co748 1.967 . S
O773 C781 1.258 . S
O774 Co749 1.941 . S
O774 C781 1.266 . S
H775 C777 0.959 . S
H776 C777 0.961 . S
C777 C767 1.510 . S
C777 H775 0.959 . S
C777 H776 0.961 . S
C777 H778 0.960 . S
H778 C777 0.960 . S
H779 N759 0.862 . S
O780 Co748 1.920 . S
O780 C753 1.289 . S
C781 O773 1.258 . S
C781 O774 1.266 . S
Co782 O785 1.970 . S
Co782 N799 1.989 . S
Co782 O807 1.967 . S
Co782 O814 1.920 . S
Co783 O786 1.966 . S
Co783 N792 2.022 . S
Co783 N800 1.993 . S
Co783 O808 1.941 . S
C784 O785 1.258 . S
C784 O786 1.263 . S
O785 Co782 1.970 . S
O785 C784 1.258 . S
O786 Co783 1.966 . S
O786 C784 1.263 . S
C787 O788 1.235 . S
C787 O814 1.289 . S
O788 C787 1.235 . S
C789 C791 1.400 . S
C789 N792 1.351 . S
C789 C794 1.501 . S
C790 C791 1.387 . S
C790 N793 1.341 . S
C791 C789 1.400 . S
C791 C790 1.387 . S
N792 Co783 2.022 . S
N792 C789 1.351 . S
N792 N793 1.365 . S
N793 C790 1.341 . S
N793 N792 1.365 . S
N793 H813 0.862 . S
C794 C789 1.501 . S
C794 H795 0.961 . S
C794 H796 0.961 . S
C794 H797 0.960 . S
H795 C794 0.961 . S
H796 C794 0.961 . S
H797 C794 0.960 . S
C798 N799 1.342 . S
C798 C802 1.401 . S
C798 C803 1.499 . S
N799 Co782 1.989 . S
N799 C798 1.342 . S
N799 N800 1.388 . S
N800 Co783 1.993 . S
N800 N799 1.388 . S
N800 C801 1.346 . S
C801 N800 1.346 . S
C801 C802 1.396 . S
C801 C811 1.510 . S
C802 C798 1.401 . S
C802 C801 1.396 . S
C803 C798 1.499 . S
C803 H804 0.959 . S
C803 H805 0.960 . S
C803 H806 0.961 . S
H804 C803 0.959 . S
H805 C803 0.960 . S
H806 C803 0.961 . S
O807 Co782 1.967 . S
O807 C815 1.258 . S
O808 Co783 1.941 . S
O808 C815 1.266 . S
H809 C811 0.959 . S
H810 C811 0.961 . S
C811 C801 1.510 . S
C811 H809 0.959 . S
C811 H810 0.961 . S
C811 H812 0.960 . S
H812 C811 0.960 . S
H813 N793 0.862 . S
O814 Co782 1.920 . S
O814 C787 1.289 . S
C815 O807 1.258 . S
C815 O808 1.266 . S
H816 C822 0.930 . S
H817 C826 0.930 . S
H818 C831 0.929 . S
H819 C829 0.929 . S
H820 C824 0.929 . S
H821 C830 0.929 . S
C822 H816 0.930 . S
C822 C823 1.367 . S
C822 C830 1.378 . S
C823 C822 1.367 . S
C823 C831 1.433 . S
C824 H820 0.929 . S
C824 C826 1.378 . S
C824 C828 1.350 . S
C825 C828 1.463 . S
C825 C830 1.350 . S
C825 N833 1.427 . S
C826 H817 0.930 . S
C826 C824 1.378 . S
C826 C827 1.367 . S
C827 C826 1.367 . S
C827 C829 1.433 . S
C828 C824 1.350 . S
C828 C825 1.463 . S
C828 N832 1.427 . S
C829 H819 0.929 . S
C829 C827 1.433 . S
C829 N832 1.384 . S
C830 H821 0.929 . S
C830 C822 1.378 . S
C830 C825 1.350 . S
C831 H818 0.929 . S
C831 C823 1.433 . S
C831 N833 1.384 . S
N832 C828 1.427 . S
N832 C829 1.384 . S
N833 C825 1.427 . S
N833 C831 1.384 . S
H834 C840 0.930 . S
H835 C844 0.930 . S
H836 C849 0.929 . S
H837 C847 0.929 . S
H838 C842 0.929 . S
H839 C848 0.929 . S
C840 H834 0.930 . S
C840 C841 1.367 . S
C840 C848 1.378 . S
C841 C840 1.367 . S
C841 C849 1.433 . S
C842 H838 0.929 . S
C842 C844 1.378 . S
C842 C846 1.350 . S
C843 C846 1.463 . S
C843 C848 1.350 . S
C843 N851 1.427 . S
C844 H835 0.930 . S
C844 C842 1.378 . S
C844 C845 1.367 . S
C845 C844 1.367 . S
C845 C847 1.433 . S
C846 C842 1.350 . S
C846 C843 1.463 . S
C846 N850 1.427 . S
C847 H837 0.929 . S
C847 C845 1.433 . S
C847 N850 1.384 . S
C848 H839 0.929 . S
C848 C840 1.378 . S
C848 C843 1.350 . S
C849 H836 0.929 . S
C849 C841 1.433 . S
C849 N851 1.384 . S
N850 C846 1.427 . S
N850 C847 1.384 . S
N851 C843 1.427 . S
N851 C849 1.384 . S
H852 C858 0.930 . S
H853 C862 0.930 . S
H854 C867 0.929 . S
H855 C865 0.929 . S
H856 C860 0.929 . S
H857 C866 0.929 . S
C858 H852 0.930 . S
C858 C859 1.367 . S
C858 C866 1.378 . S
C859 C858 1.367 . S
C859 C867 1.433 . S
C860 H856 0.929 . S
C860 C862 1.378 . S
C860 C864 1.350 . S
C861 C864 1.463 . S
C861 C866 1.350 . S
C861 N869 1.427 . S
C862 H853 0.930 . S
C862 C860 1.378 . S
C862 C863 1.367 . S
C863 C862 1.367 . S
C863 C865 1.433 . S
C864 C860 1.350 . S
C864 C861 1.463 . S
C864 N868 1.427 . S
C865 H855 0.929 . S
C865 C863 1.433 . S
C865 N868 1.384 . S
C866 H857 0.929 . S
C866 C858 1.378 . S
C866 C861 1.350 . S
C867 H854 0.929 . S
C867 C859 1.433 . S
C867 N869 1.384 . S
N868 C864 1.427 . S
N868 C865 1.384 . S
N869 C861 1.427 . S
N869 C867 1.384 . S
H870 C876 0.930 . S
H871 C880 0.930 . S
H872 C885 0.929 . S
H873 C883 0.929 . S
H874 C878 0.929 . S
H875 C884 0.929 . S
C876 H870 0.930 . S
C876 C877 1.367 . S
C876 C884 1.378 . S
C877 C876 1.367 . S
C877 C885 1.433 . S
C878 H874 0.929 . S
C878 C880 1.378 . S
C878 C882 1.350 . S
C879 C882 1.463 . S
C879 C884 1.350 . S
C879 N887 1.427 . S
C880 H871 0.930 . S
C880 C878 1.378 . S
C880 C881 1.367 . S
C881 C880 1.367 . S
C881 C883 1.433 . S
C882 C878 1.350 . S
C882 C879 1.463 . S
C882 N886 1.427 . S
C883 H873 0.929 . S
C883 C881 1.433 . S
C883 N886 1.384 . S
C884 H875 0.929 . S
C884 C876 1.378 . S
C884 C879 1.350 . S
C885 H872 0.929 . S
C885 C877 1.433 . S
C885 N887 1.384 . S
N886 C882 1.427 . S
N886 C883 1.384 . S
N887 C879 1.427 . S
N887 C885 1.384 . S
H888 C894 0.930 . S
H889 C898 0.930 . S
H890 C903 0.929 . S
H891 C901 0.929 . S
H892 C896 0.929 . S
H893 C902 0.929 . S
C894 H888 0.930 . S
C894 C895 1.367 . S
C894 C902 1.378 . S
C895 C894 1.367 . S
C895 C903 1.433 . S
C896 H892 0.929 . S
C896 C898 1.378 . S
C896 C900 1.350 . S
C897 C900 1.463 . S
C897 C902 1.350 . S
C897 N905 1.427 . S
C898 H889 0.930 . S
C898 C896 1.378 . S
C898 C899 1.367 . S
C899 C898 1.367 . S
C899 C901 1.433 . S
C900 C896 1.350 . S
C900 C897 1.463 . S
C900 N904 1.427 . S
C901 H891 0.929 . S
C901 C899 1.433 . S
C901 N904 1.384 . S
C902 H893 0.929 . S
C902 C894 1.378 . S
C902 C897 1.350 . S
C903 H890 0.929 . S
C903 C895 1.433 . S
C903 N905 1.384 . S
N904 C900 1.427 . S
N904 C901 1.384 . S
N905 C897 1.427 . S
N905 C903 1.384 . S
H906 C912 0.930 . S
H907 C916 0.930 . S
H908 C921 0.929 . S
H909 C919 0.929 . S
H910 C914 0.929 . S
H911 C920 0.929 . S
C912 H906 0.930 . S
C912 C913 1.367 . S
C912 C920 1.378 . S
C913 C912 1.367 . S
C913 C921 1.433 . S
C914 H910 0.929 . S
C914 C916 1.378 . S
C914 C918 1.350 . S
C915 C918 1.463 . S
C915 C920 1.350 . S
C915 N923 1.427 . S
C916 H907 0.930 . S
C916 C914 1.378 . S
C916 C917 1.367 . S
C917 C916 1.367 . S
C917 C919 1.433 . S
C918 C914 1.350 . S
C918 C915 1.463 . S
C918 N922 1.427 . S
C919 H909 0.929 . S
C919 C917 1.433 . S
C919 N922 1.384 . S
C920 H911 0.929 . S
C920 C912 1.378 . S
C920 C915 1.350 . S
C921 H908 0.929 . S
C921 C913 1.433 . S
C921 N923 1.384 . S
N922 C918 1.427 . S
N922 C919 1.384 . S
N923 C915 1.427 . S
N923 C921 1.384 . S
H924 C930 0.930 . S
H925 C934 0.930 . S
H926 C939 0.929 . S
H927 C937 0.929 . S
H928 C932 0.929 . S
H929 C938 0.929 . S
C930 H924 0.930 . S
C930 C931 1.367 . S
C930 C938 1.378 . S
C931 C930 1.367 . S
C931 C939 1.433 . S
C932 H928 0.929 . S
C932 C934 1.378 . S
C932 C936 1.350 . S
C933 C936 1.463 . S
C933 C938 1.350 . S
C933 N941 1.427 . S
C934 H925 0.930 . S
C934 C932 1.378 . S
C934 C935 1.367 . S
C935 C934 1.367 . S
C935 C937 1.433 . S
C936 C932 1.350 . S
C936 C933 1.463 . S
C936 N940 1.427 . S
C937 H927 0.929 . S
C937 C935 1.433 . S
C937 N940 1.384 . S
C938 H929 0.929 . S
C938 C930 1.378 . S
C938 C933 1.350 . S
C939 H926 0.929 . S
C939 C931 1.433 . S
C939 N941 1.384 . S
N940 C936 1.427 . S
N940 C937 1.384 . S
N941 C933 1.427 . S
N941 C939 1.384 . S
H942 C948 0.930 . S
H943 C952 0.930 . S
H944 C957 0.929 . S
H945 C955 0.929 . S
H946 C950 0.929 . S
H947 C956 0.929 . S
C948 H942 0.930 . S
C948 C949 1.367 . S
C948 C956 1.378 . S
C949 C948 1.367 . S
C949 C957 1.433 . S
C950 H946 0.929 . S
C950 C952 1.378 . S
C950 C954 1.350 . S
C951 C954 1.463 . S
C951 C956 1.350 . S
C951 N959 1.427 . S
C952 H943 0.930 . S
C952 C950 1.378 . S
C952 C953 1.367 . S
C953 C952 1.367 . S
C953 C955 1.433 . S
C954 C950 1.350 . S
C954 C951 1.463 . S
C954 N958 1.427 . S
C955 H945 0.929 . S
C955 C953 1.433 . S
C955 N958 1.384 . S
C956 H947 0.929 . S
C956 C948 1.378 . S
C956 C951 1.350 . S
C957 H944 0.929 . S
C957 C949 1.433 . S
C957 N959 1.384 . S
N958 C954 1.427 . S
N958 C955 1.384 . S
N959 C951 1.427 . S
N959 C957 1.384 . S
H960 C966 0.930 . S
H961 C970 0.930 . S
H962 C975 0.929 . S
H963 C973 0.929 . S
H964 C968 0.929 . S
H965 C974 0.929 . S
C966 H960 0.930 . S
C966 C967 1.367 . S
C966 C974 1.378 . S
C967 C966 1.367 . S
C967 C975 1.433 . S
C968 H964 0.929 . S
C968 C970 1.378 . S
C968 C972 1.350 . S
C969 C972 1.463 . S
C969 C974 1.350 . S
C969 N977 1.427 . S
C970 H961 0.930 . S
C970 C968 1.378 . S
C970 C971 1.367 . S
C971 C970 1.367 . S
C971 C973 1.433 . S
C972 C968 1.350 . S
C972 C969 1.463 . S
C972 N976 1.427 . S
C973 H963 0.929 . S
C973 C971 1.433 . S
C973 N976 1.384 . S
C974 H965 0.929 . S
C974 C966 1.378 . S
C974 C969 1.350 . S
C975 H962 0.929 . S
C975 C967 1.433 . S
C975 N977 1.384 . S
N976 C972 1.427 . S
N976 C973 1.384 . S
N977 C969 1.427 . S
N977 C975 1.384 . S
H978 C984 0.930 . S
H979 C988 0.930 . S
H980 C993 0.929 . S
H981 C991 0.929 . S
H982 C986 0.929 . S
H983 C992 0.929 . S
C984 H978 0.930 . S
C984 C985 1.367 . S
C984 C992 1.378 . S
C985 C984 1.367 . S
C985 C993 1.433 . S
C986 H982 0.929 . S
C986 C988 1.378 . S
C986 C990 1.350 . S
C987 C990 1.463 . S
C987 C992 1.350 . S
C987 N995 1.427 . S
C988 H979 0.930 . S
C988 C986 1.378 . S
C988 C989 1.367 . S
C989 C988 1.367 . S
C989 C991 1.433 . S
C990 C986 1.350 . S
C990 C987 1.463 . S
C990 N994 1.427 . S
C991 H981 0.929 . S
C991 C989 1.433 . S
C991 N994 1.384 . S
C992 H983 0.929 . S
C992 C984 1.378 . S
C992 C987 1.350 . S
C993 H980 0.929 . S
C993 C985 1.433 . S
C993 N995 1.384 . S
N994 C990 1.427 . S
N994 C991 1.384 . S
N995 C987 1.427 . S
N995 C993 1.384 . S
H996 C1002 0.930 . S
H997 C1006 0.930 . S
H998 C1011 0.929 . S
H999 C1009 0.929 . S
H1000 C1004 0.929 . S
H1001 C1010 0.929 . S
C1002 H996 0.930 . S
C1002 C1003 1.367 . S
C1002 C1010 1.378 . S
C1003 C1002 1.367 . S
C1003 C1011 1.433 . S
C1004 H1000 0.929 . S
C1004 C1006 1.378 . S
C1004 C1008 1.350 . S
C1005 C1008 1.463 . S
C1005 C1010 1.350 . S
C1005 N1013 1.427 . S
C1006 H997 0.930 . S
C1006 C1004 1.378 . S
C1006 C1007 1.367 . S
C1007 C1006 1.367 . S
C1007 C1009 1.433 . S
C1008 C1004 1.350 . S
C1008 C1005 1.463 . S
C1008 N1012 1.427 . S
C1009 H999 0.929 . S
C1009 C1007 1.433 . S
C1009 N1012 1.384 . S
C1010 H1001 0.929 . S
C1010 C1002 1.378 . S
C1010 C1005 1.350 . S
C1011 H998 0.929 . S
C1011 C1003 1.433 . S
C1011 N1013 1.384 . S
N1012 C1008 1.427 . S
N1012 C1009 1.384 . S
N1013 C1005 1.427 . S
N1013 C1011 1.384 . S
H1014 C1020 0.930 . S
H1015 C1024 0.930 . S
H1016 C1029 0.929 . S
H1017 C1027 0.929 . S
H1018 C1022 0.929 . S
H1019 C1028 0.929 . S
C1020 H1014 0.930 . S
C1020 C1021 1.367 . S
C1020 C1028 1.378 . S
C1021 C1020 1.367 . S
C1021 C1029 1.433 . S
C1022 H1018 0.929 . S
C1022 C1024 1.378 . S
C1022 C1026 1.350 . S
C1023 C1026 1.463 . S
C1023 C1028 1.350 . S
C1023 N1031 1.427 . S
C1024 H1015 0.930 . S
C1024 C1022 1.378 . S
C1024 C1025 1.367 . S
C1025 C1024 1.367 . S
C1025 C1027 1.433 . S
C1026 C1022 1.350 . S
C1026 C1023 1.463 . S
C1026 N1030 1.427 . S
C1027 H1017 0.929 . S
C1027 C1025 1.433 . S
C1027 N1030 1.384 . S
C1028 H1019 0.929 . S
C1028 C1020 1.378 . S
C1028 C1023 1.350 . S
C1029 H1016 0.929 . S
C1029 C1021 1.433 . S
C1029 N1031 1.384 . S
N1030 C1026 1.427 . S
N1030 C1027 1.384 . S
N1031 C1023 1.427 . S
N1031 C1029 1.384 . S
H1032 C1038 0.930 . S
H1033 C1042 0.930 . S
H1034 C1047 0.929 . S
H1035 C1045 0.929 . S
H1036 C1040 0.929 . S
H1037 C1046 0.929 . S
C1038 H1032 0.930 . S
C1038 C1039 1.367 . S
C1038 C1046 1.378 . S
C1039 C1038 1.367 . S
C1039 C1047 1.433 . S
C1040 H1036 0.929 . S
C1040 C1042 1.378 . S
C1040 C1044 1.350 . S
C1041 C1044 1.463 . S
C1041 C1046 1.350 . S
C1041 N1049 1.427 . S
C1042 H1033 0.930 . S
C1042 C1040 1.378 . S
C1042 C1043 1.367 . S
C1043 C1042 1.367 . S
C1043 C1045 1.433 . S
C1044 C1040 1.350 . S
C1044 C1041 1.463 . S
C1044 N1048 1.427 . S
C1045 H1035 0.929 . S
C1045 C1043 1.433 . S
C1045 N1048 1.384 . S
C1046 H1037 0.929 . S
C1046 C1038 1.378 . S
C1046 C1041 1.350 . S
C1047 H1034 0.929 . S
C1047 C1039 1.433 . S
C1047 N1049 1.384 . S
N1048 C1044 1.427 . S
N1048 C1045 1.384 . S
N1049 C1041 1.427 . S
N1049 C1047 1.384 . S
H1050 C1056 0.930 . S
H1051 C1060 0.930 . S
H1052 C1065 0.929 . S
H1053 C1063 0.929 . S
H1054 C1058 0.929 . S
H1055 C1064 0.929 . S
C1056 H1050 0.930 . S
C1056 C1057 1.367 . S
C1056 C1064 1.378 . S
C1057 C1056 1.367 . S
C1057 C1065 1.433 . S
C1058 H1054 0.929 . S
C1058 C1060 1.378 . S
C1058 C1062 1.350 . S
C1059 C1062 1.463 . S
C1059 C1064 1.350 . S
C1059 N1067 1.427 . S
C1060 H1051 0.930 . S
C1060 C1058 1.378 . S
C1060 C1061 1.367 . S
C1061 C1060 1.367 . S
C1061 C1063 1.433 . S
C1062 C1058 1.350 . S
C1062 C1059 1.463 . S
C1062 N1066 1.427 . S
C1063 H1053 0.929 . S
C1063 C1061 1.433 . S
C1063 N1066 1.384 . S
C1064 H1055 0.929 . S
C1064 C1056 1.378 . S
C1064 C1059 1.350 . S
C1065 H1052 0.929 . S
C1065 C1057 1.433 . S
C1065 N1067 1.384 . S
N1066 C1062 1.427 . S
N1066 C1063 1.384 . S
N1067 C1059 1.427 . S
N1067 C1065 1.384 . S
H1068 C1074 0.930 . S
H1069 C1078 0.930 . S
H1070 C1083 0.929 . S
H1071 C1081 0.929 . S
H1072 C1076 0.929 . S
H1073 C1082 0.929 . S
C1074 H1068 0.930 . S
C1074 C1075 1.367 . S
C1074 C1082 1.378 . S
C1075 C1074 1.367 . S
C1075 C1083 1.433 . S
C1076 H1072 0.929 . S
C1076 C1078 1.378 . S
C1076 C1080 1.350 . S
C1077 C1080 1.463 . S
C1077 C1082 1.350 . S
C1077 N1085 1.427 . S
C1078 H1069 0.930 . S
C1078 C1076 1.378 . S
C1078 C1079 1.367 . S
C1079 C1078 1.367 . S
C1079 C1081 1.433 . S
C1080 C1076 1.350 . S
C1080 C1077 1.463 . S
C1080 N1084 1.427 . S
C1081 H1071 0.929 . S
C1081 C1079 1.433 . S
C1081 N1084 1.384 . S
C1082 H1073 0.929 . S
C1082 C1074 1.378 . S
C1082 C1077 1.350 . S
C1083 H1070 0.929 . S
C1083 C1075 1.433 . S
C1083 N1085 1.384 . S
N1084 C1080 1.427 . S
N1084 C1081 1.384 . S
N1085 C1077 1.427 . S
N1085 C1083 1.384 . S
H1086 C1092 0.930 . S
H1087 C1096 0.930 . S
H1088 C1101 0.929 . S
H1089 C1099 0.929 . S
H1090 C1094 0.929 . S
H1091 C1100 0.929 . S
C1092 H1086 0.930 . S
C1092 C1093 1.367 . S
C1092 C1100 1.378 . S
C1093 C1092 1.367 . S
C1093 C1101 1.433 . S
C1094 H1090 0.929 . S
C1094 C1096 1.378 . S
C1094 C1098 1.350 . S
C1095 C1098 1.463 . S
C1095 C1100 1.350 . S
C1095 N1103 1.427 . S
C1096 H1087 0.930 . S
C1096 C1094 1.378 . S
C1096 C1097 1.367 . S
C1097 C1096 1.367 . S
C1097 C1099 1.433 . S
C1098 C1094 1.350 . S
C1098 C1095 1.463 . S
C1098 N1102 1.427 . S
C1099 H1089 0.929 . S
C1099 C1097 1.433 . S
C1099 N1102 1.384 . S
C1100 H1091 0.929 . S
C1100 C1092 1.378 . S
C1100 C1095 1.350 . S
C1101 H1088 0.929 . S
C1101 C1093 1.433 . S
C1101 N1103 1.384 . S
N1102 C1098 1.427 . S
N1102 C1099 1.384 . S
N1103 C1095 1.427 . S
N1103 C1101 1.384 . S
H1104 C1110 0.930 . S
H1105 C1114 0.930 . S
H1106 C1119 0.929 . S
H1107 C1117 0.929 . S
H1108 C1112 0.929 . S
H1109 C1118 0.929 . S
C1110 H1104 0.930 . S
C1110 C1111 1.367 . S
C1110 C1118 1.378 . S
C1111 C1110 1.367 . S
C1111 C1119 1.433 . S
C1112 H1108 0.929 . S
C1112 C1114 1.378 . S
C1112 C1116 1.350 . S
C1113 C1116 1.463 . S
C1113 C1118 1.350 . S
C1113 N1121 1.427 . S
C1114 H1105 0.930 . S
C1114 C1112 1.378 . S
C1114 C1115 1.367 . S
C1115 C1114 1.367 . S
C1115 C1117 1.433 . S
C1116 C1112 1.350 . S
C1116 C1113 1.463 . S
C1116 N1120 1.427 . S
C1117 H1107 0.929 . S
C1117 C1115 1.433 . S
C1117 N1120 1.384 . S
C1118 H1109 0.929 . S
C1118 C1110 1.378 . S
C1118 C1113 1.350 . S
C1119 H1106 0.929 . S
C1119 C1111 1.433 . S
C1119 N1121 1.384 . S
N1120 C1116 1.427 . S
N1120 C1117 1.384 . S
N1121 C1113 1.427 . S
N1121 C1119 1.384 . S
H1122 C1128 0.930 . S
H1123 C1132 0.930 . S
H1124 C1137 0.929 . S
H1125 C1135 0.929 . S
H1126 C1130 0.929 . S
H1127 C1136 0.929 . S
C1128 H1122 0.930 . S
C1128 C1129 1.367 . S
C1128 C1136 1.378 . S
C1129 C1128 1.367 . S
C1129 C1137 1.433 . S
C1130 H1126 0.929 . S
C1130 C1132 1.378 . S
C1130 C1134 1.350 . S
C1131 C1134 1.463 . S
C1131 C1136 1.350 . S
C1131 N1139 1.427 . S
C1132 H1123 0.930 . S
C1132 C1130 1.378 . S
C1132 C1133 1.367 . S
C1133 C1132 1.367 . S
C1133 C1135 1.433 . S
C1134 C1130 1.350 . S
C1134 C1131 1.463 . S
C1134 N1138 1.427 . S
C1135 H1125 0.929 . S
C1135 C1133 1.433 . S
C1135 N1138 1.384 . S
C1136 H1127 0.929 . S
C1136 C1128 1.378 . S
C1136 C1131 1.350 . S
C1137 H1124 0.929 . S
C1137 C1129 1.433 . S
C1137 N1139 1.384 . S
N1138 C1134 1.427 . S
N1138 C1135 1.384 . S
N1139 C1131 1.427 . S
N1139 C1137 1.384 . S
H1140 C1146 0.930 . S
H1141 C1150 0.930 . S
H1142 C1155 0.929 . S
H1143 C1153 0.929 . S
H1144 C1148 0.929 . S
H1145 C1154 0.929 . S
C1146 H1140 0.930 . S
C1146 C1147 1.367 . S
C1146 C1154 1.378 . S
C1147 C1146 1.367 . S
C1147 C1155 1.433 . S
C1148 H1144 0.929 . S
C1148 C1150 1.378 . S
C1148 C1152 1.350 . S
C1149 C1152 1.463 . S
C1149 C1154 1.350 . S
C1149 N1157 1.427 . S
C1150 H1141 0.930 . S
C1150 C1148 1.378 . S
C1150 C1151 1.367 . S
C1151 C1150 1.367 . S
C1151 C1153 1.433 . S
C1152 C1148 1.350 . S
C1152 C1149 1.463 . S
C1152 N1156 1.427 . S
C1153 H1143 0.929 . S
C1153 C1151 1.433 . S
C1153 N1156 1.384 . S
C1154 H1145 0.929 . S
C1154 C1146 1.378 . S
C1154 C1149 1.350 . S
C1155 H1142 0.929 . S
C1155 C1147 1.433 . S
C1155 N1157 1.384 . S
N1156 C1152 1.427 . S
N1156 C1153 1.384 . S
N1157 C1149 1.427 . S
N1157 C1155 1.384 . S
H1158 C1164 0.930 . S
H1159 C1168 0.930 . S
H1160 C1173 0.929 . S
H1161 C1171 0.929 . S
H1162 C1166 0.929 . S
H1163 C1172 0.929 . S
C1164 H1158 0.930 . S
C1164 C1165 1.367 . S
C1164 C1172 1.378 . S
C1165 C1164 1.367 . S
C1165 C1173 1.433 . S
C1166 H1162 0.929 . S
C1166 C1168 1.378 . S
C1166 C1170 1.350 . S
C1167 C1170 1.463 . S
C1167 C1172 1.350 . S
C1167 N1175 1.427 . S
C1168 H1159 0.930 . S
C1168 C1166 1.378 . S
C1168 C1169 1.367 . S
C1169 C1168 1.367 . S
C1169 C1171 1.433 . S
C1170 C1166 1.350 . S
C1170 C1167 1.463 . S
C1170 N1174 1.427 . S
C1171 H1161 0.929 . S
C1171 C1169 1.433 . S
C1171 N1174 1.384 . S
C1172 H1163 0.929 . S
C1172 C1164 1.378 . S
C1172 C1167 1.350 . S
C1173 H1160 0.929 . S
C1173 C1165 1.433 . S
C1173 N1175 1.384 . S
N1174 C1170 1.427 . S
N1174 C1171 1.384 . S
N1175 C1167 1.427 . S
N1175 C1173 1.384 . S
H1176 C1182 0.930 . S
H1177 C1186 0.930 . S
H1178 C1191 0.929 . S
H1179 C1189 0.929 . S
H1180 C1184 0.929 . S
H1181 C1190 0.929 . S
C1182 H1176 0.930 . S
C1182 C1183 1.367 . S
C1182 C1190 1.378 . S
C1183 C1182 1.367 . S
C1183 C1191 1.433 . S
C1184 H1180 0.929 . S
C1184 C1186 1.378 . S
C1184 C1188 1.350 . S
C1185 C1188 1.463 . S
C1185 C1190 1.350 . S
C1185 N1193 1.427 . S
C1186 H1177 0.930 . S
C1186 C1184 1.378 . S
C1186 C1187 1.367 . S
C1187 C1186 1.367 . S
C1187 C1189 1.433 . S
C1188 C1184 1.350 . S
C1188 C1185 1.463 . S
C1188 N1192 1.427 . S
C1189 H1179 0.929 . S
C1189 C1187 1.433 . S
C1189 N1192 1.384 . S
C1190 H1181 0.929 . S
C1190 C1182 1.378 . S
C1190 C1185 1.350 . S
C1191 H1178 0.929 . S
C1191 C1183 1.433 . S
C1191 N1193 1.384 . S
N1192 C1188 1.427 . S
N1192 C1189 1.384 . S
N1193 C1185 1.427 . S
N1193 C1191 1.384 . S
H1194 C1200 0.930 . S
H1195 C1204 0.930 . S
H1196 C1209 0.929 . S
H1197 C1207 0.929 . S
H1198 C1202 0.929 . S
H1199 C1208 0.929 . S
C1200 H1194 0.930 . S
C1200 C1201 1.367 . S
C1200 C1208 1.378 . S
C1201 C1200 1.367 . S
C1201 C1209 1.433 . S
C1202 H1198 0.929 . S
C1202 C1204 1.378 . S
C1202 C1206 1.350 . S
C1203 C1206 1.463 . S
C1203 C1208 1.350 . S
C1203 N1211 1.427 . S
C1204 H1195 0.930 . S
C1204 C1202 1.378 . S
C1204 C1205 1.367 . S
C1205 C1204 1.367 . S
C1205 C1207 1.433 . S
C1206 C1202 1.350 . S
C1206 C1203 1.463 . S
C1206 N1210 1.427 . S
C1207 H1197 0.929 . S
C1207 C1205 1.433 . S
C1207 N1210 1.384 . S
C1208 H1199 0.929 . S
C1208 C1200 1.378 . S
C1208 C1203 1.350 . S
C1209 H1196 0.929 . S
C1209 C1201 1.433 . S
C1209 N1211 1.384 . S
N1210 C1206 1.427 . S
N1210 C1207 1.384 . S
N1211 C1203 1.427 . S
N1211 C1209 1.384 . S
H1212 C1218 0.930 . S
H1213 C1222 0.930 . S
H1214 C1227 0.929 . S
H1215 C1225 0.929 . S
H1216 C1220 0.929 . S
H1217 C1226 0.929 . S
C1218 H1212 0.930 . S
C1218 C1219 1.367 . S
C1218 C1226 1.378 . S
C1219 C1218 1.367 . S
C1219 C1227 1.433 . S
C1220 H1216 0.929 . S
C1220 C1222 1.378 . S
C1220 C1224 1.350 . S
C1221 C1224 1.463 . S
C1221 C1226 1.350 . S
C1221 N1229 1.427 . S
C1222 H1213 0.930 . S
C1222 C1220 1.378 . S
C1222 C1223 1.367 . S
C1223 C1222 1.367 . S
C1223 C1225 1.433 . S
C1224 C1220 1.350 . S
C1224 C1221 1.463 . S
C1224 N1228 1.427 . S
C1225 H1215 0.929 . S
C1225 C1223 1.433 . S
C1225 N1228 1.384 . S
C1226 H1217 0.929 . S
C1226 C1218 1.378 . S
C1226 C1221 1.350 . S
C1227 H1214 0.929 . S
C1227 C1219 1.433 . S
C1227 N1229 1.384 . S
N1228 C1224 1.427 . S
N1228 C1225 1.384 . S
N1229 C1221 1.427 . S
N1229 C1227 1.384 . S
H1230 C1236 0.930 . S
H1231 C1240 0.930 . S
H1232 C1245 0.929 . S
H1233 C1243 0.929 . S
H1234 C1238 0.929 . S
H1235 C1244 0.929 . S
C1236 H1230 0.930 . S
C1236 C1237 1.367 . S
C1236 C1244 1.378 . S
C1237 C1236 1.367 . S
C1237 C1245 1.433 . S
C1238 H1234 0.929 . S
C1238 C1240 1.378 . S
C1238 C1242 1.350 . S
C1239 C1242 1.463 . S
C1239 C1244 1.350 . S
C1239 N1247 1.427 . S
C1240 H1231 0.930 . S
C1240 C1238 1.378 . S
C1240 C1241 1.367 . S
C1241 C1240 1.367 . S
C1241 C1243 1.433 . S
C1242 C1238 1.350 . S
C1242 C1239 1.463 . S
C1242 N1246 1.427 . S
C1243 H1233 0.929 . S
C1243 C1241 1.433 . S
C1243 N1246 1.384 . S
C1244 H1235 0.929 . S
C1244 C1236 1.378 . S
C1244 C1239 1.350 . S
C1245 H1232 0.929 . S
C1245 C1237 1.433 . S
C1245 N1247 1.384 . S
N1246 C1242 1.427 . S
N1246 C1243 1.384 . S
N1247 C1239 1.427 . S
N1247 C1245 1.384 . S
H1248 C1254 0.930 . S
H1249 C1258 0.930 . S
H1250 C1263 0.929 . S
H1251 C1261 0.929 . S
H1252 C1256 0.929 . S
H1253 C1262 0.929 . S
C1254 H1248 0.930 . S
C1254 C1255 1.367 . S
C1254 C1262 1.378 . S
C1255 C1254 1.367 . S
C1255 C1263 1.433 . S
C1256 H1252 0.929 . S
C1256 C1258 1.378 . S
C1256 C1260 1.350 . S
C1257 C1260 1.463 . S
C1257 C1262 1.350 . S
C1257 N1265 1.427 . S
C1258 H1249 0.930 . S
C1258 C1256 1.378 . S
C1258 C1259 1.367 . S
C1259 C1258 1.367 . S
C1259 C1261 1.433 . S
C1260 C1256 1.350 . S
C1260 C1257 1.463 . S
C1260 N1264 1.427 . S
C1261 H1251 0.929 . S
C1261 C1259 1.433 . S
C1261 N1264 1.384 . S
C1262 H1253 0.929 . S
C1262 C1254 1.378 . S
C1262 C1257 1.350 . S
C1263 H1250 0.929 . S
C1263 C1255 1.433 . S
C1263 N1265 1.384 . S
N1264 C1260 1.427 . S
N1264 C1261 1.384 . S
N1265 C1257 1.427 . S
N1265 C1263 1.384 . S
H1266 C1272 0.930 . S
H1267 C1276 0.930 . S
H1268 C1281 0.929 . S
H1269 C1279 0.929 . S
H1270 C1274 0.929 . S
H1271 C1280 0.929 . S
C1272 H1266 0.930 . S
C1272 C1273 1.367 . S
C1272 C1280 1.378 . S
C1273 C1272 1.367 . S
C1273 C1281 1.433 . S
C1274 H1270 0.929 . S
C1274 C1276 1.378 . S
C1274 C1278 1.350 . S
C1275 C1278 1.463 . S
C1275 C1280 1.350 . S
C1275 N1283 1.427 . S
C1276 H1267 0.930 . S
C1276 C1274 1.378 . S
C1276 C1277 1.367 . S
C1277 C1276 1.367 . S
C1277 C1279 1.433 . S
C1278 C1274 1.350 . S
C1278 C1275 1.463 . S
C1278 N1282 1.427 . S
C1279 H1269 0.929 . S
C1279 C1277 1.433 . S
C1279 N1282 1.384 . S
C1280 H1271 0.929 . S
C1280 C1272 1.378 . S
C1280 C1275 1.350 . S
C1281 H1268 0.929 . S
C1281 C1273 1.433 . S
C1281 N1283 1.384 . S
N1282 C1278 1.427 . S
N1282 C1279 1.384 . S
N1283 C1275 1.427 . S
N1283 C1281 1.384 . S
H1284 C1290 0.930 . S
H1285 C1294 0.930 . S
H1286 C1299 0.929 . S
H1287 C1297 0.929 . S
H1288 C1292 0.929 . S
H1289 C1298 0.929 . S
C1290 H1284 0.930 . S
C1290 C1291 1.367 . S
C1290 C1298 1.378 . S
C1291 C1290 1.367 . S
C1291 C1299 1.433 . S
C1292 H1288 0.929 . S
C1292 C1294 1.378 . S
C1292 C1296 1.350 . S
C1293 C1296 1.463 . S
C1293 C1298 1.350 . S
C1293 N1301 1.427 . S
C1294 H1285 0.930 . S
C1294 C1292 1.378 . S
C1294 C1295 1.367 . S
C1295 C1294 1.367 . S
C1295 C1297 1.433 . S
C1296 C1292 1.350 . S
C1296 C1293 1.463 . S
C1296 N1300 1.427 . S
C1297 H1287 0.929 . S
C1297 C1295 1.433 . S
C1297 N1300 1.384 . S
C1298 H1289 0.929 . S
C1298 C1290 1.378 . S
C1298 C1293 1.350 . S
C1299 H1286 0.929 . S
C1299 C1291 1.433 . S
C1299 N1301 1.384 . S
N1300 C1296 1.427 . S
N1300 C1297 1.384 . S
N1301 C1293 1.427 . S
N1301 C1299 1.384 . S
H1302 C1308 0.930 . S
H1303 C1312 0.930 . S
H1304 C1317 0.929 . S
H1305 C1315 0.929 . S
H1306 C1310 0.929 . S
H1307 C1316 0.929 . S
C1308 H1302 0.930 . S
C1308 C1309 1.367 . S
C1308 C1316 1.378 . S
C1309 C1308 1.367 . S
C1309 C1317 1.433 . S
C1310 H1306 0.929 . S
C1310 C1312 1.378 . S
C1310 C1314 1.350 . S
C1311 C1314 1.463 . S
C1311 C1316 1.350 . S
C1311 N1319 1.427 . S
C1312 H1303 0.930 . S
C1312 C1310 1.378 . S
C1312 C1313 1.367 . S
C1313 C1312 1.367 . S
C1313 C1315 1.433 . S
C1314 C1310 1.350 . S
C1314 C1311 1.463 . S
C1314 N1318 1.427 . S
C1315 H1305 0.929 . S
C1315 C1313 1.433 . S
C1315 N1318 1.384 . S
C1316 H1307 0.929 . S
C1316 C1308 1.378 . S
C1316 C1311 1.350 . S
C1317 H1304 0.929 . S
C1317 C1309 1.433 . S
C1317 N1319 1.384 . S
N1318 C1314 1.427 . S
N1318 C1315 1.384 . S
N1319 C1311 1.427 . S
N1319 C1317 1.384 . S
H1320 C1326 0.930 . S
H1321 C1330 0.930 . S
H1322 C1335 0.929 . S
H1323 C1333 0.929 . S
H1324 C1328 0.929 . S
H1325 C1334 0.929 . S
C1326 H1320 0.930 . S
C1326 C1327 1.367 . S
C1326 C1334 1.378 . S
C1327 C1326 1.367 . S
C1327 C1335 1.433 . S
C1328 H1324 0.929 . S
C1328 C1330 1.378 . S
C1328 C1332 1.350 . S
C1329 C1332 1.463 . S
C1329 C1334 1.350 . S
C1329 N1337 1.427 . S
C1330 H1321 0.930 . S
C1330 C1328 1.378 . S
C1330 C1331 1.367 . S
C1331 C1330 1.367 . S
C1331 C1333 1.433 . S
C1332 C1328 1.350 . S
C1332 C1329 1.463 . S
C1332 N1336 1.427 . S
C1333 H1323 0.929 . S
C1333 C1331 1.433 . S
C1333 N1336 1.384 . S
C1334 H1325 0.929 . S
C1334 C1326 1.378 . S
C1334 C1329 1.350 . S
C1335 H1322 0.929 . S
C1335 C1327 1.433 . S
C1335 N1337 1.384 . S
N1336 C1332 1.427 . S
N1336 C1333 1.384 . S
N1337 C1329 1.427 . S
N1337 C1335 1.384 . S
H1338 C1344 0.930 . S
H1339 C1348 0.930 . S
H1340 C1353 0.929 . S
H1341 C1351 0.929 . S
H1342 C1346 0.929 . S
H1343 C1352 0.929 . S
C1344 H1338 0.930 . S
C1344 C1345 1.367 . S
C1344 C1352 1.378 . S
C1345 C1344 1.367 . S
C1345 C1353 1.433 . S
C1346 H1342 0.929 . S
C1346 C1348 1.378 . S
C1346 C1350 1.350 . S
C1347 C1350 1.463 . S
C1347 C1352 1.350 . S
C1347 N1355 1.427 . S
C1348 H1339 0.930 . S
C1348 C1346 1.378 . S
C1348 C1349 1.367 . S
C1349 C1348 1.367 . S
C1349 C1351 1.433 . S
C1350 C1346 1.350 . S
C1350 C1347 1.463 . S
C1350 N1354 1.427 . S
C1351 H1341 0.929 . S
C1351 C1349 1.433 . S
C1351 N1354 1.384 . S
C1352 H1343 0.929 . S
C1352 C1344 1.378 . S
C1352 C1347 1.350 . S
C1353 H1340 0.929 . S
C1353 C1345 1.433 . S
C1353 N1355 1.384 . S
N1354 C1350 1.427 . S
N1354 C1351 1.384 . S
N1355 C1347 1.427 . S
N1355 C1353 1.384 . S
H1356 C1362 0.930 . S
H1357 C1366 0.930 . S
H1358 C1371 0.929 . S
H1359 C1369 0.929 . S
H1360 C1364 0.929 . S
H1361 C1370 0.929 . S
C1362 H1356 0.930 . S
C1362 C1363 1.367 . S
C1362 C1370 1.378 . S
C1363 C1362 1.367 . S
C1363 C1371 1.433 . S
C1364 H1360 0.929 . S
C1364 C1366 1.378 . S
C1364 C1368 1.350 . S
C1365 C1368 1.463 . S
C1365 C1370 1.350 . S
C1365 N1373 1.427 . S
C1366 H1357 0.930 . S
C1366 C1364 1.378 . S
C1366 C1367 1.367 . S
C1367 C1366 1.367 . S
C1367 C1369 1.433 . S
C1368 C1364 1.350 . S
C1368 C1365 1.463 . S
C1368 N1372 1.427 . S
C1369 H1359 0.929 . S
C1369 C1367 1.433 . S
C1369 N1372 1.384 . S
C1370 H1361 0.929 . S
C1370 C1362 1.378 . S
C1370 C1365 1.350 . S
C1371 H1358 0.929 . S
C1371 C1363 1.433 . S
C1371 N1373 1.384 . S
N1372 C1368 1.427 . S
N1372 C1369 1.384 . S
N1373 C1365 1.427 . S
N1373 C1371 1.384 . S
H1374 C1380 0.930 . S
H1375 C1384 0.930 . S
H1376 C1389 0.929 . S
H1377 C1387 0.929 . S
H1378 C1382 0.929 . S
H1379 C1388 0.929 . S
C1380 H1374 0.930 . S
C1380 C1381 1.367 . S
C1380 C1388 1.378 . S
C1381 C1380 1.367 . S
C1381 C1389 1.433 . S
C1382 H1378 0.929 . S
C1382 C1384 1.378 . S
C1382 C1386 1.350 . S
C1383 C1386 1.463 . S
C1383 C1388 1.350 . S
C1383 N1391 1.427 . S
C1384 H1375 0.930 . S
C1384 C1382 1.378 . S
C1384 C1385 1.367 . S
C1385 C1384 1.367 . S
C1385 C1387 1.433 . S
C1386 C1382 1.350 . S
C1386 C1383 1.463 . S
C1386 N1390 1.427 . S
C1387 H1377 0.929 . S
C1387 C1385 1.433 . S
C1387 N1390 1.384 . S
C1388 H1379 0.929 . S
C1388 C1380 1.378 . S
C1388 C1383 1.350 . S
C1389 H1376 0.929 . S
C1389 C1381 1.433 . S
C1389 N1391 1.384 . S
N1390 C1386 1.427 . S
N1390 C1387 1.384 . S
N1391 C1383 1.427 . S
N1391 C1389 1.384 . S
H1392 C1398 0.930 . S
H1393 C1402 0.930 . S
H1394 C1407 0.929 . S
H1395 C1405 0.929 . S
H1396 C1400 0.929 . S
H1397 C1406 0.929 . S
C1398 H1392 0.930 . S
C1398 C1399 1.367 . S
C1398 C1406 1.378 . S
C1399 C1398 1.367 . S
C1399 C1407 1.433 . S
C1400 H1396 0.929 . S
C1400 C1402 1.378 . S
C1400 C1404 1.350 . S
C1401 C1404 1.463 . S
C1401 C1406 1.350 . S
C1401 N1409 1.427 . S
C1402 H1393 0.930 . S
C1402 C1400 1.378 . S
C1402 C1403 1.367 . S
C1403 C1402 1.367 . S
C1403 C1405 1.433 . S
C1404 C1400 1.350 . S
C1404 C1401 1.463 . S
C1404 N1408 1.427 . S
C1405 H1395 0.929 . S
C1405 C1403 1.433 . S
C1405 N1408 1.384 . S
C1406 H1397 0.929 . S
C1406 C1398 1.378 . S
C1406 C1401 1.350 . S
C1407 H1394 0.929 . S
C1407 C1399 1.433 . S
C1407 N1409 1.384 . S
N1408 C1404 1.427 . S
N1408 C1405 1.384 . S
N1409 C1401 1.427 . S
N1409 C1407 1.384 . S
H1410 C1416 0.930 . S
H1411 C1420 0.930 . S
H1412 C1425 0.929 . S
H1413 C1423 0.929 . S
H1414 C1418 0.929 . S
H1415 C1424 0.929 . S
C1416 H1410 0.930 . S
C1416 C1417 1.367 . S
C1416 C1424 1.378 . S
C1417 C1416 1.367 . S
C1417 C1425 1.433 . S
C1418 H1414 0.929 . S
C1418 C1420 1.378 . S
C1418 C1422 1.350 . S
C1419 C1422 1.463 . S
C1419 C1424 1.350 . S
C1419 N1427 1.427 . S
C1420 H1411 0.930 . S
C1420 C1418 1.378 . S
C1420 C1421 1.367 . S
C1421 C1420 1.367 . S
C1421 C1423 1.433 . S
C1422 C1418 1.350 . S
C1422 C1419 1.463 . S
C1422 N1426 1.427 . S
C1423 H1413 0.929 . S
C1423 C1421 1.433 . S
C1423 N1426 1.384 . S
C1424 H1415 0.929 . S
C1424 C1416 1.378 . S
C1424 C1419 1.350 . S
C1425 H1412 0.929 . S
C1425 C1417 1.433 . S
C1425 N1427 1.384 . S
N1426 C1422 1.427 . S
N1426 C1423 1.384 . S
N1427 C1419 1.427 . S
N1427 C1425 1.384 . S
H1428 C1434 0.930 . S
H1429 C1438 0.930 . S
H1430 C1443 0.929 . S
H1431 C1441 0.929 . S
H1432 C1436 0.929 . S
H1433 C1442 0.929 . S
C1434 H1428 0.930 . S
C1434 C1435 1.367 . S
C1434 C1442 1.378 . S
C1435 C1434 1.367 . S
C1435 C1443 1.433 . S
C1436 H1432 0.929 . S
C1436 C1438 1.378 . S
C1436 C1440 1.350 . S
C1437 C1440 1.463 . S
C1437 C1442 1.350 . S
C1437 N1445 1.427 . S
C1438 H1429 0.930 . S
C1438 C1436 1.378 . S
C1438 C1439 1.367 . S
C1439 C1438 1.367 . S
C1439 C1441 1.433 . S
C1440 C1436 1.350 . S
C1440 C1437 1.463 . S
C1440 N1444 1.427 . S
C1441 H1431 0.929 . S
C1441 C1439 1.433 . S
C1441 N1444 1.384 . S
C1442 H1433 0.929 . S
C1442 C1434 1.378 . S
C1442 C1437 1.350 . S
C1443 H1430 0.929 . S
C1443 C1435 1.433 . S
C1443 N1445 1.384 . S
N1444 C1440 1.427 . S
N1444 C1441 1.384 . S
N1445 C1437 1.427 . S
N1445 C1443 1.384 . S
H1446 C1452 0.930 . S
H1447 C1456 0.930 . S
H1448 C1461 0.929 . S
H1449 C1459 0.929 . S
H1450 C1454 0.929 . S
H1451 C1460 0.929 . S
C1452 H1446 0.930 . S
C1452 C1453 1.367 . S
C1452 C1460 1.378 . S
C1453 C1452 1.367 . S
C1453 C1461 1.433 . S
C1454 H1450 0.929 . S
C1454 C1456 1.378 . S
C1454 C1458 1.350 . S
C1455 C1458 1.463 . S
C1455 C1460 1.350 . S
C1455 N1463 1.427 . S
C1456 H1447 0.930 . S
C1456 C1454 1.378 . S
C1456 C1457 1.367 . S
C1457 C1456 1.367 . S
C1457 C1459 1.433 . S
C1458 C1454 1.350 . S
C1458 C1455 1.463 . S
C1458 N1462 1.427 . S
C1459 H1449 0.929 . S
C1459 C1457 1.433 . S
C1459 N1462 1.384 . S
C1460 H1451 0.929 . S
C1460 C1452 1.378 . S
C1460 C1455 1.350 . S
C1461 H1448 0.929 . S
C1461 C1453 1.433 . S
C1461 N1463 1.384 . S
N1462 C1458 1.427 . S
N1462 C1459 1.384 . S
N1463 C1455 1.427 . S
N1463 C1461 1.384 . S
H1464 C1470 0.930 . S
H1465 C1474 0.930 . S
H1466 C1479 0.929 . S
H1467 C1477 0.929 . S
H1468 C1472 0.929 . S
H1469 C1478 0.929 . S
C1470 H1464 0.930 . S
C1470 C1471 1.367 . S
C1470 C1478 1.378 . S
C1471 C1470 1.367 . S
C1471 C1479 1.433 . S
C1472 H1468 0.929 . S
C1472 C1474 1.378 . S
C1472 C1476 1.350 . S
C1473 C1476 1.463 1_565 S
C1473 C1478 1.350 . S
C1473 N1481 1.427 . S
C1474 H1465 0.930 . S
C1474 C1472 1.378 . S
C1474 C1475 1.367 . S
C1475 C1474 1.367 . S
C1475 C1477 1.433 . S
C1476 C1472 1.350 . S
C1476 C1473 1.463 1_545 S
C1476 N1480 1.427 . S
C1477 H1467 0.929 . S
C1477 C1475 1.433 . S
C1477 N1480 1.384 . S
C1478 H1469 0.929 . S
C1478 C1470 1.378 . S
C1478 C1473 1.350 . S
C1479 H1466 0.929 . S
C1479 C1471 1.433 . S
C1479 N1481 1.384 . S
N1480 C1476 1.427 . S
N1480 C1477 1.384 . S
N1481 C1473 1.427 . S
N1481 C1479 1.384 . S
H1482 C1488 0.930 . S
H1483 C1492 0.930 . S
H1484 C1497 0.929 . S
H1485 C1495 0.929 . S
H1486 C1490 0.929 . S
H1487 C1496 0.929 . S
C1488 H1482 0.930 . S
C1488 C1489 1.367 . S
C1488 C1496 1.378 . S
C1489 C1488 1.367 . S
C1489 C1497 1.433 . S
C1490 H1486 0.929 . S
C1490 C1492 1.378 . S
C1490 C1494 1.350 . S
C1491 C1494 1.463 1_455 S
C1491 C1496 1.350 . S
C1491 N1499 1.427 . S
C1492 H1483 0.930 . S
C1492 C1490 1.378 . S
C1492 C1493 1.367 . S
C1493 C1492 1.367 . S
C1493 C1495 1.433 . S
C1494 C1490 1.350 . S
C1494 C1491 1.463 1_655 S
C1494 N1498 1.427 . S
C1495 H1485 0.929 . S
C1495 C1493 1.433 . S
C1495 N1498 1.384 . S
C1496 H1487 0.929 . S
C1496 C1488 1.378 . S
C1496 C1491 1.350 . S
C1497 H1484 0.929 . S
C1497 C1489 1.433 . S
C1497 N1499 1.384 . S
N1498 C1494 1.427 . S
N1498 C1495 1.384 . S
N1499 C1491 1.427 . S
N1499 C1497 1.384 . S
H1500 C1506 0.930 . S
H1501 C1510 0.930 . S
H1502 C1515 0.929 . S
H1503 C1513 0.929 . S
H1504 C1508 0.929 . S
H1505 C1514 0.929 . S
C1506 H1500 0.930 . S
C1506 C1507 1.367 . S
C1506 C1514 1.378 . S
C1507 C1506 1.367 . S
C1507 C1515 1.433 . S
C1508 H1504 0.929 . S
C1508 C1510 1.378 . S
C1508 C1512 1.350 . S
C1509 C1512 1.463 . S
C1509 C1514 1.350 . S
C1509 N1517 1.427 . S
C1510 H1501 0.930 . S
C1510 C1508 1.378 . S
C1510 C1511 1.367 . S
C1511 C1510 1.367 . S
C1511 C1513 1.433 . S
C1512 C1508 1.350 . S
C1512 C1509 1.463 . S
C1512 N1516 1.427 . S
C1513 H1503 0.929 . S
C1513 C1511 1.433 . S
C1513 N1516 1.384 . S
C1514 H1505 0.929 . S
C1514 C1506 1.378 . S
C1514 C1509 1.350 . S
C1515 H1502 0.929 . S
C1515 C1507 1.433 . S
C1515 N1517 1.384 . S
N1516 C1512 1.427 . S
N1516 C1513 1.384 . S
N1517 C1509 1.427 . S
N1517 C1515 1.384 . S
H1518 C1524 0.930 . S
H1519 C1528 0.930 . S
H1520 C1533 0.929 . S
H1521 C1531 0.929 . S
H1522 C1526 0.929 . S
H1523 C1532 0.929 . S
C1524 H1518 0.930 . S
C1524 C1525 1.367 . S
C1524 C1532 1.378 . S
C1525 C1524 1.367 . S
C1525 C1533 1.433 . S
C1526 H1522 0.929 . S
C1526 C1528 1.378 . S
C1526 C1530 1.350 . S
C1527 C1530 1.463 . S
C1527 C1532 1.350 . S
C1527 N1535 1.427 . S
C1528 H1519 0.930 . S
C1528 C1526 1.378 . S
C1528 C1529 1.367 . S
C1529 C1528 1.367 . S
C1529 C1531 1.433 . S
C1530 C1526 1.350 . S
C1530 C1527 1.463 . S
C1530 N1534 1.427 . S
C1531 H1521 0.929 . S
C1531 C1529 1.433 . S
C1531 N1534 1.384 . S
C1532 H1523 0.929 . S
C1532 C1524 1.378 . S
C1532 C1527 1.350 . S
C1533 H1520 0.929 . S
C1533 C1525 1.433 . S
C1533 N1535 1.384 . S
N1534 C1530 1.427 . S
N1534 C1531 1.384 . S
N1535 C1527 1.427 . S
N1535 C1533 1.384 . S
H1536 C1542 0.930 . S
H1537 C1546 0.930 . S
H1538 C1551 0.929 . S
H1539 C1549 0.929 . S
H1540 C1544 0.929 . S
H1541 C1550 0.929 . S
C1542 H1536 0.930 . S
C1542 C1543 1.367 . S
C1542 C1550 1.378 . S
C1543 C1542 1.367 . S
C1543 C1551 1.433 . S
C1544 H1540 0.929 . S
C1544 C1546 1.378 . S
C1544 C1548 1.350 . S
C1545 C1548 1.463 . S
C1545 C1550 1.350 . S
C1545 N1553 1.427 . S
C1546 H1537 0.930 . S
C1546 C1544 1.378 . S
C1546 C1547 1.367 . S
C1547 C1546 1.367 . S
C1547 C1549 1.433 . S
C1548 C1544 1.350 . S
C1548 C1545 1.463 . S
C1548 N1552 1.427 . S
C1549 H1539 0.929 . S
C1549 C1547 1.433 . S
C1549 N1552 1.384 . S
C1550 H1541 0.929 . S
C1550 C1542 1.378 . S
C1550 C1545 1.350 . S
C1551 H1538 0.929 . S
C1551 C1543 1.433 . S
C1551 N1553 1.384 . S
N1552 C1548 1.427 . S
N1552 C1549 1.384 . S
N1553 C1545 1.427 . S
N1553 C1551 1.384 . S
H1554 C1560 0.930 . S
H1555 C1564 0.930 . S
H1556 C1569 0.929 . S
H1557 C1567 0.929 . S
H1558 C1562 0.929 . S
H1559 C1568 0.929 . S
C1560 H1554 0.930 . S
C1560 C1561 1.367 . S
C1560 C1568 1.378 . S
C1561 C1560 1.367 . S
C1561 C1569 1.433 . S
C1562 H1558 0.929 . S
C1562 C1564 1.378 . S
C1562 C1566 1.350 . S
C1563 C1566 1.463 . S
C1563 C1568 1.350 . S
C1563 N1571 1.427 . S
C1564 H1555 0.930 . S
C1564 C1562 1.378 . S
C1564 C1565 1.367 . S
C1565 C1564 1.367 . S
C1565 C1567 1.433 . S
C1566 C1562 1.350 . S
C1566 C1563 1.463 . S
C1566 N1570 1.427 . S
C1567 H1557 0.929 . S
C1567 C1565 1.433 . S
C1567 N1570 1.384 . S
C1568 H1559 0.929 . S
C1568 C1560 1.378 . S
C1568 C1563 1.350 . S
C1569 H1556 0.929 . S
C1569 C1561 1.433 . S
C1569 N1571 1.384 . S
N1570 C1566 1.427 . S
N1570 C1567 1.384 . S
N1571 C1563 1.427 . S
N1571 C1569 1.384 . S
H1572 C1578 0.930 . S
H1573 C1582 0.930 . S
H1574 C1587 0.929 . S
H1575 C1585 0.929 . S
H1576 C1580 0.929 . S
H1577 C1586 0.929 . S
C1578 H1572 0.930 . S
C1578 C1579 1.367 . S
C1578 C1586 1.378 . S
C1579 C1578 1.367 . S
C1579 C1587 1.433 . S
C1580 H1576 0.929 . S
C1580 C1582 1.378 . S
C1580 C1584 1.350 . S
C1581 C1584 1.463 1_545 S
C1581 C1586 1.350 . S
C1581 N1589 1.427 . S
C1582 H1573 0.930 . S
C1582 C1580 1.378 . S
C1582 C1583 1.367 . S
C1583 C1582 1.367 . S
C1583 C1585 1.433 . S
C1584 C1580 1.350 . S
C1584 C1581 1.463 1_565 S
C1584 N1588 1.427 . S
C1585 H1575 0.929 . S
C1585 C1583 1.433 . S
C1585 N1588 1.384 . S
C1586 H1577 0.929 . S
C1586 C1578 1.378 . S
C1586 C1581 1.350 . S
C1587 H1574 0.929 . S
C1587 C1579 1.433 . S
C1587 N1589 1.384 . S
N1588 C1584 1.427 . S
N1588 C1585 1.384 . S
N1589 C1581 1.427 . S
N1589 C1587 1.384 . S
H1590 C1596 0.930 . S
H1591 C1600 0.930 . S
H1592 C1605 0.929 . S
H1593 C1603 0.929 . S
H1594 C1598 0.929 . S
H1595 C1604 0.929 . S
C1596 H1590 0.930 . S
C1596 C1597 1.367 . S
C1596 C1604 1.378 . S
C1597 C1596 1.367 . S
C1597 C1605 1.433 . S
C1598 H1594 0.929 . S
C1598 C1600 1.378 . S
C1598 C1602 1.350 . S
C1599 C1602 1.463 1_455 S
C1599 C1604 1.350 . S
C1599 N1607 1.427 . S
C1600 H1591 0.930 . S
C1600 C1598 1.378 . S
C1600 C1601 1.367 . S
C1601 C1600 1.367 . S
C1601 C1603 1.433 . S
C1602 C1598 1.350 . S
C1602 C1599 1.463 1_655 S
C1602 N1606 1.427 . S
C1603 H1593 0.929 . S
C1603 C1601 1.433 . S
C1603 N1606 1.384 . S
C1604 H1595 0.929 . S
C1604 C1596 1.378 . S
C1604 C1599 1.350 . S
C1605 H1592 0.929 . S
C1605 C1597 1.433 . S
C1605 N1607 1.384 . S
N1606 C1602 1.427 . S
N1606 C1603 1.384 . S
N1607 C1599 1.427 . S
N1607 C1605 1.384 . S
H1608 C1614 0.930 . S
H1609 C1618 0.930 . S
H1610 C1623 0.929 . S
H1611 C1621 0.929 . S
H1612 C1616 0.929 . S
H1613 C1622 0.929 . S
C1614 H1608 0.930 . S
C1614 C1615 1.367 . S
C1614 C1622 1.378 . S
C1615 C1614 1.367 . S
C1615 C1623 1.433 . S
C1616 H1612 0.929 . S
C1616 C1618 1.378 . S
C1616 C1620 1.350 . S
C1617 C1620 1.463 1_554 S
C1617 C1622 1.350 . S
C1617 N1625 1.427 . S
C1618 H1609 0.930 . S
C1618 C1616 1.378 . S
C1618 C1619 1.367 . S
C1619 C1618 1.367 . S
C1619 C1621 1.433 . S
C1620 C1616 1.350 . S
C1620 C1617 1.463 1_556 S
C1620 N1624 1.427 . S
C1621 H1611 0.929 . S
C1621 C1619 1.433 . S
C1621 N1624 1.384 . S
C1622 H1613 0.929 . S
C1622 C1614 1.378 . S
C1622 C1617 1.350 . S
C1623 H1610 0.929 . S
C1623 C1615 1.433 . S
C1623 N1625 1.384 . S
N1624 C1620 1.427 . S
N1624 C1621 1.384 . S
N1625 C1617 1.427 . S
N1625 C1623 1.384 . S
H1626 C1632 0.930 . S
H1627 C1636 0.930 . S
H1628 C1641 0.929 . S
H1629 C1639 0.929 . S
H1630 C1634 0.929 . S
H1631 C1640 0.929 . S
C1632 H1626 0.930 . S
C1632 C1633 1.367 . S
C1632 C1640 1.378 . S
C1633 C1632 1.367 . S
C1633 C1641 1.433 . S
C1634 H1630 0.929 . S
C1634 C1636 1.378 . S
C1634 C1638 1.350 . S
C1635 C1638 1.463 . S
C1635 C1640 1.350 . S
C1635 N1643 1.427 . S
C1636 H1627 0.930 . S
C1636 C1634 1.378 . S
C1636 C1637 1.367 . S
C1637 C1636 1.367 . S
C1637 C1639 1.433 . S
C1638 C1634 1.350 . S
C1638 C1635 1.463 . S
C1638 N1642 1.427 . S
C1639 H1629 0.929 . S
C1639 C1637 1.433 . S
C1639 N1642 1.384 . S
C1640 H1631 0.929 . S
C1640 C1632 1.378 . S
C1640 C1635 1.350 . S
C1641 H1628 0.929 . S
C1641 C1633 1.433 . S
C1641 N1643 1.384 . S
N1642 C1638 1.427 . S
N1642 C1639 1.384 . S
N1643 C1635 1.427 . S
N1643 C1641 1.384 . S
H1644 C1650 0.930 . S
H1645 C1654 0.930 . S
H1646 C1659 0.929 . S
H1647 C1657 0.929 . S
H1648 C1652 0.929 . S
H1649 C1658 0.929 . S
C1650 H1644 0.930 . S
C1650 C1651 1.367 . S
C1650 C1658 1.378 . S
C1651 C1650 1.367 . S
C1651 C1659 1.433 . S
C1652 H1648 0.929 . S
C1652 C1654 1.378 . S
C1652 C1656 1.350 . S
C1653 C1656 1.463 1_556 S
C1653 C1658 1.350 . S
C1653 N1661 1.427 . S
C1654 H1645 0.930 . S
C1654 C1652 1.378 . S
C1654 C1655 1.367 . S
C1655 C1654 1.367 . S
C1655 C1657 1.433 . S
C1656 C1652 1.350 . S
C1656 C1653 1.463 1_554 S
C1656 N1660 1.427 . S
C1657 H1647 0.929 . S
C1657 C1655 1.433 . S
C1657 N1660 1.384 . S
C1658 H1649 0.929 . S
C1658 C1650 1.378 . S
C1658 C1653 1.350 . S
C1659 H1646 0.929 . S
C1659 C1651 1.433 . S
C1659 N1661 1.384 . S
N1660 C1656 1.427 . S
N1660 C1657 1.384 . S
N1661 C1653 1.427 . S
N1661 C1659 1.384 . S
H1662 C1668 0.930 . S
H1663 C1672 0.930 . S
H1664 C1677 0.929 . S
H1665 C1675 0.929 . S
H1666 C1670 0.929 . S
H1667 C1676 0.929 . S
C1668 H1662 0.930 . S
C1668 C1669 1.367 . S
C1668 C1676 1.378 . S
C1669 C1668 1.367 . S
C1669 C1677 1.433 . S
C1670 H1666 0.929 . S
C1670 C1672 1.378 . S
C1670 C1674 1.350 . S
C1671 C1674 1.463 . S
C1671 C1676 1.350 . S
C1671 N1679 1.427 . S
C1672 H1663 0.930 . S
C1672 C1670 1.378 . S
C1672 C1673 1.367 . S
C1673 C1672 1.367 . S
C1673 C1675 1.433 . S
C1674 C1670 1.350 . S
C1674 C1671 1.463 . S
C1674 N1678 1.427 . S
C1675 H1665 0.929 . S
C1675 C1673 1.433 . S
C1675 N1678 1.384 . S
C1676 H1667 0.929 . S
C1676 C1668 1.378 . S
C1676 C1671 1.350 . S
C1677 H1664 0.929 . S
C1677 C1669 1.433 . S
C1677 N1679 1.384 . S
N1678 C1674 1.427 . S
N1678 C1675 1.384 . S
N1679 C1671 1.427 . S
N1679 C1677 1.384 . S
H1680 C1686 0.930 . S
H1681 C1690 0.930 . S
H1682 C1695 0.929 . S
H1683 C1693 0.929 . S
H1684 C1688 0.929 . S
H1685 C1694 0.929 . S
C1686 H1680 0.930 . S
C1686 C1687 1.367 . S
C1686 C1694 1.378 . S
C1687 C1686 1.367 . S
C1687 C1695 1.433 . S
C1688 H1684 0.929 . S
C1688 C1690 1.378 . S
C1688 C1692 1.350 . S
C1689 C1692 1.463 1_565 S
C1689 C1694 1.350 . S
C1689 N1697 1.427 . S
C1690 H1681 0.930 . S
C1690 C1688 1.378 . S
C1690 C1691 1.367 . S
C1691 C1690 1.367 . S
C1691 C1693 1.433 . S
C1692 C1688 1.350 . S
C1692 C1689 1.463 1_545 S
C1692 N1696 1.427 . S
C1693 H1683 0.929 . S
C1693 C1691 1.433 . S
C1693 N1696 1.384 . S
C1694 H1685 0.929 . S
C1694 C1686 1.378 . S
C1694 C1689 1.350 . S
C1695 H1682 0.929 . S
C1695 C1687 1.433 . S
C1695 N1697 1.384 . S
N1696 C1692 1.427 . S
N1696 C1693 1.384 . S
N1697 C1689 1.427 . S
N1697 C1695 1.384 . S
H1698 C1704 0.930 . S
H1699 C1708 0.930 . S
H1700 C1713 0.929 . S
H1701 C1711 0.929 . S
H1702 C1706 0.929 . S
H1703 C1712 0.929 . S
C1704 H1698 0.930 . S
C1704 C1705 1.367 . S
C1704 C1712 1.378 . S
C1705 C1704 1.367 . S
C1705 C1713 1.433 . S
C1706 H1702 0.929 . S
C1706 C1708 1.378 . S
C1706 C1710 1.350 . S
C1707 C1710 1.463 1_455 S
C1707 C1712 1.350 . S
C1707 N1715 1.427 . S
C1708 H1699 0.930 . S
C1708 C1706 1.378 . S
C1708 C1709 1.367 . S
C1709 C1708 1.367 . S
C1709 C1711 1.433 . S
C1710 C1706 1.350 . S
C1710 C1707 1.463 1_655 S
C1710 N1714 1.427 . S
C1711 H1701 0.929 . S
C1711 C1709 1.433 . S
C1711 N1714 1.384 . S
C1712 H1703 0.929 . S
C1712 C1704 1.378 . S
C1712 C1707 1.350 . S
C1713 H1700 0.929 . S
C1713 C1705 1.433 . S
C1713 N1715 1.384 . S
N1714 C1710 1.427 . S
N1714 C1711 1.384 . S
N1715 C1707 1.427 . S
N1715 C1713 1.384 . S
H1716 C1722 0.930 . S
H1717 C1726 0.930 . S
H1718 C1731 0.929 . S
H1719 C1729 0.929 . S
H1720 C1724 0.929 . S
H1721 C1730 0.929 . S
C1722 H1716 0.930 . S
C1722 C1723 1.367 . S
C1722 C1730 1.378 . S
C1723 C1722 1.367 . S
C1723 C1731 1.433 . S
C1724 H1720 0.929 . S
C1724 C1726 1.378 . S
C1724 C1728 1.350 . S
C1725 C1728 1.463 . S
C1725 C1730 1.350 . S
C1725 N1733 1.427 . S
C1726 H1717 0.930 . S
C1726 C1724 1.378 . S
C1726 C1727 1.367 . S
C1727 C1726 1.367 . S
C1727 C1729 1.433 . S
C1728 C1724 1.350 . S
C1728 C1725 1.463 . S
C1728 N1732 1.427 . S
C1729 H1719 0.929 . S
C1729 C1727 1.433 . S
C1729 N1732 1.384 . S
C1730 H1721 0.929 . S
C1730 C1722 1.378 . S
C1730 C1725 1.350 . S
C1731 H1718 0.929 . S
C1731 C1723 1.433 . S
C1731 N1733 1.384 . S
N1732 C1728 1.427 . S
N1732 C1729 1.384 . S
N1733 C1725 1.427 . S
N1733 C1731 1.384 . S
H1734 C1740 0.930 . S
H1735 C1744 0.930 . S
H1736 C1749 0.929 . S
H1737 C1747 0.929 . S
H1738 C1742 0.929 . S
H1739 C1748 0.929 . S
C1740 H1734 0.930 . S
C1740 C1741 1.367 . S
C1740 C1748 1.378 . S
C1741 C1740 1.367 . S
C1741 C1749 1.433 . S
C1742 H1738 0.929 . S
C1742 C1744 1.378 . S
C1742 C1746 1.350 . S
C1743 C1746 1.463 . S
C1743 C1748 1.350 . S
C1743 N1751 1.427 . S
C1744 H1735 0.930 . S
C1744 C1742 1.378 . S
C1744 C1745 1.367 . S
C1745 C1744 1.367 . S
C1745 C1747 1.433 . S
C1746 C1742 1.350 . S
C1746 C1743 1.463 . S
C1746 N1750 1.427 . S
C1747 H1737 0.929 . S
C1747 C1745 1.433 . S
C1747 N1750 1.384 . S
C1748 H1739 0.929 . S
C1748 C1740 1.378 . S
C1748 C1743 1.350 . S
C1749 H1736 0.929 . S
C1749 C1741 1.433 . S
C1749 N1751 1.384 . S
N1750 C1746 1.427 . S
N1750 C1747 1.384 . S
N1751 C1743 1.427 . S
N1751 C1749 1.384 . S
H1752 C1758 0.930 . S
H1753 C1762 0.930 . S
H1754 C1767 0.929 . S
H1755 C1765 0.929 . S
H1756 C1760 0.929 . S
H1757 C1766 0.929 . S
C1758 H1752 0.930 . S
C1758 C1759 1.367 . S
C1758 C1766 1.378 . S
C1759 C1758 1.367 . S
C1759 C1767 1.433 . S
C1760 H1756 0.929 . S
C1760 C1762 1.378 . S
C1760 C1764 1.350 . S
C1761 C1764 1.463 . S
C1761 C1766 1.350 . S
C1761 N1769 1.427 . S
C1762 H1753 0.930 . S
C1762 C1760 1.378 . S
C1762 C1763 1.367 . S
C1763 C1762 1.367 . S
C1763 C1765 1.433 . S
C1764 C1760 1.350 . S
C1764 C1761 1.463 . S
C1764 N1768 1.427 . S
C1765 H1755 0.929 . S
C1765 C1763 1.433 . S
C1765 N1768 1.384 . S
C1766 H1757 0.929 . S
C1766 C1758 1.378 . S
C1766 C1761 1.350 . S
C1767 H1754 0.929 . S
C1767 C1759 1.433 . S
C1767 N1769 1.384 . S
N1768 C1764 1.427 . S
N1768 C1765 1.384 . S
N1769 C1761 1.427 . S
N1769 C1767 1.384 . S
H1770 C1776 0.930 . S
H1771 C1780 0.930 . S
H1772 C1785 0.929 . S
H1773 C1783 0.929 . S
H1774 C1778 0.929 . S
H1775 C1784 0.929 . S
C1776 H1770 0.930 . S
C1776 C1777 1.367 . S
C1776 C1784 1.378 . S
C1777 C1776 1.367 . S
C1777 C1785 1.433 . S
C1778 H1774 0.929 . S
C1778 C1780 1.378 . S
C1778 C1782 1.350 . S
C1779 C1782 1.463 . S
C1779 C1784 1.350 . S
C1779 N1787 1.427 . S
C1780 H1771 0.930 . S
C1780 C1778 1.378 . S
C1780 C1781 1.367 . S
C1781 C1780 1.367 . S
C1781 C1783 1.433 . S
C1782 C1778 1.350 . S
C1782 C1779 1.463 . S
C1782 N1786 1.427 . S
C1783 H1773 0.929 . S
C1783 C1781 1.433 . S
C1783 N1786 1.384 . S
C1784 H1775 0.929 . S
C1784 C1776 1.378 . S
C1784 C1779 1.350 . S
C1785 H1772 0.929 . S
C1785 C1777 1.433 . S
C1785 N1787 1.384 . S
N1786 C1782 1.427 . S
N1786 C1783 1.384 . S
N1787 C1779 1.427 . S
N1787 C1785 1.384 . S
H1788 C1794 0.930 . S
H1789 C1798 0.930 . S
H1790 C1803 0.929 . S
H1791 C1801 0.929 . S
H1792 C1796 0.929 . S
H1793 C1802 0.929 . S
C1794 H1788 0.930 . S
C1794 C1795 1.367 . S
C1794 C1802 1.378 . S
C1795 C1794 1.367 . S
C1795 C1803 1.433 . S
C1796 H1792 0.929 . S
C1796 C1798 1.378 . S
C1796 C1800 1.350 . S
C1797 C1800 1.463 1_545 S
C1797 C1802 1.350 . S
C1797 N1805 1.427 . S
C1798 H1789 0.930 . S
C1798 C1796 1.378 . S
C1798 C1799 1.367 . S
C1799 C1798 1.367 . S
C1799 C1801 1.433 . S
C1800 C1796 1.350 . S
C1800 C1797 1.463 1_565 S
C1800 N1804 1.427 . S
C1801 H1791 0.929 . S
C1801 C1799 1.433 . S
C1801 N1804 1.384 . S
C1802 H1793 0.929 . S
C1802 C1794 1.378 . S
C1802 C1797 1.350 . S
C1803 H1790 0.929 . S
C1803 C1795 1.433 . S
C1803 N1805 1.384 . S
N1804 C1800 1.427 . S
N1804 C1801 1.384 . S
N1805 C1797 1.427 . S
N1805 C1803 1.384 . S
H1806 C1812 0.930 . S
H1807 C1816 0.930 . S
H1808 C1821 0.929 . S
H1809 C1819 0.929 . S
H1810 C1814 0.929 . S
H1811 C1820 0.929 . S
C1812 H1806 0.930 . S
C1812 C1813 1.367 . S
C1812 C1820 1.378 . S
C1813 C1812 1.367 . S
C1813 C1821 1.433 . S
C1814 H1810 0.929 . S
C1814 C1816 1.378 . S
C1814 C1818 1.350 . S
C1815 C1818 1.463 1_655 S
C1815 C1820 1.350 . S
C1815 N1823 1.427 . S
C1816 H1807 0.930 . S
C1816 C1814 1.378 . S
C1816 C1817 1.367 . S
C1817 C1816 1.367 . S
C1817 C1819 1.433 . S
C1818 C1814 1.350 . S
C1818 C1815 1.463 1_455 S
C1818 N1822 1.427 . S
C1819 H1809 0.929 . S
C1819 C1817 1.433 . S
C1819 N1822 1.384 . S
C1820 H1811 0.929 . S
C1820 C1812 1.378 . S
C1820 C1815 1.350 . S
C1821 H1808 0.929 . S
C1821 C1813 1.433 . S
C1821 N1823 1.384 . S
N1822 C1818 1.427 . S
N1822 C1819 1.384 . S
N1823 C1815 1.427 . S
N1823 C1821 1.384 . S
H1824 C1830 0.930 . S
H1825 C1834 0.930 . S
H1826 C1839 0.929 . S
H1827 C1837 0.929 . S
H1828 C1832 0.929 . S
H1829 C1838 0.929 . S
C1830 H1824 0.930 . S
C1830 C1831 1.367 . S
C1830 C1838 1.378 . S
C1831 C1830 1.367 . S
C1831 C1839 1.433 . S
C1832 H1828 0.929 . S
C1832 C1834 1.378 . S
C1832 C1836 1.350 . S
C1833 C1836 1.463 1_554 S
C1833 C1838 1.350 . S
C1833 N1841 1.427 . S
C1834 H1825 0.930 . S
C1834 C1832 1.378 . S
C1834 C1835 1.367 . S
C1835 C1834 1.367 . S
C1835 C1837 1.433 . S
C1836 C1832 1.350 . S
C1836 C1833 1.463 1_556 S
C1836 N1840 1.427 . S
C1837 H1827 0.929 . S
C1837 C1835 1.433 . S
C1837 N1840 1.384 . S
C1838 H1829 0.929 . S
C1838 C1830 1.378 . S
C1838 C1833 1.350 . S
C1839 H1826 0.929 . S
C1839 C1831 1.433 . S
C1839 N1841 1.384 . S
N1840 C1836 1.427 . S
N1840 C1837 1.384 . S
N1841 C1833 1.427 . S
N1841 C1839 1.384 . S
H1842 C1848 0.930 . S
H1843 C1852 0.930 . S
H1844 C1857 0.929 . S
H1845 C1855 0.929 . S
H1846 C1850 0.929 . S
H1847 C1856 0.929 . S
C1848 H1842 0.930 . S
C1848 C1849 1.367 . S
C1848 C1856 1.378 . S
C1849 C1848 1.367 . S
C1849 C1857 1.433 . S
C1850 H1846 0.929 . S
C1850 C1852 1.378 . S
C1850 C1854 1.350 . S
C1851 C1854 1.463 . S
C1851 C1856 1.350 . S
C1851 N1859 1.427 . S
C1852 H1843 0.930 . S
C1852 C1850 1.378 . S
C1852 C1853 1.367 . S
C1853 C1852 1.367 . S
C1853 C1855 1.433 . S
C1854 C1850 1.350 . S
C1854 C1851 1.463 . S
C1854 N1858 1.427 . S
C1855 H1845 0.929 . S
C1855 C1853 1.433 . S
C1855 N1858 1.384 . S
C1856 H1847 0.929 . S
C1856 C1848 1.378 . S
C1856 C1851 1.350 . S
C1857 H1844 0.929 . S
C1857 C1849 1.433 . S
C1857 N1859 1.384 . S
N1858 C1854 1.427 . S
N1858 C1855 1.384 . S
N1859 C1851 1.427 . S
N1859 C1857 1.384 . S
H1860 C1866 0.930 . S
H1861 C1870 0.930 . S
H1862 C1875 0.929 . S
H1863 C1873 0.929 . S
H1864 C1868 0.929 . S
H1865 C1874 0.929 . S
C1866 H1860 0.930 . S
C1866 C1867 1.367 . S
C1866 C1874 1.378 . S
C1867 C1866 1.367 . S
C1867 C1875 1.433 . S
C1868 H1864 0.929 . S
C1868 C1870 1.378 . S
C1868 C1872 1.350 . S
C1869 C1872 1.463 1_556 S
C1869 C1874 1.350 . S
C1869 N1877 1.427 . S
C1870 H1861 0.930 . S
C1870 C1868 1.378 . S
C1870 C1871 1.367 . S
C1871 C1870 1.367 . S
C1871 C1873 1.433 . S
C1872 C1868 1.350 . S
C1872 C1869 1.463 1_554 S
C1872 N1876 1.427 . S
C1873 H1863 0.929 . S
C1873 C1871 1.433 . S
C1873 N1876 1.384 . S
C1874 H1865 0.929 . S
C1874 C1866 1.378 . S
C1874 C1869 1.350 . S
C1875 H1862 0.929 . S
C1875 C1867 1.433 . S
C1875 N1877 1.384 . S
N1876 C1872 1.427 . S
N1876 C1873 1.384 . S
N1877 C1869 1.427 . S
N1877 C1875 1.384 . S
H1878 C1884 0.930 . S
H1879 C1888 0.930 . S
H1880 C1893 0.929 . S
H1881 C1891 0.929 . S
H1882 C1886 0.929 . S
H1883 C1892 0.929 . S
C1884 H1878 0.930 . S
C1884 C1885 1.367 . S
C1884 C1892 1.378 . S
C1885 C1884 1.367 . S
C1885 C1893 1.433 . S
C1886 H1882 0.929 . S
C1886 C1888 1.378 . S
C1886 C1890 1.350 . S
C1887 C1890 1.463 . S
C1887 C1892 1.350 . S
C1887 N1895 1.427 . S
C1888 H1879 0.930 . S
C1888 C1886 1.378 . S
C1888 C1889 1.367 . S
C1889 C1888 1.367 . S
C1889 C1891 1.433 . S
C1890 C1886 1.350 . S
C1890 C1887 1.463 . S
C1890 N1894 1.427 . S
C1891 H1881 0.929 . S
C1891 C1889 1.433 . S
C1891 N1894 1.384 . S
C1892 H1883 0.929 . S
C1892 C1884 1.378 . S
C1892 C1887 1.350 . S
C1893 H1880 0.929 . S
C1893 C1885 1.433 . S
C1893 N1895 1.384 . S
N1894 C1890 1.427 . S
N1894 C1891 1.384 . S
N1895 C1887 1.427 . S
N1895 C1893 1.384 . S
C823 C101 1.860 . S
C827 C33 1.870 . S
C841 C67 1.858 . S
C845 C135 1.870 . S
C859 C169 1.861 . S
C863 C237 1.868 . S
C877 C271 1.861 . S
C881 C203 1.869 . S
C895 C441 1.867 . S
C899 C305 1.863 . S
C913 C339 1.860 . S
C917 C475 1.870 . S
C931 C509 1.871 . S
C935 C373 1.858 . S
C949 C543 1.859 . S
C953 C407 1.871 . S
C967 C577 1.858 . S
C971 C679 1.871 . S
C985 C611 1.871 . S
C989 C747 1.858 . S
C1003 C645 1.861 . S
C1007 C781 1.867 . S
C1021 C815 1.870 . S
C1025 C713 1.860 . S
C1039 C138 1.555 . S
C1043 C2 1.559 . S
C1057 C172 1.553 . S
C1061 C36 1.561 . S
C1075 C206 1.559 . S
C1079 C70 1.555 . S
C1093 C240 1.553 . S
C1097 C104 1.561 . S
C1111 C274 1.561 . S
C1115 C478 1.553 . S
C1129 C512 1.559 . S
C1133 C308 1.555 . S
C1147 C410 1.561 . S
C1151 C342 1.553 . S
C1165 C444 1.553 . S
C1169 C376 1.560 . S
C1183 C716 1.554 . S
C1187 C546 1.560 . S
C1201 C580 1.554 . S
C1205 C648 1.560 . S
C1219 C614 1.561 . S
C1223 C682 1.553 . S
C1237 C784 1.553 . S
C1241 C750 1.561 . S
C1255 C243 0.825 . S
C1259 C39 0.820 . S
C1273 C73 0.845 . S
C1277 C141 0.841 . S
C1291 C175 0.834 . S
C1295 C107 0.829 . S
C1309 C209 0.820 . S
C1313 C5 0.825 . S
C1327 C753 0.824 . S
C1331 C685 0.830 . S
C1345 C549 0.816 . S
C1349 C583 0.813 . S
C1363 C617 0.814 . S
C1367 C787 0.812 . S
C1381 C719 0.817 . S
C1385 C651 0.814 . S
C1399 C447 0.823 . S
C1403 C515 0.828 . S
C1417 C311 0.830 . S
C1421 C379 0.835 . S
C1435 C345 0.835 . S
C1439 C277 0.840 . S
C1453 C413 0.825 . S
C1457 C481 0.830 . S
C1471 C768 2.292 . S
C1475 C20 2.296 . S
C1489 C564 2.294 . S
C1493 C54 2.296 . S
C1507 C802 2.293 . S
C1511 C88 2.290 . S
C1525 C734 2.296 . S
C1529 C122 2.293 . S
C1543 C156 2.295 . S
C1547 C632 2.290 . S
C1561 C190 2.290 . S
C1565 C666 2.293 . S
C1579 C224 2.296 . S
C1583 C700 2.294 . S
C1597 C598 2.296 . S
C1601 C258 2.294 . S
C1615 C292 2.293 . S
C1619 C462 2.290 . S
C1633 C496 2.296 . S
C1637 C326 2.294 . S
C1651 C530 2.294 . S
C1655 C360 2.296 . S
C1669 C428 2.295 . S
C1673 C394 2.291 . S
C1687 C247 1.463 . S
C1691 C485 1.461 . S
C1705 C145 1.459 . S
C1709 C519 1.462 . S
C1723 C417 1.462 . S
C1727 C179 1.464 . S
C1741 C451 1.462 . S
C1745 C213 1.460 . S
C1759 C43 1.458 . S
C1763 C349 1.460 . S
C1777 C383 1.459 . S
C1781 C77 1.462 . S
C1795 C281 1.460 . S
C1799 C111 1.458 . S
C1813 C315 1.458 . S
C1817 C9 1.460 . S
C1831 C723 1.463 . S
C1835 C689 1.461 . S
C1849 C757 1.464 . S
C1853 C587 1.462 . S
C1867 C621 1.458 . S
C1871 C553 1.459 . S
C1885 C791 1.458 . S
C1889 C655 1.458 . S
