# Generated by pormake.
# Topology vby, (6)-cn, num edge types: 1
# Building blocks:
#     Node 0, Type 0, BuildingBlock: INOVEN_clean_sbu_0, # of connection points: 6
#     Node 1, Type 0, BuildingBlock: INOVEN_clean_sbu_0, # of connection points: 6
#     Node 2, Type 0, BuildingBlock: INOVEN_clean_sbu_0, # of connection points: 6
#     Node 3, Type 0, BuildingBlock: INOVEN_clean_sbu_0, # of connection points: 6
#     Node 4, Type 0, BuildingBlock: INOVEN_clean_sbu_0, # of connection points: 6
#     Node 5, Type 0, BuildingBlock: INOVEN_clean_sbu_0, # of connection points: 6
#     Node 6, Type 0, BuildingBlock: INOVEN_clean_sbu_0, # of connection points: 6
#     Node 7, Type 0, BuildingBlock: INOVEN_clean_sbu_0, # of connection points: 6
#     Edge 8, Type (0, 0), BuildingBlock: UVAHIK_clean_linker_0, # of connection points: 2
#     Edge 9, Type (0, 0), BuildingBlock: UVAHIK_clean_linker_0, # of connection points: 2
#     Edge 10, Type (0, 0), BuildingBlock: UVAHIK_clean_linker_0, # of connection points: 2
#     Edge 11, Type (0, 0), BuildingBlock: UVAHIK_clean_linker_0, # of connection points: 2
#     Edge 12, Type (0, 0), BuildingBlock: UVAHIK_clean_linker_0, # of connection points: 2
#     Edge 13, Type (0, 0), BuildingBlock: UVAHIK_clean_linker_0, # of connection points: 2
#     Edge 14, Type (0, 0), BuildingBlock: UVAHIK_clean_linker_0, # of connection points: 2
#     Edge 15, Type (0, 0), BuildingBlock: UVAHIK_clean_linker_0, # of connection points: 2
#     Edge 16, Type (0, 0), BuildingBlock: UVAHIK_clean_linker_0, # of connection points: 2
#     Edge 17, Type (0, 0), BuildingBlock: UVAHIK_clean_linker_0, # of connection points: 2
#     Edge 18, Type (0, 0), BuildingBlock: UVAHIK_clean_linker_0, # of connection points: 2
#     Edge 19, Type (0, 0), BuildingBlock: UVAHIK_clean_linker_0, # of connection points: 2
#     Edge 20, Type (0, 0), BuildingBlock: UVAHIK_clean_linker_0, # of connection points: 2
#     Edge 21, Type (0, 0), BuildingBlock: UVAHIK_clean_linker_0, # of connection points: 2
#     Edge 22, Type (0, 0), BuildingBlock: UVAHIK_clean_linker_0, # of connection points: 2
#     Edge 23, Type (0, 0), BuildingBlock: UVAHIK_clean_linker_0, # of connection points: 2
#     Edge 24, Type (0, 0), BuildingBlock: UVAHIK_clean_linker_0, # of connection points: 2
#     Edge 25, Type (0, 0), BuildingBlock: UVAHIK_clean_linker_0, # of connection points: 2
#     Edge 26, Type (0, 0), BuildingBlock: UVAHIK_clean_linker_0, # of connection points: 2
#     Edge 27, Type (0, 0), BuildingBlock: UVAHIK_clean_linker_0, # of connection points: 2
#     Edge 28, Type (0, 0), BuildingBlock: UVAHIK_clean_linker_0, # of connection points: 2
#     Edge 29, Type (0, 0), BuildingBlock: UVAHIK_clean_linker_0, # of connection points: 2
#     Edge 30, Type (0, 0), BuildingBlock: UVAHIK_clean_linker_0, # of connection points: 2
#     Edge 31, Type (0, 0), BuildingBlock: UVAHIK_clean_linker_0, # of connection points: 2
# Relax obj value: 0.194
# Max RMSD: 0.215
# Mean RMSD: 0.215
data_MOF--net-vby--node1-INOVEN_clean_sbu_0--edge1-UVAHIK_clean_linker_0
_symmetry_space_group_name_H-M    P1
_symmetry_Int_Tables_number       1
_symmetry_cell_setting            triclinic
loop_
_symmetry_equiv_pos_as_xyz
'x, y, z'
_cell_length_a     20.159575
_cell_length_b     120.69474
_cell_length_c     38.183269
_cell_angle_alpha  90.036192
_cell_angle_beta   83.989371
_cell_angle_gamma 90.209241
loop_
_atom_site_label
_atom_site_type_symbol
_atom_site_fract_x
_atom_site_fract_y
_atom_site_fract_z
_atom_type_partial_charge
Gd0 Gd 0.07911 0.39683 0.01059 0.0
Gd1 Gd 0.06594 0.37255 0.0216 0.0
C2 C 0.93092 0.38573 0.02292 0.0
C3 C 0.07871 0.4175 0.9908 0.0
C4 C 0.05755 0.42909 0.99896 0.0
C5 C 0.07394 0.43456 0.02948 0.0
C6 C 0.0288 0.43527 0.97335 0.0
C7 C 0.03805 0.45232 0.00714 0.0
C8 C 1.01903 0.44671 0.97738 0.0
C9 C 0.06418 0.44602 0.03354 0.0
C10 C 0.07825 0.39049 0.0793 0.0
C11 C 0.21376 0.38343 0.00667 0.0
C12 C 0.0707 0.35188 0.04085 0.0
C13 C 0.10896 0.34134 0.03621 0.0
C14 C 0.11869 0.3359 0.00345 0.0
C15 C 0.12952 0.33599 0.06588 0.0
C16 C 0.16509 0.31971 0.03069 0.0
C17 C 0.15734 0.32535 0.06318 0.0
C18 C 0.14647 0.32524 0.00074 0.0
C19 C 0.05865 0.37902 0.95402 0.0
O20 O 0.968 0.39381 0.00757 0.0
O21 O 0.95928 0.37726 0.03737 0.0
O22 O 0.12336 0.41317 0.00904 0.0
O23 O 0.03477 0.41024 0.9823 0.0
O24 O 0.11391 0.39849 0.06483 0.0
O25 O 0.04156 0.38664 0.05751 0.0
O26 O 0.17739 0.37541 0.0226 0.0
O27 O 0.18452 0.39186 0.99267 0.0
O28 O 0.0398 0.35535 0.01455 0.0
O29 O 0.09546 0.36001 0.05815 0.0
O30 O 1.02347 0.37115 0.96964 0.0
O31 O 0.09961 0.38278 0.97397 0.0
H32 H 0.09671 0.43007 0.04965 0.0
H33 H 1.01614 0.4313 0.94944 0.0
H34 H 0.99761 0.4512 0.95677 0.0
H35 H 0.07992 0.45001 0.05671 0.0
H36 H 0.10299 0.33972 0.98004 0.0
H37 H 0.1223 0.33993 0.0915 0.0
H38 H 0.17209 0.32149 0.08674 0.0
H39 H 0.15096 0.32118 0.97532 0.0
Gd40 Gd 0.98923 0.65241 0.01577 0.0
Gd41 Gd 0.97566 0.62817 0.02728 0.0
C42 C 0.84123 0.6416 0.03124 0.0
C43 C 0.98441 0.67303 0.99601 0.0
C44 C 0.94636 0.68358 0.00069 0.0
C45 C 0.93706 0.68905 0.03341 0.0
C46 C 0.92544 0.68891 0.97107 0.0
C47 C 0.89037 0.70523 0.00621 0.0
C48 C 0.89769 0.69956 0.97377 0.0
C49 C 0.90935 0.69972 0.03612 0.0
C50 C 0.99664 0.64613 0.08349 0.0
C51 C 0.12406 0.63919 0.01453 0.0
C52 C 0.97585 0.60751 0.04718 0.0
C53 C 0.99704 0.59591 0.03912 0.0
C54 C 0.98077 0.59042 0.00861 0.0
C55 C 1.02568 0.58975 0.06482 0.0
C56 C 1.01659 0.57267 0.0311 0.0
C57 C 0.03548 0.5783 0.06086 0.0
C58 C 0.99056 0.57896 0.00463 0.0
C59 C 0.9757 0.63446 0.95854 0.0
O60 O 0.87767 0.64958 0.01507 0.0
O61 O 0.87044 0.6332 0.0454 0.0
O62 O 1.01602 0.66962 0.02213 0.0
O63 O 0.95901 0.66487 0.97914 0.0
O64 O 0.0317 0.65398 0.06766 0.0
O65 O 0.95571 0.64228 0.06368 0.0
O66 O 0.08689 0.63114 0.03004 0.0
O67 O 0.09577 0.64764 -3e-05 0.0
O68 O 0.93137 0.61183 0.02883 0.0
O69 O 1.01972 0.61477 0.05574 0.0
O70 O 0.9397 0.62654 0.97327 0.0
O71 O 1.01311 0.63824 0.98008 0.0
H72 H 0.95303 0.68525 0.05678 0.0
H73 H 0.9323 0.68495 0.94548 0.0
H74 H 0.88265 0.70339 0.95024 0.0
H75 H 0.9052 0.70381 0.06151 0.0
H76 H 0.95809 0.5949 0.98839 0.0
H77 H 0.03823 0.59373 0.08871 0.0
H78 H 0.05682 0.57382 0.08152 0.0
H79 H 0.97492 0.57495 0.98146 0.0
Gd80 Gd 0.06517 0.65269 0.52153 0.0
Gd81 Gd 0.07788 0.62844 0.50997 0.0
C82 C 0.21278 0.64193 0.50601 0.0
C83 C 0.07014 0.67331 0.54138 0.0
C84 C 0.10871 0.68383 0.53693 0.0
C85 C 0.12877 0.68833 0.50349 0.0
C86 C 0.11952 0.69008 0.56686 0.0
C87 C 0.16612 0.7054 0.53016 0.0
C88 C 0.14793 0.7007 0.56357 0.0
C89 C 0.1571 0.69897 0.50016 0.0
C90 C 0.0569 0.6464 0.45395 0.0
C91 C 0.92987 0.63943 0.52266 0.0
C92 C 0.07721 0.6078 0.48986 0.0
C93 C 0.05595 0.59621 0.49804 0.0
C94 C 0.06371 0.59129 0.53073 0.0
C95 C 0.03588 0.58953 0.47093 0.0
C96 C 0.0364 0.57303 0.50803 0.0
C97 C 1.02615 0.57811 0.47582 0.0
C98 C 0.05397 0.57984 0.53567 0.0
C99 C 0.07752 0.63474 0.57879 0.0
O100 O 0.17666 0.6499 0.52215 0.0
O101 O 0.18326 0.63351 0.4919 0.0
O102 O 0.03954 0.66989 0.51486 0.0
O103 O 0.09473 0.66516 0.5585 0.0
O104 O 1.02198 0.6542 0.46989 0.0
O105 O 0.09804 0.64256 0.47357 0.0
O106 O 0.96675 0.63139 0.50712 0.0
O107 O 0.95847 0.64788 0.5373 0.0
O108 O 0.12191 0.61213 0.50816 0.0
O109 O 0.03319 0.61502 0.4816 0.0
O110 O 0.11315 0.6268 0.56417 0.0
O111 O 0.04064 0.63851 0.55709 0.0
H112 H 0.12112 0.68373 0.47986 0.0
H113 H 0.10391 0.68688 0.59295 0.0
H114 H 0.15326 0.70539 0.5873 0.0
H115 H 0.1714 0.70221 0.474 0.0
H116 H 0.07934 0.59622 0.55214 0.0
H117 H 0.03042 0.59308 0.44533 0.0
H118 H 1.01343 0.57318 0.45375 0.0
H119 H 0.06123 0.5763 0.56103 0.0
Gd120 Gd 0.97776 0.39729 0.52784 0.0
Gd121 Gd 0.99062 0.37308 0.51587 0.0
C122 C 0.12588 0.38634 0.51469 0.0
C123 C 0.97847 0.41789 0.54836 0.0
C124 C 0.99952 0.42949 0.5402 0.0
C125 C 0.99166 0.43441 0.50753 0.0
C126 C 1.01954 0.43617 0.56732 0.0
C127 C 1.01884 0.45267 0.53025 0.0
C128 C 0.02916 0.4476 0.56245 0.0
C129 C 1.00129 0.44586 0.50261 0.0
C130 C 0.97736 0.39117 0.459 0.0
C131 C 0.84295 0.38379 0.53174 0.0
C132 C 0.98604 0.35246 0.49594 0.0
C133 C 0.9475 0.34192 0.49963 0.0
C134 C 0.92723 0.33721 0.53274 0.0
C135 C 0.93724 0.33586 0.46926 0.0
C136 C 0.89127 0.32025 0.50486 0.0
C137 C 0.90942 0.32518 0.4718 0.0
C138 C 0.89937 0.32651 0.53532 0.0
C139 C 0.99957 0.37934 0.58348 0.0
O140 O 0.08901 0.39436 0.53037 0.0
O141 O 0.09728 0.3779 0.50003 0.0
O142 O 0.93344 0.41357 0.53024 0.0
O143 O 1.0228 0.41067 0.55622 0.0
O144 O 0.94185 0.39908 0.47392 0.0
O145 O 1.01457 0.3873 0.4804 0.0
O146 O 0.87907 0.37585 0.51538 0.0
O147 O 0.87251 0.39217 0.54601 0.0
O148 O 1.01513 0.35585 0.52301 0.0
O149 O 0.96257 0.36063 0.47844 0.0
O150 O 0.03488 0.37163 0.56728 0.0
O151 O 0.95788 0.38311 0.56406 0.0
H152 H 0.97607 0.42948 0.48611 0.0
H153 H 1.02508 0.43262 0.5929 0.0
H154 H 0.04187 0.45252 0.58452 0.0
H155 H 0.99397 0.4494 0.47726 0.0
H156 H 0.93475 0.34163 0.5567 0.0
H157 H 0.95262 0.33925 0.44341 0.0
H158 H 0.90288 0.32075 0.44774 0.0
H159 H 0.88657 0.323 0.56124 0.0
Gd160 Gd 0.57943 0.89693 0.01034 0.0
Gd161 Gd 0.56609 0.87265 0.02141 0.0
C162 C 0.43112 0.88586 0.02282 0.0
C163 C 0.57935 0.91758 0.99039 0.0
C164 C 0.55768 0.92914 0.99838 0.0
C165 C 0.56458 0.93411 0.03114 0.0
C166 C 0.53818 0.93576 0.97107 0.0
C167 C 0.53756 0.9523 0.00813 0.0
C168 C 0.52816 0.94718 0.97584 0.0
C169 C 0.55456 0.94555 0.03595 0.0
C170 C 0.5785 0.8906 0.07905 0.0
C171 C 0.71399 0.88351 0.00655 0.0
C172 C 0.57076 0.85198 0.04068 0.0
C173 C 0.60899 0.84144 0.03603 0.0
C174 C 0.61839 0.83597 0.00332 0.0
C175 C 0.62988 0.83612 0.06568 0.0
C176 C 0.66513 0.8198 0.03056 0.0
C177 C 0.6577 0.82548 0.063 0.0
C178 C 0.64618 0.82531 0.00063 0.0
C179 C 0.55891 0.87911 0.95382 0.0
O180 O 0.46821 0.89396 0.00753 0.0
O181 O 0.45946 0.87737 0.03718 0.0
O182 O 0.62317 0.9133 0.00926 0.0
O183 O 0.53591 0.9103 0.98149 0.0
O184 O 0.61425 0.89858 0.06458 0.0
O185 O 0.54179 0.88675 0.05727 0.0
O186 O 0.67754 0.87549 0.02245 0.0
O187 O 0.68485 0.89195 0.99253 0.0
O188 O 0.53987 0.85545 0.01437 0.0
O189 O 0.59553 0.86011 0.05798 0.0
O190 O 0.52363 0.87125 0.96945 0.0
O191 O 0.5999 0.88286 0.97377 0.0
H192 H 0.57976 0.92924 0.05271 0.0
H193 H 0.5334 0.93218 0.94542 0.0
H194 H 0.51591 0.95206 0.95364 0.0
H195 H 0.56115 0.94913 0.06138 0.0
H196 H 0.60244 0.83976 0.97993 0.0
H197 H 0.62292 0.84008 0.09127 0.0
H198 H 0.67272 0.82164 0.08654 0.0
H199 H 0.6504 0.82122 0.97525 0.0
Gd200 Gd 0.48882 0.15229 0.01573 0.0
Gd201 Gd 0.47521 0.12805 0.02725 0.0
C202 C 0.3408 0.14149 0.03113 0.0
C203 C 0.48408 0.17292 0.99596 0.0
C204 C 0.44605 0.18347 0.00061 0.0
C205 C 0.43638 0.18892 0.03336 0.0
C206 C 0.42554 0.18883 0.97094 0.0
C207 C 0.39014 0.20512 0.00612 0.0
C208 C 0.39784 0.19948 0.97363 0.0
C209 C 0.40872 0.19958 0.03607 0.0
C210 C 0.49613 0.14601 0.08345 0.0
C211 C 0.62367 0.13906 0.01441 0.0
C212 C 0.47515 0.1074 0.04727 0.0
C213 C 0.49684 0.09584 0.03936 0.0
C214 C 0.49003 0.09085 0.00662 0.0
C215 C 0.51627 0.08923 0.06673 0.0
C216 C 0.51697 0.07267 0.02976 0.0
C217 C 0.52629 0.07781 0.06202 0.0
C218 C 0.50005 0.07941 0.00188 0.0
C219 C 0.47528 0.13435 0.95852 0.0
O220 O 0.37727 0.14947 0.01499 0.0
O221 O 0.36997 0.13309 0.04529 0.0
O222 O 0.5156 0.1695 0.0221 0.0
O223 O 0.45869 0.16476 0.97908 0.0
O224 O 0.53125 0.15386 0.06763 0.0
O225 O 0.45521 0.14217 0.06362 0.0
O226 O 0.58652 0.13099 0.02985 0.0
O227 O 0.59537 0.14753 -7e-05 0.0
O228 O 0.43147 0.11167 0.02831 0.0
O229 O 0.51852 0.11469 0.05622 0.0
O230 O 0.43921 0.12644 0.97325 0.0
O231 O 0.5127 0.13812 0.98006 0.0
H232 H 0.45203 0.18509 0.05677 0.0
H233 H 0.43269 0.18489 0.94532 0.0
H234 H 0.38311 0.20334 0.95007 0.0
H235 H 0.40427 0.20365 0.06149 0.0
H236 H 0.47491 0.09571 0.98501 0.0
H237 H 0.52099 0.09283 0.09236 0.0
H238 H 0.53849 0.07295 0.08427 0.0
H239 H 0.49351 0.07582 0.97647 0.0
Gd240 Gd 0.56451 0.15276 0.52151 0.0
Gd241 Gd 0.57708 0.12851 0.50997 0.0
C242 C 0.71204 0.14199 0.50586 0.0
C243 C 0.56923 0.17338 0.54144 0.0
C244 C 0.60774 0.18393 0.53766 0.0
C245 C 0.62787 0.18863 0.50451 0.0
C246 C 0.61811 0.19 0.56798 0.0
C247 C 0.66393 0.2056 0.53228 0.0
C248 C 0.64591 0.20068 0.56537 0.0
C249 C 0.65572 0.19932 0.50186 0.0
C250 C 0.55596 0.14646 0.45396 0.0
C251 C 0.42917 0.13954 0.52243 0.0
C252 C 0.57609 0.10785 0.49003 0.0
C253 C 0.55549 0.09623 0.49846 0.0
C254 C 0.5735 0.09081 0.52867 0.0
C255 C 0.52546 0.08999 0.47334 0.0
C256 C 0.5366 0.07298 0.50693 0.0
C257 C 0.51599 0.07854 0.47751 0.0
C258 C 0.56404 0.07934 0.53288 0.0
C259 C 0.57677 0.13481 0.57879 0.0
O260 O 0.67601 0.14997 0.52206 0.0
O261 O 0.68241 0.13358 0.49177 0.0
O262 O 0.53989 0.16999 0.51444 0.0
O263 O 0.59288 0.16521 0.55887 0.0
O264 O 0.52106 0.15426 0.46994 0.0
O265 O 0.59718 0.14262 0.47355 0.0
O266 O 0.46607 0.1315 0.50688 0.0
O267 O 0.45773 0.14798 0.53713 0.0
O268 O 0.6218 0.11225 0.50753 0.0
O269 O 0.53141 0.11503 0.48231 0.0
O270 O 0.61231 0.12685 0.56418 0.0
O271 O 0.53992 0.13859 0.55709 0.0
H272 H 0.62027 0.18419 0.48058 0.0
H273 H 0.60283 0.18661 0.59386 0.0
H274 H 0.65254 0.20512 0.5894 0.0
H275 H 0.66843 0.20282 0.47592 0.0
H276 H 0.59727 0.09535 0.54845 0.0
H277 H 0.51153 0.09392 0.44968 0.0
H278 H 0.49354 0.074 0.45728 0.0
H279 H 0.58102 0.07538 0.55576 0.0
Gd280 Gd 0.47801 0.89713 0.52765 0.0
Gd281 Gd 0.49091 0.87294 0.51561 0.0
C282 C 0.62608 0.88619 0.51449 0.0
C283 C 0.47905 0.91774 0.54811 0.0
C284 C 0.49943 0.92938 0.53977 0.0
C285 C 0.48141 0.9348 0.50957 0.0
C286 C 0.52931 0.93561 0.56496 0.0
C287 C 0.51805 0.95264 0.53143 0.0
C288 C 0.53865 0.94707 0.56084 0.0
C289 C 0.49074 0.94628 0.50543 0.0
C290 C 0.47757 0.89105 0.45877 0.0
C291 C 0.34321 0.88363 0.53154 0.0
C292 C 0.48602 0.85233 0.49563 0.0
C293 C 0.44747 0.8418 0.50002 0.0
C294 C 0.42732 0.8373 0.53344 0.0
C295 C 0.43675 0.83557 0.47006 0.0
C296 C 0.39009 0.82023 0.50668 0.0
C297 C 0.40835 0.82495 0.47329 0.0
C298 C 0.39901 0.82665 0.53671 0.0
C299 C 0.49979 0.87916 0.58328 0.0
O300 O 0.58915 0.89417 0.53039 0.0
O301 O 0.59747 0.87779 0.49962 0.0
O302 O 0.43303 0.91337 0.53077 0.0
O303 O 0.524 0.91055 0.55542 0.0
O304 O 0.44214 0.89896 0.47373 0.0
O305 O 0.51478 0.88716 0.48014 0.0
O306 O 0.37937 0.87571 0.51516 0.0
O307 O 0.37273 0.89202 0.54584 0.0
O308 O 0.51657 0.85574 0.52219 0.0
O309 O 0.46142 0.86049 0.47857 0.0
O310 O 0.53495 0.87143 0.56707 0.0
O311 O 0.45817 0.88295 0.56386 0.0
H312 H 0.45777 0.93026 0.48975 0.0
H313 H 0.54324 0.93168 0.5886 0.0
H314 H 0.56101 0.95161 0.58111 0.0
H315 H 0.47379 0.95024 0.48255 0.0
H316 H 0.43489 0.84189 0.55709 0.0
H317 H 0.45243 0.83878 0.44399 0.0
H318 H 0.40311 0.82027 0.44953 0.0
H319 H 0.38464 0.82341 0.56285 0.0
C320 C 0.32718 0.39194 0.99009 0.0
C321 C 0.28802 0.38323 0.00574 0.0
C322 C 0.39648 0.39218 0.99138 0.0
C323 C 0.54161 0.37448 0.00787 0.0
H324 H 0.62641 0.40266 0.02378 0.0
C325 C 0.81714 0.37725 0.03831 0.0
C326 C 0.85686 0.38592 0.02283 0.0
C327 C 0.74804 0.37702 0.0364 0.0
C328 C 0.60384 0.39473 0.01892 0.0
H329 H 0.29201 0.36783 0.03468 0.0
H330 H 0.41243 0.36827 0.03708 0.0
H331 H 0.50673 0.40192 0.01933 0.0
H332 H 0.85408 0.40125 0.99346 0.0
H333 H 0.73385 0.40085 0.99003 0.0
H334 H 0.63869 0.36729 0.00753 0.0
C335 C 0.38973 0.37489 0.02343 0.0
C336 C 0.53493 0.3943 0.01632 0.0
C337 C 0.32038 0.37465 0.02217 0.0
C338 C 0.82525 0.39446 0.00586 0.0
C339 C 0.75604 0.39425 0.00399 0.0
C340 C 0.61049 0.37491 0.01049 0.0
C341 C 0.42883 0.38371 0.00836 0.0
C342 C 0.50267 0.38417 0.01078 0.0
C343 C 0.71641 0.38547 0.01897 0.0
C344 C 0.64272 0.38504 0.01611 0.0
H345 H 0.30424 0.39869 0.97716 0.0
H346 H 0.42474 0.39902 0.97893 0.0
H347 H 0.51906 0.36655 0.00303 0.0
H348 H 0.83947 0.37052 0.05166 0.0
H349 H 0.71933 0.37022 0.04879 0.0
C350 C 0.22971 0.63043 0.03158 0.0
C351 C 0.19815 0.63898 0.01458 0.0
C352 C 0.29894 0.63063 0.03342 0.0
C353 C 0.45708 0.64371 0.99285 0.0
H354 H 0.52604 0.63437 0.0791 0.0
C355 C 0.73474 0.65038 0.01558 0.0
C356 C 0.76697 0.64182 0.03213 0.0
C357 C 0.66544 0.65014 0.01414 0.0
C358 C 0.50788 0.6369 0.05465 0.0
H359 H 0.21558 0.6544 0.98589 0.0
H360 H 0.33549 0.65478 0.98928 0.0
H361 H 0.40643 0.63348 0.07445 0.0
H362 H 0.75057 0.62634 0.06061 0.0
H363 H 0.63032 0.62589 0.05796 0.0
H364 H 0.55848 0.64713 0.97305 0.0
C365 C 0.30706 0.64783 0.00087 0.0
C366 C 0.43901 0.63638 0.05195 0.0
C367 C 0.23793 0.64763 0.99905 0.0
C368 C 0.72768 0.63312 0.04778 0.0
C369 C 0.6584 0.63288 0.04637 0.0
C370 C 0.52591 0.64423 0.99556 0.0
C371 C 0.33869 0.63938 0.01829 0.0
C372 C 0.41246 0.63978 0.02101 0.0
C373 C 0.62622 0.64133 0.02921 0.0
C374 C 0.55246 0.64085 0.02651 0.0
H375 H 0.20088 0.62363 0.04387 0.0
H376 H 0.32134 0.62388 0.04661 0.0
H377 H 0.43898 0.64623 0.96838 0.0
H378 H 0.76315 0.65723 0.00325 0.0
H379 H 0.64259 0.6569 0.0012 0.0
C380 C 0.82388 0.63072 0.50537 0.0
C381 C 0.85579 0.63922 0.52257 0.0
C382 C 0.75466 0.63093 0.50352 0.0
C383 C 0.59707 0.64396 0.54433 0.0
H384 H 0.52766 0.63474 0.45795 0.0
C385 C 0.31968 0.6507 0.5217 0.0
C386 C 0.28706 0.64215 0.50509 0.0
C387 C 0.38898 0.65046 0.52312 0.0
C388 C 0.54594 0.63724 0.48244 0.0
H389 H 0.83899 0.65459 0.55157 0.0
H390 H 0.71912 0.655 0.54814 0.0
H391 H 0.64723 0.63384 0.46258 0.0
H392 H 0.30279 0.62669 0.47646 0.0
H393 H 0.42302 0.62624 0.47906 0.0
H394 H 0.49583 0.64738 0.56418 0.0
C395 C 0.74725 0.64806 0.53642 0.0
C396 C 0.61479 0.63671 0.48513 0.0
C397 C 0.81636 0.64786 0.53825 0.0
C398 C 0.32597 0.63346 0.48934 0.0
C399 C 0.39525 0.63322 0.49073 0.0
C400 C 0.52826 0.64451 0.54163 0.0
C401 C 0.71527 0.63965 0.51882 0.0
C402 C 0.6415 0.64006 0.51611 0.0
C403 C 0.42781 0.64166 0.50795 0.0
C404 C 0.50155 0.64117 0.51064 0.0
H405 H 0.85244 0.62393 0.49294 0.0
H406 H 0.73199 0.6242 0.49019 0.0
H407 H 0.61528 0.64645 0.56884 0.0
H408 H 0.29157 0.65754 0.53411 0.0
H409 H 0.41214 0.6572 0.53612 0.0
C410 C 0.7298 0.39222 0.54876 0.0
C411 C 0.76865 0.38357 0.53269 0.0
C412 C 0.66051 0.39248 0.54741 0.0
C413 C 0.51463 0.37493 0.52967 0.0
H414 H 0.43119 0.40323 0.51534 0.0
C415 C 0.23945 0.37795 0.49891 0.0
C416 C 0.19998 0.38654 0.51481 0.0
C417 C 0.30852 0.3777 0.50093 0.0
C418 C 0.45337 0.39526 0.51976 0.0
H419 H 0.76407 0.36833 0.50296 0.0
H420 H 0.6437 0.36881 0.50045 0.0
H421 H 0.55076 0.40242 0.51997 0.0
H422 H 0.20319 0.40171 0.54506 0.0
H423 H 0.32336 0.40127 0.54867 0.0
H424 H 0.41725 0.36777 0.52938 0.0
C425 C 0.66662 0.37535 0.51448 0.0
C426 C 0.52223 0.39479 0.52246 0.0
C427 C 0.73596 0.37509 0.51581 0.0
C428 C 0.23183 0.39499 0.53231 0.0
C429 C 0.30101 0.39475 0.53429 0.0
C430 C 0.44579 0.3754 0.52695 0.0
C431 C 0.62784 0.38411 0.52995 0.0
C432 C 0.55402 0.38462 0.52743 0.0
C433 C 0.34038 0.38604 0.5189 0.0
C434 C 0.41404 0.38557 0.52189 0.0
H435 H 0.75297 0.3989 0.56205 0.0
H436 H 0.63252 0.39927 0.56018 0.0
H437 H 0.53678 0.36696 0.53407 0.0
H438 H 0.21694 0.3713 0.48515 0.0
H439 H 0.33701 0.37096 0.48821 0.0
C440 C 0.82748 0.89203 0.99024 0.0
C441 C 0.78823 0.8833 0.0057 0.0
C442 C 0.89676 0.89225 0.99162 0.0
C443 C 0.02936 0.88079 0.04206 0.0
H444 H 0.14859 0.89168 0.96327 0.0
C445 C 0.31735 0.87738 0.03819 0.0
C446 C 0.35704 0.88607 0.02283 0.0
C447 C 0.24821 0.87719 0.03644 0.0
C448 C 0.11608 0.88874 0.98575 0.0
H449 H 0.79208 0.86782 0.03423 0.0
H450 H 0.91267 0.86814 0.03624 0.0
H451 H 0.02896 0.8908 0.95871 0.0
H452 H 0.35415 0.90149 0.99391 0.0
H453 H 0.23366 0.90124 0.99129 0.0
H454 H 0.1164 0.87874 0.06913 0.0
C455 C 0.88978 0.87492 0.02346 0.0
C456 C 0.0472 0.88822 0.9831 0.0
C457 C 0.82047 0.87469 0.02205 0.0
C458 C 0.32538 0.89465 0.00606 0.0
C459 C 0.25614 0.89446 0.00429 0.0
C460 C 0.0982 0.88131 0.04472 0.0
C461 C 0.92896 0.88376 0.00856 0.0
C462 C 1.00273 0.88423 0.0112 0.0
C463 C 0.2165 0.88568 0.01926 0.0
C464 C 0.14272 0.88528 0.01659 0.0
H465 H 0.80458 0.89884 0.97756 0.0
H466 H 0.92482 0.89926 0.98018 0.0
H467 H 0.99686 0.87785 0.06454 0.0
H468 H 0.33978 0.87059 0.05118 0.0
H469 H 0.21984 0.87021 0.0479 0.0
C470 C 0.22727 0.133 0.04761 0.0
C471 C 0.26655 0.1417 0.03199 0.0
C472 C 0.15799 0.13276 0.04618 0.0
C473 C 1.02551 0.14412 0.99538 0.0
H474 H 0.90604 0.13334 0.07424 0.0
C475 C 0.73752 0.14751 0.99892 0.0
C476 C 0.69776 0.13884 0.01442 0.0
C477 C 0.80666 0.1477 0.00072 0.0
C478 C 0.93862 0.13624 0.05174 0.0
H479 H 0.26273 0.15712 0.00313 0.0
H480 H 0.14217 0.15678 0.00105 0.0
H481 H 1.02564 0.13423 0.0789 0.0
H482 H 0.70054 0.12348 0.04362 0.0
H483 H 0.82101 0.12373 0.04633 0.0
H484 H 0.93858 0.14612 0.9682 0.0
C485 C 0.16503 0.15003 0.01398 0.0
C486 C 1.00748 0.13677 0.05445 0.0
C487 C 0.23433 0.15027 0.01545 0.0
C488 C 0.72936 0.13029 0.03136 0.0
C489 C 0.79859 0.13049 0.03318 0.0
C490 C 0.95669 0.14358 0.99267 0.0
C491 C 0.12581 0.14121 0.02904 0.0
C492 C 0.05206 0.14073 0.02632 0.0
C493 C 0.8383 0.13924 0.01809 0.0
C494 C 0.91208 0.13965 0.02081 0.0
H495 H 0.25014 0.12622 0.06044 0.0
H496 H 0.12991 0.12577 0.05775 0.0
H497 H 0.05808 0.14702 0.97288 0.0
H498 H 0.71515 0.15428 0.9858 0.0
H499 H 0.83507 0.15466 0.98915 0.0
C500 C 0.31563 0.14796 0.53797 0.0
C501 C 0.35511 0.13935 0.5222 0.0
C502 C 0.24658 0.1482 0.53595 0.0
C503 C 0.10177 0.13059 0.51751 0.0
H504 H 1.01822 0.15885 0.50277 0.0
C505 C 0.82512 0.13354 0.48887 0.0
C506 C 0.78634 0.14221 0.50482 0.0
C507 C 0.89443 0.13328 0.49011 0.0
C508 C 0.04041 0.15089 0.50729 0.0
H509 H 0.35192 0.12414 0.49215 0.0
H510 H 0.23175 0.12457 0.48853 0.0
H511 H 0.13779 0.15807 0.50732 0.0
H512 H 0.79106 0.15751 0.53424 0.0
H513 H 0.91148 0.15705 0.53658 0.0
H514 H 1.00436 0.12342 0.51756 0.0
C515 C 0.2541 0.13111 0.50281 0.0
C516 C 0.10927 0.15044 0.50993 0.0
C517 C 0.32327 0.13088 0.5048 0.0
C518 C 0.81912 0.15073 0.52149 0.0
C519 C 0.88848 0.15047 0.52272 0.0
C520 C 0.03288 0.13104 0.51489 0.0
C521 C 0.21472 0.13983 0.5181 0.0
C522 C 0.14107 0.14028 0.51515 0.0
C523 C 0.92719 0.14169 0.50735 0.0
C524 C 1.00104 0.1412 0.50977 0.0
H525 H 0.33813 0.15463 0.55166 0.0
H526 H 0.21807 0.15496 0.54858 0.0
H527 H 0.12399 0.12263 0.52205 0.0
H528 H 0.80187 0.12683 0.47574 0.0
H529 H 0.92237 0.12648 0.47743 0.0
C530 C 0.73968 0.87781 0.49866 0.0
C531 C 0.70018 0.8864 0.5146 0.0
C532 C 0.80879 0.87759 0.50054 0.0
C533 C 0.94108 0.8888 0.5523 0.0
H534 H 0.06032 0.87834 0.47305 0.0
C535 C 0.22993 0.89205 0.54842 0.0
C536 C 0.26891 0.88341 0.53245 0.0
C537 C 0.16064 0.89229 0.547 0.0
C538 C 0.02781 0.88115 0.49566 0.0
H539 H 0.7034 0.90159 0.54471 0.0
H540 H 0.82382 0.90131 0.54754 0.0
H541 H 0.9409 0.87928 0.46832 0.0
H542 H 0.26453 0.8681 0.50298 0.0
H543 H 0.14399 0.86845 0.50089 0.0
H544 H 0.02811 0.8907 0.5796 0.0
C545 C 0.80122 0.89463 0.53398 0.0
C546 C 0.95901 0.8817 0.49292 0.0
C547 C 0.73202 0.89484 0.53209 0.0
C548 C 0.23637 0.87491 0.51557 0.0
C549 C 0.16708 0.87516 0.51411 0.0
C550 C 1.00991 0.88826 0.55503 0.0
C551 C 0.8407 0.88595 0.51843 0.0
C552 C 0.91446 0.88553 0.5212 0.0
C553 C 0.12816 0.88391 0.5295 0.0
C554 C 0.05442 0.88441 0.52677 0.0
H555 H 0.71712 0.87112 0.48512 0.0
H556 H 0.83698 0.8707 0.48861 0.0
H557 H 0.90856 0.89161 0.5749 0.0
H558 H 0.25304 0.89878 0.56151 0.0
H559 H 0.13281 0.89924 0.55885 0.0
C560 C 1.00505 0.55362 0.05859 0.0
C561 C 1.02094 0.56028 0.02858 0.0
C562 C 1.00703 0.54203 0.05629 0.0
C563 C 0.07612 0.5188 0.99946 0.0
H564 H 0.93974 0.50152 0.05414 0.0
C565 C 0.04962 0.47139 0.97973 0.0
C566 C 0.03377 0.46472 0.00972 0.0
C567 C 0.0477 0.48298 0.98208 0.0
C568 C 0.97874 0.50619 0.03898 0.0
H569 H 0.05229 0.55977 0.97251 0.0
H570 H 0.05475 0.53959 0.96838 0.0
H571 H 0.93761 0.52168 0.05794 0.0
H572 H 1.00255 0.4652 0.0658 0.0
H573 H 1.00016 0.48538 0.07001 0.0
H574 H 0.11724 0.50331 0.98049 0.0
C575 C 0.04131 0.54335 0.99388 0.0
C576 C 0.97753 0.51779 0.04116 0.0
C577 C 0.03921 0.55496 0.99618 0.0
C578 C 1.01559 0.47002 0.04215 0.0
C579 C 1.01354 0.48163 0.0445 0.0
C580 C 0.07733 0.5072 0.99728 0.0
C581 C 1.02496 0.5367 0.02388 0.0
C582 C 1.02622 0.52429 0.02145 0.0
C583 C 0.02985 0.48829 0.01451 0.0
C584 C 0.02863 0.5007 0.01698 0.0
H585 H 0.98982 0.55735 0.08394 0.0
H586 H 0.99486 0.53724 0.08008 0.0
H587 H 0.11513 0.52347 0.9843 0.0
H588 H 0.06478 0.46766 0.95436 0.0
H589 H 0.05983 0.48777 0.9583 0.0
C590 C 0.9773 0.47082 0.50776 0.0
C591 C 1.02317 0.46503 0.52626 0.0
C592 C 0.97893 0.48242 0.50561 0.0
C593 C 0.08758 0.50701 0.51667 0.0
H594 H 0.9203 0.52301 0.52416 0.0
C595 C 0.07786 0.55489 0.53054 0.0
C596 C 0.03202 0.56067 0.51202 0.0
C597 C 0.07621 0.54328 0.53269 0.0
C598 C 0.96756 0.5187 0.52162 0.0
H599 H 0.10796 0.4671 0.55629 0.0
H600 H 0.11006 0.48727 0.55307 0.0
H601 H 0.91945 0.50283 0.52631 0.0
H602 H 0.94725 0.55861 0.48199 0.0
H603 H 0.94511 0.53844 0.48521 0.0
H604 H 0.13568 0.52288 0.51197 0.0
C605 C 0.073 0.48283 0.53993 0.0
C606 C 0.96708 0.50708 0.52282 0.0
C607 C 0.07134 0.47122 0.54211 0.0
C608 C 0.98385 0.55449 0.49617 0.0
C609 C 0.98216 0.54288 0.49836 0.0
C610 C 0.08805 0.51863 0.51546 0.0
C611 C 1.02649 0.48862 0.52187 0.0
C612 C 1.02709 0.50104 0.52036 0.0
C613 C 0.02865 0.53709 0.51642 0.0
C614 C 0.02805 0.52466 0.51793 0.0
H615 H 0.93893 0.4664 0.49554 0.0
H616 H 0.94282 0.48653 0.49106 0.0
H617 H 0.13484 0.5027 0.51412 0.0
H618 H 0.11624 0.5593 0.54276 0.0
H619 H 0.1123 0.53917 0.54724 0.0
C620 C 0.57807 0.97054 0.03089 0.0
C621 C 0.53288 0.96466 0.01205 0.0
C622 C 0.57614 0.98215 0.03301 0.0
C623 C 0.4674 1.00653 0.02108 0.0
H624 H 0.63426 0.02284 0.01485 0.0
C625 C 0.47646 0.05442 0.00707 0.0
C626 C 0.52163 0.06031 0.02591 0.0
C627 C 0.47838 0.04282 0.00501 0.0
C628 C 0.5871 0.01844 0.01704 0.0
H629 H 0.44896 0.96655 0.98136 0.0
H630 H 0.44634 0.98672 0.98453 0.0
H631 H 0.6356 1.00266 0.01274 0.0
H632 H 0.60549 0.05844 0.05665 0.0
H633 H 0.6081 0.03827 0.05357 0.0
H634 H 0.41889 0.02232 0.02537 0.0
C635 C 0.48309 0.98235 0.99796 0.0
C636 C 0.58786 1.00682 0.01585 0.0
C637 C 0.48506 0.97075 0.99582 0.0
C638 C 0.56941 0.05423 0.04219 0.0
C639 C 0.57137 0.04262 0.0401 0.0
C640 C 0.46664 0.01815 0.02226 0.0
C641 C 0.52893 0.98825 0.01637 0.0
C642 C 0.52802 1.00068 0.01786 0.0
C643 C 0.52556 0.03672 0.0217 0.0
C644 C 0.52647 0.0243 0.02025 0.0
H645 H 0.61616 0.96621 0.04342 0.0
H646 H 0.61172 0.98634 0.04783 0.0
H647 H 0.42024 1.00214 0.02327 0.0
H648 H 0.4384 0.05875 0.99451 0.0
H649 H 0.44282 0.03862 0.9902 0.0
C650 C 0.51599 0.05527 0.54218 0.0
C651 C 0.53258 0.06058 0.50959 0.0
C652 C 0.51418 0.04366 0.54457 0.0
C653 C 0.57622 0.01817 0.49671 0.0
H654 H 0.43922 1.00351 0.55905 0.0
C655 C 0.53865 0.97035 0.49623 0.0
C656 C 0.52203 0.96503 0.5288 0.0
C657 C 0.54044 0.98196 0.49388 0.0
C658 C 0.47839 1.00745 0.54179 0.0
H659 H 0.56102 0.05765 0.45398 0.0
H660 H 0.55649 0.03753 0.45802 0.0
H661 H 0.44089 0.02367 0.55518 0.0
H662 H 0.49349 0.96795 0.58442 0.0
H663 H 0.498 0.98807 0.58043 0.0
H664 H 0.61373 1.00195 0.48332 0.0
C665 C 0.54542 0.04233 0.48188 0.0
C666 C 0.47933 0.01905 0.53957 0.0
C667 C 0.54709 0.05392 0.47949 0.0
C668 C 0.50745 0.97169 0.55893 0.0
C669 C 0.50911 0.98328 0.55656 0.0
C670 C 0.57528 1.00657 0.49893 0.0
C671 C 0.52917 0.03701 0.51447 0.0
C672 C 0.52824 0.0246 0.51698 0.0
C673 C 0.52541 0.98861 0.524 0.0
C674 C 0.52636 1.00102 0.52152 0.0
H675 H 0.504 0.06009 0.56592 0.0
H676 H 0.50205 0.03991 0.5702 0.0
H677 H 0.61538 0.02211 0.47945 0.0
H678 H 0.55069 0.96554 0.47248 0.0
H679 H 0.5526 0.98572 0.46826 0.0
C680 C 0.17075 0.30032 0.05543 0.0
C681 C 0.18991 0.30798 0.02837 0.0
C682 C 0.19237 0.28929 0.05303 0.0
C683 C 0.32125 0.27093 0.00621 0.0
H684 H 0.19888 0.24747 0.03968 0.0
C685 C 0.38458 0.22451 0.98139 0.0
C686 C 0.36539 0.21685 0.00844 0.0
C687 C 0.36298 0.23554 0.98377 0.0
C688 C 0.23409 0.25391 0.03057 0.0
H689 H 0.2481 0.30987 0.97763 0.0
H690 H 0.28475 0.29063 0.97317 0.0
H691 H 0.16243 0.2667 0.04384 0.0
H692 H 0.30719 0.21497 0.05918 0.0
H693 H 0.27058 0.23421 0.06362 0.0
H694 H 0.39292 0.25813 0.99294 0.0
C695 C 0.25341 0.29319 0.99651 0.0
C696 C 0.21311 0.26498 0.03296 0.0
C697 C 0.2317 0.30424 0.99889 0.0
C698 C 0.32361 0.2206 0.03792 0.0
C699 C 0.30192 0.23164 0.04029 0.0
C700 C 0.34223 0.25986 0.00382 0.0
C701 C 0.23388 0.28553 0.02349 0.0
C702 C 0.25635 0.27368 0.02084 0.0
C703 C 0.32146 0.23931 0.0133 0.0
C704 C 0.29899 0.25116 0.01595 0.0
H705 H 0.13794 0.30279 0.07835 0.0
H706 H 0.17682 0.28372 0.07457 0.0
H707 H 0.35646 0.27736 0.9971 0.0
H708 H 0.41738 0.22203 0.95846 0.0
H709 H 0.37855 0.24111 0.96223 0.0
C710 C 0.73146 0.80432 0.99871 0.0
C711 C 0.68997 0.80808 0.02827 0.0
C712 C 0.75318 0.79327 0.99636 0.0
C713 C 0.71336 0.76509 0.03317 0.0
H714 H 0.8928 0.75822 0.99261 0.0
C715 C 0.82411 0.72072 0.03809 0.0
C716 C 0.86557 0.71695 0.00852 0.0
C717 C 0.8024 0.73176 0.04045 0.0
C718 C 0.84221 0.75995 0.00364 0.0
H719 H 0.63856 0.80293 0.07843 0.0
H720 H 0.67746 0.78386 0.0747 0.0
H721 H 0.85633 0.77745 0.99674 0.0
H722 H 0.91693 0.7221 0.95835 0.0
H723 H 0.87806 0.74118 0.96209 0.0
H724 H 0.69923 0.74758 0.04007 0.0
C725 C 0.69277 0.78941 0.05307 0.0
C726 C 0.82122 0.77102 0.00601 0.0
C727 C 0.67113 0.80045 0.05544 0.0
C728 C 0.88439 0.72459 0.98135 0.0
C729 C 0.86277 0.73562 0.98372 0.0
C730 C 0.73434 0.75401 0.03079 0.0
C731 C 0.73397 0.78563 0.02346 0.0
C732 C 0.75645 0.77378 0.02083 0.0
C733 C 0.82159 0.73941 0.01335 0.0
C734 C 0.79911 0.75126 0.01598 0.0
H735 H 0.74762 0.80993 0.97737 0.0
H736 H 0.78428 0.79069 0.97296 0.0
H737 H 0.66276 0.76681 0.0442 0.0
H738 H 0.80797 0.71511 0.05944 0.0
H739 H 0.77132 0.73435 0.06385 0.0
C740 C 0.17178 0.72419 0.50062 0.0
C741 C 0.19179 0.71708 0.52677 0.0
C742 C 0.1934 0.73526 0.49835 0.0
C743 C 0.26318 0.75768 0.55102 0.0
H744 H 0.30541 0.77165 0.46 0.0
C745 C 0.38442 0.80143 0.53616 0.0
C746 C 0.36445 0.80855 0.51002 0.0
C747 C 0.36282 0.79037 0.5384 0.0
C748 C 0.29304 0.76795 0.48569 0.0
H749 H 0.25216 0.71613 0.57045 0.0
H750 H 0.28991 0.73535 0.56643 0.0
H751 H 0.27038 0.7523 0.46313 0.0
H752 H 0.30418 0.80951 0.46629 0.0
H753 H 0.26643 0.79029 0.47026 0.0
H754 H 0.28582 0.77334 0.57358 0.0
C755 C 0.25639 0.73243 0.54802 0.0
C756 C 0.27292 0.7568 0.48748 0.0
C757 C 0.23475 0.72136 0.55031 0.0
C758 C 0.32156 0.80427 0.48644 0.0
C759 C 0.29992 0.79321 0.48869 0.0
C760 C 0.28329 0.76883 0.54922 0.0
C761 C 0.23575 0.73958 0.52214 0.0
C762 C 0.25767 0.75148 0.52018 0.0
C763 C 0.3205 0.78605 0.51458 0.0
C764 C 0.29855 0.77415 0.51653 0.0
H765 H 0.13787 0.7213 0.48237 0.0
H766 H 0.17551 0.74051 0.47838 0.0
H767 H 0.25081 0.75398 0.57671 0.0
H768 H 0.4183 0.80432 0.55443 0.0
H769 H 0.38068 0.78512 0.55837 0.0
C770 C 0.81605 0.30522 0.53374 0.0
C771 C 0.8666 0.30849 0.50746 0.0
C772 C 0.7941 0.29417 0.53637 0.0
C773 C 0.84499 0.26541 0.50978 0.0
H774 H 0.65742 0.25876 0.53335 0.0
C775 C 0.73905 0.22062 0.50329 0.0
C776 C 0.68857 0.21736 0.52961 0.0
C777 C 0.76099 0.23167 0.50061 0.0
C778 C 0.71014 0.26044 0.52715 0.0
H779 H 0.93403 0.30246 0.46363 0.0
H780 H 0.89498 0.28336 0.46774 0.0
H781 H 0.69456 0.278 0.52883 0.0
H782 H 0.62122 0.2234 0.57346 0.0
H783 H 0.66024 0.2425 0.56926 0.0
H784 H 0.86057 0.24785 0.50809 0.0
C785 C 0.87258 0.28931 0.48659 0.0
C786 C 0.73151 0.27151 0.52455 0.0
C787 C 0.89441 0.30035 0.48392 0.0
C788 C 0.66079 0.2255 0.55314 0.0
C789 C 0.68261 0.23654 0.55042 0.0
C790 C 0.82362 0.25433 0.51237 0.0
C791 C 0.82218 0.28603 0.51289 0.0
C792 C 0.79928 0.27418 0.51581 0.0
C793 C 0.73296 0.23982 0.52408 0.0
C794 C 0.75585 0.25167 0.52112 0.0
H795 H 0.79296 0.31123 0.5522 0.0
H796 H 0.75569 0.29198 0.55721 0.0
H797 H 0.89771 0.26709 0.50358 0.0
H798 H 0.76211 0.2146 0.48484 0.0
H799 H 0.79937 0.23386 0.47975 0.0
C800 C 0.11887 0.39146 0.13894 0.0
C801 C 0.06812 0.38867 0.11789 0.0
C802 C 0.10852 0.39042 0.17567 0.0
C803 C 0.9864 0.39364 0.24867 0.0
H804 H 0.08888 0.37404 0.30247 0.0
C805 C 0.93324 0.39171 0.40028 0.0
C806 C 0.98575 0.38933 0.42041 0.0
C807 C 0.94149 0.39059 0.36356 0.0
C808 C 0.06041 0.37973 0.28814 0.0
H809 H 0.96684 0.38253 0.11872 0.0
H810 H 0.94783 0.38115 0.18324 0.0
H811 H 0.10827 0.37414 0.23827 0.0
H812 H 0.08823 0.38388 0.418 0.0
H813 H 0.10444 0.38256 0.35399 0.0
H814 H 0.94131 0.39984 0.29777 0.0
C815 C 0.99598 0.38394 0.17112 0.0
C816 C 0.07125 0.37968 0.25122 0.0
C817 C 1.00693 0.3847 0.13428 0.0
C818 C 0.04668 0.3857 0.40312 0.0
C819 C 0.05566 0.38487 0.36625 0.0
C820 C 0.97671 0.39392 0.28554 0.0
C821 C 0.04663 0.38682 0.19213 0.0
C822 C 0.03415 0.3866 0.23118 0.0
C823 C 1.0033 0.38738 0.34571 0.0
C824 C 1.01337 0.38695 0.30605 0.0
H825 H 0.16651 0.39453 0.12699 0.0
H826 H 0.14821 0.39273 0.19132 0.0
H827 H 0.95773 0.39917 0.23377 0.0
H828 H 0.88546 0.39441 0.41299 0.0
H829 H 0.89899 0.39227 0.34932 0.0
C830 C 0.06118 0.64508 0.13552 0.0
C831 C 1.0011 0.64316 0.12082 0.0
C832 C 0.06575 0.64324 0.17136 0.0
C833 C 0.96807 0.64482 0.25561 0.0
H834 H 0.11089 0.62835 0.29184 0.0
C835 C 0.98683 0.64352 0.40495 0.0
C836 C 0.05008 0.64317 0.41709 0.0
C837 C 0.9791 0.64172 0.36942 0.0
C838 C 0.07116 0.63314 0.28235 0.0
H839 H 0.89885 0.63761 0.13195 0.0
H840 H 0.90602 0.63479 0.19535 0.0
H841 H 0.10083 0.62847 0.22865 0.0
H842 H 0.15501 0.64043 0.40183 0.0
H843 H 0.1427 0.63793 0.33924 0.0
H844 H 0.94052 0.65018 0.30828 0.0
C845 C 0.94987 0.63756 0.17881 0.0
C846 C 0.06509 0.63309 0.24604 0.0
C847 C 0.9458 0.63913 0.1426 0.0
C848 C 0.10559 0.64067 0.39313 0.0
C849 C 0.0982 0.63919 0.35719 0.0
C850 C 0.97495 0.64508 0.29172 0.0
C851 C 1.00985 0.63968 0.19358 0.0
C852 C 1.01353 0.63895 0.23229 0.0
C853 C 0.0348 0.6399 0.34459 0.0
C854 C 1.02668 0.63926 0.30585 0.0
H855 H 0.10469 0.64815 0.1193 0.0
H856 H 0.11241 0.64501 0.18198 0.0
H857 H 0.92856 0.64958 0.24571 0.0
H858 H 0.94303 0.64529 0.42302 0.0
H859 H 0.92911 0.64192 0.36154 0.0
C860 C 0.93182 0.63408 0.89977 0.0
C861 C 0.98456 0.63631 0.91996 0.0
C862 C 0.94043 0.63515 0.86304 0.0
C863 C 0.06137 0.64556 0.7876 0.0
H864 H 0.9558 0.6264 0.73343 0.0
C865 C 0.11839 0.63381 0.63839 0.0
C866 C 0.0676 0.63655 0.61739 0.0
C867 C 0.10824 0.63488 0.67512 0.0
C868 C 0.9853 0.63184 0.74827 0.0
H869 H 0.0878 0.64146 0.91767 0.0
H870 H 0.10456 0.64269 0.85363 0.0
H871 H 0.93916 0.62583 0.79742 0.0
H872 H 0.96646 0.64264 0.61832 0.0
H873 H 0.94777 0.64407 0.68282 0.0
H874 H 0.11018 0.65096 0.73769 0.0
C875 C 0.05539 0.64053 0.86585 0.0
C876 C 0.9755 0.63163 0.78513 0.0
C877 C 0.04608 0.63976 0.90273 0.0
C878 C 1.00657 0.6405 0.63384 0.0
C879 C 0.9958 0.64129 0.67067 0.0
C880 C 0.0723 0.64555 0.75068 0.0
C881 C 1.0028 0.63816 0.84525 0.0
C882 C 1.01315 0.63851 0.80559 0.0
C883 C 0.04649 0.63846 0.69164 0.0
C884 C 0.03416 0.63872 0.7307 0.0
H885 H 0.8836 0.63152 0.91244 0.0
H886 H 0.89777 0.63359 0.84875 0.0
H887 H 0.09067 0.65118 0.80188 0.0
H888 H 0.16592 0.63076 0.62639 0.0
H889 H 0.14796 0.63261 0.69073 0.0
C890 C 0.06954 0.38212 0.63258 0.0
C891 C 1.00632 0.3825 0.62042 0.0
C892 C 0.07721 0.38387 0.66814 0.0
C893 C 0.98506 0.39237 0.75526 0.0
H894 H 0.12738 0.37583 0.79181 0.0
C895 C 0.99433 0.38024 0.90196 0.0
C896 C 0.05441 0.38208 0.91674 0.0
C897 C 0.98994 0.38214 0.86614 0.0
C898 C 0.08795 0.38062 0.78194 0.0
H899 H 0.90137 0.38522 0.63566 0.0
H900 H 0.91358 0.38764 0.6983 0.0
H901 H 0.11559 0.37532 0.72922 0.0
H902 H 0.15683 0.38755 0.90579 0.0
H903 H 0.14997 0.39048 0.84242 0.0
H904 H 0.9553 0.39698 0.80901 0.0
C905 C 0.9581 0.38639 0.68036 0.0
C906 C 0.08116 0.3804 0.74582 0.0
C907 C 0.95077 0.38496 0.64439 0.0
C908 C 0.10989 0.3861 0.89508 0.0
C909 C 0.10598 0.38773 0.85888 0.0
C910 C 0.99104 0.39237 0.79158 0.0
C911 C 1.02147 0.38567 0.69297 0.0
C912 C 0.02953 0.38626 0.73172 0.0
C913 C 0.04601 0.38568 0.84402 0.0
C914 C 0.04249 0.38647 0.8053 0.0
H915 H 0.11338 0.38038 0.6145 0.0
H916 H 0.12717 0.38365 0.67605 0.0
H917 H 0.9454 0.39717 0.7458 0.0
H918 H 0.95069 0.37718 0.91809 0.0
H919 H 0.94328 0.38042 0.85545 0.0
C920 C 0.50722 0.8848 0.13403 0.0
C921 C 0.56839 0.88877 0.11764 0.0
C922 C 0.49628 0.88402 0.17086 0.0
C923 C 0.57145 0.8797 0.25092 0.0
H924 H 0.44188 0.89989 0.29759 0.0
C925 C 0.54687 0.8856 0.40286 0.0
C926 C 0.48598 0.88924 0.42016 0.0
C927 C 0.55588 0.88481 0.36599 0.0
C928 C 0.47718 0.89397 0.28533 0.0
H929 H 0.66678 0.89463 0.12674 0.0
H930 H 0.64852 0.89281 0.19107 0.0
H931 H 0.45832 0.89927 0.23359 0.0
H932 H 0.38578 0.89438 0.41276 0.0
H933 H 0.39935 0.89229 0.34907 0.0
H934 H 0.58895 0.87401 0.30213 0.0
C935 C 0.60882 0.8905 0.17542 0.0
C936 C 0.48687 0.89372 0.24846 0.0
C937 C 0.61915 0.89156 0.13869 0.0
C938 C 0.43353 0.89166 0.40004 0.0
C939 C 0.4418 0.89058 0.36331 0.0
C940 C 0.5606 0.87973 0.28783 0.0
C941 C 0.54694 0.8869 0.19187 0.0
C942 C 0.53449 0.88666 0.23092 0.0
C943 C 0.50359 0.88736 0.34545 0.0
C944 C 0.51369 0.88696 0.30579 0.0
H945 H 0.46712 0.88263 0.11847 0.0
H946 H 0.44814 0.88123 0.18298 0.0
H947 H 0.60836 0.87415 0.23793 0.0
H948 H 0.58838 0.88375 0.41774 0.0
H949 H 0.60464 0.88248 0.35371 0.0
C950 C 0.56055 0.14495 0.13552 0.0
C951 C 0.50047 0.14305 0.1208 0.0
C952 C 0.56501 0.14313 0.17137 0.0
C953 C 0.46725 0.14482 0.25557 0.0
H954 H 0.60966 0.1283 0.292 0.0
C955 C 0.48586 0.14362 0.40494 0.0
C956 C 0.54909 0.14323 0.4171 0.0
C957 C 0.47811 0.14181 0.36943 0.0
C958 C 0.57004 0.1331 0.28245 0.0
H959 H 0.39813 0.13756 0.13191 0.0
H960 H 0.40512 0.13477 0.19534 0.0
H961 H 0.59968 0.12838 0.22879 0.0
H962 H 0.65396 0.14042 0.40189 0.0
H963 H 0.64163 0.13789 0.33931 0.0
H964 H 0.43975 0.15023 0.30818 0.0
C965 C 0.44904 0.1375 0.1788 0.0
C966 C 0.56402 0.13303 0.24614 0.0
C967 C 0.44507 0.13906 0.14257 0.0
C968 C 0.60455 0.14069 0.39317 0.0
C969 C 0.59715 0.13919 0.35724 0.0
C970 C 0.47409 0.14511 0.29168 0.0
C971 C 0.50902 0.13961 0.19359 0.0
C972 C 0.51262 0.13891 0.23231 0.0
C973 C 0.53378 0.13993 0.34462 0.0
C974 C 0.52567 0.13926 0.30588 0.0
H975 H 0.60413 0.148 0.11931 0.0
H976 H 0.61167 0.1449 0.18201 0.0
H977 H 0.42786 0.14959 0.24561 0.0
H978 H 0.44208 0.14542 0.423 0.0
H979 H 0.42814 0.14204 0.36153 0.0
C980 C 0.54557 0.13968 0.90272 0.0
C981 C 0.48408 0.13622 0.91995 0.0
C982 C 0.55482 0.14048 0.86584 0.0
C983 C 0.47482 0.13162 0.78511 0.0
H984 H 0.60942 0.15099 0.73775 0.0
C985 C 0.50585 0.14057 0.63384 0.0
C986 C 0.56686 0.13662 0.61739 0.0
C987 C 0.49508 0.14135 0.67068 0.0
C988 C 0.57156 0.14557 0.75072 0.0
H989 H 0.38311 0.13142 0.91244 0.0
H990 H 0.39718 0.13353 0.84877 0.0
H991 H 0.58998 0.15117 0.80194 0.0
H992 H 0.66517 0.13081 0.62638 0.0
H993 H 0.64721 0.13264 0.69071 0.0
H994 H 0.45509 0.12642 0.73338 0.0
C995 C 0.43986 0.13509 0.86305 0.0
C996 C 0.56068 0.14556 0.78764 0.0
C997 C 0.43131 0.134 0.89977 0.0
C998 C 0.61765 0.13386 0.63838 0.0
C999 C 0.60749 0.13493 0.67511 0.0
C1000 C 0.48459 0.13186 0.74824 0.0
C1001 C 0.5022 0.13811 0.84525 0.0
C1002 C 0.51249 0.13849 0.80559 0.0
C1003 C 0.54576 0.1385 0.69164 0.0
C1004 C 0.53342 0.13875 0.7307 0.0
H1005 H 0.58731 0.14138 0.91765 0.0
H1006 H 0.60397 0.14265 0.85362 0.0
H1007 H 0.43851 0.12582 0.79736 0.0
H1008 H 0.46574 0.14271 0.61833 0.0
H1009 H 0.44705 0.14413 0.68284 0.0
C1010 C 0.56983 0.88187 0.63239 0.0
C1011 C 0.50663 0.88232 0.6202 0.0
C1012 C 0.57756 0.88364 0.66792 0.0
C1013 C 0.48581 0.89235 0.75492 0.0
H1014 H 0.62735 0.87568 0.79171 0.0
C1015 C 0.4946 0.88037 0.90177 0.0
C1016 C 0.55476 0.88216 0.91652 0.0
C1017 C 0.49028 0.88224 0.86593 0.0
C1018 C 0.58815 0.88051 0.78177 0.0
H1019 H 0.40181 0.88519 0.6354 0.0
H1020 H 0.41411 0.88764 0.69802 0.0
H1021 H 0.61552 0.87511 0.72913 0.0
H1022 H 0.65738 0.88751 0.90551 0.0
H1023 H 0.65061 0.89039 0.8421 0.0
H1024 H 0.45629 0.89706 0.80859 0.0
C1025 C 0.45857 0.88632 0.6801 0.0
C1026 C 0.58134 0.88025 0.74565 0.0
C1027 C 0.45119 0.88487 0.64414 0.0
C1028 C 0.61038 0.8861 0.89481 0.0
C1029 C 0.60653 0.88771 0.8586 0.0
C1030 C 0.4918 0.89239 0.79123 0.0
C1031 C 0.5219 0.88553 0.69273 0.0
C1032 C 0.52998 0.88615 0.73147 0.0
C1033 C 0.54648 0.8857 0.84377 0.0
C1034 C 0.54298 0.88644 0.80504 0.0
H1035 H 0.6136 0.88007 0.61433 0.0
H1036 H 0.62751 0.88337 0.67584 0.0
H1037 H 0.44638 0.89719 0.74538 0.0
H1038 H 0.45085 0.87736 0.91794 0.0
H1039 H 0.44355 0.88055 0.85526 0.0
loop_
_geom_bond_atom_site_label_1
_geom_bond_atom_site_label_2
_geom_bond_distance
_geom_bond_site_symmetry_2
_ccdc_geom_bond_type
Gd0 C3 2.818 . S
Gd0 O20 2.377 1_455 S
Gd0 O22 2.448 . S
Gd0 O23 2.506 1_554 S
Gd0 O24 2.435 . S
Gd0 O25 2.717 . S
Gd0 O27 2.395 . S
Gd0 O31 2.327 1_554 S
Gd1 C12 2.818 . S
Gd1 O21 2.395 1_455 S
Gd1 O25 2.327 . S
Gd1 O26 2.377 . S
Gd1 O28 2.448 1_554 S
Gd1 O29 2.506 . S
Gd1 O30 2.435 1_554 S
Gd1 O31 2.717 1_554 S
C2 O20 1.240 . S
C2 O21 1.240 . S
C3 Gd0 2.818 . S
C3 C4 1.510 1_455 S
C3 O22 1.249 . S
C3 O23 1.252 1_554 S
C4 C3 1.510 1_655 S
C4 C5 1.404 . S
C4 C6 1.352 1_554 S
C5 C4 1.404 . S
C5 C9 1.389 . S
C5 H32 0.930 . S
C6 C4 1.352 1_556 S
C6 C8 1.374 . S
C6 H33 0.931 . S
C7 C8 1.359 1_554 S
C7 C9 1.364 . S
C8 C6 1.374 . S
C8 C7 1.359 1_556 S
C8 H34 0.931 . S
C9 C5 1.389 . S
C9 C7 1.364 . S
C9 H35 0.931 . S
C10 O24 1.256 . S
C10 O25 1.257 . S
C11 O26 1.240 . S
C11 O27 1.240 . S
C12 Gd1 2.818 . S
C12 C13 1.510 . S
C12 O28 1.249 1_554 S
C12 O29 1.252 . S
C13 C12 1.510 . S
C13 C14 1.404 1_554 S
C13 C15 1.352 . S
C14 C13 1.404 1_556 S
C14 C18 1.389 1_556 S
C14 H36 0.930 . S
C15 C13 1.352 . S
C15 C17 1.374 . S
C15 H37 0.931 . S
C16 C17 1.359 . S
C16 C18 1.364 . S
C17 C15 1.374 . S
C17 C16 1.359 . S
C17 H38 0.931 . S
C18 C14 1.389 1_554 S
C18 C16 1.364 . S
C18 H39 0.931 1_554 S
C19 O30 1.256 . S
C19 O31 1.257 . S
O20 Gd0 2.377 1_655 S
O20 C2 1.240 . S
O21 Gd1 2.395 1_655 S
O21 C2 1.240 . S
O22 Gd0 2.448 . S
O22 C3 1.249 . S
O23 Gd0 2.506 1_556 S
O23 C3 1.252 1_556 S
O24 Gd0 2.435 . S
O24 C10 1.256 . S
O25 Gd0 2.717 . S
O25 Gd1 2.327 . S
O25 C10 1.257 . S
O26 Gd1 2.377 . S
O26 C11 1.240 . S
O27 Gd0 2.395 . S
O27 C11 1.240 . S
O28 Gd1 2.448 1_556 S
O28 C12 1.249 1_556 S
O29 Gd1 2.506 . S
O29 C12 1.252 . S
O30 Gd1 2.435 1_556 S
O30 C19 1.256 . S
O31 Gd0 2.327 1_556 S
O31 Gd1 2.717 1_556 S
O31 C19 1.257 . S
H32 C5 0.930 . S
H33 C6 0.931 . S
H34 C8 0.931 . S
H35 C9 0.931 . S
H36 C14 0.930 . S
H37 C15 0.931 . S
H38 C17 0.931 . S
H39 C18 0.931 1_556 S
Gd40 C43 2.818 . S
Gd40 O60 2.377 . S
Gd40 O62 2.448 . S
Gd40 O63 2.506 1_554 S
Gd40 O64 2.435 . S
Gd40 O65 2.717 . S
Gd40 O67 2.395 1_655 S
Gd40 O71 2.327 1_554 S
Gd41 C52 2.818 . S
Gd41 O61 2.395 . S
Gd41 O65 2.327 . S
Gd41 O66 2.377 1_655 S
Gd41 O68 2.448 1_554 S
Gd41 O69 2.506 . S
Gd41 O70 2.435 1_554 S
Gd41 O71 2.717 1_554 S
C42 O60 1.240 . S
C42 O61 1.240 . S
C43 Gd40 2.818 . S
C43 C44 1.510 . S
C43 O62 1.249 . S
C43 O63 1.252 1_554 S
C44 C43 1.510 . S
C44 C45 1.404 . S
C44 C46 1.352 1_554 S
C45 C44 1.404 . S
C45 C49 1.389 . S
C45 H72 0.930 . S
C46 C44 1.352 1_556 S
C46 C48 1.374 . S
C46 H73 0.931 . S
C47 C48 1.359 1_554 S
C47 C49 1.364 . S
C48 C46 1.374 . S
C48 C47 1.359 1_556 S
C48 H74 0.931 . S
C49 C45 1.389 . S
C49 C47 1.364 . S
C49 H75 0.931 . S
C50 O64 1.256 . S
C50 O65 1.257 . S
C51 O66 1.240 . S
C51 O67 1.240 . S
C52 Gd41 2.818 . S
C52 C53 1.510 1_655 S
C52 O68 1.249 1_554 S
C52 O69 1.252 . S
C53 C52 1.510 1_455 S
C53 C54 1.381 1_554 S
C53 C55 1.352 . S
C54 C53 1.381 1_556 S
C54 C58 1.384 1_556 S
C54 H76 0.957 . S
C55 C53 1.352 . S
C55 C57 1.374 . S
C55 H77 0.931 . S
C56 C57 1.359 . S
C56 C58 1.364 . S
C57 C55 1.374 . S
C57 C56 1.359 . S
C57 H78 0.931 . S
C58 C54 1.384 1_554 S
C58 C56 1.364 . S
C58 H79 0.931 1_554 S
C59 O70 1.256 . S
C59 O71 1.257 . S
O60 Gd40 2.377 . S
O60 C42 1.240 . S
O61 Gd41 2.395 . S
O61 C42 1.240 . S
O62 Gd40 2.448 . S
O62 C43 1.249 . S
O63 Gd40 2.506 1_556 S
O63 C43 1.252 1_556 S
O64 Gd40 2.435 . S
O64 C50 1.256 . S
O65 Gd40 2.717 . S
O65 Gd41 2.327 . S
O65 C50 1.257 . S
O66 Gd41 2.377 1_455 S
O66 C51 1.240 . S
O67 Gd40 2.395 1_455 S
O67 C51 1.240 . S
O68 Gd41 2.448 1_556 S
O68 C52 1.249 1_556 S
O69 Gd41 2.506 . S
O69 C52 1.252 . S
O70 Gd41 2.435 1_556 S
O70 C59 1.256 . S
O71 Gd40 2.327 1_556 S
O71 Gd41 2.717 1_556 S
O71 C59 1.257 . S
H72 C45 0.930 . S
H73 C46 0.931 . S
H74 C48 0.931 . S
H75 C49 0.931 . S
H76 C54 0.957 . S
H77 C55 0.931 . S
H78 C57 0.931 . S
H79 C58 0.931 1_556 S
Gd80 C83 2.818 . S
Gd80 O100 2.377 . S
Gd80 O102 2.448 . S
Gd80 O103 2.506 . S
Gd80 O104 2.435 . S
Gd80 O105 2.717 . S
Gd80 O107 2.395 1_455 S
Gd80 O111 2.327 . S
Gd81 C92 2.818 . S
Gd81 O101 2.395 . S
Gd81 O105 2.327 . S
Gd81 O106 2.377 1_455 S
Gd81 O108 2.448 . S
Gd81 O109 2.506 . S
Gd81 O110 2.435 . S
Gd81 O111 2.717 . S
C82 O100 1.240 . S
C82 O101 1.240 . S
C83 Gd80 2.818 . S
C83 C84 1.510 . S
C83 O102 1.249 . S
C83 O103 1.252 . S
C84 C83 1.510 . S
C84 C85 1.404 . S
C84 C86 1.352 . S
C85 C84 1.404 . S
C85 C89 1.389 . S
C85 H112 0.930 . S
C86 C84 1.352 . S
C86 C88 1.374 . S
C86 H113 0.931 . S
C87 C88 1.359 . S
C87 C89 1.364 . S
C88 C86 1.374 . S
C88 C87 1.359 . S
C88 H114 0.931 . S
C89 C85 1.389 . S
C89 C87 1.364 . S
C89 H115 0.931 . S
C90 O104 1.256 . S
C90 O105 1.257 . S
C91 O106 1.240 . S
C91 O107 1.240 . S
C92 Gd81 2.818 . S
C92 C93 1.510 1_455 S
C92 O108 1.249 . S
C92 O109 1.252 . S
C93 C92 1.510 1_655 S
C93 C94 1.404 . S
C93 C95 1.352 . S
C94 C93 1.404 . S
C94 C98 1.389 . S
C94 H116 0.930 . S
C95 C93 1.352 . S
C95 C97 1.374 . S
C95 H117 0.931 . S
C96 C97 1.359 . S
C96 C98 1.364 . S
C97 C95 1.374 . S
C97 C96 1.359 . S
C97 H118 0.931 . S
C98 C94 1.389 . S
C98 C96 1.364 . S
C98 H119 0.931 . S
C99 O110 1.256 . S
C99 O111 1.257 . S
O100 Gd80 2.377 . S
O100 C82 1.240 . S
O101 Gd81 2.395 . S
O101 C82 1.240 . S
O102 Gd80 2.448 . S
O102 C83 1.249 . S
O103 Gd80 2.506 . S
O103 C83 1.252 . S
O104 Gd80 2.435 . S
O104 C90 1.256 . S
O105 Gd80 2.717 . S
O105 Gd81 2.327 . S
O105 C90 1.257 . S
O106 Gd81 2.377 1_655 S
O106 C91 1.240 . S
O107 Gd80 2.395 1_655 S
O107 C91 1.240 . S
O108 Gd81 2.448 . S
O108 C92 1.249 . S
O109 Gd81 2.506 . S
O109 C92 1.252 . S
O110 Gd81 2.435 . S
O110 C99 1.256 . S
O111 Gd80 2.327 . S
O111 Gd81 2.717 . S
O111 C99 1.257 . S
H112 C85 0.930 . S
H113 C86 0.931 . S
H114 C88 0.931 . S
H115 C89 0.931 . S
H116 C94 0.930 . S
H117 C95 0.931 . S
H118 C97 0.931 . S
H119 C98 0.931 . S
Gd120 C123 2.818 . S
Gd120 O140 2.377 1_655 S
Gd120 O142 2.448 . S
Gd120 O143 2.506 . S
Gd120 O144 2.435 . S
Gd120 O145 2.717 . S
Gd120 O147 2.395 . S
Gd120 O151 2.327 . S
Gd121 C132 2.818 . S
Gd121 O141 2.395 1_655 S
Gd121 O145 2.327 . S
Gd121 O146 2.377 . S
Gd121 O148 2.448 . S
Gd121 O149 2.506 . S
Gd121 O150 2.435 . S
Gd121 O151 2.717 . S
C122 O140 1.240 . S
C122 O141 1.240 . S
C123 Gd120 2.818 . S
C123 C124 1.510 1_655 S
C123 O142 1.249 . S
C123 O143 1.252 . S
C124 C123 1.510 1_455 S
C124 C125 1.404 . S
C124 C126 1.352 . S
C125 C124 1.404 . S
C125 C129 1.389 . S
C125 H152 0.930 . S
C126 C124 1.352 . S
C126 C128 1.374 . S
C126 H153 0.931 . S
C127 C128 1.359 . S
C127 C129 1.364 . S
C128 C126 1.374 . S
C128 C127 1.359 . S
C128 H154 0.931 . S
C129 C125 1.389 . S
C129 C127 1.364 . S
C129 H155 0.931 . S
C130 O144 1.256 . S
C130 O145 1.257 . S
C131 O146 1.240 . S
C131 O147 1.240 . S
C132 Gd121 2.818 . S
C132 C133 1.510 . S
C132 O148 1.249 . S
C132 O149 1.252 . S
C133 C132 1.510 . S
C133 C134 1.404 . S
C133 C135 1.352 . S
C134 C133 1.404 . S
C134 C138 1.389 . S
C134 H156 0.930 . S
C135 C133 1.352 . S
C135 C137 1.374 . S
C135 H157 0.931 . S
C136 C137 1.359 . S
C136 C138 1.364 . S
C137 C135 1.374 . S
C137 C136 1.359 . S
C137 H158 0.931 . S
C138 C134 1.389 . S
C138 C136 1.364 . S
C138 H159 0.931 . S
C139 O150 1.256 . S
C139 O151 1.257 . S
O140 Gd120 2.377 1_455 S
O140 C122 1.240 . S
O141 Gd121 2.395 1_455 S
O141 C122 1.240 . S
O142 Gd120 2.448 . S
O142 C123 1.249 . S
O143 Gd120 2.506 . S
O143 C123 1.252 . S
O144 Gd120 2.435 . S
O144 C130 1.256 . S
O145 Gd120 2.717 . S
O145 Gd121 2.327 . S
O145 C130 1.257 . S
O146 Gd121 2.377 . S
O146 C131 1.240 . S
O147 Gd120 2.395 . S
O147 C131 1.240 . S
O148 Gd121 2.448 . S
O148 C132 1.249 . S
O149 Gd121 2.506 . S
O149 C132 1.252 . S
O150 Gd121 2.435 . S
O150 C139 1.256 . S
O151 Gd120 2.327 . S
O151 Gd121 2.717 . S
O151 C139 1.257 . S
H152 C125 0.930 . S
H153 C126 0.931 . S
H154 C128 0.931 . S
H155 C129 0.931 . S
H156 C134 0.930 . S
H157 C135 0.931 . S
H158 C137 0.931 . S
H159 C138 0.931 . S
Gd160 C163 2.818 . S
Gd160 O180 2.377 . S
Gd160 O182 2.448 . S
Gd160 O183 2.506 1_554 S
Gd160 O184 2.435 . S
Gd160 O185 2.717 . S
Gd160 O187 2.395 . S
Gd160 O191 2.327 1_554 S
Gd161 C172 2.818 . S
Gd161 O181 2.395 . S
Gd161 O185 2.327 . S
Gd161 O186 2.377 . S
Gd161 O188 2.448 1_554 S
Gd161 O189 2.506 . S
Gd161 O190 2.435 1_554 S
Gd161 O191 2.717 1_554 S
C162 O180 1.240 . S
C162 O181 1.240 . S
C163 Gd160 2.818 . S
C163 C164 1.510 . S
C163 O182 1.249 . S
C163 O183 1.252 1_554 S
C164 C163 1.510 . S
C164 C165 1.404 . S
C164 C166 1.352 1_554 S
C165 C164 1.404 . S
C165 C169 1.389 . S
C165 H192 0.930 . S
C166 C164 1.352 1_556 S
C166 C168 1.374 . S
C166 H193 0.931 . S
C167 C168 1.359 1_554 S
C167 C169 1.364 . S
C168 C166 1.374 . S
C168 C167 1.359 1_556 S
C168 H194 0.931 . S
C169 C165 1.389 . S
C169 C167 1.364 . S
C169 H195 0.931 . S
C170 O184 1.256 . S
C170 O185 1.257 . S
C171 O186 1.240 . S
C171 O187 1.240 . S
C172 Gd161 2.818 . S
C172 C173 1.510 . S
C172 O188 1.249 1_554 S
C172 O189 1.252 . S
C173 C172 1.510 . S
C173 C174 1.404 1_554 S
C173 C175 1.352 . S
C174 C173 1.404 1_556 S
C174 C178 1.389 1_556 S
C174 H196 0.930 . S
C175 C173 1.352 . S
C175 C177 1.374 . S
C175 H197 0.931 . S
C176 C177 1.359 . S
C176 C178 1.362 . S
C177 C175 1.374 . S
C177 C176 1.359 . S
C177 H198 0.931 . S
C178 C174 1.389 1_554 S
C178 C176 1.362 . S
C178 H199 0.933 1_554 S
C179 O190 1.256 . S
C179 O191 1.257 . S
O180 Gd160 2.377 . S
O180 C162 1.240 . S
O181 Gd161 2.395 . S
O181 C162 1.240 . S
O182 Gd160 2.448 . S
O182 C163 1.249 . S
O183 Gd160 2.506 1_556 S
O183 C163 1.252 1_556 S
O184 Gd160 2.435 . S
O184 C170 1.256 . S
O185 Gd160 2.717 . S
O185 Gd161 2.327 . S
O185 C170 1.257 . S
O186 Gd161 2.377 . S
O186 C171 1.240 . S
O187 Gd160 2.395 . S
O187 C171 1.240 . S
O188 Gd161 2.448 1_556 S
O188 C172 1.249 1_556 S
O189 Gd161 2.506 . S
O189 C172 1.252 . S
O190 Gd161 2.435 1_556 S
O190 C179 1.256 . S
O191 Gd160 2.327 1_556 S
O191 Gd161 2.717 1_556 S
O191 C179 1.257 . S
H192 C165 0.930 . S
H193 C166 0.931 . S
H194 C168 0.931 . S
H195 C169 0.931 . S
H196 C174 0.930 . S
H197 C175 0.931 . S
H198 C177 0.931 . S
H199 C178 0.933 1_556 S
Gd200 C203 2.818 . S
Gd200 O220 2.377 . S
Gd200 O222 2.448 . S
Gd200 O223 2.506 1_554 S
Gd200 O224 2.435 . S
Gd200 O225 2.717 . S
Gd200 O227 2.395 . S
Gd200 O231 2.327 1_554 S
Gd201 C212 2.818 . S
Gd201 O221 2.395 . S
Gd201 O225 2.327 . S
Gd201 O226 2.377 . S
Gd201 O228 2.448 1_554 S
Gd201 O229 2.506 . S
Gd201 O230 2.435 1_554 S
Gd201 O231 2.717 1_554 S
C202 O220 1.240 . S
C202 O221 1.240 . S
C203 Gd200 2.818 . S
C203 C204 1.510 . S
C203 O222 1.249 . S
C203 O223 1.252 1_554 S
C204 C203 1.510 . S
C204 C205 1.404 . S
C204 C206 1.352 1_554 S
C205 C204 1.404 . S
C205 C209 1.389 . S
C205 H232 0.930 . S
C206 C204 1.352 1_556 S
C206 C208 1.374 . S
C206 H233 0.931 . S
C207 C208 1.359 1_554 S
C207 C209 1.364 . S
C208 C206 1.374 . S
C208 C207 1.359 1_556 S
C208 H234 0.931 . S
C209 C205 1.389 . S
C209 C207 1.364 . S
C209 H235 0.931 . S
C210 O224 1.256 . S
C210 O225 1.257 . S
C211 O226 1.240 . S
C211 O227 1.240 . S
C212 Gd201 2.818 . S
C212 C213 1.510 . S
C212 O228 1.249 1_554 S
C212 O229 1.252 . S
C213 C212 1.510 . S
C213 C214 1.383 1_554 S
C213 C215 1.352 . S
C214 C213 1.383 1_556 S
C214 C218 1.385 1_556 S
C214 H236 0.955 . S
C215 C213 1.352 . S
C215 C217 1.374 . S
C215 H237 0.931 . S
C216 C217 1.359 . S
C216 C218 1.364 . S
C217 C215 1.374 . S
C217 C216 1.359 . S
C217 H238 0.931 . S
C218 C214 1.385 1_554 S
C218 C216 1.364 . S
C218 H239 0.931 1_554 S
C219 O230 1.256 . S
C219 O231 1.257 . S
O220 Gd200 2.377 . S
O220 C202 1.240 . S
O221 Gd201 2.395 . S
O221 C202 1.240 . S
O222 Gd200 2.448 . S
O222 C203 1.249 . S
O223 Gd200 2.506 1_556 S
O223 C203 1.252 1_556 S
O224 Gd200 2.435 . S
O224 C210 1.256 . S
O225 Gd200 2.717 . S
O225 Gd201 2.327 . S
O225 C210 1.257 . S
O226 Gd201 2.377 . S
O226 C211 1.240 . S
O227 Gd200 2.395 . S
O227 C211 1.240 . S
O228 Gd201 2.448 1_556 S
O228 C212 1.249 1_556 S
O229 Gd201 2.506 . S
O229 C212 1.252 . S
O230 Gd201 2.435 1_556 S
O230 C219 1.256 . S
O231 Gd200 2.327 1_556 S
O231 Gd201 2.717 1_556 S
O231 C219 1.257 . S
H232 C205 0.930 . S
H233 C206 0.931 . S
H234 C208 0.931 . S
H235 C209 0.931 . S
H236 C214 0.955 . S
H237 C215 0.931 . S
H238 C217 0.931 . S
H239 C218 0.931 1_556 S
Gd240 C243 2.818 . S
Gd240 O260 2.377 . S
Gd240 O262 2.448 . S
Gd240 O263 2.506 . S
Gd240 O264 2.435 . S
Gd240 O265 2.717 . S
Gd240 O267 2.395 . S
Gd240 O271 2.327 . S
Gd241 C252 2.818 . S
Gd241 O261 2.395 . S
Gd241 O265 2.327 . S
Gd241 O266 2.377 . S
Gd241 O268 2.448 . S
Gd241 O269 2.506 . S
Gd241 O270 2.435 . S
Gd241 O271 2.717 . S
C242 O260 1.240 . S
C242 O261 1.240 . S
C243 Gd240 2.818 . S
C243 C244 1.510 . S
C243 O262 1.249 . S
C243 O263 1.252 . S
C244 C243 1.510 . S
C244 C245 1.404 . S
C244 C246 1.352 . S
C245 C244 1.404 . S
C245 C249 1.389 . S
C245 H272 0.930 . S
C246 C244 1.352 . S
C246 C248 1.374 . S
C246 H273 0.931 . S
C247 C248 1.359 . S
C247 C249 1.364 . S
C248 C246 1.374 . S
C248 C247 1.359 . S
C248 H274 0.931 . S
C249 C245 1.389 . S
C249 C247 1.364 . S
C249 H275 0.931 . S
C250 O264 1.256 . S
C250 O265 1.257 . S
C251 O266 1.240 . S
C251 O267 1.240 . S
C252 Gd241 2.818 . S
C252 C253 1.510 . S
C252 O268 1.249 . S
C252 O269 1.252 . S
C253 C252 1.510 . S
C253 C254 1.404 . S
C253 C255 1.352 . S
C254 C253 1.404 . S
C254 C258 1.389 . S
C254 H276 0.930 . S
C255 C253 1.352 . S
C255 C257 1.374 . S
C255 H277 0.931 . S
C256 C257 1.359 . S
C256 C258 1.364 . S
C257 C255 1.374 . S
C257 C256 1.359 . S
C257 H278 0.931 . S
C258 C254 1.389 . S
C258 C256 1.364 . S
C258 H279 0.931 . S
C259 O270 1.256 . S
C259 O271 1.257 . S
O260 Gd240 2.377 . S
O260 C242 1.240 . S
O261 Gd241 2.395 . S
O261 C242 1.240 . S
O262 Gd240 2.448 . S
O262 C243 1.249 . S
O263 Gd240 2.506 . S
O263 C243 1.252 . S
O264 Gd240 2.435 . S
O264 C250 1.256 . S
O265 Gd240 2.717 . S
O265 Gd241 2.327 . S
O265 C250 1.257 . S
O266 Gd241 2.377 . S
O266 C251 1.240 . S
O267 Gd240 2.395 . S
O267 C251 1.240 . S
O268 Gd241 2.448 . S
O268 C252 1.249 . S
O269 Gd241 2.506 . S
O269 C252 1.252 . S
O270 Gd241 2.435 . S
O270 C259 1.256 . S
O271 Gd240 2.327 . S
O271 Gd241 2.717 . S
O271 C259 1.257 . S
H272 C245 0.930 . S
H273 C246 0.931 . S
H274 C248 0.931 . S
H275 C249 0.931 . S
H276 C254 0.930 . S
H277 C255 0.931 . S
H278 C257 0.931 . S
H279 C258 0.931 . S
Gd280 C283 2.818 . S
Gd280 O300 2.377 . S
Gd280 O302 2.448 . S
Gd280 O303 2.506 . S
Gd280 O304 2.435 . S
Gd280 O305 2.717 . S
Gd280 O307 2.395 . S
Gd280 O311 2.327 . S
Gd281 C292 2.818 . S
Gd281 O301 2.395 . S
Gd281 O305 2.327 . S
Gd281 O306 2.377 . S
Gd281 O308 2.448 . S
Gd281 O309 2.506 . S
Gd281 O310 2.435 . S
Gd281 O311 2.717 . S
C282 O300 1.240 . S
C282 O301 1.240 . S
C283 Gd280 2.818 . S
C283 C284 1.510 . S
C283 O302 1.249 . S
C283 O303 1.252 . S
C284 C283 1.510 . S
C284 C285 1.404 . S
C284 C286 1.352 . S
C285 C284 1.404 . S
C285 C289 1.389 . S
C285 H312 0.930 . S
C286 C284 1.352 . S
C286 C288 1.374 . S
C286 H313 0.931 . S
C287 C288 1.359 . S
C287 C289 1.364 . S
C288 C286 1.374 . S
C288 C287 1.359 . S
C288 H314 0.931 . S
C289 C285 1.389 . S
C289 C287 1.364 . S
C289 H315 0.931 . S
C290 O304 1.256 . S
C290 O305 1.257 . S
C291 O306 1.240 . S
C291 O307 1.240 . S
C292 Gd281 2.818 . S
C292 C293 1.510 . S
C292 O308 1.249 . S
C292 O309 1.252 . S
C293 C292 1.510 . S
C293 C294 1.404 . S
C293 C295 1.352 . S
C294 C293 1.404 . S
C294 C298 1.389 . S
C294 H316 0.930 . S
C295 C293 1.352 . S
C295 C297 1.374 . S
C295 H317 0.931 . S
C296 C297 1.359 . S
C296 C298 1.364 . S
C297 C295 1.374 . S
C297 C296 1.359 . S
C297 H318 0.931 . S
C298 C294 1.389 . S
C298 C296 1.364 . S
C298 H319 0.931 . S
C299 O310 1.256 . S
C299 O311 1.257 . S
O300 Gd280 2.377 . S
O300 C282 1.240 . S
O301 Gd281 2.395 . S
O301 C282 1.240 . S
O302 Gd280 2.448 . S
O302 C283 1.249 . S
O303 Gd280 2.506 . S
O303 C283 1.252 . S
O304 Gd280 2.435 . S
O304 C290 1.256 . S
O305 Gd280 2.717 . S
O305 Gd281 2.327 . S
O305 C290 1.257 . S
O306 Gd281 2.377 . S
O306 C291 1.240 . S
O307 Gd280 2.395 . S
O307 C291 1.240 . S
O308 Gd281 2.448 . S
O308 C292 1.249 . S
O309 Gd281 2.506 . S
O309 C292 1.252 . S
O310 Gd281 2.435 . S
O310 C299 1.256 . S
O311 Gd280 2.327 . S
O311 Gd281 2.717 . S
O311 C299 1.257 . S
H312 C285 0.930 . S
H313 C286 0.931 . S
H314 C288 0.931 . S
H315 C289 0.931 . S
H316 C294 0.930 . S
H317 C295 0.931 . S
H318 C297 0.931 . S
H319 C298 0.931 . S
C320 C321 1.349 . S
C320 C322 1.327 . S
C320 H345 0.950 . S
C321 C320 1.349 . S
C321 C337 1.349 1_554 S
C322 C320 1.327 . S
C322 C341 1.429 . S
C322 H346 0.950 . S
C323 C340 1.574 . S
C323 C342 1.368 1_556 S
C323 H347 0.949 . S
H324 C328 0.949 . S
C325 C326 1.358 . S
C325 C327 1.324 1_554 S
C325 H348 0.943 1_554 S
C326 C325 1.358 . S
C326 C338 1.349 . S
C327 C325 1.324 1_556 S
C327 C343 1.425 1_556 S
C327 H349 0.955 . S
C328 H324 0.949 . S
C328 C336 1.574 . S
C328 C344 1.368 . S
H329 C337 0.950 . S
H330 C335 0.950 . S
H331 C336 0.949 . S
H332 C338 0.950 . S
H333 C339 0.950 . S
H334 C340 0.949 . S
C335 H330 0.950 . S
C335 C337 1.327 . S
C335 C341 1.429 1_556 S
C336 C328 1.574 . S
C336 H331 0.949 . S
C336 C342 1.368 . S
C337 C321 1.349 1_556 S
C337 H329 0.950 . S
C337 C335 1.327 . S
C338 C326 1.349 . S
C338 H332 0.950 . S
C338 C339 1.327 . S
C339 H333 0.950 . S
C339 C338 1.327 . S
C339 C343 1.429 . S
C340 C323 1.574 . S
C340 H334 0.949 . S
C340 C344 1.368 1_556 S
C341 C322 1.429 . S
C341 C335 1.429 1_554 S
C341 C342 1.523 . S
C342 C323 1.368 1_554 S
C342 C336 1.368 . S
C342 C341 1.523 . S
C343 C327 1.425 1_554 S
C343 C339 1.429 . S
C343 C344 1.523 . S
C344 C328 1.368 . S
C344 C340 1.368 1_554 S
C344 C343 1.523 . S
H345 C320 0.950 . S
H346 C322 0.950 . S
H347 C323 0.949 . S
H348 C325 0.943 1_556 S
H349 C327 0.955 . S
C350 C351 1.349 . S
C350 C352 1.327 . S
C350 H375 0.950 . S
C351 C350 1.349 . S
C351 C367 1.349 . S
C352 C350 1.327 . S
C352 C371 1.429 . S
C352 H376 0.950 . S
C353 C370 1.574 . S
C353 C372 1.368 . S
C353 H377 0.949 1_554 S
H354 C358 0.949 . S
C355 C356 1.349 . S
C355 C357 1.327 . S
C355 H378 0.950 1_554 S
C356 C355 1.349 . S
C356 C368 1.349 . S
C357 C355 1.327 . S
C357 C373 1.429 . S
C357 H379 0.950 1_554 S
C358 H354 0.949 . S
C358 C366 1.574 . S
C358 C374 1.368 . S
H359 C367 0.950 1_556 S
H360 C365 0.950 1_556 S
H361 C366 0.949 . S
H362 C368 0.950 . S
H363 C369 0.950 . S
H364 C370 0.949 1_556 S
C365 H360 0.950 1_554 S
C365 C367 1.327 . S
C365 C371 1.429 . S
C366 C358 1.574 . S
C366 H361 0.949 . S
C366 C372 1.368 . S
C367 C351 1.349 . S
C367 H359 0.950 1_554 S
C367 C365 1.327 . S
C368 C356 1.349 . S
C368 H362 0.950 . S
C368 C369 1.327 . S
C369 H363 0.950 . S
C369 C368 1.327 . S
C369 C373 1.429 . S
C370 C353 1.574 . S
C370 H364 0.949 1_554 S
C370 C374 1.368 . S
C371 C352 1.429 . S
C371 C365 1.429 . S
C371 C372 1.523 . S
C372 C353 1.368 . S
C372 C366 1.368 . S
C372 C371 1.523 . S
C373 C357 1.429 . S
C373 C369 1.429 . S
C373 C374 1.523 . S
C374 C358 1.368 . S
C374 C370 1.368 . S
C374 C373 1.523 . S
H375 C350 0.950 . S
H376 C352 0.950 . S
H377 C353 0.949 1_556 S
H378 C355 0.950 1_556 S
H379 C357 0.950 1_556 S
C380 C381 1.349 . S
C380 C382 1.327 . S
C380 H405 0.950 . S
C381 C380 1.349 . S
C381 C397 1.349 . S
C382 C380 1.327 . S
C382 C401 1.429 . S
C382 H406 0.950 . S
C383 C400 1.574 . S
C383 C402 1.368 . S
C383 H407 0.949 . S
H384 C388 0.949 . S
C385 C386 1.349 . S
C385 C387 1.327 . S
C385 H408 0.950 . S
C386 C385 1.349 . S
C386 C398 1.349 . S
C387 C385 1.327 . S
C387 C403 1.429 . S
C387 H409 0.950 . S
C388 H384 0.949 . S
C388 C396 1.574 . S
C388 C404 1.368 . S
H389 C397 0.950 . S
H390 C395 0.950 . S
H391 C396 0.949 . S
H392 C398 0.950 . S
H393 C399 0.950 . S
H394 C400 0.949 . S
C395 H390 0.950 . S
C395 C397 1.327 . S
C395 C401 1.429 . S
C396 C388 1.574 . S
C396 H391 0.949 . S
C396 C402 1.368 . S
C397 C381 1.349 . S
C397 H389 0.950 . S
C397 C395 1.327 . S
C398 C386 1.349 . S
C398 H392 0.950 . S
C398 C399 1.327 . S
C399 H393 0.950 . S
C399 C398 1.327 . S
C399 C403 1.429 . S
C400 C383 1.574 . S
C400 H394 0.949 . S
C400 C404 1.368 . S
C401 C382 1.429 . S
C401 C395 1.429 . S
C401 C402 1.523 . S
C402 C383 1.368 . S
C402 C396 1.368 . S
C402 C401 1.523 . S
C403 C387 1.429 . S
C403 C399 1.429 . S
C403 C404 1.523 . S
C404 C388 1.368 . S
C404 C400 1.368 . S
C404 C403 1.523 . S
H405 C380 0.950 . S
H406 C382 0.950 . S
H407 C383 0.949 . S
H408 C385 0.950 . S
H409 C387 0.950 . S
C410 C411 1.349 . S
C410 C412 1.327 . S
C410 H435 0.950 . S
C411 C410 1.349 . S
C411 C427 1.349 . S
C412 C410 1.327 . S
C412 C431 1.429 . S
C412 H436 0.950 . S
C413 C430 1.574 . S
C413 C432 1.368 . S
C413 H437 0.949 . S
H414 C418 0.949 . S
C415 C416 1.349 . S
C415 C417 1.327 . S
C415 H438 0.950 . S
C416 C415 1.349 . S
C416 C428 1.349 . S
C417 C415 1.327 . S
C417 C433 1.429 . S
C417 H439 0.950 . S
C418 H414 0.949 . S
C418 C426 1.574 . S
C418 C434 1.368 . S
H419 C427 0.950 . S
H420 C425 0.950 . S
H421 C426 0.949 . S
H422 C428 0.950 . S
H423 C429 0.950 . S
H424 C430 0.949 . S
C425 H420 0.950 . S
C425 C427 1.327 . S
C425 C431 1.429 . S
C426 C418 1.574 . S
C426 H421 0.949 . S
C426 C432 1.368 . S
C427 C411 1.349 . S
C427 H419 0.950 . S
C427 C425 1.327 . S
C428 C416 1.349 . S
C428 H422 0.950 . S
C428 C429 1.327 . S
C429 H423 0.950 . S
C429 C428 1.327 . S
C429 C433 1.429 . S
C430 C413 1.574 . S
C430 H424 0.949 . S
C430 C434 1.368 . S
C431 C412 1.429 . S
C431 C425 1.429 . S
C431 C432 1.523 . S
C432 C413 1.368 . S
C432 C426 1.368 . S
C432 C431 1.523 . S
C433 C417 1.429 . S
C433 C429 1.429 . S
C433 C434 1.523 . S
C434 C418 1.368 . S
C434 C430 1.368 . S
C434 C433 1.523 . S
H435 C410 0.950 . S
H436 C412 0.950 . S
H437 C413 0.949 . S
H438 C415 0.950 . S
H439 C417 0.950 . S
C440 C441 1.349 . S
C440 C442 1.327 . S
C440 H465 0.950 1_554 S
C441 C440 1.349 . S
C441 C457 1.349 . S
C442 C440 1.327 . S
C442 C461 1.429 . S
C442 H466 0.950 1_554 S
C443 C460 1.574 . S
C443 C462 1.365 1_455 S
C443 H467 0.949 . S
H444 C448 0.949 1_556 S
C445 C446 1.349 . S
C445 C447 1.327 . S
C445 H468 0.950 . S
C446 C445 1.349 . S
C446 C458 1.349 . S
C447 C445 1.327 . S
C447 C463 1.429 . S
C447 H469 0.950 . S
C448 H444 0.949 1_554 S
C448 C456 1.574 . S
C448 C464 1.368 . S
H449 C457 0.950 . S
H450 C455 0.950 . S
H451 C456 0.949 1_656 S
H452 C458 0.950 1_556 S
H453 C459 0.950 1_556 S
H454 C460 0.949 . S
C455 H450 0.950 . S
C455 C457 1.327 . S
C455 C461 1.429 . S
C456 C448 1.574 . S
C456 H451 0.949 1_454 S
C456 C462 1.366 1_455 S
C457 C441 1.349 . S
C457 H449 0.950 . S
C457 C455 1.327 . S
C458 C446 1.349 . S
C458 H452 0.950 1_554 S
C458 C459 1.327 . S
C459 H453 0.950 1_554 S
C459 C458 1.327 . S
C459 C463 1.429 . S
C460 C443 1.574 . S
C460 H454 0.949 . S
C460 C464 1.368 . S
C461 C442 1.429 . S
C461 C455 1.429 . S
C461 C462 1.530 . S
C462 C443 1.365 1_655 S
C462 C456 1.366 1_655 S
C462 C461 1.530 . S
C463 C447 1.429 . S
C463 C459 1.429 . S
C463 C464 1.523 . S
C464 C448 1.368 . S
C464 C460 1.368 . S
C464 C463 1.523 . S
H465 C440 0.950 1_556 S
H466 C442 0.950 1_556 S
H467 C443 0.949 . S
H468 C445 0.950 . S
H469 C447 0.950 . S
C470 C471 1.349 . S
C470 C472 1.327 . S
C470 H495 0.950 . S
C471 C470 1.349 . S
C471 C487 1.349 1_554 S
C472 C470 1.327 . S
C472 C491 1.429 . S
C472 H496 0.950 . S
C473 C490 1.574 . S
C473 C492 1.366 1_656 S
C473 H497 0.949 1_655 S
H474 C478 0.949 . S
C475 C476 1.349 1_556 S
C475 C477 1.327 . S
C475 H498 0.950 . S
C476 C475 1.349 1_554 S
C476 C488 1.349 . S
C477 C475 1.327 . S
C477 C493 1.429 1_556 S
C477 H499 0.950 . S
C478 H474 0.949 . S
C478 C486 1.574 . S
C478 C494 1.368 . S
H479 C487 0.950 . S
H480 C485 0.950 . S
H481 C486 0.949 . S
H482 C488 0.950 . S
H483 C489 0.950 . S
H484 C490 0.949 . S
C485 H480 0.950 . S
C485 C487 1.327 . S
C485 C491 1.429 1_556 S
C486 C478 1.574 . S
C486 H481 0.949 . S
C486 C492 1.366 1_655 S
C487 C471 1.349 1_556 S
C487 H479 0.950 . S
C487 C485 1.327 . S
C488 C476 1.349 . S
C488 H482 0.950 . S
C488 C489 1.327 . S
C489 H483 0.950 . S
C489 C488 1.327 . S
C489 C493 1.429 . S
C490 C473 1.574 . S
C490 H484 0.949 . S
C490 C494 1.368 1_556 S
C491 C472 1.429 . S
C491 C485 1.429 1_554 S
C491 C492 1.529 . S
C492 C473 1.366 1_454 S
C492 C486 1.366 1_455 S
C492 C491 1.529 . S
C493 C477 1.429 1_554 S
C493 C489 1.429 . S
C493 C494 1.523 . S
C494 C478 1.368 . S
C494 C490 1.368 1_554 S
C494 C493 1.523 . S
H495 C470 0.950 . S
H496 C472 0.950 . S
H497 C473 0.949 1_455 S
H498 C475 0.950 . S
H499 C477 0.950 . S
C500 C501 1.349 . S
C500 C502 1.327 . S
C500 H525 0.950 . S
C501 C500 1.349 . S
C501 C517 1.349 . S
C502 C500 1.327 . S
C502 C521 1.429 . S
C502 H526 0.950 . S
C503 C520 1.574 . S
C503 C522 1.368 . S
C503 H527 0.949 . S
H504 C508 0.949 . S
C505 C506 1.349 . S
C505 C507 1.327 . S
C505 H528 0.950 . S
C506 C505 1.349 . S
C506 C518 1.349 . S
C507 C505 1.327 . S
C507 C523 1.429 . S
C507 H529 0.950 . S
C508 H504 0.949 . S
C508 C516 1.574 . S
C508 C524 1.364 1_455 S
H509 C517 0.950 . S
H510 C515 0.950 . S
H511 C516 0.949 . S
H512 C518 0.950 . S
H513 C519 0.950 . S
H514 C520 0.949 1_655 S
C515 H510 0.950 . S
C515 C517 1.327 . S
C515 C521 1.429 . S
C516 C508 1.574 . S
C516 H511 0.949 . S
C516 C522 1.368 . S
C517 C501 1.349 . S
C517 H509 0.950 . S
C517 C515 1.327 . S
C518 C506 1.349 . S
C518 H512 0.950 . S
C518 C519 1.327 . S
C519 H513 0.950 . S
C519 C518 1.327 . S
C519 C523 1.429 . S
C520 C503 1.574 . S
C520 H514 0.949 1_455 S
C520 C524 1.365 1_455 S
C521 C502 1.429 . S
C521 C515 1.429 . S
C521 C522 1.523 . S
C522 C503 1.368 . S
C522 C516 1.368 . S
C522 C521 1.523 . S
C523 C507 1.429 . S
C523 C519 1.429 . S
C523 C524 1.532 . S
C524 C508 1.364 1_655 S
C524 C520 1.365 1_655 S
C524 C523 1.532 . S
H525 C500 0.950 . S
H526 C502 0.950 . S
H527 C503 0.949 . S
H528 C505 0.950 . S
H529 C507 0.950 . S
C530 C531 1.349 . S
C530 C532 1.327 . S
C530 H555 0.950 . S
C531 C530 1.349 . S
C531 C547 1.349 . S
C532 C530 1.327 . S
C532 C551 1.429 . S
C532 H556 0.950 . S
C533 C550 1.574 . S
C533 C552 1.368 . S
C533 H557 0.949 . S
H534 C538 0.949 1_455 S
C535 C536 1.349 . S
C535 C537 1.327 . S
C535 H558 0.950 . S
C536 C535 1.349 . S
C536 C548 1.349 . S
C537 C535 1.327 . S
C537 C553 1.429 . S
C537 H559 0.950 . S
C538 H534 0.949 1_655 S
C538 C546 1.574 . S
C538 C554 1.365 1_655 S
H539 C547 0.950 . S
H540 C545 0.950 . S
H541 C546 0.949 . S
H542 C548 0.950 . S
H543 C549 0.950 . S
H544 C550 0.949 . S
C545 H540 0.950 . S
C545 C547 1.327 . S
C545 C551 1.429 . S
C546 C538 1.574 . S
C546 H541 0.949 . S
C546 C552 1.368 . S
C547 C531 1.349 . S
C547 H539 0.950 . S
C547 C545 1.327 . S
C548 C536 1.349 . S
C548 H542 0.950 . S
C548 C549 1.327 . S
C549 H543 0.950 . S
C549 C548 1.327 . S
C549 C553 1.429 . S
C550 C533 1.574 . S
C550 H544 0.949 . S
C550 C554 1.366 1_655 S
C551 C532 1.429 . S
C551 C545 1.429 . S
C551 C552 1.523 . S
C552 C533 1.368 . S
C552 C546 1.368 . S
C552 C551 1.523 . S
C553 C537 1.429 . S
C553 C549 1.429 . S
C553 C554 1.531 . S
C554 C538 1.365 1_455 S
C554 C550 1.366 1_455 S
C554 C553 1.531 . S
H555 C530 0.950 . S
H556 C532 0.950 . S
H557 C533 0.949 . S
H558 C535 0.950 . S
H559 C537 0.950 . S
C560 C561 1.349 . S
C560 C562 1.327 . S
C560 H585 0.950 . S
C561 C560 1.349 . S
C561 C577 1.351 . S
C562 C560 1.327 . S
C562 C581 1.429 . S
C562 H586 0.950 1_455 S
C563 C580 1.574 . S
C563 C582 1.368 1_556 S
C563 H587 0.949 . S
H564 C568 0.949 . S
C565 C566 1.349 1_556 S
C565 C567 1.327 . S
C565 H588 0.950 . S
C566 C565 1.349 1_554 S
C566 C578 1.349 . S
C567 C565 1.327 . S
C567 C583 1.429 1_556 S
C567 H589 0.950 1_655 S
C568 H564 0.949 . S
C568 C576 1.574 . S
C568 C584 1.368 . S
H569 C577 0.948 1_556 S
H570 C575 0.950 . S
H571 C576 0.949 . S
H572 C578 0.950 . S
H573 C579 0.950 . S
H574 C580 0.949 . S
C575 H570 0.950 . S
C575 C577 1.327 1_556 S
C575 C581 1.429 1_556 S
C576 C568 1.574 . S
C576 H571 0.949 . S
C576 C582 1.368 1_655 S
C577 C561 1.351 . S
C577 H569 0.948 1_554 S
C577 C575 1.327 1_554 S
C578 C566 1.349 . S
C578 H572 0.950 . S
C578 C579 1.327 . S
C579 H573 0.950 . S
C579 C578 1.327 . S
C579 C583 1.429 . S
C580 C563 1.574 . S
C580 H574 0.949 . S
C580 C584 1.368 1_456 S
C581 C562 1.429 . S
C581 C575 1.429 1_554 S
C581 C582 1.523 . S
C582 C563 1.368 1_554 S
C582 C576 1.368 1_455 S
C582 C581 1.523 . S
C583 C567 1.429 1_554 S
C583 C579 1.429 . S
C583 C584 1.523 . S
C584 C568 1.368 . S
C584 C580 1.368 1_654 S
C584 C583 1.523 . S
H585 C560 0.950 . S
H586 C562 0.950 1_655 S
H587 C563 0.949 . S
H588 C565 0.950 . S
H589 C567 0.950 1_455 S
C590 C591 1.349 . S
C590 C592 1.327 . S
C590 H615 0.950 . S
C591 C590 1.349 . S
C591 C607 1.349 . S
C592 C590 1.327 . S
C592 C611 1.429 . S
C592 H616 0.950 . S
C593 C610 1.574 . S
C593 C612 1.368 . S
C593 H617 0.949 . S
H594 C598 0.949 . S
C595 C596 1.349 . S
C595 C597 1.327 . S
C595 H618 0.950 . S
C596 C595 1.349 . S
C596 C608 1.349 . S
C597 C595 1.327 . S
C597 C613 1.429 . S
C597 H619 0.950 . S
C598 H594 0.949 . S
C598 C606 1.574 . S
C598 C614 1.368 . S
H599 C607 0.950 . S
H600 C605 0.950 . S
H601 C606 0.949 . S
H602 C608 0.950 . S
H603 C609 0.950 . S
H604 C610 0.949 . S
C605 H600 0.950 . S
C605 C607 1.327 . S
C605 C611 1.429 . S
C606 C598 1.574 . S
C606 H601 0.949 . S
C606 C612 1.368 1_655 S
C607 C591 1.349 . S
C607 H599 0.950 . S
C607 C605 1.327 . S
C608 C596 1.349 . S
C608 H602 0.950 . S
C608 C609 1.327 . S
C609 H603 0.950 . S
C609 C608 1.327 . S
C609 C613 1.429 . S
C610 C593 1.574 . S
C610 H604 0.949 . S
C610 C614 1.368 1_455 S
C611 C592 1.429 . S
C611 C605 1.429 . S
C611 C612 1.523 . S
C612 C593 1.368 . S
C612 C606 1.368 1_455 S
C612 C611 1.523 . S
C613 C597 1.429 . S
C613 C609 1.429 . S
C613 C614 1.523 . S
C614 C598 1.368 . S
C614 C610 1.368 1_655 S
C614 C613 1.523 . S
H615 C590 0.950 . S
H616 C592 0.950 . S
H617 C593 0.949 . S
H618 C595 0.950 . S
H619 C597 0.950 . S
C620 C621 1.349 . S
C620 C622 1.327 . S
C620 H645 0.950 . S
C621 C620 1.349 . S
C621 C637 1.349 1_554 S
C622 C620 1.327 . S
C622 C641 1.429 . S
C622 H646 0.950 . S
C623 C640 1.574 1_565 S
C623 C642 1.368 1_556 S
C623 H647 0.949 . S
H624 C628 0.949 . S
C625 C626 1.349 . S
C625 C627 1.331 . S
C625 H648 0.950 1_554 S
C626 C625 1.349 . S
C626 C638 1.349 . S
C627 C625 1.331 . S
C627 C643 1.449 . S
C627 H649 0.925 1_554 S
C628 H624 0.949 . S
C628 C636 1.574 1_545 S
C628 C644 1.368 . S
H629 C637 0.950 . S
H630 C635 0.950 . S
H631 C636 0.949 . S
H632 C638 0.950 . S
H633 C639 0.950 . S
H634 C640 0.949 . S
C635 H630 0.950 . S
C635 C637 1.327 . S
C635 C641 1.429 1_556 S
C636 C628 1.574 1_565 S
C636 H631 0.949 . S
C636 C642 1.368 . S
C637 C621 1.349 1_556 S
C637 H629 0.950 . S
C637 C635 1.327 . S
C638 C626 1.349 . S
C638 H632 0.950 . S
C638 C639 1.327 . S
C639 H633 0.950 . S
C639 C638 1.327 . S
C639 C643 1.429 . S
C640 C623 1.574 1_545 S
C640 H634 0.949 . S
C640 C644 1.368 1_556 S
C641 C622 1.429 . S
C641 C635 1.429 1_554 S
C641 C642 1.523 . S
C642 C623 1.368 1_554 S
C642 C636 1.368 . S
C642 C641 1.523 . S
C643 C627 1.449 . S
C643 C639 1.429 . S
C643 C644 1.523 . S
C644 C628 1.368 . S
C644 C640 1.368 1_554 S
C644 C643 1.523 . S
H645 C620 0.950 . S
H646 C622 0.950 . S
H647 C623 0.949 . S
H648 C625 0.950 1_556 S
H649 C627 0.925 1_556 S
C650 C651 1.349 . S
C650 C652 1.327 . S
C650 H675 0.950 . S
C651 C650 1.349 . S
C651 C667 1.349 . S
C652 C650 1.327 . S
C652 C671 1.429 . S
C652 H676 0.950 . S
C653 C670 1.574 1_545 S
C653 C672 1.368 . S
C653 H677 0.949 . S
H654 C658 0.949 . S
C655 C656 1.349 . S
C655 C657 1.327 . S
C655 H678 0.950 . S
C656 C655 1.349 . S
C656 C668 1.349 . S
C657 C655 1.327 . S
C657 C673 1.429 . S
C657 H679 0.950 . S
C658 H654 0.949 . S
C658 C666 1.574 1_565 S
C658 C674 1.368 . S
H659 C667 0.950 . S
H660 C665 0.950 . S
H661 C666 0.949 . S
H662 C668 0.950 . S
H663 C669 0.950 . S
H664 C670 0.949 . S
C665 H660 0.950 . S
C665 C667 1.327 . S
C665 C671 1.429 . S
C666 C658 1.574 1_545 S
C666 H661 0.949 . S
C666 C672 1.368 . S
C667 C651 1.349 . S
C667 H659 0.950 . S
C667 C665 1.327 . S
C668 C656 1.349 . S
C668 H662 0.950 . S
C668 C669 1.327 . S
C669 H663 0.950 . S
C669 C668 1.327 . S
C669 C673 1.429 . S
C670 C653 1.574 1_565 S
C670 H664 0.949 . S
C670 C674 1.368 . S
C671 C652 1.429 . S
C671 C665 1.429 . S
C671 C672 1.523 . S
C672 C653 1.368 . S
C672 C666 1.368 . S
C672 C671 1.523 . S
C673 C657 1.429 . S
C673 C669 1.429 . S
C673 C674 1.523 . S
C674 C658 1.368 . S
C674 C670 1.368 . S
C674 C673 1.523 . S
H675 C650 0.950 . S
H676 C652 0.950 . S
H677 C653 0.949 . S
H678 C655 0.950 . S
H679 C657 0.950 . S
C680 C681 1.349 . S
C680 C682 1.327 . S
C680 H705 0.950 . S
C681 C680 1.349 . S
C681 C697 1.348 1_554 S
C682 C680 1.327 . S
C682 C701 1.429 . S
C682 H706 0.950 . S
C683 C700 1.574 . S
C683 C702 1.368 1_556 S
C683 H707 0.949 . S
H684 C688 0.949 . S
C685 C686 1.349 1_556 S
C685 C687 1.327 . S
C685 H708 0.950 . S
C686 C685 1.349 1_554 S
C686 C698 1.349 . S
C687 C685 1.327 . S
C687 C703 1.429 1_556 S
C687 H709 0.950 . S
C688 H684 0.949 . S
C688 C696 1.574 . S
C688 C704 1.368 . S
H689 C697 0.950 . S
H690 C695 0.950 . S
H691 C696 0.949 . S
H692 C698 0.950 . S
H693 C699 0.950 . S
H694 C700 0.949 . S
C695 H690 0.950 . S
C695 C697 1.327 . S
C695 C701 1.429 1_556 S
C696 C688 1.574 . S
C696 H691 0.949 . S
C696 C702 1.368 . S
C697 C681 1.348 1_556 S
C697 H689 0.950 . S
C697 C695 1.327 . S
C698 C686 1.349 . S
C698 H692 0.950 . S
C698 C699 1.327 . S
C699 H693 0.950 . S
C699 C698 1.327 . S
C699 C703 1.429 . S
C700 C683 1.574 . S
C700 H694 0.949 . S
C700 C704 1.368 1_556 S
C701 C682 1.429 . S
C701 C695 1.429 1_554 S
C701 C702 1.523 . S
C702 C683 1.368 1_554 S
C702 C696 1.368 . S
C702 C701 1.523 . S
C703 C687 1.429 1_554 S
C703 C699 1.429 . S
C703 C704 1.523 . S
C704 C688 1.368 . S
C704 C700 1.368 1_554 S
C704 C703 1.523 . S
H705 C680 0.950 . S
H706 C682 0.950 . S
H707 C683 0.949 . S
H708 C685 0.950 . S
H709 C687 0.950 . S
C710 C711 1.336 1_556 S
C710 C712 1.328 . S
C710 H735 0.961 . S
C711 C710 1.336 1_554 S
C711 C727 1.349 . S
C712 C710 1.328 . S
C712 C731 1.429 1_556 S
C712 H736 0.950 . S
C713 C730 1.574 . S
C713 C732 1.368 . S
C713 H737 0.949 . S
H714 C718 0.949 . S
C715 C716 1.349 . S
C715 C717 1.327 . S
C715 H738 0.950 . S
C716 C715 1.349 . S
C716 C728 1.349 1_554 S
C717 C715 1.327 . S
C717 C733 1.429 . S
C717 H739 0.950 . S
C718 H714 0.949 . S
C718 C726 1.574 . S
C718 C734 1.368 1_556 S
H719 C727 0.950 . S
H720 C725 0.950 . S
H721 C726 0.949 . S
H722 C728 0.950 . S
H723 C729 0.950 . S
H724 C730 0.949 . S
C725 H720 0.950 . S
C725 C727 1.327 . S
C725 C731 1.429 . S
C726 C718 1.574 . S
C726 H721 0.949 . S
C726 C732 1.368 1_556 S
C727 C711 1.349 . S
C727 H719 0.950 . S
C727 C725 1.327 . S
C728 C716 1.349 1_556 S
C728 H722 0.950 . S
C728 C729 1.327 . S
C729 H723 0.950 . S
C729 C728 1.327 . S
C729 C733 1.429 1_556 S
C730 C713 1.574 . S
C730 H724 0.949 . S
C730 C734 1.368 . S
C731 C712 1.429 1_554 S
C731 C725 1.429 . S
C731 C732 1.523 . S
C732 C713 1.368 . S
C732 C726 1.368 1_554 S
C732 C731 1.523 . S
C733 C717 1.429 . S
C733 C729 1.429 1_554 S
C733 C734 1.523 . S
C734 C718 1.368 1_554 S
C734 C730 1.368 . S
C734 C733 1.523 . S
H735 C710 0.961 . S
H736 C712 0.950 . S
H737 C713 0.949 . S
H738 C715 0.950 . S
H739 C717 0.950 . S
C740 C741 1.349 . S
C740 C742 1.327 . S
C740 H765 0.950 . S
C741 C740 1.349 . S
C741 C757 1.349 . S
C742 C740 1.327 . S
C742 C761 1.429 . S
C742 H766 0.950 . S
C743 C760 1.574 . S
C743 C762 1.368 . S
C743 H767 0.949 . S
H744 C748 0.949 . S
C745 C746 1.349 . S
C745 C747 1.327 . S
C745 H768 0.950 . S
C746 C745 1.349 . S
C746 C758 1.349 . S
C747 C745 1.327 . S
C747 C763 1.429 . S
C747 H769 0.950 . S
C748 H744 0.949 . S
C748 C756 1.574 . S
C748 C764 1.368 . S
H749 C757 0.950 . S
H750 C755 0.950 . S
H751 C756 0.949 . S
H752 C758 0.950 . S
H753 C759 0.950 . S
H754 C760 0.949 . S
C755 H750 0.950 . S
C755 C757 1.327 . S
C755 C761 1.429 . S
C756 C748 1.574 . S
C756 H751 0.949 . S
C756 C762 1.368 . S
C757 C741 1.349 . S
C757 H749 0.950 . S
C757 C755 1.327 . S
C758 C746 1.349 . S
C758 H752 0.950 . S
C758 C759 1.327 . S
C759 H753 0.950 . S
C759 C758 1.327 . S
C759 C763 1.429 . S
C760 C743 1.574 . S
C760 H754 0.949 . S
C760 C764 1.368 . S
C761 C742 1.429 . S
C761 C755 1.429 . S
C761 C762 1.523 . S
C762 C743 1.368 . S
C762 C756 1.368 . S
C762 C761 1.523 . S
C763 C747 1.429 . S
C763 C759 1.429 . S
C763 C764 1.523 . S
C764 C748 1.368 . S
C764 C760 1.368 . S
C764 C763 1.523 . S
H765 C740 0.950 . S
H766 C742 0.950 . S
H767 C743 0.949 . S
H768 C745 0.950 . S
H769 C747 0.950 . S
C770 C771 1.349 . S
C770 C772 1.327 . S
C770 H795 0.950 . S
C771 C770 1.349 . S
C771 C787 1.349 . S
C772 C770 1.327 . S
C772 C791 1.429 . S
C772 H796 0.950 . S
C773 C790 1.574 . S
C773 C792 1.368 . S
C773 H797 0.949 . S
H774 C778 0.949 . S
C775 C776 1.349 . S
C775 C777 1.327 . S
C775 H798 0.950 . S
C776 C775 1.349 . S
C776 C788 1.349 . S
C777 C775 1.327 . S
C777 C793 1.429 . S
C777 H799 0.950 . S
C778 H774 0.949 . S
C778 C786 1.574 . S
C778 C794 1.368 . S
H779 C787 0.950 . S
H780 C785 0.950 . S
H781 C786 0.949 . S
H782 C788 0.950 . S
H783 C789 0.950 . S
H784 C790 0.949 . S
C785 H780 0.950 . S
C785 C787 1.327 . S
C785 C791 1.429 . S
C786 C778 1.574 . S
C786 H781 0.949 . S
C786 C792 1.368 . S
C787 C771 1.349 . S
C787 H779 0.950 . S
C787 C785 1.327 . S
C788 C776 1.349 . S
C788 H782 0.950 . S
C788 C789 1.327 . S
C789 H783 0.950 . S
C789 C788 1.327 . S
C789 C793 1.429 . S
C790 C773 1.574 . S
C790 H784 0.949 . S
C790 C794 1.368 . S
C791 C772 1.429 . S
C791 C785 1.429 . S
C791 C792 1.523 . S
C792 C773 1.368 . S
C792 C786 1.368 . S
C792 C791 1.523 . S
C793 C777 1.429 . S
C793 C789 1.429 . S
C793 C794 1.523 . S
C794 C778 1.368 . S
C794 C790 1.368 . S
C794 C793 1.523 . S
H795 C770 0.950 . S
H796 C772 0.950 . S
H797 C773 0.949 . S
H798 C775 0.950 . S
H799 C777 0.950 . S
C800 C801 1.349 . S
C800 C802 1.327 . S
C800 H825 0.950 . S
C801 C800 1.349 . S
C801 C817 1.349 . S
C802 C800 1.327 . S
C802 C821 1.429 . S
C802 H826 0.950 . S
C803 C820 1.574 . S
C803 C822 1.368 1_655 S
C803 H827 0.949 . S
H804 C808 0.949 . S
C805 C806 1.349 . S
C805 C807 1.327 . S
C805 H828 0.950 . S
C806 C805 1.349 . S
C806 C818 1.349 . S
C807 C805 1.327 . S
C807 C823 1.429 . S
C807 H829 0.950 . S
C808 H804 0.949 . S
C808 C816 1.574 . S
C808 C824 1.368 1_455 S
H809 C817 0.950 1_655 S
H810 C815 0.950 1_655 S
H811 C816 0.949 . S
H812 C818 0.950 1_455 S
H813 C819 0.950 1_455 S
H814 C820 0.949 . S
C815 H810 0.950 1_455 S
C815 C817 1.327 . S
C815 C821 1.429 . S
C816 C808 1.574 . S
C816 H811 0.949 . S
C816 C822 1.368 . S
C817 C801 1.349 . S
C817 H809 0.950 1_455 S
C817 C815 1.327 . S
C818 C806 1.349 . S
C818 H812 0.950 1_655 S
C818 C819 1.327 . S
C819 H813 0.950 1_655 S
C819 C818 1.327 . S
C819 C823 1.429 . S
C820 C803 1.574 . S
C820 H814 0.949 . S
C820 C824 1.368 . S
C821 C802 1.429 . S
C821 C815 1.429 . S
C821 C822 1.523 . S
C822 C803 1.368 1_455 S
C822 C816 1.368 . S
C822 C821 1.523 . S
C823 C807 1.429 . S
C823 C819 1.429 . S
C823 C824 1.523 . S
C824 C808 1.368 1_655 S
C824 C820 1.368 . S
C824 C823 1.523 . S
H825 C800 0.950 . S
H826 C802 0.950 . S
H827 C803 0.949 . S
H828 C805 0.950 . S
H829 C807 0.950 . S
C830 C831 1.349 . S
C830 C832 1.327 . S
C830 H855 0.950 1_655 S
C831 C830 1.349 . S
C831 C847 1.349 . S
C832 C830 1.327 . S
C832 C851 1.429 . S
C832 H856 0.950 1_655 S
C833 C850 1.574 . S
C833 C852 1.368 . S
C833 H857 0.949 . S
H834 C838 0.949 . S
C835 C836 1.349 . S
C835 C837 1.327 . S
C835 H858 0.945 1_455 S
C836 C835 1.349 . S
C836 C848 1.349 . S
C837 C835 1.327 . S
C837 C853 1.429 . S
C837 H859 0.950 1_455 S
C838 H834 0.949 . S
C838 C846 1.574 . S
C838 C854 1.368 . S
H839 C847 0.950 . S
H840 C845 0.950 . S
H841 C846 0.949 . S
H842 C848 0.950 . S
H843 C849 0.950 . S
H844 C850 0.949 . S
C845 H840 0.950 . S
C845 C847 1.327 . S
C845 C851 1.429 . S
C846 C838 1.574 . S
C846 H841 0.949 . S
C846 C852 1.368 1_455 S
C847 C831 1.349 . S
C847 H839 0.950 . S
C847 C845 1.327 . S
C848 C836 1.349 . S
C848 H842 0.950 . S
C848 C849 1.327 . S
C849 H843 0.950 . S
C849 C848 1.327 . S
C849 C853 1.429 . S
C850 C833 1.574 . S
C850 H844 0.949 . S
C850 C854 1.368 1_655 S
C851 C832 1.429 . S
C851 C845 1.429 . S
C851 C852 1.523 . S
C852 C833 1.368 . S
C852 C846 1.368 1_655 S
C852 C851 1.523 . S
C853 C837 1.429 . S
C853 C849 1.429 . S
C853 C854 1.523 . S
C854 C838 1.368 . S
C854 C850 1.368 1_455 S
C854 C853 1.523 . S
H855 C830 0.950 1_455 S
H856 C832 0.950 1_455 S
H857 C833 0.949 . S
H858 C835 0.945 1_655 S
H859 C837 0.950 1_655 S
C860 C861 1.349 . S
C860 C862 1.327 . S
C860 H885 0.950 . S
C861 C860 1.349 . S
C861 C877 1.349 . S
C862 C860 1.327 . S
C862 C881 1.429 . S
C862 H886 0.950 . S
C863 C880 1.574 . S
C863 C882 1.368 1_455 S
C863 H887 0.949 . S
H864 C868 0.949 . S
C865 C866 1.349 . S
C865 C867 1.327 . S
C865 H888 0.950 . S
C866 C865 1.349 . S
C866 C878 1.349 . S
C867 C865 1.327 . S
C867 C883 1.429 . S
C867 H889 0.950 . S
C868 H864 0.949 . S
C868 C876 1.574 . S
C868 C884 1.368 1_655 S
H869 C877 0.950 1_455 S
H870 C875 0.950 1_455 S
H871 C876 0.949 . S
H872 C878 0.950 1_655 S
H873 C879 0.950 1_655 S
H874 C880 0.949 . S
C875 H870 0.950 1_655 S
C875 C877 1.327 . S
C875 C881 1.429 . S
C876 C868 1.574 . S
C876 H871 0.949 . S
C876 C882 1.368 . S
C877 C861 1.349 . S
C877 H869 0.950 1_655 S
C877 C875 1.327 . S
C878 C866 1.349 . S
C878 H872 0.950 1_455 S
C878 C879 1.327 . S
C879 H873 0.950 1_455 S
C879 C878 1.327 . S
C879 C883 1.429 . S
C880 C863 1.574 . S
C880 H874 0.949 . S
C880 C884 1.368 . S
C881 C862 1.429 . S
C881 C875 1.429 . S
C881 C882 1.523 . S
C882 C863 1.368 1_655 S
C882 C876 1.368 . S
C882 C881 1.523 . S
C883 C867 1.429 . S
C883 C879 1.429 . S
C883 C884 1.523 . S
C884 C868 1.368 1_455 S
C884 C880 1.368 . S
C884 C883 1.523 . S
H885 C860 0.950 . S
H886 C862 0.950 . S
H887 C863 0.949 . S
H888 C865 0.950 . S
H889 C867 0.950 . S
C890 C891 1.349 . S
C890 C892 1.327 . S
C890 H915 0.945 1_655 S
C891 C890 1.349 . S
C891 C907 1.349 . S
C892 C890 1.327 . S
C892 C911 1.429 . S
C892 H916 0.950 1_655 S
C893 C910 1.574 . S
C893 C912 1.368 . S
C893 H917 0.949 . S
H894 C898 0.949 . S
C895 C896 1.349 . S
C895 C897 1.327 . S
C895 H918 0.950 1_455 S
C896 C895 1.349 . S
C896 C908 1.349 . S
C897 C895 1.327 . S
C897 C913 1.429 . S
C897 H919 0.950 1_455 S
C898 H894 0.949 . S
C898 C906 1.574 . S
C898 C914 1.368 . S
H899 C907 0.950 . S
H900 C905 0.950 . S
H901 C906 0.949 . S
H902 C908 0.950 . S
H903 C909 0.950 . S
H904 C910 0.949 . S
C905 H900 0.950 . S
C905 C907 1.327 . S
C905 C911 1.429 . S
C906 C898 1.574 . S
C906 H901 0.949 . S
C906 C912 1.368 1_455 S
C907 C891 1.349 . S
C907 H899 0.950 . S
C907 C905 1.327 . S
C908 C896 1.349 . S
C908 H902 0.950 . S
C908 C909 1.327 . S
C909 H903 0.950 . S
C909 C908 1.327 . S
C909 C913 1.429 . S
C910 C893 1.574 . S
C910 H904 0.949 . S
C910 C914 1.368 1_655 S
C911 C892 1.429 . S
C911 C905 1.429 . S
C911 C912 1.523 . S
C912 C893 1.368 . S
C912 C906 1.368 1_655 S
C912 C911 1.523 . S
C913 C897 1.429 . S
C913 C909 1.429 . S
C913 C914 1.523 . S
C914 C898 1.368 . S
C914 C910 1.368 1_455 S
C914 C913 1.523 . S
H915 C890 0.945 1_455 S
H916 C892 0.950 1_455 S
H917 C893 0.949 . S
H918 C895 0.950 1_655 S
H919 C897 0.950 1_655 S
C920 C921 1.349 . S
C920 C922 1.327 . S
C920 H945 0.950 . S
C921 C920 1.349 . S
C921 C937 1.349 . S
C922 C920 1.327 . S
C922 C941 1.429 . S
C922 H946 0.950 . S
C923 C940 1.574 . S
C923 C942 1.368 . S
C923 H947 0.949 . S
H924 C928 0.949 . S
C925 C926 1.349 . S
C925 C927 1.327 . S
C925 H948 0.950 . S
C926 C925 1.349 . S
C926 C938 1.349 . S
C927 C925 1.327 . S
C927 C943 1.429 . S
C927 H949 0.950 . S
C928 H924 0.949 . S
C928 C936 1.574 . S
C928 C944 1.368 . S
H929 C937 0.950 . S
H930 C935 0.950 . S
H931 C936 0.949 . S
H932 C938 0.950 . S
H933 C939 0.950 . S
H934 C940 0.949 . S
C935 H930 0.950 . S
C935 C937 1.327 . S
C935 C941 1.429 . S
C936 C928 1.574 . S
C936 H931 0.949 . S
C936 C942 1.368 . S
C937 C921 1.349 . S
C937 H929 0.950 . S
C937 C935 1.327 . S
C938 C926 1.349 . S
C938 H932 0.950 . S
C938 C939 1.327 . S
C939 H933 0.950 . S
C939 C938 1.327 . S
C939 C943 1.429 . S
C940 C923 1.574 . S
C940 H934 0.949 . S
C940 C944 1.368 . S
C941 C922 1.429 . S
C941 C935 1.429 . S
C941 C942 1.523 . S
C942 C923 1.368 . S
C942 C936 1.368 . S
C942 C941 1.523 . S
C943 C927 1.429 . S
C943 C939 1.429 . S
C943 C944 1.523 . S
C944 C928 1.368 . S
C944 C940 1.368 . S
C944 C943 1.523 . S
H945 C920 0.950 . S
H946 C922 0.950 . S
H947 C923 0.949 . S
H948 C925 0.950 . S
H949 C927 0.950 . S
C950 C951 1.349 . S
C950 C952 1.327 . S
C950 H975 0.950 . S
C951 C950 1.349 . S
C951 C967 1.349 . S
C952 C950 1.327 . S
C952 C971 1.429 . S
C952 H976 0.950 . S
C953 C970 1.574 . S
C953 C972 1.368 . S
C953 H977 0.949 . S
H954 C958 0.949 . S
C955 C956 1.349 . S
C955 C957 1.327 . S
C955 H978 0.950 . S
C956 C955 1.349 . S
C956 C968 1.349 . S
C957 C955 1.327 . S
C957 C973 1.429 . S
C957 H979 0.950 . S
C958 H954 0.949 . S
C958 C966 1.574 . S
C958 C974 1.368 . S
H959 C967 0.950 . S
H960 C965 0.950 . S
H961 C966 0.949 . S
H962 C968 0.950 . S
H963 C969 0.950 . S
H964 C970 0.949 . S
C965 H960 0.950 . S
C965 C967 1.327 . S
C965 C971 1.429 . S
C966 C958 1.574 . S
C966 H961 0.949 . S
C966 C972 1.368 . S
C967 C951 1.349 . S
C967 H959 0.950 . S
C967 C965 1.327 . S
C968 C956 1.349 . S
C968 H962 0.950 . S
C968 C969 1.327 . S
C969 H963 0.950 . S
C969 C968 1.327 . S
C969 C973 1.429 . S
C970 C953 1.574 . S
C970 H964 0.949 . S
C970 C974 1.368 . S
C971 C952 1.429 . S
C971 C965 1.429 . S
C971 C972 1.523 . S
C972 C953 1.368 . S
C972 C966 1.368 . S
C972 C971 1.523 . S
C973 C957 1.429 . S
C973 C969 1.429 . S
C973 C974 1.523 . S
C974 C958 1.368 . S
C974 C970 1.368 . S
C974 C973 1.523 . S
H975 C950 0.950 . S
H976 C952 0.950 . S
H977 C953 0.949 . S
H978 C955 0.950 . S
H979 C957 0.950 . S
C980 C981 1.349 . S
C980 C982 1.327 . S
C980 H1005 0.950 . S
C981 C980 1.349 . S
C981 C997 1.349 . S
C982 C980 1.327 . S
C982 C1001 1.429 . S
C982 H1006 0.950 . S
C983 C1000 1.574 . S
C983 C1002 1.368 . S
C983 H1007 0.949 . S
H984 C988 0.949 . S
C985 C986 1.349 . S
C985 C987 1.327 . S
C985 H1008 0.950 . S
C986 C985 1.349 . S
C986 C998 1.349 . S
C987 C985 1.327 . S
C987 C1003 1.429 . S
C987 H1009 0.950 . S
C988 H984 0.949 . S
C988 C996 1.574 . S
C988 C1004 1.368 . S
H989 C997 0.950 . S
H990 C995 0.950 . S
H991 C996 0.949 . S
H992 C998 0.950 . S
H993 C999 0.950 . S
H994 C1000 0.949 . S
C995 H990 0.950 . S
C995 C997 1.327 . S
C995 C1001 1.429 . S
C996 C988 1.574 . S
C996 H991 0.949 . S
C996 C1002 1.368 . S
C997 C981 1.349 . S
C997 H989 0.950 . S
C997 C995 1.327 . S
C998 C986 1.349 . S
C998 H992 0.950 . S
C998 C999 1.327 . S
C999 H993 0.950 . S
C999 C998 1.327 . S
C999 C1003 1.429 . S
C1000 C983 1.574 . S
C1000 H994 0.949 . S
C1000 C1004 1.368 . S
C1001 C982 1.429 . S
C1001 C995 1.429 . S
C1001 C1002 1.523 . S
C1002 C983 1.368 . S
C1002 C996 1.368 . S
C1002 C1001 1.523 . S
C1003 C987 1.429 . S
C1003 C999 1.429 . S
C1003 C1004 1.523 . S
C1004 C988 1.368 . S
C1004 C1000 1.368 . S
C1004 C1003 1.523 . S
H1005 C980 0.950 . S
H1006 C982 0.950 . S
H1007 C983 0.949 . S
H1008 C985 0.950 . S
H1009 C987 0.950 . S
C1010 C1011 1.349 . S
C1010 C1012 1.327 . S
C1010 H1035 0.950 . S
C1011 C1010 1.349 . S
C1011 C1027 1.349 . S
C1012 C1010 1.327 . S
C1012 C1031 1.429 . S
C1012 H1036 0.950 . S
C1013 C1030 1.574 . S
C1013 C1032 1.368 . S
C1013 H1037 0.949 . S
H1014 C1018 0.949 . S
C1015 C1016 1.349 . S
C1015 C1017 1.327 . S
C1015 H1038 0.950 . S
C1016 C1015 1.349 . S
C1016 C1028 1.349 . S
C1017 C1015 1.327 . S
C1017 C1033 1.429 . S
C1017 H1039 0.950 . S
C1018 H1014 0.949 . S
C1018 C1026 1.574 . S
C1018 C1034 1.368 . S
H1019 C1027 0.950 . S
H1020 C1025 0.950 . S
H1021 C1026 0.949 . S
H1022 C1028 0.950 . S
H1023 C1029 0.950 . S
H1024 C1030 0.949 . S
C1025 H1020 0.950 . S
C1025 C1027 1.327 . S
C1025 C1031 1.429 . S
C1026 C1018 1.574 . S
C1026 H1021 0.949 . S
C1026 C1032 1.368 . S
C1027 C1011 1.349 . S
C1027 H1019 0.950 . S
C1027 C1025 1.327 . S
C1028 C1016 1.349 . S
C1028 H1022 0.950 . S
C1028 C1029 1.327 . S
C1029 H1023 0.950 . S
C1029 C1028 1.327 . S
C1029 C1033 1.429 . S
C1030 C1013 1.574 . S
C1030 H1024 0.949 . S
C1030 C1034 1.368 . S
C1031 C1012 1.429 . S
C1031 C1025 1.429 . S
C1031 C1032 1.523 . S
C1032 C1013 1.368 . S
C1032 C1026 1.368 . S
C1032 C1031 1.523 . S
C1033 C1017 1.429 . S
C1033 C1029 1.429 . S
C1033 C1034 1.523 . S
C1034 C1018 1.368 . S
C1034 C1030 1.368 . S
C1034 C1033 1.523 . S
H1035 C1010 0.950 . S
H1036 C1012 0.950 . S
H1037 C1013 0.949 . S
H1038 C1015 0.950 . S
H1039 C1017 0.950 . S
C321 C11 2.378 . S
C326 C2 2.378 . S
C351 C51 2.378 . S
C356 C42 2.378 . S
C381 C91 2.378 . S
C386 C82 2.378 . S
C411 C131 2.378 . S
C416 C122 2.378 . S
C441 C171 2.378 . S
C446 C162 2.378 . S
C471 C202 2.378 . S
C476 C211 2.378 . S
C501 C251 2.378 . S
C506 C242 2.378 . S
C531 C282 2.378 . S
C536 C291 2.378 . S
C561 C56 2.498 . S
C566 C7 2.498 . S
C591 C127 2.497 . S
C596 C96 2.497 . S
C621 C167 2.497 . S
C626 C216 2.497 . S
C651 C256 2.498 . S
C656 C287 2.498 . S
C681 C16 1.770 . S
C686 C207 1.770 . S
C711 C176 1.770 . S
C716 C47 1.770 . S
C741 C87 1.769 . S
C746 C296 1.769 . S
C771 C136 1.769 . S
C776 C247 1.769 . S
C801 C10 1.439 . S
C806 C130 1.439 . S
C831 C50 1.645 . S
C836 C90 1.645 . S
C861 C59 1.441 . S
C866 C99 1.441 . S
C891 C139 1.647 . S
C896 C19 1.647 . S
C921 C170 1.441 . S
C926 C290 1.441 . S
C951 C210 1.645 . S
C956 C250 1.645 . S
C981 C219 1.442 . S
C986 C259 1.442 . S
C1011 C299 1.646 . S
C1016 C179 1.646 . S
