# Generated by pormake.
# Topology uol, (4)-cn, num edge types: 1
# Building blocks:
#     Node 0, Type 0, BuildingBlock: KOZSID_clean_sbu_0, # of connection points: 4
#     Node 1, Type 0, BuildingBlock: KOZSID_clean_sbu_0, # of connection points: 4
#     Node 2, Type 0, BuildingBlock: KOZSID_clean_sbu_0, # of connection points: 4
#     Node 3, Type 0, BuildingBlock: KOZSID_clean_sbu_0, # of connection points: 4
#     Node 4, Type 0, BuildingBlock: KOZSID_clean_sbu_0, # of connection points: 4
#     Node 5, Type 0, BuildingBlock: KOZSID_clean_sbu_0, # of connection points: 4
#     Node 6, Type 0, BuildingBlock: KOZSID_clean_sbu_0, # of connection points: 4
#     Node 7, Type 0, BuildingBlock: KOZSID_clean_sbu_0, # of connection points: 4
#     Node 8, Type 0, BuildingBlock: KOZSID_clean_sbu_0, # of connection points: 4
#     Node 9, Type 0, BuildingBlock: KOZSID_clean_sbu_0, # of connection points: 4
#     Node 10, Type 0, BuildingBlock: KOZSID_clean_sbu_0, # of connection points: 4
#     Node 11, Type 0, BuildingBlock: KOZSID_clean_sbu_0, # of connection points: 4
#     Edge 12, Type (0, 0), BuildingBlock: ZUJKAS_clean_linker_0, # of connection points: 2
#     Edge 13, Type (0, 0), BuildingBlock: ZUJKAS_clean_linker_0, # of connection points: 2
#     Edge 14, Type (0, 0), BuildingBlock: ZUJKAS_clean_linker_0, # of connection points: 2
#     Edge 15, Type (0, 0), BuildingBlock: ZUJKAS_clean_linker_0, # of connection points: 2
#     Edge 16, Type (0, 0), BuildingBlock: ZUJKAS_clean_linker_0, # of connection points: 2
#     Edge 17, Type (0, 0), BuildingBlock: ZUJKAS_clean_linker_0, # of connection points: 2
#     Edge 18, Type (0, 0), BuildingBlock: ZUJKAS_clean_linker_0, # of connection points: 2
#     Edge 19, Type (0, 0), BuildingBlock: ZUJKAS_clean_linker_0, # of connection points: 2
#     Edge 20, Type (0, 0), BuildingBlock: ZUJKAS_clean_linker_0, # of connection points: 2
#     Edge 21, Type (0, 0), BuildingBlock: ZUJKAS_clean_linker_0, # of connection points: 2
#     Edge 22, Type (0, 0), BuildingBlock: ZUJKAS_clean_linker_0, # of connection points: 2
#     Edge 23, Type (0, 0), BuildingBlock: ZUJKAS_clean_linker_0, # of connection points: 2
#     Edge 24, Type (0, 0), BuildingBlock: ZUJKAS_clean_linker_0, # of connection points: 2
#     Edge 25, Type (0, 0), BuildingBlock: ZUJKAS_clean_linker_0, # of connection points: 2
#     Edge 26, Type (0, 0), BuildingBlock: ZUJKAS_clean_linker_0, # of connection points: 2
#     Edge 27, Type (0, 0), BuildingBlock: ZUJKAS_clean_linker_0, # of connection points: 2
#     Edge 28, Type (0, 0), BuildingBlock: ZUJKAS_clean_linker_0, # of connection points: 2
#     Edge 29, Type (0, 0), BuildingBlock: ZUJKAS_clean_linker_0, # of connection points: 2
#     Edge 30, Type (0, 0), BuildingBlock: ZUJKAS_clean_linker_0, # of connection points: 2
#     Edge 31, Type (0, 0), BuildingBlock: ZUJKAS_clean_linker_0, # of connection points: 2
#     Edge 32, Type (0, 0), BuildingBlock: ZUJKAS_clean_linker_0, # of connection points: 2
#     Edge 33, Type (0, 0), BuildingBlock: ZUJKAS_clean_linker_0, # of connection points: 2
#     Edge 34, Type (0, 0), BuildingBlock: ZUJKAS_clean_linker_0, # of connection points: 2
#     Edge 35, Type (0, 0), BuildingBlock: ZUJKAS_clean_linker_0, # of connection points: 2
# Relax obj value: 0.142
# Max RMSD: 0.325
# Mean RMSD: 0.313
data_MOF--net-uol--node1-KOZSID_clean_sbu_0--edge1-ZUJKAS_clean_linker_0
_symmetry_space_group_name_H-M    P1
_symmetry_Int_Tables_number       1
_symmetry_cell_setting            triclinic
loop_
_symmetry_equiv_pos_as_xyz
'x, y, z'
_cell_length_a     51.823911
_cell_length_b     54.631097
_cell_length_c     84.263667
_cell_angle_alpha  89.956455
_cell_angle_beta   89.999686
_cell_angle_gamma 118.34767
loop_
_atom_site_label
_atom_site_type_symbol
_atom_site_fract_x
_atom_site_fract_y
_atom_site_fract_z
_atom_type_partial_charge
C0 C 0.18176 0.34674 0.0921 0.0
C1 C 0.17457 0.33694 0.07668 0.0
C2 C 0.14548 0.32957 0.07468 0.0
C3 C 0.13665 0.33538 0.08892 0.0
N4 N 0.15842 0.34599 0.09966 0.0
Co5 Co 0.15555 0.35723 0.12159 0.0
N6 N 0.11244 0.33344 0.12179 0.0
C7 C 0.09525 0.32331 0.10889 0.0
C8 C 0.06608 0.30787 0.11262 0.0
C9 C 0.06484 0.3086 0.12886 0.0
C10 C 0.09345 0.32461 0.13415 0.0
N11 N 0.15253 0.36889 0.14348 0.0
C12 C 0.13007 0.35745 0.15401 0.0
C13 C 0.13693 0.37304 0.16785 0.0
C14 C 0.16454 0.39507 0.16577 0.0
C15 C 0.17302 0.3918 0.15081 0.0
N16 N 0.19872 0.38064 0.1212 0.0
C17 C 0.21459 0.40202 0.13095 0.0
C18 C 0.24424 0.4129 0.12839 0.0
C19 C 0.24696 0.39732 0.1163 0.0
C20 C 0.21873 0.37782 0.11208 0.0
N21 N 0.15082 0.38864 0.11337 0.0
C22 C 0.14915 0.43769 0.10457 0.0
C23 C 0.16923 0.43051 0.09759 0.0
C24 C 0.16959 0.40593 0.10205 0.0
C25 C 0.12916 0.41907 0.11561 0.0
C26 C 0.13034 0.3948 0.11981 0.0
N27 N 0.16116 0.32656 0.12996 0.0
C28 C 0.18897 0.31264 0.14715 0.0
C29 C 0.17887 0.28732 0.13912 0.0
C30 C 0.15804 0.28128 0.12701 0.0
C31 C 0.14936 0.30116 0.12267 0.0
C32 C 0.18 0.33182 0.14241 0.0
H33 H 0.13408 0.29649 0.11299 0.0
H34 H 0.1895 0.35152 0.14843 0.0
H35 H 0.18564 0.40129 0.09663 0.0
H36 H 0.1152 0.38149 0.12868 0.0
C37 C 0.10757 0.3257 0.09378 0.0
C38 C 0.21097 0.3574 0.09914 0.0
C39 C 0.10133 0.33336 0.15073 0.0
C40 C 0.2013 0.40687 0.14427 0.0
H41 H 0.18876 0.33503 0.0679 0.0
H42 H 0.13204 0.31968 0.06439 0.0
H43 H 0.04795 0.29687 0.10455 0.0
H44 H 0.04507 0.29891 0.13595 0.0
H45 H 0.12329 0.36907 0.17827 0.0
H46 H 0.17721 0.41105 0.17434 0.0
H47 H 0.26186 0.42909 0.13512 0.0
H48 H 0.26734 0.39984 0.11137 0.0
H49 H 0.18475 0.44385 0.08877 0.0
H50 H 0.11331 0.42363 0.12143 0.0
H51 H 0.20437 0.318 0.15688 0.0
H52 H 0.14944 0.2619 0.12051 0.0
C53 C 0.73475 0.15984 0.2918 0.0
C54 C 0.7255 0.1787 0.29665 0.0
C55 C 0.74672 0.19715 0.30654 0.0
C56 C 0.76768 0.18862 0.30716 0.0
N57 N 0.7611 0.1659 0.2983 0.0
Co58 Co 0.78598 0.14736 0.29577 0.0
N59 N 0.81013 0.16673 0.31476 0.0
C60 C 0.81045 0.18874 0.32216 0.0
C61 C 0.82913 0.19802 0.33485 0.0
C62 C 0.84191 0.18118 0.33539 0.0
C63 C 0.83027 0.16242 0.32289 0.0
N64 N 0.81106 0.1291 0.29303 0.0
C65 C 0.83218 0.12902 0.30256 0.0
C66 C 0.84505 0.11447 0.29556 0.0
C67 C 0.83215 0.10583 0.28101 0.0
C68 C 0.81205 0.11539 0.27994 0.0
N69 N 0.76122 0.12791 0.27696 0.0
C70 C 0.76809 0.11469 0.26559 0.0
C71 C 0.74693 0.10318 0.25408 0.0
C72 C 0.7254 0.10971 0.25838 0.0
C73 C 0.7347 0.12494 0.27232 0.0
N74 N 0.81362 0.17784 0.28188 0.0
C75 C 0.85565 0.20975 0.25881 0.0
C76 C 0.82564 0.20053 0.25619 0.0
C77 C 0.80495 0.18477 0.26796 0.0
C78 C 0.86408 0.20504 0.27375 0.0
C79 C 0.84301 0.18925 0.28496 0.0
N80 N 0.75958 0.11637 0.30954 0.0
C81 C 0.73906 0.06752 0.31559 0.0
C82 C 0.73412 0.0721 0.3314 0.0
C83 C 0.73997 0.09914 0.33564 0.0
C84 C 0.75251 0.12092 0.32451 0.0
C85 C 0.75166 0.08973 0.30494 0.0
H86 H 0.75782 0.14163 0.32828 0.0
H87 H 0.75638 0.08536 0.29318 0.0
H88 H 0.78198 0.17702 0.26543 0.0
H89 H 0.85104 0.18497 0.29572 0.0
C90 C 0.79107 0.19853 0.31776 0.0
C91 C 0.71868 0.13761 0.28029 0.0
C92 C 0.84312 0.14503 0.31733 0.0
C93 C 0.79224 0.11005 0.26747 0.0
H94 H 0.70555 0.17915 0.29335 0.0
H95 H 0.74636 0.21412 0.31299 0.0
H96 H 0.83302 0.215 0.34279 0.0
H97 H 0.85888 0.18348 0.34363 0.0
H98 H 0.86258 0.11119 0.3003 0.0
H99 H 0.8368 0.09392 0.27229 0.0
H100 H 0.74667 0.09072 0.24404 0.0
H101 H 0.70524 0.10398 0.25198 0.0
H102 H 0.81807 0.20416 0.2449 0.0
H103 H 0.887 0.21254 0.27661 0.0
H104 H 0.73403 0.04694 0.31151 0.0
H105 H 0.73627 0.10378 0.34765 0.0
C106 C 0.66623 0.82019 0.43019 0.0
C107 C 0.67832 0.82262 0.41521 0.0
C108 C 0.68805 0.80321 0.41442 0.0
C109 C 0.68128 0.79001 0.4289 0.0
N110 N 0.66789 0.79995 0.43864 0.0
Co111 Co 0.65474 0.78743 0.46056 0.0
N112 N 0.682 0.77173 0.46264 0.0
C113 C 0.69434 0.76492 0.45055 0.0
C114 C 0.71194 0.75401 0.45562 0.0
C115 C 0.71034 0.75378 0.47189 0.0
C116 C 0.69177 0.76461 0.47585 0.0
N117 N 0.64143 0.77469 0.4825 0.0
C118 C 0.65437 0.76706 0.49407 0.0
C119 C 0.63721 0.75911 0.50767 0.0
C120 C 0.61262 0.76167 0.50434 0.0
C121 C 0.61607 0.77102 0.48894 0.0
N122 N 0.62769 0.80336 0.45828 0.0
C123 C 0.60386 0.79699 0.46723 0.0
C124 C 0.59058 0.81281 0.46336 0.0
C125 C 0.60715 0.83005 0.45125 0.0
C126 C 0.62963 0.82369 0.44832 0.0
N127 N 0.62407 0.75147 0.45255 0.0
C128 C 0.57584 0.70051 0.44374 0.0
C129 C 0.58237 0.7252 0.43556 0.0
C130 C 0.6065 0.75039 0.44014 0.0
C131 C 0.59481 0.70187 0.45598 0.0
C132 C 0.61872 0.72735 0.46012 0.0
N133 N 0.68475 0.82318 0.46875 0.0
C134 C 0.69704 0.86253 0.48575 0.0
C135 C 0.72562 0.87605 0.47969 0.0
C136 C 0.73341 0.86228 0.46809 0.0
C137 C 0.71268 0.83577 0.46284 0.0
C138 C 0.67712 0.83629 0.48018 0.0
H139 H 0.71907 0.82559 0.45388 0.0
H140 H 0.65524 0.82687 0.48494 0.0
H141 H 0.61045 0.76913 0.43393 0.0
H142 H 0.63245 0.72756 0.46978 0.0
C143 C 0.69249 0.77304 0.43496 0.0
C144 C 0.65211 0.83632 0.43585 0.0
C145 C 0.68172 0.7654 0.49206 0.0
C146 C 0.59896 0.78107 0.48113 0.0
H147 H 0.68007 0.837 0.4059 0.0
H148 H 0.70004 0.8002 0.40477 0.0
H149 H 0.72509 0.74777 0.4484 0.0
H150 H 0.72124 0.74615 0.47989 0.0
H151 H 0.6419 0.75207 0.51878 0.0
H152 H 0.59491 0.75812 0.5124 0.0
H153 H 0.57216 0.81306 0.46927 0.0
H154 H 0.6033 0.84571 0.44548 0.0
H155 H 0.5684 0.72531 0.42604 0.0
H156 H 0.59117 0.68336 0.46244 0.0
H157 H 0.68971 0.87243 0.49447 0.0
H158 H 0.75531 0.87184 0.46313 0.0
C159 C 0.86796 0.689 0.59263 0.0
C160 C 0.87585 0.6991 0.5773 0.0
C161 C 0.90495 0.70623 0.57563 0.0
C162 C 0.91309 0.69999 0.58997 0.0
N163 N 0.89088 0.68935 0.60045 0.0
Co164 Co 0.89271 0.67775 0.62245 0.0
N165 N 0.93584 0.70125 0.62313 0.0
C166 C 0.95358 0.71125 0.61041 0.0
C167 C 0.98263 0.72631 0.61446 0.0
C168 C 0.9832 0.72548 0.63071 0.0
C169 C 0.95433 0.70983 0.6357 0.0
N170 N 0.89464 0.66593 0.64447 0.0
C171 C 0.91667 0.67717 0.65525 0.0
C172 C 0.90906 0.66156 0.66911 0.0
C173 C 0.88146 0.63968 0.66676 0.0
C174 C 0.87372 0.64308 0.65164 0.0
N175 N 0.84957 0.65445 0.62151 0.0
C176 C 0.8332 0.63293 0.63109 0.0
C177 C 0.80369 0.62215 0.62814 0.0
C178 C 0.80158 0.63795 0.61597 0.0
C179 C 0.83002 0.65747 0.6121 0.0
N180 N 0.89757 0.64629 0.61446 0.0
C181 C 0.89929 0.59721 0.60585 0.0
C182 C 0.88031 0.6051 0.59819 0.0
C183 C 0.87979 0.62961 0.60265 0.0
C184 C 0.91823 0.61518 0.61746 0.0
C185 C 0.91715 0.63953 0.6215 0.0
N186 N 0.88707 0.70851 0.63057 0.0
C187 C 0.85813 0.72268 0.64668 0.0
C188 C 0.87086 0.74873 0.63938 0.0
C189 C 0.89299 0.75491 0.6281 0.0
C190 C 0.90078 0.73441 0.62383 0.0
C191 C 0.86671 0.70305 0.64225 0.0
H192 H 0.91709 0.73911 0.6147 0.0
H193 H 0.85582 0.68297 0.64785 0.0
H194 H 0.86432 0.63462 0.59685 0.0
H195 H 0.93171 0.65251 0.63066 0.0
C196 C 0.94192 0.70923 0.59515 0.0
C197 C 0.83843 0.67824 0.59929 0.0
C198 C 0.9457 0.7011 0.65222 0.0
C199 C 0.8458 0.62802 0.64471 0.0
H200 H 0.8621 0.7013 0.56835 0.0
H201 H 0.91883 0.7162 0.5655 0.0
H202 H 1.00113 0.73715 0.60658 0.0
H203 H 1.00269 0.73482 0.63802 0.0
H204 H 0.92221 0.6654 0.67971 0.0
H205 H 0.86834 0.62369 0.67524 0.0
H206 H 0.78575 0.60594 0.6347 0.0
H207 H 0.78144 0.6356 0.61079 0.0
H208 H 0.86517 0.59197 0.58918 0.0
H209 H 0.93377 0.61041 0.62349 0.0
H210 H 0.84111 0.71728 0.65554 0.0
H211 H 0.90336 0.77498 0.62226 0.0
C212 C 0.31276 0.87492 0.79251 0.0
C213 C 0.32184 0.85594 0.79737 0.0
C214 C 0.30048 0.83746 0.80722 0.0
C215 C 0.2796 0.84609 0.80778 0.0
N216 N 0.28636 0.8689 0.79895 0.0
Co217 Co 0.26163 0.88758 0.79636 0.0
N218 N 0.23732 0.86819 0.81531 0.0
C219 C 0.23678 0.84605 0.82269 0.0
C220 C 0.21797 0.83677 0.83535 0.0
C221 C 0.20535 0.85375 0.83587 0.0
C222 C 0.21722 0.87259 0.82341 0.0
N223 N 0.23671 0.906 0.79356 0.0
C224 C 0.21562 0.90617 0.80307 0.0
C225 C 0.20282 0.92075 0.79602 0.0
C226 C 0.21577 0.92933 0.78146 0.0
C227 C 0.23581 0.9197 0.78044 0.0
N228 N 0.28653 0.90699 0.77756 0.0
C229 C 0.27977 0.92027 0.76617 0.0
C230 C 0.30106 0.93183 0.75471 0.0
C231 C 0.32253 0.92528 0.75909 0.0
C232 C 0.31307 0.90994 0.77299 0.0
N233 N 0.23399 0.85719 0.78246 0.0
C234 C 0.19215 0.82538 0.75935 0.0
C235 C 0.22213 0.83427 0.75687 0.0
C236 C 0.24274 0.85003 0.76865 0.0
C237 C 0.1836 0.8304 0.77416 0.0
C238 C 0.20458 0.84609 0.78542 0.0
N239 N 0.28805 0.91848 0.81013 0.0
C240 C 0.30895 0.96737 0.81611 0.0
C241 C 0.31382 0.96275 0.83193 0.0
C242 C 0.30768 0.93564 0.83622 0.0
C243 C 0.29498 0.91386 0.82513 0.0
C244 C 0.29618 0.94516 0.8055 0.0
H245 H 0.28948 0.89311 0.82893 0.0
H246 H 0.29154 0.94957 0.79373 0.0
H247 H 0.26572 0.8576 0.76622 0.0
H248 H 0.19652 0.85058 0.7961 0.0
C249 C 0.25609 0.83617 0.81833 0.0
C250 C 0.329 0.89721 0.78103 0.0
C251 C 0.20471 0.89029 0.8179 0.0
C252 C 0.25567 0.92499 0.76799 0.0
H253 H 0.34177 0.85542 0.79411 0.0
H254 H 0.3007 0.82041 0.81365 0.0
H255 H 0.2139 0.8197 0.84326 0.0
H256 H 0.18835 0.85154 0.84408 0.0
H257 H 0.18533 0.92412 0.80073 0.0
H258 H 0.21119 0.94127 0.77271 0.0
H259 H 0.30144 0.94438 0.74468 0.0
H260 H 0.34278 0.93108 0.75275 0.0
H261 H 0.22974 0.8304 0.74565 0.0
H262 H 0.16068 0.82323 0.77686 0.0
H263 H 0.31422 0.988 0.81199 0.0
H264 H 0.31129 0.93096 0.84825 0.0
C265 C 0.38226 0.21418 0.93037 0.0
C266 C 0.36986 0.21133 0.91544 0.0
C267 C 0.35978 0.23046 0.91457 0.0
C268 C 0.36667 0.24394 0.92896 0.0
N269 N 0.38045 0.23444 0.93871 0.0
Co270 Co 0.39391 0.24747 0.96051 0.0
N271 N 0.36629 0.26276 0.96259 0.0
C272 C 0.35353 0.2691 0.9505 0.0
C273 C 0.33577 0.27984 0.95556 0.0
C274 C 0.33772 0.28047 0.97182 0.0
C275 C 0.35664 0.27003 0.97579 0.0
N276 N 0.40758 0.26079 0.98232 0.0
C277 C 0.39474 0.26855 0.99387 0.0
C278 C 0.41217 0.27695 0.00736 0.0
C279 C 0.43685 0.27456 1.00396 0.0
C280 C 0.43316 0.26485 0.98864 0.0
N281 N 0.42129 0.2319 0.95824 0.0
C282 C 0.44533 0.23867 0.96708 0.0
C283 C 0.45882 0.22301 0.96326 0.0
C284 C 0.44215 0.20543 0.95131 0.0
C285 C 0.41941 0.21145 0.94841 0.0
N286 N 0.42415 0.2834 0.95217 0.0
C287 C 0.4718 0.3344 0.94278 0.0
C288 C 0.46588 0.30943 0.93515 0.0
C289 C 0.44193 0.28428 0.93992 0.0
C290 C 0.4526 0.33324 0.95485 0.0
C291 C 0.42906 0.3077 0.95934 0.0
N292 N 0.36439 0.21171 0.96899 0.0
C293 C 0.35359 0.17199 0.98541 0.0
C294 C 0.32528 0.15775 0.97912 0.0
C295 C 0.31642 0.17162 0.96814 0.0
C296 C 0.33638 0.19864 0.9632 0.0
C297 C 0.37265 0.19881 0.98027 0.0
H298 H 0.32948 0.20869 0.9544 0.0
H299 H 0.39445 0.20879 0.98513 0.0
H300 H 0.43822 0.26542 0.93395 0.0
H301 H 0.41534 0.3076 0.96898 0.0
C302 C 0.35522 0.26075 0.93495 0.0
C303 C 0.39675 0.19841 0.93608 0.0
C304 C 0.36717 0.26985 0.99196 0.0
C305 C 0.45032 0.25486 0.98084 0.0
H306 H 0.36813 0.19684 0.90622 0.0
H307 H 0.34749 0.23311 0.90495 0.0
H308 H 0.32232 0.28574 0.94835 0.0
H309 H 0.32685 0.28814 0.97981 0.0
H310 H 0.40762 0.28415 0.01844 0.0
H311 H 0.45477 0.27846 0.01193 0.0
H312 H 0.47745 0.22309 0.96911 0.0
H313 H 0.4461 0.18979 0.94562 0.0
H314 H 0.4797 0.30924 0.92556 0.0
H315 H 0.45625 0.35182 0.96122 0.0
H316 H 0.36117 0.16234 0.99418 0.0
H317 H 0.29465 0.16137 0.96302 0.0
C318 C 0.5928 0.87566 0.72237 0.0
C319 C 0.56469 0.85703 0.71736 0.0
C320 C 0.56739 0.83854 0.70749 0.0
C321 C 0.59685 0.84681 0.70704 0.0
N322 N 0.61304 0.86942 0.71597 0.0
Co323 Co 0.65642 0.8875 0.71877 0.0
N324 N 0.66125 0.86799 0.69986 0.0
C325 C 0.6395 0.84613 0.69238 0.0
C326 C 0.64895 0.83662 0.67981 0.0
C327 C 0.67864 0.85313 0.67945 0.0
C328 C 0.68577 0.87196 0.69191 0.0
N329 N 0.6997 0.90529 0.72177 0.0
C330 C 0.72096 0.90518 0.71237 0.0
C331 C 0.7483 0.91955 0.71949 0.0
C332 C 0.7439 0.92824 0.734 0.0
C333 C 0.71426 0.9189 0.73491 0.0
N334 N 0.65106 0.90708 0.7375 0.0
C335 C 0.67103 0.92014 0.74895 0.0
C336 C 0.66138 0.93177 0.76039 0.0
C337 C 0.63346 0.9255 0.75595 0.0
C338 C 0.62758 0.91028 0.74202 0.0
N339 N 0.65275 0.85676 0.73269 0.0
C340 C 0.65882 0.82145 0.75513 0.0
C341 C 0.63969 0.83256 0.7579 0.0
C342 C 0.63653 0.84973 0.74639 0.0
C343 C 0.67345 0.82726 0.74058 0.0
C344 C 0.67024 0.8448 0.72971 0.0
N345 N 0.66172 0.91867 0.70496 0.0
C346 C 0.69033 0.96754 0.69901 0.0
C347 C 0.68074 0.96312 0.6832 0.0
C348 C 0.65951 0.93612 0.6789 0.0
C349 C 0.65017 0.91425 0.68997 0.0
C350 C 0.68061 0.94524 0.7096 0.0
H351 H 0.63468 0.8936 0.68616 0.0
H352 H 0.68966 0.9495 0.72138 0.0
H353 H 0.62187 0.85812 0.74889 0.0
H354 H 0.6835 0.84967 0.71927 0.0
C355 C 0.6103 0.83667 0.69658 0.0
C356 C 0.59897 0.89779 0.73395 0.0
C357 C 0.71598 0.88919 0.69758 0.0
C358 C 0.69973 0.92446 0.74726 0.0
H359 H 0.54432 0.85674 0.72056 0.0
H360 H 0.55005 0.82168 0.70097 0.0
H361 H 0.63584 0.81969 0.67185 0.0
H362 H 0.69333 0.85058 0.67134 0.0
H363 H 0.76914 0.92271 0.71486 0.0
H364 H 0.76038 0.94008 0.74278 0.0
H365 H 0.67351 0.94413 0.77048 0.0
H366 H 0.61907 0.93138 0.76227 0.0
H367 H 0.62756 0.82831 0.76893 0.0
H368 H 0.68872 0.81953 0.73787 0.0
H369 H 0.70591 0.98808 0.70314 0.0
H370 H 0.65114 0.93158 0.66689 0.0
C371 C 0.85286 0.68965 0.92123 0.0
C372 C 0.85528 0.69968 0.93658 0.0
C373 C 0.83324 0.70666 0.93843 0.0
C374 C 0.81863 0.70042 0.92417 0.0
N375 N 0.83013 0.68994 0.91356 0.0
Co376 Co 0.81618 0.67823 0.89165 0.0
N377 N 0.7964 0.70158 0.89119 0.0
C378 C 0.78878 0.71143 0.90401 0.0
C379 C 0.77443 0.72622 0.90014 0.0
C380 C 0.77266 0.72537 0.88389 0.0
C381 C 0.78614 0.71006 0.87872 0.0
N382 N 0.80169 0.66615 0.86977 0.0
C383 C 0.79071 0.67736 0.85907 0.0
C384 C 0.78285 0.6619 0.84516 0.0
C385 C 0.78865 0.64007 0.84744 0.0
C386 C 0.79982 0.64339 0.86254 0.0
N387 N 0.83634 0.65521 0.89232 0.0
C388 C 0.83112 0.63373 0.88272 0.0
C389 C 0.85001 0.62308 0.88551 0.0
C390 C 0.86809 0.63892 0.89761 0.0
C391 C 0.85913 0.65834 0.90158 0.0
N392 N 0.78017 0.64668 0.89993 0.0
C393 C 0.72962 0.59762 0.90896 0.0
C394 C 0.75693 0.60514 0.916 0.0
C395 C 0.78178 0.62972 0.91142 0.0
C396 C 0.72813 0.61588 0.89772 0.0
C397 C 0.75349 0.64015 0.8934 0.0
N398 N 0.85227 0.70907 0.88322 0.0
C399 C 0.89374 0.72386 0.86571 0.0
C400 C 0.9078 0.74998 0.87301 0.0
C401 C 0.89296 0.75544 0.88533 0.0
C402 C 0.86508 0.73478 0.89016 0.0
C403 C 0.86623 0.7039 0.87093 0.0
H404 H 0.85422 0.73929 0.89977 0.0
H405 H 0.85678 0.68382 0.86534 0.0
H406 H 0.80249 0.63464 0.9169 0.0
H407 H 0.75158 0.65318 0.88438 0.0
C408 C 0.79877 0.70946 0.91918 0.0
C409 C 0.87159 0.679 0.91441 0.0
C410 C 0.78573 0.70136 0.86218 0.0
C411 C 0.81317 0.62861 0.86929 0.0
H412 H 0.87139 0.70192 0.94543 0.0
H413 H 0.82941 0.71651 0.94864 0.0
H414 H 0.76667 0.73682 0.90812 0.0
H415 H 0.76202 0.7344 0.87672 0.0
H416 H 0.77375 0.66585 0.83451 0.0
H417 H 0.786 0.62427 0.83889 0.0
H418 H 0.85166 0.60688 0.87893 0.0
H419 H 0.88598 0.63663 0.90271 0.0
H420 H 0.75919 0.59207 0.92496 0.0
H421 H 0.70768 0.61104 0.89183 0.0
H422 H 0.90435 0.71834 0.85635 0.0
H423 H 0.9028 0.77543 0.89123 0.0
C424 C 0.18344 0.8206 0.08471 0.0
C425 C 0.17352 0.82347 0.09953 0.0
C426 C 0.14435 0.80411 0.10027 0.0
C427 C 0.13811 0.79061 0.08591 0.0
N428 N 0.16156 0.80032 0.07626 0.0
Co429 Co 0.16232 0.78766 0.05437 0.0
N430 N 0.11933 0.77182 0.05221 0.0
C431 C 0.10009 0.76524 0.06426 0.0
C432 C 0.07161 0.75435 0.05912 0.0
C433 C 0.07309 0.75388 0.04287 0.0
C434 C 0.10252 0.76451 0.03898 0.0
N435 N 0.16306 0.77471 0.03252 0.0
C436 C 0.14253 0.76689 0.02092 0.0
C437 C 0.15177 0.75868 0.00744 0.0
C438 C 0.17895 0.76136 0.01087 0.0
C439 C 0.18481 0.77099 0.02621 0.0
N440 N 0.2053 0.80378 0.05666 0.0
C441 C 0.22287 0.7973 0.04789 0.0
C442 C 0.25192 0.81295 0.05198 0.0
C443 C 0.25242 0.8302 0.06403 0.0
C444 C 0.22358 0.82414 0.06659 0.0
N445 N 0.15713 0.75183 0.06258 0.0
C446 C 0.15415 0.70095 0.07184 0.0
C447 C 0.17306 0.72593 0.07953 0.0
C448 C 0.17407 0.75101 0.07481 0.0
C449 C 0.13611 0.70205 0.05976 0.0
C450 C 0.13793 0.72752 0.05533 0.0
N451 N 0.16802 0.82329 0.04599 0.0
C452 C 0.19526 0.86257 0.02894 0.0
C453 C 0.18029 0.87619 0.03494 0.0
C454 C 0.15863 0.86248 0.04652 0.0
C455 C 0.15272 0.83595 0.05183 0.0
C456 C 0.1888 0.83632 0.03455 0.0
H457 H 0.13611 0.82583 0.06079 0.0
H458 H 0.20124 0.82685 0.02984 0.0
H459 H 0.18909 0.76988 0.08084 0.0
H460 H 0.1243 0.72756 0.04568 0.0
C461 C 0.10997 0.77363 0.07982 0.0
C462 C 0.21373 0.83668 0.07903 0.0
C463 C 0.11347 0.76513 0.02281 0.0
C464 C 0.21196 0.78116 0.03407 0.0
H465 H 0.18586 0.83818 0.10874 0.0
H466 H 0.12918 0.80141 0.10978 0.0
H467 H 0.05218 0.74833 0.06629 0.0
H468 H 0.05461 0.74627 0.03483 0.0
H469 H 0.14003 0.75136 0.99637 0.0
H470 H 0.19313 0.75766 1.00291 0.0
H471 H 0.27067 0.81292 0.04633 0.0
H472 H 0.27168 0.84553 0.07015 0.0
H473 H 0.18708 0.72616 0.08912 0.0
H474 H 0.1213 0.68347 0.05334 0.0
H475 H 0.21256 0.87242 0.02023 0.0
H476 H 0.14633 0.87209 0.05143 0.0
C477 C 0.45556 0.16063 0.22159 0.0
C478 C 0.48368 0.17993 0.21696 0.0
C479 C 0.48081 0.19855 0.20724 0.0
C480 C 0.45124 0.1897 0.20652 0.0
N481 N 0.43517 0.16661 0.21513 0.0
Co482 Co 0.39169 0.14751 0.21746 0.0
N483 N 0.38695 0.16718 0.1986 0.0
C484 C 0.40856 0.18958 0.19141 0.0
C485 C 0.39914 0.19885 0.1787 0.0
C486 C 0.36959 0.18157 0.17795 0.0
C487 C 0.36256 0.16261 0.19035 0.0
N488 N 0.34827 0.1287 0.22 0.0
C489 C 0.32711 0.12862 0.21044 0.0
C490 C 0.29963 0.11395 0.21737 0.0
C491 C 0.30379 0.10509 0.23189 0.0
C492 C 0.33346 0.11472 0.23301 0.0
N493 N 0.39698 0.12779 0.23614 0.0
C494 C 0.37674 0.1141 0.24739 0.0
C495 C 0.38638 0.10239 0.25879 0.0
C496 C 0.41456 0.10926 0.25454 0.0
C497 C 0.42061 0.12493 0.24075 0.0
N498 N 0.39389 0.17746 0.23154 0.0
C499 C 0.3836 0.20914 0.25463 0.0
C500 C 0.40459 0.20016 0.25719 0.0
C501 C 0.40958 0.18448 0.24542 0.0
C502 C 0.3702 0.20419 0.23976 0.0
C503 C 0.37559 0.18854 0.22853 0.0
N504 N 0.38784 0.11708 0.20349 0.0
C505 C 0.36104 0.06823 0.19709 0.0
C506 C 0.37158 0.07339 0.18146 0.0
C507 C 0.39192 0.10085 0.17742 0.0
C508 C 0.40002 0.1223 0.18864 0.0
C509 C 0.3694 0.09019 0.20782 0.0
H510 H 0.41518 0.14322 0.18507 0.0
H511 H 0.35962 0.0854 0.21943 0.0
H512 H 0.42497 0.17691 0.2479 0.0
H513 H 0.36321 0.18414 0.21779 0.0
C514 C 0.43772 0.19966 0.19596 0.0
C515 C 0.44942 0.13805 0.23287 0.0
C516 C 0.33228 0.14463 0.19565 0.0
C517 C 0.34788 0.10925 0.24547 0.0
H518 H 0.50415 0.18054 0.22028 0.0
H519 H 0.49814 0.21585 0.20098 0.0
H520 H 0.41218 0.21608 0.17088 0.0
H521 H 0.35479 0.18359 0.16965 0.0
H522 H 0.27884 0.11068 0.2126 0.0
H523 H 0.28715 0.09299 0.24055 0.0
H524 H 0.37408 0.08954 0.26871 0.0
H525 H 0.42899 0.10345 0.26088 0.0
H526 H 0.41595 0.20396 0.26845 0.0
H527 H 0.35459 0.21147 0.23696 0.0
H528 H 0.3452 0.04753 0.20085 0.0
H529 H 0.4012 0.10585 0.1656 0.0
C530 C 0.19548 0.34577 0.4214 0.0
C531 C 0.19298 0.33573 0.43676 0.0
C532 C 0.21482 0.32847 0.43861 0.0
C533 C 0.2294 0.33458 0.42433 0.0
N534 N 0.21809 0.34526 0.41373 0.0
Co535 Co 0.23206 0.35689 0.3918 0.0
N536 N 0.25154 0.33327 0.39135 0.0
C537 C 0.25885 0.32311 0.40415 0.0
C538 C 0.27268 0.30786 0.40025 0.0
C539 C 0.27444 0.30874 0.384 0.0
C540 C 0.26162 0.32464 0.37888 0.0
N541 N 0.24648 0.36883 0.36988 0.0
C542 C 0.25739 0.35753 0.35921 0.0
C543 C 0.26589 0.37324 0.34539 0.0
C544 C 0.2603 0.39522 0.34765 0.0
C545 C 0.24876 0.39178 0.36267 0.0
N546 N 0.21225 0.3802 0.39247 0.0
C547 C 0.21768 0.40174 0.38284 0.0
C548 C 0.19891 0.41254 0.38558 0.0
C549 C 0.18069 0.39674 0.39766 0.0
C550 C 0.18947 0.3772 0.4017 0.0
N551 N 0.26825 0.38827 0.4 0.0
C552 C 0.31893 0.43749 0.40859 0.0
C553 C 0.29194 0.42971 0.41609 0.0
C554 C 0.26696 0.40512 0.41165 0.0
C555 C 0.32011 0.41932 0.39721 0.0
C556 C 0.29473 0.39489 0.39318 0.0
N557 N 0.1958 0.32623 0.38341 0.0
C558 C 0.15455 0.31177 0.36581 0.0
C559 C 0.1403 0.28558 0.37304 0.0
C560 C 0.1549 0.27994 0.38543 0.0
C561 C 0.18278 0.30048 0.39034 0.0
C562 C 0.18203 0.33159 0.37111 0.0
H563 H 0.19348 0.29582 0.39997 0.0
H564 H 0.19161 0.35171 0.36554 0.0
H565 H 0.24637 0.4002 0.41729 0.0
H566 H 0.29647 0.38179 0.38415 0.0
C567 C 0.24895 0.32519 0.41933 0.0
C568 C 0.17687 0.35654 0.41455 0.0
C569 C 0.26214 0.33345 0.36234 0.0
C570 C 0.23566 0.40677 0.36942 0.0
H571 H 0.17692 0.33363 0.44562 0.0
H572 H 0.2185 0.31849 0.44881 0.0
H573 H 0.27999 0.29685 0.40822 0.0
H574 H 0.28454 0.29922 0.3768 0.0
H575 H 0.27543 0.36939 0.33489 0.0
H576 H 0.26348 0.41127 0.33915 0.0
H577 H 0.1974 0.42879 0.37896 0.0
H578 H 0.16282 0.39914 0.40269 0.0
H579 H 0.2898 0.443 0.42494 0.0
H580 H 0.34051 0.424 0.39132 0.0
H581 H 0.14411 0.31746 0.35643 0.0
H582 H 0.14487 0.2599 0.3913 0.0
C583 C 0.86374 0.21456 0.58409 0.0
C584 C 0.87362 0.21192 0.59897 0.0
C585 C 0.90288 0.23107 0.5996 0.0
C586 C 0.90915 0.24433 0.58514 0.0
N587 N 0.88562 0.23469 0.57557 0.0
Co588 Co 0.8847 0.24733 0.55371 0.0
N589 N 0.92757 0.26256 0.55133 0.0
C590 C 0.94696 0.26914 0.56329 0.0
C591 C 0.97535 0.27981 0.55804 0.0
C592 C 0.97365 0.28015 0.54179 0.0
C593 C 0.94419 0.26961 0.53802 0.0
N594 N 0.88384 0.26018 0.53183 0.0
C595 C 0.90416 0.26769 0.52013 0.0
C596 C 0.89481 0.2758 0.50665 0.0
C597 C 0.86784 0.27351 0.5102 0.0
C598 C 0.86218 0.26414 0.52561 0.0
N599 N 0.84181 0.2319 0.55631 0.0
C600 C 0.82437 0.23855 0.54755 0.0
C601 C 0.7953 0.223 0.5516 0.0
C602 C 0.79463 0.20563 0.56363 0.0
C603 C 0.82345 0.21164 0.56632 0.0
N604 N 0.89068 0.28345 0.56185 0.0
C605 C 0.89397 0.33456 0.57078 0.0
C606 C 0.87589 0.30993 0.57903 0.0
C607 C 0.87456 0.28468 0.57439 0.0
C608 C 0.91128 0.33307 0.55841 0.0
C609 C 0.90944 0.30751 0.55421 0.0
N610 N 0.87817 0.21139 0.54543 0.0
C611 C 0.84884 0.17143 0.5293 0.0
C612 C 0.86315 0.15735 0.53548 0.0
C613 C 0.88617 0.17139 0.54628 0.0
C614 C 0.89331 0.19846 0.55113 0.0
C615 C 0.85669 0.19829 0.53435 0.0
H616 H 0.9105 0.20867 0.55978 0.0
H617 H 0.84469 0.20815 0.52956 0.0
H618 H 0.85979 0.26598 0.58066 0.0
H619 H 0.9227 0.30718 0.54444 0.0
C620 C 0.93727 0.26105 0.57893 0.0
C621 C 0.83332 0.19873 0.57862 0.0
C622 C 0.93312 0.2691 0.5219 0.0
C623 C 0.83524 0.2544 0.53362 0.0
H624 H 0.86106 0.19757 0.60831 0.0
H625 H 0.91804 0.23386 0.60913 0.0
H626 H 0.99486 0.28585 0.56512 0.0
H627 H 0.99203 0.28769 0.53367 0.0
H628 H 0.90631 0.28278 0.49547 0.0
H629 H 0.85365 0.27728 0.50229 0.0
H630 H 0.77662 0.22299 0.54585 0.0
H631 H 0.77515 0.1901 0.56948 0.0
H632 H 0.86204 0.30991 0.58866 0.0
H633 H 0.92609 0.35154 0.55189 0.0
H634 H 0.83138 0.16164 0.52067 0.0
H635 H 0.89787 0.16126 0.55131 0.0
H636 H 0.10652 0.64875 0.07402 0.0
H637 H 0.10606 0.6047 0.07991 0.0
H638 H 0.20018 0.6478 0.08459 0.0
H639 H 0.20078 0.69195 0.07887 0.0
H640 H 0.12951 0.57746 0.0645 0.0
H641 H 0.17854 0.60282 0.12456 0.0
H642 H 0.16624 0.62445 0.11437 0.0
H643 H 0.20142 0.62709 0.1098 0.0
C644 C 0.12716 0.64892 0.07633 0.0
C645 C 0.15368 0.67407 0.07605 0.0
C646 C 0.12685 0.62364 0.07975 0.0
C647 C 0.15302 0.62278 0.083 0.0
C648 C 0.17956 0.64784 0.08261 0.0
H649 H 0.19694 0.4891 0.10002 0.0
H650 H 0.19756 0.53335 0.09435 0.0
C651 C 0.17988 0.67316 0.0793 0.0
C652 C 0.15253 0.5956 0.08623 0.0
H653 H 0.17406 0.56137 0.1128 0.0
C654 C 0.13911 0.57394 0.07512 0.0
C655 C 0.16505 0.59081 0.10008 0.0
C656 C 0.17836 0.61242 0.11296 0.0
C657 C 0.13829 0.54801 0.07733 0.0
C658 C 0.15097 0.54334 0.09111 0.0
C659 C 0.16443 0.56494 0.10221 0.0
C660 C 0.1504 0.51615 0.09426 0.0
C661 C 0.12437 0.52601 0.0647 0.0
C662 C 0.12369 0.49165 0.09622 0.0
C663 C 0.12324 0.46624 0.0994 0.0
C664 C 0.14952 0.46467 0.10074 0.0
C665 C 0.17625 0.48932 0.09881 0.0
C666 C 0.17666 0.51474 0.09569 0.0
H667 H 0.12226 0.53498 0.05324 0.0
H668 H 0.13732 0.5149 0.06272 0.0
H669 H 0.10206 0.51054 0.06862 0.0
H670 H 0.10312 0.49221 0.09544 0.0
H671 H 0.10224 0.44776 0.10073 0.0
H672 H 0.70644 0.15632 0.25255 0.0
H673 H 0.65982 0.15421 0.24446 0.0
H674 H 0.61888 0.10876 0.28714 0.0
H675 H 0.66554 0.11084 0.29518 0.0
H676 H 0.58334 0.08715 0.25945 0.0
H677 H 0.62549 0.20103 0.26505 0.0
H678 H 0.64691 0.19107 0.25246 0.0
H679 H 0.64446 0.18351 0.27333 0.0
C680 C 0.68732 0.14546 0.26004 0.0
C681 C 0.68948 0.13334 0.27437 0.0
C682 C 0.66074 0.14453 0.25551 0.0
C683 C 0.63572 0.13159 0.26525 0.0
C684 C 0.63773 0.11887 0.27939 0.0
H685 H 0.47932 0.15465 0.26105 0.0
H686 H 0.52349 0.1519 0.26914 0.0
C687 C 0.66436 0.11995 0.28396 0.0
C688 C 0.6077 0.13177 0.26088 0.0
H689 H 0.57788 0.17502 0.25421 0.0
C690 C 0.58218 0.10638 0.25831 0.0
C691 C 0.60587 0.15678 0.25958 0.0
C692 C 0.63202 0.18467 0.26287 0.0
C693 C 0.55524 0.10536 0.25421 0.0
C694 C 0.55358 0.13041 0.25252 0.0
C695 C 0.579 0.15577 0.25537 0.0
C696 C 0.52577 0.13081 0.24788 0.0
C697 C 0.5286 0.07737 0.25201 0.0
C698 C 0.5121 0.11994 0.23321 0.0
C699 C 0.48678 0.12142 0.22863 0.0
C700 C 0.47438 0.13365 0.23862 0.0
C701 C 0.48796 0.14449 0.25329 0.0
C702 C 0.51336 0.14312 0.25785 0.0
H703 H 0.5315 0.06045 0.25765 0.0
H704 H 0.50875 0.07724 0.25708 0.0
H705 H 0.52483 0.07279 0.23914 0.0
H706 H 0.52145 0.11093 0.2251 0.0
H707 H 0.47719 0.11352 0.21711 0.0
H708 H 0.55275 0.67916 0.41436 0.0
H709 H 0.50892 0.63507 0.40835 0.0
H710 H 0.49482 0.61673 0.45832 0.0
H711 H 0.53814 0.66083 0.46445 0.0
H712 H 0.49713 0.57962 0.4171 0.0
H713 H 0.41467 0.60618 0.44248 0.0
H714 H 0.45158 0.63227 0.4377 0.0
H715 H 0.44452 0.61189 0.45547 0.0
C716 C 0.54017 0.66589 0.42409 0.0
C717 C 0.5491 0.67367 0.4399 0.0
C718 C 0.51519 0.6406 0.42062 0.0
C719 C 0.49832 0.62267 0.43288 0.0
C720 C 0.50718 0.63033 0.44866 0.0
H721 H 0.33803 0.46307 0.4376 0.0
H722 H 0.38158 0.50742 0.44328 0.0
C723 C 0.53221 0.65549 0.45213 0.0
C724 C 0.47183 0.59569 0.42921 0.0
H725 H 0.39753 0.55947 0.4345 0.0
C726 C 0.47532 0.57525 0.42083 0.0
C727 C 0.44338 0.58986 0.43418 0.0
C728 C 0.43812 0.61124 0.44285 0.0
C729 C 0.4513 0.54901 0.41756 0.0
C730 C 0.42272 0.5432 0.42239 0.0
C731 C 0.4193 0.56374 0.43077 0.0
C732 C 0.39612 0.51608 0.41886 0.0
C733 C 0.45705 0.5275 0.40939 0.0
C734 C 0.38925 0.50619 0.40321 0.0
C735 C 0.36443 0.48074 0.39994 0.0
C736 C 0.34547 0.46463 0.41221 0.0
C737 C 0.352 0.47488 0.42784 0.0
C738 C 0.377 0.50026 0.43111 0.0
H739 H 0.4801 0.53182 0.41105 0.0
H740 H 0.44226 0.50626 0.41389 0.0
H741 H 0.45327 0.52796 0.39646 0.0
H742 H 0.40293 0.5183 0.39344 0.0
H743 H 0.35979 0.47393 0.38772 0.0
H744 H 0.90367 0.56049 0.62656 0.0
H745 H 0.90306 0.5164 0.62053 0.0
H746 H 0.8923 0.52782 0.57083 0.0
H747 H 0.89351 0.57228 0.5767 0.0
H748 H 0.8583 0.46844 0.60538 0.0
H749 H 0.96261 0.51201 0.57143 0.0
H750 H 0.95306 0.53313 0.58411 0.0
H751 H 0.93673 0.52295 0.5648 0.0
C752 C 0.90157 0.55387 0.6143 0.0
C753 C 0.89889 0.57021 0.60211 0.0
C754 C 0.901 0.52849 0.61089 0.0
C755 C 0.89802 0.51888 0.5952 0.0
C756 C 0.89509 0.53496 0.58301 0.0
H757 H 0.89581 0.37431 0.55018 0.0
H758 H 0.89614 0.41813 0.55641 0.0
C759 C 0.89551 0.5603 0.58641 0.0
C760 C 0.89751 0.49185 0.59168 0.0
H761 H 0.9341 0.46303 0.57187 0.0
C762 C 0.87492 0.46724 0.59809 0.0
C763 C 0.91911 0.49022 0.58212 0.0
C764 C 0.94442 0.51596 0.5753 0.0
C765 C 0.873 0.44108 0.59496 0.0
C766 C 0.89477 0.43943 0.5855 0.0
C767 C 0.91739 0.46412 0.57912 0.0
C768 C 0.89437 0.4124 0.58188 0.0
C769 C 0.8471 0.41543 0.60145 0.0
C770 C 0.89362 0.39446 0.59407 0.0
C771 C 0.89331 0.36921 0.59053 0.0
C772 C 0.89426 0.36145 0.57469 0.0
C773 C 0.89542 0.37966 0.56252 0.0
C774 C 0.89549 0.40475 0.56607 0.0
H775 H 0.82836 0.41933 0.6041 0.0
H776 H 0.83961 0.3978 0.59299 0.0
H777 H 0.85353 0.40923 0.6127 0.0
H778 H 0.89363 0.4001 0.60638 0.0
H779 H 0.89288 0.35599 0.60022 0.0
H780 H 0.56794 0.87915 0.76167 0.0
H781 H 0.5234 0.88125 0.76971 0.0
H782 H 0.52804 0.92662 0.72698 0.0
H783 H 0.57265 0.92455 0.719 0.0
H784 H 0.51394 0.94825 0.75447 0.0
H785 H 0.4423 0.8343 0.74922 0.0
H786 H 0.47362 0.84438 0.76189 0.0
H787 H 0.47884 0.85177 0.741 0.0
C788 C 0.5597 0.88999 0.75416 0.0
C789 C 0.57403 0.90209 0.73983 0.0
C790 C 0.53404 0.89092 0.75866 0.0
C791 C 0.52197 0.90382 0.74889 0.0
C792 C 0.53677 0.91653 0.73476 0.0
H793 H 0.34223 0.88016 0.75299 0.0
H794 H 0.38919 0.88294 0.74495 0.0
C795 C 0.56233 0.91546 0.73022 0.0
C796 C 0.49374 0.90362 0.75322 0.0
H797 H 0.42067 0.86032 0.75998 0.0
C798 C 0.49356 0.92901 0.75567 0.0
C799 C 0.46691 0.87859 0.75459 0.0
C800 C 0.46519 0.85069 0.75141 0.0
C801 C 0.46761 0.93001 0.75972 0.0
C802 C 0.44091 0.90494 0.76149 0.0
C803 C 0.44102 0.87958 0.75876 0.0
C804 C 0.41267 0.90452 0.76609 0.0
C805 C 0.46892 0.95799 0.76177 0.0
C806 C 0.40991 0.91564 0.78067 0.0
C807 C 0.38308 0.91415 0.78522 0.0
C808 C 0.35838 0.90164 0.77529 0.0
C809 C 0.36108 0.89054 0.76071 0.0
C810 C 0.38787 0.89193 0.75618 0.0
H811 H 0.48869 0.97486 0.75605 0.0
H812 H 0.44914 0.95799 0.75671 0.0
H813 H 0.46984 0.96278 0.77462 0.0
H814 H 0.42832 0.92488 0.78875 0.0
H815 H 0.38143 0.92226 0.79669 0.0
H816 H 0.47619 0.3865 0.94047 0.0
H817 H 0.51969 0.43059 0.93443 0.0
H818 H 0.57096 0.38775 0.92997 0.0
H819 H 0.52752 0.34358 0.93583 0.0
H820 H 0.57047 0.45826 0.94969 0.0
H821 H 0.59396 0.4321 0.8898 0.0
H822 H 0.56011 0.41052 0.90008 0.0
H823 H 0.59276 0.40811 0.90467 0.0
C824 C 0.49669 0.3864 0.93818 0.0
C825 C 0.49816 0.36131 0.93855 0.0
C826 C 0.52161 0.4117 0.93468 0.0
C827 C 0.54868 0.41263 0.93143 0.0
C828 C 0.55027 0.38765 0.93193 0.0
H829 H 0.72621 0.54642 0.91399 0.0
H830 H 0.68264 0.5022 0.91988 0.0
C831 C 0.52532 0.36231 0.93533 0.0
C832 C 0.57532 0.43982 0.92808 0.0
H833 H 0.631 0.47375 0.90139 0.0
C834 C 0.58355 0.46164 0.93907 0.0
C835 C 0.59259 0.44445 0.91422 0.0
C836 C 0.58427 0.42266 0.90144 0.0
C837 C 0.60864 0.48757 0.93675 0.0
C838 C 0.62598 0.49207 0.92297 0.0
C839 C 0.61782 0.47031 0.91199 0.0
C840 C 0.65255 0.51924 0.9197 0.0
C841 C 0.61673 0.50978 0.94925 0.0
C842 C 0.65025 0.54364 0.91753 0.0
C843 C 0.67518 0.56903 0.91421 0.0
C844 C 0.70307 0.57068 0.91295 0.0
C845 C 0.70525 0.54614 0.91512 0.0
C846 C 0.68029 0.52074 0.91837 0.0
H847 H 0.60564 0.501 0.96073 0.0
H848 H 0.64079 0.52093 0.95122 0.0
H849 H 0.6099 0.52518 0.9452 0.0
H850 H 0.62908 0.54301 0.91824 0.0
H851 H 0.67258 0.58742 0.91271 0.0
H852 H 0.30137 0.12934 0.16779 0.0
H853 H 0.26963 0.14732 0.15682 0.0
H854 H 0.28187 0.19545 0.19939 0.0
H855 H 0.3129 0.17702 0.21041 0.0
H856 H 0.22553 0.1729 0.18876 0.0
H857 H 0.30324 0.22562 0.13932 0.0
H858 H 0.28944 0.18865 0.14006 0.0
H859 H 0.31229 0.21014 0.15585 0.0
C860 C 0.29667 0.14329 0.17487 0.0
C861 C 0.3094 0.15175 0.18992 0.0
C862 C 0.27886 0.15381 0.16856 0.0
C863 C 0.2738 0.17322 0.17714 0.0
C864 C 0.28547 0.18061 0.1925 0.0
H865 H 0.23584 0.3016 0.1458 0.0
H866 H 0.25606 0.27163 0.15436 0.0
C867 C 0.30314 0.17003 0.19882 0.0
C868 C 0.25754 0.18687 0.16999 0.0
H869 H 0.26002 0.22974 0.13977 0.0
C870 C 0.23292 0.18516 0.17798 0.0
C871 C 0.26744 0.20325 0.15604 0.0
C872 C 0.29469 0.20732 0.14737 0.0
C873 C 0.2182 0.19958 0.17253 0.0
C874 C 0.22797 0.21576 0.15851 0.0
C875 C 0.25231 0.21712 0.15041 0.0
C876 C 0.21502 0.23343 0.15281 0.0
C877 C 0.19312 0.19832 0.18224 0.0
C878 C 0.18519 0.222 0.14875 0.0
C879 C 0.17336 0.23927 0.14399 0.0
C880 C 0.19119 0.2683 0.14316 0.0
C881 C 0.22124 0.27944 0.14668 0.0
C882 C 0.23295 0.26227 0.15146 0.0
H883 H 0.19268 0.19028 0.1944 0.0
H884 H 0.19453 0.21919 0.18317 0.0
H885 H 0.1721 0.18418 0.17635 0.0
H886 H 0.171 0.19975 0.14934 0.0
H887 H 0.15018 0.22997 0.14133 0.0
H888 H 0.8606 0.13402 0.34601 0.0
H889 H 0.91102 0.15408 0.35629 0.0
H890 H 0.9442 0.1935 0.31103 0.0
H891 H 0.89401 0.17438 0.30102 0.0
H892 H 0.96135 0.15227 0.34788 0.0
H893 H 0.97769 0.25946 0.3406 0.0
H894 H 0.9422 0.22925 0.33862 0.0
H895 H 0.96783 0.24028 0.32237 0.0
C896 C 0.87878 0.14664 0.33824 0.0
C897 C 0.8735 0.15276 0.32277 0.0
C898 C 0.90753 0.15815 0.34411 0.0
C899 C 0.93142 0.17591 0.33457 0.0
C900 C 0.92615 0.18052 0.31877 0.0
H901 H 0.11868 0.27426 0.34275 0.0
H902 H 0.06785 0.24596 0.33441 0.0
C903 C 0.89749 0.1693 0.31298 0.0
C904 C 0.9617 0.19049 0.34122 0.0
H905 H 1.02032 0.25511 0.34638 0.0
C906 C 0.97417 0.17476 0.34766 0.0
C907 C 0.97839 0.2199 0.34113 0.0
C908 C 0.96576 0.23823 0.33547 0.0
C909 C 1.00316 0.1876 0.35345 0.0
C910 C 1.02005 0.21689 0.35284 0.0
C911 C 1.00741 0.23262 0.3467 0.0
C912 C 0.0512 0.23183 0.35805 0.0
C913 C 1.01588 0.16978 0.35976 0.0
C914 C 0.05888 0.23306 0.37414 0.0
C915 C 0.08805 0.24954 0.37901 0.0
C916 C 0.11005 0.26516 0.36787 0.0
C917 C 0.10231 0.26293 0.3517 0.0
C918 C 0.07324 0.24663 0.34688 0.0
H919 H 1.00173 0.14739 0.35706 0.0
H920 H 0.03801 0.17653 0.35467 0.0
H921 H 1.01827 0.17225 0.37283 0.0
H922 H 0.04215 0.22209 0.38299 0.0
H923 H 0.0931 0.25102 0.39155 0.0
H924 H 0.80702 0.11544 0.53389 0.0
H925 H 0.78969 0.06812 0.52421 0.0
H926 H 0.87905 0.08534 0.51655 0.0
H927 H 0.89661 0.13292 0.52645 0.0
H928 H 0.79738 0.05264 0.49486 0.0
H929 H 0.84491 1.0116 0.54009 0.0
H930 H 0.84326 0.04359 0.54281 0.0
H931 H 0.87101 0.04286 0.53033 0.0
C932 C 0.82302 0.10913 0.53021 0.0
C933 C 0.85319 0.12796 0.53083 0.0
C934 C 0.81308 0.08205 0.5247 0.0
C935 C 0.83302 0.07307 0.51971 0.0
C936 C 0.86324 0.09162 0.5206 0.0
H937 H 0.76508 0.92048 0.46204 0.0
H938 H 0.79511 0.96857 0.47093 0.0
C939 C 0.87326 0.1188 0.52623 0.0
C940 C 0.82174 0.04466 0.51296 0.0
H941 H 0.82006 0.98195 0.51858 0.0
C942 C 0.80246 0.03721 0.49999 0.0
C943 C 0.82822 0.02449 0.51974 0.0
C944 C 0.84777 0.03085 0.5341 0.0
C945 C 0.78899 1.01009 0.49383 0.0
C946 C 0.79557 0.98993 0.50054 0.0
C947 C 0.81527 0.99748 0.51334 0.0
C948 C 0.78032 0.96037 0.49533 0.0
C949 C 0.76682 1.00302 0.48065 0.0
C950 C 0.76326 0.9395 0.50623 0.0
C951 C 0.74655 0.91197 0.50126 0.0
C952 C 0.74641 0.90464 0.48523 0.0
C953 C 0.76469 0.92535 0.47447 0.0
C954 C 0.78159 0.95293 0.47949 0.0
H955 H 0.75921 0.01883 0.47949 0.0
H956 H 0.77701 1.00219 0.46922 0.0
H957 H 0.74742 0.98241 0.4827 0.0
H958 H 0.7621 0.94465 0.51853 0.0
H959 H 0.73325 0.89648 0.50996 0.0
H960 H 0.89718 0.79631 0.65705 0.0
H961 H 0.87455 0.82416 0.66679 0.0
H962 H 0.79635 0.77273 0.63997 0.0
H963 H 0.81858 0.74444 0.63076 0.0
H964 H 0.85224 0.85525 0.65364 0.0
H965 H 0.76309 0.76453 0.68385 0.0
H966 H 0.79452 0.76345 0.67544 0.0
H967 H 0.76427 0.75877 0.66298 0.0
C968 C 0.87534 0.79133 0.6531 0.0
C969 C 0.85953 0.76833 0.6432 0.0
C970 C 0.86237 0.80714 0.65869 0.0
C971 C 0.83342 0.80016 0.65445 0.0
C972 C 0.81834 0.77808 0.64381 0.0
H973 H 0.74375 0.89956 0.66874 0.0
H974 H 0.77429 0.87985 0.6585 0.0
C975 C 0.83113 0.76211 0.6384 0.0
C976 C 0.81859 0.81526 0.66152 0.0
H977 H 0.75734 0.80509 0.68197 0.0
C978 C 0.83157 0.84432 0.65991 0.0
C979 C 0.79188 0.80115 0.67002 0.0
C980 C 0.77778 0.77031 0.67333 0.0
C981 C 0.81828 0.85949 0.66623 0.0
C982 C 0.79085 0.84517 0.67405 0.0
C983 C 0.7782 0.81618 0.67588 0.0
C984 C 0.77473 0.85954 0.68053 0.0
C985 C 0.83415 0.89075 0.66473 0.0
C986 C 0.76445 0.85462 0.69627 0.0
C987 C 0.74655 0.86539 0.70198 0.0
C988 C 0.73872 0.88158 0.69214 0.0
C989 C 0.74985 0.88746 0.6766 0.0
C990 C 0.76742 0.8763 0.67079 0.0
H991 H 0.85814 0.89884 0.66327 0.0
H992 H 0.82603 0.89689 0.65406 0.0
H993 H 0.83035 0.90081 0.67527 0.0
H994 H 0.76963 0.84175 0.70404 0.0
H995 H 0.73794 0.86024 0.71393 0.0
H996 H 0.95448 0.7846 0.89174 0.0
H997 H 1.00522 0.81501 0.8834 0.0
H998 H 0.98078 0.79077 0.83473 0.0
H999 H 0.93009 0.76157 0.84282 0.0
H1000 H 0.04246 0.80043 0.86945 0.0
H1001 H 0.02792 0.87313 0.82942 0.0
H1002 H 0.99945 0.85022 0.84279 0.0
H1003 H 1.00462 0.83764 0.82392 0.0
C1004 C 0.95976 0.78634 0.87921 0.0
C1005 C 0.93809 0.77061 0.86797 0.0
C1006 C 0.98886 0.80357 0.87447 0.0
C1007 C 0.99688 0.80559 0.85838 0.0
C1008 C 0.97518 0.7902 0.84715 0.0
H1009 H 0.15307 0.86053 0.80232 0.0
H1010 H 0.10327 0.84274 0.81289 0.0
C1011 C 0.94616 0.77316 0.85185 0.0
C1012 C 0.02814 0.82221 0.85337 0.0
H1013 H 0.07293 0.87088 0.82651 0.0
C1014 C 0.04919 0.81616 0.86025 0.0
C1015 C 0.03705 0.84274 0.84132 0.0
C1016 C 1.01611 0.85152 0.83406 0.0
C1017 C 0.07848 0.82921 0.85498 0.0
C1018 C 0.08711 0.84909 0.84261 0.0
C1019 C 0.06628 0.8556 0.83596 0.0
C1020 C 0.11729 0.86222 0.83588 0.0
C1021 C 0.09972 0.82081 0.86225 0.0
C1022 C 0.14171 0.87982 0.84511 0.0
C1023 C 0.17019 0.89027 0.839 0.0
C1024 C 0.17467 0.88322 0.8236 0.0
C1025 C 0.15017 0.86649 0.81418 0.0
C1026 C 0.12176 0.85622 0.82023 0.0
H1027 H 0.08839 0.80156 0.86949 0.0
H1028 H 0.11277 0.8174 0.85289 0.0
H1029 H 0.11518 0.83776 0.87008 0.0
H1030 H 0.13877 0.885 0.85714 0.0
H1031 H 0.18877 0.90298 0.8465 0.0
H1032 H 0.19351 0.89673 1.00468 0.0
H1033 H 0.21312 0.94494 0.9961 0.0
H1034 H 0.20366 0.96877 0.04364 0.0
H1035 H 0.18532 0.92064 0.05254 0.0
H1036 H 0.19275 0.98231 0.99586 0.0
H1037 H 0.2899 0.01899 0.03535 0.0
H1038 H 0.26521 0.98259 0.03214 0.0
H1039 H 0.25532 1.00242 0.04551 0.0
C1040 C 0.19568 0.91221 0.01336 0.0
C1041 C 0.1883 0.90484 0.02938 0.0
C1042 C 0.20668 0.93976 0.00839 0.0
C1043 C 0.21047 0.96063 0.01927 0.0
C1044 C 0.20157 0.95315 0.03509 0.0
H1045 H 0.26721 0.13318 0.98788 0.0
H1046 H 0.23708 0.08558 0.99778 0.0
C1047 C 0.19072 0.92553 0.04012 0.0
C1048 C 0.22492 0.9902 0.01406 0.0
H1049 H 0.28578 0.0529 0.01993 0.0
C1050 C 0.21301 0.99782 1.00118 0.0
C1051 C 0.25158 1.01034 0.02086 0.0
C1052 C 0.26646 1.00321 0.03413 0.0
C1053 C 0.2272 0.02485 0.99478 0.0
C1054 C 0.25374 0.04499 1.00166 0.0
C1055 C 0.26535 0.03749 0.01471 0.0
C1056 C 0.27099 0.07345 0.99496 0.0
C1057 C 0.21426 0.03125 0.98033 0.0
C1058 C 0.30006 0.08254 0.99016 0.0
C1059 C 0.31727 0.10964 0.98466 0.0
C1060 C 0.30585 0.12838 0.98383 0.0
C1061 C 0.2765 0.11913 0.98825 0.0
C1062 C 0.25927 0.09193 0.99389 0.0
H1063 H 0.19803 1.01201 0.97427 0.0
H1064 H 0.20286 0.04314 0.984 0.0
H1065 H 0.23166 0.0441 0.9717 0.0
H1066 H 0.30957 0.06867 0.99079 0.0
H1067 H 0.33967 0.11602 0.98113 0.0
H1068 H 0.26086 0.39119 0.08232 0.0
H1069 H 0.29056 0.37659 0.06606 0.0
H1070 H 0.23681 0.29179 0.08116 0.0
H1071 H 0.20748 0.30642 0.09763 0.0
H1072 H 0.32131 0.34221 0.07472 0.0
H1073 H 0.2307 0.29332 0.03087 0.0
H1074 H 0.23299 0.31937 0.04483 0.0
H1075 H 0.22122 0.2844 0.05139 0.0
C1076 C 0.25611 0.36964 0.0826 0.0
C1077 C 0.23233 0.35001 0.09151 0.0
C1078 C 0.27287 0.36126 0.07319 0.0
C1079 C 0.2658 0.33307 0.07231 0.0
C1080 C 0.2426 0.31361 0.08159 0.0
H1081 H 0.31766 0.23785 0.0089 0.0
H1082 H 0.29443 0.25305 0.02929 0.0
C1083 C 0.22601 0.32199 0.09107 0.0
C1084 C 0.28151 0.3237 0.06107 0.0
H1085 H 0.27243 0.28762 0.02657 0.0
C1086 C 0.31071 0.33031 0.06417 0.0
C1087 C 0.26759 0.3081 0.04735 0.0
C1088 C 0.23646 0.30096 0.04326 0.0
C1089 C 0.32619 0.32127 0.05407 0.0
C1090 C 0.31236 0.30582 0.04022 0.0
C1091 C 0.28312 0.29934 0.03716 0.0
C1092 C 0.32768 0.29634 0.02865 0.0
C1093 C 0.35693 0.32772 0.05862 0.0
C1094 C 0.35414 0.31546 0.02143 0.0
C1095 C 0.36755 0.30666 0.00996 0.0
C1096 C 0.35465 0.27861 1.00537 0.0
C1097 C 0.32823 0.25948 0.01249 0.0
C1098 C 0.31492 0.26822 0.02405 0.0
H1099 H 0.36069 0.33148 0.07158 0.0
H1100 H 0.36152 0.31052 0.05526 0.0
H1101 H 0.37281 0.34689 0.05239 0.0
H1102 H 0.36403 0.33737 0.0243 0.0
H1103 H 0.38758 0.32187 1.00433 0.0
H1104 H 0.89928 0.19731 0.25157 0.0
H1105 H 0.93935 0.22026 0.23268 0.0
H1106 H 0.90384 0.27378 0.21795 0.0
H1107 H 0.86359 0.25104 0.23724 0.0
H1108 H 0.93841 0.22565 0.19981 0.0
H1109 H 0.98953 0.32919 0.22917 0.0
H1110 H 0.96229 0.29819 0.23889 0.0
H1111 H 0.95145 0.31505 0.22402 0.0
C1112 C 0.89998 0.21408 0.24439 0.0
C1113 C 0.8784 0.22263 0.24613 0.0
C1114 C 0.9229 0.2271 0.23352 0.0
C1115 C 0.92504 0.24913 0.22407 0.0
C1116 C 0.90303 0.25721 0.22534 0.0
H1117 H 0.06336 0.35358 0.15682 0.0
H1118 H 1.0203 0.33362 0.17439 0.0
C1119 C 0.87986 0.24401 0.23624 0.0
C1120 C 0.95041 0.26326 0.21298 0.0
H1121 H 1.01249 0.32477 0.20602 0.0
C1122 C 0.95455 0.24736 0.20114 0.0
C1123 C 0.97151 0.29161 0.21466 0.0
C1124 C 0.96875 0.30957 0.22743 0.0
C1125 C 0.97905 0.25893 0.19098 0.0
C1126 C 1.00061 0.28709 0.19293 0.0
C1127 C 0.99618 0.30317 0.20456 0.0
C1128 C 0.0278 0.30018 0.18299 0.0
C1129 C 0.98127 0.24088 0.17807 0.0
C1130 C 0.04698 0.28864 0.18229 0.0
C1131 C 0.07148 0.29999 0.17221 0.0
C1132 C 0.07754 0.32336 0.16287 0.0
C1133 C 0.05915 0.33563 0.16403 0.0
C1134 C 0.03455 0.32419 0.17402 0.0
H1135 H 0.95946 0.22325 0.17511 0.0
H1136 H 0.99104 0.25306 0.1671 0.0
H1137 H 0.99543 0.23203 0.18222 0.0
H1138 H 0.04281 0.27061 0.18939 0.0
H1139 H 0.08536 0.2902 0.17147 0.0
H1140 H 0.69468 0.0594 0.35614 0.0
H1141 H 0.67866 0.02072 0.37506 0.0
H1142 H 0.73595 0.9941 0.3527 0.0
H1143 H 0.75194 0.03242 0.33386 0.0
H1144 H 0.68248 0.95075 0.35755 0.0
H1145 H 0.72116 1.01182 0.41315 0.0
H1146 H 0.69674 0.01954 0.40166 0.0
H1147 H 0.73211 0.02748 0.39378 0.0
C1148 C 0.70408 0.04547 0.35535 0.0
C1149 C 0.72446 0.04903 0.34333 0.0
C1150 C 0.69494 0.02335 0.36622 0.0
C1151 C 0.70626 1.0045 0.36546 0.0
C1152 C 0.72674 1.00819 0.35355 0.0
H1153 H 0.70294 0.88499 0.43469 0.0
H1154 H 0.71466 0.9258 0.41797 0.0
C1155 C 0.73577 0.03013 0.34269 0.0
C1156 C 0.69638 0.98041 0.37666 0.0
H1157 H 0.69322 0.9629 0.41591 0.0
C1158 C 0.68477 0.95345 0.37032 0.0
C1159 C 0.69967 0.98381 0.39334 0.0
C1160 C 0.71335 1.01222 0.40092 0.0
C1161 C 0.67648 0.92997 0.38008 0.0
C1162 C 0.67918 0.93328 0.39678 0.0
C1163 C 0.6908 0.96024 0.40315 0.0
C1164 C 0.67127 0.90919 0.40774 0.0
C1165 C 0.66584 0.90191 0.37233 0.0
C1166 C 0.64281 0.88642 0.4079 0.0
C1167 C 0.63615 0.86308 0.41742 0.0
C1168 C 0.65766 0.86226 0.42723 0.0
C1169 C 0.68587 0.8853 0.4274 0.0
C1170 C 0.69256 0.90858 0.41784 0.0
H1171 H 0.67242 0.90388 0.35965 0.0
H1172 H 0.67452 0.88942 0.37856 0.0
H1173 H 0.64155 0.89036 0.37286 0.0
H1174 H 0.62583 0.88647 0.40044 0.0
H1175 H 0.61445 0.84533 0.41676 0.0
H1176 H 0.78925 0.64479 0.58192 0.0
H1177 H 0.75968 0.65956 0.56566 0.0
H1178 H 0.81271 0.74406 0.58137 0.0
H1179 H 0.84189 0.72925 0.59787 0.0
H1180 H 0.7285 0.69352 0.57474 0.0
H1181 H 0.81918 0.74357 0.53096 0.0
H1182 H 0.8169 0.71717 0.54468 0.0
H1183 H 0.82848 0.75192 0.55154 0.0
C1184 C 0.7939 0.66631 0.58231 0.0
C1185 C 0.8174 0.68579 0.59142 0.0
C1186 C 0.77721 0.67479 0.5729 0.0
C1187 C 0.78409 0.70294 0.57223 0.0
C1188 C 0.80708 0.72227 0.58166 0.0
H1189 H 0.73109 0.79775 0.50899 0.0
H1190 H 0.75461 0.78283 0.52939 0.0
C1191 C 0.8236 0.71378 0.59113 0.0
C1192 C 0.7683 0.71238 0.56108 0.0
H1193 H 0.77711 0.74869 0.52667 0.0
C1194 C 0.73905 0.70556 0.56421 0.0
C1195 C 0.78215 0.72818 0.54739 0.0
C1196 C 0.81335 0.73557 0.54329 0.0
C1197 C 0.72344 0.71453 0.55417 0.0
C1198 C 0.73718 0.73012 0.54033 0.0
C1199 C 0.76648 0.73686 0.53724 0.0
C1200 C 0.72167 0.73943 0.52877 0.0
C1201 C 0.69264 0.70784 0.55876 0.0
C1202 C 0.69529 0.72015 0.52157 0.0
C1203 C 0.68171 0.72879 0.51011 0.0
C1204 C 0.69438 0.75682 0.50549 0.0
C1205 C 0.7207 0.77612 0.51259 0.0
C1206 C 0.73418 0.76754 0.52416 0.0
H1207 H 0.68894 0.70404 0.57172 0.0
H1208 H 0.68784 0.72491 0.5554 0.0
H1209 H 0.67685 0.68861 0.55255 0.0
H1210 H 0.68559 0.69825 0.52446 0.0
H1211 H 0.66174 0.71346 0.50449 0.0
H1212 H 0.18226 0.78202 0.73904 0.0
H1213 H 0.14172 0.75925 0.71988 0.0
H1214 H 0.11038 0.8171 0.73217 0.0
H1215 H 0.15056 0.83985 0.75102 0.0
H1216 H 0.07919 0.73441 0.72707 0.0
H1217 H 0.11352 0.82002 0.68328 0.0
H1218 H 0.13856 0.81824 0.69757 0.0
H1219 H 0.11338 0.83054 0.70345 0.0
C1220 C 0.16695 0.79007 0.73745 0.0
C1221 C 0.16957 0.81266 0.74661 0.0
C1222 C 0.1437 0.77697 0.72658 0.0
C1223 C 0.12307 0.78658 0.72449 0.0
C1224 C 0.12613 0.80948 0.7334 0.0
H1225 H 0.96592 0.74788 0.67036 0.0
H1226 H 1.00835 0.76689 0.68834 0.0
C1227 C 0.14906 0.82236 0.74427 0.0
C1228 C 0.09759 0.77233 0.71352 0.0
H1229 H 0.06429 0.78374 0.68144 0.0
C1230 C 0.07606 0.74503 0.71696 0.0
C1231 C 0.09333 0.78628 0.70044 0.0
C1232 C 0.11602 0.81531 0.69584 0.0
C1233 C 0.04997 0.73168 0.70804 0.0
C1234 C 0.04554 0.74577 0.69503 0.0
C1235 C 0.06742 0.7729 0.69143 0.0
C1236 C 1.01842 0.73301 0.68502 0.0
C1237 C 0.02695 0.70305 0.71307 0.0
C1238 C 1.00966 0.70755 0.67718 0.0
C1239 C 0.98515 0.69653 0.66713 0.0
C1240 C 0.96909 0.71088 0.66457 0.0
C1241 C 0.97767 0.73623 0.67239 0.0
C1242 C 1.00203 0.74715 0.68256 0.0
H1243 H 0.02964 0.69881 0.72569 0.0
H1244 H 1.00452 0.70043 0.71144 0.0
H1245 H 0.02908 0.68726 0.70572 0.0
H1246 H 1.02228 0.69656 0.67842 0.0
H1247 H 0.97931 0.67726 0.66089 0.0
H1248 H 0.34602 0.14966 0.93516 0.0
H1249 H 0.33441 0.1086 0.9188 0.0
H1250 H 0.42308 0.14794 0.90097 0.0
H1251 H 0.4343 0.1894 0.91692 0.0
H1252 H 0.38498 0.1264 0.87732 0.0
H1253 H 0.35363 0.04592 0.92395 0.0
H1254 H 0.33293 0.06444 0.92516 0.0
H1255 H 0.37193 0.08262 0.92843 0.0
C1256 C 0.36314 0.14922 0.92798 0.0
C1257 C 0.39128 0.17234 0.92765 0.0
C1258 C 0.35656 0.1257 0.91868 0.0
C1259 C 0.37802 0.12473 0.90887 0.0
C1260 C 0.40621 0.14791 0.90857 0.0
H1261 H 0.35282 0.97478 0.85685 0.0
H1262 H 0.36958 1.01375 0.87561 0.0
C1263 C 0.41275 0.1715 0.91783 0.0
C1264 C 0.37054 0.10043 0.89814 0.0
H1265 H 0.34013 0.02942 0.89732 0.0
C1266 C 0.37541 0.10524 0.88175 0.0
C1267 C 0.35837 0.07272 0.90383 0.0
C1268 C 0.35418 0.06609 0.92132 0.0
C1269 C 0.36775 0.08324 0.87093 0.0
C1270 C 0.35421 0.05543 0.87653 0.0
C1271 C 0.35016 0.05064 0.89296 0.0
C1272 C 0.3435 0.03117 0.86546 0.0
C1273 C 0.3745 0.09009 0.85357 0.0
C1274 C 0.32268 0.02744 0.85376 0.0
C1275 C 0.31306 1.00523 0.84306 0.0
C1276 C 0.32385 0.98593 0.8438 0.0
C1277 C 0.34403 0.98916 0.85588 0.0
C1278 C 0.35371 1.01152 0.8666 0.0
H1279 H 0.39241 0.11169 0.85186 0.0
H1280 H 0.38093 0.07555 0.84777 0.0
H1281 H 0.35468 0.08832 0.84751 0.0
H1282 H 0.31371 0.04171 0.8529 0.0
H1283 H 0.29686 1.00306 0.83428 0.0
H1284 H 0.66329 0.77398 0.75078 0.0
H1285 H 0.68226 0.75204 0.76935 0.0
H1286 H 0.68976 0.81088 0.80549 0.0
H1287 H 0.67059 0.83294 0.78689 0.0
H1288 H 0.73619 0.77623 0.78263 0.0
H1289 H 0.65206 0.73836 0.83014 0.0
H1290 H 0.64583 0.74939 0.81098 0.0
H1291 H 0.66675 0.77474 0.82582 0.0
C1292 C 0.66854 0.78203 0.76276 0.0
C1293 C 0.66541 0.80528 0.76732 0.0
C1294 C 0.67945 0.76946 0.77338 0.0
C1295 C 0.68741 0.77965 0.78889 0.0
C1296 C 0.68332 0.80224 0.7937 0.0
H1297 H 0.8099 0.75292 0.84879 0.0
H1298 H 0.7864 0.7719 0.83085 0.0
C1299 C 0.67227 0.81483 0.78306 0.0
C1300 C 0.70174 0.76769 0.79952 0.0
H1301 H 0.69619 0.73654 0.83552 0.0
C1302 C 0.72736 0.7675 0.79418 0.0
C1303 C 0.69017 0.75601 0.81455 0.0
C1304 C 0.66204 0.75434 0.82069 0.0
C1305 C 0.7418 0.75627 0.80345 0.0
C1306 C 0.7307 0.74527 0.81866 0.0
C1307 C 0.70489 0.74514 0.82393 0.0
C1308 C 0.7454 0.73361 0.8292 0.0
C1309 C 0.76853 0.75579 0.79671 0.0
C1310 C 0.73016 0.70589 0.83447 0.0
C1311 C 0.7436 0.69509 0.8447 0.0
C1312 C 0.77259 0.71177 0.84985 0.0
C1313 C 0.78781 0.73948 0.84465 0.0
C1314 C 0.77437 0.7503 0.83441 0.0
H1315 H 0.76951 0.7579 0.78358 0.0
H1316 H 0.78853 0.77347 0.80166 0.0
H1317 H 0.76886 0.73621 0.7999 0.0
H1318 H 0.70774 0.69265 0.83075 0.0
H1319 H 0.73114 0.67388 0.84891 0.0
H1320 H 0.88657 0.64539 0.93209 0.0
H1321 H 0.93058 0.65996 0.94859 0.0
H1322 H 0.96357 0.74426 0.93204 0.0
H1323 H 0.91973 0.72966 0.91547 0.0
H1324 H 0.99329 0.68917 0.94122 0.0
H1325 H 0.95895 0.74949 0.98102 0.0
H1326 H 0.93412 0.72397 0.96718 0.0
H1327 H 0.96055 0.75782 0.96029 0.0
C1328 C 0.90368 0.66682 0.93161 0.0
C1329 C 0.90011 0.68632 0.92227 0.0
C1330 C 0.92867 0.67519 0.94115 0.0
C1331 C 0.95025 0.70327 0.94171 0.0
C1332 C 0.9471 0.72256 0.93196 0.0
H1333 H 0.10141 0.79789 1.00306 0.0
H1334 H 0.06337 0.78294 0.98242 0.0
C1335 C 0.92221 0.71419 0.9224 0.0
C1336 C 0.97534 0.71264 0.95299 0.0
H1337 H 1.00547 0.75301 0.98581 0.0
C1338 C 0.99597 0.7031 0.95099 0.0
C1339 C 0.97886 0.73084 0.96573 0.0
C1340 C 0.95686 0.741 0.96884 0.0
C1341 C 1.02031 0.7117 0.96119 0.0
C1342 C 1.02376 0.72981 0.97401 0.0
C1343 C 1.00303 0.73927 0.97598 0.0
C1344 C 0.04831 0.73888 0.98572 0.0
C1345 C 0.04243 0.7018 0.95785 0.0
C1346 C 0.05268 0.71923 0.99448 0.0
C1347 C 0.07461 0.72782 1.0061 0.0
C1348 C 0.09237 0.75622 0.00933 0.0
C1349 C 0.08818 0.77591 1.0006 0.0
C1350 C 0.06638 0.76734 0.98889 0.0
H1351 H 0.04182 0.69575 0.94521 0.0
H1352 H 0.06503 0.71807 0.96074 0.0
H1353 H 0.03722 0.68319 0.96522 0.0
H1354 H 0.0386 0.69719 0.99267 0.0
H1355 H 0.07717 0.7123 0.01292 0.0
H1356 H 0.24193 0.83991 0.10692 0.0
H1357 H 0.27169 0.8817 0.12279 0.0
H1358 H 0.26247 0.93257 0.08638 0.0
H1359 H 0.23204 0.8906 0.07074 0.0
H1360 H 0.32308 0.9287 0.11772 0.0
H1361 H 0.23383 0.95659 0.12481 0.0
H1362 H 0.22748 0.92357 0.11684 0.0
H1363 H 0.24273 0.95413 0.1045 0.0
C1364 C 0.24655 0.8601 0.10231 0.0
C1365 C 0.23472 0.86218 0.08769 0.0
C1366 C 0.26348 0.88396 0.11136 0.0
C1367 C 0.26888 0.91036 0.10599 0.0
C1368 C 0.25804 0.91246 0.09102 0.0
H1369 H 0.35662 0.07535 0.15035 0.0
H1370 H 0.33391 0.0368 0.13145 0.0
C1371 C 0.24096 0.88856 0.08199 0.0
C1372 C 0.28548 0.93546 0.11619 0.0
H1373 H 0.28043 0.98872 0.13481 0.0
C1374 C 0.31371 0.94179 0.12145 0.0
C1375 C 0.27335 0.95265 0.12114 0.0
C1376 C 0.24259 0.94631 0.11668 0.0
C1377 C 0.33016 0.96483 0.13133 0.0
C1378 C 0.31798 0.98192 0.13632 0.0
C1379 C 0.28988 0.97576 0.13095 0.0
C1380 C 0.33356 1.00572 0.14751 0.0
C1381 C 0.36065 0.97088 0.13616 0.0
C1382 C 0.34106 1.00125 0.16286 0.0
C1383 C 0.35419 0.02329 0.17367 0.0
C1384 C 0.36006 0.05042 0.16945 0.0
C1385 C 0.3529 0.05491 0.15397 0.0
C1386 C 0.33967 0.0328 0.14317 0.0
H1387 H 0.36981 0.96108 0.12794 0.0
H1388 H 0.37574 0.99362 0.13651 0.0
H1389 H 0.35982 0.9623 0.1482 0.0
H1390 H 0.33613 0.98054 0.16664 0.0
H1391 H 0.35951 0.019 0.18542 0.0
H1392 H 0.32754 0.19616 0.2623 0.0
H1393 H 0.31051 0.21928 0.28109 0.0
H1394 H 0.39981 0.27413 0.29488 0.0
H1395 H 0.4172 0.25116 0.27571 0.0
H1396 H 0.31807 0.22596 0.31401 0.0
H1397 H 0.36791 0.32821 0.28311 0.0
H1398 H 0.36415 0.29698 0.27373 0.0
H1399 H 0.39241 0.31469 0.2882 0.0
C1400 C 0.34367 0.21323 0.26927 0.0
C1401 C 0.37382 0.22207 0.2673 0.0
C1402 C 0.33384 0.22636 0.28008 0.0
C1403 C 0.35382 0.24881 0.28923 0.0
C1404 C 0.38396 0.2572 0.28774 0.0
H1405 H 0.32017 0.35469 0.35534 0.0
H1406 H 0.3432 0.33466 0.33781 0.0
C1407 C 0.39388 0.24389 0.2769 0.0
C1408 C 0.34265 0.26309 0.30022 0.0
H1409 H 0.3411 0.32429 0.30642 0.0
C1410 C 0.32321 0.2475 0.31238 0.0
C1411 C 0.34934 0.29122 0.29815 0.0
C1412 C 0.36941 0.30881 0.28504 0.0
C1413 C 0.31033 0.25917 0.32249 0.0
C1414 C 0.31634 0.28709 0.32014 0.0
C1415 C 0.33626 0.30287 0.30818 0.0
C1416 C 0.30223 0.30023 0.33 0.0
C1417 C 0.2908 0.24151 0.33576 0.0
C1418 C 0.27149 0.28817 0.33112 0.0
C1419 C 0.25839 0.29956 0.34118 0.0
C1420 C 0.27574 0.32352 0.35007 0.0
C1421 C 0.30638 0.33631 0.34847 0.0
C1422 C 0.3195 0.32481 0.33851 0.0
H1423 H 0.29558 0.22433 0.33894 0.0
H1424 H 0.29338 0.25413 0.34655 0.0
H1425 H 0.26759 0.23204 0.33188 0.0
H1426 H 0.25759 0.26968 0.32439 0.0
H1427 H 0.23473 0.28933 0.34229 0.0
H1428 H 0.1609 0.39017 0.43157 0.0
H1429 H 0.11655 0.37549 0.44783 0.0
H1430 H 0.08537 0.29078 0.43262 0.0
H1431 H 0.12937 0.3055 0.41613 0.0
H1432 H 0.0512 0.34089 0.43889 0.0
H1433 H 0.09286 0.29237 0.48305 0.0
H1434 H 0.11673 0.31862 0.46919 0.0
H1435 H 0.09377 0.28368 0.46254 0.0
C1436 C 0.14407 0.36862 0.43127 0.0
C1437 C 0.14818 0.34906 0.4223 0.0
C1438 C 0.1189 0.3602 0.44068 0.0
C1439 C 0.09772 0.33201 0.44151 0.0
C1440 C 0.10145 0.3126 0.43221 0.0
H1441 H 0.95059 0.23699 0.5051 0.0
H1442 H 0.98896 0.25206 0.48466 0.0
C1443 C 0.12645 0.32104 0.42273 0.0
C1444 C 0.07254 0.32261 0.45271 0.0
H1445 H 0.04544 0.28675 0.48729 0.0
C1446 C 0.0499 0.32909 0.44949 0.0
C1447 C 0.07083 0.30712 0.46649 0.0
C1448 C 0.09487 0.30011 0.47068 0.0
C1449 C 0.0253 0.32003 0.45956 0.0
C1450 C 1.02368 0.30473 0.47348 0.0
C1451 C 0.04648 0.29837 0.47665 0.0
C1452 C 0.99881 0.29529 0.48503 0.0
C1453 C 1.00096 0.32633 0.45489 0.0
C1454 C 0.99137 0.31442 0.49212 0.0
C1455 C 0.96917 0.30568 0.5036 0.0
C1456 C 0.95416 0.2777 0.50837 0.0
C1457 C 0.96153 0.25856 0.50138 0.0
C1458 C 0.98356 0.26723 0.48979 0.0
H1459 H 1.00099 0.32993 0.4419 0.0
H1460 H 0.97917 0.30913 0.45829 0.0
H1461 H 1.00419 0.34556 0.461 0.0
H1462 H 1.00331 0.33629 0.48912 0.0
H1463 H 0.96432 0.32092 0.50915 0.0
H1464 H 0.73817 1.00323 0.68077 0.0
H1465 H 0.7601 0.04193 0.66215 0.0
H1466 H 0.67618 1.01454 0.63966 0.0
H1467 H 0.65383 0.97552 0.65841 0.0
H1468 H 0.72105 0.02994 0.61783 0.0
H1469 H 0.75213 0.11225 0.66329 0.0
H1470 H 0.76628 0.08869 0.66753 0.0
H1471 H 0.72728 0.07615 0.66742 0.0
C1472 C 0.72414 1.00554 0.67204 0.0
C1473 C 0.69399 0.98637 0.67136 0.0
C1474 C 0.73682 0.02778 0.66135 0.0
C1475 C 0.71975 0.03167 0.64969 0.0
C1476 C 0.68981 1.01217 0.64863 0.0
H1477 H 0.78715 0.18988 0.59808 0.0
H1478 H 0.7571 0.14849 0.61418 0.0
C1479 C 0.67706 0.98979 0.65934 0.0
C1480 C 0.73338 0.05595 0.63861 0.0
H1481 H 0.77394 0.12689 0.63773 0.0
C1482 C 0.73241 0.05115 0.62218 0.0
C1483 C 0.74788 0.08374 0.64418 0.0
C1484 C 0.74824 0.0906 0.66155 0.0
C1485 C 0.74626 0.07322 0.61128 0.0
C1486 C 0.76201 0.10093 0.61693 0.0
C1487 C 0.76219 0.10574 0.63332 0.0
C1488 C 0.77875 0.12521 0.60615 0.0
C1489 C 0.74357 0.0666 0.59378 0.0
C1490 C 0.80102 0.12612 0.59622 0.0
C1491 C 0.81784 0.1496 0.58684 0.0
C1492 C 0.81288 0.17274 0.58719 0.0
C1493 C 0.79075 0.17196 0.59715 0.0
C1494 C 0.77382 0.14842 0.60649 0.0
H1495 H 0.72386 0.04645 0.59121 0.0
H1496 H 0.74231 0.08315 0.58671 0.0
H1497 H 0.76309 0.06491 0.58984 0.0
H1498 H 0.806 0.109 0.59605 0.0
H1499 H 0.83526 0.14998 0.57955 0.0
loop_
_geom_bond_atom_site_label_1
_geom_bond_atom_site_label_2
_geom_bond_distance
_geom_bond_site_symmetry_2
_ccdc_geom_bond_type
C0 C1 1.443 . S
C0 N4 1.376 . S
C0 C38 1.389 . S
C1 C0 1.443 . S
C1 C2 1.340 . S
C1 H41 0.951 . S
C2 C1 1.340 . S
C2 C3 1.439 . S
C2 H42 0.950 . S
C3 C2 1.439 . S
C3 N4 1.374 . S
C3 C37 1.395 . S
N4 C0 1.376 . S
N4 C3 1.374 . S
N4 Co5 2.008 . S
Co5 N4 2.008 . S
Co5 N6 1.995 . S
Co5 N11 2.008 . S
Co5 N16 1.995 . S
Co5 N21 2.282 . S
Co5 N27 2.282 . S
N6 Co5 1.995 . S
N6 C7 1.376 . S
N6 C10 1.383 . S
C7 N6 1.376 . S
C7 C8 1.446 . S
C7 C37 1.391 . S
C8 C7 1.446 . S
C8 C9 1.339 . S
C8 H43 0.949 . S
C9 C8 1.339 . S
C9 C10 1.439 . S
C9 H44 0.950 . S
C10 N6 1.383 . S
C10 C9 1.439 . S
C10 C39 1.392 . S
N11 Co5 2.008 . S
N11 C12 1.376 . S
N11 C15 1.374 . S
C12 N11 1.376 . S
C12 C13 1.443 . S
C12 C39 1.389 . S
C13 C12 1.443 . S
C13 C14 1.340 . S
C13 H45 0.951 . S
C14 C13 1.340 . S
C14 C15 1.439 . S
C14 H46 0.950 . S
C15 N11 1.374 . S
C15 C14 1.439 . S
C15 C40 1.395 . S
N16 Co5 1.995 . S
N16 C17 1.376 . S
N16 C20 1.383 . S
C17 N16 1.376 . S
C17 C18 1.446 . S
C17 C40 1.391 . S
C18 C17 1.446 . S
C18 C19 1.339 . S
C18 H47 0.949 . S
C19 C18 1.339 . S
C19 C20 1.439 . S
C19 H48 0.950 . S
C20 N16 1.383 . S
C20 C19 1.439 . S
C20 C38 1.392 . S
N21 Co5 2.282 . S
N21 C24 1.332 . S
N21 C26 1.332 . S
C22 C23 1.386 . S
C22 C25 1.388 . S
C23 C22 1.386 . S
C23 C24 1.382 . S
C23 H49 0.950 . S
C24 N21 1.332 . S
C24 C23 1.382 . S
C24 H35 0.952 . S
C25 C22 1.388 . S
C25 C26 1.382 . S
C25 H50 0.950 . S
C26 N21 1.332 . S
C26 C25 1.382 . S
C26 H36 0.948 . S
N27 Co5 2.282 . S
N27 C31 1.332 . S
N27 C32 1.332 . S
C28 C29 1.388 . S
C28 C32 1.382 . S
C28 H51 0.950 . S
C29 C28 1.388 . S
C29 C30 1.386 . S
C30 C29 1.386 . S
C30 C31 1.382 . S
C30 H52 0.950 . S
C31 N27 1.332 . S
C31 C30 1.382 . S
C31 H33 0.952 . S
C32 N27 1.332 . S
C32 C28 1.382 . S
C32 H34 0.948 . S
H33 C31 0.952 . S
H34 C32 0.948 . S
H35 C24 0.952 . S
H36 C26 0.948 . S
C37 C3 1.395 . S
C37 C7 1.391 . S
C38 C0 1.389 . S
C38 C20 1.392 . S
C39 C10 1.392 . S
C39 C12 1.389 . S
C40 C15 1.395 . S
C40 C17 1.391 . S
H41 C1 0.951 . S
H42 C2 0.950 . S
H43 C8 0.949 . S
H44 C9 0.950 . S
H45 C13 0.951 . S
H46 C14 0.950 . S
H47 C18 0.949 . S
H48 C19 0.950 . S
H49 C23 0.950 . S
H50 C25 0.950 . S
H51 C28 0.950 . S
H52 C30 0.950 . S
C53 C54 1.443 . S
C53 N57 1.376 . S
C53 C91 1.389 . S
C54 C53 1.443 . S
C54 C55 1.340 . S
C54 H94 0.951 . S
C55 C54 1.340 . S
C55 C56 1.439 . S
C55 H95 0.950 . S
C56 C55 1.439 . S
C56 N57 1.374 . S
C56 C90 1.395 . S
N57 C53 1.376 . S
N57 C56 1.374 . S
N57 Co58 2.008 . S
Co58 N57 2.008 . S
Co58 N59 1.995 . S
Co58 N64 2.008 . S
Co58 N69 1.995 . S
Co58 N74 2.282 . S
Co58 N80 2.282 . S
N59 Co58 1.995 . S
N59 C60 1.376 . S
N59 C63 1.383 . S
C60 N59 1.376 . S
C60 C61 1.446 . S
C60 C90 1.391 . S
C61 C60 1.446 . S
C61 C62 1.339 . S
C61 H96 0.949 . S
C62 C61 1.339 . S
C62 C63 1.439 . S
C62 H97 0.950 . S
C63 N59 1.383 . S
C63 C62 1.439 . S
C63 C92 1.392 . S
N64 Co58 2.008 . S
N64 C65 1.376 . S
N64 C68 1.374 . S
C65 N64 1.376 . S
C65 C66 1.443 . S
C65 C92 1.389 . S
C66 C65 1.443 . S
C66 C67 1.340 . S
C66 H98 0.951 . S
C67 C66 1.340 . S
C67 C68 1.439 . S
C67 H99 0.950 . S
C68 N64 1.374 . S
C68 C67 1.439 . S
C68 C93 1.395 . S
N69 Co58 1.995 . S
N69 C70 1.376 . S
N69 C73 1.383 . S
C70 N69 1.376 . S
C70 C71 1.446 . S
C70 C93 1.391 . S
C71 C70 1.446 . S
C71 C72 1.339 . S
C71 H100 0.949 . S
C72 C71 1.339 . S
C72 C73 1.439 . S
C72 H101 0.950 . S
C73 N69 1.383 . S
C73 C72 1.439 . S
C73 C91 1.392 . S
N74 Co58 2.282 . S
N74 C77 1.332 . S
N74 C79 1.332 . S
C75 C76 1.386 . S
C75 C78 1.388 . S
C76 C75 1.386 . S
C76 C77 1.382 . S
C76 H102 0.950 . S
C77 N74 1.332 . S
C77 C76 1.382 . S
C77 H88 0.952 . S
C78 C75 1.388 . S
C78 C79 1.382 . S
C78 H103 0.950 . S
C79 N74 1.332 . S
C79 C78 1.382 . S
C79 H89 0.948 . S
N80 Co58 2.282 . S
N80 C84 1.332 . S
N80 C85 1.332 . S
C81 C82 1.388 . S
C81 C85 1.382 . S
C81 H104 0.950 . S
C82 C81 1.388 . S
C82 C83 1.386 . S
C83 C82 1.386 . S
C83 C84 1.382 . S
C83 H105 0.950 . S
C84 N80 1.332 . S
C84 C83 1.382 . S
C84 H86 0.952 . S
C85 N80 1.332 . S
C85 C81 1.382 . S
C85 H87 0.948 . S
H86 C84 0.952 . S
H87 C85 0.948 . S
H88 C77 0.952 . S
H89 C79 0.948 . S
C90 C56 1.395 . S
C90 C60 1.391 . S
C91 C53 1.389 . S
C91 C73 1.392 . S
C92 C63 1.392 . S
C92 C65 1.389 . S
C93 C68 1.395 . S
C93 C70 1.391 . S
H94 C54 0.951 . S
H95 C55 0.950 . S
H96 C61 0.949 . S
H97 C62 0.950 . S
H98 C66 0.951 . S
H99 C67 0.950 . S
H100 C71 0.949 . S
H101 C72 0.950 . S
H102 C76 0.950 . S
H103 C78 0.950 . S
H104 C81 0.950 . S
H105 C83 0.950 . S
C106 C107 1.443 . S
C106 N110 1.376 . S
C106 C144 1.389 . S
C107 C106 1.443 . S
C107 C108 1.340 . S
C107 H147 0.951 . S
C108 C107 1.340 . S
C108 C109 1.439 . S
C108 H148 0.950 . S
C109 C108 1.439 . S
C109 N110 1.374 . S
C109 C143 1.395 . S
N110 C106 1.376 . S
N110 C109 1.374 . S
N110 Co111 2.008 . S
Co111 N110 2.008 . S
Co111 N112 1.995 . S
Co111 N117 2.008 . S
Co111 N122 1.995 . S
Co111 N127 2.282 . S
Co111 N133 2.282 . S
N112 Co111 1.995 . S
N112 C113 1.376 . S
N112 C116 1.383 . S
C113 N112 1.376 . S
C113 C114 1.446 . S
C113 C143 1.391 . S
C114 C113 1.446 . S
C114 C115 1.339 . S
C114 H149 0.949 . S
C115 C114 1.339 . S
C115 C116 1.439 . S
C115 H150 0.950 . S
C116 N112 1.383 . S
C116 C115 1.439 . S
C116 C145 1.392 . S
N117 Co111 2.008 . S
N117 C118 1.376 . S
N117 C121 1.374 . S
C118 N117 1.376 . S
C118 C119 1.443 . S
C118 C145 1.389 . S
C119 C118 1.443 . S
C119 C120 1.340 . S
C119 H151 0.951 . S
C120 C119 1.340 . S
C120 C121 1.439 . S
C120 H152 0.950 . S
C121 N117 1.374 . S
C121 C120 1.439 . S
C121 C146 1.395 . S
N122 Co111 1.995 . S
N122 C123 1.376 . S
N122 C126 1.383 . S
C123 N122 1.376 . S
C123 C124 1.446 . S
C123 C146 1.391 . S
C124 C123 1.446 . S
C124 C125 1.339 . S
C124 H153 0.949 . S
C125 C124 1.339 . S
C125 C126 1.439 . S
C125 H154 0.950 . S
C126 N122 1.383 . S
C126 C125 1.439 . S
C126 C144 1.392 . S
N127 Co111 2.282 . S
N127 C130 1.332 . S
N127 C132 1.332 . S
C128 C129 1.386 . S
C128 C131 1.388 . S
C129 C128 1.386 . S
C129 C130 1.382 . S
C129 H155 0.950 . S
C130 N127 1.332 . S
C130 C129 1.382 . S
C130 H141 0.952 . S
C131 C128 1.388 . S
C131 C132 1.382 . S
C131 H156 0.950 . S
C132 N127 1.332 . S
C132 C131 1.382 . S
C132 H142 0.948 . S
N133 Co111 2.282 . S
N133 C137 1.332 . S
N133 C138 1.332 . S
C134 C135 1.388 . S
C134 C138 1.382 . S
C134 H157 0.950 . S
C135 C134 1.388 . S
C135 C136 1.386 . S
C136 C135 1.386 . S
C136 C137 1.382 . S
C136 H158 0.950 . S
C137 N133 1.332 . S
C137 C136 1.382 . S
C137 H139 0.952 . S
C138 N133 1.332 . S
C138 C134 1.382 . S
C138 H140 0.948 . S
H139 C137 0.952 . S
H140 C138 0.948 . S
H141 C130 0.952 . S
H142 C132 0.948 . S
C143 C109 1.395 . S
C143 C113 1.391 . S
C144 C106 1.389 . S
C144 C126 1.392 . S
C145 C116 1.392 . S
C145 C118 1.389 . S
C146 C121 1.395 . S
C146 C123 1.391 . S
H147 C107 0.951 . S
H148 C108 0.950 . S
H149 C114 0.949 . S
H150 C115 0.950 . S
H151 C119 0.951 . S
H152 C120 0.950 . S
H153 C124 0.949 . S
H154 C125 0.950 . S
H155 C129 0.950 . S
H156 C131 0.950 . S
H157 C134 0.950 . S
H158 C136 0.950 . S
C159 C160 1.443 . S
C159 N163 1.376 . S
C159 C197 1.389 . S
C160 C159 1.443 . S
C160 C161 1.340 . S
C160 H200 0.951 . S
C161 C160 1.340 . S
C161 C162 1.439 . S
C161 H201 0.950 . S
C162 C161 1.439 . S
C162 N163 1.374 . S
C162 C196 1.395 . S
N163 C159 1.376 . S
N163 C162 1.374 . S
N163 Co164 2.008 . S
Co164 N163 2.008 . S
Co164 N165 1.995 . S
Co164 N170 2.008 . S
Co164 N175 1.995 . S
Co164 N180 2.282 . S
Co164 N186 2.282 . S
N165 Co164 1.995 . S
N165 C166 1.376 . S
N165 C169 1.383 . S
C166 N165 1.376 . S
C166 C167 1.446 . S
C166 C196 1.391 . S
C167 C166 1.446 . S
C167 C168 1.339 . S
C167 H202 0.949 . S
C168 C167 1.339 . S
C168 C169 1.439 . S
C168 H203 0.950 . S
C169 N165 1.383 . S
C169 C168 1.439 . S
C169 C198 1.392 . S
N170 Co164 2.008 . S
N170 C171 1.376 . S
N170 C174 1.374 . S
C171 N170 1.376 . S
C171 C172 1.443 . S
C171 C198 1.389 . S
C172 C171 1.443 . S
C172 C173 1.340 . S
C172 H204 0.951 . S
C173 C172 1.340 . S
C173 C174 1.439 . S
C173 H205 0.950 . S
C174 N170 1.374 . S
C174 C173 1.439 . S
C174 C199 1.395 . S
N175 Co164 1.995 . S
N175 C176 1.376 . S
N175 C179 1.383 . S
C176 N175 1.376 . S
C176 C177 1.446 . S
C176 C199 1.391 . S
C177 C176 1.446 . S
C177 C178 1.339 . S
C177 H206 0.949 . S
C178 C177 1.339 . S
C178 C179 1.439 . S
C178 H207 0.950 . S
C179 N175 1.383 . S
C179 C178 1.439 . S
C179 C197 1.392 . S
N180 Co164 2.282 . S
N180 C183 1.332 . S
N180 C185 1.332 . S
C181 C182 1.386 . S
C181 C184 1.388 . S
C182 C181 1.386 . S
C182 C183 1.382 . S
C182 H208 0.950 . S
C183 N180 1.332 . S
C183 C182 1.382 . S
C183 H194 0.952 . S
C184 C181 1.388 . S
C184 C185 1.382 . S
C184 H209 0.950 . S
C185 N180 1.332 . S
C185 C184 1.382 . S
C185 H195 0.948 . S
N186 Co164 2.282 . S
N186 C190 1.332 . S
N186 C191 1.332 . S
C187 C188 1.388 . S
C187 C191 1.382 . S
C187 H210 0.950 . S
C188 C187 1.388 . S
C188 C189 1.386 . S
C189 C188 1.386 . S
C189 C190 1.382 . S
C189 H211 0.950 . S
C190 N186 1.332 . S
C190 C189 1.382 . S
C190 H192 0.952 . S
C191 N186 1.332 . S
C191 C187 1.382 . S
C191 H193 0.948 . S
H192 C190 0.952 . S
H193 C191 0.948 . S
H194 C183 0.952 . S
H195 C185 0.948 . S
C196 C162 1.395 . S
C196 C166 1.391 . S
C197 C159 1.389 . S
C197 C179 1.392 . S
C198 C169 1.392 . S
C198 C171 1.389 . S
C199 C174 1.395 . S
C199 C176 1.391 . S
H200 C160 0.951 . S
H201 C161 0.950 . S
H202 C167 0.949 . S
H203 C168 0.950 . S
H204 C172 0.951 . S
H205 C173 0.950 . S
H206 C177 0.949 . S
H207 C178 0.950 . S
H208 C182 0.950 . S
H209 C184 0.950 . S
H210 C187 0.950 . S
H211 C189 0.950 . S
C212 C213 1.443 . S
C212 N216 1.376 . S
C212 C250 1.389 . S
C213 C212 1.443 . S
C213 C214 1.340 . S
C213 H253 0.951 . S
C214 C213 1.340 . S
C214 C215 1.439 . S
C214 H254 0.950 . S
C215 C214 1.439 . S
C215 N216 1.374 . S
C215 C249 1.395 . S
N216 C212 1.376 . S
N216 C215 1.374 . S
N216 Co217 2.008 . S
Co217 N216 2.008 . S
Co217 N218 1.995 . S
Co217 N223 2.008 . S
Co217 N228 1.995 . S
Co217 N233 2.282 . S
Co217 N239 2.282 . S
N218 Co217 1.995 . S
N218 C219 1.376 . S
N218 C222 1.383 . S
C219 N218 1.376 . S
C219 C220 1.446 . S
C219 C249 1.391 . S
C220 C219 1.446 . S
C220 C221 1.339 . S
C220 H255 0.949 . S
C221 C220 1.339 . S
C221 C222 1.439 . S
C221 H256 0.950 . S
C222 N218 1.383 . S
C222 C221 1.439 . S
C222 C251 1.392 . S
N223 Co217 2.008 . S
N223 C224 1.376 . S
N223 C227 1.374 . S
C224 N223 1.376 . S
C224 C225 1.443 . S
C224 C251 1.389 . S
C225 C224 1.443 . S
C225 C226 1.340 . S
C225 H257 0.951 . S
C226 C225 1.340 . S
C226 C227 1.439 . S
C226 H258 0.950 . S
C227 N223 1.374 . S
C227 C226 1.439 . S
C227 C252 1.395 . S
N228 Co217 1.995 . S
N228 C229 1.376 . S
N228 C232 1.383 . S
C229 N228 1.376 . S
C229 C230 1.446 . S
C229 C252 1.391 . S
C230 C229 1.446 . S
C230 C231 1.339 . S
C230 H259 0.949 . S
C231 C230 1.339 . S
C231 C232 1.439 . S
C231 H260 0.950 . S
C232 N228 1.383 . S
C232 C231 1.439 . S
C232 C250 1.392 . S
N233 Co217 2.282 . S
N233 C236 1.332 . S
N233 C238 1.332 . S
C234 C235 1.386 . S
C234 C237 1.388 . S
C235 C234 1.386 . S
C235 C236 1.382 . S
C235 H261 0.950 . S
C236 N233 1.332 . S
C236 C235 1.382 . S
C236 H247 0.952 . S
C237 C234 1.388 . S
C237 C238 1.382 . S
C237 H262 0.950 . S
C238 N233 1.332 . S
C238 C237 1.382 . S
C238 H248 0.948 . S
N239 Co217 2.282 . S
N239 C243 1.332 . S
N239 C244 1.332 . S
C240 C241 1.388 . S
C240 C244 1.382 . S
C240 H263 0.950 . S
C241 C240 1.388 . S
C241 C242 1.386 . S
C242 C241 1.386 . S
C242 C243 1.382 . S
C242 H264 0.950 . S
C243 N239 1.332 . S
C243 C242 1.382 . S
C243 H245 0.952 . S
C244 N239 1.332 . S
C244 C240 1.382 . S
C244 H246 0.948 . S
H245 C243 0.952 . S
H246 C244 0.948 . S
H247 C236 0.952 . S
H248 C238 0.948 . S
C249 C215 1.395 . S
C249 C219 1.391 . S
C250 C212 1.389 . S
C250 C232 1.392 . S
C251 C222 1.392 . S
C251 C224 1.389 . S
C252 C227 1.395 . S
C252 C229 1.391 . S
H253 C213 0.951 . S
H254 C214 0.950 . S
H255 C220 0.949 . S
H256 C221 0.950 . S
H257 C225 0.951 . S
H258 C226 0.950 . S
H259 C230 0.949 . S
H260 C231 0.950 . S
H261 C235 0.950 . S
H262 C237 0.950 . S
H263 C240 0.950 . S
H264 C242 0.950 . S
C265 C266 1.443 . S
C265 N269 1.376 . S
C265 C303 1.389 . S
C266 C265 1.443 . S
C266 C267 1.340 . S
C266 H306 0.951 . S
C267 C266 1.340 . S
C267 C268 1.439 . S
C267 H307 0.950 . S
C268 C267 1.439 . S
C268 N269 1.374 . S
C268 C302 1.395 . S
N269 C265 1.376 . S
N269 C268 1.374 . S
N269 Co270 2.008 . S
Co270 N269 2.008 . S
Co270 N271 1.995 . S
Co270 N276 2.008 . S
Co270 N281 1.995 . S
Co270 N286 2.282 . S
Co270 N292 2.282 . S
N271 Co270 1.995 . S
N271 C272 1.376 . S
N271 C275 1.383 . S
C272 N271 1.376 . S
C272 C273 1.446 . S
C272 C302 1.391 . S
C273 C272 1.446 . S
C273 C274 1.339 . S
C273 H308 0.949 . S
C274 C273 1.339 . S
C274 C275 1.439 . S
C274 H309 0.950 . S
C275 N271 1.383 . S
C275 C274 1.439 . S
C275 C304 1.392 . S
N276 Co270 2.008 . S
N276 C277 1.376 . S
N276 C280 1.374 . S
C277 N276 1.376 . S
C277 C278 1.443 . S
C277 C304 1.389 . S
C278 C277 1.443 . S
C278 C279 1.340 . S
C278 H310 0.951 . S
C279 C278 1.340 . S
C279 C280 1.439 . S
C279 H311 0.950 . S
C280 N276 1.374 . S
C280 C279 1.439 . S
C280 C305 1.395 . S
N281 Co270 1.995 . S
N281 C282 1.376 . S
N281 C285 1.383 . S
C282 N281 1.376 . S
C282 C283 1.446 . S
C282 C305 1.391 . S
C283 C282 1.446 . S
C283 C284 1.339 . S
C283 H312 0.949 . S
C284 C283 1.339 . S
C284 C285 1.439 . S
C284 H313 0.950 . S
C285 N281 1.383 . S
C285 C284 1.439 . S
C285 C303 1.392 . S
N286 Co270 2.282 . S
N286 C289 1.332 . S
N286 C291 1.332 . S
C287 C288 1.386 . S
C287 C290 1.388 . S
C288 C287 1.386 . S
C288 C289 1.382 . S
C288 H314 0.950 . S
C289 N286 1.332 . S
C289 C288 1.382 . S
C289 H300 0.952 . S
C290 C287 1.388 . S
C290 C291 1.382 . S
C290 H315 0.950 . S
C291 N286 1.332 . S
C291 C290 1.382 . S
C291 H301 0.948 . S
N292 Co270 2.282 . S
N292 C296 1.332 . S
N292 C297 1.332 . S
C293 C294 1.388 . S
C293 C297 1.382 . S
C293 H316 0.950 . S
C294 C293 1.388 . S
C294 C295 1.386 . S
C295 C294 1.386 . S
C295 C296 1.382 . S
C295 H317 0.950 . S
C296 N292 1.332 . S
C296 C295 1.382 . S
C296 H298 0.952 . S
C297 N292 1.332 . S
C297 C293 1.382 . S
C297 H299 0.948 . S
H298 C296 0.952 . S
H299 C297 0.948 . S
H300 C289 0.952 . S
H301 C291 0.948 . S
C302 C268 1.395 . S
C302 C272 1.391 . S
C303 C265 1.389 . S
C303 C285 1.392 . S
C304 C275 1.392 . S
C304 C277 1.389 . S
C305 C280 1.395 . S
C305 C282 1.391 . S
H306 C266 0.951 . S
H307 C267 0.950 . S
H308 C273 0.949 . S
H309 C274 0.950 . S
H310 C278 0.951 . S
H311 C279 0.950 . S
H312 C283 0.949 . S
H313 C284 0.950 . S
H314 C288 0.950 . S
H315 C290 0.950 . S
H316 C293 0.950 . S
H317 C295 0.950 . S
C318 C319 1.443 . S
C318 N322 1.376 . S
C318 C356 1.389 . S
C319 C318 1.443 . S
C319 C320 1.340 . S
C319 H359 0.951 . S
C320 C319 1.340 . S
C320 C321 1.439 . S
C320 H360 0.950 . S
C321 C320 1.439 . S
C321 N322 1.374 . S
C321 C355 1.395 . S
N322 C318 1.376 . S
N322 C321 1.374 . S
N322 Co323 2.008 . S
Co323 N322 2.008 . S
Co323 N324 1.995 . S
Co323 N329 2.008 . S
Co323 N334 1.995 . S
Co323 N339 2.282 . S
Co323 N345 2.282 . S
N324 Co323 1.995 . S
N324 C325 1.376 . S
N324 C328 1.383 . S
C325 N324 1.376 . S
C325 C326 1.446 . S
C325 C355 1.391 . S
C326 C325 1.446 . S
C326 C327 1.339 . S
C326 H361 0.949 . S
C327 C326 1.339 . S
C327 C328 1.439 . S
C327 H362 0.950 . S
C328 N324 1.383 . S
C328 C327 1.439 . S
C328 C357 1.392 . S
N329 Co323 2.008 . S
N329 C330 1.376 . S
N329 C333 1.374 . S
C330 N329 1.376 . S
C330 C331 1.443 . S
C330 C357 1.389 . S
C331 C330 1.443 . S
C331 C332 1.340 . S
C331 H363 0.951 . S
C332 C331 1.340 . S
C332 C333 1.439 . S
C332 H364 0.950 . S
C333 N329 1.374 . S
C333 C332 1.439 . S
C333 C358 1.395 . S
N334 Co323 1.995 . S
N334 C335 1.376 . S
N334 C338 1.383 . S
C335 N334 1.376 . S
C335 C336 1.446 . S
C335 C358 1.391 . S
C336 C335 1.446 . S
C336 C337 1.339 . S
C336 H365 0.949 . S
C337 C336 1.339 . S
C337 C338 1.439 . S
C337 H366 0.950 . S
C338 N334 1.383 . S
C338 C337 1.439 . S
C338 C356 1.392 . S
N339 Co323 2.282 . S
N339 C342 1.332 . S
N339 C344 1.332 . S
C340 C341 1.386 . S
C340 C343 1.388 . S
C341 C340 1.386 . S
C341 C342 1.382 . S
C341 H367 0.950 . S
C342 N339 1.332 . S
C342 C341 1.382 . S
C342 H353 0.952 . S
C343 C340 1.388 . S
C343 C344 1.382 . S
C343 H368 0.950 . S
C344 N339 1.332 . S
C344 C343 1.382 . S
C344 H354 0.948 . S
N345 Co323 2.282 . S
N345 C349 1.332 . S
N345 C350 1.332 . S
C346 C347 1.388 . S
C346 C350 1.382 . S
C346 H369 0.950 . S
C347 C346 1.388 . S
C347 C348 1.386 . S
C348 C347 1.386 . S
C348 C349 1.382 . S
C348 H370 0.950 . S
C349 N345 1.332 . S
C349 C348 1.382 . S
C349 H351 0.952 . S
C350 N345 1.332 . S
C350 C346 1.382 . S
C350 H352 0.948 . S
H351 C349 0.952 . S
H352 C350 0.948 . S
H353 C342 0.952 . S
H354 C344 0.948 . S
C355 C321 1.395 . S
C355 C325 1.391 . S
C356 C318 1.389 . S
C356 C338 1.392 . S
C357 C328 1.392 . S
C357 C330 1.389 . S
C358 C333 1.395 . S
C358 C335 1.391 . S
H359 C319 0.951 . S
H360 C320 0.950 . S
H361 C326 0.949 . S
H362 C327 0.950 . S
H363 C331 0.951 . S
H364 C332 0.950 . S
H365 C336 0.949 . S
H366 C337 0.950 . S
H367 C341 0.950 . S
H368 C343 0.950 . S
H369 C346 0.950 . S
H370 C348 0.950 . S
C371 C372 1.443 . S
C371 N375 1.376 . S
C371 C409 1.389 . S
C372 C371 1.443 . S
C372 C373 1.340 . S
C372 H412 0.951 . S
C373 C372 1.340 . S
C373 C374 1.439 . S
C373 H413 0.950 . S
C374 C373 1.439 . S
C374 N375 1.374 . S
C374 C408 1.395 . S
N375 C371 1.376 . S
N375 C374 1.374 . S
N375 Co376 2.008 . S
Co376 N375 2.008 . S
Co376 N377 1.995 . S
Co376 N382 2.008 . S
Co376 N387 1.995 . S
Co376 N392 2.282 . S
Co376 N398 2.282 . S
N377 Co376 1.995 . S
N377 C378 1.376 . S
N377 C381 1.383 . S
C378 N377 1.376 . S
C378 C379 1.446 . S
C378 C408 1.391 . S
C379 C378 1.446 . S
C379 C380 1.339 . S
C379 H414 0.949 . S
C380 C379 1.339 . S
C380 C381 1.439 . S
C380 H415 0.950 . S
C381 N377 1.383 . S
C381 C380 1.439 . S
C381 C410 1.392 . S
N382 Co376 2.008 . S
N382 C383 1.376 . S
N382 C386 1.374 . S
C383 N382 1.376 . S
C383 C384 1.443 . S
C383 C410 1.389 . S
C384 C383 1.443 . S
C384 C385 1.340 . S
C384 H416 0.951 . S
C385 C384 1.340 . S
C385 C386 1.439 . S
C385 H417 0.950 . S
C386 N382 1.374 . S
C386 C385 1.439 . S
C386 C411 1.395 . S
N387 Co376 1.995 . S
N387 C388 1.376 . S
N387 C391 1.383 . S
C388 N387 1.376 . S
C388 C389 1.446 . S
C388 C411 1.391 . S
C389 C388 1.446 . S
C389 C390 1.339 . S
C389 H418 0.949 . S
C390 C389 1.339 . S
C390 C391 1.439 . S
C390 H419 0.950 . S
C391 N387 1.383 . S
C391 C390 1.439 . S
C391 C409 1.392 . S
N392 Co376 2.282 . S
N392 C395 1.332 . S
N392 C397 1.332 . S
C393 C394 1.386 . S
C393 C396 1.388 . S
C394 C393 1.386 . S
C394 C395 1.382 . S
C394 H420 0.950 . S
C395 N392 1.332 . S
C395 C394 1.382 . S
C395 H406 0.952 . S
C396 C393 1.388 . S
C396 C397 1.382 . S
C396 H421 0.950 . S
C397 N392 1.332 . S
C397 C396 1.382 . S
C397 H407 0.948 . S
N398 Co376 2.282 . S
N398 C402 1.332 . S
N398 C403 1.332 . S
C399 C400 1.388 . S
C399 C403 1.382 . S
C399 H422 0.950 . S
C400 C399 1.388 . S
C400 C401 1.386 . S
C401 C400 1.386 . S
C401 C402 1.382 . S
C401 H423 0.950 . S
C402 N398 1.332 . S
C402 C401 1.382 . S
C402 H404 0.952 . S
C403 N398 1.332 . S
C403 C399 1.382 . S
C403 H405 0.948 . S
H404 C402 0.952 . S
H405 C403 0.948 . S
H406 C395 0.952 . S
H407 C397 0.948 . S
C408 C374 1.395 . S
C408 C378 1.391 . S
C409 C371 1.389 . S
C409 C391 1.392 . S
C410 C381 1.392 . S
C410 C383 1.389 . S
C411 C386 1.395 . S
C411 C388 1.391 . S
H412 C372 0.951 . S
H413 C373 0.950 . S
H414 C379 0.949 . S
H415 C380 0.950 . S
H416 C384 0.951 . S
H417 C385 0.950 . S
H418 C389 0.949 . S
H419 C390 0.950 . S
H420 C394 0.950 . S
H421 C396 0.950 . S
H422 C399 0.950 . S
H423 C401 0.950 . S
C424 C425 1.443 . S
C424 N428 1.376 . S
C424 C462 1.389 . S
C425 C424 1.443 . S
C425 C426 1.340 . S
C425 H465 0.951 . S
C426 C425 1.340 . S
C426 C427 1.439 . S
C426 H466 0.950 . S
C427 C426 1.439 . S
C427 N428 1.374 . S
C427 C461 1.395 . S
N428 C424 1.376 . S
N428 C427 1.374 . S
N428 Co429 2.008 . S
Co429 N428 2.008 . S
Co429 N430 1.995 . S
Co429 N435 2.008 . S
Co429 N440 1.995 . S
Co429 N445 2.282 . S
Co429 N451 2.282 . S
N430 Co429 1.995 . S
N430 C431 1.376 . S
N430 C434 1.383 . S
C431 N430 1.376 . S
C431 C432 1.446 . S
C431 C461 1.391 . S
C432 C431 1.446 . S
C432 C433 1.339 . S
C432 H467 0.949 . S
C433 C432 1.339 . S
C433 C434 1.439 . S
C433 H468 0.950 . S
C434 N430 1.383 . S
C434 C433 1.439 . S
C434 C463 1.392 . S
N435 Co429 2.008 . S
N435 C436 1.376 . S
N435 C439 1.374 . S
C436 N435 1.376 . S
C436 C437 1.443 . S
C436 C463 1.389 . S
C437 C436 1.443 . S
C437 C438 1.340 . S
C437 H469 0.951 . S
C438 C437 1.340 . S
C438 C439 1.439 . S
C438 H470 0.950 . S
C439 N435 1.374 . S
C439 C438 1.439 . S
C439 C464 1.395 . S
N440 Co429 1.995 . S
N440 C441 1.376 . S
N440 C444 1.383 . S
C441 N440 1.376 . S
C441 C442 1.446 . S
C441 C464 1.391 . S
C442 C441 1.446 . S
C442 C443 1.339 . S
C442 H471 0.949 . S
C443 C442 1.339 . S
C443 C444 1.439 . S
C443 H472 0.950 . S
C444 N440 1.383 . S
C444 C443 1.439 . S
C444 C462 1.392 . S
N445 Co429 2.282 . S
N445 C448 1.332 . S
N445 C450 1.332 . S
C446 C447 1.386 . S
C446 C449 1.388 . S
C447 C446 1.386 . S
C447 C448 1.382 . S
C447 H473 0.950 . S
C448 N445 1.332 . S
C448 C447 1.382 . S
C448 H459 0.952 . S
C449 C446 1.388 . S
C449 C450 1.382 . S
C449 H474 0.950 . S
C450 N445 1.332 . S
C450 C449 1.382 . S
C450 H460 0.948 . S
N451 Co429 2.282 . S
N451 C455 1.332 . S
N451 C456 1.332 . S
C452 C453 1.388 . S
C452 C456 1.382 . S
C452 H475 0.950 . S
C453 C452 1.388 . S
C453 C454 1.386 . S
C454 C453 1.386 . S
C454 C455 1.382 . S
C454 H476 0.950 . S
C455 N451 1.332 . S
C455 C454 1.382 . S
C455 H457 0.952 . S
C456 N451 1.332 . S
C456 C452 1.382 . S
C456 H458 0.948 . S
H457 C455 0.952 . S
H458 C456 0.948 . S
H459 C448 0.952 . S
H460 C450 0.948 . S
C461 C427 1.395 . S
C461 C431 1.391 . S
C462 C424 1.389 . S
C462 C444 1.392 . S
C463 C434 1.392 . S
C463 C436 1.389 . S
C464 C439 1.395 . S
C464 C441 1.391 . S
H465 C425 0.951 . S
H466 C426 0.950 . S
H467 C432 0.949 . S
H468 C433 0.950 . S
H469 C437 0.951 . S
H470 C438 0.950 . S
H471 C442 0.949 . S
H472 C443 0.950 . S
H473 C447 0.950 . S
H474 C449 0.950 . S
H475 C452 0.950 . S
H476 C454 0.950 . S
C477 C478 1.443 . S
C477 N481 1.376 . S
C477 C515 1.389 . S
C478 C477 1.443 . S
C478 C479 1.340 . S
C478 H518 0.951 . S
C479 C478 1.340 . S
C479 C480 1.439 . S
C479 H519 0.950 . S
C480 C479 1.439 . S
C480 N481 1.374 . S
C480 C514 1.395 . S
N481 C477 1.376 . S
N481 C480 1.374 . S
N481 Co482 2.008 . S
Co482 N481 2.008 . S
Co482 N483 1.995 . S
Co482 N488 2.008 . S
Co482 N493 1.995 . S
Co482 N498 2.282 . S
Co482 N504 2.282 . S
N483 Co482 1.995 . S
N483 C484 1.376 . S
N483 C487 1.383 . S
C484 N483 1.376 . S
C484 C485 1.446 . S
C484 C514 1.391 . S
C485 C484 1.446 . S
C485 C486 1.339 . S
C485 H520 0.949 . S
C486 C485 1.339 . S
C486 C487 1.439 . S
C486 H521 0.950 . S
C487 N483 1.383 . S
C487 C486 1.439 . S
C487 C516 1.392 . S
N488 Co482 2.008 . S
N488 C489 1.376 . S
N488 C492 1.374 . S
C489 N488 1.376 . S
C489 C490 1.443 . S
C489 C516 1.389 . S
C490 C489 1.443 . S
C490 C491 1.340 . S
C490 H522 0.951 . S
C491 C490 1.340 . S
C491 C492 1.439 . S
C491 H523 0.950 . S
C492 N488 1.374 . S
C492 C491 1.439 . S
C492 C517 1.395 . S
N493 Co482 1.995 . S
N493 C494 1.376 . S
N493 C497 1.383 . S
C494 N493 1.376 . S
C494 C495 1.446 . S
C494 C517 1.391 . S
C495 C494 1.446 . S
C495 C496 1.339 . S
C495 H524 0.949 . S
C496 C495 1.339 . S
C496 C497 1.439 . S
C496 H525 0.950 . S
C497 N493 1.383 . S
C497 C496 1.439 . S
C497 C515 1.392 . S
N498 Co482 2.282 . S
N498 C501 1.332 . S
N498 C503 1.332 . S
C499 C500 1.386 . S
C499 C502 1.388 . S
C500 C499 1.386 . S
C500 C501 1.382 . S
C500 H526 0.950 . S
C501 N498 1.332 . S
C501 C500 1.382 . S
C501 H512 0.952 . S
C502 C499 1.388 . S
C502 C503 1.382 . S
C502 H527 0.950 . S
C503 N498 1.332 . S
C503 C502 1.382 . S
C503 H513 0.948 . S
N504 Co482 2.282 . S
N504 C508 1.332 . S
N504 C509 1.332 . S
C505 C506 1.388 . S
C505 C509 1.382 . S
C505 H528 0.950 . S
C506 C505 1.388 . S
C506 C507 1.386 . S
C507 C506 1.386 . S
C507 C508 1.382 . S
C507 H529 0.950 . S
C508 N504 1.332 . S
C508 C507 1.382 . S
C508 H510 0.952 . S
C509 N504 1.332 . S
C509 C505 1.382 . S
C509 H511 0.948 . S
H510 C508 0.952 . S
H511 C509 0.948 . S
H512 C501 0.952 . S
H513 C503 0.948 . S
C514 C480 1.395 . S
C514 C484 1.391 . S
C515 C477 1.389 . S
C515 C497 1.392 . S
C516 C487 1.392 . S
C516 C489 1.389 . S
C517 C492 1.395 . S
C517 C494 1.391 . S
H518 C478 0.951 . S
H519 C479 0.950 . S
H520 C485 0.949 . S
H521 C486 0.950 . S
H522 C490 0.951 . S
H523 C491 0.950 . S
H524 C495 0.949 . S
H525 C496 0.950 . S
H526 C500 0.950 . S
H527 C502 0.950 . S
H528 C505 0.950 . S
H529 C507 0.950 . S
C530 C531 1.443 . S
C530 N534 1.376 . S
C530 C568 1.389 . S
C531 C530 1.443 . S
C531 C532 1.340 . S
C531 H571 0.951 . S
C532 C531 1.340 . S
C532 C533 1.439 . S
C532 H572 0.950 . S
C533 C532 1.439 . S
C533 N534 1.374 . S
C533 C567 1.395 . S
N534 C530 1.376 . S
N534 C533 1.374 . S
N534 Co535 2.008 . S
Co535 N534 2.008 . S
Co535 N536 1.995 . S
Co535 N541 2.008 . S
Co535 N546 1.995 . S
Co535 N551 2.282 . S
Co535 N557 2.282 . S
N536 Co535 1.995 . S
N536 C537 1.376 . S
N536 C540 1.383 . S
C537 N536 1.376 . S
C537 C538 1.446 . S
C537 C567 1.391 . S
C538 C537 1.446 . S
C538 C539 1.339 . S
C538 H573 0.949 . S
C539 C538 1.339 . S
C539 C540 1.439 . S
C539 H574 0.950 . S
C540 N536 1.383 . S
C540 C539 1.439 . S
C540 C569 1.392 . S
N541 Co535 2.008 . S
N541 C542 1.376 . S
N541 C545 1.374 . S
C542 N541 1.376 . S
C542 C543 1.443 . S
C542 C569 1.389 . S
C543 C542 1.443 . S
C543 C544 1.340 . S
C543 H575 0.951 . S
C544 C543 1.340 . S
C544 C545 1.439 . S
C544 H576 0.950 . S
C545 N541 1.374 . S
C545 C544 1.439 . S
C545 C570 1.395 . S
N546 Co535 1.995 . S
N546 C547 1.376 . S
N546 C550 1.383 . S
C547 N546 1.376 . S
C547 C548 1.446 . S
C547 C570 1.391 . S
C548 C547 1.446 . S
C548 C549 1.339 . S
C548 H577 0.949 . S
C549 C548 1.339 . S
C549 C550 1.439 . S
C549 H578 0.950 . S
C550 N546 1.383 . S
C550 C549 1.439 . S
C550 C568 1.392 . S
N551 Co535 2.282 . S
N551 C554 1.332 . S
N551 C556 1.332 . S
C552 C553 1.386 . S
C552 C555 1.388 . S
C553 C552 1.386 . S
C553 C554 1.382 . S
C553 H579 0.950 . S
C554 N551 1.332 . S
C554 C553 1.382 . S
C554 H565 0.952 . S
C555 C552 1.388 . S
C555 C556 1.382 . S
C555 H580 0.950 . S
C556 N551 1.332 . S
C556 C555 1.382 . S
C556 H566 0.948 . S
N557 Co535 2.282 . S
N557 C561 1.332 . S
N557 C562 1.332 . S
C558 C559 1.388 . S
C558 C562 1.382 . S
C558 H581 0.950 . S
C559 C558 1.388 . S
C559 C560 1.386 . S
C560 C559 1.386 . S
C560 C561 1.382 . S
C560 H582 0.950 . S
C561 N557 1.332 . S
C561 C560 1.382 . S
C561 H563 0.952 . S
C562 N557 1.332 . S
C562 C558 1.382 . S
C562 H564 0.948 . S
H563 C561 0.952 . S
H564 C562 0.948 . S
H565 C554 0.952 . S
H566 C556 0.948 . S
C567 C533 1.395 . S
C567 C537 1.391 . S
C568 C530 1.389 . S
C568 C550 1.392 . S
C569 C540 1.392 . S
C569 C542 1.389 . S
C570 C545 1.395 . S
C570 C547 1.391 . S
H571 C531 0.951 . S
H572 C532 0.950 . S
H573 C538 0.949 . S
H574 C539 0.950 . S
H575 C543 0.951 . S
H576 C544 0.950 . S
H577 C548 0.949 . S
H578 C549 0.950 . S
H579 C553 0.950 . S
H580 C555 0.950 . S
H581 C558 0.950 . S
H582 C560 0.950 . S
C583 C584 1.443 . S
C583 N587 1.376 . S
C583 C621 1.389 . S
C584 C583 1.443 . S
C584 C585 1.340 . S
C584 H624 0.951 . S
C585 C584 1.340 . S
C585 C586 1.439 . S
C585 H625 0.950 . S
C586 C585 1.439 . S
C586 N587 1.374 . S
C586 C620 1.395 . S
N587 C583 1.376 . S
N587 C586 1.374 . S
N587 Co588 2.008 . S
Co588 N587 2.008 . S
Co588 N589 1.995 . S
Co588 N594 2.008 . S
Co588 N599 1.995 . S
Co588 N604 2.282 . S
Co588 N610 2.282 . S
N589 Co588 1.995 . S
N589 C590 1.376 . S
N589 C593 1.383 . S
C590 N589 1.376 . S
C590 C591 1.446 . S
C590 C620 1.391 . S
C591 C590 1.446 . S
C591 C592 1.339 . S
C591 H626 0.949 . S
C592 C591 1.339 . S
C592 C593 1.439 . S
C592 H627 0.950 . S
C593 N589 1.383 . S
C593 C592 1.439 . S
C593 C622 1.392 . S
N594 Co588 2.008 . S
N594 C595 1.376 . S
N594 C598 1.374 . S
C595 N594 1.376 . S
C595 C596 1.443 . S
C595 C622 1.389 . S
C596 C595 1.443 . S
C596 C597 1.340 . S
C596 H628 0.951 . S
C597 C596 1.340 . S
C597 C598 1.439 . S
C597 H629 0.950 . S
C598 N594 1.374 . S
C598 C597 1.439 . S
C598 C623 1.395 . S
N599 Co588 1.995 . S
N599 C600 1.376 . S
N599 C603 1.383 . S
C600 N599 1.376 . S
C600 C601 1.446 . S
C600 C623 1.391 . S
C601 C600 1.446 . S
C601 C602 1.339 . S
C601 H630 0.949 . S
C602 C601 1.339 . S
C602 C603 1.439 . S
C602 H631 0.950 . S
C603 N599 1.383 . S
C603 C602 1.439 . S
C603 C621 1.392 . S
N604 Co588 2.282 . S
N604 C607 1.332 . S
N604 C609 1.332 . S
C605 C606 1.386 . S
C605 C608 1.388 . S
C606 C605 1.386 . S
C606 C607 1.382 . S
C606 H632 0.950 . S
C607 N604 1.332 . S
C607 C606 1.382 . S
C607 H618 0.952 . S
C608 C605 1.388 . S
C608 C609 1.382 . S
C608 H633 0.950 . S
C609 N604 1.332 . S
C609 C608 1.382 . S
C609 H619 0.948 . S
N610 Co588 2.282 . S
N610 C614 1.332 . S
N610 C615 1.332 . S
C611 C612 1.388 . S
C611 C615 1.382 . S
C611 H634 0.950 . S
C612 C611 1.388 . S
C612 C613 1.386 . S
C613 C612 1.386 . S
C613 C614 1.382 . S
C613 H635 0.950 . S
C614 N610 1.332 . S
C614 C613 1.382 . S
C614 H616 0.952 . S
C615 N610 1.332 . S
C615 C611 1.382 . S
C615 H617 0.948 . S
H616 C614 0.952 . S
H617 C615 0.948 . S
H618 C607 0.952 . S
H619 C609 0.948 . S
C620 C586 1.395 . S
C620 C590 1.391 . S
C621 C583 1.389 . S
C621 C603 1.392 . S
C622 C593 1.392 . S
C622 C595 1.389 . S
C623 C598 1.395 . S
C623 C600 1.391 . S
H624 C584 0.951 . S
H625 C585 0.950 . S
H626 C591 0.949 . S
H627 C592 0.950 . S
H628 C596 0.951 . S
H629 C597 0.950 . S
H630 C601 0.949 . S
H631 C602 0.950 . S
H632 C606 0.950 . S
H633 C608 0.950 . S
H634 C611 0.950 . S
H635 C613 0.950 . S
H636 C644 0.929 . S
H637 C646 0.930 . S
H638 C648 0.930 . S
H639 C651 0.929 . S
H640 C654 0.930 . S
H641 C656 0.960 . S
H642 C656 0.960 . S
H643 C656 0.960 . S
C644 H636 0.929 . S
C644 C645 1.377 . S
C644 C646 1.384 . S
C645 C644 1.377 . S
C645 C651 1.390 . S
C646 H637 0.930 . S
C646 C644 1.384 . S
C646 C647 1.372 . S
C647 C646 1.372 . S
C647 C648 1.400 . S
C647 C652 1.490 . S
C648 H638 0.930 . S
C648 C647 1.400 . S
C648 C651 1.386 . S
H649 C665 0.930 . S
H650 C666 0.931 . S
C651 H639 0.929 . S
C651 C645 1.390 . S
C651 C648 1.386 . S
C652 C647 1.490 . S
C652 C654 1.395 . S
C652 C655 1.403 . S
H653 C659 0.930 . S
C654 H640 0.930 . S
C654 C652 1.395 . S
C654 C657 1.403 . S
C655 C652 1.403 . S
C655 C656 1.524 . S
C655 C659 1.400 . S
C656 H641 0.960 . S
C656 H642 0.960 . S
C656 H643 0.960 . S
C656 C655 1.524 . S
C657 C654 1.403 . S
C657 C658 1.392 . S
C657 C661 1.495 . S
C658 C657 1.392 . S
C658 C659 1.385 . S
C658 C660 1.478 . S
C659 H653 0.930 . S
C659 C655 1.400 . S
C659 C658 1.385 . S
C660 C658 1.478 . S
C660 C662 1.381 . S
C660 C666 1.383 . S
C661 C657 1.495 . S
C661 H667 0.959 . S
C661 H668 0.961 . S
C661 H669 0.960 . S
C662 C660 1.381 . S
C662 C663 1.394 . S
C662 H670 0.930 . S
C663 C662 1.394 . S
C663 C664 1.383 . S
C663 H671 0.929 . S
C664 C663 1.383 . S
C664 C665 1.377 . S
C665 H649 0.930 . S
C665 C664 1.377 . S
C665 C666 1.379 . S
C666 H650 0.931 . S
C666 C660 1.383 . S
C666 C665 1.379 . S
H667 C661 0.959 . S
H668 C661 0.961 . S
H669 C661 0.960 . S
H670 C662 0.930 . S
H671 C663 0.929 . S
H672 C680 0.929 . S
H673 C682 0.930 . S
H674 C684 0.930 . S
H675 C687 0.929 . S
H676 C690 0.930 . S
H677 C692 0.960 . S
H678 C692 0.960 . S
H679 C692 0.960 . S
C680 H672 0.929 . S
C680 C681 1.377 . S
C680 C682 1.384 . S
C681 C680 1.377 . S
C681 C687 1.390 . S
C682 H673 0.930 . S
C682 C680 1.384 . S
C682 C683 1.372 . S
C683 C682 1.372 . S
C683 C684 1.400 . S
C683 C688 1.490 . S
C684 H674 0.930 . S
C684 C683 1.400 . S
C684 C687 1.386 . S
H685 C701 0.930 . S
H686 C702 0.931 . S
C687 H675 0.929 . S
C687 C681 1.390 . S
C687 C684 1.386 . S
C688 C683 1.490 . S
C688 C690 1.395 . S
C688 C691 1.403 . S
H689 C695 0.930 . S
C690 H676 0.930 . S
C690 C688 1.395 . S
C690 C693 1.403 . S
C691 C688 1.403 . S
C691 C692 1.524 . S
C691 C695 1.400 . S
C692 H677 0.960 . S
C692 H678 0.960 . S
C692 H679 0.960 . S
C692 C691 1.524 . S
C693 C690 1.403 . S
C693 C694 1.392 . S
C693 C697 1.495 . S
C694 C693 1.392 . S
C694 C695 1.385 . S
C694 C696 1.478 . S
C695 H689 0.930 . S
C695 C691 1.400 . S
C695 C694 1.385 . S
C696 C694 1.478 . S
C696 C698 1.381 . S
C696 C702 1.383 . S
C697 C693 1.495 . S
C697 H703 0.959 . S
C697 H704 0.961 . S
C697 H705 0.960 . S
C698 C696 1.381 . S
C698 C699 1.394 . S
C698 H706 0.930 . S
C699 C698 1.394 . S
C699 C700 1.383 . S
C699 H707 0.929 . S
C700 C699 1.383 . S
C700 C701 1.377 . S
C701 H685 0.930 . S
C701 C700 1.377 . S
C701 C702 1.379 . S
C702 H686 0.931 . S
C702 C696 1.383 . S
C702 C701 1.379 . S
H703 C697 0.959 . S
H704 C697 0.961 . S
H705 C697 0.960 . S
H706 C698 0.930 . S
H707 C699 0.929 . S
H708 C716 0.929 . S
H709 C718 0.930 . S
H710 C720 0.930 . S
H711 C723 0.929 . S
H712 C726 0.930 . S
H713 C728 0.960 . S
H714 C728 0.960 . S
H715 C728 0.960 . S
C716 H708 0.929 . S
C716 C717 1.377 . S
C716 C718 1.384 . S
C717 C716 1.377 . S
C717 C723 1.390 . S
C718 H709 0.930 . S
C718 C716 1.384 . S
C718 C719 1.372 . S
C719 C718 1.372 . S
C719 C720 1.400 . S
C719 C724 1.490 . S
C720 H710 0.930 . S
C720 C719 1.400 . S
C720 C723 1.386 . S
H721 C737 0.930 . S
H722 C738 0.931 . S
C723 H711 0.929 . S
C723 C717 1.390 . S
C723 C720 1.386 . S
C724 C719 1.490 . S
C724 C726 1.395 . S
C724 C727 1.403 . S
H725 C731 0.930 . S
C726 H712 0.930 . S
C726 C724 1.395 . S
C726 C729 1.403 . S
C727 C724 1.403 . S
C727 C728 1.524 . S
C727 C731 1.400 . S
C728 H713 0.960 . S
C728 H714 0.960 . S
C728 H715 0.960 . S
C728 C727 1.524 . S
C729 C726 1.403 . S
C729 C730 1.392 . S
C729 C733 1.495 . S
C730 C729 1.392 . S
C730 C731 1.385 . S
C730 C732 1.478 . S
C731 H725 0.930 . S
C731 C727 1.400 . S
C731 C730 1.385 . S
C732 C730 1.478 . S
C732 C734 1.381 . S
C732 C738 1.383 . S
C733 C729 1.495 . S
C733 H739 0.959 . S
C733 H740 0.961 . S
C733 H741 0.960 . S
C734 C732 1.381 . S
C734 C735 1.394 . S
C734 H742 0.930 . S
C735 C734 1.394 . S
C735 C736 1.383 . S
C735 H743 0.929 . S
C736 C735 1.383 . S
C736 C737 1.377 . S
C737 H721 0.930 . S
C737 C736 1.377 . S
C737 C738 1.379 . S
C738 H722 0.931 . S
C738 C732 1.383 . S
C738 C737 1.379 . S
H739 C733 0.959 . S
H740 C733 0.961 . S
H741 C733 0.960 . S
H742 C734 0.930 . S
H743 C735 0.929 . S
H744 C752 0.929 . S
H745 C754 0.930 . S
H746 C756 0.930 . S
H747 C759 0.929 . S
H748 C762 0.930 . S
H749 C764 0.960 . S
H750 C764 0.960 . S
H751 C764 0.960 . S
C752 H744 0.929 . S
C752 C753 1.377 . S
C752 C754 1.384 . S
C753 C752 1.377 . S
C753 C759 1.390 . S
C754 H745 0.930 . S
C754 C752 1.384 . S
C754 C755 1.372 . S
C755 C754 1.372 . S
C755 C756 1.400 . S
C755 C760 1.490 . S
C756 H746 0.930 . S
C756 C755 1.400 . S
C756 C759 1.386 . S
H757 C773 0.930 . S
H758 C774 0.931 . S
C759 H747 0.929 . S
C759 C753 1.390 . S
C759 C756 1.386 . S
C760 C755 1.490 . S
C760 C762 1.395 . S
C760 C763 1.403 . S
H761 C767 0.930 . S
C762 H748 0.930 . S
C762 C760 1.395 . S
C762 C765 1.403 . S
C763 C760 1.403 . S
C763 C764 1.524 . S
C763 C767 1.400 . S
C764 H749 0.960 . S
C764 H750 0.960 . S
C764 H751 0.960 . S
C764 C763 1.524 . S
C765 C762 1.403 . S
C765 C766 1.392 . S
C765 C769 1.495 . S
C766 C765 1.392 . S
C766 C767 1.385 . S
C766 C768 1.478 . S
C767 H761 0.930 . S
C767 C763 1.400 . S
C767 C766 1.385 . S
C768 C766 1.478 . S
C768 C770 1.381 . S
C768 C774 1.383 . S
C769 C765 1.495 . S
C769 H775 0.959 . S
C769 H776 0.961 . S
C769 H777 0.960 . S
C770 C768 1.381 . S
C770 C771 1.394 . S
C770 H778 0.930 . S
C771 C770 1.394 . S
C771 C772 1.383 . S
C771 H779 0.929 . S
C772 C771 1.383 . S
C772 C773 1.377 . S
C773 H757 0.930 . S
C773 C772 1.377 . S
C773 C774 1.379 . S
C774 H758 0.931 . S
C774 C768 1.383 . S
C774 C773 1.379 . S
H775 C769 0.959 . S
H776 C769 0.961 . S
H777 C769 0.960 . S
H778 C770 0.930 . S
H779 C771 0.929 . S
H780 C788 0.929 . S
H781 C790 0.930 . S
H782 C792 0.930 . S
H783 C795 0.929 . S
H784 C798 0.930 . S
H785 C800 0.960 . S
H786 C800 0.960 . S
H787 C800 0.960 . S
C788 H780 0.929 . S
C788 C789 1.377 . S
C788 C790 1.384 . S
C789 C788 1.377 . S
C789 C795 1.390 . S
C790 H781 0.930 . S
C790 C788 1.384 . S
C790 C791 1.372 . S
C791 C790 1.372 . S
C791 C792 1.400 . S
C791 C796 1.490 . S
C792 H782 0.930 . S
C792 C791 1.400 . S
C792 C795 1.386 . S
H793 C809 0.930 . S
H794 C810 0.931 . S
C795 H783 0.929 . S
C795 C789 1.390 . S
C795 C792 1.386 . S
C796 C791 1.490 . S
C796 C798 1.395 . S
C796 C799 1.403 . S
H797 C803 0.930 . S
C798 H784 0.930 . S
C798 C796 1.395 . S
C798 C801 1.403 . S
C799 C796 1.403 . S
C799 C800 1.524 . S
C799 C803 1.400 . S
C800 H785 0.960 . S
C800 H786 0.960 . S
C800 H787 0.960 . S
C800 C799 1.524 . S
C801 C798 1.403 . S
C801 C802 1.392 . S
C801 C805 1.495 . S
C802 C801 1.392 . S
C802 C803 1.385 . S
C802 C804 1.478 . S
C803 H797 0.930 . S
C803 C799 1.400 . S
C803 C802 1.385 . S
C804 C802 1.478 . S
C804 C806 1.381 . S
C804 C810 1.383 . S
C805 C801 1.495 . S
C805 H811 0.959 . S
C805 H812 0.961 . S
C805 H813 0.960 . S
C806 C804 1.381 . S
C806 C807 1.394 . S
C806 H814 0.930 . S
C807 C806 1.394 . S
C807 C808 1.383 . S
C807 H815 0.929 . S
C808 C807 1.383 . S
C808 C809 1.377 . S
C809 H793 0.930 . S
C809 C808 1.377 . S
C809 C810 1.379 . S
C810 H794 0.931 . S
C810 C804 1.383 . S
C810 C809 1.379 . S
H811 C805 0.959 . S
H812 C805 0.961 . S
H813 C805 0.960 . S
H814 C806 0.930 . S
H815 C807 0.929 . S
H816 C824 0.929 . S
H817 C826 0.930 . S
H818 C828 0.930 . S
H819 C831 0.929 . S
H820 C834 0.930 . S
H821 C836 0.960 . S
H822 C836 0.960 . S
H823 C836 0.960 . S
C824 H816 0.929 . S
C824 C825 1.377 . S
C824 C826 1.384 . S
C825 C824 1.377 . S
C825 C831 1.390 . S
C826 H817 0.930 . S
C826 C824 1.384 . S
C826 C827 1.372 . S
C827 C826 1.372 . S
C827 C828 1.400 . S
C827 C832 1.490 . S
C828 H818 0.930 . S
C828 C827 1.400 . S
C828 C831 1.386 . S
H829 C845 0.930 . S
H830 C846 0.931 . S
C831 H819 0.929 . S
C831 C825 1.390 . S
C831 C828 1.386 . S
C832 C827 1.490 . S
C832 C834 1.395 . S
C832 C835 1.403 . S
H833 C839 0.930 . S
C834 H820 0.930 . S
C834 C832 1.395 . S
C834 C837 1.403 . S
C835 C832 1.403 . S
C835 C836 1.524 . S
C835 C839 1.400 . S
C836 H821 0.960 . S
C836 H822 0.960 . S
C836 H823 0.960 . S
C836 C835 1.524 . S
C837 C834 1.403 . S
C837 C838 1.392 . S
C837 C841 1.495 . S
C838 C837 1.392 . S
C838 C839 1.385 . S
C838 C840 1.478 . S
C839 H833 0.930 . S
C839 C835 1.400 . S
C839 C838 1.385 . S
C840 C838 1.478 . S
C840 C842 1.381 . S
C840 C846 1.383 . S
C841 C837 1.495 . S
C841 H847 0.959 . S
C841 H848 0.961 . S
C841 H849 0.960 . S
C842 C840 1.381 . S
C842 C843 1.394 . S
C842 H850 0.930 . S
C843 C842 1.394 . S
C843 C844 1.383 . S
C843 H851 0.929 . S
C844 C843 1.383 . S
C844 C845 1.377 . S
C845 H829 0.930 . S
C845 C844 1.377 . S
C845 C846 1.379 . S
C846 H830 0.931 . S
C846 C840 1.383 . S
C846 C845 1.379 . S
H847 C841 0.959 . S
H848 C841 0.961 . S
H849 C841 0.960 . S
H850 C842 0.930 . S
H851 C843 0.929 . S
H852 C860 0.929 . S
H853 C862 0.930 . S
H854 C864 0.930 . S
H855 C867 0.929 . S
H856 C870 0.930 . S
H857 C872 0.960 . S
H858 C872 0.960 . S
H859 C872 0.960 . S
C860 H852 0.929 . S
C860 C861 1.377 . S
C860 C862 1.384 . S
C861 C860 1.377 . S
C861 C867 1.390 . S
C862 H853 0.930 . S
C862 C860 1.384 . S
C862 C863 1.372 . S
C863 C862 1.372 . S
C863 C864 1.400 . S
C863 C868 1.490 . S
C864 H854 0.930 . S
C864 C863 1.400 . S
C864 C867 1.386 . S
H865 C881 0.930 . S
H866 C882 0.931 . S
C867 H855 0.929 . S
C867 C861 1.390 . S
C867 C864 1.386 . S
C868 C863 1.490 . S
C868 C870 1.395 . S
C868 C871 1.403 . S
H869 C875 0.930 . S
C870 H856 0.930 . S
C870 C868 1.395 . S
C870 C873 1.403 . S
C871 C868 1.403 . S
C871 C872 1.524 . S
C871 C875 1.400 . S
C872 H857 0.960 . S
C872 H858 0.960 . S
C872 H859 0.960 . S
C872 C871 1.524 . S
C873 C870 1.403 . S
C873 C874 1.392 . S
C873 C877 1.495 . S
C874 C873 1.392 . S
C874 C875 1.385 . S
C874 C876 1.478 . S
C875 H869 0.930 . S
C875 C871 1.400 . S
C875 C874 1.385 . S
C876 C874 1.478 . S
C876 C878 1.381 . S
C876 C882 1.383 . S
C877 C873 1.495 . S
C877 H883 0.959 . S
C877 H884 0.961 . S
C877 H885 0.960 . S
C878 C876 1.381 . S
C878 C879 1.394 . S
C878 H886 0.930 . S
C879 C878 1.394 . S
C879 C880 1.383 . S
C879 H887 0.929 . S
C880 C879 1.383 . S
C880 C881 1.377 . S
C881 H865 0.930 . S
C881 C880 1.377 . S
C881 C882 1.379 . S
C882 H866 0.931 . S
C882 C876 1.383 . S
C882 C881 1.379 . S
H883 C877 0.959 . S
H884 C877 0.961 . S
H885 C877 0.960 . S
H886 C878 0.930 . S
H887 C879 0.929 . S
H888 C896 0.929 . S
H889 C898 0.930 . S
H890 C900 0.930 . S
H891 C903 0.929 . S
H892 C906 0.930 . S
H893 C908 0.960 . S
H894 C908 0.960 . S
H895 C908 0.960 . S
C896 H888 0.929 . S
C896 C897 1.377 . S
C896 C898 1.384 . S
C897 C896 1.377 . S
C897 C903 1.390 . S
C898 H889 0.930 . S
C898 C896 1.384 . S
C898 C899 1.372 . S
C899 C898 1.372 . S
C899 C900 1.400 . S
C899 C904 1.490 . S
C900 H890 0.930 . S
C900 C899 1.400 . S
C900 C903 1.386 . S
H901 C917 0.930 . S
H902 C918 0.931 . S
C903 H891 0.929 . S
C903 C897 1.390 . S
C903 C900 1.386 . S
C904 C899 1.490 . S
C904 C906 1.395 . S
C904 C907 1.403 . S
H905 C911 0.930 . S
C906 H892 0.930 . S
C906 C904 1.395 . S
C906 C909 1.403 . S
C907 C904 1.403 . S
C907 C908 1.524 . S
C907 C911 1.400 . S
C908 H893 0.960 . S
C908 H894 0.960 . S
C908 H895 0.960 . S
C908 C907 1.524 . S
C909 C906 1.403 . S
C909 C910 1.392 . S
C909 C913 1.495 . S
C910 C909 1.392 . S
C910 C911 1.385 . S
C910 C912 1.478 1_655 S
C911 H905 0.930 . S
C911 C907 1.400 . S
C911 C910 1.385 . S
C912 C910 1.478 1_455 S
C912 C914 1.381 . S
C912 C918 1.383 . S
C913 C909 1.495 . S
C913 H919 0.959 . S
C913 H920 0.961 1_655 S
C913 H921 0.960 . S
C914 C912 1.381 . S
C914 C915 1.394 . S
C914 H922 0.913 1_455 S
C915 C914 1.394 . S
C915 C916 1.383 . S
C915 H923 0.929 . S
C916 C915 1.383 . S
C916 C917 1.377 . S
C917 H901 0.930 . S
C917 C916 1.377 . S
C917 C918 1.379 . S
C918 H902 0.931 . S
C918 C912 1.383 . S
C918 C917 1.379 . S
H919 C913 0.959 . S
H920 C913 0.961 1_455 S
H921 C913 0.960 . S
H922 C914 0.913 1_655 S
H923 C915 0.929 . S
H924 C932 0.929 . S
H925 C934 0.930 . S
H926 C936 0.930 . S
H927 C939 0.929 . S
H928 C942 0.930 . S
H929 C944 0.960 1_565 S
H930 C944 0.960 . S
H931 C944 0.960 . S
C932 H924 0.929 . S
C932 C933 1.377 . S
C932 C934 1.384 . S
C933 C932 1.377 . S
C933 C939 1.390 . S
C934 H925 0.930 . S
C934 C932 1.384 . S
C934 C935 1.372 . S
C935 C934 1.372 . S
C935 C936 1.400 . S
C935 C940 1.490 . S
C936 H926 0.930 . S
C936 C935 1.400 . S
C936 C939 1.386 . S
H937 C953 0.930 . S
H938 C954 0.931 . S
C939 H927 0.929 . S
C939 C933 1.390 . S
C939 C936 1.386 . S
C940 C935 1.490 . S
C940 C942 1.395 . S
C940 C943 1.403 . S
H941 C947 0.930 . S
C942 H928 0.930 . S
C942 C940 1.395 . S
C942 C945 1.403 1_545 S
C943 C940 1.403 . S
C943 C944 1.524 . S
C943 C947 1.400 1_545 S
C944 H929 0.960 1_545 S
C944 H930 0.960 . S
C944 H931 0.960 . S
C944 C943 1.524 . S
C945 C942 1.403 1_565 S
C945 C946 1.392 . S
C945 C949 1.495 . S
C946 C945 1.392 . S
C946 C947 1.385 . S
C946 C948 1.478 . S
C947 H941 0.930 . S
C947 C943 1.400 1_565 S
C947 C946 1.385 . S
C948 C946 1.478 . S
C948 C950 1.381 . S
C948 C954 1.383 . S
C949 C945 1.495 . S
C949 H955 0.959 1_565 S
C949 H956 0.961 . S
C949 H957 0.960 . S
C950 C948 1.381 . S
C950 C951 1.394 . S
C950 H958 0.930 . S
C951 C950 1.394 . S
C951 C952 1.383 . S
C951 H959 0.929 . S
C952 C951 1.383 . S
C952 C953 1.377 . S
C953 H937 0.930 . S
C953 C952 1.377 . S
C953 C954 1.379 . S
C954 H938 0.931 . S
C954 C948 1.383 . S
C954 C953 1.379 . S
H955 C949 0.959 1_545 S
H956 C949 0.961 . S
H957 C949 0.960 . S
H958 C950 0.930 . S
H959 C951 0.929 . S
H960 C968 0.929 . S
H961 C970 0.930 . S
H962 C972 0.930 . S
H963 C975 0.929 . S
H964 C978 0.930 . S
H965 C980 0.960 . S
H966 C980 0.960 . S
H967 C980 0.960 . S
C968 H960 0.929 . S
C968 C969 1.377 . S
C968 C970 1.384 . S
C969 C968 1.377 . S
C969 C975 1.390 . S
C970 H961 0.930 . S
C970 C968 1.384 . S
C970 C971 1.372 . S
C971 C970 1.372 . S
C971 C972 1.400 . S
C971 C976 1.490 . S
C972 H962 0.930 . S
C972 C971 1.400 . S
C972 C975 1.386 . S
H973 C989 0.930 . S
H974 C990 0.931 . S
C975 H963 0.929 . S
C975 C969 1.390 . S
C975 C972 1.386 . S
C976 C971 1.490 . S
C976 C978 1.395 . S
C976 C979 1.403 . S
H977 C983 0.930 . S
C978 H964 0.930 . S
C978 C976 1.395 . S
C978 C981 1.403 . S
C979 C976 1.403 . S
C979 C980 1.524 . S
C979 C983 1.400 . S
C980 H965 0.960 . S
C980 H966 0.960 . S
C980 H967 0.960 . S
C980 C979 1.524 . S
C981 C978 1.403 . S
C981 C982 1.392 . S
C981 C985 1.495 . S
C982 C981 1.392 . S
C982 C983 1.385 . S
C982 C984 1.478 . S
C983 H977 0.930 . S
C983 C979 1.400 . S
C983 C982 1.385 . S
C984 C982 1.478 . S
C984 C986 1.381 . S
C984 C990 1.383 . S
C985 C981 1.495 . S
C985 H991 0.959 . S
C985 H992 0.961 . S
C985 H993 0.960 . S
C986 C984 1.381 . S
C986 C987 1.394 . S
C986 H994 0.930 . S
C987 C986 1.394 . S
C987 C988 1.383 . S
C987 H995 0.929 . S
C988 C987 1.383 . S
C988 C989 1.377 . S
C989 H973 0.930 . S
C989 C988 1.377 . S
C989 C990 1.379 . S
C990 H974 0.931 . S
C990 C984 1.383 . S
C990 C989 1.379 . S
H991 C985 0.959 . S
H992 C985 0.961 . S
H993 C985 0.960 . S
H994 C986 0.930 . S
H995 C987 0.929 . S
H996 C1004 0.929 . S
H997 C1006 0.939 . S
H998 C1008 0.930 . S
H999 C1011 0.929 . S
H1000 C1014 0.930 . S
H1001 C1016 0.960 . S
H1002 C1016 0.960 . S
H1003 C1016 0.960 . S
C1004 H996 0.929 . S
C1004 C1005 1.377 . S
C1004 C1006 1.384 . S
C1005 C1004 1.377 . S
C1005 C1011 1.390 . S
C1006 H997 0.939 . S
C1006 C1004 1.384 . S
C1006 C1007 1.372 . S
C1007 C1006 1.372 . S
C1007 C1008 1.400 . S
C1007 C1012 1.490 1_655 S
C1008 H998 0.930 . S
C1008 C1007 1.400 . S
C1008 C1011 1.386 . S
H1009 C1025 0.930 . S
H1010 C1026 0.931 . S
C1011 H999 0.929 . S
C1011 C1005 1.390 . S
C1011 C1008 1.386 . S
C1012 C1007 1.490 1_455 S
C1012 C1014 1.395 . S
C1012 C1015 1.403 . S
H1013 C1019 0.930 . S
C1014 H1000 0.930 . S
C1014 C1012 1.395 . S
C1014 C1017 1.403 . S
C1015 C1012 1.403 . S
C1015 C1016 1.524 1_455 S
C1015 C1019 1.400 . S
C1016 H1001 0.960 . S
C1016 H1002 0.960 . S
C1016 H1003 0.960 . S
C1016 C1015 1.524 1_655 S
C1017 C1014 1.403 . S
C1017 C1018 1.392 . S
C1017 C1021 1.495 . S
C1018 C1017 1.392 . S
C1018 C1019 1.385 . S
C1018 C1020 1.478 . S
C1019 H1013 0.930 . S
C1019 C1015 1.400 . S
C1019 C1018 1.385 . S
C1020 C1018 1.478 . S
C1020 C1022 1.381 . S
C1020 C1026 1.383 . S
C1021 C1017 1.495 . S
C1021 H1027 0.959 . S
C1021 H1028 0.961 . S
C1021 H1029 0.960 . S
C1022 C1020 1.381 . S
C1022 C1023 1.394 . S
C1022 H1030 0.930 . S
C1023 C1022 1.394 . S
C1023 C1024 1.383 . S
C1023 H1031 0.929 . S
C1024 C1023 1.383 . S
C1024 C1025 1.377 . S
C1025 H1009 0.930 . S
C1025 C1024 1.377 . S
C1025 C1026 1.379 . S
C1026 H1010 0.931 . S
C1026 C1020 1.383 . S
C1026 C1025 1.379 . S
H1027 C1021 0.959 . S
H1028 C1021 0.961 . S
H1029 C1021 0.960 . S
H1030 C1022 0.930 . S
H1031 C1023 0.929 . S
H1032 C1040 0.929 . S
H1033 C1042 0.930 . S
H1034 C1044 0.930 . S
H1035 C1047 0.929 . S
H1036 C1050 0.930 . S
H1037 C1052 0.960 . S
H1038 C1052 0.960 1_565 S
H1039 C1052 0.960 1_565 S
C1040 H1032 0.929 . S
C1040 C1041 1.377 . S
C1040 C1042 1.384 . S
C1041 C1040 1.377 . S
C1041 C1047 1.390 . S
C1042 H1033 0.930 . S
C1042 C1040 1.384 . S
C1042 C1043 1.372 . S
C1043 C1042 1.372 . S
C1043 C1044 1.400 . S
C1043 C1048 1.490 . S
C1044 H1034 0.930 . S
C1044 C1043 1.400 . S
C1044 C1047 1.386 . S
H1045 C1061 0.930 . S
H1046 C1062 0.931 . S
C1047 H1035 0.929 . S
C1047 C1041 1.390 . S
C1047 C1044 1.386 . S
C1048 C1043 1.490 . S
C1048 C1050 1.395 1_554 S
C1048 C1051 1.403 1_565 S
H1049 C1055 0.930 . S
C1050 H1036 0.930 . S
C1050 C1048 1.395 1_556 S
C1050 C1053 1.403 . S
C1051 C1048 1.403 1_545 S
C1051 C1052 1.524 . S
C1051 C1055 1.400 . S
C1052 H1037 0.960 . S
C1052 H1038 0.960 1_545 S
C1052 H1039 0.960 1_545 S
C1052 C1051 1.524 . S
C1053 C1050 1.403 . S
C1053 C1054 1.392 1_565 S
C1053 C1057 1.495 . S
C1054 C1053 1.392 1_545 S
C1054 C1055 1.385 1_556 S
C1054 C1056 1.478 . S
C1055 H1049 0.930 . S
C1055 C1051 1.400 . S
C1055 C1054 1.385 1_554 S
C1056 C1054 1.478 . S
C1056 C1058 1.381 . S
C1056 C1062 1.383 . S
C1057 C1053 1.495 . S
C1057 H1063 0.959 . S
C1057 H1064 0.965 . S
C1057 H1065 0.960 . S
C1058 C1056 1.381 . S
C1058 C1059 1.394 . S
C1058 H1066 0.930 . S
C1059 C1058 1.394 . S
C1059 C1060 1.383 . S
C1059 H1067 0.929 . S
C1060 C1059 1.383 . S
C1060 C1061 1.377 . S
C1061 H1045 0.930 . S
C1061 C1060 1.377 . S
C1061 C1062 1.379 . S
C1062 H1046 0.931 . S
C1062 C1056 1.383 . S
C1062 C1061 1.379 . S
H1063 C1057 0.959 . S
H1064 C1057 0.965 . S
H1065 C1057 0.960 . S
H1066 C1058 0.930 . S
H1067 C1059 0.929 . S
H1068 C1076 0.929 . S
H1069 C1078 0.930 . S
H1070 C1080 0.930 . S
H1071 C1083 0.929 . S
H1072 C1086 0.930 . S
H1073 C1088 0.960 . S
H1074 C1088 0.960 . S
H1075 C1088 0.960 . S
C1076 H1068 0.929 . S
C1076 C1077 1.377 . S
C1076 C1078 1.384 . S
C1077 C1076 1.377 . S
C1077 C1083 1.390 . S
C1078 H1069 0.930 . S
C1078 C1076 1.384 . S
C1078 C1079 1.372 . S
C1079 C1078 1.372 . S
C1079 C1080 1.400 . S
C1079 C1084 1.490 . S
C1080 H1070 0.930 . S
C1080 C1079 1.400 . S
C1080 C1083 1.386 . S
H1081 C1097 0.930 . S
H1082 C1098 0.931 . S
C1083 H1071 0.929 . S
C1083 C1077 1.390 . S
C1083 C1080 1.386 . S
C1084 C1079 1.490 . S
C1084 C1086 1.395 . S
C1084 C1087 1.403 . S
H1085 C1091 0.930 . S
C1086 H1072 0.930 . S
C1086 C1084 1.395 . S
C1086 C1089 1.403 . S
C1087 C1084 1.403 . S
C1087 C1088 1.524 . S
C1087 C1091 1.400 . S
C1088 H1073 0.960 . S
C1088 H1074 0.960 . S
C1088 H1075 0.960 . S
C1088 C1087 1.524 . S
C1089 C1086 1.403 . S
C1089 C1090 1.392 . S
C1089 C1093 1.495 . S
C1090 C1089 1.392 . S
C1090 C1091 1.385 . S
C1090 C1092 1.478 . S
C1091 H1085 0.930 . S
C1091 C1087 1.400 . S
C1091 C1090 1.385 . S
C1092 C1090 1.478 . S
C1092 C1094 1.381 1_554 S
C1092 C1098 1.383 . S
C1093 C1089 1.495 . S
C1093 H1099 0.959 . S
C1093 H1100 0.961 . S
C1093 H1101 0.960 . S
C1094 C1092 1.381 1_556 S
C1094 C1095 1.394 . S
C1094 H1102 0.930 . S
C1095 C1094 1.394 . S
C1095 C1096 1.383 . S
C1095 H1103 0.929 . S
C1096 C1095 1.383 . S
C1096 C1097 1.377 . S
C1097 H1081 0.930 . S
C1097 C1096 1.377 . S
C1097 C1098 1.379 1_556 S
C1098 H1082 0.931 . S
C1098 C1092 1.383 . S
C1098 C1097 1.379 1_554 S
H1099 C1093 0.959 . S
H1100 C1093 0.961 . S
H1101 C1093 0.960 . S
H1102 C1094 0.930 . S
H1103 C1095 0.929 . S
H1104 C1112 0.929 . S
H1105 C1114 0.930 . S
H1106 C1116 0.930 . S
H1107 C1119 0.929 . S
H1108 C1122 0.930 . S
H1109 C1124 0.960 . S
H1110 C1124 0.960 . S
H1111 C1124 0.960 . S
C1112 H1104 0.929 . S
C1112 C1113 1.377 . S
C1112 C1114 1.384 . S
C1113 C1112 1.377 . S
C1113 C1119 1.390 . S
C1114 H1105 0.930 . S
C1114 C1112 1.384 . S
C1114 C1115 1.372 . S
C1115 C1114 1.372 . S
C1115 C1116 1.400 . S
C1115 C1120 1.490 . S
C1116 H1106 0.930 . S
C1116 C1115 1.400 . S
C1116 C1119 1.386 . S
H1117 C1133 0.930 . S
H1118 C1134 0.931 . S
C1119 H1107 0.929 . S
C1119 C1113 1.390 . S
C1119 C1116 1.386 . S
C1120 C1115 1.490 . S
C1120 C1122 1.395 . S
C1120 C1123 1.403 . S
H1121 C1127 0.930 . S
C1122 H1108 0.930 . S
C1122 C1120 1.395 . S
C1122 C1125 1.403 1_655 S
C1123 C1120 1.403 . S
C1123 C1124 1.524 . S
C1123 C1127 1.393 1_655 S
C1124 H1109 0.960 . S
C1124 H1110 0.960 . S
C1124 H1111 0.960 . S
C1124 C1123 1.524 . S
C1125 C1122 1.403 1_455 S
C1125 C1126 1.392 . S
C1125 C1129 1.495 . S
C1126 C1125 1.392 . S
C1126 C1127 1.393 . S
C1126 C1128 1.478 . S
C1127 H1121 0.930 . S
C1127 C1123 1.393 1_455 S
C1127 C1126 1.393 . S
C1128 C1126 1.478 . S
C1128 C1130 1.381 . S
C1128 C1134 1.383 . S
C1129 C1125 1.495 . S
C1129 H1135 0.959 . S
C1129 H1136 0.961 . S
C1129 H1137 0.960 . S
C1130 C1128 1.381 . S
C1130 C1131 1.394 . S
C1130 H1138 0.930 . S
C1131 C1130 1.394 . S
C1131 C1132 1.383 . S
C1131 H1139 0.929 . S
C1132 C1131 1.383 . S
C1132 C1133 1.377 . S
C1133 H1117 0.930 . S
C1133 C1132 1.377 . S
C1133 C1134 1.379 . S
C1134 H1118 0.931 . S
C1134 C1128 1.383 . S
C1134 C1133 1.379 . S
H1135 C1129 0.959 . S
H1136 C1129 0.961 . S
H1137 C1129 0.960 . S
H1138 C1130 0.930 . S
H1139 C1131 0.929 . S
H1140 C1148 0.929 . S
H1141 C1150 0.930 . S
H1142 C1152 0.930 . S
H1143 C1155 0.929 . S
H1144 C1158 0.930 . S
H1145 C1160 0.960 . S
H1146 C1160 0.960 . S
H1147 C1160 0.960 . S
C1148 H1140 0.929 . S
C1148 C1149 1.377 . S
C1148 C1150 1.384 . S
C1149 C1148 1.377 . S
C1149 C1155 1.390 . S
C1150 H1141 0.930 . S
C1150 C1148 1.384 . S
C1150 C1151 1.372 . S
C1151 C1150 1.372 . S
C1151 C1152 1.400 . S
C1151 C1156 1.490 1_545 S
C1152 H1142 0.930 . S
C1152 C1151 1.400 . S
C1152 C1155 1.386 . S
H1153 C1169 0.930 . S
H1154 C1170 0.931 . S
C1155 H1143 0.929 . S
C1155 C1149 1.390 . S
C1155 C1152 1.386 . S
C1156 C1151 1.490 1_565 S
C1156 C1158 1.395 . S
C1156 C1159 1.403 . S
H1157 C1163 0.930 . S
C1158 H1144 0.930 . S
C1158 C1156 1.395 . S
C1158 C1161 1.403 . S
C1159 C1156 1.403 . S
C1159 C1160 1.524 1_565 S
C1159 C1163 1.400 . S
C1160 H1145 0.960 . S
C1160 H1146 0.960 . S
C1160 H1147 0.960 . S
C1160 C1159 1.524 1_545 S
C1161 C1158 1.403 . S
C1161 C1162 1.392 . S
C1161 C1165 1.495 . S
C1162 C1161 1.392 . S
C1162 C1163 1.385 . S
C1162 C1164 1.478 . S
C1163 H1157 0.930 . S
C1163 C1159 1.400 . S
C1163 C1162 1.385 . S
C1164 C1162 1.478 . S
C1164 C1166 1.381 . S
C1164 C1170 1.383 . S
C1165 C1161 1.495 . S
C1165 H1171 0.959 . S
C1165 H1172 0.961 . S
C1165 H1173 0.960 . S
C1166 C1164 1.381 . S
C1166 C1167 1.394 . S
C1166 H1174 0.930 . S
C1167 C1166 1.394 . S
C1167 C1168 1.383 . S
C1167 H1175 0.929 . S
C1168 C1167 1.383 . S
C1168 C1169 1.377 . S
C1169 H1153 0.930 . S
C1169 C1168 1.377 . S
C1169 C1170 1.379 . S
C1170 H1154 0.931 . S
C1170 C1164 1.383 . S
C1170 C1169 1.379 . S
H1171 C1165 0.959 . S
H1172 C1165 0.961 . S
H1173 C1165 0.960 . S
H1174 C1166 0.930 . S
H1175 C1167 0.929 . S
H1176 C1184 0.929 . S
H1177 C1186 0.930 . S
H1178 C1188 0.930 . S
H1179 C1191 0.929 . S
H1180 C1194 0.930 . S
H1181 C1196 0.960 . S
H1182 C1196 0.960 . S
H1183 C1196 0.960 . S
C1184 H1176 0.929 . S
C1184 C1185 1.377 . S
C1184 C1186 1.384 . S
C1185 C1184 1.377 . S
C1185 C1191 1.390 . S
C1186 H1177 0.930 . S
C1186 C1184 1.384 . S
C1186 C1187 1.372 . S
C1187 C1186 1.372 . S
C1187 C1188 1.400 . S
C1187 C1192 1.490 . S
C1188 H1178 0.930 . S
C1188 C1187 1.400 . S
C1188 C1191 1.386 . S
H1189 C1205 0.930 . S
H1190 C1206 0.931 . S
C1191 H1179 0.929 . S
C1191 C1185 1.390 . S
C1191 C1188 1.386 . S
C1192 C1187 1.490 . S
C1192 C1194 1.395 . S
C1192 C1195 1.403 . S
H1193 C1199 0.930 . S
C1194 H1180 0.930 . S
C1194 C1192 1.395 . S
C1194 C1197 1.403 . S
C1195 C1192 1.403 . S
C1195 C1196 1.524 . S
C1195 C1199 1.400 . S
C1196 H1181 0.960 . S
C1196 H1182 0.960 . S
C1196 H1183 0.960 . S
C1196 C1195 1.524 . S
C1197 C1194 1.403 . S
C1197 C1198 1.392 . S
C1197 C1201 1.495 . S
C1198 C1197 1.392 . S
C1198 C1199 1.385 . S
C1198 C1200 1.478 . S
C1199 H1193 0.930 . S
C1199 C1195 1.400 . S
C1199 C1198 1.385 . S
C1200 C1198 1.478 . S
C1200 C1202 1.381 . S
C1200 C1206 1.383 . S
C1201 C1197 1.495 . S
C1201 H1207 0.959 . S
C1201 H1208 0.961 . S
C1201 H1209 0.960 . S
C1202 C1200 1.381 . S
C1202 C1203 1.394 . S
C1202 H1210 0.930 . S
C1203 C1202 1.394 . S
C1203 C1204 1.383 . S
C1203 H1211 0.929 . S
C1204 C1203 1.383 . S
C1204 C1205 1.377 . S
C1205 H1189 0.930 . S
C1205 C1204 1.377 . S
C1205 C1206 1.379 . S
C1206 H1190 0.931 . S
C1206 C1200 1.383 . S
C1206 C1205 1.379 . S
H1207 C1201 0.959 . S
H1208 C1201 0.961 . S
H1209 C1201 0.960 . S
H1210 C1202 0.930 . S
H1211 C1203 0.929 . S
H1212 C1220 0.929 . S
H1213 C1222 0.930 . S
H1214 C1224 0.930 . S
H1215 C1227 0.929 . S
H1216 C1230 0.930 . S
H1217 C1232 0.960 . S
H1218 C1232 0.960 . S
H1219 C1232 0.960 . S
C1220 H1212 0.929 . S
C1220 C1221 1.377 . S
C1220 C1222 1.384 . S
C1221 C1220 1.377 . S
C1221 C1227 1.390 . S
C1222 H1213 0.930 . S
C1222 C1220 1.384 . S
C1222 C1223 1.372 . S
C1223 C1222 1.372 . S
C1223 C1224 1.400 . S
C1223 C1228 1.490 . S
C1224 H1214 0.930 . S
C1224 C1223 1.400 . S
C1224 C1227 1.386 . S
H1225 C1241 0.930 . S
H1226 C1242 0.931 . S
C1227 H1215 0.929 . S
C1227 C1221 1.390 . S
C1227 C1224 1.386 . S
C1228 C1223 1.490 . S
C1228 C1230 1.395 . S
C1228 C1231 1.403 . S
H1229 C1235 0.930 1_655 S
C1230 H1216 0.930 . S
C1230 C1228 1.395 . S
C1230 C1233 1.403 1_455 S
C1231 C1228 1.403 . S
C1231 C1232 1.524 . S
C1231 C1235 1.400 . S
C1232 H1217 0.960 . S
C1232 H1218 0.960 . S
C1232 H1219 0.960 . S
C1232 C1231 1.524 . S
C1233 C1230 1.403 1_655 S
C1233 C1234 1.392 . S
C1233 C1237 1.495 . S
C1234 C1233 1.392 . S
C1234 C1235 1.385 1_655 S
C1234 C1236 1.478 . S
C1235 H1229 0.930 1_455 S
C1235 C1231 1.400 . S
C1235 C1234 1.385 1_455 S
C1236 C1234 1.478 . S
C1236 C1238 1.381 . S
C1236 C1242 1.383 . S
C1237 C1233 1.495 . S
C1237 H1243 0.959 . S
C1237 H1244 0.961 . S
C1237 H1245 0.960 . S
C1238 C1236 1.381 . S
C1238 C1239 1.394 . S
C1238 H1246 0.930 . S
C1239 C1238 1.394 . S
C1239 C1240 1.383 . S
C1239 H1247 0.929 . S
C1240 C1239 1.383 . S
C1240 C1241 1.377 . S
C1241 H1225 0.930 . S
C1241 C1240 1.377 . S
C1241 C1242 1.379 . S
C1242 H1226 0.931 . S
C1242 C1236 1.383 . S
C1242 C1241 1.379 . S
H1243 C1237 0.959 . S
H1244 C1237 0.961 . S
H1245 C1237 0.960 . S
H1246 C1238 0.930 . S
H1247 C1239 0.929 . S
H1248 C1256 0.929 . S
H1249 C1258 0.930 . S
H1250 C1260 0.930 . S
H1251 C1263 0.929 . S
H1252 C1266 0.930 . S
H1253 C1268 0.960 . S
H1254 C1268 0.960 . S
H1255 C1268 0.960 . S
C1256 H1248 0.929 . S
C1256 C1257 1.377 . S
C1256 C1258 1.384 . S
C1257 C1256 1.377 . S
C1257 C1263 1.390 . S
C1258 H1249 0.930 . S
C1258 C1256 1.384 . S
C1258 C1259 1.372 . S
C1259 C1258 1.372 . S
C1259 C1260 1.400 . S
C1259 C1264 1.490 . S
C1260 H1250 0.930 . S
C1260 C1259 1.400 . S
C1260 C1263 1.386 . S
H1261 C1277 0.930 . S
H1262 C1278 0.931 . S
C1263 H1251 0.929 . S
C1263 C1257 1.390 . S
C1263 C1260 1.386 . S
C1264 C1259 1.490 . S
C1264 C1266 1.395 . S
C1264 C1267 1.403 . S
H1265 C1271 0.930 1_565 S
C1266 H1252 0.930 . S
C1266 C1264 1.395 . S
C1266 C1269 1.403 . S
C1267 C1264 1.403 . S
C1267 C1268 1.524 . S
C1267 C1271 1.400 . S
C1268 H1253 0.960 . S
C1268 H1254 0.960 . S
C1268 H1255 0.960 . S
C1268 C1267 1.524 . S
C1269 C1266 1.403 . S
C1269 C1270 1.392 . S
C1269 C1273 1.495 . S
C1270 C1269 1.392 . S
C1270 C1271 1.385 . S
C1270 C1272 1.478 1_545 S
C1271 H1265 0.930 1_545 S
C1271 C1267 1.400 . S
C1271 C1270 1.385 . S
C1272 C1270 1.478 1_565 S
C1272 C1274 1.381 . S
C1272 C1278 1.383 . S
C1273 C1269 1.495 . S
C1273 H1279 0.959 . S
C1273 H1280 0.961 . S
C1273 H1281 0.960 . S
C1274 C1272 1.381 . S
C1274 C1275 1.394 . S
C1274 H1282 0.930 . S
C1275 C1274 1.394 . S
C1275 C1276 1.383 . S
C1275 H1283 0.929 . S
C1276 C1275 1.383 . S
C1276 C1277 1.377 . S
C1277 H1261 0.930 . S
C1277 C1276 1.377 . S
C1277 C1278 1.379 . S
C1278 H1262 0.931 . S
C1278 C1272 1.383 . S
C1278 C1277 1.379 . S
H1279 C1273 0.959 . S
H1280 C1273 0.961 . S
H1281 C1273 0.960 . S
H1282 C1274 0.930 . S
H1283 C1275 0.929 . S
H1284 C1292 0.929 . S
H1285 C1294 0.930 . S
H1286 C1296 0.930 . S
H1287 C1299 0.929 . S
H1288 C1302 0.930 . S
H1289 C1304 0.960 . S
H1290 C1304 0.960 . S
H1291 C1304 0.960 . S
C1292 H1284 0.929 . S
C1292 C1293 1.377 . S
C1292 C1294 1.384 . S
C1293 C1292 1.377 . S
C1293 C1299 1.390 . S
C1294 H1285 0.930 . S
C1294 C1292 1.384 . S
C1294 C1295 1.372 . S
C1295 C1294 1.372 . S
C1295 C1296 1.400 . S
C1295 C1300 1.490 . S
C1296 H1286 0.930 . S
C1296 C1295 1.400 . S
C1296 C1299 1.386 . S
H1297 C1313 0.930 . S
H1298 C1314 0.931 . S
C1299 H1287 0.929 . S
C1299 C1293 1.390 . S
C1299 C1296 1.386 . S
C1300 C1295 1.490 . S
C1300 C1302 1.395 . S
C1300 C1303 1.403 . S
H1301 C1307 0.930 . S
C1302 H1288 0.930 . S
C1302 C1300 1.395 . S
C1302 C1305 1.403 . S
C1303 C1300 1.403 . S
C1303 C1304 1.524 . S
C1303 C1307 1.400 . S
C1304 H1289 0.960 . S
C1304 H1290 0.960 . S
C1304 H1291 0.960 . S
C1304 C1303 1.524 . S
C1305 C1302 1.403 . S
C1305 C1306 1.392 . S
C1305 C1309 1.495 . S
C1306 C1305 1.392 . S
C1306 C1307 1.385 . S
C1306 C1308 1.478 . S
C1307 H1301 0.930 . S
C1307 C1303 1.400 . S
C1307 C1306 1.385 . S
C1308 C1306 1.478 . S
C1308 C1310 1.381 . S
C1308 C1314 1.383 . S
C1309 C1305 1.495 . S
C1309 H1315 0.959 . S
C1309 H1316 0.961 . S
C1309 H1317 0.960 . S
C1310 C1308 1.381 . S
C1310 C1311 1.394 . S
C1310 H1318 0.930 . S
C1311 C1310 1.394 . S
C1311 C1312 1.383 . S
C1311 H1319 0.929 . S
C1312 C1311 1.383 . S
C1312 C1313 1.377 . S
C1313 H1297 0.930 . S
C1313 C1312 1.377 . S
C1313 C1314 1.379 . S
C1314 H1298 0.931 . S
C1314 C1308 1.383 . S
C1314 C1313 1.379 . S
H1315 C1309 0.959 . S
H1316 C1309 0.961 . S
H1317 C1309 0.960 . S
H1318 C1310 0.930 . S
H1319 C1311 0.929 . S
H1320 C1328 0.929 . S
H1321 C1330 0.930 . S
H1322 C1332 0.930 . S
H1323 C1335 0.929 . S
H1324 C1338 0.930 . S
H1325 C1340 0.960 . S
H1326 C1340 0.960 . S
H1327 C1340 0.960 . S
C1328 H1320 0.929 . S
C1328 C1329 1.377 . S
C1328 C1330 1.384 . S
C1329 C1328 1.377 . S
C1329 C1335 1.390 . S
C1330 H1321 0.930 . S
C1330 C1328 1.384 . S
C1330 C1331 1.372 . S
C1331 C1330 1.372 . S
C1331 C1332 1.400 . S
C1331 C1336 1.490 . S
C1332 H1322 0.930 . S
C1332 C1331 1.400 . S
C1332 C1335 1.386 . S
H1333 C1349 0.930 1_556 S
H1334 C1350 0.931 . S
C1335 H1323 0.929 . S
C1335 C1329 1.390 . S
C1335 C1332 1.386 . S
C1336 C1331 1.490 . S
C1336 C1338 1.395 . S
C1336 C1339 1.403 . S
H1337 C1343 0.930 . S
C1338 H1324 0.930 . S
C1338 C1336 1.395 . S
C1338 C1341 1.402 1_655 S
C1339 C1336 1.403 . S
C1339 C1340 1.524 . S
C1339 C1343 1.400 1_655 S
C1340 H1325 0.960 . S
C1340 H1326 0.960 . S
C1340 H1327 0.960 . S
C1340 C1339 1.524 . S
C1341 C1338 1.402 1_455 S
C1341 C1342 1.392 . S
C1341 C1345 1.497 . S
C1342 C1341 1.392 . S
C1342 C1343 1.385 . S
C1342 C1344 1.478 . S
C1343 H1337 0.930 . S
C1343 C1339 1.400 1_455 S
C1343 C1342 1.385 . S
C1344 C1342 1.478 . S
C1344 C1346 1.381 1_556 S
C1344 C1350 1.383 . S
C1345 C1341 1.497 . S
C1345 H1351 0.959 1_455 S
C1345 H1352 0.961 . S
C1345 H1353 0.960 1_556 S
C1346 C1344 1.381 1_554 S
C1346 C1347 1.394 . S
C1346 H1354 0.930 . S
C1347 C1346 1.394 . S
C1347 C1348 1.383 . S
C1347 H1355 0.929 . S
C1348 C1347 1.383 . S
C1348 C1349 1.377 . S
C1349 H1333 0.930 1_554 S
C1349 C1348 1.377 . S
C1349 C1350 1.379 1_554 S
C1350 H1334 0.931 . S
C1350 C1344 1.383 . S
C1350 C1349 1.379 1_556 S
H1351 C1345 0.959 1_655 S
H1352 C1345 0.961 . S
H1353 C1345 0.960 1_554 S
H1354 C1346 0.930 . S
H1355 C1347 0.929 . S
H1356 C1364 0.929 . S
H1357 C1366 0.930 . S
H1358 C1368 0.930 . S
H1359 C1371 0.929 . S
H1360 C1374 0.930 . S
H1361 C1376 0.960 . S
H1362 C1376 0.960 . S
H1363 C1376 0.960 . S
C1364 H1356 0.929 . S
C1364 C1365 1.377 . S
C1364 C1366 1.384 . S
C1365 C1364 1.377 . S
C1365 C1371 1.390 . S
C1366 H1357 0.930 . S
C1366 C1364 1.384 . S
C1366 C1367 1.372 . S
C1367 C1366 1.372 . S
C1367 C1368 1.400 . S
C1367 C1372 1.490 . S
C1368 H1358 0.930 . S
C1368 C1367 1.400 . S
C1368 C1371 1.386 . S
H1369 C1385 0.930 . S
H1370 C1386 0.931 . S
C1371 H1359 0.929 . S
C1371 C1365 1.390 . S
C1371 C1368 1.386 . S
C1372 C1367 1.490 . S
C1372 C1374 1.395 . S
C1372 C1375 1.403 . S
H1373 C1379 0.930 . S
C1374 H1360 0.930 . S
C1374 C1372 1.395 . S
C1374 C1377 1.403 . S
C1375 C1372 1.403 . S
C1375 C1376 1.524 . S
C1375 C1379 1.400 . S
C1376 H1361 0.960 . S
C1376 H1362 0.960 . S
C1376 H1363 0.960 . S
C1376 C1375 1.524 . S
C1377 C1374 1.403 . S
C1377 C1378 1.392 . S
C1377 C1381 1.495 . S
C1378 C1377 1.392 . S
C1378 C1379 1.385 . S
C1378 C1380 1.478 1_565 S
C1379 H1373 0.930 . S
C1379 C1375 1.400 . S
C1379 C1378 1.385 . S
C1380 C1378 1.478 1_545 S
C1380 C1382 1.381 . S
C1380 C1386 1.383 . S
C1381 C1377 1.495 . S
C1381 H1387 0.959 . S
C1381 H1388 0.961 . S
C1381 H1389 0.960 . S
C1382 C1380 1.381 . S
C1382 C1383 1.394 . S
C1382 H1390 0.930 1_545 S
C1383 C1382 1.394 . S
C1383 C1384 1.383 . S
C1383 H1391 0.929 . S
C1384 C1383 1.383 . S
C1384 C1385 1.377 . S
C1385 H1369 0.930 . S
C1385 C1384 1.377 . S
C1385 C1386 1.379 . S
C1386 H1370 0.931 . S
C1386 C1380 1.383 . S
C1386 C1385 1.379 . S
H1387 C1381 0.959 . S
H1388 C1381 0.961 . S
H1389 C1381 0.960 . S
H1390 C1382 0.930 1_565 S
H1391 C1383 0.929 . S
H1392 C1400 0.929 . S
H1393 C1402 0.930 . S
H1394 C1404 0.930 . S
H1395 C1407 0.929 . S
H1396 C1410 0.930 . S
H1397 C1412 0.960 . S
H1398 C1412 0.960 . S
H1399 C1412 0.960 . S
C1400 H1392 0.929 . S
C1400 C1401 1.377 . S
C1400 C1402 1.384 . S
C1401 C1400 1.377 . S
C1401 C1407 1.390 . S
C1402 H1393 0.930 . S
C1402 C1400 1.384 . S
C1402 C1403 1.372 . S
C1403 C1402 1.372 . S
C1403 C1404 1.400 . S
C1403 C1408 1.490 . S
C1404 H1394 0.930 . S
C1404 C1403 1.400 . S
C1404 C1407 1.386 . S
H1405 C1421 0.930 . S
H1406 C1422 0.931 . S
C1407 H1395 0.929 . S
C1407 C1401 1.390 . S
C1407 C1404 1.386 . S
C1408 C1403 1.490 . S
C1408 C1410 1.395 . S
C1408 C1411 1.403 . S
H1409 C1415 0.930 . S
C1410 H1396 0.930 . S
C1410 C1408 1.395 . S
C1410 C1413 1.403 . S
C1411 C1408 1.403 . S
C1411 C1412 1.524 . S
C1411 C1415 1.400 . S
C1412 H1397 0.960 . S
C1412 H1398 0.960 . S
C1412 H1399 0.960 . S
C1412 C1411 1.524 . S
C1413 C1410 1.403 . S
C1413 C1414 1.392 . S
C1413 C1417 1.495 . S
C1414 C1413 1.392 . S
C1414 C1415 1.385 . S
C1414 C1416 1.478 . S
C1415 H1409 0.930 . S
C1415 C1411 1.400 . S
C1415 C1414 1.385 . S
C1416 C1414 1.478 . S
C1416 C1418 1.381 . S
C1416 C1422 1.383 . S
C1417 C1413 1.495 . S
C1417 H1423 0.959 . S
C1417 H1424 0.961 . S
C1417 H1425 0.960 . S
C1418 C1416 1.381 . S
C1418 C1419 1.394 . S
C1418 H1426 0.930 . S
C1419 C1418 1.394 . S
C1419 C1420 1.383 . S
C1419 H1427 0.929 . S
C1420 C1419 1.383 . S
C1420 C1421 1.377 . S
C1421 H1405 0.930 . S
C1421 C1420 1.377 . S
C1421 C1422 1.379 . S
C1422 H1406 0.931 . S
C1422 C1416 1.383 . S
C1422 C1421 1.379 . S
H1423 C1417 0.959 . S
H1424 C1417 0.961 . S
H1425 C1417 0.960 . S
H1426 C1418 0.930 . S
H1427 C1419 0.929 . S
H1428 C1436 0.929 . S
H1429 C1438 0.930 . S
H1430 C1440 0.930 . S
H1431 C1443 0.929 . S
H1432 C1446 0.930 . S
H1433 C1448 0.960 . S
H1434 C1448 0.960 . S
H1435 C1448 0.960 . S
C1436 H1428 0.929 . S
C1436 C1437 1.377 . S
C1436 C1438 1.384 . S
C1437 C1436 1.377 . S
C1437 C1443 1.390 . S
C1438 H1429 0.930 . S
C1438 C1436 1.384 . S
C1438 C1439 1.372 . S
C1439 C1438 1.372 . S
C1439 C1440 1.400 . S
C1439 C1444 1.490 . S
C1440 H1430 0.930 . S
C1440 C1439 1.400 . S
C1440 C1443 1.386 . S
H1441 C1457 0.930 . S
H1442 C1458 0.931 . S
C1443 H1431 0.929 . S
C1443 C1437 1.390 . S
C1443 C1440 1.386 . S
C1444 C1439 1.490 . S
C1444 C1446 1.395 . S
C1444 C1447 1.403 . S
H1445 C1451 0.930 . S
C1446 H1432 0.930 . S
C1446 C1444 1.395 . S
C1446 C1449 1.403 1_455 S
C1447 C1444 1.403 . S
C1447 C1448 1.524 . S
C1447 C1451 1.400 . S
C1448 H1433 0.960 . S
C1448 H1434 0.960 . S
C1448 H1435 0.960 . S
C1448 C1447 1.524 . S
C1449 C1446 1.403 1_655 S
C1449 C1450 1.392 . S
C1449 C1453 1.495 . S
C1450 C1449 1.392 . S
C1450 C1451 1.385 1_655 S
C1450 C1452 1.478 . S
C1451 H1445 0.930 . S
C1451 C1447 1.400 . S
C1451 C1450 1.385 1_455 S
C1452 C1450 1.478 . S
C1452 C1454 1.381 . S
C1452 C1458 1.383 . S
C1453 C1449 1.495 . S
C1453 H1459 0.959 . S
C1453 H1460 0.961 . S
C1453 H1461 0.960 . S
C1454 C1452 1.381 . S
C1454 C1455 1.394 . S
C1454 H1462 0.930 . S
C1455 C1454 1.394 . S
C1455 C1456 1.383 . S
C1455 H1463 0.929 . S
C1456 C1455 1.383 . S
C1456 C1457 1.377 . S
C1457 H1441 0.930 . S
C1457 C1456 1.377 . S
C1457 C1458 1.379 . S
C1458 H1442 0.931 . S
C1458 C1452 1.383 . S
C1458 C1457 1.379 . S
H1459 C1453 0.959 . S
H1460 C1453 0.961 . S
H1461 C1453 0.960 . S
H1462 C1454 0.930 . S
H1463 C1455 0.929 . S
H1464 C1472 0.929 . S
H1465 C1474 0.930 . S
H1466 C1476 0.930 . S
H1467 C1479 0.929 . S
H1468 C1482 0.930 1_565 S
H1469 C1484 0.960 . S
H1470 C1484 0.960 . S
H1471 C1484 0.960 . S
C1472 H1464 0.929 . S
C1472 C1473 1.377 . S
C1472 C1474 1.384 . S
C1473 C1472 1.377 . S
C1473 C1479 1.390 . S
C1474 H1465 0.930 . S
C1474 C1472 1.384 . S
C1474 C1475 1.372 . S
C1475 C1474 1.372 . S
C1475 C1476 1.400 . S
C1475 C1480 1.490 1_565 S
C1476 H1466 0.930 . S
C1476 C1475 1.400 . S
C1476 C1479 1.386 . S
H1477 C1493 0.930 . S
H1478 C1494 0.931 . S
C1479 H1467 0.929 . S
C1479 C1473 1.390 . S
C1479 C1476 1.386 . S
C1480 C1475 1.490 1_545 S
C1480 C1482 1.395 . S
C1480 C1483 1.403 . S
H1481 C1487 0.930 . S
C1482 H1468 0.930 1_545 S
C1482 C1480 1.395 . S
C1482 C1485 1.403 . S
C1483 C1480 1.403 . S
C1483 C1484 1.524 . S
C1483 C1487 1.400 . S
C1484 H1469 0.960 . S
C1484 H1470 0.960 . S
C1484 H1471 0.960 . S
C1484 C1483 1.524 . S
C1485 C1482 1.403 . S
C1485 C1486 1.392 . S
C1485 C1489 1.495 . S
C1486 C1485 1.392 . S
C1486 C1487 1.385 . S
C1486 C1488 1.478 . S
C1487 H1481 0.930 . S
C1487 C1483 1.400 . S
C1487 C1486 1.385 . S
C1488 C1486 1.478 . S
C1488 C1490 1.381 . S
C1488 C1494 1.383 . S
C1489 C1485 1.495 . S
C1489 H1495 0.959 . S
C1489 H1496 0.961 . S
C1489 H1497 0.960 . S
C1490 C1488 1.381 . S
C1490 C1491 1.394 . S
C1490 H1498 0.930 . S
C1491 C1490 1.394 . S
C1491 C1492 1.383 . S
C1491 H1499 0.929 . S
C1492 C1491 1.383 . S
C1492 C1493 1.377 . S
C1493 H1477 0.930 . S
C1493 C1492 1.377 . S
C1493 C1494 1.379 . S
C1494 H1478 0.931 . S
C1494 C1488 1.383 . S
C1494 C1493 1.379 . S
H1495 C1489 0.959 . S
H1496 C1489 0.961 . S
H1497 C1489 0.960 . S
H1498 C1490 0.930 . S
H1499 C1491 0.929 . S
C645 C446 1.718 . S
C664 C22 1.726 . S
C681 C91 1.676 . S
C700 C515 1.679 . S
C717 C128 1.713 . S
C736 C552 1.713 . S
C753 C181 1.713 . S
C772 C605 1.698 . S
C789 C356 1.676 . S
C808 C250 1.679 . S
C825 C287 1.718 . S
C844 C393 1.726 . S
C861 C516 1.381 . S
C880 C29 1.365 . S
C897 C92 1.380 . S
C916 C559 1.381 . S
C933 C612 1.267 . S
C952 C135 1.265 . S
C969 C188 1.371 . S
C988 C357 1.381 . S
C1005 C400 1.377 . S
C1024 C251 1.363 . S
C1041 C453 1.263 . S
C1060 C294 1.281 . S
C1077 C38 2.275 . S
C1096 C304 2.268 . S
C1113 C75 2.427 . S
C1132 C39 2.411 . S
C1149 C82 2.297 . S
C1168 C144 2.361 . S
C1185 C197 2.275 . S
C1204 C145 2.267 . S
C1221 C234 2.428 . S
C1240 C198 2.436 . S
C1257 C303 2.355 . S
C1276 C241 2.285 . S
C1293 C340 2.430 . S
C1312 C410 2.434 . S
C1329 C409 2.273 . S
C1348 C463 2.270 . S
C1365 C462 2.357 . S
C1384 C506 2.308 . S
C1401 C499 2.428 . S
C1420 C569 2.412 . S
C1437 C568 2.275 . S
C1456 C622 2.266 . S
C1473 C347 2.292 . S
C1492 C621 2.344 . S
