# Generated by pormake.
# Topology reo-e, (6)-cn, num edge types: 1
# Building blocks:
#     Node 0, Type 0, BuildingBlock: MIDCAF_clean_sbu_0, # of connection points: 6
#     Node 1, Type 0, BuildingBlock: MIDCAF_clean_sbu_0, # of connection points: 6
#     Node 2, Type 0, BuildingBlock: MIDCAF_clean_sbu_0, # of connection points: 6
#     Node 3, Type 0, BuildingBlock: MIDCAF_clean_sbu_0, # of connection points: 6
#     Node 4, Type 0, BuildingBlock: MIDCAF_clean_sbu_0, # of connection points: 6
#     Node 5, Type 0, BuildingBlock: MIDCAF_clean_sbu_0, # of connection points: 6
#     Node 6, Type 0, BuildingBlock: MIDCAF_clean_sbu_0, # of connection points: 6
#     Node 7, Type 0, BuildingBlock: MIDCAF_clean_sbu_0, # of connection points: 6
#     Node 8, Type 0, BuildingBlock: MIDCAF_clean_sbu_0, # of connection points: 6
#     Node 9, Type 0, BuildingBlock: MIDCAF_clean_sbu_0, # of connection points: 6
#     Node 10, Type 0, BuildingBlock: MIDCAF_clean_sbu_0, # of connection points: 6
#     Node 11, Type 0, BuildingBlock: MIDCAF_clean_sbu_0, # of connection points: 6
#     Edge 12, Type (0, 0), BuildingBlock: AJUNOK_clean_linker_0, # of connection points: 2
#     Edge 13, Type (0, 0), BuildingBlock: AJUNOK_clean_linker_0, # of connection points: 2
#     Edge 14, Type (0, 0), BuildingBlock: AJUNOK_clean_linker_0, # of connection points: 2
#     Edge 15, Type (0, 0), BuildingBlock: AJUNOK_clean_linker_0, # of connection points: 2
#     Edge 16, Type (0, 0), BuildingBlock: AJUNOK_clean_linker_0, # of connection points: 2
#     Edge 17, Type (0, 0), BuildingBlock: AJUNOK_clean_linker_0, # of connection points: 2
#     Edge 18, Type (0, 0), BuildingBlock: AJUNOK_clean_linker_0, # of connection points: 2
#     Edge 19, Type (0, 0), BuildingBlock: AJUNOK_clean_linker_0, # of connection points: 2
#     Edge 20, Type (0, 0), BuildingBlock: AJUNOK_clean_linker_0, # of connection points: 2
#     Edge 21, Type (0, 0), BuildingBlock: AJUNOK_clean_linker_0, # of connection points: 2
#     Edge 22, Type (0, 0), BuildingBlock: AJUNOK_clean_linker_0, # of connection points: 2
#     Edge 23, Type (0, 0), BuildingBlock: AJUNOK_clean_linker_0, # of connection points: 2
#     Edge 24, Type (0, 0), BuildingBlock: AJUNOK_clean_linker_0, # of connection points: 2
#     Edge 25, Type (0, 0), BuildingBlock: AJUNOK_clean_linker_0, # of connection points: 2
#     Edge 26, Type (0, 0), BuildingBlock: AJUNOK_clean_linker_0, # of connection points: 2
#     Edge 27, Type (0, 0), BuildingBlock: AJUNOK_clean_linker_0, # of connection points: 2
#     Edge 28, Type (0, 0), BuildingBlock: AJUNOK_clean_linker_0, # of connection points: 2
#     Edge 29, Type (0, 0), BuildingBlock: AJUNOK_clean_linker_0, # of connection points: 2
#     Edge 30, Type (0, 0), BuildingBlock: AJUNOK_clean_linker_0, # of connection points: 2
#     Edge 31, Type (0, 0), BuildingBlock: AJUNOK_clean_linker_0, # of connection points: 2
#     Edge 32, Type (0, 0), BuildingBlock: AJUNOK_clean_linker_0, # of connection points: 2
#     Edge 33, Type (0, 0), BuildingBlock: AJUNOK_clean_linker_0, # of connection points: 2
#     Edge 34, Type (0, 0), BuildingBlock: AJUNOK_clean_linker_0, # of connection points: 2
#     Edge 35, Type (0, 0), BuildingBlock: AJUNOK_clean_linker_0, # of connection points: 2
#     Edge 36, Type (0, 0), BuildingBlock: AJUNOK_clean_linker_0, # of connection points: 2
#     Edge 37, Type (0, 0), BuildingBlock: AJUNOK_clean_linker_0, # of connection points: 2
#     Edge 38, Type (0, 0), BuildingBlock: AJUNOK_clean_linker_0, # of connection points: 2
#     Edge 39, Type (0, 0), BuildingBlock: AJUNOK_clean_linker_0, # of connection points: 2
#     Edge 40, Type (0, 0), BuildingBlock: AJUNOK_clean_linker_0, # of connection points: 2
#     Edge 41, Type (0, 0), BuildingBlock: AJUNOK_clean_linker_0, # of connection points: 2
#     Edge 42, Type (0, 0), BuildingBlock: AJUNOK_clean_linker_0, # of connection points: 2
#     Edge 43, Type (0, 0), BuildingBlock: AJUNOK_clean_linker_0, # of connection points: 2
#     Edge 44, Type (0, 0), BuildingBlock: AJUNOK_clean_linker_0, # of connection points: 2
#     Edge 45, Type (0, 0), BuildingBlock: AJUNOK_clean_linker_0, # of connection points: 2
#     Edge 46, Type (0, 0), BuildingBlock: AJUNOK_clean_linker_0, # of connection points: 2
#     Edge 47, Type (0, 0), BuildingBlock: AJUNOK_clean_linker_0, # of connection points: 2
# Relax obj value: 0.261
# Max RMSD: 0.248
# Mean RMSD: 0.246
data_MOF--net-reo-e--node1-MIDCAF_clean_sbu_0--edge1-AJUNOK_clean_linker_0
_symmetry_space_group_name_H-M    P1
_symmetry_Int_Tables_number       1
_symmetry_cell_setting            triclinic
loop_
_symmetry_equiv_pos_as_xyz
'x, y, z'
_cell_length_a     28.382638
_cell_length_b     28.179635
_cell_length_c     28.325211
_cell_angle_alpha  90.444855
_cell_angle_beta   89.344991
_cell_angle_gamma 90.669214
loop_
_atom_site_label
_atom_site_type_symbol
_atom_site_fract_x
_atom_site_fract_y
_atom_site_fract_z
_atom_type_partial_charge
Zn0 Zn 0.10893 0.2535 0.51089 0.0
Zn1 Zn 0.28198 0.10336 0.48439 0.0
Zn2 Zn 0.17188 0.19774 0.48988 0.0
C3 C 0.24436 0.18672 0.42251 0.0
C4 C 0.1728 0.0992 0.48373 0.0
O5 O 0.19723 0.23201 0.55456 0.0
O6 O 0.14224 0.28626 0.56258 0.0
C7 C 0.14273 0.27784 0.41963 0.0
O8 O 0.20986 0.21509 0.42381 0.0
O9 O 0.24336 0.1549 0.4538 0.0
O10 O 0.21283 0.11848 0.47766 0.0
O11 O 0.1384 0.12754 0.48567 0.0
O12 O 0.10835 0.28511 0.44744 0.0
O13 O 0.17401 0.24716 0.43018 0.0
O14 O 0.10179 0.15956 0.49073 0.0
O15 O 0.05548 0.21087 0.52702 0.0
C16 C 0.06125 0.17052 0.50845 0.0
O17 O 0.22738 0.18933 0.54879 0.0
O18 O 0.28822 0.13667 0.54769 0.0
C19 C 0.18039 0.2685 0.57591 0.0
C20 C 0.26426 0.16978 0.56753 0.0
Zn21 Zn 0.82781 0.2465 0.47401 0.0
Zn22 Zn 0.70999 0.11759 0.48388 0.0
Zn23 Zn 0.76681 0.18532 0.47972 0.0
C24 C 0.68013 0.18149 0.55209 0.0
C25 C 0.79289 0.07463 0.49505 0.0
O26 O 0.75303 0.22866 0.41627 0.0
O27 O 0.79576 0.29226 0.43331 0.0
C28 C 0.79311 0.25275 0.56519 0.0
O29 O 0.72099 0.19935 0.54236 0.0
O30 O 0.66463 0.14657 0.52861 0.0
O31 O 0.75064 0.06581 0.50643 0.0
O32 O 0.80469 0.11644 0.48084 0.0
O33 O 0.83069 0.26177 0.54259 0.0
O34 O 0.76033 0.22787 0.54557 0.0
O35 O 0.83835 0.15381 0.47899 0.0
O36 O 0.88165 0.21054 0.44685 0.0
C37 C 0.87811 0.16869 0.46203 0.0
O38 O 0.72378 0.18889 0.41491 0.0
O39 O 0.69171 0.11723 0.41599 0.0
C40 C 0.76559 0.27181 0.40772 0.0
C41 C 0.69863 0.1562 0.39512 0.0
Zn42 Zn 0.73431 0.84125 0.46302 0.0
Zn43 Zn 0.85624 0.72121 0.47325 0.0
Zn44 Zn 0.79208 0.78012 0.47117 0.0
C45 C 0.90402 0.80348 0.48678 0.0
C46 C 0.81717 0.70806 0.38592 0.0
O47 O 0.74711 0.77544 0.53593 0.0
O48 O 0.71619 0.84655 0.53095 0.0
C49 C 0.81322 0.89131 0.45372 0.0
O50 O 0.86297 0.81764 0.47425 0.0
O51 O 0.91039 0.76009 0.49472 0.0
O52 O 0.85561 0.69989 0.4061 0.0
O53 O 0.78679 0.7355 0.40602 0.0
O54 O 0.77264 0.89384 0.4364 0.0
O55 O 0.82653 0.8519 0.47187 0.0
O56 O 0.74831 0.76522 0.40669 0.0
O57 O 0.68758 0.81145 0.42119 0.0
C58 C 0.70654 0.77934 0.39666 0.0
O59 O 0.77557 0.73555 0.53403 0.0
O60 O 0.82576 0.67794 0.5191 0.0
C61 C 0.72224 0.80907 0.55411 0.0
C62 C 0.792 0.69429 0.54328 0.0
Zn63 Zn 0.13559 0.73201 0.47392 0.0
Zn64 Zn 0.26497 0.83977 0.47961 0.0
Zn65 Zn 0.1979 0.7913 0.47923 0.0
C66 C 0.19416 0.89944 0.50466 0.0
C67 C 0.26622 0.815 0.39016 0.0
O68 O 0.20099 0.74729 0.54432 0.0
O69 O 0.13149 0.71194 0.54083 0.0
C70 C 0.09039 0.81728 0.46578 0.0
O71 O 0.17074 0.86492 0.48575 0.0
O72 O 0.23689 0.89335 0.51456 0.0
O73 O 0.27924 0.85162 0.41241 0.0
O74 O 0.23884 0.78457 0.41085 0.0
O75 O 0.08557 0.77479 0.45218 0.0
O76 O 0.13043 0.83167 0.48188 0.0
O77 O 0.20652 0.74828 0.41315 0.0
O78 O 0.16064 0.68612 0.42718 0.0
C79 C 0.19104 0.70668 0.40158 0.0
O80 O 0.24259 0.77293 0.54078 0.0
O81 O 0.31054 0.80039 0.51375 0.0
C82 C 0.16858 0.72118 0.56338 0.0
C83 C 0.28773 0.77684 0.54415 0.0
Zn84 Zn 0.46003 0.2478 0.14216 0.0
Zn85 Zn 0.46696 0.11717 0.25061 0.0
Zn86 Zn 0.46629 0.18408 0.19851 0.0
C87 C 0.55584 0.15765 0.2575 0.0
C88 C 0.45352 0.07253 0.16962 0.0
O89 O 0.39903 0.22281 0.21354 0.0
O90 O 0.39187 0.26125 0.14652 0.0
C91 C 0.53367 0.27591 0.19736 0.0
O92 O 0.53372 0.19124 0.23694 0.0
O93 O 0.53597 0.11765 0.26237 0.0
O94 O 0.44163 0.06444 0.2118 0.0
O95 O 0.46719 0.11475 0.15798 0.0
O96 O 0.5032 0.29461 0.17158 0.0
O97 O 0.52899 0.23196 0.20905 0.0
O98 O 0.46574 0.15267 0.12558 0.0
O99 O 0.4823 0.21645 0.08369 0.0
C100 C 0.47619 0.17216 0.08575 0.0
O101 O 0.40578 0.19145 0.25028 0.0
O102 O 0.42719 0.13938 0.30321 0.0
C103 C 0.37481 0.24906 0.18591 0.0
C104 C 0.40028 0.17233 0.29128 0.0
Zn105 Zn 0.71451 0.47413 0.11496 0.0
Zn106 Zn 0.83963 0.46997 0.2373 0.0
Zn107 Zn 0.77466 0.47833 0.17844 0.0
C108 C 0.80405 0.56209 0.24808 0.0
C109 C 0.88617 0.45948 0.15479 0.0
O110 O 0.72351 0.41792 0.19249 0.0
O111 O 0.66647 0.4311 0.14206 0.0
C112 C 0.71063 0.56569 0.1541 0.0
O113 O 0.77226 0.54515 0.22035 0.0
O114 O 0.83962 0.53765 0.25777 0.0
O115 O 0.89251 0.44855 0.19726 0.0
O116 O 0.84544 0.47413 0.14176 0.0
O117 O 0.69992 0.54294 0.11708 0.0
O118 O 0.73666 0.54637 0.18535 0.0
O119 O 0.80979 0.4745 0.10736 0.0
O120 O 0.75222 0.45069 0.06085 0.0
C121 C 0.79523 0.46049 0.06655 0.0
O122 O 0.75894 0.41634 0.22499 0.0
O123 O 0.81224 0.42337 0.28102 0.0
C124 C 0.68228 0.40788 0.17612 0.0
C125 C 0.77661 0.40257 0.26424 0.0
Zn126 Zn 0.49948 0.84083 0.23946 0.0
Zn127 Zn 0.48199 0.71553 0.11523 0.0
Zn128 Zn 0.48862 0.77719 0.1794 0.0
C129 C 0.47492 0.79877 0.06838 0.0
C130 C 0.41112 0.69193 0.17745 0.0
O131 O 0.55294 0.76244 0.22263 0.0
O132 O 0.54582 0.81308 0.28211 0.0
C133 C 0.50336 0.89014 0.15924 0.0
O134 O 0.48857 0.81308 0.10936 0.0
O135 O 0.46307 0.75594 0.06216 0.0
O136 O 0.43357 0.67341 0.14351 0.0
O137 O 0.42414 0.73259 0.19429 0.0
O138 O 0.52015 0.89507 0.20002 0.0
O139 O 0.48761 0.8491 0.1459 0.0
O140 O 0.42379 0.77236 0.22305 0.0
O141 O 0.43219 0.84086 0.26049 0.0
C142 C 0.40724 0.80483 0.25057 0.0
O143 O 0.55319 0.73379 0.18323 0.0
O144 O 0.54872 0.69428 0.11578 0.0
C145 C 0.56688 0.77878 0.26284 0.0
C146 C 0.57142 0.70544 0.15236 0.0
Zn147 Zn 0.10767 0.50463 0.24287 0.0
Zn148 Zn 0.24674 0.47224 0.12705 0.0
Zn149 Zn 0.17777 0.48367 0.18819 0.0
C150 C 0.2704 0.55267 0.17875 0.0
C151 C 0.16567 0.48197 0.07443 0.0
O152 O 0.17531 0.42419 0.23815 0.0
O153 O 0.11242 0.44508 0.27989 0.0
C154 C 0.16978 0.57673 0.25802 0.0
O155 O 0.22923 0.54358 0.19636 0.0
O156 O 0.28812 0.52558 0.14783 0.0
O157 O 0.20969 0.47887 0.06894 0.0
O158 O 0.14719 0.48308 0.11616 0.0
O159 O 0.12901 0.5644 0.27138 0.0
O160 O 0.19285 0.55102 0.22805 0.0
O161 O 0.1093 0.48406 0.14772 0.0
O162 O 0.05562 0.50927 0.19888 0.0
C163 C 0.0664 0.49571 0.15775 0.0
O164 O 0.21243 0.41491 0.20566 0.0
O165 O 0.26369 0.4078 0.14654 0.0
C166 C 0.14532 0.41621 0.27168 0.0
C167 C 0.2446 0.39134 0.18345 0.0
Zn168 Zn 0.49864 0.72491 0.82942 0.0
Zn169 Zn 0.48915 0.85622 0.7088 0.0
Zn170 Zn 0.49594 0.78866 0.76967 0.0
C171 C 0.4814 0.89907 0.7965 0.0
C172 C 0.41837 0.79299 0.68628 0.0
O173 O 0.5605 0.74719 0.75546 0.0
O174 O 0.54375 0.68289 0.79685 0.0
C175 C 0.5093 0.8041 0.88213 0.0
O176 O 0.49254 0.85697 0.80924 0.0
O177 O 0.47416 0.90793 0.75364 0.0
O178 O 0.43777 0.8298 0.66965 0.0
O179 O 0.434 0.77401 0.72414 0.0
O180 O 0.52136 0.76131 0.88488 0.0
O181 O 0.49507 0.82044 0.84242 0.0
O182 O 0.43128 0.74462 0.76207 0.0
O183 O 0.43087 0.70616 0.82961 0.0
C184 C 0.41038 0.7173 0.79208 0.0
O185 O 0.56105 0.7859 0.72504 0.0
O186 O 0.55492 0.8518 0.68384 0.0
C187 C 0.56987 0.70442 0.76758 0.0
C188 C 0.57807 0.81554 0.69471 0.0
Zn189 Zn 0.13076 0.49056 0.71241 0.0
Zn190 Zn 0.25239 0.50126 0.84374 0.0
Zn191 Zn 0.18922 0.49992 0.77817 0.0
C192 C 0.16634 0.49932 0.89051 0.0
C193 C 0.26511 0.5846 0.79303 0.0
O194 O 0.20395 0.43491 0.73428 0.0
O195 O 0.16068 0.44293 0.67063 0.0
C196 C 0.07876 0.48113 0.79455 0.0
O197 O 0.15107 0.49904 0.84785 0.0
O198 O 0.20993 0.49995 0.89843 0.0
O199 O 0.28102 0.56276 0.82799 0.0
O200 O 0.23094 0.56681 0.76883 0.0
O201 O 0.07599 0.47001 0.75144 0.0
O202 O 0.11802 0.49662 0.81145 0.0
O203 O 0.19568 0.56557 0.73504 0.0
O204 O 0.13209 0.55735 0.69135 0.0
C205 C 0.16691 0.58211 0.70457 0.0
O206 O 0.23509 0.43715 0.77087 0.0
O207 O 0.2873 0.44314 0.82813 0.0
C208 C 0.19148 0.42062 0.69285 0.0
C209 C 0.27076 0.42104 0.7931 0.0
Zn210 Zn 0.47669 0.25664 0.84615 0.0
Zn211 Zn 0.4698 0.13023 0.72612 0.0
Zn212 Zn 0.47532 0.19312 0.78441 0.0
C213 C 0.49026 0.08309 0.80553 0.0
C214 C 0.53998 0.18937 0.69279 0.0
O215 O 0.41337 0.23808 0.77336 0.0
O216 O 0.43041 0.29988 0.81881 0.0
C217 C 0.46417 0.17635 0.89717 0.0
O218 O 0.47739 0.12379 0.82174 0.0
O219 O 0.49647 0.0773 0.76175 0.0
O220 O 0.51034 0.15973 0.67705 0.0
O221 O 0.53659 0.20387 0.7359 0.0
O222 O 0.45733 0.22019 0.90234 0.0
O223 O 0.47466 0.15931 0.85604 0.0
O224 O 0.54194 0.23455 0.77377 0.0
O225 O 0.54403 0.2749 0.84083 0.0
C226 C 0.5636 0.2627 0.8025 0.0
O227 O 0.40861 0.19989 0.74272 0.0
O228 O 0.40124 0.12784 0.71286 0.0
C229 C 0.40448 0.28024 0.78839 0.0
C230 C 0.38441 0.16858 0.71963 0.0
Zn231 Zn 0.84446 0.4809 0.7089 0.0
Zn232 Zn 0.71729 0.49367 0.83557 0.0
Zn233 Zn 0.78167 0.48288 0.7703 0.0
C234 C 0.80112 0.49066 0.88326 0.0
C235 C 0.70132 0.4051 0.79069 0.0
O236 O 0.773 0.54423 0.72109 0.0
O237 O 0.81859 0.52354 0.66097 0.0
C238 C 0.8923 0.49686 0.78979 0.0
O239 O 0.81643 0.4826 0.84095 0.0
O240 O 0.75822 0.49944 0.89067 0.0
O241 O 0.68651 0.43086 0.82427 0.0
O242 O 0.73639 0.41881 0.76488 0.0
O243 O 0.89828 0.50448 0.74633 0.0
O244 O 0.85136 0.48432 0.80566 0.0
O245 O 0.77206 0.41507 0.73084 0.0
O246 O 0.84137 0.41187 0.69499 0.0
C247 C 0.80243 0.39238 0.70551 0.0
O248 O 0.7406 0.54839 0.75718 0.0
O249 O 0.68657 0.55148 0.81408 0.0
C250 C 0.78842 0.55113 0.67866 0.0
C251 C 0.70548 0.56899 0.77762 0.0
C252 C 0.10491 0.31864 0.35296 0.0
C253 C 0.14644 0.3059 0.37595 0.0
C254 C 0.10573 0.35194 0.31667 0.0
C255 C 0.14804 0.37408 0.30213 0.0
H256 H 0.07119 0.30408 0.36436 0.0
H257 H 0.07256 0.36207 0.30129 0.0
S258 S 0.26656 0.3525 0.35062 0.0
N259 N 0.23135 0.31626 0.38047 0.0
N260 N 0.23263 0.38042 0.31305 0.0
C261 C 0.19018 0.36009 0.32324 0.0
C262 C 0.18943 0.32554 0.36 0.0
C263 C 0.63169 0.12619 0.28531 0.0
C264 C 0.60172 0.16529 0.28087 0.0
C265 C 0.66673 0.12564 0.31958 0.0
C266 C 0.67339 0.16423 0.35055 0.0
H267 H 0.62552 0.09423 0.26472 0.0
H268 H 0.68641 0.09326 0.32419 0.0
S269 S 0.60952 0.27821 0.34846 0.0
N270 N 0.58498 0.24599 0.30622 0.0
N271 N 0.6512 0.24497 0.37078 0.0
C272 C 0.64726 0.20559 0.34314 0.0
C273 C 0.61129 0.2061 0.30812 0.0
C274 C 0.84341 0.67357 0.30937 0.0
C275 C 0.80659 0.6816 0.34194 0.0
C276 C 0.83997 0.63776 0.27504 0.0
C277 C 0.79958 0.60859 0.27197 0.0
H278 H 0.87651 0.69283 0.31264 0.0
H279 H 0.8706 0.63042 0.25309 0.0
S280 S 0.69178 0.61757 0.34624 0.0
N281 N 0.72704 0.65982 0.3667 0.0
N282 N 0.72066 0.59231 0.30194 0.0
C283 C 0.76093 0.61881 0.30156 0.0
C284 C 0.76441 0.65545 0.33669 0.0
C285 C 0.31255 0.76308 0.33529 0.0
C286 C 0.28827 0.80571 0.34362 0.0
C287 C 0.34829 0.76055 0.30043 0.0
C288 C 0.3604 0.80065 0.27336 0.0
H289 H 0.30747 0.73336 0.3589 0.0
H290 H 0.36951 0.72889 0.29804 0.0
S291 S 0.29915 0.91602 0.27387 0.0
N292 N 0.27268 0.88531 0.31616 0.0
N293 N 0.33948 0.8806 0.25099 0.0
C294 C 0.33222 0.84109 0.27747 0.0
C295 C 0.29614 0.84362 0.3126 0.0
C296 C 0.21547 0.67198 0.61888 0.0
C297 C 0.17469 0.69817 0.60956 0.0
C298 C 0.21523 0.63742 0.6546 0.0
C299 C 0.17428 0.62852 0.68176 0.0
H300 H 0.24591 0.6748 0.59562 0.0
H301 H 0.24538 0.61448 0.65765 0.0
S302 S 0.06274 0.69528 0.67811 0.0
N303 N 0.09569 0.71869 0.63568 0.0
N304 N 0.09528 0.65404 0.70239 0.0
C305 C 0.13559 0.65844 0.67632 0.0
C306 C 0.13579 0.69327 0.64024 0.0
C307 C 0.31242 0.21911 0.62247 0.0
C308 C 0.27894 0.18255 0.61575 0.0
C309 C 0.34298 0.21859 0.66132 0.0
C310 C 0.34136 0.18091 0.69371 0.0
H311 H 0.31838 0.24524 0.59512 0.0
H312 H 0.37145 0.2445 0.66272 0.0
S313 S 0.25372 0.08255 0.69644 0.0
N314 N 0.24073 0.11271 0.64864 0.0
N315 N 0.29856 0.11105 0.72081 0.0
C316 C 0.30431 0.14768 0.69027 0.0
C317 C 0.27298 0.14865 0.65135 0.0
C318 C 0.75057 0.33987 0.6567 0.0
C319 C 0.79157 0.34593 0.68368 0.0
C320 C 0.74827 0.30474 0.62114 0.0
C321 C 0.78693 0.27509 0.61201 0.0
H322 H 0.72245 0.36544 0.65947 0.0
H323 H 0.71838 0.30417 0.59767 0.0
S324 S 0.89654 0.26903 0.68126 0.0
N325 N 0.86718 0.31356 0.70522 0.0
N326 N 0.86287 0.24785 0.63866 0.0
C327 C 0.8251 0.27687 0.643 0.0
C328 C 0.82742 0.31231 0.67891 0.0
C329 C 0.68916 0.84482 0.62729 0.0
C330 C 0.69609 0.80398 0.59932 0.0
C331 C 0.65342 0.84652 0.66167 0.0
C332 C 0.62326 0.80742 0.66956 0.0
H333 H 0.7093 0.87695 0.62018 0.0
H334 H 0.64725 0.87984 0.67996 0.0
S335 S 0.6296 0.69052 0.60903 0.0
N336 N 0.67269 0.72208 0.58467 0.0
N337 N 0.60495 0.72543 0.64919 0.0
C338 C 0.63233 0.76499 0.64478 0.0
C339 C 0.66902 0.76321 0.60967 0.0
C340 C 0.31682 0.19743 0.30918 0.0
C341 C 0.36227 0.18618 0.32481 0.0
C342 C 0.27865 0.20061 0.34137 0.0
C343 C 0.28493 0.19201 0.38978 0.0
H344 H 0.31011 0.20078 0.27186 0.0
H345 H 0.24369 0.20697 0.32795 0.0
S346 S 0.39825 0.17104 0.44939 0.0
N347 N 0.41225 0.17389 0.39276 0.0
N348 N 0.34079 0.179 0.45244 0.0
C349 C 0.3307 0.18451 0.40602 0.0
C350 C 0.36931 0.18182 0.37368 0.0
C351 C 0.73477 0.37636 0.33583 0.0
C352 C 0.75508 0.36426 0.29204 0.0
C353 C 0.73222 0.34336 0.37241 0.0
C354 C 0.74948 0.29724 0.366 0.0
H355 H 0.72554 0.41286 0.34347 0.0
H356 H 0.72106 0.35535 0.40718 0.0
S357 S 0.79886 0.24616 0.25568 0.0
N358 N 0.78771 0.30192 0.24246 0.0
N359 N 0.78125 0.23909 0.31101 0.0
C360 C 0.76435 0.28304 0.32072 0.0
C361 C 0.76768 0.31694 0.28362 0.0
C362 C 0.65302 0.77687 0.27679 0.0
C363 C 0.60758 0.75935 0.28761 0.0
C364 C 0.68866 0.77712 0.31097 0.0
C365 C 0.67952 0.76 0.3567 0.0
H366 H 0.6595 0.79515 0.2438 0.0
H367 H 0.72155 0.79554 0.30327 0.0
S368 S 0.56921 0.70249 0.39913 0.0
N369 N 0.55776 0.71811 0.34438 0.0
N370 N 0.62442 0.71884 0.40853 0.0
C371 C 0.63607 0.7375 0.36581 0.0
C372 C 0.60008 0.73708 0.33116 0.0
C373 C 0.17028 0.69377 0.31868 0.0
C374 C 0.20183 0.68542 0.35538 0.0
C375 C 0.16464 0.66066 0.28205 0.0
C376 C 0.19088 0.61869 0.28084 0.0
H377 H 0.14599 0.7231 0.3212 0.0
H378 H 0.13614 0.66545 0.25746 0.0
S379 S 0.28521 0.58589 0.36312 0.0
N380 N 0.2647 0.63641 0.3846 0.0
N381 N 0.25507 0.5746 0.31465 0.0
C382 C 0.22703 0.6133 0.31366 0.0
C383 C 0.23218 0.64663 0.35149 0.0
C384 C 0.30021 0.78169 0.63045 0.0
C385 C 0.31293 0.76188 0.58646 0.0
C386 C 0.33362 0.78661 0.66644 0.0
C387 C 0.37999 0.77089 0.65944 0.0
H388 H 0.26633 0.79855 0.63505 0.0
H389 H 0.32453 0.80692 0.69781 0.0
S390 S 0.42697 0.70691 0.55492 0.0
N391 N 0.37215 0.71942 0.54099 0.0
N392 N 0.43447 0.72771 0.60904 0.0
C393 C 0.39096 0.74545 0.61819 0.0
C394 C 0.35736 0.74102 0.58149 0.0
C395 C 0.22782 0.33819 0.59623 0.0
C396 C 0.20685 0.2955 0.61153 0.0
C397 C 0.22863 0.37835 0.62567 0.0
C398 C 0.20964 0.37654 0.67161 0.0
H399 H 0.23742 0.34254 0.55935 0.0
H400 H 0.23948 0.4121 0.61074 0.0
S401 S 0.16211 0.26995 0.73192 0.0
N402 N 0.17492 0.25129 0.67786 0.0
N403 N 0.17774 0.32661 0.73394 0.0
C404 C 0.19549 0.33229 0.6896 0.0
C405 C 0.19394 0.29156 0.65928 0.0
C406 C 0.56731 0.21094 0.61293 0.0
C407 C 0.57835 0.20477 0.66069 0.0
C408 C 0.60219 0.20899 0.57791 0.0
C409 C 0.64938 0.20103 0.58939 0.0
H410 H 0.53088 0.21315 0.60215 0.0
H411 H 0.59154 0.20961 0.54128 0.0
S412 S 0.698 0.19223 0.70971 0.0
N413 N 0.6406 0.19768 0.71838 0.0
N414 N 0.70669 0.19421 0.65194 0.0
C415 C 0.66185 0.20056 0.63722 0.0
C416 C 0.62606 0.20246 0.67318 0.0
C417 C 0.76135 0.58058 0.60198 0.0
C418 C 0.77196 0.59056 0.64934 0.0
C419 C 0.76143 0.61651 0.5683 0.0
C420 C 0.77234 0.66369 0.58072 0.0
H421 H 0.75698 0.54415 0.59011 0.0
H422 H 0.75749 0.60658 0.53149 0.0
S423 S 0.79351 0.7097 0.70147 0.0
N424 N 0.78649 0.65183 0.70841 0.0
N425 N 0.78678 0.71981 0.64454 0.0
C426 C 0.77737 0.67511 0.62875 0.0
C427 C 0.77717 0.63829 0.66334 0.0
C428 C 0.33454 0.31113 0.23272 0.0
C429 C 0.33103 0.27237 0.2014 0.0
C430 C 0.30156 0.34792 0.23173 0.0
C431 C 0.26324 0.34618 0.2007 0.0
H432 H 0.36602 0.31612 0.25357 0.0
H433 H 0.30918 0.38022 0.25133 0.0
S434 S 0.23435 0.24838 0.11762 0.0
N435 N 0.28368 0.23163 0.14267 0.0
N436 N 0.22066 0.29976 0.14238 0.0
C437 C 0.25648 0.30489 0.1735 0.0
C438 C 0.29057 0.26806 0.17362 0.0
C439 C 0.31897 0.63359 0.74319 0.0
C440 C 0.28751 0.63043 0.78179 0.0
C441 C 0.35653 0.66666 0.7436 0.0
C442 C 0.36352 0.69664 0.78292 0.0
H443 H 0.31779 0.6071 0.71529 0.0
H444 H 0.38284 0.66518 0.71563 0.0
S445 S 0.28493 0.70868 0.88736 0.0
N446 N 0.26097 0.66534 0.85585 0.0
N447 N 0.33173 0.72673 0.857 0.0
C448 C 0.32902 0.69754 0.81866 0.0
C449 C 0.29078 0.66455 0.81795 0.0
C450 C 0.33702 0.38467 0.75023 0.0
C451 C 0.29522 0.37862 0.77648 0.0
C452 C 0.37076 0.34889 0.74858 0.0
C453 C 0.36323 0.30615 0.77278 0.0
H454 H 0.34574 0.41885 0.73494 0.0
H455 H 0.40474 0.35652 0.73232 0.0
S456 S 0.25623 0.27067 0.84005 0.0
N457 N 0.24552 0.32522 0.82241 0.0
N458 N 0.30874 0.25724 0.81832 0.0
C459 C 0.31934 0.2977 0.79448 0.0
C460 C 0.28523 0.33436 0.79669 0.0
C461 C 0.64763 0.35005 0.74684 0.0
C462 C 0.67886 0.35826 0.78429 0.0
C463 C 0.61312 0.31382 0.74974 0.0
C464 C 0.60905 0.2855 0.79034 0.0
H465 H 0.6468 0.37449 0.71754 0.0
H466 H 0.58663 0.31137 0.72256 0.0
S467 S 0.6888 0.28707 0.89291 0.0
N468 N 0.7085 0.33061 0.85904 0.0
N469 N 0.64379 0.26297 0.86465 0.0
C470 C 0.64362 0.29002 0.82512 0.0
C471 C 0.67854 0.32647 0.82209 0.0
C472 C 0.68936 0.65487 0.77909 0.0
C473 C 0.68319 0.61046 0.75702 0.0
C474 C 0.6547 0.68975 0.77596 0.0
C475 C 0.61272 0.6804 0.75165 0.0
H476 H 0.71857 0.6608 0.8028 0.0
H477 H 0.65817 0.7216 0.7974 0.0
S478 S 0.58386 0.57275 0.68167 0.0
N479 N 0.63605 0.56188 0.70418 0.0
N480 N 0.56976 0.62655 0.70014 0.0
C481 C 0.60871 0.63825 0.72534 0.0
C482 C 0.64443 0.60337 0.72755 0.0
C483 C 0.62394 0.65486 0.20058 0.0
C484 C 0.61704 0.68234 0.16002 0.0
C485 C 0.65901 0.61992 0.20116 0.0
C486 C 0.68836 0.61225 0.16151 0.0
H487 H 0.59918 0.65689 0.22991 0.0
H488 H 0.65959 0.5956 0.23051 0.0
S489 S 0.69082 0.68224 0.05132 0.0
N490 N 0.64694 0.70481 0.08267 0.0
N491 N 0.71323 0.64013 0.08419 0.0
C492 C 0.68524 0.64345 0.12331 0.0
C493 C 0.64943 0.67835 0.12247 0.0
C494 C 0.32522 0.67458 0.17697 0.0
C495 C 0.36986 0.66562 0.19583 0.0
C496 C 0.28993 0.63907 0.17651 0.0
C497 C 0.29864 0.59379 0.19472 0.0
H498 H 0.31923 0.70728 0.15819 0.0
H499 H 0.2576 0.64554 0.15776 0.0
S500 S 0.40664 0.55568 0.25505 0.0
N501 N 0.41838 0.61076 0.23871 0.0
N502 N 0.35228 0.54414 0.23773 0.0
C503 C 0.34121 0.58631 0.21799 0.0
C504 C 0.37685 0.62232 0.21862 0.0
C505 C 0.56915 0.35353 0.21866 0.0
C506 C 0.57568 0.305 0.20911 0.0
C507 C 0.60607 0.38636 0.21303 0.0
C508 C 0.65095 0.37189 0.19786 0.0
H509 H 0.53421 0.3668 0.22652 0.0
H510 H 0.59841 0.42381 0.21673 0.0
S511 S 0.68834 0.24823 0.17544 0.0
N512 N 0.63189 0.24328 0.18976 0.0
N513 N 0.70154 0.30545 0.17879 0.0
C514 C 0.65937 0.32307 0.19306 0.0
C515 C 0.62158 0.28939 0.19893 0.0
C516 C 0.20243 0.9814 0.53596 0.0
C517 C 0.1765 0.94876 0.50826 0.0
C518 C 0.19895 0.03026 0.52932 0.0
C519 C 0.16827 0.04862 0.49586 0.0
H520 H 0.22849 0.96912 0.5606 0.0
H521 H 0.222 0.05377 0.54913 0.0
S522 S 0.08564 0.97976 0.42091 0.0
N523 N 0.11451 0.93897 0.45019 0.0
N524 N 0.10639 0.0316 0.43951 0.0
C525 C 0.13819 0.01711 0.47168 0.0
C526 C 0.1425 0.96688 0.4776 0.0
C527 C 0.00537 0.1423 0.44886 0.0
C528 C 0.01847 0.1433 0.49657 0.0
C529 C 0.9577 0.14328 0.43641 0.0
C530 C 0.9221 0.14344 0.47131 0.0
H531 H 0.03169 0.14814 0.42142 0.0
H532 H 0.94892 0.14957 0.39987 0.0
S533 S 0.93862 0.13236 0.60019 0.0
N534 N -0.00732 0.13503 0.57802 0.0
N535 N 0.903 0.13392 0.55453 0.0
C536 C 0.93485 0.13576 0.51837 0.0
C537 C -0.01669 0.13639 0.53112 0.0
C538 C 0.83372 0.01969 0.44109 0.0
C539 C 0.82421 0.03394 0.48785 0.0
C540 C 0.83932 0.9715 0.42977 0.0
C541 C 0.83674 0.93672 0.46509 0.0
H542 H 0.82977 0.04462 0.4125 0.0
H543 H 0.83916 0.96096 0.39289 0.0
S544 S 0.82714 0.95828 0.59388 0.0
N545 N 0.82272 0.01147 0.57028 0.0
N546 N 0.83567 0.92113 0.54927 0.0
C547 C 0.83632 0.95179 0.51246 0.0
C548 C 0.82917 0.00059 0.52386 0.0
C549 C 0.01586 0.84743 0.43422 0.0
C550 C 0.04614 0.84356 0.47303 0.0
C551 C 0.96668 0.84322 0.43998 0.0
C552 C 0.9465 0.83426 0.48464 0.0
H553 H 0.03041 0.84704 0.39869 0.0
H554 H 0.94525 0.84004 0.40867 0.0
S555 S 0.00952 0.83291 0.59832 0.0
N556 N 0.05165 0.84057 0.55829 0.0
N557 N 0.95955 0.83103 0.56897 0.0
C558 C 0.9758 0.83769 0.52417 0.0
C559 C 0.02569 0.84301 0.51839 0.0
C560 C 0.51155 0.1467 0.96233 0.0
C561 C 0.46736 0.14825 0.94054 0.0
C562 C 0.51497 0.14621 0.01174 0.0
C563 C 0.47431 0.14616 0.04055 0.0
H564 H 0.54337 0.15281 0.94164 0.0
H565 H 0.54927 0.15192 0.02737 0.0
S566 S 0.35098 0.13853 8e-05 0.0
N567 N 0.38267 0.14139 0.95085 0.0
N568 N 0.38915 0.13861 0.04369 0.0
C569 C 0.43041 0.14002 0.01892 0.0
C570 C 0.42689 0.14155 0.9687 0.0
C571 C 0.8279 0.43509 0.94256 0.0
C572 C 0.8296 0.48166 0.92514 0.0
C573 C 0.82473 0.42683 -0.00872 0.0
C574 C 0.82472 0.46485 0.0237 0.0
H575 H 0.8212 0.4056 0.91867 0.0
H576 H 0.81601 0.3913 0.00315 0.0
S577 S 0.843 0.5918 -0.00415 0.0
N578 N 0.84133 0.56501 0.94378 0.0
N579 N 0.83778 0.54932 0.03551 0.0
C580 C 0.83545 0.51046 0.00688 0.0
C581 C 0.83739 0.51897 0.95729 0.0
C582 C 0.52915 0.83117 0.00844 0.0
C583 C 0.48263 0.82731 0.02566 0.0
C584 C 0.53852 0.83161 0.95967 0.0
C585 C 0.5016 0.82971 0.927 0.0
H586 H 0.5584 0.82659 0.03218 0.0
H587 H 0.57461 0.82748 0.94756 0.0
S588 S 0.37397 0.83209 0.95497 0.0
N589 N 0.39959 0.83052 0.00702 0.0
N590 N 0.41718 0.8338 0.91541 0.0
C591 C 0.45524 0.83416 0.9441 0.0
C592 C 0.44569 0.83233 -0.00635 0.0
C593 C 0.13422 0.53668 0.96184 0.0
C594 C 0.13516 0.49648 0.93213 0.0
C595 C 0.13543 0.53188 0.01109 0.0
C596 C 0.1373 0.48678 0.03169 0.0
H597 H 0.14011 0.57164 0.94707 0.0
H598 H 0.14173 0.56334 0.03246 0.0
S599 S 0.12649 0.37127 0.96968 0.0
N600 N 0.12696 0.4109 0.92697 0.0
N601 N 0.12944 0.40182 0.01962 0.0
C602 C 0.12991 0.44684 0.00278 0.0
C603 C 0.12844 0.45176 0.95272 0.0
C604 C -0.00592 0.52192 0.1191 0.0
C605 C 0.02689 0.48557 0.12583 0.0
C606 C 0.94552 0.51181 0.11814 0.0
C607 C 0.92875 0.46523 0.12505 0.0
H608 H 0.00537 0.55871 0.12176 0.0
H609 H 0.92129 0.54124 0.11996 0.0
S610 S 0.00083 0.35678 0.12854 0.0
N611 N 0.03984 0.40071 0.12631 0.0
N612 N 0.94853 0.3818 0.12659 0.0
C613 C 0.9614 0.42822 0.12286 0.0
C614 C 0.01077 0.43845 0.12262 0.0
C615 C 0.96425 0.53403 0.82189 0.0
C616 C 0.93488 0.49368 0.81848 0.0
C617 C 0.01337 0.52952 0.82388 0.0
C618 C 0.03419 0.48456 0.8211 0.0
H619 H 0.94976 0.56901 0.81685 0.0
H620 H 0.03503 0.56125 0.82024 0.0
S621 S 0.97205 0.36846 0.82307 0.0
N622 N 0.9294 0.40786 0.82247 0.0
N623 N 0.02188 0.39936 0.82399 0.0
C624 C 0.00496 0.44427 0.82485 0.0
C625 C 0.955 0.44888 0.82409 0.0
C626 C 0.44556 0.01649 0.83857 0.0
C627 C 0.48928 0.0401 0.83442 0.0
C628 C 0.4428 0.96683 0.83522 0.0
C629 C 0.48376 0.93985 0.82896 0.0
H630 H 0.41321 0.03638 0.83632 0.0
H631 H 0.40848 0.95028 0.83061 0.0
S632 S 0.60666 0.98453 0.83182 0.0
N633 N 0.57425 0.03281 0.83514 0.0
N634 N 0.56911 0.9393 0.83086 0.0
C635 C 0.52756 0.9626 0.83445 0.0
C636 C 0.53035 0.01311 0.83675 0.0
C637 C 0.52463 0.97084 0.1315 0.0
C638 C 0.49082 0.93403 0.13448 0.0
C639 C 0.5111 0.01863 0.13328 0.0
C640 C 0.46353 0.03075 0.13969 0.0
H641 H 0.56175 0.96274 0.13381 0.0
H642 H 0.5384 0.04558 0.13701 0.0
S643 S 0.3613 0.94804 0.13785 0.0
N644 N 0.40761 0.91322 0.13353 0.0
N645 N 0.3824 0.00292 0.1395 0.0
C646 C 0.42934 -0.00538 0.13551 0.0
C647 C 0.44302 0.94608 0.13222 0.0
loop_
_geom_bond_atom_site_label_1
_geom_bond_atom_site_label_2
_geom_bond_distance
_geom_bond_site_symmetry_2
_ccdc_geom_bond_type
Zn0 O6 1.920 . S
Zn0 O12 1.898 . S
Zn0 O15 1.905 . S
Zn1 O9 1.905 . S
Zn1 O10 1.898 . S
Zn1 O18 1.920 . S
Zn2 O5 2.080 . S
Zn2 O8 2.114 . S
Zn2 O11 2.120 . S
Zn2 O13 2.120 . S
Zn2 O14 2.114 . S
Zn2 O17 2.080 . S
C3 O8 1.166 . S
C3 O9 1.182 . S
C4 O10 1.167 . S
C4 O11 1.299 . S
O5 Zn2 2.080 . S
O5 C19 1.305 . S
O6 Zn0 1.920 . S
O6 C19 1.234 . S
C7 O12 1.167 . S
C7 O13 1.299 . S
O8 Zn2 2.114 . S
O8 C3 1.166 . S
O9 Zn1 1.905 . S
O9 C3 1.182 . S
O10 Zn1 1.898 . S
O10 C4 1.167 . S
O11 Zn2 2.120 . S
O11 C4 1.299 . S
O12 Zn0 1.898 . S
O12 C7 1.167 . S
O13 Zn2 2.120 . S
O13 C7 1.299 . S
O14 Zn2 2.114 . S
O14 C16 1.166 . S
O15 Zn0 1.905 . S
O15 C16 1.182 . S
C16 O14 1.166 . S
C16 O15 1.182 . S
O17 Zn2 2.080 . S
O17 C20 1.305 . S
O18 Zn1 1.920 . S
O18 C20 1.234 . S
C19 O5 1.305 . S
C19 O6 1.234 . S
C20 O17 1.305 . S
C20 O18 1.234 . S
Zn21 O27 1.920 . S
Zn21 O33 1.898 . S
Zn21 O36 1.905 . S
Zn22 O30 1.905 . S
Zn22 O31 1.898 . S
Zn22 O39 1.920 . S
Zn23 O26 2.080 . S
Zn23 O29 2.114 . S
Zn23 O32 2.120 . S
Zn23 O34 2.120 . S
Zn23 O35 2.114 . S
Zn23 O38 2.080 . S
C24 O29 1.166 . S
C24 O30 1.182 . S
C25 O31 1.167 . S
C25 O32 1.299 . S
O26 Zn23 2.080 . S
O26 C40 1.305 . S
O27 Zn21 1.920 . S
O27 C40 1.234 . S
C28 O33 1.167 . S
C28 O34 1.299 . S
O29 Zn23 2.114 . S
O29 C24 1.166 . S
O30 Zn22 1.905 . S
O30 C24 1.182 . S
O31 Zn22 1.898 . S
O31 C25 1.167 . S
O32 Zn23 2.120 . S
O32 C25 1.299 . S
O33 Zn21 1.898 . S
O33 C28 1.167 . S
O34 Zn23 2.120 . S
O34 C28 1.299 . S
O35 Zn23 2.114 . S
O35 C37 1.166 . S
O36 Zn21 1.905 . S
O36 C37 1.182 . S
C37 O35 1.166 . S
C37 O36 1.182 . S
O38 Zn23 2.080 . S
O38 C41 1.305 . S
O39 Zn22 1.920 . S
O39 C41 1.234 . S
C40 O26 1.305 . S
C40 O27 1.234 . S
C41 O38 1.305 . S
C41 O39 1.234 . S
Zn42 O48 1.920 . S
Zn42 O54 1.898 . S
Zn42 O57 1.905 . S
Zn43 O51 1.905 . S
Zn43 O52 1.898 . S
Zn43 O60 1.920 . S
Zn44 O47 2.080 . S
Zn44 O50 2.114 . S
Zn44 O53 2.120 . S
Zn44 O55 2.120 . S
Zn44 O56 2.114 . S
Zn44 O59 2.080 . S
C45 O50 1.166 . S
C45 O51 1.182 . S
C46 O52 1.167 . S
C46 O53 1.299 . S
O47 Zn44 2.080 . S
O47 C61 1.305 . S
O48 Zn42 1.920 . S
O48 C61 1.234 . S
C49 O54 1.167 . S
C49 O55 1.299 . S
O50 Zn44 2.114 . S
O50 C45 1.166 . S
O51 Zn43 1.905 . S
O51 C45 1.182 . S
O52 Zn43 1.898 . S
O52 C46 1.167 . S
O53 Zn44 2.120 . S
O53 C46 1.299 . S
O54 Zn42 1.898 . S
O54 C49 1.167 . S
O55 Zn44 2.120 . S
O55 C49 1.299 . S
O56 Zn44 2.114 . S
O56 C58 1.166 . S
O57 Zn42 1.905 . S
O57 C58 1.182 . S
C58 O56 1.166 . S
C58 O57 1.182 . S
O59 Zn44 2.080 . S
O59 C62 1.305 . S
O60 Zn43 1.920 . S
O60 C62 1.234 . S
C61 O47 1.305 . S
C61 O48 1.234 . S
C62 O59 1.305 . S
C62 O60 1.234 . S
Zn63 O69 1.920 . S
Zn63 O75 1.898 . S
Zn63 O78 1.905 . S
Zn64 O72 1.905 . S
Zn64 O73 1.898 . S
Zn64 O81 1.920 . S
Zn65 O68 2.080 . S
Zn65 O71 2.114 . S
Zn65 O74 2.120 . S
Zn65 O76 2.120 . S
Zn65 O77 2.114 . S
Zn65 O80 2.080 . S
C66 O71 1.166 . S
C66 O72 1.182 . S
C67 O73 1.167 . S
C67 O74 1.299 . S
O68 Zn65 2.080 . S
O68 C82 1.305 . S
O69 Zn63 1.920 . S
O69 C82 1.234 . S
C70 O75 1.167 . S
C70 O76 1.299 . S
O71 Zn65 2.114 . S
O71 C66 1.166 . S
O72 Zn64 1.905 . S
O72 C66 1.182 . S
O73 Zn64 1.898 . S
O73 C67 1.167 . S
O74 Zn65 2.120 . S
O74 C67 1.299 . S
O75 Zn63 1.898 . S
O75 C70 1.167 . S
O76 Zn65 2.120 . S
O76 C70 1.299 . S
O77 Zn65 2.114 . S
O77 C79 1.166 . S
O78 Zn63 1.905 . S
O78 C79 1.182 . S
C79 O77 1.166 . S
C79 O78 1.182 . S
O80 Zn65 2.080 . S
O80 C83 1.305 . S
O81 Zn64 1.920 . S
O81 C83 1.234 . S
C82 O68 1.305 . S
C82 O69 1.234 . S
C83 O80 1.305 . S
C83 O81 1.234 . S
Zn84 O90 1.920 . S
Zn84 O96 1.898 . S
Zn84 O99 1.905 . S
Zn85 O93 1.905 . S
Zn85 O94 1.898 . S
Zn85 O102 1.920 . S
Zn86 O89 2.080 . S
Zn86 O92 2.114 . S
Zn86 O95 2.120 . S
Zn86 O97 2.120 . S
Zn86 O98 2.114 . S
Zn86 O101 2.080 . S
C87 O92 1.166 . S
C87 O93 1.182 . S
C88 O94 1.167 . S
C88 O95 1.299 . S
O89 Zn86 2.080 . S
O89 C103 1.305 . S
O90 Zn84 1.920 . S
O90 C103 1.234 . S
C91 O96 1.167 . S
C91 O97 1.299 . S
O92 Zn86 2.114 . S
O92 C87 1.166 . S
O93 Zn85 1.905 . S
O93 C87 1.182 . S
O94 Zn85 1.898 . S
O94 C88 1.167 . S
O95 Zn86 2.120 . S
O95 C88 1.299 . S
O96 Zn84 1.898 . S
O96 C91 1.167 . S
O97 Zn86 2.120 . S
O97 C91 1.299 . S
O98 Zn86 2.114 . S
O98 C100 1.166 . S
O99 Zn84 1.905 . S
O99 C100 1.182 . S
C100 O98 1.166 . S
C100 O99 1.182 . S
O101 Zn86 2.080 . S
O101 C104 1.305 . S
O102 Zn85 1.920 . S
O102 C104 1.234 . S
C103 O89 1.305 . S
C103 O90 1.234 . S
C104 O101 1.305 . S
C104 O102 1.234 . S
Zn105 O111 1.920 . S
Zn105 O117 1.898 . S
Zn105 O120 1.905 . S
Zn106 O114 1.905 . S
Zn106 O115 1.898 . S
Zn106 O123 1.920 . S
Zn107 O110 2.080 . S
Zn107 O113 2.114 . S
Zn107 O116 2.120 . S
Zn107 O118 2.120 . S
Zn107 O119 2.114 . S
Zn107 O122 2.080 . S
C108 O113 1.166 . S
C108 O114 1.182 . S
C109 O115 1.167 . S
C109 O116 1.299 . S
O110 Zn107 2.080 . S
O110 C124 1.305 . S
O111 Zn105 1.920 . S
O111 C124 1.234 . S
C112 O117 1.167 . S
C112 O118 1.299 . S
O113 Zn107 2.114 . S
O113 C108 1.166 . S
O114 Zn106 1.905 . S
O114 C108 1.182 . S
O115 Zn106 1.898 . S
O115 C109 1.167 . S
O116 Zn107 2.120 . S
O116 C109 1.299 . S
O117 Zn105 1.898 . S
O117 C112 1.167 . S
O118 Zn107 2.120 . S
O118 C112 1.299 . S
O119 Zn107 2.114 . S
O119 C121 1.166 . S
O120 Zn105 1.905 . S
O120 C121 1.182 . S
C121 O119 1.166 . S
C121 O120 1.182 . S
O122 Zn107 2.080 . S
O122 C125 1.305 . S
O123 Zn106 1.920 . S
O123 C125 1.234 . S
C124 O110 1.305 . S
C124 O111 1.234 . S
C125 O122 1.305 . S
C125 O123 1.234 . S
Zn126 O132 1.920 . S
Zn126 O138 1.898 . S
Zn126 O141 1.905 . S
Zn127 O135 1.905 . S
Zn127 O136 1.898 . S
Zn127 O144 1.920 . S
Zn128 O131 2.080 . S
Zn128 O134 2.114 . S
Zn128 O137 2.120 . S
Zn128 O139 2.120 . S
Zn128 O140 2.114 . S
Zn128 O143 2.080 . S
C129 O134 1.166 . S
C129 O135 1.182 . S
C130 O136 1.167 . S
C130 O137 1.299 . S
O131 Zn128 2.080 . S
O131 C145 1.305 . S
O132 Zn126 1.920 . S
O132 C145 1.234 . S
C133 O138 1.167 . S
C133 O139 1.299 . S
O134 Zn128 2.114 . S
O134 C129 1.166 . S
O135 Zn127 1.905 . S
O135 C129 1.182 . S
O136 Zn127 1.898 . S
O136 C130 1.167 . S
O137 Zn128 2.120 . S
O137 C130 1.299 . S
O138 Zn126 1.898 . S
O138 C133 1.167 . S
O139 Zn128 2.120 . S
O139 C133 1.299 . S
O140 Zn128 2.114 . S
O140 C142 1.166 . S
O141 Zn126 1.905 . S
O141 C142 1.182 . S
C142 O140 1.166 . S
C142 O141 1.182 . S
O143 Zn128 2.080 . S
O143 C146 1.305 . S
O144 Zn127 1.920 . S
O144 C146 1.234 . S
C145 O131 1.305 . S
C145 O132 1.234 . S
C146 O143 1.305 . S
C146 O144 1.234 . S
Zn147 O153 1.920 . S
Zn147 O159 1.898 . S
Zn147 O162 1.905 . S
Zn148 O156 1.905 . S
Zn148 O157 1.898 . S
Zn148 O165 1.920 . S
Zn149 O152 2.080 . S
Zn149 O155 2.114 . S
Zn149 O158 2.120 . S
Zn149 O160 2.120 . S
Zn149 O161 2.114 . S
Zn149 O164 2.080 . S
C150 O155 1.166 . S
C150 O156 1.182 . S
C151 O157 1.167 . S
C151 O158 1.299 . S
O152 Zn149 2.080 . S
O152 C166 1.305 . S
O153 Zn147 1.920 . S
O153 C166 1.234 . S
C154 O159 1.167 . S
C154 O160 1.299 . S
O155 Zn149 2.114 . S
O155 C150 1.166 . S
O156 Zn148 1.905 . S
O156 C150 1.182 . S
O157 Zn148 1.898 . S
O157 C151 1.167 . S
O158 Zn149 2.120 . S
O158 C151 1.299 . S
O159 Zn147 1.898 . S
O159 C154 1.167 . S
O160 Zn149 2.120 . S
O160 C154 1.299 . S
O161 Zn149 2.114 . S
O161 C163 1.166 . S
O162 Zn147 1.905 . S
O162 C163 1.182 . S
C163 O161 1.166 . S
C163 O162 1.182 . S
O164 Zn149 2.080 . S
O164 C167 1.305 . S
O165 Zn148 1.920 . S
O165 C167 1.234 . S
C166 O152 1.305 . S
C166 O153 1.234 . S
C167 O164 1.305 . S
C167 O165 1.234 . S
Zn168 O174 1.920 . S
Zn168 O180 1.898 . S
Zn168 O183 1.905 . S
Zn169 O177 1.905 . S
Zn169 O178 1.898 . S
Zn169 O186 1.920 . S
Zn170 O173 2.080 . S
Zn170 O176 2.114 . S
Zn170 O179 2.120 . S
Zn170 O181 2.120 . S
Zn170 O182 2.114 . S
Zn170 O185 2.080 . S
C171 O176 1.166 . S
C171 O177 1.182 . S
C172 O178 1.167 . S
C172 O179 1.299 . S
O173 Zn170 2.080 . S
O173 C187 1.305 . S
O174 Zn168 1.920 . S
O174 C187 1.234 . S
C175 O180 1.167 . S
C175 O181 1.299 . S
O176 Zn170 2.114 . S
O176 C171 1.166 . S
O177 Zn169 1.905 . S
O177 C171 1.182 . S
O178 Zn169 1.898 . S
O178 C172 1.167 . S
O179 Zn170 2.120 . S
O179 C172 1.299 . S
O180 Zn168 1.898 . S
O180 C175 1.167 . S
O181 Zn170 2.120 . S
O181 C175 1.299 . S
O182 Zn170 2.114 . S
O182 C184 1.166 . S
O183 Zn168 1.905 . S
O183 C184 1.182 . S
C184 O182 1.166 . S
C184 O183 1.182 . S
O185 Zn170 2.080 . S
O185 C188 1.305 . S
O186 Zn169 1.920 . S
O186 C188 1.234 . S
C187 O173 1.305 . S
C187 O174 1.234 . S
C188 O185 1.305 . S
C188 O186 1.234 . S
Zn189 O195 1.920 . S
Zn189 O201 1.898 . S
Zn189 O204 1.905 . S
Zn190 O198 1.905 . S
Zn190 O199 1.898 . S
Zn190 O207 1.920 . S
Zn191 O194 2.080 . S
Zn191 O197 2.114 . S
Zn191 O200 2.120 . S
Zn191 O202 2.120 . S
Zn191 O203 2.114 . S
Zn191 O206 2.080 . S
C192 O197 1.166 . S
C192 O198 1.182 . S
C193 O199 1.167 . S
C193 O200 1.299 . S
O194 Zn191 2.080 . S
O194 C208 1.305 . S
O195 Zn189 1.920 . S
O195 C208 1.234 . S
C196 O201 1.167 . S
C196 O202 1.299 . S
O197 Zn191 2.114 . S
O197 C192 1.166 . S
O198 Zn190 1.905 . S
O198 C192 1.182 . S
O199 Zn190 1.898 . S
O199 C193 1.167 . S
O200 Zn191 2.120 . S
O200 C193 1.299 . S
O201 Zn189 1.898 . S
O201 C196 1.167 . S
O202 Zn191 2.120 . S
O202 C196 1.299 . S
O203 Zn191 2.114 . S
O203 C205 1.166 . S
O204 Zn189 1.905 . S
O204 C205 1.182 . S
C205 O203 1.166 . S
C205 O204 1.182 . S
O206 Zn191 2.080 . S
O206 C209 1.305 . S
O207 Zn190 1.920 . S
O207 C209 1.234 . S
C208 O194 1.305 . S
C208 O195 1.234 . S
C209 O206 1.305 . S
C209 O207 1.234 . S
Zn210 O216 1.920 . S
Zn210 O222 1.898 . S
Zn210 O225 1.905 . S
Zn211 O219 1.905 . S
Zn211 O220 1.898 . S
Zn211 O228 1.920 . S
Zn212 O215 2.080 . S
Zn212 O218 2.114 . S
Zn212 O221 2.120 . S
Zn212 O223 2.120 . S
Zn212 O224 2.114 . S
Zn212 O227 2.080 . S
C213 O218 1.166 . S
C213 O219 1.182 . S
C214 O220 1.167 . S
C214 O221 1.299 . S
O215 Zn212 2.080 . S
O215 C229 1.305 . S
O216 Zn210 1.920 . S
O216 C229 1.234 . S
C217 O222 1.167 . S
C217 O223 1.299 . S
O218 Zn212 2.114 . S
O218 C213 1.166 . S
O219 Zn211 1.905 . S
O219 C213 1.182 . S
O220 Zn211 1.898 . S
O220 C214 1.167 . S
O221 Zn212 2.120 . S
O221 C214 1.299 . S
O222 Zn210 1.898 . S
O222 C217 1.167 . S
O223 Zn212 2.120 . S
O223 C217 1.299 . S
O224 Zn212 2.114 . S
O224 C226 1.166 . S
O225 Zn210 1.905 . S
O225 C226 1.182 . S
C226 O224 1.166 . S
C226 O225 1.182 . S
O227 Zn212 2.080 . S
O227 C230 1.305 . S
O228 Zn211 1.920 . S
O228 C230 1.234 . S
C229 O215 1.305 . S
C229 O216 1.234 . S
C230 O227 1.305 . S
C230 O228 1.234 . S
Zn231 O237 1.920 . S
Zn231 O243 1.898 . S
Zn231 O246 1.905 . S
Zn232 O240 1.905 . S
Zn232 O241 1.898 . S
Zn232 O249 1.920 . S
Zn233 O236 2.080 . S
Zn233 O239 2.114 . S
Zn233 O242 2.120 . S
Zn233 O244 2.120 . S
Zn233 O245 2.114 . S
Zn233 O248 2.080 . S
C234 O239 1.166 . S
C234 O240 1.182 . S
C235 O241 1.167 . S
C235 O242 1.299 . S
O236 Zn233 2.080 . S
O236 C250 1.305 . S
O237 Zn231 1.920 . S
O237 C250 1.234 . S
C238 O243 1.167 . S
C238 O244 1.299 . S
O239 Zn233 2.114 . S
O239 C234 1.166 . S
O240 Zn232 1.905 . S
O240 C234 1.182 . S
O241 Zn232 1.898 . S
O241 C235 1.167 . S
O242 Zn233 2.120 . S
O242 C235 1.299 . S
O243 Zn231 1.898 . S
O243 C238 1.167 . S
O244 Zn233 2.120 . S
O244 C238 1.299 . S
O245 Zn233 2.114 . S
O245 C247 1.166 . S
O246 Zn231 1.905 . S
O246 C247 1.182 . S
C247 O245 1.166 . S
C247 O246 1.182 . S
O248 Zn233 2.080 . S
O248 C251 1.305 . S
O249 Zn232 1.920 . S
O249 C251 1.234 . S
C250 O236 1.305 . S
C250 O237 1.234 . S
C251 O248 1.305 . S
C251 O249 1.234 . S
C252 C253 1.369 . S
C252 C254 1.419 . S
C252 H256 0.930 . S
C253 C252 1.369 . S
C253 C262 1.429 . S
C254 C252 1.419 . S
C254 C255 1.363 . S
C254 H257 0.929 . S
C255 C254 1.363 . S
C255 C261 1.428 . S
H256 C252 0.930 . S
H257 C254 0.929 . S
S258 N259 1.613 . S
S258 N260 1.610 . S
N259 S258 1.613 . S
N259 C262 1.350 . S
N260 S258 1.610 . S
N260 C261 1.351 . S
C261 C255 1.428 . S
C261 N260 1.351 . S
C261 C262 1.434 . S
C262 C253 1.429 . S
C262 N259 1.350 . S
C262 C261 1.434 . S
C263 C264 1.369 . S
C263 C265 1.419 . S
C263 H267 0.930 . S
C264 C263 1.369 . S
C264 C273 1.429 . S
C265 C263 1.419 . S
C265 C266 1.363 . S
C265 H268 0.929 . S
C266 C265 1.363 . S
C266 C272 1.428 . S
H267 C263 0.930 . S
H268 C265 0.929 . S
S269 N270 1.613 . S
S269 N271 1.610 . S
N270 S269 1.613 . S
N270 C273 1.350 . S
N271 S269 1.610 . S
N271 C272 1.351 . S
C272 C266 1.428 . S
C272 N271 1.351 . S
C272 C273 1.434 . S
C273 C264 1.429 . S
C273 N270 1.350 . S
C273 C272 1.434 . S
C274 C275 1.369 . S
C274 C276 1.419 . S
C274 H278 0.930 . S
C275 C274 1.369 . S
C275 C284 1.429 . S
C276 C274 1.419 . S
C276 C277 1.363 . S
C276 H279 0.929 . S
C277 C276 1.363 . S
C277 C283 1.428 . S
H278 C274 0.930 . S
H279 C276 0.929 . S
S280 N281 1.613 . S
S280 N282 1.610 . S
N281 S280 1.613 . S
N281 C284 1.350 . S
N282 S280 1.610 . S
N282 C283 1.351 . S
C283 C277 1.428 . S
C283 N282 1.351 . S
C283 C284 1.434 . S
C284 C275 1.429 . S
C284 N281 1.350 . S
C284 C283 1.434 . S
C285 C286 1.369 . S
C285 C287 1.419 . S
C285 H289 0.930 . S
C286 C285 1.369 . S
C286 C295 1.429 . S
C287 C285 1.419 . S
C287 C288 1.363 . S
C287 H290 0.929 . S
C288 C287 1.363 . S
C288 C294 1.428 . S
H289 C285 0.930 . S
H290 C287 0.929 . S
S291 N292 1.613 . S
S291 N293 1.610 . S
N292 S291 1.613 . S
N292 C295 1.350 . S
N293 S291 1.610 . S
N293 C294 1.351 . S
C294 C288 1.428 . S
C294 N293 1.351 . S
C294 C295 1.434 . S
C295 C286 1.429 . S
C295 N292 1.350 . S
C295 C294 1.434 . S
C296 C297 1.369 . S
C296 C298 1.419 . S
C296 H300 0.930 . S
C297 C296 1.369 . S
C297 C306 1.429 . S
C298 C296 1.419 . S
C298 C299 1.363 . S
C298 H301 0.929 . S
C299 C298 1.363 . S
C299 C305 1.428 . S
H300 C296 0.930 . S
H301 C298 0.929 . S
S302 N303 1.613 . S
S302 N304 1.610 . S
N303 S302 1.613 . S
N303 C306 1.350 . S
N304 S302 1.610 . S
N304 C305 1.351 . S
C305 C299 1.428 . S
C305 N304 1.351 . S
C305 C306 1.434 . S
C306 C297 1.429 . S
C306 N303 1.350 . S
C306 C305 1.434 . S
C307 C308 1.369 . S
C307 C309 1.419 . S
C307 H311 0.930 . S
C308 C307 1.369 . S
C308 C317 1.429 . S
C309 C307 1.419 . S
C309 C310 1.363 . S
C309 H312 0.929 . S
C310 C309 1.363 . S
C310 C316 1.428 . S
H311 C307 0.930 . S
H312 C309 0.929 . S
S313 N314 1.613 . S
S313 N315 1.610 . S
N314 S313 1.613 . S
N314 C317 1.350 . S
N315 S313 1.610 . S
N315 C316 1.351 . S
C316 C310 1.428 . S
C316 N315 1.351 . S
C316 C317 1.434 . S
C317 C308 1.429 . S
C317 N314 1.350 . S
C317 C316 1.434 . S
C318 C319 1.369 . S
C318 C320 1.419 . S
C318 H322 0.930 . S
C319 C318 1.369 . S
C319 C328 1.429 . S
C320 C318 1.419 . S
C320 C321 1.363 . S
C320 H323 0.929 . S
C321 C320 1.363 . S
C321 C327 1.428 . S
H322 C318 0.930 . S
H323 C320 0.929 . S
S324 N325 1.613 . S
S324 N326 1.610 . S
N325 S324 1.613 . S
N325 C328 1.350 . S
N326 S324 1.610 . S
N326 C327 1.351 . S
C327 C321 1.428 . S
C327 N326 1.351 . S
C327 C328 1.434 . S
C328 C319 1.429 . S
C328 N325 1.350 . S
C328 C327 1.434 . S
C329 C330 1.369 . S
C329 C331 1.419 . S
C329 H333 0.930 . S
C330 C329 1.369 . S
C330 C339 1.429 . S
C331 C329 1.419 . S
C331 C332 1.363 . S
C331 H334 0.929 . S
C332 C331 1.363 . S
C332 C338 1.428 . S
H333 C329 0.930 . S
H334 C331 0.929 . S
S335 N336 1.613 . S
S335 N337 1.610 . S
N336 S335 1.613 . S
N336 C339 1.350 . S
N337 S335 1.610 . S
N337 C338 1.351 . S
C338 C332 1.428 . S
C338 N337 1.351 . S
C338 C339 1.434 . S
C339 C330 1.429 . S
C339 N336 1.350 . S
C339 C338 1.434 . S
C340 C341 1.369 . S
C340 C342 1.419 . S
C340 H344 0.930 . S
C341 C340 1.369 . S
C341 C350 1.429 . S
C342 C340 1.419 . S
C342 C343 1.363 . S
C342 H345 0.929 . S
C343 C342 1.363 . S
C343 C349 1.428 . S
H344 C340 0.930 . S
H345 C342 0.929 . S
S346 N347 1.613 . S
S346 N348 1.610 . S
N347 S346 1.613 . S
N347 C350 1.350 . S
N348 S346 1.610 . S
N348 C349 1.351 . S
C349 C343 1.428 . S
C349 N348 1.351 . S
C349 C350 1.434 . S
C350 C341 1.429 . S
C350 N347 1.350 . S
C350 C349 1.434 . S
C351 C352 1.369 . S
C351 C353 1.419 . S
C351 H355 0.930 . S
C352 C351 1.369 . S
C352 C361 1.429 . S
C353 C351 1.419 . S
C353 C354 1.363 . S
C353 H356 0.929 . S
C354 C353 1.363 . S
C354 C360 1.428 . S
H355 C351 0.930 . S
H356 C353 0.929 . S
S357 N358 1.613 . S
S357 N359 1.610 . S
N358 S357 1.613 . S
N358 C361 1.350 . S
N359 S357 1.610 . S
N359 C360 1.351 . S
C360 C354 1.428 . S
C360 N359 1.351 . S
C360 C361 1.434 . S
C361 C352 1.429 . S
C361 N358 1.350 . S
C361 C360 1.434 . S
C362 C363 1.369 . S
C362 C364 1.419 . S
C362 H366 0.930 . S
C363 C362 1.369 . S
C363 C372 1.429 . S
C364 C362 1.419 . S
C364 C365 1.363 . S
C364 H367 0.929 . S
C365 C364 1.363 . S
C365 C371 1.428 . S
H366 C362 0.930 . S
H367 C364 0.929 . S
S368 N369 1.613 . S
S368 N370 1.610 . S
N369 S368 1.613 . S
N369 C372 1.350 . S
N370 S368 1.610 . S
N370 C371 1.351 . S
C371 C365 1.428 . S
C371 N370 1.351 . S
C371 C372 1.434 . S
C372 C363 1.429 . S
C372 N369 1.350 . S
C372 C371 1.434 . S
C373 C374 1.369 . S
C373 C375 1.419 . S
C373 H377 0.930 . S
C374 C373 1.369 . S
C374 C383 1.429 . S
C375 C373 1.419 . S
C375 C376 1.363 . S
C375 H378 0.929 . S
C376 C375 1.363 . S
C376 C382 1.428 . S
H377 C373 0.930 . S
H378 C375 0.929 . S
S379 N380 1.613 . S
S379 N381 1.610 . S
N380 S379 1.613 . S
N380 C383 1.350 . S
N381 S379 1.610 . S
N381 C382 1.351 . S
C382 C376 1.428 . S
C382 N381 1.351 . S
C382 C383 1.434 . S
C383 C374 1.429 . S
C383 N380 1.350 . S
C383 C382 1.434 . S
C384 C385 1.369 . S
C384 C386 1.419 . S
C384 H388 0.930 . S
C385 C384 1.369 . S
C385 C394 1.429 . S
C386 C384 1.419 . S
C386 C387 1.363 . S
C386 H389 0.929 . S
C387 C386 1.363 . S
C387 C393 1.428 . S
H388 C384 0.930 . S
H389 C386 0.929 . S
S390 N391 1.613 . S
S390 N392 1.610 . S
N391 S390 1.613 . S
N391 C394 1.350 . S
N392 S390 1.610 . S
N392 C393 1.351 . S
C393 C387 1.428 . S
C393 N392 1.351 . S
C393 C394 1.434 . S
C394 C385 1.429 . S
C394 N391 1.350 . S
C394 C393 1.434 . S
C395 C396 1.369 . S
C395 C397 1.419 . S
C395 H399 0.930 . S
C396 C395 1.369 . S
C396 C405 1.429 . S
C397 C395 1.419 . S
C397 C398 1.363 . S
C397 H400 0.929 . S
C398 C397 1.363 . S
C398 C404 1.428 . S
H399 C395 0.930 . S
H400 C397 0.929 . S
S401 N402 1.613 . S
S401 N403 1.610 . S
N402 S401 1.613 . S
N402 C405 1.350 . S
N403 S401 1.610 . S
N403 C404 1.351 . S
C404 C398 1.428 . S
C404 N403 1.351 . S
C404 C405 1.434 . S
C405 C396 1.429 . S
C405 N402 1.350 . S
C405 C404 1.434 . S
C406 C407 1.369 . S
C406 C408 1.419 . S
C406 H410 0.930 . S
C407 C406 1.369 . S
C407 C416 1.429 . S
C408 C406 1.419 . S
C408 C409 1.363 . S
C408 H411 0.929 . S
C409 C408 1.363 . S
C409 C415 1.428 . S
H410 C406 0.930 . S
H411 C408 0.929 . S
S412 N413 1.613 . S
S412 N414 1.610 . S
N413 S412 1.613 . S
N413 C416 1.350 . S
N414 S412 1.610 . S
N414 C415 1.351 . S
C415 C409 1.428 . S
C415 N414 1.351 . S
C415 C416 1.434 . S
C416 C407 1.429 . S
C416 N413 1.350 . S
C416 C415 1.434 . S
C417 C418 1.369 . S
C417 C419 1.419 . S
C417 H421 0.930 . S
C418 C417 1.369 . S
C418 C427 1.429 . S
C419 C417 1.419 . S
C419 C420 1.363 . S
C419 H422 0.929 . S
C420 C419 1.363 . S
C420 C426 1.428 . S
H421 C417 0.930 . S
H422 C419 0.929 . S
S423 N424 1.613 . S
S423 N425 1.610 . S
N424 S423 1.613 . S
N424 C427 1.350 . S
N425 S423 1.610 . S
N425 C426 1.351 . S
C426 C420 1.428 . S
C426 N425 1.351 . S
C426 C427 1.434 . S
C427 C418 1.429 . S
C427 N424 1.350 . S
C427 C426 1.434 . S
C428 C429 1.369 . S
C428 C430 1.419 . S
C428 H432 0.930 . S
C429 C428 1.369 . S
C429 C438 1.429 . S
C430 C428 1.419 . S
C430 C431 1.363 . S
C430 H433 0.929 . S
C431 C430 1.363 . S
C431 C437 1.428 . S
H432 C428 0.930 . S
H433 C430 0.929 . S
S434 N435 1.613 . S
S434 N436 1.610 . S
N435 S434 1.613 . S
N435 C438 1.350 . S
N436 S434 1.610 . S
N436 C437 1.351 . S
C437 C431 1.428 . S
C437 N436 1.351 . S
C437 C438 1.434 . S
C438 C429 1.429 . S
C438 N435 1.350 . S
C438 C437 1.434 . S
C439 C440 1.369 . S
C439 C441 1.419 . S
C439 H443 0.930 . S
C440 C439 1.369 . S
C440 C449 1.429 . S
C441 C439 1.419 . S
C441 C442 1.363 . S
C441 H444 0.929 . S
C442 C441 1.363 . S
C442 C448 1.428 . S
H443 C439 0.930 . S
H444 C441 0.929 . S
S445 N446 1.613 . S
S445 N447 1.610 . S
N446 S445 1.613 . S
N446 C449 1.350 . S
N447 S445 1.610 . S
N447 C448 1.351 . S
C448 C442 1.428 . S
C448 N447 1.351 . S
C448 C449 1.434 . S
C449 C440 1.429 . S
C449 N446 1.350 . S
C449 C448 1.434 . S
C450 C451 1.369 . S
C450 C452 1.419 . S
C450 H454 0.930 . S
C451 C450 1.369 . S
C451 C460 1.429 . S
C452 C450 1.419 . S
C452 C453 1.363 . S
C452 H455 0.929 . S
C453 C452 1.363 . S
C453 C459 1.428 . S
H454 C450 0.930 . S
H455 C452 0.929 . S
S456 N457 1.613 . S
S456 N458 1.610 . S
N457 S456 1.613 . S
N457 C460 1.350 . S
N458 S456 1.610 . S
N458 C459 1.351 . S
C459 C453 1.428 . S
C459 N458 1.351 . S
C459 C460 1.434 . S
C460 C451 1.429 . S
C460 N457 1.350 . S
C460 C459 1.434 . S
C461 C462 1.369 . S
C461 C463 1.419 . S
C461 H465 0.930 . S
C462 C461 1.369 . S
C462 C471 1.429 . S
C463 C461 1.419 . S
C463 C464 1.363 . S
C463 H466 0.929 . S
C464 C463 1.363 . S
C464 C470 1.428 . S
H465 C461 0.930 . S
H466 C463 0.929 . S
S467 N468 1.613 . S
S467 N469 1.610 . S
N468 S467 1.613 . S
N468 C471 1.350 . S
N469 S467 1.610 . S
N469 C470 1.351 . S
C470 C464 1.428 . S
C470 N469 1.351 . S
C470 C471 1.434 . S
C471 C462 1.429 . S
C471 N468 1.350 . S
C471 C470 1.434 . S
C472 C473 1.369 . S
C472 C474 1.419 . S
C472 H476 0.930 . S
C473 C472 1.369 . S
C473 C482 1.429 . S
C474 C472 1.419 . S
C474 C475 1.363 . S
C474 H477 0.929 . S
C475 C474 1.363 . S
C475 C481 1.428 . S
H476 C472 0.930 . S
H477 C474 0.929 . S
S478 N479 1.613 . S
S478 N480 1.610 . S
N479 S478 1.613 . S
N479 C482 1.350 . S
N480 S478 1.610 . S
N480 C481 1.351 . S
C481 C475 1.428 . S
C481 N480 1.351 . S
C481 C482 1.434 . S
C482 C473 1.429 . S
C482 N479 1.350 . S
C482 C481 1.434 . S
C483 C484 1.369 . S
C483 C485 1.419 . S
C483 H487 0.930 . S
C484 C483 1.369 . S
C484 C493 1.429 . S
C485 C483 1.419 . S
C485 C486 1.363 . S
C485 H488 0.929 . S
C486 C485 1.363 . S
C486 C492 1.428 . S
H487 C483 0.930 . S
H488 C485 0.929 . S
S489 N490 1.613 . S
S489 N491 1.610 . S
N490 S489 1.613 . S
N490 C493 1.350 . S
N491 S489 1.610 . S
N491 C492 1.351 . S
C492 C486 1.428 . S
C492 N491 1.351 . S
C492 C493 1.434 . S
C493 C484 1.429 . S
C493 N490 1.350 . S
C493 C492 1.434 . S
C494 C495 1.369 . S
C494 C496 1.419 . S
C494 H498 0.930 . S
C495 C494 1.369 . S
C495 C504 1.429 . S
C496 C494 1.419 . S
C496 C497 1.363 . S
C496 H499 0.929 . S
C497 C496 1.363 . S
C497 C503 1.428 . S
H498 C494 0.930 . S
H499 C496 0.929 . S
S500 N501 1.613 . S
S500 N502 1.610 . S
N501 S500 1.613 . S
N501 C504 1.350 . S
N502 S500 1.610 . S
N502 C503 1.351 . S
C503 C497 1.428 . S
C503 N502 1.351 . S
C503 C504 1.434 . S
C504 C495 1.429 . S
C504 N501 1.350 . S
C504 C503 1.434 . S
C505 C506 1.369 . S
C505 C507 1.419 . S
C505 H509 0.930 . S
C506 C505 1.369 . S
C506 C515 1.429 . S
C507 C505 1.419 . S
C507 C508 1.363 . S
C507 H510 0.929 . S
C508 C507 1.363 . S
C508 C514 1.428 . S
H509 C505 0.930 . S
H510 C507 0.929 . S
S511 N512 1.613 . S
S511 N513 1.610 . S
N512 S511 1.613 . S
N512 C515 1.350 . S
N513 S511 1.610 . S
N513 C514 1.351 . S
C514 C508 1.428 . S
C514 N513 1.351 . S
C514 C515 1.434 . S
C515 C506 1.429 . S
C515 N512 1.350 . S
C515 C514 1.434 . S
C516 C517 1.369 . S
C516 C518 1.419 1_565 S
C516 H520 0.930 . S
C517 C516 1.369 . S
C517 C526 1.429 . S
C518 C516 1.419 1_545 S
C518 C519 1.363 . S
C518 H521 0.929 . S
C519 C518 1.363 . S
C519 C525 1.428 . S
H520 C516 0.930 . S
H521 C518 0.929 . S
S522 N523 1.613 1_545 S
S522 N524 1.610 . S
N523 S522 1.613 1_565 S
N523 C526 1.350 . S
N524 S522 1.610 . S
N524 C525 1.351 . S
C525 C519 1.428 . S
C525 N524 1.351 . S
C525 C526 1.434 1_545 S
C526 C517 1.429 . S
C526 N523 1.350 . S
C526 C525 1.434 1_565 S
C527 C528 1.369 . S
C527 C529 1.419 1_455 S
C527 H531 0.930 . S
C528 C527 1.369 . S
C528 C537 1.429 . S
C529 C527 1.419 1_655 S
C529 C530 1.363 . S
C529 H532 0.929 . S
C530 C529 1.363 . S
C530 C536 1.428 . S
H531 C527 0.930 . S
H532 C529 0.929 . S
S533 N534 1.613 . S
S533 N535 1.610 1_455 S
N534 S533 1.613 . S
N534 C537 1.350 . S
N535 S533 1.610 1_655 S
N535 C536 1.351 . S
C536 C530 1.428 . S
C536 N535 1.351 . S
C536 C537 1.434 1_655 S
C537 C528 1.429 . S
C537 N534 1.350 . S
C537 C536 1.434 1_455 S
C538 C539 1.369 . S
C538 C540 1.419 1_545 S
C538 H542 0.930 . S
C539 C538 1.369 . S
C539 C548 1.429 . S
C540 C538 1.419 1_565 S
C540 C541 1.363 . S
C540 H543 0.929 . S
C541 C540 1.363 . S
C541 C547 1.428 . S
H542 C538 0.930 . S
H543 C540 0.929 . S
S544 N545 1.613 . S
S544 N546 1.610 1_545 S
N545 S544 1.613 . S
N545 C548 1.350 . S
N546 S544 1.610 1_565 S
N546 C547 1.351 . S
C547 C541 1.428 . S
C547 N546 1.351 . S
C547 C548 1.434 1_565 S
C548 C539 1.429 . S
C548 N545 1.350 . S
C548 C547 1.434 1_545 S
C549 C550 1.369 . S
C549 C551 1.419 1_455 S
C549 H553 0.930 . S
C550 C549 1.369 . S
C550 C559 1.429 . S
C551 C549 1.419 1_655 S
C551 C552 1.363 . S
C551 H554 0.929 . S
C552 C551 1.363 . S
C552 C558 1.428 . S
H553 C549 0.930 . S
H554 C551 0.929 . S
S555 N556 1.613 1_655 S
S555 N557 1.610 . S
N556 S555 1.613 1_455 S
N556 C559 1.350 . S
N557 S555 1.610 . S
N557 C558 1.351 . S
C558 C552 1.428 . S
C558 N557 1.351 . S
C558 C559 1.434 1_655 S
C559 C550 1.429 . S
C559 N556 1.350 . S
C559 C558 1.434 1_455 S
C560 C561 1.369 . S
C560 C562 1.419 1_556 S
C560 H564 0.930 . S
C561 C560 1.369 . S
C561 C570 1.429 . S
C562 C560 1.419 1_554 S
C562 C563 1.363 . S
C562 H565 0.929 . S
C563 C562 1.363 . S
C563 C569 1.428 . S
H564 C560 0.930 . S
H565 C562 0.929 . S
S566 N567 1.613 1_554 S
S566 N568 1.610 . S
N567 S566 1.613 1_556 S
N567 C570 1.350 . S
N568 S566 1.610 . S
N568 C569 1.351 . S
C569 C563 1.428 . S
C569 N568 1.351 . S
C569 C570 1.434 1_554 S
C570 C561 1.429 . S
C570 N567 1.350 . S
C570 C569 1.434 1_556 S
C571 C572 1.369 . S
C571 C573 1.419 1_556 S
C571 H575 0.930 . S
C572 C571 1.369 . S
C572 C581 1.429 . S
C573 C571 1.419 1_554 S
C573 C574 1.363 . S
C573 H576 0.929 . S
C574 C573 1.363 . S
C574 C580 1.428 . S
H575 C571 0.930 . S
H576 C573 0.929 . S
S577 N578 1.613 . S
S577 N579 1.610 1_556 S
N578 S577 1.613 . S
N578 C581 1.350 . S
N579 S577 1.610 1_554 S
N579 C580 1.351 . S
C580 C574 1.428 . S
C580 N579 1.351 . S
C580 C581 1.434 1_554 S
C581 C572 1.429 . S
C581 N578 1.350 . S
C581 C580 1.434 1_556 S
C582 C583 1.369 . S
C582 C584 1.419 1_554 S
C582 H586 0.930 . S
C583 C582 1.369 . S
C583 C592 1.429 . S
C584 C582 1.419 1_556 S
C584 C585 1.363 . S
C584 H587 0.929 . S
C585 C584 1.363 . S
C585 C591 1.428 . S
H586 C582 0.930 . S
H587 C584 0.929 . S
S588 N589 1.613 1_556 S
S588 N590 1.610 . S
N589 S588 1.613 1_554 S
N589 C592 1.350 . S
N590 S588 1.610 . S
N590 C591 1.351 . S
C591 C585 1.428 . S
C591 N590 1.351 . S
C591 C592 1.434 1_556 S
C592 C583 1.429 . S
C592 N589 1.350 . S
C592 C591 1.434 1_554 S
C593 C594 1.369 . S
C593 C595 1.419 1_556 S
C593 H597 0.930 . S
C594 C593 1.369 . S
C594 C603 1.429 . S
C595 C593 1.419 1_554 S
C595 C596 1.363 . S
C595 H598 0.929 . S
C596 C595 1.363 . S
C596 C602 1.428 . S
H597 C593 0.930 . S
H598 C595 0.929 . S
S599 N600 1.613 . S
S599 N601 1.610 1_556 S
N600 S599 1.613 . S
N600 C603 1.350 . S
N601 S599 1.610 1_554 S
N601 C602 1.351 . S
C602 C596 1.428 . S
C602 N601 1.351 . S
C602 C603 1.434 1_554 S
C603 C594 1.429 . S
C603 N600 1.350 . S
C603 C602 1.434 1_556 S
C604 C605 1.369 . S
C604 C606 1.419 1_455 S
C604 H608 0.930 . S
C605 C604 1.369 . S
C605 C614 1.429 . S
C606 C604 1.419 1_655 S
C606 C607 1.363 . S
C606 H609 0.929 . S
C607 C606 1.363 . S
C607 C613 1.428 . S
H608 C604 0.930 . S
H609 C606 0.929 . S
S610 N611 1.613 . S
S610 N612 1.610 1_455 S
N611 S610 1.613 . S
N611 C614 1.350 . S
N612 S610 1.610 1_655 S
N612 C613 1.351 . S
C613 C607 1.428 . S
C613 N612 1.351 . S
C613 C614 1.434 1_655 S
C614 C605 1.429 . S
C614 N611 1.350 . S
C614 C613 1.434 1_455 S
C615 C616 1.369 . S
C615 C617 1.419 1_655 S
C615 H619 0.930 . S
C616 C615 1.369 . S
C616 C625 1.429 . S
C617 C615 1.419 1_455 S
C617 C618 1.363 . S
C617 H620 0.929 . S
C618 C617 1.363 . S
C618 C624 1.428 . S
H619 C615 0.930 . S
H620 C617 0.929 . S
S621 N622 1.613 . S
S621 N623 1.610 1_655 S
N622 S621 1.613 . S
N622 C625 1.350 . S
N623 S621 1.610 1_455 S
N623 C624 1.351 . S
C624 C618 1.428 . S
C624 N623 1.351 . S
C624 C625 1.434 1_455 S
C625 C616 1.429 . S
C625 N622 1.350 . S
C625 C624 1.434 1_655 S
C626 C627 1.369 . S
C626 C628 1.419 1_545 S
C626 H630 0.930 . S
C627 C626 1.369 . S
C627 C636 1.429 . S
C628 C626 1.419 1_565 S
C628 C629 1.363 . S
C628 H631 0.929 . S
C629 C628 1.363 . S
C629 C635 1.428 . S
H630 C626 0.930 . S
H631 C628 0.929 . S
S632 N633 1.613 1_565 S
S632 N634 1.610 . S
N633 S632 1.613 1_545 S
N633 C636 1.350 . S
N634 S632 1.610 . S
N634 C635 1.351 . S
C635 C629 1.428 . S
C635 N634 1.351 . S
C635 C636 1.434 1_565 S
C636 C627 1.429 . S
C636 N633 1.350 . S
C636 C635 1.434 1_545 S
C637 C638 1.369 . S
C637 C639 1.419 1_565 S
C637 H641 0.930 . S
C638 C637 1.369 . S
C638 C647 1.429 . S
C639 C637 1.419 1_545 S
C639 C640 1.363 . S
C639 H642 0.929 . S
C640 C639 1.363 . S
C640 C646 1.428 . S
H641 C637 0.930 . S
H642 C639 0.929 . S
S643 N644 1.613 . S
S643 N645 1.610 1_565 S
N644 S643 1.613 . S
N644 C647 1.350 . S
N645 S643 1.610 1_545 S
N645 C646 1.351 . S
C646 C640 1.428 . S
C646 N645 1.351 . S
C646 C647 1.434 1_545 S
C647 C638 1.429 . S
C647 N644 1.350 . S
C647 C646 1.434 1_565 S
C253 C7 1.488 . S
C255 C166 1.430 . S
C264 C87 1.454 . S
C266 C41 1.504 . S
C275 C46 1.493 . S
C277 C108 1.443 . S
C286 C67 1.497 . S
C288 C142 1.453 . S
C297 C82 1.519 . S
C299 C205 1.473 . S
C308 C20 1.489 . S
C310 C230 1.445 . S
C319 C247 1.450 . S
C321 C28 1.501 . S
C330 C61 1.491 . S
C332 C188 1.432 . S
C341 C104 1.493 . S
C343 C3 1.449 . S
C352 C125 1.484 . S
C354 C40 1.437 . S
C363 C145 1.503 . S
C365 C58 1.450 . S
C374 C79 1.444 . S
C376 C154 1.487 . S
C385 C83 1.422 . S
C387 C172 1.484 . S
C396 C19 1.432 . S
C398 C208 1.481 . S
C407 C214 1.504 . S
C409 C24 1.456 . S
C418 C250 1.477 . S
C420 C62 1.431 . S
C429 C103 1.436 . S
C431 C167 1.493 . S
C440 C193 1.481 . S
C442 C184 1.437 . S
C451 C209 1.434 . S
C453 C229 1.487 . S
C462 C235 1.490 . S
C464 C226 1.442 . S
C473 C251 1.433 . S
C475 C187 1.492 . S
C484 C146 1.427 . S
C486 C112 1.479 . S
C495 C130 1.488 . S
C497 C150 1.435 . S
C506 C91 1.479 . S
C508 C124 1.424 . S
C517 C66 1.378 . S
C519 C4 1.350 . S
C528 C16 1.380 . S
C530 C37 1.394 . S
C539 C25 1.339 . S
C541 C49 1.334 . S
C550 C70 1.345 . S
C552 C45 1.352 . S
C561 C217 1.342 . S
C563 C100 1.355 . S
C572 C234 1.379 . S
C574 C121 1.379 . S
C583 C129 1.348 . S
C585 C175 1.326 . S
C594 C192 1.355 . S
C596 C151 1.344 . S
C605 C163 1.363 . S
C607 C109 1.340 . S
C616 C238 1.331 . S
C618 C196 1.333 . S
C627 C213 1.386 . S
C629 C171 1.382 . S
C638 C133 1.330 . S
C640 C88 1.330 . S
