# Generated by pormake.
# Topology ske, (6)-cn, num edge types: 1
# Building blocks:
#     Node 0, Type 0, BuildingBlock: UKALOJ_clean_sbu_0, # of connection points: 6
#     Node 1, Type 0, BuildingBlock: UKALOJ_clean_sbu_0, # of connection points: 6
#     Node 2, Type 0, BuildingBlock: UKALOJ_clean_sbu_0, # of connection points: 6
#     Node 3, Type 0, BuildingBlock: UKALOJ_clean_sbu_0, # of connection points: 6
#     Node 4, Type 0, BuildingBlock: UKALOJ_clean_sbu_0, # of connection points: 6
#     Node 5, Type 0, BuildingBlock: UKALOJ_clean_sbu_0, # of connection points: 6
#     Node 6, Type 0, BuildingBlock: UKALOJ_clean_sbu_0, # of connection points: 6
#     Node 7, Type 0, BuildingBlock: UKALOJ_clean_sbu_0, # of connection points: 6
#     Edge 8, Type (0, 0), None
#     Edge 9, Type (0, 0), None
#     Edge 10, Type (0, 0), None
#     Edge 11, Type (0, 0), None
#     Edge 12, Type (0, 0), None
#     Edge 13, Type (0, 0), None
#     Edge 14, Type (0, 0), None
#     Edge 15, Type (0, 0), None
#     Edge 16, Type (0, 0), None
#     Edge 17, Type (0, 0), None
#     Edge 18, Type (0, 0), None
#     Edge 19, Type (0, 0), None
#     Edge 20, Type (0, 0), None
#     Edge 21, Type (0, 0), None
#     Edge 22, Type (0, 0), None
#     Edge 23, Type (0, 0), None
#     Edge 24, Type (0, 0), None
#     Edge 25, Type (0, 0), None
#     Edge 26, Type (0, 0), None
#     Edge 27, Type (0, 0), None
#     Edge 28, Type (0, 0), None
#     Edge 29, Type (0, 0), None
#     Edge 30, Type (0, 0), None
#     Edge 31, Type (0, 0), None
# Relax obj value: 0.058
# Max RMSD: 0.117
# Mean RMSD: 0.117
data_MOF--net-ske--node1-UKALOJ_clean_sbu_0--edge1-none
_symmetry_space_group_name_H-M    P1
_symmetry_Int_Tables_number       1
_symmetry_cell_setting            triclinic
loop_
_symmetry_equiv_pos_as_xyz
'x, y, z'
_cell_length_a     27.42324
_cell_length_b     23.795606
_cell_length_c     6.8111801
_cell_angle_alpha  90.000039
_cell_angle_beta   89.866447
_cell_angle_gamma 90.009196
loop_
_atom_site_label
_atom_site_type_symbol
_atom_site_fract_x
_atom_site_fract_y
_atom_site_fract_z
_atom_type_partial_charge
Zn0 Zn 0.09968 0.32612 0.61512 0.0
O1 O 0.09583 0.3278 0.9215 0.0
C2 C 0.19741 0.28091 0.68496 0.0
Zn3 Zn 0.09839 0.23147 0.61103 0.0
C4 C 0.0969 0.28011 0.00784 0.0
O5 O 0.09439 0.23431 0.9131 0.0
C6 C 0.10203 0.27736 0.21719 0.0
O7 O 0.02129 0.2315 0.58884 0.0
O8 O 0.02307 0.32382 0.59484 0.0
N9 N 0.09982 0.14426 0.61249 0.0
C10 C 0.08642 0.10638 0.47447 0.0
C11 C 0.11856 0.06035 0.70986 0.0
N12 N 0.11956 0.11537 0.75875 0.0
N13 N 0.0976 0.05394 0.53281 0.0
C14 C 0.11679 0.46089 0.59596 0.0
C15 C 0.07171 0.47413 0.34527 0.0
N16 N 0.09541 0.41116 0.55478 0.0
N17 N 0.06722 0.42035 0.39997 0.0
N18 N 0.10398 0.50022 0.46116 0.0
H19 H 0.17269 0.43338 0.79429 0.0
H20 H 0.12717 0.47834 0.89971 0.0
H21 H 0.17302 0.50843 0.74099 0.0
C22 C 0.14976 0.47095 0.76682 0.0
C23 C 0.06083 0.11982 0.28628 0.0
H24 H 0.03645 0.15659 0.30497 0.0
H25 H 0.03898 0.08327 0.23616 0.0
H26 H 0.08833 0.12929 0.17131 0.0
O27 O 0.10306 0.23063 0.30463 0.0
O28 O 0.10435 0.3222 0.31288 0.0
C29 C -0.00094 0.27842 0.58636 0.0
O30 O 0.17583 0.32738 0.6522 0.0
O31 O 0.17545 0.23456 0.65257 0.0
Zn32 Zn 0.84636 0.32712 0.609 0.0
O33 O 0.92352 0.32733 0.58838 0.0
C34 C 0.84343 0.28096 0.20666 0.0
Zn35 Zn 0.84512 0.23266 0.612 0.0
C36 C 0.94578 0.28043 0.58578 0.0
O37 O 0.92175 0.23501 0.59316 0.0
C38 C 0.74728 0.27762 0.68088 0.0
O39 O 0.84833 0.2314 0.92465 0.0
O40 O 0.84968 0.32466 0.91737 0.0
N41 N 0.84956 0.14763 0.55322 0.0
C42 C 0.82766 0.09809 0.59319 0.0
C43 C 0.87376 0.0845 0.34487 0.0
N44 N 0.87836 0.13825 0.39985 0.0
N45 N 0.8408 0.05867 0.45896 0.0
C46 C 0.85826 0.45217 0.4713 0.0
C47 C 0.82555 0.49818 0.70608 0.0
N48 N 0.84472 0.41431 0.60937 0.0
N49 N 0.82462 0.44318 0.75524 0.0
N50 N 0.84682 0.50459 0.52923 0.0
H51 H 0.90858 0.40192 0.30272 0.0
H52 H 0.90636 0.47528 0.23433 0.0
H53 H 0.8571 0.42944 0.16797 0.0
C54 C 0.88432 0.43876 0.28367 0.0
C55 C 0.79374 0.0884 0.76192 0.0
H56 H 0.76847 0.12451 0.77788 0.0
H57 H 0.81536 0.08538 0.89904 0.0
H58 H 0.77281 0.04889 0.74177 0.0
O59 O 0.76893 0.2312 0.64787 0.0
O60 O 0.76927 0.32398 0.64907 0.0
C61 C 0.84725 0.27888 0.01322 0.0
O62 O 0.84237 0.32752 0.29625 0.0
O63 O 0.84112 0.2361 0.3033 0.0
Zn64 Zn 0.09822 0.8272 0.33754 0.0
O65 O 0.02103 0.82734 0.35819 0.0
C66 C 0.10115 0.78104 0.73993 0.0
Zn67 Zn 0.09945 0.73275 0.33464 0.0
C68 C -0.00124 0.78044 0.36082 0.0
O69 O 0.0228 0.73503 0.3535 0.0
C70 C 0.19733 0.77775 0.26566 0.0
O71 O 0.09624 0.73149 0.02198 0.0
O72 O 0.09489 0.82476 0.02919 0.0
N73 N 0.09505 0.6477 0.39321 0.0
C74 C 0.11684 0.59815 0.35241 0.0
C75 C 0.0709 0.58444 0.60129 0.0
N76 N 0.06637 0.63824 0.54692 0.0
N77 N 0.10366 0.55866 0.48623 0.0
C78 C 0.0863 0.9522 0.47558 0.0
C79 C 0.11906 0.99831 0.24107 0.0
N80 N 0.09985 0.9144 0.33733 0.0
N81 N 0.11996 0.94333 0.19162 0.0
N82 N 0.09783 1.00463 0.41804 0.0
H83 H 0.03594 0.90186 0.64374 0.0
H84 H 0.03809 0.97521 0.71224 0.0
H85 H 0.08735 0.92944 0.77889 0.0
C86 C 0.06017 0.93872 0.66301 0.0
C87 C 0.1506 0.58852 0.18313 0.0
H88 H 0.1754 0.62498 0.16501 0.0
H89 H 0.12878 0.58465 0.04679 0.0
H90 H 0.17202 0.5494 0.20422 0.0
O91 O 0.17567 0.73134 0.29876 0.0
O92 O 0.17534 0.82412 0.29737 0.0
C93 C 0.09733 0.77897 0.93338 0.0
O94 O 0.10222 0.82759 0.6503 0.0
O95 O 0.10345 0.73617 0.64334 0.0
Zn96 Zn 0.84481 0.82604 0.33152 0.0
O97 O 0.84866 0.82771 0.02514 0.0
C98 C 0.74705 0.78079 0.26157 0.0
Zn99 Zn 0.84609 0.73139 0.3355 0.0
C100 C 0.84758 0.78002 0.93875 0.0
O101 O 0.8501 0.73421 0.03344 0.0
C102 C 0.84245 0.77729 0.7294 0.0
O103 O 0.92323 0.73148 0.35774 0.0
O104 O 0.92144 0.8238 0.3518 0.0
N105 N 0.84467 0.64417 0.33421 0.0
C106 C 0.85806 0.60635 0.47242 0.0
C107 C 0.82589 0.56022 0.23728 0.0
N108 N 0.82492 0.61523 0.1881 0.0
N109 N 0.8468 0.55391 0.41447 0.0
C110 C 0.82778 0.96083 0.34965 0.0
C111 C 0.87272 0.9742 0.60085 0.0
N112 N 0.84905 0.91109 0.39164 0.0
N113 N 0.87714 0.92036 0.54677 0.0
N114 N 0.84064 1.00024 0.48404 0.0
H115 H 0.77253 0.93297 0.14882 0.0
H116 H 0.81767 0.97905 0.04634 0.0
H117 H 0.77122 1.00785 0.20494 0.0
C118 C 0.79496 0.97082 0.17831 0.0
C119 C 0.88373 0.61985 0.66042 0.0
H120 H 0.90808 0.65664 0.64153 0.0
H121 H 0.90562 0.58334 0.71045 0.0
H122 H 0.85627 0.6293 0.77556 0.0
O123 O 0.8414 0.73057 0.64191 0.0
O124 O 0.84014 0.82213 0.63376 0.0
C125 C 0.94547 0.7784 0.36024 0.0
O126 O 0.76864 0.82725 0.29444 0.0
O127 O 0.769 0.73444 0.29385 0.0
Zn128 Zn 0.59954 0.82592 0.11081 0.0
O129 O 0.59571 0.82759 0.4172 0.0
C130 C 0.69731 0.78077 0.18062 0.0
Zn131 Zn 0.59828 0.73128 0.1069 0.0
C132 C 0.59679 0.77991 0.50362 0.0
O133 O 0.59429 0.7341 0.40896 0.0
C134 C 0.60189 0.77719 0.71298 0.0
O135 O 0.52113 0.73125 0.08489 0.0
O136 O 0.52291 0.82357 0.09078 0.0
N137 N 0.59975 0.64406 0.1083 0.0
C138 C 0.58639 0.60618 0.97024 0.0
C139 C 0.61854 0.56017 0.20565 0.0
N140 N 0.61949 0.61519 0.25457 0.0
N141 N 0.59759 0.55375 0.02857 0.0
C142 C 0.61685 0.96059 0.09081 0.0
C143 C 0.5713 0.97393 0.84159 0.0
N144 N 0.59522 0.91093 0.05055 0.0
N145 N 0.56674 0.92018 0.89662 0.0
N146 N 0.60389 0.99993 0.95627 0.0
H147 H 0.67518 0.93411 0.27882 0.0
H148 H 0.62827 0.97436 0.39639 0.0
H149 H 0.67167 1.00965 0.23894 0.0
C150 C 0.65032 0.97047 0.26023 0.0
C151 C 0.5608 0.61961 0.78202 0.0
H152 H 0.5364 0.65635 0.80072 0.0
H153 H 0.53899 0.58305 0.73184 0.0
H154 H 0.58831 0.62912 0.6671 0.0
O155 O 0.60294 0.73047 0.80048 0.0
O156 O 0.60417 0.82205 0.8086 0.0
C157 C 0.49888 0.77816 0.08252 0.0
O158 O 0.67571 0.82721 0.14774 0.0
O159 O 0.67537 0.7344 0.14842 0.0
Zn160 Zn 0.34492 0.73249 0.11326 0.0
O161 O 0.34875 0.73081 0.41957 0.0
C162 C 0.24715 0.7777 0.18464 0.0
Zn163 Zn 0.34621 0.82714 0.10919 0.0
C164 C 0.34768 0.7785 0.50595 0.0
O165 O 0.35018 0.8243 0.41118 0.0
C166 C 0.34259 0.78125 0.7154 0.0
O167 O 0.42336 0.82711 0.08584 0.0
O168 O 0.42155 0.73479 0.09172 0.0
N169 N 0.34477 0.91435 0.11069 0.0
C170 C 0.35815 0.95224 -0.02758 0.0
C171 C 0.32598 0.99824 0.2084 0.0
N172 N 0.32502 0.94323 0.25732 0.0
N173 N 0.34695 1.00467 0.03096 0.0
C174 C 0.32775 0.59774 0.09434 0.0
C175 C 0.37289 0.58447 0.84298 0.0
N176 N 0.34919 0.64746 0.05286 0.0
N177 N 0.37741 0.63825 0.89762 0.0
N178 N 0.34058 0.55841 0.95932 0.0
H179 H 0.27179 0.62527 0.29338 0.0
H180 H 0.3173 0.58037 0.39829 0.0
H181 H 0.2715 0.55022 0.24031 0.0
C182 C 0.29474 0.58772 0.2657 0.0
C183 C 0.38376 0.93882 0.78376 0.0
H184 H 0.40815 0.90207 0.80201 0.0
H185 H 0.40558 0.97537 0.73323 0.0
H186 H 0.35626 0.92932 0.6693 0.0
O187 O 0.34158 0.82798 0.80287 0.0
O188 O 0.34026 0.73641 0.81112 0.0
C189 C 0.44559 0.78019 0.08303 0.0
O190 O 0.26874 0.73124 0.15161 0.0
O191 O 0.26912 0.82405 0.15197 0.0
Zn192 Zn 0.59834 0.327 0.83344 0.0
O193 O 0.52119 0.3271 0.85427 0.0
C194 C 0.60129 0.28087 0.23575 0.0
Zn195 Zn 0.59959 0.23254 0.83036 0.0
C196 C 0.49893 0.28019 0.85699 0.0
O197 O 0.52296 0.23478 0.84943 0.0
C198 C 0.69743 0.2776 0.76138 0.0
O199 O 0.59636 0.23128 0.51772 0.0
O200 O 0.595 0.32455 0.52507 0.0
N201 N 0.59524 0.14748 0.88901 0.0
C202 C 0.61677 0.09785 0.84727 0.0
C203 C 0.5713 0.08424 0.09761 0.0
N204 N 0.56683 0.13807 0.0436 0.0
N205 N 0.60373 0.05836 -0.01865 0.0
C206 C 0.58634 0.452 0.97137 0.0
C207 C 0.61909 0.49812 0.73688 0.0
N208 N 0.59992 0.4142 0.83316 0.0
N209 N 0.62003 0.44314 0.68746 0.0
N210 N 0.59785 0.50443 0.91381 0.0
H211 H 0.53601 0.40163 0.13953 0.0
H212 H 0.5381 0.47499 0.20794 0.0
H213 H 0.58738 0.42927 0.27471 0.0
C214 C 0.56021 0.43852 0.15877 0.0
C215 C 0.65003 0.08805 0.67655 0.0
H216 H 0.67285 0.12575 0.64929 0.0
H217 H 0.62767 0.08055 0.54353 0.0
H218 H 0.6734 0.05069 0.70236 0.0
O219 O 0.67579 0.23117 0.79437 0.0
O220 O 0.67543 0.32395 0.79325 0.0
C221 C 0.59745 0.27877 0.42919 0.0
O222 O 0.60235 0.32743 0.14618 0.0
O223 O 0.60363 0.23601 0.1391 0.0
Zn224 Zn 0.34624 0.23141 0.83573 0.0
O225 O 0.42339 0.23127 0.85519 0.0
C226 C 0.3433 0.27757 0.23816 0.0
Zn227 Zn 0.34501 0.32587 0.83281 0.0
C228 C 0.44566 0.27817 0.85749 0.0
O229 O 0.42164 0.32358 0.8504 0.0
C230 C 0.24718 0.28087 0.76539 0.0
O231 O 0.34824 0.32712 0.5201 0.0
O232 O 0.34959 0.23386 0.5273 0.0
N233 N 0.34941 0.41091 0.89132 0.0
C234 C 0.32768 0.46048 0.85079 0.0
C235 C 0.37356 0.47417 0.09901 0.0
N236 N 0.37806 0.42036 0.04461 0.0
N237 N 0.34085 0.49997 -0.0156 0.0
C238 C 0.35819 0.10642 -0.02647 0.0
C239 C 0.32546 0.06029 0.73964 0.0
N240 N 0.34462 0.14422 0.83555 0.0
N241 N 0.32452 0.11527 0.69021 0.0
N242 N 0.34669 0.05399 0.9162 0.0
H243 H 0.40852 0.15679 0.14079 0.0
H244 H 0.40641 0.08343 0.2093 0.0
H245 H 0.35713 0.12917 0.27688 0.0
C246 C 0.38432 0.11991 0.16048 0.0
C247 C 0.29396 0.47014 0.682 0.0
H248 H 0.26922 0.43365 0.66398 0.0
H249 H 0.31584 0.47411 0.54541 0.0
H250 H 0.2725 0.50922 0.70358 0.0
O251 O 0.26882 0.32728 0.79822 0.0
O252 O 0.26915 0.2345 0.79683 0.0
C253 C 0.34714 0.27964 0.43153 0.0
O254 O 0.34221 0.23102 0.14856 0.0
O255 O 0.34099 0.32244 0.1416 0.0
loop_
_geom_bond_atom_site_label_1
_geom_bond_atom_site_label_2
_geom_bond_distance
_geom_bond_site_symmetry_2
_ccdc_geom_bond_type
Zn0 O1 2.055 . S
Zn0 O8 2.046 . S
Zn0 N16 2.036 . S
Zn0 O28 2.053 . S
Zn0 O30 2.066 . S
O1 Zn0 2.055 . S
O1 C4 1.260 . S
C2 O30 1.256 . S
C2 O31 1.244 . S
Zn3 O5 2.046 . S
Zn3 O7 2.055 . S
Zn3 N9 2.036 . S
Zn3 O27 2.066 . S
Zn3 O31 2.053 . S
C4 O1 1.260 . S
C4 O5 1.255 . S
O5 Zn3 2.046 . S
O5 C4 1.255 . S
C6 O27 1.256 . S
C6 O28 1.244 . S
O7 Zn3 2.055 . S
O7 C29 1.259 . S
O8 Zn0 2.046 . S
O8 C29 1.254 . S
N9 Zn3 2.036 . S
N9 C10 1.298 . S
N9 N12 1.398 . S
C10 N9 1.298 . S
C10 N13 1.367 . S
C10 C23 1.481 . S
C11 N12 1.299 . S
C11 N13 1.379 . S
N12 N9 1.398 . S
N12 C11 1.299 . S
N13 C10 1.367 . S
N13 C11 1.379 . S
C14 N16 1.298 . S
C14 N18 1.367 . S
C14 C22 1.481 . S
C15 N17 1.299 . S
C15 N18 1.379 . S
N16 Zn0 2.036 . S
N16 C14 1.298 . S
N16 N17 1.398 . S
N17 C15 1.299 . S
N17 N16 1.398 . S
N18 C14 1.367 . S
N18 C15 1.379 . S
H19 C22 0.980 . S
H20 C22 0.981 . S
H21 C22 0.981 . S
C22 C14 1.481 . S
C22 H19 0.980 . S
C22 H20 0.981 . S
C22 H21 0.981 . S
C23 C10 1.481 . S
C23 H24 0.980 . S
C23 H25 0.981 . S
C23 H26 0.981 . S
H24 C23 0.980 . S
H25 C23 0.981 . S
H26 C23 0.981 . S
O27 Zn3 2.066 . S
O27 C6 1.256 . S
O28 Zn0 2.053 . S
O28 C6 1.244 . S
C29 O7 1.259 . S
C29 O8 1.254 . S
O30 Zn0 2.066 . S
O30 C2 1.256 . S
O31 C2 1.244 . S
O31 Zn3 2.053 . S
Zn32 O33 2.055 . S
Zn32 O40 2.046 . S
Zn32 N48 2.036 . S
Zn32 O60 2.053 . S
Zn32 O62 2.066 . S
O33 Zn32 2.055 . S
O33 C36 1.259 . S
C34 O62 1.256 . S
C34 O63 1.244 . S
Zn35 O37 2.046 . S
Zn35 O39 2.055 . S
Zn35 N41 2.036 . S
Zn35 O59 2.066 . S
Zn35 O63 2.053 . S
C36 O33 1.259 . S
C36 O37 1.254 . S
O37 Zn35 2.046 . S
O37 C36 1.254 . S
C38 O59 1.256 . S
C38 O60 1.244 . S
O39 Zn35 2.055 . S
O39 C61 1.260 . S
O40 Zn32 2.046 . S
O40 C61 1.255 . S
N41 Zn35 2.036 . S
N41 C42 1.298 . S
N41 N44 1.398 . S
C42 N41 1.298 . S
C42 N45 1.367 . S
C42 C55 1.481 . S
C43 N44 1.299 . S
C43 N45 1.379 . S
N44 N41 1.398 . S
N44 C43 1.299 . S
N45 C42 1.367 . S
N45 C43 1.379 . S
C46 N48 1.298 . S
C46 N50 1.367 . S
C46 C54 1.481 . S
C47 N49 1.299 . S
C47 N50 1.379 . S
N48 Zn32 2.036 . S
N48 C46 1.298 . S
N48 N49 1.398 . S
N49 C47 1.299 . S
N49 N48 1.398 . S
N50 C46 1.367 . S
N50 C47 1.379 . S
H51 C54 0.980 . S
H52 C54 0.981 . S
H53 C54 0.981 . S
C54 C46 1.481 . S
C54 H51 0.980 . S
C54 H52 0.981 . S
C54 H53 0.981 . S
C55 C42 1.481 . S
C55 H56 0.980 . S
C55 H57 0.981 . S
C55 H58 0.981 . S
H56 C55 0.980 . S
H57 C55 0.981 . S
H58 C55 0.981 . S
O59 Zn35 2.066 . S
O59 C38 1.256 . S
O60 Zn32 2.053 . S
O60 C38 1.244 . S
C61 O39 1.260 . S
C61 O40 1.255 . S
O62 Zn32 2.066 . S
O62 C34 1.256 . S
O63 C34 1.244 . S
O63 Zn35 2.053 . S
Zn64 O65 2.055 . S
Zn64 O72 2.046 . S
Zn64 N80 2.036 . S
Zn64 O92 2.053 . S
Zn64 O94 2.066 . S
O65 Zn64 2.055 . S
O65 C68 1.259 . S
C66 O94 1.256 . S
C66 O95 1.244 . S
Zn67 O69 2.046 . S
Zn67 O71 2.055 . S
Zn67 N73 2.036 . S
Zn67 O91 2.066 . S
Zn67 O95 2.053 . S
C68 O65 1.259 . S
C68 O69 1.254 . S
O69 Zn67 2.046 . S
O69 C68 1.254 . S
C70 O91 1.256 . S
C70 O92 1.244 . S
O71 Zn67 2.055 . S
O71 C93 1.260 . S
O72 Zn64 2.046 . S
O72 C93 1.255 . S
N73 Zn67 2.036 . S
N73 C74 1.298 . S
N73 N76 1.398 . S
C74 N73 1.298 . S
C74 N77 1.367 . S
C74 C87 1.481 . S
C75 N76 1.299 . S
C75 N77 1.379 . S
N76 N73 1.398 . S
N76 C75 1.299 . S
N77 C74 1.367 . S
N77 C75 1.379 . S
C78 N80 1.298 . S
C78 N82 1.367 . S
C78 C86 1.481 . S
C79 N81 1.299 . S
C79 N82 1.379 . S
N80 Zn64 2.036 . S
N80 C78 1.298 . S
N80 N81 1.398 . S
N81 C79 1.299 . S
N81 N80 1.398 . S
N82 C78 1.367 . S
N82 C79 1.379 . S
H83 C86 0.980 . S
H84 C86 0.981 . S
H85 C86 0.981 . S
C86 C78 1.481 . S
C86 H83 0.980 . S
C86 H84 0.981 . S
C86 H85 0.981 . S
C87 C74 1.481 . S
C87 H88 0.980 . S
C87 H89 0.981 . S
C87 H90 0.981 . S
H88 C87 0.980 . S
H89 C87 0.981 . S
H90 C87 0.981 . S
O91 Zn67 2.066 . S
O91 C70 1.256 . S
O92 Zn64 2.053 . S
O92 C70 1.244 . S
C93 O71 1.260 . S
C93 O72 1.255 . S
O94 Zn64 2.066 . S
O94 C66 1.256 . S
O95 C66 1.244 . S
O95 Zn67 2.053 . S
Zn96 O97 2.055 . S
Zn96 O104 2.046 . S
Zn96 N112 2.036 . S
Zn96 O124 2.053 . S
Zn96 O126 2.066 . S
O97 Zn96 2.055 . S
O97 C100 1.260 . S
C98 O126 1.256 . S
C98 O127 1.244 . S
Zn99 O101 2.046 . S
Zn99 O103 2.055 . S
Zn99 N105 2.036 . S
Zn99 O123 2.066 . S
Zn99 O127 2.053 . S
C100 O97 1.260 . S
C100 O101 1.255 . S
O101 Zn99 2.046 . S
O101 C100 1.255 . S
C102 O123 1.256 . S
C102 O124 1.244 . S
O103 Zn99 2.055 . S
O103 C125 1.259 . S
O104 Zn96 2.046 . S
O104 C125 1.254 . S
N105 Zn99 2.036 . S
N105 C106 1.298 . S
N105 N108 1.398 . S
C106 N105 1.298 . S
C106 N109 1.367 . S
C106 C119 1.481 . S
C107 N108 1.299 . S
C107 N109 1.379 . S
N108 N105 1.398 . S
N108 C107 1.299 . S
N109 C106 1.367 . S
N109 C107 1.379 . S
C110 N112 1.298 . S
C110 N114 1.367 . S
C110 C118 1.481 . S
C111 N113 1.299 . S
C111 N114 1.379 . S
N112 Zn96 2.036 . S
N112 C110 1.298 . S
N112 N113 1.398 . S
N113 C111 1.299 . S
N113 N112 1.398 . S
N114 C110 1.367 . S
N114 C111 1.379 . S
H115 C118 0.980 . S
H116 C118 0.981 . S
H117 C118 0.981 . S
C118 C110 1.481 . S
C118 H115 0.980 . S
C118 H116 0.981 . S
C118 H117 0.981 . S
C119 C106 1.481 . S
C119 H120 0.980 . S
C119 H121 0.981 . S
C119 H122 0.981 . S
H120 C119 0.980 . S
H121 C119 0.981 . S
H122 C119 0.981 . S
O123 Zn99 2.066 . S
O123 C102 1.256 . S
O124 Zn96 2.053 . S
O124 C102 1.244 . S
C125 O103 1.259 . S
C125 O104 1.254 . S
O126 Zn96 2.066 . S
O126 C98 1.256 . S
O127 C98 1.244 . S
O127 Zn99 2.053 . S
Zn128 O129 2.055 . S
Zn128 O136 2.046 . S
Zn128 N144 2.036 . S
Zn128 O156 2.053 1_554 S
Zn128 O158 2.066 . S
O129 Zn128 2.055 . S
O129 C132 1.259 . S
C130 O158 1.256 . S
C130 O159 1.244 . S
Zn131 O133 2.046 . S
Zn131 O135 2.055 . S
Zn131 N137 2.036 . S
Zn131 O155 2.066 1_554 S
Zn131 O159 2.053 . S
C132 O129 1.259 . S
C132 O133 1.254 . S
O133 Zn131 2.046 . S
O133 C132 1.254 . S
C134 O155 1.256 . S
C134 O156 1.244 . S
O135 Zn131 2.055 . S
O135 C157 1.259 . S
O136 Zn128 2.046 . S
O136 C157 1.254 . S
N137 Zn131 2.036 . S
N137 C138 1.298 . S
N137 N140 1.398 . S
C138 N137 1.298 . S
C138 N141 1.367 . S
C138 C151 1.481 1_554 S
C139 N140 1.299 . S
C139 N141 1.379 . S
N140 N137 1.398 . S
N140 C139 1.299 . S
N141 C138 1.367 . S
N141 C139 1.379 . S
C142 N144 1.298 . S
C142 N146 1.367 . S
C142 C150 1.481 . S
C143 N145 1.299 . S
C143 N146 1.379 1_556 S
N144 Zn128 2.036 . S
N144 C142 1.298 . S
N144 N145 1.398 1_554 S
N145 C143 1.299 . S
N145 N144 1.398 1_556 S
N146 C142 1.367 . S
N146 C143 1.379 1_554 S
H147 C150 0.980 . S
H148 C150 0.981 . S
H149 C150 0.981 . S
C150 C142 1.481 . S
C150 H147 0.980 . S
C150 H148 0.981 . S
C150 H149 0.981 . S
C151 C138 1.481 1_556 S
C151 H152 0.980 . S
C151 H153 0.981 . S
C151 H154 0.981 . S
H152 C151 0.980 . S
H153 C151 0.981 . S
H154 C151 0.981 . S
O155 Zn131 2.066 1_556 S
O155 C134 1.256 . S
O156 Zn128 2.053 1_556 S
O156 C134 1.244 . S
C157 O135 1.259 . S
C157 O136 1.254 . S
O158 Zn128 2.066 . S
O158 C130 1.256 . S
O159 C130 1.244 . S
O159 Zn131 2.053 . S
Zn160 O161 2.055 . S
Zn160 O168 2.046 . S
Zn160 N176 2.036 . S
Zn160 O188 2.053 1_554 S
Zn160 O190 2.066 . S
O161 Zn160 2.055 . S
O161 C164 1.259 . S
C162 O190 1.256 . S
C162 O191 1.244 . S
Zn163 O165 2.046 . S
Zn163 O167 2.055 . S
Zn163 N169 2.036 . S
Zn163 O187 2.066 1_554 S
Zn163 O191 2.053 . S
C164 O161 1.259 . S
C164 O165 1.254 . S
O165 Zn163 2.046 . S
O165 C164 1.254 . S
C166 O187 1.256 . S
C166 O188 1.244 . S
O167 Zn163 2.055 . S
O167 C189 1.259 . S
O168 Zn160 2.046 . S
O168 C189 1.254 . S
N169 Zn163 2.036 . S
N169 C170 1.298 . S
N169 N172 1.398 . S
C170 N169 1.298 . S
C170 N173 1.367 . S
C170 C183 1.481 1_554 S
C171 N172 1.299 . S
C171 N173 1.379 . S
N172 N169 1.398 . S
N172 C171 1.299 . S
N173 C170 1.367 . S
N173 C171 1.379 . S
C174 N176 1.298 . S
C174 N178 1.367 . S
C174 C182 1.481 . S
C175 N177 1.299 . S
C175 N178 1.379 1_556 S
N176 Zn160 2.036 . S
N176 C174 1.298 . S
N176 N177 1.398 1_554 S
N177 C175 1.299 . S
N177 N176 1.398 1_556 S
N178 C174 1.367 . S
N178 C175 1.379 1_554 S
H179 C182 0.980 . S
H180 C182 0.981 . S
H181 C182 0.981 . S
C182 C174 1.481 . S
C182 H179 0.980 . S
C182 H180 0.981 . S
C182 H181 0.981 . S
C183 C170 1.481 1_556 S
C183 H184 0.980 . S
C183 H185 0.981 . S
C183 H186 0.981 . S
H184 C183 0.980 . S
H185 C183 0.981 . S
H186 C183 0.981 . S
O187 Zn163 2.066 1_556 S
O187 C166 1.256 . S
O188 Zn160 2.053 1_556 S
O188 C166 1.244 . S
C189 O167 1.259 . S
C189 O168 1.254 . S
O190 Zn160 2.066 . S
O190 C162 1.256 . S
O191 C162 1.244 . S
O191 Zn163 2.053 . S
Zn192 O193 2.055 . S
Zn192 O200 2.046 . S
Zn192 N208 2.036 . S
Zn192 O220 2.053 . S
Zn192 O222 2.066 1_556 S
O193 Zn192 2.055 . S
O193 C196 1.259 . S
C194 O222 1.256 . S
C194 O223 1.244 . S
Zn195 O197 2.046 . S
Zn195 O199 2.055 . S
Zn195 N201 2.036 . S
Zn195 O219 2.066 . S
Zn195 O223 2.053 1_556 S
C196 O193 1.259 . S
C196 O197 1.254 . S
O197 Zn195 2.046 . S
O197 C196 1.254 . S
C198 O219 1.256 . S
C198 O220 1.244 . S
O199 Zn195 2.055 . S
O199 C221 1.259 . S
O200 Zn192 2.046 . S
O200 C221 1.254 . S
N201 Zn195 2.036 . S
N201 C202 1.298 . S
N201 N204 1.398 1_556 S
C202 N201 1.298 . S
C202 N205 1.367 . S
C202 C215 1.481 . S
C203 N204 1.299 . S
C203 N205 1.379 1_554 S
N204 N201 1.398 1_554 S
N204 C203 1.299 . S
N205 C202 1.367 . S
N205 C203 1.379 1_556 S
C206 N208 1.298 . S
C206 N210 1.367 . S
C206 C214 1.481 1_556 S
C207 N209 1.299 . S
C207 N210 1.379 . S
N208 Zn192 2.036 . S
N208 C206 1.298 . S
N208 N209 1.398 . S
N209 C207 1.299 . S
N209 N208 1.398 . S
N210 C206 1.367 . S
N210 C207 1.379 . S
H211 C214 0.980 . S
H212 C214 0.981 . S
H213 C214 0.981 . S
C214 C206 1.481 1_554 S
C214 H211 0.980 . S
C214 H212 0.981 . S
C214 H213 0.981 . S
C215 C202 1.481 . S
C215 H216 0.980 . S
C215 H217 0.981 . S
C215 H218 0.981 . S
H216 C215 0.980 . S
H217 C215 0.981 . S
H218 C215 0.981 . S
O219 Zn195 2.066 . S
O219 C198 1.256 . S
O220 Zn192 2.053 . S
O220 C198 1.244 . S
C221 O199 1.259 . S
C221 O200 1.254 . S
O222 Zn192 2.066 1_554 S
O222 C194 1.256 . S
O223 C194 1.244 . S
O223 Zn195 2.053 1_554 S
Zn224 O225 2.055 . S
Zn224 O232 2.046 . S
Zn224 N240 2.036 . S
Zn224 O252 2.053 . S
Zn224 O254 2.066 1_556 S
O225 Zn224 2.055 . S
O225 C228 1.259 . S
C226 O254 1.256 . S
C226 O255 1.244 . S
Zn227 O229 2.046 . S
Zn227 O231 2.055 . S
Zn227 N233 2.036 . S
Zn227 O251 2.066 . S
Zn227 O255 2.053 1_556 S
C228 O225 1.259 . S
C228 O229 1.254 . S
O229 Zn227 2.046 . S
O229 C228 1.254 . S
C230 O251 1.256 . S
C230 O252 1.244 . S
O231 Zn227 2.055 . S
O231 C253 1.259 . S
O232 Zn224 2.046 . S
O232 C253 1.254 . S
N233 Zn227 2.036 . S
N233 C234 1.298 . S
N233 N236 1.398 1_556 S
C234 N233 1.298 . S
C234 N237 1.367 . S
C234 C247 1.481 . S
C235 N236 1.299 . S
C235 N237 1.379 1_554 S
N236 N233 1.398 1_554 S
N236 C235 1.299 . S
N237 C234 1.367 . S
N237 C235 1.379 1_556 S
C238 N240 1.298 . S
C238 N242 1.367 . S
C238 C246 1.481 1_556 S
C239 N241 1.299 . S
C239 N242 1.379 . S
N240 Zn224 2.036 . S
N240 C238 1.298 . S
N240 N241 1.398 . S
N241 C239 1.299 . S
N241 N240 1.398 . S
N242 C238 1.367 . S
N242 C239 1.379 . S
H243 C246 0.980 . S
H244 C246 0.981 . S
H245 C246 0.981 . S
C246 C238 1.481 1_554 S
C246 H243 0.980 . S
C246 H244 0.981 . S
C246 H245 0.981 . S
C247 C234 1.481 . S
C247 H248 0.980 . S
C247 H249 0.981 . S
C247 H250 0.981 . S
H248 C247 0.980 . S
H249 C247 0.981 . S
H250 C247 0.981 . S
O251 Zn227 2.066 . S
O251 C230 1.256 . S
O252 Zn224 2.053 . S
O252 C230 1.244 . S
C253 O231 1.259 . S
C253 O232 1.254 . S
O254 Zn224 2.066 1_554 S
O254 C226 1.256 . S
O255 C226 1.244 . S
O255 Zn227 2.053 1_554 S
C2 C230 1.852 . S
C198 C38 1.852 . S
C162 C70 1.852 . S
C130 C98 1.852 . S
N82 N13 1.475 1_565 S
N50 N109 1.475 . S
N114 N45 1.460 1_565 S
N77 N18 1.460 . S
N141 N210 1.475 1_554 S
N173 N242 1.475 1_564 S
N237 N178 1.460 1_556 S
N205 N146 1.460 1_546 S
C6 C4 1.375 1_554 S
C34 C61 1.375 1_554 S
C93 C66 1.375 1_554 S
C102 C100 1.375 1_556 S
C132 C134 1.375 . S
C166 C164 1.375 . S
C194 C221 1.375 . S
C226 C253 1.375 . S
C29 C36 1.538 1_455 S
C125 C68 1.538 1_655 S
C157 C189 1.538 . S
C228 C196 1.538 . S
