# Generated by pormake.
# Topology mok, (4)-cn, num edge types: 1
# Building blocks:
#     Node 0, Type 0, BuildingBlock: NAHDIM_clean_sbu_0, # of connection points: 4
#     Node 1, Type 0, BuildingBlock: NAHDIM_clean_sbu_0, # of connection points: 4
#     Node 2, Type 0, BuildingBlock: NAHDIM_clean_sbu_0, # of connection points: 4
#     Node 3, Type 0, BuildingBlock: NAHDIM_clean_sbu_0, # of connection points: 4
#     Node 4, Type 0, BuildingBlock: NAHDIM_clean_sbu_0, # of connection points: 4
#     Node 5, Type 0, BuildingBlock: NAHDIM_clean_sbu_0, # of connection points: 4
#     Node 6, Type 0, BuildingBlock: NAHDIM_clean_sbu_0, # of connection points: 4
#     Node 7, Type 0, BuildingBlock: NAHDIM_clean_sbu_0, # of connection points: 4
#     Edge 8, Type (0, 0), BuildingBlock: FUNLAD_clean_linker_0, # of connection points: 2
#     Edge 9, Type (0, 0), BuildingBlock: FUNLAD_clean_linker_0, # of connection points: 2
#     Edge 10, Type (0, 0), BuildingBlock: FUNLAD_clean_linker_0, # of connection points: 2
#     Edge 11, Type (0, 0), BuildingBlock: FUNLAD_clean_linker_0, # of connection points: 2
#     Edge 12, Type (0, 0), BuildingBlock: FUNLAD_clean_linker_0, # of connection points: 2
#     Edge 13, Type (0, 0), BuildingBlock: FUNLAD_clean_linker_0, # of connection points: 2
#     Edge 14, Type (0, 0), BuildingBlock: FUNLAD_clean_linker_0, # of connection points: 2
#     Edge 15, Type (0, 0), BuildingBlock: FUNLAD_clean_linker_0, # of connection points: 2
#     Edge 16, Type (0, 0), BuildingBlock: FUNLAD_clean_linker_0, # of connection points: 2
#     Edge 17, Type (0, 0), BuildingBlock: FUNLAD_clean_linker_0, # of connection points: 2
#     Edge 18, Type (0, 0), BuildingBlock: FUNLAD_clean_linker_0, # of connection points: 2
#     Edge 19, Type (0, 0), BuildingBlock: FUNLAD_clean_linker_0, # of connection points: 2
#     Edge 20, Type (0, 0), BuildingBlock: FUNLAD_clean_linker_0, # of connection points: 2
#     Edge 21, Type (0, 0), BuildingBlock: FUNLAD_clean_linker_0, # of connection points: 2
#     Edge 22, Type (0, 0), BuildingBlock: FUNLAD_clean_linker_0, # of connection points: 2
#     Edge 23, Type (0, 0), BuildingBlock: FUNLAD_clean_linker_0, # of connection points: 2
# Relax obj value: 0.051
# Max RMSD: 0.062
# Mean RMSD: 0.062
data_MOF--net-mok--node1-NAHDIM_clean_sbu_0--edge1-FUNLAD_clean_linker_0
_symmetry_space_group_name_H-M    P1
_symmetry_Int_Tables_number       1
_symmetry_cell_setting            triclinic
loop_
_symmetry_equiv_pos_as_xyz
'x, y, z'
_cell_length_a     57.936429
_cell_length_b     23.266834
_cell_length_c     29.180009
_cell_angle_alpha  89.890783
_cell_angle_beta   89.956069
_cell_angle_gamma 90.028573
loop_
_atom_site_label
_atom_site_type_symbol
_atom_site_fract_x
_atom_site_fract_y
_atom_site_fract_z
_atom_type_partial_charge
C0 C 0.55298 0.22435 0.00847 0.0
O1 O 0.54343 0.27527 0.00402 0.0
O2 O 0.58419 0.34583 0.96362 0.0
Zn3 Zn 0.59448 0.29158 0.01328 0.0
O4 O 0.59229 0.32944 0.07543 0.0
C5 C 0.63639 0.26723 0.96161 0.0
O6 O 0.62342 0.27791 0.92568 0.0
O7 O 0.57475 0.22076 0.01281 0.0
C8 C 0.61041 0.3479 0.09513 0.0
O9 O 0.63036 0.34337 0.07405 0.0
C10 C 0.59337 0.39525 0.96031 0.0
O11 O 0.60885 0.41083 0.99074 0.0
O12 O 0.6275 0.26921 0.0014 0.0
C13 C 0.44767 0.75991 0.00531 0.0
O14 O 0.45741 0.70954 0.01169 0.0
O15 O 0.41567 0.64154 0.94611 0.0
Zn16 Zn 0.40759 0.68942 0.00113 0.0
O17 O 0.41429 0.64637 0.05934 0.0
C18 C 0.35935 0.66744 0.00851 0.0
O19 O 0.36722 0.61599 0.01854 0.0
O20 O 0.42595 0.76246 -0.00014 0.0
C21 C 0.40715 0.66712 0.09699 0.0
O22 O 0.39636 0.71678 0.09668 0.0
C23 C 0.41661 0.58703 0.94807 0.0
O24 O 0.41274 0.56108 0.98735 0.0
O25 O 0.37364 0.70732 -0.00068 0.0
C26 C 0.55823 0.77799 0.49978 0.0
O27 O 0.54793 0.72787 0.49625 0.0
O28 O 0.58808 0.67215 0.57979 0.0
Zn29 Zn 0.59693 0.70592 0.51871 0.0
O30 O 0.58958 0.6521 0.46683 0.0
C31 C 0.6449 0.69397 0.54366 0.0
O32 O 0.63657 0.65406 0.57097 0.0
O33 O 0.57961 0.7796 0.50933 0.0
C34 C 0.59918 0.60319 0.46363 0.0
O35 O 0.61363 0.58671 0.49573 0.0
C36 C 0.5734 0.63221 0.58561 0.0
O37 O 0.56261 0.61074 0.54995 0.0
O38 O 0.63113 0.7222 0.51824 0.0
C39 C 0.43239 0.2078 0.49689 0.0
O40 O 0.44294 0.25761 0.50024 0.0
O41 O 0.40431 0.31771 0.56546 0.0
Zn42 Zn 0.39321 0.28017 0.50739 0.0
O43 O 0.39823 0.33237 0.45339 0.0
C44 C 0.34955 0.25683 0.5517 0.0
O45 O 0.36228 0.25735 0.58893 0.0
O46 O 0.41048 0.20635 0.49846 0.0
C47 C 0.38645 0.37831 0.45062 0.0
O48 O 0.37165 0.39038 0.48336 0.0
C49 C 0.41728 0.36173 0.56705 0.0
O50 O 0.42449 0.38542 0.52873 0.0
O51 O 0.35915 0.26447 0.51297 0.0
C52 C 0.06456 0.70213 0.00964 0.0
O53 O 0.05421 0.7523 0.0113 0.0
O54 O 0.09934 0.81426 0.94705 0.0
Zn55 Zn 0.10368 0.77531 0.0081 0.0
O56 O 0.09202 0.82188 0.06142 0.0
C57 C 0.15197 0.79897 0.00434 0.0
O58 O 0.14415 0.84764 0.98757 0.0
O59 O 0.08646 0.70049 0.00775 0.0
C60 C 0.09493 0.87558 0.06667 0.0
O61 O 0.10578 0.9051 0.03485 0.0
C62 C 0.08356 0.84939 0.93565 0.0
O63 O 0.06782 0.86425 0.9658 0.0
O64 O 0.13765 0.76031 0.01625 0.0
C65 C 0.93497 0.27771 0.00824 0.0
O66 O 0.94486 0.22715 0.01229 0.0
O67 O 0.90401 0.16091 0.94942 0.0
Zn68 Zn 0.89501 0.20703 0.00487 0.0
O69 O 0.90128 0.16318 0.06285 0.0
C70 C 0.84948 0.2243 0.96567 0.0
O71 O 0.86013 0.21438 0.92671 0.0
O72 O 0.91314 0.28041 0.0049 0.0
C73 C 0.89183 0.11449 0.06896 0.0
O74 O 0.87864 0.09325 0.03652 0.0
C75 C 0.91859 0.1201 0.94949 0.0
O76 O 0.92876 0.10542 0.98798 0.0
O77 O 0.861 0.2242 0.00273 0.0
C78 C 0.05062 0.27551 0.51088 0.0
O79 O 0.04106 0.22429 0.5112 0.0
O80 O 0.08206 0.15547 0.55668 0.0
Zn81 Zn 0.09071 0.20664 0.50369 0.0
O82 O 0.08422 0.17011 0.44268 0.0
C83 C 0.13591 0.23036 0.54289 0.0
O84 O 0.12499 0.22654 0.58226 0.0
O85 O 0.07244 0.27946 0.50798 0.0
C86 C 0.07273 0.12446 0.43564 0.0
O87 O 0.0637 0.09668 0.47055 0.0
C88 C 0.09363 0.11078 0.56654 0.0
O89 O 0.1111 0.09624 0.54028 0.0
O90 O 0.12467 0.22428 0.50583 0.0
C91 C 0.94103 0.73276 0.50592 0.0
O92 O 0.95032 0.78406 0.50207 0.0
O93 O 0.90898 0.84433 0.57147 0.0
Zn94 Zn 0.90015 0.7999 0.5151 0.0
O95 O 0.905 0.84688 0.45816 0.0
C96 C 0.85679 0.76965 0.55739 0.0
O97 O 0.86906 0.7731 0.59513 0.0
O98 O 0.91936 0.72848 0.51168 0.0
C99 C 0.89525 0.89543 0.4536 0.0
O100 O 0.88236 0.91518 0.48712 0.0
C101 C 0.92306 0.88622 0.57226 0.0
O102 O 0.93298 0.90314 0.53405 0.0
O103 O 0.86653 0.77875 0.51902 0.0
C104 C 0.8111 0.23129 0.9263 0.0
C105 C 0.8242 0.23324 0.96679 0.0
C106 C 0.78712 0.23797 0.9277 0.0
C107 C 0.77571 0.2465 0.9698 0.0
C108 C 0.78892 0.24956 0.01004 0.0
C109 C 0.81284 0.24283 0.00864 0.0
C110 C 0.75025 0.25327 0.97364 0.0
C111 C 0.73503 0.23665 0.94133 0.0
C112 C 0.70967 0.24278 0.9472 0.0
C113 C 0.69568 0.24951 0.90829 0.0
C114 C 0.67182 0.2567 0.91277 0.0
C115 C 0.66144 0.25664 0.95633 0.0
H116 H 0.70919 0.23352 0.02139 0.0
C117 C 0.67535 0.24801 0.99516 0.0
C118 C 0.69917 0.24095 0.99068 0.0
H119 H 0.66789 0.24707 0.02921 0.0
H120 H 0.81935 0.22443 0.89344 0.0
H121 H 0.77779 0.23704 0.89565 0.0
H122 H 0.78066 0.25653 0.0429 0.0
H123 H 0.8224 0.24479 0.04049 0.0
H124 H 0.74384 0.27206 0.00521 0.0
H125 H 0.74106 0.2188 0.90918 0.0
H126 H 0.70329 0.25029 0.87436 0.0
H127 H 0.66157 0.26294 0.88214 0.0
C128 C 0.18573 0.73565 0.02291 0.0
C129 C 0.17712 0.78895 0.008 0.0
C130 C 0.20952 0.72587 0.02506 0.0
C131 C 0.2252 0.76925 0.01214 0.0
C132 C 0.21656 0.82289 -0.00164 0.0
C133 C 0.1928 0.83259 0.99606 0.0
C134 C 0.25061 0.76074 0.01328 0.0
C135 C 0.26076 0.70892 0.00895 0.0
C136 C 0.28619 0.70013 0.00894 0.0
C137 C 0.29481 0.64525 0.01928 0.0
C138 C 0.31854 0.63467 0.01921 0.0
C139 C 0.33422 0.67875 0.00842 0.0
H140 H 0.29606 0.78657 0.98782 0.0
C141 C 0.32565 0.73356 0.99749 0.0
C142 C 0.3019 0.74415 0.99756 0.0
H143 H 0.33727 0.76833 0.9886 0.0
H144 H 0.17411 0.70132 0.0328 0.0
H145 H 0.21544 0.6846 0.03743 0.0
H146 H 0.22823 0.85724 0.98869 0.0
H147 H 0.18676 0.87429 0.9847 0.0
H148 H 0.26115 0.79904 0.01664 0.0
H149 H 0.25012 0.67077 0.00545 0.0
H150 H 0.28314 0.61039 0.02774 0.0
H151 H 0.32455 0.59187 0.02763 0.0
C152 C 0.81871 0.75217 0.51918 0.0
C153 C 0.83179 0.75677 0.55956 0.0
C154 C 0.79503 0.74106 0.5212 0.0
C155 C 0.78384 0.73479 0.56376 0.0
C156 C 0.79701 0.73836 0.60403 0.0
C157 C 0.8207 0.74943 0.60201 0.0
C158 C 0.75868 0.72292 0.56754 0.0
C159 C 0.74331 0.73705 0.53473 0.0
C160 C 0.71812 0.72561 0.53846 0.0
C161 C 0.70288 0.75774 0.51116 0.0
C162 C 0.6791 0.74781 0.513 0.0
C163 C 0.67004 0.70513 0.54202 0.0
H164 H 0.72017 0.65538 0.58768 0.0
C165 C 0.68527 0.67258 0.56907 0.0
C166 C 0.70904 0.68248 0.56721 0.0
H167 H 0.67887 0.63897 0.59147 0.0
H168 H 0.82677 0.75701 0.48588 0.0
H169 H 0.78573 0.73661 0.48928 0.0
H170 H 0.7889 0.73312 0.63726 0.0
H171 H 0.83027 0.75249 0.63378 0.0
H172 H 0.75263 0.7045 0.59957 0.0
H173 H 0.74912 0.76038 0.50461 0.0
H174 H 0.70938 0.79086 0.48839 0.0
H175 H 0.66786 0.7735 0.49155 0.0
C176 C 0.17427 0.23963 0.58201 0.0
C177 C 0.16121 0.23898 0.54145 0.0
C178 C 0.19829 0.24555 0.58033 0.0
C179 C 0.20973 0.25083 0.53792 0.0
C180 C 0.19658 0.25165 0.49757 0.0
C181 C 0.17262 0.24547 0.49924 0.0
C182 C 0.23521 0.25661 0.53412 0.0
C183 C 0.25012 0.23679 0.56586 0.0
C184 C 0.27562 0.24132 0.56107 0.0
C185 C 0.28931 0.23996 0.60073 0.0
C186 C 0.31333 0.24448 0.59774 0.0
C187 C 0.3242 0.24999 0.55489 0.0
H188 H 0.2768 0.24441 0.48652 0.0
C189 C 0.31056 0.24998 0.51509 0.0
C190 C 0.28656 0.24546 0.51807 0.0
H191 H 0.3184 0.25353 0.48149 0.0
H192 H 0.16599 0.23519 0.61511 0.0
H193 H 0.20769 0.24666 0.61232 0.0
H194 H 0.2049 0.25622 0.46449 0.0
H195 H 0.16308 0.24548 0.46733 0.0
H196 H 0.24176 0.27678 0.50317 0.0
H197 H 0.2436 0.21685 0.59693 0.0
H198 H 0.28138 0.23612 0.63425 0.0
H199 H 0.32333 0.24409 0.62908 0.0
C200 C 0.58804 0.38005 0.16423 0.0
C201 C 0.60928 0.37305 0.14161 0.0
C202 C 0.5872 0.40347 0.20833 0.0
C203 C 0.60763 0.42051 0.23061 0.0
C204 C 0.62882 0.41271 0.20816 0.0
C205 C 0.62965 0.38957 0.16412 0.0
C206 C 0.60775 0.44573 0.27733 0.0
C207 C 0.5897 0.47398 0.29571 0.0
C208 C 0.59115 0.50382 0.34057 0.0
C209 C 0.57773 0.55317 0.34776 0.0
C210 C 0.57992 0.58479 0.38819 0.0
C211 C 0.59542 0.56725 0.42253 0.0
H212 H 0.61588 0.44577 0.37217 0.0
C213 C 0.60802 0.51627 0.41629 0.0
C214 C 0.60589 0.48479 0.37578 0.0
H215 H 0.61989 0.50116 0.44232 0.0
H216 H 0.57205 0.36725 0.14796 0.0
H217 H 0.57057 0.40724 0.22496 0.0
H218 H 0.64483 0.42507 0.2246 0.0
H219 H 0.64633 0.38447 0.14783 0.0
H220 H 0.62403 0.4447 0.29576 0.0
H221 H 0.57409 0.48007 0.27572 0.0
H222 H 0.56603 0.56835 0.32144 0.0
H223 H 0.56979 0.62358 0.39211 0.0
C224 C 0.39953 0.65436 0.18082 0.0
C225 C 0.40944 0.63395 0.14002 0.0
C226 C 0.40039 0.62142 0.22085 0.0
C227 C 0.41111 0.56715 0.22084 0.0
C228 C 0.42179 0.54782 0.18054 0.0
C229 C 0.42086 0.58066 0.14044 0.0
C230 C 0.41146 0.52959 0.26204 0.0
C231 C 0.39464 0.53032 0.294 0.0
C232 C 0.3937 0.49115 0.33434 0.0
C233 C 0.37863 0.50487 0.37039 0.0
C234 C 0.37642 0.46855 0.40831 0.0
C235 C 0.3892 0.41738 0.41095 0.0
H236 H 0.41787 0.42639 0.30964 0.0
C237 C 0.40434 0.40351 0.375 0.0
C238 C 0.40652 0.43979 0.33701 0.0
H239 H 0.41432 0.36417 0.37585 0.0
H240 H 0.39083 0.69554 0.18178 0.0
H241 H 0.39271 0.6388 0.25166 0.0
H242 H 0.43041 0.5065 0.17974 0.0
H243 H 0.42882 0.56388 0.10965 0.0
H244 H 0.42553 0.49908 0.26462 0.0
H245 H 0.38052 0.56065 0.29043 0.0
H246 H 0.36841 0.54385 0.36921 0.0
H247 H 0.36458 0.4805 0.43539 0.0
C248 C 0.42494 0.58083 0.86398 0.0
C249 C 0.42039 0.55315 0.90588 0.0
C250 C 0.42683 0.54918 0.82351 0.0
C251 C 0.42427 0.48902 0.82414 0.0
C252 C 0.42014 0.46137 0.86616 0.0
C253 C 0.41837 0.49299 0.90665 0.0
C254 C 0.42372 0.45436 0.78147 0.0
C255 C 0.43404 0.47052 0.74204 0.0
C256 C 0.43121 0.43945 0.6978 0.0
C257 C 0.43685 0.4683 0.65694 0.0
C258 C 0.43289 0.44262 0.61439 0.0
C259 C 0.42316 0.38745 0.61182 0.0
H260 H 0.41874 0.35793 0.72539 0.0
C261 C 0.41837 0.35758 0.6526 0.0
C262 C 0.42251 0.38299 0.6951 0.0
H263 H 0.41125 0.31453 0.65175 0.0
H264 H 0.42652 0.62717 0.86219 0.0
H265 H 0.42934 0.5724 0.79175 0.0
H266 H 0.41793 0.41515 0.86758 0.0
H267 H 0.41482 0.47032 0.93834 0.0
H268 H 0.41382 0.4149 0.78299 0.0
H269 H 0.44416 0.50978 0.74134 0.0
H270 H 0.4438 0.51154 0.65786 0.0
H271 H 0.4369 0.46665 0.58356 0.0
C272 C 0.57333 0.41377 0.88562 0.0
C273 C 0.58832 0.43249 0.9204 0.0
C274 C 0.57014 0.44673 0.84602 0.0
C275 C 0.58179 0.49945 0.8405 0.0
C276 C 0.59627 0.51868 0.87588 0.0
C277 C 0.59946 0.48575 0.91542 0.0
C278 C 0.5809 0.53346 0.79731 0.0
C279 C 0.56454 0.52752 0.76476 0.0
C280 C 0.5656 0.55777 0.71983 0.0
C281 C 0.55447 0.53317 0.68187 0.0
C282 C 0.5565 0.55798 0.63835 0.0
C283 C 0.56965 0.60812 0.63198 0.0
H284 H 0.58579 0.63146 0.7423 0.0
C285 C 0.57991 0.63419 0.67029 0.0
C286 C 0.57779 0.60959 0.71376 0.0
H287 H 0.58981 0.67345 0.66671 0.0
H288 H 0.56455 0.37279 0.88833 0.0
H289 H 0.55925 0.42937 0.81937 0.0
H290 H 0.60554 0.55896 0.87257 0.0
H291 H 0.6111 0.5015 0.94157 0.0
H292 H 0.59499 0.56341 0.79181 0.0
H293 H 0.55051 0.4973 0.76975 0.0
H294 H 0.54472 0.49369 0.68562 0.0
H295 H 0.54823 0.53706 0.60958 0.0
C296 C 0.09227 0.96175 0.11787 0.0
C297 C 0.08751 0.90345 0.1098 0.0
C298 C 0.08677 0.98687 0.15998 0.0
C299 C 0.07619 0.9542 0.19489 0.0
C300 C 0.07106 0.89625 0.18638 0.0
C301 C 0.07655 0.87118 0.14431 0.0
C302 C 0.07193 0.97742 0.24162 0.0
C303 C 0.07047 0.03394 0.25117 0.0
C304 C 0.0693 0.05693 0.29861 0.0
C305 C 0.07791 0.11232 0.30674 0.0
C306 C 0.07867 0.13447 0.35112 0.0
C307 C 0.07056 0.10193 0.38845 0.0
H308 H 0.05285 0.98297 0.33069 0.0
C309 C 0.06102 0.04739 0.38019 0.0
C310 C 0.06037 0.02505 0.3357 0.0
H311 H 0.05438 0.02152 0.40815 0.0
H312 H 0.10082 0.98772 0.0921 0.0
H313 H 0.09169 0.03117 0.16533 0.0
H314 H 0.06306 0.86995 0.21266 0.0
H315 H 0.0726 0.82612 0.13926 0.0
H316 H 0.07074 0.94627 0.26925 0.0
H317 H 0.07162 0.06518 0.22361 0.0
H318 H 0.08468 0.13806 0.2788 0.0
H319 H 0.08591 0.17692 0.35617 0.0
C320 C 0.90919 0.9039 0.37264 0.0
C321 C 0.89767 0.92814 0.41036 0.0
C322 C 0.91052 0.93352 0.33105 0.0
C323 C 0.90034 0.98808 0.32633 0.0
C324 C 0.88957 0.01314 0.36446 0.0
C325 C 0.88809 0.98334 0.40599 0.0
C326 C 0.9007 0.01994 0.28224 0.0
C327 C 0.90068 0.99336 0.24127 0.0
C328 C 0.89927 0.02485 0.19711 0.0
C329 C 0.88876 -0.00203 0.15951 0.0
C330 C 0.88648 0.0269 0.11776 0.0
C331 C 0.89501 0.08307 0.11258 0.0
H332 H 0.91716 0.10196 0.21948 0.0
C333 C 0.9062 0.10935 0.1498 0.0
C334 C 0.9083 0.08058 0.19166 0.0
H335 H 0.91313 0.15244 0.1468 0.0
H336 H 0.91697 0.86167 0.37501 0.0
H337 H 0.91963 0.91367 0.30283 0.0
H338 H 0.88182 0.05539 0.36184 0.0
H339 H 0.87927 0.00342 0.43451 0.0
H340 H 0.8991 0.06642 0.28373 0.0
H341 H 0.89987 0.94674 0.2399 0.0
H342 H 0.88188 0.95483 0.16268 0.0
H343 H 0.87793 0.00529 0.08965 0.0
C344 C 0.9191 0.89416 0.65728 0.0
C345 C 0.92734 0.91691 0.61573 0.0
C346 C 0.92187 0.92439 0.69815 0.0
C347 C 0.93297 0.97818 0.69838 0.0
C348 C 0.94146 0.0006 0.65697 0.0
C349 C 0.93887 0.97006 0.61606 0.0
C350 C 0.934 0.01393 0.74037 0.0
C351 C 0.93379 0.99156 0.78297 0.0
C352 C 0.93132 0.02727 0.82474 0.0
C353 C 0.93983 0.00656 0.86665 0.0
C354 C 0.93618 0.03728 0.90716 0.0
C355 C 0.92356 0.08883 0.90657 0.0
H356 H 0.91151 0.09577 0.79272 0.0
C357 C 0.91513 0.10968 0.86457 0.0
C358 C 0.91896 0.0793 0.8241 0.0
H359 H 0.90528 0.14919 0.86295 0.0
H360 H 0.9101 0.85334 0.65819 0.0
H361 H 0.91449 0.90641 0.72909 0.0
H362 H 0.94987 0.0422 0.65616 0.0
H363 H 0.94535 0.98881 0.58458 0.0
H364 H 0.93478 0.06025 0.73584 0.0
H365 H 0.9354 0.94541 0.78766 0.0
H366 H 0.94917 0.96626 0.86811 0.0
H367 H 0.94282 0.01999 0.93901 0.0
C368 C 0.06708 0.91529 0.87572 0.0
C369 C 0.08324 0.87324 0.88858 0.0
C370 C 0.06724 0.93825 0.83133 0.0
C371 C 0.08366 0.91958 0.79895 0.0
C372 C 0.0994 0.87664 0.81165 0.0
C373 C 0.0993 0.85396 0.85593 0.0
C374 C 0.08509 0.94331 0.75169 0.0
C375 C 0.07746 0.99597 0.73983 0.0
C376 C 0.081 0.02172 0.69362 0.0
C377 C 0.06684 0.06759 0.68001 0.0
C378 C 0.07053 0.09554 0.6382 0.0
C379 C 0.08863 0.07848 0.60915 0.0
H380 H 0.11081 0.97034 0.6738 0.0
C381 C 0.10265 0.03212 0.62241 0.0
C382 C 0.09897 0.00418 0.66422 0.0
H383 H 0.11687 0.01821 0.60102 0.0
H384 H 0.05434 0.93067 0.89995 0.0
H385 H 0.05434 0.96998 0.82259 0.0
H386 H 0.11212 0.86112 0.78739 0.0
H387 H 0.11191 0.82133 0.86453 0.0
H388 H 0.09377 0.91691 0.72637 0.0
H389 H 0.06863 0.0223 0.76499 0.0
H390 H 0.05299 0.08232 0.70203 0.0
H391 H 0.05942 0.13121 0.62908 0.0
C392 C 0.45143 0.8667 0.99692 0.0
C393 C 0.46179 0.81288 0.00432 0.0
C394 C 0.46478 0.91672 0.99587 0.0
C395 C 0.48882 0.914 0.00252 0.0
C396 C 0.49916 0.8601 0.00933 0.0
C397 C 0.48582 0.81011 0.01042 0.0
C398 C 0.50381 0.96585 0.00136 0.0
C399 C 0.49615 0.01946 0.01002 0.0
C400 C 0.51126 0.07115 0.00933 0.0
C401 C 0.5011 0.12536 0.00297 0.0
C402 C 0.51461 0.17514 0.00251 0.0
C403 C 0.53861 0.17177 0.00874 0.0
H404 H 0.54377 0.02739 0.02287 0.0
C405 C 0.54878 0.11763 0.01566 0.0
C406 C 0.53528 0.0679 0.01618 0.0
H407 H 0.5672 0.11358 0.02109 0.0
H408 H 0.43298 0.87026 0.99164 0.0
H409 H 0.45616 0.95703 0.98895 0.0
H410 H 0.51765 0.85665 0.01417 0.0
H411 H 0.49437 0.76931 0.01601 0.0
H412 H 0.52192 0.95887 0.9937 0.0
H413 H 0.47803 0.02647 0.01759 0.0
H414 H 0.48262 0.12923 0.99804 0.0
H415 H 0.50621 0.21621 0.99727 0.0
C416 C 0.52125 0.83022 0.48426 0.0
C417 C 0.54504 0.83185 0.4935 0.0
C418 C 0.50868 0.8811 0.47946 0.0
C419 C 0.51964 0.93479 0.48407 0.0
C420 C 0.54351 0.93632 0.49207 0.0
C421 C 0.55608 0.88547 0.49696 0.0
C422 C 0.5069 0.99003 0.48053 0.0
C423 C 0.48427 0.99533 0.49044 0.0
C424 C 0.47159 0.05089 0.48987 0.0
C425 C 0.44737 0.04974 0.48803 0.0
C426 C 0.43463 0.10066 0.48959 0.0
C427 C 0.44585 0.154 0.49329 0.0
H428 H 0.50137 0.10752 0.4964 0.0
C429 C 0.47007 0.15533 0.4949 0.0
C430 C 0.48282 0.10441 0.49342 0.0
H431 H 0.47924 0.1957 0.49814 0.0
H432 H 0.51228 0.7896 0.48083 0.0
H433 H 0.49047 0.87796 0.47165 0.0
H434 H 0.55244 0.97705 0.49532 0.0
H435 H 0.57443 0.88827 0.50374 0.0
H436 H 0.51691 0.02764 0.47108 0.0
H437 H 0.47442 0.9575 0.50007 0.0
H438 H 0.43823 0.00921 0.48562 0.0
H439 H 0.41597 0.0981 0.48835 0.0
C440 C 0.02667 0.65067 0.01186 0.0
C441 C 0.05089 0.64847 0.01068 0.0
C442 C 0.01367 0.60015 0.01335 0.0
C443 C 0.02465 0.54618 0.0134 0.0
C444 C 0.04886 0.54407 0.01276 0.0
C445 C 0.06187 0.59462 0.01118 0.0
C446 C 0.01151 0.49141 0.0157 0.0
C447 C 0.98963 0.48593 0.00067 0.0
C448 C 0.97617 0.43158 0.00322 0.0
C449 C 0.95201 0.43458 0.00043 0.0
C450 C 0.9386 0.38474 0.00233 0.0
C451 C 0.94911 0.33061 0.00677 0.0
H452 H 0.00526 0.37255 0.00795 0.0
C453 C 0.97329 0.32741 0.00913 0.0
C454 C 0.98671 0.37726 0.0072 0.0
H455 H 0.98193 0.28629 0.0121 0.0
H456 H 0.01768 0.69148 0.01195 0.0
H457 H 0.99509 0.60386 0.01544 0.0
H458 H 0.05776 0.50312 0.01324 0.0
H459 H 0.08051 0.59144 0.01056 0.0
H460 H 0.02049 0.45456 0.02987 0.0
H461 H 0.98085 0.52296 0.98622 0.0
H462 H 0.94343 0.47574 0.99698 0.0
H463 H 0.92001 0.38871 0.0002 0.0
C464 C 0.04629 0.38262 0.51144 0.0
C465 C 0.03616 0.32776 0.51324 0.0
C466 C 0.03259 0.43196 0.51308 0.0
C467 C 0.00841 0.42743 0.51631 0.0
C468 C 0.99837 0.37262 0.51898 0.0
C469 C 0.01206 0.32329 0.51724 0.0
C470 C 0.99312 0.47859 0.51817 0.0
C471 C -0.00112 0.53011 0.50031 0.0
C472 C 0.98352 0.58121 0.50184 0.0
C473 C 0.99343 0.63605 0.49773 0.0
C474 C 0.97966 0.6853 0.499 0.0
C475 C 0.95561 0.68068 0.50407 0.0
H476 H 0.9509 0.5352 0.50766 0.0
C477 C 0.94562 0.62579 0.50738 0.0
C478 C 0.95938 0.57657 0.50609 0.0
H479 H 0.92711 0.62073 0.5108 0.0
H480 H 0.06484 0.38754 0.50883 0.0
H481 H 0.0411 0.47334 0.51256 0.0
H482 H 0.97982 0.36788 0.52195 0.0
H483 H 0.00372 0.28167 0.51896 0.0
H484 H 0.97639 0.47275 0.53422 0.0
H485 H 0.01563 0.53582 0.48425 0.0
H486 H 0.01194 0.64089 0.49394 0.0
H487 H 0.9879 0.72695 0.49613 0.0
loop_
_geom_bond_atom_site_label_1
_geom_bond_atom_site_label_2
_geom_bond_distance
_geom_bond_site_symmetry_2
_ccdc_geom_bond_type
C0 O1 1.160 1_554 S
C0 O7 1.185 . S
O1 C0 1.160 1_556 S
O2 Zn3 1.899 1_556 S
O2 C10 1.284 . S
Zn3 O2 1.899 1_554 S
Zn3 O4 2.032 . S
Zn3 O7 2.086 . S
Zn3 O12 1.977 . S
O4 Zn3 2.032 . S
O4 C8 1.278 . S
C5 O6 1.203 1_554 S
C5 O12 1.267 . S
O6 C5 1.203 1_556 S
O7 C0 1.185 . S
O7 Zn3 2.086 . S
C8 O4 1.278 . S
C8 O9 1.211 . S
O9 C8 1.211 . S
C10 O2 1.284 . S
C10 O11 1.273 . S
O11 C10 1.273 . S
O12 Zn3 1.977 . S
O12 C5 1.267 . S
C13 O14 1.160 1_554 S
C13 O20 1.185 . S
O14 C13 1.160 1_556 S
O15 Zn16 1.899 1_556 S
O15 C23 1.284 . S
Zn16 O15 1.899 1_554 S
Zn16 O17 2.032 . S
Zn16 O20 2.086 . S
Zn16 O25 1.977 . S
O17 Zn16 2.032 . S
O17 C21 1.278 . S
C18 O19 1.203 1_554 S
C18 O25 1.267 . S
O19 C18 1.203 1_556 S
O20 C13 1.185 . S
O20 Zn16 2.086 . S
C21 O17 1.278 . S
C21 O22 1.211 . S
O22 C21 1.211 . S
C23 O15 1.284 . S
C23 O24 1.273 . S
O24 C23 1.273 . S
O25 Zn16 1.977 . S
O25 C18 1.267 . S
C26 O27 1.160 . S
C26 O33 1.185 . S
O27 C26 1.160 . S
O28 Zn29 1.899 . S
O28 C36 1.284 . S
Zn29 O28 1.899 . S
Zn29 O30 2.032 . S
Zn29 O33 2.086 . S
Zn29 O38 1.977 . S
O30 Zn29 2.032 . S
O30 C34 1.278 . S
C31 O32 1.203 . S
C31 O38 1.267 . S
O32 C31 1.203 . S
O33 C26 1.185 . S
O33 Zn29 2.086 . S
C34 O30 1.278 . S
C34 O35 1.211 . S
O35 C34 1.211 . S
C36 O28 1.284 . S
C36 O37 1.273 . S
O37 C36 1.273 . S
O38 Zn29 1.977 . S
O38 C31 1.267 . S
C39 O40 1.160 . S
C39 O46 1.185 . S
O40 C39 1.160 . S
O41 Zn42 1.899 . S
O41 C49 1.284 . S
Zn42 O41 1.899 . S
Zn42 O43 2.032 . S
Zn42 O46 2.086 . S
Zn42 O51 1.977 . S
O43 Zn42 2.032 . S
O43 C47 1.278 . S
C44 O45 1.203 . S
C44 O51 1.267 . S
O45 C44 1.203 . S
O46 C39 1.185 . S
O46 Zn42 2.086 . S
C47 O43 1.278 . S
C47 O48 1.211 . S
O48 C47 1.211 . S
C49 O41 1.284 . S
C49 O50 1.273 . S
O50 C49 1.273 . S
O51 Zn42 1.977 . S
O51 C44 1.267 . S
C52 O53 1.160 1_554 S
C52 O59 1.185 . S
O53 C52 1.160 1_556 S
O54 Zn55 1.899 1_556 S
O54 C62 1.284 . S
Zn55 O54 1.899 1_554 S
Zn55 O56 2.032 . S
Zn55 O59 2.086 . S
Zn55 O64 1.977 . S
O56 Zn55 2.032 . S
O56 C60 1.278 . S
C57 O58 1.203 1_554 S
C57 O64 1.267 . S
O58 C57 1.203 1_556 S
O59 C52 1.185 . S
O59 Zn55 2.086 . S
C60 O56 1.278 . S
C60 O61 1.211 . S
O61 C60 1.211 . S
C62 O54 1.284 . S
C62 O63 1.273 . S
O63 C62 1.273 . S
O64 Zn55 1.977 . S
O64 C57 1.267 . S
C65 O66 1.160 1_554 S
C65 O72 1.185 . S
O66 C65 1.160 1_556 S
O67 Zn68 1.899 1_556 S
O67 C75 1.284 . S
Zn68 O67 1.899 1_554 S
Zn68 O69 2.032 . S
Zn68 O72 2.086 . S
Zn68 O77 1.977 . S
O69 Zn68 2.032 . S
O69 C73 1.278 . S
C70 O71 1.203 1_554 S
C70 O77 1.267 . S
O71 C70 1.203 1_556 S
O72 C65 1.185 . S
O72 Zn68 2.086 . S
C73 O69 1.278 . S
C73 O74 1.211 . S
O74 C73 1.211 . S
C75 O67 1.284 . S
C75 O76 1.273 . S
O76 C75 1.273 . S
O77 Zn68 1.977 . S
O77 C70 1.267 . S
C78 O79 1.160 . S
C78 O85 1.185 . S
O79 C78 1.160 . S
O80 Zn81 1.899 . S
O80 C88 1.284 . S
Zn81 O80 1.899 . S
Zn81 O82 2.032 . S
Zn81 O85 2.086 . S
Zn81 O90 1.977 . S
O82 Zn81 2.032 . S
O82 C86 1.278 . S
C83 O84 1.203 . S
C83 O90 1.267 . S
O84 C83 1.203 . S
O85 C78 1.185 . S
O85 Zn81 2.086 . S
C86 O82 1.278 . S
C86 O87 1.211 . S
O87 C86 1.211 . S
C88 O80 1.284 . S
C88 O89 1.273 . S
O89 C88 1.273 . S
O90 Zn81 1.977 . S
O90 C83 1.267 . S
C91 O92 1.160 . S
C91 O98 1.185 . S
O92 C91 1.160 . S
O93 Zn94 1.899 . S
O93 C101 1.284 . S
Zn94 O93 1.899 . S
Zn94 O95 2.032 . S
Zn94 O98 2.086 . S
Zn94 O103 1.977 . S
O95 Zn94 2.032 . S
O95 C99 1.278 . S
C96 O97 1.203 . S
C96 O103 1.267 . S
O97 C96 1.203 . S
O98 C91 1.185 . S
O98 Zn94 2.086 . S
C99 O95 1.278 . S
C99 O100 1.211 . S
O100 C99 1.211 . S
C101 O93 1.284 . S
C101 O102 1.273 . S
O102 C101 1.273 . S
O103 Zn94 1.977 . S
O103 C96 1.267 . S
C104 C105 1.386 1_556 S
C104 C106 1.383 . S
C104 H120 0.951 . S
C105 C104 1.386 1_554 S
C105 C109 1.383 . S
C106 C104 1.383 . S
C106 C107 1.402 1_556 S
C106 H121 0.951 . S
C107 C106 1.402 1_554 S
C107 C108 1.375 . S
C107 C110 1.481 . S
C108 C107 1.375 . S
C108 C109 1.367 . S
C108 H122 0.951 . S
C109 C105 1.383 . S
C109 C108 1.367 . S
C109 H123 0.950 . S
C110 C107 1.481 . S
C110 C111 1.297 1_554 S
C110 H124 0.950 . S
C111 C110 1.297 1_556 S
C111 C112 1.479 . S
C111 H125 0.950 . S
C112 C111 1.479 . S
C112 C113 1.375 . S
C112 C118 1.404 1_556 S
C113 C112 1.375 . S
C113 C114 1.369 . S
C113 H126 0.950 . S
C114 C113 1.369 . S
C114 C115 1.392 1_556 S
C114 H127 0.951 . S
C115 C114 1.392 1_554 S
C115 C117 1.384 . S
H116 C118 0.949 . S
C117 C115 1.384 . S
C117 C118 1.385 . S
C117 H119 0.950 . S
C118 C112 1.404 1_554 S
C118 H116 0.949 . S
C118 C117 1.385 . S
H119 C117 0.950 . S
H120 C104 0.951 . S
H121 C106 0.951 . S
H122 C108 0.951 . S
H123 C109 0.950 . S
H124 C110 0.950 . S
H125 C111 0.950 . S
H126 C113 0.950 . S
H127 C114 0.951 . S
C128 C129 1.386 . S
C128 C130 1.383 . S
C128 H144 0.951 . S
C129 C128 1.386 . S
C129 C133 1.383 1_554 S
C130 C128 1.383 . S
C130 C131 1.402 1_554 S
C130 H145 0.951 . S
C131 C130 1.402 1_556 S
C131 C132 1.375 . S
C131 C134 1.481 . S
C132 C131 1.375 . S
C132 C133 1.367 . S
C132 H146 0.951 . S
C133 C129 1.383 1_556 S
C133 C132 1.367 . S
C133 H147 0.950 . S
C134 C131 1.481 . S
C134 C135 1.297 1_556 S
C134 H148 0.950 . S
C135 C134 1.297 1_554 S
C135 C136 1.479 . S
C135 H149 0.950 . S
C136 C135 1.479 . S
C136 C137 1.375 . S
C136 C142 1.404 1_554 S
C137 C136 1.375 . S
C137 C138 1.369 . S
C137 H150 0.950 . S
C138 C137 1.369 . S
C138 C139 1.392 . S
C138 H151 0.951 . S
C139 C138 1.392 . S
C139 C141 1.384 1_554 S
H140 C142 0.949 . S
C141 C139 1.384 1_556 S
C141 C142 1.385 . S
C141 H143 0.950 . S
C142 C136 1.404 1_556 S
C142 H140 0.949 . S
C142 C141 1.385 . S
H143 C141 0.950 . S
H144 C128 0.951 . S
H145 C130 0.951 . S
H146 C132 0.951 . S
H147 C133 0.950 . S
H148 C134 0.950 . S
H149 C135 0.950 . S
H150 C137 0.950 . S
H151 C138 0.951 . S
C152 C153 1.386 . S
C152 C154 1.383 . S
C152 H168 0.951 . S
C153 C152 1.386 . S
C153 C157 1.383 . S
C154 C152 1.383 . S
C154 C155 1.402 . S
C154 H169 0.951 . S
C155 C154 1.402 . S
C155 C156 1.375 . S
C155 C158 1.481 . S
C156 C155 1.375 . S
C156 C157 1.367 . S
C156 H170 0.951 . S
C157 C153 1.383 . S
C157 C156 1.367 . S
C157 H171 0.950 . S
C158 C155 1.481 . S
C158 C159 1.297 . S
C158 H172 0.950 . S
C159 C158 1.297 . S
C159 C160 1.479 . S
C159 H173 0.950 . S
C160 C159 1.479 . S
C160 C161 1.375 . S
C160 C166 1.404 . S
C161 C160 1.375 . S
C161 C162 1.369 . S
C161 H174 0.950 . S
C162 C161 1.369 . S
C162 C163 1.392 . S
C162 H175 0.951 . S
C163 C162 1.392 . S
C163 C165 1.384 . S
H164 C166 0.949 . S
C165 C163 1.384 . S
C165 C166 1.385 . S
C165 H167 0.950 . S
C166 C160 1.404 . S
C166 H164 0.949 . S
C166 C165 1.385 . S
H167 C165 0.950 . S
H168 C152 0.951 . S
H169 C154 0.951 . S
H170 C156 0.951 . S
H171 C157 0.950 . S
H172 C158 0.950 . S
H173 C159 0.950 . S
H174 C161 0.950 . S
H175 C162 0.951 . S
C176 C177 1.386 . S
C176 C178 1.383 . S
C176 H192 0.951 . S
C177 C176 1.386 . S
C177 C181 1.383 . S
C178 C176 1.383 . S
C178 C179 1.402 . S
C178 H193 0.951 . S
C179 C178 1.402 . S
C179 C180 1.375 . S
C179 C182 1.481 . S
C180 C179 1.375 . S
C180 C181 1.367 . S
C180 H194 0.951 . S
C181 C177 1.383 . S
C181 C180 1.367 . S
C181 H195 0.950 . S
C182 C179 1.481 . S
C182 C183 1.297 . S
C182 H196 0.950 . S
C183 C182 1.297 . S
C183 C184 1.479 . S
C183 H197 0.950 . S
C184 C183 1.479 . S
C184 C185 1.375 . S
C184 C190 1.404 . S
C185 C184 1.375 . S
C185 C186 1.369 . S
C185 H198 0.950 . S
C186 C185 1.369 . S
C186 C187 1.392 . S
C186 H199 0.951 . S
C187 C186 1.392 . S
C187 C189 1.384 . S
H188 C190 0.949 . S
C189 C187 1.384 . S
C189 C190 1.385 . S
C189 H191 0.950 . S
C190 C184 1.404 . S
C190 H188 0.949 . S
C190 C189 1.385 . S
H191 C189 0.950 . S
H192 C176 0.951 . S
H193 C178 0.951 . S
H194 C180 0.951 . S
H195 C181 0.950 . S
H196 C182 0.950 . S
H197 C183 0.950 . S
H198 C185 0.950 . S
H199 C186 0.951 . S
C200 C201 1.386 . S
C200 C202 1.383 . S
C200 H216 0.951 . S
C201 C200 1.386 . S
C201 C205 1.383 . S
C202 C200 1.383 . S
C202 C203 1.402 . S
C202 H217 0.951 . S
C203 C202 1.402 . S
C203 C204 1.375 . S
C203 C206 1.481 . S
C204 C203 1.375 . S
C204 C205 1.367 . S
C204 H218 0.951 . S
C205 C201 1.383 . S
C205 C204 1.367 . S
C205 H219 0.950 . S
C206 C203 1.481 . S
C206 C207 1.297 . S
C206 H220 0.950 . S
C207 C206 1.297 . S
C207 C208 1.479 . S
C207 H221 0.950 . S
C208 C207 1.479 . S
C208 C209 1.375 . S
C208 C214 1.404 . S
C209 C208 1.375 . S
C209 C210 1.369 . S
C209 H222 0.950 . S
C210 C209 1.369 . S
C210 C211 1.392 . S
C210 H223 0.951 . S
C211 C210 1.392 . S
C211 C213 1.384 . S
H212 C214 0.949 . S
C213 C211 1.384 . S
C213 C214 1.385 . S
C213 H215 0.950 . S
C214 C208 1.404 . S
C214 H212 0.949 . S
C214 C213 1.385 . S
H215 C213 0.950 . S
H216 C200 0.951 . S
H217 C202 0.951 . S
H218 C204 0.951 . S
H219 C205 0.950 . S
H220 C206 0.950 . S
H221 C207 0.950 . S
H222 C209 0.950 . S
H223 C210 0.951 . S
C224 C225 1.386 . S
C224 C226 1.383 . S
C224 H240 0.951 . S
C225 C224 1.386 . S
C225 C229 1.383 . S
C226 C224 1.383 . S
C226 C227 1.402 . S
C226 H241 0.951 . S
C227 C226 1.402 . S
C227 C228 1.375 . S
C227 C230 1.481 . S
C228 C227 1.375 . S
C228 C229 1.367 . S
C228 H242 0.951 . S
C229 C225 1.383 . S
C229 C228 1.367 . S
C229 H243 0.950 . S
C230 C227 1.481 . S
C230 C231 1.297 . S
C230 H244 0.950 . S
C231 C230 1.297 . S
C231 C232 1.479 . S
C231 H245 0.950 . S
C232 C231 1.479 . S
C232 C233 1.375 . S
C232 C238 1.404 . S
C233 C232 1.375 . S
C233 C234 1.369 . S
C233 H246 0.950 . S
C234 C233 1.369 . S
C234 C235 1.392 . S
C234 H247 0.951 . S
C235 C234 1.392 . S
C235 C237 1.384 . S
H236 C238 0.949 . S
C237 C235 1.384 . S
C237 C238 1.385 . S
C237 H239 0.950 . S
C238 C232 1.404 . S
C238 H236 0.949 . S
C238 C237 1.385 . S
H239 C237 0.950 . S
H240 C224 0.951 . S
H241 C226 0.951 . S
H242 C228 0.951 . S
H243 C229 0.950 . S
H244 C230 0.950 . S
H245 C231 0.950 . S
H246 C233 0.950 . S
H247 C234 0.951 . S
C248 C249 1.386 . S
C248 C250 1.383 . S
C248 H264 0.951 . S
C249 C248 1.386 . S
C249 C253 1.383 . S
C250 C248 1.383 . S
C250 C251 1.402 . S
C250 H265 0.951 . S
C251 C250 1.402 . S
C251 C252 1.375 . S
C251 C254 1.481 . S
C252 C251 1.375 . S
C252 C253 1.367 . S
C252 H266 0.951 . S
C253 C249 1.383 . S
C253 C252 1.367 . S
C253 H267 0.950 . S
C254 C251 1.481 . S
C254 C255 1.297 . S
C254 H268 0.950 . S
C255 C254 1.297 . S
C255 C256 1.479 . S
C255 H269 0.950 . S
C256 C255 1.479 . S
C256 C257 1.375 . S
C256 C262 1.404 . S
C257 C256 1.375 . S
C257 C258 1.369 . S
C257 H270 0.950 . S
C258 C257 1.369 . S
C258 C259 1.392 . S
C258 H271 0.951 . S
C259 C258 1.392 . S
C259 C261 1.384 . S
H260 C262 0.949 . S
C261 C259 1.384 . S
C261 C262 1.385 . S
C261 H263 0.950 . S
C262 C256 1.404 . S
C262 H260 0.949 . S
C262 C261 1.385 . S
H263 C261 0.950 . S
H264 C248 0.951 . S
H265 C250 0.951 . S
H266 C252 0.951 . S
H267 C253 0.950 . S
H268 C254 0.950 . S
H269 C255 0.950 . S
H270 C257 0.950 . S
H271 C258 0.951 . S
C272 C273 1.386 . S
C272 C274 1.383 . S
C272 H288 0.951 . S
C273 C272 1.386 . S
C273 C277 1.383 . S
C274 C272 1.383 . S
C274 C275 1.402 . S
C274 H289 0.951 . S
C275 C274 1.402 . S
C275 C276 1.375 . S
C275 C278 1.481 . S
C276 C275 1.375 . S
C276 C277 1.367 . S
C276 H290 0.951 . S
C277 C273 1.383 . S
C277 C276 1.367 . S
C277 H291 0.950 . S
C278 C275 1.481 . S
C278 C279 1.297 . S
C278 H292 0.950 . S
C279 C278 1.297 . S
C279 C280 1.479 . S
C279 H293 0.950 . S
C280 C279 1.479 . S
C280 C281 1.375 . S
C280 C286 1.404 . S
C281 C280 1.375 . S
C281 C282 1.369 . S
C281 H294 0.950 . S
C282 C281 1.369 . S
C282 C283 1.392 . S
C282 H295 0.951 . S
C283 C282 1.392 . S
C283 C285 1.384 . S
H284 C286 0.949 . S
C285 C283 1.384 . S
C285 C286 1.385 . S
C285 H287 0.950 . S
C286 C280 1.404 . S
C286 H284 0.949 . S
C286 C285 1.385 . S
H287 C285 0.950 . S
H288 C272 0.951 . S
H289 C274 0.951 . S
H290 C276 0.951 . S
H291 C277 0.950 . S
H292 C278 0.950 . S
H293 C279 0.950 . S
H294 C281 0.950 . S
H295 C282 0.951 . S
C296 C297 1.386 . S
C296 C298 1.383 . S
C296 H312 0.951 . S
C297 C296 1.386 . S
C297 C301 1.383 . S
C298 C296 1.383 . S
C298 C299 1.402 . S
C298 H313 0.951 1_565 S
C299 C298 1.402 . S
C299 C300 1.375 . S
C299 C302 1.481 . S
C300 C299 1.375 . S
C300 C301 1.367 . S
C300 H314 0.951 . S
C301 C297 1.383 . S
C301 C300 1.367 . S
C301 H315 0.950 . S
C302 C299 1.481 . S
C302 C303 1.297 1_565 S
C302 H316 0.950 . S
C303 C302 1.297 1_545 S
C303 C304 1.479 . S
C303 H317 0.950 . S
C304 C303 1.479 . S
C304 C305 1.375 . S
C304 C310 1.404 . S
C305 C304 1.375 . S
C305 C306 1.369 . S
C305 H318 0.950 . S
C306 C305 1.369 . S
C306 C307 1.392 . S
C306 H319 0.951 . S
C307 C306 1.392 . S
C307 C309 1.384 . S
H308 C310 0.949 1_565 S
C309 C307 1.384 . S
C309 C310 1.385 . S
C309 H311 0.950 . S
C310 C304 1.404 . S
C310 H308 0.949 1_545 S
C310 C309 1.385 . S
H311 C309 0.950 . S
H312 C296 0.951 . S
H313 C298 0.951 1_545 S
H314 C300 0.951 . S
H315 C301 0.950 . S
H316 C302 0.950 . S
H317 C303 0.950 . S
H318 C305 0.950 . S
H319 C306 0.951 . S
C320 C321 1.386 . S
C320 C322 1.383 . S
C320 H336 0.951 . S
C321 C320 1.386 . S
C321 C325 1.383 . S
C322 C320 1.383 . S
C322 C323 1.402 . S
C322 H337 0.951 . S
C323 C322 1.402 . S
C323 C324 1.375 . S
C323 C326 1.481 1_565 S
C324 C323 1.375 . S
C324 C325 1.367 . S
C324 H338 0.951 1_565 S
C325 C321 1.383 . S
C325 C324 1.367 . S
C325 H339 0.950 . S
C326 C323 1.481 1_545 S
C326 C327 1.297 . S
C326 H340 0.950 . S
C327 C326 1.297 . S
C327 C328 1.479 . S
C327 H341 0.950 1_545 S
C328 C327 1.479 . S
C328 C329 1.375 . S
C328 C334 1.404 . S
C329 C328 1.375 . S
C329 C330 1.369 . S
C329 H342 0.950 1_545 S
C330 C329 1.369 . S
C330 C331 1.392 . S
C330 H343 0.951 . S
C331 C330 1.392 . S
C331 C333 1.384 . S
H332 C334 0.949 . S
C333 C331 1.384 . S
C333 C334 1.385 . S
C333 H335 0.950 . S
C334 C328 1.404 . S
C334 H332 0.949 . S
C334 C333 1.385 . S
H335 C333 0.950 . S
H336 C320 0.951 . S
H337 C322 0.951 . S
H338 C324 0.951 1_545 S
H339 C325 0.950 . S
H340 C326 0.950 . S
H341 C327 0.950 1_565 S
H342 C329 0.950 1_565 S
H343 C330 0.951 . S
C344 C345 1.386 . S
C344 C346 1.383 . S
C344 H360 0.951 . S
C345 C344 1.386 . S
C345 C349 1.383 . S
C346 C344 1.383 . S
C346 C347 1.402 . S
C346 H361 0.951 . S
C347 C346 1.402 . S
C347 C348 1.377 . S
C347 C350 1.481 1_565 S
C348 C347 1.377 . S
C348 C349 1.369 . S
C348 H362 0.947 1_565 S
C349 C345 1.383 . S
C349 C348 1.369 . S
C349 H363 0.950 . S
C350 C347 1.481 1_545 S
C350 C351 1.297 1_545 S
C350 H364 0.950 . S
C351 C350 1.297 1_565 S
C351 C352 1.479 1_565 S
C351 H365 0.950 . S
C352 C351 1.479 1_545 S
C352 C353 1.375 . S
C352 C358 1.404 . S
C353 C352 1.375 . S
C353 C354 1.369 . S
C353 H366 0.950 1_545 S
C354 C353 1.369 . S
C354 C355 1.392 . S
C354 H367 0.951 . S
C355 C354 1.392 . S
C355 C357 1.384 . S
H356 C358 0.949 . S
C357 C355 1.384 . S
C357 C358 1.385 . S
C357 H359 0.950 . S
C358 C352 1.404 . S
C358 H356 0.949 . S
C358 C357 1.385 . S
H359 C357 0.950 . S
H360 C344 0.951 . S
H361 C346 0.951 . S
H362 C348 0.947 1_545 S
H363 C349 0.950 . S
H364 C350 0.950 . S
H365 C351 0.950 . S
H366 C353 0.950 1_565 S
H367 C354 0.951 . S
C368 C369 1.386 . S
C368 C370 1.383 . S
C368 H384 0.951 . S
C369 C368 1.386 . S
C369 C373 1.383 . S
C370 C368 1.383 . S
C370 C371 1.402 . S
C370 H385 0.951 . S
C371 C370 1.402 . S
C371 C372 1.375 . S
C371 C374 1.488 . S
C372 C371 1.375 . S
C372 C373 1.367 . S
C372 H386 0.951 . S
C373 C369 1.383 . S
C373 C372 1.367 . S
C373 H387 0.950 . S
C374 C371 1.488 . S
C374 C375 1.287 1_565 S
C374 H388 0.952 . S
C375 C374 1.287 1_545 S
C375 C376 1.479 . S
C375 H389 0.950 . S
C376 C375 1.479 . S
C376 C377 1.375 . S
C376 C382 1.404 . S
C377 C376 1.375 . S
C377 C378 1.369 . S
C377 H390 0.950 . S
C378 C377 1.369 . S
C378 C379 1.392 . S
C378 H391 0.951 . S
C379 C378 1.392 . S
C379 C381 1.384 . S
H380 C382 0.949 . S
C381 C379 1.384 . S
C381 C382 1.385 . S
C381 H383 0.950 . S
C382 C376 1.404 . S
C382 H380 0.949 . S
C382 C381 1.385 . S
H383 C381 0.950 . S
H384 C368 0.951 . S
H385 C370 0.951 . S
H386 C372 0.951 . S
H387 C373 0.950 . S
H388 C374 0.952 . S
H389 C375 0.950 . S
H390 C377 0.950 . S
H391 C378 0.951 . S
C392 C393 1.386 1_556 S
C392 C394 1.384 . S
C392 H408 0.951 . S
C393 C392 1.386 1_554 S
C393 C397 1.383 . S
C394 C392 1.384 . S
C394 C395 1.396 1_556 S
C394 H409 0.955 . S
C395 C394 1.396 1_554 S
C395 C396 1.375 . S
C395 C398 1.481 . S
C396 C395 1.375 . S
C396 C397 1.367 . S
C396 H410 0.951 . S
C397 C393 1.383 . S
C397 C396 1.367 . S
C397 H411 0.950 . S
C398 C395 1.481 . S
C398 C399 1.297 1_565 S
C398 H412 0.950 . S
C399 C398 1.297 1_545 S
C399 C400 1.479 . S
C399 H413 0.950 . S
C400 C399 1.479 . S
C400 C401 1.375 1_554 S
C400 C406 1.404 . S
C401 C400 1.375 1_556 S
C401 C402 1.369 . S
C401 H414 0.950 . S
C402 C401 1.369 . S
C402 C403 1.392 1_556 S
C402 H415 0.951 . S
C403 C402 1.392 1_554 S
C403 C405 1.384 . S
H404 C406 0.949 . S
C405 C403 1.384 . S
C405 C406 1.385 . S
C405 H407 0.950 . S
C406 C400 1.404 . S
C406 H404 0.949 . S
C406 C405 1.385 . S
H407 C405 0.950 . S
H408 C392 0.951 . S
H409 C394 0.955 . S
H410 C396 0.951 . S
H411 C397 0.950 . S
H412 C398 0.950 . S
H413 C399 0.950 . S
H414 C401 0.950 . S
H415 C402 0.951 . S
C416 C417 1.386 . S
C416 C418 1.383 . S
C416 H432 0.951 . S
C417 C416 1.386 . S
C417 C421 1.383 . S
C418 C416 1.383 . S
C418 C419 1.402 . S
C418 H433 0.951 . S
C419 C418 1.402 . S
C419 C420 1.375 . S
C419 C422 1.481 . S
C420 C419 1.375 . S
C420 C421 1.367 . S
C420 H434 0.951 . S
C421 C417 1.383 . S
C421 C420 1.367 . S
C421 H435 0.950 . S
C422 C419 1.481 . S
C422 C423 1.297 . S
C422 H436 0.950 1_565 S
C423 C422 1.297 . S
C423 C424 1.479 1_565 S
C423 H437 0.950 . S
C424 C423 1.479 1_545 S
C424 C425 1.375 . S
C424 C430 1.404 . S
C425 C424 1.375 . S
C425 C426 1.369 . S
C425 H438 0.950 . S
C426 C425 1.369 . S
C426 C427 1.392 . S
C426 H439 0.951 . S
C427 C426 1.392 . S
C427 C429 1.384 . S
H428 C430 0.949 . S
C429 C427 1.384 . S
C429 C430 1.385 . S
C429 H431 0.950 . S
C430 C424 1.404 . S
C430 H428 0.949 . S
C430 C429 1.385 . S
H431 C429 0.950 . S
H432 C416 0.951 . S
H433 C418 0.951 . S
H434 C420 0.951 . S
H435 C421 0.950 . S
H436 C422 0.950 1_545 S
H437 C423 0.950 . S
H438 C425 0.950 . S
H439 C426 0.951 . S
C440 C441 1.386 1_556 S
C440 C442 1.383 . S
C440 H456 0.951 . S
C441 C440 1.386 1_554 S
C441 C445 1.383 . S
C442 C440 1.383 . S
C442 C443 1.402 1_556 S
C442 H457 0.951 . S
C443 C442 1.402 1_554 S
C443 C444 1.375 . S
C443 C446 1.481 . S
C444 C443 1.375 . S
C444 C445 1.367 . S
C444 H458 0.951 . S
C445 C441 1.383 . S
C445 C444 1.367 . S
C445 H459 0.950 . S
C446 C443 1.481 . S
C446 C447 1.297 . S
C446 H460 0.950 . S
C447 C446 1.297 . S
C447 C448 1.479 1_455 S
C447 H461 0.950 1_554 S
C448 C447 1.479 1_655 S
C448 C449 1.375 1_554 S
C448 C454 1.404 . S
C449 C448 1.375 1_556 S
C449 C450 1.369 . S
C449 H462 0.950 . S
C450 C449 1.369 . S
C450 C451 1.392 1_556 S
C450 H463 0.951 . S
C451 C450 1.392 1_554 S
C451 C453 1.384 . S
H452 C454 0.949 . S
C453 C451 1.384 . S
C453 C454 1.385 . S
C453 H455 0.950 . S
C454 C448 1.404 . S
C454 H452 0.949 . S
C454 C453 1.385 . S
H455 C453 0.950 . S
H456 C440 0.951 . S
H457 C442 0.951 . S
H458 C444 0.951 . S
H459 C445 0.950 . S
H460 C446 0.950 . S
H461 C447 0.950 1_556 S
H462 C449 0.950 . S
H463 C450 0.951 . S
C464 C465 1.386 . S
C464 C466 1.383 . S
C464 H480 0.951 . S
C465 C464 1.386 . S
C465 C469 1.383 . S
C466 C464 1.383 . S
C466 C467 1.402 . S
C466 H481 0.951 . S
C467 C466 1.402 . S
C467 C468 1.375 . S
C467 C470 1.481 1_455 S
C468 C467 1.375 . S
C468 C469 1.367 . S
C468 H482 0.951 1_455 S
C469 C465 1.383 . S
C469 C468 1.367 . S
C469 H483 0.950 . S
C470 C467 1.481 1_655 S
C470 C471 1.297 1_655 S
C470 H484 0.950 . S
C471 C470 1.297 1_455 S
C471 C472 1.479 1_455 S
C471 H485 0.950 . S
C472 C471 1.479 1_655 S
C472 C473 1.375 . S
C472 C478 1.404 . S
C473 C472 1.375 . S
C473 C474 1.369 . S
C473 H486 0.950 1_655 S
C474 C473 1.369 . S
C474 C475 1.392 . S
C474 H487 0.951 . S
C475 C474 1.392 . S
C475 C477 1.384 . S
H476 C478 0.949 . S
C477 C475 1.384 . S
C477 C478 1.385 . S
C477 H479 0.950 . S
C478 C472 1.404 . S
C478 H476 0.949 . S
C478 C477 1.385 . S
H479 C477 0.950 . S
H480 C464 0.951 . S
H481 C466 0.951 . S
H482 C468 0.951 1_655 S
H483 C469 0.950 . S
H484 C470 0.950 . S
H485 C471 0.950 . S
H486 C473 0.950 1_455 S
H487 C474 0.951 . S
C105 C70 1.453 . S
C115 C5 1.489 . S
C129 C57 1.461 . S
C139 C18 1.424 . S
C153 C96 1.478 . S
C163 C31 1.425 . S
C177 C83 1.460 . S
C187 C44 1.498 . S
C201 C8 1.275 . S
C211 C34 1.322 . S
C225 C21 1.320 . S
C235 C47 1.271 . S
C249 C23 1.316 . S
C259 C49 1.339 . S
C273 C10 1.316 . S
C283 C36 1.337 . S
C297 C60 1.308 . S
C307 C86 1.344 . S
C321 C99 1.290 . S
C331 C73 1.231 . S
C345 C101 1.322 . S
C355 C75 1.326 . S
C369 C62 1.319 . S
C379 C88 1.335 . S
C393 C13 1.512 . S
C403 C0 1.496 . S
C417 C26 1.473 . S
C427 C39 1.467 . S
C441 C52 1.509 . S
C451 C65 1.472 . S
C465 C78 1.507 . S
C475 C91 1.512 . S
