# Generated by pormake.
# Topology uoc, (4)-cn, num edge types: 1
# Building blocks:
#     Node 0, Type 0, BuildingBlock: ESEHIV_clean_sbu_0, # of connection points: 4
#     Node 1, Type 0, BuildingBlock: ESEHIV_clean_sbu_0, # of connection points: 4
#     Node 2, Type 0, BuildingBlock: ESEHIV_clean_sbu_0, # of connection points: 4
#     Node 3, Type 0, BuildingBlock: ESEHIV_clean_sbu_0, # of connection points: 4
#     Node 4, Type 0, BuildingBlock: ESEHIV_clean_sbu_0, # of connection points: 4
#     Node 5, Type 0, BuildingBlock: ESEHIV_clean_sbu_0, # of connection points: 4
#     Node 6, Type 0, BuildingBlock: ESEHIV_clean_sbu_0, # of connection points: 4
#     Node 7, Type 0, BuildingBlock: ESEHIV_clean_sbu_0, # of connection points: 4
#     Edge 8, Type (0, 0), BuildingBlock: CIFDUS_clean_linker_0, # of connection points: 2
#     Edge 9, Type (0, 0), BuildingBlock: CIFDUS_clean_linker_0, # of connection points: 2
#     Edge 10, Type (0, 0), BuildingBlock: CIFDUS_clean_linker_0, # of connection points: 2
#     Edge 11, Type (0, 0), BuildingBlock: CIFDUS_clean_linker_0, # of connection points: 2
#     Edge 12, Type (0, 0), BuildingBlock: CIFDUS_clean_linker_0, # of connection points: 2
#     Edge 13, Type (0, 0), BuildingBlock: CIFDUS_clean_linker_0, # of connection points: 2
#     Edge 14, Type (0, 0), BuildingBlock: CIFDUS_clean_linker_0, # of connection points: 2
#     Edge 15, Type (0, 0), BuildingBlock: CIFDUS_clean_linker_0, # of connection points: 2
#     Edge 16, Type (0, 0), BuildingBlock: CIFDUS_clean_linker_0, # of connection points: 2
#     Edge 17, Type (0, 0), BuildingBlock: CIFDUS_clean_linker_0, # of connection points: 2
#     Edge 18, Type (0, 0), BuildingBlock: CIFDUS_clean_linker_0, # of connection points: 2
#     Edge 19, Type (0, 0), BuildingBlock: CIFDUS_clean_linker_0, # of connection points: 2
#     Edge 20, Type (0, 0), BuildingBlock: CIFDUS_clean_linker_0, # of connection points: 2
#     Edge 21, Type (0, 0), BuildingBlock: CIFDUS_clean_linker_0, # of connection points: 2
#     Edge 22, Type (0, 0), BuildingBlock: CIFDUS_clean_linker_0, # of connection points: 2
#     Edge 23, Type (0, 0), BuildingBlock: CIFDUS_clean_linker_0, # of connection points: 2
# Relax obj value: 0.058
# Max RMSD: 0.269
# Mean RMSD: 0.269
data_MOF--net-uoc--node1-ESEHIV_clean_sbu_0--edge1-CIFDUS_clean_linker_0
_symmetry_space_group_name_H-M    P1
_symmetry_Int_Tables_number       1
_symmetry_cell_setting            triclinic
loop_
_symmetry_equiv_pos_as_xyz
'x, y, z'
_cell_length_a     30.089085
_cell_length_b     30.074239
_cell_length_c     44.242557
_cell_angle_alpha  89.984737
_cell_angle_beta   90.395759
_cell_angle_gamma 91.835273
loop_
_atom_site_label
_atom_site_type_symbol
_atom_site_fract_x
_atom_site_fract_y
_atom_site_fract_z
_atom_type_partial_charge
Cu0 Cu 0.07787 0.25779 0.15635 0.0
N1 N 0.04021 0.20758 0.15656 0.0
N2 N 0.01775 0.13617 0.15813 0.0
C3 C 0.05264 0.16512 0.15512 0.0
C4 C 0.98192 0.16158 0.1615 0.0
C5 C 0.99593 0.20563 0.16063 0.0
O6 O 0.11707 0.25457 0.12193 0.0
C7 C 0.14117 0.28542 0.2019 0.0
O8 O 0.1603 0.30954 0.18059 0.0
H9 H 0.08673 0.15571 0.15243 0.0
H10 H 0.97548 0.23416 0.16374 0.0
N11 N 0.04415 0.30788 0.15104 0.0
N12 N 0.0218 0.37783 0.15334 0.0
C13 C 0.05037 0.3479 0.16424 0.0
C14 C 0.01071 0.31251 0.1311 0.0
C15 C 0.99671 0.35556 0.13254 0.0
C16 C 0.14854 0.22775 0.11894 0.0
O17 O 0.1592 0.20195 0.14164 0.0
H18 H 0.07578 0.35497 0.18114 0.0
H19 H 0.99828 0.28666 0.11598 0.0
O20 O 0.10736 0.26081 0.19538 0.0
H21 H 0.94829 0.14933 0.16559 0.0
H22 H 0.9713 0.36976 0.11843 0.0
Cu23 Cu 0.76056 0.58286 0.43104 0.0
N24 N 0.71032 0.54519 0.43091 0.0
N25 N 0.63886 0.52298 0.4284 0.0
C26 C 0.66792 0.55797 0.43067 0.0
C27 C 0.66415 0.48673 0.4272 0.0
C28 C 0.70821 0.50057 0.42864 0.0
O29 O 0.75808 0.62146 0.46604 0.0
C30 C 0.78722 0.64545 0.38479 0.0
O31 O 0.81295 0.6646 0.40542 0.0
H32 H 0.65868 0.59234 0.43167 0.0
H33 H 0.73668 0.47965 0.42717 0.0
N34 N 0.81084 0.54916 0.43579 0.0
N35 N 0.88077 0.52692 0.43295 0.0
C36 C 0.85031 0.5549 0.42198 0.0
C37 C 0.8164 0.51668 0.45621 0.0
C38 C 0.85941 0.50273 0.45444 0.0
C39 C 0.73074 0.65222 0.47009 0.0
O40 O 0.70401 0.66326 0.44792 0.0
H41 H 0.85667 0.57966 0.40467 0.0
H42 H 0.79128 0.505 0.47195 0.0
O43 O 0.7623 0.6123 0.39205 0.0
H44 H 0.65185 0.45278 0.42427 0.0
H45 H 0.87426 0.4781 0.46883 0.0
Cu46 Cu 0.42506 0.25371 0.6604 0.0
N47 N 0.45856 0.30407 0.67246 0.0
N48 N 0.48095 0.37484 0.67981 0.0
C49 C 0.44817 0.34707 0.66927 0.0
C50 C 0.51298 0.34817 0.69008 0.0
C51 C 0.49907 0.30462 0.68554 0.0
O52 O 0.40242 0.26295 0.61983 0.0
C53 C 0.38586 0.24297 0.71749 0.0
O54 O 0.42443 0.25985 0.72665 0.0
H55 H 0.41756 0.3577 0.65897 0.0
H56 H 0.51717 0.27534 0.69144 0.0
N57 N 0.46172 0.20513 0.65859 0.0
N58 N 0.48414 0.13506 0.66093 0.0
C59 C 0.45153 0.16331 0.66756 0.0
C60 C 0.50204 0.20354 0.64584 0.0
C61 C 0.51605 0.16042 0.64732 0.0
C62 C 0.3669 0.28271 0.61327 0.0
O63 O 0.3422 0.29784 0.63513 0.0
H64 H 0.42047 0.15386 0.67834 0.0
H65 H 0.51944 0.23157 0.63546 0.0
O66 O 0.37827 0.23923 0.68923 0.0
H67 H 0.54399 0.35927 0.70055 0.0
H68 H 0.5466 0.1485 0.63798 0.0
Cu69 Cu 0.7553 0.92301 0.92121 0.0
N70 N 0.806 0.95839 0.91312 0.0
N71 N 0.87688 0.98156 0.90792 0.0
C72 C 0.84892 0.94761 0.91612 0.0
C73 C 0.85037 0.01477 0.89941 0.0
C74 C 0.80681 1.0004 0.90263 0.0
O75 O 0.76161 0.89601 0.96077 0.0
C76 C 0.75055 0.89245 0.86145 0.0
O77 O 0.76815 0.93224 0.85634 0.0
H78 H 0.85932 0.91565 0.9243 0.0
H79 H 0.77767 0.01905 0.89721 0.0
N80 N 0.70659 0.95931 0.92384 0.0
N81 N 0.63655 0.98173 0.92226 0.0
C82 C 0.66485 0.94985 0.9142 0.0
C83 C 0.70483 0.9983 0.93854 0.0
C84 C 0.66175 0.01233 0.93751 0.0
C85 C 0.78392 0.8621 0.96734 0.0
O86 O 0.80422 0.84083 0.94578 0.0
H87 H 0.65543 0.91973 0.90206 0.0
H88 H 0.73267 0.0146 0.95007 0.0
O89 O 0.74344 0.88041 0.88866 0.0
H90 H 0.86156 0.04684 0.89075 0.0
H91 H 0.64967 0.04179 0.94836 0.0
Cu92 Cu 0.58218 0.75831 0.67604 0.0
N93 N 0.54934 0.70676 0.68586 0.0
N94 N 0.52686 0.63533 0.68869 0.0
C95 C 0.55784 0.66467 0.67791 0.0
C96 C 0.49789 0.66005 0.70402 0.0
C97 C 0.51191 0.70403 0.70229 0.0
O98 O 0.60824 0.75132 0.6364 0.0
C99 C 0.65824 0.79844 0.7041 0.0
O100 O 0.66501 0.81566 0.67716 0.0
H101 H 0.58592 0.65586 0.66424 0.0
H102 H 0.49604 0.73212 0.71239 0.0
N103 N 0.54426 0.80594 0.67326 0.0
N104 N 0.52117 0.87584 0.67128 0.0
C105 C 0.5551 0.84912 0.67812 0.0
C106 C 0.50205 0.80508 0.66307 0.0
C107 C 0.48765 0.84809 0.6619 0.0
C108 C 0.64348 0.73077 0.63068 0.0
O109 O 0.66597 0.71315 0.65299 0.0
H110 H 0.58754 0.86064 0.686 0.0
H111 H 0.48361 0.77538 0.65599 0.0
O112 O 0.62543 0.77136 0.70789 0.0
H113 H 0.4691 0.64722 0.71613 0.0
H114 H 0.45564 0.85814 0.65351 0.0
Cu115 Cu 0.26042 0.08049 0.91427 0.0
N116 N 0.20874 0.04877 0.90277 0.0
N117 N 0.13722 0.02692 0.89915 0.0
C118 C 0.16667 0.05776 0.91023 0.0
C119 C 0.16187 0.9975 0.88414 0.0
C120 C 0.20592 0.01105 0.88645 0.0
O121 O 0.25255 0.10374 0.95464 0.0
C122 C 0.26823 0.12291 0.85727 0.0
O123 O 0.24618 0.08727 0.84757 0.0
H124 H 0.15805 0.08586 0.92404 0.0
H125 H 0.23401 0.99455 0.87693 0.0
N126 N 0.30766 0.04225 0.91607 0.0
N127 N 0.37748 0.01913 0.91643 0.0
C128 C 0.35056 0.05336 0.91088 0.0
C129 C 0.30712 0.9996 0.92519 0.0
C130 C 0.35014 0.98517 0.92535 0.0
C131 C 0.23491 0.14062 0.96034 0.0
O132 O 0.22169 0.16559 0.93784 0.0
H133 H 0.36168 0.0862 0.90363 0.0
H134 H 0.27767 0.9808 0.93211 0.0
O135 O 0.27602 0.12728 0.88547 0.0
H136 H 0.14904 0.96853 0.87204 0.0
H137 H 0.36052 0.95277 0.9327 0.0
Cu138 Cu 0.92287 0.75331 0.17494 0.0
N139 N 0.95809 0.80503 0.17783 0.0
N140 N 0.9812 0.87603 0.17393 0.0
C141 C 0.95245 0.84402 0.16363 0.0
C142 C 1.00596 0.85615 0.19529 0.0
C143 C 0.99149 0.81246 0.19771 0.0
O144 O 0.88833 0.75439 0.13774 0.0
C145 C 0.85854 0.72155 0.21882 0.0
O146 O 0.84388 0.69308 0.19827 0.0
H147 H 0.9271 0.84904 0.14665 0.0
H148 H 1.00324 0.78818 0.21367 0.0
N149 N 0.9599 0.70507 0.17289 0.0
N150 N 0.9825 0.63522 0.16995 0.0
C151 C 0.94753 0.66172 0.17364 0.0
C152 C 1.00411 0.70618 0.16847 0.0
C153 C 0.01818 0.66316 0.16675 0.0
C154 C 0.85812 0.78169 0.1317 0.0
O155 O 0.84544 0.80922 0.15278 0.0
H156 H 0.9135 0.64995 0.17651 0.0
H157 H 0.02452 0.73615 0.16587 0.0
O158 O 0.88925 0.74976 0.21213 0.0
H159 H 0.03116 0.87249 0.20931 0.0
H160 H 0.05182 0.65335 0.16235 0.0
Cu161 Cu 0.25595 0.4291 0.4088 0.0
N162 N 0.30773 0.46414 0.40581 0.0
N163 N 0.37877 0.48719 0.40997 0.0
C164 C 0.34649 0.45921 0.42058 0.0
C165 C 0.35925 0.51077 0.38785 0.0
C166 C 0.31554 0.49636 0.38528 0.0
O167 O 0.25791 0.39374 0.44543 0.0
C168 C 0.22329 0.36394 0.3657 0.0
O169 O 0.19634 0.34924 0.38697 0.0
H170 H 0.35115 0.43487 0.43819 0.0
H171 H 0.29151 0.50726 0.36879 0.0
N172 N 0.20775 0.46609 0.41143 0.0
N173 N 0.13794 0.48852 0.41501 0.0
C174 C 0.16446 0.45348 0.4116 0.0
C175 C 0.20882 0.51053 0.41494 0.0
C176 C 0.16582 0.5245 0.41708 0.0
C177 C 0.28585 0.3638 0.4506 0.0
O178 O 0.31335 0.35269 0.42913 0.0
H179 H 0.15277 0.41925 0.40943 0.0
H180 H 0.23879 0.53124 0.41649 0.0
O181 O 0.25117 0.39542 0.37157 0.0
H182 H 0.37584 0.53506 0.37342 0.0
H183 H 0.15601 0.55834 0.42087 0.0
H184 H 0.20091 0.16083 0.10028 0.0
H185 H 0.1392 0.28026 0.06913 0.0
H186 H 0.16267 0.2652 1.0176 0.0
H187 H 0.19576 0.21533 0.98069 0.0
H188 H 0.25604 0.09501 1.01163 0.0
H189 H 0.23821 0.11335 0.06376 0.0
C190 C 0.19315 0.18392 0.08232 0.0
C191 C 0.16807 0.22146 0.08861 0.0
C192 C 0.20611 0.17469 0.05255 0.0
C193 C 0.15824 0.25094 0.06496 0.0
C194 C 0.17155 0.24232 1.03542 0.0
C195 C 0.20531 0.19326 0.99883 0.0
C196 C 0.22688 0.15367 0.99213 0.0
C197 C 0.19466 0.2038 1.02883 0.0
C198 C 0.23918 0.1256 1.01603 0.0
C199 C 0.22899 0.13604 0.04591 0.0
H200 H 0.83643 0.71429 0.36049 0.0
H201 H 0.74599 0.60557 0.33623 0.0
H202 H 0.75747 0.62142 0.28279 0.0
H203 H 0.7975 0.66246 0.24275 0.0
H204 H 0.88777 0.77132 0.26705 0.0
H205 H 0.87165 0.75929 0.32035 0.0
C206 C 0.81889 0.69432 0.34354 0.0
C207 C 0.79077 0.65851 0.3525 0.0
C208 C 0.82573 0.70348 0.3127 0.0
C209 C 0.76805 0.63323 0.33011 0.0
C210 C 0.77464 0.64219 0.29945 0.0
C211 C 0.81326 0.6839 0.25966 0.0
C212 C 0.84415 0.71742 0.25078 0.0
C213 C 0.80407 0.67668 0.29045 0.0
C214 C 0.86403 0.74503 0.27311 0.0
C215 C 0.85494 0.73814 0.3037 0.0
H216 H 0.29474 0.32486 0.59074 0.0
H217 H 0.41267 0.25787 0.56326 0.0
H218 H 0.39627 0.27414 0.51045 0.0
H219 H 0.35093 0.31103 0.47216 0.0
H220 H 0.23356 0.37894 0.49957 0.0
H221 H 0.24708 0.35824 0.55207 0.0
C222 C 0.31673 0.31357 0.57321 0.0
C223 C 0.35506 0.29045 0.5811 0.0
C224 C 0.30725 0.32322 0.54276 0.0
C225 C 0.38302 0.27593 0.55797 0.0
C226 C 0.37369 0.28521 0.52768 0.0
C227 C 0.32798 0.32087 0.48953 0.0
C228 C 0.29142 0.34671 0.48184 0.0
C229 C 0.33623 0.30934 0.51982 0.0
C230 C 0.26209 0.35917 0.50477 0.0
C231 C 0.26985 0.34745 0.53488 0.0
H232 H 0.77109 0.9041 0.8024 0.0
H233 H 0.69414 0.81889 0.86216 0.0
H234 H 0.66115 0.77973 0.81857 0.0
H235 H 0.64955 0.77412 0.76341 0.0
H236 H 0.72644 0.86039 0.70414 0.0
H237 H 0.7642 0.89441 0.74764 0.0
C238 C 0.74741 0.87668 0.80596 0.0
C239 C 0.73479 0.86477 0.83553 0.0
C240 C 0.72833 0.85464 0.78084 0.0
C241 C 0.70443 0.82881 0.83967 0.0
C242 C 0.68539 0.80653 0.81473 0.0
C243 C 0.67493 0.80001 0.75997 0.0
C244 C 0.68474 0.81494 0.73046 0.0
C245 C 0.69638 0.81981 0.78519 0.0
C246 C 0.71794 0.84836 0.72651 0.0
C247 C 0.73955 0.86796 0.75141 0.0
H248 H 0.16335 0.30193 0.34345 0.0
H249 H 0.27103 0.39133 0.31646 0.0
H250 H 0.25706 0.37282 0.26358 0.0
H251 H 0.21075 0.3357 0.2246 0.0
H252 H 0.10296 0.24641 0.25151 0.0
H253 H 0.12079 0.26023 0.30456 0.0
C254 C 0.1841 0.31699 0.32605 0.0
C255 C 0.21788 0.34831 0.33403 0.0
C256 C 0.17572 0.30646 0.29552 0.0
C257 C 0.24458 0.3673 0.31108 0.0
C258 C 0.23658 0.35682 0.28074 0.0
C259 C 0.19141 0.31891 0.24204 0.0
C260 C 0.1553 0.29042 0.23396 0.0
C261 C 0.20166 0.32716 0.27263 0.0
C262 C 0.13082 0.26873 0.25696 0.0
C263 C 0.14092 0.27666 0.2874 0.0
H264 H 0.717 0.68994 0.60987 0.0
H265 H 0.60037 0.75765 0.57963 0.0
H266 H 0.61915 0.74279 0.52718 0.0
H267 H 0.66569 0.70604 0.48991 0.0
H268 H 0.78184 0.63756 0.52015 0.0
H269 H 0.76649 0.65778 0.57232 0.0
C270 C 0.69584 0.70174 0.59182 0.0
C271 C 0.6571 0.7245 0.59882 0.0
C272 C 0.7067 0.69292 0.56157 0.0
C273 C 0.63029 0.73981 0.57503 0.0
C274 C 0.64097 0.73132 0.54494 0.0
C275 C 0.68803 0.69606 0.50783 0.0
C276 C 0.72466 0.67 0.50103 0.0
C277 C 0.67869 0.70727 0.53794 0.0
C278 C 0.75322 0.65742 0.52465 0.0
C279 C 0.74441 0.66885 0.55458 0.0
H280 H 0.38859 0.2525 0.77856 0.0
H281 H 0.31283 0.18852 0.70669 0.0
H282 H 0.26731 0.14826 0.74385 0.0
H283 H 0.25342 0.12636 0.79657 0.0
H284 H 0.32951 0.19018 0.86838 0.0
H285 H 0.37016 0.23562 0.8314 0.0
C286 C 0.36182 0.23011 0.77099 0.0
C287 C 0.35449 0.22322 0.73985 0.0
C288 C 0.33597 0.20682 0.79248 0.0
C289 C 0.31932 0.19443 0.73049 0.0
C290 C 0.29337 0.17122 0.75174 0.0
C291 C 0.27857 0.15054 0.80419 0.0
C292 C 0.28869 0.15445 0.83523 0.0
C293 C 0.30207 0.1764 0.78277 0.0
C294 C 0.32108 0.18631 0.84467 0.0
C295 C 0.3445 0.21223 0.82351 0.0
H296 H 0.8016 0.84278 0.10907 0.0
H297 H 0.88071 0.73223 0.08261 0.0
H298 H 0.86306 0.74584 1.0296 0.0
H299 H 0.82938 0.79228 0.99035 0.0
H300 H 0.75065 0.90306 1.01699 0.0
H301 H 0.76384 0.88602 0.07006 0.0
C302 C 0.81457 0.8213 0.09177 0.0
C303 C 0.84271 0.78674 0.09994 0.0
C304 C 0.80466 0.82955 0.06119 0.0
C305 C 0.8591 0.75923 0.07709 0.0
C306 C 0.84913 0.76705 0.04668 0.0
C307 C 0.81482 0.8125 1.00774 0.0
C308 C 0.78938 0.84913 0.99954 0.0
C309 C 0.82265 0.80264 1.0384 0.0
C310 C 0.77058 0.87478 1.0225 0.0
C311 C 0.77811 0.8651 0.05296 0.0
H312 H 0.95094 0.07707 0.1454 0.0
H313 H 0.08778 0.0872 0.17527 0.0
H314 H 0.08932 0.00677 0.18058 0.0
H315 H 0.05094 0.93384 0.17918 0.0
H316 H 0.91297 0.92378 0.15198 0.0
H317 H 0.91293 1.00369 0.14296 0.0
C318 C 0.98103 0.06174 0.1532 0.0
C319 C 0.01907 0.08837 0.16 0.0
C320 C 0.98155 0.01538 0.15667 0.0
C321 C 0.05809 0.06773 0.16951 0.0
C322 C 0.05896 0.02164 0.17278 0.0
C323 C 0.0208 0.9491 0.1714 0.0
C324 C 0.98201 0.92272 0.16649 0.0
C325 C 0.02073 0.99522 0.16679 0.0
C326 C 0.94349 0.94302 0.15571 0.0
C327 C 0.9433 0.98887 0.15077 0.0
H328 H 0.0829 0.55512 0.4022 0.0
H329 H 0.08499 0.41949 0.43399 0.0
H330 H 1.00466 0.41866 0.44051 0.0
H331 H 0.93425 0.45733 0.43927 0.0
H332 H 0.93257 0.5941 0.40984 0.0
H333 H 0.01217 0.59343 0.40015 0.0
C334 C 0.06588 0.52546 0.41073 0.0
C335 C 0.09018 0.48754 0.41771 0.0
C336 C 0.01966 0.52536 0.41483 0.0
C337 C 0.06728 0.44905 0.42812 0.0
C338 C 0.02128 0.44861 0.43206 0.0
C339 C 0.95128 0.48708 0.43089 0.0
C340 C 0.92732 0.52574 0.42551 0.0
C341 C 0.99723 0.48673 0.42582 0.0
C342 C 0.94988 0.5637 0.41396 0.0
C343 C 0.99557 0.56348 0.40861 0.0
H344 H 0.55326 0.42984 0.67695 0.0
H345 H 0.41031 0.4281 0.68376 0.0
H346 H 0.41178 0.50931 0.68638 0.0
H347 H 0.45395 0.58074 0.68799 0.0
H348 H 0.59698 0.58215 0.68175 0.0
H349 H 0.59524 0.50118 0.67759 0.0
C350 C 0.52245 0.44719 0.67921 0.0
C351 C 0.48175 0.42283 0.68035 0.0
C352 C 0.52357 0.49386 0.68078 0.0
C353 C 0.44204 0.44597 0.68261 0.0
C354 C 0.44289 0.49242 0.68428 0.0
C355 C 0.48474 0.56332 0.68591 0.0
C356 C 0.52555 0.58757 0.68533 0.0
C357 C 0.48349 0.51669 0.6836 0.0
C358 C 0.5651 0.56446 0.68199 0.0
C359 C 0.56415 0.51809 0.67978 0.0
H360 H 0.58423 0.05287 0.92152 0.0
H361 H 0.58098 0.90977 0.91351 0.0
H362 H 0.50019 0.90903 0.90928 0.0
H363 H 0.43014 0.94867 0.91015 0.0
H364 H 0.43359 0.09143 0.92093 0.0
H365 H 0.51444 0.09251 0.9217 0.0
C366 C 0.56593 0.02146 0.91904 0.0
C367 C 0.58891 0.98147 0.91805 0.0
C368 C 0.51935 0.02116 0.91712 0.0
C369 C 0.56448 0.94117 0.91408 0.0
C370 C 0.51811 0.94066 0.91188 0.0
C371 C 0.44848 0.98001 0.91284 0.0
C372 C 0.42547 0.01983 0.91558 0.0
C373 C 0.49517 0.9804 0.91376 0.0
C374 C 0.45008 0.06023 0.91842 0.0
C375 C 0.49648 0.06091 0.91909 0.0
H376 H 0.05 0.58099 0.18204 0.0
H377 H 0.91284 0.58125 0.15283 0.0
H378 H 0.91226 0.50072 0.14691 0.0
H379 H 0.95154 0.43062 0.14786 0.0
H380 H 0.08972 0.43076 0.17469 0.0
H381 H 0.08893 0.51062 0.18385 0.0
C382 C 0.02005 0.56352 0.17422 0.0
C383 C 0.98164 0.58736 0.16776 0.0
C384 C 0.02009 0.5172 0.17043 0.0
C385 C 0.94281 0.56391 0.15827 0.0
C386 C 0.9425 0.51779 0.15467 0.0
C387 C 0.98156 0.4481 0.15555 0.0
C388 C 0.02065 0.42459 0.16037 0.0
C389 C 0.9811 0.49419 0.16034 0.0
C390 C 0.059 0.44775 0.17103 0.0
C391 C 0.05869 0.49357 0.17608 0.0
H392 H 0.43739 0.55591 0.403 0.0
H393 H 0.42561 0.42034 0.43475 0.0
H394 H 0.50528 0.42038 0.44484 0.0
H395 H 0.57895 0.45762 0.44229 0.0
H396 H 0.59087 0.59173 0.40778 0.0
H397 H 0.51065 0.59344 0.40117 0.0
C398 C 0.4522 0.52628 0.41199 0.0
C399 C 0.42536 0.48817 0.41789 0.0
C400 C 0.49821 0.52618 0.4172 0.0
C401 C 0.44515 0.45039 0.43022 0.0
C402 C 0.49089 0.45021 0.43579 0.0
C403 C 0.56408 0.48712 0.43317 0.0
C404 C 0.59116 0.52438 0.4255 0.0
C405 C 0.51782 0.48771 0.42895 0.0
C406 C 0.57106 0.56269 0.41426 0.0
C407 C 0.52508 0.56364 0.41025 0.0
H408 H 0.55523 0.08263 0.66434 0.0
H409 H 0.41178 0.07944 0.66729 0.0
H410 H 0.41082 0.99882 0.67244 0.0
H411 H 0.45043 0.92882 0.67415 0.0
H412 H 0.5937 0.93193 0.66839 0.0
H413 H 0.59483 0.01277 0.66641 0.0
C414 C 0.5237 0.0644 0.66589 0.0
C415 C 0.48369 0.08742 0.66527 0.0
C416 C 0.52329 0.01783 0.66837 0.0
C417 C 0.44321 0.063 0.66801 0.0
C418 C 0.44257 0.0167 0.67075 0.0
C419 C 0.48192 0.94705 0.67227 0.0
C420 C 0.52185 0.92391 0.67135 0.0
C421 C 0.48238 0.99372 0.67063 0.0
C422 C 0.56238 0.94847 0.66952 0.0
C423 C 0.5631 0.99488 0.66815 0.0
H424 H 0.93233 0.05345 0.91283 0.0
H425 H 0.92986 0.91086 0.90173 0.0
H426 H 0.01089 0.91221 0.89889 0.0
H427 H 0.08232 0.95414 0.89822 0.0
H428 H 0.08437 0.09696 0.90782 0.0
H429 H 1.00361 0.09524 0.91257 0.0
C430 C 0.94941 0.02267 0.90956 0.0
C431 C 0.92485 0.98215 0.90734 0.0
C432 C 0.99599 0.02374 0.90766 0.0
C433 C 0.94779 0.94249 0.90379 0.0
C434 C 0.99417 0.94326 0.90196 0.0
C435 C 0.06512 0.98493 0.9011 0.0
C436 C 0.08952 0.02564 0.90252 0.0
C437 C 0.01858 0.98374 0.90362 0.0
C438 C 0.06662 0.06513 0.90693 0.0
C439 C 0.02035 0.0642 0.90948 0.0
loop_
_geom_bond_atom_site_label_1
_geom_bond_atom_site_label_2
_geom_bond_distance
_geom_bond_site_symmetry_2
_ccdc_geom_bond_type
Cu0 N1 1.999 . S
Cu0 O6 1.974 . S
Cu0 N11 1.985 . S
Cu0 O20 1.959 . S
N1 Cu0 1.999 . S
N1 C3 1.263 . S
N1 C5 1.389 . S
N2 C3 1.358 . S
N2 C4 1.400 . S
C3 N1 1.263 . S
C3 N2 1.358 . S
C3 H9 0.930 . S
C4 N2 1.400 . S
C4 C5 1.351 . S
C4 H21 0.930 . S
C5 N1 1.389 . S
C5 C4 1.351 . S
C5 H10 0.930 . S
O6 Cu0 1.974 . S
O6 C16 1.282 . S
C7 O8 1.261 . S
C7 O20 1.251 . S
O8 C7 1.261 . S
H9 C3 0.930 . S
H10 C5 0.930 . S
N11 Cu0 1.985 . S
N11 C13 1.335 . S
N11 C14 1.390 . S
N12 C13 1.345 . S
N12 C15 1.336 . S
C13 N11 1.335 . S
C13 N12 1.345 . S
C13 H18 0.930 . S
C14 N11 1.390 . S
C14 C15 1.346 . S
C14 H19 0.930 . S
C15 N12 1.336 . S
C15 C14 1.346 . S
C15 H22 0.929 . S
C16 O6 1.282 . S
C16 O17 1.216 . S
O17 C16 1.216 . S
H18 C13 0.930 . S
H19 C14 0.930 . S
O20 Cu0 1.959 . S
O20 C7 1.251 . S
H21 C4 0.930 . S
H22 C15 0.929 . S
Cu23 N24 1.999 . S
Cu23 O29 1.974 . S
Cu23 N34 1.985 . S
Cu23 O43 1.959 . S
N24 Cu23 1.999 . S
N24 C26 1.263 . S
N24 C28 1.389 . S
N25 C26 1.358 . S
N25 C27 1.400 . S
C26 N24 1.263 . S
C26 N25 1.358 . S
C26 H32 0.930 . S
C27 N25 1.400 . S
C27 C28 1.351 . S
C27 H44 0.930 . S
C28 N24 1.389 . S
C28 C27 1.351 . S
C28 H33 0.930 . S
O29 Cu23 1.974 . S
O29 C39 1.282 . S
C30 O31 1.261 . S
C30 O43 1.251 . S
O31 C30 1.261 . S
H32 C26 0.930 . S
H33 C28 0.930 . S
N34 Cu23 1.985 . S
N34 C36 1.335 . S
N34 C37 1.390 . S
N35 C36 1.345 . S
N35 C38 1.336 . S
C36 N34 1.335 . S
C36 N35 1.345 . S
C36 H41 0.930 . S
C37 N34 1.390 . S
C37 C38 1.346 . S
C37 H42 0.930 . S
C38 N35 1.336 . S
C38 C37 1.346 . S
C38 H45 0.929 . S
C39 O29 1.282 . S
C39 O40 1.216 . S
O40 C39 1.216 . S
H41 C36 0.930 . S
H42 C37 0.930 . S
O43 Cu23 1.959 . S
O43 C30 1.251 . S
H44 C27 0.930 . S
H45 C38 0.929 . S
Cu46 N47 1.999 . S
Cu46 O52 1.974 . S
Cu46 N57 1.985 . S
Cu46 O66 1.959 . S
N47 Cu46 1.999 . S
N47 C49 1.263 . S
N47 C51 1.389 . S
N48 C49 1.358 . S
N48 C50 1.400 . S
C49 N47 1.263 . S
C49 N48 1.358 . S
C49 H55 0.930 . S
C50 N48 1.400 . S
C50 C51 1.351 . S
C50 H67 0.930 . S
C51 N47 1.389 . S
C51 C50 1.351 . S
C51 H56 0.930 . S
O52 Cu46 1.974 . S
O52 C62 1.282 . S
C53 O54 1.261 . S
C53 O66 1.251 . S
O54 C53 1.261 . S
H55 C49 0.930 . S
H56 C51 0.930 . S
N57 Cu46 1.985 . S
N57 C59 1.335 . S
N57 C60 1.390 . S
N58 C59 1.345 . S
N58 C61 1.336 . S
C59 N57 1.335 . S
C59 N58 1.345 . S
C59 H64 0.930 . S
C60 N57 1.390 . S
C60 C61 1.346 . S
C60 H65 0.930 . S
C61 N58 1.336 . S
C61 C60 1.346 . S
C61 H68 0.929 . S
C62 O52 1.282 . S
C62 O63 1.216 . S
O63 C62 1.216 . S
H64 C59 0.930 . S
H65 C60 0.930 . S
O66 Cu46 1.959 . S
O66 C53 1.251 . S
H67 C50 0.930 . S
H68 C61 0.929 . S
Cu69 N70 1.999 . S
Cu69 O75 1.974 . S
Cu69 N80 1.985 . S
Cu69 O89 1.959 . S
N70 Cu69 1.999 . S
N70 C72 1.263 . S
N70 C74 1.389 . S
N71 C72 1.358 . S
N71 C73 1.400 . S
C72 N70 1.263 . S
C72 N71 1.358 . S
C72 H78 0.930 . S
C73 N71 1.400 . S
C73 C74 1.351 . S
C73 H90 0.930 . S
C74 N70 1.389 . S
C74 C73 1.351 . S
C74 H79 0.930 . S
O75 Cu69 1.974 . S
O75 C85 1.282 . S
C76 O77 1.261 . S
C76 O89 1.251 . S
O77 C76 1.261 . S
H78 C72 0.930 . S
H79 C74 0.930 . S
N80 Cu69 1.985 . S
N80 C82 1.335 . S
N80 C83 1.390 . S
N81 C82 1.345 . S
N81 C84 1.336 . S
C82 N80 1.335 . S
C82 N81 1.345 . S
C82 H87 0.930 . S
C83 N80 1.390 . S
C83 C84 1.346 . S
C83 H88 0.930 . S
C84 N81 1.336 . S
C84 C83 1.346 . S
C84 H91 0.929 . S
C85 O75 1.282 . S
C85 O86 1.216 . S
O86 C85 1.216 . S
H87 C82 0.930 . S
H88 C83 0.930 . S
O89 Cu69 1.959 . S
O89 C76 1.251 . S
H90 C73 0.930 . S
H91 C84 0.929 . S
Cu92 N93 1.999 . S
Cu92 O98 1.974 . S
Cu92 N103 1.985 . S
Cu92 O112 1.959 . S
N93 Cu92 1.999 . S
N93 C95 1.263 . S
N93 C97 1.389 . S
N94 C95 1.358 . S
N94 C96 1.400 . S
C95 N93 1.263 . S
C95 N94 1.358 . S
C95 H101 0.930 . S
C96 N94 1.400 . S
C96 C97 1.351 . S
C96 H113 0.930 . S
C97 N93 1.389 . S
C97 C96 1.351 . S
C97 H102 0.930 . S
O98 Cu92 1.974 . S
O98 C108 1.282 . S
C99 O100 1.261 . S
C99 O112 1.251 . S
O100 C99 1.261 . S
H101 C95 0.930 . S
H102 C97 0.930 . S
N103 Cu92 1.985 . S
N103 C105 1.335 . S
N103 C106 1.390 . S
N104 C105 1.345 . S
N104 C107 1.336 . S
C105 N103 1.335 . S
C105 N104 1.345 . S
C105 H110 0.930 . S
C106 N103 1.390 . S
C106 C107 1.346 . S
C106 H111 0.930 . S
C107 N104 1.336 . S
C107 C106 1.346 . S
C107 H114 0.929 . S
C108 O98 1.282 . S
C108 O109 1.216 . S
O109 C108 1.216 . S
H110 C105 0.930 . S
H111 C106 0.930 . S
O112 Cu92 1.959 . S
O112 C99 1.251 . S
H113 C96 0.930 . S
H114 C107 0.929 . S
Cu115 N116 1.999 . S
Cu115 O121 1.974 . S
Cu115 N126 1.985 . S
Cu115 O135 1.959 . S
N116 Cu115 1.999 . S
N116 C118 1.263 . S
N116 C120 1.389 . S
N117 C118 1.358 . S
N117 C119 1.400 . S
C118 N116 1.263 . S
C118 N117 1.358 . S
C118 H124 0.930 . S
C119 N117 1.400 . S
C119 C120 1.351 . S
C119 H136 0.930 . S
C120 N116 1.389 . S
C120 C119 1.351 . S
C120 H125 0.930 . S
O121 Cu115 1.974 . S
O121 C131 1.282 . S
C122 O123 1.261 . S
C122 O135 1.251 . S
O123 C122 1.261 . S
H124 C118 0.930 . S
H125 C120 0.930 . S
N126 Cu115 1.985 . S
N126 C128 1.335 . S
N126 C129 1.390 . S
N127 C128 1.345 . S
N127 C130 1.336 . S
C128 N126 1.335 . S
C128 N127 1.345 . S
C128 H133 0.930 . S
C129 N126 1.390 . S
C129 C130 1.346 . S
C129 H134 0.930 . S
C130 N127 1.336 . S
C130 C129 1.346 . S
C130 H137 0.929 . S
C131 O121 1.282 . S
C131 O132 1.216 . S
O132 C131 1.216 . S
H133 C128 0.930 . S
H134 C129 0.930 . S
O135 Cu115 1.959 . S
O135 C122 1.251 . S
H136 C119 0.930 . S
H137 C130 0.929 . S
Cu138 N139 1.999 . S
Cu138 O144 1.974 . S
Cu138 N149 1.985 . S
Cu138 O158 1.959 . S
N139 Cu138 1.999 . S
N139 C141 1.263 . S
N139 C143 1.389 . S
N140 C141 1.358 . S
N140 C142 1.400 . S
C141 N139 1.263 . S
C141 N140 1.358 . S
C141 H147 0.930 . S
C142 N140 1.400 . S
C142 C143 1.351 . S
C142 H159 0.930 . S
C143 N139 1.389 . S
C143 C142 1.351 . S
C143 H148 0.930 . S
O144 Cu138 1.974 . S
O144 C154 1.282 . S
C145 O146 1.261 . S
C145 O158 1.251 . S
O146 C145 1.261 . S
H147 C141 0.930 . S
H148 C143 0.930 . S
N149 Cu138 1.985 . S
N149 C151 1.335 . S
N149 C152 1.390 . S
N150 C151 1.345 . S
N150 C153 1.336 . S
C151 N149 1.335 . S
C151 N150 1.345 . S
C151 H156 0.930 . S
C152 N149 1.390 . S
C152 C153 1.346 . S
C152 H157 0.930 . S
C153 N150 1.336 . S
C153 C152 1.346 . S
C153 H160 0.929 . S
C154 O144 1.282 . S
C154 O155 1.216 . S
O155 C154 1.216 . S
H156 C151 0.930 . S
H157 C152 0.930 . S
O158 Cu138 1.959 . S
O158 C145 1.251 . S
H159 C142 0.930 . S
H160 C153 0.929 . S
Cu161 N162 1.999 . S
Cu161 O167 1.974 . S
Cu161 N172 1.985 . S
Cu161 O181 1.959 . S
N162 Cu161 1.999 . S
N162 C164 1.263 . S
N162 C166 1.389 . S
N163 C164 1.358 . S
N163 C165 1.400 . S
C164 N162 1.263 . S
C164 N163 1.358 . S
C164 H170 0.930 . S
C165 N163 1.400 . S
C165 C166 1.351 . S
C165 H182 0.930 . S
C166 N162 1.389 . S
C166 C165 1.351 . S
C166 H171 0.930 . S
O167 Cu161 1.974 . S
O167 C177 1.282 . S
C168 O169 1.261 . S
C168 O181 1.251 . S
O169 C168 1.261 . S
H170 C164 0.930 . S
H171 C166 0.930 . S
N172 Cu161 1.985 . S
N172 C174 1.335 . S
N172 C175 1.390 . S
N173 C174 1.345 . S
N173 C176 1.336 . S
C174 N172 1.335 . S
C174 N173 1.345 . S
C174 H179 0.930 . S
C175 N172 1.390 . S
C175 C176 1.346 . S
C175 H180 0.930 . S
C176 N173 1.336 . S
C176 C175 1.346 . S
C176 H183 0.929 . S
C177 O167 1.282 . S
C177 O178 1.216 . S
O178 C177 1.216 . S
H179 C174 0.930 . S
H180 C175 0.930 . S
O181 Cu161 1.959 . S
O181 C168 1.251 . S
H182 C165 0.930 . S
H183 C176 0.929 . S
H184 C190 0.930 . S
H185 C193 0.930 . S
H186 C194 0.930 . S
H187 C195 0.930 . S
H188 C198 0.930 . S
H189 C199 0.930 . S
C190 H184 0.930 . S
C190 C191 1.355 . S
C190 C192 1.415 . S
C191 C190 1.355 . S
C191 C193 1.419 . S
C192 C190 1.415 . S
C192 C197 1.425 1_554 S
C192 C199 1.409 . S
C193 H185 0.930 . S
C193 C191 1.419 . S
C193 C194 1.362 1_554 S
C194 H186 0.930 . S
C194 C193 1.362 1_556 S
C194 C197 1.409 . S
C195 H187 0.930 . S
C195 C196 1.355 . S
C195 C197 1.415 . S
C196 C195 1.355 . S
C196 C198 1.419 . S
C197 C192 1.425 1_556 S
C197 C194 1.409 . S
C197 C195 1.415 . S
C198 H188 0.930 . S
C198 C196 1.419 . S
C198 C199 1.362 1_556 S
C199 H189 0.930 . S
C199 C192 1.409 . S
C199 C198 1.362 1_554 S
H200 C206 0.930 . S
H201 C209 0.930 . S
H202 C210 0.930 . S
H203 C211 0.930 . S
H204 C214 0.930 . S
H205 C215 0.930 . S
C206 H200 0.930 . S
C206 C207 1.355 . S
C206 C208 1.415 . S
C207 C206 1.355 . S
C207 C209 1.419 . S
C208 C206 1.415 . S
C208 C213 1.425 . S
C208 C215 1.409 . S
C209 H201 0.930 . S
C209 C207 1.419 . S
C209 C210 1.362 . S
C210 H202 0.930 . S
C210 C209 1.362 . S
C210 C213 1.409 . S
C211 H203 0.930 . S
C211 C212 1.355 . S
C211 C213 1.415 . S
C212 C211 1.355 . S
C212 C214 1.419 . S
C213 C208 1.425 . S
C213 C210 1.409 . S
C213 C211 1.415 . S
C214 H204 0.930 . S
C214 C212 1.419 . S
C214 C215 1.362 . S
C215 H205 0.930 . S
C215 C208 1.409 . S
C215 C214 1.362 . S
H216 C222 0.930 . S
H217 C225 0.930 . S
H218 C226 0.930 . S
H219 C227 0.930 . S
H220 C230 0.930 . S
H221 C231 0.930 . S
C222 H216 0.930 . S
C222 C223 1.355 . S
C222 C224 1.415 . S
C223 C222 1.355 . S
C223 C225 1.419 . S
C224 C222 1.415 . S
C224 C229 1.425 . S
C224 C231 1.409 . S
C225 H217 0.930 . S
C225 C223 1.419 . S
C225 C226 1.362 . S
C226 H218 0.930 . S
C226 C225 1.362 . S
C226 C229 1.409 . S
C227 H219 0.930 . S
C227 C228 1.355 . S
C227 C229 1.415 . S
C228 C227 1.355 . S
C228 C230 1.419 . S
C229 C224 1.425 . S
C229 C226 1.409 . S
C229 C227 1.415 . S
C230 H220 0.930 . S
C230 C228 1.419 . S
C230 C231 1.362 . S
C231 H221 0.930 . S
C231 C224 1.409 . S
C231 C230 1.362 . S
H232 C238 0.930 . S
H233 C241 0.930 . S
H234 C242 0.930 . S
H235 C243 0.930 . S
H236 C246 0.930 . S
H237 C247 0.930 . S
C238 H232 0.930 . S
C238 C239 1.355 . S
C238 C240 1.415 . S
C239 C238 1.355 . S
C239 C241 1.419 . S
C240 C238 1.415 . S
C240 C245 1.425 . S
C240 C247 1.409 . S
C241 H233 0.930 . S
C241 C239 1.419 . S
C241 C242 1.362 . S
C242 H234 0.930 . S
C242 C241 1.362 . S
C242 C245 1.409 . S
C243 H235 0.930 . S
C243 C244 1.355 . S
C243 C245 1.415 . S
C244 C243 1.355 . S
C244 C246 1.419 . S
C245 C240 1.425 . S
C245 C242 1.409 . S
C245 C243 1.415 . S
C246 H236 0.930 . S
C246 C244 1.419 . S
C246 C247 1.362 . S
C247 H237 0.930 . S
C247 C240 1.409 . S
C247 C246 1.362 . S
H248 C254 0.930 . S
H249 C257 0.930 . S
H250 C258 0.930 . S
H251 C259 0.930 . S
H252 C262 0.930 . S
H253 C263 0.930 . S
C254 H248 0.930 . S
C254 C255 1.355 . S
C254 C256 1.415 . S
C255 C254 1.355 . S
C255 C257 1.419 . S
C256 C254 1.415 . S
C256 C261 1.425 . S
C256 C263 1.409 . S
C257 H249 0.930 . S
C257 C255 1.419 . S
C257 C258 1.362 . S
C258 H250 0.930 . S
C258 C257 1.362 . S
C258 C261 1.409 . S
C259 H251 0.930 . S
C259 C260 1.355 . S
C259 C261 1.415 . S
C260 C259 1.355 . S
C260 C262 1.419 . S
C261 C256 1.425 . S
C261 C258 1.409 . S
C261 C259 1.415 . S
C262 H252 0.930 . S
C262 C260 1.419 . S
C262 C263 1.362 . S
C263 H253 0.930 . S
C263 C256 1.409 . S
C263 C262 1.362 . S
H264 C270 0.930 . S
H265 C273 0.930 . S
H266 C274 0.930 . S
H267 C275 0.930 . S
H268 C278 0.930 . S
H269 C279 0.930 . S
C270 H264 0.930 . S
C270 C271 1.355 . S
C270 C272 1.415 . S
C271 C270 1.355 . S
C271 C273 1.419 . S
C272 C270 1.415 . S
C272 C277 1.425 . S
C272 C279 1.409 . S
C273 H265 0.930 . S
C273 C271 1.419 . S
C273 C274 1.362 . S
C274 H266 0.930 . S
C274 C273 1.362 . S
C274 C277 1.409 . S
C275 H267 0.930 . S
C275 C276 1.355 . S
C275 C277 1.415 . S
C276 C275 1.355 . S
C276 C278 1.419 . S
C277 C272 1.425 . S
C277 C274 1.409 . S
C277 C275 1.415 . S
C278 H268 0.930 . S
C278 C276 1.419 . S
C278 C279 1.362 . S
C279 H269 0.930 . S
C279 C272 1.409 . S
C279 C278 1.362 . S
H280 C286 0.930 . S
H281 C289 0.930 . S
H282 C290 0.930 . S
H283 C291 0.930 . S
H284 C294 0.930 . S
H285 C295 0.930 . S
C286 H280 0.930 . S
C286 C287 1.355 . S
C286 C288 1.415 . S
C287 C286 1.355 . S
C287 C289 1.419 . S
C288 C286 1.415 . S
C288 C293 1.425 . S
C288 C295 1.409 . S
C289 H281 0.930 . S
C289 C287 1.419 . S
C289 C290 1.362 . S
C290 H282 0.930 . S
C290 C289 1.362 . S
C290 C293 1.409 . S
C291 H283 0.930 . S
C291 C292 1.355 . S
C291 C293 1.415 . S
C292 C291 1.355 . S
C292 C294 1.419 . S
C293 C288 1.425 . S
C293 C290 1.409 . S
C293 C291 1.415 . S
C294 H284 0.930 . S
C294 C292 1.419 . S
C294 C295 1.362 . S
C295 H285 0.930 . S
C295 C288 1.409 . S
C295 C294 1.362 . S
H296 C302 0.930 . S
H297 C305 0.930 . S
H298 C306 0.930 . S
H299 C307 0.930 . S
H300 C310 0.930 . S
H301 C311 0.930 . S
C302 H296 0.930 . S
C302 C303 1.355 . S
C302 C304 1.415 . S
C303 C302 1.355 . S
C303 C305 1.419 . S
C304 C302 1.415 . S
C304 C309 1.425 1_554 S
C304 C311 1.409 . S
C305 H297 0.930 . S
C305 C303 1.419 . S
C305 C306 1.362 1_554 S
C306 H298 0.930 . S
C306 C305 1.362 1_556 S
C306 C309 1.409 . S
C307 H299 0.930 . S
C307 C308 1.355 . S
C307 C309 1.415 . S
C308 C307 1.355 . S
C308 C310 1.419 . S
C309 C304 1.425 1_556 S
C309 C306 1.409 . S
C309 C307 1.415 . S
C310 H300 0.930 . S
C310 C308 1.419 . S
C310 C311 1.362 1_556 S
C311 H301 0.930 . S
C311 C304 1.409 . S
C311 C310 1.362 1_554 S
H312 C318 0.930 . S
H313 C321 0.930 . S
H314 C322 0.930 1_655 S
H315 C323 0.930 . S
H316 C326 0.930 . S
H317 C327 0.930 1_455 S
C318 H312 0.930 . S
C318 C319 1.355 . S
C318 C320 1.415 . S
C319 C318 1.355 . S
C319 C321 1.419 . S
C320 C318 1.415 . S
C320 C325 1.425 1_445 S
C320 C327 1.409 1_445 S
C321 H313 0.930 . S
C321 C319 1.419 . S
C321 C322 1.362 . S
C322 H314 0.930 1_455 S
C322 C321 1.362 . S
C322 C325 1.409 1_445 S
C323 H315 0.930 . S
C323 C324 1.355 . S
C323 C325 1.415 . S
C324 C323 1.355 . S
C324 C326 1.419 . S
C325 C320 1.425 1_665 S
C325 C322 1.409 1_665 S
C325 C323 1.415 . S
C326 H316 0.930 . S
C326 C324 1.419 . S
C326 C327 1.362 . S
C327 H317 0.930 1_655 S
C327 C320 1.409 1_665 S
C327 C326 1.362 . S
H328 C334 0.930 . S
H329 C337 0.930 . S
H330 C338 0.930 . S
H331 C339 0.930 . S
H332 C342 0.930 . S
H333 C343 0.930 . S
C334 H328 0.930 . S
C334 C335 1.355 . S
C334 C336 1.415 . S
C335 C334 1.355 . S
C335 C337 1.419 . S
C336 C334 1.415 . S
C336 C341 1.425 1_455 S
C336 C343 1.409 . S
C337 H329 0.930 . S
C337 C335 1.419 . S
C337 C338 1.362 1_455 S
C338 H330 0.930 . S
C338 C337 1.362 1_655 S
C338 C341 1.409 . S
C339 H331 0.930 . S
C339 C340 1.355 . S
C339 C341 1.415 . S
C340 C339 1.355 . S
C340 C342 1.419 . S
C341 C336 1.425 1_655 S
C341 C338 1.409 . S
C341 C339 1.415 . S
C342 H332 0.930 . S
C342 C340 1.419 . S
C342 C343 1.362 1_655 S
C343 H333 0.930 . S
C343 C336 1.409 . S
C343 C342 1.362 1_455 S
H344 C350 0.930 . S
H345 C353 0.930 . S
H346 C354 0.930 . S
H347 C355 0.930 . S
H348 C358 0.930 . S
H349 C359 0.930 . S
C350 H344 0.930 . S
C350 C351 1.355 . S
C350 C352 1.415 . S
C351 C350 1.355 . S
C351 C353 1.419 . S
C352 C350 1.415 . S
C352 C357 1.425 . S
C352 C359 1.409 . S
C353 H345 0.930 . S
C353 C351 1.419 . S
C353 C354 1.362 . S
C354 H346 0.930 . S
C354 C353 1.362 . S
C354 C357 1.409 . S
C355 H347 0.930 . S
C355 C356 1.355 . S
C355 C357 1.415 . S
C356 C355 1.355 . S
C356 C358 1.419 . S
C357 C352 1.425 . S
C357 C354 1.409 . S
C357 C355 1.415 . S
C358 H348 0.930 . S
C358 C356 1.419 . S
C358 C359 1.362 . S
C359 H349 0.930 . S
C359 C352 1.409 . S
C359 C358 1.362 . S
H360 C366 0.929 . S
H361 C369 0.930 . S
H362 C370 0.930 . S
H363 C371 0.929 . S
H364 C374 0.930 . S
H365 C375 0.930 . S
C366 H360 0.929 . S
C366 C367 1.355 . S
C366 C368 1.415 1_565 S
C367 C366 1.355 . S
C367 C369 1.419 . S
C368 C366 1.415 1_545 S
C368 C373 1.425 1_545 S
C368 C375 1.409 . S
C369 H361 0.930 . S
C369 C367 1.419 . S
C369 C370 1.362 . S
C370 H362 0.930 . S
C370 C369 1.362 . S
C370 C373 1.409 . S
C371 H363 0.929 . S
C371 C372 1.355 . S
C371 C373 1.415 1_545 S
C372 C371 1.355 . S
C372 C374 1.419 . S
C373 C368 1.425 1_565 S
C373 C370 1.409 . S
C373 C371 1.415 1_565 S
C374 H364 0.930 . S
C374 C372 1.419 . S
C374 C375 1.362 . S
C375 H365 0.930 . S
C375 C368 1.409 . S
C375 C374 1.362 . S
H376 C382 0.930 . S
H377 C385 0.930 . S
H378 C386 0.930 . S
H379 C387 0.930 . S
H380 C390 0.930 . S
H381 C391 0.930 . S
C382 H376 0.930 . S
C382 C383 1.355 . S
C382 C384 1.415 1_655 S
C383 C382 1.355 . S
C383 C385 1.419 . S
C384 C382 1.415 1_455 S
C384 C389 1.425 1_455 S
C384 C391 1.409 . S
C385 H377 0.930 . S
C385 C383 1.419 . S
C385 C386 1.362 . S
C386 H378 0.930 . S
C386 C385 1.362 . S
C386 C389 1.409 . S
C387 H379 0.930 . S
C387 C388 1.355 . S
C387 C389 1.415 1_455 S
C388 C387 1.355 . S
C388 C390 1.419 . S
C389 C384 1.425 1_655 S
C389 C386 1.409 . S
C389 C387 1.415 1_655 S
C390 H380 0.930 . S
C390 C388 1.419 . S
C390 C391 1.362 . S
C391 H381 0.930 . S
C391 C384 1.409 . S
C391 C390 1.362 . S
H392 C398 0.930 . S
H393 C401 0.930 . S
H394 C402 0.930 . S
H395 C403 0.930 . S
H396 C406 0.930 . S
H397 C407 0.930 . S
C398 H392 0.930 . S
C398 C399 1.355 . S
C398 C400 1.415 . S
C399 C398 1.355 . S
C399 C401 1.419 . S
C400 C398 1.415 . S
C400 C405 1.425 . S
C400 C407 1.409 . S
C401 H393 0.930 . S
C401 C399 1.419 . S
C401 C402 1.362 . S
C402 H394 0.930 . S
C402 C401 1.362 . S
C402 C405 1.409 . S
C403 H395 0.930 . S
C403 C404 1.355 . S
C403 C405 1.415 . S
C404 C403 1.355 . S
C404 C406 1.419 . S
C405 C400 1.425 . S
C405 C402 1.409 . S
C405 C403 1.415 . S
C406 H396 0.930 . S
C406 C404 1.419 . S
C406 C407 1.362 . S
C407 H397 0.930 . S
C407 C400 1.409 . S
C407 C406 1.362 . S
H408 C414 0.930 . S
H409 C417 0.930 . S
H410 C418 0.930 . S
H411 C419 0.930 . S
H412 C422 0.930 . S
H413 C423 0.930 . S
C414 H408 0.930 . S
C414 C415 1.355 . S
C414 C416 1.415 . S
C415 C414 1.355 . S
C415 C417 1.419 . S
C416 C414 1.415 . S
C416 C421 1.425 1_545 S
C416 C423 1.409 . S
C417 H409 0.930 . S
C417 C415 1.419 . S
C417 C418 1.362 1_545 S
C418 H410 0.930 . S
C418 C417 1.362 1_565 S
C418 C421 1.409 . S
C419 H411 0.930 . S
C419 C420 1.355 . S
C419 C421 1.415 . S
C420 C419 1.355 . S
C420 C422 1.419 . S
C421 C416 1.425 1_565 S
C421 C418 1.409 . S
C421 C419 1.415 . S
C422 H412 0.930 . S
C422 C420 1.419 . S
C422 C423 1.362 1_565 S
C423 H413 0.930 . S
C423 C416 1.409 . S
C423 C422 1.362 1_545 S
H424 C430 0.930 1_545 S
H425 C433 0.930 . S
H426 C434 0.930 . S
H427 C435 0.930 1_565 S
H428 C438 0.930 . S
H429 C439 0.930 . S
C430 H424 0.930 1_565 S
C430 C431 1.355 . S
C430 C432 1.415 1_565 S
C431 C430 1.355 . S
C431 C433 1.419 . S
C432 C430 1.415 1_545 S
C432 C437 1.425 1_645 S
C432 C439 1.409 . S
C433 H425 0.930 . S
C433 C431 1.419 . S
C433 C434 1.362 1_655 S
C434 H426 0.930 . S
C434 C433 1.362 1_455 S
C434 C437 1.409 . S
C435 H427 0.930 1_545 S
C435 C436 1.355 . S
C435 C437 1.415 1_545 S
C436 C435 1.355 . S
C436 C438 1.419 . S
C437 C432 1.425 1_465 S
C437 C434 1.409 . S
C437 C435 1.415 1_565 S
C438 H428 0.930 . S
C438 C436 1.419 . S
C438 C439 1.362 1_455 S
C439 H429 0.930 . S
C439 C432 1.409 . S
C439 C438 1.362 1_655 S
C191 C16 1.816 . S
C196 C131 1.860 . S
C207 C30 1.881 . S
C212 C145 1.906 . S
C223 C62 1.826 . S
C228 C177 1.864 . S
C239 C76 1.900 . S
C244 C99 1.870 . S
C255 C168 1.901 . S
C260 C7 1.872 . S
C271 C108 1.863 . S
C276 C39 1.825 . S
C287 C53 1.861 . S
C292 C122 1.864 . S
C303 C154 1.842 . S
C308 C85 1.864 . S
C319 N2 1.656 . S
C324 N140 1.680 . S
C335 N173 1.890 . S
C340 N35 1.874 . S
C351 N48 1.734 . S
C356 N94 1.747 . S
C367 N81 1.864 . S
C372 N127 1.890 . S
C383 N150 1.890 . S
C388 N12 1.868 . S
C399 N163 1.748 . S
C404 N25 1.739 . S
C415 N58 1.882 . S
C420 N104 1.887 . S
C431 N71 1.741 . S
C436 N117 1.748 . S
