# Generated by pormake.
# Topology smw, (6)-cn, num edge types: 1
# Building blocks:
#     Node 0, Type 0, BuildingBlock: OJICUG_clean_sbu_0, # of connection points: 6
#     Node 1, Type 0, BuildingBlock: OJICUG_clean_sbu_0, # of connection points: 6
#     Node 2, Type 0, BuildingBlock: OJICUG_clean_sbu_0, # of connection points: 6
#     Node 3, Type 0, BuildingBlock: OJICUG_clean_sbu_0, # of connection points: 6
#     Node 4, Type 0, BuildingBlock: OJICUG_clean_sbu_0, # of connection points: 6
#     Node 5, Type 0, BuildingBlock: OJICUG_clean_sbu_0, # of connection points: 6
#     Node 6, Type 0, BuildingBlock: OJICUG_clean_sbu_0, # of connection points: 6
#     Node 7, Type 0, BuildingBlock: OJICUG_clean_sbu_0, # of connection points: 6
#     Node 8, Type 0, BuildingBlock: OJICUG_clean_sbu_0, # of connection points: 6
#     Node 9, Type 0, BuildingBlock: OJICUG_clean_sbu_0, # of connection points: 6
#     Node 10, Type 0, BuildingBlock: OJICUG_clean_sbu_0, # of connection points: 6
#     Node 11, Type 0, BuildingBlock: OJICUG_clean_sbu_0, # of connection points: 6
#     Edge 12, Type (0, 0), BuildingBlock: AJUNOK_clean_linker_0, # of connection points: 2
#     Edge 13, Type (0, 0), BuildingBlock: AJUNOK_clean_linker_0, # of connection points: 2
#     Edge 14, Type (0, 0), BuildingBlock: AJUNOK_clean_linker_0, # of connection points: 2
#     Edge 15, Type (0, 0), BuildingBlock: AJUNOK_clean_linker_0, # of connection points: 2
#     Edge 16, Type (0, 0), BuildingBlock: AJUNOK_clean_linker_0, # of connection points: 2
#     Edge 17, Type (0, 0), BuildingBlock: AJUNOK_clean_linker_0, # of connection points: 2
#     Edge 18, Type (0, 0), BuildingBlock: AJUNOK_clean_linker_0, # of connection points: 2
#     Edge 19, Type (0, 0), BuildingBlock: AJUNOK_clean_linker_0, # of connection points: 2
#     Edge 20, Type (0, 0), BuildingBlock: AJUNOK_clean_linker_0, # of connection points: 2
#     Edge 21, Type (0, 0), BuildingBlock: AJUNOK_clean_linker_0, # of connection points: 2
#     Edge 22, Type (0, 0), BuildingBlock: AJUNOK_clean_linker_0, # of connection points: 2
#     Edge 23, Type (0, 0), BuildingBlock: AJUNOK_clean_linker_0, # of connection points: 2
#     Edge 24, Type (0, 0), BuildingBlock: AJUNOK_clean_linker_0, # of connection points: 2
#     Edge 25, Type (0, 0), BuildingBlock: AJUNOK_clean_linker_0, # of connection points: 2
#     Edge 26, Type (0, 0), BuildingBlock: AJUNOK_clean_linker_0, # of connection points: 2
#     Edge 27, Type (0, 0), BuildingBlock: AJUNOK_clean_linker_0, # of connection points: 2
#     Edge 28, Type (0, 0), BuildingBlock: AJUNOK_clean_linker_0, # of connection points: 2
#     Edge 29, Type (0, 0), BuildingBlock: AJUNOK_clean_linker_0, # of connection points: 2
#     Edge 30, Type (0, 0), BuildingBlock: AJUNOK_clean_linker_0, # of connection points: 2
#     Edge 31, Type (0, 0), BuildingBlock: AJUNOK_clean_linker_0, # of connection points: 2
#     Edge 32, Type (0, 0), BuildingBlock: AJUNOK_clean_linker_0, # of connection points: 2
#     Edge 33, Type (0, 0), BuildingBlock: AJUNOK_clean_linker_0, # of connection points: 2
#     Edge 34, Type (0, 0), BuildingBlock: AJUNOK_clean_linker_0, # of connection points: 2
#     Edge 35, Type (0, 0), BuildingBlock: AJUNOK_clean_linker_0, # of connection points: 2
#     Edge 36, Type (0, 0), BuildingBlock: AJUNOK_clean_linker_0, # of connection points: 2
#     Edge 37, Type (0, 0), BuildingBlock: AJUNOK_clean_linker_0, # of connection points: 2
#     Edge 38, Type (0, 0), BuildingBlock: AJUNOK_clean_linker_0, # of connection points: 2
#     Edge 39, Type (0, 0), BuildingBlock: AJUNOK_clean_linker_0, # of connection points: 2
#     Edge 40, Type (0, 0), BuildingBlock: AJUNOK_clean_linker_0, # of connection points: 2
#     Edge 41, Type (0, 0), BuildingBlock: AJUNOK_clean_linker_0, # of connection points: 2
#     Edge 42, Type (0, 0), BuildingBlock: AJUNOK_clean_linker_0, # of connection points: 2
#     Edge 43, Type (0, 0), BuildingBlock: AJUNOK_clean_linker_0, # of connection points: 2
#     Edge 44, Type (0, 0), BuildingBlock: AJUNOK_clean_linker_0, # of connection points: 2
#     Edge 45, Type (0, 0), BuildingBlock: AJUNOK_clean_linker_0, # of connection points: 2
#     Edge 46, Type (0, 0), BuildingBlock: AJUNOK_clean_linker_0, # of connection points: 2
#     Edge 47, Type (0, 0), BuildingBlock: AJUNOK_clean_linker_0, # of connection points: 2
# Relax obj value: 0.103
# Max RMSD: 0.108
# Mean RMSD: 0.108
data_MOF--net-smw--node1-OJICUG_clean_sbu_0--edge1-AJUNOK_clean_linker_0
_symmetry_space_group_name_H-M    P1
_symmetry_Int_Tables_number       1
_symmetry_cell_setting            triclinic
loop_
_symmetry_equiv_pos_as_xyz
'x, y, z'
_cell_length_a     41.74337
_cell_length_b     41.7714
_cell_length_c     17.071597
_cell_angle_alpha  89.783765
_cell_angle_beta   90.055093
_cell_angle_gamma 119.99454
loop_
_atom_site_label
_atom_site_type_symbol
_atom_site_fract_x
_atom_site_fract_y
_atom_site_fract_z
_atom_type_partial_charge
Sc0 Sc 0.49343 0.15646 -0.01041 0.0
Sc1 Sc 0.39564 0.11 -0.0125 0.0
Sc2 Sc 0.44279 0.05944 -0.01057 0.0
O3 O 0.44386 0.10861 -0.01113 0.0
C4 C 0.51007 0.10729 0.87278 0.0
C5 C 0.44651 0.1759 0.8704 0.0
C6 C 0.37795 0.04373 0.87068 0.0
C7 C 0.44524 0.1749 0.10692 0.0
C8 C 0.50791 0.10632 0.10995 0.0
C9 C 0.37517 0.04208 0.10156 0.0
O10 O 0.51646 0.13846 0.89845 0.0
O11 O 0.4151 0.15149 0.89647 0.0
O12 O 0.40279 0.0377 0.89759 0.0
O13 O 0.47575 0.17968 0.08027 0.0
O14 O 0.48218 0.07583 0.08357 0.0
O15 O 0.37071 0.06855 0.07847 0.0
O16 O 0.5158 0.13741 0.0805 0.0
O17 O 0.41408 0.15123 0.07862 0.0
O18 O 0.39984 0.03585 0.07486 0.0
O19 O 0.47672 0.18088 0.89915 0.0
O20 O 0.48513 0.07689 0.90152 0.0
O21 O 0.37199 0.06888 0.89598 0.0
Sc22 Sc 0.32932 0.48939 0.98401 0.0
Sc23 Sc 0.28342 0.39173 -0.01199 0.0
Sc24 Sc 0.38097 0.44396 -0.00884 0.0
O25 O 0.33118 0.44164 -0.01216 0.0
C26 C 0.39696 0.5079 0.86887 0.0
C27 C 0.26447 0.43834 0.86599 0.0
C28 C 0.3348 0.37551 0.87731 0.0
C29 C 0.26261 0.43931 0.10105 0.0
C30 C 0.3959 0.51135 0.10301 0.0
C31 C 0.33382 0.37823 0.10919 0.0
O32 O 0.3721 0.51396 0.89592 0.0
O33 O 0.25871 0.40817 0.89688 0.0
O34 O 0.36466 0.40041 0.90761 0.0
O35 O 0.28632 0.47008 0.07111 0.0
O36 O 0.40367 0.48773 0.07605 0.0
O37 O 0.30253 0.36937 0.07955 0.0
O38 O 0.36892 0.51449 0.07787 0.0
O39 O 0.25882 0.40857 0.07862 0.0
O40 O 0.36418 0.4052 0.08555 0.0
O41 O 0.28956 0.46975 0.8901 0.0
O42 O 0.40265 0.48283 0.89606 0.0
O43 O 0.30299 0.36985 0.8968 0.0
Sc44 Sc 0.83296 0.33022 0.98517 0.0
Sc45 Sc 0.8839 0.28348 0.98697 0.0
Sc46 Sc 0.92996 0.3812 -0.00994 0.0
O47 O 0.88231 0.33158 -0.01278 0.0
C48 C 0.88153 0.39748 0.86893 0.0
C49 C 0.81794 0.26488 0.8677 0.0
C50 C 0.95154 0.33467 0.87533 0.0
C51 C 0.81662 0.26433 0.10318 0.0
C52 C 0.87827 0.39619 0.10452 0.0
C53 C 0.94788 0.33308 0.10781 0.0
O54 O 0.85082 0.37209 0.89568 0.0
O55 O 0.84316 0.25942 0.89508 0.0
O56 O 0.95615 0.36462 0.90443 0.0
O57 O 0.81009 0.28856 0.07449 0.0
O58 O 0.90968 0.40354 0.07798 0.0
O59 O 0.92465 0.30189 0.07936 0.0
O60 O 0.84819 0.37039 0.07691 0.0
O61 O 0.84215 0.25897 0.0773 0.0
O62 O 0.9523 0.36369 0.08288 0.0
O63 O 0.81164 0.28959 0.89404 0.0
O64 O 0.91253 0.40381 0.89623 0.0
O65 O 0.92596 0.30289 0.89681 0.0
Sc66 Sc 0.50284 0.83831 0.98483 0.0
Sc67 Sc 0.60031 0.88575 -0.01154 0.0
Sc68 Sc 0.55235 0.93551 0.98418 0.0
O69 O 0.55191 0.88657 0.98582 0.0
C70 C 0.48726 0.88825 0.86527 0.0
C71 C 0.55123 0.8196 0.87028 0.0
C72 C 0.6205 0.95266 0.87277 0.0
C73 C 0.55024 0.81985 0.10492 0.0
C74 C 0.48452 0.8868 0.09932 0.0
C75 C 0.61731 0.95254 0.10317 0.0
O76 O 0.47967 0.85753 0.89623 0.0
O77 O 0.58184 0.84304 0.90101 0.0
O78 O 0.59649 0.95962 0.90071 0.0
O79 O 0.52004 0.81347 0.07349 0.0
O80 O 0.50832 0.91747 0.06915 0.0
O81 O 0.6243 0.9283 0.07665 0.0
O82 O 0.48034 0.85591 0.07741 0.0
O83 O 0.58153 0.84582 0.08215 0.0
O84 O 0.59138 0.95732 0.07801 0.0
O85 O 0.52036 0.81556 0.89253 0.0
O86 O 0.51385 0.91899 0.88835 0.0
O87 O 0.62424 0.92564 0.89479 0.0
Sc88 Sc 0.66938 0.50813 -0.00968 0.0
Sc89 Sc 0.71289 0.60573 -0.01203 0.0
Sc90 Sc 0.61553 0.55126 0.98216 0.0
O91 O 0.66598 0.5551 0.98694 0.0
C92 C 0.60381 0.48618 0.86775 0.0
C93 C 0.73548 0.5597 0.87394 0.0
C94 C 0.66252 0.61881 0.86701 0.0
C95 C 0.7332 0.56039 0.10967 0.0
C96 C 0.60033 0.48652 0.10287 0.0
C97 C 0.65916 0.61921 0.09756 0.0
O98 O 0.6293 0.48192 0.89793 0.0
O99 O 0.73918 0.58981 0.90015 0.0
O100 O 0.63229 0.59233 0.89245 0.0
O101 O 0.7098 0.52887 0.08278 0.0
O102 O 0.59284 0.50988 0.07282 0.0
O103 O 0.69145 0.62717 0.07591 0.0
O104 O 0.62735 0.48293 0.07988 0.0
O105 O 0.73736 0.59044 0.08147 0.0
O106 O 0.62975 0.59252 0.06977 0.0
O107 O 0.71171 0.52826 0.90119 0.0
O108 O 0.59601 0.51017 0.89201 0.0
O109 O 0.69405 0.62696 0.89401 0.0
Sc110 Sc 0.16257 0.66449 -0.01004 0.0
Sc111 Sc 0.11333 0.71327 -0.01177 0.0
Sc112 Sc 0.06561 0.61582 0.98245 0.0
O113 O 0.11386 0.66462 0.98702 0.0
C114 C 0.11656 0.60047 0.86712 0.0
C115 C 0.18128 0.73206 0.87443 0.0
C116 C 0.04997 0.66552 0.86517 0.0
C117 C 0.17735 0.72881 0.11047 0.0
C118 C 0.112 0.59716 0.10438 0.0
C119 C 0.04454 0.66241 0.0973 0.0
O120 O 0.14717 0.62509 0.89563 0.0
O121 O 0.15575 0.73759 0.89949 0.0
O122 O 0.04494 0.63464 0.88953 0.0
O123 O 0.18346 0.70402 0.0836 0.0
O124 O 0.08173 0.59219 0.07582 0.0
O125 O 0.07082 0.69408 0.07735 0.0
O126 O 0.14334 0.62167 0.07821 0.0
O127 O 0.15342 0.73569 0.08119 0.0
O128 O 0.03949 0.63243 0.06774 0.0
O129 O 0.18702 0.70718 0.90264 0.0
O130 O 0.08554 0.59371 0.89444 0.0
O131 O 0.07324 0.69642 0.89469 0.0
Sc132 Sc 0.93268 0.55068 0.48234 0.0
Sc133 Sc 0.89047 0.60578 0.48913 0.0
Sc134 Sc 0.83584 0.50827 0.48877 0.0
O135 O 0.88635 0.55499 0.48683 0.0
C136 C 0.87906 0.48545 0.3678 0.0
C137 C 0.95279 0.61765 0.36593 0.0
C138 C 0.82201 0.56061 0.37381 0.0
C139 C 0.95811 0.61929 0.59701 0.0
C140 C 0.88288 0.48713 0.60432 0.0
C141 C 0.82442 0.55994 0.60982 0.0
O142 O 0.9107 0.50836 0.39474 0.0
O143 O 0.93088 0.62706 0.3959 0.0
O144 O 0.81399 0.52906 0.4008 0.0
O145 O 0.96083 0.59299 0.56725 0.0
O146 O 0.85257 0.48275 0.57724 0.0
O147 O 0.85039 0.59009 0.58208 0.0
O148 O 0.91419 0.51069 0.57626 0.0
O149 O 0.93312 0.62676 0.5779 0.0
O150 O 0.81623 0.52854 0.58217 0.0
O151 O 0.9557 0.59036 0.38944 0.0
O152 O 0.84937 0.48239 0.39526 0.0
O153 O 0.84859 0.59058 0.40029 0.0
Sc154 Sc 0.38044 0.93582 0.48245 0.0
Sc155 Sc 0.28258 0.88572 0.48867 0.0
Sc156 Sc 0.33308 0.8387 0.48535 0.0
O157 O 0.33199 0.8868 0.48542 0.0
C158 C 0.39685 0.88751 0.36252 0.0
C159 C 0.329 0.95162 0.36979 0.0
C160 C 0.26502 0.81892 0.37261 0.0
C161 C 0.3328 0.95324 0.60171 0.0
C162 C 0.39963 0.88819 0.60013 0.0
C163 C 0.26831 0.82094 0.60781 0.0
O164 O 0.40226 0.91832 0.38818 0.0
O165 O 0.29831 0.92568 0.39518 0.0
O166 O 0.29142 0.81474 0.39696 0.0
O167 O 0.36333 0.95882 0.57376 0.0
O168 O 0.37438 0.85732 0.57466 0.0
O169 O 0.26158 0.84561 0.5823 0.0
O170 O 0.4061 0.91896 0.57114 0.0
O171 O 0.30139 0.92801 0.5778 0.0
O172 O 0.29274 0.81521 0.57743 0.0
O173 O 0.36024 0.95841 0.39584 0.0
O174 O 0.37374 0.85668 0.39309 0.0
O175 O 0.25821 0.84316 0.40025 0.0
Sc176 Sc 0.4488 0.38036 0.49112 0.0
Sc177 Sc 0.39879 0.28274 0.48857 0.0
Sc178 Sc 0.49656 0.331 0.48532 0.0
O179 O 0.44797 0.3313 0.48828 0.0
C180 C 0.51277 0.39705 0.36768 0.0
C181 C 0.38111 0.33281 0.37649 0.0
C182 C 0.44668 0.26494 0.36892 0.0
C183 C 0.38331 0.33182 0.60924 0.0
C184 C 0.51619 0.39672 0.6045 0.0
C185 C 0.44808 0.26492 0.60425 0.0
O186 O 0.48815 0.40292 0.39668 0.0
O187 O 0.37565 0.30129 0.39788 0.0
O188 O 0.47759 0.29016 0.39469 0.0
O189 O 0.40914 0.36258 0.58407 0.0
O190 O 0.52118 0.37146 0.57651 0.0
O191 O 0.41699 0.25925 0.57893 0.0
O192 O 0.49163 0.40347 0.57849 0.0
O193 O 0.37589 0.30074 0.58099 0.0
O194 O 0.47867 0.28949 0.57538 0.0
O195 O 0.4058 0.36302 0.40583 0.0
O196 O 0.51961 0.37265 0.39457 0.0
O197 O 0.4159 0.25892 0.39684 0.0
Sc198 Sc 0.06296 0.44387 0.49239 0.0
Sc199 Sc 0.10786 0.39154 0.48463 0.0
Sc200 Sc 0.15989 0.4894 0.48625 0.0
O201 O 0.11029 0.44156 0.4878 0.0
C202 C 0.11073 0.50776 0.37006 0.0
C203 C 0.03982 0.37584 0.37679 0.0
C204 C 0.17355 0.4395 0.3644 0.0
C205 C 0.04502 0.37806 0.60912 0.0
C206 C 0.11525 0.51118 0.60456 0.0
C207 C 0.17534 0.4379 0.60139 0.0
O208 O 0.08004 0.48247 0.39704 0.0
O209 O 0.06642 0.37046 0.39355 0.0
O210 O 0.18023 0.47037 0.39231 0.0
O211 O 0.04216 0.40558 0.58745 0.0
O212 O 0.14545 0.51435 0.58019 0.0
O213 O 0.14914 0.40765 0.57496 0.0
O214 O 0.08409 0.48761 0.5768 0.0
O215 O 0.06634 0.36845 0.57662 0.0
O216 O 0.1829 0.4693 0.57395 0.0
O217 O 0.03492 0.40025 0.40952 0.0
O218 O 0.14176 0.51428 0.39792 0.0
O219 O 0.14896 0.4087 0.39277 0.0
Sc220 Sc 0.61649 0.05923 0.49003 0.0
Sc221 Sc 0.71435 0.10955 0.48682 0.0
Sc222 Sc 0.66336 0.15623 0.48865 0.0
O223 O 0.66478 0.1083 0.48846 0.0
C224 C 0.59688 0.1068 0.37313 0.0
C225 C 0.66527 0.04283 0.37173 0.0
C226 C 0.72956 0.17519 0.36929 0.0
C227 C 0.66709 0.0429 0.60388 0.0
C228 C 0.59806 0.10674 0.60813 0.0
C229 C 0.73003 0.17467 0.60564 0.0
O230 O 0.59144 0.07625 0.40112 0.0
O231 O 0.69653 0.0683 0.39572 0.0
O232 O 0.70433 0.18021 0.39783 0.0
O233 O 0.63601 0.03653 0.57772 0.0
O234 O 0.62217 0.13779 0.58004 0.0
O235 O 0.7375 0.15099 0.57747 0.0
O236 O 0.59317 0.07621 0.58194 0.0
O237 O 0.69793 0.06863 0.57862 0.0
O238 O 0.70437 0.17952 0.57889 0.0
O239 O 0.6346 0.03672 0.3998 0.0
O240 O 0.62211 0.13793 0.39801 0.0
O241 O 0.73641 0.15069 0.39529 0.0
Sc242 Sc 0.54949 0.61669 0.48253 0.0
Sc243 Sc 0.59821 0.71405 0.48597 0.0
Sc244 Sc 0.50026 0.6647 0.48918 0.0
O245 O 0.54935 0.6652 0.48602 0.0
C246 C 0.48308 0.60052 0.36658 0.0
C247 C 0.61488 0.66645 0.3653 0.0
C248 C 0.54832 0.73128 0.37122 0.0
C249 C 0.61631 0.66433 0.59844 0.0
C250 C 0.48435 0.59794 0.60425 0.0
C251 C 0.54991 0.72991 0.60799 0.0
O252 O 0.50814 0.59459 0.39261 0.0
O253 O 0.62152 0.69738 0.39267 0.0
O254 O 0.51775 0.70648 0.39974 0.0
O255 O 0.59152 0.63388 0.5702 0.0
O256 O 0.47762 0.62266 0.57904 0.0
O257 O 0.58046 0.73627 0.57849 0.0
O258 O 0.50913 0.59256 0.57448 0.0
O259 O 0.62191 0.6957 0.57561 0.0
O260 O 0.51874 0.70523 0.58164 0.0
O261 O 0.58978 0.63554 0.39125 0.0
O262 O 0.47619 0.62429 0.39642 0.0
O263 O 0.57949 0.73748 0.39696 0.0
C264 C 0.41468 0.20031 0.19354 0.0
C265 C 0.44613 0.19773 0.17438 0.0
C266 C 0.41498 0.22186 0.25667 0.0
C267 C 0.44674 0.24172 0.30328 0.0
H268 H 0.38966 0.18588 0.15905 0.0
H269 H 0.39022 0.22329 0.26832 0.0
S270 S 0.53559 0.24222 0.28164 0.0
N271 N 0.50943 0.21561 0.20995 0.0
N272 N 0.50997 0.25596 0.3281 0.0
C273 C 0.47822 0.23895 0.28554 0.0
C274 C 0.47792 0.21702 0.22134 0.0
C275 C 0.19853 0.40835 0.27839 0.0
C276 C 0.19542 0.43961 0.29564 0.0
C277 C 0.21989 0.4083 0.21497 0.0
C278 C 0.23895 0.4395 0.16601 0.0
H279 H 0.18489 0.38386 0.31493 0.0
H280 H 0.22191 0.38377 0.20516 0.0
S281 S 0.23682 0.52719 0.1813 0.0
N282 N 0.21123 0.50177 0.25523 0.0
N283 N 0.25119 0.50173 0.13646 0.0
C284 C 0.23524 0.47062 0.18144 0.0
C285 C 0.21356 0.47067 0.24602 0.0
C286 C 0.7963 0.21119 0.19687 0.0
C287 C 0.79396 0.24197 0.1708 0.0
C288 C 0.77554 0.18993 0.26101 0.0
C289 C 0.75157 0.19855 0.30205 0.0
H290 H 0.8142 0.20323 0.16737 0.0
H291 H 0.77823 0.16638 0.27809 0.0
S292 S 0.73613 0.27715 0.25933 0.0
N293 N 0.76617 0.28049 0.19254 0.0
N294 N 0.7273 0.24065 0.31266 0.0
C295 C 0.74909 0.22941 0.27691 0.0
C296 C 0.7702 0.25105 0.21154 0.0
C297 C 0.57978 0.78678 0.28381 0.0
C298 C 0.54774 0.75341 0.30369 0.0
C299 C 0.58033 0.80789 0.21944 0.0
C300 C 0.54888 0.79651 0.17204 0.0
H301 H 0.60472 0.7969 0.31849 0.0
H302 H 0.60565 0.83352 0.20728 0.0
S303 S 0.45842 0.7101 0.19623 0.0
N304 N 0.48401 0.70922 0.26896 0.0
N305 N 0.485 0.74883 0.14807 0.0
C306 C 0.51667 0.76298 0.19081 0.0
C307 C 0.51611 0.74149 0.25652 0.0
C308 C 0.74505 0.53008 0.22377 0.0
C309 C 0.75624 0.56185 0.17735 0.0
C310 C 0.76624 0.53021 0.28741 0.0
C311 C 0.79966 0.5621 0.30754 0.0
H312 H 0.71954 0.50477 0.21118 0.0
H313 H 0.7562 0.50492 0.32101 0.0
S314 S 0.84213 0.65238 0.20313 0.0
N315 N 0.80341 0.62604 0.15504 0.0
N316 N 0.84337 0.62628 0.27454 0.0
C317 C 0.81125 0.59417 0.26168 0.0
C318 C 0.78955 0.59405 0.19675 0.0
C319 C 0.22139 0.80586 0.26069 0.0
C320 C 0.24176 0.79484 0.30811 0.0
C321 C 0.2005 0.78427 0.19732 0.0
C322 C 0.19914 0.75076 0.17882 0.0
H323 H 0.22208 0.83174 0.27158 0.0
H324 H 0.18575 0.79428 0.16194 0.0
S325 S 0.245 0.70788 0.28901 0.0
N326 N 0.25752 0.74705 0.33503 0.0
N327 N 0.21836 0.70656 0.21622 0.0
C328 C 0.21874 0.739 0.2269 0.0
C329 C 0.24 0.76099 0.29139 0.0
C330 C 0.51957 0.75543 0.69432 0.0
C331 C 0.55075 0.75232 0.67604 0.0
C332 C 0.51994 0.77701 0.75733 0.0
C333 C 0.55149 0.79632 0.80493 0.0
H334 H 0.49476 0.74152 0.659 0.0
H335 H 0.49536 0.77888 0.76806 0.0
S336 S 0.63938 0.79474 0.78602 0.0
N337 N 0.61342 0.76872 0.71342 0.0
N338 N 0.61411 0.80911 0.8318 0.0
C339 C 0.58264 0.79281 0.78829 0.0
C340 C 0.58228 0.77089 0.72397 0.0
C341 C 0.75938 0.52876 0.78485 0.0
C342 C 0.75929 0.56109 0.80765 0.0
C343 C 0.78058 0.52879 0.72131 0.0
C344 C 0.80272 0.56116 0.6776 0.0
H345 H 0.74288 0.50301 0.81621 0.0
H346 H 0.7796 0.50311 0.70663 0.0
S347 S 0.81191 0.6532 0.71154 0.0
N348 N 0.78313 0.62647 0.78035 0.0
N349 N 0.82296 0.62647 0.66115 0.0
C350 C 0.8031 0.59379 0.69979 0.0
C351 C 0.78143 0.59377 0.7646 0.0
C352 C 0.22097 0.80504 0.7136 0.0
C353 C 0.24697 0.79811 0.67629 0.0
C354 C 0.20028 0.78389 0.77785 0.0
C355 C 0.20466 0.75487 0.8079 0.0
H356 H 0.21637 0.82698 0.69307 0.0
H357 H 0.18055 0.79038 0.80384 0.0
S358 S 0.26951 0.72548 0.73231 0.0
N359 N 0.27624 0.76017 0.67503 0.0
N360 N 0.23746 0.72053 0.79544 0.0
C361 C 0.23085 0.74781 0.77166 0.0
C362 C 0.25193 0.76935 0.7061 0.0
C363 C 0.41555 0.21837 0.71107 0.0
C364 C 0.44863 0.24242 0.67143 0.0
C365 C 0.41521 0.19721 0.77521 0.0
C366 C 0.44793 0.19914 0.80278 0.0
H367 H 0.38955 0.2159 0.69285 0.0
H368 H 0.38894 0.17926 0.80345 0.0
S369 S 0.5421 0.25739 0.71904 0.0
N370 N 0.51515 0.26663 0.66424 0.0
N371 N 0.51451 0.22693 0.78446 0.0
C372 C 0.48129 0.22306 0.76365 0.0
C373 C 0.48164 0.24463 0.69821 0.0
C374 C 0.23091 0.46877 0.68881 0.0
C375 C 0.19772 0.43674 0.66815 0.0
C376 C 0.25217 0.46892 0.75248 0.0
C377 C 0.24125 0.43705 0.79854 0.0
H378 H 0.24075 0.4941 0.65548 0.0
H379 H 0.27753 0.49433 0.76534 0.0
S380 S 0.15589 0.34613 0.77129 0.0
N381 N 0.15448 0.37233 0.70036 0.0
N382 N 0.19442 0.37262 0.81979 0.0
C383 C 0.20807 0.40476 0.7787 0.0
C384 C 0.18636 0.40461 0.71372 0.0
C385 C 0.80758 0.22285 0.75419 0.0
C386 C 0.79484 0.24154 0.80213 0.0
C387 C 0.78646 0.20119 0.69103 0.0
C388 C 0.75177 0.19738 0.67327 0.0
H389 H 0.83432 0.22533 0.76478 0.0
H390 H 0.79766 0.18772 0.65534 0.0
S391 S 0.70438 0.23804 0.78491 0.0
N392 N 0.7443 0.25306 0.8301 0.0
N393 N 0.70469 0.21245 0.7119 0.0
C394 C 0.73839 0.21536 0.72174 0.0
C395 C 0.75988 0.23739 0.78593 0.0
C396 C 0.34483 0.01133 0.30757 0.0
C397 C 0.32947 0.97287 0.30127 0.0
C398 C 0.3559 0.03383 0.24059 0.0
C399 C 0.35277 0.01837 0.16616 0.0
H400 H 0.35059 0.02423 0.36472 0.0
H401 H 0.37005 0.06357 0.24767 0.0
S402 S 0.31171 0.91902 0.11888 0.0
N403 N 0.30877 0.92005 0.21526 0.0
N404 N 0.33077 0.96245 0.08923 0.0
C405 C 0.33521 0.97979 0.15896 0.0
C406 C 0.32324 0.95692 0.22682 0.0
C407 C 0.34507 0.35924 0.31818 0.0
C408 C 0.35983 0.33562 0.31108 0.0
C409 C 0.33293 0.3701 0.25222 0.0
C410 C 0.33568 0.358 0.17736 0.0
H411 H 0.34494 0.37108 0.37448 0.0
H412 H 0.32396 0.39022 0.25909 0.0
S413 S 0.37029 0.29444 0.12799 0.0
N414 N 0.37427 0.29858 0.22427 0.0
N415 N 0.35226 0.31993 0.09958 0.0
C416 C 0.34837 0.33279 0.16985 0.0
C417 C 0.36019 0.32123 0.23716 0.0
C418 C 0.02967 0.35687 0.23708 0.0
C419 C 0.0149 0.35557 0.31175 0.0
C420 C 0.00706 0.34684 0.17041 0.0
C421 C 0.96908 0.33437 0.17717 0.0
H422 H 0.05921 0.3685 0.22952 0.0
H423 H 0.01965 0.3508 0.11308 0.0
S424 S 0.91655 0.32181 0.36011 0.0
N425 N 0.95971 0.33812 0.3892 0.0
N426 N 0.91712 0.31826 0.26381 0.0
C427 C 0.95359 0.33025 0.2518 0.0
C428 C 0.97659 0.34108 0.31933 0.0
C429 C 0.63175 0.95936 0.24448 0.0
C430 C 0.63868 0.97523 0.16945 0.0
C431 C 0.64358 0.98177 0.31113 0.0
C432 C 0.66334 0.02049 0.30419 0.0
H433 H 0.61458 0.92971 0.25177 0.0
H434 H 0.63521 0.96886 0.36833 0.0
S435 S 0.69171 0.07493 0.12022 0.0
N436 N 0.66856 0.0314 0.09129 0.0
N437 N 0.69198 0.07362 0.21699 0.0
C438 C 0.67305 0.03649 0.22943 0.0
C439 C 0.66031 0.01374 0.16167 0.0
C440 C 0.67335 0.64575 0.23181 0.0
C441 C 0.65472 0.64059 0.16028 0.0
C442 C 0.6625 0.6576 0.29829 0.0
C443 C 0.63352 0.66544 0.29394 0.0
H444 H 0.69423 0.63773 0.23796 0.0
H445 H 0.67511 0.65829 0.35424 0.0
S446 S 0.57962 0.66103 0.11807 0.0
N447 N 0.60853 0.64758 0.08724 0.0
N448 N 0.58878 0.67057 0.21203 0.0
C449 C 0.61688 0.66331 0.22149 0.0
C450 C 0.6274 0.65073 0.15442 0.0
C451 C 0.0118 0.66259 0.30207 0.0
C452 C 0.97385 0.63691 0.29602 0.0
C453 C 0.03445 0.67396 0.2353 0.0
C454 C 0.01971 0.65912 0.16147 0.0
H455 H 0.02436 0.67213 0.3591 0.0
H456 H 0.06399 0.69196 0.24242 0.0
S457 S 0.92137 0.59377 0.115 0.0
N458 N 0.92193 0.59959 0.21075 0.0
N459 N 0.96455 0.6201 0.08527 0.0
C460 C 0.9814 0.63525 0.15442 0.0
C461 C 0.95838 0.62427 0.22195 0.0
C462 C 0.64849 0.9824 0.6654 0.0
C463 C 0.66624 0.02106 0.67176 0.0
C464 C 0.63722 0.95996 0.73242 0.0
C465 C 0.64256 0.97573 0.80712 0.0
H466 H 0.64109 0.96943 0.60831 0.0
H467 H 0.62134 0.93022 0.72544 0.0
S468 S 0.69063 0.0755 0.8547 0.0
N469 N 0.69177 0.07423 0.75804 0.0
N470 N 0.66931 0.03196 0.88431 0.0
C471 C 0.6625 0.01434 0.81431 0.0
C472 C 0.67472 0.03713 0.74627 0.0
C473 C 0.66869 0.63266 0.72523 0.0
C474 C 0.66008 0.63957 0.80043 0.0
C475 C 0.65678 0.64347 0.65865 0.0
C476 C 0.63681 0.66219 0.66587 0.0
H477 H 0.68204 0.6163 0.71789 0.0
H478 H 0.66135 0.63532 0.60142 0.0
S479 S 0.61021 0.68931 0.85012 0.0
N480 N 0.63237 0.66778 0.87881 0.0
N481 N 0.61112 0.68933 0.75334 0.0
C482 C 0.63051 0.67164 0.74068 0.0
C483 C 0.64188 0.65994 0.80831 0.0
C484 C 0.9722 0.64813 0.72958 0.0
C485 C 0.98458 0.64047 0.6593 0.0
C486 C 0.99499 0.65976 0.79611 0.0
C487 C 0.03082 0.66474 0.79307 0.0
H488 H 0.94391 0.64226 0.73499 0.0
H489 H 0.98373 0.66243 0.85128 0.0
S490 S 0.07778 0.65341 0.62063 0.0
N491 N 0.03618 0.64249 0.58867 0.0
N492 N 0.07888 0.66466 0.71362 0.0
C493 C 0.04444 0.66013 0.72174 0.0
C494 C 0.02132 0.64797 0.65461 0.0
C495 C 0.3562 0.01486 0.66157 0.0
C496 C 0.33491 0.97618 0.66841 0.0
C497 C 0.36688 0.03734 0.72813 0.0
C498 C 0.35718 0.0216 0.80321 0.0
H499 H 0.36648 0.0276 0.60481 0.0
H500 H 0.38531 0.06683 0.7212 0.0
S501 S 0.29981 0.92216 0.8519 0.0
N502 N 0.30221 0.92335 0.75521 0.0
N503 N 0.32347 0.96565 0.88089 0.0
C504 C 0.33417 0.98322 0.81055 0.0
C505 C 0.32263 0.96041 0.74275 0.0
C506 C 0.32743 0.359 0.73644 0.0
C507 C 0.33845 0.35487 0.8118 0.0
C508 C 0.33985 0.34867 0.67005 0.0
C509 C 0.36272 0.33305 0.67755 0.0
H510 H 0.31174 0.37303 0.72844 0.0
H511 H 0.33334 0.35488 0.61251 0.0
S512 S 0.39567 0.31276 0.86229 0.0
N513 N 0.37113 0.33179 0.89055 0.0
N514 N 0.39335 0.31115 0.76562 0.0
C515 C 0.37146 0.32614 0.75267 0.0
C516 C 0.35955 0.33738 0.82004 0.0
C517 C 0.01435 0.36551 0.81725 0.0
C518 C 0.97688 0.33804 0.81179 0.0
C519 C 0.03767 0.37562 0.75204 0.0
C520 C 0.02423 0.35867 0.67934 0.0
H521 H 0.02519 0.38077 0.87121 0.0
H522 H 0.06565 0.39871 0.75709 0.0
S523 S 0.92926 0.28355 0.63528 0.0
N524 N 0.92811 0.29217 0.72934 0.0
N525 N 0.97212 0.31185 0.60589 0.0
C526 C 0.98759 0.32956 0.67405 0.0
C527 C 0.96382 0.31895 0.74078 0.0
C528 C 0.5657 0.13557 0.19041 0.0
C529 C 0.52974 0.10577 0.17798 0.0
C530 C 0.58706 0.13578 0.25393 0.0
C531 C 0.57334 0.10618 0.30756 0.0
H532 H 0.5777 0.15881 0.1502 0.0
H533 H 0.61479 0.15912 0.26031 0.0
S534 S 0.47939 0.0235 0.30685 0.0
N535 N 0.48031 0.04715 0.22832 0.0
N536 N 0.52061 0.04749 0.34737 0.0
C537 C 0.53715 0.07655 0.29689 0.0
C538 C 0.51533 0.07635 0.23226 0.0
C539 C 0.40401 0.54963 0.22235 0.0
C540 C 0.41907 0.53569 0.16742 0.0
C541 C 0.42496 0.57103 0.28613 0.0
C542 C 0.46168 0.5792 0.29736 0.0
H543 H 0.37555 0.54325 0.21711 0.0
H544 H 0.41201 0.58053 0.32783 0.0
S545 S 0.51587 0.55425 0.16368 0.0
N546 N 0.47423 0.53493 0.12421 0.0
N547 N 0.51343 0.57498 0.24367 0.0
C548 C 0.47751 0.56668 0.24112 0.0
C549 C 0.45626 0.54498 0.17632 0.0
C550 C 0.90996 0.47103 0.25931 0.0
C551 C 0.87734 0.4621 0.30059 0.0
C552 C 0.90981 0.44976 0.19612 0.0
C553 C 0.87699 0.4185 0.17096 0.0
H554 H 0.93604 0.49489 0.27557 0.0
H555 H 0.93582 0.45808 0.16677 0.0
S556 S 0.78376 0.38293 0.25909 0.0
N557 N 0.81109 0.41969 0.31169 0.0
N558 N 0.81068 0.37959 0.19279 0.0
C559 C 0.84398 0.40926 0.21135 0.0
C560 C 0.84417 0.43105 0.276 0.0
C561 C 0.4296 0.86088 0.28857 0.0
C562 C 0.41844 0.88747 0.29402 0.0
C563 C 0.45067 0.86067 0.22493 0.0
C564 C 0.46135 0.88706 0.16447 0.0
H565 H 0.42252 0.84043 0.33447 0.0
H566 H 0.45921 0.84008 0.22384 0.0
S567 S 0.43423 0.95881 0.145 0.0
N568 N 0.41625 0.93836 0.22956 0.0
N569 N 0.45622 0.93822 0.11028 0.0
C570 C 0.44942 0.9131 0.168 0.0
C571 C 0.42786 0.91323 0.23268 0.0
C572 C 0.5907 0.4462 0.21995 0.0
C573 C 0.57701 0.46302 0.16862 0.0
C574 C 0.56972 0.4248 0.28382 0.0
C575 C 0.53424 0.41943 0.29916 0.0
H576 H 0.61811 0.45 0.21154 0.0
H577 H 0.58169 0.41284 0.32214 0.0
S578 S 0.48387 0.45401 0.17802 0.0
N579 N 0.52444 0.47054 0.13456 0.0
N580 N 0.48521 0.43047 0.25453 0.0
C581 C 0.51983 0.43537 0.24737 0.0
C582 C 0.54113 0.45709 0.18221 0.0
C583 C 0.1435 0.55577 0.26551 0.0
C584 C 0.11024 0.53029 0.30272 0.0
C585 C 0.14376 0.57706 0.20157 0.0
C586 C 0.11077 0.57382 0.17179 0.0
H587 H 0.1697 0.55931 0.28556 0.0
H588 H 0.17019 0.5962 0.17533 0.0
S589 S 0.01605 0.51152 0.24875 0.0
N590 N 0.04325 0.50337 0.30525 0.0
N591 N 0.04376 0.54319 0.18544 0.0
C592 C 0.07725 0.54847 0.20852 0.0
C593 C 0.07698 0.5268 0.27372 0.0
C594 C 0.47872 0.91737 0.74432 0.0
C595 C 0.46426 0.8881 0.79899 0.0
C596 C 0.45771 0.91727 0.68005 0.0
C597 C 0.42146 0.88802 0.6683 0.0
H598 H 0.5067 0.94028 0.7504 0.0
H599 H 0.47018 0.93997 0.63862 0.0
S600 S 0.3694 0.80655 0.79854 0.0
N601 N 0.41056 0.83018 0.83952 0.0
N602 N 0.3711 0.83016 0.71942 0.0
C603 C 0.40639 0.85898 0.72344 0.0
C604 C 0.42776 0.859 0.7886 0.0
C605 C 0.56228 0.47408 0.75282 0.0
C606 C 0.58243 0.46282 0.80048 0.0
C607 C 0.54126 0.45268 0.68961 0.0
C608 C 0.53955 0.41909 0.67089 0.0
H609 H 0.56287 0.49985 0.76403 0.0
H610 H 0.52634 0.46276 0.655 0.0
S611 S 0.58642 0.37646 0.77833 0.0
N612 N 0.59891 0.41543 0.82528 0.0
N613 N 0.55944 0.37515 0.70621 0.0
C614 C 0.55969 0.40746 0.7178 0.0
C615 C 0.58111 0.42931 0.78251 0.0
C616 C 0.14652 0.55235 0.71988 0.0
C617 C 0.11601 0.53542 0.66879 0.0
C618 C 0.14684 0.5738 0.78332 0.0
C619 C 0.11661 0.57903 0.79815 0.0
H620 H 0.17006 0.54839 0.71188 0.0
H621 H 0.1706 0.5857 0.82193 0.0
S622 S 0.03198 0.54467 0.67618 0.0
N623 N 0.05616 0.52815 0.63364 0.0
N624 N 0.05677 0.56828 0.75236 0.0
C625 C 0.08651 0.56336 0.74588 0.0
C626 C 0.0862 0.54161 0.68142 0.0
C627 C 0.58659 0.13799 0.72087 0.0
C628 C 0.57499 0.10615 0.67489 0.0
C629 C 0.56556 0.13808 0.78475 0.0
C630 C 0.53206 0.10632 0.80541 0.0
H631 H 0.61235 0.16306 0.70802 0.0
H632 H 0.57586 0.16325 0.81847 0.0
S633 S 0.48797 0.01646 0.70067 0.0
N634 N 0.52685 0.0424 0.65252 0.0
N635 N 0.4874 0.04258 0.77223 0.0
C636 C 0.51989 0.07438 0.75936 0.0
C637 C 0.54131 0.07429 0.6943 0.0
C638 C 0.42991 0.57388 0.69496 0.0
C639 C 0.46268 0.5747 0.67185 0.0
C640 C 0.40901 0.55238 0.7587 0.0
C641 C 0.41998 0.53077 0.80219 0.0
H642 H 0.42004 0.58977 0.66327 0.0
H643 H 0.38385 0.55252 0.77342 0.0
S644 S 0.50483 0.52481 0.76893 0.0
N645 N 0.50591 0.55299 0.69973 0.0
N646 N 0.4667 0.51265 0.81924 0.0
C647 C 0.45294 0.53161 0.78029 0.0
C648 C 0.47423 0.55352 0.71532 0.0
C649 C 0.9136 0.46269 0.69356 0.0
C650 C 0.88172 0.4641 0.67213 0.0
C651 C 0.91333 0.44133 0.75734 0.0
C652 C 0.88118 0.4204 0.80247 0.0
H653 H 0.93902 0.47801 0.66052 0.0
H654 H 0.93853 0.44097 0.77072 0.0
S655 S 0.79094 0.41643 0.77455 0.0
N656 N 0.81746 0.44388 0.70383 0.0
N657 N 0.81697 0.40378 0.82326 0.0
C658 C 0.84921 0.42192 0.78241 0.0
C659 C 0.84948 0.44371 0.71749 0.0
loop_
_geom_bond_atom_site_label_1
_geom_bond_atom_site_label_2
_geom_bond_distance
_geom_bond_site_symmetry_2
_ccdc_geom_bond_type
Sc0 O3 2.025 . S
Sc0 O10 2.105 1_554 S
Sc0 O13 2.105 . S
Sc0 O16 2.105 . S
Sc0 O19 2.105 1_554 S
Sc1 O3 2.025 . S
Sc1 O11 2.105 1_554 S
Sc1 O15 2.105 . S
Sc1 O17 2.105 . S
Sc1 O21 2.105 1_554 S
Sc2 O3 2.025 . S
Sc2 O12 2.105 1_554 S
Sc2 O14 2.105 . S
Sc2 O18 2.105 . S
Sc2 O20 2.105 1_554 S
O3 Sc0 2.025 . S
O3 Sc1 2.025 . S
O3 Sc2 2.025 . S
C4 O10 1.268 . S
C4 O20 1.268 . S
C5 O11 1.268 . S
C5 O19 1.268 . S
C6 O12 1.268 . S
C6 O21 1.268 . S
C7 O13 1.268 . S
C7 O17 1.268 . S
C8 O14 1.268 . S
C8 O16 1.268 . S
C9 O15 1.268 . S
C9 O18 1.268 . S
O10 Sc0 2.105 1_556 S
O10 C4 1.268 . S
O11 Sc1 2.105 1_556 S
O11 C5 1.268 . S
O12 Sc2 2.105 1_556 S
O12 C6 1.268 . S
O13 Sc0 2.105 . S
O13 C7 1.268 . S
O14 Sc2 2.105 . S
O14 C8 1.268 . S
O15 Sc1 2.105 . S
O15 C9 1.268 . S
O16 Sc0 2.105 . S
O16 C8 1.268 . S
O17 Sc1 2.105 . S
O17 C7 1.268 . S
O18 Sc2 2.105 . S
O18 C9 1.268 . S
O19 Sc0 2.105 1_556 S
O19 C5 1.268 . S
O20 Sc2 2.105 1_556 S
O20 C4 1.268 . S
O21 Sc1 2.105 1_556 S
O21 C6 1.268 . S
Sc22 O25 2.025 . S
Sc22 O32 2.105 1_554 S
Sc22 O35 2.105 . S
Sc22 O38 2.105 . S
Sc22 O41 2.105 1_554 S
Sc23 O25 2.025 . S
Sc23 O33 2.105 1_554 S
Sc23 O37 2.105 . S
Sc23 O39 2.105 . S
Sc23 O43 2.105 1_554 S
Sc24 O25 2.025 . S
Sc24 O34 2.105 1_554 S
Sc24 O36 2.105 . S
Sc24 O40 2.105 . S
Sc24 O42 2.105 1_554 S
O25 Sc22 2.025 . S
O25 Sc23 2.025 . S
O25 Sc24 2.025 . S
C26 O32 1.268 . S
C26 O42 1.268 . S
C27 O33 1.268 . S
C27 O41 1.268 . S
C28 O34 1.268 . S
C28 O43 1.268 . S
C29 O35 1.268 . S
C29 O39 1.268 . S
C30 O36 1.268 . S
C30 O38 1.268 . S
C31 O37 1.268 . S
C31 O40 1.268 . S
O32 Sc22 2.105 1_556 S
O32 C26 1.268 . S
O33 Sc23 2.105 1_556 S
O33 C27 1.268 . S
O34 Sc24 2.105 1_556 S
O34 C28 1.268 . S
O35 Sc22 2.105 . S
O35 C29 1.268 . S
O36 Sc24 2.105 . S
O36 C30 1.268 . S
O37 Sc23 2.105 . S
O37 C31 1.268 . S
O38 Sc22 2.105 . S
O38 C30 1.268 . S
O39 Sc23 2.105 . S
O39 C29 1.268 . S
O40 Sc24 2.105 . S
O40 C31 1.268 . S
O41 Sc22 2.105 1_556 S
O41 C27 1.268 . S
O42 Sc24 2.105 1_556 S
O42 C26 1.268 . S
O43 Sc23 2.105 1_556 S
O43 C28 1.268 . S
Sc44 O47 2.025 . S
Sc44 O54 2.105 1_554 S
Sc44 O57 2.105 . S
Sc44 O60 2.105 . S
Sc44 O63 2.105 1_554 S
Sc45 O47 2.025 . S
Sc45 O55 2.105 1_554 S
Sc45 O59 2.105 . S
Sc45 O61 2.105 . S
Sc45 O65 2.105 1_554 S
Sc46 O47 2.025 . S
Sc46 O56 2.105 1_554 S
Sc46 O58 2.105 . S
Sc46 O62 2.105 . S
Sc46 O64 2.105 1_554 S
O47 Sc44 2.025 . S
O47 Sc45 2.025 . S
O47 Sc46 2.025 . S
C48 O54 1.268 . S
C48 O64 1.268 . S
C49 O55 1.268 . S
C49 O63 1.268 . S
C50 O56 1.268 . S
C50 O65 1.268 . S
C51 O57 1.268 . S
C51 O61 1.268 . S
C52 O58 1.268 . S
C52 O60 1.268 . S
C53 O59 1.268 . S
C53 O62 1.268 . S
O54 Sc44 2.105 1_556 S
O54 C48 1.268 . S
O55 Sc45 2.105 1_556 S
O55 C49 1.268 . S
O56 Sc46 2.105 1_556 S
O56 C50 1.268 . S
O57 Sc44 2.105 . S
O57 C51 1.268 . S
O58 Sc46 2.105 . S
O58 C52 1.268 . S
O59 Sc45 2.105 . S
O59 C53 1.268 . S
O60 Sc44 2.105 . S
O60 C52 1.268 . S
O61 Sc45 2.105 . S
O61 C51 1.268 . S
O62 Sc46 2.105 . S
O62 C53 1.268 . S
O63 Sc44 2.105 1_556 S
O63 C49 1.268 . S
O64 Sc46 2.105 1_556 S
O64 C48 1.268 . S
O65 Sc45 2.105 1_556 S
O65 C50 1.268 . S
Sc66 O69 2.025 . S
Sc66 O76 2.105 1_554 S
Sc66 O79 2.105 . S
Sc66 O82 2.105 . S
Sc66 O85 2.105 1_554 S
Sc67 O69 2.025 . S
Sc67 O77 2.105 1_554 S
Sc67 O81 2.105 . S
Sc67 O83 2.105 . S
Sc67 O87 2.105 1_554 S
Sc68 O69 2.025 . S
Sc68 O78 2.105 1_554 S
Sc68 O80 2.105 . S
Sc68 O84 2.105 . S
Sc68 O86 2.105 1_554 S
O69 Sc66 2.025 . S
O69 Sc67 2.025 . S
O69 Sc68 2.025 . S
C70 O76 1.268 . S
C70 O86 1.268 . S
C71 O77 1.268 . S
C71 O85 1.268 . S
C72 O78 1.268 . S
C72 O87 1.268 . S
C73 O79 1.268 . S
C73 O83 1.268 . S
C74 O80 1.268 . S
C74 O82 1.268 . S
C75 O81 1.268 . S
C75 O84 1.268 . S
O76 Sc66 2.105 1_556 S
O76 C70 1.268 . S
O77 Sc67 2.105 1_556 S
O77 C71 1.268 . S
O78 Sc68 2.105 1_556 S
O78 C72 1.268 . S
O79 Sc66 2.105 . S
O79 C73 1.268 . S
O80 Sc68 2.105 . S
O80 C74 1.268 . S
O81 Sc67 2.105 . S
O81 C75 1.268 . S
O82 Sc66 2.105 . S
O82 C74 1.268 . S
O83 Sc67 2.105 . S
O83 C73 1.268 . S
O84 Sc68 2.105 . S
O84 C75 1.268 . S
O85 Sc66 2.105 1_556 S
O85 C71 1.268 . S
O86 Sc68 2.105 1_556 S
O86 C70 1.268 . S
O87 Sc67 2.105 1_556 S
O87 C72 1.268 . S
Sc88 O91 2.025 . S
Sc88 O98 2.105 1_554 S
Sc88 O101 2.105 . S
Sc88 O104 2.105 . S
Sc88 O107 2.105 1_554 S
Sc89 O91 2.025 . S
Sc89 O99 2.105 1_554 S
Sc89 O103 2.105 . S
Sc89 O105 2.105 . S
Sc89 O109 2.105 1_554 S
Sc90 O91 2.025 . S
Sc90 O100 2.105 1_554 S
Sc90 O102 2.105 . S
Sc90 O106 2.105 . S
Sc90 O108 2.105 1_554 S
O91 Sc88 2.025 . S
O91 Sc89 2.025 . S
O91 Sc90 2.025 . S
C92 O98 1.268 . S
C92 O108 1.268 . S
C93 O99 1.268 . S
C93 O107 1.268 . S
C94 O100 1.268 . S
C94 O109 1.268 . S
C95 O101 1.268 . S
C95 O105 1.268 . S
C96 O102 1.268 . S
C96 O104 1.268 . S
C97 O103 1.268 . S
C97 O106 1.268 . S
O98 Sc88 2.105 1_556 S
O98 C92 1.268 . S
O99 Sc89 2.105 1_556 S
O99 C93 1.268 . S
O100 Sc90 2.105 1_556 S
O100 C94 1.268 . S
O101 Sc88 2.105 . S
O101 C95 1.268 . S
O102 Sc90 2.105 . S
O102 C96 1.268 . S
O103 Sc89 2.105 . S
O103 C97 1.268 . S
O104 Sc88 2.105 . S
O104 C96 1.268 . S
O105 Sc89 2.105 . S
O105 C95 1.268 . S
O106 Sc90 2.105 . S
O106 C97 1.268 . S
O107 Sc88 2.105 1_556 S
O107 C93 1.268 . S
O108 Sc90 2.105 1_556 S
O108 C92 1.268 . S
O109 Sc89 2.105 1_556 S
O109 C94 1.268 . S
Sc110 O113 2.025 . S
Sc110 O120 2.105 1_554 S
Sc110 O123 2.105 . S
Sc110 O126 2.105 . S
Sc110 O129 2.105 1_554 S
Sc111 O113 2.025 . S
Sc111 O121 2.105 1_554 S
Sc111 O125 2.105 . S
Sc111 O127 2.105 . S
Sc111 O131 2.105 1_554 S
Sc112 O113 2.025 . S
Sc112 O122 2.105 1_554 S
Sc112 O124 2.105 . S
Sc112 O128 2.105 . S
Sc112 O130 2.105 1_554 S
O113 Sc110 2.025 . S
O113 Sc111 2.025 . S
O113 Sc112 2.025 . S
C114 O120 1.268 . S
C114 O130 1.268 . S
C115 O121 1.268 . S
C115 O129 1.268 . S
C116 O122 1.268 . S
C116 O131 1.268 . S
C117 O123 1.268 . S
C117 O127 1.268 . S
C118 O124 1.268 . S
C118 O126 1.268 . S
C119 O125 1.268 . S
C119 O128 1.268 . S
O120 Sc110 2.105 1_556 S
O120 C114 1.268 . S
O121 Sc111 2.105 1_556 S
O121 C115 1.268 . S
O122 Sc112 2.105 1_556 S
O122 C116 1.268 . S
O123 Sc110 2.105 . S
O123 C117 1.268 . S
O124 Sc112 2.105 . S
O124 C118 1.268 . S
O125 Sc111 2.105 . S
O125 C119 1.268 . S
O126 Sc110 2.105 . S
O126 C118 1.268 . S
O127 Sc111 2.105 . S
O127 C117 1.268 . S
O128 Sc112 2.105 . S
O128 C119 1.268 . S
O129 Sc110 2.105 1_556 S
O129 C115 1.268 . S
O130 Sc112 2.105 1_556 S
O130 C114 1.268 . S
O131 Sc111 2.105 1_556 S
O131 C116 1.268 . S
Sc132 O135 2.025 . S
Sc132 O142 2.105 . S
Sc132 O145 2.105 . S
Sc132 O148 2.105 . S
Sc132 O151 2.105 . S
Sc133 O135 2.025 . S
Sc133 O143 2.105 . S
Sc133 O147 2.105 . S
Sc133 O149 2.105 . S
Sc133 O153 2.105 . S
Sc134 O135 2.025 . S
Sc134 O144 2.105 . S
Sc134 O146 2.105 . S
Sc134 O150 2.105 . S
Sc134 O152 2.105 . S
O135 Sc132 2.025 . S
O135 Sc133 2.025 . S
O135 Sc134 2.025 . S
C136 O142 1.268 . S
C136 O152 1.268 . S
C137 O143 1.268 . S
C137 O151 1.268 . S
C138 O144 1.268 . S
C138 O153 1.268 . S
C139 O145 1.268 . S
C139 O149 1.268 . S
C140 O146 1.268 . S
C140 O148 1.268 . S
C141 O147 1.268 . S
C141 O150 1.268 . S
O142 Sc132 2.105 . S
O142 C136 1.268 . S
O143 Sc133 2.105 . S
O143 C137 1.268 . S
O144 Sc134 2.105 . S
O144 C138 1.268 . S
O145 Sc132 2.105 . S
O145 C139 1.268 . S
O146 Sc134 2.105 . S
O146 C140 1.268 . S
O147 Sc133 2.105 . S
O147 C141 1.268 . S
O148 Sc132 2.105 . S
O148 C140 1.268 . S
O149 Sc133 2.105 . S
O149 C139 1.268 . S
O150 Sc134 2.105 . S
O150 C141 1.268 . S
O151 Sc132 2.105 . S
O151 C137 1.268 . S
O152 Sc134 2.105 . S
O152 C136 1.268 . S
O153 Sc133 2.105 . S
O153 C138 1.268 . S
Sc154 O157 2.025 . S
Sc154 O164 2.105 . S
Sc154 O167 2.105 . S
Sc154 O170 2.105 . S
Sc154 O173 2.105 . S
Sc155 O157 2.025 . S
Sc155 O165 2.105 . S
Sc155 O169 2.105 . S
Sc155 O171 2.105 . S
Sc155 O175 2.105 . S
Sc156 O157 2.025 . S
Sc156 O166 2.105 . S
Sc156 O168 2.105 . S
Sc156 O172 2.105 . S
Sc156 O174 2.105 . S
O157 Sc154 2.025 . S
O157 Sc155 2.025 . S
O157 Sc156 2.025 . S
C158 O164 1.268 . S
C158 O174 1.268 . S
C159 O165 1.268 . S
C159 O173 1.268 . S
C160 O166 1.268 . S
C160 O175 1.268 . S
C161 O167 1.268 . S
C161 O171 1.268 . S
C162 O168 1.268 . S
C162 O170 1.268 . S
C163 O169 1.268 . S
C163 O172 1.268 . S
O164 Sc154 2.105 . S
O164 C158 1.268 . S
O165 Sc155 2.105 . S
O165 C159 1.268 . S
O166 Sc156 2.105 . S
O166 C160 1.268 . S
O167 Sc154 2.105 . S
O167 C161 1.268 . S
O168 Sc156 2.105 . S
O168 C162 1.268 . S
O169 Sc155 2.105 . S
O169 C163 1.268 . S
O170 Sc154 2.105 . S
O170 C162 1.268 . S
O171 Sc155 2.105 . S
O171 C161 1.268 . S
O172 Sc156 2.105 . S
O172 C163 1.268 . S
O173 Sc154 2.105 . S
O173 C159 1.268 . S
O174 Sc156 2.105 . S
O174 C158 1.268 . S
O175 Sc155 2.105 . S
O175 C160 1.268 . S
Sc176 O179 2.025 . S
Sc176 O186 2.105 . S
Sc176 O189 2.105 . S
Sc176 O192 2.105 . S
Sc176 O195 2.105 . S
Sc177 O179 2.025 . S
Sc177 O187 2.105 . S
Sc177 O191 2.105 . S
Sc177 O193 2.105 . S
Sc177 O197 2.105 . S
Sc178 O179 2.025 . S
Sc178 O188 2.105 . S
Sc178 O190 2.105 . S
Sc178 O194 2.105 . S
Sc178 O196 2.105 . S
O179 Sc176 2.025 . S
O179 Sc177 2.025 . S
O179 Sc178 2.025 . S
C180 O186 1.268 . S
C180 O196 1.268 . S
C181 O187 1.268 . S
C181 O195 1.268 . S
C182 O188 1.268 . S
C182 O197 1.268 . S
C183 O189 1.268 . S
C183 O193 1.268 . S
C184 O190 1.268 . S
C184 O192 1.268 . S
C185 O191 1.268 . S
C185 O194 1.268 . S
O186 Sc176 2.105 . S
O186 C180 1.268 . S
O187 Sc177 2.105 . S
O187 C181 1.268 . S
O188 Sc178 2.105 . S
O188 C182 1.268 . S
O189 Sc176 2.105 . S
O189 C183 1.268 . S
O190 Sc178 2.105 . S
O190 C184 1.268 . S
O191 Sc177 2.105 . S
O191 C185 1.268 . S
O192 Sc176 2.105 . S
O192 C184 1.268 . S
O193 Sc177 2.105 . S
O193 C183 1.268 . S
O194 Sc178 2.105 . S
O194 C185 1.268 . S
O195 Sc176 2.105 . S
O195 C181 1.268 . S
O196 Sc178 2.105 . S
O196 C180 1.268 . S
O197 Sc177 2.105 . S
O197 C182 1.268 . S
Sc198 O201 2.025 . S
Sc198 O208 2.105 . S
Sc198 O211 2.105 . S
Sc198 O214 2.105 . S
Sc198 O217 2.105 . S
Sc199 O201 2.025 . S
Sc199 O209 2.105 . S
Sc199 O213 2.105 . S
Sc199 O215 2.105 . S
Sc199 O219 2.105 . S
Sc200 O201 2.025 . S
Sc200 O210 2.105 . S
Sc200 O212 2.105 . S
Sc200 O216 2.105 . S
Sc200 O218 2.105 . S
O201 Sc198 2.025 . S
O201 Sc199 2.025 . S
O201 Sc200 2.025 . S
C202 O208 1.268 . S
C202 O218 1.268 . S
C203 O209 1.268 . S
C203 O217 1.268 . S
C204 O210 1.268 . S
C204 O219 1.268 . S
C205 O211 1.268 . S
C205 O215 1.268 . S
C206 O212 1.268 . S
C206 O214 1.268 . S
C207 O213 1.268 . S
C207 O216 1.268 . S
O208 Sc198 2.105 . S
O208 C202 1.268 . S
O209 Sc199 2.105 . S
O209 C203 1.268 . S
O210 Sc200 2.105 . S
O210 C204 1.268 . S
O211 Sc198 2.105 . S
O211 C205 1.268 . S
O212 Sc200 2.105 . S
O212 C206 1.268 . S
O213 Sc199 2.105 . S
O213 C207 1.268 . S
O214 Sc198 2.105 . S
O214 C206 1.268 . S
O215 Sc199 2.105 . S
O215 C205 1.268 . S
O216 Sc200 2.105 . S
O216 C207 1.268 . S
O217 Sc198 2.105 . S
O217 C203 1.268 . S
O218 Sc200 2.105 . S
O218 C202 1.268 . S
O219 Sc199 2.105 . S
O219 C204 1.268 . S
Sc220 O223 2.025 . S
Sc220 O230 2.105 . S
Sc220 O233 2.105 . S
Sc220 O236 2.105 . S
Sc220 O239 2.105 . S
Sc221 O223 2.025 . S
Sc221 O231 2.105 . S
Sc221 O235 2.105 . S
Sc221 O237 2.105 . S
Sc221 O241 2.105 . S
Sc222 O223 2.025 . S
Sc222 O232 2.105 . S
Sc222 O234 2.105 . S
Sc222 O238 2.105 . S
Sc222 O240 2.105 . S
O223 Sc220 2.025 . S
O223 Sc221 2.025 . S
O223 Sc222 2.025 . S
C224 O230 1.268 . S
C224 O240 1.268 . S
C225 O231 1.268 . S
C225 O239 1.268 . S
C226 O232 1.268 . S
C226 O241 1.268 . S
C227 O233 1.268 . S
C227 O237 1.268 . S
C228 O234 1.268 . S
C228 O236 1.268 . S
C229 O235 1.268 . S
C229 O238 1.268 . S
O230 Sc220 2.105 . S
O230 C224 1.268 . S
O231 Sc221 2.105 . S
O231 C225 1.268 . S
O232 Sc222 2.105 . S
O232 C226 1.268 . S
O233 Sc220 2.105 . S
O233 C227 1.268 . S
O234 Sc222 2.105 . S
O234 C228 1.268 . S
O235 Sc221 2.105 . S
O235 C229 1.268 . S
O236 Sc220 2.105 . S
O236 C228 1.268 . S
O237 Sc221 2.105 . S
O237 C227 1.268 . S
O238 Sc222 2.105 . S
O238 C229 1.268 . S
O239 Sc220 2.105 . S
O239 C225 1.268 . S
O240 Sc222 2.105 . S
O240 C224 1.268 . S
O241 Sc221 2.105 . S
O241 C226 1.268 . S
Sc242 O245 2.025 . S
Sc242 O252 2.105 . S
Sc242 O255 2.105 . S
Sc242 O258 2.105 . S
Sc242 O261 2.105 . S
Sc243 O245 2.025 . S
Sc243 O253 2.105 . S
Sc243 O257 2.105 . S
Sc243 O259 2.105 . S
Sc243 O263 2.105 . S
Sc244 O245 2.025 . S
Sc244 O254 2.105 . S
Sc244 O256 2.105 . S
Sc244 O260 2.105 . S
Sc244 O262 2.105 . S
O245 Sc242 2.025 . S
O245 Sc243 2.025 . S
O245 Sc244 2.025 . S
C246 O252 1.268 . S
C246 O262 1.268 . S
C247 O253 1.268 . S
C247 O261 1.268 . S
C248 O254 1.268 . S
C248 O263 1.268 . S
C249 O255 1.268 . S
C249 O259 1.268 . S
C250 O256 1.268 . S
C250 O258 1.268 . S
C251 O257 1.268 . S
C251 O260 1.268 . S
O252 Sc242 2.105 . S
O252 C246 1.268 . S
O253 Sc243 2.105 . S
O253 C247 1.268 . S
O254 Sc244 2.105 . S
O254 C248 1.268 . S
O255 Sc242 2.105 . S
O255 C249 1.268 . S
O256 Sc244 2.105 . S
O256 C250 1.268 . S
O257 Sc243 2.105 . S
O257 C251 1.268 . S
O258 Sc242 2.105 . S
O258 C250 1.268 . S
O259 Sc243 2.105 . S
O259 C249 1.268 . S
O260 Sc244 2.105 . S
O260 C251 1.268 . S
O261 Sc242 2.105 . S
O261 C247 1.268 . S
O262 Sc244 2.105 . S
O262 C246 1.268 . S
O263 Sc243 2.105 . S
O263 C248 1.268 . S
C264 C265 1.369 . S
C264 C266 1.419 . S
C264 H268 0.930 . S
C265 C264 1.369 . S
C265 C274 1.429 . S
C266 C264 1.419 . S
C266 C267 1.363 . S
C266 H269 0.929 . S
C267 C266 1.363 . S
C267 C273 1.428 . S
H268 C264 0.930 . S
H269 C266 0.929 . S
S270 N271 1.613 . S
S270 N272 1.610 . S
N271 S270 1.613 . S
N271 C274 1.350 . S
N272 S270 1.610 . S
N272 C273 1.351 . S
C273 C267 1.428 . S
C273 N272 1.351 . S
C273 C274 1.434 . S
C274 C265 1.429 . S
C274 N271 1.350 . S
C274 C273 1.434 . S
C275 C276 1.369 . S
C275 C277 1.419 . S
C275 H279 0.930 . S
C276 C275 1.369 . S
C276 C285 1.429 . S
C277 C275 1.419 . S
C277 C278 1.363 . S
C277 H280 0.929 . S
C278 C277 1.363 . S
C278 C284 1.428 . S
H279 C275 0.930 . S
H280 C277 0.929 . S
S281 N282 1.613 . S
S281 N283 1.610 . S
N282 S281 1.613 . S
N282 C285 1.350 . S
N283 S281 1.610 . S
N283 C284 1.351 . S
C284 C278 1.428 . S
C284 N283 1.351 . S
C284 C285 1.434 . S
C285 C276 1.429 . S
C285 N282 1.350 . S
C285 C284 1.434 . S
C286 C287 1.369 . S
C286 C288 1.419 . S
C286 H290 0.930 . S
C287 C286 1.369 . S
C287 C296 1.429 . S
C288 C286 1.419 . S
C288 C289 1.363 . S
C288 H291 0.929 . S
C289 C288 1.363 . S
C289 C295 1.428 . S
H290 C286 0.930 . S
H291 C288 0.929 . S
S292 N293 1.613 . S
S292 N294 1.610 . S
N293 S292 1.613 . S
N293 C296 1.350 . S
N294 S292 1.610 . S
N294 C295 1.351 . S
C295 C289 1.428 . S
C295 N294 1.351 . S
C295 C296 1.434 . S
C296 C287 1.429 . S
C296 N293 1.350 . S
C296 C295 1.434 . S
C297 C298 1.369 . S
C297 C299 1.419 . S
C297 H301 0.930 . S
C298 C297 1.369 . S
C298 C307 1.429 . S
C299 C297 1.419 . S
C299 C300 1.363 . S
C299 H302 0.929 . S
C300 C299 1.363 . S
C300 C306 1.428 . S
H301 C297 0.930 . S
H302 C299 0.929 . S
S303 N304 1.613 . S
S303 N305 1.610 . S
N304 S303 1.613 . S
N304 C307 1.350 . S
N305 S303 1.610 . S
N305 C306 1.351 . S
C306 C300 1.428 . S
C306 N305 1.351 . S
C306 C307 1.434 . S
C307 C298 1.429 . S
C307 N304 1.350 . S
C307 C306 1.434 . S
C308 C309 1.369 . S
C308 C310 1.419 . S
C308 H312 0.930 . S
C309 C308 1.369 . S
C309 C318 1.429 . S
C310 C308 1.419 . S
C310 C311 1.363 . S
C310 H313 0.929 . S
C311 C310 1.363 . S
C311 C317 1.428 . S
H312 C308 0.930 . S
H313 C310 0.929 . S
S314 N315 1.613 . S
S314 N316 1.610 . S
N315 S314 1.613 . S
N315 C318 1.350 . S
N316 S314 1.610 . S
N316 C317 1.351 . S
C317 C311 1.428 . S
C317 N316 1.351 . S
C317 C318 1.434 . S
C318 C309 1.429 . S
C318 N315 1.350 . S
C318 C317 1.434 . S
C319 C320 1.369 . S
C319 C321 1.419 . S
C319 H323 0.930 . S
C320 C319 1.369 . S
C320 C329 1.429 . S
C321 C319 1.419 . S
C321 C322 1.363 . S
C321 H324 0.929 . S
C322 C321 1.363 . S
C322 C328 1.428 . S
H323 C319 0.930 . S
H324 C321 0.929 . S
S325 N326 1.613 . S
S325 N327 1.610 . S
N326 S325 1.613 . S
N326 C329 1.350 . S
N327 S325 1.610 . S
N327 C328 1.351 . S
C328 C322 1.428 . S
C328 N327 1.351 . S
C328 C329 1.434 . S
C329 C320 1.429 . S
C329 N326 1.350 . S
C329 C328 1.434 . S
C330 C331 1.369 . S
C330 C332 1.419 . S
C330 H334 0.930 . S
C331 C330 1.369 . S
C331 C340 1.429 . S
C332 C330 1.419 . S
C332 C333 1.363 . S
C332 H335 0.929 . S
C333 C332 1.363 . S
C333 C339 1.428 . S
H334 C330 0.930 . S
H335 C332 0.929 . S
S336 N337 1.613 . S
S336 N338 1.610 . S
N337 S336 1.613 . S
N337 C340 1.350 . S
N338 S336 1.610 . S
N338 C339 1.351 . S
C339 C333 1.428 . S
C339 N338 1.351 . S
C339 C340 1.434 . S
C340 C331 1.429 . S
C340 N337 1.350 . S
C340 C339 1.434 . S
C341 C342 1.369 . S
C341 C343 1.419 . S
C341 H345 0.930 . S
C342 C341 1.369 . S
C342 C351 1.429 . S
C343 C341 1.419 . S
C343 C344 1.363 . S
C343 H346 0.929 . S
C344 C343 1.363 . S
C344 C350 1.428 . S
H345 C341 0.930 . S
H346 C343 0.929 . S
S347 N348 1.613 . S
S347 N349 1.610 . S
N348 S347 1.613 . S
N348 C351 1.350 . S
N349 S347 1.610 . S
N349 C350 1.351 . S
C350 C344 1.428 . S
C350 N349 1.351 . S
C350 C351 1.434 . S
C351 C342 1.429 . S
C351 N348 1.350 . S
C351 C350 1.434 . S
C352 C353 1.369 . S
C352 C354 1.419 . S
C352 H356 0.930 . S
C353 C352 1.369 . S
C353 C362 1.429 . S
C354 C352 1.419 . S
C354 C355 1.363 . S
C354 H357 0.929 . S
C355 C354 1.363 . S
C355 C361 1.428 . S
H356 C352 0.930 . S
H357 C354 0.929 . S
S358 N359 1.613 . S
S358 N360 1.610 . S
N359 S358 1.613 . S
N359 C362 1.350 . S
N360 S358 1.610 . S
N360 C361 1.351 . S
C361 C355 1.428 . S
C361 N360 1.351 . S
C361 C362 1.434 . S
C362 C353 1.429 . S
C362 N359 1.350 . S
C362 C361 1.434 . S
C363 C364 1.369 . S
C363 C365 1.419 . S
C363 H367 0.930 . S
C364 C363 1.369 . S
C364 C373 1.429 . S
C365 C363 1.419 . S
C365 C366 1.363 . S
C365 H368 0.929 . S
C366 C365 1.363 . S
C366 C372 1.428 . S
H367 C363 0.930 . S
H368 C365 0.929 . S
S369 N370 1.613 . S
S369 N371 1.610 . S
N370 S369 1.613 . S
N370 C373 1.350 . S
N371 S369 1.610 . S
N371 C372 1.351 . S
C372 C366 1.428 . S
C372 N371 1.351 . S
C372 C373 1.434 . S
C373 C364 1.429 . S
C373 N370 1.350 . S
C373 C372 1.434 . S
C374 C375 1.369 . S
C374 C376 1.419 . S
C374 H378 0.930 . S
C375 C374 1.369 . S
C375 C384 1.429 . S
C376 C374 1.419 . S
C376 C377 1.363 . S
C376 H379 0.929 . S
C377 C376 1.363 . S
C377 C383 1.428 . S
H378 C374 0.930 . S
H379 C376 0.929 . S
S380 N381 1.613 . S
S380 N382 1.610 . S
N381 S380 1.613 . S
N381 C384 1.350 . S
N382 S380 1.610 . S
N382 C383 1.351 . S
C383 C377 1.428 . S
C383 N382 1.351 . S
C383 C384 1.434 . S
C384 C375 1.429 . S
C384 N381 1.350 . S
C384 C383 1.434 . S
C385 C386 1.369 . S
C385 C387 1.419 . S
C385 H389 0.930 . S
C386 C385 1.369 . S
C386 C395 1.429 . S
C387 C385 1.419 . S
C387 C388 1.363 . S
C387 H390 0.929 . S
C388 C387 1.363 . S
C388 C394 1.428 . S
H389 C385 0.930 . S
H390 C387 0.929 . S
S391 N392 1.613 . S
S391 N393 1.610 . S
N392 S391 1.613 . S
N392 C395 1.350 . S
N393 S391 1.610 . S
N393 C394 1.351 . S
C394 C388 1.428 . S
C394 N393 1.351 . S
C394 C395 1.434 . S
C395 C386 1.429 . S
C395 N392 1.350 . S
C395 C394 1.434 . S
C396 C397 1.369 1_545 S
C396 C398 1.419 . S
C396 H400 0.930 . S
C397 C396 1.369 1_565 S
C397 C406 1.429 . S
C398 C396 1.419 . S
C398 C399 1.363 . S
C398 H401 0.929 . S
C399 C398 1.363 . S
C399 C405 1.428 1_545 S
H400 C396 0.930 . S
H401 C398 0.929 . S
S402 N403 1.613 . S
S402 N404 1.610 . S
N403 S402 1.613 . S
N403 C406 1.350 . S
N404 S402 1.610 . S
N404 C405 1.351 . S
C405 C399 1.428 1_565 S
C405 N404 1.351 . S
C405 C406 1.434 . S
C406 C397 1.429 . S
C406 N403 1.350 . S
C406 C405 1.434 . S
C407 C408 1.369 . S
C407 C409 1.419 . S
C407 H411 0.930 . S
C408 C407 1.369 . S
C408 C417 1.429 . S
C409 C407 1.419 . S
C409 C410 1.363 . S
C409 H412 0.929 . S
C410 C409 1.363 . S
C410 C416 1.428 . S
H411 C407 0.930 . S
H412 C409 0.929 . S
S413 N414 1.613 . S
S413 N415 1.610 . S
N414 S413 1.613 . S
N414 C417 1.350 . S
N415 S413 1.610 . S
N415 C416 1.351 . S
C416 C410 1.428 . S
C416 N415 1.351 . S
C416 C417 1.434 . S
C417 C408 1.429 . S
C417 N414 1.350 . S
C417 C416 1.434 . S
C418 C419 1.369 . S
C418 C420 1.419 1_455 S
C418 H422 0.930 . S
C419 C418 1.369 . S
C419 C428 1.429 . S
C420 C418 1.419 1_655 S
C420 C421 1.363 . S
C420 H423 0.929 . S
C421 C420 1.363 . S
C421 C427 1.428 . S
H422 C418 0.930 . S
H423 C420 0.929 . S
S424 N425 1.613 1_655 S
S424 N426 1.610 . S
N425 S424 1.613 1_455 S
N425 C428 1.350 . S
N426 S424 1.610 . S
N426 C427 1.351 . S
C427 C421 1.428 . S
C427 N426 1.351 . S
C427 C428 1.434 1_655 S
C428 C419 1.429 . S
C428 N425 1.350 . S
C428 C427 1.434 1_455 S
C429 C430 1.369 . S
C429 C431 1.419 1_565 S
C429 H433 0.930 . S
C430 C429 1.369 . S
C430 C439 1.429 . S
C431 C429 1.419 1_545 S
C431 C432 1.363 . S
C431 H434 0.929 . S
C432 C431 1.363 . S
C432 C438 1.428 . S
H433 C429 0.930 . S
H434 C431 0.929 . S
S435 N436 1.613 1_545 S
S435 N437 1.610 . S
N436 S435 1.613 1_565 S
N436 C439 1.350 . S
N437 S435 1.610 . S
N437 C438 1.351 . S
C438 C432 1.428 . S
C438 N437 1.351 . S
C438 C439 1.434 1_545 S
C439 C430 1.429 . S
C439 N436 1.350 . S
C439 C438 1.434 1_565 S
C440 C441 1.369 . S
C440 C442 1.419 . S
C440 H444 0.930 . S
C441 C440 1.369 . S
C441 C450 1.429 . S
C442 C440 1.419 . S
C442 C443 1.363 . S
C442 H445 0.929 . S
C443 C442 1.363 . S
C443 C449 1.428 . S
H444 C440 0.930 . S
H445 C442 0.929 . S
S446 N447 1.613 . S
S446 N448 1.610 . S
N447 S446 1.613 . S
N447 C450 1.350 . S
N448 S446 1.610 . S
N448 C449 1.351 . S
C449 C443 1.428 . S
C449 N448 1.351 . S
C449 C450 1.434 . S
C450 C441 1.429 . S
C450 N447 1.350 . S
C450 C449 1.434 . S
C451 C452 1.369 . S
C451 C453 1.419 1_655 S
C451 H455 0.930 . S
C452 C451 1.369 . S
C452 C461 1.429 . S
C453 C451 1.419 1_455 S
C453 C454 1.363 . S
C453 H456 0.929 . S
C454 C453 1.363 . S
C454 C460 1.428 . S
H455 C451 0.930 . S
H456 C453 0.929 . S
S457 N458 1.613 . S
S457 N459 1.610 1_655 S
N458 S457 1.613 . S
N458 C461 1.350 . S
N459 S457 1.610 1_455 S
N459 C460 1.351 . S
C460 C454 1.428 . S
C460 N459 1.351 . S
C460 C461 1.434 1_455 S
C461 C452 1.429 . S
C461 N458 1.350 . S
C461 C460 1.434 1_655 S
C462 C463 1.369 1_565 S
C462 C464 1.419 . S
C462 H466 0.930 . S
C463 C462 1.369 1_545 S
C463 C472 1.429 . S
C464 C462 1.419 . S
C464 C465 1.363 . S
C464 H467 0.929 . S
C465 C464 1.363 . S
C465 C471 1.428 1_565 S
H466 C462 0.930 . S
H467 C464 0.929 . S
S468 N469 1.613 . S
S468 N470 1.610 . S
N469 S468 1.613 . S
N469 C472 1.350 . S
N470 S468 1.610 . S
N470 C471 1.351 . S
C471 C465 1.428 1_545 S
C471 N470 1.351 . S
C471 C472 1.434 . S
C472 C463 1.429 . S
C472 N469 1.350 . S
C472 C471 1.434 . S
C473 C474 1.369 . S
C473 C475 1.419 . S
C473 H477 0.930 . S
C474 C473 1.369 . S
C474 C483 1.429 . S
C475 C473 1.419 . S
C475 C476 1.363 . S
C475 H478 0.929 . S
C476 C475 1.363 . S
C476 C482 1.428 . S
H477 C473 0.930 . S
H478 C475 0.929 . S
S479 N480 1.613 . S
S479 N481 1.610 . S
N480 S479 1.613 . S
N480 C483 1.350 . S
N481 S479 1.610 . S
N481 C482 1.351 . S
C482 C476 1.428 . S
C482 N481 1.351 . S
C482 C483 1.434 . S
C483 C474 1.429 . S
C483 N480 1.350 . S
C483 C482 1.434 . S
C484 C485 1.369 . S
C484 C486 1.419 . S
C484 H488 0.930 . S
C485 C484 1.369 . S
C485 C494 1.429 1_655 S
C486 C484 1.419 . S
C486 C487 1.363 1_655 S
C486 H489 0.929 . S
C487 C486 1.363 1_455 S
C487 C493 1.428 . S
H488 C484 0.930 . S
H489 C486 0.929 . S
S490 N491 1.613 . S
S490 N492 1.610 . S
N491 S490 1.613 . S
N491 C494 1.350 . S
N492 S490 1.610 . S
N492 C493 1.351 . S
C493 C487 1.428 . S
C493 N492 1.351 . S
C493 C494 1.434 . S
C494 C485 1.429 1_455 S
C494 N491 1.350 . S
C494 C493 1.434 . S
C495 C496 1.369 1_545 S
C495 C497 1.419 . S
C495 H499 0.930 . S
C496 C495 1.369 1_565 S
C496 C505 1.429 . S
C497 C495 1.419 . S
C497 C498 1.363 . S
C497 H500 0.929 . S
C498 C497 1.363 . S
C498 C504 1.428 1_545 S
H499 C495 0.930 . S
H500 C497 0.929 . S
S501 N502 1.613 . S
S501 N503 1.610 . S
N502 S501 1.613 . S
N502 C505 1.350 . S
N503 S501 1.610 . S
N503 C504 1.351 . S
C504 C498 1.428 1_565 S
C504 N503 1.351 . S
C504 C505 1.434 . S
C505 C496 1.429 . S
C505 N502 1.350 . S
C505 C504 1.434 . S
C506 C507 1.369 . S
C506 C508 1.419 . S
C506 H510 0.930 . S
C507 C506 1.369 . S
C507 C516 1.429 . S
C508 C506 1.419 . S
C508 C509 1.363 . S
C508 H511 0.929 . S
C509 C508 1.363 . S
C509 C515 1.428 . S
H510 C506 0.930 . S
H511 C508 0.929 . S
S512 N513 1.613 . S
S512 N514 1.610 . S
N513 S512 1.613 . S
N513 C516 1.350 . S
N514 S512 1.610 . S
N514 C515 1.351 . S
C515 C509 1.428 . S
C515 N514 1.351 . S
C515 C516 1.434 . S
C516 C507 1.429 . S
C516 N513 1.350 . S
C516 C515 1.434 . S
C517 C518 1.375 . S
C517 C519 1.406 1_655 S
C517 H521 0.938 1_655 S
C518 C517 1.375 . S
C518 C527 1.429 . S
C519 C517 1.406 1_455 S
C519 C520 1.363 . S
C519 H522 0.929 . S
C520 C519 1.363 . S
C520 C526 1.429 1_455 S
H521 C517 0.938 1_455 S
H522 C519 0.929 . S
S523 N524 1.613 . S
S523 N525 1.610 . S
N524 S523 1.613 . S
N524 C527 1.350 . S
N525 S523 1.610 . S
N525 C526 1.352 . S
C526 C520 1.429 1_655 S
C526 N525 1.352 . S
C526 C527 1.433 . S
C527 C518 1.429 . S
C527 N524 1.350 . S
C527 C526 1.433 . S
C528 C529 1.369 . S
C528 C530 1.419 . S
C528 H532 0.930 . S
C529 C528 1.369 . S
C529 C538 1.429 . S
C530 C528 1.419 . S
C530 C531 1.363 . S
C530 H533 0.929 . S
C531 C530 1.363 . S
C531 C537 1.428 . S
H532 C528 0.930 . S
H533 C530 0.929 . S
S534 N535 1.613 . S
S534 N536 1.610 . S
N535 S534 1.613 . S
N535 C538 1.350 . S
N536 S534 1.610 . S
N536 C537 1.351 . S
C537 C531 1.428 . S
C537 N536 1.351 . S
C537 C538 1.434 . S
C538 C529 1.429 . S
C538 N535 1.350 . S
C538 C537 1.434 . S
C539 C540 1.369 . S
C539 C541 1.419 . S
C539 H543 0.930 . S
C540 C539 1.369 . S
C540 C549 1.429 . S
C541 C539 1.419 . S
C541 C542 1.363 . S
C541 H544 0.929 . S
C542 C541 1.363 . S
C542 C548 1.428 . S
H543 C539 0.930 . S
H544 C541 0.929 . S
S545 N546 1.613 . S
S545 N547 1.610 . S
N546 S545 1.613 . S
N546 C549 1.350 . S
N547 S545 1.610 . S
N547 C548 1.351 . S
C548 C542 1.428 . S
C548 N547 1.351 . S
C548 C549 1.434 . S
C549 C540 1.429 . S
C549 N546 1.350 . S
C549 C548 1.434 . S
C550 C551 1.369 . S
C550 C552 1.419 . S
C550 H554 0.930 . S
C551 C550 1.369 . S
C551 C560 1.429 . S
C552 C550 1.419 . S
C552 C553 1.363 . S
C552 H555 0.929 . S
C553 C552 1.363 . S
C553 C559 1.428 . S
H554 C550 0.930 . S
H555 C552 0.929 . S
S556 N557 1.613 . S
S556 N558 1.610 . S
N557 S556 1.613 . S
N557 C560 1.350 . S
N558 S556 1.610 . S
N558 C559 1.351 . S
C559 C553 1.428 . S
C559 N558 1.351 . S
C559 C560 1.434 . S
C560 C551 1.429 . S
C560 N557 1.350 . S
C560 C559 1.434 . S
C561 C562 1.369 . S
C561 C563 1.419 . S
C561 H565 0.930 . S
C562 C561 1.369 . S
C562 C571 1.429 . S
C563 C561 1.419 . S
C563 C564 1.363 . S
C563 H566 0.929 . S
C564 C563 1.363 . S
C564 C570 1.428 . S
H565 C561 0.930 . S
H566 C563 0.929 . S
S567 N568 1.613 . S
S567 N569 1.610 . S
N568 S567 1.613 . S
N568 C571 1.350 . S
N569 S567 1.610 . S
N569 C570 1.351 . S
C570 C564 1.428 . S
C570 N569 1.351 . S
C570 C571 1.434 . S
C571 C562 1.429 . S
C571 N568 1.350 . S
C571 C570 1.434 . S
C572 C573 1.369 . S
C572 C574 1.419 . S
C572 H576 0.930 . S
C573 C572 1.369 . S
C573 C582 1.429 . S
C574 C572 1.419 . S
C574 C575 1.363 . S
C574 H577 0.929 . S
C575 C574 1.363 . S
C575 C581 1.428 . S
H576 C572 0.930 . S
H577 C574 0.929 . S
S578 N579 1.613 . S
S578 N580 1.610 . S
N579 S578 1.613 . S
N579 C582 1.350 . S
N580 S578 1.610 . S
N580 C581 1.351 . S
C581 C575 1.428 . S
C581 N580 1.351 . S
C581 C582 1.434 . S
C582 C573 1.429 . S
C582 N579 1.350 . S
C582 C581 1.434 . S
C583 C584 1.369 . S
C583 C585 1.419 . S
C583 H587 0.930 . S
C584 C583 1.369 . S
C584 C593 1.429 . S
C585 C583 1.419 . S
C585 C586 1.363 . S
C585 H588 0.929 . S
C586 C585 1.363 . S
C586 C592 1.428 . S
H587 C583 0.930 . S
H588 C585 0.929 . S
S589 N590 1.613 . S
S589 N591 1.610 . S
N590 S589 1.613 . S
N590 C593 1.350 . S
N591 S589 1.610 . S
N591 C592 1.351 . S
C592 C586 1.428 . S
C592 N591 1.351 . S
C592 C593 1.434 . S
C593 C584 1.429 . S
C593 N590 1.350 . S
C593 C592 1.434 . S
C594 C595 1.369 . S
C594 C596 1.419 . S
C594 H598 0.930 . S
C595 C594 1.369 . S
C595 C604 1.429 . S
C596 C594 1.419 . S
C596 C597 1.363 . S
C596 H599 0.929 . S
C597 C596 1.363 . S
C597 C603 1.428 . S
H598 C594 0.930 . S
H599 C596 0.929 . S
S600 N601 1.613 . S
S600 N602 1.610 . S
N601 S600 1.613 . S
N601 C604 1.350 . S
N602 S600 1.610 . S
N602 C603 1.351 . S
C603 C597 1.428 . S
C603 N602 1.351 . S
C603 C604 1.434 . S
C604 C595 1.429 . S
C604 N601 1.350 . S
C604 C603 1.434 . S
C605 C606 1.369 . S
C605 C607 1.419 . S
C605 H609 0.930 . S
C606 C605 1.369 . S
C606 C615 1.429 . S
C607 C605 1.419 . S
C607 C608 1.363 . S
C607 H610 0.929 . S
C608 C607 1.363 . S
C608 C614 1.428 . S
H609 C605 0.930 . S
H610 C607 0.929 . S
S611 N612 1.613 . S
S611 N613 1.610 . S
N612 S611 1.613 . S
N612 C615 1.350 . S
N613 S611 1.610 . S
N613 C614 1.351 . S
C614 C608 1.428 . S
C614 N613 1.351 . S
C614 C615 1.434 . S
C615 C606 1.429 . S
C615 N612 1.350 . S
C615 C614 1.434 . S
C616 C617 1.369 . S
C616 C618 1.419 . S
C616 H620 0.930 . S
C617 C616 1.369 . S
C617 C626 1.429 . S
C618 C616 1.419 . S
C618 C619 1.363 . S
C618 H621 0.929 . S
C619 C618 1.363 . S
C619 C625 1.428 . S
H620 C616 0.930 . S
H621 C618 0.929 . S
S622 N623 1.613 . S
S622 N624 1.610 . S
N623 S622 1.613 . S
N623 C626 1.350 . S
N624 S622 1.610 . S
N624 C625 1.351 . S
C625 C619 1.428 . S
C625 N624 1.351 . S
C625 C626 1.434 . S
C626 C617 1.429 . S
C626 N623 1.350 . S
C626 C625 1.434 . S
C627 C628 1.369 . S
C627 C629 1.419 . S
C627 H631 0.930 . S
C628 C627 1.369 . S
C628 C637 1.429 . S
C629 C627 1.419 . S
C629 C630 1.363 . S
C629 H632 0.929 . S
C630 C629 1.363 . S
C630 C636 1.428 . S
H631 C627 0.930 . S
H632 C629 0.929 . S
S633 N634 1.613 . S
S633 N635 1.610 . S
N634 S633 1.613 . S
N634 C637 1.350 . S
N635 S633 1.610 . S
N635 C636 1.351 . S
C636 C630 1.428 . S
C636 N635 1.351 . S
C636 C637 1.434 . S
C637 C628 1.429 . S
C637 N634 1.350 . S
C637 C636 1.434 . S
C638 C639 1.369 . S
C638 C640 1.419 . S
C638 H642 0.930 . S
C639 C638 1.369 . S
C639 C648 1.429 . S
C640 C638 1.419 . S
C640 C641 1.363 . S
C640 H643 0.929 . S
C641 C640 1.363 . S
C641 C647 1.428 . S
H642 C638 0.930 . S
H643 C640 0.929 . S
S644 N645 1.613 . S
S644 N646 1.610 . S
N645 S644 1.613 . S
N645 C648 1.350 . S
N646 S644 1.610 . S
N646 C647 1.351 . S
C647 C641 1.428 . S
C647 N646 1.351 . S
C647 C648 1.434 . S
C648 C639 1.429 . S
C648 N645 1.350 . S
C648 C647 1.434 . S
C649 C650 1.369 . S
C649 C651 1.419 . S
C649 H653 0.930 . S
C650 C649 1.369 . S
C650 C659 1.429 . S
C651 C649 1.419 . S
C651 C652 1.363 . S
C651 H654 0.929 . S
C652 C651 1.363 . S
C652 C658 1.428 . S
H653 C649 0.930 . S
H654 C651 0.929 . S
S655 N656 1.613 . S
S655 N657 1.610 . S
N656 S655 1.613 . S
N656 C659 1.350 . S
N657 S655 1.610 . S
N657 C658 1.351 . S
C658 C652 1.428 . S
C658 N657 1.351 . S
C658 C659 1.434 . S
C659 C650 1.429 . S
C659 N656 1.350 . S
C659 C658 1.434 . S
C265 C7 1.317 . S
C267 C182 1.312 . S
C276 C204 1.317 . S
C278 C29 1.312 . S
C287 C51 1.317 . S
C289 C226 1.312 . S
C298 C248 1.317 . S
C300 C73 1.312 . S
C309 C95 1.313 . S
C311 C138 1.316 . S
C320 C160 1.315 . S
C322 C117 1.313 . S
C331 C251 1.317 . S
C333 C71 1.315 . S
C342 C93 1.317 . S
C344 C141 1.316 . S
C353 C163 1.313 . S
C355 C115 1.317 . S
C364 C185 1.313 . S
C366 C5 1.318 . S
C375 C207 1.317 . S
C377 C27 1.315 . S
C386 C49 1.313 . S
C388 C229 1.318 . S
C397 C159 1.384 . S
C399 C9 1.379 . S
C408 C181 1.384 . S
C410 C31 1.379 . S
C419 C203 1.380 . S
C421 C53 1.380 . S
C430 C75 1.384 . S
C432 C225 1.382 . S
C441 C97 1.383 . S
C443 C247 1.383 . S
C452 C137 1.380 . S
C454 C119 1.380 . S
C463 C227 1.384 . S
C465 C72 1.381 . S
C474 C94 1.380 . S
C476 C249 1.386 . S
C485 C139 1.379 . S
C487 C116 1.385 . S
C496 C161 1.385 . S
C498 C6 1.381 . S
C507 C28 1.382 . S
C509 C183 1.386 . S
C518 C50 1.384 . S
C520 C205 1.384 . S
C529 C8 1.543 . S
C531 C224 1.538 . S
C540 C30 1.539 . S
C542 C246 1.540 . S
C551 C136 1.540 . S
C553 C52 1.541 . S
C562 C158 1.543 . S
C564 C74 1.538 . S
C573 C96 1.540 . S
C575 C180 1.540 . S
C584 C202 1.541 . S
C586 C118 1.538 . S
C595 C70 1.540 . S
C597 C162 1.544 . S
C606 C92 1.539 . S
C608 C184 1.544 . S
C617 C206 1.538 . S
C619 C114 1.543 . S
C628 C228 1.538 . S
C630 C4 1.544 . S
C639 C250 1.540 . S
C641 C26 1.541 . S
C650 C140 1.544 . S
C652 C48 1.540 . S
