# Generated by pormake.
# Topology wjw, (5)-cn, num edge types: 1
# Building blocks:
#     Node 0, Type 0, BuildingBlock: XOMCOT_clean_sbu_0, # of connection points: 5
#     Node 1, Type 0, BuildingBlock: XOMCOT_clean_sbu_0, # of connection points: 5
#     Node 2, Type 0, BuildingBlock: XOMCOT_clean_sbu_0, # of connection points: 5
#     Node 3, Type 0, BuildingBlock: XOMCOT_clean_sbu_0, # of connection points: 5
#     Node 4, Type 0, BuildingBlock: XOMCOT_clean_sbu_0, # of connection points: 5
#     Node 5, Type 0, BuildingBlock: XOMCOT_clean_sbu_0, # of connection points: 5
#     Node 6, Type 0, BuildingBlock: XOMCOT_clean_sbu_0, # of connection points: 5
#     Node 7, Type 0, BuildingBlock: XOMCOT_clean_sbu_0, # of connection points: 5
#     Node 8, Type 0, BuildingBlock: XOMCOT_clean_sbu_0, # of connection points: 5
#     Node 9, Type 0, BuildingBlock: XOMCOT_clean_sbu_0, # of connection points: 5
#     Node 10, Type 0, BuildingBlock: XOMCOT_clean_sbu_0, # of connection points: 5
#     Node 11, Type 0, BuildingBlock: XOMCOT_clean_sbu_0, # of connection points: 5
#     Edge 12, Type (0, 0), BuildingBlock: CIFDUS_clean_linker_0, # of connection points: 2
#     Edge 13, Type (0, 0), BuildingBlock: CIFDUS_clean_linker_0, # of connection points: 2
#     Edge 14, Type (0, 0), BuildingBlock: CIFDUS_clean_linker_0, # of connection points: 2
#     Edge 15, Type (0, 0), BuildingBlock: CIFDUS_clean_linker_0, # of connection points: 2
#     Edge 16, Type (0, 0), BuildingBlock: CIFDUS_clean_linker_0, # of connection points: 2
#     Edge 17, Type (0, 0), BuildingBlock: CIFDUS_clean_linker_0, # of connection points: 2
#     Edge 18, Type (0, 0), BuildingBlock: CIFDUS_clean_linker_0, # of connection points: 2
#     Edge 19, Type (0, 0), BuildingBlock: CIFDUS_clean_linker_0, # of connection points: 2
#     Edge 20, Type (0, 0), BuildingBlock: CIFDUS_clean_linker_0, # of connection points: 2
#     Edge 21, Type (0, 0), BuildingBlock: CIFDUS_clean_linker_0, # of connection points: 2
#     Edge 22, Type (0, 0), BuildingBlock: CIFDUS_clean_linker_0, # of connection points: 2
#     Edge 23, Type (0, 0), BuildingBlock: CIFDUS_clean_linker_0, # of connection points: 2
#     Edge 24, Type (0, 0), BuildingBlock: CIFDUS_clean_linker_0, # of connection points: 2
#     Edge 25, Type (0, 0), BuildingBlock: CIFDUS_clean_linker_0, # of connection points: 2
#     Edge 26, Type (0, 0), BuildingBlock: CIFDUS_clean_linker_0, # of connection points: 2
#     Edge 27, Type (0, 0), BuildingBlock: CIFDUS_clean_linker_0, # of connection points: 2
#     Edge 28, Type (0, 0), BuildingBlock: CIFDUS_clean_linker_0, # of connection points: 2
#     Edge 29, Type (0, 0), BuildingBlock: CIFDUS_clean_linker_0, # of connection points: 2
#     Edge 30, Type (0, 0), BuildingBlock: CIFDUS_clean_linker_0, # of connection points: 2
#     Edge 31, Type (0, 0), BuildingBlock: CIFDUS_clean_linker_0, # of connection points: 2
#     Edge 32, Type (0, 0), BuildingBlock: CIFDUS_clean_linker_0, # of connection points: 2
#     Edge 33, Type (0, 0), BuildingBlock: CIFDUS_clean_linker_0, # of connection points: 2
#     Edge 34, Type (0, 0), BuildingBlock: CIFDUS_clean_linker_0, # of connection points: 2
#     Edge 35, Type (0, 0), BuildingBlock: CIFDUS_clean_linker_0, # of connection points: 2
#     Edge 36, Type (0, 0), BuildingBlock: CIFDUS_clean_linker_0, # of connection points: 2
#     Edge 37, Type (0, 0), BuildingBlock: CIFDUS_clean_linker_0, # of connection points: 2
#     Edge 38, Type (0, 0), BuildingBlock: CIFDUS_clean_linker_0, # of connection points: 2
#     Edge 39, Type (0, 0), BuildingBlock: CIFDUS_clean_linker_0, # of connection points: 2
#     Edge 40, Type (0, 0), BuildingBlock: CIFDUS_clean_linker_0, # of connection points: 2
#     Edge 41, Type (0, 0), BuildingBlock: CIFDUS_clean_linker_0, # of connection points: 2
# Relax obj value: 0.219
# Max RMSD: 0.190
# Mean RMSD: 0.186
data_MOF--net-wjw--node1-XOMCOT_clean_sbu_0--edge1-CIFDUS_clean_linker_0
_symmetry_space_group_name_H-M    P1
_symmetry_Int_Tables_number       1
_symmetry_cell_setting            triclinic
loop_
_symmetry_equiv_pos_as_xyz
'x, y, z'
_cell_length_a     35.723865
_cell_length_b     35.916739
_cell_length_c     32.572613
_cell_angle_alpha  89.873604
_cell_angle_beta   90.032347
_cell_angle_gamma 119.66086
loop_
_atom_site_label
_atom_site_type_symbol
_atom_site_fract_x
_atom_site_fract_y
_atom_site_fract_z
_atom_type_partial_charge
Co0 Co 0.14371 0.39524 0.31294 0.0
C1 C 0.08886 0.43744 0.31728 0.0
C2 C 0.06455 0.3799 0.35303 0.0
C3 C 0.03497 0.39368 0.3543 0.0
N4 N 0.0987 0.40745 0.33025 0.0
N5 N 0.05013 0.42975 0.33175 0.0
H6 H 0.10813 0.46305 0.29623 0.0
H7 H 0.0609 0.35089 0.36689 0.0
C8 C 0.14977 0.40126 0.40444 0.0
O9 O 0.13981 0.43187 0.40301 0.0
N10 N 0.18724 0.38145 0.29577 0.0
C11 C 0.21558 0.40029 0.26491 0.0
C12 C 0.24638 0.38789 0.26718 0.0
C13 C 0.20069 0.3573 0.31602 0.0
N14 N 0.23697 0.36095 0.29932 0.0
C15 C 0.19219 0.48458 0.28798 0.0
C16 C 0.25596 0.50891 0.3466 0.0
C17 C 0.2596 0.5397 0.31789 0.0
C18 C 0.22691 0.52682 0.28812 0.0
C19 C 0.22169 0.46709 0.34457 0.0
N20 N 0.18907 0.45547 0.3168 0.0
H21 H 0.16874 0.47491 0.26361 0.0
H22 H 0.22291 0.44389 0.36459 0.0
H23 H 0.21523 0.4233 0.24366 0.0
H24 H 0.18595 0.33958 0.34387 0.0
O25 O 0.12547 0.3932 0.25643 0.0
O26 O 0.09889 0.33816 0.29967 0.0
O27 O 0.15303 0.3838 0.37157 0.0
C28 C 0.09736 0.35323 0.26379 0.0
H29 H 1.00444 0.3781 0.37036 0.0
H30 H 0.27437 0.39894 0.24757 0.0
H31 H 0.27974 0.51648 0.37043 0.0
H32 H 0.22867 0.5486 0.26422 0.0
Co33 Co 0.77188 0.14067 0.63435 0.0
C34 C 0.67488 0.08624 0.63851 0.0
C35 C 0.70892 0.0596 0.67001 0.0
C36 C 0.66578 0.03036 0.67148 0.0
N37 N 0.71489 0.09501 0.64991 0.0
N38 N 0.64434 0.04698 0.65157 0.0
H39 H 0.66796 0.10671 0.61958 0.0
H40 H 0.73457 0.05499 0.68205 0.0
C41 C 0.77253 0.13906 0.72661 0.0
O42 O 0.73209 0.12987 0.72697 0.0
N43 N 0.82959 0.18446 0.61939 0.0
C44 C 0.84193 0.21396 0.58922 0.0
C45 C 0.88584 0.24157 0.5926 0.0
C46 C 0.86587 0.1943 0.64042 0.0
N47 N 0.90057 0.22925 0.62511 0.0
C48 C 0.73009 0.19123 0.61941 0.0
C49 C 0.77441 0.25186 0.67912 0.0
C50 C 0.74532 0.25712 0.6543 0.0
C51 C 0.72281 0.22602 0.62414 0.0
C52 C 0.78072 0.2169 0.67331 0.0
N53 N 0.75767 0.18604 0.64479 0.0
H54 H 0.71495 0.16962 0.59408 0.0
H55 H 0.80594 0.21616 0.69067 0.0
H56 H 0.82034 0.21622 0.56736 0.0
H57 H 0.86693 0.17676 0.667 0.0
O58 O 0.75552 0.12919 0.57713 0.0
O59 O 0.78372 0.09708 0.61366 0.0
O60 O 0.79231 0.14363 0.69268 0.0
C61 C 0.76742 0.10032 0.57897 0.0
H62 H 0.65135 0.99915 0.68597 0.0
H63 H 0.90499 0.26967 0.57391 0.0
H64 H 0.79305 0.27514 0.70249 0.0
H65 H 0.70118 0.22949 0.60319 0.0
Co66 Co 0.62296 0.75208 0.96698 0.0
C67 C 0.57073 0.65531 0.96598 0.0
C68 C 0.63152 0.68078 0.99682 0.0
C69 C 0.61203 0.63702 -0.00223 0.0
N70 N 0.60562 0.69248 0.97729 0.0
N71 N 0.57387 0.62103 0.97837 0.0
H72 H 0.54395 0.65278 0.94862 0.0
H73 H 0.66262 0.70285 0.00976 0.0
C74 C 0.6118 0.73921 0.05662 0.0
O75 O 0.57619 0.70355 0.04802 0.0
N76 N 0.64256 0.81164 0.9568 0.0
C77 C 0.6246 0.82812 0.93145 0.0
C78 C 0.64459 0.87172 0.93765 0.0
C79 C 0.67369 0.84515 0.97733 0.0
N80 N 0.67539 0.88211 0.96632 0.0
C81 C 0.53316 0.72066 0.94568 0.0
C82 C 0.51852 0.76599 0.00602 0.0
C83 C 0.48533 0.74135 0.97859 0.0
C84 C 0.49274 0.71818 0.9482 0.0
C85 C 0.55789 0.76703 0.00284 0.0
N86 N 0.56467 0.74344 0.97385 0.0
H87 H 0.5397 0.7059 0.91992 0.0
H88 H 0.58367 0.78893 0.02253 0.0
H89 H 0.59758 0.80948 0.91136 0.0
H90 H 0.69309 0.84231 0.00135 0.0
O91 O 0.62271 0.74229 0.90852 0.0
O92 O 0.67825 0.76001 0.9501 0.0
O93 O 0.63504 0.76413 0.02771 0.0
C94 C 0.66194 0.74955 0.91343 0.0
H95 H 0.62467 0.61842 0.0123 0.0
H96 H 0.63651 0.89395 0.92308 0.0
H97 H 0.5145 0.7854 0.02911 0.0
H98 H 0.46836 0.70019 0.92538 0.0
Co99 Co 0.87575 0.63342 0.30023 0.0
C100 C 0.92785 0.5882 0.30907 0.0
C101 C 0.9528 0.64695 0.34268 0.0
C102 C 0.98161 0.63237 0.34587 0.0
N103 N 0.91861 0.61915 0.32015 0.0
N104 N 0.96607 0.59555 0.32467 0.0
H105 H 0.9089 0.56239 0.28823 0.0
H106 H 0.95723 0.67689 0.35476 0.0
C107 C 0.87038 0.6347 0.3914 0.0
O108 O 0.87568 0.60104 0.39235 0.0
N109 N 0.83489 0.64998 0.28062 0.0
C110 C 0.8044 0.62961 0.25183 0.0
C111 C 0.77561 0.64464 0.25341 0.0
C112 C 0.82482 0.67774 0.2987 0.0
N113 N 0.78851 0.67482 0.28292 0.0
C114 C 0.82197 0.54149 0.28697 0.0
C115 C 0.75664 0.53177 0.33902 0.0
C116 C 0.75086 0.49632 0.31629 0.0
C117 C 0.78438 0.50128 0.29032 0.0
C118 C 0.79439 0.57092 0.33489 0.0
N119 N 0.82725 0.57558 0.30996 0.0
H120 H 0.8455 0.54567 0.26406 0.0
H121 H 0.79566 0.59809 0.35002 0.0
H122 H 0.8015 0.60344 0.23316 0.0
H123 H 0.84156 0.69718 0.32506 0.0
O124 O 0.89019 0.6272 0.2443 0.0
O125 O 0.92301 0.68696 0.28098 0.0
O126 O 0.86995 0.65196 0.35723 0.0
C127 C 0.92082 0.66692 0.24706 0.0
H128 H 1.01205 0.64804 0.36205 0.0
H129 H 0.74621 0.63273 0.23577 0.0
H130 H 0.7314 0.52973 0.35893 0.0
H131 H 0.7806 0.47507 0.27111 0.0
Co132 Co 0.26795 0.87299 0.63248 0.0
C133 C 0.36472 0.92783 0.63769 0.0
C134 C 0.33013 0.95398 0.66883 0.0
C135 C 0.37322 0.98338 0.67057 0.0
N136 N 0.32455 0.91876 0.64877 0.0
N137 N 0.395 0.96706 0.65089 0.0
H138 H 0.37191 0.90758 0.61884 0.0
H139 H 0.30427 0.95836 0.68059 0.0
C140 C 0.26631 0.87347 0.72405 0.0
O141 O 0.30642 0.8816 0.72376 0.0
N142 N 0.21103 0.82889 0.61626 0.0
C143 C 0.20186 0.79812 0.58812 0.0
C144 C 0.15906 0.76743 0.59186 0.0
C145 C 0.17363 0.81699 0.63621 0.0
N146 N 0.14149 0.77932 0.62219 0.0
C147 C 0.30953 0.82186 0.61886 0.0
C148 C 0.25993 0.75902 0.67529 0.0
C149 C 0.2881 0.75278 0.65031 0.0
C150 C 0.31382 0.78508 0.62225 0.0
C151 C 0.25685 0.79597 0.67112 0.0
N152 N 0.28187 0.8275 0.64371 0.0
H153 H 0.32626 0.84419 0.59432 0.0
H154 H 0.23158 0.79714 0.68791 0.0
H155 H 0.22531 0.79666 0.56821 0.0
H156 H 0.1706 0.83381 0.66238 0.0
O157 O 0.28508 0.8847 0.5754 0.0
O158 O 0.25648 0.91673 0.6116 0.0
O159 O 0.24631 0.86954 0.6904 0.0
C160 C 0.27299 0.91343 0.57714 0.0
H161 H 0.38737 0.01451 0.68508 0.0
H162 H 0.14257 0.73778 0.57477 0.0
H163 H 0.2387 0.7344 0.69663 0.0
H164 H 0.3349 0.78072 0.60135 0.0
Co165 Co 0.39035 0.24026 0.96206 0.0
C166 C 0.4394 0.33598 0.96759 0.0
C167 C 0.3771 0.30788 0.99574 0.0
C168 C 0.39557 0.35165 -0.00201 0.0
N169 N 0.40486 0.29796 0.97733 0.0
N170 N 0.43473 0.3692 0.98026 0.0
H171 H 0.46662 0.33986 0.95012 0.0
H172 H 0.34527 0.28467 0.00642 0.0
C173 C 0.38463 0.23842 0.05421 0.0
O174 O 0.41668 0.27803 0.05528 0.0
N175 N 0.37382 0.18239 0.94704 0.0
C176 C 0.39358 0.16875 0.92081 0.0
C177 C 0.37467 0.12477 0.92448 0.0
C178 C 0.34316 0.14701 0.96579 0.0
N179 N 0.34333 0.11141 0.95315 0.0
C180 C 0.48245 0.27578 0.95048 0.0
C181 C 0.49411 0.23312 0.01554 0.0
C182 C 0.53029 0.26241 0.99322 0.0
C183 C 0.52397 0.28315 0.95957 0.0
C184 C 0.45345 0.2266 0.00521 0.0
N185 N 0.44813 0.24991 0.97486 0.0
H186 H 0.47791 0.29042 0.92338 0.0
H187 H 0.4262 0.20154 0.02094 0.0
H188 H 0.42113 0.18945 0.90203 0.0
H189 H 0.322 0.14744 0.98929 0.0
O190 O 0.39834 0.25695 0.90486 0.0
O191 O 0.33718 0.23327 0.93951 0.0
O192 O 0.36992 0.21965 0.01989 0.0
C193 C 0.35836 0.24815 0.90535 0.0
H194 H 0.38131 0.36913 0.01171 0.0
H195 H 0.38485 0.1046 0.90907 0.0
H196 H 0.49693 0.21426 0.04009 0.0
H197 H 0.55076 0.30484 0.94041 0.0
Co198 Co 0.62583 0.87758 0.35283 0.0
C199 C 0.58141 0.92876 0.34516 0.0
C200 C 0.62777 0.94212 0.29728 0.0
C201 C 0.61267 0.97051 0.29374 0.0
N202 N 0.60829 0.91604 0.32947 0.0
N203 N 0.58374 0.96225 0.3239 0.0
H204 H 0.56255 0.91551 0.37279 0.0
H205 H 0.65287 0.94194 0.27889 0.0
C206 C 0.628 0.82659 0.28233 0.0
O207 O 0.60839 0.7931 0.30668 0.0
N208 N 0.64661 0.84056 0.37558 0.0
C209 C 0.63009 0.80974 0.40479 0.0
C210 C 0.65279 0.78792 0.40496 0.0
C211 C 0.68091 0.83854 0.3605 0.0
N212 N 0.68448 0.80591 0.37687 0.0
C213 C 0.54405 0.81208 0.38551 0.0
C214 C 0.50319 0.78326 0.3108 0.0
C215 C 0.48371 0.7591 0.34611 0.0
C216 C 0.50372 0.77489 0.38408 0.0
C217 C 0.54399 0.8198 0.31369 0.0
N218 N 0.56573 0.83122 0.35027 0.0
H219 H 0.55821 0.82497 0.415 0.0
H220 H 0.55871 0.83795 0.28612 0.0
H221 H 0.60307 0.80223 0.42436 0.0
H222 H 0.70068 0.8583 0.33541 0.0
O223 O 0.62533 0.89946 0.40679 0.0
O224 O 0.68165 0.92677 0.36478 0.0
O225 O 0.63754 0.86379 0.29556 0.0
C226 C 0.6649 0.92881 0.39962 0.0
H227 H 0.62288 0.99594 0.27124 0.0
H228 H 0.64565 0.76002 0.42334 0.0
H229 H 0.48803 0.77291 0.28103 0.0
H230 H 0.48861 0.75821 0.4123 0.0
Co231 Co 0.77993 0.62607 0.70547 0.0
C232 C 0.68305 0.58342 0.69874 0.0
C233 C 0.7171 0.64249 0.66552 0.0
C234 C 0.67397 0.62902 0.66337 0.0
N235 N 0.7231 0.61368 0.68698 0.0
N236 N 0.65253 0.592 0.68438 0.0
H237 H 0.67614 0.55724 0.71926 0.0
H238 H 0.74274 0.67234 0.65344 0.0
C239 C 0.78633 0.63149 0.61418 0.0
O240 O 0.74724 0.59834 0.61251 0.0
N241 N 0.83722 0.64126 0.72358 0.0
C242 C 0.84924 0.61803 0.74705 0.0
C243 C 0.89356 0.63671 0.74539 0.0
C244 C 0.8741 0.67411 0.70886 0.0
N245 N 0.90894 0.67192 0.72138 0.0
C246 C 0.74068 0.53346 0.71486 0.0
C247 C 0.79519 0.52472 0.6605 0.0
C248 C 0.76537 0.48856 0.68237 0.0
C249 C 0.73735 0.49306 0.70948 0.0
C250 C 0.79729 0.56408 0.66661 0.0
N251 N 0.76972 0.56832 0.69281 0.0
H252 H 0.72175 0.53705 0.73862 0.0
H253 H 0.82333 0.59166 0.65209 0.0
H254 H 0.82725 0.58824 0.76215 0.0
H255 H 0.87526 0.69747 0.68709 0.0
O256 O 0.76016 0.61764 0.76178 0.0
O257 O 0.78707 0.67907 0.72745 0.0
O258 O 0.804 0.64696 0.64874 0.0
C259 C 0.76988 0.6577 0.76102 0.0
H260 H 0.65955 0.64556 0.64795 0.0
H261 H 0.91283 0.62454 0.75944 0.0
H262 H 0.81804 0.52303 0.63981 0.0
H263 H 0.71483 0.46625 0.72809 0.0
Co264 Co 0.12944 0.73946 0.00736 0.0
C265 C 0.08777 0.64398 -0.00128 0.0
C266 C 0.0522 0.67054 0.97001 0.0
C267 C 0.02955 0.62687 0.96523 0.0
N268 N 0.08894 0.68141 0.99068 0.0
N269 N 0.05203 0.61032 0.98327 0.0
H270 H 0.11138 0.64066 0.01639 0.0
H271 H 0.04256 0.69302 0.9591 0.0
C272 C 0.13413 0.7387 0.91533 0.0
O273 O 0.12755 0.69938 0.91674 0.0
N274 N 0.16855 0.79758 0.02372 0.0
C275 C 0.19242 0.81089 0.05823 0.0
C276 C 0.22002 0.8545 0.05532 0.0
C277 C 0.18178 0.83291 0.00041 0.0
N278 N 0.21341 0.8679 0.01873 0.0
C279 C 0.18536 0.70618 0.03186 0.0
C280 C 0.24742 0.74892 0.9725 0.0
C281 C 0.25302 0.72194 -0.00017 0.0
C282 C 0.2215 0.70056 0.03006 0.0
C283 C 0.21086 0.7533 0.97522 0.0
N284 N 0.17909 0.73043 0.00322 0.0
H285 H 0.16254 0.69123 0.05657 0.0
H286 H 0.20929 0.77651 0.95547 0.0
H287 H 0.19113 0.79014 0.08296 0.0
H288 H 0.16934 0.83317 0.97022 0.0
O289 O 0.11322 0.72326 0.06422 0.0
O290 O 0.08085 0.74653 0.0215 0.0
O291 O 0.13591 0.75877 0.94825 0.0
C292 C 0.08243 0.73201 0.05768 0.0
H293 H 0.99905 0.60876 0.94952 0.0
H294 H 0.24442 0.87439 0.07738 0.0
H295 H 0.27131 0.76688 0.94922 0.0
H296 H 0.22532 0.68067 0.05283 0.0
Co297 Co 0.39571 0.1516 0.36718 0.0
C298 C 0.43741 0.09636 0.35772 0.0
C299 C 0.37502 0.0704 0.33002 0.0
C300 C 0.38797 0.04036 0.32735 0.0
N301 N 0.40597 0.10581 0.34873 0.0
N302 N 0.42709 0.05661 0.34479 0.0
H303 H 0.46606 0.11657 0.37508 0.0
H304 H 0.34422 0.06616 0.32022 0.0
C305 C 0.38847 0.15188 0.27561 0.0
O306 O 0.41894 0.14165 0.27281 0.0
N307 N 0.38276 0.19524 0.38515 0.0
C308 C 0.40761 0.2307 0.40731 0.0
C309 C 0.38907 0.25655 0.4067 0.0
C310 C 0.34919 0.19949 0.37215 0.0
N311 N 0.35236 0.23675 0.3846 0.0
C312 C 0.4883 0.20081 0.37814 0.0
C313 C 0.50308 0.26216 0.31936 0.0
C314 C 0.53813 0.26646 0.34243 0.0
C315 C 0.53026 0.235 0.37214 0.0
C316 C 0.46185 0.22781 0.32652 0.0
N317 N 0.45475 0.1966 0.35458 0.0
H318 H 0.4826 0.17881 0.40308 0.0
H319 H 0.43548 0.22792 0.31072 0.0
H320 H 0.43808 0.23825 0.42115 0.0
H321 H 0.32427 0.17695 0.35188 0.0
O322 O 0.40343 0.13945 0.42347 0.0
O323 O 0.34149 0.10766 0.38948 0.0
O324 O 0.37518 0.15623 0.31067 0.0
C325 C 0.36275 0.11071 0.42292 0.0
H326 H 0.36978 0.00872 0.31406 0.0
H327 H 0.40211 0.28795 0.42047 0.0
H328 H 0.50713 0.28569 0.29637 0.0
H329 H 0.5559 0.2377 0.39185 0.0
Co330 Co 0.27542 0.39508 0.68917 0.0
C331 C 0.37263 0.43594 0.69103 0.0
C332 C 0.34043 0.37715 0.65733 0.0
C333 C 0.3835 0.39012 0.65836 0.0
N334 N 0.33335 0.40597 0.67729 0.0
N335 N 0.40377 0.42699 0.67963 0.0
H336 H 0.37855 0.46264 0.71029 0.0
H337 H 0.31552 0.34795 0.64359 0.0
C338 C 0.28169 0.39821 0.59741 0.0
O339 O 0.32193 0.42898 0.60023 0.0
N340 N 0.21686 0.38154 0.70037 0.0
C341 C 0.20248 0.39693 0.73047 0.0
C342 C 0.15869 0.38057 0.72531 0.0
C343 C 0.18192 0.35616 0.67748 0.0
N344 N 0.14606 0.35528 0.69175 0.0
C345 C 0.31662 0.48594 0.70743 0.0
C346 C 0.27642 0.50611 0.64581 0.0
C347 C 0.30434 0.53876 0.67232 0.0
C348 C 0.32472 0.52824 0.70347 0.0
C349 C 0.26927 0.46453 0.65089 0.0
N350 N 0.29043 0.45488 0.68036 0.0
H351 H 0.32996 0.4779 0.73343 0.0
H352 H 0.24497 0.43984 0.63207 0.0
H353 H 0.22255 0.41921 0.75387 0.0
H354 H 0.18257 0.33868 0.65075 0.0
O355 O 0.287 0.39685 0.74733 0.0
O356 O 0.26222 0.33886 0.70823 0.0
O357 O 0.25941 0.381 0.62965 0.0
C358 C 0.27523 0.35642 0.74413 0.0
H359 H 0.39873 0.37363 0.64448 0.0
H360 H 0.13804 0.38785 0.74393 0.0
H361 H 0.25936 0.51231 0.62166 0.0
H362 H 0.34524 0.55199 0.7257 0.0
Co363 Co 0.86904 0.235 0.03944 0.0
C364 C 0.91245 0.32842 0.0184 0.0
C365 C 0.94463 0.29675 0.99321 0.0
C366 C 0.96786 0.33947 0.98303 0.0
N367 N 0.90954 0.28966 0.01497 0.0
N368 N 0.94737 0.35913 -0.00119 0.0
H369 H 0.89084 0.33497 0.03579 0.0
H370 H 0.95279 0.27238 0.98536 0.0
C371 C 0.85842 0.22286 0.94897 0.0
O372 O 0.86418 0.26185 0.94661 0.0
N373 N 0.83013 0.18061 0.06408 0.0
C374 C 0.80257 0.17388 0.09513 0.0
C375 C 0.77338 0.13067 0.09733 0.0
C376 C 0.81811 0.14166 0.04838 0.0
N377 N 0.7833 0.11067 0.06786 0.0
C378 C 0.81533 0.27388 0.05407 0.0
C379 C 0.7525 0.22396 -0.00214 0.0
C380 C 0.75 0.25748 0.01695 0.0
C381 C 0.78106 0.28168 0.04665 0.0
C382 C 0.78679 0.21715 0.00648 0.0
N383 N 0.81978 0.24422 0.03156 0.0
H384 H 0.83841 0.29188 0.07774 0.0
H385 H 0.78612 0.18942 0.9932 0.0
H386 H 0.80175 0.19892 0.11282 0.0
H387 H 0.83211 0.13638 0.0211 0.0
O388 O 0.88833 0.25992 0.09341 0.0
O389 O 0.91775 0.22936 0.05618 0.0
O390 O 0.85905 0.20662 0.98376 0.0
C391 C 0.91863 0.25001 0.08922 0.0
H392 H 0.9973 0.35478 0.96523 0.0
H393 H 0.74566 0.11544 0.11743 0.0
H394 H 0.72769 0.20259 0.97678 0.0
H395 H 0.77925 0.30669 0.06352 0.0
H396 H 0.91882 0.25367 0.1726 0.0
H397 H 1.00225 0.28567 0.06736 0.0
H398 H 0.06572 0.32102 0.11162 0.0
H399 H 0.0976 0.34559 0.18054 0.0
H400 H 0.01413 0.30661 0.28626 0.0
H401 H 0.95079 0.27118 0.24199 0.0
C402 C 0.95096 0.26806 0.1596 0.0
C403 C 0.95606 0.2673 0.11698 0.0
C404 C 0.9873 0.28717 0.18536 0.0
C405 C 0.99771 0.28568 0.10025 0.0
C406 C 0.03398 0.30608 0.12549 0.0
C407 C 0.0655 0.32891 0.19369 0.0
C408 C 0.06034 0.32867 0.2364 0.0
C409 C 0.02921 0.30741 0.16809 0.0
C410 C 0.01875 0.30682 0.25336 0.0
C411 C 0.98252 0.28676 0.22809 0.0
H412 H 0.7209 0.9427 0.46218 0.0
H413 H 0.65537 0.99832 0.39729 0.0
H414 H 0.68427 0.05867 0.44513 0.0
H415 H 0.72408 0.093 0.50808 0.0
H416 H 0.78829 0.03674 0.57467 0.0
H417 H 0.76471 0.97981 0.52349 0.0
C418 C 0.71364 0.96847 0.4584 0.0
C419 C 0.68638 0.96652 0.42641 0.0
C420 C 0.73004 1.00286 0.48639 0.0
C421 C 0.67655 0.99956 0.42174 0.0
C422 C 0.69297 0.03394 0.4491 0.0
C423 C 0.73348 0.06866 0.51111 0.0
C424 C 0.75788 0.06916 0.54524 0.0
C425 C 0.71921 0.03562 0.48192 0.0
C426 C 0.76954 0.03718 0.54873 0.0
C427 C 0.75592 1.00447 0.51953 0.0
H428 H 0.71053 0.71175 0.92156 0.0
H429 H 0.66221 0.76552 0.83158 0.0
H430 H 0.69555 0.74547 0.77644 0.0
H431 H 0.73479 0.70876 0.75376 0.0
H432 H 0.77456 0.64673 0.84317 0.0
H433 H 0.74849 0.67391 0.89883 0.0
C434 C 0.70796 0.71964 0.88988 0.0
C435 C 0.68465 0.74064 0.88047 0.0
C436 C 0.72549 0.70628 0.8584 0.0
C437 C 0.68034 0.74964 0.83937 0.0
C438 C 0.6993 0.73812 0.80795 0.0
C439 C 0.73829 0.70184 0.78553 0.0
C440 C 0.7571 0.67645 0.79465 0.0
C441 C 0.72149 0.71595 0.81707 0.0
C442 C 0.76042 0.66651 0.83567 0.0
C443 C 0.74548 0.68197 0.86738 0.0
H444 H 0.0902 0.74451 0.14025 0.0
H445 H 0.99709 0.69449 0.04233 0.0
H446 H 0.93816 0.6699 0.09203 0.0
H447 H 0.91303 0.65968 0.164 0.0
H448 H 1.00616 0.71621 0.2613 0.0
H449 H 0.06507 0.7415 0.21155 0.0
C450 C 0.05697 0.72855 0.12997 0.0
C451 C 0.04779 0.72102 0.08791 0.0
C452 C 0.0233 0.71568 0.15863 0.0
C453 C 1.00477 0.70075 0.07466 0.0
C454 C 0.9711 0.68653 0.10304 0.0
C455 C 0.94625 0.67799 0.17407 0.0
C456 C 0.9554 0.68609 0.21608 0.0
C457 C 0.97994 0.69342 0.14516 0.0
C458 C 0.99845 0.71 0.22897 0.0
C459 C 0.03213 0.72422 0.20059 0.0
H460 H 0.31761 0.02487 0.41564 0.0
H461 H 0.36674 0.12649 0.50487 0.0
H462 H 0.33904 0.07368 0.56079 0.0
H463 H 0.30448 0.99854 0.58411 0.0
H464 H 0.2645 0.89743 0.495 0.0
H465 H 0.28475 0.94976 0.43901 0.0
C466 C 0.32154 0.03525 0.44739 0.0
C467 C 0.34332 0.07927 0.45642 0.0
C468 C 0.30739 1.00475 0.4792 0.0
C469 C 0.34961 0.09267 0.49746 0.0
C470 C 0.33389 0.06252 0.52931 0.0
C471 C 0.29966 0.98804 0.55237 0.0
C472 C 0.28243 0.9443 0.54344 0.0
C473 C 0.31319 0.01849 0.52055 0.0
C474 C 0.27743 0.93099 0.50238 0.0
C475 C 0.28904 0.96087 0.47048 0.0
H476 H 0.30857 0.30369 0.73971 0.0
H477 H 0.25797 0.35922 0.82498 0.0
H478 H 0.27479 0.32587 0.88258 0.0
H479 H 0.30881 0.28531 0.9088 0.0
H480 H 0.36838 0.23842 0.82405 0.0
H481 H 0.34309 0.26361 0.76596 0.0
C482 C 0.30058 0.30774 0.77091 0.0
C483 C 0.2815 0.33318 0.77832 0.0
C484 C 0.31225 0.29022 0.80383 0.0
C485 C 0.27238 0.33943 0.81877 0.0
C486 C 0.28207 0.32048 0.8516 0.0
C487 C 0.3155 0.27999 0.87752 0.0
C488 C 0.33975 0.25954 0.87043 0.0
C489 C 0.30264 0.29638 0.84454 0.0
C490 C 0.34944 0.25385 0.83 0.0
C491 C 0.33508 0.26831 0.7969 0.0
H492 H 0.21909 0.39116 0.41577 0.0
H493 H 0.11465 0.39341 0.47986 0.0
H494 H 0.14364 0.38617 0.5456 0.0
H495 H 0.20178 0.3855 0.58467 0.0
H496 H 0.31238 0.39547 0.52152 0.0
H497 H 0.27779 0.39097 0.4552 0.0
C498 C 0.20246 0.38945 0.44417 0.0
C499 C 0.16478 0.39258 0.44332 0.0
C500 C 0.22054 0.38757 0.48179 0.0
C501 C 0.14372 0.39101 0.4801 0.0
C502 C 0.16027 0.38687 0.51756 0.0
C503 C 0.21803 0.38606 0.55642 0.0
C504 C 0.25936 0.39053 0.55776 0.0
C505 C 0.19911 0.38602 0.51878 0.0
C506 C 0.28046 0.39195 0.521 0.0
C507 C 0.26077 0.38951 0.48323 0.0
H508 H 0.74878 0.10594 0.80364 0.0
H509 H 0.85278 0.20624 0.73471 0.0
H510 H 0.89133 0.23923 0.79789 0.0
H511 H 0.89106 0.24423 0.87296 0.0
H512 H 0.79059 0.14151 0.94296 0.0
H513 H 0.75517 0.10429 0.87944 0.0
C514 C 0.78021 0.13457 0.80264 0.0
C515 C 0.79787 0.154 0.76471 0.0
C516 C 0.80257 0.15297 0.83927 0.0
C517 C 0.83878 0.19073 0.76355 0.0
C518 C 0.86068 0.20975 0.7997 0.0
C519 C 0.86195 0.21319 0.87417 0.0
C520 C 0.84298 0.19584 0.91219 0.0
C521 C 0.84231 0.19182 0.83772 0.0
C522 C 0.80559 0.15548 0.91381 0.0
C523 C 0.78521 0.13436 0.87753 0.0
H524 H 0.61499 0.75294 0.24782 0.0
H525 H 0.65693 0.88523 0.21918 0.0
H526 H 0.661 0.87107 0.14623 0.0
H527 H 0.64553 0.81897 0.08996 0.0
H528 H 0.5989 0.68618 0.12014 0.0
H529 H 0.60423 0.70274 0.1932 0.0
C530 C 0.62534 0.77887 0.22576 0.0
C531 C 0.63511 0.81994 0.23887 0.0
C532 C 0.6267 0.77032 0.18407 0.0
C533 C 0.64898 0.85322 0.20985 0.0
C534 C 0.65122 0.84512 0.16813 0.0
C535 C 0.63744 0.79399 0.11268 0.0
C536 C 0.62178 0.75144 0.09996 0.0
C537 C 0.63921 0.80353 0.15477 0.0
C538 C 0.61081 0.71911 0.12943 0.0
C539 C 0.61375 0.72852 0.17113 0.0
H540 H 0.76305 0.64326 0.53846 0.0
H541 H 0.86897 0.64825 0.60656 0.0
H542 H 0.90673 0.6528 0.54263 0.0
H543 H 0.9046 0.64543 0.46721 0.0
H544 H 0.80338 0.64992 0.39913 0.0
H545 H 0.76898 0.65232 0.46312 0.0
C546 C 0.79482 0.64632 0.53915 0.0
C547 C 0.81279 0.64427 0.57679 0.0
C548 C 0.81692 0.65025 0.50237 0.0
C549 C 0.85428 0.64912 0.57774 0.0
C550 C 0.87584 0.6516 0.54124 0.0
C551 C 0.87555 0.64792 0.46656 0.0
C552 C 0.85584 0.64636 0.42889 0.0
C553 C 0.85672 0.65064 0.50337 0.0
C554 C 0.81873 0.65044 0.42797 0.0
C555 C 0.79899 0.6517 0.46451 0.0
H556 H 0.20008 0.8188 0.90406 0.0
H557 H 0.09977 0.71093 0.83954 0.0
H558 H 0.12811 0.74758 0.77379 0.0
H559 H 0.18594 0.80667 0.73496 0.0
H560 H 0.29305 0.90822 0.79963 0.0
H561 H 0.25738 0.87834 0.86534 0.0
C562 C 0.18408 0.80372 0.87564 0.0
C563 C 0.14788 0.76248 0.87638 0.0
C564 C 0.20201 0.82388 0.83815 0.0
C565 C 0.12773 0.74275 0.83943 0.0
C566 C 0.14395 0.76364 0.80198 0.0
C567 C 0.20111 0.82258 0.76343 0.0
C568 C 0.24195 0.85957 0.76272 0.0
C569 C 0.18174 0.8037 0.80096 0.0
C570 C 0.26156 0.87971 0.7997 0.0
C571 C 0.24127 0.86255 0.83715 0.0
H572 H 0.37768 0.26215 0.1317 0.0
H573 H 0.36769 0.15623 0.06118 0.0
H574 H 0.36508 0.11807 0.12395 0.0
H575 H 0.37497 0.1191 0.19891 0.0
H576 H 0.37619 0.22073 0.27015 0.0
H577 H 0.37245 0.2561 0.20739 0.0
C578 C 0.37403 0.23035 0.13024 0.0
C579 C 0.37371 0.21235 0.09196 0.0
C580 C 0.37148 0.20807 0.1666 0.0
C581 C 0.36822 0.17084 0.09029 0.0
C582 C 0.36699 0.14907 0.12622 0.0
C583 C 0.37356 0.14855 0.20059 0.0
C584 C 0.37698 0.16789 0.23879 0.0
C585 C 0.37003 0.16802 0.16451 0.0
C586 C 0.37423 0.20556 0.24091 0.0
C587 C 0.37219 0.22587 0.20505 0.0
H588 H 0.92883 0.5096 0.32018 0.0
H589 H 0.05159 0.62595 0.3173 0.0
H590 H 0.08894 0.58453 0.31611 0.0
H591 H 0.08691 0.51517 0.32141 0.0
H592 H 0.96424 0.39876 0.32595 0.0
H593 H 0.92676 0.4399 0.32075 0.0
C594 C 0.9637 0.52573 0.3186 0.0
C595 C 0.98738 0.57072 0.31926 0.0
C596 C 0.98504 0.50165 0.31861 0.0
C597 C 0.03263 0.59132 0.31754 0.0
C598 C 0.05403 0.56766 0.31674 0.0
C599 C 0.05202 0.49886 0.32059 0.0
C600 C 0.02846 0.45403 0.32452 0.0
C601 C 0.03063 0.52281 0.31815 0.0
C602 C 0.98316 0.43331 0.32375 0.0
C603 C 0.96168 0.4568 0.32061 0.0
H604 H 0.59576 0.08503 0.64506 0.0
H605 H 0.5892 0.96189 0.64465 0.0
H606 H 0.51077 0.92588 0.6418 0.0
H607 H 0.44371 0.9292 0.64443 0.0
H608 H 0.45018 0.05231 0.64473 0.0
H609 H 0.52865 0.08838 0.64231 0.0
C610 C 0.57717 0.05037 0.64367 0.0
C611 C 0.59835 0.02625 0.64562 0.0
C612 C 0.53193 0.02978 0.64233 0.0
C613 C 0.57372 0.98126 0.64407 0.0
C614 C 0.52882 0.9606 0.64225 0.0
C615 C 0.46228 0.96388 0.64328 0.0
C616 C 0.44105 0.98794 0.64531 0.0
C617 C 0.50752 0.98449 0.64217 0.0
C618 C 0.46568 0.03296 0.6441 0.0
C619 C 0.5106 0.05366 0.64251 0.0
H620 H 0.41747 0.43409 0.97465 0.0
H621 H 0.52134 0.40535 0.97618 0.0
H622 H 0.57386 0.48149 0.97217 0.0
H623 H 0.59034 0.55609 0.97211 0.0
H624 H 0.48713 0.58562 0.97393 0.0
H625 H 0.43412 0.50919 0.97227 0.0
C626 C 0.45159 0.44451 0.97431 0.0
C627 C 0.46544 0.41407 0.97599 0.0
C628 C 0.48166 0.4884 0.97254 0.0
C629 C 0.50977 0.42804 0.97457 0.0
C630 C 0.53985 0.4716 0.97253 0.0
C631 C 0.55625 0.54581 0.9723 0.0
C632 C 0.54268 0.57641 0.97364 0.0
C633 C 0.52614 0.50201 0.97209 0.0
C634 C 0.4984 0.56267 0.97271 0.0
C635 C 0.4681 0.519 0.97208 0.0
H636 H 0.50189 0.93123 0.3491 0.0
H637 H 0.61772 0.04779 0.31753 0.0
H638 H 0.58017 0.0887 0.32522 0.0
H639 H 0.51261 0.09042 0.33546 0.0
H640 H 0.39588 0.97327 0.36337 0.0
H641 H 0.43519 0.9336 0.36305 0.0
C642 C 0.51889 0.96565 0.34454 0.0
C643 C 0.56232 0.98643 0.33243 0.0
C644 C 0.49678 0.98884 0.34813 0.0
C645 C 0.58406 0.03104 0.32626 0.0
C646 C 0.56265 0.05445 0.33077 0.0
C647 C 0.49611 0.05638 0.34214 0.0
C648 C 0.45148 0.03472 0.34918 0.0
C649 C 0.51876 0.03359 0.34086 0.0
C650 C 0.43019 0.99047 0.35737 0.0
C651 C 0.45265 0.96781 0.35724 0.0
H652 H 0.60391 0.50637 0.69242 0.0
H653 H 0.59752 0.6231 0.68961 0.0
H654 H 0.51902 0.58201 0.69118 0.0
H655 H 0.45201 0.51267 0.68734 0.0
H656 H 0.45834 0.39591 0.68975 0.0
H657 H 0.5367 0.43701 0.69474 0.0
C658 C 0.58531 0.52275 0.6929 0.0
C659 C 0.60654 0.56767 0.69028 0.0
C660 C 0.54005 0.49886 0.69339 0.0
C661 C 0.58196 0.5885 0.69068 0.0
C662 C 0.53704 0.56503 0.69176 0.0
C663 C 0.47051 0.49628 0.68972 0.0
C664 C 0.44939 0.45135 0.68759 0.0
C665 C 0.51569 0.52017 0.69216 0.0
C666 C 0.47388 0.43052 0.69044 0.0
C667 C 0.51871 0.45399 0.69346 0.0
H668 H 0.0282 0.42561 0.99518 0.0
H669 H 0.89459 0.39273 0.99589 0.0
H670 H 0.91546 0.4684 0.9915 0.0
H671 H 0.9716 0.5437 0.98745 0.0
H672 H 0.10532 0.57704 0.98616 0.0
H673 H 0.08459 0.50132 0.99096 0.0
C674 C 1.00374 0.43507 0.994 0.0
C675 C 0.95998 0.40373 0.99583 0.0
C676 C 0.01598 0.47861 0.99152 0.0
C677 C 0.92852 0.41636 0.995 0.0
C678 C 0.9404 0.45956 0.99228 0.0
C679 C 0.99616 0.53434 0.9878 0.0
C680 C 0.03986 0.56583 0.98629 0.0
C681 C 0.98402 0.49091 0.9905 0.0
C682 C 0.07144 0.55336 0.98767 0.0
C683 C 0.05962 0.5101 0.99018 0.0
H684 H 0.21042 0.28145 0.32841 0.0
H685 H 0.32327 0.40394 0.30677 0.0
H686 H 0.36926 0.3769 0.33368 0.0
H687 H 0.37763 0.31772 0.3617 0.0
H688 H 0.26569 0.19358 0.37888 0.0
H689 H 0.21902 0.22152 0.35552 0.0
C690 C 0.24506 0.30208 0.32984 0.0
C691 C 0.26352 0.34455 0.3156 0.0
C692 C 0.2714 0.28593 0.34451 0.0
C693 C 0.30847 0.37102 0.31717 0.0
C694 C 0.33471 0.35562 0.3327 0.0
C695 C 0.34298 0.29702 0.36074 0.0
C696 C 0.325 0.25379 0.37234 0.0
C697 C 0.31659 0.31307 0.34624 0.0
C698 C 0.28014 0.22696 0.37008 0.0
C699 C 0.25352 0.24295 0.35677 0.0
H700 H 0.97681 0.26954 0.58526 0.0
H701 H 0.91984 0.23891 0.70577 0.0
H702 H 0.99085 0.27611 0.73736 0.0
H703 H 0.06978 0.31735 0.73093 0.0
H704 H 0.12758 0.34495 0.61079 0.0
H705 H 0.05633 0.30938 0.57882 0.0
C706 C 0.98012 0.27125 0.61838 0.0
C707 C 0.94301 0.25142 0.64313 0.0
C708 C 0.02139 0.29223 0.63641 0.0
C709 C 0.94775 0.25344 0.68605 0.0
C710 C 0.98844 0.27493 0.70416 0.0
C711 C 0.06664 0.3157 0.69779 0.0
C712 C 0.10386 0.33393 0.67325 0.0
C713 C 0.02552 0.29441 0.67969 0.0
C714 C 0.09941 0.33099 0.6303 0.0
C715 C 0.05865 0.31074 0.61202 0.0
H716 H 0.81135 0.05824 0.04153 0.0
H717 H 0.69682 0.06703 0.06152 0.0
H718 H 0.65269 0.99634 0.03074 0.0
H719 H 0.64722 0.93306 0.99586 0.0
H720 H 0.76075 0.9219 0.9795 0.0
H721 H 0.80519 0.99257 0.01093 0.0
C722 C 0.77669 0.04431 0.03934 0.0
C723 C 0.75722 0.06749 0.05369 0.0
C724 C 0.75162 1.00359 0.02196 0.0
C725 C 0.7123 0.04937 0.0511 0.0
C726 C 0.68718 0.00921 0.03321 0.0
C727 C 0.68172 0.94642 -0.00085 0.0
C728 C 0.70112 0.92314 0.98503 0.0
C729 C 0.70656 0.98628 0.01813 0.0
C730 C 0.74556 0.93979 0.99011 0.0
C731 C 0.77078 0.97999 0.00801 0.0
H732 H 0.81821 0.75703 0.305 0.0
H733 H 0.70367 0.63324 0.29933 0.0
H734 H 0.66143 0.66269 0.33003 0.0
H735 H 0.65685 0.72383 0.35807 0.0
H736 H 0.7694 0.8491 0.35907 0.0
H737 H 0.81285 0.8194 0.3307 0.0
C738 C 0.78401 0.73674 0.31055 0.0
C739 C 0.76396 0.6931 0.29988 0.0
C740 C 0.75973 0.75421 0.32746 0.0
C741 C 0.71958 0.667 0.30687 0.0
C742 C 0.69552 0.68378 0.32461 0.0
C743 C 0.691 0.74442 0.35244 0.0
C744 C 0.71023 0.78839 0.36124 0.0
C745 C 0.71521 0.7273 0.33504 0.0
C746 C 0.75418 0.81511 0.35276 0.0
C747 C 0.77889 0.79811 0.33655 0.0
H748 H 0.08998 0.80786 0.6518 0.0
H749 H 0.09889 0.69373 0.63363 0.0
H750 H 0.02815 0.65027 0.66526 0.0
H751 H 0.96289 0.64448 0.69694 0.0
H752 H 0.95154 0.75758 0.71133 0.0
H753 H 0.02395 0.80186 0.68267 0.0
C754 C 0.07632 0.77349 0.65494 0.0
C755 C 0.09944 0.75397 0.64026 0.0
C756 C 0.03527 0.74863 0.6726 0.0
C757 C 0.08139 0.70936 0.64415 0.0
C758 C 0.04109 0.68456 0.66247 0.0
C759 C 0.97663 0.67889 0.69424 0.0
C760 C 0.95232 0.69795 0.7066 0.0
C761 C 0.01767 0.7038 0.67669 0.0
C762 C 0.96988 0.7424 0.70206 0.0
C763 C 1.01117 0.76762 0.68568 0.0
H764 H 0.31644 0.03597 0.91499 0.0
H765 H 0.31583 0.09204 0.0317 0.0
H766 H 0.27654 0.02137 0.0628 0.0
H767 H 0.24177 0.94302 0.05701 0.0
H768 H 0.23962 0.88633 0.94014 0.0
H769 H 0.28038 0.95734 0.90886 0.0
C770 C 0.30782 0.0326 0.94722 0.0
C771 C 0.31923 0.06929 0.97093 0.0
C772 C 0.2846 0.99162 0.96488 0.0
C773 C 0.30731 0.06446 0.01261 0.0
C774 C 0.28492 0.02396 0.03053 0.0
C775 C 0.25052 0.94645 0.02479 0.0
C776 C 0.23777 0.90978 0.00081 0.0
C777 C 0.27339 0.98732 0.007 0.0
C778 C 0.24872 0.91428 0.95896 0.0
C779 C 0.27216 0.95483 0.94116 0.0
H780 H 0.40402 0.73719 0.31505 0.0
H781 H 0.47735 0.68436 0.37011 0.0
H782 H 0.41578 0.61209 0.36391 0.0
H783 H 0.3421 0.56417 0.34236 0.0
H784 H 0.26471 0.6162 0.29437 0.0
H785 H 0.3272 0.68819 0.2969 0.0
C786 C 0.40624 0.70973 0.32574 0.0
C787 C 0.44503 0.71595 0.34313 0.0
C788 C 0.37021 0.66815 0.32294 0.0
C789 C 0.44767 0.68029 0.35699 0.0
C790 C 0.41256 0.63899 0.35328 0.0
C791 C 0.33813 0.59104 0.33328 0.0
C792 C 0.298 0.58409 0.31854 0.0
C793 C 0.37366 0.63255 0.33643 0.0
C794 C 0.29495 0.61992 0.3054 0.0
C795 C 0.33071 0.66136 0.30721 0.0
H796 H 0.69881 0.40626 0.671 0.0
H797 H 0.8365 0.48012 0.68764 0.0
H798 H 0.84228 0.41573 0.67991 0.0
H799 H 0.80911 0.33907 0.66702 0.0
H800 H 0.67159 0.26338 0.65051 0.0
H801 H 0.66497 0.32771 0.65881 0.0
C802 C 0.72994 0.40805 0.6732 0.0
C803 C 0.76721 0.44807 0.67957 0.0
C804 C 0.73317 0.37064 0.66838 0.0
C805 C 0.8074 0.44991 0.68216 0.0
C806 C 0.81075 0.41306 0.67785 0.0
C807 C 0.77752 0.33638 0.66574 0.0
C808 C 0.74087 0.2962 0.6585 0.0
C809 C 0.77397 0.37334 0.67071 0.0
C810 C 0.70042 0.29384 0.65582 0.0
C811 C 0.69658 0.33062 0.66082 0.0
H812 H 0.4027 0.67557 0.98726 0.0
H813 H 0.47823 0.8127 0.97339 0.0
H814 H 0.41331 0.81882 0.97905 0.0
H815 H 0.33554 0.78566 0.98931 0.0
H816 H 0.25897 0.64881 0.00507 0.0
H817 H 0.3237 0.64207 -0.00183 0.0
C818 C 0.40466 0.70662 0.98516 0.0
C819 C 0.44503 0.74364 0.9798 0.0
C820 C 0.36714 0.70999 0.98926 0.0
C821 C 0.44744 0.78383 0.9776 0.0
C822 C 0.41039 0.78734 0.98088 0.0
C823 C 0.33292 0.75429 0.99092 0.0
C824 C 0.29242 0.71776 0.99741 0.0
C825 C 0.37014 0.75072 0.98695 0.0
C826 C 0.28979 0.67747 0.00035 0.0
C827 C 0.32675 0.67358 0.99613 0.0
H828 H 0.55736 0.34891 0.32906 0.0
H829 H 0.61744 0.27106 0.34454 0.0
H830 H 0.6886 0.33466 0.33637 0.0
H831 H 0.73407 0.41332 0.32565 0.0
H832 H 0.672 0.48926 0.30932 0.0
H833 H 0.60152 0.42543 0.31599 0.0
C834 C 0.58586 0.34551 0.32999 0.0
C835 C 0.58177 0.30498 0.33717 0.0
C836 C 0.62654 0.38206 0.32501 0.0
C837 C 0.61945 0.3018 0.33941 0.0
C838 C 0.66022 0.33817 0.33448 0.0
C839 C 0.70504 0.41568 0.32317 0.0
C840 C 0.70837 0.45612 0.31741 0.0
C841 C 0.66422 0.37859 0.32734 0.0
C842 C 0.67043 0.4587 0.31441 0.0
C843 C 0.63005 0.42217 0.31812 0.0
H844 H 0.35382 0.73488 0.66141 0.0
H845 H 0.21702 0.67555 0.64023 0.0
H846 H 0.21011 0.60467 0.64513 0.0
H847 H 0.24196 0.55939 0.65769 0.0
H848 H 0.37846 0.61676 0.67966 0.0
H849 H 0.38639 0.68835 0.67303 0.0
C850 C 0.32269 0.70634 0.65751 0.0
C851 C 0.28595 0.71039 0.6506 0.0
C852 C 0.31879 0.66535 0.66099 0.0
C853 C 0.24568 0.6732 0.6459 0.0
C854 C 0.24169 0.63267 0.6487 0.0
C855 C 0.27362 0.58747 0.6605 0.0
C856 C 0.3096 0.58256 0.66883 0.0
C857 C 0.27789 0.62833 0.65659 0.0
C858 C 0.35014 0.61952 0.67348 0.0
C859 C 0.35473 0.66049 0.66944 0.0
H860 H 0.59228 0.26673 0.94139 0.0
H861 H 0.56532 0.27196 0.06964 0.0
H862 H 0.63274 0.2745 0.0885 0.0
H863 H 0.69676 0.26946 0.06875 0.0
H864 H 0.72266 0.26291 0.94048 0.0
H865 H 0.65883 0.26728 0.92147 0.0
C866 C 0.60155 0.26927 0.97341 0.0
C867 C 0.5736 0.26883 0.00403 0.0
C868 C 0.64017 0.27022 0.98409 0.0
C869 C 0.58594 0.27161 0.04546 0.0
C870 C 0.62457 0.27318 0.05629 0.0
C871 C 0.6888 0.26978 0.03667 0.0
C872 C 0.71419 0.26552 0.0061 0.0
C873 C 0.65155 0.27163 0.02592 0.0
C874 C 0.70328 0.2656 0.96461 0.0
C875 C 0.6668 0.26814 0.95369 0.0
loop_
_geom_bond_atom_site_label_1
_geom_bond_atom_site_label_2
_geom_bond_distance
_geom_bond_site_symmetry_2
_ccdc_geom_bond_type
Co0 N4 2.148 . S
Co0 N10 2.128 . S
Co0 N20 2.194 . S
Co0 O25 2.351 . S
Co0 O26 2.155 . S
Co0 O27 2.096 . S
C1 N4 1.301 . S
C1 N5 1.328 . S
C1 H6 0.930 . S
C2 C3 1.333 . S
C2 N4 1.317 . S
C2 H7 0.930 . S
C3 C2 1.333 . S
C3 N5 1.350 . S
C3 H29 0.931 . S
N4 Co0 2.148 . S
N4 C1 1.301 . S
N4 C2 1.317 . S
N5 C1 1.328 . S
N5 C3 1.350 . S
H6 C1 0.930 . S
H7 C2 0.930 . S
C8 O9 1.224 . S
C8 O27 1.247 . S
O9 C8 1.224 . S
N10 Co0 2.128 . S
N10 C11 1.355 . S
N10 C13 1.311 . S
C11 N10 1.355 . S
C11 C12 1.363 . S
C11 H23 0.929 . S
C12 C11 1.363 . S
C12 N14 1.375 . S
C12 H30 0.931 . S
C13 N10 1.311 . S
C13 N14 1.347 . S
C13 H24 0.929 . S
N14 C12 1.375 . S
N14 C13 1.347 . S
C15 C18 1.365 . S
C15 N20 1.328 . S
C15 H21 0.929 . S
C16 C17 1.362 . S
C16 C19 1.378 . S
C16 H31 0.929 . S
C17 C16 1.362 . S
C17 C18 1.366 . S
C18 C15 1.365 . S
C18 C17 1.366 . S
C18 H32 0.930 . S
C19 C16 1.378 . S
C19 N20 1.315 . S
C19 H22 0.930 . S
N20 Co0 2.194 . S
N20 C15 1.328 . S
N20 C19 1.315 . S
H21 C15 0.929 . S
H22 C19 0.930 . S
H23 C11 0.929 . S
H24 C13 0.929 . S
O25 Co0 2.351 . S
O25 C28 1.244 . S
O26 Co0 2.155 . S
O26 C28 1.240 . S
O27 Co0 2.096 . S
O27 C8 1.247 . S
C28 O25 1.244 . S
C28 O26 1.240 . S
H29 C3 0.931 . S
H30 C12 0.931 . S
H31 C16 0.929 . S
H32 C18 0.930 . S
Co33 N37 2.148 . S
Co33 N43 2.128 . S
Co33 N53 2.194 . S
Co33 O58 2.351 . S
Co33 O59 2.155 . S
Co33 O60 2.096 . S
C34 N37 1.301 . S
C34 N38 1.328 . S
C34 H39 0.930 . S
C35 C36 1.333 . S
C35 N37 1.317 . S
C35 H40 0.930 . S
C36 C35 1.333 . S
C36 N38 1.350 . S
C36 H62 0.931 . S
N37 Co33 2.148 . S
N37 C34 1.301 . S
N37 C35 1.317 . S
N38 C34 1.328 . S
N38 C36 1.350 . S
H39 C34 0.930 . S
H40 C35 0.930 . S
C41 O42 1.224 . S
C41 O60 1.247 . S
O42 C41 1.224 . S
N43 Co33 2.128 . S
N43 C44 1.355 . S
N43 C46 1.311 . S
C44 N43 1.355 . S
C44 C45 1.363 . S
C44 H56 0.929 . S
C45 C44 1.363 . S
C45 N47 1.375 . S
C45 H63 0.931 . S
C46 N43 1.311 . S
C46 N47 1.347 . S
C46 H57 0.929 . S
N47 C45 1.375 . S
N47 C46 1.347 . S
C48 C51 1.365 . S
C48 N53 1.328 . S
C48 H54 0.929 . S
C49 C50 1.362 . S
C49 C52 1.378 . S
C49 H64 0.929 . S
C50 C49 1.362 . S
C50 C51 1.366 . S
C51 C48 1.365 . S
C51 C50 1.366 . S
C51 H65 0.930 . S
C52 C49 1.378 . S
C52 N53 1.315 . S
C52 H55 0.930 . S
N53 Co33 2.194 . S
N53 C48 1.328 . S
N53 C52 1.315 . S
H54 C48 0.929 . S
H55 C52 0.930 . S
H56 C44 0.929 . S
H57 C46 0.929 . S
O58 Co33 2.351 . S
O58 C61 1.244 . S
O59 Co33 2.155 . S
O59 C61 1.240 . S
O60 Co33 2.096 . S
O60 C41 1.247 . S
C61 O58 1.244 . S
C61 O59 1.240 . S
H62 C36 0.931 . S
H63 C45 0.931 . S
H64 C49 0.929 . S
H65 C51 0.930 . S
Co66 N70 2.148 . S
Co66 N76 2.128 1_554 S
Co66 N86 2.194 1_554 S
Co66 O91 2.351 1_554 S
Co66 O92 2.155 1_554 S
Co66 O93 2.096 . S
C67 N70 1.301 1_556 S
C67 N71 1.328 1_556 S
C67 H72 0.930 . S
C68 C69 1.333 . S
C68 N70 1.317 . S
C68 H73 0.930 . S
C69 C68 1.333 . S
C69 N71 1.350 . S
C69 H95 0.931 . S
N70 Co66 2.148 . S
N70 C67 1.301 1_554 S
N70 C68 1.317 . S
N71 C67 1.328 1_554 S
N71 C69 1.350 . S
H72 C67 0.930 . S
H73 C68 0.930 . S
C74 O75 1.224 . S
C74 O93 1.247 . S
O75 C74 1.224 . S
N76 Co66 2.128 1_556 S
N76 C77 1.355 . S
N76 C79 1.311 1_556 S
C77 N76 1.355 . S
C77 C78 1.363 . S
C77 H89 0.929 . S
C78 C77 1.363 . S
C78 N80 1.375 . S
C78 H96 0.931 . S
C79 N76 1.311 1_554 S
C79 N80 1.347 1_554 S
C79 H90 0.929 . S
N80 C78 1.375 . S
N80 C79 1.347 1_556 S
C81 C84 1.365 . S
C81 N86 1.328 . S
C81 H87 0.929 . S
C82 C83 1.362 1_554 S
C82 C85 1.378 . S
C82 H97 0.929 . S
C83 C82 1.362 1_556 S
C83 C84 1.366 . S
C84 C81 1.365 . S
C84 C83 1.366 . S
C84 H98 0.930 . S
C85 C82 1.378 . S
C85 N86 1.315 1_554 S
C85 H88 0.930 . S
N86 Co66 2.194 1_556 S
N86 C81 1.328 . S
N86 C85 1.315 1_556 S
H87 C81 0.929 . S
H88 C85 0.930 . S
H89 C77 0.929 . S
H90 C79 0.929 . S
O91 Co66 2.351 1_556 S
O91 C94 1.244 . S
O92 Co66 2.155 1_556 S
O92 C94 1.240 . S
O93 Co66 2.096 . S
O93 C74 1.247 . S
C94 O91 1.244 . S
C94 O92 1.240 . S
H95 C69 0.931 . S
H96 C78 0.931 . S
H97 C82 0.929 . S
H98 C84 0.930 . S
Co99 N103 2.148 . S
Co99 N109 2.128 . S
Co99 N119 2.194 . S
Co99 O124 2.351 . S
Co99 O125 2.155 . S
Co99 O126 2.096 . S
C100 N103 1.301 . S
C100 N104 1.328 . S
C100 H105 0.930 . S
C101 C102 1.333 . S
C101 N103 1.317 . S
C101 H106 0.930 . S
C102 C101 1.333 . S
C102 N104 1.350 . S
C102 H128 0.931 . S
N103 Co99 2.148 . S
N103 C100 1.301 . S
N103 C101 1.317 . S
N104 C100 1.328 . S
N104 C102 1.350 . S
H105 C100 0.930 . S
H106 C101 0.930 . S
C107 O108 1.224 . S
C107 O126 1.247 . S
O108 C107 1.224 . S
N109 Co99 2.128 . S
N109 C110 1.355 . S
N109 C112 1.311 . S
C110 N109 1.355 . S
C110 C111 1.363 . S
C110 H122 0.929 . S
C111 C110 1.363 . S
C111 N113 1.375 . S
C111 H129 0.931 . S
C112 N109 1.311 . S
C112 N113 1.347 . S
C112 H123 0.929 . S
N113 C111 1.375 . S
N113 C112 1.347 . S
C114 C117 1.365 . S
C114 N119 1.328 . S
C114 H120 0.929 . S
C115 C116 1.362 . S
C115 C118 1.378 . S
C115 H130 0.929 . S
C116 C115 1.362 . S
C116 C117 1.366 . S
C117 C114 1.365 . S
C117 C116 1.366 . S
C117 H131 0.930 . S
C118 C115 1.378 . S
C118 N119 1.315 . S
C118 H121 0.930 . S
N119 Co99 2.194 . S
N119 C114 1.328 . S
N119 C118 1.315 . S
H120 C114 0.929 . S
H121 C118 0.930 . S
H122 C110 0.929 . S
H123 C112 0.929 . S
O124 Co99 2.351 . S
O124 C127 1.244 . S
O125 Co99 2.155 . S
O125 C127 1.240 . S
O126 Co99 2.096 . S
O126 C107 1.247 . S
C127 O124 1.244 . S
C127 O125 1.240 . S
H128 C102 0.931 . S
H129 C111 0.931 . S
H130 C115 0.929 . S
H131 C117 0.930 . S
Co132 N136 2.148 . S
Co132 N142 2.128 . S
Co132 N152 2.194 . S
Co132 O157 2.351 . S
Co132 O158 2.155 . S
Co132 O159 2.096 . S
C133 N136 1.301 . S
C133 N137 1.328 . S
C133 H138 0.930 . S
C134 C135 1.333 . S
C134 N136 1.317 . S
C134 H139 0.930 . S
C135 C134 1.333 . S
C135 N137 1.350 . S
C135 H161 0.931 . S
N136 Co132 2.148 . S
N136 C133 1.301 . S
N136 C134 1.317 . S
N137 C133 1.328 . S
N137 C135 1.350 . S
H138 C133 0.930 . S
H139 C134 0.930 . S
C140 O141 1.224 . S
C140 O159 1.247 . S
O141 C140 1.224 . S
N142 Co132 2.128 . S
N142 C143 1.355 . S
N142 C145 1.311 . S
C143 N142 1.355 . S
C143 C144 1.363 . S
C143 H155 0.929 . S
C144 C143 1.363 . S
C144 N146 1.375 . S
C144 H162 0.931 . S
C145 N142 1.311 . S
C145 N146 1.347 . S
C145 H156 0.929 . S
N146 C144 1.375 . S
N146 C145 1.347 . S
C147 C150 1.365 . S
C147 N152 1.328 . S
C147 H153 0.929 . S
C148 C149 1.362 . S
C148 C151 1.378 . S
C148 H163 0.929 . S
C149 C148 1.362 . S
C149 C150 1.366 . S
C150 C147 1.365 . S
C150 C149 1.366 . S
C150 H164 0.930 . S
C151 C148 1.378 . S
C151 N152 1.315 . S
C151 H154 0.930 . S
N152 Co132 2.194 . S
N152 C147 1.328 . S
N152 C151 1.315 . S
H153 C147 0.929 . S
H154 C151 0.930 . S
H155 C143 0.929 . S
H156 C145 0.929 . S
O157 Co132 2.351 . S
O157 C160 1.244 . S
O158 Co132 2.155 . S
O158 C160 1.240 . S
O159 Co132 2.096 . S
O159 C140 1.247 . S
C160 O157 1.244 . S
C160 O158 1.240 . S
H161 C135 0.931 . S
H162 C144 0.931 . S
H163 C148 0.929 . S
H164 C150 0.930 . S
Co165 N169 2.148 . S
Co165 N175 2.128 1_554 S
Co165 N185 2.194 1_554 S
Co165 O190 2.351 1_554 S
Co165 O191 2.155 1_554 S
Co165 O192 2.096 . S
C166 N169 1.301 1_556 S
C166 N170 1.328 1_556 S
C166 H171 0.930 . S
C167 C168 1.333 . S
C167 N169 1.317 . S
C167 H172 0.930 . S
C168 C167 1.333 . S
C168 N170 1.350 . S
C168 H194 0.931 . S
N169 Co165 2.148 . S
N169 C166 1.301 1_554 S
N169 C167 1.317 . S
N170 C166 1.328 1_554 S
N170 C168 1.350 . S
H171 C166 0.930 . S
H172 C167 0.930 . S
C173 O174 1.224 . S
C173 O192 1.247 . S
O174 C173 1.224 . S
N175 Co165 2.128 1_556 S
N175 C176 1.355 . S
N175 C178 1.311 1_556 S
C176 N175 1.355 . S
C176 C177 1.363 . S
C176 H188 0.929 . S
C177 C176 1.363 . S
C177 N179 1.375 . S
C177 H195 0.931 . S
C178 N175 1.311 1_554 S
C178 N179 1.347 1_554 S
C178 H189 0.929 . S
N179 C177 1.375 . S
N179 C178 1.347 1_556 S
C180 C183 1.365 . S
C180 N185 1.328 . S
C180 H186 0.929 . S
C181 C182 1.362 1_554 S
C181 C184 1.378 . S
C181 H196 0.929 . S
C182 C181 1.362 1_556 S
C182 C183 1.366 . S
C183 C180 1.365 . S
C183 C182 1.366 . S
C183 H197 0.930 . S
C184 C181 1.378 . S
C184 N185 1.315 1_554 S
C184 H187 0.930 . S
N185 Co165 2.194 1_556 S
N185 C180 1.328 . S
N185 C184 1.315 1_556 S
H186 C180 0.929 . S
H187 C184 0.930 . S
H188 C176 0.929 . S
H189 C178 0.929 . S
O190 Co165 2.351 1_556 S
O190 C193 1.244 . S
O191 Co165 2.155 1_556 S
O191 C193 1.240 . S
O192 Co165 2.096 . S
O192 C173 1.247 . S
C193 O190 1.244 . S
C193 O191 1.240 . S
H194 C168 0.931 . S
H195 C177 0.931 . S
H196 C181 0.929 . S
H197 C183 0.930 . S
Co198 N202 2.148 . S
Co198 N208 2.128 . S
Co198 N218 2.194 . S
Co198 O223 2.351 . S
Co198 O224 2.155 . S
Co198 O225 2.096 . S
C199 N202 1.301 . S
C199 N203 1.328 . S
C199 H204 0.930 . S
C200 C201 1.333 . S
C200 N202 1.317 . S
C200 H205 0.930 . S
C201 C200 1.333 . S
C201 N203 1.350 . S
C201 H227 0.931 . S
N202 Co198 2.148 . S
N202 C199 1.301 . S
N202 C200 1.317 . S
N203 C199 1.328 . S
N203 C201 1.350 . S
H204 C199 0.930 . S
H205 C200 0.930 . S
C206 O207 1.224 . S
C206 O225 1.247 . S
O207 C206 1.224 . S
N208 Co198 2.128 . S
N208 C209 1.355 . S
N208 C211 1.311 . S
C209 N208 1.355 . S
C209 C210 1.363 . S
C209 H221 0.929 . S
C210 C209 1.363 . S
C210 N212 1.375 . S
C210 H228 0.931 . S
C211 N208 1.311 . S
C211 N212 1.347 . S
C211 H222 0.929 . S
N212 C210 1.375 . S
N212 C211 1.347 . S
C213 C216 1.365 . S
C213 N218 1.328 . S
C213 H219 0.929 . S
C214 C215 1.362 . S
C214 C217 1.378 . S
C214 H229 0.929 . S
C215 C214 1.362 . S
C215 C216 1.366 . S
C216 C213 1.365 . S
C216 C215 1.366 . S
C216 H230 0.930 . S
C217 C214 1.378 . S
C217 N218 1.315 . S
C217 H220 0.930 . S
N218 Co198 2.194 . S
N218 C213 1.328 . S
N218 C217 1.315 . S
H219 C213 0.929 . S
H220 C217 0.930 . S
H221 C209 0.929 . S
H222 C211 0.929 . S
O223 Co198 2.351 . S
O223 C226 1.244 . S
O224 Co198 2.155 . S
O224 C226 1.240 . S
O225 Co198 2.096 . S
O225 C206 1.247 . S
C226 O223 1.244 . S
C226 O224 1.240 . S
H227 C201 0.931 . S
H228 C210 0.931 . S
H229 C214 0.929 . S
H230 C216 0.930 . S
Co231 N235 2.148 . S
Co231 N241 2.128 . S
Co231 N251 2.194 . S
Co231 O256 2.351 . S
Co231 O257 2.155 . S
Co231 O258 2.096 . S
C232 N235 1.301 . S
C232 N236 1.328 . S
C232 H237 0.930 . S
C233 C234 1.333 . S
C233 N235 1.317 . S
C233 H238 0.930 . S
C234 C233 1.333 . S
C234 N236 1.350 . S
C234 H260 0.931 . S
N235 Co231 2.148 . S
N235 C232 1.301 . S
N235 C233 1.317 . S
N236 C232 1.328 . S
N236 C234 1.350 . S
H237 C232 0.930 . S
H238 C233 0.930 . S
C239 O240 1.224 . S
C239 O258 1.247 . S
O240 C239 1.224 . S
N241 Co231 2.128 . S
N241 C242 1.355 . S
N241 C244 1.311 . S
C242 N241 1.355 . S
C242 C243 1.363 . S
C242 H254 0.929 . S
C243 C242 1.363 . S
C243 N245 1.375 . S
C243 H261 0.931 . S
C244 N241 1.311 . S
C244 N245 1.347 . S
C244 H255 0.929 . S
N245 C243 1.375 . S
N245 C244 1.347 . S
C246 C249 1.365 . S
C246 N251 1.328 . S
C246 H252 0.929 . S
C247 C248 1.362 . S
C247 C250 1.378 . S
C247 H262 0.929 . S
C248 C247 1.362 . S
C248 C249 1.366 . S
C249 C246 1.365 . S
C249 C248 1.366 . S
C249 H263 0.930 . S
C250 C247 1.378 . S
C250 N251 1.315 . S
C250 H253 0.930 . S
N251 Co231 2.194 . S
N251 C246 1.328 . S
N251 C250 1.315 . S
H252 C246 0.929 . S
H253 C250 0.930 . S
H254 C242 0.929 . S
H255 C244 0.929 . S
O256 Co231 2.351 . S
O256 C259 1.244 . S
O257 Co231 2.155 . S
O257 C259 1.240 . S
O258 Co231 2.096 . S
O258 C239 1.247 . S
C259 O256 1.244 . S
C259 O257 1.240 . S
H260 C234 0.931 . S
H261 C243 0.931 . S
H262 C247 0.929 . S
H263 C249 0.930 . S
Co264 N268 2.148 . S
Co264 N274 2.128 1_556 S
Co264 N284 2.194 1_556 S
Co264 O289 2.351 1_556 S
Co264 O290 2.155 1_556 S
Co264 O291 2.096 . S
C265 N268 1.301 1_554 S
C265 N269 1.328 1_554 S
C265 H270 0.930 . S
C266 C267 1.333 . S
C266 N268 1.317 . S
C266 H271 0.930 . S
C267 C266 1.333 . S
C267 N269 1.350 . S
C267 H293 0.931 . S
N268 Co264 2.148 . S
N268 C265 1.301 1_556 S
N268 C266 1.317 . S
N269 C265 1.328 1_556 S
N269 C267 1.350 . S
H270 C265 0.930 . S
H271 C266 0.930 . S
C272 O273 1.224 . S
C272 O291 1.247 . S
O273 C272 1.224 . S
N274 Co264 2.128 1_554 S
N274 C275 1.355 . S
N274 C277 1.311 1_554 S
C275 N274 1.355 . S
C275 C276 1.363 . S
C275 H287 0.929 . S
C276 C275 1.363 . S
C276 N278 1.375 . S
C276 H294 0.931 . S
C277 N274 1.311 1_556 S
C277 N278 1.347 1_556 S
C277 H288 0.929 . S
N278 C276 1.375 . S
N278 C277 1.347 1_554 S
C279 C282 1.365 . S
C279 N284 1.328 . S
C279 H285 0.929 . S
C280 C281 1.362 1_556 S
C280 C283 1.378 . S
C280 H295 0.929 . S
C281 C280 1.362 1_554 S
C281 C282 1.366 . S
C282 C279 1.365 . S
C282 C281 1.366 . S
C282 H296 0.930 . S
C283 C280 1.378 . S
C283 N284 1.315 1_556 S
C283 H286 0.930 . S
N284 Co264 2.194 1_554 S
N284 C279 1.328 . S
N284 C283 1.315 1_554 S
H285 C279 0.929 . S
H286 C283 0.930 . S
H287 C275 0.929 . S
H288 C277 0.929 . S
O289 Co264 2.351 1_554 S
O289 C292 1.244 . S
O290 Co264 2.155 1_554 S
O290 C292 1.240 . S
O291 Co264 2.096 . S
O291 C272 1.247 . S
C292 O289 1.244 . S
C292 O290 1.240 . S
H293 C267 0.931 . S
H294 C276 0.931 . S
H295 C280 0.929 . S
H296 C282 0.930 . S
Co297 N301 2.148 . S
Co297 N307 2.128 . S
Co297 N317 2.194 . S
Co297 O322 2.351 . S
Co297 O323 2.155 . S
Co297 O324 2.096 . S
C298 N301 1.301 . S
C298 N302 1.328 . S
C298 H303 0.930 . S
C299 C300 1.333 . S
C299 N301 1.317 . S
C299 H304 0.930 . S
C300 C299 1.333 . S
C300 N302 1.350 . S
C300 H326 0.931 . S
N301 Co297 2.148 . S
N301 C298 1.301 . S
N301 C299 1.317 . S
N302 C298 1.328 . S
N302 C300 1.350 . S
H303 C298 0.930 . S
H304 C299 0.930 . S
C305 O306 1.224 . S
C305 O324 1.247 . S
O306 C305 1.224 . S
N307 Co297 2.128 . S
N307 C308 1.355 . S
N307 C310 1.311 . S
C308 N307 1.355 . S
C308 C309 1.363 . S
C308 H320 0.929 . S
C309 C308 1.363 . S
C309 N311 1.375 . S
C309 H327 0.931 . S
C310 N307 1.311 . S
C310 N311 1.347 . S
C310 H321 0.929 . S
N311 C309 1.375 . S
N311 C310 1.347 . S
C312 C315 1.365 . S
C312 N317 1.328 . S
C312 H318 0.929 . S
C313 C314 1.362 . S
C313 C316 1.378 . S
C313 H328 0.929 . S
C314 C313 1.362 . S
C314 C315 1.366 . S
C315 C312 1.365 . S
C315 C314 1.366 . S
C315 H329 0.930 . S
C316 C313 1.378 . S
C316 N317 1.315 . S
C316 H319 0.930 . S
N317 Co297 2.194 . S
N317 C312 1.328 . S
N317 C316 1.315 . S
H318 C312 0.929 . S
H319 C316 0.930 . S
H320 C308 0.929 . S
H321 C310 0.929 . S
O322 Co297 2.351 . S
O322 C325 1.244 . S
O323 Co297 2.155 . S
O323 C325 1.240 . S
O324 Co297 2.096 . S
O324 C305 1.247 . S
C325 O322 1.244 . S
C325 O323 1.240 . S
H326 C300 0.931 . S
H327 C309 0.931 . S
H328 C313 0.929 . S
H329 C315 0.930 . S
Co330 N334 2.148 . S
Co330 N340 2.128 . S
Co330 N350 2.194 . S
Co330 O355 2.351 . S
Co330 O356 2.155 . S
Co330 O357 2.096 . S
C331 N334 1.301 . S
C331 N335 1.328 . S
C331 H336 0.930 . S
C332 C333 1.333 . S
C332 N334 1.317 . S
C332 H337 0.930 . S
C333 C332 1.333 . S
C333 N335 1.350 . S
C333 H359 0.931 . S
N334 Co330 2.148 . S
N334 C331 1.301 . S
N334 C332 1.317 . S
N335 C331 1.328 . S
N335 C333 1.350 . S
H336 C331 0.930 . S
H337 C332 0.930 . S
C338 O339 1.224 . S
C338 O357 1.247 . S
O339 C338 1.224 . S
N340 Co330 2.128 . S
N340 C341 1.355 . S
N340 C343 1.311 . S
C341 N340 1.355 . S
C341 C342 1.363 . S
C341 H353 0.929 . S
C342 C341 1.363 . S
C342 N344 1.375 . S
C342 H360 0.931 . S
C343 N340 1.311 . S
C343 N344 1.347 . S
C343 H354 0.929 . S
N344 C342 1.375 . S
N344 C343 1.347 . S
C345 C348 1.365 . S
C345 N350 1.328 . S
C345 H351 0.929 . S
C346 C347 1.362 . S
C346 C349 1.378 . S
C346 H361 0.929 . S
C347 C346 1.362 . S
C347 C348 1.366 . S
C348 C345 1.365 . S
C348 C347 1.366 . S
C348 H362 0.930 . S
C349 C346 1.378 . S
C349 N350 1.315 . S
C349 H352 0.930 . S
N350 Co330 2.194 . S
N350 C345 1.328 . S
N350 C349 1.315 . S
H351 C345 0.929 . S
H352 C349 0.930 . S
H353 C341 0.929 . S
H354 C343 0.929 . S
O355 Co330 2.351 . S
O355 C358 1.244 . S
O356 Co330 2.155 . S
O356 C358 1.240 . S
O357 Co330 2.096 . S
O357 C338 1.247 . S
C358 O355 1.244 . S
C358 O356 1.240 . S
H359 C333 0.931 . S
H360 C342 0.931 . S
H361 C346 0.929 . S
H362 C348 0.930 . S
Co363 N367 2.148 . S
Co363 N373 2.128 1_556 S
Co363 N383 2.194 1_556 S
Co363 O388 2.351 1_556 S
Co363 O389 2.155 1_556 S
Co363 O390 2.096 . S
C364 N367 1.301 1_554 S
C364 N368 1.328 1_554 S
C364 H369 0.930 . S
C365 C366 1.333 . S
C365 N367 1.317 . S
C365 H370 0.930 . S
C366 C365 1.333 . S
C366 N368 1.350 . S
C366 H392 0.931 . S
N367 Co363 2.148 . S
N367 C364 1.301 1_556 S
N367 C365 1.317 . S
N368 C364 1.328 1_556 S
N368 C366 1.350 . S
H369 C364 0.930 . S
H370 C365 0.930 . S
C371 O372 1.224 . S
C371 O390 1.247 . S
O372 C371 1.224 . S
N373 Co363 2.128 1_554 S
N373 C374 1.355 . S
N373 C376 1.311 1_554 S
C374 N373 1.355 . S
C374 C375 1.363 . S
C374 H386 0.929 . S
C375 C374 1.363 . S
C375 N377 1.375 . S
C375 H393 0.931 . S
C376 N373 1.311 1_556 S
C376 N377 1.347 1_556 S
C376 H387 0.929 . S
N377 C375 1.375 . S
N377 C376 1.347 1_554 S
C378 C381 1.365 . S
C378 N383 1.328 . S
C378 H384 0.929 . S
C379 C380 1.362 1_556 S
C379 C382 1.378 . S
C379 H394 0.929 . S
C380 C379 1.362 1_554 S
C380 C381 1.366 . S
C381 C378 1.365 . S
C381 C380 1.366 . S
C381 H395 0.930 . S
C382 C379 1.378 . S
C382 N383 1.315 1_556 S
C382 H385 0.930 . S
N383 Co363 2.194 1_554 S
N383 C378 1.328 . S
N383 C382 1.315 1_554 S
H384 C378 0.929 . S
H385 C382 0.930 . S
H386 C374 0.929 . S
H387 C376 0.929 . S
O388 Co363 2.351 1_554 S
O388 C391 1.244 . S
O389 Co363 2.155 1_554 S
O389 C391 1.240 . S
O390 Co363 2.096 . S
O390 C371 1.247 . S
C391 O388 1.244 . S
C391 O389 1.240 . S
H392 C366 0.931 . S
H393 C375 0.931 . S
H394 C379 0.929 . S
H395 C381 0.930 . S
H396 C402 0.930 . S
H397 C405 0.930 . S
H398 C406 0.930 . S
H399 C407 0.930 . S
H400 C410 0.930 . S
H401 C411 0.930 . S
C402 H396 0.930 . S
C402 C403 1.355 . S
C402 C404 1.415 . S
C403 C402 1.355 . S
C403 C405 1.419 . S
C404 C402 1.415 . S
C404 C409 1.425 1_655 S
C404 C411 1.409 . S
C405 H397 0.930 . S
C405 C403 1.419 . S
C405 C406 1.362 1_655 S
C406 H398 0.930 . S
C406 C405 1.362 1_455 S
C406 C409 1.409 . S
C407 H399 0.930 . S
C407 C408 1.355 . S
C407 C409 1.415 . S
C408 C407 1.355 . S
C408 C410 1.419 . S
C409 C404 1.425 1_455 S
C409 C406 1.409 . S
C409 C407 1.415 . S
C410 H400 0.930 . S
C410 C408 1.419 . S
C410 C411 1.362 1_455 S
C411 H401 0.930 . S
C411 C404 1.409 . S
C411 C410 1.362 1_655 S
H412 C418 0.930 . S
H413 C421 0.930 . S
H414 C422 0.944 . S
H415 C423 0.930 . S
H416 C426 0.930 . S
H417 C427 0.944 . S
C418 H412 0.930 . S
C418 C419 1.355 . S
C418 C420 1.415 . S
C419 C418 1.355 . S
C419 C421 1.419 . S
C420 C418 1.415 . S
C420 C425 1.425 1_565 S
C420 C427 1.409 1_565 S
C421 H413 0.930 . S
C421 C419 1.419 . S
C421 C422 1.362 . S
C422 H414 0.944 . S
C422 C421 1.362 . S
C422 C425 1.409 1_565 S
C423 H415 0.930 . S
C423 C424 1.355 . S
C423 C425 1.415 . S
C424 C423 1.355 . S
C424 C426 1.419 . S
C425 C420 1.425 1_545 S
C425 C422 1.409 1_545 S
C425 C423 1.415 . S
C426 H416 0.930 . S
C426 C424 1.419 . S
C426 C427 1.362 . S
C427 H417 0.944 . S
C427 C420 1.409 1_545 S
C427 C426 1.362 . S
H428 C434 0.930 . S
H429 C437 0.930 . S
H430 C438 0.930 . S
H431 C439 0.930 . S
H432 C442 0.930 . S
H433 C443 0.930 . S
C434 H428 0.930 . S
C434 C435 1.355 . S
C434 C436 1.415 . S
C435 C434 1.355 . S
C435 C437 1.419 . S
C436 C434 1.415 . S
C436 C441 1.425 . S
C436 C443 1.409 . S
C437 H429 0.930 . S
C437 C435 1.419 . S
C437 C438 1.362 . S
C438 H430 0.930 . S
C438 C437 1.362 . S
C438 C441 1.409 . S
C439 H431 0.930 . S
C439 C440 1.355 . S
C439 C441 1.415 . S
C440 C439 1.355 . S
C440 C442 1.419 . S
C441 C436 1.425 . S
C441 C438 1.409 . S
C441 C439 1.415 . S
C442 H432 0.930 . S
C442 C440 1.419 . S
C442 C443 1.362 . S
C443 H433 0.930 . S
C443 C436 1.409 . S
C443 C442 1.362 . S
H444 C450 0.930 . S
H445 C453 0.930 . S
H446 C454 0.930 . S
H447 C455 0.930 . S
H448 C458 0.930 . S
H449 C459 0.930 . S
C450 H444 0.930 . S
C450 C451 1.355 . S
C450 C452 1.415 . S
C451 C450 1.355 . S
C451 C453 1.419 1_455 S
C452 C450 1.415 . S
C452 C457 1.425 1_455 S
C452 C459 1.409 . S
C453 H445 0.930 . S
C453 C451 1.419 1_655 S
C453 C454 1.362 . S
C454 H446 0.930 . S
C454 C453 1.362 . S
C454 C457 1.409 . S
C455 H447 0.930 . S
C455 C456 1.355 . S
C455 C457 1.415 . S
C456 C455 1.355 . S
C456 C458 1.419 1_655 S
C457 C452 1.425 1_655 S
C457 C454 1.409 . S
C457 C455 1.415 . S
C458 H448 0.930 . S
C458 C456 1.419 1_455 S
C458 C459 1.362 . S
C459 H449 0.930 . S
C459 C452 1.409 . S
C459 C458 1.362 . S
H460 C466 0.930 1_565 S
H461 C469 0.930 . S
H462 C470 0.930 . S
H463 C471 0.930 1_545 S
H464 C474 0.930 . S
H465 C475 0.930 . S
C466 H460 0.930 1_545 S
C466 C467 1.355 . S
C466 C468 1.415 1_545 S
C467 C466 1.355 . S
C467 C469 1.419 . S
C468 C466 1.415 1_565 S
C468 C473 1.425 1_565 S
C468 C475 1.409 . S
C469 H461 0.930 . S
C469 C467 1.419 . S
C469 C470 1.362 . S
C470 H462 0.930 . S
C470 C469 1.362 . S
C470 C473 1.409 . S
C471 H463 0.930 1_565 S
C471 C472 1.355 . S
C471 C473 1.415 1_565 S
C472 C471 1.355 . S
C472 C474 1.419 . S
C473 C468 1.425 1_545 S
C473 C470 1.409 . S
C473 C471 1.415 1_545 S
C474 H464 0.930 . S
C474 C472 1.419 . S
C474 C475 1.362 . S
C475 H465 0.930 . S
C475 C468 1.409 . S
C475 C474 1.362 . S
H476 C482 0.930 . S
H477 C485 0.930 . S
H478 C486 0.930 . S
H479 C487 0.930 . S
H480 C490 0.930 . S
H481 C491 0.930 . S
C482 H476 0.930 . S
C482 C483 1.355 . S
C482 C484 1.415 . S
C483 C482 1.355 . S
C483 C485 1.419 . S
C484 C482 1.415 . S
C484 C489 1.425 . S
C484 C491 1.409 . S
C485 H477 0.930 . S
C485 C483 1.419 . S
C485 C486 1.362 . S
C486 H478 0.930 . S
C486 C485 1.362 . S
C486 C489 1.409 . S
C487 H479 0.930 . S
C487 C488 1.355 . S
C487 C489 1.415 . S
C488 C487 1.355 . S
C488 C490 1.419 . S
C489 C484 1.425 . S
C489 C486 1.409 . S
C489 C487 1.415 . S
C490 H480 0.930 . S
C490 C488 1.419 . S
C490 C491 1.362 . S
C491 H481 0.930 . S
C491 C484 1.409 . S
C491 C490 1.362 . S
H492 C498 0.930 . S
H493 C501 0.930 . S
H494 C502 0.930 . S
H495 C503 0.930 . S
H496 C506 0.930 . S
H497 C507 0.930 . S
C498 H492 0.930 . S
C498 C499 1.355 . S
C498 C500 1.415 . S
C499 C498 1.355 . S
C499 C501 1.419 . S
C500 C498 1.415 . S
C500 C505 1.425 . S
C500 C507 1.409 . S
C501 H493 0.930 . S
C501 C499 1.419 . S
C501 C502 1.362 . S
C502 H494 0.930 . S
C502 C501 1.362 . S
C502 C505 1.409 . S
C503 H495 0.930 . S
C503 C504 1.355 . S
C503 C505 1.415 . S
C504 C503 1.355 . S
C504 C506 1.419 . S
C505 C500 1.425 . S
C505 C502 1.409 . S
C505 C503 1.415 . S
C506 H496 0.930 . S
C506 C504 1.419 . S
C506 C507 1.362 . S
C507 H497 0.930 . S
C507 C500 1.409 . S
C507 C506 1.362 . S
H508 C514 0.930 . S
H509 C517 0.930 . S
H510 C518 0.930 . S
H511 C519 0.930 . S
H512 C522 0.930 . S
H513 C523 0.930 . S
C514 H508 0.930 . S
C514 C515 1.355 . S
C514 C516 1.415 . S
C515 C514 1.355 . S
C515 C517 1.419 . S
C516 C514 1.415 . S
C516 C521 1.425 . S
C516 C523 1.409 . S
C517 H509 0.930 . S
C517 C515 1.419 . S
C517 C518 1.362 . S
C518 H510 0.930 . S
C518 C517 1.362 . S
C518 C521 1.409 . S
C519 H511 0.930 . S
C519 C520 1.355 . S
C519 C521 1.415 . S
C520 C519 1.355 . S
C520 C522 1.419 . S
C521 C516 1.425 . S
C521 C518 1.409 . S
C521 C519 1.415 . S
C522 H512 0.930 . S
C522 C520 1.419 . S
C522 C523 1.362 . S
C523 H513 0.930 . S
C523 C516 1.409 . S
C523 C522 1.362 . S
H524 C530 0.930 . S
H525 C533 0.930 . S
H526 C534 0.930 . S
H527 C535 0.930 . S
H528 C538 0.930 . S
H529 C539 0.930 . S
C530 H524 0.930 . S
C530 C531 1.355 . S
C530 C532 1.415 . S
C531 C530 1.355 . S
C531 C533 1.419 . S
C532 C530 1.415 . S
C532 C537 1.425 . S
C532 C539 1.409 . S
C533 H525 0.930 . S
C533 C531 1.419 . S
C533 C534 1.362 . S
C534 H526 0.930 . S
C534 C533 1.362 . S
C534 C537 1.409 . S
C535 H527 0.930 . S
C535 C536 1.355 . S
C535 C537 1.415 . S
C536 C535 1.355 . S
C536 C538 1.419 . S
C537 C532 1.425 . S
C537 C534 1.409 . S
C537 C535 1.415 . S
C538 H528 0.930 . S
C538 C536 1.419 . S
C538 C539 1.362 . S
C539 H529 0.930 . S
C539 C532 1.409 . S
C539 C538 1.362 . S
H540 C546 0.930 . S
H541 C549 0.930 . S
H542 C550 0.930 . S
H543 C551 0.930 . S
H544 C554 0.930 . S
H545 C555 0.930 . S
C546 H540 0.930 . S
C546 C547 1.355 . S
C546 C548 1.415 . S
C547 C546 1.355 . S
C547 C549 1.419 . S
C548 C546 1.415 . S
C548 C553 1.425 . S
C548 C555 1.409 . S
C549 H541 0.930 . S
C549 C547 1.419 . S
C549 C550 1.362 . S
C550 H542 0.930 . S
C550 C549 1.362 . S
C550 C553 1.409 . S
C551 H543 0.930 . S
C551 C552 1.355 . S
C551 C553 1.415 . S
C552 C551 1.355 . S
C552 C554 1.419 . S
C553 C548 1.425 . S
C553 C550 1.409 . S
C553 C551 1.415 . S
C554 H544 0.930 . S
C554 C552 1.419 . S
C554 C555 1.362 . S
C555 H545 0.930 . S
C555 C548 1.409 . S
C555 C554 1.362 . S
H556 C562 0.930 . S
H557 C565 0.930 . S
H558 C566 0.930 . S
H559 C567 0.930 . S
H560 C570 0.930 . S
H561 C571 0.930 . S
C562 H556 0.930 . S
C562 C563 1.355 . S
C562 C564 1.415 . S
C563 C562 1.355 . S
C563 C565 1.419 . S
C564 C562 1.415 . S
C564 C569 1.425 . S
C564 C571 1.409 . S
C565 H557 0.930 . S
C565 C563 1.419 . S
C565 C566 1.362 . S
C566 H558 0.930 . S
C566 C565 1.362 . S
C566 C569 1.409 . S
C567 H559 0.930 . S
C567 C568 1.355 . S
C567 C569 1.415 . S
C568 C567 1.355 . S
C568 C570 1.419 . S
C569 C564 1.425 . S
C569 C566 1.409 . S
C569 C567 1.415 . S
C570 H560 0.930 . S
C570 C568 1.419 . S
C570 C571 1.362 . S
C571 H561 0.930 . S
C571 C564 1.409 . S
C571 C570 1.362 . S
H572 C578 0.930 . S
H573 C581 0.930 . S
H574 C582 0.930 . S
H575 C583 0.930 . S
H576 C586 0.930 . S
H577 C587 0.930 . S
C578 H572 0.930 . S
C578 C579 1.355 . S
C578 C580 1.415 . S
C579 C578 1.355 . S
C579 C581 1.419 . S
C580 C578 1.415 . S
C580 C585 1.425 . S
C580 C587 1.409 . S
C581 H573 0.930 . S
C581 C579 1.419 . S
C581 C582 1.362 . S
C582 H574 0.930 . S
C582 C581 1.362 . S
C582 C585 1.409 . S
C583 H575 0.930 . S
C583 C584 1.355 . S
C583 C585 1.415 . S
C584 C583 1.355 . S
C584 C586 1.419 . S
C585 C580 1.425 . S
C585 C582 1.409 . S
C585 C583 1.415 . S
C586 H576 0.930 . S
C586 C584 1.419 . S
C586 C587 1.362 . S
C587 H577 0.930 . S
C587 C580 1.409 . S
C587 C586 1.362 . S
H588 C594 0.930 . S
H589 C597 0.933 1_455 S
H590 C598 0.930 . S
H591 C599 0.930 . S
H592 C602 0.933 1_655 S
H593 C603 0.930 . S
C594 H588 0.930 . S
C594 C595 1.355 . S
C594 C596 1.415 . S
C595 C594 1.355 . S
C595 C597 1.419 . S
C596 C594 1.415 . S
C596 C601 1.425 1_655 S
C596 C603 1.409 . S
C597 H589 0.933 1_655 S
C597 C595 1.419 . S
C597 C598 1.362 1_655 S
C598 H590 0.930 . S
C598 C597 1.362 1_455 S
C598 C601 1.409 . S
C599 H591 0.930 . S
C599 C600 1.355 . S
C599 C601 1.415 . S
C600 C599 1.355 . S
C600 C602 1.419 . S
C601 C596 1.425 1_455 S
C601 C598 1.409 . S
C601 C599 1.415 . S
C602 H592 0.933 1_455 S
C602 C600 1.419 . S
C602 C603 1.362 1_455 S
C603 H593 0.930 . S
C603 C596 1.409 . S
C603 C602 1.362 1_655 S
H604 C610 0.930 . S
H605 C613 0.930 . S
H606 C614 0.930 . S
H607 C615 0.930 . S
H608 C618 0.930 . S
H609 C619 0.930 . S
C610 H604 0.930 . S
C610 C611 1.355 . S
C610 C612 1.415 . S
C611 C610 1.355 . S
C611 C613 1.419 1_545 S
C612 C610 1.415 . S
C612 C617 1.425 1_545 S
C612 C619 1.409 . S
C613 H605 0.930 . S
C613 C611 1.419 1_565 S
C613 C614 1.362 . S
C614 H606 0.930 . S
C614 C613 1.362 . S
C614 C617 1.409 . S
C615 H607 0.930 . S
C615 C616 1.355 . S
C615 C617 1.415 . S
C616 C615 1.355 . S
C616 C618 1.419 1_565 S
C617 C612 1.425 1_565 S
C617 C614 1.409 . S
C617 C615 1.415 . S
C618 H608 0.930 . S
C618 C616 1.419 1_545 S
C618 C619 1.362 . S
C619 H609 0.930 . S
C619 C612 1.409 . S
C619 C618 1.362 . S
H620 C626 0.930 . S
H621 C629 0.930 . S
H622 C630 0.930 . S
H623 C631 0.930 . S
H624 C634 0.930 . S
H625 C635 0.930 . S
C626 H620 0.930 . S
C626 C627 1.355 . S
C626 C628 1.415 . S
C627 C626 1.355 . S
C627 C629 1.419 1_554 S
C628 C626 1.415 . S
C628 C633 1.438 . S
C628 C635 1.409 . S
C629 H621 0.930 . S
C629 C627 1.419 1_556 S
C629 C630 1.362 . S
C630 H622 0.930 . S
C630 C629 1.362 . S
C630 C633 1.399 1_556 S
C631 H623 0.930 . S
C631 C632 1.355 1_556 S
C631 C633 1.414 1_556 S
C632 C631 1.355 1_554 S
C632 C634 1.419 . S
C633 C628 1.438 . S
C633 C630 1.399 1_554 S
C633 C631 1.414 1_554 S
C634 H624 0.930 . S
C634 C632 1.419 . S
C634 C635 1.362 . S
C635 H625 0.930 . S
C635 C628 1.409 . S
C635 C634 1.362 . S
H636 C642 0.930 . S
H637 C645 0.930 . S
H638 C646 0.930 . S
H639 C647 0.930 . S
H640 C650 0.930 . S
H641 C651 0.930 . S
C642 H636 0.930 . S
C642 C643 1.355 . S
C642 C644 1.415 . S
C643 C642 1.355 . S
C643 C645 1.419 1_565 S
C644 C642 1.415 . S
C644 C649 1.425 1_565 S
C644 C651 1.409 . S
C645 H637 0.930 . S
C645 C643 1.419 1_545 S
C645 C646 1.362 . S
C646 H638 0.930 . S
C646 C645 1.362 . S
C646 C649 1.409 . S
C647 H639 0.930 . S
C647 C648 1.355 . S
C647 C649 1.415 . S
C648 C647 1.355 . S
C648 C650 1.419 1_545 S
C649 C644 1.425 1_545 S
C649 C646 1.409 . S
C649 C647 1.415 . S
C650 H640 0.930 . S
C650 C648 1.419 1_565 S
C650 C651 1.362 . S
C651 H641 0.930 . S
C651 C644 1.409 . S
C651 C650 1.362 . S
H652 C658 0.930 . S
H653 C661 0.930 . S
H654 C662 0.930 . S
H655 C663 0.930 . S
H656 C666 0.930 . S
H657 C667 0.930 . S
C658 H652 0.930 . S
C658 C659 1.355 . S
C658 C660 1.415 . S
C659 C658 1.355 . S
C659 C661 1.419 . S
C660 C658 1.415 . S
C660 C665 1.425 . S
C660 C667 1.409 . S
C661 H653 0.930 . S
C661 C659 1.419 . S
C661 C662 1.362 . S
C662 H654 0.930 . S
C662 C661 1.362 . S
C662 C665 1.409 . S
C663 H655 0.930 . S
C663 C664 1.355 . S
C663 C665 1.415 . S
C664 C663 1.355 . S
C664 C666 1.419 . S
C665 C660 1.425 . S
C665 C662 1.409 . S
C665 C663 1.415 . S
C666 H656 0.930 . S
C666 C664 1.419 . S
C666 C667 1.362 . S
C667 H657 0.930 . S
C667 C660 1.409 . S
C667 C666 1.362 . S
H668 C674 0.930 . S
H669 C677 0.930 . S
H670 C678 0.930 . S
H671 C679 0.930 . S
H672 C682 0.930 . S
H673 C683 0.930 . S
C674 H668 0.930 . S
C674 C675 1.355 1_554 S
C674 C676 1.415 1_655 S
C675 C674 1.355 1_556 S
C675 C677 1.419 . S
C676 C674 1.415 1_455 S
C676 C681 1.425 1_454 S
C676 C683 1.409 . S
C677 H669 0.930 . S
C677 C675 1.419 . S
C677 C678 1.362 . S
C678 H670 0.930 . S
C678 C677 1.362 . S
C678 C681 1.409 . S
C679 H671 0.930 . S
C679 C680 1.355 . S
C679 C681 1.415 1_455 S
C680 C679 1.355 . S
C680 C682 1.419 1_556 S
C681 C676 1.425 1_656 S
C681 C678 1.409 . S
C681 C679 1.415 1_655 S
C682 H672 0.930 . S
C682 C680 1.419 1_554 S
C682 C683 1.362 . S
C683 H673 0.930 . S
C683 C676 1.409 . S
C683 C682 1.362 . S
H684 C690 0.930 . S
H685 C693 0.930 . S
H686 C694 0.930 . S
H687 C695 0.930 . S
H688 C698 0.930 . S
H689 C699 0.930 . S
C690 H684 0.930 . S
C690 C691 1.355 . S
C690 C692 1.415 . S
C691 C690 1.355 . S
C691 C693 1.419 . S
C692 C690 1.415 . S
C692 C697 1.425 . S
C692 C699 1.409 . S
C693 H685 0.930 . S
C693 C691 1.419 . S
C693 C694 1.362 . S
C694 H686 0.930 . S
C694 C693 1.362 . S
C694 C697 1.409 . S
C695 H687 0.930 . S
C695 C696 1.355 . S
C695 C697 1.415 . S
C696 C695 1.355 . S
C696 C698 1.419 . S
C697 C692 1.425 . S
C697 C694 1.409 . S
C697 C695 1.415 . S
C698 H688 0.930 . S
C698 C696 1.419 . S
C698 C699 1.362 . S
C699 H689 0.930 . S
C699 C692 1.409 . S
C699 C698 1.362 . S
H700 C706 0.930 . S
H701 C709 0.930 . S
H702 C710 0.930 . S
H703 C711 0.930 . S
H704 C714 0.930 . S
H705 C715 0.930 . S
C706 H700 0.930 . S
C706 C707 1.355 . S
C706 C708 1.415 . S
C707 C706 1.355 . S
C707 C709 1.419 . S
C708 C706 1.415 . S
C708 C713 1.425 1_655 S
C708 C715 1.409 1_655 S
C709 H701 0.930 . S
C709 C707 1.419 . S
C709 C710 1.362 . S
C710 H702 0.930 . S
C710 C709 1.362 . S
C710 C713 1.409 1_655 S
C711 H703 0.930 . S
C711 C712 1.355 . S
C711 C713 1.415 . S
C712 C711 1.355 . S
C712 C714 1.419 . S
C713 C708 1.425 1_455 S
C713 C710 1.409 1_455 S
C713 C711 1.415 . S
C714 H704 0.930 . S
C714 C712 1.419 . S
C714 C715 1.362 . S
C715 H705 0.930 . S
C715 C708 1.409 1_455 S
C715 C714 1.362 . S
H716 C722 0.930 . S
H717 C725 0.930 . S
H718 C726 0.930 . S
H719 C727 0.930 . S
H720 C730 0.930 . S
H721 C731 0.930 . S
C722 H716 0.930 . S
C722 C723 1.357 . S
C722 C724 1.415 . S
C723 C722 1.357 . S
C723 C725 1.416 1_554 S
C724 C722 1.415 . S
C724 C729 1.425 1_544 S
C724 C731 1.409 1_545 S
C725 H717 0.930 . S
C725 C723 1.416 1_556 S
C725 C726 1.362 . S
C726 H718 0.930 . S
C726 C725 1.362 . S
C726 C729 1.409 1_545 S
C727 H719 0.930 . S
C727 C728 1.356 . S
C727 C729 1.415 . S
C728 C727 1.356 . S
C728 C730 1.417 1_556 S
C729 C724 1.425 1_566 S
C729 C726 1.409 1_565 S
C729 C727 1.415 . S
C730 H720 0.930 . S
C730 C728 1.417 1_554 S
C730 C731 1.362 . S
C731 H721 0.930 . S
C731 C724 1.409 1_565 S
C731 C730 1.362 . S
H732 C738 0.930 . S
H733 C741 0.930 . S
H734 C742 0.930 . S
H735 C743 0.930 . S
H736 C746 0.930 . S
H737 C747 0.930 . S
C738 H732 0.930 . S
C738 C739 1.355 . S
C738 C740 1.415 . S
C739 C738 1.355 . S
C739 C741 1.419 . S
C740 C738 1.415 . S
C740 C745 1.425 . S
C740 C747 1.409 . S
C741 H733 0.930 . S
C741 C739 1.419 . S
C741 C742 1.362 . S
C742 H734 0.930 . S
C742 C741 1.362 . S
C742 C745 1.409 . S
C743 H735 0.930 . S
C743 C744 1.355 . S
C743 C745 1.415 . S
C744 C743 1.355 . S
C744 C746 1.419 . S
C745 C740 1.425 . S
C745 C742 1.409 . S
C745 C743 1.415 . S
C746 H736 0.930 . S
C746 C744 1.419 . S
C746 C747 1.362 . S
C747 H737 0.930 . S
C747 C740 1.409 . S
C747 C746 1.362 . S
H748 C754 0.930 . S
H749 C757 0.930 . S
H750 C758 0.930 . S
H751 C759 0.930 . S
H752 C762 0.930 . S
H753 C763 0.930 . S
C754 H748 0.930 . S
C754 C755 1.355 . S
C754 C756 1.415 . S
C755 C754 1.355 . S
C755 C757 1.419 . S
C756 C754 1.415 . S
C756 C761 1.425 1_455 S
C756 C763 1.409 1_455 S
C757 H749 0.930 . S
C757 C755 1.419 . S
C757 C758 1.362 . S
C758 H750 0.930 . S
C758 C757 1.362 . S
C758 C761 1.409 1_455 S
C759 H751 0.930 . S
C759 C760 1.355 . S
C759 C761 1.415 . S
C760 C759 1.355 . S
C760 C762 1.419 . S
C761 C756 1.425 1_655 S
C761 C758 1.409 1_655 S
C761 C759 1.415 . S
C762 H752 0.930 . S
C762 C760 1.419 . S
C762 C763 1.362 . S
C763 H753 0.930 . S
C763 C756 1.409 1_655 S
C763 C762 1.362 . S
H764 C770 0.930 . S
H765 C773 0.930 . S
H766 C774 0.930 . S
H767 C775 0.930 . S
H768 C778 0.930 . S
H769 C779 0.930 . S
C770 H764 0.930 . S
C770 C771 1.355 1_556 S
C770 C772 1.415 . S
C771 C770 1.355 1_554 S
C771 C773 1.419 . S
C772 C770 1.415 . S
C772 C777 1.425 1_546 S
C772 C779 1.409 1_545 S
C773 H765 0.930 . S
C773 C771 1.419 . S
C773 C774 1.362 . S
C774 H766 0.930 . S
C774 C773 1.362 . S
C774 C777 1.409 1_545 S
C775 H767 0.930 . S
C775 C776 1.355 1_554 S
C775 C777 1.415 . S
C776 C775 1.355 1_556 S
C776 C778 1.419 . S
C777 C772 1.425 1_564 S
C777 C774 1.409 1_565 S
C777 C775 1.415 . S
C778 H768 0.930 . S
C778 C776 1.419 . S
C778 C779 1.362 . S
C779 H769 0.930 . S
C779 C772 1.409 1_565 S
C779 C778 1.362 . S
H780 C786 0.930 . S
H781 C789 0.930 . S
H782 C790 0.930 . S
H783 C791 0.930 . S
H784 C794 0.930 . S
H785 C795 0.930 . S
C786 H780 0.930 . S
C786 C787 1.355 . S
C786 C788 1.415 . S
C787 C786 1.355 . S
C787 C789 1.419 . S
C788 C786 1.415 . S
C788 C793 1.425 . S
C788 C795 1.409 . S
C789 H781 0.930 . S
C789 C787 1.419 . S
C789 C790 1.362 . S
C790 H782 0.930 . S
C790 C789 1.362 . S
C790 C793 1.409 . S
C791 H783 0.930 . S
C791 C792 1.355 . S
C791 C793 1.415 . S
C792 C791 1.355 . S
C792 C794 1.419 . S
C793 C788 1.425 . S
C793 C790 1.409 . S
C793 C791 1.415 . S
C794 H784 0.930 . S
C794 C792 1.419 . S
C794 C795 1.362 . S
C795 H785 0.930 . S
C795 C788 1.409 . S
C795 C794 1.362 . S
H796 C802 0.930 . S
H797 C805 0.930 . S
H798 C806 0.930 . S
H799 C807 0.930 . S
H800 C810 0.930 . S
H801 C811 0.930 . S
C802 H796 0.930 . S
C802 C803 1.355 . S
C802 C804 1.415 . S
C803 C802 1.355 . S
C803 C805 1.419 . S
C804 C802 1.415 . S
C804 C809 1.425 . S
C804 C811 1.409 . S
C805 H797 0.930 . S
C805 C803 1.419 . S
C805 C806 1.362 . S
C806 H798 0.930 . S
C806 C805 1.362 . S
C806 C809 1.409 . S
C807 H799 0.930 . S
C807 C808 1.355 . S
C807 C809 1.415 . S
C808 C807 1.355 . S
C808 C810 1.419 . S
C809 C804 1.425 . S
C809 C806 1.409 . S
C809 C807 1.415 . S
C810 H800 0.930 . S
C810 C808 1.419 . S
C810 C811 1.362 . S
C811 H801 0.930 . S
C811 C804 1.409 . S
C811 C810 1.362 . S
H812 C818 0.930 . S
H813 C821 0.930 . S
H814 C822 0.930 . S
H815 C823 0.930 . S
H816 C826 0.930 . S
H817 C827 0.930 . S
C818 H812 0.930 . S
C818 C819 1.355 . S
C818 C820 1.415 . S
C819 C818 1.355 . S
C819 C821 1.419 1_556 S
C820 C818 1.415 . S
C820 C825 1.425 1_556 S
C820 C827 1.409 . S
C821 H813 0.930 . S
C821 C819 1.419 1_554 S
C821 C822 1.362 . S
C822 H814 0.930 . S
C822 C821 1.362 . S
C822 C825 1.409 . S
C823 H815 0.930 . S
C823 C824 1.355 . S
C823 C825 1.415 . S
C824 C823 1.355 . S
C824 C826 1.419 1_554 S
C825 C820 1.425 1_554 S
C825 C822 1.409 . S
C825 C823 1.415 . S
C826 H816 0.930 . S
C826 C824 1.419 1_556 S
C826 C827 1.362 . S
C827 H817 0.930 . S
C827 C820 1.409 . S
C827 C826 1.362 . S
H828 C834 0.930 . S
H829 C837 0.930 . S
H830 C838 0.930 . S
H831 C839 0.930 . S
H832 C842 0.930 . S
H833 C843 0.930 . S
C834 H828 0.930 . S
C834 C835 1.355 . S
C834 C836 1.415 . S
C835 C834 1.355 . S
C835 C837 1.419 . S
C836 C834 1.415 . S
C836 C841 1.425 . S
C836 C843 1.409 . S
C837 H829 0.930 . S
C837 C835 1.419 . S
C837 C838 1.362 . S
C838 H830 0.930 . S
C838 C837 1.362 . S
C838 C841 1.409 . S
C839 H831 0.930 . S
C839 C840 1.355 . S
C839 C841 1.415 . S
C840 C839 1.355 . S
C840 C842 1.419 . S
C841 C836 1.425 . S
C841 C838 1.409 . S
C841 C839 1.415 . S
C842 H832 0.930 . S
C842 C840 1.419 . S
C842 C843 1.362 . S
C843 H833 0.930 . S
C843 C836 1.409 . S
C843 C842 1.362 . S
H844 C850 0.930 . S
H845 C853 0.930 . S
H846 C854 0.930 . S
H847 C855 0.930 . S
H848 C858 0.930 . S
H849 C859 0.930 . S
C850 H844 0.930 . S
C850 C851 1.355 . S
C850 C852 1.415 . S
C851 C850 1.355 . S
C851 C853 1.419 . S
C852 C850 1.415 . S
C852 C857 1.425 . S
C852 C859 1.409 . S
C853 H845 0.930 . S
C853 C851 1.419 . S
C853 C854 1.362 . S
C854 H846 0.930 . S
C854 C853 1.362 . S
C854 C857 1.409 . S
C855 H847 0.930 . S
C855 C856 1.355 . S
C855 C857 1.415 . S
C856 C855 1.355 . S
C856 C858 1.419 . S
C857 C852 1.425 . S
C857 C854 1.409 . S
C857 C855 1.415 . S
C858 H848 0.930 . S
C858 C856 1.419 . S
C858 C859 1.362 . S
C859 H849 0.930 . S
C859 C852 1.409 . S
C859 C858 1.362 . S
H860 C866 0.930 . S
H861 C869 0.930 . S
H862 C870 0.930 . S
H863 C871 0.930 . S
H864 C874 0.930 . S
H865 C875 0.930 . S
C866 H860 0.930 . S
C866 C867 1.355 . S
C866 C868 1.415 . S
C867 C866 1.355 . S
C867 C869 1.419 1_556 S
C868 C866 1.415 . S
C868 C873 1.425 1_556 S
C868 C875 1.409 . S
C869 H861 0.930 . S
C869 C867 1.419 1_554 S
C869 C870 1.362 . S
C870 H862 0.930 . S
C870 C869 1.362 . S
C870 C873 1.409 . S
C871 H863 0.930 . S
C871 C872 1.355 . S
C871 C873 1.415 . S
C872 C871 1.355 . S
C872 C874 1.419 1_554 S
C873 C868 1.425 1_554 S
C873 C870 1.409 . S
C873 C871 1.415 . S
C874 H864 0.930 . S
C874 C872 1.419 1_556 S
C874 C875 1.362 . S
C875 H865 0.930 . S
C875 C868 1.409 . S
C875 C874 1.362 . S
C403 C391 1.793 . S
C408 C28 1.785 . S
C419 C226 1.869 . S
C424 C61 1.879 . S
C435 C94 1.792 . S
C440 C259 1.782 . S
C451 C292 1.787 . S
C456 C127 1.790 . S
C467 C325 1.869 . S
C472 C160 1.864 . S
C483 C358 1.775 . S
C488 C193 1.768 . S
C499 C8 0.742 . S
C504 C338 0.730 . S
C515 C41 0.628 . S
C520 C371 0.653 . S
C531 C206 0.769 . S
C536 C74 0.811 . S
C547 C239 0.537 . S
C552 C107 0.590 . S
C563 C272 0.789 . S
C568 C140 0.801 . S
C579 C173 0.622 . S
C584 C305 0.665 . S
C595 N104 1.269 . S
C600 N5 1.248 . S
C611 N38 1.252 . S
C616 N137 1.280 . S
C627 N170 1.294 . S
C632 N71 1.256 . S
C643 N203 1.261 . S
C648 N302 1.268 . S
C659 N236 1.241 . S
C664 N335 1.280 . S
C675 N368 1.264 . S
C680 N269 1.290 . S
C691 N14 1.048 . S
C696 N311 1.070 . S
C707 N47 1.090 . S
C712 N344 1.088 . S
C723 N377 1.044 . S
C728 N80 1.064 . S
C739 N113 1.062 . S
C744 N212 1.081 . S
C755 N146 1.069 . S
C760 N245 1.085 . S
C771 N179 1.066 1_554 S
C776 N278 1.060 1_556 S
C787 C215 1.819 . S
C792 C17 1.813 . S
C803 C248 1.816 . S
C808 C50 1.810 . S
C819 C83 1.800 . S
C824 C281 1.796 . S
C835 C314 1.794 . S
C840 C116 1.799 . S
C851 C149 1.821 . S
C856 C347 1.814 . S
C867 C182 1.795 . S
C872 C380 1.792 . S
