# Generated by pormake.
# Topology cbo, (4)-cn, num edge types: 1
# Building blocks:
#     Node 0, Type 0, BuildingBlock: KUFVIS_clean_sbu_0, # of connection points: 4
#     Node 1, Type 0, BuildingBlock: KUFVIS_clean_sbu_0, # of connection points: 4
#     Node 2, Type 0, BuildingBlock: KUFVIS_clean_sbu_0, # of connection points: 4
#     Node 3, Type 0, BuildingBlock: KUFVIS_clean_sbu_0, # of connection points: 4
#     Node 4, Type 0, BuildingBlock: KUFVIS_clean_sbu_0, # of connection points: 4
#     Node 5, Type 0, BuildingBlock: KUFVIS_clean_sbu_0, # of connection points: 4
#     Node 6, Type 0, BuildingBlock: KUFVIS_clean_sbu_0, # of connection points: 4
#     Node 7, Type 0, BuildingBlock: KUFVIS_clean_sbu_0, # of connection points: 4
#     Node 8, Type 0, BuildingBlock: KUFVIS_clean_sbu_0, # of connection points: 4
#     Node 9, Type 0, BuildingBlock: KUFVIS_clean_sbu_0, # of connection points: 4
#     Node 10, Type 0, BuildingBlock: KUFVIS_clean_sbu_0, # of connection points: 4
#     Node 11, Type 0, BuildingBlock: KUFVIS_clean_sbu_0, # of connection points: 4
#     Node 12, Type 0, BuildingBlock: KUFVIS_clean_sbu_0, # of connection points: 4
#     Node 13, Type 0, BuildingBlock: KUFVIS_clean_sbu_0, # of connection points: 4
#     Node 14, Type 0, BuildingBlock: KUFVIS_clean_sbu_0, # of connection points: 4
#     Node 15, Type 0, BuildingBlock: KUFVIS_clean_sbu_0, # of connection points: 4
#     Node 16, Type 0, BuildingBlock: KUFVIS_clean_sbu_0, # of connection points: 4
#     Node 17, Type 0, BuildingBlock: KUFVIS_clean_sbu_0, # of connection points: 4
#     Node 18, Type 0, BuildingBlock: KUFVIS_clean_sbu_0, # of connection points: 4
#     Node 19, Type 0, BuildingBlock: KUFVIS_clean_sbu_0, # of connection points: 4
#     Node 20, Type 0, BuildingBlock: KUFVIS_clean_sbu_0, # of connection points: 4
#     Node 21, Type 0, BuildingBlock: KUFVIS_clean_sbu_0, # of connection points: 4
#     Node 22, Type 0, BuildingBlock: KUFVIS_clean_sbu_0, # of connection points: 4
#     Node 23, Type 0, BuildingBlock: KUFVIS_clean_sbu_0, # of connection points: 4
#     Edge 24, Type (0, 0), BuildingBlock: CIFDUS_clean_linker_0, # of connection points: 2
#     Edge 25, Type (0, 0), BuildingBlock: CIFDUS_clean_linker_0, # of connection points: 2
#     Edge 26, Type (0, 0), BuildingBlock: CIFDUS_clean_linker_0, # of connection points: 2
#     Edge 27, Type (0, 0), BuildingBlock: CIFDUS_clean_linker_0, # of connection points: 2
#     Edge 28, Type (0, 0), BuildingBlock: CIFDUS_clean_linker_0, # of connection points: 2
#     Edge 29, Type (0, 0), BuildingBlock: CIFDUS_clean_linker_0, # of connection points: 2
#     Edge 30, Type (0, 0), BuildingBlock: CIFDUS_clean_linker_0, # of connection points: 2
#     Edge 31, Type (0, 0), BuildingBlock: CIFDUS_clean_linker_0, # of connection points: 2
#     Edge 32, Type (0, 0), BuildingBlock: CIFDUS_clean_linker_0, # of connection points: 2
#     Edge 33, Type (0, 0), BuildingBlock: CIFDUS_clean_linker_0, # of connection points: 2
#     Edge 34, Type (0, 0), BuildingBlock: CIFDUS_clean_linker_0, # of connection points: 2
#     Edge 35, Type (0, 0), BuildingBlock: CIFDUS_clean_linker_0, # of connection points: 2
#     Edge 36, Type (0, 0), BuildingBlock: CIFDUS_clean_linker_0, # of connection points: 2
#     Edge 37, Type (0, 0), BuildingBlock: CIFDUS_clean_linker_0, # of connection points: 2
#     Edge 38, Type (0, 0), BuildingBlock: CIFDUS_clean_linker_0, # of connection points: 2
#     Edge 39, Type (0, 0), BuildingBlock: CIFDUS_clean_linker_0, # of connection points: 2
#     Edge 40, Type (0, 0), BuildingBlock: CIFDUS_clean_linker_0, # of connection points: 2
#     Edge 41, Type (0, 0), BuildingBlock: CIFDUS_clean_linker_0, # of connection points: 2
#     Edge 42, Type (0, 0), BuildingBlock: CIFDUS_clean_linker_0, # of connection points: 2
#     Edge 43, Type (0, 0), BuildingBlock: CIFDUS_clean_linker_0, # of connection points: 2
#     Edge 44, Type (0, 0), BuildingBlock: CIFDUS_clean_linker_0, # of connection points: 2
#     Edge 45, Type (0, 0), BuildingBlock: CIFDUS_clean_linker_0, # of connection points: 2
#     Edge 46, Type (0, 0), BuildingBlock: CIFDUS_clean_linker_0, # of connection points: 2
#     Edge 47, Type (0, 0), BuildingBlock: CIFDUS_clean_linker_0, # of connection points: 2
#     Edge 48, Type (0, 0), BuildingBlock: CIFDUS_clean_linker_0, # of connection points: 2
#     Edge 49, Type (0, 0), BuildingBlock: CIFDUS_clean_linker_0, # of connection points: 2
#     Edge 50, Type (0, 0), BuildingBlock: CIFDUS_clean_linker_0, # of connection points: 2
#     Edge 51, Type (0, 0), BuildingBlock: CIFDUS_clean_linker_0, # of connection points: 2
#     Edge 52, Type (0, 0), BuildingBlock: CIFDUS_clean_linker_0, # of connection points: 2
#     Edge 53, Type (0, 0), BuildingBlock: CIFDUS_clean_linker_0, # of connection points: 2
#     Edge 54, Type (0, 0), BuildingBlock: CIFDUS_clean_linker_0, # of connection points: 2
#     Edge 55, Type (0, 0), BuildingBlock: CIFDUS_clean_linker_0, # of connection points: 2
#     Edge 56, Type (0, 0), BuildingBlock: CIFDUS_clean_linker_0, # of connection points: 2
#     Edge 57, Type (0, 0), BuildingBlock: CIFDUS_clean_linker_0, # of connection points: 2
#     Edge 58, Type (0, 0), BuildingBlock: CIFDUS_clean_linker_0, # of connection points: 2
#     Edge 59, Type (0, 0), BuildingBlock: CIFDUS_clean_linker_0, # of connection points: 2
#     Edge 60, Type (0, 0), BuildingBlock: CIFDUS_clean_linker_0, # of connection points: 2
#     Edge 61, Type (0, 0), BuildingBlock: CIFDUS_clean_linker_0, # of connection points: 2
#     Edge 62, Type (0, 0), BuildingBlock: CIFDUS_clean_linker_0, # of connection points: 2
#     Edge 63, Type (0, 0), BuildingBlock: CIFDUS_clean_linker_0, # of connection points: 2
#     Edge 64, Type (0, 0), BuildingBlock: CIFDUS_clean_linker_0, # of connection points: 2
#     Edge 65, Type (0, 0), BuildingBlock: CIFDUS_clean_linker_0, # of connection points: 2
#     Edge 66, Type (0, 0), BuildingBlock: CIFDUS_clean_linker_0, # of connection points: 2
#     Edge 67, Type (0, 0), BuildingBlock: CIFDUS_clean_linker_0, # of connection points: 2
#     Edge 68, Type (0, 0), BuildingBlock: CIFDUS_clean_linker_0, # of connection points: 2
#     Edge 69, Type (0, 0), BuildingBlock: CIFDUS_clean_linker_0, # of connection points: 2
#     Edge 70, Type (0, 0), BuildingBlock: CIFDUS_clean_linker_0, # of connection points: 2
#     Edge 71, Type (0, 0), BuildingBlock: CIFDUS_clean_linker_0, # of connection points: 2
# Relax obj value: 0.204
# Max RMSD: 0.228
# Mean RMSD: 0.214
data_MOF--net-cbo--node1-KUFVIS_clean_sbu_0--edge1-CIFDUS_clean_linker_0
_symmetry_space_group_name_H-M    P1
_symmetry_Int_Tables_number       1
_symmetry_cell_setting            triclinic
loop_
_symmetry_equiv_pos_as_xyz
'x, y, z'
_cell_length_a     44.930164
_cell_length_b     44.475807
_cell_length_c     45.663398
_cell_angle_alpha  90.057375
_cell_angle_beta   89.999781
_cell_angle_gamma 90.037218
loop_
_atom_site_label
_atom_site_type_symbol
_atom_site_fract_x
_atom_site_fract_y
_atom_site_fract_z
_atom_type_partial_charge
Mn0 Mn 0.12662 0.16777 0.33622 0.0
Mn1 Mn 0.13234 0.09557 0.35745 0.0
C2 C 0.16911 0.14051 0.32553 0.0
C3 C 0.11258 0.20235 0.30019 0.0
C4 C 0.13773 0.14827 0.39955 0.0
O5 O 0.0837 0.15617 0.34507 0.0
O6 O 0.08948 0.10689 0.356 0.0
C7 C 0.10536 0.06607 0.30578 0.0
N8 N 0.12911 0.07006 0.3239 0.0
C9 C 0.159 0.03592 0.2955 0.0
C10 C 0.13479 0.03126 0.27665 0.0
C11 C 0.10786 0.04641 0.28182 0.0
C12 C 0.15508 0.05549 0.31922 0.0
H13 H 0.08473 0.07792 0.3095 0.0
C14 C 0.07336 0.13036 0.35202 0.0
O15 O 0.11589 0.21065 0.32731 0.0
O16 O 0.11645 0.17415 0.29441 0.0
N17 N 0.17285 0.08239 0.35931 0.0
C18 C 0.1946 0.09093 0.37838 0.0
C19 C 0.22323 0.07861 0.37562 0.0
C20 C 0.22921 0.05773 0.35329 0.0
C21 C 0.20643 0.04924 0.33397 0.0
C22 C 0.17824 0.06198 0.33801 0.0
H23 H 0.19019 0.10722 0.39538 0.0
O24 O 0.16992 0.16965 0.32619 0.0
O25 O 0.1435 0.1285 0.3316 0.0
O26 O 0.13602 0.16924 0.38046 0.0
O27 O 0.1363 0.1203 0.39323 0.0
C28 C 0.21078 0.02917 0.31047 0.0
C29 C 0.18708 0.0225 0.29126 0.0
H30 H 0.13672 0.01636 0.25797 0.0
H31 H 0.08914 0.04308 0.26726 0.0
H32 H 0.24073 0.08539 0.39053 0.0
H33 H 0.25142 0.04857 0.35101 0.0
H34 H 0.23237 0.01904 0.30674 0.0
H35 H 0.1908 0.00733 0.27305 0.0
Mn36 Mn 0.38277 0.82309 0.81844 0.0
Mn37 Mn 0.37424 0.89587 0.83741 0.0
C38 C 0.33996 0.84894 0.80642 0.0
C39 C 0.39637 0.7861 0.78461 0.0
C40 C 0.36667 0.84505 0.88041 0.0
O41 O 0.42536 0.83563 0.82714 0.0
O42 O 0.41673 0.88354 0.84143 0.0
C43 C 0.408 0.92212 0.78798 0.0
N44 N 0.38221 0.91965 0.80345 0.0
C45 C 0.35695 0.95335 0.77059 0.0
C46 C 0.38331 0.9564 0.75441 0.0
C47 C 0.40894 0.9407 0.76315 0.0
C48 C 0.35743 0.9347 0.79527 0.0
H49 H 0.42769 0.9099 0.79446 0.0
C50 C 0.43406 0.86104 0.83705 0.0
O51 O 0.39361 0.77984 0.81227 0.0
O52 O 0.39288 0.81392 0.77703 0.0
N53 N 0.3343 0.91048 0.83426 0.0
C54 C 0.31043 0.9043 0.85166 0.0
C55 C 0.28288 0.91783 0.84559 0.0
C56 C 0.28019 0.93759 0.82176 0.0
C57 C 0.30515 0.94386 0.80437 0.0
C58 C 0.33211 0.92999 0.81169 0.0
H59 H 0.31232 0.88888 0.86979 0.0
O60 O 0.33962 0.81989 0.80855 0.0
O61 O 0.36523 0.86196 0.81183 0.0
O62 O 0.37354 0.82398 0.86257 0.0
O63 O 0.36499 0.87273 0.87312 0.0
C64 C 0.30423 0.96295 0.77979 0.0
C65 C 0.3301 0.96768 0.7629 0.0
H66 H 0.38407 0.97054 0.73513 0.0
H67 H 0.42932 0.94282 0.75069 0.0
H68 H 0.26371 0.91283 0.85908 0.0
H69 H 0.25881 0.94769 0.81692 0.0
H70 H 0.28366 0.97389 0.77351 0.0
H71 H 0.32905 0.98219 0.74389 0.0
Mn72 Mn 0.62761 0.32686 0.67754 0.0
Mn73 Mn 0.63388 0.40003 0.66055 0.0
C74 C 0.67215 0.35127 0.68558 0.0
C75 C 0.61361 0.29104 0.71193 0.0
C76 C 0.63318 0.34956 0.61538 0.0
O77 O 0.58496 0.34052 0.67143 0.0
O78 O 0.5911 0.39089 0.66829 0.0
C79 C 0.61707 0.42744 0.71725 0.0
N80 N 0.63733 0.42366 0.69537 0.0
C81 C 0.67303 0.45487 0.72032 0.0
C82 C 0.65245 0.45932 0.74298 0.0
C83 C 0.62435 0.44553 0.74144 0.0
C84 C 0.6644 0.4369 0.69658 0.0
H85 H 0.5956 0.41657 0.71633 0.0
C86 C 0.57481 0.36727 0.67012 0.0
O87 O 0.61517 0.28424 0.68427 0.0
O88 O 0.61943 0.31853 0.71931 0.0
N89 N 0.67432 0.41135 0.65316 0.0
C90 C 0.69238 0.40302 0.63059 0.0
C91 C 0.72165 0.41402 0.62941 0.0
C92 C 0.73207 0.43342 0.65143 0.0
C93 C 0.71306 0.44177 0.67438 0.0
C94 C 0.68397 0.43044 0.67419 0.0
H95 H 0.6846 0.38793 0.61372 0.0
O96 O 0.67118 0.32216 0.68446 0.0
O97 O 0.64677 0.36498 0.68277 0.0
O98 O 0.63444 0.3277 0.63339 0.0
O99 O 0.63117 0.37715 0.62321 0.0
C100 C 0.72206 0.46031 0.6978 0.0
C101 C 0.70207 0.46685 0.72075 0.0
H102 H 0.65811 0.47296 0.76184 0.0
H103 H 0.60843 0.44866 0.75896 0.0
H104 H 0.73622 0.40739 0.61167 0.0
H105 H 0.75479 0.44155 0.65063 0.0
H106 H 0.74446 0.4693 0.69859 0.0
H107 H 0.70941 0.48073 0.73887 0.0
Mn108 Mn 0.86862 0.678 0.17086 0.0
Mn109 Mn 0.86866 0.60448 0.15361 0.0
C110 C 0.82719 0.64885 0.1809 0.0
C111 C 0.8797 0.71504 0.20546 0.0
C112 C 0.86233 0.6543 0.10842 0.0
O113 O 0.91245 0.66869 0.16476 0.0
O114 O 0.9107 0.61843 0.15764 0.0
C115 C 0.8935 0.57906 0.20824 0.0
N116 N 0.87091 0.58081 0.18843 0.0
C117 C 0.84123 0.5458 0.21602 0.0
C118 C 0.86426 0.54346 0.2366 0.0
C119 C 0.89051 0.56017 0.23269 0.0
C120 C 0.84564 0.56467 0.19187 0.0
H121 H 0.91359 0.59209 0.20546 0.0
C122 C 0.92499 0.64322 0.16097 0.0
O123 O 0.87683 0.72182 0.1779 0.0
O124 O 0.87654 0.68708 0.21258 0.0
N125 N 0.82916 0.58883 0.1497 0.0
C126 C 0.80822 0.59543 0.12911 0.0
C127 C 0.78017 0.58158 0.13058 0.0
C128 C 0.77393 0.56116 0.15321 0.0
C129 C 0.79584 0.55471 0.17415 0.0
C130 C 0.8235 0.56896 0.17139 0.0
H131 H 0.81279 0.61135 0.11185 0.0
O132 O 0.82485 0.67784 0.17872 0.0
O133 O 0.85376 0.63808 0.17684 0.0
O134 O 0.86124 0.67639 0.12633 0.0
O135 O 0.86581 0.62699 0.11642 0.0
C136 C 0.79107 0.53527 0.19803 0.0
C137 C 0.81376 0.53078 0.21893 0.0
H138 H 0.86191 0.52918 0.25567 0.0
H139 H 0.90831 0.55864 0.24858 0.0
H140 H 0.76332 0.5868 0.11444 0.0
H141 H 0.75215 0.55078 0.15446 0.0
H142 H 0.76989 0.52397 0.20076 0.0
H143 H 0.80968 0.5161 0.23741 0.0
Mn144 Mn 0.33884 0.11863 0.18588 0.0
Mn145 Mn 0.35596 0.12046 0.11383 0.0
C146 C 0.32492 0.15922 0.1574 0.0
C147 C 0.30691 0.10729 0.22471 0.0
C148 C 0.40123 0.12989 0.16201 0.0
O149 O 0.34773 0.07469 0.17639 0.0
O150 O 0.35579 0.07822 0.12745 0.0
C151 C 0.30308 0.09046 0.08849 0.0
N152 N 0.32129 0.11487 0.09024 0.0
C153 C 0.29295 0.14117 0.05362 0.0
C154 C 0.27394 0.11625 0.05132 0.0
C155 C 0.27902 0.09081 0.06886 0.0
C156 C 0.31673 0.1394 0.07335 0.0
H157 H 0.3069 0.07092 0.10201 0.0
C158 C 0.35351 0.06323 0.1513 0.0
O159 O 0.3353 0.11085 0.2287 0.0
O160 O 0.29735 0.10861 0.19792 0.0
N161 N 0.35666 0.16041 0.09852 0.0
C162 C 0.37548 0.1834 0.10535 0.0
C163 C 0.37273 0.21093 0.09064 0.0
C164 C 0.35073 0.21447 0.0691 0.0
C165 C 0.33141 0.19059 0.06265 0.0
C166 C 0.33544 0.16357 0.07781 0.0
H167 H 0.3924 0.18076 0.12193 0.0
O168 O 0.32794 0.16217 0.18553 0.0
O169 O 0.33079 0.13278 0.14679 0.0
O170 O 0.38318 0.12897 0.18346 0.0
O171 O 0.39335 0.12658 0.13541 0.0
C172 C 0.30802 0.19266 0.04219 0.0
C173 C 0.28878 0.16798 0.03771 0.0
H174 H 0.2552 0.11653 0.0364 0.0
H175 H 0.26436 0.07156 0.0673 0.0
H176 H 0.38756 0.22936 0.09584 0.0
H177 H 0.34893 0.23565 0.05774 0.0
H178 H 0.30434 0.21325 0.03009 0.0
H179 H 0.27058 0.17002 0.02229 0.0
Mn180 Mn 0.16385 0.8734 0.67452 0.0
Mn181 Mn 0.14474 0.87008 0.60328 0.0
C182 C 0.16987 0.82883 0.64882 0.0
C183 C 0.19826 0.88291 0.71138 0.0
C184 C 0.09988 0.8679 0.65263 0.0
O185 O 0.1607 0.9177 0.66334 0.0
O186 O 0.14987 0.91269 0.61537 0.0
C187 C 0.20116 0.89237 0.57782 0.0
N188 N 0.1797 0.87083 0.57954 0.0
C189 C 0.20288 0.8417 0.54147 0.0
C190 C 0.22523 0.8636 0.53918 0.0
C191 C 0.22445 0.88896 0.55756 0.0
C192 C 0.18051 0.84611 0.56234 0.0
H193 H 0.20046 0.91198 0.59177 0.0
C194 C 0.1551 0.9287 0.63813 0.0
O195 O 0.16987 0.88336 0.7166 0.0
O196 O 0.20656 0.87831 0.68452 0.0
N197 N 0.1388 0.83043 0.58835 0.0
C198 C 0.11627 0.81087 0.59432 0.0
C199 C 0.11344 0.78455 0.57762 0.0
C200 C 0.13361 0.77879 0.55482 0.0
C201 C 0.15707 0.79892 0.54951 0.0
C202 C 0.15861 0.82487 0.56677 0.0
H203 H 0.10026 0.81559 0.61134 0.0
O204 O 0.16806 0.82903 0.67716 0.0
O205 O 0.16859 0.85507 0.63616 0.0
O206 O 0.11854 0.86893 0.6736 0.0
O207 O 0.10723 0.86872 0.62566 0.0
C208 C 0.17873 0.79457 0.52756 0.0
C209 C 0.20188 0.81568 0.52386 0.0
H210 H 0.24311 0.86116 0.52345 0.0
H211 H 0.24165 0.90593 0.55598 0.0
H212 H 0.09541 0.76902 0.5819 0.0
H213 H 0.13051 0.75902 0.54137 0.0
H214 H 0.17787 0.77508 0.51339 0.0
H215 H 0.21868 0.8118 0.50727 0.0
Mn216 Mn 0.83405 0.37558 0.83156 0.0
Mn217 Mn 0.858 0.36867 0.9012 0.0
C218 C 0.82768 0.33062 0.85612 0.0
C219 C 0.79681 0.38892 0.79852 0.0
C220 C 0.89881 0.36399 0.84902 0.0
O221 O 0.84073 0.4189 0.84352 0.0
O222 O 0.8571 0.41187 0.8896 0.0
C223 C 0.80592 0.39716 0.92959 0.0
N224 N 0.82458 0.37323 0.92666 0.0
C225 C 0.79877 0.34587 0.96432 0.0
C226 C 0.77936 0.37028 0.96789 0.0
C227 C 0.78289 0.396 0.95037 0.0
C228 C 0.8212 0.34829 0.94319 0.0
H229 H 0.80857 0.41695 0.91616 0.0
C230 C 0.85061 0.42879 0.86783 0.0
O231 O 0.82452 0.3876 0.79042 0.0
O232 O 0.79104 0.38329 0.82576 0.0
N233 N 0.8602 0.3285 0.91576 0.0
C234 C 0.88005 0.30652 0.90869 0.0
C235 C 0.87967 0.27935 0.92424 0.0
C236 C 0.85909 0.2752 0.94701 0.0
C237 C 0.83862 0.298 0.95368 0.0
C238 C 0.84031 0.32473 0.93765 0.0
H239 H 0.8962 0.3098 0.89148 0.0
O240 O 0.82715 0.33169 0.82776 0.0
O241 O 0.8312 0.35629 0.86954 0.0
O242 O 0.87928 0.36897 0.8293 0.0
O243 O 0.89333 0.36302 0.87641 0.0
C244 C 0.8167 0.29535 0.97561 0.0
C245 C 0.79661 0.31915 0.98073 0.0
H246 H 0.76159 0.36947 0.9839 0.0
H247 H 0.76793 0.41488 0.9529 0.0
H248 H 0.89543 0.26177 0.91895 0.0
H249 H 0.85953 0.25456 0.95939 0.0
H250 H 0.81493 0.27511 0.9886 0.0
H251 H 0.77958 0.31667 0.99735 0.0
Mn252 Mn 0.65981 0.6244 0.32317 0.0
Mn253 Mn 0.65107 0.61834 0.39608 0.0
C254 C 0.67324 0.6642 0.35296 0.0
C255 C 0.69001 0.61652 0.2822 0.0
C256 C 0.59985 0.62581 0.35304 0.0
O257 O 0.65397 0.57964 0.33001 0.0
O258 O 0.65698 0.57739 0.37945 0.0
C259 C 0.70994 0.59607 0.41535 0.0
N260 N 0.68812 0.61727 0.41655 0.0
C261 C 0.71518 0.6458 0.45262 0.0
C262 C 0.7379 0.6242 0.45185 0.0
C263 C 0.73526 0.59925 0.43311 0.0
C264 C 0.69028 0.64123 0.43471 0.0
H265 H 0.70804 0.57696 0.40085 0.0
C266 C 0.65542 0.56504 0.35406 0.0
O267 O 0.66132 0.61921 0.27957 0.0
O268 O 0.70075 0.61747 0.3085 0.0
N269 N 0.64554 0.6568 0.41407 0.0
C270 C 0.62301 0.67688 0.41015 0.0
C271 C 0.62293 0.70377 0.42626 0.0
C272 C 0.646 0.70973 0.44617 0.0
C273 C 0.66913 0.68888 0.44961 0.0
C274 C 0.66783 0.66229 0.43322 0.0
H275 H 0.60524 0.67245 0.39484 0.0
O276 O 0.66789 0.66843 0.32534 0.0
O277 O 0.67052 0.63666 0.36217 0.0
O278 O 0.61527 0.63139 0.33023 0.0
O279 O 0.61124 0.61935 0.37785 0.0
C280 C 0.69369 0.69368 0.46823 0.0
C281 C 0.71669 0.67214 0.46974 0.0
H282 H 0.75763 0.62674 0.46526 0.0
H283 H 0.75278 0.58257 0.43228 0.0
H284 H 0.60512 0.71986 0.42336 0.0
H285 H 0.64573 0.73042 0.45862 0.0
H286 H 0.69534 0.71407 0.48112 0.0
H287 H 0.73571 0.67632 0.48376 0.0
Mn288 Mn 0.17316 0.3177 0.12348 0.0
Mn289 Mn 0.23105 0.34798 0.08693 0.0
C290 C 0.21518 0.28913 0.11428 0.0
C291 C 0.15001 0.30809 0.16843 0.0
C292 C 0.17336 0.32891 0.05754 0.0
O293 O 0.16518 0.36271 0.12632 0.0
O294 O 0.20718 0.38047 0.10521 0.0
C295 C 0.26589 0.3735 0.13604 0.0
N296 N 0.26409 0.35496 0.11236 0.0
C297 C 0.31549 0.34067 0.11725 0.0
C298 C 0.31795 0.35969 0.14165 0.0
C299 C 0.29302 0.37612 0.15111 0.0
C300 C 0.28793 0.33908 0.10304 0.0
H301 H 0.24676 0.38616 0.14333 0.0
C302 C 0.18235 0.3842 0.11859 0.0
O303 O 0.13505 0.30714 0.14407 0.0
O304 O 0.17779 0.3155 0.16664 0.0
N305 N 0.25576 0.3186 0.06845 0.0
C306 C 0.24902 0.29977 0.04585 0.0
C307 C 0.27133 0.28135 0.03403 0.0
C308 C 0.30028 0.28254 0.04553 0.0
C309 C 0.30657 0.3017 0.06915 0.0
C310 C 0.28351 0.31982 0.07976 0.0
H311 H 0.22685 0.29896 0.03677 0.0
O312 O 0.18981 0.27637 0.11972 0.0
O313 O 0.21511 0.31833 0.11427 0.0
O314 O 0.16054 0.31731 0.07984 0.0
O315 O 0.19883 0.34151 0.05854 0.0
C316 C 0.33471 0.30344 0.08268 0.0
C317 C 0.33913 0.3228 0.1068 0.0
H318 H 0.33879 0.36167 0.15342 0.0
H319 H 0.29472 0.39076 0.16998 0.0
H320 H 0.26631 0.26645 0.01594 0.0
H321 H 0.31748 0.26875 0.03588 0.0
H322 H 0.35302 0.28974 0.07495 0.0
H323 H 0.36073 0.3236 0.11731 0.0
Mn324 Mn 0.6781 0.17394 0.88474 0.0
Mn325 Mn 0.73619 0.14691 0.92327 0.0
C326 C 0.71536 0.20612 0.90019 0.0
C327 C 0.65608 0.18448 0.8398 0.0
C328 C 0.67672 0.16074 0.95064 0.0
O329 O 0.67467 0.1292 0.87762 0.0
O330 O 0.71302 0.11338 0.90531 0.0
C331 C 0.77012 0.12369 0.87246 0.0
N332 N 0.76868 0.14131 0.89683 0.0
C333 C 0.81947 0.15724 0.89067 0.0
C334 C 0.82157 0.13914 0.86559 0.0
C335 C 0.79675 0.12237 0.8564 0.0
C336 C 0.79232 0.15775 0.90569 0.0
H337 H 0.7511 0.11077 0.86533 0.0
C338 C 0.69069 0.10849 0.88852 0.0
O339 O 0.64005 0.18162 0.86333 0.0
O340 O 0.68455 0.18079 0.84238 0.0
N341 N 0.76087 0.17612 0.94201 0.0
C342 C 0.75485 0.19306 0.96616 0.0
C343 C 0.7774 0.21087 0.97844 0.0
C344 C 0.80592 0.21083 0.96591 0.0
C345 C 0.81154 0.1935 0.94087 0.0
C346 C 0.78829 0.17589 0.92985 0.0
H347 H 0.73309 0.19274 0.97615 0.0
O348 O 0.6892 0.2162 0.89337 0.0
O349 O 0.71937 0.17726 0.89699 0.0
O350 O 0.66326 0.16839 0.92714 0.0
O351 O 0.704 0.15289 0.95183 0.0
C352 C 0.83929 0.19285 0.92648 0.0
C353 C 0.84317 0.17495 0.90124 0.0
H354 H 0.84208 0.13804 0.85316 0.0
H355 H 0.79815 0.10844 0.83701 0.0
H356 H 0.77294 0.22427 0.99774 0.0
H357 H 0.8234 0.22383 0.97604 0.0
H358 H 0.85777 0.20614 0.93449 0.0
H359 H 0.86448 0.17494 0.89016 0.0
Mn360 Mn 0.81762 0.83101 0.37971 0.0
Mn361 Mn 0.75932 0.85904 0.41739 0.0
C362 C 0.77689 0.80091 0.38897 0.0
C363 C 0.84071 0.8229 0.33454 0.0
C364 C 0.81748 0.84043 0.44595 0.0
O365 O 0.82441 0.87607 0.37774 0.0
O366 O 0.78288 0.89279 0.40043 0.0
C367 C 0.72445 0.88561 0.36892 0.0
N368 N 0.72633 0.86637 0.39202 0.0
C369 C 0.67537 0.85094 0.38582 0.0
C370 C 0.67282 0.87074 0.36207 0.0
C371 C 0.69748 0.88812 0.35357 0.0
C372 C 0.70269 0.84968 0.40051 0.0
H373 H 0.74341 0.89889 0.36228 0.0
C374 C 0.80741 0.89714 0.38667 0.0
O375 O 0.85586 0.8221 0.3588 0.0
O376 O 0.81272 0.8294 0.33658 0.0
N377 N 0.73489 0.82868 0.43473 0.0
C378 C 0.74192 0.80875 0.45629 0.0
C379 C 0.72014 0.78866 0.46643 0.0
C380 C 0.69139 0.78937 0.4544 0.0
C381 C 0.68471 0.81001 0.43217 0.0
C382 C 0.70724 0.82967 0.42313 0.0
H383 H 0.76402 0.80806 0.46554 0.0
O384 O 0.80258 0.78921 0.38285 0.0
O385 O 0.77572 0.83018 0.38929 0.0
O386 O 0.8306 0.83022 0.42318 0.0
O387 O 0.79153 0.85202 0.44556 0.0
C388 C 0.65682 0.81134 0.41813 0.0
C389 C 0.65215 0.8318 0.39498 0.0
H390 H 0.65214 0.87253 0.34999 0.0
H391 H 0.69573 0.90332 0.33517 0.0
H392 H 0.7255 0.77264 0.48346 0.0
H393 H 0.6747 0.77387 0.46231 0.0
H394 H 0.63898 0.79637 0.42463 0.0
H395 H 0.63077 0.83226 0.38403 0.0
Mn396 Mn 0.31944 0.66795 0.61681 0.0
Mn397 Mn 0.25861 0.64646 0.57897 0.0
C398 C 0.28301 0.70287 0.60494 0.0
C399 C 0.34409 0.67649 0.66117 0.0
C400 C 0.31725 0.65946 0.54989 0.0
O401 O 0.3211 0.62247 0.62124 0.0
O402 O 0.28196 0.61113 0.59258 0.0
C403 C 0.22708 0.61942 0.62949 0.0
N404 N 0.22754 0.63908 0.60665 0.0
C405 C 0.1775 0.65518 0.61691 0.0
C406 C 0.17641 0.635 0.64046 0.0
C407 C 0.20135 0.61711 0.64682 0.0
C408 C 0.20377 0.65654 0.60049 0.0
H409 H 0.24619 0.60564 0.63446 0.0
C410 C 0.30437 0.60354 0.60823 0.0
O411 O 0.35879 0.67337 0.63684 0.0
O412 O 0.31546 0.67337 0.65984 0.0
N413 N 0.23354 0.67753 0.56417 0.0
C414 C 0.23861 0.69651 0.54131 0.0
C415 C 0.21587 0.7158 0.53198 0.0
C416 C 0.18814 0.71512 0.54608 0.0
C417 C 0.18345 0.69559 0.56966 0.0
C418 C 0.20681 0.67659 0.57771 0.0
H419 H 0.2598 0.69684 0.53027 0.0
O420 O 0.30999 0.71117 0.61082 0.0
O421 O 0.2777 0.67408 0.60668 0.0
O422 O 0.33212 0.66369 0.57344 0.0
O423 O 0.2893 0.65431 0.54924 0.0
C424 C 0.15658 0.6943 0.58552 0.0
C425 C 0.15367 0.67422 0.60926 0.0
H426 H 0.15661 0.63316 0.65388 0.0
H427 H 0.20073 0.60156 0.66503 0.0
H428 H 0.21959 0.73093 0.51379 0.0
H429 H 0.1705 0.72937 0.53837 0.0
H430 H 0.13815 0.70888 0.57987 0.0
H431 H 0.13305 0.67367 0.62154 0.0
Mn432 Mn 0.86935 0.82986 0.67242 0.0
Mn433 Mn 0.86481 0.90527 0.66612 0.0
C434 C 0.82631 0.85477 0.68575 0.0
C435 C 0.88107 0.78829 0.70182 0.0
C436 C 0.85825 0.86291 0.61432 0.0
O437 O 0.91267 0.84201 0.66798 0.0
O438 O 0.90716 0.8923 0.664 0.0
C439 C 0.89388 0.92107 0.72223 0.0
N440 N 0.86993 0.92277 0.70403 0.0
C441 C 0.84286 0.95287 0.73882 0.0
C442 C 0.86734 0.95165 0.75784 0.0
C443 C 0.89293 0.93565 0.74951 0.0
C444 C 0.84519 0.93812 0.71181 0.0
H445 H 0.91349 0.90859 0.71601 0.0
C446 C 0.92315 0.86845 0.66465 0.0
O447 O 0.87936 0.7857 0.67348 0.0
O448 O 0.8771 0.81489 0.71254 0.0
N449 N 0.82518 0.92094 0.66787 0.0
C450 C 0.80285 0.91831 0.64784 0.0
C451 C 0.77536 0.93224 0.65325 0.0
C452 C 0.77114 0.94878 0.67914 0.0
C453 C 0.79453 0.95138 0.69932 0.0
C454 C 0.82155 0.9373 0.69258 0.0
H455 H 0.80587 0.90535 0.62807 0.0
O456 O 0.82566 0.82637 0.67946 0.0
O457 O 0.85222 0.8677 0.68424 0.0
O458 O 0.86211 0.83818 0.62825 0.0
O459 O 0.85863 0.88872 0.62669 0.0
C460 C 0.79187 0.96682 0.72615 0.0
C461 C 0.81602 0.96755 0.74589 0.0
H462 H 0.8666 0.96264 0.779 0.0
H463 H 0.91184 0.93444 0.76415 0.0
H464 H 0.75739 0.93005 0.63762 0.0
H465 H 0.74978 0.95918 0.68341 0.0
H466 H 0.77121 0.97781 0.73202 0.0
H467 H 0.81355 0.97908 0.76665 0.0
Mn468 Mn 0.62938 0.17213 0.18252 0.0
Mn469 Mn 0.63913 0.1006 0.1603 0.0
C470 C 0.6746 0.14882 0.18966 0.0
C471 C 0.61396 0.20529 0.21889 0.0
C472 C 0.63943 0.15385 0.11881 0.0
O473 O 0.58725 0.15758 0.17569 0.0
O474 O 0.59568 0.10908 0.16373 0.0
C475 C 0.61653 0.06993 0.21331 0.0
N476 N 0.63898 0.075 0.1939 0.0
C477 C 0.67211 0.04263 0.22068 0.0
C478 C 0.64926 0.03685 0.24083 0.0
C479 C 0.62135 0.05057 0.23711 0.0
C480 C 0.66589 0.06186 0.19721 0.0
H481 H 0.59516 0.08071 0.21072 0.0
C482 C 0.57825 0.13131 0.16887 0.0
O483 O 0.61541 0.21379 0.19169 0.0
O484 O 0.62082 0.17766 0.22465 0.0
N485 N 0.68011 0.08961 0.15636 0.0
C486 C 0.70023 0.09887 0.13594 0.0
C487 C 0.72949 0.08783 0.137 0.0
C488 C 0.73773 0.06742 0.159 0.0
C489 C 0.71656 0.05804 0.17963 0.0
C490 C 0.68763 0.06947 0.17723 0.0
H491 H 0.69408 0.11476 0.11914 0.0
O492 O 0.67268 0.17791 0.18999 0.0
O493 O 0.64977 0.13432 0.18568 0.0
O494 O 0.63651 0.17435 0.13821 0.0
O495 O 0.64021 0.12574 0.12465 0.0
C496 C 0.7232 0.0383 0.20285 0.0
C497 C 0.70099 0.03062 0.22337 0.0
H498 H 0.65298 0.02217 0.25938 0.0
H499 H 0.60367 0.04639 0.25268 0.0
H500 H 0.74571 0.09522 0.12103 0.0
H501 H 0.76042 0.05926 0.15997 0.0
H502 H 0.74541 0.02921 0.20534 0.0
H503 H 0.70648 0.01576 0.24135 0.0
Mn504 Mn 0.36671 0.67616 0.31878 0.0
Mn505 Mn 0.37015 0.60308 0.33723 0.0
C506 C 0.32752 0.64449 0.3074 0.0
C507 C 0.37636 0.71483 0.28596 0.0
C508 C 0.35798 0.65291 0.38102 0.0
O509 O 0.41071 0.66968 0.32653 0.0
O510 O 0.41141 0.61977 0.3355 0.0
C511 C 0.39999 0.57904 0.28438 0.0
N512 N 0.37613 0.5794 0.30278 0.0
C513 C 0.35043 0.5426 0.27351 0.0
C514 C 0.37482 0.54168 0.25437 0.0
C515 C 0.3997 0.55998 0.25985 0.0
C516 C 0.35213 0.56175 0.29781 0.0
H517 H 0.41905 0.59328 0.28834 0.0
C518 C 0.42448 0.64519 0.33182 0.0
O519 O 0.37255 0.72021 0.31367 0.0
O520 O 0.37535 0.68697 0.27758 0.0
N521 N 0.33162 0.58475 0.33891 0.0
C522 C 0.30916 0.5898 0.35835 0.0
C523 C 0.28224 0.57404 0.35534 0.0
C524 C 0.27868 0.55331 0.33237 0.0
C525 C 0.30214 0.54845 0.31267 0.0
C526 C 0.32857 0.56457 0.31696 0.0
H527 H 0.31164 0.60593 0.37586 0.0
O528 O 0.3234 0.6733 0.30932 0.0
O529 O 0.35453 0.63527 0.31238 0.0
O530 O 0.35751 0.67425 0.36246 0.0
O531 O 0.36329 0.62556 0.37419 0.0
C532 C 0.30008 0.52875 0.28858 0.0
C533 C 0.32422 0.5258 0.26903 0.0
H534 H 0.37456 0.52724 0.23526 0.0
H535 H 0.41854 0.55954 0.24508 0.0
H536 H 0.26419 0.57802 0.37054 0.0
H537 H 0.25776 0.54145 0.32992 0.0
H538 H 0.27989 0.51604 0.28467 0.0
H539 H 0.32223 0.51086 0.25039 0.0
Mn540 Mn 0.12839 0.33199 0.82919 0.0
Mn541 Mn 0.13307 0.40652 0.84076 0.0
C542 C 0.17186 0.3577 0.81792 0.0
C543 C 0.11552 0.29424 0.79554 0.0
C544 C 0.13584 0.35993 0.88986 0.0
O545 O 0.08523 0.34456 0.83405 0.0
O546 O 0.09043 0.39495 0.83678 0.0
C547 C 0.11065 0.42917 0.78398 0.0
N548 N 0.13276 0.42764 0.80433 0.0
C549 C 0.16467 0.45915 0.7752 0.0
C550 C 0.14217 0.46123 0.75403 0.0
C551 C 0.11505 0.44617 0.75844 0.0
C552 C 0.15887 0.44222 0.80041 0.0
H553 H 0.08986 0.41742 0.78716 0.0
C554 C 0.07441 0.37109 0.83524 0.0
O555 O 0.1174 0.28826 0.82338 0.0
O556 O 0.12063 0.32165 0.7878 0.0
N557 N 0.17338 0.42008 0.84431 0.0
C558 C 0.19363 0.41379 0.86565 0.0
C559 C 0.22237 0.42604 0.86385 0.0
C560 C 0.23002 0.44459 0.84013 0.0
C561 C 0.20882 0.45075 0.81843 0.0
C562 C 0.18041 0.43817 0.82155 0.0
H563 H 0.188 0.39928 0.88376 0.0
O564 O 0.17236 0.32885 0.82196 0.0
O565 O 0.14601 0.37027 0.82087 0.0
O566 O 0.13506 0.33615 0.87397 0.0
O567 O 0.13433 0.3865 0.87922 0.0
C568 C 0.21499 0.46828 0.79348 0.0
C569 C 0.19292 0.47252 0.7719 0.0
H570 H 0.1456 0.47403 0.73414 0.0
H571 H 0.09765 0.44751 0.74211 0.0
H572 H 0.23867 0.42104 0.8806 0.0
H573 H 0.25233 0.45371 0.83865 0.0
H574 H 0.23677 0.47824 0.79045 0.0
H575 H 0.19807 0.48568 0.7526 0.0
Mn576 Mn 0.67377 0.87973 0.84142 0.0
Mn577 Mn 0.65287 0.87072 0.91154 0.0
C578 C 0.68394 0.83534 0.86569 0.0
C579 C 0.70957 0.89445 0.80749 0.0
C580 C 0.60984 0.86912 0.86018 0.0
O581 O 0.66589 0.92262 0.8552 0.0
O582 O 0.65792 0.91435 0.90342 0.0
C583 C 0.70719 0.89212 0.94181 0.0
N584 N 0.68704 0.86988 0.9365 0.0
C585 C 0.71357 0.83555 0.96774 0.0
C586 C 0.73437 0.85822 0.97382 0.0
C587 C 0.73117 0.88662 0.96077 0.0
C588 C 0.68986 0.84248 0.949 0.0
H589 H 0.70514 0.91382 0.93145 0.0
C590 C 0.66188 0.93191 0.88144 0.0
O591 O 0.68167 0.89249 0.80021 0.0
O592 O 0.71623 0.88936 0.83464 0.0
N593 N 0.64832 0.82911 0.92144 0.0
C594 C 0.62784 0.80899 0.91139 0.0
C595 C 0.62879 0.77911 0.92126 0.0
C596 C 0.65081 0.77022 0.94128 0.0
C597 C 0.67165 0.79132 0.95132 0.0
C598 C 0.66939 0.82087 0.94099 0.0
H599 H 0.61104 0.81558 0.89578 0.0
O600 O 0.68308 0.83591 0.8373 0.0
O601 O 0.67844 0.86066 0.87863 0.0
O602 O 0.62929 0.87078 0.83996 0.0
O603 O 0.61613 0.87049 0.88746 0.0
C604 C 0.69503 0.78399 0.97058 0.0
C605 C 0.71595 0.80609 0.97881 0.0
H606 H 0.75311 0.85394 0.98814 0.0
H607 H 0.7473 0.90414 0.96511 0.0
H608 H 0.61272 0.76292 0.91329 0.0
H609 H 0.65169 0.74706 0.94856 0.0
H610 H 0.69738 0.76129 0.97886 0.0
H611 H 0.73409 0.80005 0.99328 0.0
Mn612 Mn 0.83269 0.12508 0.33837 0.0
Mn613 Mn 0.85045 0.13449 0.40934 0.0
C614 C 0.82489 0.17106 0.36077 0.0
C615 C 0.79732 0.11049 0.30381 0.0
C616 C 0.89609 0.13139 0.36018 0.0
O617 O 0.83746 0.08225 0.35353 0.0
O618 O 0.84214 0.09118 0.40202 0.0
C619 C 0.79288 0.11888 0.43697 0.0
N620 N 0.81531 0.13898 0.43256 0.0
C621 C 0.79085 0.17602 0.46253 0.0
C622 C 0.76771 0.15555 0.46773 0.0
C623 C 0.76871 0.12688 0.45484 0.0
C624 C 0.81458 0.16664 0.44485 0.0
H625 H 0.79328 0.09702 0.42671 0.0
C626 C 0.83884 0.07337 0.38012 0.0
O627 O 0.82548 0.11109 0.29726 0.0
O628 O 0.79003 0.11753 0.33038 0.0
N629 N 0.85816 0.17575 0.41875 0.0
C630 C 0.8808 0.19374 0.40941 0.0
C631 C 0.88224 0.22368 0.41908 0.0
C632 C 0.86039 0.23483 0.4382 0.0
C633 C 0.83732 0.2159 0.44756 0.0
C634 C 0.83725 0.18614 0.4375 0.0
H635 H 0.89754 0.18541 0.39452 0.0
O636 O 0.8264 0.16922 0.33246 0.0
O637 O 0.82772 0.14588 0.37479 0.0
O638 O 0.87776 0.13119 0.33885 0.0
O639 O 0.88817 0.13084 0.38708 0.0
C640 C 0.81398 0.22562 0.46586 0.0
C641 C 0.79077 0.2057 0.47335 0.0
H642 H 0.74882 0.16178 0.48116 0.0
H643 H 0.75076 0.11108 0.45846 0.0
H644 H 0.90004 0.2382 0.41166 0.0
H645 H 0.86137 0.25805 0.44533 0.0
H646 H 0.81339 0.24854 0.47389 0.0
H647 H 0.77265 0.21361 0.48698 0.0
Mn648 Mn 0.16027 0.61515 0.16747 0.0
Mn649 Mn 0.14971 0.62104 0.09467 0.0
C650 C 0.17111 0.65965 0.14317 0.0
C651 C 0.19197 0.60419 0.20675 0.0
C652 C 0.09936 0.61896 0.13902 0.0
O653 O 0.15752 0.57127 0.15378 0.0
O654 O 0.15738 0.57845 0.10467 0.0
C655 C 0.20968 0.6049 0.0729 0.0
N656 N 0.18687 0.62497 0.07463 0.0
C657 C 0.21363 0.66085 0.04524 0.0
C658 C 0.23721 0.64037 0.0428 0.0
C659 C 0.23525 0.61231 0.05676 0.0
C660 C 0.18853 0.65206 0.0613 0.0
H661 H 0.2085 0.58355 0.08402 0.0
C662 C 0.15864 0.56148 0.12736 0.0
O663 O 0.16322 0.6041 0.20993 0.0
O664 O 0.20202 0.60903 0.18059 0.0
N665 N 0.14276 0.66184 0.08316 0.0
C666 C 0.1194 0.68006 0.09002 0.0
C667 C 0.11875 0.7096 0.07921 0.0
C668 C 0.1421 0.72011 0.06151 0.0
C669 C 0.16591 0.70096 0.05476 0.0
C670 C 0.16522 0.67165 0.06592 0.0
H671 H 0.1015 0.67221 0.1038 0.0
O672 O 0.16614 0.65993 0.17116 0.0
O673 O 0.16888 0.63364 0.13072 0.0
O674 O 0.11527 0.62043 0.16211 0.0
O675 O 0.11008 0.61762 0.11315 0.0
C676 C 0.19069 0.71008 0.03807 0.0
C677 C 0.21451 0.69003 0.03327 0.0
H678 H 0.25714 0.64616 0.0307 0.0
H679 H 0.25352 0.59653 0.05528 0.0
H680 H 0.10037 0.7243 0.08466 0.0
H681 H 0.14168 0.74302 0.0535 0.0
H682 H 0.19189 0.73265 0.02925 0.0
H683 H 0.23368 0.69749 0.02086 0.0
Mn684 Mn 0.34053 0.37537 0.67692 0.0
Mn685 Mn 0.34625 0.37329 0.6034 0.0
C686 C 0.32959 0.33157 0.65175 0.0
C687 C 0.31086 0.38489 0.71775 0.0
C688 C 0.39958 0.37006 0.64424 0.0
O689 O 0.34228 0.41957 0.66624 0.0
O690 O 0.34355 0.41599 0.617 0.0
C691 C 0.28639 0.39684 0.58899 0.0
N692 N 0.3073 0.37482 0.58657 0.0
C693 C 0.27485 0.34481 0.55646 0.0
C694 C 0.25314 0.36736 0.5583 0.0
C695 C 0.25892 0.39345 0.5747 0.0
C696 C 0.30197 0.3496 0.57086 0.0
H697 H 0.29053 0.41674 0.6019 0.0
C698 C 0.3426 0.43137 0.64081 0.0
O699 O 0.33972 0.38469 0.72 0.0
O700 O 0.29974 0.38032 0.692 0.0
N701 N 0.34824 0.33346 0.58748 0.0
C702 C 0.37013 0.31251 0.59051 0.0
C703 C 0.36716 0.28448 0.57664 0.0
C704 C 0.34166 0.27819 0.55994 0.0
C705 C 0.31931 0.30001 0.5573 0.0
C706 C 0.32369 0.32771 0.57128 0.0
H707 H 0.38939 0.31691 0.6039 0.0
O708 O 0.33624 0.33076 0.67935 0.0
O709 O 0.32932 0.35811 0.63982 0.0
O710 O 0.38515 0.37142 0.66833 0.0
O711 O 0.38726 0.3707 0.61898 0.0
C712 C 0.29249 0.29499 0.54208 0.0
C713 C 0.27028 0.31739 0.54164 0.0
H714 H 0.23178 0.36467 0.54759 0.0
H715 H 0.24216 0.41082 0.57648 0.0
H716 H 0.38434 0.26762 0.5791 0.0
H717 H 0.33925 0.25638 0.54963 0.0
H718 H 0.28846 0.27377 0.53112 0.0
H719 H 0.24951 0.31303 0.53036 0.0
Mn720 Mn 0.83002 0.66892 0.87923 0.0
Mn721 Mn 0.90407 0.65771 0.87671 0.0
C722 C 0.85677 0.68349 0.83829 0.0
C723 C 0.78905 0.69828 0.89103 0.0
C724 C 0.85891 0.60787 0.86831 0.0
O725 O 0.84071 0.66211 0.92212 0.0
O726 O 0.8906 0.65688 0.9184 0.0
C727 C 0.92411 0.71385 0.90545 0.0
N728 N 0.9241 0.69528 0.88171 0.0
C729 C 0.95575 0.72908 0.85482 0.0
C730 C 0.95628 0.74845 0.87906 0.0
C731 C 0.94038 0.74079 0.90448 0.0
C732 C 0.93945 0.70235 0.8572 0.0
H733 H 0.9117 0.70818 0.92493 0.0
C734 C 0.86645 0.65827 0.9334 0.0
O735 O 0.78659 0.66936 0.88792 0.0
O736 O 0.81544 0.70984 0.88838 0.0
N737 N 0.91949 0.65841 0.83764 0.0
C738 C 0.91493 0.63836 0.81551 0.0
C739 C 0.92833 0.64334 0.78816 0.0
C740 C 0.94626 0.66884 0.78385 0.0
C741 C 0.95071 0.6891 0.80699 0.0
C742 C 0.93702 0.68281 0.83385 0.0
H743 H 0.90092 0.61889 0.81862 0.0
O744 O 0.82841 0.67837 0.8365 0.0
O745 O 0.86855 0.67974 0.86409 0.0
O746 O 0.83589 0.62443 0.87014 0.0
O747 O 0.88547 0.61778 0.87088 0.0
C748 C 0.9676 0.71565 0.80424 0.0
C749 C 0.97015 0.73561 0.82815 0.0
H750 H 0.96856 0.76941 0.87829 0.0
H751 H 0.94053 0.75572 0.92321 0.0
H752 H 0.92468 0.62767 0.77037 0.0
H753 H 0.95628 0.67277 0.76262 0.0
H754 H 0.97839 0.72114 0.78372 0.0
H755 H 0.98287 0.75614 0.82564 0.0
Mn756 Mn 0.31265 0.82831 0.11023 0.0
Mn757 Mn 0.38684 0.83752 0.10602 0.0
C758 C 0.34271 0.81216 0.14798 0.0
C759 C 0.27116 0.79853 0.10137 0.0
C760 C 0.34356 0.88795 0.12071 0.0
O761 O 0.31932 0.83786 0.06718 0.0
O762 O 0.36962 0.83787 0.06565 0.0
C763 C 0.4027 0.78039 0.07657 0.0
N764 N 0.40574 0.79955 0.09965 0.0
C765 C 0.43949 0.76568 0.12383 0.0
C766 C 0.43714 0.74586 0.10004 0.0
C767 C 0.41859 0.75322 0.07635 0.0
C768 C 0.42341 0.79262 0.12264 0.0
H769 H 0.38804 0.78566 0.05861 0.0
C770 C 0.34397 0.83919 0.05331 0.0
O771 O 0.26835 0.82731 0.10563 0.0
O772 O 0.29796 0.78787 0.10049 0.0
N773 N 0.4059 0.83695 0.14355 0.0
C774 C 0.404 0.8574 0.16572 0.0
C775 C 0.42013 0.85265 0.19164 0.0
C776 C 0.43809 0.82699 0.19449 0.0
C777 C 0.43987 0.80637 0.17132 0.0
C778 C 0.42355 0.81245 0.14587 0.0
H779 H 0.39009 0.87707 0.16379 0.0
O780 O 0.31459 0.81682 0.15234 0.0
O781 O 0.35219 0.81654 0.12146 0.0
O782 O 0.32 0.87201 0.12111 0.0
O783 O 0.3692 0.87761 0.11378 0.0
C784 C 0.45666 0.77968 0.17274 0.0
C785 C 0.45648 0.75935 0.14901 0.0
H786 H 0.4491 0.72472 0.09994 0.0
H787 H 0.41636 0.73786 0.05808 0.0
H788 H 0.41858 0.86863 0.20946 0.0
H789 H 0.45022 0.82323 0.21465 0.0
H790 H 0.46945 0.77434 0.19216 0.0
H791 H 0.46911 0.73867 0.15055 0.0
Mn792 Mn 0.17481 0.17273 0.62629 0.0
Mn793 Mn 0.10274 0.15357 0.63358 0.0
C794 C 0.15113 0.1798 0.67074 0.0
C795 C 0.20967 0.20944 0.61384 0.0
C796 C 0.15302 0.10808 0.63476 0.0
O797 O 0.16138 0.16784 0.58396 0.0
O798 O 0.11299 0.15663 0.59104 0.0
C799 C 0.07626 0.20963 0.61047 0.0
N800 N 0.07926 0.18937 0.63261 0.0
C801 C 0.04689 0.21817 0.66386 0.0
C802 C 0.04325 0.23921 0.6413 0.0
C803 C 0.05801 0.23492 0.6145 0.0
C804 C 0.0651 0.19323 0.65846 0.0
H805 H 0.08782 0.20657 0.58995 0.0
C806 C 0.13548 0.16147 0.57433 0.0
O807 O 0.21695 0.18113 0.61413 0.0
O808 O 0.18228 0.21596 0.61979 0.0
N809 N 0.08989 0.14995 0.67338 0.0
C810 C 0.09717 0.12853 0.69344 0.0
C811 C 0.08501 0.13006 0.72173 0.0
C812 C 0.06544 0.15352 0.72906 0.0
C813 C 0.05807 0.17514 0.70795 0.0
C814 C 0.07061 0.17227 0.68001 0.0
H815 H 0.11239 0.1106 0.68799 0.0
O816 O 0.17988 0.17852 0.66924 0.0
O817 O 0.13705 0.17748 0.64587 0.0
O818 O 0.17455 0.12671 0.63191 0.0
O819 O 0.12561 0.1158 0.63544 0.0
C820 C 0.03931 0.19982 0.71373 0.0
C821 C 0.03373 0.22132 0.69171 0.0
H822 H 0.02942 0.2589 0.64442 0.0
H823 H 0.05547 0.25117 0.59706 0.0
H824 H 0.09086 0.11332 0.73792 0.0
H825 H 0.05639 0.15482 0.75101 0.0
H826 H 0.02938 0.20271 0.73517 0.0
H827 H 0.01961 0.24042 0.69655 0.0
Mn828 Mn 0.66831 0.32454 0.39074 0.0
Mn829 Mn 0.59639 0.34335 0.38118 0.0
C830 C 0.6458 0.31745 0.34603 0.0
C831 C 0.70434 0.28947 0.40344 0.0
C832 C 0.64612 0.38873 0.37955 0.0
O833 O 0.65383 0.32845 0.4324 0.0
O834 O 0.60691 0.34399 0.42384 0.0
C835 C 0.57099 0.28895 0.409 0.0
N836 N 0.57356 0.30727 0.38525 0.0
C837 C 0.54185 0.27502 0.35659 0.0
C838 C 0.53871 0.25594 0.38081 0.0
C839 C 0.55336 0.26294 0.40713 0.0
C840 C 0.55952 0.30076 0.35983 0.0
H841 H 0.58242 0.29405 0.4292 0.0
C842 C 0.62851 0.33761 0.44116 0.0
O843 O 0.71032 0.31807 0.40368 0.0
O844 O 0.67741 0.28157 0.39684 0.0
N845 N 0.58294 0.34339 0.34138 0.0
C846 C 0.58903 0.36356 0.31975 0.0
C847 C 0.57645 0.35953 0.29187 0.0
C848 C 0.55765 0.33489 0.28654 0.0
C849 C 0.55137 0.31465 0.30924 0.0
C850 C 0.56427 0.32003 0.33668 0.0
H851 H 0.60376 0.38228 0.32361 0.0
O852 O 0.6745 0.31962 0.34798 0.0
O853 O 0.63101 0.31908 0.37052 0.0
O854 O 0.66691 0.37039 0.38623 0.0
O855 O 0.61894 0.38104 0.37586 0.0
C856 C 0.53327 0.28905 0.30556 0.0
C857 C 0.52854 0.26923 0.32921 0.0
H858 H 0.52531 0.23574 0.37939 0.0
H859 H 0.55118 0.24824 0.42588 0.0
H860 H 0.58145 0.37523 0.27446 0.0
H861 H 0.54829 0.33164 0.26491 0.0
H862 H 0.52313 0.28422 0.28456 0.0
H863 H 0.51483 0.24945 0.32603 0.0
H864 H 0.10867 0.26449 0.17736 0.0
H865 H 0.16518 0.32744 0.22279 0.0
H866 H 0.15382 0.30313 0.26946 0.0
H867 H 0.13437 0.25913 0.29601 0.0
H868 H 0.08266 0.19295 0.24942 0.0
H869 H 0.08504 0.22334 0.2049 0.0
C870 C 0.11774 0.27337 0.19761 0.0
C871 C 0.1377 0.29768 0.19669 0.0
C872 C 0.11222 0.25836 0.22421 0.0
C873 C 0.14977 0.30869 0.223 0.0
C874 C 0.1434 0.2947 0.24967 0.0
C875 C 0.12289 0.25189 0.27633 0.0
C876 C 0.10834 0.22392 0.27594 0.0
C877 C 0.12559 0.2688 0.2504 0.0
C878 C 0.09402 0.21444 0.25017 0.0
C879 C 0.0955 0.23173 0.22468 0.0
H880 H 0.36924 0.73181 0.78484 0.0
H881 H 0.42575 0.78883 0.73267 0.0
H882 H 0.41885 0.75573 0.69037 0.0
H883 H 0.39016 0.71551 0.66628 0.0
H884 H 0.32832 0.6629 0.71703 0.0
H885 H 0.34401 0.68877 0.76175 0.0
C886 C 0.38079 0.73637 0.76446 0.0
C887 C 0.39814 0.76254 0.76185 0.0
C888 C 0.37531 0.71817 0.7398 0.0
C889 C 0.4124 0.76869 0.73515 0.0
C890 C 0.40829 0.74988 0.71093 0.0
C891 C 0.38082 0.70914 0.68729 0.0
C892 C 0.35822 0.68729 0.68846 0.0
C893 C 0.38884 0.72524 0.71266 0.0
C894 C 0.34579 0.67965 0.71567 0.0
C895 C 0.35466 0.69454 0.74121 0.0
H896 H 0.63812 0.23578 0.71386 0.0
H897 H 0.58161 0.29647 0.76194 0.0
H898 H 0.58509 0.26442 0.80532 0.0
H899 H 0.61142 0.22431 0.83174 0.0
H900 H 0.67371 0.16817 0.78529 0.0
H901 H 0.66063 0.19268 0.73914 0.0
C902 C 0.62581 0.24134 0.73357 0.0
C903 C 0.60953 0.26821 0.73484 0.0
C904 C 0.62942 0.22378 0.75888 0.0
C905 C 0.59419 0.27574 0.7606 0.0
C906 C 0.59635 0.25754 0.78542 0.0
C907 C 0.62141 0.21693 0.81133 0.0
C908 C 0.64345 0.19458 0.81174 0.0
C909 C 0.61497 0.23225 0.78519 0.0
C910 C 0.65672 0.18545 0.78536 0.0
C911 C 0.64933 0.19952 0.75903 0.0
H912 H 0.85531 0.77081 0.20817 0.0
H913 H 0.91175 0.70929 0.25528 0.0
H914 H 0.90939 0.74129 0.29874 0.0
H915 H 0.8844 0.78191 0.32564 0.0
H916 H 0.8233 0.84008 0.28011 0.0
H917 H 0.83463 0.81487 0.23384 0.0
C918 C 0.86779 0.76499 0.22769 0.0
C919 C 0.88364 0.73782 0.22864 0.0
C920 C 0.86512 0.78278 0.25308 0.0
C921 C 0.89933 0.73013 0.25417 0.0
C922 C 0.89788 0.74835 0.27905 0.0
C923 C 0.87431 0.78963 0.30541 0.0
C924 C 0.85303 0.81272 0.30623 0.0
C925 C 0.87984 0.77405 0.27915 0.0
C926 C 0.83972 0.82224 0.27998 0.0
C927 C 0.84607 0.80773 0.25354 0.0
H928 H 0.24853 0.09108 0.2241 0.0
H929 H 0.31809 0.12289 0.28141 0.0
H930 H 0.28152 0.13292 0.31975 0.0
H931 H 0.22887 0.13982 0.33406 0.0
H932 H 0.15962 0.10762 0.27684 0.0
H933 H 0.19679 0.09023 0.24163 0.0
C934 C 0.25575 0.09959 0.2452 0.0
C935 C 0.2859 0.10669 0.2497 0.0
C936 C 0.23456 0.10548 0.26712 0.0
C937 C 0.29498 0.11736 0.2773 0.0
C938 C 0.27404 0.12331 0.2992 0.0
C939 C 0.22212 0.12827 0.3142 0.0
C940 C 0.19172 0.12459 0.30811 0.0
C941 C 0.24366 0.11856 0.29394 0.0
C942 C 0.183 0.11008 0.28218 0.0
C943 C 0.20422 0.1004 0.26194 0.0
H944 H 0.28063 0.84892 0.81675 0.0
H945 H 0.34761 0.88031 0.75659 0.0
H946 H 0.30908 0.89762 0.7228 0.0
H947 H 0.25659 0.89772 0.70783 0.0
H948 H 0.18925 0.8677 0.76843 0.0
H949 H 0.22749 0.85671 0.80496 0.0
C950 C 0.28659 0.86015 0.7965 0.0
C951 C 0.31667 0.86372 0.78914 0.0
C952 C 0.2643 0.87014 0.77727 0.0
C953 C 0.32445 0.87789 0.76279 0.0
C954 C 0.30247 0.8876 0.74343 0.0
C955 C 0.25029 0.88937 0.72927 0.0
C956 C 0.22029 0.88306 0.73531 0.0
C957 C 0.27235 0.88302 0.75007 0.0
C958 C 0.21227 0.87265 0.76326 0.0
C959 C 0.23413 0.86612 0.78407 0.0
H960 H 0.79703 0.37664 0.74017 0.0
H961 H 0.74122 0.40951 0.81005 0.0
H962 H 0.69748 0.40556 0.77857 0.0
H963 H 0.67427 0.38409 0.73473 0.0
H964 H 0.72909 0.34771 0.66604 0.0
H965 H 0.77409 0.36153 0.69334 0.0
C966 C 0.7754 0.3837 0.74818 0.0
C967 C 0.77224 0.39301 0.77745 0.0
C968 C 0.75014 0.38022 0.73031 0.0
C969 C 0.7441 0.40195 0.78767 0.0
C970 C 0.71908 0.39957 0.76974 0.0
C971 C 0.69613 0.3803 0.72532 0.0
C972 C 0.69861 0.36562 0.69826 0.0
C973 C 0.72167 0.38746 0.74153 0.0
C974 C 0.72689 0.3595 0.6867 0.0
C975 C 0.75252 0.36726 0.70235 0.0
H976 H 0.76741 0.64775 0.17182 0.0
H977 H 0.83636 0.61642 0.22979 0.0
H978 H 0.7991 0.59863 0.26448 0.0
H979 H 0.74764 0.59934 0.28172 0.0
H980 H 0.67809 0.63297 0.22556 0.0
H981 H 0.71456 0.64213 0.18668 0.0
C982 C 0.77406 0.63626 0.19171 0.0
C983 C 0.80448 0.63263 0.19796 0.0
C984 C 0.75241 0.62696 0.21208 0.0
C985 C 0.81305 0.61846 0.22407 0.0
C986 C 0.79174 0.60867 0.24411 0.0
C987 C 0.74035 0.60814 0.26076 0.0
C988 C 0.71031 0.61592 0.25668 0.0
C989 C 0.76145 0.61382 0.23882 0.0
C990 C 0.70112 0.62691 0.22929 0.0
C991 C 0.72201 0.63234 0.20712 0.0
H992 H 0.32703 0.21997 0.16117 0.0
H993 H 0.27912 0.14689 0.12112 0.0
H994 H 0.245 0.18212 0.09793 0.0
H995 H 0.22466 0.23303 0.09454 0.0
H996 H 0.2643 0.30366 0.14581 0.0
H997 H 0.30601 0.27107 0.15844 0.0
C998 C 0.30948 0.212 0.14681 0.0
C999 C 0.30662 0.1811 0.1413 0.0
C1000 C 0.28845 0.23228 0.13551 0.0
C1001 C 0.28293 0.17074 0.12398 0.0
C1002 C 0.26306 0.19085 0.11119 0.0
C1003 C 0.24292 0.24139 0.10781 0.0
C1004 C 0.2425 0.27124 0.11767 0.0
C1005 C 0.26518 0.22161 0.11735 0.0
C1006 C 0.26537 0.28149 0.13611 0.0
C1007 C 0.2888 0.26256 0.144 0.0
H1008 H 0.78594 0.32583 0.89859 0.0
H1009 H 0.84369 0.27356 0.84319 0.0
H1010 H 0.81605 0.22787 0.85552 0.0
H1011 H 0.76948 0.20571 0.87412 0.0
H1012 H 0.71394 0.25707 0.93243 0.0
H1013 H 0.74716 0.30039 0.92754 0.0
C1014 C 0.79356 0.3042 0.89064 0.0
C1015 C 0.81711 0.30292 0.87048 0.0
C1016 C 0.77764 0.27806 0.89793 0.0
C1017 C 0.82575 0.27495 0.859 0.0
C1018 C 0.80986 0.24889 0.86589 0.0
C1019 C 0.76564 0.22575 0.88709 0.0
C1020 C 0.73966 0.22807 0.90402 0.0
C1021 C 0.78492 0.25047 0.88427 0.0
C1022 C 0.73401 0.25478 0.91948 0.0
C1023 C 0.75288 0.27957 0.91656 0.0
H1024 H 0.77193 0.74488 0.40986 0.0
H1025 H 0.72521 0.81183 0.35996 0.0
H1026 H 0.68443 0.77665 0.35096 0.0
H1027 H 0.66607 0.72444 0.3508 0.0
H1028 H 0.72237 0.65511 0.38587 0.0
H1029 H 0.75508 0.69267 0.40752 0.0
C1030 C 0.75237 0.75187 0.3977 0.0
C1031 C 0.75043 0.78148 0.38735 0.0
C1032 C 0.73078 0.73057 0.38988 0.0
C1033 C 0.72595 0.78991 0.37015 0.0
C1034 C 0.70304 0.7695 0.36434 0.0
C1035 C 0.68508 0.71776 0.36391 0.0
C1036 C 0.69051 0.6871 0.36891 0.0
C1037 C 0.70564 0.7395 0.37339 0.0
C1038 C 0.71624 0.67854 0.38414 0.0
C1039 C 0.73543 0.70006 0.3958 0.0
H1040 H 0.21369 0.82441 0.6081 0.0
H1041 H 0.15346 0.77155 0.66029 0.0
H1042 H 0.18195 0.72614 0.64912 0.0
H1043 H 0.22901 0.70386 0.63167 0.0
H1044 H 0.28654 0.75555 0.57559 0.0
H1045 H 0.25381 0.79922 0.58064 0.0
C1046 C 0.20569 0.80273 0.61547 0.0
C1047 C 0.18114 0.80127 0.63448 0.0
C1048 C 0.22208 0.77667 0.60877 0.0
C1049 C 0.17213 0.77315 0.64535 0.0
C1050 C 0.18855 0.74723 0.63917 0.0
C1051 C 0.2335 0.72415 0.61932 0.0
C1052 C 0.25974 0.72627 0.60274 0.0
C1053 C 0.21429 0.74897 0.62191 0.0
C1054 C 0.26624 0.75332 0.58821 0.0
C1055 C 0.24759 0.7783 0.59114 0.0
H1056 H 0.85709 0.67415 0.77935 0.0
H1057 H 0.88539 0.73611 0.84639 0.0
H1058 H 0.90041 0.7724 0.80918 0.0
H1059 H 0.89862 0.78931 0.75831 0.0
H1060 H 0.8683 0.72898 0.69064 0.0
H1061 H 0.86148 0.68908 0.72708 0.0
C1062 C 0.86725 0.69533 0.78562 0.0
C1063 C 0.87086 0.70222 0.8155 0.0
C1064 C 0.87514 0.71648 0.76399 0.0
C1065 C 0.88334 0.72995 0.82352 0.0
C1066 C 0.89159 0.75085 0.80225 0.0
C1067 C 0.89109 0.76723 0.75141 0.0
C1068 C 0.88359 0.76222 0.72188 0.0
C1069 C 0.88668 0.74474 0.77251 0.0
C1070 C 0.8742 0.73342 0.71323 0.0
C1071 C 0.87005 0.71069 0.73412 0.0
H1072 H 0.62695 0.26483 0.22061 0.0
H1073 H 0.5895 0.19264 0.2717 0.0
H1074 H 0.59138 0.22385 0.31571 0.0
H1075 H 0.61235 0.26772 0.34088 0.0
H1076 H 0.65357 0.33834 0.29082 0.0
H1077 H 0.64184 0.31182 0.24518 0.0
C1078 C 0.6184 0.25634 0.24123 0.0
C1079 C 0.60836 0.22649 0.24308 0.0
C1080 C 0.62083 0.27393 0.2667 0.0
C1081 C 0.59758 0.21553 0.26991 0.0
C1082 C 0.59881 0.23327 0.29508 0.0
C1083 C 0.6177 0.27774 0.31987 0.0
C1084 C 0.63311 0.30513 0.31893 0.0
C1085 C 0.61169 0.26194 0.29396 0.0
C1086 C 0.64123 0.31743 0.29181 0.0
C1087 C 0.63462 0.30223 0.26581 0.0
H1088 H 0.38942 0.7098 0.22832 0.0
H1089 H 0.36666 0.77479 0.29487 0.0
H1090 H 0.35855 0.81294 0.25724 0.0
H1091 H 0.3498 0.82499 0.20523 0.0
H1092 H 0.36998 0.75895 0.13913 0.0
H1093 H 0.38768 0.72413 0.17663 0.0
C1094 C 0.38326 0.73248 0.23464 0.0
C1095 C 0.37803 0.73932 0.26424 0.0
C1096 C 0.37801 0.75404 0.2129 0.0
C1097 C 0.37053 0.76889 0.27217 0.0
C1098 C 0.36573 0.79068 0.25066 0.0
C1099 C 0.35888 0.80326 0.19917 0.0
C1100 C 0.35928 0.7946 0.16964 0.0
C1101 C 0.36815 0.7831 0.22093 0.0
C1102 C 0.37037 0.76626 0.16177 0.0
C1103 C 0.38013 0.74627 0.18321 0.0
H1104 H 0.11533 0.22809 0.6755 0.0
H1105 H 0.15974 0.16023 0.72637 0.0
H1106 H 0.14798 0.18749 0.7716 0.0
H1107 H 0.13194 0.23489 0.79548 0.0
H1108 H 0.08872 0.30287 0.74339 0.0
H1109 H 0.09176 0.27081 0.70019 0.0
C1110 C 0.12117 0.21861 0.69661 0.0
C1111 C 0.13765 0.19187 0.69776 0.0
C1112 C 0.11472 0.23464 0.72235 0.0
C1113 C 0.14653 0.18057 0.72511 0.0
C1114 C 0.13994 0.19622 0.75092 0.0
C1115 C 0.12235 0.24219 0.77489 0.0
C1116 C 0.11046 0.27133 0.77254 0.0
C1117 C 0.12499 0.2239 0.74974 0.0
C1118 C 0.0983 0.28064 0.74565 0.0
C1119 C 0.10017 0.2624 0.72087 0.0
H1120 H 0.70587 0.88427 0.74886 0.0
H1121 H 0.76715 0.9102 0.81714 0.0
H1122 H 0.80903 0.90315 0.78383 0.0
H1123 H 0.82846 0.88198 0.73812 0.0
H1124 H 0.76794 0.8543 0.67017 0.0
H1125 H 0.7254 0.86913 0.70061 0.0
C1126 C 0.72832 0.88917 0.75617 0.0
C1127 C 0.73346 0.89742 0.78548 0.0
C1128 C 0.75241 0.88412 0.73716 0.0
C1129 C 0.76267 0.90355 0.79473 0.0
C1130 C 0.78664 0.89933 0.77578 0.0
C1131 C 0.80595 0.88023 0.72966 0.0
C1132 C 0.80114 0.86795 0.70178 0.0
C1133 C 0.78183 0.88846 0.74738 0.0
C1134 C 0.77197 0.86427 0.69146 0.0
C1135 C 0.74775 0.87271 0.70884 0.0
H1136 H 0.67685 0.11282 0.23665 0.0
H1137 H 0.73186 0.15623 0.17214 0.0
H1138 H 0.77667 0.14255 0.19974 0.0
H1139 H 0.79896 0.12553 0.24622 0.0
H1140 H 0.74274 0.08616 0.31241 0.0
H1141 H 0.69978 0.08974 0.27981 0.0
C1142 C 0.69877 0.11821 0.22815 0.0
C1143 C 0.70132 0.13482 0.20219 0.0
C1144 C 0.72416 0.11114 0.24462 0.0
C1145 C 0.72961 0.14296 0.1919 0.0
C1146 C 0.75513 0.13526 0.20773 0.0
C1147 C 0.77748 0.11692 0.25308 0.0
C1148 C 0.77388 0.10581 0.28167 0.0
C1149 C 0.75258 0.12036 0.23471 0.0
C1150 C 0.74591 0.09501 0.29053 0.0
C1151 C 0.72133 0.09721 0.27199 0.0
H1152 H 0.26809 0.63863 0.3168 0.0
H1153 H 0.33879 0.61276 0.25829 0.0
H1154 H 0.30257 0.5931 0.2233 0.0
H1155 H 0.25084 0.59091 0.20609 0.0
H1156 H 0.17966 0.61723 0.264 0.0
H1157 H 0.21577 0.6285 0.30261 0.0
C1158 C 0.27543 0.62789 0.29672 0.0
C1159 C 0.30599 0.62666 0.29026 0.0
C1160 C 0.25436 0.61708 0.27644 0.0
C1161 C 0.31539 0.61324 0.26401 0.0
C1162 C 0.29466 0.60231 0.24386 0.0
C1163 C 0.24319 0.59843 0.22741 0.0
C1164 C 0.21266 0.60366 0.23202 0.0
C1165 C 0.26409 0.60517 0.24935 0.0
C1166 C 0.20303 0.61308 0.25984 0.0
C1167 C 0.22371 0.61977 0.28187 0.0
H1168 H 0.25387 0.40253 0.71689 0.0
H1169 H 0.32242 0.37107 0.77531 0.0
H1170 H 0.28512 0.36302 0.81384 0.0
H1171 H 0.23177 0.35776 0.82781 0.0
H1172 H 0.16422 0.38614 0.76681 0.0
H1173 H 0.20221 0.40274 0.73245 0.0
C1174 C 0.26076 0.39446 0.73826 0.0
C1175 C 0.29069 0.38697 0.74318 0.0
C1176 C 0.23923 0.38909 0.75974 0.0
C1177 C 0.29944 0.37696 0.77104 0.0
C1178 C 0.27808 0.37207 0.79294 0.0
C1179 C 0.2256 0.3682 0.80723 0.0
C1180 C 0.19536 0.37157 0.80008 0.0
C1181 C 0.24773 0.37692 0.7871 0.0
C1182 C 0.18739 0.38433 0.77313 0.0
C1183 C 0.20909 0.39353 0.75335 0.0
H1184 H 0.78762 0.75533 0.91093 0.0
H1185 H 0.73174 0.6853 0.87559 0.0
H1186 H 0.69159 0.7216 0.86789 0.0
H1187 H 0.67592 0.77485 0.86366 0.0
H1188 H 0.73307 0.84434 0.89787 0.0
H1189 H 0.76901 0.80679 0.91389 0.0
C1190 C 0.7664 0.74791 0.90215 0.0
C1191 C 0.76276 0.71792 0.89332 0.0
C1192 C 0.74375 0.76892 0.89733 0.0
C1193 C 0.73507 0.70839 0.88241 0.0
C1194 C 0.71221 0.72917 0.87777 0.0
C1195 C 0.69594 0.78148 0.87528 0.0
C1196 C 0.7018 0.81207 0.88004 0.0
C1197 C 0.71681 0.75973 0.88396 0.0
C1198 C 0.7279 0.82076 0.89464 0.0
C1199 C 0.74856 0.79935 0.90355 0.0
H1200 H 0.16098 0.7203 0.13915 0.0
H1201 H 0.22476 0.65059 0.12002 0.0
H1202 H 0.25913 0.68743 0.10002 0.0
H1203 H 0.27288 0.73912 0.09176 0.0
H1204 H 0.21258 0.81073 0.11487 0.0
H1205 H 0.17446 0.7736 0.12822 0.0
C1206 C 0.18231 0.71341 0.13028 0.0
C1207 C 0.19016 0.68285 0.13021 0.0
C1208 C 0.20238 0.73496 0.11927 0.0
C1209 C 0.21803 0.67397 0.11943 0.0
C1210 C 0.23772 0.695 0.10812 0.0
C1211 C 0.25125 0.74675 0.09929 0.0
C1212 C 0.24568 0.77758 0.10265 0.0
C1213 C 0.23029 0.72551 0.10826 0.0
C1214 C 0.21742 0.78704 0.11212 0.0
C1215 C 0.19577 0.76583 0.12008 0.0
H1216 H 0.27655 0.33153 0.62495 0.0
H1217 H 0.34777 0.27321 0.65203 0.0
H1218 H 0.31826 0.229 0.63804 0.0
H1219 H 0.26956 0.20735 0.62391 0.0
H1220 H 0.19859 0.26683 0.59768 0.0
H1221 H 0.23109 0.3102 0.60411 0.0
C1222 C 0.28603 0.30917 0.62662 0.0
C1223 C 0.3145 0.30549 0.6386 0.0
C1224 C 0.2689 0.2841 0.61875 0.0
C1225 C 0.32602 0.27642 0.64228 0.0
C1226 C 0.30915 0.25122 0.63434 0.0
C1227 C 0.26155 0.22973 0.61879 0.0
C1228 C 0.23164 0.23393 0.61071 0.0
C1229 C 0.2802 0.25478 0.62329 0.0
C1230 C 0.22145 0.26307 0.60427 0.0
C1231 C 0.23995 0.28791 0.6081 0.0
H1232 H 0.76277 0.29388 0.38868 0.0
H1233 H 0.69719 0.23282 0.42366 0.0
H1234 H 0.73121 0.19067 0.41684 0.0
H1235 H 0.77552 0.17038 0.3931 0.0
H1236 H 0.84053 0.23009 0.3556 0.0
H1237 H 0.81074 0.27374 0.37076 0.0
C1238 C 0.75638 0.27147 0.39564 0.0
C1239 C 0.72752 0.26631 0.40643 0.0
C1240 C 0.77566 0.24712 0.39055 0.0
C1241 C 0.71927 0.2372 0.4151 0.0
C1242 C 0.73859 0.21309 0.41102 0.0
C1243 C 0.78363 0.19302 0.38924 0.0
C1244 C 0.81037 0.19729 0.37402 0.0
C1245 C 0.76624 0.21764 0.39757 0.0
C1246 C 0.82014 0.22653 0.36778 0.0
C1247 C 0.80312 0.25136 0.3764 0.0
H1248 H 0.16463 0.19028 0.52963 0.0
H1249 H 0.09725 0.12343 0.54704 0.0
H1250 H 0.09225 0.11358 0.49473 0.0
H1251 H 0.10795 0.1226 0.44411 0.0
H1252 H 0.17222 0.19186 0.42534 0.0
H1253 H 0.17748 0.20228 0.47798 0.0
C1254 C 0.14878 0.17367 0.5219 0.0
C1255 C 0.13145 0.15749 0.54228 0.0
C1256 C 0.14553 0.16851 0.49156 0.0
C1257 C 0.11076 0.13629 0.5319 0.0
C1258 C 0.10796 0.13053 0.50196 0.0
C1259 C 0.12309 0.14001 0.45158 0.0
C1260 C 0.13996 0.15621 0.43099 0.0
C1261 C 0.12539 0.14629 0.48164 0.0
C1262 C 0.15905 0.1791 0.44084 0.0
C1263 C 0.1621 0.18496 0.4709 0.0
H1264 H 0.37716 0.80918 0.01333 0.0
H1265 H 0.30822 0.87601 0.02137 0.0
H1266 H 0.30828 0.88319 0.96815 0.0
H1267 H 0.32972 0.87191 0.91965 0.0
H1268 H 0.3957 0.80199 0.91149 0.0
H1269 H 0.39471 0.79412 0.96447 0.0
C1270 C 0.36209 0.8252 0.0034 0.0
C1271 C 0.34298 0.84233 0.02116 0.0
C1272 C 0.36164 0.82851 0.97282 0.0
C1273 C 0.32318 0.86266 0.00804 0.0
C1274 C 0.32324 0.86678 0.97767 0.0
C1275 C 0.34361 0.85473 0.92947 0.0
C1276 C 0.36287 0.83766 0.91174 0.0
C1277 C 0.34258 0.85002 0.95988 0.0
C1278 C 0.38055 0.81527 0.92467 0.0
C1279 C 0.38016 0.81092 0.95497 0.0
H1280 H 0.6554 0.30728 0.48534 0.0
H1281 H 0.59232 0.37821 0.46827 0.0
H1282 H 0.5884 0.38847 0.52076 0.0
H1283 H 0.60425 0.37831 0.57147 0.0
H1284 H 0.66482 0.30525 0.58864 0.0
H1285 H 0.66846 0.29478 0.53616 0.0
C1286 C 0.64072 0.32491 0.49315 0.0
C1287 C 0.62435 0.34212 0.47298 0.0
C1288 C 0.63826 0.33037 0.52334 0.0
C1289 C 0.60508 0.3646 0.48339 0.0
C1290 C 0.60295 0.37057 0.51337 0.0
C1291 C 0.61824 0.36012 0.56364 0.0
C1292 C 0.63447 0.34274 0.58377 0.0
C1293 C 0.61967 0.35381 0.53352 0.0
C1294 C 0.65212 0.3189 0.5735 0.0
C1295 C 0.65424 0.31295 0.54353 0.0
H1296 H 0.89153 0.62514 0.06536 0.0
H1297 H 0.82826 0.69637 0.08005 0.0
H1298 H 0.82296 0.70333 0.02696 0.0
H1299 H 0.83605 0.68837 0.97613 0.0
H1300 H 0.90252 0.61984 0.96254 0.0
H1301 H 0.90679 0.61248 0.01537 0.0
C1302 C 0.87657 0.6422 0.05693 0.0
C1303 C 0.8601 0.66004 0.07654 0.0
C1304 C 0.87418 0.64645 0.02656 0.0
C1305 C 0.84121 0.68241 0.06536 0.0
C1306 C 0.83809 0.68628 0.03503 0.0
C1307 C 0.85137 0.6718 0.98484 0.0
C1308 C 0.86877 0.65446 0.96551 0.0
C1309 C 0.85436 0.6683 0.01539 0.0
C1310 C 0.88893 0.63344 0.977 0.0
C1311 C 0.89135 0.62919 0.00719 0.0
H1312 H 0.44584 0.10103 0.13483 0.0
H1313 H 0.42805 0.16588 0.20281 0.0
H1314 H 0.48169 0.17216 0.21111 0.0
H1315 H 0.5336 0.15975 0.19801 0.0
H1316 H 0.55054 0.09211 0.13225 0.0
H1317 H 0.49715 0.08616 0.12418 0.0
C1318 C 0.45377 0.11659 0.15141 0.0
C1319 C 0.43325 0.13331 0.16794 0.0
C1320 C 0.48438 0.11946 0.15647 0.0
C1321 C 0.44359 0.15289 0.18981 0.0
C1322 C 0.47417 0.15649 0.19449 0.0
C1323 C 0.52553 0.14368 0.18198 0.0
C1324 C 0.54592 0.12654 0.16559 0.0
C1325 C 0.49477 0.13999 0.17781 0.0
C1326 C 0.53525 0.10547 0.14519 0.0
C1327 C 0.50476 0.10216 0.14047 0.0
H1328 H 0.96829 0.83953 0.69255 0.0
H1329 H 0.94982 0.90551 0.62585 0.0
H1330 H 0.00299 0.91092 0.61597 0.0
H1331 H 0.05465 0.89638 0.62575 0.0
H1332 H 0.07401 0.83387 0.69522 0.0
H1333 H 0.02064 0.82765 0.7048 0.0
C1334 C 0.97605 0.85505 0.67589 0.0
C1335 C 0.95535 0.87195 0.65977 0.0
C1336 C 0.00672 0.85868 0.67091 0.0
C1337 C 0.96548 0.89235 0.63854 0.0
C1338 C 0.99581 0.89539 0.63284 0.0
C1339 C 0.0471 0.88145 0.64301 0.0
C1340 C 0.068 0.86542 0.65963 0.0
C1341 C 0.0166 0.87861 0.6488 0.0
C1342 C 0.05817 0.84648 0.68224 0.0
C1343 C 0.02772 0.84284 0.68762 0.0
H1344 H 0.03223 0.32689 0.83415 0.0
H1345 H 0.04261 0.42352 0.83476 0.0
H1346 H 0.98878 0.42968 0.83572 0.0
H1347 H 0.93869 0.40775 0.83986 0.0
H1348 H 0.92818 0.31156 0.84122 0.0
H1349 H 0.9821 0.30501 0.83558 0.0
C1350 C 0.02279 0.34933 0.83435 0.0
C1351 C 0.0416 0.37466 0.83472 0.0
C1352 C 0.99174 0.35278 0.83508 0.0
C1353 C 0.0288 0.40355 0.83478 0.0
C1354 C 0.99796 0.40716 0.83525 0.0
C1355 C 0.94832 0.38544 0.8382 0.0
C1356 C 0.92989 0.36013 0.84039 0.0
C1357 C 0.97925 0.38196 0.83579 0.0
C1358 C 0.94224 0.33124 0.83903 0.0
C1359 C 0.97297 0.32755 0.83607 0.0
H1360 H 0.46111 0.60694 0.36076 0.0
H1361 H 0.46174 0.68527 0.30512 0.0
H1362 H 0.51617 0.68559 0.3055 0.0
H1363 H 0.56389 0.66348 0.32185 0.0
H1364 H 0.56249 0.58728 0.38017 0.0
H1365 H 0.50823 0.58613 0.37839 0.0
C1366 C 0.47316 0.62406 0.34869 0.0
C1367 C 0.4574 0.64596 0.33289 0.0
C1368 C 0.50439 0.62444 0.34941 0.0
C1369 C 0.47335 0.66823 0.31762 0.0
C1370 C 0.50448 0.66836 0.31771 0.0
C1371 C 0.55161 0.64659 0.33399 0.0
C1372 C 0.56707 0.62543 0.35099 0.0
C1373 C 0.52027 0.64654 0.33351 0.0
C1374 C 0.55099 0.60388 0.367 0.0
C1375 C 0.51999 0.60317 0.36598 0.0
H1376 H 0.19182 0.43166 0.08395 0.0
H1377 H 0.15269 0.40653 0.16652 0.0
H1378 H 0.14192 0.45962 0.17721 0.0
H1379 H 0.14545 0.5136 0.16322 0.0
H1380 H 0.18236 0.53636 0.07867 0.0
H1381 H 0.19229 0.48387 0.06877 0.0
C1382 C 0.18088 0.43781 0.10429 0.0
C1383 C 0.17333 0.41545 0.12456 0.0
C1384 C 0.17452 0.46799 0.10999 0.0
C1385 C 0.15866 0.42352 0.15058 0.0
C1386 C 0.15267 0.45382 0.15672 0.0
C1387 C 0.15566 0.50699 0.14268 0.0
C1388 C 0.16342 0.52904 0.12192 0.0
C1389 C 0.16081 0.47634 0.13667 0.0
C1390 C 0.17623 0.52005 0.09518 0.0
C1391 C 0.18196 0.48995 0.0894 0.0
H1392 H 0.65858 0.97863 0.84257 0.0
H1393 H 0.67171 0.95863 0.93426 0.0
H1394 H 0.68213 0.01125 0.9442 0.0
H1395 H 0.68978 0.0627 0.92682 0.0
H1396 H 0.67327 0.08431 0.83632 0.0
H1397 H 0.66192 0.03138 0.82591 0.0
C1398 C 0.6635 0.98583 0.86475 0.0
C1399 C 0.6647 0.96453 0.88751 0.0
C1400 C 0.66909 0.01639 0.87052 0.0
C1401 C 0.67073 0.97437 0.91622 0.0
C1402 C 0.67682 0.00452 0.92198 0.0
C1403 C 0.6837 0.05573 0.90483 0.0
C1404 C 0.68274 0.07704 0.88225 0.0
C1405 C 0.67651 0.0256 0.89926 0.0
C1406 C 0.67423 0.06808 0.85397 0.0
C1407 C 0.66779 0.0379 0.84805 0.0
H1408 H 0.84715 0.02569 0.34327 0.0
H1409 H 0.81973 0.04843 0.4312 0.0
H1410 H 0.80729 0.99609 0.44069 0.0
H1411 H 0.80239 0.94407 0.42366 0.0
H1412 H 0.83314 0.91995 0.33739 0.0
H1413 H 0.84613 0.97255 0.32758 0.0
C1414 C 0.8386 0.01914 0.36454 0.0
C1415 C 0.83407 0.04106 0.38633 0.0
C1416 C 0.83196 0.98878 0.37012 0.0
C1417 C 0.82337 0.03212 0.41395 0.0
C1418 C 0.81614 0.00217 0.41942 0.0
C1419 C 0.81195 0.95041 0.40273 0.0
C1420 C 0.8165 0.92844 0.38112 0.0
C1421 C 0.82 0.9804 0.39758 0.0
C1422 C 0.82942 0.93664 0.35429 0.0
C1423 C 0.83678 0.96666 0.34869 0.0
H1424 H 0.32183 0.46368 0.59482 0.0
H1425 H 0.3569 0.47358 0.68226 0.0
H1426 H 0.34965 0.52803 0.67959 0.0
H1427 H 0.33143 0.57284 0.65289 0.0
H1428 H 0.29317 0.56139 0.56689 0.0
H1429 H 0.30352 0.50769 0.56859 0.0
C1430 C 0.32813 0.47772 0.61324 0.0
C1431 C 0.33996 0.46453 0.63865 0.0
C1432 C 0.32312 0.50882 0.61189 0.0
C1433 C 0.34769 0.48313 0.66242 0.0
C1434 C 0.34353 0.51428 0.66093 0.0
C1435 C 0.32553 0.55855 0.63452 0.0
C1436 C 0.31148 0.57109 0.60986 0.0
C1437 C 0.33097 0.52739 0.63586 0.0
C1438 C 0.30374 0.55228 0.58628 0.0
C1439 C 0.30974 0.52155 0.58715 0.0
H1440 H 0.81953 0.88586 0.48379 0.0
H1441 H 0.84763 0.79402 0.4729 0.0
H1442 H 0.86341 0.79238 0.52458 0.0
H1443 H 0.86551 0.81672 0.57403 0.0
H1444 H 0.837 0.90927 0.58207 0.0
H1445 H 0.82498 0.91076 0.53061 0.0
C1446 C 0.82952 0.86558 0.49264 0.0
C1447 C 0.8324 0.84011 0.47476 0.0
C1448 C 0.83807 0.8648 0.52206 0.0
C1449 C 0.8455 0.81402 0.48629 0.0
C1450 C 0.85419 0.81303 0.51588 0.0
C1451 C 0.85671 0.83716 0.56447 0.0
C1452 C 0.85194 0.86269 0.5823 0.0
C1453 C 0.84994 0.83816 0.53422 0.0
C1454 C 0.84086 0.88913 0.56928 0.0
C1455 C 0.83395 0.89014 0.53967 0.0
H1456 H 0.68168 0.19975 0.99539 0.0
H1457 H 0.63682 0.1189 0.96799 0.0
H1458 H 0.61917 0.11053 0.01815 0.0
H1459 H 0.62179 0.1232 0.07055 0.0
H1460 H 0.6662 0.20453 0.09792 0.0
H1461 H 0.67865 0.21599 0.04697 0.0
C1462 C 0.66738 0.18077 1.00041 0.0
C1463 C 0.66031 0.15999 0.97834 0.0
C1464 C 0.65769 0.17603 0.02926 0.0
C1465 C 0.64205 0.13532 0.98477 0.0
C1466 C 0.63228 0.13041 0.01343 0.0
C1467 C 0.63391 0.1436 0.06528 0.0
C1468 C 0.64347 0.16278 0.08792 0.0
C1469 C 0.64079 0.1501 0.03599 0.0
C1470 C 0.65868 0.1894 0.08084 0.0
C1471 C 0.66589 0.1959 0.05175 0.0
H1472 H 0.37907 0.62633 0.43071 0.0
H1473 H 0.31972 0.69576 0.4001 0.0
H1474 H 0.30376 0.70577 0.45023 0.0
H1475 H 0.30393 0.69233 0.50226 0.0
H1476 H 0.36444 0.62477 0.53396 0.0
H1477 H 0.38327 0.61684 0.48405 0.0
C1478 C 0.36278 0.64375 0.43513 0.0
C1479 C 0.35032 0.66005 0.41174 0.0
C1480 C 0.35408 0.6498 0.46415 0.0
C1481 C 0.32961 0.6829 0.41773 0.0
C1482 C 0.32043 0.68861 0.44637 0.0
C1483 C 0.32156 0.67623 0.49824 0.0
C1484 C 0.33277 0.65906 0.52151 0.0
C1485 C 0.33216 0.6719 0.46966 0.0
C1486 C 0.35577 0.63841 0.51627 0.0
C1487 C 0.36627 0.63369 0.48775 0.0
H1488 H 0.16495 0.37691 0.02387 0.0
H1489 H 0.15063 0.28128 0.026 0.0
H1490 H 0.13678 0.28189 0.97377 0.0
H1491 H 0.13309 0.30985 0.92626 0.0
H1492 H 0.14788 0.40601 0.92696 0.0
H1493 H 0.15716 0.40481 0.97895 0.0
C1494 C 0.15817 0.35628 0.01301 0.0
C1495 C 0.15863 0.32917 0.02862 0.0
C1496 C 0.15076 0.35683 0.98323 0.0
C1497 C 0.14997 0.30252 0.01443 0.0
C1498 C 0.14243 0.30286 0.98451 0.0
C1499 C 0.1382 0.3305 0.93784 0.0
C1500 C 0.14 0.35789 0.92224 0.0
C1501 C 0.14347 0.32987 0.96842 0.0
C1502 C 0.14638 0.38447 0.93791 0.0
C1503 C 0.15173 0.38394 0.96787 0.0
H1504 H 0.56105 0.88962 0.88865 0.0
H1505 H 0.5883 0.83913 0.81258 0.0
H1506 H 0.53619 0.83099 0.79912 0.0
H1507 H 0.48264 0.83841 0.80907 0.0
H1508 H 0.456 0.89234 0.8831 0.0
H1509 H 0.50799 0.89892 0.89732 0.0
C1510 C 0.55553 0.87679 0.86916 0.0
C1511 C 0.5784 0.86487 0.85171 0.0
C1512 C 0.52562 0.87283 0.86121 0.0
C1513 C 0.57102 0.84864 0.82629 0.0
C1514 C 0.54126 0.8439 0.81865 0.0
C1515 C 0.48833 0.8515 0.82833 0.0
C1516 C 0.46563 0.86477 0.8451 0.0
C1517 C 0.51834 0.85588 0.83595 0.0
C1518 C 0.47317 0.88204 0.8698 0.0
C1519 C 0.50285 0.88575 0.87798 0.0
H1520 H 0.94095 0.10582 0.39071 0.0
H1521 H 0.92313 0.16103 0.31517 0.0
H1522 H 0.97663 0.16644 0.30626 0.0
H1523 H 0.02866 0.15605 0.32066 0.0
H1524 H 0.04587 0.09753 0.39396 0.0
H1525 H 0.99248 0.09282 0.40312 0.0
C1526 C 0.94883 0.11898 0.37227 0.0
C1527 C 0.92824 0.13316 0.35372 0.0
C1528 C 0.97949 0.12144 0.36696 0.0
C1529 C 0.93863 0.14981 0.32967 0.0
C1530 C 0.96918 0.15301 0.32466 0.0
C1531 C 0.02061 0.14232 0.33862 0.0
C1532 C 0.04103 0.12732 0.35676 0.0
C1533 C 0.98983 0.13906 0.34327 0.0
C1534 C 0.03047 0.10921 0.37969 0.0
C1535 C -1e-05 0.10657 0.38498 0.0
H1536 H 0.06481 0.65543 0.17249 0.0
H1537 H 0.06108 0.58192 0.11104 0.0
H1538 H 0.00669 0.582 0.11334 0.0
H1539 H 0.9602 0.60391 0.13169 0.0
H1540 H 0.9635 0.68036 0.18979 0.0
H1541 H 0.01792 0.6784 0.18987 0.0
C1542 C 0.05197 0.63931 0.15989 0.0
C1543 C 0.06672 0.61852 0.14185 0.0
C1544 C 0.02068 0.6402 0.16054 0.0
C1545 C 0.05003 0.59808 0.1251 0.0
C1546 C 0.01901 0.59813 0.12639 0.0
C1547 C 0.97286 0.62005 0.14446 0.0
C1548 C 0.95789 0.64216 0.16077 0.0
C1549 C 0.00408 0.61924 0.14384 0.0
C1550 C 0.97455 0.6632 0.17692 0.0
C1551 C 0.00565 0.66203 0.17707 0.0
H1552 H 0.43756 0.39245 0.68534 0.0
H1553 H 0.43521 0.34147 0.6049 0.0
H1554 H 0.48895 0.33497 0.60672 0.0
H1555 H 0.53689 0.34377 0.631 0.0
H1556 H 0.5407 0.39948 0.70808 0.0
H1557 H 0.48625 0.40434 0.70782 0.0
C1558 C 0.44886 0.37983 0.66832 0.0
C1559 C 0.43232 0.36696 0.64534 0.0
C1560 C 0.48004 0.37715 0.66886 0.0
C1561 C 0.4473 0.35128 0.62303 0.0
C1562 C 0.47809 0.34759 0.62399 0.0
C1563 C 0.52565 0.35693 0.64769 0.0
C1564 C 0.54238 0.37103 0.66967 0.0
C1565 C 0.49466 0.36037 0.64679 0.0
C1566 C 0.52798 0.38846 0.691 0.0
C1567 C 0.49696 0.39116 0.69086 0.0
H1568 H 0.89039 0.56252 0.89265 0.0
H1569 H 0.81687 0.58057 0.83461 0.0
H1570 H 0.80821 0.52656 0.82858 0.0
H1571 H 0.82106 0.4742 0.84061 0.0
H1572 H 0.89209 0.45652 0.9018 0.0
H1573 H 0.90212 0.51033 0.90597 0.0
C1574 C 0.87266 0.55455 0.8785 0.0
C1575 C 0.85446 0.57533 0.86387 0.0
C1576 C 0.86723 0.52357 0.87591 0.0
C1577 C 0.83116 0.56487 0.84605 0.0
C1578 C 0.82621 0.53404 0.84262 0.0
C1579 C 0.83874 0.48218 0.85481 0.0
C1580 C 0.85584 0.46145 0.87083 0.0
C1581 C 0.844 0.51319 0.85758 0.0
C1582 C 0.87848 0.47207 0.8894 0.0
C1583 C 0.88433 0.50281 0.8917 0.0
H1584 H 0.38578 0.93142 0.1156 0.0
H1585 H 0.2963 0.91606 0.14681 0.0
H1586 H 0.29274 0.96843 0.1623 0.0
H1587 H 0.3142 0.01944 0.16481 0.0
H1588 H 0.40215 0.03516 0.13053 0.0
H1589 H 0.40746 0.9817 0.11895 0.0
C1590 C 0.3655 0.93945 0.12584 0.0
C1591 C 0.34131 0.91982 0.1298 0.0
C1592 C 0.36345 0.96964 0.13442 0.0
C1593 C 0.31521 0.93071 0.14316 0.0
C1594 C 0.31317 0.96064 0.15219 0.0
C1595 C 0.33467 0.01086 0.15539 0.0
C1596 C 0.35794 0.03074 0.14884 0.0
C1597 C 0.33706 0.98037 0.14775 0.0
C1598 C 0.38416 0.01989 0.13594 0.0
C1599 C 0.3871 0.98948 0.12917 0.0
H1600 H 0.19014 0.97333 0.66126 0.0
H1601 H 0.1127 0.95751 0.60753 0.0
H1602 H 0.10551 0.01147 0.60166 0.0
H1603 H 0.12055 0.06302 0.61209 0.0
H1604 H 0.19974 0.08036 0.6626 0.0
H1605 H 0.20726 0.02605 0.66917 0.0
C1606 C 0.17174 0.98185 0.64833 0.0
C1607 C 0.15186 0.96157 0.63497 0.0
C1608 C 0.16817 0.01309 0.64435 0.0
C1609 C 0.12832 0.97273 0.61792 0.0
C1610 C 0.12416 0.00356 0.61458 0.0
C1611 C 0.13951 0.0549 0.6245 0.0
C1612 C 0.15943 0.07556 0.63705 0.0
C1613 C 0.14387 0.0239 0.62771 0.0
C1614 C 0.18417 0.0648 0.65266 0.0
C1615 C 0.18835 0.03379 0.65654 0.0
H1616 H 0.62388 0.42817 0.34022 0.0
H1617 H 0.68514 0.42101 0.41254 0.0
H1618 H 0.6943 0.47526 0.41059 0.0
H1619 H 0.68256 0.525 0.38993 0.0
H1620 H 0.6238 0.5313 0.31546 0.0
H1621 H 0.61618 0.4769 0.31637 0.0
C1622 C 0.63937 0.43847 0.3554 0.0
C1623 C 0.6536 0.42082 0.37667 0.0
C1624 C 0.64493 0.46942 0.35375 0.0
C1625 C 0.67398 0.43427 0.39597 0.0
C1626 C 0.67912 0.46524 0.39493 0.0
C1627 C 0.66829 0.51436 0.37379 0.0
C1628 C 0.65354 0.53202 0.35284 0.0
C1629 C 0.66438 0.48307 0.37417 0.0
C1630 C 0.63544 0.51806 0.33175 0.0
C1631 C 0.63095 0.48703 0.33235 0.0
loop_
_geom_bond_atom_site_label_1
_geom_bond_atom_site_label_2
_geom_bond_distance
_geom_bond_site_symmetry_2
_ccdc_geom_bond_type
Mn0 O5 2.095 . S
Mn0 O15 2.162 . S
Mn0 O16 2.297 . S
Mn0 O24 2.385 . S
Mn0 O25 2.209 . S
Mn0 O26 2.094 . S
Mn1 O6 2.121 . S
Mn1 N8 2.257 . S
Mn1 N17 2.282 . S
Mn1 O25 2.215 . S
Mn1 O27 2.117 . S
C2 O24 1.234 . S
C2 O25 1.283 . S
C3 O15 1.281 . S
C3 O16 1.236 . S
C4 O26 1.240 . S
C4 O27 1.264 . S
O5 Mn0 2.095 . S
O5 C14 1.250 . S
O6 Mn1 2.121 . S
O6 C14 1.258 . S
C7 N8 1.326 . S
C7 C11 1.460 . S
C7 H13 0.929 . S
N8 Mn1 2.257 . S
N8 C7 1.326 . S
N8 C12 1.362 . S
C9 C10 1.258 . S
C9 C12 1.431 . S
C9 C29 1.449 . S
C10 C9 1.258 . S
C10 C11 1.477 . S
C10 H30 0.931 . S
C11 C7 1.460 . S
C11 C10 1.477 . S
C11 H31 0.930 . S
C12 N8 1.362 . S
C12 C9 1.431 . S
C12 C22 1.476 . S
H13 C7 0.929 . S
C14 O5 1.250 . S
C14 O6 1.258 . S
O15 Mn0 2.162 . S
O15 C3 1.281 . S
O16 Mn0 2.297 . S
O16 C3 1.236 . S
N17 Mn1 2.282 . S
N17 C18 1.328 . S
N17 C22 1.318 . S
C18 N17 1.328 . S
C18 C19 1.457 . S
C18 H23 0.929 . S
C19 C18 1.457 . S
C19 C20 1.291 . S
C19 H32 0.931 . S
C20 C19 1.291 . S
C20 C21 1.373 . S
C20 H33 0.929 . S
C21 C20 1.373 . S
C21 C22 1.396 . S
C21 C28 1.403 . S
C22 C12 1.476 . S
C22 N17 1.318 . S
C22 C21 1.396 . S
H23 C18 0.929 . S
O24 Mn0 2.385 . S
O24 C2 1.234 . S
O25 Mn0 2.209 . S
O25 Mn1 2.215 . S
O25 C2 1.283 . S
O26 Mn0 2.094 . S
O26 C4 1.240 . S
O27 Mn1 2.117 . S
O27 C4 1.264 . S
C28 C21 1.403 . S
C28 C29 1.399 . S
C28 H34 0.929 . S
C29 C9 1.449 . S
C29 C28 1.399 . S
C29 H35 0.930 . S
H30 C10 0.931 . S
H31 C11 0.930 . S
H32 C19 0.931 . S
H33 C20 0.929 . S
H34 C28 0.929 . S
H35 C29 0.930 . S
Mn36 O41 2.095 . S
Mn36 O51 2.162 . S
Mn36 O52 2.297 . S
Mn36 O60 2.385 . S
Mn36 O61 2.209 . S
Mn36 O62 2.094 . S
Mn37 O42 2.121 . S
Mn37 N44 2.257 . S
Mn37 N53 2.282 . S
Mn37 O61 2.215 . S
Mn37 O63 2.117 . S
C38 O60 1.234 . S
C38 O61 1.283 . S
C39 O51 1.281 . S
C39 O52 1.236 . S
C40 O62 1.240 . S
C40 O63 1.264 . S
O41 Mn36 2.095 . S
O41 C50 1.250 . S
O42 Mn37 2.121 . S
O42 C50 1.258 . S
C43 N44 1.326 . S
C43 C47 1.460 . S
C43 H49 0.929 . S
N44 Mn37 2.257 . S
N44 C43 1.326 . S
N44 C48 1.362 . S
C45 C46 1.258 . S
C45 C48 1.431 . S
C45 C65 1.449 . S
C46 C45 1.258 . S
C46 C47 1.477 . S
C46 H66 0.931 . S
C47 C43 1.460 . S
C47 C46 1.477 . S
C47 H67 0.930 . S
C48 N44 1.362 . S
C48 C45 1.431 . S
C48 C58 1.476 . S
H49 C43 0.929 . S
C50 O41 1.250 . S
C50 O42 1.258 . S
O51 Mn36 2.162 . S
O51 C39 1.281 . S
O52 Mn36 2.297 . S
O52 C39 1.236 . S
N53 Mn37 2.282 . S
N53 C54 1.328 . S
N53 C58 1.318 . S
C54 N53 1.328 . S
C54 C55 1.457 . S
C54 H59 0.929 . S
C55 C54 1.457 . S
C55 C56 1.291 . S
C55 H68 0.931 . S
C56 C55 1.291 . S
C56 C57 1.373 . S
C56 H69 0.929 . S
C57 C56 1.373 . S
C57 C58 1.396 . S
C57 C64 1.403 . S
C58 C48 1.476 . S
C58 N53 1.318 . S
C58 C57 1.396 . S
H59 C54 0.929 . S
O60 Mn36 2.385 . S
O60 C38 1.234 . S
O61 Mn36 2.209 . S
O61 Mn37 2.215 . S
O61 C38 1.283 . S
O62 Mn36 2.094 . S
O62 C40 1.240 . S
O63 Mn37 2.117 . S
O63 C40 1.264 . S
C64 C57 1.403 . S
C64 C65 1.399 . S
C64 H70 0.929 . S
C65 C45 1.449 . S
C65 C64 1.399 . S
C65 H71 0.930 . S
H66 C46 0.931 . S
H67 C47 0.930 . S
H68 C55 0.931 . S
H69 C56 0.929 . S
H70 C64 0.929 . S
H71 C65 0.930 . S
Mn72 O77 2.095 . S
Mn72 O87 2.162 . S
Mn72 O88 2.297 . S
Mn72 O96 2.385 . S
Mn72 O97 2.209 . S
Mn72 O98 2.094 . S
Mn73 O78 2.121 . S
Mn73 N80 2.257 . S
Mn73 N89 2.282 . S
Mn73 O97 2.215 . S
Mn73 O99 2.117 . S
C74 O96 1.234 . S
C74 O97 1.283 . S
C75 O87 1.281 . S
C75 O88 1.236 . S
C76 O98 1.240 . S
C76 O99 1.264 . S
O77 Mn72 2.095 . S
O77 C86 1.250 . S
O78 Mn73 2.121 . S
O78 C86 1.258 . S
C79 N80 1.326 . S
C79 C83 1.460 . S
C79 H85 0.929 . S
N80 Mn73 2.257 . S
N80 C79 1.326 . S
N80 C84 1.362 . S
C81 C82 1.258 . S
C81 C84 1.431 . S
C81 C101 1.449 . S
C82 C81 1.258 . S
C82 C83 1.477 . S
C82 H102 0.931 . S
C83 C79 1.460 . S
C83 C82 1.477 . S
C83 H103 0.930 . S
C84 N80 1.362 . S
C84 C81 1.431 . S
C84 C94 1.476 . S
H85 C79 0.929 . S
C86 O77 1.250 . S
C86 O78 1.258 . S
O87 Mn72 2.162 . S
O87 C75 1.281 . S
O88 Mn72 2.297 . S
O88 C75 1.236 . S
N89 Mn73 2.282 . S
N89 C90 1.328 . S
N89 C94 1.318 . S
C90 N89 1.328 . S
C90 C91 1.457 . S
C90 H95 0.929 . S
C91 C90 1.457 . S
C91 C92 1.291 . S
C91 H104 0.931 . S
C92 C91 1.291 . S
C92 C93 1.373 . S
C92 H105 0.929 . S
C93 C92 1.373 . S
C93 C94 1.396 . S
C93 C100 1.403 . S
C94 C84 1.476 . S
C94 N89 1.318 . S
C94 C93 1.396 . S
H95 C90 0.929 . S
O96 Mn72 2.385 . S
O96 C74 1.234 . S
O97 Mn72 2.209 . S
O97 Mn73 2.215 . S
O97 C74 1.283 . S
O98 Mn72 2.094 . S
O98 C76 1.240 . S
O99 Mn73 2.117 . S
O99 C76 1.264 . S
C100 C93 1.403 . S
C100 C101 1.399 . S
C100 H106 0.929 . S
C101 C81 1.449 . S
C101 C100 1.399 . S
C101 H107 0.930 . S
H102 C82 0.931 . S
H103 C83 0.930 . S
H104 C91 0.931 . S
H105 C92 0.929 . S
H106 C100 0.929 . S
H107 C101 0.930 . S
Mn108 O113 2.095 . S
Mn108 O123 2.162 . S
Mn108 O124 2.297 . S
Mn108 O132 2.385 . S
Mn108 O133 2.209 . S
Mn108 O134 2.094 . S
Mn109 O114 2.121 . S
Mn109 N116 2.257 . S
Mn109 N125 2.282 . S
Mn109 O133 2.215 . S
Mn109 O135 2.117 . S
C110 O132 1.234 . S
C110 O133 1.283 . S
C111 O123 1.281 . S
C111 O124 1.236 . S
C112 O134 1.240 . S
C112 O135 1.264 . S
O113 Mn108 2.095 . S
O113 C122 1.250 . S
O114 Mn109 2.121 . S
O114 C122 1.258 . S
C115 N116 1.326 . S
C115 C119 1.460 . S
C115 H121 0.929 . S
N116 Mn109 2.257 . S
N116 C115 1.326 . S
N116 C120 1.362 . S
C117 C118 1.258 . S
C117 C120 1.431 . S
C117 C137 1.449 . S
C118 C117 1.258 . S
C118 C119 1.477 . S
C118 H138 0.931 . S
C119 C115 1.460 . S
C119 C118 1.477 . S
C119 H139 0.930 . S
C120 N116 1.362 . S
C120 C117 1.431 . S
C120 C130 1.476 . S
H121 C115 0.929 . S
C122 O113 1.250 . S
C122 O114 1.258 . S
O123 Mn108 2.162 . S
O123 C111 1.281 . S
O124 Mn108 2.297 . S
O124 C111 1.236 . S
N125 Mn109 2.282 . S
N125 C126 1.328 . S
N125 C130 1.318 . S
C126 N125 1.328 . S
C126 C127 1.457 . S
C126 H131 0.929 . S
C127 C126 1.457 . S
C127 C128 1.291 . S
C127 H140 0.931 . S
C128 C127 1.291 . S
C128 C129 1.373 . S
C128 H141 0.929 . S
C129 C128 1.373 . S
C129 C130 1.396 . S
C129 C136 1.403 . S
C130 C120 1.476 . S
C130 N125 1.318 . S
C130 C129 1.396 . S
H131 C126 0.929 . S
O132 Mn108 2.385 . S
O132 C110 1.234 . S
O133 Mn108 2.209 . S
O133 Mn109 2.215 . S
O133 C110 1.283 . S
O134 Mn108 2.094 . S
O134 C112 1.240 . S
O135 Mn109 2.117 . S
O135 C112 1.264 . S
C136 C129 1.403 . S
C136 C137 1.399 . S
C136 H142 0.929 . S
C137 C117 1.449 . S
C137 C136 1.399 . S
C137 H143 0.930 . S
H138 C118 0.931 . S
H139 C119 0.930 . S
H140 C127 0.931 . S
H141 C128 0.929 . S
H142 C136 0.929 . S
H143 C137 0.930 . S
Mn144 O149 2.095 . S
Mn144 O159 2.162 . S
Mn144 O160 2.297 . S
Mn144 O168 2.385 . S
Mn144 O169 2.209 . S
Mn144 O170 2.094 . S
Mn145 O150 2.121 . S
Mn145 N152 2.257 . S
Mn145 N161 2.282 . S
Mn145 O169 2.215 . S
Mn145 O171 2.117 . S
C146 O168 1.234 . S
C146 O169 1.283 . S
C147 O159 1.281 . S
C147 O160 1.236 . S
C148 O170 1.240 . S
C148 O171 1.264 . S
O149 Mn144 2.095 . S
O149 C158 1.250 . S
O150 Mn145 2.121 . S
O150 C158 1.258 . S
C151 N152 1.326 . S
C151 C155 1.460 . S
C151 H157 0.929 . S
N152 Mn145 2.257 . S
N152 C151 1.326 . S
N152 C156 1.362 . S
C153 C154 1.258 . S
C153 C156 1.431 . S
C153 C173 1.449 . S
C154 C153 1.258 . S
C154 C155 1.477 . S
C154 H174 0.931 . S
C155 C151 1.460 . S
C155 C154 1.477 . S
C155 H175 0.930 . S
C156 N152 1.362 . S
C156 C153 1.431 . S
C156 C166 1.476 . S
H157 C151 0.929 . S
C158 O149 1.250 . S
C158 O150 1.258 . S
O159 Mn144 2.162 . S
O159 C147 1.281 . S
O160 Mn144 2.297 . S
O160 C147 1.236 . S
N161 Mn145 2.282 . S
N161 C162 1.328 . S
N161 C166 1.318 . S
C162 N161 1.328 . S
C162 C163 1.457 . S
C162 H167 0.929 . S
C163 C162 1.457 . S
C163 C164 1.291 . S
C163 H176 0.931 . S
C164 C163 1.291 . S
C164 C165 1.373 . S
C164 H177 0.929 . S
C165 C164 1.373 . S
C165 C166 1.396 . S
C165 C172 1.403 . S
C166 C156 1.476 . S
C166 N161 1.318 . S
C166 C165 1.396 . S
H167 C162 0.929 . S
O168 Mn144 2.385 . S
O168 C146 1.234 . S
O169 Mn144 2.209 . S
O169 Mn145 2.215 . S
O169 C146 1.283 . S
O170 Mn144 2.094 . S
O170 C148 1.240 . S
O171 Mn145 2.117 . S
O171 C148 1.264 . S
C172 C165 1.403 . S
C172 C173 1.399 . S
C172 H178 0.929 . S
C173 C153 1.449 . S
C173 C172 1.399 . S
C173 H179 0.930 . S
H174 C154 0.931 . S
H175 C155 0.930 . S
H176 C163 0.931 . S
H177 C164 0.929 . S
H178 C172 0.929 . S
H179 C173 0.930 . S
Mn180 O185 2.095 . S
Mn180 O195 2.162 . S
Mn180 O196 2.297 . S
Mn180 O204 2.385 . S
Mn180 O205 2.209 . S
Mn180 O206 2.094 . S
Mn181 O186 2.121 . S
Mn181 N188 2.257 . S
Mn181 N197 2.282 . S
Mn181 O205 2.215 . S
Mn181 O207 2.117 . S
C182 O204 1.234 . S
C182 O205 1.283 . S
C183 O195 1.281 . S
C183 O196 1.236 . S
C184 O206 1.240 . S
C184 O207 1.264 . S
O185 Mn180 2.095 . S
O185 C194 1.250 . S
O186 Mn181 2.121 . S
O186 C194 1.258 . S
C187 N188 1.326 . S
C187 C191 1.460 . S
C187 H193 0.929 . S
N188 Mn181 2.257 . S
N188 C187 1.326 . S
N188 C192 1.362 . S
C189 C190 1.258 . S
C189 C192 1.431 . S
C189 C209 1.449 . S
C190 C189 1.258 . S
C190 C191 1.477 . S
C190 H210 0.931 . S
C191 C187 1.460 . S
C191 C190 1.477 . S
C191 H211 0.930 . S
C192 N188 1.362 . S
C192 C189 1.431 . S
C192 C202 1.476 . S
H193 C187 0.929 . S
C194 O185 1.250 . S
C194 O186 1.258 . S
O195 Mn180 2.162 . S
O195 C183 1.281 . S
O196 Mn180 2.297 . S
O196 C183 1.236 . S
N197 Mn181 2.282 . S
N197 C198 1.328 . S
N197 C202 1.318 . S
C198 N197 1.328 . S
C198 C199 1.457 . S
C198 H203 0.929 . S
C199 C198 1.457 . S
C199 C200 1.291 . S
C199 H212 0.931 . S
C200 C199 1.291 . S
C200 C201 1.373 . S
C200 H213 0.929 . S
C201 C200 1.373 . S
C201 C202 1.396 . S
C201 C208 1.403 . S
C202 C192 1.476 . S
C202 N197 1.318 . S
C202 C201 1.396 . S
H203 C198 0.929 . S
O204 Mn180 2.385 . S
O204 C182 1.234 . S
O205 Mn180 2.209 . S
O205 Mn181 2.215 . S
O205 C182 1.283 . S
O206 Mn180 2.094 . S
O206 C184 1.240 . S
O207 Mn181 2.117 . S
O207 C184 1.264 . S
C208 C201 1.403 . S
C208 C209 1.399 . S
C208 H214 0.929 . S
C209 C189 1.449 . S
C209 C208 1.399 . S
C209 H215 0.930 . S
H210 C190 0.931 . S
H211 C191 0.930 . S
H212 C199 0.931 . S
H213 C200 0.929 . S
H214 C208 0.929 . S
H215 C209 0.930 . S
Mn216 O221 2.095 . S
Mn216 O231 2.162 . S
Mn216 O232 2.297 . S
Mn216 O240 2.385 . S
Mn216 O241 2.209 . S
Mn216 O242 2.094 . S
Mn217 O222 2.121 . S
Mn217 N224 2.257 . S
Mn217 N233 2.282 . S
Mn217 O241 2.215 . S
Mn217 O243 2.117 . S
C218 O240 1.234 . S
C218 O241 1.283 . S
C219 O231 1.281 . S
C219 O232 1.236 . S
C220 O242 1.240 . S
C220 O243 1.264 . S
O221 Mn216 2.095 . S
O221 C230 1.250 . S
O222 Mn217 2.121 . S
O222 C230 1.258 . S
C223 N224 1.326 . S
C223 C227 1.460 . S
C223 H229 0.929 . S
N224 Mn217 2.257 . S
N224 C223 1.326 . S
N224 C228 1.362 . S
C225 C226 1.258 . S
C225 C228 1.431 . S
C225 C245 1.449 . S
C226 C225 1.258 . S
C226 C227 1.477 . S
C226 H246 0.931 . S
C227 C223 1.460 . S
C227 C226 1.477 . S
C227 H247 0.930 . S
C228 N224 1.362 . S
C228 C225 1.431 . S
C228 C238 1.476 . S
H229 C223 0.929 . S
C230 O221 1.250 . S
C230 O222 1.258 . S
O231 Mn216 2.162 . S
O231 C219 1.281 . S
O232 Mn216 2.297 . S
O232 C219 1.236 . S
N233 Mn217 2.282 . S
N233 C234 1.328 . S
N233 C238 1.318 . S
C234 N233 1.328 . S
C234 C235 1.457 . S
C234 H239 0.929 . S
C235 C234 1.457 . S
C235 C236 1.291 . S
C235 H248 0.931 . S
C236 C235 1.291 . S
C236 C237 1.373 . S
C236 H249 0.929 . S
C237 C236 1.373 . S
C237 C238 1.396 . S
C237 C244 1.403 . S
C238 C228 1.476 . S
C238 N233 1.318 . S
C238 C237 1.396 . S
H239 C234 0.929 . S
O240 Mn216 2.385 . S
O240 C218 1.234 . S
O241 Mn216 2.209 . S
O241 Mn217 2.215 . S
O241 C218 1.283 . S
O242 Mn216 2.094 . S
O242 C220 1.240 . S
O243 Mn217 2.117 . S
O243 C220 1.264 . S
C244 C237 1.403 . S
C244 C245 1.399 . S
C244 H250 0.929 . S
C245 C225 1.449 . S
C245 C244 1.399 . S
C245 H251 0.930 . S
H246 C226 0.931 . S
H247 C227 0.930 . S
H248 C235 0.931 . S
H249 C236 0.929 . S
H250 C244 0.929 . S
H251 C245 0.930 . S
Mn252 O257 2.095 . S
Mn252 O267 2.162 . S
Mn252 O268 2.297 . S
Mn252 O276 2.385 . S
Mn252 O277 2.209 . S
Mn252 O278 2.094 . S
Mn253 O258 2.121 . S
Mn253 N260 2.257 . S
Mn253 N269 2.282 . S
Mn253 O277 2.215 . S
Mn253 O279 2.117 . S
C254 O276 1.234 . S
C254 O277 1.283 . S
C255 O267 1.281 . S
C255 O268 1.236 . S
C256 O278 1.240 . S
C256 O279 1.264 . S
O257 Mn252 2.095 . S
O257 C266 1.250 . S
O258 Mn253 2.121 . S
O258 C266 1.258 . S
C259 N260 1.326 . S
C259 C263 1.460 . S
C259 H265 0.929 . S
N260 Mn253 2.257 . S
N260 C259 1.326 . S
N260 C264 1.362 . S
C261 C262 1.258 . S
C261 C264 1.431 . S
C261 C281 1.449 . S
C262 C261 1.258 . S
C262 C263 1.477 . S
C262 H282 0.931 . S
C263 C259 1.460 . S
C263 C262 1.477 . S
C263 H283 0.930 . S
C264 N260 1.362 . S
C264 C261 1.431 . S
C264 C274 1.476 . S
H265 C259 0.929 . S
C266 O257 1.250 . S
C266 O258 1.258 . S
O267 Mn252 2.162 . S
O267 C255 1.281 . S
O268 Mn252 2.297 . S
O268 C255 1.236 . S
N269 Mn253 2.282 . S
N269 C270 1.328 . S
N269 C274 1.318 . S
C270 N269 1.328 . S
C270 C271 1.457 . S
C270 H275 0.929 . S
C271 C270 1.457 . S
C271 C272 1.291 . S
C271 H284 0.931 . S
C272 C271 1.291 . S
C272 C273 1.373 . S
C272 H285 0.929 . S
C273 C272 1.373 . S
C273 C274 1.396 . S
C273 C280 1.403 . S
C274 C264 1.476 . S
C274 N269 1.318 . S
C274 C273 1.396 . S
H275 C270 0.929 . S
O276 Mn252 2.385 . S
O276 C254 1.234 . S
O277 Mn252 2.209 . S
O277 Mn253 2.215 . S
O277 C254 1.283 . S
O278 Mn252 2.094 . S
O278 C256 1.240 . S
O279 Mn253 2.117 . S
O279 C256 1.264 . S
C280 C273 1.403 . S
C280 C281 1.399 . S
C280 H286 0.929 . S
C281 C261 1.449 . S
C281 C280 1.399 . S
C281 H287 0.930 . S
H282 C262 0.931 . S
H283 C263 0.930 . S
H284 C271 0.931 . S
H285 C272 0.929 . S
H286 C280 0.929 . S
H287 C281 0.930 . S
Mn288 O293 2.095 . S
Mn288 O303 2.162 . S
Mn288 O304 2.297 . S
Mn288 O312 2.385 . S
Mn288 O313 2.209 . S
Mn288 O314 2.094 . S
Mn289 O294 2.121 . S
Mn289 N296 2.257 . S
Mn289 N305 2.282 . S
Mn289 O313 2.215 . S
Mn289 O315 2.117 . S
C290 O312 1.234 . S
C290 O313 1.283 . S
C291 O303 1.281 . S
C291 O304 1.236 . S
C292 O314 1.240 . S
C292 O315 1.264 . S
O293 Mn288 2.095 . S
O293 C302 1.250 . S
O294 Mn289 2.121 . S
O294 C302 1.258 . S
C295 N296 1.326 . S
C295 C299 1.460 . S
C295 H301 0.929 . S
N296 Mn289 2.257 . S
N296 C295 1.326 . S
N296 C300 1.362 . S
C297 C298 1.258 . S
C297 C300 1.431 . S
C297 C317 1.449 . S
C298 C297 1.258 . S
C298 C299 1.477 . S
C298 H318 0.931 . S
C299 C295 1.460 . S
C299 C298 1.477 . S
C299 H319 0.930 . S
C300 N296 1.362 . S
C300 C297 1.431 . S
C300 C310 1.476 . S
H301 C295 0.929 . S
C302 O293 1.250 . S
C302 O294 1.258 . S
O303 Mn288 2.162 . S
O303 C291 1.281 . S
O304 Mn288 2.297 . S
O304 C291 1.236 . S
N305 Mn289 2.282 . S
N305 C306 1.328 . S
N305 C310 1.318 . S
C306 N305 1.328 . S
C306 C307 1.457 . S
C306 H311 0.929 . S
C307 C306 1.457 . S
C307 C308 1.291 . S
C307 H320 0.931 . S
C308 C307 1.291 . S
C308 C309 1.373 . S
C308 H321 0.929 . S
C309 C308 1.373 . S
C309 C310 1.396 . S
C309 C316 1.403 . S
C310 C300 1.476 . S
C310 N305 1.318 . S
C310 C309 1.396 . S
H311 C306 0.929 . S
O312 Mn288 2.385 . S
O312 C290 1.234 . S
O313 Mn288 2.209 . S
O313 Mn289 2.215 . S
O313 C290 1.283 . S
O314 Mn288 2.094 . S
O314 C292 1.240 . S
O315 Mn289 2.117 . S
O315 C292 1.264 . S
C316 C309 1.403 . S
C316 C317 1.399 . S
C316 H322 0.929 . S
C317 C297 1.449 . S
C317 C316 1.399 . S
C317 H323 0.930 . S
H318 C298 0.931 . S
H319 C299 0.930 . S
H320 C307 0.931 . S
H321 C308 0.929 . S
H322 C316 0.929 . S
H323 C317 0.930 . S
Mn324 O329 2.095 . S
Mn324 O339 2.162 . S
Mn324 O340 2.297 . S
Mn324 O348 2.385 . S
Mn324 O349 2.209 . S
Mn324 O350 2.094 . S
Mn325 O330 2.121 . S
Mn325 N332 2.257 . S
Mn325 N341 2.282 . S
Mn325 O349 2.215 . S
Mn325 O351 2.117 . S
C326 O348 1.234 . S
C326 O349 1.283 . S
C327 O339 1.281 . S
C327 O340 1.236 . S
C328 O350 1.240 . S
C328 O351 1.264 . S
O329 Mn324 2.095 . S
O329 C338 1.250 . S
O330 Mn325 2.121 . S
O330 C338 1.258 . S
C331 N332 1.326 . S
C331 C335 1.460 . S
C331 H337 0.929 . S
N332 Mn325 2.257 . S
N332 C331 1.326 . S
N332 C336 1.362 . S
C333 C334 1.258 . S
C333 C336 1.431 . S
C333 C353 1.449 . S
C334 C333 1.258 . S
C334 C335 1.477 . S
C334 H354 0.931 . S
C335 C331 1.460 . S
C335 C334 1.477 . S
C335 H355 0.930 . S
C336 N332 1.362 . S
C336 C333 1.431 . S
C336 C346 1.476 . S
H337 C331 0.929 . S
C338 O329 1.250 . S
C338 O330 1.258 . S
O339 Mn324 2.162 . S
O339 C327 1.281 . S
O340 Mn324 2.297 . S
O340 C327 1.236 . S
N341 Mn325 2.282 . S
N341 C342 1.328 . S
N341 C346 1.318 . S
C342 N341 1.328 . S
C342 C343 1.457 . S
C342 H347 0.929 . S
C343 C342 1.457 . S
C343 C344 1.291 . S
C343 H356 0.931 . S
C344 C343 1.291 . S
C344 C345 1.373 . S
C344 H357 0.929 . S
C345 C344 1.373 . S
C345 C346 1.396 . S
C345 C352 1.403 . S
C346 C336 1.476 . S
C346 N341 1.318 . S
C346 C345 1.396 . S
H347 C342 0.929 . S
O348 Mn324 2.385 . S
O348 C326 1.234 . S
O349 Mn324 2.209 . S
O349 Mn325 2.215 . S
O349 C326 1.283 . S
O350 Mn324 2.094 . S
O350 C328 1.240 . S
O351 Mn325 2.117 . S
O351 C328 1.264 . S
C352 C345 1.403 . S
C352 C353 1.399 . S
C352 H358 0.929 . S
C353 C333 1.449 . S
C353 C352 1.399 . S
C353 H359 0.930 . S
H354 C334 0.931 . S
H355 C335 0.930 . S
H356 C343 0.931 . S
H357 C344 0.929 . S
H358 C352 0.929 . S
H359 C353 0.930 . S
Mn360 O365 2.095 . S
Mn360 O375 2.162 . S
Mn360 O376 2.297 . S
Mn360 O384 2.385 . S
Mn360 O385 2.209 . S
Mn360 O386 2.094 . S
Mn361 O366 2.121 . S
Mn361 N368 2.257 . S
Mn361 N377 2.282 . S
Mn361 O385 2.215 . S
Mn361 O387 2.117 . S
C362 O384 1.234 . S
C362 O385 1.283 . S
C363 O375 1.281 . S
C363 O376 1.236 . S
C364 O386 1.240 . S
C364 O387 1.264 . S
O365 Mn360 2.095 . S
O365 C374 1.250 . S
O366 Mn361 2.121 . S
O366 C374 1.258 . S
C367 N368 1.326 . S
C367 C371 1.460 . S
C367 H373 0.929 . S
N368 Mn361 2.257 . S
N368 C367 1.326 . S
N368 C372 1.362 . S
C369 C370 1.258 . S
C369 C372 1.431 . S
C369 C389 1.449 . S
C370 C369 1.258 . S
C370 C371 1.477 . S
C370 H390 0.931 . S
C371 C367 1.460 . S
C371 C370 1.477 . S
C371 H391 0.930 . S
C372 N368 1.362 . S
C372 C369 1.431 . S
C372 C382 1.476 . S
H373 C367 0.929 . S
C374 O365 1.250 . S
C374 O366 1.258 . S
O375 Mn360 2.162 . S
O375 C363 1.281 . S
O376 Mn360 2.297 . S
O376 C363 1.236 . S
N377 Mn361 2.282 . S
N377 C378 1.328 . S
N377 C382 1.318 . S
C378 N377 1.328 . S
C378 C379 1.457 . S
C378 H383 0.929 . S
C379 C378 1.457 . S
C379 C380 1.291 . S
C379 H392 0.931 . S
C380 C379 1.291 . S
C380 C381 1.373 . S
C380 H393 0.929 . S
C381 C380 1.373 . S
C381 C382 1.396 . S
C381 C388 1.403 . S
C382 C372 1.476 . S
C382 N377 1.318 . S
C382 C381 1.396 . S
H383 C378 0.929 . S
O384 Mn360 2.385 . S
O384 C362 1.234 . S
O385 Mn360 2.209 . S
O385 Mn361 2.215 . S
O385 C362 1.283 . S
O386 Mn360 2.094 . S
O386 C364 1.240 . S
O387 Mn361 2.117 . S
O387 C364 1.264 . S
C388 C381 1.403 . S
C388 C389 1.399 . S
C388 H394 0.929 . S
C389 C369 1.449 . S
C389 C388 1.399 . S
C389 H395 0.930 . S
H390 C370 0.931 . S
H391 C371 0.930 . S
H392 C379 0.931 . S
H393 C380 0.929 . S
H394 C388 0.929 . S
H395 C389 0.930 . S
Mn396 O401 2.095 . S
Mn396 O411 2.162 . S
Mn396 O412 2.297 . S
Mn396 O420 2.385 . S
Mn396 O421 2.209 . S
Mn396 O422 2.094 . S
Mn397 O402 2.121 . S
Mn397 N404 2.257 . S
Mn397 N413 2.282 . S
Mn397 O421 2.215 . S
Mn397 O423 2.117 . S
C398 O420 1.234 . S
C398 O421 1.283 . S
C399 O411 1.281 . S
C399 O412 1.236 . S
C400 O422 1.240 . S
C400 O423 1.264 . S
O401 Mn396 2.095 . S
O401 C410 1.250 . S
O402 Mn397 2.121 . S
O402 C410 1.258 . S
C403 N404 1.326 . S
C403 C407 1.460 . S
C403 H409 0.929 . S
N404 Mn397 2.257 . S
N404 C403 1.326 . S
N404 C408 1.362 . S
C405 C406 1.258 . S
C405 C408 1.431 . S
C405 C425 1.449 . S
C406 C405 1.258 . S
C406 C407 1.477 . S
C406 H426 0.931 . S
C407 C403 1.460 . S
C407 C406 1.477 . S
C407 H427 0.930 . S
C408 N404 1.362 . S
C408 C405 1.431 . S
C408 C418 1.476 . S
H409 C403 0.929 . S
C410 O401 1.250 . S
C410 O402 1.258 . S
O411 Mn396 2.162 . S
O411 C399 1.281 . S
O412 Mn396 2.297 . S
O412 C399 1.236 . S
N413 Mn397 2.282 . S
N413 C414 1.328 . S
N413 C418 1.318 . S
C414 N413 1.328 . S
C414 C415 1.457 . S
C414 H419 0.929 . S
C415 C414 1.457 . S
C415 C416 1.291 . S
C415 H428 0.931 . S
C416 C415 1.291 . S
C416 C417 1.373 . S
C416 H429 0.929 . S
C417 C416 1.373 . S
C417 C418 1.396 . S
C417 C424 1.403 . S
C418 C408 1.476 . S
C418 N413 1.318 . S
C418 C417 1.396 . S
H419 C414 0.929 . S
O420 Mn396 2.385 . S
O420 C398 1.234 . S
O421 Mn396 2.209 . S
O421 Mn397 2.215 . S
O421 C398 1.283 . S
O422 Mn396 2.094 . S
O422 C400 1.240 . S
O423 Mn397 2.117 . S
O423 C400 1.264 . S
C424 C417 1.403 . S
C424 C425 1.399 . S
C424 H430 0.929 . S
C425 C405 1.449 . S
C425 C424 1.399 . S
C425 H431 0.930 . S
H426 C406 0.931 . S
H427 C407 0.930 . S
H428 C415 0.931 . S
H429 C416 0.929 . S
H430 C424 0.929 . S
H431 C425 0.930 . S
Mn432 O437 2.095 . S
Mn432 O447 2.162 . S
Mn432 O448 2.297 . S
Mn432 O456 2.385 . S
Mn432 O457 2.209 . S
Mn432 O458 2.094 . S
Mn433 O438 2.121 . S
Mn433 N440 2.257 . S
Mn433 N449 2.282 . S
Mn433 O457 2.215 . S
Mn433 O459 2.117 . S
C434 O456 1.234 . S
C434 O457 1.283 . S
C435 O447 1.281 . S
C435 O448 1.236 . S
C436 O458 1.240 . S
C436 O459 1.264 . S
O437 Mn432 2.095 . S
O437 C446 1.250 . S
O438 Mn433 2.121 . S
O438 C446 1.258 . S
C439 N440 1.326 . S
C439 C443 1.460 . S
C439 H445 0.929 . S
N440 Mn433 2.257 . S
N440 C439 1.326 . S
N440 C444 1.362 . S
C441 C442 1.258 . S
C441 C444 1.431 . S
C441 C461 1.449 . S
C442 C441 1.258 . S
C442 C443 1.477 . S
C442 H462 0.931 . S
C443 C439 1.460 . S
C443 C442 1.477 . S
C443 H463 0.930 . S
C444 N440 1.362 . S
C444 C441 1.431 . S
C444 C454 1.476 . S
H445 C439 0.929 . S
C446 O437 1.250 . S
C446 O438 1.258 . S
O447 Mn432 2.162 . S
O447 C435 1.281 . S
O448 Mn432 2.297 . S
O448 C435 1.236 . S
N449 Mn433 2.282 . S
N449 C450 1.328 . S
N449 C454 1.318 . S
C450 N449 1.328 . S
C450 C451 1.457 . S
C450 H455 0.929 . S
C451 C450 1.457 . S
C451 C452 1.291 . S
C451 H464 0.931 . S
C452 C451 1.291 . S
C452 C453 1.373 . S
C452 H465 0.929 . S
C453 C452 1.373 . S
C453 C454 1.396 . S
C453 C460 1.403 . S
C454 C444 1.476 . S
C454 N449 1.318 . S
C454 C453 1.396 . S
H455 C450 0.929 . S
O456 Mn432 2.385 . S
O456 C434 1.234 . S
O457 Mn432 2.209 . S
O457 Mn433 2.215 . S
O457 C434 1.283 . S
O458 Mn432 2.094 . S
O458 C436 1.240 . S
O459 Mn433 2.117 . S
O459 C436 1.264 . S
C460 C453 1.403 . S
C460 C461 1.399 . S
C460 H466 0.929 . S
C461 C441 1.449 . S
C461 C460 1.399 . S
C461 H467 0.930 . S
H462 C442 0.931 . S
H463 C443 0.930 . S
H464 C451 0.931 . S
H465 C452 0.929 . S
H466 C460 0.929 . S
H467 C461 0.930 . S
Mn468 O473 2.095 . S
Mn468 O483 2.162 . S
Mn468 O484 2.297 . S
Mn468 O492 2.385 . S
Mn468 O493 2.209 . S
Mn468 O494 2.094 . S
Mn469 O474 2.121 . S
Mn469 N476 2.257 . S
Mn469 N485 2.282 . S
Mn469 O493 2.215 . S
Mn469 O495 2.117 . S
C470 O492 1.234 . S
C470 O493 1.283 . S
C471 O483 1.281 . S
C471 O484 1.236 . S
C472 O494 1.240 . S
C472 O495 1.264 . S
O473 Mn468 2.095 . S
O473 C482 1.250 . S
O474 Mn469 2.121 . S
O474 C482 1.258 . S
C475 N476 1.326 . S
C475 C479 1.460 . S
C475 H481 0.929 . S
N476 Mn469 2.257 . S
N476 C475 1.326 . S
N476 C480 1.362 . S
C477 C478 1.258 . S
C477 C480 1.431 . S
C477 C497 1.449 . S
C478 C477 1.258 . S
C478 C479 1.477 . S
C478 H498 0.931 . S
C479 C475 1.460 . S
C479 C478 1.477 . S
C479 H499 0.930 . S
C480 N476 1.362 . S
C480 C477 1.431 . S
C480 C490 1.476 . S
H481 C475 0.929 . S
C482 O473 1.250 . S
C482 O474 1.258 . S
O483 Mn468 2.162 . S
O483 C471 1.281 . S
O484 Mn468 2.297 . S
O484 C471 1.236 . S
N485 Mn469 2.282 . S
N485 C486 1.328 . S
N485 C490 1.318 . S
C486 N485 1.328 . S
C486 C487 1.457 . S
C486 H491 0.929 . S
C487 C486 1.457 . S
C487 C488 1.291 . S
C487 H500 0.931 . S
C488 C487 1.291 . S
C488 C489 1.373 . S
C488 H501 0.929 . S
C489 C488 1.373 . S
C489 C490 1.396 . S
C489 C496 1.403 . S
C490 C480 1.476 . S
C490 N485 1.318 . S
C490 C489 1.396 . S
H491 C486 0.929 . S
O492 Mn468 2.385 . S
O492 C470 1.234 . S
O493 Mn468 2.209 . S
O493 Mn469 2.215 . S
O493 C470 1.283 . S
O494 Mn468 2.094 . S
O494 C472 1.240 . S
O495 Mn469 2.117 . S
O495 C472 1.264 . S
C496 C489 1.403 . S
C496 C497 1.399 . S
C496 H502 0.929 . S
C497 C477 1.449 . S
C497 C496 1.399 . S
C497 H503 0.930 . S
H498 C478 0.931 . S
H499 C479 0.930 . S
H500 C487 0.931 . S
H501 C488 0.929 . S
H502 C496 0.929 . S
H503 C497 0.930 . S
Mn504 O509 2.095 . S
Mn504 O519 2.162 . S
Mn504 O520 2.297 . S
Mn504 O528 2.385 . S
Mn504 O529 2.209 . S
Mn504 O530 2.094 . S
Mn505 O510 2.121 . S
Mn505 N512 2.257 . S
Mn505 N521 2.282 . S
Mn505 O529 2.215 . S
Mn505 O531 2.117 . S
C506 O528 1.234 . S
C506 O529 1.283 . S
C507 O519 1.281 . S
C507 O520 1.236 . S
C508 O530 1.240 . S
C508 O531 1.264 . S
O509 Mn504 2.095 . S
O509 C518 1.250 . S
O510 Mn505 2.121 . S
O510 C518 1.258 . S
C511 N512 1.326 . S
C511 C515 1.460 . S
C511 H517 0.929 . S
N512 Mn505 2.257 . S
N512 C511 1.326 . S
N512 C516 1.362 . S
C513 C514 1.258 . S
C513 C516 1.431 . S
C513 C533 1.449 . S
C514 C513 1.258 . S
C514 C515 1.477 . S
C514 H534 0.931 . S
C515 C511 1.460 . S
C515 C514 1.477 . S
C515 H535 0.930 . S
C516 N512 1.362 . S
C516 C513 1.431 . S
C516 C526 1.476 . S
H517 C511 0.929 . S
C518 O509 1.250 . S
C518 O510 1.258 . S
O519 Mn504 2.162 . S
O519 C507 1.281 . S
O520 Mn504 2.297 . S
O520 C507 1.236 . S
N521 Mn505 2.282 . S
N521 C522 1.328 . S
N521 C526 1.318 . S
C522 N521 1.328 . S
C522 C523 1.457 . S
C522 H527 0.929 . S
C523 C522 1.457 . S
C523 C524 1.291 . S
C523 H536 0.931 . S
C524 C523 1.291 . S
C524 C525 1.373 . S
C524 H537 0.929 . S
C525 C524 1.373 . S
C525 C526 1.396 . S
C525 C532 1.403 . S
C526 C516 1.476 . S
C526 N521 1.318 . S
C526 C525 1.396 . S
H527 C522 0.929 . S
O528 Mn504 2.385 . S
O528 C506 1.234 . S
O529 Mn504 2.209 . S
O529 Mn505 2.215 . S
O529 C506 1.283 . S
O530 Mn504 2.094 . S
O530 C508 1.240 . S
O531 Mn505 2.117 . S
O531 C508 1.264 . S
C532 C525 1.403 . S
C532 C533 1.399 . S
C532 H538 0.929 . S
C533 C513 1.449 . S
C533 C532 1.399 . S
C533 H539 0.930 . S
H534 C514 0.931 . S
H535 C515 0.930 . S
H536 C523 0.931 . S
H537 C524 0.929 . S
H538 C532 0.929 . S
H539 C533 0.930 . S
Mn540 O545 2.095 . S
Mn540 O555 2.162 . S
Mn540 O556 2.297 . S
Mn540 O564 2.385 . S
Mn540 O565 2.209 . S
Mn540 O566 2.094 . S
Mn541 O546 2.121 . S
Mn541 N548 2.257 . S
Mn541 N557 2.282 . S
Mn541 O565 2.215 . S
Mn541 O567 2.117 . S
C542 O564 1.234 . S
C542 O565 1.283 . S
C543 O555 1.281 . S
C543 O556 1.236 . S
C544 O566 1.240 . S
C544 O567 1.264 . S
O545 Mn540 2.095 . S
O545 C554 1.250 . S
O546 Mn541 2.121 . S
O546 C554 1.258 . S
C547 N548 1.326 . S
C547 C551 1.460 . S
C547 H553 0.929 . S
N548 Mn541 2.257 . S
N548 C547 1.326 . S
N548 C552 1.362 . S
C549 C550 1.258 . S
C549 C552 1.431 . S
C549 C569 1.449 . S
C550 C549 1.258 . S
C550 C551 1.477 . S
C550 H570 0.931 . S
C551 C547 1.460 . S
C551 C550 1.477 . S
C551 H571 0.930 . S
C552 N548 1.362 . S
C552 C549 1.431 . S
C552 C562 1.476 . S
H553 C547 0.929 . S
C554 O545 1.250 . S
C554 O546 1.258 . S
O555 Mn540 2.162 . S
O555 C543 1.281 . S
O556 Mn540 2.297 . S
O556 C543 1.236 . S
N557 Mn541 2.282 . S
N557 C558 1.328 . S
N557 C562 1.318 . S
C558 N557 1.328 . S
C558 C559 1.457 . S
C558 H563 0.929 . S
C559 C558 1.457 . S
C559 C560 1.291 . S
C559 H572 0.931 . S
C560 C559 1.291 . S
C560 C561 1.373 . S
C560 H573 0.929 . S
C561 C560 1.373 . S
C561 C562 1.396 . S
C561 C568 1.403 . S
C562 C552 1.476 . S
C562 N557 1.318 . S
C562 C561 1.396 . S
H563 C558 0.929 . S
O564 Mn540 2.385 . S
O564 C542 1.234 . S
O565 Mn540 2.209 . S
O565 Mn541 2.215 . S
O565 C542 1.283 . S
O566 Mn540 2.094 . S
O566 C544 1.240 . S
O567 Mn541 2.117 . S
O567 C544 1.264 . S
C568 C561 1.403 . S
C568 C569 1.399 . S
C568 H574 0.929 . S
C569 C549 1.449 . S
C569 C568 1.399 . S
C569 H575 0.930 . S
H570 C550 0.931 . S
H571 C551 0.930 . S
H572 C559 0.931 . S
H573 C560 0.929 . S
H574 C568 0.929 . S
H575 C569 0.930 . S
Mn576 O581 2.095 . S
Mn576 O591 2.162 . S
Mn576 O592 2.297 . S
Mn576 O600 2.385 . S
Mn576 O601 2.209 . S
Mn576 O602 2.094 . S
Mn577 O582 2.121 . S
Mn577 N584 2.257 . S
Mn577 N593 2.282 . S
Mn577 O601 2.215 . S
Mn577 O603 2.117 . S
C578 O600 1.234 . S
C578 O601 1.283 . S
C579 O591 1.281 . S
C579 O592 1.236 . S
C580 O602 1.240 . S
C580 O603 1.264 . S
O581 Mn576 2.095 . S
O581 C590 1.250 . S
O582 Mn577 2.121 . S
O582 C590 1.258 . S
C583 N584 1.326 . S
C583 C587 1.460 . S
C583 H589 0.929 . S
N584 Mn577 2.257 . S
N584 C583 1.326 . S
N584 C588 1.362 . S
C585 C586 1.258 . S
C585 C588 1.431 . S
C585 C605 1.449 . S
C586 C585 1.258 . S
C586 C587 1.477 . S
C586 H606 0.931 . S
C587 C583 1.460 . S
C587 C586 1.477 . S
C587 H607 0.930 . S
C588 N584 1.362 . S
C588 C585 1.431 . S
C588 C598 1.476 . S
H589 C583 0.929 . S
C590 O581 1.250 . S
C590 O582 1.258 . S
O591 Mn576 2.162 . S
O591 C579 1.281 . S
O592 Mn576 2.297 . S
O592 C579 1.236 . S
N593 Mn577 2.282 . S
N593 C594 1.328 . S
N593 C598 1.318 . S
C594 N593 1.328 . S
C594 C595 1.457 . S
C594 H599 0.929 . S
C595 C594 1.457 . S
C595 C596 1.291 . S
C595 H608 0.931 . S
C596 C595 1.291 . S
C596 C597 1.373 . S
C596 H609 0.929 . S
C597 C596 1.373 . S
C597 C598 1.396 . S
C597 C604 1.403 . S
C598 C588 1.476 . S
C598 N593 1.318 . S
C598 C597 1.396 . S
H599 C594 0.929 . S
O600 Mn576 2.385 . S
O600 C578 1.234 . S
O601 Mn576 2.209 . S
O601 Mn577 2.215 . S
O601 C578 1.283 . S
O602 Mn576 2.094 . S
O602 C580 1.240 . S
O603 Mn577 2.117 . S
O603 C580 1.264 . S
C604 C597 1.403 . S
C604 C605 1.399 . S
C604 H610 0.929 . S
C605 C585 1.449 . S
C605 C604 1.399 . S
C605 H611 0.930 . S
H606 C586 0.931 . S
H607 C587 0.930 . S
H608 C595 0.931 . S
H609 C596 0.929 . S
H610 C604 0.929 . S
H611 C605 0.930 . S
Mn612 O617 2.095 . S
Mn612 O627 2.162 . S
Mn612 O628 2.297 . S
Mn612 O636 2.385 . S
Mn612 O637 2.209 . S
Mn612 O638 2.094 . S
Mn613 O618 2.121 . S
Mn613 N620 2.257 . S
Mn613 N629 2.282 . S
Mn613 O637 2.215 . S
Mn613 O639 2.117 . S
C614 O636 1.234 . S
C614 O637 1.283 . S
C615 O627 1.281 . S
C615 O628 1.236 . S
C616 O638 1.240 . S
C616 O639 1.264 . S
O617 Mn612 2.095 . S
O617 C626 1.250 . S
O618 Mn613 2.121 . S
O618 C626 1.258 . S
C619 N620 1.326 . S
C619 C623 1.460 . S
C619 H625 0.929 . S
N620 Mn613 2.257 . S
N620 C619 1.326 . S
N620 C624 1.362 . S
C621 C622 1.258 . S
C621 C624 1.431 . S
C621 C641 1.449 . S
C622 C621 1.258 . S
C622 C623 1.477 . S
C622 H642 0.931 . S
C623 C619 1.460 . S
C623 C622 1.477 . S
C623 H643 0.930 . S
C624 N620 1.362 . S
C624 C621 1.431 . S
C624 C634 1.476 . S
H625 C619 0.929 . S
C626 O617 1.250 . S
C626 O618 1.258 . S
O627 Mn612 2.162 . S
O627 C615 1.281 . S
O628 Mn612 2.297 . S
O628 C615 1.236 . S
N629 Mn613 2.282 . S
N629 C630 1.328 . S
N629 C634 1.318 . S
C630 N629 1.328 . S
C630 C631 1.457 . S
C630 H635 0.929 . S
C631 C630 1.457 . S
C631 C632 1.291 . S
C631 H644 0.931 . S
C632 C631 1.291 . S
C632 C633 1.373 . S
C632 H645 0.929 . S
C633 C632 1.373 . S
C633 C634 1.396 . S
C633 C640 1.403 . S
C634 C624 1.476 . S
C634 N629 1.318 . S
C634 C633 1.396 . S
H635 C630 0.929 . S
O636 Mn612 2.385 . S
O636 C614 1.234 . S
O637 Mn612 2.209 . S
O637 Mn613 2.215 . S
O637 C614 1.283 . S
O638 Mn612 2.094 . S
O638 C616 1.240 . S
O639 Mn613 2.117 . S
O639 C616 1.264 . S
C640 C633 1.403 . S
C640 C641 1.399 . S
C640 H646 0.929 . S
C641 C621 1.449 . S
C641 C640 1.399 . S
C641 H647 0.930 . S
H642 C622 0.931 . S
H643 C623 0.930 . S
H644 C631 0.931 . S
H645 C632 0.929 . S
H646 C640 0.929 . S
H647 C641 0.930 . S
Mn648 O653 2.095 . S
Mn648 O663 2.162 . S
Mn648 O664 2.297 . S
Mn648 O672 2.385 . S
Mn648 O673 2.209 . S
Mn648 O674 2.094 . S
Mn649 O654 2.121 . S
Mn649 N656 2.257 . S
Mn649 N665 2.282 . S
Mn649 O673 2.215 . S
Mn649 O675 2.117 . S
C650 O672 1.234 . S
C650 O673 1.283 . S
C651 O663 1.281 . S
C651 O664 1.236 . S
C652 O674 1.240 . S
C652 O675 1.264 . S
O653 Mn648 2.095 . S
O653 C662 1.250 . S
O654 Mn649 2.121 . S
O654 C662 1.258 . S
C655 N656 1.326 . S
C655 C659 1.460 . S
C655 H661 0.929 . S
N656 Mn649 2.257 . S
N656 C655 1.326 . S
N656 C660 1.362 . S
C657 C658 1.258 . S
C657 C660 1.431 . S
C657 C677 1.449 . S
C658 C657 1.258 . S
C658 C659 1.477 . S
C658 H678 0.931 . S
C659 C655 1.460 . S
C659 C658 1.477 . S
C659 H679 0.930 . S
C660 N656 1.362 . S
C660 C657 1.431 . S
C660 C670 1.476 . S
H661 C655 0.929 . S
C662 O653 1.250 . S
C662 O654 1.258 . S
O663 Mn648 2.162 . S
O663 C651 1.281 . S
O664 Mn648 2.297 . S
O664 C651 1.236 . S
N665 Mn649 2.282 . S
N665 C666 1.328 . S
N665 C670 1.318 . S
C666 N665 1.328 . S
C666 C667 1.457 . S
C666 H671 0.929 . S
C667 C666 1.457 . S
C667 C668 1.291 . S
C667 H680 0.931 . S
C668 C667 1.291 . S
C668 C669 1.373 . S
C668 H681 0.929 . S
C669 C668 1.373 . S
C669 C670 1.396 . S
C669 C676 1.403 . S
C670 C660 1.476 . S
C670 N665 1.318 . S
C670 C669 1.396 . S
H671 C666 0.929 . S
O672 Mn648 2.385 . S
O672 C650 1.234 . S
O673 Mn648 2.209 . S
O673 Mn649 2.215 . S
O673 C650 1.283 . S
O674 Mn648 2.094 . S
O674 C652 1.240 . S
O675 Mn649 2.117 . S
O675 C652 1.264 . S
C676 C669 1.403 . S
C676 C677 1.399 . S
C676 H682 0.929 . S
C677 C657 1.449 . S
C677 C676 1.399 . S
C677 H683 0.930 . S
H678 C658 0.931 . S
H679 C659 0.930 . S
H680 C667 0.931 . S
H681 C668 0.929 . S
H682 C676 0.929 . S
H683 C677 0.930 . S
Mn684 O689 2.095 . S
Mn684 O699 2.162 . S
Mn684 O700 2.297 . S
Mn684 O708 2.385 . S
Mn684 O709 2.209 . S
Mn684 O710 2.094 . S
Mn685 O690 2.121 . S
Mn685 N692 2.257 . S
Mn685 N701 2.282 . S
Mn685 O709 2.215 . S
Mn685 O711 2.117 . S
C686 O708 1.234 . S
C686 O709 1.283 . S
C687 O699 1.281 . S
C687 O700 1.236 . S
C688 O710 1.240 . S
C688 O711 1.264 . S
O689 Mn684 2.095 . S
O689 C698 1.250 . S
O690 Mn685 2.121 . S
O690 C698 1.258 . S
C691 N692 1.326 . S
C691 C695 1.460 . S
C691 H697 0.929 . S
N692 Mn685 2.257 . S
N692 C691 1.326 . S
N692 C696 1.362 . S
C693 C694 1.258 . S
C693 C696 1.431 . S
C693 C713 1.449 . S
C694 C693 1.258 . S
C694 C695 1.477 . S
C694 H714 0.931 . S
C695 C691 1.460 . S
C695 C694 1.477 . S
C695 H715 0.930 . S
C696 N692 1.362 . S
C696 C693 1.431 . S
C696 C706 1.476 . S
H697 C691 0.929 . S
C698 O689 1.250 . S
C698 O690 1.258 . S
O699 Mn684 2.162 . S
O699 C687 1.281 . S
O700 Mn684 2.297 . S
O700 C687 1.236 . S
N701 Mn685 2.282 . S
N701 C702 1.328 . S
N701 C706 1.318 . S
C702 N701 1.328 . S
C702 C703 1.457 . S
C702 H707 0.929 . S
C703 C702 1.457 . S
C703 C704 1.291 . S
C703 H716 0.931 . S
C704 C703 1.291 . S
C704 C705 1.373 . S
C704 H717 0.929 . S
C705 C704 1.373 . S
C705 C706 1.396 . S
C705 C712 1.403 . S
C706 C696 1.476 . S
C706 N701 1.318 . S
C706 C705 1.396 . S
H707 C702 0.929 . S
O708 Mn684 2.385 . S
O708 C686 1.234 . S
O709 Mn684 2.209 . S
O709 Mn685 2.215 . S
O709 C686 1.283 . S
O710 Mn684 2.094 . S
O710 C688 1.240 . S
O711 Mn685 2.117 . S
O711 C688 1.264 . S
C712 C705 1.403 . S
C712 C713 1.399 . S
C712 H718 0.929 . S
C713 C693 1.449 . S
C713 C712 1.399 . S
C713 H719 0.930 . S
H714 C694 0.931 . S
H715 C695 0.930 . S
H716 C703 0.931 . S
H717 C704 0.929 . S
H718 C712 0.929 . S
H719 C713 0.930 . S
Mn720 O725 2.095 . S
Mn720 O735 2.162 . S
Mn720 O736 2.297 . S
Mn720 O744 2.385 . S
Mn720 O745 2.209 . S
Mn720 O746 2.094 . S
Mn721 O726 2.121 . S
Mn721 N728 2.257 . S
Mn721 N737 2.282 . S
Mn721 O745 2.215 . S
Mn721 O747 2.117 . S
C722 O744 1.234 . S
C722 O745 1.283 . S
C723 O735 1.281 . S
C723 O736 1.236 . S
C724 O746 1.240 . S
C724 O747 1.264 . S
O725 Mn720 2.095 . S
O725 C734 1.250 . S
O726 Mn721 2.121 . S
O726 C734 1.258 . S
C727 N728 1.326 . S
C727 C731 1.460 . S
C727 H733 0.929 . S
N728 Mn721 2.257 . S
N728 C727 1.326 . S
N728 C732 1.362 . S
C729 C730 1.258 . S
C729 C732 1.431 . S
C729 C749 1.449 . S
C730 C729 1.258 . S
C730 C731 1.477 . S
C730 H750 0.931 . S
C731 C727 1.460 . S
C731 C730 1.477 . S
C731 H751 0.930 . S
C732 N728 1.362 . S
C732 C729 1.431 . S
C732 C742 1.476 . S
H733 C727 0.929 . S
C734 O725 1.250 . S
C734 O726 1.258 . S
O735 Mn720 2.162 . S
O735 C723 1.281 . S
O736 Mn720 2.297 . S
O736 C723 1.236 . S
N737 Mn721 2.282 . S
N737 C738 1.328 . S
N737 C742 1.318 . S
C738 N737 1.328 . S
C738 C739 1.457 . S
C738 H743 0.929 . S
C739 C738 1.457 . S
C739 C740 1.291 . S
C739 H752 0.931 . S
C740 C739 1.291 . S
C740 C741 1.373 . S
C740 H753 0.929 . S
C741 C740 1.373 . S
C741 C742 1.396 . S
C741 C748 1.403 . S
C742 C732 1.476 . S
C742 N737 1.318 . S
C742 C741 1.396 . S
H743 C738 0.929 . S
O744 Mn720 2.385 . S
O744 C722 1.234 . S
O745 Mn720 2.209 . S
O745 Mn721 2.215 . S
O745 C722 1.283 . S
O746 Mn720 2.094 . S
O746 C724 1.240 . S
O747 Mn721 2.117 . S
O747 C724 1.264 . S
C748 C741 1.403 . S
C748 C749 1.399 . S
C748 H754 0.929 . S
C749 C729 1.449 . S
C749 C748 1.399 . S
C749 H755 0.930 . S
H750 C730 0.931 . S
H751 C731 0.930 . S
H752 C739 0.931 . S
H753 C740 0.929 . S
H754 C748 0.929 . S
H755 C749 0.930 . S
Mn756 O761 2.095 . S
Mn756 O771 2.162 . S
Mn756 O772 2.297 . S
Mn756 O780 2.385 . S
Mn756 O781 2.209 . S
Mn756 O782 2.094 . S
Mn757 O762 2.121 . S
Mn757 N764 2.257 . S
Mn757 N773 2.282 . S
Mn757 O781 2.215 . S
Mn757 O783 2.117 . S
C758 O780 1.234 . S
C758 O781 1.283 . S
C759 O771 1.281 . S
C759 O772 1.236 . S
C760 O782 1.240 . S
C760 O783 1.264 . S
O761 Mn756 2.095 . S
O761 C770 1.250 . S
O762 Mn757 2.121 . S
O762 C770 1.258 . S
C763 N764 1.326 . S
C763 C767 1.460 . S
C763 H769 0.929 . S
N764 Mn757 2.257 . S
N764 C763 1.326 . S
N764 C768 1.362 . S
C765 C766 1.258 . S
C765 C768 1.431 . S
C765 C785 1.449 . S
C766 C765 1.258 . S
C766 C767 1.477 . S
C766 H786 0.931 . S
C767 C763 1.460 . S
C767 C766 1.477 . S
C767 H787 0.930 . S
C768 N764 1.362 . S
C768 C765 1.431 . S
C768 C778 1.476 . S
H769 C763 0.929 . S
C770 O761 1.250 . S
C770 O762 1.258 . S
O771 Mn756 2.162 . S
O771 C759 1.281 . S
O772 Mn756 2.297 . S
O772 C759 1.236 . S
N773 Mn757 2.282 . S
N773 C774 1.328 . S
N773 C778 1.318 . S
C774 N773 1.328 . S
C774 C775 1.457 . S
C774 H779 0.929 . S
C775 C774 1.457 . S
C775 C776 1.291 . S
C775 H788 0.931 . S
C776 C775 1.291 . S
C776 C777 1.373 . S
C776 H789 0.929 . S
C777 C776 1.373 . S
C777 C778 1.396 . S
C777 C784 1.403 . S
C778 C768 1.476 . S
C778 N773 1.318 . S
C778 C777 1.396 . S
H779 C774 0.929 . S
O780 Mn756 2.385 . S
O780 C758 1.234 . S
O781 Mn756 2.209 . S
O781 Mn757 2.215 . S
O781 C758 1.283 . S
O782 Mn756 2.094 . S
O782 C760 1.240 . S
O783 Mn757 2.117 . S
O783 C760 1.264 . S
C784 C777 1.403 . S
C784 C785 1.399 . S
C784 H790 0.929 . S
C785 C765 1.449 . S
C785 C784 1.399 . S
C785 H791 0.930 . S
H786 C766 0.931 . S
H787 C767 0.930 . S
H788 C775 0.931 . S
H789 C776 0.929 . S
H790 C784 0.929 . S
H791 C785 0.930 . S
Mn792 O797 2.095 . S
Mn792 O807 2.162 . S
Mn792 O808 2.297 . S
Mn792 O816 2.385 . S
Mn792 O817 2.209 . S
Mn792 O818 2.094 . S
Mn793 O798 2.121 . S
Mn793 N800 2.257 . S
Mn793 N809 2.282 . S
Mn793 O817 2.215 . S
Mn793 O819 2.117 . S
C794 O816 1.234 . S
C794 O817 1.283 . S
C795 O807 1.281 . S
C795 O808 1.236 . S
C796 O818 1.240 . S
C796 O819 1.264 . S
O797 Mn792 2.095 . S
O797 C806 1.250 . S
O798 Mn793 2.121 . S
O798 C806 1.258 . S
C799 N800 1.326 . S
C799 C803 1.460 . S
C799 H805 0.929 . S
N800 Mn793 2.257 . S
N800 C799 1.326 . S
N800 C804 1.362 . S
C801 C802 1.258 . S
C801 C804 1.431 . S
C801 C821 1.449 . S
C802 C801 1.258 . S
C802 C803 1.477 . S
C802 H822 0.931 . S
C803 C799 1.460 . S
C803 C802 1.477 . S
C803 H823 0.930 . S
C804 N800 1.362 . S
C804 C801 1.431 . S
C804 C814 1.476 . S
H805 C799 0.929 . S
C806 O797 1.250 . S
C806 O798 1.258 . S
O807 Mn792 2.162 . S
O807 C795 1.281 . S
O808 Mn792 2.297 . S
O808 C795 1.236 . S
N809 Mn793 2.282 . S
N809 C810 1.328 . S
N809 C814 1.318 . S
C810 N809 1.328 . S
C810 C811 1.457 . S
C810 H815 0.929 . S
C811 C810 1.457 . S
C811 C812 1.291 . S
C811 H824 0.931 . S
C812 C811 1.291 . S
C812 C813 1.373 . S
C812 H825 0.929 . S
C813 C812 1.373 . S
C813 C814 1.396 . S
C813 C820 1.403 . S
C814 C804 1.476 . S
C814 N809 1.318 . S
C814 C813 1.396 . S
H815 C810 0.929 . S
O816 Mn792 2.385 . S
O816 C794 1.234 . S
O817 Mn792 2.209 . S
O817 Mn793 2.215 . S
O817 C794 1.283 . S
O818 Mn792 2.094 . S
O818 C796 1.240 . S
O819 Mn793 2.117 . S
O819 C796 1.264 . S
C820 C813 1.403 . S
C820 C821 1.399 . S
C820 H826 0.929 . S
C821 C801 1.449 . S
C821 C820 1.399 . S
C821 H827 0.930 . S
H822 C802 0.931 . S
H823 C803 0.930 . S
H824 C811 0.931 . S
H825 C812 0.929 . S
H826 C820 0.929 . S
H827 C821 0.930 . S
Mn828 O833 2.095 . S
Mn828 O843 2.162 . S
Mn828 O844 2.297 . S
Mn828 O852 2.385 . S
Mn828 O853 2.209 . S
Mn828 O854 2.094 . S
Mn829 O834 2.121 . S
Mn829 N836 2.257 . S
Mn829 N845 2.282 . S
Mn829 O853 2.215 . S
Mn829 O855 2.117 . S
C830 O852 1.234 . S
C830 O853 1.283 . S
C831 O843 1.281 . S
C831 O844 1.236 . S
C832 O854 1.240 . S
C832 O855 1.264 . S
O833 Mn828 2.095 . S
O833 C842 1.250 . S
O834 Mn829 2.121 . S
O834 C842 1.258 . S
C835 N836 1.326 . S
C835 C839 1.460 . S
C835 H841 0.929 . S
N836 Mn829 2.257 . S
N836 C835 1.326 . S
N836 C840 1.362 . S
C837 C838 1.258 . S
C837 C840 1.431 . S
C837 C857 1.449 . S
C838 C837 1.258 . S
C838 C839 1.477 . S
C838 H858 0.931 . S
C839 C835 1.460 . S
C839 C838 1.477 . S
C839 H859 0.930 . S
C840 N836 1.362 . S
C840 C837 1.431 . S
C840 C850 1.476 . S
H841 C835 0.929 . S
C842 O833 1.250 . S
C842 O834 1.258 . S
O843 Mn828 2.162 . S
O843 C831 1.281 . S
O844 Mn828 2.297 . S
O844 C831 1.236 . S
N845 Mn829 2.282 . S
N845 C846 1.328 . S
N845 C850 1.318 . S
C846 N845 1.328 . S
C846 C847 1.457 . S
C846 H851 0.929 . S
C847 C846 1.457 . S
C847 C848 1.291 . S
C847 H860 0.931 . S
C848 C847 1.291 . S
C848 C849 1.373 . S
C848 H861 0.929 . S
C849 C848 1.373 . S
C849 C850 1.396 . S
C849 C856 1.403 . S
C850 C840 1.476 . S
C850 N845 1.318 . S
C850 C849 1.396 . S
H851 C846 0.929 . S
O852 Mn828 2.385 . S
O852 C830 1.234 . S
O853 Mn828 2.209 . S
O853 Mn829 2.215 . S
O853 C830 1.283 . S
O854 Mn828 2.094 . S
O854 C832 1.240 . S
O855 Mn829 2.117 . S
O855 C832 1.264 . S
C856 C849 1.403 . S
C856 C857 1.399 . S
C856 H862 0.929 . S
C857 C837 1.449 . S
C857 C856 1.399 . S
C857 H863 0.930 . S
H858 C838 0.931 . S
H859 C839 0.930 . S
H860 C847 0.931 . S
H861 C848 0.929 . S
H862 C856 0.929 . S
H863 C857 0.930 . S
H864 C870 0.930 . S
H865 C873 0.930 . S
H866 C874 0.930 . S
H867 C875 0.930 . S
H868 C878 0.930 . S
H869 C879 0.930 . S
C870 H864 0.930 . S
C870 C871 1.355 . S
C870 C872 1.415 . S
C871 C870 1.355 . S
C871 C873 1.419 . S
C872 C870 1.415 . S
C872 C877 1.425 . S
C872 C879 1.409 . S
C873 H865 0.930 . S
C873 C871 1.419 . S
C873 C874 1.362 . S
C874 H866 0.930 . S
C874 C873 1.362 . S
C874 C877 1.409 . S
C875 H867 0.930 . S
C875 C876 1.355 . S
C875 C877 1.415 . S
C876 C875 1.355 . S
C876 C878 1.419 . S
C877 C872 1.425 . S
C877 C874 1.409 . S
C877 C875 1.415 . S
C878 H868 0.930 . S
C878 C876 1.419 . S
C878 C879 1.362 . S
C879 H869 0.930 . S
C879 C872 1.409 . S
C879 C878 1.362 . S
H880 C886 0.930 . S
H881 C889 0.930 . S
H882 C890 0.930 . S
H883 C891 0.930 . S
H884 C894 0.930 . S
H885 C895 0.930 . S
C886 H880 0.930 . S
C886 C887 1.355 . S
C886 C888 1.415 . S
C887 C886 1.355 . S
C887 C889 1.419 . S
C888 C886 1.415 . S
C888 C893 1.425 . S
C888 C895 1.409 . S
C889 H881 0.930 . S
C889 C887 1.419 . S
C889 C890 1.362 . S
C890 H882 0.930 . S
C890 C889 1.362 . S
C890 C893 1.409 . S
C891 H883 0.930 . S
C891 C892 1.355 . S
C891 C893 1.415 . S
C892 C891 1.355 . S
C892 C894 1.419 . S
C893 C888 1.425 . S
C893 C890 1.409 . S
C893 C891 1.415 . S
C894 H884 0.930 . S
C894 C892 1.419 . S
C894 C895 1.362 . S
C895 H885 0.930 . S
C895 C888 1.409 . S
C895 C894 1.362 . S
H896 C902 0.930 . S
H897 C905 0.930 . S
H898 C906 0.930 . S
H899 C907 0.930 . S
H900 C910 0.930 . S
H901 C911 0.930 . S
C902 H896 0.930 . S
C902 C903 1.355 . S
C902 C904 1.415 . S
C903 C902 1.355 . S
C903 C905 1.419 . S
C904 C902 1.415 . S
C904 C909 1.425 . S
C904 C911 1.409 . S
C905 H897 0.930 . S
C905 C903 1.419 . S
C905 C906 1.362 . S
C906 H898 0.930 . S
C906 C905 1.362 . S
C906 C909 1.409 . S
C907 H899 0.930 . S
C907 C908 1.355 . S
C907 C909 1.415 . S
C908 C907 1.355 . S
C908 C910 1.419 . S
C909 C904 1.425 . S
C909 C906 1.409 . S
C909 C907 1.415 . S
C910 H900 0.930 . S
C910 C908 1.419 . S
C910 C911 1.362 . S
C911 H901 0.930 . S
C911 C904 1.409 . S
C911 C910 1.362 . S
H912 C918 0.930 . S
H913 C921 0.930 . S
H914 C922 0.930 . S
H915 C923 0.930 . S
H916 C926 0.930 . S
H917 C927 0.930 . S
C918 H912 0.930 . S
C918 C919 1.355 . S
C918 C920 1.415 . S
C919 C918 1.355 . S
C919 C921 1.419 . S
C920 C918 1.415 . S
C920 C925 1.425 . S
C920 C927 1.409 . S
C921 H913 0.930 . S
C921 C919 1.419 . S
C921 C922 1.362 . S
C922 H914 0.930 . S
C922 C921 1.362 . S
C922 C925 1.409 . S
C923 H915 0.930 . S
C923 C924 1.355 . S
C923 C925 1.415 . S
C924 C923 1.355 . S
C924 C926 1.419 . S
C925 C920 1.425 . S
C925 C922 1.409 . S
C925 C923 1.415 . S
C926 H916 0.930 . S
C926 C924 1.419 . S
C926 C927 1.362 . S
C927 H917 0.930 . S
C927 C920 1.409 . S
C927 C926 1.362 . S
H928 C934 0.930 . S
H929 C937 0.930 . S
H930 C938 0.930 . S
H931 C939 0.930 . S
H932 C942 0.930 . S
H933 C943 0.930 . S
C934 H928 0.930 . S
C934 C935 1.355 . S
C934 C936 1.415 . S
C935 C934 1.355 . S
C935 C937 1.419 . S
C936 C934 1.415 . S
C936 C941 1.425 . S
C936 C943 1.409 . S
C937 H929 0.930 . S
C937 C935 1.419 . S
C937 C938 1.362 . S
C938 H930 0.930 . S
C938 C937 1.362 . S
C938 C941 1.409 . S
C939 H931 0.930 . S
C939 C940 1.355 . S
C939 C941 1.415 . S
C940 C939 1.355 . S
C940 C942 1.419 . S
C941 C936 1.425 . S
C941 C938 1.409 . S
C941 C939 1.415 . S
C942 H932 0.930 . S
C942 C940 1.419 . S
C942 C943 1.362 . S
C943 H933 0.930 . S
C943 C936 1.409 . S
C943 C942 1.362 . S
H944 C950 0.930 . S
H945 C953 0.930 . S
H946 C954 0.930 . S
H947 C955 0.930 . S
H948 C958 0.930 . S
H949 C959 0.930 . S
C950 H944 0.930 . S
C950 C951 1.355 . S
C950 C952 1.415 . S
C951 C950 1.355 . S
C951 C953 1.419 . S
C952 C950 1.415 . S
C952 C957 1.425 . S
C952 C959 1.409 . S
C953 H945 0.930 . S
C953 C951 1.419 . S
C953 C954 1.362 . S
C954 H946 0.930 . S
C954 C953 1.362 . S
C954 C957 1.409 . S
C955 H947 0.930 . S
C955 C956 1.355 . S
C955 C957 1.415 . S
C956 C955 1.355 . S
C956 C958 1.419 . S
C957 C952 1.425 . S
C957 C954 1.409 . S
C957 C955 1.415 . S
C958 H948 0.930 . S
C958 C956 1.419 . S
C958 C959 1.362 . S
C959 H949 0.930 . S
C959 C952 1.409 . S
C959 C958 1.362 . S
H960 C966 0.930 . S
H961 C969 0.930 . S
H962 C970 0.930 . S
H963 C971 0.930 . S
H964 C974 0.930 . S
H965 C975 0.930 . S
C966 H960 0.930 . S
C966 C967 1.355 . S
C966 C968 1.415 . S
C967 C966 1.355 . S
C967 C969 1.419 . S
C968 C966 1.415 . S
C968 C973 1.425 . S
C968 C975 1.409 . S
C969 H961 0.930 . S
C969 C967 1.419 . S
C969 C970 1.362 . S
C970 H962 0.930 . S
C970 C969 1.362 . S
C970 C973 1.409 . S
C971 H963 0.930 . S
C971 C972 1.355 . S
C971 C973 1.415 . S
C972 C971 1.355 . S
C972 C974 1.419 . S
C973 C968 1.425 . S
C973 C970 1.409 . S
C973 C971 1.415 . S
C974 H964 0.930 . S
C974 C972 1.419 . S
C974 C975 1.362 . S
C975 H965 0.930 . S
C975 C968 1.409 . S
C975 C974 1.362 . S
H976 C982 0.930 . S
H977 C985 0.930 . S
H978 C986 0.930 . S
H979 C987 0.930 . S
H980 C990 0.930 . S
H981 C991 0.930 . S
C982 H976 0.930 . S
C982 C983 1.355 . S
C982 C984 1.415 . S
C983 C982 1.355 . S
C983 C985 1.419 . S
C984 C982 1.415 . S
C984 C989 1.425 . S
C984 C991 1.409 . S
C985 H977 0.930 . S
C985 C983 1.419 . S
C985 C986 1.362 . S
C986 H978 0.930 . S
C986 C985 1.362 . S
C986 C989 1.409 . S
C987 H979 0.930 . S
C987 C988 1.355 . S
C987 C989 1.415 . S
C988 C987 1.355 . S
C988 C990 1.419 . S
C989 C984 1.425 . S
C989 C986 1.409 . S
C989 C987 1.415 . S
C990 H980 0.930 . S
C990 C988 1.419 . S
C990 C991 1.362 . S
C991 H981 0.930 . S
C991 C984 1.409 . S
C991 C990 1.362 . S
H992 C998 0.930 . S
H993 C1001 0.930 . S
H994 C1002 0.930 . S
H995 C1003 0.930 . S
H996 C1006 0.930 . S
H997 C1007 0.930 . S
C998 H992 0.930 . S
C998 C999 1.355 . S
C998 C1000 1.415 . S
C999 C998 1.355 . S
C999 C1001 1.419 . S
C1000 C998 1.415 . S
C1000 C1005 1.425 . S
C1000 C1007 1.409 . S
C1001 H993 0.930 . S
C1001 C999 1.419 . S
C1001 C1002 1.362 . S
C1002 H994 0.930 . S
C1002 C1001 1.362 . S
C1002 C1005 1.409 . S
C1003 H995 0.930 . S
C1003 C1004 1.355 . S
C1003 C1005 1.415 . S
C1004 C1003 1.355 . S
C1004 C1006 1.419 . S
C1005 C1000 1.425 . S
C1005 C1002 1.409 . S
C1005 C1003 1.415 . S
C1006 H996 0.930 . S
C1006 C1004 1.419 . S
C1006 C1007 1.362 . S
C1007 H997 0.930 . S
C1007 C1000 1.409 . S
C1007 C1006 1.362 . S
H1008 C1014 0.930 . S
H1009 C1017 0.930 . S
H1010 C1018 0.930 . S
H1011 C1019 0.930 . S
H1012 C1022 0.930 . S
H1013 C1023 0.930 . S
C1014 H1008 0.930 . S
C1014 C1015 1.355 . S
C1014 C1016 1.415 . S
C1015 C1014 1.355 . S
C1015 C1017 1.419 . S
C1016 C1014 1.415 . S
C1016 C1021 1.425 . S
C1016 C1023 1.409 . S
C1017 H1009 0.930 . S
C1017 C1015 1.419 . S
C1017 C1018 1.362 . S
C1018 H1010 0.930 . S
C1018 C1017 1.362 . S
C1018 C1021 1.409 . S
C1019 H1011 0.930 . S
C1019 C1020 1.355 . S
C1019 C1021 1.415 . S
C1020 C1019 1.355 . S
C1020 C1022 1.419 . S
C1021 C1016 1.425 . S
C1021 C1018 1.409 . S
C1021 C1019 1.415 . S
C1022 H1012 0.930 . S
C1022 C1020 1.419 . S
C1022 C1023 1.362 . S
C1023 H1013 0.930 . S
C1023 C1016 1.409 . S
C1023 C1022 1.362 . S
H1024 C1030 0.930 . S
H1025 C1033 0.930 . S
H1026 C1034 0.930 . S
H1027 C1035 0.930 . S
H1028 C1038 0.930 . S
H1029 C1039 0.930 . S
C1030 H1024 0.930 . S
C1030 C1031 1.355 . S
C1030 C1032 1.415 . S
C1031 C1030 1.355 . S
C1031 C1033 1.419 . S
C1032 C1030 1.415 . S
C1032 C1037 1.425 . S
C1032 C1039 1.409 . S
C1033 H1025 0.930 . S
C1033 C1031 1.419 . S
C1033 C1034 1.362 . S
C1034 H1026 0.930 . S
C1034 C1033 1.362 . S
C1034 C1037 1.409 . S
C1035 H1027 0.930 . S
C1035 C1036 1.355 . S
C1035 C1037 1.415 . S
C1036 C1035 1.355 . S
C1036 C1038 1.419 . S
C1037 C1032 1.425 . S
C1037 C1034 1.409 . S
C1037 C1035 1.415 . S
C1038 H1028 0.930 . S
C1038 C1036 1.419 . S
C1038 C1039 1.362 . S
C1039 H1029 0.930 . S
C1039 C1032 1.409 . S
C1039 C1038 1.362 . S
H1040 C1046 0.930 . S
H1041 C1049 0.930 . S
H1042 C1050 0.930 . S
H1043 C1051 0.930 . S
H1044 C1054 0.930 . S
H1045 C1055 0.930 . S
C1046 H1040 0.930 . S
C1046 C1047 1.355 . S
C1046 C1048 1.415 . S
C1047 C1046 1.355 . S
C1047 C1049 1.419 . S
C1048 C1046 1.415 . S
C1048 C1053 1.425 . S
C1048 C1055 1.409 . S
C1049 H1041 0.930 . S
C1049 C1047 1.419 . S
C1049 C1050 1.362 . S
C1050 H1042 0.930 . S
C1050 C1049 1.362 . S
C1050 C1053 1.409 . S
C1051 H1043 0.930 . S
C1051 C1052 1.355 . S
C1051 C1053 1.415 . S
C1052 C1051 1.355 . S
C1052 C1054 1.419 . S
C1053 C1048 1.425 . S
C1053 C1050 1.409 . S
C1053 C1051 1.415 . S
C1054 H1044 0.930 . S
C1054 C1052 1.419 . S
C1054 C1055 1.362 . S
C1055 H1045 0.930 . S
C1055 C1048 1.409 . S
C1055 C1054 1.362 . S
H1056 C1062 0.930 . S
H1057 C1065 0.930 . S
H1058 C1066 0.930 . S
H1059 C1067 0.930 . S
H1060 C1070 0.930 . S
H1061 C1071 0.930 . S
C1062 H1056 0.930 . S
C1062 C1063 1.355 . S
C1062 C1064 1.415 . S
C1063 C1062 1.355 . S
C1063 C1065 1.419 . S
C1064 C1062 1.415 . S
C1064 C1069 1.425 . S
C1064 C1071 1.409 . S
C1065 H1057 0.930 . S
C1065 C1063 1.419 . S
C1065 C1066 1.362 . S
C1066 H1058 0.930 . S
C1066 C1065 1.362 . S
C1066 C1069 1.409 . S
C1067 H1059 0.930 . S
C1067 C1068 1.355 . S
C1067 C1069 1.415 . S
C1068 C1067 1.355 . S
C1068 C1070 1.419 . S
C1069 C1064 1.425 . S
C1069 C1066 1.409 . S
C1069 C1067 1.415 . S
C1070 H1060 0.930 . S
C1070 C1068 1.419 . S
C1070 C1071 1.362 . S
C1071 H1061 0.930 . S
C1071 C1064 1.409 . S
C1071 C1070 1.362 . S
H1072 C1078 0.930 . S
H1073 C1081 0.930 . S
H1074 C1082 0.930 . S
H1075 C1083 0.930 . S
H1076 C1086 0.930 . S
H1077 C1087 0.930 . S
C1078 H1072 0.930 . S
C1078 C1079 1.355 . S
C1078 C1080 1.415 . S
C1079 C1078 1.355 . S
C1079 C1081 1.419 . S
C1080 C1078 1.415 . S
C1080 C1085 1.425 . S
C1080 C1087 1.409 . S
C1081 H1073 0.930 . S
C1081 C1079 1.419 . S
C1081 C1082 1.362 . S
C1082 H1074 0.930 . S
C1082 C1081 1.362 . S
C1082 C1085 1.409 . S
C1083 H1075 0.930 . S
C1083 C1084 1.355 . S
C1083 C1085 1.415 . S
C1084 C1083 1.355 . S
C1084 C1086 1.419 . S
C1085 C1080 1.425 . S
C1085 C1082 1.409 . S
C1085 C1083 1.415 . S
C1086 H1076 0.930 . S
C1086 C1084 1.419 . S
C1086 C1087 1.362 . S
C1087 H1077 0.930 . S
C1087 C1080 1.409 . S
C1087 C1086 1.362 . S
H1088 C1094 0.930 . S
H1089 C1097 0.930 . S
H1090 C1098 0.930 . S
H1091 C1099 0.930 . S
H1092 C1102 0.930 . S
H1093 C1103 0.930 . S
C1094 H1088 0.930 . S
C1094 C1095 1.355 . S
C1094 C1096 1.415 . S
C1095 C1094 1.355 . S
C1095 C1097 1.419 . S
C1096 C1094 1.415 . S
C1096 C1101 1.425 . S
C1096 C1103 1.409 . S
C1097 H1089 0.930 . S
C1097 C1095 1.419 . S
C1097 C1098 1.362 . S
C1098 H1090 0.930 . S
C1098 C1097 1.362 . S
C1098 C1101 1.409 . S
C1099 H1091 0.930 . S
C1099 C1100 1.355 . S
C1099 C1101 1.415 . S
C1100 C1099 1.355 . S
C1100 C1102 1.419 . S
C1101 C1096 1.425 . S
C1101 C1098 1.409 . S
C1101 C1099 1.415 . S
C1102 H1092 0.930 . S
C1102 C1100 1.419 . S
C1102 C1103 1.362 . S
C1103 H1093 0.930 . S
C1103 C1096 1.409 . S
C1103 C1102 1.362 . S
H1104 C1110 0.930 . S
H1105 C1113 0.930 . S
H1106 C1114 0.930 . S
H1107 C1115 0.930 . S
H1108 C1118 0.930 . S
H1109 C1119 0.930 . S
C1110 H1104 0.930 . S
C1110 C1111 1.355 . S
C1110 C1112 1.415 . S
C1111 C1110 1.355 . S
C1111 C1113 1.419 . S
C1112 C1110 1.415 . S
C1112 C1117 1.425 . S
C1112 C1119 1.409 . S
C1113 H1105 0.930 . S
C1113 C1111 1.419 . S
C1113 C1114 1.362 . S
C1114 H1106 0.930 . S
C1114 C1113 1.362 . S
C1114 C1117 1.409 . S
C1115 H1107 0.930 . S
C1115 C1116 1.355 . S
C1115 C1117 1.415 . S
C1116 C1115 1.355 . S
C1116 C1118 1.419 . S
C1117 C1112 1.425 . S
C1117 C1114 1.409 . S
C1117 C1115 1.415 . S
C1118 H1108 0.930 . S
C1118 C1116 1.419 . S
C1118 C1119 1.362 . S
C1119 H1109 0.930 . S
C1119 C1112 1.409 . S
C1119 C1118 1.362 . S
H1120 C1126 0.930 . S
H1121 C1129 0.930 . S
H1122 C1130 0.930 . S
H1123 C1131 0.930 . S
H1124 C1134 0.930 . S
H1125 C1135 0.930 . S
C1126 H1120 0.930 . S
C1126 C1127 1.355 . S
C1126 C1128 1.415 . S
C1127 C1126 1.355 . S
C1127 C1129 1.419 . S
C1128 C1126 1.415 . S
C1128 C1133 1.425 . S
C1128 C1135 1.409 . S
C1129 H1121 0.930 . S
C1129 C1127 1.419 . S
C1129 C1130 1.362 . S
C1130 H1122 0.930 . S
C1130 C1129 1.362 . S
C1130 C1133 1.409 . S
C1131 H1123 0.930 . S
C1131 C1132 1.355 . S
C1131 C1133 1.415 . S
C1132 C1131 1.355 . S
C1132 C1134 1.419 . S
C1133 C1128 1.425 . S
C1133 C1130 1.409 . S
C1133 C1131 1.415 . S
C1134 H1124 0.930 . S
C1134 C1132 1.419 . S
C1134 C1135 1.362 . S
C1135 H1125 0.930 . S
C1135 C1128 1.409 . S
C1135 C1134 1.362 . S
H1136 C1142 0.930 . S
H1137 C1145 0.930 . S
H1138 C1146 0.930 . S
H1139 C1147 0.930 . S
H1140 C1150 0.930 . S
H1141 C1151 0.930 . S
C1142 H1136 0.930 . S
C1142 C1143 1.355 . S
C1142 C1144 1.415 . S
C1143 C1142 1.355 . S
C1143 C1145 1.419 . S
C1144 C1142 1.415 . S
C1144 C1149 1.425 . S
C1144 C1151 1.409 . S
C1145 H1137 0.930 . S
C1145 C1143 1.419 . S
C1145 C1146 1.362 . S
C1146 H1138 0.930 . S
C1146 C1145 1.362 . S
C1146 C1149 1.409 . S
C1147 H1139 0.930 . S
C1147 C1148 1.355 . S
C1147 C1149 1.415 . S
C1148 C1147 1.355 . S
C1148 C1150 1.419 . S
C1149 C1144 1.425 . S
C1149 C1146 1.409 . S
C1149 C1147 1.415 . S
C1150 H1140 0.930 . S
C1150 C1148 1.419 . S
C1150 C1151 1.362 . S
C1151 H1141 0.930 . S
C1151 C1144 1.409 . S
C1151 C1150 1.362 . S
H1152 C1158 0.930 . S
H1153 C1161 0.930 . S
H1154 C1162 0.930 . S
H1155 C1163 0.930 . S
H1156 C1166 0.930 . S
H1157 C1167 0.930 . S
C1158 H1152 0.930 . S
C1158 C1159 1.355 . S
C1158 C1160 1.415 . S
C1159 C1158 1.355 . S
C1159 C1161 1.419 . S
C1160 C1158 1.415 . S
C1160 C1165 1.425 . S
C1160 C1167 1.409 . S
C1161 H1153 0.930 . S
C1161 C1159 1.419 . S
C1161 C1162 1.362 . S
C1162 H1154 0.930 . S
C1162 C1161 1.362 . S
C1162 C1165 1.409 . S
C1163 H1155 0.930 . S
C1163 C1164 1.355 . S
C1163 C1165 1.415 . S
C1164 C1163 1.355 . S
C1164 C1166 1.419 . S
C1165 C1160 1.425 . S
C1165 C1162 1.409 . S
C1165 C1163 1.415 . S
C1166 H1156 0.930 . S
C1166 C1164 1.419 . S
C1166 C1167 1.362 . S
C1167 H1157 0.930 . S
C1167 C1160 1.409 . S
C1167 C1166 1.362 . S
H1168 C1174 0.930 . S
H1169 C1177 0.930 . S
H1170 C1178 0.930 . S
H1171 C1179 0.930 . S
H1172 C1182 0.930 . S
H1173 C1183 0.930 . S
C1174 H1168 0.930 . S
C1174 C1175 1.355 . S
C1174 C1176 1.415 . S
C1175 C1174 1.355 . S
C1175 C1177 1.419 . S
C1176 C1174 1.415 . S
C1176 C1181 1.425 . S
C1176 C1183 1.409 . S
C1177 H1169 0.930 . S
C1177 C1175 1.419 . S
C1177 C1178 1.362 . S
C1178 H1170 0.930 . S
C1178 C1177 1.362 . S
C1178 C1181 1.409 . S
C1179 H1171 0.930 . S
C1179 C1180 1.355 . S
C1179 C1181 1.415 . S
C1180 C1179 1.355 . S
C1180 C1182 1.419 . S
C1181 C1176 1.425 . S
C1181 C1178 1.409 . S
C1181 C1179 1.415 . S
C1182 H1172 0.930 . S
C1182 C1180 1.419 . S
C1182 C1183 1.362 . S
C1183 H1173 0.930 . S
C1183 C1176 1.409 . S
C1183 C1182 1.362 . S
H1184 C1190 0.930 . S
H1185 C1193 0.930 . S
H1186 C1194 0.930 . S
H1187 C1195 0.930 . S
H1188 C1198 0.930 . S
H1189 C1199 0.930 . S
C1190 H1184 0.930 . S
C1190 C1191 1.355 . S
C1190 C1192 1.415 . S
C1191 C1190 1.355 . S
C1191 C1193 1.419 . S
C1192 C1190 1.415 . S
C1192 C1197 1.425 . S
C1192 C1199 1.409 . S
C1193 H1185 0.930 . S
C1193 C1191 1.419 . S
C1193 C1194 1.362 . S
C1194 H1186 0.930 . S
C1194 C1193 1.362 . S
C1194 C1197 1.409 . S
C1195 H1187 0.930 . S
C1195 C1196 1.355 . S
C1195 C1197 1.415 . S
C1196 C1195 1.355 . S
C1196 C1198 1.419 . S
C1197 C1192 1.425 . S
C1197 C1194 1.409 . S
C1197 C1195 1.415 . S
C1198 H1188 0.930 . S
C1198 C1196 1.419 . S
C1198 C1199 1.362 . S
C1199 H1189 0.930 . S
C1199 C1192 1.409 . S
C1199 C1198 1.362 . S
H1200 C1206 0.930 . S
H1201 C1209 0.930 . S
H1202 C1210 0.930 . S
H1203 C1211 0.930 . S
H1204 C1214 0.930 . S
H1205 C1215 0.930 . S
C1206 H1200 0.930 . S
C1206 C1207 1.355 . S
C1206 C1208 1.415 . S
C1207 C1206 1.355 . S
C1207 C1209 1.419 . S
C1208 C1206 1.415 . S
C1208 C1213 1.425 . S
C1208 C1215 1.409 . S
C1209 H1201 0.930 . S
C1209 C1207 1.419 . S
C1209 C1210 1.362 . S
C1210 H1202 0.930 . S
C1210 C1209 1.362 . S
C1210 C1213 1.409 . S
C1211 H1203 0.930 . S
C1211 C1212 1.355 . S
C1211 C1213 1.415 . S
C1212 C1211 1.355 . S
C1212 C1214 1.419 . S
C1213 C1208 1.425 . S
C1213 C1210 1.409 . S
C1213 C1211 1.415 . S
C1214 H1204 0.930 . S
C1214 C1212 1.419 . S
C1214 C1215 1.362 . S
C1215 H1205 0.930 . S
C1215 C1208 1.409 . S
C1215 C1214 1.362 . S
H1216 C1222 0.930 . S
H1217 C1225 0.930 . S
H1218 C1226 0.930 . S
H1219 C1227 0.930 . S
H1220 C1230 0.930 . S
H1221 C1231 0.930 . S
C1222 H1216 0.930 . S
C1222 C1223 1.355 . S
C1222 C1224 1.415 . S
C1223 C1222 1.355 . S
C1223 C1225 1.419 . S
C1224 C1222 1.415 . S
C1224 C1229 1.425 . S
C1224 C1231 1.409 . S
C1225 H1217 0.930 . S
C1225 C1223 1.419 . S
C1225 C1226 1.362 . S
C1226 H1218 0.930 . S
C1226 C1225 1.362 . S
C1226 C1229 1.409 . S
C1227 H1219 0.930 . S
C1227 C1228 1.355 . S
C1227 C1229 1.415 . S
C1228 C1227 1.355 . S
C1228 C1230 1.419 . S
C1229 C1224 1.425 . S
C1229 C1226 1.409 . S
C1229 C1227 1.415 . S
C1230 H1220 0.930 . S
C1230 C1228 1.419 . S
C1230 C1231 1.362 . S
C1231 H1221 0.930 . S
C1231 C1224 1.409 . S
C1231 C1230 1.362 . S
H1232 C1238 0.930 . S
H1233 C1241 0.930 . S
H1234 C1242 0.930 . S
H1235 C1243 0.930 . S
H1236 C1246 0.930 . S
H1237 C1247 0.930 . S
C1238 H1232 0.930 . S
C1238 C1239 1.355 . S
C1238 C1240 1.415 . S
C1239 C1238 1.355 . S
C1239 C1241 1.419 . S
C1240 C1238 1.415 . S
C1240 C1245 1.425 . S
C1240 C1247 1.409 . S
C1241 H1233 0.930 . S
C1241 C1239 1.419 . S
C1241 C1242 1.362 . S
C1242 H1234 0.930 . S
C1242 C1241 1.362 . S
C1242 C1245 1.409 . S
C1243 H1235 0.930 . S
C1243 C1244 1.355 . S
C1243 C1245 1.415 . S
C1244 C1243 1.355 . S
C1244 C1246 1.419 . S
C1245 C1240 1.425 . S
C1245 C1242 1.409 . S
C1245 C1243 1.415 . S
C1246 H1236 0.930 . S
C1246 C1244 1.419 . S
C1246 C1247 1.362 . S
C1247 H1237 0.930 . S
C1247 C1240 1.409 . S
C1247 C1246 1.362 . S
H1248 C1254 0.930 . S
H1249 C1257 0.930 . S
H1250 C1258 0.930 . S
H1251 C1259 0.930 . S
H1252 C1262 0.930 . S
H1253 C1263 0.930 . S
C1254 H1248 0.930 . S
C1254 C1255 1.355 . S
C1254 C1256 1.415 . S
C1255 C1254 1.355 . S
C1255 C1257 1.419 . S
C1256 C1254 1.415 . S
C1256 C1261 1.425 . S
C1256 C1263 1.409 . S
C1257 H1249 0.930 . S
C1257 C1255 1.419 . S
C1257 C1258 1.362 . S
C1258 H1250 0.930 . S
C1258 C1257 1.362 . S
C1258 C1261 1.409 . S
C1259 H1251 0.930 . S
C1259 C1260 1.355 . S
C1259 C1261 1.415 . S
C1260 C1259 1.355 . S
C1260 C1262 1.419 . S
C1261 C1256 1.425 . S
C1261 C1258 1.409 . S
C1261 C1259 1.415 . S
C1262 H1252 0.930 . S
C1262 C1260 1.419 . S
C1262 C1263 1.362 . S
C1263 H1253 0.930 . S
C1263 C1256 1.409 . S
C1263 C1262 1.362 . S
H1264 C1270 0.930 . S
H1265 C1273 0.930 . S
H1266 C1274 0.930 . S
H1267 C1275 0.930 . S
H1268 C1278 0.930 . S
H1269 C1279 0.930 . S
C1270 H1264 0.930 . S
C1270 C1271 1.355 . S
C1270 C1272 1.415 1_554 S
C1271 C1270 1.355 . S
C1271 C1273 1.419 . S
C1272 C1270 1.415 1_556 S
C1272 C1277 1.425 . S
C1272 C1279 1.409 . S
C1273 H1265 0.930 . S
C1273 C1271 1.419 . S
C1273 C1274 1.362 1_554 S
C1274 H1266 0.930 . S
C1274 C1273 1.362 1_556 S
C1274 C1277 1.409 . S
C1275 H1267 0.930 . S
C1275 C1276 1.355 . S
C1275 C1277 1.415 . S
C1276 C1275 1.355 . S
C1276 C1278 1.419 . S
C1277 C1272 1.425 . S
C1277 C1274 1.409 . S
C1277 C1275 1.415 . S
C1278 H1268 0.930 . S
C1278 C1276 1.419 . S
C1278 C1279 1.362 . S
C1279 H1269 0.930 . S
C1279 C1272 1.409 . S
C1279 C1278 1.362 . S
H1280 C1286 0.930 . S
H1281 C1289 0.930 . S
H1282 C1290 0.930 . S
H1283 C1291 0.930 . S
H1284 C1294 0.930 . S
H1285 C1295 0.930 . S
C1286 H1280 0.930 . S
C1286 C1287 1.355 . S
C1286 C1288 1.415 . S
C1287 C1286 1.355 . S
C1287 C1289 1.419 . S
C1288 C1286 1.415 . S
C1288 C1293 1.425 . S
C1288 C1295 1.409 . S
C1289 H1281 0.930 . S
C1289 C1287 1.419 . S
C1289 C1290 1.362 . S
C1290 H1282 0.930 . S
C1290 C1289 1.362 . S
C1290 C1293 1.409 . S
C1291 H1283 0.930 . S
C1291 C1292 1.355 . S
C1291 C1293 1.415 . S
C1292 C1291 1.355 . S
C1292 C1294 1.419 . S
C1293 C1288 1.425 . S
C1293 C1290 1.409 . S
C1293 C1291 1.415 . S
C1294 H1284 0.930 . S
C1294 C1292 1.419 . S
C1294 C1295 1.362 . S
C1295 H1285 0.930 . S
C1295 C1288 1.409 . S
C1295 C1294 1.362 . S
H1296 C1302 0.930 . S
H1297 C1305 0.930 . S
H1298 C1306 0.930 . S
H1299 C1307 0.930 . S
H1300 C1310 0.930 . S
H1301 C1311 0.930 1_554 S
C1302 H1296 0.930 . S
C1302 C1303 1.355 . S
C1302 C1304 1.415 . S
C1303 C1302 1.355 . S
C1303 C1305 1.419 . S
C1304 C1302 1.415 . S
C1304 C1309 1.425 . S
C1304 C1311 1.409 1_554 S
C1305 H1297 0.930 . S
C1305 C1303 1.419 . S
C1305 C1306 1.362 . S
C1306 H1298 0.930 . S
C1306 C1305 1.362 . S
C1306 C1309 1.409 . S
C1307 H1299 0.930 . S
C1307 C1308 1.355 . S
C1307 C1309 1.415 1_556 S
C1308 C1307 1.355 . S
C1308 C1310 1.419 . S
C1309 C1304 1.425 . S
C1309 C1306 1.409 . S
C1309 C1307 1.415 1_554 S
C1310 H1300 0.930 . S
C1310 C1308 1.419 . S
C1310 C1311 1.362 . S
C1311 H1301 0.930 1_556 S
C1311 C1304 1.409 1_556 S
C1311 C1310 1.362 . S
H1312 C1318 0.930 . S
H1313 C1321 0.930 . S
H1314 C1322 0.930 . S
H1315 C1323 0.930 . S
H1316 C1326 0.930 . S
H1317 C1327 0.930 . S
C1318 H1312 0.930 . S
C1318 C1319 1.355 . S
C1318 C1320 1.415 . S
C1319 C1318 1.355 . S
C1319 C1321 1.419 . S
C1320 C1318 1.415 . S
C1320 C1325 1.425 . S
C1320 C1327 1.409 . S
C1321 H1313 0.930 . S
C1321 C1319 1.419 . S
C1321 C1322 1.362 . S
C1322 H1314 0.930 . S
C1322 C1321 1.362 . S
C1322 C1325 1.409 . S
C1323 H1315 0.930 . S
C1323 C1324 1.355 . S
C1323 C1325 1.415 . S
C1324 C1323 1.355 . S
C1324 C1326 1.419 . S
C1325 C1320 1.425 . S
C1325 C1322 1.409 . S
C1325 C1323 1.415 . S
C1326 H1316 0.930 . S
C1326 C1324 1.419 . S
C1326 C1327 1.362 . S
C1327 H1317 0.930 . S
C1327 C1320 1.409 . S
C1327 C1326 1.362 . S
H1328 C1334 0.930 . S
H1329 C1337 0.930 . S
H1330 C1338 0.930 . S
H1331 C1339 0.930 . S
H1332 C1342 0.930 . S
H1333 C1343 0.930 . S
C1334 H1328 0.930 . S
C1334 C1335 1.355 . S
C1334 C1336 1.415 1_655 S
C1335 C1334 1.355 . S
C1335 C1337 1.419 . S
C1336 C1334 1.415 1_455 S
C1336 C1341 1.425 . S
C1336 C1343 1.409 . S
C1337 H1329 0.930 . S
C1337 C1335 1.419 . S
C1337 C1338 1.362 . S
C1338 H1330 0.930 . S
C1338 C1337 1.362 . S
C1338 C1341 1.409 1_655 S
C1339 H1331 0.930 . S
C1339 C1340 1.355 . S
C1339 C1341 1.415 . S
C1340 C1339 1.355 . S
C1340 C1342 1.419 . S
C1341 C1336 1.425 . S
C1341 C1338 1.409 1_455 S
C1341 C1339 1.415 . S
C1342 H1332 0.930 . S
C1342 C1340 1.419 . S
C1342 C1343 1.362 . S
C1343 H1333 0.930 . S
C1343 C1336 1.409 . S
C1343 C1342 1.362 . S
H1344 C1350 0.930 . S
H1345 C1353 0.930 . S
H1346 C1354 0.930 1_655 S
H1347 C1355 0.930 . S
H1348 C1358 0.930 . S
H1349 C1359 0.930 . S
C1350 H1344 0.930 . S
C1350 C1351 1.355 . S
C1350 C1352 1.415 1_455 S
C1351 C1350 1.355 . S
C1351 C1353 1.419 . S
C1352 C1350 1.415 1_655 S
C1352 C1357 1.425 . S
C1352 C1359 1.409 . S
C1353 H1345 0.930 . S
C1353 C1351 1.419 . S
C1353 C1354 1.362 . S
C1354 H1346 0.930 1_455 S
C1354 C1353 1.362 . S
C1354 C1357 1.409 1_455 S
C1355 H1347 0.930 . S
C1355 C1356 1.355 . S
C1355 C1357 1.415 . S
C1356 C1355 1.355 . S
C1356 C1358 1.419 . S
C1357 C1352 1.425 . S
C1357 C1354 1.409 1_655 S
C1357 C1355 1.415 . S
C1358 H1348 0.930 . S
C1358 C1356 1.419 . S
C1358 C1359 1.362 . S
C1359 H1349 0.930 . S
C1359 C1352 1.409 . S
C1359 C1358 1.362 . S
H1360 C1366 0.930 . S
H1361 C1369 0.930 . S
H1362 C1370 0.930 . S
H1363 C1371 0.930 . S
H1364 C1374 0.930 . S
H1365 C1375 0.930 . S
C1366 H1360 0.930 . S
C1366 C1367 1.355 . S
C1366 C1368 1.415 . S
C1367 C1366 1.355 . S
C1367 C1369 1.419 . S
C1368 C1366 1.415 . S
C1368 C1373 1.425 . S
C1368 C1375 1.409 . S
C1369 H1361 0.930 . S
C1369 C1367 1.419 . S
C1369 C1370 1.362 . S
C1370 H1362 0.930 . S
C1370 C1369 1.362 . S
C1370 C1373 1.409 . S
C1371 H1363 0.930 . S
C1371 C1372 1.355 . S
C1371 C1373 1.415 . S
C1372 C1371 1.355 . S
C1372 C1374 1.419 . S
C1373 C1368 1.425 . S
C1373 C1370 1.409 . S
C1373 C1371 1.415 . S
C1374 H1364 0.930 . S
C1374 C1372 1.419 . S
C1374 C1375 1.362 . S
C1375 H1365 0.930 . S
C1375 C1368 1.409 . S
C1375 C1374 1.362 . S
H1376 C1382 0.930 . S
H1377 C1385 0.930 . S
H1378 C1386 0.930 . S
H1379 C1387 0.930 . S
H1380 C1390 0.930 . S
H1381 C1391 0.930 . S
C1382 H1376 0.930 . S
C1382 C1383 1.355 . S
C1382 C1384 1.415 . S
C1383 C1382 1.355 . S
C1383 C1385 1.419 . S
C1384 C1382 1.415 . S
C1384 C1389 1.425 . S
C1384 C1391 1.409 . S
C1385 H1377 0.930 . S
C1385 C1383 1.419 . S
C1385 C1386 1.362 . S
C1386 H1378 0.930 . S
C1386 C1385 1.362 . S
C1386 C1389 1.409 . S
C1387 H1379 0.930 . S
C1387 C1388 1.355 . S
C1387 C1389 1.415 . S
C1388 C1387 1.355 . S
C1388 C1390 1.419 . S
C1389 C1384 1.425 . S
C1389 C1386 1.409 . S
C1389 C1387 1.415 . S
C1390 H1380 0.930 . S
C1390 C1388 1.419 . S
C1390 C1391 1.362 . S
C1391 H1381 0.930 . S
C1391 C1384 1.409 . S
C1391 C1390 1.362 . S
H1392 C1398 0.930 . S
H1393 C1401 0.930 . S
H1394 C1402 0.930 1_545 S
H1395 C1403 0.930 . S
H1396 C1406 0.930 . S
H1397 C1407 0.930 . S
C1398 H1392 0.930 . S
C1398 C1399 1.355 . S
C1398 C1400 1.415 1_565 S
C1399 C1398 1.355 . S
C1399 C1401 1.419 . S
C1400 C1398 1.415 1_545 S
C1400 C1405 1.425 . S
C1400 C1407 1.409 . S
C1401 H1393 0.930 . S
C1401 C1399 1.419 . S
C1401 C1402 1.387 . S
C1402 H1394 0.930 1_565 S
C1402 C1401 1.387 . S
C1402 C1405 1.386 1_565 S
C1403 H1395 0.930 . S
C1403 C1404 1.355 . S
C1403 C1405 1.415 . S
C1404 C1403 1.355 . S
C1404 C1406 1.419 . S
C1405 C1400 1.425 . S
C1405 C1402 1.386 1_545 S
C1405 C1403 1.415 . S
C1406 H1396 0.930 . S
C1406 C1404 1.419 . S
C1406 C1407 1.362 . S
C1407 H1397 0.930 . S
C1407 C1400 1.409 . S
C1407 C1406 1.362 . S
H1408 C1414 0.930 . S
H1409 C1417 0.930 . S
H1410 C1418 0.929 1_565 S
H1411 C1419 0.930 . S
H1412 C1422 0.930 . S
H1413 C1423 0.930 . S
C1414 H1408 0.930 . S
C1414 C1415 1.355 . S
C1414 C1416 1.415 1_545 S
C1415 C1414 1.355 . S
C1415 C1417 1.419 . S
C1416 C1414 1.415 1_565 S
C1416 C1421 1.425 . S
C1416 C1423 1.409 . S
C1417 H1409 0.930 . S
C1417 C1415 1.419 . S
C1417 C1418 1.368 . S
C1418 H1410 0.929 1_545 S
C1418 C1417 1.368 . S
C1418 C1421 1.404 1_545 S
C1419 H1411 0.930 . S
C1419 C1420 1.355 . S
C1419 C1421 1.415 . S
C1420 C1419 1.355 . S
C1420 C1422 1.419 . S
C1421 C1416 1.425 . S
C1421 C1418 1.404 1_565 S
C1421 C1419 1.415 . S
C1422 H1412 0.930 . S
C1422 C1420 1.419 . S
C1422 C1423 1.362 . S
C1423 H1413 0.930 . S
C1423 C1416 1.409 . S
C1423 C1422 1.362 . S
H1424 C1430 0.930 . S
H1425 C1433 0.930 . S
H1426 C1434 0.930 . S
H1427 C1435 0.930 . S
H1428 C1438 0.930 . S
H1429 C1439 0.930 . S
C1430 H1424 0.930 . S
C1430 C1431 1.355 . S
C1430 C1432 1.415 . S
C1431 C1430 1.355 . S
C1431 C1433 1.419 . S
C1432 C1430 1.415 . S
C1432 C1437 1.425 . S
C1432 C1439 1.409 . S
C1433 H1425 0.930 . S
C1433 C1431 1.419 . S
C1433 C1434 1.362 . S
C1434 H1426 0.930 . S
C1434 C1433 1.362 . S
C1434 C1437 1.409 . S
C1435 H1427 0.930 . S
C1435 C1436 1.355 . S
C1435 C1437 1.415 . S
C1436 C1435 1.355 . S
C1436 C1438 1.419 . S
C1437 C1432 1.425 . S
C1437 C1434 1.409 . S
C1437 C1435 1.415 . S
C1438 H1428 0.930 . S
C1438 C1436 1.419 . S
C1438 C1439 1.362 . S
C1439 H1429 0.930 . S
C1439 C1432 1.409 . S
C1439 C1438 1.362 . S
H1440 C1446 0.930 . S
H1441 C1449 0.930 . S
H1442 C1450 0.930 . S
H1443 C1451 0.930 . S
H1444 C1454 0.930 . S
H1445 C1455 0.930 . S
C1446 H1440 0.930 . S
C1446 C1447 1.355 . S
C1446 C1448 1.415 . S
C1447 C1446 1.355 . S
C1447 C1449 1.419 . S
C1448 C1446 1.415 . S
C1448 C1453 1.425 . S
C1448 C1455 1.409 . S
C1449 H1441 0.930 . S
C1449 C1447 1.419 . S
C1449 C1450 1.362 . S
C1450 H1442 0.930 . S
C1450 C1449 1.362 . S
C1450 C1453 1.409 . S
C1451 H1443 0.930 . S
C1451 C1452 1.355 . S
C1451 C1453 1.415 . S
C1452 C1451 1.355 . S
C1452 C1454 1.419 . S
C1453 C1448 1.425 . S
C1453 C1450 1.409 . S
C1453 C1451 1.415 . S
C1454 H1444 0.930 . S
C1454 C1452 1.419 . S
C1454 C1455 1.362 . S
C1455 H1445 0.930 . S
C1455 C1448 1.409 . S
C1455 C1454 1.362 . S
H1456 C1462 0.930 . S
H1457 C1465 0.930 . S
H1458 C1466 0.931 . S
H1459 C1467 0.930 . S
H1460 C1470 0.930 . S
H1461 C1471 0.930 . S
C1462 H1456 0.930 . S
C1462 C1463 1.355 . S
C1462 C1464 1.415 1_556 S
C1463 C1462 1.355 . S
C1463 C1465 1.419 . S
C1464 C1462 1.415 1_554 S
C1464 C1469 1.425 . S
C1464 C1471 1.409 . S
C1465 H1457 0.930 . S
C1465 C1463 1.419 . S
C1465 C1466 1.338 1_556 S
C1466 H1458 0.931 . S
C1466 C1465 1.338 1_554 S
C1466 C1469 1.433 . S
C1467 H1459 0.930 . S
C1467 C1468 1.355 . S
C1467 C1469 1.415 . S
C1468 C1467 1.355 . S
C1468 C1470 1.419 . S
C1469 C1464 1.425 . S
C1469 C1466 1.433 . S
C1469 C1467 1.415 . S
C1470 H1460 0.930 . S
C1470 C1468 1.419 . S
C1470 C1471 1.362 . S
C1471 H1461 0.930 . S
C1471 C1464 1.409 . S
C1471 C1470 1.362 . S
H1472 C1478 0.930 . S
H1473 C1481 0.930 . S
H1474 C1482 0.930 . S
H1475 C1483 0.930 . S
H1476 C1486 0.930 . S
H1477 C1487 0.930 . S
C1478 H1472 0.930 . S
C1478 C1479 1.355 . S
C1478 C1480 1.415 . S
C1479 C1478 1.355 . S
C1479 C1481 1.419 . S
C1480 C1478 1.415 . S
C1480 C1485 1.425 . S
C1480 C1487 1.409 . S
C1481 H1473 0.930 . S
C1481 C1479 1.419 . S
C1481 C1482 1.362 . S
C1482 H1474 0.930 . S
C1482 C1481 1.362 . S
C1482 C1485 1.409 . S
C1483 H1475 0.930 . S
C1483 C1484 1.355 . S
C1483 C1485 1.415 . S
C1484 C1483 1.355 . S
C1484 C1486 1.419 . S
C1485 C1480 1.425 . S
C1485 C1482 1.409 . S
C1485 C1483 1.415 . S
C1486 H1476 0.930 . S
C1486 C1484 1.419 . S
C1486 C1487 1.362 . S
C1487 H1477 0.930 . S
C1487 C1480 1.409 . S
C1487 C1486 1.362 . S
H1488 C1494 0.930 . S
H1489 C1497 0.930 . S
H1490 C1498 0.930 . S
H1491 C1499 0.930 . S
H1492 C1502 0.930 . S
H1493 C1503 0.930 . S
C1494 H1488 0.930 . S
C1494 C1495 1.355 . S
C1494 C1496 1.415 1_554 S
C1495 C1494 1.355 . S
C1495 C1497 1.419 . S
C1496 C1494 1.415 1_556 S
C1496 C1501 1.425 . S
C1496 C1503 1.409 . S
C1497 H1489 0.930 . S
C1497 C1495 1.419 . S
C1497 C1498 1.362 1_554 S
C1498 H1490 0.930 . S
C1498 C1497 1.362 1_556 S
C1498 C1501 1.409 . S
C1499 H1491 0.930 . S
C1499 C1500 1.355 . S
C1499 C1501 1.415 . S
C1500 C1499 1.355 . S
C1500 C1502 1.419 . S
C1501 C1496 1.425 . S
C1501 C1498 1.409 . S
C1501 C1499 1.415 . S
C1502 H1492 0.930 . S
C1502 C1500 1.419 . S
C1502 C1503 1.362 . S
C1503 H1493 0.930 . S
C1503 C1496 1.409 . S
C1503 C1502 1.362 . S
H1504 C1510 0.930 . S
H1505 C1513 0.930 . S
H1506 C1514 0.930 . S
H1507 C1515 0.930 . S
H1508 C1518 0.930 . S
H1509 C1519 0.930 . S
C1510 H1504 0.930 . S
C1510 C1511 1.355 . S
C1510 C1512 1.415 . S
C1511 C1510 1.355 . S
C1511 C1513 1.419 . S
C1512 C1510 1.415 . S
C1512 C1517 1.425 . S
C1512 C1519 1.409 . S
C1513 H1505 0.930 . S
C1513 C1511 1.419 . S
C1513 C1514 1.362 . S
C1514 H1506 0.930 . S
C1514 C1513 1.362 . S
C1514 C1517 1.409 . S
C1515 H1507 0.930 . S
C1515 C1516 1.355 . S
C1515 C1517 1.415 . S
C1516 C1515 1.355 . S
C1516 C1518 1.419 . S
C1517 C1512 1.425 . S
C1517 C1514 1.409 . S
C1517 C1515 1.415 . S
C1518 H1508 0.930 . S
C1518 C1516 1.419 . S
C1518 C1519 1.362 . S
C1519 H1509 0.930 . S
C1519 C1512 1.409 . S
C1519 C1518 1.362 . S
H1520 C1526 0.930 . S
H1521 C1529 0.930 . S
H1522 C1530 0.930 . S
H1523 C1531 0.930 . S
H1524 C1534 0.930 . S
H1525 C1535 0.928 1_655 S
C1526 H1520 0.930 . S
C1526 C1527 1.355 . S
C1526 C1528 1.415 . S
C1527 C1526 1.355 . S
C1527 C1529 1.419 . S
C1528 C1526 1.415 . S
C1528 C1533 1.425 . S
C1528 C1535 1.409 1_655 S
C1529 H1521 0.930 . S
C1529 C1527 1.419 . S
C1529 C1530 1.362 . S
C1530 H1522 0.930 . S
C1530 C1529 1.362 . S
C1530 C1533 1.409 . S
C1531 H1523 0.930 . S
C1531 C1532 1.355 . S
C1531 C1533 1.415 1_455 S
C1532 C1531 1.355 . S
C1532 C1534 1.419 . S
C1533 C1528 1.425 . S
C1533 C1530 1.409 . S
C1533 C1531 1.415 1_655 S
C1534 H1524 0.930 . S
C1534 C1532 1.419 . S
C1534 C1535 1.362 . S
C1535 H1525 0.928 1_455 S
C1535 C1528 1.409 1_455 S
C1535 C1534 1.362 . S
H1536 C1542 0.930 . S
H1537 C1545 0.930 . S
H1538 C1546 0.930 . S
H1539 C1547 0.930 . S
H1540 C1550 0.930 . S
H1541 C1551 0.930 . S
C1542 H1536 0.930 . S
C1542 C1543 1.355 . S
C1542 C1544 1.415 . S
C1543 C1542 1.355 . S
C1543 C1545 1.419 . S
C1544 C1542 1.415 . S
C1544 C1549 1.425 . S
C1544 C1551 1.409 . S
C1545 H1537 0.930 . S
C1545 C1543 1.419 . S
C1545 C1546 1.362 . S
C1546 H1538 0.930 . S
C1546 C1545 1.362 . S
C1546 C1549 1.409 . S
C1547 H1539 0.930 . S
C1547 C1548 1.355 . S
C1547 C1549 1.415 1_655 S
C1548 C1547 1.355 . S
C1548 C1550 1.419 . S
C1549 C1544 1.425 . S
C1549 C1546 1.409 . S
C1549 C1547 1.415 1_455 S
C1550 H1540 0.930 . S
C1550 C1548 1.419 . S
C1550 C1551 1.362 1_655 S
C1551 H1541 0.930 . S
C1551 C1544 1.409 . S
C1551 C1550 1.362 1_455 S
H1552 C1558 0.930 . S
H1553 C1561 0.930 . S
H1554 C1562 0.930 . S
H1555 C1563 0.930 . S
H1556 C1566 0.930 . S
H1557 C1567 0.930 . S
C1558 H1552 0.930 . S
C1558 C1559 1.355 . S
C1558 C1560 1.415 . S
C1559 C1558 1.355 . S
C1559 C1561 1.419 . S
C1560 C1558 1.415 . S
C1560 C1565 1.425 . S
C1560 C1567 1.409 . S
C1561 H1553 0.930 . S
C1561 C1559 1.419 . S
C1561 C1562 1.362 . S
C1562 H1554 0.930 . S
C1562 C1561 1.362 . S
C1562 C1565 1.409 . S
C1563 H1555 0.930 . S
C1563 C1564 1.355 . S
C1563 C1565 1.415 . S
C1564 C1563 1.355 . S
C1564 C1566 1.419 . S
C1565 C1560 1.425 . S
C1565 C1562 1.409 . S
C1565 C1563 1.415 . S
C1566 H1556 0.930 . S
C1566 C1564 1.419 . S
C1566 C1567 1.362 . S
C1567 H1557 0.930 . S
C1567 C1560 1.409 . S
C1567 C1566 1.362 . S
H1568 C1574 0.930 . S
H1569 C1577 0.930 . S
H1570 C1578 0.930 . S
H1571 C1579 0.930 . S
H1572 C1582 0.930 . S
H1573 C1583 0.930 . S
C1574 H1568 0.930 . S
C1574 C1575 1.355 . S
C1574 C1576 1.415 . S
C1575 C1574 1.355 . S
C1575 C1577 1.419 . S
C1576 C1574 1.415 . S
C1576 C1581 1.425 . S
C1576 C1583 1.409 . S
C1577 H1569 0.930 . S
C1577 C1575 1.419 . S
C1577 C1578 1.362 . S
C1578 H1570 0.930 . S
C1578 C1577 1.362 . S
C1578 C1581 1.409 . S
C1579 H1571 0.930 . S
C1579 C1580 1.355 . S
C1579 C1581 1.415 . S
C1580 C1579 1.355 . S
C1580 C1582 1.419 . S
C1581 C1576 1.425 . S
C1581 C1578 1.409 . S
C1581 C1579 1.415 . S
C1582 H1572 0.930 . S
C1582 C1580 1.419 . S
C1582 C1583 1.362 . S
C1583 H1573 0.930 . S
C1583 C1576 1.409 . S
C1583 C1582 1.362 . S
H1584 C1590 0.930 . S
H1585 C1593 0.930 . S
H1586 C1594 0.930 . S
H1587 C1595 0.930 . S
H1588 C1598 0.930 . S
H1589 C1599 0.930 . S
C1590 H1584 0.930 . S
C1590 C1591 1.355 . S
C1590 C1592 1.415 . S
C1591 C1590 1.355 . S
C1591 C1593 1.419 . S
C1592 C1590 1.415 . S
C1592 C1597 1.425 . S
C1592 C1599 1.409 1_565 S
C1593 H1585 0.930 . S
C1593 C1591 1.419 . S
C1593 C1594 1.362 . S
C1594 H1586 0.930 . S
C1594 C1593 1.362 . S
C1594 C1597 1.409 . S
C1595 H1587 0.930 . S
C1595 C1596 1.355 . S
C1595 C1597 1.415 1_545 S
C1596 C1595 1.355 . S
C1596 C1598 1.419 . S
C1597 C1592 1.425 . S
C1597 C1594 1.409 . S
C1597 C1595 1.415 1_565 S
C1598 H1588 0.930 . S
C1598 C1596 1.419 . S
C1598 C1599 1.362 . S
C1599 H1589 0.930 . S
C1599 C1592 1.409 1_545 S
C1599 C1598 1.362 . S
H1600 C1606 0.930 . S
H1601 C1609 0.930 . S
H1602 C1610 0.930 . S
H1603 C1611 0.930 . S
H1604 C1614 0.930 . S
H1605 C1615 0.930 . S
C1606 H1600 0.930 . S
C1606 C1607 1.355 . S
C1606 C1608 1.415 1_565 S
C1607 C1606 1.355 . S
C1607 C1609 1.419 . S
C1608 C1606 1.415 1_545 S
C1608 C1613 1.425 . S
C1608 C1615 1.409 . S
C1609 H1601 0.930 . S
C1609 C1607 1.419 . S
C1609 C1610 1.362 . S
C1610 H1602 0.930 . S
C1610 C1609 1.362 . S
C1610 C1613 1.409 1_565 S
C1611 H1603 0.930 . S
C1611 C1612 1.355 . S
C1611 C1613 1.415 . S
C1612 C1611 1.355 . S
C1612 C1614 1.419 . S
C1613 C1608 1.425 . S
C1613 C1610 1.409 1_545 S
C1613 C1611 1.415 . S
C1614 H1604 0.930 . S
C1614 C1612 1.419 . S
C1614 C1615 1.362 . S
C1615 H1605 0.930 . S
C1615 C1608 1.409 . S
C1615 C1614 1.362 . S
H1616 C1622 0.930 . S
H1617 C1625 0.930 . S
H1618 C1626 0.930 . S
H1619 C1627 0.930 . S
H1620 C1630 0.930 . S
H1621 C1631 0.930 . S
C1622 H1616 0.930 . S
C1622 C1623 1.355 . S
C1622 C1624 1.415 . S
C1623 C1622 1.355 . S
C1623 C1625 1.419 . S
C1624 C1622 1.415 . S
C1624 C1629 1.425 . S
C1624 C1631 1.409 . S
C1625 H1617 0.930 . S
C1625 C1623 1.419 . S
C1625 C1626 1.362 . S
C1626 H1618 0.930 . S
C1626 C1625 1.362 . S
C1626 C1629 1.409 . S
C1627 H1619 0.930 . S
C1627 C1628 1.355 . S
C1627 C1629 1.415 . S
C1628 C1627 1.355 . S
C1628 C1630 1.419 . S
C1629 C1624 1.425 . S
C1629 C1626 1.409 . S
C1629 C1627 1.415 . S
C1630 H1620 0.930 . S
C1630 C1628 1.419 . S
C1630 C1631 1.362 . S
C1631 H1621 0.930 . S
C1631 C1624 1.409 . S
C1631 C1630 1.362 . S
C871 C291 1.084 . S
C876 C3 1.027 . S
C887 C39 1.045 . S
C892 C399 1.066 . S
C903 C75 1.052 . S
C908 C327 1.062 . S
C919 C111 1.081 . S
C924 C363 1.056 . S
C935 C147 1.117 . S
C940 C2 1.112 . S
C951 C38 1.035 . S
C956 C183 1.125 . S
C967 C219 1.098 . S
C972 C74 1.027 . S
C983 C110 1.027 . S
C988 C255 1.120 . S
C999 C146 1.192 . S
C1004 C290 1.114 . S
C1015 C218 1.180 . S
C1020 C326 1.086 . S
C1031 C362 1.091 . S
C1036 C254 1.184 . S
C1047 C182 1.148 . S
C1052 C398 1.071 . S
C1063 C722 1.129 . S
C1068 C435 1.086 . S
C1079 C471 1.090 . S
C1084 C830 1.040 . S
C1095 C507 1.119 . S
C1100 C758 1.115 . S
C1111 C794 1.040 . S
C1116 C543 1.119 . S
C1127 C579 1.106 . S
C1132 C434 1.065 . S
C1143 C470 1.061 . S
C1148 C615 1.110 . S
C1159 C506 1.144 . S
C1164 C651 1.098 . S
C1175 C687 1.146 . S
C1180 C542 1.115 . S
C1191 C723 1.141 . S
C1196 C578 1.075 . S
C1207 C650 1.094 . S
C1212 C759 1.140 . S
C1223 C686 1.049 . S
C1228 C795 1.092 . S
C1239 C831 1.083 . S
C1244 C614 1.058 . S
C1255 C806 1.348 . S
C1260 C4 1.337 . S
C1271 C770 1.362 . S
C1276 C40 1.383 . S
C1287 C842 1.324 . S
C1292 C76 1.376 . S
C1303 C112 1.377 . S
C1308 C734 1.325 . S
C1319 C148 1.380 . S
C1324 C482 1.339 . S
C1335 C446 1.354 . S
C1340 C184 1.365 . S
C1351 C554 1.375 . S
C1356 C220 1.359 . S
C1367 C518 1.386 . S
C1372 C256 1.360 . S
C1383 C302 1.385 . S
C1388 C662 1.325 . S
C1399 C590 1.337 . S
C1404 C338 1.387 . S
C1415 C626 1.334 . S
C1420 C374 1.387 . S
C1431 C698 1.354 . S
C1436 C410 1.345 . S
C1447 C364 1.426 . S
C1452 C436 1.388 . S
C1463 C328 1.438 . S
C1468 C472 1.403 . S
C1479 C508 1.436 . S
C1484 C400 1.428 . S
C1495 C292 1.418 . S
C1500 C544 1.392 . S
C1511 C580 1.404 . S
C1516 C50 1.358 . S
C1527 C616 1.378 . S
C1532 C14 1.358 . S
C1543 C652 1.386 . S
C1548 C122 1.410 . S
C1559 C688 1.363 . S
C1564 C86 1.383 . S
C1575 C724 1.392 . S
C1580 C230 1.348 . S
C1591 C760 1.383 . S
C1596 C158 1.350 . S
C1607 C194 1.357 . S
C1612 C796 1.373 . S
C1623 C832 1.369 . S
C1628 C266 1.401 . S
