# Generated by pormake.
# Topology vbm, (6)-cn, num edge types: 1
# Building blocks:
#     Node 0, Type 0, BuildingBlock: BETDAH_clean_sbu_0, # of connection points: 6
#     Node 1, Type 0, BuildingBlock: BETDAH_clean_sbu_0, # of connection points: 6
#     Node 2, Type 0, BuildingBlock: BETDAH_clean_sbu_0, # of connection points: 6
#     Node 3, Type 0, BuildingBlock: BETDAH_clean_sbu_0, # of connection points: 6
#     Node 4, Type 0, BuildingBlock: BETDAH_clean_sbu_0, # of connection points: 6
#     Node 5, Type 0, BuildingBlock: BETDAH_clean_sbu_0, # of connection points: 6
#     Node 6, Type 0, BuildingBlock: BETDAH_clean_sbu_0, # of connection points: 6
#     Node 7, Type 0, BuildingBlock: BETDAH_clean_sbu_0, # of connection points: 6
#     Node 8, Type 0, BuildingBlock: BETDAH_clean_sbu_0, # of connection points: 6
#     Node 9, Type 0, BuildingBlock: BETDAH_clean_sbu_0, # of connection points: 6
#     Node 10, Type 0, BuildingBlock: BETDAH_clean_sbu_0, # of connection points: 6
#     Node 11, Type 0, BuildingBlock: BETDAH_clean_sbu_0, # of connection points: 6
#     Node 12, Type 0, BuildingBlock: BETDAH_clean_sbu_0, # of connection points: 6
#     Node 13, Type 0, BuildingBlock: BETDAH_clean_sbu_0, # of connection points: 6
#     Node 14, Type 0, BuildingBlock: BETDAH_clean_sbu_0, # of connection points: 6
#     Node 15, Type 0, BuildingBlock: BETDAH_clean_sbu_0, # of connection points: 6
#     Edge 16, Type (0, 0), BuildingBlock: XUDNAN_clean_linker_2, # of connection points: 2
#     Edge 17, Type (0, 0), BuildingBlock: XUDNAN_clean_linker_2, # of connection points: 2
#     Edge 18, Type (0, 0), BuildingBlock: XUDNAN_clean_linker_2, # of connection points: 2
#     Edge 19, Type (0, 0), BuildingBlock: XUDNAN_clean_linker_2, # of connection points: 2
#     Edge 20, Type (0, 0), BuildingBlock: XUDNAN_clean_linker_2, # of connection points: 2
#     Edge 21, Type (0, 0), BuildingBlock: XUDNAN_clean_linker_2, # of connection points: 2
#     Edge 22, Type (0, 0), BuildingBlock: XUDNAN_clean_linker_2, # of connection points: 2
#     Edge 23, Type (0, 0), BuildingBlock: XUDNAN_clean_linker_2, # of connection points: 2
#     Edge 24, Type (0, 0), BuildingBlock: XUDNAN_clean_linker_2, # of connection points: 2
#     Edge 25, Type (0, 0), BuildingBlock: XUDNAN_clean_linker_2, # of connection points: 2
#     Edge 26, Type (0, 0), BuildingBlock: XUDNAN_clean_linker_2, # of connection points: 2
#     Edge 27, Type (0, 0), BuildingBlock: XUDNAN_clean_linker_2, # of connection points: 2
#     Edge 28, Type (0, 0), BuildingBlock: XUDNAN_clean_linker_2, # of connection points: 2
#     Edge 29, Type (0, 0), BuildingBlock: XUDNAN_clean_linker_2, # of connection points: 2
#     Edge 30, Type (0, 0), BuildingBlock: XUDNAN_clean_linker_2, # of connection points: 2
#     Edge 31, Type (0, 0), BuildingBlock: XUDNAN_clean_linker_2, # of connection points: 2
#     Edge 32, Type (0, 0), BuildingBlock: XUDNAN_clean_linker_2, # of connection points: 2
#     Edge 33, Type (0, 0), BuildingBlock: XUDNAN_clean_linker_2, # of connection points: 2
#     Edge 34, Type (0, 0), BuildingBlock: XUDNAN_clean_linker_2, # of connection points: 2
#     Edge 35, Type (0, 0), BuildingBlock: XUDNAN_clean_linker_2, # of connection points: 2
#     Edge 36, Type (0, 0), BuildingBlock: XUDNAN_clean_linker_2, # of connection points: 2
#     Edge 37, Type (0, 0), BuildingBlock: XUDNAN_clean_linker_2, # of connection points: 2
#     Edge 38, Type (0, 0), BuildingBlock: XUDNAN_clean_linker_2, # of connection points: 2
#     Edge 39, Type (0, 0), BuildingBlock: XUDNAN_clean_linker_2, # of connection points: 2
#     Edge 40, Type (0, 0), BuildingBlock: XUDNAN_clean_linker_2, # of connection points: 2
#     Edge 41, Type (0, 0), BuildingBlock: XUDNAN_clean_linker_2, # of connection points: 2
#     Edge 42, Type (0, 0), BuildingBlock: XUDNAN_clean_linker_2, # of connection points: 2
#     Edge 43, Type (0, 0), BuildingBlock: XUDNAN_clean_linker_2, # of connection points: 2
#     Edge 44, Type (0, 0), BuildingBlock: XUDNAN_clean_linker_2, # of connection points: 2
#     Edge 45, Type (0, 0), BuildingBlock: XUDNAN_clean_linker_2, # of connection points: 2
#     Edge 46, Type (0, 0), BuildingBlock: XUDNAN_clean_linker_2, # of connection points: 2
#     Edge 47, Type (0, 0), BuildingBlock: XUDNAN_clean_linker_2, # of connection points: 2
#     Edge 48, Type (0, 0), BuildingBlock: XUDNAN_clean_linker_2, # of connection points: 2
#     Edge 49, Type (0, 0), BuildingBlock: XUDNAN_clean_linker_2, # of connection points: 2
#     Edge 50, Type (0, 0), BuildingBlock: XUDNAN_clean_linker_2, # of connection points: 2
#     Edge 51, Type (0, 0), BuildingBlock: XUDNAN_clean_linker_2, # of connection points: 2
#     Edge 52, Type (0, 0), BuildingBlock: XUDNAN_clean_linker_2, # of connection points: 2
#     Edge 53, Type (0, 0), BuildingBlock: XUDNAN_clean_linker_2, # of connection points: 2
#     Edge 54, Type (0, 0), BuildingBlock: XUDNAN_clean_linker_2, # of connection points: 2
#     Edge 55, Type (0, 0), BuildingBlock: XUDNAN_clean_linker_2, # of connection points: 2
#     Edge 56, Type (0, 0), BuildingBlock: XUDNAN_clean_linker_2, # of connection points: 2
#     Edge 57, Type (0, 0), BuildingBlock: XUDNAN_clean_linker_2, # of connection points: 2
#     Edge 58, Type (0, 0), BuildingBlock: XUDNAN_clean_linker_2, # of connection points: 2
#     Edge 59, Type (0, 0), BuildingBlock: XUDNAN_clean_linker_2, # of connection points: 2
#     Edge 60, Type (0, 0), BuildingBlock: XUDNAN_clean_linker_2, # of connection points: 2
#     Edge 61, Type (0, 0), BuildingBlock: XUDNAN_clean_linker_2, # of connection points: 2
#     Edge 62, Type (0, 0), BuildingBlock: XUDNAN_clean_linker_2, # of connection points: 2
#     Edge 63, Type (0, 0), BuildingBlock: XUDNAN_clean_linker_2, # of connection points: 2
# Relax obj value: 0.066
# Max RMSD: 0.142
# Mean RMSD: 0.142
data_MOF--net-vbm--node1-BETDAH_clean_sbu_0--edge1-XUDNAN_clean_linker_2
_symmetry_space_group_name_H-M    P1
_symmetry_Int_Tables_number       1
_symmetry_cell_setting            triclinic
loop_
_symmetry_equiv_pos_as_xyz
'x, y, z'
_cell_length_a     55.00093
_cell_length_b     25.917206
_cell_length_c     56.838111
_cell_angle_alpha  90.009243
_cell_angle_beta   89.971941
_cell_angle_gamma 89.940944
loop_
_atom_site_label
_atom_site_type_symbol
_atom_site_fract_x
_atom_site_fract_y
_atom_site_fract_z
_atom_type_partial_charge
Ho0 Ho 0.13802 0.06262 0.1373 0.0
Ho1 Ho 0.11829 0.16853 0.14472 0.0
C2 C 0.07891 0.08215 0.13981 0.0
C3 C 0.14849 0.9655 0.14213 0.0
C4 C 0.13928 0.91245 0.13809 0.0
C5 C 0.12773 0.88509 0.15633 0.0
C6 C 0.12218 0.83263 0.15376 0.0
C7 C 0.12826 0.80617 0.13296 0.0
C8 C 0.13934 0.83403 0.11457 0.0
C9 C 0.14472 0.8864 0.11708 0.0
C10 C 0.13092 0.11486 0.09639 0.0
C11 C 0.17576 0.15377 0.13775 0.0
C12 C 0.10696 0.26568 0.14584 0.0
C13 C 0.11643 0.31901 0.1452 0.0
C14 C 0.13051 0.33735 0.12637 0.0
C15 C 0.13494 0.39029 0.12398 0.0
C16 C 0.12523 0.42585 0.14025 0.0
C17 C 0.11283 0.40681 0.16004 0.0
C18 C 0.10847 0.35394 0.16245 0.0
C19 C 0.12555 0.11231 0.18457 0.0
O20 O 0.09717 0.04879 0.14119 0.0
O21 O 0.08249 0.13216 0.13849 0.0
O22 O 0.15491 0.99302 0.12386 0.0
O23 O 0.13769 0.9931 0.15828 0.0
O24 O 0.14872 0.08334 0.10051 0.0
O25 O 0.11687 0.11507 0.11409 0.0
O26 O 0.15678 0.18361 0.13408 0.0
O27 O 0.17336 0.10457 0.14337 0.0
O28 O 0.11143 0.23839 0.16463 0.0
O29 O 0.10768 0.2383 0.12651 0.0
O30 O 0.10684 0.14158 0.18097 0.0
O31 O 0.13968 0.1152 0.16716 0.0
H32 H 0.12357 0.90382 0.17289 0.0
H33 H 0.1134 0.81276 0.1682 0.0
H34 H 0.1448 0.81503 0.09845 0.0
H35 H 0.15398 0.90594 0.10282 0.0
H36 H 0.13714 0.31123 0.11293 0.0
H37 H 0.14511 0.40358 0.10883 0.0
H38 H 0.10504 0.43292 0.17288 0.0
H39 H 0.09761 0.34064 0.17716 0.0
Ho40 Ho 0.84941 0.98456 0.1372 0.0
Ho41 Ho 0.87068 0.87996 0.14358 0.0
C42 C 0.9084 0.96912 0.14012 0.0
C43 C 0.8375 0.08157 0.13741 0.0
C44 C 0.84743 0.13479 0.13706 0.0
C45 C 0.85916 0.15583 0.1568 0.0
C46 C 0.86367 0.20888 0.15809 0.0
C47 C 0.85646 0.24211 0.13976 0.0
C48 C 0.84667 0.22048 0.11919 0.0
C49 C 0.8421 0.16734 0.11791 0.0
C50 C 0.85598 0.93135 0.09634 0.0
C51 C 0.81195 0.89212 0.14146 0.0
C52 C 0.88188 0.78324 0.13847 0.0
C53 C 0.87243 0.72979 0.14108 0.0
C54 C 0.86401 0.70236 0.1213 0.0
C55 C 0.85843 0.64966 0.12287 0.0
C56 C 0.86118 0.62313 0.14428 0.0
C57 C 0.86904 0.65098 0.16416 0.0
C58 C 0.87458 0.7035 0.16259 0.0
C59 C 0.8628 0.93198 0.1848 0.0
O60 O 0.88956 0.99947 0.14478 0.0
O61 O 0.90537 0.9201 0.13503 0.0
O62 O 0.83975 0.0542 0.11827 0.0
O63 O 0.84014 0.05392 0.15651 0.0
O64 O 0.83687 0.95801 0.10171 0.0
O65 O 0.8707 0.93401 0.11341 0.0
O66 O 0.83106 0.86161 0.13995 0.0
O67 O 0.81403 0.94288 0.14278 0.0
O68 O 0.88666 0.80984 0.1575 0.0
O69 O 0.87255 0.81169 0.12175 0.0
O70 O 0.8817 0.90347 0.18043 0.0
O71 O 0.84894 0.93114 0.16712 0.0
H72 H 0.86371 0.13188 0.17178 0.0
H73 H 0.87165 0.22435 0.17401 0.0
H74 H 0.84089 0.24498 0.1048 0.0
H75 H 0.83305 0.15219 0.10246 0.0
H76 H 0.86238 0.72127 0.10437 0.0
H77 H 0.85216 0.62965 0.10729 0.0
H78 H 0.87175 0.63178 0.18087 0.0
H79 H 0.88134 0.72303 0.1781 0.0
Ho80 Ho 0.13486 0.98167 0.38422 0.0
Ho81 Ho 0.11309 0.87733 0.37756 0.0
C82 C 0.07636 0.96769 0.38033 0.0
C83 C 0.14736 0.07839 0.38475 0.0
C84 C 0.13812 0.13224 0.38425 0.0
C85 C 0.12603 0.15248 0.36453 0.0
C86 C 0.12165 0.20562 0.36278 0.0
C87 C 0.12941 0.23977 0.38058 0.0
C88 C 0.13978 0.21891 0.40107 0.0
C89 C 0.14414 0.16576 0.40283 0.0
C90 C 0.12963 0.92662 0.42441 0.0
C91 C 0.17161 0.88851 0.38153 0.0
C92 C 0.10142 0.78035 0.38033 0.0
C93 C 0.11157 0.72731 0.37807 0.0
C94 C 0.1215 0.70125 0.39762 0.0
C95 C 0.12769 0.64873 0.39617 0.0
C96 C 0.12408 0.62108 0.37515 0.0
C97 C 0.11472 0.6477 0.35553 0.0
C98 C 0.10859 0.69993 0.35697 0.0
C99 C 0.12034 0.93247 0.33735 0.0
O100 O 0.09531 0.99714 0.37533 0.0
O101 O 0.07899 0.91902 0.3863 0.0
O102 O 0.14307 0.05143 0.40367 0.0
O103 O 0.14614 0.05061 0.36554 0.0
O104 O 0.1483 0.95456 0.41902 0.0
O105 O 0.11402 0.92978 0.40811 0.0
O106 O 0.15232 0.85889 0.38389 0.0
O107 O 0.16967 0.93881 0.37808 0.0
O108 O 0.09906 0.80794 0.3612 0.0
O109 O 0.10822 0.80808 0.39835 0.0
O110 O 0.10156 0.90346 0.34117 0.0
O111 O 0.13491 0.92854 0.35432 0.0
H112 H 0.12093 0.12773 0.35 0.0
H113 H 0.11313 0.22029 0.34696 0.0
H114 H 0.14602 0.24394 0.41508 0.0
H115 H 0.15347 0.15118 0.41825 0.0
H116 H 0.12386 0.721 0.41426 0.0
H117 H 0.1351 0.62973 0.41155 0.0
H118 H 0.11121 0.62774 0.33915 0.0
H119 H 0.10066 0.71837 0.34169 0.0
Ho120 Ho 0.84759 0.06291 0.38485 0.0
Ho121 Ho 0.86857 0.16652 0.37943 0.0
C122 C 0.90618 0.07796 0.38216 0.0
C123 C 0.83581 0.96571 0.38518 0.0
C124 C 0.84574 0.91254 0.38359 0.0
C125 C 0.85223 0.89079 0.36186 0.0
C126 C 0.8584 0.83852 0.36025 0.0
C127 C 0.85848 0.80649 0.38034 0.0
C128 C 0.85266 0.82886 0.4022 0.0
C129 C 0.84623 0.88107 0.40376 0.0
C130 C 0.85406 0.11529 0.42617 0.0
C131 C 0.81012 0.15448 0.38353 0.0
C132 C 0.87994 0.26342 0.38337 0.0
C133 C 0.87035 0.31685 0.38113 0.0
C134 C 0.86838 0.34813 0.40127 0.0
C135 C 0.8648 0.40152 0.39921 0.0
C136 C 0.86323 0.42483 0.37692 0.0
C137 C 0.86302 0.39276 0.35689 0.0
C138 C 0.86669 0.33951 0.35894 0.0
C139 C 0.86611 0.11407 0.33813 0.0
O140 O 0.88757 0.04765 0.37694 0.0
O141 O 0.90294 0.1264 0.3882 0.0
O142 O 0.84119 0.99209 0.40399 0.0
O143 O 0.83544 0.99444 0.36625 0.0
O144 O 0.83482 0.08938 0.42059 0.0
O145 O 0.86881 0.1124 0.40921 0.0
O146 O 0.8294 0.18412 0.38485 0.0
O147 O 0.81181 0.10413 0.38054 0.0
O148 O 0.88305 0.23646 0.36418 0.0
O149 O 0.87224 0.23533 0.40095 0.0
O150 O 0.88337 0.14489 0.34456 0.0
O151 O 0.84937 0.11413 0.35366 0.0
H152 H 0.85181 0.91366 0.34592 0.0
H153 H 0.86223 0.82302 0.34296 0.0
H154 H 0.85285 0.80607 0.41816 0.0
H155 H 0.84106 0.89658 0.42075 0.0
H156 H 0.87109 0.3318 0.41862 0.0
H157 H 0.86499 0.4248 0.41503 0.0
H158 H 0.86114 0.40914 0.33946 0.0
H159 H 0.86789 0.31666 0.34303 0.0
Ho160 Ho 0.86772 0.87768 0.87896 0.0
Ho161 Ho 0.84842 0.98389 0.88398 0.0
C162 C 0.80998 0.89411 0.87964 0.0
C163 C 0.8782 0.78049 0.88259 0.0
C164 C 0.86854 0.72745 0.87998 0.0
C165 C 0.86421 0.69745 0.90018 0.0
C166 C 0.86091 0.64405 0.89839 0.0
C167 C 0.86203 0.61962 0.87636 0.0
C168 C 0.86409 0.6503 0.85603 0.0
C169 C 0.86743 0.70361 0.8578 0.0
C170 C 0.86348 0.93162 0.83804 0.0
C171 C 0.90695 0.96355 0.88474 0.0
C172 C 0.83668 0.08068 0.88109 0.0
C173 C 0.84676 0.13363 0.88207 0.0
C174 C 0.8566 0.15632 0.86177 0.0
C175 C 0.86282 0.20845 0.86153 0.0
C176 C 0.85962 0.23948 0.88166 0.0
C177 C 0.85037 0.21642 0.90221 0.0
C178 C 0.84389 0.16413 0.90236 0.0
C179 C 0.85307 0.93194 0.92557 0.0
O180 O 0.82809 0.86317 0.88495 0.0
O181 O 0.81362 0.9432 0.87462 0.0
O182 O 0.88212 0.80767 0.86359 0.0
O183 O 0.87002 0.80833 0.90006 0.0
O184 O 0.8812 0.90031 0.84269 0.0
O185 O 0.84821 0.93007 0.85448 0.0
O186 O 0.88943 0.99678 0.87927 0.0
O187 O 0.90208 0.915 0.88937 0.0
O188 O 0.83574 0.05426 0.90064 0.0
O189 O 0.84248 0.05208 0.86297 0.0
O190 O 0.83469 0.96043 0.91965 0.0
O191 O 0.86803 0.9326 0.90872 0.0
H192 H 0.865 0.71471 0.91752 0.0
H193 H 0.85935 0.62157 0.91439 0.0
H194 H 0.86449 0.63268 0.83875 0.0
H195 H 0.87056 0.7255 0.84186 0.0
H196 H 0.85869 0.13431 0.84571 0.0
H197 H 0.86931 0.22471 0.84515 0.0
H198 H 0.84789 0.23878 0.91812 0.0
H199 H 0.83604 0.14793 0.91821 0.0
Ho200 Ho 0.112 0.16541 0.87799 0.0
Ho201 Ho 0.13768 0.06523 0.88519 0.0
C202 C 0.17079 0.1633 0.87383 0.0
C203 C 0.1039 0.26267 0.88602 0.0
C204 C 0.11296 0.31594 0.88077 0.0
C205 C 0.12749 0.34316 0.89704 0.0
C206 C 0.13252 0.39607 0.89395 0.0
C207 C 0.12301 0.42342 0.87456 0.0
C208 C 0.10917 0.39535 0.858 0.0
C209 C 0.10439 0.34269 0.86097 0.0
C210 C 0.11477 0.10887 0.83792 0.0
C211 C 0.0775 0.07278 0.88477 0.0
C212 C 0.1519 0.96912 0.88579 0.0
C213 C 0.14315 0.91471 0.88493 0.0
C214 C 0.12716 0.89709 0.86744 0.0
C215 C 0.12172 0.84428 0.86544 0.0
C216 C 0.13243 0.8074 0.88061 0.0
C217 C 0.14735 0.82582 0.89891 0.0
C218 C 0.15258 0.87867 0.90103 0.0
C219 C 0.13092 0.12115 0.92525 0.0
O220 O 0.14996 0.18689 0.8709 0.0
O221 O 0.17184 0.11371 0.87952 0.0
O222 O 0.09325 0.23646 0.86916 0.0
O223 O 0.1172 0.23334 0.89968 0.0
O224 O 0.09741 0.14123 0.84306 0.0
O225 O 0.13154 0.11232 0.8533 0.0
O226 O 0.09733 0.04372 0.88235 0.0
O227 O 0.07854 0.1232 0.88671 0.0
O228 O 0.14686 0.9957 0.90465 0.0
O229 O 0.15062 0.99716 0.86668 0.0
O230 O 0.1509 0.0975 0.91971 0.0
O231 O 0.11587 0.11418 0.90878 0.0
H232 H 0.13436 0.32398 0.91262 0.0
H233 H 0.14359 0.41554 0.90695 0.0
H234 H 0.10095 0.41432 0.84304 0.0
H235 H 0.09299 0.32349 0.84815 0.0
H236 H 0.11933 0.92387 0.85491 0.0
H237 H 0.10947 0.83239 0.85157 0.0
H238 H 0.15606 0.79932 0.91097 0.0
H239 H 0.16486 0.89119 0.91479 0.0
Ho240 Ho 0.86823 0.16939 0.64576 0.0
Ho241 Ho 0.84931 0.0634 0.63797 0.0
C242 C 0.81065 0.15401 0.63984 0.0
C243 C 0.87933 0.26653 0.6458 0.0
C244 C 0.86932 0.31935 0.64591 0.0
C245 C 0.85136 0.33529 0.62994 0.0
C246 C 0.84556 0.38771 0.62779 0.0
C247 C 0.85785 0.42516 0.64132 0.0
C248 C 0.87451 0.40832 0.65846 0.0
C249 C 0.8801 0.35599 0.66073 0.0
C250 C 0.86061 0.11344 0.68562 0.0
C251 C 0.90834 0.08378 0.64115 0.0
C252 C 0.83923 0.96626 0.64295 0.0
C253 C 0.84715 0.91288 0.6376 0.0
C254 C 0.86104 0.88458 0.65391 0.0
C255 C 0.8652 0.83171 0.65063 0.0
C256 C 0.85519 0.80562 0.63117 0.0
C257 C 0.84174 0.8346 0.61468 0.0
C258 C 0.83794 0.88739 0.61776 0.0
C259 C 0.85633 0.1159 0.59705 0.0
O260 O 0.82928 0.18511 0.63693 0.0
O261 O 0.81358 0.10424 0.64411 0.0
O262 O 0.8768 0.23931 0.66495 0.0
O263 O 0.87691 0.23906 0.62663 0.0
O264 O 0.87896 0.14388 0.68247 0.0
O265 O 0.8469 0.11544 0.66789 0.0
O266 O 0.89028 0.04984 0.64143 0.0
O267 O 0.90439 0.13373 0.64048 0.0
O268 O 0.83088 0.99468 0.62572 0.0
O269 O 0.8522 0.99273 0.65793 0.0
O270 O 0.83877 0.08387 0.60115 0.0
O271 O 0.87026 0.11631 0.61486 0.0
H272 H 0.84251 0.30765 0.6185 0.0
H273 H 0.83209 0.399 0.61489 0.0
H274 H 0.88445 0.43566 0.66916 0.0
H275 H 0.89393 0.34443 0.67325 0.0
H276 H 0.86811 0.9029 0.66961 0.0
H277 H 0.87597 0.81136 0.66359 0.0
H278 H 0.83308 0.81639 0.59976 0.0
H279 H 0.8268 0.90772 0.60507 0.0
Ho280 Ho 0.11517 0.87643 0.64294 0.0
Ho281 Ho 0.13803 0.98923 0.63888 0.0
C282 C 0.17398 0.89034 0.63954 0.0
C283 C 0.104 0.78085 0.63521 0.0
C284 C 0.11216 0.72722 0.63985 0.0
C285 C 0.12619 0.69991 0.62324 0.0
C286 C 0.13092 0.64709 0.62621 0.0
C287 C 0.12153 0.6203 0.64574 0.0
C288 C 0.10789 0.64821 0.66247 0.0
C289 C 0.10342 0.70079 0.65964 0.0
C290 C 0.12138 0.92828 0.68428 0.0
C291 C 0.07932 0.97117 0.63878 0.0
C292 C 0.15243 0.0825 0.64654 0.0
C293 C 0.14237 0.13485 0.64244 0.0
C294 C 0.12213 0.15263 0.65522 0.0
C295 C 0.11527 0.20444 0.65418 0.0
C296 C 0.12856 0.2398 0.6405 0.0
C297 C 0.14728 0.22109 0.62597 0.0
C298 C 0.15417 0.16905 0.62699 0.0
C299 C 0.12517 0.95382 0.5955 0.0
O300 O 0.15498 0.85945 0.64137 0.0
O301 O 0.1725 0.94148 0.63915 0.0
O302 O 0.09558 0.80767 0.65298 0.0
O303 O 0.11694 0.80875 0.62068 0.0
O304 O 0.10453 0.89412 0.68069 0.0
O305 O 0.13518 0.92991 0.66643 0.0
O306 O 0.09775 1.00156 0.64475 0.0
O307 O 0.08233 0.92233 0.6327 0.0
O308 O 0.15904 0.05602 0.62801 0.0
O309 O 0.1416 0.05404 0.66237 0.0
O310 O 0.13456 0.99853 0.59974 0.0
O311 O 0.12261 0.93142 0.61502 0.0
H312 H 0.13298 0.71901 0.60761 0.0
H313 H 0.14172 0.6273 0.61308 0.0
H314 H 0.09971 0.6292 0.67746 0.0
H315 H 0.09225 0.72025 0.6726 0.0
H316 H 0.11226 0.1272 0.66694 0.0
H317 H 0.10037 0.21746 0.66516 0.0
H318 H 0.15779 0.24727 0.61515 0.0
H319 H 0.16956 0.15618 0.61664 0.0
Ho320 Ho 0.63768 0.56236 0.13997 0.0
Ho321 Ho 0.61431 0.66892 0.1446 0.0
C322 C 0.5779 0.57888 0.13697 0.0
C323 C 0.64672 0.46865 0.15324 0.0
C324 C 0.64148 0.41436 0.14646 0.0
C325 C 0.62629 0.38405 0.16078 0.0
C326 C 0.62266 0.33158 0.15595 0.0
C327 C 0.63448 0.30755 0.13685 0.0
C328 C 0.64932 0.33854 0.12229 0.0
C329 C 0.65262 0.39116 0.12692 0.0
C330 C 0.62777 0.58994 0.09561 0.0
C331 C 0.67264 0.65976 0.13662 0.0
C332 C 0.60307 0.76637 0.14495 0.0
C333 C 0.61303 0.81941 0.14409 0.0
C334 C 0.63066 0.83484 0.12767 0.0
C335 C 0.6371 0.88711 0.12566 0.0
C336 C 0.62574 0.92519 0.13974 0.0
C337 C 0.60916 0.9086 0.15705 0.0
C338 C 0.60304 0.85649 0.15923 0.0
C339 C 0.62276 0.61639 0.18532 0.0
O340 O 0.59679 0.54763 0.13976 0.0
O341 O 0.58 0.62921 0.13623 0.0
O342 O 0.66164 0.4958 0.14011 0.0
O343 O 0.62819 0.49573 0.16082 0.0
O344 O 0.6395 0.54901 0.10202 0.0
O345 O 0.62286 0.61868 0.11339 0.0
O346 O 0.65256 0.68743 0.13585 0.0
O347 O 0.6725 0.60941 0.14097 0.0
O348 O 0.60748 0.73958 0.16388 0.0
O349 O 0.60356 0.73825 0.12585 0.0
O350 O 0.60309 0.64237 0.18123 0.0
O351 O 0.63652 0.61965 0.16773 0.0
H352 H 0.61748 0.40079 0.17604 0.0
H353 H 0.61064 0.31002 0.16737 0.0
H354 H 0.65922 0.3221 0.10765 0.0
H355 H 0.66446 0.41325 0.11552 0.0
H356 H 0.63898 0.80686 0.116 0.0
H357 H 0.6506 0.89762 0.11266 0.0
H358 H 0.59978 0.93593 0.16822 0.0
H359 H 0.58956 0.84541 0.17219 0.0
Ho360 Ho 0.34934 0.4825 0.13838 0.0
Ho361 Ho 0.36823 0.37592 0.14504 0.0
C362 C 0.40824 0.461 0.13879 0.0
C363 C 0.33909 0.57971 0.1432 0.0
C364 C 0.34802 0.63281 0.13893 0.0
C365 C 0.35862 0.66102 0.15742 0.0
C366 C 0.3639 0.71348 0.15475 0.0
C367 C 0.3585 0.73912 0.13359 0.0
C368 C 0.34844 0.71048 0.11492 0.0
C369 C 0.34328 0.658 0.11755 0.0
C370 C 0.35559 0.4311 0.09701 0.0
C371 C 0.31075 0.39221 0.13935 0.0
C372 C 0.3792 0.27867 0.14458 0.0
C373 C 0.36916 0.22581 0.14492 0.0
C374 C 0.3552 0.2067 0.12616 0.0
C375 C 0.35087 0.15375 0.12411 0.0
C376 C 0.36048 0.11895 0.1407 0.0
C377 C 0.37251 0.13864 0.16055 0.0
C378 C 0.37687 0.19161 0.16258 0.0
C379 C 0.36134 0.43082 0.18533 0.0
O380 O 0.39049 0.4952 0.1417 0.0
O381 O 0.4037 0.41149 0.1366 0.0
O382 O 0.33219 0.55204 0.12516 0.0
O383 O 0.35051 0.55237 0.15902 0.0
O384 O 0.33804 0.46287 0.10166 0.0
O385 O 0.36971 0.42995 0.11462 0.0
O386 O 0.32937 0.36127 0.1359 0.0
O387 O 0.31365 0.44163 0.14439 0.0
O388 O 0.3777 0.3059 0.16384 0.0
O389 O 0.37604 0.30634 0.12558 0.0
O390 O 0.37983 0.40099 0.18155 0.0
O391 O 0.34727 0.42918 0.16788 0.0
H392 H 0.3622 0.64291 0.17424 0.0
H393 H 0.37193 0.73404 0.1694 0.0
H394 H 0.34361 0.72895 0.09849 0.0
H395 H 0.33478 0.63771 0.10307 0.0
H396 H 0.34879 0.23212 0.11236 0.0
H397 H 0.34105 0.13975 0.10887 0.0
H398 H 0.38015 0.11291 0.17362 0.0
H399 H 0.38766 0.20542 0.17723 0.0
Ho400 Ho 0.63626 0.48538 0.38078 0.0
Ho401 Ho 0.6151 0.37358 0.37573 0.0
C402 C 0.57809 0.46369 0.38473 0.0
C403 C 0.64784 0.57862 0.3693 0.0
C404 C 0.64139 0.63241 0.37574 0.0
C405 C 0.62642 0.66186 0.36084 0.0
C406 C 0.62212 0.71413 0.36544 0.0
C407 C 0.63295 0.73856 0.38492 0.0
C408 C 0.64744 0.70848 0.40013 0.0
C409 C 0.65149 0.65614 0.39567 0.0
C410 C 0.62711 0.44831 0.4246 0.0
C411 C 0.67345 0.38968 0.37889 0.0
C412 C 0.60382 0.27675 0.37661 0.0
C413 C 0.61433 0.22437 0.37626 0.0
C414 C 0.63248 0.2088 0.39211 0.0
C415 C 0.6389 0.15663 0.39386 0.0
C416 C 0.62709 0.11908 0.38001 0.0
C417 C 0.61027 0.1357 0.36297 0.0
C418 C 0.60404 0.18776 0.36111 0.0
C419 C 0.61841 0.43247 0.33638 0.0
O420 O 0.59544 0.49675 0.3789 0.0
O421 O 0.58199 0.41408 0.38797 0.0
O422 O 0.66009 0.55116 0.38466 0.0
O423 O 0.63112 0.55177 0.3584 0.0
O424 O 0.63574 0.49374 0.41996 0.0
O425 O 0.62338 0.42516 0.4053 0.0
O426 O 0.65477 0.35778 0.37894 0.0
O427 O 0.6713 0.44061 0.37832 0.0
O428 O 0.60547 0.30357 0.35723 0.0
O429 O 0.60676 0.30471 0.39559 0.0
O430 O 0.60057 0.40118 0.34065 0.0
O431 O 0.63394 0.42874 0.35251 0.0
H432 H 0.61833 0.64469 0.34535 0.0
H433 H 0.61044 0.73533 0.35354 0.0
H434 H 0.65653 0.72554 0.41509 0.0
H435 H 0.66317 0.63475 0.40751 0.0
H436 H 0.64102 0.23648 0.40375 0.0
H437 H 0.65251 0.14557 0.40667 0.0
H438 H 0.60067 0.10832 0.35201 0.0
H439 H 0.59014 0.19904 0.34861 0.0
Ho440 Ho 0.34859 0.56532 0.3864 0.0
Ho441 Ho 0.37382 0.66622 0.37741 0.0
C442 C 0.4086 0.57464 0.38516 0.0
C443 C 0.33508 0.46902 0.38704 0.0
C444 C 0.34453 0.41517 0.38549 0.0
C445 C 0.35812 0.39761 0.36614 0.0
C446 C 0.36385 0.34501 0.36379 0.0
C447 C 0.35593 0.30844 0.38056 0.0
C448 C 0.34371 0.3268 0.40066 0.0
C449 C 0.33809 0.37941 0.40305 0.0
C450 C 0.35586 0.62222 0.42582 0.0
C451 C 0.31538 0.66391 0.37755 0.0
C452 C 0.3822 0.76359 0.3845 0.0
C453 C 0.37354 0.81738 0.38 0.0
C454 C 0.36188 0.84573 0.39795 0.0
C455 C 0.35731 0.89886 0.39538 0.0
C456 C 0.36433 0.92518 0.3748 0.0
C457 C 0.3753 0.89623 0.35662 0.0
C458 C 0.37977 0.84328 0.35916 0.0
C459 C 0.36856 0.60677 0.33868 0.0
O460 O 0.38905 0.54484 0.38288 0.0
O461 O 0.4072 0.62499 0.38672 0.0
O462 O 0.34078 0.49526 0.40584 0.0
O463 O 0.33495 0.49769 0.36804 0.0
O464 O 0.33614 0.59702 0.42095 0.0
O465 O 0.37061 0.61609 0.40892 0.0
O466 O 0.33555 0.68418 0.36954 0.0
O467 O 0.31451 0.61521 0.38463 0.0
O468 O 0.39186 0.73713 0.36712 0.0
O469 O 0.36925 0.73479 0.39872 0.0
O470 O 0.38675 0.63821 0.34204 0.0
O471 O 0.35292 0.61289 0.35478 0.0
H472 H 0.3637 0.42416 0.35245 0.0
H473 H 0.3739 0.33282 0.34837 0.0
H474 H 0.33725 0.30024 0.41396 0.0
H475 H 0.32773 0.39186 0.41824 0.0
H476 H 0.35695 0.82718 0.41435 0.0
H477 H 0.34849 0.91933 0.40964 0.0
H478 H 0.38138 0.91477 0.34061 0.0
H479 H 0.38899 0.82311 0.34505 0.0
Ho480 Ho 0.37115 0.37982 0.87932 0.0
Ho481 Ho 0.35012 0.48407 0.88519 0.0
C482 C 0.31274 0.39198 0.88243 0.0
C483 C 0.38242 0.28278 0.88275 0.0
C484 C 0.37222 0.22989 0.88081 0.0
C485 C 0.37107 0.19837 0.90092 0.0
C486 C 0.36676 0.14525 0.89889 0.0
C487 C 0.36357 0.12246 0.87665 0.0
C488 C 0.36245 0.15494 0.85679 0.0
C489 C 0.36689 0.20792 0.8588 0.0
C490 C 0.36771 0.43384 0.8383 0.0
C491 C 0.4088 0.46914 0.8838 0.0
C492 C 0.33738 0.58073 0.88474 0.0
C493 C 0.34705 0.63413 0.88335 0.0
C494 C 0.3532 0.6561 0.8616 0.0
C495 C 0.35898 0.70847 0.85993 0.0
C496 C 0.35915 0.74054 0.88002 0.0
C497 C 0.35364 0.71798 0.90194 0.0
C498 C 0.34749 0.6656 0.90353 0.0
C499 C 0.35578 0.43052 0.92621 0.0
O500 O 0.33177 0.36182 0.88515 0.0
O501 O 0.31514 0.44204 0.87885 0.0
O502 O 0.38494 0.30978 0.86348 0.0
O503 O 0.37565 0.311 0.90064 0.0
O504 O 0.38509 0.40228 0.84372 0.0
O505 O 0.35167 0.43265 0.85436 0.0
O506 O 0.3903 0.50047 0.87943 0.0
O507 O 0.40555 0.41987 0.8883 0.0
O508 O 0.34166 0.55469 0.90393 0.0
O509 O 0.3385 0.5518 0.86591 0.0
O510 O 0.33672 0.45706 0.9205 0.0
O511 O 0.37078 0.43352 0.90943 0.0
H512 H 0.37501 0.21422 0.91814 0.0
H513 H 0.36767 0.12169 0.9146 0.0
H514 H 0.35929 0.13904 0.83944 0.0
H515 H 0.36736 0.23103 0.84294 0.0
H516 H 0.35274 0.63332 0.84562 0.0
H517 H 0.36241 0.72388 0.84256 0.0
H518 H 0.35386 0.74068 0.91791 0.0
H519 H 0.34251 0.64997 0.92054 0.0
Ho520 Ho 0.61694 0.6719 0.87721 0.0
Ho521 Ho 0.63651 0.56774 0.88142 0.0
C522 C 0.67457 0.65639 0.87769 0.0
C523 C 0.60542 0.76918 0.87715 0.0
C524 C 0.61508 0.82248 0.87668 0.0
C525 C 0.62862 0.84267 0.89549 0.0
C526 C 0.63438 0.89523 0.89622 0.0
C527 C 0.62681 0.92882 0.87814 0.0
C528 C 0.614 0.90809 0.85895 0.0
C529 C 0.60818 0.85556 0.85827 0.0
C530 C 0.62057 0.61794 0.83623 0.0
C531 C 0.57788 0.58679 0.88384 0.0
C532 C 0.64682 0.47051 0.8767 0.0
C533 C 0.63748 0.41737 0.88051 0.0
C534 C 0.62905 0.38813 0.86128 0.0
C535 C 0.62566 0.33471 0.86335 0.0
C536 C 0.63088 0.3095 0.88462 0.0
C537 C 0.63727 0.33936 0.90434 0.0
C538 C 0.64059 0.39266 0.90231 0.0
C539 C 0.63351 0.61755 0.92396 0.0
O540 O 0.65651 0.68582 0.8849 0.0
O541 O 0.67063 0.60869 0.87063 0.0
O542 O 0.60768 0.74162 0.85807 0.0
O543 O 0.60837 0.74187 0.89627 0.0
O544 O 0.60143 0.64365 0.84239 0.0
O545 O 0.63641 0.6214 0.852 0.0
O546 O 0.59557 0.554 0.87866 0.0
O547 O 0.58229 0.63573 0.88777 0.0
O548 O 0.65287 0.49792 0.8951 0.0
O549 O 0.63671 0.49828 0.8602 0.0
O550 O 0.65166 0.59 0.91656 0.0
O551 O 0.61773 0.61786 0.90768 0.0
H552 H 0.63412 0.8183 0.91003 0.0
H553 H 0.64405 0.90978 0.91142 0.0
H554 H 0.60826 0.93252 0.84452 0.0
H555 H 0.59762 0.84103 0.84361 0.0
H556 H 0.62657 0.40595 0.84421 0.0
H557 H 0.62077 0.3127 0.84785 0.0
H558 H 0.64109 0.32098 0.92106 0.0
H559 H 0.64701 0.41382 0.91752 0.0
Ho560 Ho 0.36956 0.66766 0.64461 0.0
Ho561 Ho 0.34893 0.56169 0.63589 0.0
C562 C 0.31076 0.65293 0.64149 0.0
C563 C 0.38058 0.76427 0.63931 0.0
C564 C 0.37137 0.81789 0.64171 0.0
C565 C 0.3635 0.84538 0.62173 0.0
C566 C 0.35818 0.89821 0.62315 0.0
C567 C 0.36066 0.92472 0.64458 0.0
C568 C 0.36804 0.89687 0.66462 0.0
C569 C 0.37332 0.84422 0.66321 0.0
C570 C 0.36419 0.61066 0.68425 0.0
C571 C 0.40761 0.57796 0.63928 0.0
C572 C 0.33711 0.465 0.63368 0.0
C573 C 0.34698 0.41193 0.6349 0.0
C574 C 0.35737 0.39231 0.65561 0.0
C575 C 0.36213 0.33949 0.65775 0.0
C576 C 0.35644 0.30522 0.63933 0.0
C577 C 0.34797 0.32555 0.61794 0.0
C578 C 0.34323 0.37842 0.6158 0.0
C579 C 0.35514 0.6199 0.59644 0.0
O580 O 0.32955 0.68447 0.64247 0.0
O581 O 0.31316 0.60226 0.6404 0.0
O582 O 0.38525 0.73797 0.65847 0.0
O583 O 0.37119 0.73571 0.62265 0.0
O584 O 0.38111 0.64499 0.68138 0.0
O585 O 0.34972 0.61159 0.66697 0.0
O586 O 0.38911 0.54575 0.64194 0.0
O587 O 0.40439 0.62789 0.63651 0.0
O588 O 0.3431 0.4925 0.61535 0.0
O589 O 0.33604 0.49231 0.65305 0.0
O590 O 0.33611 0.59244 0.60121 0.0
O591 O 0.36968 0.6158 0.6136 0.0
H592 H 0.3621 0.8264 0.6048 0.0
H593 H 0.35231 0.91832 0.60744 0.0
H594 H 0.37056 0.91612 0.68135 0.0
H595 H 0.37971 0.82462 0.67886 0.0
H596 H 0.36071 0.41714 0.67058 0.0
H597 H 0.36915 0.32508 0.6743 0.0
H598 H 0.34337 0.30027 0.60344 0.0
H599 H 0.33529 0.39265 0.5996 0.0
Ho600 Ho 0.61517 0.37235 0.6456 0.0
Ho601 Ho 0.63577 0.48388 0.64017 0.0
C602 C 0.673 0.38849 0.63836 0.0
C603 C 0.60422 0.27541 0.64743 0.0
C604 C 0.61416 0.22276 0.64583 0.0
C605 C 0.62998 0.20738 0.62775 0.0
C606 C 0.636 0.15516 0.62504 0.0
C607 C 0.62616 0.11754 0.64025 0.0
C608 C 0.61168 0.13395 0.65922 0.0
C609 C 0.60581 0.18597 0.66197 0.0
C610 C 0.62039 0.43068 0.68502 0.0
C611 C 0.5773 0.46088 0.63714 0.0
C612 C 0.6472 0.57723 0.65166 0.0
C613 C 0.64074 0.63112 0.64542 0.0
C614 C 0.62736 0.66136 0.66137 0.0
C615 C 0.62298 0.71362 0.65686 0.0
C616 C 0.63214 0.73721 0.6364 0.0
C617 C 0.64503 0.70645 0.62016 0.0
C618 C 0.6492 0.65408 0.62457 0.0
C619 C 0.62621 0.44736 0.5964 0.0
O620 O 0.65409 0.35738 0.63684 0.0
O621 O 0.67101 0.43881 0.64226 0.0
O622 O 0.6105 0.30245 0.66582 0.0
O623 O 0.6028 0.30297 0.62816 0.0
O624 O 0.60152 0.4022 0.68086 0.0
O625 O 0.63504 0.42692 0.66817 0.0
O626 O 0.59467 0.4942 0.64286 0.0
O627 O 0.58149 0.41138 0.63391 0.0
O628 O 0.65941 0.54993 0.6362 0.0
O629 O 0.63049 0.55028 0.66259 0.0
O630 O 0.63476 0.4928 0.60111 0.0
O631 O 0.62274 0.42359 0.61561 0.0
H632 H 0.63698 0.23529 0.61528 0.0
H633 H 0.64775 0.1441 0.6106 0.0
H634 H 0.60361 0.10641 0.67122 0.0
H635 H 0.59373 0.19718 0.67615 0.0
H636 H 0.62065 0.6448 0.67762 0.0
H637 H 0.61258 0.73557 0.66958 0.0
H638 H 0.65272 0.72309 0.60437 0.0
H639 H 0.65964 0.63205 0.6119 0.0
H640 H 0.20834 0.18761 0.17076 0.0
H641 H 0.19476 0.17829 0.09584 0.0
H642 H 0.22626 0.24425 0.08862 0.0
H643 H 0.2156 0.31873 0.1742 0.0
H644 H 0.24034 0.32019 0.19498 0.0
H645 H 0.21952 0.26661 0.19486 0.0
H646 H 0.25473 0.20144 0.18889 0.0
H647 H 0.27579 0.25451 0.19042 0.0
H648 H 0.27624 0.21178 0.1654 0.0
H649 H 0.25463 0.31892 0.08987 0.0
H650 H 0.28655 0.38335 0.09849 0.0
H651 H 0.28304 0.34394 0.17244 0.0
C652 C 0.21295 0.19775 0.15282 0.0
C653 C 0.19962 0.17737 0.13374 0.0
C654 C 0.20527 0.19284 0.11054 0.0
C655 C 0.22286 0.23072 0.10633 0.0
C656 C 0.23467 0.25254 0.12557 0.0
C657 C 0.2307 0.23541 0.14829 0.0
C658 C 0.24569 0.26629 0.16576 0.0
C659 C 0.2293 0.29463 0.1835 0.0
C660 C 0.26421 0.23142 0.17835 0.0
C661 C 0.25823 0.30397 0.14932 0.0
C662 C 0.25131 0.29572 0.12626 0.0
C663 C 0.26034 0.32555 0.10783 0.0
C664 C 0.27812 0.36262 0.1129 0.0
C665 C 0.28664 0.36931 0.13614 0.0
C666 C 0.27616 0.34058 0.15465 0.0
H667 H 0.79937 0.80153 0.16233 0.0
H668 H 0.77103 0.92533 0.11889 0.0
H669 H 0.73417 0.87338 0.11094 0.0
H670 H 0.77889 0.69779 0.12804 0.0
H671 H 0.77073 0.65649 0.1523 0.0
H672 H 0.79433 0.70405 0.15583 0.0
H673 H 0.77166 0.74457 0.19126 0.0
H674 H 0.74849 0.69594 0.18841 0.0
H675 H 0.74026 0.76332 0.18809 0.0
H676 H 0.70489 0.80398 0.10244 0.0
H677 H 0.67578 0.73289 0.10391 0.0
H678 H 0.71925 0.65622 0.15734 0.0
C679 C 0.78511 0.81803 0.15155 0.0
C680 C 0.78797 0.86713 0.14099 0.0
C681 C 0.76905 0.88789 0.12713 0.0
C682 C 0.74827 0.85841 0.12233 0.0
C683 C 0.74665 0.80896 0.13196 0.0
C684 C 0.764 0.78965 0.14707 0.0
C685 C 0.75734 0.7358 0.15554 0.0
C686 C 0.77645 0.69619 0.14745 0.0
C687 C 0.75423 0.73488 0.18242 0.0
C688 C 0.73328 0.72789 0.14286 0.0
C689 C 0.72822 0.7701 0.12872 0.0
C690 C 0.70822 0.77149 0.11396 0.0
C691 C 0.69189 0.73058 0.11485 0.0
C692 C 0.69487 0.68962 0.13117 0.0
C693 C 0.71643 0.68697 0.14474 0.0
H694 H 0.26459 0.64958 0.3844 0.0
H695 H 0.32105 0.76676 0.37785 0.0
H696 H 0.2911 0.83421 0.38033 0.0
H697 H 0.21981 0.71396 0.35038 0.0
H698 H 0.19422 0.69927 0.36904 0.0
H699 H 0.22008 0.65666 0.3684 0.0
H700 H 0.22451 0.66559 0.41359 0.0
H701 H 0.19868 0.70847 0.4143 0.0
H702 H 0.22735 0.72889 0.42647 0.0
H703 H 0.2564 0.89106 0.37985 0.0
H704 H 0.21646 0.93436 0.37867 0.0
H705 H 0.18107 0.78548 0.38707 0.0
C706 C 0.27053 0.68935 0.38362 0.0
C707 C 0.29533 0.70194 0.38022 0.0
C708 C 0.30227 0.75493 0.37966 0.0
C709 C 0.28537 0.79433 0.38131 0.0
C710 C 0.26126 0.78109 0.38393 0.0
C711 C 0.25359 0.73026 0.3854 0.0
C712 C 0.2261 0.72846 0.38789 0.0
C713 C 0.21438 0.69777 0.36771 0.0
C714 C 0.21874 0.70654 0.412 0.0
C715 C 0.22001 0.78562 0.38625 0.0
C716 C 0.24067 0.81515 0.38434 0.0
C717 C 0.23991 0.86863 0.38166 0.0
C718 C 0.21719 0.89288 0.3809 0.0
C719 C 0.19566 0.86346 0.38274 0.0
C720 C 0.1972 0.80919 0.38565 0.0
H721 H 0.76785 0.16177 0.35695 0.0
H722 H 0.80177 0.20882 0.42237 0.0
H723 H 0.77166 0.27829 0.42694 0.0
H724 H 0.75412 0.27998 0.33495 0.0
H725 H 0.72402 0.26707 0.32392 0.0
H726 H 0.74572 0.21534 0.3265 0.0
H727 H 0.71639 0.16296 0.35305 0.0
H728 H 0.69407 0.21329 0.34949 0.0
H729 H 0.70314 0.1934 0.37855 0.0
H730 H 0.74323 0.35177 0.42092 0.0
H731 H 0.70881 0.40976 0.41111 0.0
H732 H 0.69079 0.31228 0.35168 0.0
C733 C 0.7681 0.18512 0.37274 0.0
C734 C 0.78708 0.18028 0.38931 0.0
C735 C 0.78726 0.21216 0.40954 0.0
C736 C 0.77042 0.25202 0.41219 0.0
C737 C 0.75305 0.25861 0.39475 0.0
C738 C 0.75086 0.22466 0.37603 0.0
C739 C 0.73012 0.2408 0.36005 0.0
C740 C 0.73905 0.25142 0.33487 0.0
C741 C 0.70973 0.20019 0.36031 0.0
C742 C 0.72202 0.29009 0.37213 0.0
C743 C 0.73568 0.29997 0.39196 0.0
C744 C 0.73204 0.34402 0.40567 0.0
C745 C 0.71279 0.37717 0.39979 0.0
C746 C 0.69743 0.36533 0.38065 0.0
C747 C 0.70252 0.32215 0.36631 0.0
H748 H 0.70047 0.70813 0.91064 0.0
H749 H 0.70084 0.66232 0.83736 0.0
H750 H 0.73423 0.72416 0.82946 0.0
H751 H 0.70979 0.83715 0.90359 0.0
H752 H 0.73053 0.84667 0.92776 0.0
H753 H 0.70879 0.79482 0.92873 0.0
H754 H 0.74294 0.72703 0.93459 0.0
H755 H 0.76468 0.77894 0.93509 0.0
H756 H 0.76848 0.72632 0.91469 0.0
H757 H 0.76281 0.80001 0.8287 0.0
H758 H 0.79343 0.86763 0.83687 0.0
H759 H 0.77661 0.85919 0.9112 0.0
C760 C 0.70823 0.71003 0.89314 0.0
C761 C 0.69833 0.68088 0.87455 0.0
C762 C 0.70855 0.68417 0.85179 0.0
C763 C 0.72724 0.71953 0.84714 0.0
C764 C 0.73571 0.75007 0.86561 0.0
C765 C 0.72731 0.744 0.88837 0.0
C766 C 0.73966 0.78108 0.90511 0.0
C767 C 0.72108 0.81706 0.91699 0.0
C768 C 0.75484 0.75158 0.92344 0.0
C769 C 0.75573 0.81026 0.88808 0.0
C770 C 0.75288 0.7923 0.86533 0.0
C771 C 0.76541 0.81397 0.84646 0.0
C772 C 0.78241 0.85289 0.85118 0.0
C773 C 0.78682 0.86899 0.87454 0.0
C774 C 0.773 0.84827 0.89314 0.0
H775 H 0.30062 0.29601 0.89911 0.0
H776 H 0.27007 0.43233 0.86583 0.0
H777 H 0.23111 0.38654 0.86082 0.0
H778 H 0.27428 0.20397 0.86337 0.0
H779 H 0.26763 0.15742 0.88604 0.0
H780 H 0.29244 0.20199 0.88975 0.0
H781 H 0.27404 0.23444 0.92897 0.0
H782 H 0.24947 0.18902 0.92574 0.0
H783 H 0.24298 0.25667 0.92969 0.0
H784 H 0.19963 0.32324 0.85248 0.0
H785 H 0.17123 0.25205 0.84934 0.0
H786 H 0.21853 0.15578 0.89234 0.0
C787 C 0.28559 0.31652 0.8911 0.0
C788 C 0.28846 0.36757 0.88248 0.0
C789 C 0.26834 0.39328 0.87239 0.0
C790 C 0.24619 0.3675 0.86944 0.0
C791 C 0.24439 0.31648 0.87707 0.0
C792 C 0.26318 0.29162 0.88838 0.0
C793 C 0.25629 0.23627 0.8945 0.0
C794 C 0.2737 0.19764 0.88271 0.0
C795 C 0.25564 0.22866 0.92132 0.0
C796 C 0.23096 0.23325 0.88387 0.0
C797 C 0.22489 0.28016 0.87377 0.0
C798 C 0.20378 0.2869 0.86096 0.0
C799 C 0.1878 0.24559 0.85922 0.0
C800 C 0.19215 0.19811 0.87112 0.0
C801 C 0.21449 0.19136 0.88316 0.0
H802 H 0.70868 0.36226 0.67014 0.0
H803 H 0.68869 0.35482 0.59653 0.0
H804 H 0.72013 0.28843 0.58975 0.0
H805 H 0.77602 0.34004 0.66031 0.0
H806 H 0.77848 0.30272 0.68695 0.0
H807 H 0.75646 0.35403 0.68498 0.0
H808 H 0.72298 0.28847 0.69656 0.0
H809 H 0.7447 0.23643 0.69726 0.0
H810 H 0.71827 0.23198 0.67863 0.0
H811 H 0.74952 0.2152 0.59191 0.0
H812 H 0.78299 0.15421 0.60065 0.0
H813 H 0.78568 0.21036 0.67235 0.0
C814 C 0.71181 0.34833 0.65243 0.0
C815 C 0.69669 0.3642 0.63368 0.0
C816 C 0.70052 0.34377 0.61092 0.0
C817 C 0.71808 0.30559 0.607 0.0
C818 C 0.73179 0.28845 0.62604 0.0
C819 C 0.72958 0.31036 0.64814 0.0
C820 C 0.74657 0.28417 0.66552 0.0
C821 C 0.7655 0.32253 0.67499 0.0
C822 C 0.73227 0.25876 0.68568 0.0
C823 C 0.75832 0.24387 0.64978 0.0
C824 C 0.74918 0.2465 0.62718 0.0
C825 C 0.75699 0.21304 0.60949 0.0
C826 C 0.77571 0.17802 0.61466 0.0
C827 C 0.78641 0.17706 0.63723 0.0
C828 C 0.77727 0.20958 0.65513 0.0
H829 H 0.2105 0.86575 0.67078 0.0
H830 H 0.18768 0.85117 0.59816 0.0
H831 H 0.21847 0.78319 0.59174 0.0
H832 H 0.27709 0.84256 0.65887 0.0
H833 H 0.28078 0.80804 0.68615 0.0
H834 H 0.25854 0.85886 0.68397 0.0
H835 H 0.22574 0.79421 0.69822 0.0
H836 H 0.24764 0.74253 0.69918 0.0
H837 H 0.22048 0.73589 0.6817 0.0
H838 H 0.24744 0.70894 0.59465 0.0
H839 H 0.2812 0.6487 0.60355 0.0
H840 H 0.28772 0.71481 0.67325 0.0
C841 C 0.21283 0.84975 0.65332 0.0
C842 C 0.19714 0.8641 0.63477 0.0
C843 C 0.19996 0.84121 0.61236 0.0
C844 C 0.21714 0.80213 0.60866 0.0
C845 C 0.23152 0.78676 0.62755 0.0
C846 C 0.23028 0.81111 0.6492 0.0
C847 C 0.24806 0.787 0.66642 0.0
C848 C 0.26726 0.82648 0.67431 0.0
C849 C 0.23467 0.76352 0.68763 0.0
C850 C 0.25923 0.74528 0.65111 0.0
C851 C 0.24898 0.74503 0.62893 0.0
C852 C 0.25586 0.70918 0.61186 0.0
C853 C 0.27476 0.67466 0.61714 0.0
C854 C 0.28673 0.67707 0.63909 0.0
C855 C 0.27853 0.71196 0.65644 0.0
H856 H 0.09908 1.01613 0.31633 0.0
H857 H 0.1551 0.90067 0.30646 0.0
H858 H 0.1637 0.93567 0.26667 0.0
H859 H 0.07504 1.01967 0.2595 0.0
H860 H 0.07138 0.08874 0.25801 0.0
H861 H 0.07073 0.05665 0.28607 0.0
H862 H 0.1055 0.11535 0.30112 0.0
H863 H 0.10614 0.14796 0.2731 0.0
H864 H 0.13345 0.11915 0.28467 0.0
H865 H 0.16567 0.98332 0.22746 0.0
H866 H 0.16021 0.03778 0.19209 0.0
H867 H 0.10168 0.11994 0.22687 0.0
C868 C 0.11321 0.99852 0.30575 0.0
C869 C 0.12637 0.95557 0.31426 0.0
C870 C 0.14492 0.93371 0.30017 0.0
C871 C 0.1499 0.95336 0.27759 0.0
C872 C 0.13648 0.99559 0.26954 0.0
C873 C 0.1187 1.01833 0.28333 0.0
C874 C 0.10707 0.0636 0.27062 0.0
C875 C 0.07941 0.05669 0.26841 0.0
C876 C 0.11341 0.11452 0.28312 0.0
C877 C 0.11969 0.06033 0.2469 0.0
C878 C 0.13716 1.02194 0.24688 0.0
C879 C 0.15188 1.01313 0.22726 0.0
C880 C 0.14852 0.04399 0.20714 0.0
C881 C 0.13002 0.08201 0.2064 0.0
C882 C 0.11564 0.09046 0.22671 0.0
H883 H 0.83376 0.04249 0.31602 0.0
H884 H 0.89843 0.13556 0.30437 0.0
H885 H 0.90108 0.10431 0.26412 0.0
H886 H 0.85444 0.93234 0.28274 0.0
H887 H 0.8255 0.91732 0.26952 0.0
H888 H 0.8266 0.9495 0.29759 0.0
H889 H 0.79993 1.02315 0.28092 0.0
H890 H 0.79898 0.99132 0.2527 0.0
H891 H 0.80962 0.05688 0.25483 0.0
H892 H 0.89688 0.06917 0.22483 0.0
H893 H 0.8902 1.01627 0.18954 0.0
H894 H 0.83224 0.93421 0.22453 0.0
C895 C 0.84824 0.0566 0.30484 0.0
C896 C 0.86561 0.09265 0.31359 0.0
C897 C 0.88459 0.10894 0.29838 0.0
C898 C 0.8863 0.09148 0.27524 0.0
C899 C 0.86902 0.05698 0.26705 0.0
C900 C 0.85052 0.03869 0.28125 0.0
C901 C 0.83552 0.9989 0.26756 0.0
C902 C 0.83553 0.94639 0.28011 0.0
C903 C 0.80946 1.01873 0.26379 0.0
C904 C 0.84932 0.99661 0.24413 0.0
C905 C 0.86795 0.0322 0.24424 0.0
C906 C 0.88275 0.04015 0.22472 0.0
C907 C 0.87917 1.00947 0.2048 0.0
C908 C 0.86174 0.96978 0.20455 0.0
C909 C 0.846 0.96404 0.22429 0.0
H910 H 0.88082 0.1256 0.72953 0.0
H911 H 0.82886 0.03277 0.691 0.0
H912 H 0.82422 0.97548 0.72548 0.0
H913 H 0.91002 0.03265 0.76378 0.0
H914 H 0.91007 0.06933 0.79075 0.0
H915 H 0.90963 0.10222 0.76288 0.0
H916 H 0.87053 0.15123 0.77523 0.0
H917 H 0.87111 0.11865 0.80324 0.0
H918 H 0.8444 0.1152 0.78497 0.0
H919 H 0.82712 0.92531 0.76387 0.0
H920 H 0.83451 0.89105 0.80402 0.0
H921 H 0.88138 1.02107 0.81907 0.0
C922 C 0.86849 0.09316 0.72838 0.0
C923 C 0.85606 0.08219 0.70716 0.0
C924 C 0.8394 0.04058 0.70666 0.0
C925 C 0.83644 1.00814 0.72629 0.0
C926 C 0.84936 1.01929 0.74679 0.0
C927 C 0.86449 0.06174 0.74819 0.0
C928 C 0.87487 0.06729 0.77284 0.0
C929 C 0.90281 0.06786 0.77252 0.0
C930 C 0.86462 0.11598 0.78477 0.0
C931 C 0.86497 1.0189 0.78446 0.0
C932 C 0.84988 0.99226 0.76926 0.0
C933 C 0.83869 0.94618 0.77596 0.0
C934 C 0.84301 0.92693 0.79873 0.0
C935 C 0.85854 0.95336 0.81444 0.0
C936 C 0.86952 1.00006 0.80726 0.0
H937 H 0.13112 1.01294 0.82124 0.0
H938 H 0.10485 0.16278 0.79858 0.0
H939 H 0.10577 0.13383 0.75737 0.0
H940 H 0.17114 0.98725 0.77018 0.0
H941 H 0.16333 0.91983 0.76839 0.0
H942 H 0.16249 0.95254 0.79637 0.0
H943 H 0.11773 0.92471 0.80202 0.0
H944 H 0.11839 0.89202 0.77404 0.0
H945 H 0.09565 0.94055 0.77971 0.0
H946 H 0.10556 0.08802 0.71919 0.0
H947 H 0.10627 0.02835 0.6857 0.0
H948 H 0.13434 0.90709 0.73041 0.0
C949 C 0.12614 0.03986 0.8075 0.0
C950 C 0.11821 0.0906 0.8132 0.0
C951 C 0.1111 0.12402 0.79473 0.0
C952 C 0.11155 0.1079 0.7712 0.0
C953 C 0.119 0.05777 0.76612 0.0
C954 C 0.12623 0.02403 0.78362 0.0
C955 C 0.13213 0.9713 0.77299 0.0
C956 C 0.15887 0.95689 0.77724 0.0
C957 C 0.11496 0.92969 0.78278 0.0
C958 C 0.12721 0.98112 0.74693 0.0
C959 C 0.11954 0.03133 0.74355 0.0
C960 C 0.1123 0.04911 0.72151 0.0
C961 C 0.11314 1.01503 0.70235 0.0
C962 C 0.12181 0.96401 0.70489 0.0
C963 C 0.12854 0.94658 0.72768 0.0
H964 H 0.60667 0.52864 0.31979 0.0
H965 H 0.64114 0.38467 0.30013 0.0
H966 H 0.64921 0.41947 0.26023 0.0
H967 H 0.57597 0.55635 0.26921 0.0
H968 H 0.58244 0.62454 0.26806 0.0
H969 H 0.58247 0.59154 0.29587 0.0
H970 H 0.62644 0.62246 0.30398 0.0
H971 H 0.62638 0.6564 0.27628 0.0
H972 H 0.64985 0.60994 0.2826 0.0
H973 H 0.65674 0.47424 0.22361 0.0
H974 H 0.65408 0.53504 0.19023 0.0
H975 H 0.60664 0.63421 0.23064 0.0
C976 C 0.61628 0.50496 0.30715 0.0
C977 C 0.62361 0.45429 0.31294 0.0
C978 C 0.63569 0.42379 0.29595 0.0
C979 C 0.64047 0.44337 0.27336 0.0
C980 C 0.63318 0.49368 0.26815 0.0
C981 C 0.62122 0.52402 0.28451 0.0
C982 C 0.61438 0.5759 0.27397 0.0
C983 C 0.58718 0.5877 0.27694 0.0
C984 C 0.63018 0.61872 0.28486 0.0
C985 C 0.62147 0.56736 0.24844 0.0
C986 C 0.63405 0.52149 0.24597 0.0
C987 C 0.64579 0.50882 0.22503 0.0
C988 C 0.64368 0.54285 0.20592 0.0
C989 C 0.62798 0.58606 0.20697 0.0
C990 C 0.61741 0.59945 0.22885 0.0
H991 H 0.385 0.51678 0.31897 0.0
H992 H 0.33904 0.64933 0.30567 0.0
H993 H 0.33026 0.61641 0.26557 0.0
H994 H 0.41224 0.50567 0.2637 0.0
H995 H 0.41126 0.4362 0.26218 0.0
H996 H 0.41221 0.46782 0.29034 0.0
H997 H 0.37286 0.42028 0.30294 0.0
H998 H 0.37184 0.38833 0.27477 0.0
H999 H 0.34609 0.42525 0.28483 0.0
H1000 H 0.32562 0.56687 0.22715 0.0
H1001 H 0.32929 0.51066 0.19217 0.0
H1002 H 0.38202 0.41592 0.22877 0.0
C1003 C 0.37297 0.5385 0.30759 0.0
C1004 C 0.36259 0.58546 0.31526 0.0
C1005 C 0.34694 0.61306 0.30005 0.0
C1006 C 0.34185 0.59459 0.27731 0.0
C1007 C 0.35237 0.54812 0.27015 0.0
C1008 C 0.36758 0.52038 0.28486 0.0
C1009 C 0.37688 0.47208 0.27268 0.0
C1010 C 0.40481 0.47041 0.27219 0.0
C1011 C 0.36631 0.42362 0.28451 0.0
C1012 C 0.36621 0.47918 0.24827 0.0
C1013 C 0.35121 0.52196 0.24751 0.0
C1014 C 0.33782 0.53407 0.22741 0.0
C1015 C 0.34027 0.50234 0.20748 0.0
C1016 C 0.35699 0.46076 0.20725 0.0
C1017 C 0.36975 0.44859 0.22814 0.0
H1018 H 0.35464 0.53107 0.82137 0.0
H1019 H 0.37392 0.37633 0.79919 0.0
H1020 H 0.37267 0.40393 0.75769 0.0
H1021 H 0.31444 0.56246 0.7708 0.0
H1022 H 0.32489 0.6282 0.7688 0.0
H1023 H 0.32475 0.59566 0.79683 0.0
H1024 H 0.37051 0.61544 0.80189 0.0
H1025 H 0.37084 0.64789 0.77388 0.0
H1026 H 0.39165 0.59549 0.77939 0.0
H1027 H 0.37092 0.44788 0.71856 0.0
H1028 H 0.37086 0.50715 0.68446 0.0
H1029 H 0.35499 0.63559 0.73072 0.0
C1030 C 0.35792 0.50284 0.80771 0.0
C1031 C 0.36384 0.45108 0.81355 0.0
C1032 C 0.36899 0.41584 0.79516 0.0
C1033 C 0.36834 0.43119 0.77149 0.0
C1034 C 0.36278 0.48237 0.76625 0.0
C1035 C 0.35776 0.51789 0.78377 0.0
C1036 C 0.35401 0.57135 0.77313 0.0
C1037 C 0.32797 0.59055 0.77766 0.0
C1038 C 0.37288 0.6098 0.78264 0.0
C1039 C 0.35808 0.56025 0.74706 0.0
C1040 C 0.3627 0.50841 0.74354 0.0
C1041 C 0.3671 0.48847 0.72111 0.0
C1042 C 0.36684 0.52228 0.70177 0.0
C1043 C 0.36247 0.57555 0.70486 0.0
C1044 C 0.35815 0.59482 0.72786 0.0
H1045 H 0.58922 0.55754 0.81056 0.0
H1046 H 0.66169 0.62292 0.80987 0.0
H1047 H 0.66916 0.58423 0.77068 0.0
H1048 H 0.6086 0.43582 0.78385 0.0
H1049 H 0.5806 0.42699 0.76791 0.0
H1050 H 0.58059 0.46166 0.7954 0.0
H1051 H 0.56053 0.54012 0.77486 0.0
H1052 H 0.56056 0.50585 0.74729 0.0
H1053 H 0.57492 0.56817 0.74938 0.0
H1054 H 0.6682 0.54051 0.73095 0.0
H1055 H 0.66049 0.48823 0.69537 0.0
H1056 H 0.58964 0.44579 0.72273 0.0
C1057 C 0.60654 0.56396 0.80197 0.0
C1058 C 0.62475 0.59398 0.81292 0.0
C1059 C 0.64748 0.60037 0.80162 0.0
C1060 C 0.65185 0.57862 0.77937 0.0
C1061 C 0.63352 0.54936 0.76892 0.0
C1062 C 0.61149 0.54111 0.78004 0.0
C1063 C 0.59554 0.50517 0.76565 0.0
C1064 C 0.59107 0.45441 0.779 0.0
C1065 C 0.57146 0.53143 0.75889 0.0
C1066 C 0.61157 0.4963 0.74428 0.0
C1067 C 0.63343 0.52209 0.74656 0.0
C1068 C 0.6512 0.51989 0.72908 0.0
C1069 C 0.64664 0.49015 0.7089 0.0
C1070 C 0.62448 0.4629 0.70627 0.0
C1071 C 0.60674 0.46622 0.72423 0.0
H1072 H 0.1484 0.18285 0.96087 0.0
H1073 H 0.09717 0.0603 0.94598 0.0
H1074 H 0.08804 0.05237 0.98842 0.0
H1075 H 0.1738 0.13636 0.01148 0.0
H1076 H 0.17494 0.19637 0.02752 0.0
H1077 H 0.17515 0.19693 0.9959 0.0
H1078 H 0.13746 0.25691 0.99573 0.0
H1079 H 0.13715 0.25657 0.02747 0.0
H1080 H 0.11042 0.2377 0.01133 0.0
H1081 H 0.08754 0.05164 0.03262 0.0
H1082 H 0.09624 0.05731 0.07526 0.0
H1083 H 0.14761 0.18049 0.06213 0.0
C1084 C 0.13483 0.15536 0.96661 0.0
C1085 C 0.12322 0.12261 0.95021 0.0
C1086 C 0.10585 0.08643 0.95826 0.0
C1087 C 0.10059 0.08161 0.98234 0.0
C1088 C 0.11244 0.11411 0.99817 0.0
C1089 C 0.12892 0.15088 0.99064 0.0
C1090 C 0.1396 0.17985 0.01147 0.0
C1091 C 0.16753 0.17714 0.01159 0.0
C1092 C 0.13064 0.2361 0.0115 0.0
C1093 C 0.12847 0.15015 0.03185 0.0
C1094 C 0.11212 0.11373 0.02377 0.0
C1095 C 0.09994 0.08068 0.03915 0.0
C1096 C 0.10488 0.08431 0.06335 0.0
C1097 C 0.12215 0.12004 0.07192 0.0
C1098 C 0.13391 0.15368 0.05599 0.0
H1099 H 0.8462 0.85918 0.96036 0.0
H1100 H 0.87725 1.0096 0.94639 0.0
H1101 H 0.88618 1.02052 0.98871 0.0
H1102 H 0.8164 0.88659 0.01148 0.0
H1103 H 0.82352 0.82802 0.02718 0.0
H1104 H 0.82306 0.82803 0.99556 0.0
H1105 H 0.86722 0.79343 0.99463 0.0
H1106 H 0.86779 0.79298 0.02637 0.0
H1107 H 0.89072 0.82771 0.01021 0.0
H1108 H 0.88738 1.01992 0.03245 0.0
H1109 H 0.88029 1.00833 0.07506 0.0
H1110 H 0.84821 0.85859 0.06179 0.0
C1111 C 0.8555 0.89363 0.96627 0.0
C1112 C 0.86134 0.93341 0.95025 0.0
C1113 C 0.87302 0.9785 0.95847 0.0
C1114 C 0.87817 0.98498 0.98244 0.0
C1115 C 0.87186 0.94558 0.99797 0.0
C1116 C 0.86108 0.90042 0.99026 0.0
C1117 C 0.85501 0.86553 0.01096 0.0
C1118 C 0.82788 0.85126 0.01131 0.0
C1119 C 0.87113 0.81703 0.01051 0.0
C1120 C 0.86189 0.90019 0.03148 0.0
C1121 C 0.87244 0.94535 0.0235 0.0
C1122 C 0.87961 0.9843 0.03892 0.0
C1123 C 0.87561 0.97735 0.06308 0.0
C1124 C 0.86421 0.93221 0.07162 0.0
C1125 C 0.85747 0.8929 0.05566 0.0
H1126 H 0.13677 0.99393 0.45928 0.0
H1127 H 0.10964 0.84007 0.44588 0.0
H1128 H 0.10428 0.82665 0.4891 0.0
H1129 H 0.17074 0.96557 0.50977 0.0
H1130 H 0.1637 0.02602 0.5239 0.0
H1131 H 0.16421 1.02199 0.49232 0.0
H1132 H 0.11994 0.05682 0.49044 0.0
H1133 H 0.11932 0.06142 0.52203 0.0
H1134 H 0.09639 0.02457 0.50687 0.0
H1135 H 0.1046 0.83209 0.53641 0.0
H1136 H 0.1083 0.85756 0.57874 0.0
H1137 H 0.13404 1.00809 0.55688 0.0
C1138 C 0.12951 0.95743 0.46536 0.0
C1139 C 0.12362 0.91803 0.44941 0.0
C1140 C 0.11406 0.87092 0.45798 0.0
C1141 C 0.11112 0.86298 0.48247 0.0
C1142 C 0.11757 0.90287 0.4979 0.0
C1143 C 0.1263 0.94932 0.48933 0.0
C1144 C 0.13208 0.98682 0.50866 0.0
C1145 C 0.15929 1.00088 0.50865 0.0
C1146 C 0.11597 0.03525 0.50689 0.0
C1147 C 0.12548 0.9547 0.52972 0.0
C1148 C 0.11723 0.90617 0.52366 0.0
C1149 C 0.11085 0.87031 0.54112 0.0
C1150 C 0.11297 0.88495 0.56511 0.0
C1151 C 0.12131 0.93495 0.57115 0.0
C1152 C 0.12744 0.96964 0.55305 0.0
H1153 H 0.84238 0.1843 0.56261 0.0
H1154 H 0.88842 0.05196 0.57605 0.0
H1155 H 0.89626 0.04312 0.53339 0.0
H1156 H 0.81372 0.14373 0.51333 0.0
H1157 H 0.81453 0.20324 0.49691 0.0
H1158 H 0.81562 0.20475 0.52851 0.0
H1159 H 0.85574 0.25679 0.52695 0.0
H1160 H 0.85467 0.25577 0.49523 0.0
H1161 H 0.88114 0.23198 0.51041 0.0
H1162 H 0.89494 0.04169 0.48936 0.0
H1163 H 0.88523 0.04896 0.44699 0.0
H1164 H 0.84006 0.18234 0.46127 0.0
C1165 C 0.8549 0.15489 0.55653 0.0
C1166 C 0.86535 0.11956 0.57259 0.0
C1167 C 0.88091 0.0803 0.56406 0.0
C1168 C 0.88534 0.07486 0.53985 0.0
C1169 C 0.87444 0.10963 0.52435 0.0
C1170 C 0.85993 0.14962 0.53234 0.0
C1171 C 0.84963 0.18019 0.51176 0.0
C1172 C 0.82172 0.18307 0.5127 0.0
C1173 C 0.86096 0.23441 0.51105 0.0
C1174 C 0.85852 0.148 0.49111 0.0
C1175 C 0.87356 0.10862 0.49878 0.0
C1176 C 0.88358 0.07295 0.48314 0.0
C1177 C 0.87801 0.07737 0.45913 0.0
C1178 C 0.86219 0.1165 0.45096 0.0
C1179 C 0.85245 0.15247 0.46713 0.0
H1180 H 0.62664 0.67596 0.064 0.0
H1181 H 0.61287 0.51139 0.07003 0.0
H1182 H 0.61067 0.50392 0.02741 0.0
H1183 H 0.58345 0.68725 1.01001 0.0
H1184 H 0.60164 0.73672 0.9964 0.0
H1185 H 0.59986 0.73253 0.02805 0.0
H1186 H 0.64673 0.72688 0.03035 0.0
H1187 H 0.64861 0.73088 0.99879 0.0
H1188 H 0.66246 0.67735 0.01401 0.0
H1189 H 0.61516 0.50851 0.98557 0.0
H1190 H 0.62208 0.52794 0.94384 0.0
H1191 H 0.63057 0.69027 0.9606 0.0
C1192 C 0.62214 0.639 0.05628 0.0
C1193 C 0.61987 0.59415 0.0706 0.0
C1194 C 0.61462 0.54629 0.05966 0.0
C1195 C 0.61336 0.54145 0.03532 0.0
C1196 C 0.61654 0.58518 0.02165 0.0
C1197 C 0.62011 0.63347 0.03143 0.0
C1198 C 0.62275 0.67334 0.01168 0.0
C1199 C 0.60063 0.70965 0.01153 0.0
C1200 C 0.64658 0.70388 0.01385 0.0
C1201 C 0.62257 0.6387 0.98982 0.0
C1202 C 0.61831 0.58821 0.99633 0.0
C1203 C 0.61792 0.54805 0.98008 0.0
C1204 C 0.62187 0.55943 0.9564 0.0
C1205 C 0.62644 0.61048 0.94893 0.0
C1206 C 0.62666 0.65098 0.96583 0.0
H1207 H 0.34449 0.3607 0.96104 0.0
H1208 H 0.38345 0.50267 0.94732 0.0
H1209 H 0.39206 0.51207 0.9898 0.0
H1210 H 0.31549 0.395 0.01191 0.0
H1211 H 0.31944 0.33505 0.02756 0.0
H1212 H 0.31933 0.33538 0.99594 0.0
H1213 H 0.36148 0.29084 0.99546 0.0
H1214 H 0.36172 0.29024 0.02721 0.0
H1215 H 0.38642 0.31956 0.01126 0.0
H1216 H 0.39272 0.51118 0.03369 0.0
H1217 H 0.38454 0.50128 0.07622 0.0
H1218 H 0.34498 0.36008 0.06245 0.0
C1219 C 0.35542 0.39284 0.96705 0.0
C1220 C 0.36372 0.43059 0.95102 0.0
C1221 C 0.37746 0.47287 0.95937 0.0
C1222 C 0.38239 0.4785 0.98344 0.0
C1223 C 0.3738 0.441 0.99894 0.0
C1224 C 0.36087 0.39858 0.99111 0.0
C1225 C 0.35283 0.36529 0.01172 0.0
C1226 C 0.32512 0.35728 0.01178 0.0
C1227 C 0.36641 0.3134 0.01139 0.0
C1228 C 0.3612 0.39814 0.03234 0.0
C1229 C 0.37408 0.44062 0.0245 0.0
C1230 C 0.38309 0.47758 0.04005 0.0
C1231 C 0.37846 0.47156 0.06417 0.0
C1232 C 0.36463 0.42943 0.07254 0.0
C1233 C 0.35612 0.39193 0.05647 0.0
H1234 H 0.64774 0.49158 0.46195 0.0
H1235 H 0.60115 0.36342 0.44331 0.0
H1236 H 0.59657 0.34231 0.48611 0.0
H1237 H 0.67862 0.43366 0.51068 0.0
H1238 H 0.67942 0.49384 0.52656 0.0
H1239 H 0.67953 0.49396 0.4949 0.0
H1240 H 0.64141 0.55336 0.4948 0.0
H1241 H 0.64115 0.55334 0.52641 0.0
H1242 H 0.61451 0.53324 0.51042 0.0
H1243 H 0.59633 0.34196 0.53437 0.0
H1244 H 0.60047 0.36259 0.57727 0.0
H1245 H 0.64722 0.49101 0.55934 0.0
C1246 C 0.63666 0.4586 0.46661 0.0
C1247 C 0.62478 0.42929 0.44924 0.0
C1248 C 0.61055 0.3864 0.45635 0.0
C1249 C 0.60785 0.37433 0.48065 0.0
C1250 C 0.61964 0.40534 0.49743 0.0
C1251 C 0.63387 0.44642 0.49027 0.0
C1252 C 0.64411 0.47628 0.51064 0.0
C1253 C 0.67207 0.47427 0.51069 0.0
C1254 C 0.63473 0.53233 0.51056 0.0
C1255 C 0.63361 0.4462 0.53081 0.0
C1256 C 0.61948 0.40519 0.52342 0.0
C1257 C 0.60753 0.37395 0.54002 0.0
C1258 C 0.60999 0.38574 0.56437 0.0
C1259 C 0.62412 0.42858 0.57171 0.0
C1260 C 0.63618 0.45808 0.55451 0.0
H1261 H 0.34837 0.69328 0.562 0.0
H1262 H 0.37936 0.54245 0.57539 0.0
H1263 H 0.3872 0.53115 0.53289 0.0
H1264 H 0.31745 0.66641 0.51148 0.0
H1265 H 0.32444 0.7249 0.49569 0.0
H1266 H 0.32458 0.72479 0.52732 0.0
H1267 H 0.36889 0.75866 0.52738 0.0
H1268 H 0.36885 0.75909 0.49563 0.0
H1269 H 0.39196 0.72391 0.51135 0.0
H1270 H 0.38743 0.53176 0.48905 0.0
H1271 H 0.3799 0.5442 0.44657 0.0
H1272 H 0.34865 0.69453 0.46065 0.0
C1273 C 0.35758 0.65881 0.55594 0.0
C1274 C 0.36381 0.61915 0.57188 0.0
C1275 C 0.37511 0.57373 0.56342 0.0
C1276 C 0.37954 0.56695 0.53933 0.0
C1277 C 0.37294 0.60636 0.52391 0.0
C1278 C 0.36253 0.65179 0.53185 0.0
C1279 C 0.35613 0.6868 0.5113 0.0
C1280 C 0.32903 0.70153 0.51147 0.0
C1281 C 0.37241 0.73499 0.51143 0.0
C1282 C 0.36248 0.6521 0.49065 0.0
C1283 C 0.37295 0.6066 0.49838 0.0
C1284 C 0.37973 0.56765 0.48278 0.0
C1285 C 0.37548 0.57509 0.4587 0.0
C1286 C 0.36421 0.6207 0.45045 0.0
C1287 C 0.35779 0.65987 0.46657 0.0
H1288 H 0.94633 0.97036 0.10808 0.0
H1289 H 0.92747 1.00869 0.18001 0.0
H1290 H 0.96847 0.04146 0.18687 0.0
H1291 H 0.00782 0.92773 0.12021 0.0
H1292 H 0.02079 0.95557 0.094 0.0
H1293 H 0.98944 0.93548 0.09417 0.0
H1294 H 0.97642 0.0271 0.08117 0.0
H1295 H 0.00772 0.04761 0.08118 0.0
H1296 H 0.98554 0.08207 0.09847 0.0
H1297 H 0.01053 0.07079 0.18661 0.0
H1298 H 0.05347 0.0933 0.1794 0.0
H1299 H 0.04778 0.0354 0.10804 0.0
C1300 C 0.95094 0.98604 0.12517 0.0
C1301 C 0.93336 0.98878 0.14336 0.0
C1302 C 0.94006 1.00857 0.16556 0.0
C1303 C 0.96354 0.02665 0.16972 0.0
C1304 C 0.98031 0.02456 0.15148 0.0
C1305 C 0.97453 1.00473 0.12962 0.0
C1306 C -0.00356 1.00737 0.11326 0.0
C1307 C 0.00406 0.9533 0.10493 0.0
C1308 C 0.99122 0.04317 0.09228 0.0
C1309 C 0.01537 0.03062 0.12966 0.0
C1310 C 0.00539 0.04052 0.15152 0.0
C1311 C 0.01871 0.0628 0.16968 0.0
C1312 C 0.04303 0.07522 0.16549 0.0
C1313 C 0.05383 0.06479 0.14348 0.0
C1314 C 0.03991 0.04244 0.12522 0.0
H1315 H 0.93705 0.02526 0.41135 0.0
H1316 H 0.93127 0.09568 0.34246 0.0
H1317 H 0.97441 0.07482 0.33446 0.0
H1318 H -0.00185 0.06941 0.42324 0.0
H1319 H 0.00703 1.01137 0.43844 0.0
H1320 H 0.97568 0.03157 0.43856 0.0
H1321 H 0.96305 0.94263 0.42173 0.0
H1322 H -0.00563 0.92232 0.42138 0.0
H1323 H 0.9766 0.91997 0.39475 0.0
H1324 H 0.01826 0.0508 0.33475 0.0
H1325 H 0.06009 1.01976 0.34228 0.0
H1326 H 0.03736 0.96024 0.41008 0.0
C1327 C 0.94491 0.03535 0.3945 0.0
C1328 C 0.93105 0.06107 0.37726 0.0
C1329 C 0.94176 0.07518 0.35562 0.0
C1330 C 0.96618 0.06373 0.351 0.0
C1331 C 0.97953 0.03837 0.36831 0.0
C1332 C 0.96933 0.02412 0.38959 0.0
C1333 C 0.9879 0.99777 0.40522 0.0
C1334 C 0.99245 0.02942 0.42769 0.0
C1335 C 0.98001 0.94237 0.4111 0.0
C1336 C 0.00996 0.99864 0.38922 0.0
C1337 C 0.0048 1.02312 0.36819 0.0
C1338 C 0.02252 0.0313 0.35107 0.0
C1339 C 0.04619 1.01392 0.35553 0.0
C1340 C 0.05172 0.98791 0.3767 0.0
C1341 C 0.03339 0.97982 0.39369 0.0
H1342 H 0.03818 0.08326 0.85574 0.0
H1343 H 0.06296 1.01036 0.92003 0.0
H1344 H 0.02134 0.97787 0.9274 0.0
H1345 H 0.97927 0.12236 0.87421 0.0
H1346 H 0.96406 0.10537 0.84722 0.0
H1347 H -0.00427 0.12292 0.84675 0.0
H1348 H 0.00613 0.03638 0.82632 0.0
H1349 H 0.97447 1.01854 0.82675 0.0
H1350 H -0.00313 0.97658 0.83978 0.0
H1351 H 0.97774 0.95564 0.92848 0.0
H1352 H 0.9342 0.93862 0.92212 0.0
H1353 H 0.93668 1.02331 0.85633 0.0
C1354 C 0.03474 0.0598 0.87115 0.0
C1355 C 0.05358 0.04849 0.88728 0.0
C1356 C 0.04872 1.01828 0.90736 0.0
C1357 C 0.02517 1.00014 0.91174 0.0
C1358 C 0.00689 1.01198 0.89561 0.0
C1359 C 0.01139 0.04033 0.8755 0.0
C1360 C 0.98851 0.04561 0.86066 0.0
C1361 C 0.9815 0.10247 0.85702 0.0
C1362 C 0.99168 1.01762 0.83698 0.0
C1363 C 0.97023 1.01797 0.87619 0.0
C1364 C 0.98142 0.99857 0.89612 0.0
C1365 C 0.96875 0.97062 0.91299 0.0
C1366 C 0.94404 0.96137 0.90926 0.0
C1367 C 0.93212 0.98041 0.88896 0.0
C1368 C 0.94529 1.00952 0.87227 0.0
H1369 H 0.93768 0.02608 0.61135 0.0
H1370 H 0.93619 0.10674 0.67816 0.0
H1371 H 0.97943 0.08558 0.68454 0.0
H1372 H 0.97821 0.92284 0.62751 0.0
H1373 H -0.00495 0.92292 0.60028 0.0
H1374 H 0.96378 0.94365 0.60065 0.0
H1375 H 0.97598 0.03103 0.58207 0.0
H1376 H 0.00726 1.01032 0.58139 0.0
H1377 H -0.00087 0.06962 0.59596 0.0
H1378 H 0.02216 0.0584 0.68377 0.0
H1379 H 0.06338 0.02562 0.67604 0.0
H1380 H 0.03897 0.96042 0.60984 0.0
C1381 C 0.9465 0.03833 0.62744 0.0
C1382 C 0.93365 0.06697 0.64461 0.0
C1383 C 0.94578 0.08409 0.66507 0.0
C1384 C 0.97029 0.07242 0.66879 0.0
C1385 C 0.98258 0.04422 0.65166 0.0
C1386 C 0.9713 0.0276 0.63129 0.0
C1387 C 0.98934 0.99959 0.61546 0.0
C1388 C 0.98111 0.94392 0.61071 0.0
C1389 C -0.00686 0.02941 0.59235 0.0
C1390 C 0.01214 1.00138 0.63063 0.0
C1391 C 0.00774 0.02823 0.65121 0.0
C1392 C 0.02589 0.03733 0.66773 0.0
C1393 C 0.04929 1.01883 0.66312 0.0
C1394 C 0.05437 0.99086 0.64234 0.0
C1395 C 0.03549 0.98153 0.62594 0.0
H1396 H 0.43724 0.52553 0.16544 0.0
H1397 H 0.4361 0.43172 0.10229 0.0
H1398 H 0.47922 0.45234 0.0949 0.0
H1399 H 0.4772 0.62568 0.14504 0.0
H1400 H 0.49382 0.63109 0.17227 0.0
H1401 H 0.46264 0.60994 0.17255 0.0
H1402 H 0.47506 0.52665 0.19467 0.0
H1403 H 0.50627 0.54774 0.19465 0.0
H1404 H 0.49841 0.48578 0.18247 0.0
H1405 H 0.52252 0.47996 0.09486 0.0
H1406 H 0.5637 0.51543 0.10183 0.0
H1407 H 0.53754 0.59287 0.16452 0.0
C1408 C 0.44607 0.51026 0.14989 0.0
C1409 C 0.43339 0.47778 0.13419 0.0
C1410 C 0.44557 0.45701 0.11439 0.0
C1411 C 0.47003 0.4684 0.11007 0.0
C1412 C 0.48221 0.50006 0.12592 0.0
C1413 C 0.47076 0.52057 0.1455 0.0
C1414 C 0.48853 0.5517 0.16019 0.0
C1415 C 0.48004 0.60796 0.16264 0.0
C1416 C 0.49228 0.52647 0.18443 0.0
C1417 C 0.51136 0.54721 0.14526 0.0
C1418 C 0.50737 0.51635 0.12582 0.0
C1419 C 0.52589 0.50429 0.10997 0.0
C1420 C 0.54919 0.52428 0.11409 0.0
C1421 C 0.55358 0.55651 0.13365 0.0
C1422 C 0.53444 0.56842 0.14935 0.0
H1423 H 0.44294 0.55105 0.35219 0.0
H1424 H 0.42842 0.55319 0.42709 0.0
H1425 H 0.47102 0.52796 0.43509 0.0
H1426 H 0.48335 0.4405 0.35256 0.0
H1427 H 0.50356 0.46618 0.33051 0.0
H1428 H 0.47192 0.48422 0.33052 0.0
H1429 H 0.48381 0.58079 0.33227 0.0
H1430 H 0.51549 0.56305 0.33212 0.0
H1431 H 0.50363 0.60309 0.35539 0.0
H1432 H 0.51437 0.50182 0.43507 0.0
H1433 H 0.55686 0.47553 0.42699 0.0
H1434 H 0.54418 0.49207 0.35214 0.0
C1435 C 0.44874 0.54481 0.37018 0.0
C1436 C 0.4325 0.55186 0.3891 0.0
C1437 C 0.44062 0.54585 0.41249 0.0
C1438 C 0.46475 0.53217 0.41715 0.0
C1439 C 0.48043 0.52514 0.39817 0.0
C1440 C 0.47285 0.53117 0.37513 0.0
C1441 C 0.49356 0.52141 0.35806 0.0
C1442 C 0.48776 0.47532 0.34197 0.0
C1443 C 0.49946 0.57 0.34362 0.0
C1444 C 0.51388 0.50883 0.37515 0.0
C1445 C 0.50584 0.51133 0.39818 0.0
C1446 C 0.52098 0.50009 0.41715 0.0
C1447 C 0.54498 0.48541 0.41246 0.0
C1448 C 0.55354 0.48292 0.38908 0.0
C1449 C 0.53794 0.49488 0.37018 0.0
H1450 H 0.4459 0.4768 0.85177 0.0
H1451 H 0.42621 0.50765 0.92425 0.0
H1452 H 0.46776 0.53989 0.93207 0.0
H1453 H 0.50692 0.43311 0.86244 0.0
H1454 H 0.51969 0.46397 0.83684 0.0
H1455 H 0.48833 0.44406 0.83679 0.0
H1456 H 0.47527 0.53727 0.82623 0.0
H1457 H 0.50661 0.55749 0.82642 0.0
H1458 H 0.48469 0.59001 0.84477 0.0
H1459 H 0.51048 0.56984 0.932 0.0
H1460 H 0.55322 0.59407 0.92444 0.0
H1461 H 0.54657 0.54157 0.85232 0.0
C1462 C 0.45045 0.4909 0.86916 0.0
C1463 C 0.43306 0.49082 0.88743 0.0
C1464 C 0.4394 0.50851 0.91008 0.0
C1465 C 0.46289 0.5266 0.91465 0.0
C1466 C 0.47972 0.52654 0.89633 0.0
C1467 C 0.47391 0.50922 0.87402 0.0
C1468 C 0.49559 0.51354 0.85758 0.0
C1469 C 0.50306 0.46049 0.84785 0.0
C1470 C 0.49022 0.55186 0.83757 0.0
C1471 C 0.51461 0.53466 0.87433 0.0
C1472 C 0.50486 0.54247 0.89649 0.0
C1473 C 0.51842 0.56341 0.91483 0.0
C1474 C 0.54262 0.57684 0.91042 0.0
C1475 C 0.55309 0.56833 0.88806 0.0
C1476 C 0.539 0.54695 0.86975 0.0
H1477 H 0.44549 0.57141 0.67061 0.0
H1478 H 0.42467 0.53979 0.59854 0.0
H1479 H 0.46628 0.50839 0.59 0.0
H1480 H 0.50649 0.6152 0.65916 0.0
H1481 H 0.51952 0.5841 0.68458 0.0
H1482 H 0.48817 0.60422 0.68501 0.0
H1483 H 0.47519 0.51104 0.69561 0.0
H1484 H 0.5065 0.49056 0.69502 0.0
H1485 H 0.48434 0.45837 0.67688 0.0
H1486 H 0.50931 0.47835 0.5895 0.0
H1487 H 0.5521 0.45342 0.5967 0.0
H1488 H 0.54615 0.50631 0.6688 0.0
C1489 C 0.44981 0.55744 0.65314 0.0
C1490 C 0.43205 0.55701 0.63522 0.0
C1491 C 0.43811 0.53931 0.61247 0.0
C1492 C 0.46165 0.52171 0.60748 0.0
C1493 C 0.47883 0.52208 0.6255 0.0
C1494 C 0.47329 0.53939 0.64789 0.0
C1495 C 0.49517 0.53483 0.66406 0.0
C1496 C 0.50277 0.58776 0.67376 0.0
C1497 C 0.48999 0.49642 0.68408 0.0
C1498 C 0.51401 0.51363 0.64708 0.0
C1499 C 0.50403 0.50596 0.62502 0.0
C1500 C 0.51741 0.48471 0.60659 0.0
C1501 C 0.54165 0.47083 0.61079 0.0
C1502 C 0.55236 0.47923 0.63306 0.0
C1503 C 0.53843 0.50095 0.65144 0.0
H1504 H 0.13203 0.72995 0.16712 0.0
H1505 H 0.1148 0.75335 0.09324 0.0
H1506 H 0.11274 0.6595 0.08759 0.0
H1507 H 0.16862 0.62037 0.16171 0.0
H1508 H 0.15682 0.58675 0.18702 0.0
H1509 H 0.15602 0.65616 0.18606 0.0
H1510 H 0.10953 0.65516 0.19308 0.0
H1511 H 0.11023 0.58569 0.19441 0.0
H1512 H 0.09031 0.61774 0.17391 0.0
H1513 H 0.11536 0.56449 0.08881 0.0
H1514 H 0.11803 0.47192 0.09771 0.0
H1515 H 0.13175 0.50768 0.17121 0.0
C1516 C 0.12732 0.71553 0.14985 0.0
C1517 C 0.12407 0.74949 0.13051 0.0
C1518 C 0.1181 0.7285 0.10821 0.0
C1519 C 0.11669 0.67512 0.10483 0.0
C1520 C 0.12076 0.64293 0.124 0.0
C1521 C 0.12543 0.6621 0.1462 0.0
C1522 C 0.12881 0.61845 0.16377 0.0
C1523 C 0.15408 0.62058 0.17531 0.0
C1524 C 0.10851 0.61931 0.18239 0.0
C1525 C 0.12635 0.57197 0.14766 0.0
C1526 C 0.12159 0.58725 0.12485 0.0
C1527 C 0.11896 0.5519 0.10662 0.0
C1528 C 0.12083 0.49931 0.11183 0.0
C1529 C 0.12538 0.48223 0.13511 0.0
C1530 C 0.12821 0.51934 0.15325 0.0
H1531 H 0.87074 0.3217 0.10976 0.0
H1532 H 0.83949 0.29097 0.17852 0.0
H1533 H 0.83581 0.38407 0.18575 0.0
H1534 H 0.90603 0.43289 0.12763 0.0
H1535 H 0.90097 0.46847 0.10082 0.0
H1536 H 0.9008 0.39898 0.1004 0.0
H1537 H 0.85791 0.40017 0.08177 0.0
H1538 H 0.85784 0.4697 0.08232 0.0
H1539 H 0.83364 0.43435 0.09635 0.0
H1540 H 0.8345 0.47865 0.18591 0.0
H1541 H 0.83893 0.57223 0.1804 0.0
H1542 H 0.87261 0.54556 0.1123 0.0
C1543 C 0.86317 0.33475 0.12631 0.0
C1544 C 0.85566 0.2989 0.14372 0.0
C1545 C 0.84583 0.3175 0.16515 0.0
C1546 C 0.84342 0.37039 0.16934 0.0
C1547 C 0.85094 0.40461 0.15198 0.0
C1548 C 0.86084 0.38792 0.13095 0.0
C1549 C 0.8681 0.43374 0.11574 0.0
C1550 C 0.89561 0.4335 0.11087 0.0
C1551 C 0.8535 0.43452 0.09268 0.0
C1552 C 0.86088 0.47842 0.1317 0.0
C1553 C 0.85075 0.46034 0.15233 0.0
C1554 C 0.84259 0.49344 0.16992 0.0
C1555 C 0.84533 0.54661 0.16668 0.0
C1556 C 0.85643 0.56655 0.1461 0.0
C1557 C 0.86392 0.53175 0.12819 0.0
H1558 H 0.11797 0.32019 0.41141 0.0
H1559 H 0.14253 0.28835 0.34021 0.0
H1560 H 0.14571 0.38127 0.33255 0.0
H1561 H 0.08158 0.43201 0.39703 0.0
H1562 H 0.08958 0.46758 0.42315 0.0
H1563 H 0.08954 0.39811 0.42364 0.0
H1564 H 0.13418 0.39862 0.43795 0.0
H1565 H 0.13443 0.46815 0.43725 0.0
H1566 H 0.1569 0.43218 0.42099 0.0
H1567 H 0.14774 0.47586 0.33228 0.0
H1568 H 0.14393 0.56946 0.33787 0.0
H1569 H 0.11616 0.5441 0.40852 0.0
C1570 C 0.12399 0.33289 0.39422 0.0
C1571 C 0.12975 0.29663 0.37631 0.0
C1572 C 0.13751 0.31499 0.35406 0.0
C1573 C 0.13967 0.36784 0.3496 0.0
C1574 C 0.13402 0.40235 0.36752 0.0
C1575 C 0.12608 0.386 0.38933 0.0
C1576 C 0.12057 0.43213 0.4051 0.0
C1577 C 0.09372 0.43246 0.41266 0.0
C1578 C 0.13753 0.43279 0.4266 0.0
C1579 C 0.12626 0.47658 0.38846 0.0
C1580 C 0.13442 0.45812 0.36708 0.0
C1581 C 0.14109 0.49092 0.34883 0.0
C1582 C 0.13871 0.54416 0.35216 0.0
C1583 C 0.12928 0.56454 0.37343 0.0
C1584 C 0.12348 0.53004 0.39204 0.0
H1585 H 0.84199 0.50191 0.40438 0.0
H1586 H 0.88914 0.4779 0.34396 0.0
H1587 H 0.89403 0.57152 0.33979 0.0
H1588 H 0.81149 0.61495 0.38343 0.0
H1589 H 0.81102 0.64721 0.41153 0.0
H1590 H 0.81132 0.57782 0.41026 0.0
H1591 H 0.84972 0.5764 0.43656 0.0
H1592 H 0.84967 0.64592 0.43768 0.0
H1593 H 0.87631 0.61193 0.4276 0.0
H1594 H 0.89545 0.66646 0.3425 0.0
H1595 H 0.88979 0.75911 0.34936 0.0
H1596 H 0.83989 0.72462 0.40665 0.0
C1597 C 0.85335 0.51635 0.39029 0.0
C1598 C 0.86489 0.4821 0.37429 0.0
C1599 C 0.87957 0.50291 0.3561 0.0
C1600 C 0.88276 0.55619 0.35373 0.0
C1601 C 0.87128 0.58865 0.36974 0.0
C1602 C 0.85674 0.56984 0.3876 0.0
C1603 C 0.84633 0.61392 0.40215 0.0
C1604 C 0.81838 0.61344 0.4018 0.0
C1605 C 0.85609 0.61191 0.4275 0.0
C1606 C 0.85657 0.66019 0.389 0.0
C1607 C 0.87141 0.6444 0.37079 0.0
C1608 C 0.88355 0.67944 0.35647 0.0
C1609 C 0.87998 0.73222 0.3604 0.0
C1610 C 0.86387 0.74997 0.37816 0.0
C1611 C 0.85237 0.713 0.39291 0.0
H1612 H 0.83578 0.32065 0.90389 0.0
H1613 H 0.8964 0.28658 0.85722 0.0
H1614 H 0.90276 0.37924 0.85105 0.0
H1615 H 0.81192 0.42784 0.87478 0.0
H1616 H 0.80571 0.4658 0.90068 0.0
H1617 H 0.80597 0.39646 0.90251 0.0
H1618 H 0.83826 0.40035 0.93554 0.0
H1619 H 0.83789 0.46982 0.93404 0.0
H1620 H 0.86613 0.43526 0.93067 0.0
H1621 H 0.90101 0.47347 0.8472 0.0
H1622 H 0.89428 0.56703 0.84927 0.0
H1623 H 0.83658 0.54337 0.90036 0.0
C1624 C 0.85073 0.33252 0.89276 0.0
C1625 C 0.86521 0.29578 0.88061 0.0
C1626 C 0.88448 0.3135 0.86614 0.0
C1627 C 0.88843 0.3662 0.86266 0.0
C1628 C 0.87339 0.40108 0.87423 0.0
C1629 C 0.8553 0.38531 0.88944 0.0
C1630 C 0.84211 0.43154 0.89991 0.0
C1631 C 0.81481 0.43031 0.8941 0.0
C1632 C 0.84635 0.43441 0.92663 0.0
C1633 C 0.85494 0.47541 0.88726 0.0
C1634 C 0.87297 0.45662 0.87266 0.0
C1635 C 0.88705 0.48884 0.85866 0.0
C1636 C 0.88287 0.54195 0.85976 0.0
C1637 C 0.86469 0.56263 0.87472 0.0
C1638 C 0.85059 0.52874 0.88874 0.0
H1639 H 0.12836 0.5006 0.90903 0.0
H1640 H 0.12655 0.47815 0.83319 0.0
H1641 H 0.12686 0.57169 0.82748 0.0
H1642 H 0.09231 0.61307 0.91302 0.0
H1643 H 0.11085 0.64598 0.93442 0.0
H1644 H 0.11062 0.57653 0.93339 0.0
H1645 H 0.15735 0.57515 0.92847 0.0
H1646 H 0.15778 0.64464 0.92985 0.0
H1647 H 0.17116 0.61181 0.90507 0.0
H1648 H 0.12556 0.66684 0.82914 0.0
H1649 H 0.12767 0.75917 0.83785 0.0
H1650 H 0.13219 0.72454 0.91262 0.0
C1651 C 0.12839 0.51509 0.89118 0.0
C1652 C 0.12656 0.48088 0.8716 0.0
C1653 C 0.12683 0.50252 0.84864 0.0
C1654 C 0.12726 0.55601 0.84512 0.0
C1655 C 0.12816 0.58827 0.86465 0.0
C1656 C 0.12937 0.56892 0.88724 0.0
C1657 C 0.13128 0.61302 0.90496 0.0
C1658 C 0.10999 0.61208 0.92248 0.0
C1659 C 0.15585 0.61102 0.91785 0.0
C1660 C 0.12994 0.65986 0.88873 0.0
C1661 C 0.12825 0.64426 0.86558 0.0
C1662 C 0.12692 0.67963 0.84721 0.0
C1663 C 0.12781 0.73243 0.85245 0.0
C1664 C 0.12983 0.7503 0.87599 0.0
C1665 C 0.13078 0.71292 0.89438 0.0
H1666 H 0.85969 0.7302 0.66596 0.0
H1667 H 0.85689 0.74985 0.58994 0.0
H1668 H 0.85515 0.65609 0.58507 0.0
H1669 H 0.90076 0.61616 0.66146 0.0
H1670 H 0.88783 0.58584 0.68709 0.0
H1671 H 0.88869 0.65521 0.68497 0.0
H1672 H 0.84219 0.65856 0.69174 0.0
H1673 H 0.8411 0.58926 0.69354 0.0
H1674 H 0.82231 0.62278 0.67251 0.0
H1675 H 0.85143 0.56144 0.58792 0.0
H1676 H 0.85179 0.46941 0.59798 0.0
H1677 H 0.85955 0.50872 0.67199 0.0
C1678 C 0.85918 0.71516 0.64821 0.0
C1679 C 0.8576 0.74838 0.62838 0.0
C1680 C 0.857 0.72606 0.60557 0.0
C1681 C 0.85627 0.67255 0.60254 0.0
C1682 C 0.85699 0.64135 0.62239 0.0
C1683 C 0.85917 0.66153 0.64476 0.0
C1684 C 0.86089 0.61869 0.66294 0.0
C1685 C 0.88603 0.619 0.67482 0.0
C1686 C 0.84039 0.62258 0.68125 0.0
C1687 C 0.85793 0.57161 0.64729 0.0
C1688 C 0.85589 0.58581 0.62398 0.0
C1689 C 0.85309 0.54966 0.60611 0.0
C1690 C 0.85297 0.49731 0.6121 0.0
C1691 C 0.85547 0.48126 0.63584 0.0
C1692 C 0.85774 0.51932 0.65366 0.0
H1693 H 0.12796 0.32023 0.60788 0.0
H1694 H 0.12368 0.28701 0.68272 0.0
H1695 H 0.12274 0.3796 0.69134 0.0
H1696 H 0.16679 0.43138 0.61318 0.0
H1697 H 0.15213 0.46828 0.59035 0.0
H1698 H 0.15191 0.39879 0.58916 0.0
H1699 H 0.10493 0.39886 0.58686 0.0
H1700 H 0.10503 0.46833 0.58762 0.0
H1701 H 0.08761 0.43264 0.60899 0.0
H1702 H 0.12637 0.47325 0.69283 0.0
H1703 H 0.12683 0.56677 0.687 0.0
H1704 H 0.12476 0.54391 0.61117 0.0
C1705 C 0.12662 0.33262 0.62603 0.0
C1706 C 0.12567 0.29614 0.64462 0.0
C1707 C 0.12394 0.31391 0.66814 0.0
C1708 C 0.12368 0.36653 0.67328 0.0
C1709 C 0.12506 0.40131 0.65474 0.0
C1710 C 0.12603 0.38553 0.63155 0.0
C1711 C 0.12696 0.43197 0.61518 0.0
C1712 C 0.15087 0.43263 0.60114 0.0
C1713 C 0.1048 0.433 0.5987 0.0
C1714 C 0.12614 0.47589 0.63295 0.0
C1715 C 0.12563 0.45684 0.65561 0.0
C1716 C 0.12608 0.4889 0.67518 0.0
C1717 C 0.12614 0.54219 0.67163 0.0
C1718 C 0.12494 0.5634 0.64865 0.0
C1719 C 0.12553 0.52944 0.62901 0.0
H1720 H 0.62297 1.00759 0.17134 0.0
H1721 H 0.63618 0.97284 0.09752 0.0
H1722 H 0.63922 0.06542 0.08916 0.0
H1723 H 0.5841 0.11797 0.15875 0.0
H1724 H 0.59416 0.15413 0.184 0.0
H1725 H 0.59403 0.08461 0.18485 0.0
H1726 H 0.63977 0.08405 0.19563 0.0
H1727 H 0.63993 0.15348 0.19513 0.0
H1728 H 0.6611 0.11787 0.17712 0.0
H1729 H 0.63814 0.16179 0.08786 0.0
H1730 H 0.63735 0.25526 0.09449 0.0
H1731 H 0.62581 0.22865 0.16927 0.0
C1732 C 0.62637 1.01902 0.15334 0.0
C1733 C 0.62944 0.98181 0.13519 0.0
C1734 C 0.63429 0.99959 0.11201 0.0
C1735 C 0.63571 0.05247 0.10694 0.0
C1736 C 0.63198 0.08767 0.12508 0.0
C1737 C 0.62749 0.07181 0.14784 0.0
C1738 C 0.62364 0.11791 0.16396 0.0
C1739 C 0.59743 0.11869 0.17345 0.0
C1740 C 0.64224 0.11834 0.18415 0.0
C1741 C 0.62782 0.16206 0.14685 0.0
C1742 C 0.63197 0.14362 0.12443 0.0
C1743 C 0.63537 0.17671 0.10544 0.0
C1744 C 0.63515 0.23009 0.10951 0.0
C1745 C 0.63221 0.25045 0.13255 0.0
C1746 C 0.62809 0.21536 0.15137 0.0
H1747 H 0.35179 0.81541 0.16711 0.0
H1748 H 0.37405 0.79157 0.09452 0.0
H1749 H 0.3766 0.88551 0.08895 0.0
H1750 H 0.31554 0.92529 0.15868 0.0
H1751 H 0.32521 0.95867 0.18488 0.0
H1752 H 0.32592 0.88926 0.1839 0.0
H1753 H 0.37166 0.88979 0.19461 0.0
H1754 H 0.37102 0.95926 0.19591 0.0
H1755 H 0.39255 0.927 0.17703 0.0
H1756 H 0.37432 0.98059 0.0901 0.0
H1757 H 0.37096 0.07323 0.09886 0.0
H1758 H 0.35194 0.03751 0.17123 0.0
C1759 C 0.35768 0.82979 0.15016 0.0
C1760 C 0.36239 0.79577 0.13113 0.0
C1761 C 0.36976 0.81658 0.1092 0.0
C1762 C 0.37145 0.86995 0.10589 0.0
C1763 C 0.36609 0.9022 0.12477 0.0
C1764 C 0.35978 0.88313 0.1466 0.0
C1765 C 0.35504 0.92673 0.16389 0.0
C1766 C 0.32887 0.92485 0.17338 0.0
C1767 C 0.37368 0.92563 0.18405 0.0
C1768 C 0.35894 0.97315 0.14806 0.0
C1769 C 0.36535 0.95785 0.1256 0.0
C1770 C 0.36941 0.99317 0.10763 0.0
C1771 C 0.36717 0.04573 0.11273 0.0
C1772 C 0.3609 0.06271 0.13565 0.0
C1773 C 0.35677 0.02574 0.15355 0.0
H1774 H 0.62612 0.03716 0.34855 0.0
H1775 H 0.63403 0.07289 0.4229 0.0
H1776 H 0.63522 0.98028 0.43195 0.0
H1777 H 0.58561 0.92873 0.35815 0.0
H1778 H 0.59764 0.89157 0.334 0.0
H1779 H 0.59819 0.96105 0.33286 0.0
H1780 H 0.64475 0.95951 0.32604 0.0
H1781 H 0.64428 0.8901 0.32681 0.0
H1782 H 0.664 0.92523 0.34643 0.0
H1783 H 0.63279 0.88449 0.43358 0.0
H1784 H 0.63208 0.79081 0.42721 0.0
H1785 H 0.62727 0.81628 0.35169 0.0
C1786 C 0.62809 0.02571 0.36676 0.0
C1787 C 0.63015 0.06288 0.38495 0.0
C1788 C 0.63297 0.04568 0.4085 0.0
C1789 C 0.63332 0.99298 0.41391 0.0
C1790 C 0.63064 0.95767 0.39566 0.0
C1791 C 0.62826 0.97315 0.37254 0.0
C1792 C 0.62547 0.92701 0.35633 0.0
C1793 C 0.60023 0.92711 0.34464 0.0
C1794 C 0.64585 0.92537 0.33782 0.0
C1795 C 0.62768 0.88323 0.37392 0.0
C1796 C 0.63 0.90194 0.39654 0.0
C1797 C 0.63144 0.86927 0.4159 0.0
C1798 C 0.63125 0.81591 0.41202 0.0
C1799 C 0.63026 0.79538 0.38888 0.0
C1800 C 0.62799 0.82998 0.36965 0.0
H1801 H 0.36788 1.00292 0.40885 0.0
H1802 H 0.35242 0.97828 0.3347 0.0
H1803 H 0.35046 0.07192 0.32866 0.0
H1804 H 0.32624 0.11366 0.41505 0.0
H1805 H 0.3457 0.1472 0.43545 0.0
H1806 H 0.34603 0.07772 0.43431 0.0
H1807 H 0.39246 0.07952 0.42721 0.0
H1808 H 0.39222 0.14901 0.42801 0.0
H1809 H 0.4045 0.11581 0.40278 0.0
H1810 H 0.35143 0.16707 0.32962 0.0
H1811 H 0.35109 0.25975 0.33819 0.0
H1812 H 0.36445 0.22702 0.41209 0.0
C1813 C 0.36376 1.01709 0.39139 0.0
C1814 C 0.36084 0.98247 0.37214 0.0
C1815 C 0.35552 1.00332 0.34964 0.0
C1816 C 0.35419 0.05671 0.34602 0.0
C1817 C 0.35781 0.08948 0.36509 0.0
C1818 C 0.36207 0.07076 0.38745 0.0
C1819 C 0.3647 0.11523 0.40486 0.0
C1820 C 0.34446 0.11333 0.42352 0.0
C1821 C 0.38998 0.11486 0.41639 0.0
C1822 C 0.36156 0.1616 0.38861 0.0
C1823 C 0.35773 0.14544 0.36577 0.0
C1824 C 0.3544 0.18031 0.34744 0.0
C1825 C 0.35452 0.2332 0.35251 0.0
C1826 C 0.35798 0.2515 0.37579 0.0
C1827 C 0.36167 0.21475 0.39408 0.0
H1828 H 0.34203 0.82253 0.90753 0.0
H1829 H 0.38873 0.78855 0.84763 0.0
H1830 H 0.39332 0.88101 0.84026 0.0
H1831 H 0.31193 0.93149 0.88672 0.0
H1832 H 0.31371 0.96883 0.91343 0.0
H1833 H 0.31387 0.89944 0.91482 0.0
H1834 H 0.35438 0.90102 0.93788 0.0
H1835 H 0.35418 0.97055 0.93691 0.0
H1836 H 0.38006 0.9353 0.92592 0.0
H1837 H 0.39109 0.97557 0.83727 0.0
H1838 H 0.38664 0.06914 0.84181 0.0
H1839 H 0.34398 0.04545 0.90531 0.0
C1840 C 0.35361 0.83416 0.8931 0.0
C1841 C 0.3643 0.79722 0.8777 0.0
C1842 C 0.37933 0.81519 0.85912 0.0
C1843 C 0.38235 0.86795 0.85489 0.0
C1844 C 0.37094 0.90288 0.86982 0.0
C1845 C 0.35746 0.88704 0.88897 0.0
C1846 C 0.34815 0.9334 0.90278 0.0
C1847 C 0.32025 0.93326 0.90451 0.0
C1848 C 0.35989 0.93516 0.92733 0.0
C1849 C 0.35732 0.97744 0.88747 0.0
C1850 C 0.37057 0.95858 0.8687 0.0
C1851 C 0.38084 0.99096 0.85194 0.0
C1852 C 0.3779 0.04424 0.85454 0.0
C1853 C 0.36465 0.06517 0.87373 0.0
C1854 C 0.35422 0.03096 0.89043 0.0
H1855 H 0.59903 0.23361 0.86883 0.0
H1856 H 0.66946 0.2567 0.90161 0.0
H1857 H 0.67612 0.1629 0.90233 0.0
H1858 H 0.58343 0.11865 0.90208 0.0
H1859 H 0.56855 0.08689 0.87783 0.0
H1860 H 0.56909 0.1563 0.8793 0.0
H1861 H 0.58854 0.15977 0.83787 0.0
H1862 H 0.58818 0.09033 0.83634 0.0
H1863 H 0.61631 0.12481 0.83229 0.0
H1864 H 0.67606 0.06821 0.89921 0.0
H1865 H 0.66819 0.9754 0.89439 0.0
H1866 H 0.59703 1.0104 0.86521 0.0
C1867 C 0.61579 0.2187 0.87617 0.0
C1868 C 0.63364 0.25246 0.88544 0.0
C1869 C 0.65536 0.2316 0.89486 0.0
C1870 C 0.65941 0.17837 0.89518 0.0
C1871 C 0.64155 0.14615 0.88608 0.0
C1872 C 0.62006 0.16517 0.8769 0.0
C1873 C 0.60373 0.12123 0.86887 0.0
C1874 C 0.57979 0.12075 0.88286 0.0
C1875 C 0.59892 0.12424 0.84226 0.0
C1876 C 0.61954 0.07494 0.87498 0.0
C1877 C 0.6413 0.0905 0.88472 0.0
C1878 C 0.65901 0.05535 0.89177 0.0
C1879 C 0.65429 1.00262 0.88909 0.0
C1880 C 0.63192 0.98524 0.87963 0.0
C1881 C 0.61442 1.02221 0.8723 0.0
H1882 H 0.3732 1.00181 0.6129 0.0
H1883 H 0.33768 0.97592 0.68017 0.0
H1884 H 0.33341 0.06958 0.68557 0.0
H1885 H 0.40658 0.11325 0.62898 0.0
H1886 H 0.40224 0.14719 0.60162 0.0
H1887 H 0.40196 0.07771 0.60207 0.0
H1888 H 0.35941 0.07732 0.58266 0.0
H1889 H 0.3597 0.14683 0.58192 0.0
H1890 H 0.33498 0.11332 0.59602 0.0
H1891 H 0.33485 0.16405 0.68534 0.0
H1892 H 0.33864 0.25702 0.67799 0.0
H1893 H 0.37197 0.22532 0.61019 0.0
C1894 C 0.36415 1.01584 0.62857 0.0
C1895 C 0.35606 0.98129 0.6463 0.0
C1896 C 0.3445 1.00141 0.6666 0.0
C1897 C 0.34186 0.05461 0.66978 0.0
C1898 C 0.35058 0.08747 0.65239 0.0
C1899 C 0.36117 0.06919 0.63199 0.0
C1900 C 0.36896 0.11367 0.61621 0.0
C1901 C 0.39658 0.11289 0.61198 0.0
C1902 C 0.35492 0.11272 0.59282 0.0
C1903 C 0.36147 0.15954 0.63126 0.0
C1904 C 0.35097 0.14313 0.65203 0.0
C1905 C 0.34297 0.17754 0.66913 0.0
C1906 C 0.34547 0.23034 0.66488 0.0
C1907 C 0.35588 0.24862 0.64367 0.0
C1908 C 0.36396 0.21255 0.62659 0.0
H1909 H 0.63203 0.81561 0.66949 0.0
H1910 H 0.62569 0.78802 0.59429 0.0
H1911 H 0.62499 0.88173 0.58734 0.0
H1912 H 0.59023 0.92709 0.66953 0.0
H1913 H 0.607 0.95994 0.69226 0.0
H1914 H 0.60659 0.89045 0.69134 0.0
H1915 H 0.65369 0.88966 0.69055 0.0
H1916 H 0.65421 0.9591 0.69108 0.0
H1917 H 0.66953 0.92467 0.66782 0.0
H1918 H 0.62659 0.97793 0.5882 0.0
H1919 H 0.62638 0.07083 0.597 0.0
H1920 H 0.63083 0.03652 0.67173 0.0
C1921 C 0.63003 0.82897 0.65156 0.0
C1922 C 0.62931 0.79389 0.63242 0.0
C1923 C 0.62696 0.81369 0.60925 0.0
C1924 C 0.62636 0.86698 0.60511 0.0
C1925 C 0.62772 0.90021 0.6243 0.0
C1926 C 0.62904 0.88209 0.6471 0.0
C1927 C 0.62981 0.92628 0.66459 0.0
C1928 C 0.60705 0.92591 0.68036 0.0
C1929 C 0.65321 0.92482 0.67937 0.0
C1930 C 0.62956 0.97199 0.64796 0.0
C1931 C 0.62822 0.95601 0.62482 0.0
C1932 C 0.62762 0.99099 0.60625 0.0
C1933 C 0.62783 0.04382 0.61146 0.0
C1934 C 0.62875 0.06141 0.63507 0.0
C1935 C 0.62993 0.02465 0.65349 0.0
loop_
_geom_bond_atom_site_label_1
_geom_bond_atom_site_label_2
_geom_bond_distance
_geom_bond_site_symmetry_2
_ccdc_geom_bond_type
Ho0 C3 2.811 1_545 S
Ho0 O20 2.322 . S
Ho0 O22 2.378 1_545 S
Ho0 O23 2.524 1_545 S
Ho0 O24 2.381 . S
Ho0 O25 2.669 . S
Ho0 O27 2.346 . S
Ho0 O31 2.305 . S
Ho1 C12 2.811 . S
Ho1 O21 2.346 . S
Ho1 O25 2.305 . S
Ho1 O26 2.322 . S
Ho1 O28 2.378 . S
Ho1 O29 2.524 . S
Ho1 O30 2.381 . S
Ho1 O31 2.669 . S
C2 O20 1.259 . S
C2 O21 1.268 . S
C3 Ho0 2.811 1_565 S
C3 C4 1.488 . S
C3 O22 1.215 . S
C3 O23 1.289 . S
C4 C3 1.488 . S
C4 C5 1.348 . S
C4 C9 1.413 . S
C5 C4 1.348 . S
C5 C6 1.442 . S
C5 H32 0.930 . S
C6 C5 1.442 . S
C6 C7 1.381 . S
C6 H33 0.931 . S
C7 C6 1.381 . S
C7 C8 1.321 . S
C8 C7 1.321 . S
C8 C9 1.403 . S
C8 H34 0.934 . S
C9 C4 1.413 . S
C9 C8 1.403 . S
C9 H35 0.930 . S
C10 O24 1.275 . S
C10 O25 1.256 . S
C11 O26 1.259 . S
C11 O27 1.268 . S
C12 Ho1 2.811 . S
C12 C13 1.488 . S
C12 O28 1.215 . S
C12 O29 1.289 . S
C13 C12 1.488 . S
C13 C14 1.348 . S
C13 C18 1.413 . S
C14 C13 1.348 . S
C14 C15 1.442 . S
C14 H36 0.930 . S
C15 C14 1.442 . S
C15 C16 1.381 . S
C15 H37 0.931 . S
C16 C15 1.381 . S
C16 C17 1.321 . S
C17 C16 1.321 . S
C17 C18 1.403 . S
C17 H38 0.934 . S
C18 C13 1.413 . S
C18 C17 1.403 . S
C18 H39 0.930 . S
C19 O30 1.275 . S
C19 O31 1.256 . S
O20 Ho0 2.322 . S
O20 C2 1.259 . S
O21 Ho1 2.346 . S
O21 C2 1.268 . S
O22 Ho0 2.378 1_565 S
O22 C3 1.215 . S
O23 Ho0 2.524 1_565 S
O23 C3 1.289 . S
O24 Ho0 2.381 . S
O24 C10 1.275 . S
O25 Ho0 2.669 . S
O25 Ho1 2.305 . S
O25 C10 1.256 . S
O26 Ho1 2.322 . S
O26 C11 1.259 . S
O27 Ho0 2.346 . S
O27 C11 1.268 . S
O28 Ho1 2.378 . S
O28 C12 1.215 . S
O29 Ho1 2.524 . S
O29 C12 1.289 . S
O30 Ho1 2.381 . S
O30 C19 1.275 . S
O31 Ho0 2.305 . S
O31 Ho1 2.669 . S
O31 C19 1.256 . S
H32 C5 0.930 . S
H33 C6 0.931 . S
H34 C8 0.934 . S
H35 C9 0.930 . S
H36 C14 0.930 . S
H37 C15 0.931 . S
H38 C17 0.934 . S
H39 C18 0.930 . S
Ho40 C43 2.811 1_565 S
Ho40 O60 2.322 . S
Ho40 O62 2.378 1_565 S
Ho40 O63 2.524 1_565 S
Ho40 O64 2.381 . S
Ho40 O65 2.669 . S
Ho40 O67 2.346 . S
Ho40 O71 2.305 . S
Ho41 C52 2.811 . S
Ho41 O61 2.346 . S
Ho41 O65 2.305 . S
Ho41 O66 2.322 . S
Ho41 O68 2.378 . S
Ho41 O69 2.524 . S
Ho41 O70 2.381 . S
Ho41 O71 2.669 . S
C42 O60 1.259 . S
C42 O61 1.268 . S
C43 Ho40 2.811 1_545 S
C43 C44 1.488 . S
C43 O62 1.215 . S
C43 O63 1.289 . S
C44 C43 1.488 . S
C44 C45 1.348 . S
C44 C49 1.413 . S
C45 C44 1.348 . S
C45 C46 1.442 . S
C45 H72 0.930 . S
C46 C45 1.442 . S
C46 C47 1.381 . S
C46 H73 0.931 . S
C47 C46 1.381 . S
C47 C48 1.321 . S
C48 C47 1.321 . S
C48 C49 1.403 . S
C48 H74 0.934 . S
C49 C44 1.413 . S
C49 C48 1.403 . S
C49 H75 0.930 . S
C50 O64 1.275 . S
C50 O65 1.256 . S
C51 O66 1.259 . S
C51 O67 1.268 . S
C52 Ho41 2.811 . S
C52 C53 1.488 . S
C52 O68 1.215 . S
C52 O69 1.289 . S
C53 C52 1.488 . S
C53 C54 1.348 . S
C53 C58 1.413 . S
C54 C53 1.348 . S
C54 C55 1.442 . S
C54 H76 0.930 . S
C55 C54 1.442 . S
C55 C56 1.381 . S
C55 H77 0.931 . S
C56 C55 1.381 . S
C56 C57 1.321 . S
C57 C56 1.321 . S
C57 C58 1.403 . S
C57 H78 0.934 . S
C58 C53 1.413 . S
C58 C57 1.403 . S
C58 H79 0.930 . S
C59 O70 1.275 . S
C59 O71 1.256 . S
O60 Ho40 2.322 . S
O60 C42 1.259 . S
O61 Ho41 2.346 . S
O61 C42 1.268 . S
O62 Ho40 2.378 1_545 S
O62 C43 1.215 . S
O63 Ho40 2.524 1_545 S
O63 C43 1.289 . S
O64 Ho40 2.381 . S
O64 C50 1.275 . S
O65 Ho40 2.669 . S
O65 Ho41 2.305 . S
O65 C50 1.256 . S
O66 Ho41 2.322 . S
O66 C51 1.259 . S
O67 Ho40 2.346 . S
O67 C51 1.268 . S
O68 Ho41 2.378 . S
O68 C52 1.215 . S
O69 Ho41 2.524 . S
O69 C52 1.289 . S
O70 Ho41 2.381 . S
O70 C59 1.275 . S
O71 Ho40 2.305 . S
O71 Ho41 2.669 . S
O71 C59 1.256 . S
H72 C45 0.930 . S
H73 C46 0.931 . S
H74 C48 0.934 . S
H75 C49 0.930 . S
H76 C54 0.930 . S
H77 C55 0.931 . S
H78 C57 0.934 . S
H79 C58 0.930 . S
Ho80 C83 2.811 1_565 S
Ho80 O100 2.322 . S
Ho80 O102 2.378 1_565 S
Ho80 O103 2.524 1_565 S
Ho80 O104 2.381 . S
Ho80 O105 2.669 . S
Ho80 O107 2.346 . S
Ho80 O111 2.305 . S
Ho81 C92 2.811 . S
Ho81 O101 2.346 . S
Ho81 O105 2.305 . S
Ho81 O106 2.322 . S
Ho81 O108 2.378 . S
Ho81 O109 2.524 . S
Ho81 O110 2.381 . S
Ho81 O111 2.669 . S
C82 O100 1.259 . S
C82 O101 1.268 . S
C83 Ho80 2.811 1_545 S
C83 C84 1.488 . S
C83 O102 1.215 . S
C83 O103 1.289 . S
C84 C83 1.488 . S
C84 C85 1.348 . S
C84 C89 1.413 . S
C85 C84 1.348 . S
C85 C86 1.442 . S
C85 H112 0.930 . S
C86 C85 1.442 . S
C86 C87 1.381 . S
C86 H113 0.931 . S
C87 C86 1.381 . S
C87 C88 1.321 . S
C88 C87 1.321 . S
C88 C89 1.403 . S
C88 H114 0.934 . S
C89 C84 1.413 . S
C89 C88 1.403 . S
C89 H115 0.930 . S
C90 O104 1.275 . S
C90 O105 1.256 . S
C91 O106 1.259 . S
C91 O107 1.268 . S
C92 Ho81 2.811 . S
C92 C93 1.488 . S
C92 O108 1.215 . S
C92 O109 1.289 . S
C93 C92 1.488 . S
C93 C94 1.348 . S
C93 C98 1.413 . S
C94 C93 1.348 . S
C94 C95 1.442 . S
C94 H116 0.930 . S
C95 C94 1.442 . S
C95 C96 1.381 . S
C95 H117 0.931 . S
C96 C95 1.381 . S
C96 C97 1.321 . S
C97 C96 1.321 . S
C97 C98 1.403 . S
C97 H118 0.934 . S
C98 C93 1.413 . S
C98 C97 1.403 . S
C98 H119 0.930 . S
C99 O110 1.275 . S
C99 O111 1.256 . S
O100 Ho80 2.322 . S
O100 C82 1.259 . S
O101 Ho81 2.346 . S
O101 C82 1.268 . S
O102 Ho80 2.378 1_545 S
O102 C83 1.215 . S
O103 Ho80 2.524 1_545 S
O103 C83 1.289 . S
O104 Ho80 2.381 . S
O104 C90 1.275 . S
O105 Ho80 2.669 . S
O105 Ho81 2.305 . S
O105 C90 1.256 . S
O106 Ho81 2.322 . S
O106 C91 1.259 . S
O107 Ho80 2.346 . S
O107 C91 1.268 . S
O108 Ho81 2.378 . S
O108 C92 1.215 . S
O109 Ho81 2.524 . S
O109 C92 1.289 . S
O110 Ho81 2.381 . S
O110 C99 1.275 . S
O111 Ho80 2.305 . S
O111 Ho81 2.669 . S
O111 C99 1.256 . S
H112 C85 0.930 . S
H113 C86 0.931 . S
H114 C88 0.934 . S
H115 C89 0.930 . S
H116 C94 0.930 . S
H117 C95 0.931 . S
H118 C97 0.934 . S
H119 C98 0.930 . S
Ho120 C123 2.811 1_545 S
Ho120 O140 2.322 . S
Ho120 O142 2.378 1_545 S
Ho120 O143 2.524 1_545 S
Ho120 O144 2.381 . S
Ho120 O145 2.669 . S
Ho120 O147 2.346 . S
Ho120 O151 2.305 . S
Ho121 C132 2.811 . S
Ho121 O141 2.346 . S
Ho121 O145 2.305 . S
Ho121 O146 2.322 . S
Ho121 O148 2.378 . S
Ho121 O149 2.524 . S
Ho121 O150 2.381 . S
Ho121 O151 2.669 . S
C122 O140 1.259 . S
C122 O141 1.268 . S
C123 Ho120 2.811 1_565 S
C123 C124 1.488 . S
C123 O142 1.215 . S
C123 O143 1.289 . S
C124 C123 1.488 . S
C124 C125 1.348 . S
C124 C129 1.413 . S
C125 C124 1.348 . S
C125 C126 1.442 . S
C125 H152 0.930 . S
C126 C125 1.442 . S
C126 C127 1.381 . S
C126 H153 0.931 . S
C127 C126 1.381 . S
C127 C128 1.321 . S
C128 C127 1.321 . S
C128 C129 1.403 . S
C128 H154 0.934 . S
C129 C124 1.413 . S
C129 C128 1.403 . S
C129 H155 0.930 . S
C130 O144 1.275 . S
C130 O145 1.256 . S
C131 O146 1.259 . S
C131 O147 1.268 . S
C132 Ho121 2.811 . S
C132 C133 1.488 . S
C132 O148 1.215 . S
C132 O149 1.289 . S
C133 C132 1.488 . S
C133 C134 1.348 . S
C133 C138 1.413 . S
C134 C133 1.348 . S
C134 C135 1.442 . S
C134 H156 0.930 . S
C135 C134 1.442 . S
C135 C136 1.381 . S
C135 H157 0.931 . S
C136 C135 1.381 . S
C136 C137 1.321 . S
C137 C136 1.321 . S
C137 C138 1.403 . S
C137 H158 0.934 . S
C138 C133 1.413 . S
C138 C137 1.403 . S
C138 H159 0.930 . S
C139 O150 1.275 . S
C139 O151 1.256 . S
O140 Ho120 2.322 . S
O140 C122 1.259 . S
O141 Ho121 2.346 . S
O141 C122 1.268 . S
O142 Ho120 2.378 1_565 S
O142 C123 1.215 . S
O143 Ho120 2.524 1_565 S
O143 C123 1.289 . S
O144 Ho120 2.381 . S
O144 C130 1.275 . S
O145 Ho120 2.669 . S
O145 Ho121 2.305 . S
O145 C130 1.256 . S
O146 Ho121 2.322 . S
O146 C131 1.259 . S
O147 Ho120 2.346 . S
O147 C131 1.268 . S
O148 Ho121 2.378 . S
O148 C132 1.215 . S
O149 Ho121 2.524 . S
O149 C132 1.289 . S
O150 Ho121 2.381 . S
O150 C139 1.275 . S
O151 Ho120 2.305 . S
O151 Ho121 2.669 . S
O151 C139 1.256 . S
H152 C125 0.930 . S
H153 C126 0.931 . S
H154 C128 0.934 . S
H155 C129 0.930 . S
H156 C134 0.930 . S
H157 C135 0.931 . S
H158 C137 0.934 . S
H159 C138 0.930 . S
Ho160 C163 2.811 . S
Ho160 O180 2.322 . S
Ho160 O182 2.378 . S
Ho160 O183 2.524 . S
Ho160 O184 2.381 . S
Ho160 O185 2.669 . S
Ho160 O187 2.346 . S
Ho160 O191 2.305 . S
Ho161 C172 2.811 1_565 S
Ho161 O181 2.346 . S
Ho161 O185 2.305 . S
Ho161 O186 2.322 . S
Ho161 O188 2.378 1_565 S
Ho161 O189 2.524 1_565 S
Ho161 O190 2.381 . S
Ho161 O191 2.669 . S
C162 O180 1.259 . S
C162 O181 1.268 . S
C163 Ho160 2.811 . S
C163 C164 1.488 . S
C163 O182 1.215 . S
C163 O183 1.289 . S
C164 C163 1.488 . S
C164 C165 1.348 . S
C164 C169 1.413 . S
C165 C164 1.348 . S
C165 C166 1.442 . S
C165 H192 0.930 . S
C166 C165 1.442 . S
C166 C167 1.381 . S
C166 H193 0.931 . S
C167 C166 1.381 . S
C167 C168 1.321 . S
C168 C167 1.321 . S
C168 C169 1.403 . S
C168 H194 0.934 . S
C169 C164 1.413 . S
C169 C168 1.403 . S
C169 H195 0.930 . S
C170 O184 1.275 . S
C170 O185 1.256 . S
C171 O186 1.259 . S
C171 O187 1.268 . S
C172 Ho161 2.811 1_545 S
C172 C173 1.488 . S
C172 O188 1.215 . S
C172 O189 1.289 . S
C173 C172 1.488 . S
C173 C174 1.348 . S
C173 C178 1.413 . S
C174 C173 1.348 . S
C174 C175 1.442 . S
C174 H196 0.930 . S
C175 C174 1.442 . S
C175 C176 1.381 . S
C175 H197 0.931 . S
C176 C175 1.381 . S
C176 C177 1.321 . S
C177 C176 1.321 . S
C177 C178 1.403 . S
C177 H198 0.934 . S
C178 C173 1.413 . S
C178 C177 1.403 . S
C178 H199 0.930 . S
C179 O190 1.275 . S
C179 O191 1.256 . S
O180 Ho160 2.322 . S
O180 C162 1.259 . S
O181 Ho161 2.346 . S
O181 C162 1.268 . S
O182 Ho160 2.378 . S
O182 C163 1.215 . S
O183 Ho160 2.524 . S
O183 C163 1.289 . S
O184 Ho160 2.381 . S
O184 C170 1.275 . S
O185 Ho160 2.669 . S
O185 Ho161 2.305 . S
O185 C170 1.256 . S
O186 Ho161 2.322 . S
O186 C171 1.259 . S
O187 Ho160 2.346 . S
O187 C171 1.268 . S
O188 Ho161 2.378 1_545 S
O188 C172 1.215 . S
O189 Ho161 2.524 1_545 S
O189 C172 1.289 . S
O190 Ho161 2.381 . S
O190 C179 1.275 . S
O191 Ho160 2.305 . S
O191 Ho161 2.669 . S
O191 C179 1.256 . S
H192 C165 0.930 . S
H193 C166 0.931 . S
H194 C168 0.934 . S
H195 C169 0.930 . S
H196 C174 0.930 . S
H197 C175 0.931 . S
H198 C177 0.934 . S
H199 C178 0.930 . S
Ho200 C203 2.811 . S
Ho200 O220 2.322 . S
Ho200 O222 2.378 . S
Ho200 O223 2.524 . S
Ho200 O224 2.381 . S
Ho200 O225 2.669 . S
Ho200 O227 2.346 . S
Ho200 O231 2.305 . S
Ho201 C212 2.811 1_545 S
Ho201 O221 2.346 . S
Ho201 O225 2.305 . S
Ho201 O226 2.322 . S
Ho201 O228 2.378 1_545 S
Ho201 O229 2.524 1_545 S
Ho201 O230 2.381 . S
Ho201 O231 2.669 . S
C202 O220 1.259 . S
C202 O221 1.268 . S
C203 Ho200 2.811 . S
C203 C204 1.488 . S
C203 O222 1.215 . S
C203 O223 1.289 . S
C204 C203 1.488 . S
C204 C205 1.348 . S
C204 C209 1.413 . S
C205 C204 1.348 . S
C205 C206 1.442 . S
C205 H232 0.930 . S
C206 C205 1.442 . S
C206 C207 1.381 . S
C206 H233 0.931 . S
C207 C206 1.381 . S
C207 C208 1.321 . S
C208 C207 1.321 . S
C208 C209 1.403 . S
C208 H234 0.934 . S
C209 C204 1.413 . S
C209 C208 1.403 . S
C209 H235 0.930 . S
C210 O224 1.275 . S
C210 O225 1.256 . S
C211 O226 1.259 . S
C211 O227 1.268 . S
C212 Ho201 2.811 1_565 S
C212 C213 1.488 . S
C212 O228 1.215 . S
C212 O229 1.289 . S
C213 C212 1.488 . S
C213 C214 1.348 . S
C213 C218 1.413 . S
C214 C213 1.348 . S
C214 C215 1.442 . S
C214 H236 0.930 . S
C215 C214 1.442 . S
C215 C216 1.381 . S
C215 H237 0.931 . S
C216 C215 1.381 . S
C216 C217 1.321 . S
C217 C216 1.321 . S
C217 C218 1.403 . S
C217 H238 0.934 . S
C218 C213 1.413 . S
C218 C217 1.403 . S
C218 H239 0.930 . S
C219 O230 1.275 . S
C219 O231 1.256 . S
O220 Ho200 2.322 . S
O220 C202 1.259 . S
O221 Ho201 2.346 . S
O221 C202 1.268 . S
O222 Ho200 2.378 . S
O222 C203 1.215 . S
O223 Ho200 2.524 . S
O223 C203 1.289 . S
O224 Ho200 2.381 . S
O224 C210 1.275 . S
O225 Ho200 2.669 . S
O225 Ho201 2.305 . S
O225 C210 1.256 . S
O226 Ho201 2.322 . S
O226 C211 1.259 . S
O227 Ho200 2.346 . S
O227 C211 1.268 . S
O228 Ho201 2.378 1_565 S
O228 C212 1.215 . S
O229 Ho201 2.524 1_565 S
O229 C212 1.289 . S
O230 Ho201 2.381 . S
O230 C219 1.275 . S
O231 Ho200 2.305 . S
O231 Ho201 2.669 . S
O231 C219 1.256 . S
H232 C205 0.930 . S
H233 C206 0.931 . S
H234 C208 0.934 . S
H235 C209 0.930 . S
H236 C214 0.930 . S
H237 C215 0.931 . S
H238 C217 0.934 . S
H239 C218 0.930 . S
Ho240 C243 2.811 . S
Ho240 O260 2.322 . S
Ho240 O262 2.378 . S
Ho240 O263 2.524 . S
Ho240 O264 2.381 . S
Ho240 O265 2.669 . S
Ho240 O267 2.346 . S
Ho240 O271 2.305 . S
Ho241 C252 2.811 1_545 S
Ho241 O261 2.346 . S
Ho241 O265 2.305 . S
Ho241 O266 2.322 . S
Ho241 O268 2.378 1_545 S
Ho241 O269 2.524 1_545 S
Ho241 O270 2.381 . S
Ho241 O271 2.669 . S
C242 O260 1.259 . S
C242 O261 1.268 . S
C243 Ho240 2.811 . S
C243 C244 1.488 . S
C243 O262 1.215 . S
C243 O263 1.289 . S
C244 C243 1.488 . S
C244 C245 1.348 . S
C244 C249 1.413 . S
C245 C244 1.348 . S
C245 C246 1.442 . S
C245 H272 0.930 . S
C246 C245 1.442 . S
C246 C247 1.381 . S
C246 H273 0.931 . S
C247 C246 1.381 . S
C247 C248 1.321 . S
C248 C247 1.321 . S
C248 C249 1.403 . S
C248 H274 0.934 . S
C249 C244 1.413 . S
C249 C248 1.403 . S
C249 H275 0.930 . S
C250 O264 1.275 . S
C250 O265 1.256 . S
C251 O266 1.259 . S
C251 O267 1.268 . S
C252 Ho241 2.811 1_565 S
C252 C253 1.488 . S
C252 O268 1.215 . S
C252 O269 1.289 . S
C253 C252 1.488 . S
C253 C254 1.348 . S
C253 C258 1.413 . S
C254 C253 1.348 . S
C254 C255 1.442 . S
C254 H276 0.930 . S
C255 C254 1.442 . S
C255 C256 1.381 . S
C255 H277 0.931 . S
C256 C255 1.381 . S
C256 C257 1.321 . S
C257 C256 1.321 . S
C257 C258 1.403 . S
C257 H278 0.934 . S
C258 C253 1.413 . S
C258 C257 1.403 . S
C258 H279 0.930 . S
C259 O270 1.275 . S
C259 O271 1.256 . S
O260 Ho240 2.322 . S
O260 C242 1.259 . S
O261 Ho241 2.346 . S
O261 C242 1.268 . S
O262 Ho240 2.378 . S
O262 C243 1.215 . S
O263 Ho240 2.524 . S
O263 C243 1.289 . S
O264 Ho240 2.381 . S
O264 C250 1.275 . S
O265 Ho240 2.669 . S
O265 Ho241 2.305 . S
O265 C250 1.256 . S
O266 Ho241 2.322 . S
O266 C251 1.259 . S
O267 Ho240 2.346 . S
O267 C251 1.268 . S
O268 Ho241 2.378 1_565 S
O268 C252 1.215 . S
O269 Ho241 2.524 1_565 S
O269 C252 1.289 . S
O270 Ho241 2.381 . S
O270 C259 1.275 . S
O271 Ho240 2.305 . S
O271 Ho241 2.669 . S
O271 C259 1.256 . S
H272 C245 0.930 . S
H273 C246 0.931 . S
H274 C248 0.934 . S
H275 C249 0.930 . S
H276 C254 0.930 . S
H277 C255 0.931 . S
H278 C257 0.934 . S
H279 C258 0.930 . S
Ho280 C283 2.811 . S
Ho280 O300 2.322 . S
Ho280 O302 2.378 . S
Ho280 O303 2.524 . S
Ho280 O304 2.381 . S
Ho280 O305 2.669 . S
Ho280 O307 2.346 . S
Ho280 O311 2.305 . S
Ho281 C292 2.811 1_565 S
Ho281 O301 2.346 . S
Ho281 O305 2.305 . S
Ho281 O306 2.322 . S
Ho281 O308 2.378 1_565 S
Ho281 O309 2.524 1_565 S
Ho281 O310 2.381 . S
Ho281 O311 2.669 . S
C282 O300 1.259 . S
C282 O301 1.268 . S
C283 Ho280 2.811 . S
C283 C284 1.488 . S
C283 O302 1.215 . S
C283 O303 1.289 . S
C284 C283 1.488 . S
C284 C285 1.348 . S
C284 C289 1.413 . S
C285 C284 1.348 . S
C285 C286 1.442 . S
C285 H312 0.930 . S
C286 C285 1.442 . S
C286 C287 1.381 . S
C286 H313 0.931 . S
C287 C286 1.381 . S
C287 C288 1.321 . S
C288 C287 1.321 . S
C288 C289 1.403 . S
C288 H314 0.934 . S
C289 C284 1.413 . S
C289 C288 1.403 . S
C289 H315 0.930 . S
C290 O304 1.275 . S
C290 O305 1.256 . S
C291 O306 1.259 . S
C291 O307 1.268 . S
C292 Ho281 2.811 1_545 S
C292 C293 1.488 . S
C292 O308 1.215 . S
C292 O309 1.289 . S
C293 C292 1.488 . S
C293 C294 1.348 . S
C293 C298 1.413 . S
C294 C293 1.348 . S
C294 C295 1.442 . S
C294 H316 0.930 . S
C295 C294 1.442 . S
C295 C296 1.381 . S
C295 H317 0.931 . S
C296 C295 1.381 . S
C296 C297 1.321 . S
C297 C296 1.321 . S
C297 C298 1.403 . S
C297 H318 0.934 . S
C298 C293 1.413 . S
C298 C297 1.403 . S
C298 H319 0.930 . S
C299 O310 1.275 . S
C299 O311 1.256 . S
O300 Ho280 2.322 . S
O300 C282 1.259 . S
O301 Ho281 2.346 . S
O301 C282 1.268 . S
O302 Ho280 2.378 . S
O302 C283 1.215 . S
O303 Ho280 2.524 . S
O303 C283 1.289 . S
O304 Ho280 2.381 . S
O304 C290 1.275 . S
O305 Ho280 2.669 . S
O305 Ho281 2.305 . S
O305 C290 1.256 . S
O306 Ho281 2.322 . S
O306 C291 1.259 . S
O307 Ho280 2.346 . S
O307 C291 1.268 . S
O308 Ho281 2.378 1_545 S
O308 C292 1.215 . S
O309 Ho281 2.524 1_545 S
O309 C292 1.289 . S
O310 Ho281 2.381 . S
O310 C299 1.275 . S
O311 Ho280 2.305 . S
O311 Ho281 2.669 . S
O311 C299 1.256 . S
H312 C285 0.930 . S
H313 C286 0.931 . S
H314 C288 0.934 . S
H315 C289 0.930 . S
H316 C294 0.930 . S
H317 C295 0.931 . S
H318 C297 0.934 . S
H319 C298 0.930 . S
Ho320 C323 2.811 . S
Ho320 O340 2.322 . S
Ho320 O342 2.378 . S
Ho320 O343 2.524 . S
Ho320 O344 2.381 . S
Ho320 O345 2.669 . S
Ho320 O347 2.346 . S
Ho320 O351 2.305 . S
Ho321 C332 2.811 . S
Ho321 O341 2.346 . S
Ho321 O345 2.305 . S
Ho321 O346 2.322 . S
Ho321 O348 2.378 . S
Ho321 O349 2.524 . S
Ho321 O350 2.381 . S
Ho321 O351 2.669 . S
C322 O340 1.259 . S
C322 O341 1.268 . S
C323 Ho320 2.811 . S
C323 C324 1.488 . S
C323 O342 1.215 . S
C323 O343 1.289 . S
C324 C323 1.488 . S
C324 C325 1.348 . S
C324 C329 1.413 . S
C325 C324 1.348 . S
C325 C326 1.442 . S
C325 H352 0.930 . S
C326 C325 1.442 . S
C326 C327 1.381 . S
C326 H353 0.931 . S
C327 C326 1.381 . S
C327 C328 1.321 . S
C328 C327 1.321 . S
C328 C329 1.403 . S
C328 H354 0.934 . S
C329 C324 1.413 . S
C329 C328 1.403 . S
C329 H355 0.930 . S
C330 O344 1.275 . S
C330 O345 1.256 . S
C331 O346 1.259 . S
C331 O347 1.268 . S
C332 Ho321 2.811 . S
C332 C333 1.488 . S
C332 O348 1.215 . S
C332 O349 1.289 . S
C333 C332 1.488 . S
C333 C334 1.348 . S
C333 C338 1.413 . S
C334 C333 1.348 . S
C334 C335 1.442 . S
C334 H356 0.930 . S
C335 C334 1.442 . S
C335 C336 1.381 . S
C335 H357 0.931 . S
C336 C335 1.381 . S
C336 C337 1.321 . S
C337 C336 1.321 . S
C337 C338 1.403 . S
C337 H358 0.934 . S
C338 C333 1.413 . S
C338 C337 1.403 . S
C338 H359 0.930 . S
C339 O350 1.275 . S
C339 O351 1.256 . S
O340 Ho320 2.322 . S
O340 C322 1.259 . S
O341 Ho321 2.346 . S
O341 C322 1.268 . S
O342 Ho320 2.378 . S
O342 C323 1.215 . S
O343 Ho320 2.524 . S
O343 C323 1.289 . S
O344 Ho320 2.381 . S
O344 C330 1.275 . S
O345 Ho320 2.669 . S
O345 Ho321 2.305 . S
O345 C330 1.256 . S
O346 Ho321 2.322 . S
O346 C331 1.259 . S
O347 Ho320 2.346 . S
O347 C331 1.268 . S
O348 Ho321 2.378 . S
O348 C332 1.215 . S
O349 Ho321 2.524 . S
O349 C332 1.289 . S
O350 Ho321 2.381 . S
O350 C339 1.275 . S
O351 Ho320 2.305 . S
O351 Ho321 2.669 . S
O351 C339 1.256 . S
H352 C325 0.930 . S
H353 C326 0.931 . S
H354 C328 0.934 . S
H355 C329 0.930 . S
H356 C334 0.930 . S
H357 C335 0.931 . S
H358 C337 0.934 . S
H359 C338 0.930 . S
Ho360 C363 2.811 . S
Ho360 O380 2.322 . S
Ho360 O382 2.378 . S
Ho360 O383 2.524 . S
Ho360 O384 2.381 . S
Ho360 O385 2.669 . S
Ho360 O387 2.346 . S
Ho360 O391 2.305 . S
Ho361 C372 2.811 . S
Ho361 O381 2.346 . S
Ho361 O385 2.305 . S
Ho361 O386 2.322 . S
Ho361 O388 2.378 . S
Ho361 O389 2.524 . S
Ho361 O390 2.381 . S
Ho361 O391 2.669 . S
C362 O380 1.259 . S
C362 O381 1.268 . S
C363 Ho360 2.811 . S
C363 C364 1.488 . S
C363 O382 1.215 . S
C363 O383 1.289 . S
C364 C363 1.488 . S
C364 C365 1.348 . S
C364 C369 1.413 . S
C365 C364 1.348 . S
C365 C366 1.442 . S
C365 H392 0.930 . S
C366 C365 1.442 . S
C366 C367 1.381 . S
C366 H393 0.931 . S
C367 C366 1.381 . S
C367 C368 1.321 . S
C368 C367 1.321 . S
C368 C369 1.403 . S
C368 H394 0.934 . S
C369 C364 1.413 . S
C369 C368 1.403 . S
C369 H395 0.930 . S
C370 O384 1.275 . S
C370 O385 1.256 . S
C371 O386 1.259 . S
C371 O387 1.268 . S
C372 Ho361 2.811 . S
C372 C373 1.488 . S
C372 O388 1.215 . S
C372 O389 1.289 . S
C373 C372 1.488 . S
C373 C374 1.348 . S
C373 C378 1.413 . S
C374 C373 1.348 . S
C374 C375 1.442 . S
C374 H396 0.930 . S
C375 C374 1.442 . S
C375 C376 1.381 . S
C375 H397 0.931 . S
C376 C375 1.381 . S
C376 C377 1.321 . S
C377 C376 1.321 . S
C377 C378 1.403 . S
C377 H398 0.934 . S
C378 C373 1.413 . S
C378 C377 1.403 . S
C378 H399 0.930 . S
C379 O390 1.275 . S
C379 O391 1.256 . S
O380 Ho360 2.322 . S
O380 C362 1.259 . S
O381 Ho361 2.346 . S
O381 C362 1.268 . S
O382 Ho360 2.378 . S
O382 C363 1.215 . S
O383 Ho360 2.524 . S
O383 C363 1.289 . S
O384 Ho360 2.381 . S
O384 C370 1.275 . S
O385 Ho360 2.669 . S
O385 Ho361 2.305 . S
O385 C370 1.256 . S
O386 Ho361 2.322 . S
O386 C371 1.259 . S
O387 Ho360 2.346 . S
O387 C371 1.268 . S
O388 Ho361 2.378 . S
O388 C372 1.215 . S
O389 Ho361 2.524 . S
O389 C372 1.289 . S
O390 Ho361 2.381 . S
O390 C379 1.275 . S
O391 Ho360 2.305 . S
O391 Ho361 2.669 . S
O391 C379 1.256 . S
H392 C365 0.930 . S
H393 C366 0.931 . S
H394 C368 0.934 . S
H395 C369 0.930 . S
H396 C374 0.930 . S
H397 C375 0.931 . S
H398 C377 0.934 . S
H399 C378 0.930 . S
Ho400 C403 2.811 . S
Ho400 O420 2.322 . S
Ho400 O422 2.378 . S
Ho400 O423 2.524 . S
Ho400 O424 2.381 . S
Ho400 O425 2.669 . S
Ho400 O427 2.346 . S
Ho400 O431 2.305 . S
Ho401 C412 2.811 . S
Ho401 O421 2.346 . S
Ho401 O425 2.305 . S
Ho401 O426 2.322 . S
Ho401 O428 2.378 . S
Ho401 O429 2.524 . S
Ho401 O430 2.381 . S
Ho401 O431 2.669 . S
C402 O420 1.259 . S
C402 O421 1.268 . S
C403 Ho400 2.811 . S
C403 C404 1.488 . S
C403 O422 1.215 . S
C403 O423 1.289 . S
C404 C403 1.488 . S
C404 C405 1.348 . S
C404 C409 1.413 . S
C405 C404 1.348 . S
C405 C406 1.442 . S
C405 H432 0.930 . S
C406 C405 1.442 . S
C406 C407 1.381 . S
C406 H433 0.931 . S
C407 C406 1.381 . S
C407 C408 1.321 . S
C408 C407 1.321 . S
C408 C409 1.403 . S
C408 H434 0.934 . S
C409 C404 1.413 . S
C409 C408 1.403 . S
C409 H435 0.930 . S
C410 O424 1.275 . S
C410 O425 1.256 . S
C411 O426 1.259 . S
C411 O427 1.268 . S
C412 Ho401 2.811 . S
C412 C413 1.488 . S
C412 O428 1.215 . S
C412 O429 1.289 . S
C413 C412 1.488 . S
C413 C414 1.348 . S
C413 C418 1.413 . S
C414 C413 1.348 . S
C414 C415 1.442 . S
C414 H436 0.930 . S
C415 C414 1.442 . S
C415 C416 1.381 . S
C415 H437 0.931 . S
C416 C415 1.381 . S
C416 C417 1.321 . S
C417 C416 1.321 . S
C417 C418 1.403 . S
C417 H438 0.934 . S
C418 C413 1.413 . S
C418 C417 1.403 . S
C418 H439 0.930 . S
C419 O430 1.275 . S
C419 O431 1.256 . S
O420 Ho400 2.322 . S
O420 C402 1.259 . S
O421 Ho401 2.346 . S
O421 C402 1.268 . S
O422 Ho400 2.378 . S
O422 C403 1.215 . S
O423 Ho400 2.524 . S
O423 C403 1.289 . S
O424 Ho400 2.381 . S
O424 C410 1.275 . S
O425 Ho400 2.669 . S
O425 Ho401 2.305 . S
O425 C410 1.256 . S
O426 Ho401 2.322 . S
O426 C411 1.259 . S
O427 Ho400 2.346 . S
O427 C411 1.268 . S
O428 Ho401 2.378 . S
O428 C412 1.215 . S
O429 Ho401 2.524 . S
O429 C412 1.289 . S
O430 Ho401 2.381 . S
O430 C419 1.275 . S
O431 Ho400 2.305 . S
O431 Ho401 2.669 . S
O431 C419 1.256 . S
H432 C405 0.930 . S
H433 C406 0.931 . S
H434 C408 0.934 . S
H435 C409 0.930 . S
H436 C414 0.930 . S
H437 C415 0.931 . S
H438 C417 0.934 . S
H439 C418 0.930 . S
Ho440 C443 2.811 . S
Ho440 O460 2.322 . S
Ho440 O462 2.378 . S
Ho440 O463 2.524 . S
Ho440 O464 2.381 . S
Ho440 O465 2.669 . S
Ho440 O467 2.346 . S
Ho440 O471 2.305 . S
Ho441 C452 2.811 . S
Ho441 O461 2.346 . S
Ho441 O465 2.305 . S
Ho441 O466 2.322 . S
Ho441 O468 2.378 . S
Ho441 O469 2.524 . S
Ho441 O470 2.381 . S
Ho441 O471 2.669 . S
C442 O460 1.259 . S
C442 O461 1.268 . S
C443 Ho440 2.811 . S
C443 C444 1.488 . S
C443 O462 1.215 . S
C443 O463 1.289 . S
C444 C443 1.488 . S
C444 C445 1.348 . S
C444 C449 1.413 . S
C445 C444 1.348 . S
C445 C446 1.442 . S
C445 H472 0.930 . S
C446 C445 1.442 . S
C446 C447 1.381 . S
C446 H473 0.931 . S
C447 C446 1.381 . S
C447 C448 1.321 . S
C448 C447 1.321 . S
C448 C449 1.403 . S
C448 H474 0.934 . S
C449 C444 1.413 . S
C449 C448 1.403 . S
C449 H475 0.930 . S
C450 O464 1.275 . S
C450 O465 1.256 . S
C451 O466 1.259 . S
C451 O467 1.268 . S
C452 Ho441 2.811 . S
C452 C453 1.488 . S
C452 O468 1.215 . S
C452 O469 1.289 . S
C453 C452 1.488 . S
C453 C454 1.348 . S
C453 C458 1.413 . S
C454 C453 1.348 . S
C454 C455 1.442 . S
C454 H476 0.930 . S
C455 C454 1.442 . S
C455 C456 1.381 . S
C455 H477 0.931 . S
C456 C455 1.381 . S
C456 C457 1.321 . S
C457 C456 1.321 . S
C457 C458 1.403 . S
C457 H478 0.934 . S
C458 C453 1.413 . S
C458 C457 1.403 . S
C458 H479 0.930 . S
C459 O470 1.275 . S
C459 O471 1.256 . S
O460 Ho440 2.322 . S
O460 C442 1.259 . S
O461 Ho441 2.346 . S
O461 C442 1.268 . S
O462 Ho440 2.378 . S
O462 C443 1.215 . S
O463 Ho440 2.524 . S
O463 C443 1.289 . S
O464 Ho440 2.381 . S
O464 C450 1.275 . S
O465 Ho440 2.669 . S
O465 Ho441 2.305 . S
O465 C450 1.256 . S
O466 Ho441 2.322 . S
O466 C451 1.259 . S
O467 Ho440 2.346 . S
O467 C451 1.268 . S
O468 Ho441 2.378 . S
O468 C452 1.215 . S
O469 Ho441 2.524 . S
O469 C452 1.289 . S
O470 Ho441 2.381 . S
O470 C459 1.275 . S
O471 Ho440 2.305 . S
O471 Ho441 2.669 . S
O471 C459 1.256 . S
H472 C445 0.930 . S
H473 C446 0.931 . S
H474 C448 0.934 . S
H475 C449 0.930 . S
H476 C454 0.930 . S
H477 C455 0.931 . S
H478 C457 0.934 . S
H479 C458 0.930 . S
Ho480 C483 2.811 . S
Ho480 O500 2.322 . S
Ho480 O502 2.378 . S
Ho480 O503 2.524 . S
Ho480 O504 2.381 . S
Ho480 O505 2.669 . S
Ho480 O507 2.346 . S
Ho480 O511 2.305 . S
Ho481 C492 2.811 . S
Ho481 O501 2.346 . S
Ho481 O505 2.305 . S
Ho481 O506 2.322 . S
Ho481 O508 2.378 . S
Ho481 O509 2.524 . S
Ho481 O510 2.381 . S
Ho481 O511 2.669 . S
C482 O500 1.259 . S
C482 O501 1.268 . S
C483 Ho480 2.811 . S
C483 C484 1.488 . S
C483 O502 1.215 . S
C483 O503 1.289 . S
C484 C483 1.488 . S
C484 C485 1.348 . S
C484 C489 1.413 . S
C485 C484 1.348 . S
C485 C486 1.442 . S
C485 H512 0.930 . S
C486 C485 1.442 . S
C486 C487 1.381 . S
C486 H513 0.931 . S
C487 C486 1.381 . S
C487 C488 1.321 . S
C488 C487 1.321 . S
C488 C489 1.403 . S
C488 H514 0.934 . S
C489 C484 1.413 . S
C489 C488 1.403 . S
C489 H515 0.930 . S
C490 O504 1.275 . S
C490 O505 1.256 . S
C491 O506 1.259 . S
C491 O507 1.268 . S
C492 Ho481 2.811 . S
C492 C493 1.488 . S
C492 O508 1.215 . S
C492 O509 1.289 . S
C493 C492 1.488 . S
C493 C494 1.348 . S
C493 C498 1.413 . S
C494 C493 1.348 . S
C494 C495 1.442 . S
C494 H516 0.930 . S
C495 C494 1.442 . S
C495 C496 1.381 . S
C495 H517 0.931 . S
C496 C495 1.381 . S
C496 C497 1.321 . S
C497 C496 1.321 . S
C497 C498 1.403 . S
C497 H518 0.934 . S
C498 C493 1.413 . S
C498 C497 1.403 . S
C498 H519 0.930 . S
C499 O510 1.275 . S
C499 O511 1.256 . S
O500 Ho480 2.322 . S
O500 C482 1.259 . S
O501 Ho481 2.346 . S
O501 C482 1.268 . S
O502 Ho480 2.378 . S
O502 C483 1.215 . S
O503 Ho480 2.524 . S
O503 C483 1.289 . S
O504 Ho480 2.381 . S
O504 C490 1.275 . S
O505 Ho480 2.669 . S
O505 Ho481 2.305 . S
O505 C490 1.256 . S
O506 Ho481 2.322 . S
O506 C491 1.259 . S
O507 Ho480 2.346 . S
O507 C491 1.268 . S
O508 Ho481 2.378 . S
O508 C492 1.215 . S
O509 Ho481 2.524 . S
O509 C492 1.289 . S
O510 Ho481 2.381 . S
O510 C499 1.275 . S
O511 Ho480 2.305 . S
O511 Ho481 2.669 . S
O511 C499 1.256 . S
H512 C485 0.930 . S
H513 C486 0.931 . S
H514 C488 0.934 . S
H515 C489 0.930 . S
H516 C494 0.930 . S
H517 C495 0.931 . S
H518 C497 0.934 . S
H519 C498 0.930 . S
Ho520 C523 2.811 . S
Ho520 O540 2.322 . S
Ho520 O542 2.378 . S
Ho520 O543 2.524 . S
Ho520 O544 2.381 . S
Ho520 O545 2.669 . S
Ho520 O547 2.346 . S
Ho520 O551 2.305 . S
Ho521 C532 2.811 . S
Ho521 O541 2.346 . S
Ho521 O545 2.305 . S
Ho521 O546 2.322 . S
Ho521 O548 2.378 . S
Ho521 O549 2.524 . S
Ho521 O550 2.381 . S
Ho521 O551 2.669 . S
C522 O540 1.259 . S
C522 O541 1.268 . S
C523 Ho520 2.811 . S
C523 C524 1.488 . S
C523 O542 1.215 . S
C523 O543 1.289 . S
C524 C523 1.488 . S
C524 C525 1.348 . S
C524 C529 1.413 . S
C525 C524 1.348 . S
C525 C526 1.442 . S
C525 H552 0.930 . S
C526 C525 1.442 . S
C526 C527 1.381 . S
C526 H553 0.931 . S
C527 C526 1.381 . S
C527 C528 1.321 . S
C528 C527 1.321 . S
C528 C529 1.403 . S
C528 H554 0.934 . S
C529 C524 1.413 . S
C529 C528 1.403 . S
C529 H555 0.930 . S
C530 O544 1.275 . S
C530 O545 1.256 . S
C531 O546 1.259 . S
C531 O547 1.268 . S
C532 Ho521 2.811 . S
C532 C533 1.488 . S
C532 O548 1.215 . S
C532 O549 1.289 . S
C533 C532 1.488 . S
C533 C534 1.348 . S
C533 C538 1.413 . S
C534 C533 1.348 . S
C534 C535 1.442 . S
C534 H556 0.930 . S
C535 C534 1.442 . S
C535 C536 1.381 . S
C535 H557 0.931 . S
C536 C535 1.381 . S
C536 C537 1.321 . S
C537 C536 1.321 . S
C537 C538 1.403 . S
C537 H558 0.934 . S
C538 C533 1.413 . S
C538 C537 1.403 . S
C538 H559 0.930 . S
C539 O550 1.275 . S
C539 O551 1.256 . S
O540 Ho520 2.322 . S
O540 C522 1.259 . S
O541 Ho521 2.346 . S
O541 C522 1.268 . S
O542 Ho520 2.378 . S
O542 C523 1.215 . S
O543 Ho520 2.524 . S
O543 C523 1.289 . S
O544 Ho520 2.381 . S
O544 C530 1.275 . S
O545 Ho520 2.669 . S
O545 Ho521 2.305 . S
O545 C530 1.256 . S
O546 Ho521 2.322 . S
O546 C531 1.259 . S
O547 Ho520 2.346 . S
O547 C531 1.268 . S
O548 Ho521 2.378 . S
O548 C532 1.215 . S
O549 Ho521 2.524 . S
O549 C532 1.289 . S
O550 Ho521 2.381 . S
O550 C539 1.275 . S
O551 Ho520 2.305 . S
O551 Ho521 2.669 . S
O551 C539 1.256 . S
H552 C525 0.930 . S
H553 C526 0.931 . S
H554 C528 0.934 . S
H555 C529 0.930 . S
H556 C534 0.930 . S
H557 C535 0.931 . S
H558 C537 0.934 . S
H559 C538 0.930 . S
Ho560 C563 2.811 . S
Ho560 O580 2.322 . S
Ho560 O582 2.378 . S
Ho560 O583 2.524 . S
Ho560 O584 2.381 . S
Ho560 O585 2.669 . S
Ho560 O587 2.346 . S
Ho560 O591 2.305 . S
Ho561 C572 2.811 . S
Ho561 O581 2.346 . S
Ho561 O585 2.305 . S
Ho561 O586 2.322 . S
Ho561 O588 2.378 . S
Ho561 O589 2.524 . S
Ho561 O590 2.381 . S
Ho561 O591 2.669 . S
C562 O580 1.259 . S
C562 O581 1.268 . S
C563 Ho560 2.811 . S
C563 C564 1.488 . S
C563 O582 1.215 . S
C563 O583 1.289 . S
C564 C563 1.488 . S
C564 C565 1.348 . S
C564 C569 1.413 . S
C565 C564 1.348 . S
C565 C566 1.442 . S
C565 H592 0.930 . S
C566 C565 1.442 . S
C566 C567 1.381 . S
C566 H593 0.931 . S
C567 C566 1.381 . S
C567 C568 1.321 . S
C568 C567 1.321 . S
C568 C569 1.403 . S
C568 H594 0.934 . S
C569 C564 1.413 . S
C569 C568 1.403 . S
C569 H595 0.930 . S
C570 O584 1.275 . S
C570 O585 1.256 . S
C571 O586 1.259 . S
C571 O587 1.268 . S
C572 Ho561 2.811 . S
C572 C573 1.488 . S
C572 O588 1.215 . S
C572 O589 1.289 . S
C573 C572 1.488 . S
C573 C574 1.348 . S
C573 C578 1.413 . S
C574 C573 1.348 . S
C574 C575 1.442 . S
C574 H596 0.930 . S
C575 C574 1.442 . S
C575 C576 1.381 . S
C575 H597 0.931 . S
C576 C575 1.381 . S
C576 C577 1.321 . S
C577 C576 1.321 . S
C577 C578 1.403 . S
C577 H598 0.934 . S
C578 C573 1.413 . S
C578 C577 1.403 . S
C578 H599 0.930 . S
C579 O590 1.275 . S
C579 O591 1.256 . S
O580 Ho560 2.322 . S
O580 C562 1.259 . S
O581 Ho561 2.346 . S
O581 C562 1.268 . S
O582 Ho560 2.378 . S
O582 C563 1.215 . S
O583 Ho560 2.524 . S
O583 C563 1.289 . S
O584 Ho560 2.381 . S
O584 C570 1.275 . S
O585 Ho560 2.669 . S
O585 Ho561 2.305 . S
O585 C570 1.256 . S
O586 Ho561 2.322 . S
O586 C571 1.259 . S
O587 Ho560 2.346 . S
O587 C571 1.268 . S
O588 Ho561 2.378 . S
O588 C572 1.215 . S
O589 Ho561 2.524 . S
O589 C572 1.289 . S
O590 Ho561 2.381 . S
O590 C579 1.275 . S
O591 Ho560 2.305 . S
O591 Ho561 2.669 . S
O591 C579 1.256 . S
H592 C565 0.930 . S
H593 C566 0.931 . S
H594 C568 0.934 . S
H595 C569 0.930 . S
H596 C574 0.930 . S
H597 C575 0.931 . S
H598 C577 0.934 . S
H599 C578 0.930 . S
Ho600 C603 2.811 . S
Ho600 O620 2.322 . S
Ho600 O622 2.378 . S
Ho600 O623 2.524 . S
Ho600 O624 2.381 . S
Ho600 O625 2.669 . S
Ho600 O627 2.346 . S
Ho600 O631 2.305 . S
Ho601 C612 2.811 . S
Ho601 O621 2.346 . S
Ho601 O625 2.305 . S
Ho601 O626 2.322 . S
Ho601 O628 2.378 . S
Ho601 O629 2.524 . S
Ho601 O630 2.381 . S
Ho601 O631 2.669 . S
C602 O620 1.259 . S
C602 O621 1.268 . S
C603 Ho600 2.811 . S
C603 C604 1.488 . S
C603 O622 1.215 . S
C603 O623 1.289 . S
C604 C603 1.488 . S
C604 C605 1.348 . S
C604 C609 1.413 . S
C605 C604 1.348 . S
C605 C606 1.442 . S
C605 H632 0.930 . S
C606 C605 1.442 . S
C606 C607 1.381 . S
C606 H633 0.931 . S
C607 C606 1.381 . S
C607 C608 1.321 . S
C608 C607 1.321 . S
C608 C609 1.403 . S
C608 H634 0.934 . S
C609 C604 1.413 . S
C609 C608 1.403 . S
C609 H635 0.930 . S
C610 O624 1.275 . S
C610 O625 1.256 . S
C611 O626 1.259 . S
C611 O627 1.268 . S
C612 Ho601 2.811 . S
C612 C613 1.488 . S
C612 O628 1.215 . S
C612 O629 1.289 . S
C613 C612 1.488 . S
C613 C614 1.348 . S
C613 C618 1.413 . S
C614 C613 1.348 . S
C614 C615 1.442 . S
C614 H636 0.930 . S
C615 C614 1.442 . S
C615 C616 1.381 . S
C615 H637 0.931 . S
C616 C615 1.381 . S
C616 C617 1.321 . S
C617 C616 1.321 . S
C617 C618 1.403 . S
C617 H638 0.934 . S
C618 C613 1.413 . S
C618 C617 1.403 . S
C618 H639 0.930 . S
C619 O630 1.275 . S
C619 O631 1.256 . S
O620 Ho600 2.322 . S
O620 C602 1.259 . S
O621 Ho601 2.346 . S
O621 C602 1.268 . S
O622 Ho600 2.378 . S
O622 C603 1.215 . S
O623 Ho600 2.524 . S
O623 C603 1.289 . S
O624 Ho600 2.381 . S
O624 C610 1.275 . S
O625 Ho600 2.669 . S
O625 Ho601 2.305 . S
O625 C610 1.256 . S
O626 Ho601 2.322 . S
O626 C611 1.259 . S
O627 Ho600 2.346 . S
O627 C611 1.268 . S
O628 Ho601 2.378 . S
O628 C612 1.215 . S
O629 Ho601 2.524 . S
O629 C612 1.289 . S
O630 Ho601 2.381 . S
O630 C619 1.275 . S
O631 Ho600 2.305 . S
O631 Ho601 2.669 . S
O631 C619 1.256 . S
H632 C605 0.930 . S
H633 C606 0.931 . S
H634 C608 0.934 . S
H635 C609 0.930 . S
H636 C614 0.930 . S
H637 C615 0.931 . S
H638 C617 0.934 . S
H639 C618 0.930 . S
H640 C652 0.930 . S
H641 C654 0.930 . S
H642 C655 0.930 . S
H643 C659 0.959 . S
H644 C659 0.959 . S
H645 C659 0.961 . S
H646 C660 0.960 . S
H647 C660 0.961 . S
H648 C660 0.959 . S
H649 C663 0.929 . S
H650 C664 0.931 . S
H651 C666 0.930 . S
C652 H640 0.930 . S
C652 C653 1.399 . S
C652 C657 1.399 . S
C653 C652 1.399 . S
C653 C654 1.376 . S
C654 H641 0.930 . S
C654 C653 1.376 . S
C654 C655 1.388 . S
C655 H642 0.930 . S
C655 C654 1.388 . S
C655 C656 1.390 . S
C656 C655 1.390 . S
C656 C657 1.394 . S
C656 C662 1.465 . S
C657 C652 1.399 . S
C657 C656 1.394 . S
C657 C658 1.516 . S
C658 C657 1.516 . S
C658 C659 1.502 . S
C658 C660 1.561 . S
C658 C661 1.526 . S
C659 H643 0.959 . S
C659 H644 0.959 . S
C659 H645 0.961 . S
C659 C658 1.502 . S
C660 H646 0.960 . S
C660 H647 0.961 . S
C660 H648 0.959 . S
C660 C658 1.561 . S
C661 C658 1.526 . S
C661 C662 1.396 . S
C661 C666 1.390 . S
C662 C656 1.465 . S
C662 C661 1.396 . S
C662 C663 1.399 . S
C663 H649 0.929 . S
C663 C662 1.399 . S
C663 C664 1.385 . S
C664 H650 0.931 . S
C664 C663 1.385 . S
C664 C665 1.389 . S
C665 C664 1.389 . S
C665 C666 1.387 . S
C666 H651 0.930 . S
C666 C661 1.390 . S
C666 C665 1.387 . S
H667 C679 0.930 . S
H668 C681 0.930 . S
H669 C682 0.930 . S
H670 C686 0.959 . S
H671 C686 0.959 . S
H672 C686 0.961 . S
H673 C687 0.960 . S
H674 C687 0.961 . S
H675 C687 0.959 . S
H676 C690 0.929 . S
H677 C691 0.931 . S
H678 C693 0.930 . S
C679 H667 0.930 . S
C679 C680 1.399 . S
C679 C684 1.399 . S
C680 C679 1.399 . S
C680 C681 1.376 . S
C681 H668 0.930 . S
C681 C680 1.376 . S
C681 C682 1.388 . S
C682 H669 0.930 . S
C682 C681 1.388 . S
C682 C683 1.390 . S
C683 C682 1.390 . S
C683 C684 1.394 . S
C683 C689 1.465 . S
C684 C679 1.399 . S
C684 C683 1.394 . S
C684 C685 1.516 . S
C685 C684 1.516 . S
C685 C686 1.502 . S
C685 C687 1.561 . S
C685 C688 1.526 . S
C686 H670 0.959 . S
C686 H671 0.959 . S
C686 H672 0.961 . S
C686 C685 1.502 . S
C687 H673 0.960 . S
C687 H674 0.961 . S
C687 H675 0.959 . S
C687 C685 1.561 . S
C688 C685 1.526 . S
C688 C689 1.396 . S
C688 C693 1.390 . S
C689 C683 1.465 . S
C689 C688 1.396 . S
C689 C690 1.399 . S
C690 H676 0.929 . S
C690 C689 1.399 . S
C690 C691 1.385 . S
C691 H677 0.931 . S
C691 C690 1.385 . S
C691 C692 1.389 . S
C692 C691 1.389 . S
C692 C693 1.387 . S
C693 H678 0.930 . S
C693 C688 1.390 . S
C693 C692 1.387 . S
H694 C706 0.930 . S
H695 C708 0.930 . S
H696 C709 0.930 . S
H697 C713 0.959 . S
H698 C713 0.959 . S
H699 C713 0.961 . S
H700 C714 0.960 . S
H701 C714 0.961 . S
H702 C714 0.959 . S
H703 C717 0.929 . S
H704 C718 0.931 . S
H705 C720 0.930 . S
C706 H694 0.930 . S
C706 C707 1.399 . S
C706 C711 1.399 . S
C707 C706 1.399 . S
C707 C708 1.376 . S
C708 H695 0.930 . S
C708 C707 1.376 . S
C708 C709 1.388 . S
C709 H696 0.930 . S
C709 C708 1.388 . S
C709 C710 1.390 . S
C710 C709 1.390 . S
C710 C711 1.394 . S
C710 C716 1.465 . S
C711 C706 1.399 . S
C711 C710 1.394 . S
C711 C712 1.516 . S
C712 C711 1.516 . S
C712 C713 1.502 . S
C712 C714 1.561 . S
C712 C715 1.526 . S
C713 H697 0.959 . S
C713 H698 0.959 . S
C713 H699 0.961 . S
C713 C712 1.502 . S
C714 H700 0.960 . S
C714 H701 0.961 . S
C714 H702 0.959 . S
C714 C712 1.561 . S
C715 C712 1.526 . S
C715 C716 1.396 . S
C715 C720 1.390 . S
C716 C710 1.465 . S
C716 C715 1.396 . S
C716 C717 1.399 . S
C717 H703 0.929 . S
C717 C716 1.399 . S
C717 C718 1.385 . S
C718 H704 0.931 . S
C718 C717 1.385 . S
C718 C719 1.389 . S
C719 C718 1.389 . S
C719 C720 1.387 . S
C720 H705 0.930 . S
C720 C715 1.390 . S
C720 C719 1.387 . S
H721 C733 0.930 . S
H722 C735 0.930 . S
H723 C736 0.930 . S
H724 C740 0.959 . S
H725 C740 0.959 . S
H726 C740 0.961 . S
H727 C741 0.960 . S
H728 C741 0.961 . S
H729 C741 0.959 . S
H730 C744 0.929 . S
H731 C745 0.931 . S
H732 C747 0.930 . S
C733 H721 0.930 . S
C733 C734 1.399 . S
C733 C738 1.399 . S
C734 C733 1.399 . S
C734 C735 1.376 . S
C735 H722 0.930 . S
C735 C734 1.376 . S
C735 C736 1.388 . S
C736 H723 0.930 . S
C736 C735 1.388 . S
C736 C737 1.390 . S
C737 C736 1.390 . S
C737 C738 1.394 . S
C737 C743 1.465 . S
C738 C733 1.399 . S
C738 C737 1.394 . S
C738 C739 1.516 . S
C739 C738 1.516 . S
C739 C740 1.502 . S
C739 C741 1.561 . S
C739 C742 1.526 . S
C740 H724 0.959 . S
C740 H725 0.959 . S
C740 H726 0.961 . S
C740 C739 1.502 . S
C741 H727 0.960 . S
C741 H728 0.961 . S
C741 H729 0.959 . S
C741 C739 1.561 . S
C742 C739 1.526 . S
C742 C743 1.396 . S
C742 C747 1.390 . S
C743 C737 1.465 . S
C743 C742 1.396 . S
C743 C744 1.399 . S
C744 H730 0.929 . S
C744 C743 1.399 . S
C744 C745 1.385 . S
C745 H731 0.931 . S
C745 C744 1.385 . S
C745 C746 1.389 . S
C746 C745 1.389 . S
C746 C747 1.387 . S
C747 H732 0.930 . S
C747 C742 1.390 . S
C747 C746 1.387 . S
H748 C760 0.930 . S
H749 C762 0.930 . S
H750 C763 0.930 . S
H751 C767 0.959 . S
H752 C767 0.959 . S
H753 C767 0.961 . S
H754 C768 0.960 . S
H755 C768 0.961 . S
H756 C768 0.959 . S
H757 C771 0.929 . S
H758 C772 0.931 . S
H759 C774 0.930 . S
C760 H748 0.930 . S
C760 C761 1.399 . S
C760 C765 1.399 . S
C761 C760 1.399 . S
C761 C762 1.376 . S
C762 H749 0.930 . S
C762 C761 1.376 . S
C762 C763 1.388 . S
C763 H750 0.930 . S
C763 C762 1.388 . S
C763 C764 1.390 . S
C764 C763 1.390 . S
C764 C765 1.394 . S
C764 C770 1.465 . S
C765 C760 1.399 . S
C765 C764 1.394 . S
C765 C766 1.516 . S
C766 C765 1.516 . S
C766 C767 1.502 . S
C766 C768 1.561 . S
C766 C769 1.526 . S
C767 H751 0.959 . S
C767 H752 0.959 . S
C767 H753 0.961 . S
C767 C766 1.502 . S
C768 H754 0.960 . S
C768 H755 0.961 . S
C768 H756 0.959 . S
C768 C766 1.561 . S
C769 C766 1.526 . S
C769 C770 1.396 . S
C769 C774 1.390 . S
C770 C764 1.465 . S
C770 C769 1.396 . S
C770 C771 1.399 . S
C771 H757 0.929 . S
C771 C770 1.399 . S
C771 C772 1.385 . S
C772 H758 0.931 . S
C772 C771 1.385 . S
C772 C773 1.389 . S
C773 C772 1.389 . S
C773 C774 1.387 . S
C774 H759 0.930 . S
C774 C769 1.390 . S
C774 C773 1.387 . S
H775 C787 0.930 . S
H776 C789 0.930 . S
H777 C790 0.930 . S
H778 C794 0.959 . S
H779 C794 0.959 . S
H780 C794 0.961 . S
H781 C795 0.960 . S
H782 C795 0.961 . S
H783 C795 0.959 . S
H784 C798 0.929 . S
H785 C799 0.931 . S
H786 C801 0.930 . S
C787 H775 0.930 . S
C787 C788 1.399 . S
C787 C792 1.399 . S
C788 C787 1.399 . S
C788 C789 1.376 . S
C789 H776 0.930 . S
C789 C788 1.376 . S
C789 C790 1.388 . S
C790 H777 0.930 . S
C790 C789 1.388 . S
C790 C791 1.390 . S
C791 C790 1.390 . S
C791 C792 1.394 . S
C791 C797 1.465 . S
C792 C787 1.399 . S
C792 C791 1.394 . S
C792 C793 1.516 . S
C793 C792 1.516 . S
C793 C794 1.502 . S
C793 C795 1.561 . S
C793 C796 1.526 . S
C794 H778 0.959 . S
C794 H779 0.959 . S
C794 H780 0.961 . S
C794 C793 1.502 . S
C795 H781 0.960 . S
C795 H782 0.961 . S
C795 H783 0.959 . S
C795 C793 1.561 . S
C796 C793 1.526 . S
C796 C797 1.396 . S
C796 C801 1.390 . S
C797 C791 1.465 . S
C797 C796 1.396 . S
C797 C798 1.399 . S
C798 H784 0.929 . S
C798 C797 1.399 . S
C798 C799 1.385 . S
C799 H785 0.931 . S
C799 C798 1.385 . S
C799 C800 1.389 . S
C800 C799 1.389 . S
C800 C801 1.387 . S
C801 H786 0.930 . S
C801 C796 1.390 . S
C801 C800 1.387 . S
H802 C814 0.930 . S
H803 C816 0.930 . S
H804 C817 0.930 . S
H805 C821 0.959 . S
H806 C821 0.959 . S
H807 C821 0.961 . S
H808 C822 0.960 . S
H809 C822 0.961 . S
H810 C822 0.959 . S
H811 C825 0.929 . S
H812 C826 0.931 . S
H813 C828 0.930 . S
C814 H802 0.930 . S
C814 C815 1.399 . S
C814 C819 1.399 . S
C815 C814 1.399 . S
C815 C816 1.376 . S
C816 H803 0.930 . S
C816 C815 1.376 . S
C816 C817 1.388 . S
C817 H804 0.930 . S
C817 C816 1.388 . S
C817 C818 1.390 . S
C818 C817 1.390 . S
C818 C819 1.394 . S
C818 C824 1.465 . S
C819 C814 1.399 . S
C819 C818 1.394 . S
C819 C820 1.516 . S
C820 C819 1.516 . S
C820 C821 1.502 . S
C820 C822 1.561 . S
C820 C823 1.526 . S
C821 H805 0.959 . S
C821 H806 0.959 . S
C821 H807 0.961 . S
C821 C820 1.502 . S
C822 H808 0.960 . S
C822 H809 0.961 . S
C822 H810 0.959 . S
C822 C820 1.561 . S
C823 C820 1.526 . S
C823 C824 1.396 . S
C823 C828 1.390 . S
C824 C818 1.465 . S
C824 C823 1.396 . S
C824 C825 1.399 . S
C825 H811 0.929 . S
C825 C824 1.399 . S
C825 C826 1.385 . S
C826 H812 0.931 . S
C826 C825 1.385 . S
C826 C827 1.389 . S
C827 C826 1.389 . S
C827 C828 1.387 . S
C828 H813 0.930 . S
C828 C823 1.390 . S
C828 C827 1.387 . S
H829 C841 0.930 . S
H830 C843 0.930 . S
H831 C844 0.930 . S
H832 C848 0.959 . S
H833 C848 0.959 . S
H834 C848 0.961 . S
H835 C849 0.960 . S
H836 C849 0.961 . S
H837 C849 0.959 . S
H838 C852 0.929 . S
H839 C853 0.931 . S
H840 C855 0.930 . S
C841 H829 0.930 . S
C841 C842 1.399 . S
C841 C846 1.399 . S
C842 C841 1.399 . S
C842 C843 1.376 . S
C843 H830 0.930 . S
C843 C842 1.376 . S
C843 C844 1.388 . S
C844 H831 0.930 . S
C844 C843 1.388 . S
C844 C845 1.390 . S
C845 C844 1.390 . S
C845 C846 1.394 . S
C845 C851 1.465 . S
C846 C841 1.399 . S
C846 C845 1.394 . S
C846 C847 1.516 . S
C847 C846 1.516 . S
C847 C848 1.502 . S
C847 C849 1.561 . S
C847 C850 1.526 . S
C848 H832 0.959 . S
C848 H833 0.959 . S
C848 H834 0.961 . S
C848 C847 1.502 . S
C849 H835 0.960 . S
C849 H836 0.961 . S
C849 H837 0.959 . S
C849 C847 1.561 . S
C850 C847 1.526 . S
C850 C851 1.396 . S
C850 C855 1.390 . S
C851 C845 1.465 . S
C851 C850 1.396 . S
C851 C852 1.399 . S
C852 H838 0.929 . S
C852 C851 1.399 . S
C852 C853 1.385 . S
C853 H839 0.931 . S
C853 C852 1.385 . S
C853 C854 1.389 . S
C854 C853 1.389 . S
C854 C855 1.387 . S
C855 H840 0.930 . S
C855 C850 1.390 . S
C855 C854 1.387 . S
H856 C868 0.930 . S
H857 C870 0.930 . S
H858 C871 0.930 . S
H859 C875 0.959 . S
H860 C875 0.959 . S
H861 C875 0.961 . S
H862 C876 0.960 . S
H863 C876 0.961 . S
H864 C876 0.959 . S
H865 C879 0.929 . S
H866 C880 0.931 . S
H867 C882 0.930 . S
C868 H856 0.930 . S
C868 C869 1.399 . S
C868 C873 1.399 . S
C869 C868 1.399 . S
C869 C870 1.376 . S
C870 H857 0.930 . S
C870 C869 1.376 . S
C870 C871 1.388 . S
C871 H858 0.930 . S
C871 C870 1.388 . S
C871 C872 1.390 . S
C872 C871 1.390 . S
C872 C873 1.394 . S
C872 C878 1.465 . S
C873 C868 1.399 . S
C873 C872 1.394 . S
C873 C874 1.516 1_565 S
C874 C873 1.516 1_545 S
C874 C875 1.502 . S
C874 C876 1.561 . S
C874 C877 1.526 . S
C875 H859 0.959 . S
C875 H860 0.959 . S
C875 H861 0.961 . S
C875 C874 1.502 . S
C876 H862 0.960 . S
C876 H863 0.961 . S
C876 H864 0.959 . S
C876 C874 1.561 . S
C877 C874 1.526 . S
C877 C878 1.396 1_545 S
C877 C882 1.390 . S
C878 C872 1.465 . S
C878 C877 1.396 1_565 S
C878 C879 1.399 . S
C879 H865 0.929 . S
C879 C878 1.399 . S
C879 C880 1.385 1_565 S
C880 H866 0.931 . S
C880 C879 1.385 1_545 S
C880 C881 1.389 . S
C881 C880 1.389 . S
C881 C882 1.387 . S
C882 H867 0.930 . S
C882 C877 1.390 . S
C882 C881 1.387 . S
H883 C895 0.930 . S
H884 C897 0.930 . S
H885 C898 0.930 . S
H886 C902 0.959 . S
H887 C902 0.959 . S
H888 C902 0.961 . S
H889 C903 0.960 . S
H890 C903 0.961 1_565 S
H891 C903 0.959 . S
H892 C906 0.929 . S
H893 C907 0.931 . S
H894 C909 0.930 . S
C895 H883 0.930 . S
C895 C896 1.399 . S
C895 C900 1.399 . S
C896 C895 1.399 . S
C896 C897 1.376 . S
C897 H884 0.930 . S
C897 C896 1.376 . S
C897 C898 1.388 . S
C898 H885 0.930 . S
C898 C897 1.388 . S
C898 C899 1.390 . S
C899 C898 1.390 . S
C899 C900 1.394 . S
C899 C905 1.465 . S
C900 C895 1.399 . S
C900 C899 1.394 . S
C900 C901 1.516 1_545 S
C901 C900 1.516 1_565 S
C901 C902 1.502 . S
C901 C903 1.561 1_565 S
C901 C904 1.526 . S
C902 H886 0.959 . S
C902 H887 0.959 . S
C902 H888 0.961 . S
C902 C901 1.502 . S
C903 H889 0.960 . S
C903 H890 0.961 1_545 S
C903 H891 0.959 . S
C903 C901 1.561 1_545 S
C904 C901 1.526 . S
C904 C905 1.396 1_565 S
C904 C909 1.390 . S
C905 C899 1.465 . S
C905 C904 1.396 1_545 S
C905 C906 1.399 . S
C906 H892 0.929 . S
C906 C905 1.399 . S
C906 C907 1.385 1_545 S
C907 H893 0.931 . S
C907 C906 1.385 1_565 S
C907 C908 1.389 . S
C908 C907 1.389 . S
C908 C909 1.387 . S
C909 H894 0.930 . S
C909 C904 1.390 . S
C909 C908 1.387 . S
H910 C922 0.930 . S
H911 C924 0.930 . S
H912 C925 0.930 . S
H913 C929 0.959 . S
H914 C929 0.959 . S
H915 C929 0.961 . S
H916 C930 0.960 . S
H917 C930 0.961 . S
H918 C930 0.959 . S
H919 C933 0.929 . S
H920 C934 0.931 . S
H921 C936 0.930 1_545 S
C922 H910 0.930 . S
C922 C923 1.399 . S
C922 C927 1.399 . S
C923 C922 1.399 . S
C923 C924 1.376 . S
C924 H911 0.930 . S
C924 C923 1.376 . S
C924 C925 1.388 1_545 S
C925 H912 0.930 . S
C925 C924 1.388 1_565 S
C925 C926 1.390 . S
C926 C925 1.390 . S
C926 C927 1.394 1_565 S
C926 C932 1.465 . S
C927 C922 1.399 . S
C927 C926 1.394 1_545 S
C927 C928 1.516 . S
C928 C927 1.516 . S
C928 C929 1.502 . S
C928 C930 1.561 . S
C928 C931 1.509 1_545 S
C929 H913 0.959 . S
C929 H914 0.959 . S
C929 H915 0.961 . S
C929 C928 1.502 . S
C930 H916 0.960 . S
C930 H917 0.961 . S
C930 H918 0.959 . S
C930 C928 1.561 . S
C931 C928 1.509 1_565 S
C931 C932 1.407 . S
C931 C936 1.396 . S
C932 C926 1.465 . S
C932 C931 1.407 . S
C932 C933 1.399 . S
C933 H919 0.929 . S
C933 C932 1.399 . S
C933 C934 1.385 . S
C934 H920 0.931 . S
C934 C933 1.385 . S
C934 C935 1.389 . S
C935 C934 1.389 . S
C935 C936 1.387 . S
C936 H921 0.930 1_565 S
C936 C931 1.396 . S
C936 C935 1.387 . S
H937 C949 0.930 1_565 S
H938 C951 0.930 . S
H939 C952 0.930 . S
H940 C956 0.959 . S
H941 C956 0.959 . S
H942 C956 0.961 . S
H943 C957 0.960 . S
H944 C957 0.961 . S
H945 C957 0.959 . S
H946 C960 0.929 . S
H947 C961 0.931 1_545 S
H948 C963 0.930 . S
C949 H937 0.930 1_545 S
C949 C950 1.399 . S
C949 C954 1.394 1_545 S
C950 C949 1.399 . S
C950 C951 1.376 . S
C951 H938 0.930 . S
C951 C950 1.376 . S
C951 C952 1.388 . S
C952 H939 0.930 . S
C952 C951 1.388 . S
C952 C953 1.390 . S
C953 C952 1.390 . S
C953 C954 1.382 1_545 S
C953 C959 1.465 . S
C954 C949 1.394 1_565 S
C954 C953 1.382 1_565 S
C954 C955 1.532 . S
C955 C954 1.532 . S
C955 C956 1.502 . S
C955 C957 1.561 . S
C955 C958 1.526 . S
C956 H940 0.959 . S
C956 H941 0.959 . S
C956 H942 0.961 . S
C956 C955 1.502 . S
C957 H943 0.960 . S
C957 H944 0.961 . S
C957 H945 0.959 . S
C957 C955 1.561 . S
C958 C955 1.526 . S
C958 C959 1.396 1_565 S
C958 C963 1.390 . S
C959 C953 1.465 . S
C959 C958 1.396 1_545 S
C959 C960 1.399 . S
C960 H946 0.929 . S
C960 C959 1.399 . S
C960 C961 1.385 1_545 S
C961 H947 0.931 1_565 S
C961 C960 1.385 1_565 S
C961 C962 1.389 . S
C962 C961 1.389 . S
C962 C963 1.387 . S
C963 H948 0.930 . S
C963 C958 1.390 . S
C963 C962 1.387 . S
H964 C976 0.930 . S
H965 C978 0.930 . S
H966 C979 0.930 . S
H967 C983 0.959 . S
H968 C983 0.959 . S
H969 C983 0.961 . S
H970 C984 0.960 . S
H971 C984 0.961 . S
H972 C984 0.959 . S
H973 C987 0.929 . S
H974 C988 0.931 . S
H975 C990 0.930 . S
C976 H964 0.930 . S
C976 C977 1.399 . S
C976 C981 1.399 . S
C977 C976 1.399 . S
C977 C978 1.376 . S
C978 H965 0.930 . S
C978 C977 1.376 . S
C978 C979 1.388 . S
C979 H966 0.930 . S
C979 C978 1.388 . S
C979 C980 1.390 . S
C980 C979 1.390 . S
C980 C981 1.394 . S
C980 C986 1.465 . S
C981 C976 1.399 . S
C981 C980 1.394 . S
C981 C982 1.516 . S
C982 C981 1.516 . S
C982 C983 1.502 . S
C982 C984 1.561 . S
C982 C985 1.526 . S
C983 H967 0.959 . S
C983 H968 0.959 . S
C983 H969 0.961 . S
C983 C982 1.502 . S
C984 H970 0.960 . S
C984 H971 0.961 . S
C984 H972 0.959 . S
C984 C982 1.561 . S
C985 C982 1.526 . S
C985 C986 1.396 . S
C985 C990 1.390 . S
C986 C980 1.465 . S
C986 C985 1.396 . S
C986 C987 1.399 . S
C987 H973 0.929 . S
C987 C986 1.399 . S
C987 C988 1.385 . S
C988 H974 0.931 . S
C988 C987 1.385 . S
C988 C989 1.389 . S
C989 C988 1.389 . S
C989 C990 1.387 . S
C990 H975 0.930 . S
C990 C985 1.390 . S
C990 C989 1.387 . S
H991 C1003 0.930 . S
H992 C1005 0.930 . S
H993 C1006 0.930 . S
H994 C1010 0.959 . S
H995 C1010 0.959 . S
H996 C1010 0.961 . S
H997 C1011 0.960 . S
H998 C1011 0.961 . S
H999 C1011 0.959 . S
H1000 C1014 0.929 . S
H1001 C1015 0.931 . S
H1002 C1017 0.930 . S
C1003 H991 0.930 . S
C1003 C1004 1.399 . S
C1003 C1008 1.399 . S
C1004 C1003 1.399 . S
C1004 C1005 1.376 . S
C1005 H992 0.930 . S
C1005 C1004 1.376 . S
C1005 C1006 1.388 . S
C1006 H993 0.930 . S
C1006 C1005 1.388 . S
C1006 C1007 1.390 . S
C1007 C1006 1.390 . S
C1007 C1008 1.394 . S
C1007 C1013 1.465 . S
C1008 C1003 1.399 . S
C1008 C1007 1.394 . S
C1008 C1009 1.516 . S
C1009 C1008 1.516 . S
C1009 C1010 1.502 . S
C1009 C1011 1.561 . S
C1009 C1012 1.526 . S
C1010 H994 0.959 . S
C1010 H995 0.959 . S
C1010 H996 0.961 . S
C1010 C1009 1.502 . S
C1011 H997 0.960 . S
C1011 H998 0.961 . S
C1011 H999 0.959 . S
C1011 C1009 1.561 . S
C1012 C1009 1.526 . S
C1012 C1013 1.396 . S
C1012 C1017 1.390 . S
C1013 C1007 1.465 . S
C1013 C1012 1.396 . S
C1013 C1014 1.399 . S
C1014 H1000 0.929 . S
C1014 C1013 1.399 . S
C1014 C1015 1.385 . S
C1015 H1001 0.931 . S
C1015 C1014 1.385 . S
C1015 C1016 1.389 . S
C1016 C1015 1.389 . S
C1016 C1017 1.387 . S
C1017 H1002 0.930 . S
C1017 C1012 1.390 . S
C1017 C1016 1.387 . S
H1018 C1030 0.930 . S
H1019 C1032 0.930 . S
H1020 C1033 0.930 . S
H1021 C1037 0.959 . S
H1022 C1037 0.959 . S
H1023 C1037 0.961 . S
H1024 C1038 0.960 . S
H1025 C1038 0.961 . S
H1026 C1038 0.959 . S
H1027 C1041 0.929 . S
H1028 C1042 0.931 . S
H1029 C1044 0.930 . S
C1030 H1018 0.930 . S
C1030 C1031 1.399 . S
C1030 C1035 1.399 . S
C1031 C1030 1.399 . S
C1031 C1032 1.376 . S
C1032 H1019 0.930 . S
C1032 C1031 1.376 . S
C1032 C1033 1.388 . S
C1033 H1020 0.930 . S
C1033 C1032 1.388 . S
C1033 C1034 1.390 . S
C1034 C1033 1.390 . S
C1034 C1035 1.394 . S
C1034 C1040 1.465 . S
C1035 C1030 1.399 . S
C1035 C1034 1.394 . S
C1035 C1036 1.516 . S
C1036 C1035 1.516 . S
C1036 C1037 1.502 . S
C1036 C1038 1.561 . S
C1036 C1039 1.526 . S
C1037 H1021 0.959 . S
C1037 H1022 0.959 . S
C1037 H1023 0.961 . S
C1037 C1036 1.502 . S
C1038 H1024 0.960 . S
C1038 H1025 0.961 . S
C1038 H1026 0.959 . S
C1038 C1036 1.561 . S
C1039 C1036 1.526 . S
C1039 C1040 1.396 . S
C1039 C1044 1.390 . S
C1040 C1034 1.465 . S
C1040 C1039 1.396 . S
C1040 C1041 1.399 . S
C1041 H1027 0.929 . S
C1041 C1040 1.399 . S
C1041 C1042 1.385 . S
C1042 H1028 0.931 . S
C1042 C1041 1.385 . S
C1042 C1043 1.389 . S
C1043 C1042 1.389 . S
C1043 C1044 1.387 . S
C1044 H1029 0.930 . S
C1044 C1039 1.390 . S
C1044 C1043 1.387 . S
H1045 C1057 0.930 . S
H1046 C1059 0.930 . S
H1047 C1060 0.930 . S
H1048 C1064 0.959 . S
H1049 C1064 0.959 . S
H1050 C1064 0.961 . S
H1051 C1065 0.960 . S
H1052 C1065 0.961 . S
H1053 C1065 0.959 . S
H1054 C1068 0.929 . S
H1055 C1069 0.931 . S
H1056 C1071 0.930 . S
C1057 H1045 0.930 . S
C1057 C1058 1.399 . S
C1057 C1062 1.399 . S
C1058 C1057 1.399 . S
C1058 C1059 1.376 . S
C1059 H1046 0.930 . S
C1059 C1058 1.376 . S
C1059 C1060 1.388 . S
C1060 H1047 0.930 . S
C1060 C1059 1.388 . S
C1060 C1061 1.390 . S
C1061 C1060 1.390 . S
C1061 C1062 1.394 . S
C1061 C1067 1.465 . S
C1062 C1057 1.399 . S
C1062 C1061 1.394 . S
C1062 C1063 1.516 . S
C1063 C1062 1.516 . S
C1063 C1064 1.502 . S
C1063 C1065 1.561 . S
C1063 C1066 1.526 . S
C1064 H1048 0.959 . S
C1064 H1049 0.959 . S
C1064 H1050 0.961 . S
C1064 C1063 1.502 . S
C1065 H1051 0.960 . S
C1065 H1052 0.961 . S
C1065 H1053 0.959 . S
C1065 C1063 1.561 . S
C1066 C1063 1.526 . S
C1066 C1067 1.396 . S
C1066 C1071 1.390 . S
C1067 C1061 1.465 . S
C1067 C1066 1.396 . S
C1067 C1068 1.399 . S
C1068 H1054 0.929 . S
C1068 C1067 1.399 . S
C1068 C1069 1.385 . S
C1069 H1055 0.931 . S
C1069 C1068 1.385 . S
C1069 C1070 1.389 . S
C1070 C1069 1.389 . S
C1070 C1071 1.387 . S
C1071 H1056 0.930 . S
C1071 C1066 1.390 . S
C1071 C1070 1.387 . S
H1072 C1084 0.930 . S
H1073 C1086 0.930 . S
H1074 C1087 0.930 . S
H1075 C1091 0.962 . S
H1076 C1091 0.979 . S
H1077 C1091 0.940 1_556 S
H1078 C1092 0.958 1_556 S
H1079 C1092 0.963 . S
H1080 C1092 0.959 . S
H1081 C1095 0.929 . S
H1082 C1096 0.931 . S
H1083 C1098 0.930 . S
C1084 H1072 0.930 . S
C1084 C1085 1.399 . S
C1084 C1089 1.399 . S
C1085 C1084 1.399 . S
C1085 C1086 1.376 . S
C1086 H1073 0.930 . S
C1086 C1085 1.376 . S
C1086 C1087 1.388 . S
C1087 H1074 0.930 . S
C1087 C1086 1.388 . S
C1087 C1088 1.390 . S
C1088 C1087 1.390 . S
C1088 C1089 1.394 . S
C1088 C1094 1.465 1_556 S
C1089 C1084 1.399 . S
C1089 C1088 1.394 . S
C1089 C1090 1.517 1_556 S
C1090 C1089 1.517 1_554 S
C1090 C1091 1.502 . S
C1090 C1092 1.561 . S
C1090 C1093 1.525 . S
C1091 H1075 0.962 . S
C1091 H1076 0.979 . S
C1091 H1077 0.940 1_554 S
C1091 C1090 1.502 . S
C1092 H1078 0.958 1_554 S
C1092 H1079 0.963 . S
C1092 H1080 0.959 . S
C1092 C1090 1.561 . S
C1093 C1090 1.525 . S
C1093 C1094 1.396 . S
C1093 C1098 1.390 . S
C1094 C1088 1.465 1_554 S
C1094 C1093 1.396 . S
C1094 C1095 1.399 . S
C1095 H1081 0.929 . S
C1095 C1094 1.399 . S
C1095 C1096 1.385 . S
C1096 H1082 0.931 . S
C1096 C1095 1.385 . S
C1096 C1097 1.389 . S
C1097 C1096 1.389 . S
C1097 C1098 1.387 . S
C1098 H1083 0.930 . S
C1098 C1093 1.390 . S
C1098 C1097 1.387 . S
H1099 C1111 0.930 . S
H1100 C1113 0.930 . S
H1101 C1114 0.930 . S
H1102 C1118 0.962 . S
H1103 C1118 0.979 . S
H1104 C1118 0.940 1_556 S
H1105 C1119 0.958 1_556 S
H1106 C1119 0.963 . S
H1107 C1119 0.959 . S
H1108 C1122 0.929 . S
H1109 C1123 0.931 . S
H1110 C1125 0.930 . S
C1111 H1099 0.930 . S
C1111 C1112 1.399 . S
C1111 C1116 1.399 . S
C1112 C1111 1.399 . S
C1112 C1113 1.376 . S
C1113 H1100 0.930 . S
C1113 C1112 1.376 . S
C1113 C1114 1.388 . S
C1114 H1101 0.930 . S
C1114 C1113 1.388 . S
C1114 C1115 1.390 . S
C1115 C1114 1.390 . S
C1115 C1116 1.394 . S
C1115 C1121 1.465 1_556 S
C1116 C1111 1.399 . S
C1116 C1115 1.394 . S
C1116 C1117 1.517 1_556 S
C1117 C1116 1.517 1_554 S
C1117 C1118 1.502 . S
C1117 C1119 1.561 . S
C1117 C1120 1.525 . S
C1118 H1102 0.962 . S
C1118 H1103 0.979 . S
C1118 H1104 0.940 1_554 S
C1118 C1117 1.502 . S
C1119 H1105 0.958 1_554 S
C1119 H1106 0.963 . S
C1119 H1107 0.959 . S
C1119 C1117 1.561 . S
C1120 C1117 1.525 . S
C1120 C1121 1.396 . S
C1120 C1125 1.390 . S
C1121 C1115 1.465 1_554 S
C1121 C1120 1.396 . S
C1121 C1122 1.399 . S
C1122 H1108 0.929 . S
C1122 C1121 1.399 . S
C1122 C1123 1.385 . S
C1123 H1109 0.931 . S
C1123 C1122 1.385 . S
C1123 C1124 1.389 . S
C1124 C1123 1.389 . S
C1124 C1125 1.387 . S
C1125 H1110 0.930 . S
C1125 C1120 1.390 . S
C1125 C1124 1.387 . S
H1126 C1138 0.930 . S
H1127 C1140 0.930 . S
H1128 C1141 0.930 . S
H1129 C1145 0.959 . S
H1130 C1145 0.959 . S
H1131 C1145 0.961 . S
H1132 C1146 0.960 1_545 S
H1133 C1146 0.961 1_545 S
H1134 C1146 0.959 . S
H1135 C1149 0.929 . S
H1136 C1150 0.931 . S
H1137 C1152 0.930 . S
C1138 H1126 0.930 . S
C1138 C1139 1.399 . S
C1138 C1143 1.399 . S
C1139 C1138 1.399 . S
C1139 C1140 1.376 . S
C1140 H1127 0.930 . S
C1140 C1139 1.376 . S
C1140 C1141 1.388 . S
C1141 H1128 0.930 . S
C1141 C1140 1.388 . S
C1141 C1142 1.390 . S
C1142 C1141 1.390 . S
C1142 C1143 1.394 . S
C1142 C1148 1.465 . S
C1143 C1138 1.399 . S
C1143 C1142 1.394 . S
C1143 C1144 1.516 . S
C1144 C1143 1.516 . S
C1144 C1145 1.502 . S
C1144 C1146 1.561 . S
C1144 C1147 1.526 . S
C1145 H1129 0.959 . S
C1145 H1130 0.959 . S
C1145 H1131 0.961 . S
C1145 C1144 1.502 . S
C1146 H1132 0.960 1_565 S
C1146 H1133 0.961 1_565 S
C1146 H1134 0.959 . S
C1146 C1144 1.561 . S
C1147 C1144 1.526 . S
C1147 C1148 1.396 . S
C1147 C1152 1.390 . S
C1148 C1142 1.465 . S
C1148 C1147 1.396 . S
C1148 C1149 1.399 . S
C1149 H1135 0.929 . S
C1149 C1148 1.399 . S
C1149 C1150 1.385 . S
C1150 H1136 0.931 . S
C1150 C1149 1.385 . S
C1150 C1151 1.389 . S
C1151 C1150 1.389 . S
C1151 C1152 1.387 . S
C1152 H1137 0.930 . S
C1152 C1147 1.390 . S
C1152 C1151 1.387 . S
H1153 C1165 0.930 . S
H1154 C1167 0.930 . S
H1155 C1168 0.930 . S
H1156 C1172 0.959 . S
H1157 C1172 0.959 . S
H1158 C1172 0.961 . S
H1159 C1173 0.960 . S
H1160 C1173 0.961 . S
H1161 C1173 0.959 . S
H1162 C1176 0.929 . S
H1163 C1177 0.931 . S
H1164 C1179 0.930 . S
C1165 H1153 0.930 . S
C1165 C1166 1.399 . S
C1165 C1170 1.399 . S
C1166 C1165 1.399 . S
C1166 C1167 1.376 . S
C1167 H1154 0.930 . S
C1167 C1166 1.376 . S
C1167 C1168 1.388 . S
C1168 H1155 0.930 . S
C1168 C1167 1.388 . S
C1168 C1169 1.390 . S
C1169 C1168 1.390 . S
C1169 C1170 1.394 . S
C1169 C1175 1.465 . S
C1170 C1165 1.399 . S
C1170 C1169 1.394 . S
C1170 C1171 1.516 . S
C1171 C1170 1.516 . S
C1171 C1172 1.502 . S
C1171 C1173 1.561 . S
C1171 C1174 1.526 . S
C1172 H1156 0.959 . S
C1172 H1157 0.959 . S
C1172 H1158 0.961 . S
C1172 C1171 1.502 . S
C1173 H1159 0.960 . S
C1173 H1160 0.961 . S
C1173 H1161 0.959 . S
C1173 C1171 1.561 . S
C1174 C1171 1.526 . S
C1174 C1175 1.396 . S
C1174 C1179 1.390 . S
C1175 C1169 1.465 . S
C1175 C1174 1.396 . S
C1175 C1176 1.399 . S
C1176 H1162 0.929 . S
C1176 C1175 1.399 . S
C1176 C1177 1.385 . S
C1177 H1163 0.931 . S
C1177 C1176 1.385 . S
C1177 C1178 1.389 . S
C1178 C1177 1.389 . S
C1178 C1179 1.387 . S
C1179 H1164 0.930 . S
C1179 C1174 1.390 . S
C1179 C1178 1.387 . S
H1180 C1192 0.930 . S
H1181 C1194 0.930 . S
H1182 C1195 0.930 . S
H1183 C1199 0.962 . S
H1184 C1199 0.979 . S
H1185 C1199 0.940 1_554 S
H1186 C1200 0.958 1_554 S
H1187 C1200 0.963 . S
H1188 C1200 0.959 . S
H1189 C1203 0.929 . S
H1190 C1204 0.931 . S
H1191 C1206 0.930 . S
C1192 H1180 0.930 . S
C1192 C1193 1.399 . S
C1192 C1197 1.399 . S
C1193 C1192 1.399 . S
C1193 C1194 1.376 . S
C1194 H1181 0.930 . S
C1194 C1193 1.376 . S
C1194 C1195 1.388 . S
C1195 H1182 0.930 . S
C1195 C1194 1.388 . S
C1195 C1196 1.390 . S
C1196 C1195 1.390 . S
C1196 C1197 1.394 . S
C1196 C1202 1.465 1_554 S
C1197 C1192 1.399 . S
C1197 C1196 1.394 . S
C1197 C1198 1.517 1_554 S
C1198 C1197 1.517 1_556 S
C1198 C1199 1.502 . S
C1198 C1200 1.561 . S
C1198 C1201 1.525 . S
C1199 H1183 0.962 . S
C1199 H1184 0.979 . S
C1199 H1185 0.940 1_556 S
C1199 C1198 1.502 . S
C1200 H1186 0.958 1_556 S
C1200 H1187 0.963 . S
C1200 H1188 0.959 . S
C1200 C1198 1.561 . S
C1201 C1198 1.525 . S
C1201 C1202 1.396 . S
C1201 C1206 1.390 . S
C1202 C1196 1.465 1_556 S
C1202 C1201 1.396 . S
C1202 C1203 1.399 . S
C1203 H1189 0.929 . S
C1203 C1202 1.399 . S
C1203 C1204 1.385 . S
C1204 H1190 0.931 . S
C1204 C1203 1.385 . S
C1204 C1205 1.389 . S
C1205 C1204 1.389 . S
C1205 C1206 1.387 . S
C1206 H1191 0.930 . S
C1206 C1201 1.390 . S
C1206 C1205 1.387 . S
H1207 C1219 0.930 . S
H1208 C1221 0.930 . S
H1209 C1222 0.930 . S
H1210 C1226 0.962 . S
H1211 C1226 0.979 . S
H1212 C1226 0.940 1_556 S
H1213 C1227 0.958 1_556 S
H1214 C1227 0.963 . S
H1215 C1227 0.959 . S
H1216 C1230 0.929 . S
H1217 C1231 0.931 . S
H1218 C1233 0.930 . S
C1219 H1207 0.930 . S
C1219 C1220 1.399 . S
C1219 C1224 1.399 . S
C1220 C1219 1.399 . S
C1220 C1221 1.376 . S
C1221 H1208 0.930 . S
C1221 C1220 1.376 . S
C1221 C1222 1.388 . S
C1222 H1209 0.930 . S
C1222 C1221 1.388 . S
C1222 C1223 1.390 . S
C1223 C1222 1.390 . S
C1223 C1224 1.394 . S
C1223 C1229 1.465 1_556 S
C1224 C1219 1.399 . S
C1224 C1223 1.394 . S
C1224 C1225 1.517 1_556 S
C1225 C1224 1.517 1_554 S
C1225 C1226 1.502 . S
C1225 C1227 1.561 . S
C1225 C1228 1.525 . S
C1226 H1210 0.962 . S
C1226 H1211 0.979 . S
C1226 H1212 0.940 1_554 S
C1226 C1225 1.502 . S
C1227 H1213 0.958 1_554 S
C1227 H1214 0.963 . S
C1227 H1215 0.959 . S
C1227 C1225 1.561 . S
C1228 C1225 1.525 . S
C1228 C1229 1.396 . S
C1228 C1233 1.390 . S
C1229 C1223 1.465 1_554 S
C1229 C1228 1.396 . S
C1229 C1230 1.399 . S
C1230 H1216 0.929 . S
C1230 C1229 1.399 . S
C1230 C1231 1.385 . S
C1231 H1217 0.931 . S
C1231 C1230 1.385 . S
C1231 C1232 1.389 . S
C1232 C1231 1.389 . S
C1232 C1233 1.387 . S
C1233 H1218 0.930 . S
C1233 C1228 1.390 . S
C1233 C1232 1.387 . S
H1234 C1246 0.930 . S
H1235 C1248 0.930 . S
H1236 C1249 0.930 . S
H1237 C1253 0.959 . S
H1238 C1253 0.959 . S
H1239 C1253 0.961 . S
H1240 C1254 0.960 . S
H1241 C1254 0.961 . S
H1242 C1254 0.959 . S
H1243 C1257 0.929 . S
H1244 C1258 0.931 . S
H1245 C1260 0.930 . S
C1246 H1234 0.930 . S
C1246 C1247 1.399 . S
C1246 C1251 1.399 . S
C1247 C1246 1.399 . S
C1247 C1248 1.376 . S
C1248 H1235 0.930 . S
C1248 C1247 1.376 . S
C1248 C1249 1.388 . S
C1249 H1236 0.930 . S
C1249 C1248 1.388 . S
C1249 C1250 1.390 . S
C1250 C1249 1.390 . S
C1250 C1251 1.394 . S
C1250 C1256 1.465 . S
C1251 C1246 1.399 . S
C1251 C1250 1.394 . S
C1251 C1252 1.516 . S
C1252 C1251 1.516 . S
C1252 C1253 1.502 . S
C1252 C1254 1.561 . S
C1252 C1255 1.526 . S
C1253 H1237 0.959 . S
C1253 H1238 0.959 . S
C1253 H1239 0.961 . S
C1253 C1252 1.502 . S
C1254 H1240 0.960 . S
C1254 H1241 0.961 . S
C1254 H1242 0.959 . S
C1254 C1252 1.561 . S
C1255 C1252 1.526 . S
C1255 C1256 1.396 . S
C1255 C1260 1.390 . S
C1256 C1250 1.465 . S
C1256 C1255 1.396 . S
C1256 C1257 1.399 . S
C1257 H1243 0.929 . S
C1257 C1256 1.399 . S
C1257 C1258 1.385 . S
C1258 H1244 0.931 . S
C1258 C1257 1.385 . S
C1258 C1259 1.389 . S
C1259 C1258 1.389 . S
C1259 C1260 1.387 . S
C1260 H1245 0.930 . S
C1260 C1255 1.390 . S
C1260 C1259 1.387 . S
H1261 C1273 0.930 . S
H1262 C1275 0.930 . S
H1263 C1276 0.930 . S
H1264 C1280 0.959 . S
H1265 C1280 0.959 . S
H1266 C1280 0.961 . S
H1267 C1281 0.960 . S
H1268 C1281 0.961 . S
H1269 C1281 0.959 . S
H1270 C1284 0.929 . S
H1271 C1285 0.931 . S
H1272 C1287 0.930 . S
C1273 H1261 0.930 . S
C1273 C1274 1.399 . S
C1273 C1278 1.399 . S
C1274 C1273 1.399 . S
C1274 C1275 1.376 . S
C1275 H1262 0.930 . S
C1275 C1274 1.376 . S
C1275 C1276 1.388 . S
C1276 H1263 0.930 . S
C1276 C1275 1.388 . S
C1276 C1277 1.390 . S
C1277 C1276 1.390 . S
C1277 C1278 1.394 . S
C1277 C1283 1.465 . S
C1278 C1273 1.399 . S
C1278 C1277 1.394 . S
C1278 C1279 1.516 . S
C1279 C1278 1.516 . S
C1279 C1280 1.502 . S
C1279 C1281 1.561 . S
C1279 C1282 1.526 . S
C1280 H1264 0.959 . S
C1280 H1265 0.959 . S
C1280 H1266 0.961 . S
C1280 C1279 1.502 . S
C1281 H1267 0.960 . S
C1281 H1268 0.961 . S
C1281 H1269 0.959 . S
C1281 C1279 1.561 . S
C1282 C1279 1.526 . S
C1282 C1283 1.396 . S
C1282 C1287 1.390 . S
C1283 C1277 1.465 . S
C1283 C1282 1.396 . S
C1283 C1284 1.399 . S
C1284 H1270 0.929 . S
C1284 C1283 1.399 . S
C1284 C1285 1.385 . S
C1285 H1271 0.931 . S
C1285 C1284 1.385 . S
C1285 C1286 1.389 . S
C1286 C1285 1.389 . S
C1286 C1287 1.387 . S
C1287 H1272 0.930 . S
C1287 C1282 1.390 . S
C1287 C1286 1.387 . S
H1288 C1300 0.930 . S
H1289 C1302 0.930 . S
H1290 C1303 0.930 . S
H1291 C1307 0.959 . S
H1292 C1307 0.959 . S
H1293 C1307 0.961 1_655 S
H1294 C1308 0.960 . S
H1295 C1308 0.961 1_455 S
H1296 C1308 0.959 . S
H1297 C1311 0.929 . S
H1298 C1312 0.931 . S
H1299 C1314 0.930 1_565 S
C1300 H1288 0.930 . S
C1300 C1301 1.399 . S
C1300 C1305 1.399 . S
C1301 C1300 1.399 . S
C1301 C1302 1.376 1_565 S
C1302 H1289 0.930 . S
C1302 C1301 1.376 1_545 S
C1302 C1303 1.388 . S
C1303 H1290 0.930 . S
C1303 C1302 1.388 . S
C1303 C1304 1.390 . S
C1304 C1303 1.390 . S
C1304 C1305 1.394 1_545 S
C1304 C1310 1.465 1_655 S
C1305 C1300 1.399 . S
C1305 C1304 1.394 1_565 S
C1305 C1306 1.516 1_655 S
C1306 C1305 1.516 1_455 S
C1306 C1307 1.502 . S
C1306 C1308 1.561 1_465 S
C1306 C1309 1.526 1_565 S
C1307 H1291 0.959 . S
C1307 H1292 0.959 . S
C1307 H1293 0.961 1_455 S
C1307 C1306 1.502 . S
C1308 H1294 0.960 . S
C1308 H1295 0.961 1_655 S
C1308 H1296 0.959 . S
C1308 C1306 1.561 1_645 S
C1309 C1306 1.526 1_545 S
C1309 C1310 1.396 . S
C1309 C1314 1.390 . S
C1310 C1304 1.465 1_455 S
C1310 C1309 1.396 . S
C1310 C1311 1.399 . S
C1311 H1297 0.929 . S
C1311 C1310 1.399 . S
C1311 C1312 1.385 . S
C1312 H1298 0.931 . S
C1312 C1311 1.385 . S
C1312 C1313 1.389 . S
C1313 C1312 1.389 . S
C1313 C1314 1.387 . S
C1314 H1299 0.930 1_545 S
C1314 C1309 1.390 . S
C1314 C1313 1.387 . S
H1315 C1327 0.930 1_565 S
H1316 C1329 0.930 . S
H1317 C1330 0.930 . S
H1318 C1334 0.971 . S
H1319 C1334 0.992 1_565 S
H1320 C1334 0.922 1_655 S
H1321 C1335 0.960 . S
H1322 C1335 0.961 1_455 S
H1323 C1335 0.959 . S
H1324 C1338 0.929 . S
H1325 C1339 0.933 . S
H1326 C1341 0.930 . S
C1327 H1315 0.930 1_545 S
C1327 C1328 1.399 . S
C1327 C1332 1.399 1_545 S
C1328 C1327 1.399 . S
C1328 C1329 1.376 . S
C1329 H1316 0.930 . S
C1329 C1328 1.376 . S
C1329 C1330 1.388 . S
C1330 H1317 0.930 . S
C1330 C1329 1.388 . S
C1330 C1331 1.390 . S
C1331 C1330 1.390 . S
C1331 C1332 1.394 1_545 S
C1331 C1337 1.465 1_645 S
C1332 C1327 1.399 1_565 S
C1332 C1331 1.394 1_565 S
C1332 C1333 1.516 . S
C1333 C1332 1.516 . S
C1333 C1334 1.498 1_665 S
C1333 C1335 1.561 . S
C1333 C1336 1.526 1_655 S
C1334 H1318 0.971 . S
C1334 H1319 0.992 1_545 S
C1334 H1320 0.922 1_455 S
C1334 C1333 1.498 1_445 S
C1335 H1321 0.960 . S
C1335 H1322 0.961 1_655 S
C1335 H1323 0.959 . S
C1335 C1333 1.561 . S
C1336 C1333 1.526 1_455 S
C1336 C1337 1.396 . S
C1336 C1341 1.390 . S
C1337 C1331 1.465 1_465 S
C1337 C1336 1.396 . S
C1337 C1338 1.399 1_565 S
C1338 H1324 0.929 . S
C1338 C1337 1.399 1_545 S
C1338 C1339 1.385 1_545 S
C1339 H1325 0.933 . S
C1339 C1338 1.385 1_565 S
C1339 C1340 1.389 . S
C1340 C1339 1.389 . S
C1340 C1341 1.387 . S
C1341 H1326 0.930 . S
C1341 C1336 1.390 . S
C1341 C1340 1.387 . S
H1342 C1354 0.930 . S
H1343 C1356 0.930 . S
H1344 C1357 0.930 . S
H1345 C1361 0.959 . S
H1346 C1361 0.959 . S
H1347 C1361 0.961 1_455 S
H1348 C1362 0.996 . S
H1349 C1362 0.926 1_655 S
H1350 C1362 0.963 . S
H1351 C1365 0.929 . S
H1352 C1366 0.931 . S
H1353 C1368 0.930 1_545 S
C1354 H1342 0.930 . S
C1354 C1355 1.399 . S
C1354 C1359 1.399 . S
C1355 C1354 1.399 . S
C1355 C1356 1.376 1_545 S
C1356 H1343 0.930 . S
C1356 C1355 1.376 1_565 S
C1356 C1357 1.388 . S
C1357 H1344 0.930 . S
C1357 C1356 1.388 . S
C1357 C1358 1.390 . S
C1358 C1357 1.390 . S
C1358 C1359 1.394 1_565 S
C1358 C1364 1.465 1_455 S
C1359 C1354 1.399 . S
C1359 C1358 1.394 1_545 S
C1359 C1360 1.516 1_455 S
C1360 C1359 1.516 1_655 S
C1360 C1361 1.502 . S
C1360 C1362 1.558 1_645 S
C1360 C1363 1.523 1_545 S
C1361 H1345 0.959 . S
C1361 H1346 0.959 . S
C1361 H1347 0.961 1_655 S
C1361 C1360 1.502 . S
C1362 H1348 0.996 . S
C1362 H1349 0.926 1_455 S
C1362 H1350 0.963 . S
C1362 C1360 1.558 1_465 S
C1363 C1360 1.523 1_565 S
C1363 C1364 1.399 . S
C1363 C1368 1.390 . S
C1364 C1358 1.465 1_655 S
C1364 C1363 1.399 . S
C1364 C1365 1.399 . S
C1365 H1351 0.929 . S
C1365 C1364 1.399 . S
C1365 C1366 1.385 . S
C1366 H1352 0.931 . S
C1366 C1365 1.385 . S
C1366 C1367 1.389 . S
C1367 C1366 1.389 . S
C1367 C1368 1.387 . S
C1368 H1353 0.930 1_565 S
C1368 C1363 1.390 . S
C1368 C1367 1.387 . S
H1369 C1381 0.930 1_565 S
H1370 C1383 0.930 . S
H1371 C1384 0.930 . S
H1372 C1388 0.959 . S
H1373 C1388 0.959 1_455 S
H1374 C1388 0.961 . S
H1375 C1389 0.960 1_655 S
H1376 C1389 0.961 . S
H1377 C1389 0.959 . S
H1378 C1392 0.929 . S
H1379 C1393 0.931 . S
H1380 C1395 0.930 . S
C1381 H1369 0.930 1_545 S
C1381 C1382 1.399 . S
C1381 C1386 1.400 . S
C1382 C1381 1.399 . S
C1382 C1383 1.376 . S
C1383 H1370 0.930 . S
C1383 C1382 1.376 . S
C1383 C1384 1.388 . S
C1384 H1371 0.930 . S
C1384 C1383 1.388 . S
C1384 C1385 1.390 . S
C1385 C1384 1.390 . S
C1385 C1386 1.401 . S
C1385 C1391 1.465 1_655 S
C1386 C1381 1.400 . S
C1386 C1385 1.401 . S
C1386 C1387 1.510 1_545 S
C1387 C1386 1.510 1_565 S
C1387 C1388 1.502 . S
C1387 C1389 1.561 1_665 S
C1387 C1390 1.526 1_655 S
C1388 H1372 0.959 . S
C1388 H1373 0.959 1_655 S
C1388 H1374 0.961 . S
C1388 C1387 1.502 . S
C1389 H1375 0.960 1_455 S
C1389 H1376 0.961 . S
C1389 H1377 0.959 . S
C1389 C1387 1.561 1_445 S
C1390 C1387 1.526 1_455 S
C1390 C1391 1.396 1_565 S
C1390 C1395 1.390 . S
C1391 C1385 1.465 1_455 S
C1391 C1390 1.396 1_545 S
C1391 C1392 1.399 . S
C1392 H1378 0.929 . S
C1392 C1391 1.399 . S
C1392 C1393 1.385 . S
C1393 H1379 0.931 . S
C1393 C1392 1.385 . S
C1393 C1394 1.389 1_545 S
C1394 C1393 1.389 1_565 S
C1394 C1395 1.387 . S
C1395 H1380 0.930 . S
C1395 C1390 1.390 . S
C1395 C1394 1.387 . S
H1396 C1408 0.930 . S
H1397 C1410 0.930 . S
H1398 C1411 0.930 . S
H1399 C1415 0.959 . S
H1400 C1415 0.959 . S
H1401 C1415 0.961 . S
H1402 C1416 0.960 . S
H1403 C1416 0.961 . S
H1404 C1416 0.959 . S
H1405 C1419 0.929 . S
H1406 C1420 0.931 . S
H1407 C1422 0.930 . S
C1408 H1396 0.930 . S
C1408 C1409 1.399 . S
C1408 C1413 1.399 . S
C1409 C1408 1.399 . S
C1409 C1410 1.376 . S
C1410 H1397 0.930 . S
C1410 C1409 1.376 . S
C1410 C1411 1.388 . S
C1411 H1398 0.930 . S
C1411 C1410 1.388 . S
C1411 C1412 1.390 . S
C1412 C1411 1.390 . S
C1412 C1413 1.394 . S
C1412 C1418 1.465 . S
C1413 C1408 1.399 . S
C1413 C1412 1.394 . S
C1413 C1414 1.516 . S
C1414 C1413 1.516 . S
C1414 C1415 1.502 . S
C1414 C1416 1.561 . S
C1414 C1417 1.526 . S
C1415 H1399 0.959 . S
C1415 H1400 0.959 . S
C1415 H1401 0.961 . S
C1415 C1414 1.502 . S
C1416 H1402 0.960 . S
C1416 H1403 0.961 . S
C1416 H1404 0.959 . S
C1416 C1414 1.561 . S
C1417 C1414 1.526 . S
C1417 C1418 1.396 . S
C1417 C1422 1.390 . S
C1418 C1412 1.465 . S
C1418 C1417 1.396 . S
C1418 C1419 1.399 . S
C1419 H1405 0.929 . S
C1419 C1418 1.399 . S
C1419 C1420 1.385 . S
C1420 H1406 0.931 . S
C1420 C1419 1.385 . S
C1420 C1421 1.389 . S
C1421 C1420 1.389 . S
C1421 C1422 1.387 . S
C1422 H1407 0.930 . S
C1422 C1417 1.390 . S
C1422 C1421 1.387 . S
H1423 C1435 0.930 . S
H1424 C1437 0.930 . S
H1425 C1438 0.930 . S
H1426 C1442 0.959 . S
H1427 C1442 0.959 . S
H1428 C1442 0.961 . S
H1429 C1443 0.960 . S
H1430 C1443 0.961 . S
H1431 C1443 0.959 . S
H1432 C1446 0.929 . S
H1433 C1447 0.931 . S
H1434 C1449 0.930 . S
C1435 H1423 0.930 . S
C1435 C1436 1.399 . S
C1435 C1440 1.399 . S
C1436 C1435 1.399 . S
C1436 C1437 1.376 . S
C1437 H1424 0.930 . S
C1437 C1436 1.376 . S
C1437 C1438 1.388 . S
C1438 H1425 0.930 . S
C1438 C1437 1.388 . S
C1438 C1439 1.390 . S
C1439 C1438 1.390 . S
C1439 C1440 1.394 . S
C1439 C1445 1.465 . S
C1440 C1435 1.399 . S
C1440 C1439 1.394 . S
C1440 C1441 1.516 . S
C1441 C1440 1.516 . S
C1441 C1442 1.502 . S
C1441 C1443 1.561 . S
C1441 C1444 1.526 . S
C1442 H1426 0.959 . S
C1442 H1427 0.959 . S
C1442 H1428 0.961 . S
C1442 C1441 1.502 . S
C1443 H1429 0.960 . S
C1443 H1430 0.961 . S
C1443 H1431 0.959 . S
C1443 C1441 1.561 . S
C1444 C1441 1.526 . S
C1444 C1445 1.396 . S
C1444 C1449 1.390 . S
C1445 C1439 1.465 . S
C1445 C1444 1.396 . S
C1445 C1446 1.399 . S
C1446 H1432 0.929 . S
C1446 C1445 1.399 . S
C1446 C1447 1.385 . S
C1447 H1433 0.931 . S
C1447 C1446 1.385 . S
C1447 C1448 1.389 . S
C1448 C1447 1.389 . S
C1448 C1449 1.387 . S
C1449 H1434 0.930 . S
C1449 C1444 1.390 . S
C1449 C1448 1.387 . S
H1450 C1462 0.930 . S
H1451 C1464 0.930 . S
H1452 C1465 0.930 . S
H1453 C1469 0.959 . S
H1454 C1469 0.959 . S
H1455 C1469 0.961 . S
H1456 C1470 0.960 . S
H1457 C1470 0.961 . S
H1458 C1470 0.959 . S
H1459 C1473 0.929 . S
H1460 C1474 0.931 . S
H1461 C1476 0.930 . S
C1462 H1450 0.930 . S
C1462 C1463 1.399 . S
C1462 C1467 1.399 . S
C1463 C1462 1.399 . S
C1463 C1464 1.376 . S
C1464 H1451 0.930 . S
C1464 C1463 1.376 . S
C1464 C1465 1.388 . S
C1465 H1452 0.930 . S
C1465 C1464 1.388 . S
C1465 C1466 1.390 . S
C1466 C1465 1.390 . S
C1466 C1467 1.394 . S
C1466 C1472 1.465 . S
C1467 C1462 1.399 . S
C1467 C1466 1.394 . S
C1467 C1468 1.516 . S
C1468 C1467 1.516 . S
C1468 C1469 1.502 . S
C1468 C1470 1.561 . S
C1468 C1471 1.526 . S
C1469 H1453 0.959 . S
C1469 H1454 0.959 . S
C1469 H1455 0.961 . S
C1469 C1468 1.502 . S
C1470 H1456 0.960 . S
C1470 H1457 0.961 . S
C1470 H1458 0.959 . S
C1470 C1468 1.561 . S
C1471 C1468 1.526 . S
C1471 C1472 1.396 . S
C1471 C1476 1.390 . S
C1472 C1466 1.465 . S
C1472 C1471 1.396 . S
C1472 C1473 1.399 . S
C1473 H1459 0.929 . S
C1473 C1472 1.399 . S
C1473 C1474 1.385 . S
C1474 H1460 0.931 . S
C1474 C1473 1.385 . S
C1474 C1475 1.389 . S
C1475 C1474 1.389 . S
C1475 C1476 1.387 . S
C1476 H1461 0.930 . S
C1476 C1471 1.390 . S
C1476 C1475 1.387 . S
H1477 C1489 0.930 . S
H1478 C1491 0.930 . S
H1479 C1492 0.930 . S
H1480 C1496 0.959 . S
H1481 C1496 0.959 . S
H1482 C1496 0.961 . S
H1483 C1497 0.960 . S
H1484 C1497 0.961 . S
H1485 C1497 0.959 . S
H1486 C1500 0.929 . S
H1487 C1501 0.931 . S
H1488 C1503 0.930 . S
C1489 H1477 0.930 . S
C1489 C1490 1.399 . S
C1489 C1494 1.399 . S
C1490 C1489 1.399 . S
C1490 C1491 1.376 . S
C1491 H1478 0.930 . S
C1491 C1490 1.376 . S
C1491 C1492 1.388 . S
C1492 H1479 0.930 . S
C1492 C1491 1.388 . S
C1492 C1493 1.390 . S
C1493 C1492 1.390 . S
C1493 C1494 1.394 . S
C1493 C1499 1.465 . S
C1494 C1489 1.399 . S
C1494 C1493 1.394 . S
C1494 C1495 1.516 . S
C1495 C1494 1.516 . S
C1495 C1496 1.502 . S
C1495 C1497 1.561 . S
C1495 C1498 1.526 . S
C1496 H1480 0.959 . S
C1496 H1481 0.959 . S
C1496 H1482 0.961 . S
C1496 C1495 1.502 . S
C1497 H1483 0.960 . S
C1497 H1484 0.961 . S
C1497 H1485 0.959 . S
C1497 C1495 1.561 . S
C1498 C1495 1.526 . S
C1498 C1499 1.396 . S
C1498 C1503 1.390 . S
C1499 C1493 1.465 . S
C1499 C1498 1.396 . S
C1499 C1500 1.399 . S
C1500 H1486 0.929 . S
C1500 C1499 1.399 . S
C1500 C1501 1.385 . S
C1501 H1487 0.931 . S
C1501 C1500 1.385 . S
C1501 C1502 1.389 . S
C1502 C1501 1.389 . S
C1502 C1503 1.387 . S
C1503 H1488 0.930 . S
C1503 C1498 1.390 . S
C1503 C1502 1.387 . S
H1504 C1516 0.930 . S
H1505 C1518 0.930 . S
H1506 C1519 0.930 . S
H1507 C1523 0.959 . S
H1508 C1523 0.959 . S
H1509 C1523 0.961 . S
H1510 C1524 0.960 . S
H1511 C1524 0.961 . S
H1512 C1524 0.959 . S
H1513 C1527 0.929 . S
H1514 C1528 0.931 . S
H1515 C1530 0.930 . S
C1516 H1504 0.930 . S
C1516 C1517 1.399 . S
C1516 C1521 1.399 . S
C1517 C1516 1.399 . S
C1517 C1518 1.376 . S
C1518 H1505 0.930 . S
C1518 C1517 1.376 . S
C1518 C1519 1.388 . S
C1519 H1506 0.930 . S
C1519 C1518 1.388 . S
C1519 C1520 1.390 . S
C1520 C1519 1.390 . S
C1520 C1521 1.394 . S
C1520 C1526 1.465 . S
C1521 C1516 1.399 . S
C1521 C1520 1.394 . S
C1521 C1522 1.516 . S
C1522 C1521 1.516 . S
C1522 C1523 1.502 . S
C1522 C1524 1.561 . S
C1522 C1525 1.526 . S
C1523 H1507 0.959 . S
C1523 H1508 0.959 . S
C1523 H1509 0.961 . S
C1523 C1522 1.502 . S
C1524 H1510 0.960 . S
C1524 H1511 0.961 . S
C1524 H1512 0.959 . S
C1524 C1522 1.561 . S
C1525 C1522 1.526 . S
C1525 C1526 1.396 . S
C1525 C1530 1.390 . S
C1526 C1520 1.465 . S
C1526 C1525 1.396 . S
C1526 C1527 1.399 . S
C1527 H1513 0.929 . S
C1527 C1526 1.399 . S
C1527 C1528 1.385 . S
C1528 H1514 0.931 . S
C1528 C1527 1.385 . S
C1528 C1529 1.389 . S
C1529 C1528 1.389 . S
C1529 C1530 1.387 . S
C1530 H1515 0.930 . S
C1530 C1525 1.390 . S
C1530 C1529 1.387 . S
H1531 C1543 0.930 . S
H1532 C1545 0.930 . S
H1533 C1546 0.930 . S
H1534 C1550 0.959 . S
H1535 C1550 0.959 . S
H1536 C1550 0.961 . S
H1537 C1551 0.960 . S
H1538 C1551 0.961 . S
H1539 C1551 0.959 . S
H1540 C1554 0.929 . S
H1541 C1555 0.931 . S
H1542 C1557 0.930 . S
C1543 H1531 0.930 . S
C1543 C1544 1.399 . S
C1543 C1548 1.399 . S
C1544 C1543 1.399 . S
C1544 C1545 1.376 . S
C1545 H1532 0.930 . S
C1545 C1544 1.376 . S
C1545 C1546 1.388 . S
C1546 H1533 0.930 . S
C1546 C1545 1.388 . S
C1546 C1547 1.390 . S
C1547 C1546 1.390 . S
C1547 C1548 1.394 . S
C1547 C1553 1.465 . S
C1548 C1543 1.399 . S
C1548 C1547 1.394 . S
C1548 C1549 1.516 . S
C1549 C1548 1.516 . S
C1549 C1550 1.502 . S
C1549 C1551 1.561 . S
C1549 C1552 1.526 . S
C1550 H1534 0.959 . S
C1550 H1535 0.959 . S
C1550 H1536 0.961 . S
C1550 C1549 1.502 . S
C1551 H1537 0.960 . S
C1551 H1538 0.961 . S
C1551 H1539 0.959 . S
C1551 C1549 1.561 . S
C1552 C1549 1.526 . S
C1552 C1553 1.396 . S
C1552 C1557 1.390 . S
C1553 C1547 1.465 . S
C1553 C1552 1.396 . S
C1553 C1554 1.399 . S
C1554 H1540 0.929 . S
C1554 C1553 1.399 . S
C1554 C1555 1.385 . S
C1555 H1541 0.931 . S
C1555 C1554 1.385 . S
C1555 C1556 1.389 . S
C1556 C1555 1.389 . S
C1556 C1557 1.387 . S
C1557 H1542 0.930 . S
C1557 C1552 1.390 . S
C1557 C1556 1.387 . S
H1558 C1570 0.930 . S
H1559 C1572 0.930 . S
H1560 C1573 0.930 . S
H1561 C1577 0.959 . S
H1562 C1577 0.959 . S
H1563 C1577 0.961 . S
H1564 C1578 0.960 . S
H1565 C1578 0.961 . S
H1566 C1578 0.959 . S
H1567 C1581 0.929 . S
H1568 C1582 0.931 . S
H1569 C1584 0.930 . S
C1570 H1558 0.930 . S
C1570 C1571 1.399 . S
C1570 C1575 1.399 . S
C1571 C1570 1.399 . S
C1571 C1572 1.376 . S
C1572 H1559 0.930 . S
C1572 C1571 1.376 . S
C1572 C1573 1.388 . S
C1573 H1560 0.930 . S
C1573 C1572 1.388 . S
C1573 C1574 1.390 . S
C1574 C1573 1.390 . S
C1574 C1575 1.394 . S
C1574 C1580 1.465 . S
C1575 C1570 1.399 . S
C1575 C1574 1.394 . S
C1575 C1576 1.516 . S
C1576 C1575 1.516 . S
C1576 C1577 1.502 . S
C1576 C1578 1.561 . S
C1576 C1579 1.526 . S
C1577 H1561 0.959 . S
C1577 H1562 0.959 . S
C1577 H1563 0.961 . S
C1577 C1576 1.502 . S
C1578 H1564 0.960 . S
C1578 H1565 0.961 . S
C1578 H1566 0.959 . S
C1578 C1576 1.561 . S
C1579 C1576 1.526 . S
C1579 C1580 1.396 . S
C1579 C1584 1.390 . S
C1580 C1574 1.465 . S
C1580 C1579 1.396 . S
C1580 C1581 1.399 . S
C1581 H1567 0.929 . S
C1581 C1580 1.399 . S
C1581 C1582 1.385 . S
C1582 H1568 0.931 . S
C1582 C1581 1.385 . S
C1582 C1583 1.389 . S
C1583 C1582 1.389 . S
C1583 C1584 1.387 . S
C1584 H1569 0.930 . S
C1584 C1579 1.390 . S
C1584 C1583 1.387 . S
H1585 C1597 0.930 . S
H1586 C1599 0.930 . S
H1587 C1600 0.930 . S
H1588 C1604 0.959 . S
H1589 C1604 0.959 . S
H1590 C1604 0.961 . S
H1591 C1605 0.960 . S
H1592 C1605 0.961 . S
H1593 C1605 0.959 . S
H1594 C1608 0.929 . S
H1595 C1609 0.931 . S
H1596 C1611 0.930 . S
C1597 H1585 0.930 . S
C1597 C1598 1.399 . S
C1597 C1602 1.399 . S
C1598 C1597 1.399 . S
C1598 C1599 1.376 . S
C1599 H1586 0.930 . S
C1599 C1598 1.376 . S
C1599 C1600 1.388 . S
C1600 H1587 0.930 . S
C1600 C1599 1.388 . S
C1600 C1601 1.390 . S
C1601 C1600 1.390 . S
C1601 C1602 1.394 . S
C1601 C1607 1.465 . S
C1602 C1597 1.399 . S
C1602 C1601 1.394 . S
C1602 C1603 1.516 . S
C1603 C1602 1.516 . S
C1603 C1604 1.502 . S
C1603 C1605 1.561 . S
C1603 C1606 1.526 . S
C1604 H1588 0.959 . S
C1604 H1589 0.959 . S
C1604 H1590 0.961 . S
C1604 C1603 1.502 . S
C1605 H1591 0.960 . S
C1605 H1592 0.961 . S
C1605 H1593 0.959 . S
C1605 C1603 1.561 . S
C1606 C1603 1.526 . S
C1606 C1607 1.396 . S
C1606 C1611 1.390 . S
C1607 C1601 1.465 . S
C1607 C1606 1.396 . S
C1607 C1608 1.399 . S
C1608 H1594 0.929 . S
C1608 C1607 1.399 . S
C1608 C1609 1.385 . S
C1609 H1595 0.931 . S
C1609 C1608 1.385 . S
C1609 C1610 1.389 . S
C1610 C1609 1.389 . S
C1610 C1611 1.387 . S
C1611 H1596 0.930 . S
C1611 C1606 1.390 . S
C1611 C1610 1.387 . S
H1612 C1624 0.930 . S
H1613 C1626 0.930 . S
H1614 C1627 0.930 . S
H1615 C1631 0.959 . S
H1616 C1631 0.959 . S
H1617 C1631 0.961 . S
H1618 C1632 0.960 . S
H1619 C1632 0.961 . S
H1620 C1632 0.959 . S
H1621 C1635 0.929 . S
H1622 C1636 0.931 . S
H1623 C1638 0.930 . S
C1624 H1612 0.930 . S
C1624 C1625 1.399 . S
C1624 C1629 1.399 . S
C1625 C1624 1.399 . S
C1625 C1626 1.376 . S
C1626 H1613 0.930 . S
C1626 C1625 1.376 . S
C1626 C1627 1.388 . S
C1627 H1614 0.930 . S
C1627 C1626 1.388 . S
C1627 C1628 1.390 . S
C1628 C1627 1.390 . S
C1628 C1629 1.394 . S
C1628 C1634 1.465 . S
C1629 C1624 1.399 . S
C1629 C1628 1.394 . S
C1629 C1630 1.516 . S
C1630 C1629 1.516 . S
C1630 C1631 1.502 . S
C1630 C1632 1.561 . S
C1630 C1633 1.526 . S
C1631 H1615 0.959 . S
C1631 H1616 0.959 . S
C1631 H1617 0.961 . S
C1631 C1630 1.502 . S
C1632 H1618 0.960 . S
C1632 H1619 0.961 . S
C1632 H1620 0.959 . S
C1632 C1630 1.561 . S
C1633 C1630 1.526 . S
C1633 C1634 1.396 . S
C1633 C1638 1.390 . S
C1634 C1628 1.465 . S
C1634 C1633 1.396 . S
C1634 C1635 1.399 . S
C1635 H1621 0.929 . S
C1635 C1634 1.399 . S
C1635 C1636 1.385 . S
C1636 H1622 0.931 . S
C1636 C1635 1.385 . S
C1636 C1637 1.389 . S
C1637 C1636 1.389 . S
C1637 C1638 1.387 . S
C1638 H1623 0.930 . S
C1638 C1633 1.390 . S
C1638 C1637 1.387 . S
H1639 C1651 0.930 . S
H1640 C1653 0.930 . S
H1641 C1654 0.930 . S
H1642 C1658 0.959 . S
H1643 C1658 0.959 . S
H1644 C1658 0.961 . S
H1645 C1659 0.960 . S
H1646 C1659 0.961 . S
H1647 C1659 0.959 . S
H1648 C1662 0.929 . S
H1649 C1663 0.931 . S
H1650 C1665 0.930 . S
C1651 H1639 0.930 . S
C1651 C1652 1.399 . S
C1651 C1656 1.399 . S
C1652 C1651 1.399 . S
C1652 C1653 1.376 . S
C1653 H1640 0.930 . S
C1653 C1652 1.376 . S
C1653 C1654 1.388 . S
C1654 H1641 0.930 . S
C1654 C1653 1.388 . S
C1654 C1655 1.390 . S
C1655 C1654 1.390 . S
C1655 C1656 1.394 . S
C1655 C1661 1.465 . S
C1656 C1651 1.399 . S
C1656 C1655 1.394 . S
C1656 C1657 1.516 . S
C1657 C1656 1.516 . S
C1657 C1658 1.502 . S
C1657 C1659 1.561 . S
C1657 C1660 1.526 . S
C1658 H1642 0.959 . S
C1658 H1643 0.959 . S
C1658 H1644 0.961 . S
C1658 C1657 1.502 . S
C1659 H1645 0.960 . S
C1659 H1646 0.961 . S
C1659 H1647 0.959 . S
C1659 C1657 1.561 . S
C1660 C1657 1.526 . S
C1660 C1661 1.396 . S
C1660 C1665 1.390 . S
C1661 C1655 1.465 . S
C1661 C1660 1.396 . S
C1661 C1662 1.399 . S
C1662 H1648 0.929 . S
C1662 C1661 1.399 . S
C1662 C1663 1.385 . S
C1663 H1649 0.931 . S
C1663 C1662 1.385 . S
C1663 C1664 1.389 . S
C1664 C1663 1.389 . S
C1664 C1665 1.387 . S
C1665 H1650 0.930 . S
C1665 C1660 1.390 . S
C1665 C1664 1.387 . S
H1666 C1678 0.930 . S
H1667 C1680 0.930 . S
H1668 C1681 0.930 . S
H1669 C1685 0.959 . S
H1670 C1685 0.959 . S
H1671 C1685 0.961 . S
H1672 C1686 0.960 . S
H1673 C1686 0.961 . S
H1674 C1686 0.959 . S
H1675 C1689 0.929 . S
H1676 C1690 0.931 . S
H1677 C1692 0.930 . S
C1678 H1666 0.930 . S
C1678 C1679 1.399 . S
C1678 C1683 1.399 . S
C1679 C1678 1.399 . S
C1679 C1680 1.376 . S
C1680 H1667 0.930 . S
C1680 C1679 1.376 . S
C1680 C1681 1.388 . S
C1681 H1668 0.930 . S
C1681 C1680 1.388 . S
C1681 C1682 1.390 . S
C1682 C1681 1.390 . S
C1682 C1683 1.394 . S
C1682 C1688 1.465 . S
C1683 C1678 1.399 . S
C1683 C1682 1.394 . S
C1683 C1684 1.516 . S
C1684 C1683 1.516 . S
C1684 C1685 1.502 . S
C1684 C1686 1.561 . S
C1684 C1687 1.526 . S
C1685 H1669 0.959 . S
C1685 H1670 0.959 . S
C1685 H1671 0.961 . S
C1685 C1684 1.502 . S
C1686 H1672 0.960 . S
C1686 H1673 0.961 . S
C1686 H1674 0.959 . S
C1686 C1684 1.561 . S
C1687 C1684 1.526 . S
C1687 C1688 1.396 . S
C1687 C1692 1.390 . S
C1688 C1682 1.465 . S
C1688 C1687 1.396 . S
C1688 C1689 1.399 . S
C1689 H1675 0.929 . S
C1689 C1688 1.399 . S
C1689 C1690 1.385 . S
C1690 H1676 0.931 . S
C1690 C1689 1.385 . S
C1690 C1691 1.389 . S
C1691 C1690 1.389 . S
C1691 C1692 1.387 . S
C1692 H1677 0.930 . S
C1692 C1687 1.390 . S
C1692 C1691 1.387 . S
H1693 C1705 0.930 . S
H1694 C1707 0.930 . S
H1695 C1708 0.930 . S
H1696 C1712 0.959 . S
H1697 C1712 0.959 . S
H1698 C1712 0.961 . S
H1699 C1713 0.960 . S
H1700 C1713 0.961 . S
H1701 C1713 0.959 . S
H1702 C1716 0.929 . S
H1703 C1717 0.931 . S
H1704 C1719 0.930 . S
C1705 H1693 0.930 . S
C1705 C1706 1.399 . S
C1705 C1710 1.399 . S
C1706 C1705 1.399 . S
C1706 C1707 1.376 . S
C1707 H1694 0.930 . S
C1707 C1706 1.376 . S
C1707 C1708 1.388 . S
C1708 H1695 0.930 . S
C1708 C1707 1.388 . S
C1708 C1709 1.390 . S
C1709 C1708 1.390 . S
C1709 C1710 1.394 . S
C1709 C1715 1.465 . S
C1710 C1705 1.399 . S
C1710 C1709 1.394 . S
C1710 C1711 1.516 . S
C1711 C1710 1.516 . S
C1711 C1712 1.502 . S
C1711 C1713 1.561 . S
C1711 C1714 1.526 . S
C1712 H1696 0.959 . S
C1712 H1697 0.959 . S
C1712 H1698 0.961 . S
C1712 C1711 1.502 . S
C1713 H1699 0.960 . S
C1713 H1700 0.961 . S
C1713 H1701 0.959 . S
C1713 C1711 1.561 . S
C1714 C1711 1.526 . S
C1714 C1715 1.396 . S
C1714 C1719 1.390 . S
C1715 C1709 1.465 . S
C1715 C1714 1.396 . S
C1715 C1716 1.399 . S
C1716 H1702 0.929 . S
C1716 C1715 1.399 . S
C1716 C1717 1.385 . S
C1717 H1703 0.931 . S
C1717 C1716 1.385 . S
C1717 C1718 1.389 . S
C1718 C1717 1.389 . S
C1718 C1719 1.387 . S
C1719 H1704 0.930 . S
C1719 C1714 1.390 . S
C1719 C1718 1.387 . S
H1720 C1732 0.924 1_565 S
H1721 C1734 0.930 . S
H1722 C1735 0.930 . S
H1723 C1739 0.959 . S
H1724 C1739 0.959 . S
H1725 C1739 0.961 . S
H1726 C1740 0.960 . S
H1727 C1740 0.961 . S
H1728 C1740 0.959 . S
H1729 C1743 0.929 . S
H1730 C1744 0.931 . S
H1731 C1746 0.930 . S
C1732 H1720 0.924 1_545 S
C1732 C1733 1.388 1_545 S
C1732 C1737 1.416 . S
C1733 C1732 1.388 1_565 S
C1733 C1734 1.376 . S
C1734 H1721 0.930 . S
C1734 C1733 1.376 . S
C1734 C1735 1.388 1_565 S
C1735 H1722 0.930 . S
C1735 C1734 1.388 1_545 S
C1735 C1736 1.390 . S
C1736 C1735 1.390 . S
C1736 C1737 1.394 . S
C1736 C1742 1.465 . S
C1737 C1732 1.416 . S
C1737 C1736 1.394 . S
C1737 C1738 1.516 . S
C1738 C1737 1.516 . S
C1738 C1739 1.502 . S
C1738 C1740 1.561 . S
C1738 C1741 1.526 . S
C1739 H1723 0.959 . S
C1739 H1724 0.959 . S
C1739 H1725 0.961 . S
C1739 C1738 1.502 . S
C1740 H1726 0.960 . S
C1740 H1727 0.961 . S
C1740 H1728 0.959 . S
C1740 C1738 1.561 . S
C1741 C1738 1.526 . S
C1741 C1742 1.396 . S
C1741 C1746 1.390 . S
C1742 C1736 1.465 . S
C1742 C1741 1.396 . S
C1742 C1743 1.399 . S
C1743 H1729 0.929 . S
C1743 C1742 1.399 . S
C1743 C1744 1.385 . S
C1744 H1730 0.931 . S
C1744 C1743 1.385 . S
C1744 C1745 1.389 . S
C1745 C1744 1.389 . S
C1745 C1746 1.387 . S
C1746 H1731 0.930 . S
C1746 C1741 1.390 . S
C1746 C1745 1.387 . S
H1747 C1759 0.930 . S
H1748 C1761 0.930 . S
H1749 C1762 0.930 . S
H1750 C1766 0.959 . S
H1751 C1766 0.959 . S
H1752 C1766 0.961 . S
H1753 C1767 0.960 . S
H1754 C1767 0.961 . S
H1755 C1767 0.959 . S
H1756 C1770 0.929 . S
H1757 C1771 0.931 . S
H1758 C1773 0.930 1_545 S
C1759 H1747 0.930 . S
C1759 C1760 1.399 . S
C1759 C1764 1.399 . S
C1760 C1759 1.399 . S
C1760 C1761 1.376 . S
C1761 H1748 0.930 . S
C1761 C1760 1.376 . S
C1761 C1762 1.388 . S
C1762 H1749 0.930 . S
C1762 C1761 1.388 . S
C1762 C1763 1.390 . S
C1763 C1762 1.390 . S
C1763 C1764 1.394 . S
C1763 C1769 1.465 . S
C1764 C1759 1.399 . S
C1764 C1763 1.394 . S
C1764 C1765 1.516 . S
C1765 C1764 1.516 . S
C1765 C1766 1.502 . S
C1765 C1767 1.561 . S
C1765 C1768 1.526 . S
C1766 H1750 0.959 . S
C1766 H1751 0.959 . S
C1766 H1752 0.961 . S
C1766 C1765 1.502 . S
C1767 H1753 0.960 . S
C1767 H1754 0.961 . S
C1767 H1755 0.959 . S
C1767 C1765 1.561 . S
C1768 C1765 1.526 . S
C1768 C1769 1.396 . S
C1768 C1773 1.390 . S
C1769 C1763 1.465 . S
C1769 C1768 1.396 . S
C1769 C1770 1.399 . S
C1770 H1756 0.929 . S
C1770 C1769 1.399 . S
C1770 C1771 1.385 1_565 S
C1771 H1757 0.931 . S
C1771 C1770 1.385 1_545 S
C1771 C1772 1.389 . S
C1772 C1771 1.389 . S
C1772 C1773 1.387 1_545 S
C1773 H1758 0.930 1_565 S
C1773 C1768 1.390 . S
C1773 C1772 1.387 1_565 S
H1774 C1786 0.930 1_545 S
H1775 C1788 0.930 . S
H1776 C1789 0.930 . S
H1777 C1793 0.959 . S
H1778 C1793 0.959 . S
H1779 C1793 0.961 . S
H1780 C1794 0.960 . S
H1781 C1794 0.961 . S
H1782 C1794 0.959 . S
H1783 C1797 0.929 . S
H1784 C1798 0.931 . S
H1785 C1800 0.930 . S
C1786 H1774 0.930 1_565 S
C1786 C1787 1.399 1_565 S
C1786 C1791 1.399 . S
C1787 C1786 1.399 1_545 S
C1787 C1788 1.376 . S
C1788 H1775 0.930 . S
C1788 C1787 1.376 . S
C1788 C1789 1.388 1_545 S
C1789 H1776 0.930 . S
C1789 C1788 1.388 1_565 S
C1789 C1790 1.390 . S
C1790 C1789 1.390 . S
C1790 C1791 1.394 . S
C1790 C1796 1.465 . S
C1791 C1786 1.399 . S
C1791 C1790 1.394 . S
C1791 C1792 1.516 . S
C1792 C1791 1.516 . S
C1792 C1793 1.502 . S
C1792 C1794 1.561 . S
C1792 C1795 1.526 . S
C1793 H1777 0.959 . S
C1793 H1778 0.959 . S
C1793 H1779 0.961 . S
C1793 C1792 1.502 . S
C1794 H1780 0.960 . S
C1794 H1781 0.961 . S
C1794 H1782 0.959 . S
C1794 C1792 1.561 . S
C1795 C1792 1.526 . S
C1795 C1796 1.396 . S
C1795 C1800 1.390 . S
C1796 C1790 1.465 . S
C1796 C1795 1.396 . S
C1796 C1797 1.399 . S
C1797 H1783 0.929 . S
C1797 C1796 1.399 . S
C1797 C1798 1.385 . S
C1798 H1784 0.931 . S
C1798 C1797 1.385 . S
C1798 C1799 1.389 . S
C1799 C1798 1.389 . S
C1799 C1800 1.387 . S
C1800 H1785 0.930 . S
C1800 C1795 1.390 . S
C1800 C1799 1.387 . S
H1801 C1813 0.930 . S
H1802 C1815 0.930 . S
H1803 C1816 0.930 . S
H1804 C1820 0.959 . S
H1805 C1820 0.959 . S
H1806 C1820 0.961 . S
H1807 C1821 0.960 . S
H1808 C1821 0.961 . S
H1809 C1821 0.959 . S
H1810 C1824 0.929 . S
H1811 C1825 0.931 . S
H1812 C1827 0.930 . S
C1813 H1801 0.930 . S
C1813 C1814 1.399 . S
C1813 C1818 1.399 1_565 S
C1814 C1813 1.399 . S
C1814 C1815 1.376 . S
C1815 H1802 0.930 . S
C1815 C1814 1.376 . S
C1815 C1816 1.388 1_565 S
C1816 H1803 0.930 . S
C1816 C1815 1.388 1_545 S
C1816 C1817 1.390 . S
C1817 C1816 1.390 . S
C1817 C1818 1.394 . S
C1817 C1823 1.465 . S
C1818 C1813 1.399 1_545 S
C1818 C1817 1.394 . S
C1818 C1819 1.516 . S
C1819 C1818 1.516 . S
C1819 C1820 1.502 . S
C1819 C1821 1.561 . S
C1819 C1822 1.526 . S
C1820 H1804 0.959 . S
C1820 H1805 0.959 . S
C1820 H1806 0.961 . S
C1820 C1819 1.502 . S
C1821 H1807 0.960 . S
C1821 H1808 0.961 . S
C1821 H1809 0.959 . S
C1821 C1819 1.561 . S
C1822 C1819 1.526 . S
C1822 C1823 1.396 . S
C1822 C1827 1.390 . S
C1823 C1817 1.465 . S
C1823 C1822 1.396 . S
C1823 C1824 1.399 . S
C1824 H1810 0.929 . S
C1824 C1823 1.399 . S
C1824 C1825 1.385 . S
C1825 H1811 0.931 . S
C1825 C1824 1.385 . S
C1825 C1826 1.389 . S
C1826 C1825 1.389 . S
C1826 C1827 1.387 . S
C1827 H1812 0.930 . S
C1827 C1822 1.390 . S
C1827 C1826 1.387 . S
H1828 C1840 0.930 . S
H1829 C1842 0.930 . S
H1830 C1843 0.930 . S
H1831 C1847 0.959 . S
H1832 C1847 0.959 . S
H1833 C1847 0.961 . S
H1834 C1848 0.960 . S
H1835 C1848 0.961 . S
H1836 C1848 0.959 . S
H1837 C1851 0.929 . S
H1838 C1852 0.931 . S
H1839 C1854 0.927 1_545 S
C1840 H1828 0.930 . S
C1840 C1841 1.399 . S
C1840 C1845 1.399 . S
C1841 C1840 1.399 . S
C1841 C1842 1.376 . S
C1842 H1829 0.930 . S
C1842 C1841 1.376 . S
C1842 C1843 1.388 . S
C1843 H1830 0.930 . S
C1843 C1842 1.388 . S
C1843 C1844 1.390 . S
C1844 C1843 1.390 . S
C1844 C1845 1.394 . S
C1844 C1850 1.465 . S
C1845 C1840 1.399 . S
C1845 C1844 1.394 . S
C1845 C1846 1.516 . S
C1846 C1845 1.516 . S
C1846 C1847 1.502 . S
C1846 C1848 1.561 . S
C1846 C1849 1.526 . S
C1847 H1831 0.959 . S
C1847 H1832 0.959 . S
C1847 H1833 0.961 . S
C1847 C1846 1.502 . S
C1848 H1834 0.960 . S
C1848 H1835 0.961 . S
C1848 H1836 0.959 . S
C1848 C1846 1.561 . S
C1849 C1846 1.526 . S
C1849 C1850 1.396 . S
C1849 C1854 1.397 . S
C1850 C1844 1.465 . S
C1850 C1849 1.396 . S
C1850 C1851 1.399 . S
C1851 H1837 0.929 . S
C1851 C1850 1.399 . S
C1851 C1852 1.385 1_565 S
C1852 H1838 0.931 . S
C1852 C1851 1.385 1_545 S
C1852 C1853 1.389 . S
C1853 C1852 1.389 . S
C1853 C1854 1.381 1_545 S
C1854 H1839 0.927 1_565 S
C1854 C1849 1.397 . S
C1854 C1853 1.381 1_565 S
H1855 C1867 0.930 . S
H1856 C1869 0.930 . S
H1857 C1870 0.930 . S
H1858 C1874 0.959 . S
H1859 C1874 0.959 . S
H1860 C1874 0.961 . S
H1861 C1875 0.960 . S
H1862 C1875 0.961 . S
H1863 C1875 0.959 . S
H1864 C1878 0.929 . S
H1865 C1879 0.931 . S
H1866 C1881 0.930 . S
C1867 H1855 0.930 . S
C1867 C1868 1.399 . S
C1867 C1872 1.399 . S
C1868 C1867 1.399 . S
C1868 C1869 1.376 . S
C1869 H1856 0.930 . S
C1869 C1868 1.376 . S
C1869 C1870 1.388 . S
C1870 H1857 0.930 . S
C1870 C1869 1.388 . S
C1870 C1871 1.390 . S
C1871 C1870 1.390 . S
C1871 C1872 1.394 . S
C1871 C1877 1.465 . S
C1872 C1867 1.399 . S
C1872 C1871 1.394 . S
C1872 C1873 1.516 . S
C1873 C1872 1.516 . S
C1873 C1874 1.502 . S
C1873 C1875 1.561 . S
C1873 C1876 1.526 . S
C1874 H1858 0.959 . S
C1874 H1859 0.959 . S
C1874 H1860 0.961 . S
C1874 C1873 1.502 . S
C1875 H1861 0.960 . S
C1875 H1862 0.961 . S
C1875 H1863 0.959 . S
C1875 C1873 1.561 . S
C1876 C1873 1.526 . S
C1876 C1877 1.396 . S
C1876 C1881 1.390 1_545 S
C1877 C1871 1.465 . S
C1877 C1876 1.396 . S
C1877 C1878 1.399 . S
C1878 H1864 0.929 . S
C1878 C1877 1.399 . S
C1878 C1879 1.385 1_545 S
C1879 H1865 0.931 . S
C1879 C1878 1.385 1_565 S
C1879 C1880 1.389 . S
C1880 C1879 1.389 . S
C1880 C1881 1.387 . S
C1881 H1866 0.930 . S
C1881 C1876 1.390 1_565 S
C1881 C1880 1.387 . S
H1882 C1894 0.930 . S
H1883 C1896 0.930 . S
H1884 C1897 0.930 . S
H1885 C1901 0.959 . S
H1886 C1901 0.959 . S
H1887 C1901 0.961 . S
H1888 C1902 0.960 . S
H1889 C1902 0.961 . S
H1890 C1902 0.959 . S
H1891 C1905 0.929 . S
H1892 C1906 0.931 . S
H1893 C1908 0.930 . S
C1894 H1882 0.930 . S
C1894 C1895 1.399 . S
C1894 C1899 1.399 1_565 S
C1895 C1894 1.399 . S
C1895 C1896 1.376 . S
C1896 H1883 0.930 . S
C1896 C1895 1.376 . S
C1896 C1897 1.388 1_565 S
C1897 H1884 0.930 . S
C1897 C1896 1.388 1_545 S
C1897 C1898 1.390 . S
C1898 C1897 1.390 . S
C1898 C1899 1.394 . S
C1898 C1904 1.465 . S
C1899 C1894 1.399 1_545 S
C1899 C1898 1.394 . S
C1899 C1900 1.516 . S
C1900 C1899 1.516 . S
C1900 C1901 1.502 . S
C1900 C1902 1.561 . S
C1900 C1903 1.526 . S
C1901 H1885 0.959 . S
C1901 H1886 0.959 . S
C1901 H1887 0.961 . S
C1901 C1900 1.502 . S
C1902 H1888 0.960 . S
C1902 H1889 0.961 . S
C1902 H1890 0.959 . S
C1902 C1900 1.561 . S
C1903 C1900 1.526 . S
C1903 C1904 1.396 . S
C1903 C1908 1.390 . S
C1904 C1898 1.465 . S
C1904 C1903 1.396 . S
C1904 C1905 1.399 . S
C1905 H1891 0.929 . S
C1905 C1904 1.399 . S
C1905 C1906 1.385 . S
C1906 H1892 0.931 . S
C1906 C1905 1.385 . S
C1906 C1907 1.389 . S
C1907 C1906 1.389 . S
C1907 C1908 1.387 . S
C1908 H1893 0.930 . S
C1908 C1903 1.390 . S
C1908 C1907 1.387 . S
H1909 C1921 0.930 . S
H1910 C1923 0.930 . S
H1911 C1924 0.930 . S
H1912 C1928 0.959 . S
H1913 C1928 0.959 . S
H1914 C1928 0.961 . S
H1915 C1929 0.960 . S
H1916 C1929 0.961 . S
H1917 C1929 0.959 . S
H1918 C1932 0.929 . S
H1919 C1933 0.931 . S
H1920 C1935 0.930 1_545 S
C1921 H1909 0.930 . S
C1921 C1922 1.399 . S
C1921 C1926 1.399 . S
C1922 C1921 1.399 . S
C1922 C1923 1.376 . S
C1923 H1910 0.930 . S
C1923 C1922 1.376 . S
C1923 C1924 1.388 . S
C1924 H1911 0.930 . S
C1924 C1923 1.388 . S
C1924 C1925 1.390 . S
C1925 C1924 1.390 . S
C1925 C1926 1.394 . S
C1925 C1931 1.465 . S
C1926 C1921 1.399 . S
C1926 C1925 1.394 . S
C1926 C1927 1.516 . S
C1927 C1926 1.516 . S
C1927 C1928 1.502 . S
C1927 C1929 1.561 . S
C1927 C1930 1.526 . S
C1928 H1912 0.959 . S
C1928 H1913 0.959 . S
C1928 H1914 0.961 . S
C1928 C1927 1.502 . S
C1929 H1915 0.960 . S
C1929 H1916 0.961 . S
C1929 H1917 0.959 . S
C1929 C1927 1.561 . S
C1930 C1927 1.526 . S
C1930 C1931 1.396 . S
C1930 C1935 1.390 . S
C1931 C1925 1.465 . S
C1931 C1930 1.396 . S
C1931 C1932 1.399 . S
C1932 H1918 0.929 . S
C1932 C1931 1.399 . S
C1932 C1933 1.385 1_565 S
C1933 H1919 0.931 . S
C1933 C1932 1.385 1_545 S
C1933 C1934 1.389 . S
C1934 C1933 1.389 . S
C1934 C1935 1.387 1_545 S
C1935 H1920 0.930 1_565 S
C1935 C1930 1.390 . S
C1935 C1934 1.387 1_565 S
C653 C11 1.554 . S
C665 C371 1.555 . S
C680 C51 1.541 . S
C692 C331 1.548 . S
C707 C451 1.548 . S
C719 C91 1.540 . S
C734 C131 1.555 . S
C746 C411 1.553 . S
C761 C522 1.530 . S
C773 C162 1.530 . S
C788 C482 1.539 . S
C800 C202 1.539 . S
C815 C602 1.553 . S
C827 C242 1.553 . S
C842 C282 1.552 . S
C854 C562 1.553 . S
C869 C99 1.684 . S
C881 C19 1.686 . S
C896 C139 1.663 . S
C908 C59 1.666 . S
C923 C250 1.687 . S
C935 C170 1.679 . S
C950 C210 1.661 . S
C962 C290 1.671 . S
C977 C419 1.678 . S
C989 C339 1.682 . S
C1004 C459 1.682 . S
C1016 C379 1.684 . S
C1031 C490 1.661 . S
C1043 C570 1.671 . S
C1058 C530 1.678 . S
C1070 C610 1.686 . S
C1085 C219 1.513 . S
C1097 C10 1.503 . S
C1112 C179 1.503 . S
C1124 C50 1.494 . S
C1139 C90 1.559 . S
C1151 C299 1.562 . S
C1166 C259 1.510 . S
C1178 C130 1.500 . S
C1193 C330 1.486 . S
C1205 C539 1.484 . S
C1220 C499 1.506 . S
C1232 C370 1.497 . S
C1247 C410 1.554 . S
C1259 C619 1.560 . S
C1274 C579 1.502 . S
C1286 C450 1.493 . S
C1301 C42 1.646 . S
C1313 C2 1.614 . S
C1328 C122 1.633 . S
C1340 C82 1.633 . S
C1355 C211 1.632 . S
C1367 C171 1.588 . S
C1382 C251 1.599 . S
C1394 C291 1.643 . S
C1409 C362 1.582 . S
C1421 C322 1.625 . S
C1436 C442 1.589 . S
C1448 C402 1.610 . S
C1463 C491 1.626 . S
C1475 C531 1.592 . S
C1490 C571 1.626 . S
C1502 C611 1.592 . S
C1517 C7 1.648 . S
C1529 C16 1.620 . S
C1544 C47 1.610 . S
C1556 C56 1.648 . S
C1571 C87 1.612 . S
C1583 C96 1.646 . S
C1598 C136 1.615 . S
C1610 C127 1.641 . S
C1625 C176 1.650 . S
C1637 C167 1.617 . S
C1652 C207 1.642 . S
C1664 C216 1.627 . S
C1679 C256 1.620 . S
C1691 C247 1.636 . S
C1706 C296 1.640 . S
C1718 C287 1.629 . S
C1733 C336 1.643 . S
C1745 C327 1.626 . S
C1760 C367 1.649 . S
C1772 C376 1.618 . S
C1787 C416 1.642 . S
C1799 C407 1.627 . S
C1814 C456 1.628 . S
C1826 C447 1.627 . S
C1841 C496 1.645 . S
C1853 C487 1.623 . S
C1868 C536 1.609 . S
C1880 C527 1.651 . S
C1895 C567 1.652 . S
C1907 C576 1.614 . S
C1922 C616 1.624 . S
C1934 C607 1.631 . S
