# Generated by pormake.
# Topology uni, (4)-cn, num edge types: 1
# Building blocks:
#     Node 0, Type 0, BuildingBlock: KUFVIS_clean_sbu_0, # of connection points: 4
#     Node 1, Type 0, BuildingBlock: KUFVIS_clean_sbu_0, # of connection points: 4
#     Node 2, Type 0, BuildingBlock: KUFVIS_clean_sbu_0, # of connection points: 4
#     Node 3, Type 0, BuildingBlock: KUFVIS_clean_sbu_0, # of connection points: 4
#     Node 4, Type 0, BuildingBlock: KUFVIS_clean_sbu_0, # of connection points: 4
#     Node 5, Type 0, BuildingBlock: KUFVIS_clean_sbu_0, # of connection points: 4
#     Edge 6, Type (0, 0), BuildingBlock: EYOCIG_clean_linker_4, # of connection points: 2
#     Edge 7, Type (0, 0), BuildingBlock: EYOCIG_clean_linker_4, # of connection points: 2
#     Edge 8, Type (0, 0), BuildingBlock: EYOCIG_clean_linker_4, # of connection points: 2
#     Edge 9, Type (0, 0), BuildingBlock: EYOCIG_clean_linker_4, # of connection points: 2
#     Edge 10, Type (0, 0), BuildingBlock: EYOCIG_clean_linker_4, # of connection points: 2
#     Edge 11, Type (0, 0), BuildingBlock: EYOCIG_clean_linker_4, # of connection points: 2
#     Edge 12, Type (0, 0), BuildingBlock: EYOCIG_clean_linker_4, # of connection points: 2
#     Edge 13, Type (0, 0), BuildingBlock: EYOCIG_clean_linker_4, # of connection points: 2
#     Edge 14, Type (0, 0), BuildingBlock: EYOCIG_clean_linker_4, # of connection points: 2
#     Edge 15, Type (0, 0), BuildingBlock: EYOCIG_clean_linker_4, # of connection points: 2
#     Edge 16, Type (0, 0), BuildingBlock: EYOCIG_clean_linker_4, # of connection points: 2
#     Edge 17, Type (0, 0), BuildingBlock: EYOCIG_clean_linker_4, # of connection points: 2
# Relax obj value: 0.055
# Max RMSD: 0.074
# Mean RMSD: 0.074
data_MOF--net-uni--node1-KUFVIS_clean_sbu_0--edge1-EYOCIG_clean_linker_4
_symmetry_space_group_name_H-M    P1
_symmetry_Int_Tables_number       1
_symmetry_cell_setting            triclinic
loop_
_symmetry_equiv_pos_as_xyz
'x, y, z'
_cell_length_a     29.965865
_cell_length_b     29.96253
_cell_length_c     18.200694
_cell_angle_alpha  90.010946
_cell_angle_beta   89.99637
_cell_angle_gamma 120.0054
loop_
_atom_site_label
_atom_site_type_symbol
_atom_site_fract_x
_atom_site_fract_y
_atom_site_fract_z
_atom_type_partial_charge
Mn0 Mn 0.65457 0.02331 0.05884 0.0
Mn1 Mn 0.65393 0.13497 0.08175 0.0
C2 C 0.59594 0.02704 0.13753 0.0
C3 C 0.6822 0.96594 0.08987 0.0
C4 C 0.6124 0.0681 0.94605 0.0
O5 O 0.72503 0.07726 0.01974 0.0
O6 O 0.72278 0.15007 0.04554 0.0
C7 C 0.72905 0.18136 0.2033 0.0
N8 N 0.68053 0.16313 0.17657 0.0
C9 C 0.65359 0.1861 0.28798 0.0
C10 C 0.70332 0.20524 0.31663 0.0
C11 C 0.74117 0.20278 0.27412 0.0
C12 C 0.6438 0.16527 0.21703 0.0
H13 H 0.75833 0.17975 0.1707 0.0
C14 C 0.74554 0.12625 0.02214 0.0
O15 O 0.66393 0.96549 0.02522 0.0
O16 O 0.68679 1.0011 0.13582 0.0
N17 N 0.58955 0.12513 0.11755 0.0
C18 C 0.54316 0.10383 0.08256 0.0
C19 C 0.50093 0.10255 0.11806 0.0
C20 C 0.5069 0.12349 0.18885 0.0
C21 C 0.55505 0.14538 0.22363 0.0
C22 C 0.59574 0.14552 0.18557 0.0
H23 H 0.53837 0.08785 0.02805 0.0
O24 O 0.58683 0.98321 0.11056 0.0
O25 O 0.6387 0.0672 0.11742 0.0
O26 O 0.61953 0.03182 0.96783 0.0
O27 O 0.6247 0.10875 0.98314 0.0
C28 C 0.56409 0.16641 0.29497 0.0
C29 C 0.61333 0.18678 0.3271 0.0
H30 H 0.71284 0.22184 0.37121 0.0
H31 H 0.77964 0.21749 0.29584 0.0
H32 H 0.46388 0.08554 0.09087 0.0
H33 H 0.47419 0.12232 0.21611 0.0
H34 H 0.53336 0.16679 0.32579 0.0
H35 H 0.61977 0.20268 0.38208 0.0
Mn36 Mn 0.67423 0.6555 0.22549 0.0
Mn37 Mn 0.56189 0.65477 0.24837 0.0
C38 C 0.61186 0.59681 0.3041 0.0
C39 C 0.75922 0.68312 0.25657 0.0
C40 C 0.58729 0.61334 0.11263 0.0
O41 O 0.69072 0.72598 0.18648 0.0
O42 O 0.61564 0.72365 0.21223 0.0
C43 C 0.59058 0.72985 0.37 0.0
N44 N 0.56031 0.68133 0.34322 0.0
C45 C 0.51038 0.65431 0.4546 0.0
C46 C 0.54095 0.70404 0.48331 0.0
C47 C 0.58127 0.74193 0.44084 0.0
C48 C 0.52144 0.64457 0.38364 0.0
H49 H 0.62147 0.75915 0.33744 0.0
C50 C 0.66223 0.74646 0.18887 0.0
O51 O 0.74142 0.66489 0.19188 0.0
O52 O 0.72863 0.68769 0.30252 0.0
N53 N 0.50736 0.59035 0.2841 0.0
C54 C 0.4823 0.54398 0.24907 0.0
C55 C 0.44135 0.50171 0.28451 0.0
C56 C 0.42635 0.50764 0.3553 0.0
C57 C 0.4526 0.55579 0.39014 0.0
C58 C 0.49315 0.59651 0.35213 0.0
H59 H 0.4935 0.53922 0.19455 0.0
O60 O 0.64659 0.58773 0.27712 0.0
O61 O 0.61445 0.63957 0.28404 0.0
O62 O 0.6307 0.62049 0.13443 0.0
O63 O 0.55891 0.62559 0.14974 0.0
C64 C 0.4406 0.56479 0.46149 0.0
C65 C 0.46945 0.61402 0.49368 0.0
H66 H 0.53387 0.71353 0.5379 0.0
H67 H 0.60502 0.78039 0.46261 0.0
H68 H 0.42133 0.46467 0.25728 0.0
H69 H 0.39482 0.47491 0.38253 0.0
H70 H 0.40948 0.53403 0.49228 0.0
H71 H 0.45997 0.62042 0.54866 0.0
Mn72 Mn 0.06148 0.67476 0.39204 0.0
Mn73 Mn 0.94983 0.56246 0.415 0.0
C74 C 0.05779 0.6124 0.47065 0.0
C75 C 0.11889 0.75978 0.42308 0.0
C76 C 1.01659 0.5878 0.27921 0.0
O77 O 1.00751 0.69128 0.35306 0.0
O78 O 0.93472 0.61623 0.37891 0.0
C79 C 0.90357 0.59121 0.53671 0.0
N80 N 0.92176 0.56091 0.50989 0.0
C81 C 0.89889 0.511 0.62128 0.0
C82 C 0.87979 0.5416 0.65003 0.0
C83 C 0.88223 0.58193 0.60757 0.0
C84 C 0.91964 0.52203 0.55029 0.0
H85 H 0.90517 0.62211 0.50415 0.0
C86 C 0.95853 0.66281 0.35552 0.0
O87 O 0.11928 0.74195 0.3584 0.0
O88 O 0.08375 0.7292 0.46905 0.0
N89 N 0.95968 0.5079 0.4507 0.0
C90 C 0.98094 0.48281 0.41563 0.0
C91 C 0.98224 0.44185 0.45106 0.0
C92 C 0.96136 0.42687 0.52187 0.0
C93 C 0.93952 0.45315 0.55675 0.0
C94 C 0.93936 0.49371 0.51875 0.0
H95 H 0.99687 0.49399 0.3611 0.0
O96 O 0.1016 0.64711 0.44364 0.0
O97 O 1.01763 0.615 0.45062 0.0
O98 O 0.05289 0.6312 0.30099 0.0
O99 O 0.97597 0.55944 0.31634 0.0
C100 C 0.91856 0.44118 0.62811 0.0
C101 C 0.89824 0.47006 0.66034 0.0
H102 H 0.86326 0.53454 0.70463 0.0
H103 H 0.86755 0.6057 0.62937 0.0
H104 H 0.99922 0.4218 0.4238 0.0
H105 H 0.96255 0.39533 0.54909 0.0
H106 H 0.9182 0.41006 0.65889 0.0
H107 H 0.88239 0.4606 0.71534 0.0
Mn108 Mn 0.42932 0.06226 0.55887 0.0
Mn109 Mn 0.43006 0.95065 0.58176 0.0
C110 C 0.48798 0.0586 0.63755 0.0
C111 C 0.40167 0.11963 0.58991 0.0
C112 C 0.47153 0.0175 0.44606 0.0
O113 O 0.35887 1.00826 0.51979 0.0
O114 O 0.3612 0.9355 0.54555 0.0
C115 C 0.35495 0.90425 0.70331 0.0
N116 N 0.40348 0.9225 0.67658 0.0
C117 C 0.43046 0.89959 0.78799 0.0
C118 C 0.38073 0.88043 0.81664 0.0
C119 C 0.34285 0.88285 0.77414 0.0
C120 C 0.44022 0.9204 0.71704 0.0
H121 H 0.32567 0.90583 0.67072 0.0
C122 C 0.33839 0.95928 0.52217 0.0
O123 O 0.41993 0.12005 0.52525 0.0
O124 O 0.3971 0.08448 0.63586 0.0
N125 N 0.49446 0.96055 0.61755 0.0
C126 C 0.54085 0.98187 0.58257 0.0
C127 C 0.5831 0.9832 0.61806 0.0
C128 C 0.57715 0.96227 0.68885 0.0
C129 C 0.529 0.94036 0.72363 0.0
C130 C 0.48829 0.94018 0.68558 0.0
H131 H 0.54562 0.99784 0.52806 0.0
O132 O 0.49707 0.10241 0.61057 0.0
O133 O 0.44524 0.01841 0.61744 0.0
O134 O 0.46436 0.05375 0.46785 0.0
O135 O 0.45928 0.97687 0.48315 0.0
C136 C 0.51997 0.91935 0.79497 0.0
C137 C 0.47073 0.89896 0.82711 0.0
H138 H 0.37122 0.86385 0.87122 0.0
H139 H 0.30438 0.86812 0.79587 0.0
H140 H 0.62015 1.00023 0.59087 0.0
H141 H 0.60987 0.96348 0.71611 0.0
H142 H 0.55072 0.91901 0.82579 0.0
H143 H 0.46431 0.88307 0.88208 0.0
Mn144 Mn 0.41001 0.43027 0.72544 0.0
Mn145 Mn 0.5223 0.43092 0.74832 0.0
C146 C 0.47239 0.48894 0.80408 0.0
C147 C 0.32501 0.40267 0.75651 0.0
C148 C 0.49695 0.47239 0.6126 0.0
O149 O 0.39347 0.35978 0.6864 0.0
O150 O 0.46853 0.36205 0.71217 0.0
C151 C 0.49356 0.35585 0.86993 0.0
N152 N 0.52386 0.40436 0.84316 0.0
C153 C 0.57379 0.43136 0.95456 0.0
C154 C 0.54319 0.38164 0.98324 0.0
C155 C 0.50286 0.34376 0.94076 0.0
C156 C 0.56274 0.44111 0.8836 0.0
H157 H 0.46266 0.32656 0.83735 0.0
C158 C 0.42194 0.33927 0.6888 0.0
O159 O 0.34283 0.4209 0.69184 0.0
O160 O 0.35559 0.3981 0.80245 0.0
N161 N 0.57686 0.49533 0.78408 0.0
C162 C 0.60196 0.5417 0.74906 0.0
C163 C 0.64292 0.58395 0.78453 0.0
C164 C 0.6579 0.57802 0.85532 0.0
C165 C 0.63163 0.52987 0.89013 0.0
C166 C 0.59106 0.48916 0.85211 0.0
H167 H 0.59076 0.54646 0.69454 0.0
O168 O 0.43767 0.49805 0.7771 0.0
O169 O 0.46977 0.44617 0.784 0.0
O170 O 0.45355 0.46527 0.6344 0.0
O171 O 0.5253 0.46011 0.6497 0.0
C172 C 0.64361 0.52087 0.96148 0.0
C173 C 0.61473 0.47164 0.99365 0.0
H174 H 0.55026 0.37215 0.03783 0.0
H175 H 0.47909 0.3053 0.96251 0.0
H176 H 0.66297 0.62099 0.75731 0.0
H177 H 0.68944 0.61074 0.88255 0.0
H178 H 0.67474 0.55162 0.99228 0.0
H179 H 0.6242 0.46523 0.04863 0.0
Mn180 Mn 1.0225 0.41058 0.89198 0.0
Mn181 Mn 0.13406 0.52296 0.91499 0.0
C182 C 0.0261 0.47291 0.97062 0.0
C183 C 0.96514 0.32556 0.92301 0.0
C184 C 0.0673 0.49754 0.77919 0.0
O185 O 0.07653 0.39414 0.85302 0.0
O186 O 0.14925 0.46926 0.87885 0.0
C187 C 0.18039 0.49428 0.03666 0.0
N188 N 0.16215 0.52455 0.00987 0.0
C189 C 0.18495 0.57444 0.1213 0.0
C190 C 0.2041 0.54388 0.15002 0.0
C191 C 0.20173 0.50359 0.10753 0.0
C192 C 0.16421 0.56339 0.0503 0.0
H193 H 0.17884 0.46341 1.00408 0.0
C194 C 0.1255 0.42266 0.85546 0.0
O195 O 0.96474 0.34336 0.85832 0.0
O196 O 1.00026 0.35616 0.96898 0.0
N197 N 0.12412 0.57747 0.95073 0.0
C198 C 0.10281 0.60251 0.91569 0.0
C199 C 0.10144 0.64343 0.95115 0.0
C200 C 0.1223 0.65841 0.02197 0.0
C201 C 0.14421 0.63219 0.05682 0.0
C202 C 0.14444 0.59167 0.01878 0.0
H203 H 0.08688 0.59131 0.86115 0.0
O204 O 0.98231 0.43817 0.94358 0.0
O205 O 0.06629 0.47036 0.95058 0.0
O206 O 0.03104 0.45411 0.80094 0.0
O207 O 0.1079 0.52594 0.81633 0.0
C208 C 0.16515 0.64418 0.1282 0.0
C209 C 0.18553 0.61534 0.1604 0.0
H210 H 0.22063 0.55095 0.20463 0.0
H211 H 0.21645 0.47985 0.1293 0.0
H212 H 0.08441 0.66343 0.92392 0.0
H213 H 0.12106 0.68992 0.04922 0.0
H214 H 0.16546 0.67526 0.159 0.0
H215 H 0.20137 0.62481 0.21541 0.0
C216 C 0.5418 0.02747 0.25181 0.0
C217 C 0.56699 0.02809 0.19974 0.0
C218 C 0.51587 0.02563 0.31751 0.0
C219 C 0.4957 0.02292 0.37596 0.0
C220 C 0.55729 0.54263 0.41836 0.0
C221 C 0.58186 0.56783 0.3663 0.0
C222 C 0.53317 0.5167 0.48405 0.0
C223 C 0.51571 0.49655 0.5425 0.0
C224 C 0.05922 0.53374 0.65061 0.0
C225 C 0.06191 0.51629 0.70907 0.0
C226 C 0.0574 0.55784 0.58491 0.0
C227 C 0.05677 0.58241 0.53285 0.0
C228 C 0.56807 0.06001 0.81751 0.0
C229 C 0.58823 0.0627 0.87595 0.0
C230 C 0.54214 0.0582 0.75182 0.0
C231 C 0.51695 0.05758 0.69975 0.0
C232 C 0.5511 0.56904 0.98405 0.0
C233 C 0.56855 0.58919 0.04251 0.0
C234 C 0.52698 0.54311 0.91834 0.0
C235 C 0.5024 0.51792 0.86628 0.0
C236 C 0.02642 0.52744 0.08491 0.0
C237 C 0.02707 0.50288 0.03283 0.0
C238 C 1.02461 0.55155 0.15062 0.0
C239 C 1.02195 0.56902 0.20908 0.0
C240 C 0.69306 0.84154 0.14682 0.0
C241 C 0.68296 0.7987 0.16453 0.0
C242 C 0.69588 0.8886 0.12795 0.0
C243 C 0.69013 0.92455 0.11262 0.0
C244 C 0.89436 0.69375 0.31355 0.0
C245 C 0.92705 0.68358 0.33122 0.0
C246 C 0.85017 0.69666 0.29468 0.0
C247 C 0.80849 0.69097 0.27935 0.0
C248 C 0.19626 0.85078 0.46116 0.0
C249 C 0.1603 0.80908 0.44582 0.0
C250 C 0.24333 0.89502 0.48006 0.0
C251 C 0.28616 0.92776 0.49779 0.0
C252 C 0.391 0.24415 0.64681 0.0
C253 C 0.40116 0.287 0.66449 0.0
C254 C 0.3881 0.19704 0.62797 0.0
C255 C 0.3938 0.16104 0.61267 0.0
C256 C 0.18978 0.39187 0.81346 0.0
C257 C 0.15704 0.40196 0.83114 0.0
C258 C 0.23402 0.38904 0.79459 0.0
C259 C 0.27572 0.39477 0.77926 0.0
C260 C 0.88772 0.2346 0.96111 0.0
C261 C 0.92371 0.27628 0.94577 0.0
C262 C 0.84062 0.19041 0.98002 0.0
C263 C 0.79778 0.15772 0.99776 0.0
loop_
_geom_bond_atom_site_label_1
_geom_bond_atom_site_label_2
_geom_bond_distance
_geom_bond_site_symmetry_2
_ccdc_geom_bond_type
Mn0 O5 2.095 . S
Mn0 O15 2.162 1_545 S
Mn0 O16 2.297 1_545 S
Mn0 O24 2.385 1_545 S
Mn0 O25 2.209 . S
Mn0 O26 2.094 1_544 S
Mn1 O6 2.121 . S
Mn1 N8 2.257 . S
Mn1 N17 2.282 . S
Mn1 O25 2.215 . S
Mn1 O27 2.117 1_554 S
C2 O24 1.234 1_545 S
C2 O25 1.283 . S
C3 O15 1.281 . S
C3 O16 1.236 . S
C4 O26 1.240 1_545 S
C4 O27 1.264 . S
O5 Mn0 2.095 . S
O5 C14 1.250 . S
O6 Mn1 2.121 . S
O6 C14 1.258 . S
C7 N8 1.326 . S
C7 C11 1.460 . S
C7 H13 0.929 . S
N8 Mn1 2.257 . S
N8 C7 1.326 . S
N8 C12 1.362 . S
C9 C10 1.258 . S
C9 C12 1.431 . S
C9 C29 1.449 . S
C10 C9 1.258 . S
C10 C11 1.477 . S
C10 H30 0.931 . S
C11 C7 1.460 . S
C11 C10 1.477 . S
C11 H31 0.930 . S
C12 N8 1.362 . S
C12 C9 1.431 . S
C12 C22 1.476 . S
H13 C7 0.929 . S
C14 O5 1.250 . S
C14 O6 1.258 . S
O15 Mn0 2.162 1_565 S
O15 C3 1.281 . S
O16 Mn0 2.297 1_565 S
O16 C3 1.236 . S
N17 Mn1 2.282 . S
N17 C18 1.328 . S
N17 C22 1.318 . S
C18 N17 1.328 . S
C18 C19 1.457 . S
C18 H23 0.929 . S
C19 C18 1.457 . S
C19 C20 1.291 . S
C19 H32 0.931 . S
C20 C19 1.291 . S
C20 C21 1.373 . S
C20 H33 0.929 . S
C21 C20 1.373 . S
C21 C22 1.396 . S
C21 C28 1.403 . S
C22 C12 1.476 . S
C22 N17 1.318 . S
C22 C21 1.396 . S
H23 C18 0.929 . S
O24 Mn0 2.385 1_565 S
O24 C2 1.234 1_565 S
O25 Mn0 2.209 . S
O25 Mn1 2.215 . S
O25 C2 1.283 . S
O26 Mn0 2.094 1_566 S
O26 C4 1.240 1_565 S
O27 Mn1 2.117 1_556 S
O27 C4 1.264 . S
C28 C21 1.403 . S
C28 C29 1.399 . S
C28 H34 0.929 . S
C29 C9 1.449 . S
C29 C28 1.399 . S
C29 H35 0.930 . S
H30 C10 0.931 . S
H31 C11 0.930 . S
H32 C19 0.931 . S
H33 C20 0.929 . S
H34 C28 0.929 . S
H35 C29 0.930 . S
Mn36 O41 2.095 . S
Mn36 O51 2.162 . S
Mn36 O52 2.297 . S
Mn36 O60 2.385 . S
Mn36 O61 2.209 . S
Mn36 O62 2.094 . S
Mn37 O42 2.121 . S
Mn37 N44 2.257 . S
Mn37 N53 2.282 . S
Mn37 O61 2.215 . S
Mn37 O63 2.117 . S
C38 O60 1.234 . S
C38 O61 1.283 . S
C39 O51 1.281 . S
C39 O52 1.236 . S
C40 O62 1.240 . S
C40 O63 1.264 . S
O41 Mn36 2.095 . S
O41 C50 1.250 . S
O42 Mn37 2.121 . S
O42 C50 1.258 . S
C43 N44 1.326 . S
C43 C47 1.460 . S
C43 H49 0.929 . S
N44 Mn37 2.257 . S
N44 C43 1.326 . S
N44 C48 1.362 . S
C45 C46 1.258 . S
C45 C48 1.431 . S
C45 C65 1.449 . S
C46 C45 1.258 . S
C46 C47 1.477 . S
C46 H66 0.931 . S
C47 C43 1.460 . S
C47 C46 1.477 . S
C47 H67 0.930 . S
C48 N44 1.362 . S
C48 C45 1.431 . S
C48 C58 1.476 . S
H49 C43 0.929 . S
C50 O41 1.250 . S
C50 O42 1.258 . S
O51 Mn36 2.162 . S
O51 C39 1.281 . S
O52 Mn36 2.297 . S
O52 C39 1.236 . S
N53 Mn37 2.282 . S
N53 C54 1.328 . S
N53 C58 1.318 . S
C54 N53 1.328 . S
C54 C55 1.457 . S
C54 H59 0.929 . S
C55 C54 1.457 . S
C55 C56 1.291 . S
C55 H68 0.931 . S
C56 C55 1.291 . S
C56 C57 1.373 . S
C56 H69 0.929 . S
C57 C56 1.373 . S
C57 C58 1.396 . S
C57 C64 1.403 . S
C58 C48 1.476 . S
C58 N53 1.318 . S
C58 C57 1.396 . S
H59 C54 0.929 . S
O60 Mn36 2.385 . S
O60 C38 1.234 . S
O61 Mn36 2.209 . S
O61 Mn37 2.215 . S
O61 C38 1.283 . S
O62 Mn36 2.094 . S
O62 C40 1.240 . S
O63 Mn37 2.117 . S
O63 C40 1.264 . S
C64 C57 1.403 . S
C64 C65 1.399 . S
C64 H70 0.929 . S
C65 C45 1.449 . S
C65 C64 1.399 . S
C65 H71 0.930 . S
H66 C46 0.931 . S
H67 C47 0.930 . S
H68 C55 0.931 . S
H69 C56 0.929 . S
H70 C64 0.929 . S
H71 C65 0.930 . S
Mn72 O77 2.095 1_455 S
Mn72 O87 2.162 . S
Mn72 O88 2.297 . S
Mn72 O96 2.385 . S
Mn72 O97 2.209 1_455 S
Mn72 O98 2.094 . S
Mn73 O78 2.121 . S
Mn73 N80 2.257 . S
Mn73 N89 2.282 . S
Mn73 O97 2.215 . S
Mn73 O99 2.117 . S
C74 O96 1.234 . S
C74 O97 1.283 1_455 S
C75 O87 1.281 . S
C75 O88 1.236 . S
C76 O98 1.240 . S
C76 O99 1.264 1_455 S
O77 Mn72 2.095 1_655 S
O77 C86 1.250 . S
O78 Mn73 2.121 . S
O78 C86 1.258 . S
C79 N80 1.326 . S
C79 C83 1.460 . S
C79 H85 0.929 . S
N80 Mn73 2.257 . S
N80 C79 1.326 . S
N80 C84 1.362 . S
C81 C82 1.258 . S
C81 C84 1.431 . S
C81 C101 1.449 . S
C82 C81 1.258 . S
C82 C83 1.477 . S
C82 H102 0.931 . S
C83 C79 1.460 . S
C83 C82 1.477 . S
C83 H103 0.930 . S
C84 N80 1.362 . S
C84 C81 1.431 . S
C84 C94 1.476 . S
H85 C79 0.929 . S
C86 O77 1.250 . S
C86 O78 1.258 . S
O87 Mn72 2.162 . S
O87 C75 1.281 . S
O88 Mn72 2.297 . S
O88 C75 1.236 . S
N89 Mn73 2.282 . S
N89 C90 1.328 . S
N89 C94 1.318 . S
C90 N89 1.328 . S
C90 C91 1.457 . S
C90 H95 0.929 . S
C91 C90 1.457 . S
C91 C92 1.291 . S
C91 H104 0.931 . S
C92 C91 1.291 . S
C92 C93 1.373 . S
C92 H105 0.929 . S
C93 C92 1.373 . S
C93 C94 1.396 . S
C93 C100 1.403 . S
C94 C84 1.476 . S
C94 N89 1.318 . S
C94 C93 1.396 . S
H95 C90 0.929 . S
O96 Mn72 2.385 . S
O96 C74 1.234 . S
O97 Mn72 2.209 1_655 S
O97 Mn73 2.215 . S
O97 C74 1.283 1_655 S
O98 Mn72 2.094 . S
O98 C76 1.240 . S
O99 Mn73 2.117 . S
O99 C76 1.264 1_655 S
C100 C93 1.403 . S
C100 C101 1.399 . S
C100 H106 0.929 . S
C101 C81 1.449 . S
C101 C100 1.399 . S
C101 H107 0.930 . S
H102 C82 0.931 . S
H103 C83 0.930 . S
H104 C91 0.931 . S
H105 C92 0.929 . S
H106 C100 0.929 . S
H107 C101 0.930 . S
Mn108 O113 2.095 1_545 S
Mn108 O123 2.162 . S
Mn108 O124 2.297 . S
Mn108 O132 2.385 . S
Mn108 O133 2.209 1_545 S
Mn108 O134 2.094 . S
Mn109 O114 2.121 . S
Mn109 N116 2.257 . S
Mn109 N125 2.282 . S
Mn109 O133 2.215 . S
Mn109 O135 2.117 . S
C110 O132 1.234 . S
C110 O133 1.283 1_545 S
C111 O123 1.281 . S
C111 O124 1.236 . S
C112 O134 1.240 . S
C112 O135 1.264 1_545 S
O113 Mn108 2.095 1_565 S
O113 C122 1.250 . S
O114 Mn109 2.121 . S
O114 C122 1.258 . S
C115 N116 1.326 . S
C115 C119 1.460 . S
C115 H121 0.929 . S
N116 Mn109 2.257 . S
N116 C115 1.326 . S
N116 C120 1.362 . S
C117 C118 1.258 . S
C117 C120 1.431 . S
C117 C137 1.449 . S
C118 C117 1.258 . S
C118 C119 1.477 . S
C118 H138 0.931 . S
C119 C115 1.460 . S
C119 C118 1.477 . S
C119 H139 0.930 . S
C120 N116 1.362 . S
C120 C117 1.431 . S
C120 C130 1.476 . S
H121 C115 0.929 . S
C122 O113 1.250 . S
C122 O114 1.258 . S
O123 Mn108 2.162 . S
O123 C111 1.281 . S
O124 Mn108 2.297 . S
O124 C111 1.236 . S
N125 Mn109 2.282 . S
N125 C126 1.328 . S
N125 C130 1.318 . S
C126 N125 1.328 . S
C126 C127 1.457 . S
C126 H131 0.929 . S
C127 C126 1.457 . S
C127 C128 1.291 . S
C127 H140 0.931 1_565 S
C128 C127 1.291 . S
C128 C129 1.373 . S
C128 H141 0.929 . S
C129 C128 1.373 . S
C129 C130 1.396 . S
C129 C136 1.403 . S
C130 C120 1.476 . S
C130 N125 1.318 . S
C130 C129 1.396 . S
H131 C126 0.929 . S
O132 Mn108 2.385 . S
O132 C110 1.234 . S
O133 Mn108 2.209 1_565 S
O133 Mn109 2.215 . S
O133 C110 1.283 1_565 S
O134 Mn108 2.094 . S
O134 C112 1.240 . S
O135 Mn109 2.117 . S
O135 C112 1.264 1_565 S
C136 C129 1.403 . S
C136 C137 1.399 . S
C136 H142 0.929 . S
C137 C117 1.449 . S
C137 C136 1.399 . S
C137 H143 0.930 . S
H138 C118 0.931 . S
H139 C119 0.930 . S
H140 C127 0.931 1_545 S
H141 C128 0.929 . S
H142 C136 0.929 . S
H143 C137 0.930 . S
Mn144 O149 2.095 . S
Mn144 O159 2.162 . S
Mn144 O160 2.297 . S
Mn144 O168 2.385 . S
Mn144 O169 2.209 . S
Mn144 O170 2.094 . S
Mn145 O150 2.121 . S
Mn145 N152 2.257 . S
Mn145 N161 2.282 . S
Mn145 O169 2.215 . S
Mn145 O171 2.117 . S
C146 O168 1.234 . S
C146 O169 1.283 . S
C147 O159 1.281 . S
C147 O160 1.236 . S
C148 O170 1.240 . S
C148 O171 1.264 . S
O149 Mn144 2.095 . S
O149 C158 1.250 . S
O150 Mn145 2.121 . S
O150 C158 1.258 . S
C151 N152 1.326 . S
C151 C155 1.460 . S
C151 H157 0.929 . S
N152 Mn145 2.257 . S
N152 C151 1.326 . S
N152 C156 1.362 . S
C153 C154 1.258 . S
C153 C156 1.431 . S
C153 C173 1.449 . S
C154 C153 1.258 . S
C154 C155 1.477 . S
C154 H174 0.931 . S
C155 C151 1.460 . S
C155 C154 1.477 . S
C155 H175 0.930 . S
C156 N152 1.362 . S
C156 C153 1.431 . S
C156 C166 1.476 . S
H157 C151 0.929 . S
C158 O149 1.250 . S
C158 O150 1.258 . S
O159 Mn144 2.162 . S
O159 C147 1.281 . S
O160 Mn144 2.297 . S
O160 C147 1.236 . S
N161 Mn145 2.282 . S
N161 C162 1.328 . S
N161 C166 1.318 . S
C162 N161 1.328 . S
C162 C163 1.457 . S
C162 H167 0.929 . S
C163 C162 1.457 . S
C163 C164 1.291 . S
C163 H176 0.931 . S
C164 C163 1.291 . S
C164 C165 1.373 . S
C164 H177 0.929 . S
C165 C164 1.373 . S
C165 C166 1.396 . S
C165 C172 1.403 . S
C166 C156 1.476 . S
C166 N161 1.318 . S
C166 C165 1.396 . S
H167 C162 0.929 . S
O168 Mn144 2.385 . S
O168 C146 1.234 . S
O169 Mn144 2.209 . S
O169 Mn145 2.215 . S
O169 C146 1.283 . S
O170 Mn144 2.094 . S
O170 C148 1.240 . S
O171 Mn145 2.117 . S
O171 C148 1.264 . S
C172 C165 1.403 . S
C172 C173 1.399 . S
C172 H178 0.929 . S
C173 C153 1.449 . S
C173 C172 1.399 . S
C173 H179 0.930 . S
H174 C154 0.931 . S
H175 C155 0.930 . S
H176 C163 0.931 . S
H177 C164 0.929 . S
H178 C172 0.929 . S
H179 C173 0.930 . S
Mn180 O185 2.095 1_655 S
Mn180 O195 2.162 . S
Mn180 O196 2.297 . S
Mn180 O204 2.385 . S
Mn180 O205 2.209 1_655 S
Mn180 O206 2.094 . S
Mn181 O186 2.121 . S
Mn181 N188 2.257 . S
Mn181 N197 2.282 . S
Mn181 O205 2.215 . S
Mn181 O207 2.117 . S
C182 O204 1.234 1_455 S
C182 O205 1.283 . S
C183 O195 1.281 . S
C183 O196 1.236 . S
C184 O206 1.240 1_455 S
C184 O207 1.264 . S
O185 Mn180 2.095 1_455 S
O185 C194 1.250 . S
O186 Mn181 2.121 . S
O186 C194 1.258 . S
C187 N188 1.326 1_554 S
C187 C191 1.460 . S
C187 H193 0.929 1_554 S
N188 Mn181 2.257 . S
N188 C187 1.326 1_556 S
N188 C192 1.362 1_556 S
C189 C190 1.258 . S
C189 C192 1.431 . S
C189 C209 1.449 . S
C190 C189 1.258 . S
C190 C191 1.477 . S
C190 H210 0.931 . S
C191 C187 1.460 . S
C191 C190 1.477 . S
C191 H211 0.930 . S
C192 N188 1.362 1_554 S
C192 C189 1.431 . S
C192 C202 1.476 1_554 S
H193 C187 0.929 1_556 S
C194 O185 1.250 . S
C194 O186 1.258 . S
O195 Mn180 2.162 . S
O195 C183 1.281 . S
O196 Mn180 2.297 . S
O196 C183 1.236 . S
N197 Mn181 2.282 . S
N197 C198 1.328 . S
N197 C202 1.318 . S
C198 N197 1.328 . S
C198 C199 1.457 . S
C198 H203 0.929 . S
C199 C198 1.457 . S
C199 C200 1.291 1_556 S
C199 H212 0.931 . S
C200 C199 1.291 1_554 S
C200 C201 1.373 . S
C200 H213 0.929 . S
C201 C200 1.373 . S
C201 C202 1.396 1_554 S
C201 C208 1.403 . S
C202 C192 1.476 1_556 S
C202 N197 1.318 . S
C202 C201 1.396 1_556 S
H203 C198 0.929 . S
O204 Mn180 2.385 . S
O204 C182 1.234 1_655 S
O205 Mn180 2.209 1_455 S
O205 Mn181 2.215 . S
O205 C182 1.283 . S
O206 Mn180 2.094 . S
O206 C184 1.240 1_655 S
O207 Mn181 2.117 . S
O207 C184 1.264 . S
C208 C201 1.403 . S
C208 C209 1.399 . S
C208 H214 0.929 . S
C209 C189 1.449 . S
C209 C208 1.399 . S
C209 H215 0.930 . S
H210 C190 0.931 . S
H211 C191 0.930 . S
H212 C199 0.931 . S
H213 C200 0.929 . S
H214 C208 0.929 . S
H215 C209 0.930 . S
C216 C217 1.170 . S
C216 C218 1.380 . S
C217 C216 1.170 . S
C218 C216 1.380 . S
C218 C219 1.170 . S
C219 C218 1.170 . S
C220 C221 1.170 . S
C220 C222 1.380 . S
C221 C220 1.170 . S
C222 C220 1.380 . S
C222 C223 1.170 . S
C223 C222 1.170 . S
C224 C225 1.170 . S
C224 C226 1.380 . S
C225 C224 1.170 . S
C226 C224 1.380 . S
C226 C227 1.170 . S
C227 C226 1.170 . S
C228 C229 1.170 . S
C228 C230 1.380 . S
C229 C228 1.170 . S
C230 C228 1.380 . S
C230 C231 1.170 . S
C231 C230 1.170 . S
C232 C233 1.170 1_556 S
C232 C234 1.380 . S
C233 C232 1.170 1_554 S
C234 C232 1.380 . S
C234 C235 1.170 . S
C235 C234 1.170 . S
C236 C237 1.170 . S
C236 C238 1.380 . S
C237 C236 1.170 . S
C238 C236 1.380 . S
C238 C239 1.170 . S
C239 C238 1.170 . S
C240 C241 1.170 . S
C240 C242 1.380 . S
C241 C240 1.170 . S
C242 C240 1.380 . S
C242 C243 1.170 . S
C243 C242 1.170 . S
C244 C245 1.170 . S
C244 C246 1.380 . S
C245 C244 1.170 . S
C246 C244 1.380 . S
C246 C247 1.170 . S
C247 C246 1.170 . S
C248 C249 1.170 . S
C248 C250 1.380 . S
C249 C248 1.170 . S
C250 C248 1.380 . S
C250 C251 1.170 . S
C251 C250 1.170 . S
C252 C253 1.170 . S
C252 C254 1.380 . S
C253 C252 1.170 . S
C254 C252 1.380 . S
C254 C255 1.170 . S
C255 C254 1.170 . S
C256 C257 1.170 . S
C256 C258 1.380 . S
C257 C256 1.170 . S
C258 C256 1.380 . S
C258 C259 1.170 . S
C259 C258 1.170 . S
C260 C261 1.170 . S
C260 C262 1.380 . S
C261 C260 1.170 . S
C262 C260 1.380 . S
C262 C263 1.170 1_556 S
C263 C262 1.170 1_554 S
C217 C2 1.570 . S
C219 C112 1.575 . S
C221 C38 1.575 . S
C223 C148 1.565 . S
C225 C184 1.580 . S
C227 C74 1.561 . S
C229 C4 1.568 . S
C231 C110 1.576 . S
C233 C40 1.580 . S
C235 C146 1.557 . S
C237 C182 1.563 1_554 S
C239 C76 1.570 . S
C241 C50 1.364 . S
C243 C3 1.415 . S
C245 C86 1.336 . S
C247 C39 1.406 . S
C249 C75 1.403 . S
C251 C122 1.326 . S
C253 C158 1.334 . S
C255 C111 1.409 . S
C257 C194 1.320 . S
C259 C147 1.402 . S
C261 C183 1.407 . S
C263 C14 1.328 . S
