# Generated by pormake.
# Topology uks, (4)-cn, num edge types: 1
# Building blocks:
#     Node 0, Type 0, BuildingBlock: MUDLON_clean_sbu_0, # of connection points: 4
#     Node 1, Type 0, BuildingBlock: MUDLON_clean_sbu_0, # of connection points: 4
#     Node 2, Type 0, BuildingBlock: MUDLON_clean_sbu_0, # of connection points: 4
#     Node 3, Type 0, BuildingBlock: MUDLON_clean_sbu_0, # of connection points: 4
#     Node 4, Type 0, BuildingBlock: MUDLON_clean_sbu_0, # of connection points: 4
#     Node 5, Type 0, BuildingBlock: MUDLON_clean_sbu_0, # of connection points: 4
#     Node 6, Type 0, BuildingBlock: MUDLON_clean_sbu_0, # of connection points: 4
#     Node 7, Type 0, BuildingBlock: MUDLON_clean_sbu_0, # of connection points: 4
#     Node 8, Type 0, BuildingBlock: MUDLON_clean_sbu_0, # of connection points: 4
#     Node 9, Type 0, BuildingBlock: MUDLON_clean_sbu_0, # of connection points: 4
#     Node 10, Type 0, BuildingBlock: MUDLON_clean_sbu_0, # of connection points: 4
#     Node 11, Type 0, BuildingBlock: MUDLON_clean_sbu_0, # of connection points: 4
#     Node 12, Type 0, BuildingBlock: MUDLON_clean_sbu_0, # of connection points: 4
#     Node 13, Type 0, BuildingBlock: MUDLON_clean_sbu_0, # of connection points: 4
#     Node 14, Type 0, BuildingBlock: MUDLON_clean_sbu_0, # of connection points: 4
#     Node 15, Type 0, BuildingBlock: MUDLON_clean_sbu_0, # of connection points: 4
#     Node 16, Type 0, BuildingBlock: MUDLON_clean_sbu_0, # of connection points: 4
#     Node 17, Type 0, BuildingBlock: MUDLON_clean_sbu_0, # of connection points: 4
#     Node 18, Type 0, BuildingBlock: MUDLON_clean_sbu_0, # of connection points: 4
#     Node 19, Type 0, BuildingBlock: MUDLON_clean_sbu_0, # of connection points: 4
#     Node 20, Type 0, BuildingBlock: MUDLON_clean_sbu_0, # of connection points: 4
#     Node 21, Type 0, BuildingBlock: MUDLON_clean_sbu_0, # of connection points: 4
#     Node 22, Type 0, BuildingBlock: MUDLON_clean_sbu_0, # of connection points: 4
#     Node 23, Type 0, BuildingBlock: MUDLON_clean_sbu_0, # of connection points: 4
#     Edge 24, Type (0, 0), BuildingBlock: TEMPAE_clean_linker_10, # of connection points: 2
#     Edge 25, Type (0, 0), BuildingBlock: TEMPAE_clean_linker_10, # of connection points: 2
#     Edge 26, Type (0, 0), BuildingBlock: TEMPAE_clean_linker_10, # of connection points: 2
#     Edge 27, Type (0, 0), BuildingBlock: TEMPAE_clean_linker_10, # of connection points: 2
#     Edge 28, Type (0, 0), BuildingBlock: TEMPAE_clean_linker_10, # of connection points: 2
#     Edge 29, Type (0, 0), BuildingBlock: TEMPAE_clean_linker_10, # of connection points: 2
#     Edge 30, Type (0, 0), BuildingBlock: TEMPAE_clean_linker_10, # of connection points: 2
#     Edge 31, Type (0, 0), BuildingBlock: TEMPAE_clean_linker_10, # of connection points: 2
#     Edge 32, Type (0, 0), BuildingBlock: TEMPAE_clean_linker_10, # of connection points: 2
#     Edge 33, Type (0, 0), BuildingBlock: TEMPAE_clean_linker_10, # of connection points: 2
#     Edge 34, Type (0, 0), BuildingBlock: TEMPAE_clean_linker_10, # of connection points: 2
#     Edge 35, Type (0, 0), BuildingBlock: TEMPAE_clean_linker_10, # of connection points: 2
#     Edge 36, Type (0, 0), BuildingBlock: TEMPAE_clean_linker_10, # of connection points: 2
#     Edge 37, Type (0, 0), BuildingBlock: TEMPAE_clean_linker_10, # of connection points: 2
#     Edge 38, Type (0, 0), BuildingBlock: TEMPAE_clean_linker_10, # of connection points: 2
#     Edge 39, Type (0, 0), BuildingBlock: TEMPAE_clean_linker_10, # of connection points: 2
#     Edge 40, Type (0, 0), BuildingBlock: TEMPAE_clean_linker_10, # of connection points: 2
#     Edge 41, Type (0, 0), BuildingBlock: TEMPAE_clean_linker_10, # of connection points: 2
#     Edge 42, Type (0, 0), BuildingBlock: TEMPAE_clean_linker_10, # of connection points: 2
#     Edge 43, Type (0, 0), BuildingBlock: TEMPAE_clean_linker_10, # of connection points: 2
#     Edge 44, Type (0, 0), BuildingBlock: TEMPAE_clean_linker_10, # of connection points: 2
#     Edge 45, Type (0, 0), BuildingBlock: TEMPAE_clean_linker_10, # of connection points: 2
#     Edge 46, Type (0, 0), BuildingBlock: TEMPAE_clean_linker_10, # of connection points: 2
#     Edge 47, Type (0, 0), BuildingBlock: TEMPAE_clean_linker_10, # of connection points: 2
#     Edge 48, Type (0, 0), BuildingBlock: TEMPAE_clean_linker_10, # of connection points: 2
#     Edge 49, Type (0, 0), BuildingBlock: TEMPAE_clean_linker_10, # of connection points: 2
#     Edge 50, Type (0, 0), BuildingBlock: TEMPAE_clean_linker_10, # of connection points: 2
#     Edge 51, Type (0, 0), BuildingBlock: TEMPAE_clean_linker_10, # of connection points: 2
#     Edge 52, Type (0, 0), BuildingBlock: TEMPAE_clean_linker_10, # of connection points: 2
#     Edge 53, Type (0, 0), BuildingBlock: TEMPAE_clean_linker_10, # of connection points: 2
#     Edge 54, Type (0, 0), BuildingBlock: TEMPAE_clean_linker_10, # of connection points: 2
#     Edge 55, Type (0, 0), BuildingBlock: TEMPAE_clean_linker_10, # of connection points: 2
#     Edge 56, Type (0, 0), BuildingBlock: TEMPAE_clean_linker_10, # of connection points: 2
#     Edge 57, Type (0, 0), BuildingBlock: TEMPAE_clean_linker_10, # of connection points: 2
#     Edge 58, Type (0, 0), BuildingBlock: TEMPAE_clean_linker_10, # of connection points: 2
#     Edge 59, Type (0, 0), BuildingBlock: TEMPAE_clean_linker_10, # of connection points: 2
#     Edge 60, Type (0, 0), BuildingBlock: TEMPAE_clean_linker_10, # of connection points: 2
#     Edge 61, Type (0, 0), BuildingBlock: TEMPAE_clean_linker_10, # of connection points: 2
#     Edge 62, Type (0, 0), BuildingBlock: TEMPAE_clean_linker_10, # of connection points: 2
#     Edge 63, Type (0, 0), BuildingBlock: TEMPAE_clean_linker_10, # of connection points: 2
#     Edge 64, Type (0, 0), BuildingBlock: TEMPAE_clean_linker_10, # of connection points: 2
#     Edge 65, Type (0, 0), BuildingBlock: TEMPAE_clean_linker_10, # of connection points: 2
#     Edge 66, Type (0, 0), BuildingBlock: TEMPAE_clean_linker_10, # of connection points: 2
#     Edge 67, Type (0, 0), BuildingBlock: TEMPAE_clean_linker_10, # of connection points: 2
#     Edge 68, Type (0, 0), BuildingBlock: TEMPAE_clean_linker_10, # of connection points: 2
#     Edge 69, Type (0, 0), BuildingBlock: TEMPAE_clean_linker_10, # of connection points: 2
#     Edge 70, Type (0, 0), BuildingBlock: TEMPAE_clean_linker_10, # of connection points: 2
#     Edge 71, Type (0, 0), BuildingBlock: TEMPAE_clean_linker_10, # of connection points: 2
# Relax obj value: 0.065
# Max RMSD: 0.060
# Mean RMSD: 0.060
data_MOF--net-uks--node1-MUDLON_clean_sbu_0--edge1-TEMPAE_clean_linker_10
_symmetry_space_group_name_H-M    P1
_symmetry_Int_Tables_number       1
_symmetry_cell_setting            triclinic
loop_
_symmetry_equiv_pos_as_xyz
'x, y, z'
_cell_length_a     56.57721
_cell_length_b     56.028279
_cell_length_c     56.587196
_cell_angle_alpha  90.008632
_cell_angle_beta   89.789867
_cell_angle_gamma 89.813952
loop_
_atom_site_label
_atom_site_type_symbol
_atom_site_fract_x
_atom_site_fract_y
_atom_site_fract_z
_atom_type_partial_charge
Mg0 Mg 0.14023 0.39003 0.71346 0.0
C1 C 0.18279 0.38622 0.74263 0.0
O2 O 0.19056 0.38805 0.7208 0.0
C3 C 0.08697 0.39982 0.70751 0.0
O4 O 0.09455 0.41793 0.69487 0.0
C5 C 0.16667 0.42689 0.68101 0.0
O6 O 0.17845 0.40815 0.6734 0.0
O7 O 0.15014 0.42395 0.6961 0.0
O8 O 0.16058 0.38736 0.74622 0.0
O9 O 0.14947 0.35596 0.69695 0.0
C10 C 0.13364 0.34303 0.68744 0.0
O11 O 0.11317 0.35275 0.68218 0.0
O12 O 0.10193 0.38691 0.71844 0.0
Mg13 Mg 0.65677 0.65795 0.19616 0.0
C14 C 0.6495 0.69991 0.22476 0.0
O15 O 0.64892 0.70659 0.2025 0.0
C16 C 0.65493 0.60865 0.1771 0.0
O17 O 0.64988 0.622 0.15869 0.0
C18 C 0.60742 0.66668 0.1832 0.0
O19 O 0.60694 0.65612 0.20394 0.0
O20 O 0.62752 0.6702 0.17355 0.0
O21 O 0.65192 0.67774 0.22921 0.0
O22 O 0.69361 0.66754 0.18819 0.0
C23 C 0.70886 0.651 0.1852 0.0
O24 O 0.70139 0.62924 0.18126 0.0
O25 O 0.65667 0.61879 0.19719 0.0
Mg26 Mg 0.39376 0.13267 0.72524 0.0
C27 C 0.39148 0.16724 0.76746 0.0
O28 O 0.37112 0.15687 0.77158 0.0
C29 C 0.39877 0.08352 0.70708 0.0
O30 O 0.39678 0.09708 0.68825 0.0
C31 C 0.43688 0.13614 0.69628 0.0
O32 O 0.44168 0.11936 0.71177 0.0
O33 O 0.41615 0.14516 0.69612 0.0
O34 O 0.40548 0.15809 0.75225 0.0
O35 O 0.35531 0.13784 0.72404 0.0
C36 C 0.34461 0.12527 0.73951 0.0
O37 O 0.35717 0.11019 0.75211 0.0
O38 O 0.39893 0.09359 0.72732 0.0
Mg39 Mg 0.88591 0.89636 0.21616 0.0
C40 C 0.8357 0.903 0.19851 0.0
O41 O 0.84429 0.92375 0.192 0.0
C42 C 0.93547 0.88687 0.20241 0.0
O43 O 0.93646 0.89329 0.22473 0.0
C44 C 0.89688 0.95 0.21107 0.0
O45 O 0.91454 0.94211 0.19809 0.0
O46 O 0.88384 0.93504 0.22189 0.0
O47 O 0.84994 0.88701 0.20587 0.0
O48 O 0.89064 0.87409 0.24756 0.0
C49 C 0.8927 0.85214 0.24201 0.0
O50 O 0.89254 0.84647 0.21947 0.0
O51 O 0.91531 0.88667 0.1924 0.0
Mg52 Mg 0.12052 0.14462 0.78509 0.0
C53 C 0.12878 0.17225 0.73823 0.0
O54 O 0.14853 0.15994 0.73711 0.0
C55 C 0.109 0.09613 0.80405 0.0
O56 O 0.10448 0.11018 0.8221 0.0
C57 C 0.09401 0.16613 0.83137 0.0
O58 O 0.11365 0.16574 0.84369 0.0
O59 O 0.09422 0.15913 0.80998 0.0
O60 O 0.11355 0.16711 0.75408 0.0
O61 O 0.15894 0.14798 0.78988 0.0
C62 C 0.16998 0.13258 0.77735 0.0
O63 O 0.15745 0.11679 0.76572 0.0
O64 O 0.11453 0.10571 0.78434 0.0
Mg65 Mg 0.89071 0.65132 0.31918 0.0
C66 C 0.89961 0.70213 0.33535 0.0
O67 O 0.92106 0.69356 0.33804 0.0
C68 C 0.87479 0.60179 0.32971 0.0
O69 O 0.87689 0.60222 0.30658 0.0
C70 C 0.94261 0.64198 0.32826 0.0
O71 O 0.93344 0.63036 0.34624 0.0
O72 O 0.92878 0.65089 0.3129 0.0
O73 O 0.88282 0.68761 0.33125 0.0
O74 O 0.86985 0.65045 0.28693 0.0
C75 C 0.84796 0.65367 0.29114 0.0
O76 O 0.84113 0.65598 0.31325 0.0
O77 O 0.87948 0.62081 0.34114 0.0
Mg78 Mg 0.36795 0.37255 0.85152 0.0
C79 C 0.31838 0.34833 0.84835 0.0
O80 O 0.3299 0.32846 0.84376 0.0
C81 C 0.39983 0.34085 0.87934 0.0
O82 O 0.38893 0.32535 0.86583 0.0
C83 C 0.36122 0.42194 0.86657 0.0
O84 O 0.35664 0.40878 0.88525 0.0
O85 O 0.36854 0.41148 0.84789 0.0
O86 O 0.32991 0.36669 0.8547 0.0
O87 O 0.38244 0.35031 0.82314 0.0
C88 C 0.37107 0.34029 0.80655 0.0
O89 O 0.34959 0.34771 0.80168 0.0
O90 O 0.39197 0.36219 0.88004 0.0
Mg91 Mg 0.64352 0.89769 0.31624 0.0
C92 C 0.66784 0.84908 0.3166 0.0
O93 O 0.68513 0.86164 0.3074 0.0
C94 C 0.64273 0.9453 0.3399 0.0
O95 O 0.62575 0.94702 0.32422 0.0
C96 C 0.59377 0.90004 0.33231 0.0
O97 O 0.606 0.90314 0.35177 0.0
O98 O 0.60495 0.89832 0.31279 0.0
O99 O 0.64985 0.86007 0.32478 0.0
O100 O 0.66456 0.90368 0.28411 0.0
C101 C 0.68477 0.91296 0.28768 0.0
O102 O 0.68995 0.91998 0.30919 0.0
O103 O 0.65373 0.92549 0.3418 0.0
Mg104 Mg 0.68251 0.16356 0.38465 0.0
C105 C 0.70408 0.16754 0.33819 0.0
O106 O 0.72105 0.16106 0.35265 0.0
C107 C 0.64336 0.1703 0.42177 0.0
O108 O 0.64584 0.1471 0.42404 0.0
C109 C 0.68386 0.1086 0.40116 0.0
O110 O 0.68567 0.11531 0.42332 0.0
O111 O 0.68283 0.12429 0.3849 0.0
O112 O 0.68349 0.17103 0.34673 0.0
O113 O 0.71343 0.18285 0.39772 0.0
C114 C 0.71188 0.19466 0.41692 0.0
O115 O 0.69389 0.19067 0.43107 0.0
O116 O 0.65377 0.18068 0.40466 0.0
Mg117 Mg 0.8781 0.19641 0.88746 0.0
C118 C 0.88754 0.20698 0.83969 0.0
O119 O 0.89317 0.22519 0.85318 0.0
C120 C 0.87303 0.17731 0.93446 0.0
O121 O 0.88552 0.19697 0.93625 0.0
C122 C 0.92837 0.18571 0.89306 0.0
O123 O 0.91755 0.16499 0.89281 0.0
O124 O 0.91567 0.20456 0.89308 0.0
O125 O 0.87887 0.18856 0.84964 0.0
O126 O 0.85025 0.22356 0.89105 0.0
C127 C 0.83106 0.21635 0.8817 0.0
O128 O 0.83116 0.1955 0.87104 0.0
O129 O 0.86735 0.17019 0.91388 0.0
Mg130 Mg 0.82896 0.38625 0.39453 0.0
C131 C 0.80369 0.34874 0.42352 0.0
O132 O 0.82422 0.34898 0.4342 0.0
C133 C 0.84754 0.43535 0.39064 0.0
O134 O 0.86542 0.42145 0.38491 0.0
C135 C 0.86652 0.38268 0.43145 0.0
O136 O 0.85702 0.40356 0.43624 0.0
O137 O 0.86012 0.37199 0.41268 0.0
O138 O 0.79935 0.36475 0.40808 0.0
O139 O 0.82674 0.38049 0.35655 0.0
C140 C 0.81652 0.36239 0.34768 0.0
O141 O 0.8106 0.34453 0.3615 0.0
O142 O 0.82827 0.42553 0.39713 0.0
Mg143 Mg 0.6266 0.32238 0.89408 0.0
C144 C 0.61194 0.32601 0.84339 0.0
O145 O 0.59588 0.31183 0.85244 0.0
C146 C 0.62693 0.34323 0.94245 0.0
O147 O 0.60963 0.3277 0.94363 0.0
C148 C 0.57571 0.33135 0.89652 0.0
O149 O 0.58543 0.35147 0.88962 0.0
O150 O 0.58921 0.31362 0.90089 0.0
O151 O 0.62777 0.33458 0.85695 0.0
O152 O 0.65473 0.29534 0.89547 0.0
C153 C 0.67407 0.30407 0.8877 0.0
O154 O 0.6739 0.3262 0.87999 0.0
O155 O 0.63717 0.34658 0.92261 0.0
Mg156 Mg 0.73074 0.39264 0.13856 0.0
C157 C 0.74541 0.38947 0.18802 0.0
O158 O 0.75449 0.40957 0.18036 0.0
C159 C 0.69841 0.39462 0.09757 0.0
O160 O 0.70736 0.41621 0.09838 0.0
C161 C 0.73482 0.44962 0.14496 0.0
O162 O 0.75796 0.44833 0.1433 0.0
O163 O 0.72255 0.43073 0.1431 0.0
O164 O 0.73211 0.37755 0.17429 0.0
O165 O 0.76242 0.37733 0.12203 0.0
C166 C 0.78166 0.37315 0.13292 0.0
O167 O 0.78657 0.3856 0.15188 0.0
O168 O 0.70381 0.37987 0.11386 0.0
Mg169 Mg 0.62372 0.24787 0.63326 0.0
C170 C 0.67352 0.25087 0.65553 0.0
O171 O 0.66209 0.2602 0.67351 0.0
C172 C 0.5822 0.21424 0.62864 0.0
O173 O 0.58063 0.22571 0.60846 0.0
C174 C 0.63365 0.23758 0.58373 0.0
O175 O 0.64722 0.22336 0.59624 0.0
O176 O 0.62043 0.25242 0.59471 0.0
O177 O 0.6619 0.24258 0.63813 0.0
O178 O 0.61475 0.276 0.65907 0.0
C179 C 0.61109 0.26682 0.6794 0.0
O180 O 0.61112 0.24343 0.68105 0.0
O181 O 0.59976 0.21838 0.64207 0.0
Mg182 Mg 0.80972 0.15116 0.14496 0.0
C183 C 0.82872 0.20076 0.13278 0.0
O184 O 0.83362 0.19025 0.11259 0.0
C185 C 0.83661 0.11652 0.178 0.0
O186 O 0.82655 0.1292 0.1948 0.0
C187 C 0.81639 0.1314 0.09552 0.0
O188 O 0.82894 0.11584 0.10753 0.0
O189 O 0.80466 0.14717 0.10682 0.0
O190 O 0.82104 0.18819 0.14991 0.0
O191 O 0.77807 0.14797 0.16699 0.0
C192 C 0.7665 0.16664 0.17274 0.0
O193 O 0.77193 0.18697 0.16254 0.0
O194 O 0.83381 0.12275 0.15654 0.0
Mg195 Mg 0.89665 0.29943 0.63816 0.0
C196 C 0.84813 0.28354 0.63757 0.0
O197 O 0.86129 0.26586 0.62966 0.0
C198 C 0.92608 0.33186 0.67196 0.0
O199 O 0.91376 0.32183 0.68894 0.0
C200 C 0.88668 0.31073 0.58844 0.0
O201 O 0.87039 0.32216 0.60059 0.0
O202 O 0.90166 0.298 0.5996 0.0
O203 O 0.85819 0.30321 0.64267 0.0
O204 O 0.9034 0.26753 0.65988 0.0
C205 C 0.89071 0.26829 0.67855 0.0
O206 O 0.8776 0.28729 0.68236 0.0
O207 O 0.92118 0.32706 0.65052 0.0
Mg208 Mg 0.39237 0.70846 0.13476 0.0
C209 C 0.34603 0.72976 0.13981 0.0
O210 O 0.34459 0.70778 0.14779 0.0
C211 C 0.44336 0.69904 0.12439 0.0
O212 O 0.43303 0.67914 0.11787 0.0
C213 C 0.38851 0.69117 0.08556 0.0
O214 O 0.40329 0.70913 0.08384 0.0
O215 O 0.3812 0.68501 0.10599 0.0
O216 O 0.36602 0.7371 0.13228 0.0
O217 O 0.38806 0.69689 0.17154 0.0
C218 C 0.40568 0.69167 0.18454 0.0
O219 O 0.4264 0.68835 0.17453 0.0
O220 O 0.43033 0.71638 0.13118 0.0
Mg221 Mg 0.39037 0.80644 0.37646 0.0
C222 C 0.40599 0.78011 0.3356 0.0
O223 O 0.40305 0.80248 0.32925 0.0
C224 C 0.37272 0.82271 0.42283 0.0
O225 O 0.36293 0.83711 0.40734 0.0
C226 C 0.43732 0.82646 0.37012 0.0
O227 O 0.44025 0.80538 0.37989 0.0
O228 O 0.41626 0.83377 0.36666 0.0
O229 O 0.40318 0.77481 0.35734 0.0
O230 O 0.35443 0.80976 0.36257 0.0
C231 C 0.3449 0.78958 0.35855 0.0
O232 O 0.35698 0.77008 0.36307 0.0
O233 O 0.38643 0.80628 0.41517 0.0
Mg234 Mg 0.18406 0.88858 0.86974 0.0
C235 C 0.20293 0.89187 0.82202 0.0
O236 O 0.17987 0.89019 0.81994 0.0
C237 C 0.17507 0.90298 0.91968 0.0
O238 O 0.15496 0.90782 0.90916 0.0
C239 C 0.1677 0.93616 0.85809 0.0
O240 O 0.18949 0.9379 0.86585 0.0
O241 O 0.15818 0.91554 0.85805 0.0
O242 O 0.21169 0.8923 0.84275 0.0
O243 O 0.17726 0.84991 0.86943 0.0
C244 C 0.19696 0.83884 0.87092 0.0
O245 O 0.21637 0.85163 0.87183 0.0
O246 O 0.19236 0.89574 0.90701 0.0
Mg247 Mg 0.13194 0.7525 0.38475 0.0
C248 C 0.11312 0.79129 0.35298 0.0
O249 O 0.09599 0.77563 0.35109 0.0
C250 C 0.13327 0.72866 0.43157 0.0
O251 O 0.12588 0.71185 0.41721 0.0
C252 C 0.10206 0.71479 0.35773 0.0
O253 O 0.12172 0.71027 0.34609 0.0
O254 O 0.10207 0.73052 0.37393 0.0
O255 O 0.12873 0.78798 0.3688 0.0
O256 O 0.16613 0.74183 0.37091 0.0
C257 C 0.17338 0.75056 0.35143 0.0
O258 O 0.15809 0.76111 0.33747 0.0
O259 O 0.13643 0.74954 0.42318 0.0
Mg260 Mg 0.28731 0.64159 0.88638 0.0
C261 C 0.29548 0.64429 0.83365 0.0
O262 O 0.29849 0.62125 0.83653 0.0
C263 C 0.31378 0.6388 0.93235 0.0
O264 O 0.30532 0.61706 0.93078 0.0
C265 C 0.31337 0.59593 0.88054 0.0
O266 O 0.32994 0.61231 0.88097 0.0
O267 O 0.29189 0.60266 0.88274 0.0
O268 O 0.29394 0.65757 0.85183 0.0
O269 O 0.25202 0.6572 0.89122 0.0
C270 C 0.2496 0.67407 0.90615 0.0
O271 O 0.26619 0.67708 0.92204 0.0
O272 O 0.30969 0.65353 0.91567 0.0
Mg273 Mg 0.14726 0.84626 0.13891 0.0
C274 C 0.1489 0.83681 0.18844 0.0
O275 O 0.14693 0.81656 0.1769 0.0
C276 C 0.15286 0.8581 0.08986 0.0
O277 O 0.14526 0.83601 0.09149 0.0
C278 C 0.0967 0.85675 0.13331 0.0
O279 O 0.10758 0.87686 0.12845 0.0
O280 O 0.10932 0.83822 0.13699 0.0
O281 O 0.15026 0.85603 0.17639 0.0
O282 O 0.17436 0.81846 0.13477 0.0
C283 C 0.19435 0.82617 0.14173 0.0
O284 O 0.19545 0.84802 0.15009 0.0
O285 O 0.15564 0.86981 0.10898 0.0
Mg286 Mg 0.22215 0.64711 0.62781 0.0
C287 C 0.27302 0.66113 0.63649 0.0
O288 O 0.2687 0.65049 0.65673 0.0
C289 C 0.22487 0.59461 0.64516 0.0
O290 O 0.24078 0.60357 0.65948 0.0
C291 C 0.2086 0.66515 0.58013 0.0
O292 O 0.22962 0.65577 0.57654 0.0
O293 O 0.19978 0.66407 0.60087 0.0
O294 O 0.25801 0.6592 0.61987 0.0
O295 O 0.21902 0.663 0.66275 0.0
C296 C 0.2115 0.65214 0.68097 0.0
O297 O 0.2 0.63199 0.67831 0.0
O298 O 0.21541 0.60825 0.62981 0.0
Mg299 Mg 0.345 0.86795 0.64692 0.0
C300 C 0.36083 0.81531 0.64445 0.0
O301 O 0.37246 0.82245 0.62561 0.0
C302 C 0.3566 0.9171 0.65859 0.0
O303 O 0.3363 0.91745 0.64737 0.0
C304 C 0.33546 0.85146 0.59634 0.0
O305 O 0.32186 0.83633 0.60773 0.0
O306 O 0.34594 0.86771 0.60806 0.0
O307 O 0.35124 0.8309 0.65782 0.0
O308 O 0.31138 0.87699 0.66405 0.0
C309 C 0.29938 0.86118 0.67485 0.0
O310 O 0.30467 0.83861 0.67151 0.0
O311 O 0.36714 0.89705 0.66082 0.0
C312 C 0.11217 0.21349 0.73359 0.0
C313 C 0.1269 0.19518 0.72509 0.0
C314 C 0.11347 0.23672 0.72431 0.0
C315 C 0.12951 0.24173 0.70566 0.0
C316 C 0.14324 0.22295 0.69592 0.0
C317 C 0.14199 0.19998 0.70593 0.0
C318 C 0.09868 0.25622 0.73545 0.0
C319 C 0.16001 0.22732 0.67559 0.0
C320 C 0.11941 0.30215 0.67641 0.0
C321 C 0.13567 0.31658 0.68843 0.0
C322 C 0.11817 0.27743 0.6807 0.0
C323 C 0.13314 0.26697 0.69786 0.0
C324 C 0.15039 0.28124 0.70916 0.0
C325 C 0.15162 0.30577 0.7041 0.0
C326 C 0.10003 0.26277 0.66773 0.0
C327 C 0.16654 0.27095 0.72778 0.0
H328 H 0.10055 0.21005 0.74846 0.0
H329 H 0.15336 0.18592 0.69916 0.0
H330 H 0.11041 0.26955 0.74389 0.0
H331 H 0.08828 0.2657 0.72177 0.0
H332 H 0.0863 0.24923 0.74906 0.0
H333 H 0.16688 0.2104 0.66792 0.0
H334 H 0.15111 0.23769 0.66146 0.0
H335 H 0.17523 0.23804 0.68178 0.0
H336 H 0.10707 0.31031 0.6642 0.0
H337 H 0.16416 0.31673 0.7136 0.0
H338 H 0.08548 0.25794 0.68 0.0
H339 H 0.10801 0.2459 0.66118 0.0
H340 H 0.09235 0.27262 0.65253 0.0
H341 H 0.15588 0.26507 0.74321 0.0
H342 H 0.17984 0.28407 0.73396 0.0
H343 H 0.17595 0.25503 0.72083 0.0
C344 C 0.74174 0.67668 0.20077 0.0
C345 C 0.73378 0.65445 0.1927 0.0
C346 C 0.76325 0.67868 0.21303 0.0
C347 C 0.77678 0.65789 0.21775 0.0
C348 C 0.76985 0.63583 0.20782 0.0
C349 C 0.74861 0.63444 0.19521 0.0
C350 C 0.77045 0.70272 0.22258 0.0
C351 C 0.78357 0.61316 0.21251 0.0
C352 C 0.83683 0.65885 0.24835 0.0
C353 C 0.83021 0.65508 0.27198 0.0
C354 C 0.81966 0.66071 0.23045 0.0
C355 C 0.79541 0.6582 0.23632 0.0
C356 C 0.78873 0.65451 0.26019 0.0
C357 C 0.80615 0.65319 0.27766 0.0
C358 C 0.82744 0.66516 0.20531 0.0
C359 C 0.76313 0.65148 0.26729 0.0
H360 H 0.73059 0.69232 0.19868 0.0
H361 H 0.74283 0.61718 0.18883 0.0
H362 H 0.76597 0.70372 0.24166 0.0
H363 H 0.78981 0.70532 0.2208 0.0
H364 H 0.76119 0.71753 0.21337 0.0
H365 H 0.77766 0.59818 0.20114 0.0
H366 H 0.80274 0.61597 0.20959 0.0
H367 H 0.78113 0.60787 0.23127 0.0
H368 H 0.85539 0.66059 0.24387 0.0
H369 H 0.80085 0.65028 0.29586 0.0
H370 H 0.81685 0.67978 0.19736 0.0
H371 H 0.82442 0.64892 0.19455 0.0
H372 H 0.84647 0.66987 0.20414 0.0
H373 H 0.75276 0.66743 0.26202 0.0
H374 H 0.76092 0.6488 0.28663 0.0
H375 H 0.7555 0.63587 0.258 0.0
C376 C 0.3662 0.30405 0.78092 0.0
C377 C 0.37951 0.31676 0.79753 0.0
C378 C 0.37146 0.28009 0.77557 0.0
C379 C 0.39035 0.26839 0.78729 0.0
C380 C 0.4047 0.28153 0.80305 0.0
C381 C 0.39921 0.30554 0.80785 0.0
C382 C 0.35601 0.26693 0.75824 0.0
C383 C 0.42492 0.26989 0.81609 0.0
C384 C 0.38112 0.20151 0.79396 0.0
C385 C 0.39489 0.1923 0.7754 0.0
C386 C 0.3805 0.22612 0.79878 0.0
C387 C 0.39367 0.24205 0.78446 0.0
C388 C 0.40858 0.23276 0.76649 0.0
C389 C 0.40916 0.20799 0.76229 0.0
C390 C 0.36483 0.23517 0.81852 0.0
C391 C 0.42288 0.24908 0.75081 0.0
H392 H 0.35104 0.31252 0.77274 0.0
H393 H 0.40972 0.31512 0.82069 0.0
H394 H 0.36706 0.2575 0.74493 0.0
H395 H 0.34552 0.25323 0.76775 0.0
H396 H 0.34362 0.27907 0.74889 0.0
H397 H 0.43699 0.28331 0.82395 0.0
H398 H 0.41772 0.25869 0.83058 0.0
H399 H 0.43531 0.25806 0.80423 0.0
H400 H 0.37012 0.18953 0.80423 0.0
H401 H 0.41975 0.20111 0.7478 0.0
H402 H 0.34996 0.24562 0.811 0.0
H403 H 0.3749 0.24728 0.83026 0.0
H404 H 0.35741 0.22042 0.82934 0.0
H405 H 0.41079 0.25976 0.73958 0.0
H406 H 0.43522 0.23904 0.73914 0.0
H407 H 0.43322 0.2618 0.76164 0.0
C408 C 0.72564 0.92298 0.2745 0.0
C409 C 0.70369 0.91264 0.26937 0.0
C410 C 0.745 0.92043 0.25918 0.0
C411 C 0.74246 0.90739 0.23791 0.0
C412 C 0.72006 0.89784 0.23198 0.0
C413 C 0.70094 0.90048 0.24785 0.0
C414 C 0.7685 0.93096 0.26629 0.0
C415 C 0.71652 0.88417 0.20931 0.0
C416 C 0.79434 0.91919 0.19701 0.0
C417 C 0.80996 0.90082 0.20353 0.0
C418 C 0.77131 0.92038 0.20638 0.0
C419 C 0.76378 0.90294 0.22287 0.0
C420 C 0.7787 0.88322 0.22783 0.0
C421 C 0.80154 0.88232 0.21799 0.0
C422 C 0.75579 0.94139 0.20012 0.0
C423 C 0.77144 0.86419 0.24526 0.0
H424 H 0.72798 0.93256 0.29096 0.0
H425 H 0.68407 0.8924 0.24372 0.0
H426 H 0.78177 0.9165 0.26838 0.0
H427 H 0.77507 0.94313 0.25229 0.0
H428 H 0.76738 0.94109 0.28314 0.0
H429 H 0.69752 0.88088 0.20569 0.0
H430 H 0.72431 0.89398 0.19416 0.0
H431 H 0.72571 0.8667 0.21047 0.0
H432 H 0.80053 0.93343 0.18562 0.0
H433 H 0.81335 0.86794 0.22304 0.0
H434 H 0.75578 0.95437 0.21493 0.0
H435 H 0.73727 0.93563 0.19734 0.0
H436 H 0.76214 0.95066 0.18396 0.0
H437 H 0.77163 0.87175 0.26339 0.0
H438 H 0.7835 0.84851 0.24478 0.0
H439 H 0.75318 0.85806 0.24169 0.0
C440 C 0.74187 0.18809 0.20295 0.0
C441 C 0.75063 0.16649 0.19375 0.0
C442 C 0.73063 0.18896 0.22512 0.0
C443 C 0.72788 0.16772 0.23839 0.0
C444 C 0.73499 0.14563 0.22837 0.0
C445 C 0.74635 0.14529 0.20623 0.0
C446 C 0.72338 0.2129 0.23509 0.0
C447 C 0.73211 0.12252 0.24176 0.0
C448 C 0.73288 0.17156 0.30512 0.0
C449 C 0.7093 0.16947 0.31254 0.0
C450 C 0.73896 0.17148 0.28109 0.0
C451 C 0.72105 0.169 0.26387 0.0
C452 C 0.69709 0.16737 0.27116 0.0
C453 C 0.69147 0.16777 0.29547 0.0
C454 C 0.7647 0.17363 0.27419 0.0
C455 C 0.67753 0.16456 0.25334 0.0
H456 H 0.74492 0.20457 0.19344 0.0
H457 H 0.75284 0.12848 0.19921 0.0
H458 H 0.70546 0.21197 0.24303 0.0
H459 H 0.7358 0.21803 0.24934 0.0
H460 H 0.72353 0.22713 0.22143 0.0
H461 H 0.73526 0.1067 0.23033 0.0
H462 H 0.7449 0.12196 0.25658 0.0
H463 H 0.71411 0.12128 0.2495 0.0
H464 H 0.74677 0.17307 0.31818 0.0
H465 H 0.67323 0.16601 0.3011 0.0
H466 H 0.76714 0.18887 0.26191 0.0
H467 H 0.77051 0.15726 0.26476 0.0
H468 H 0.77636 0.17629 0.28971 0.0
H469 H 0.67846 0.17896 0.23993 0.0
H470 H 0.65975 0.16491 0.26173 0.0
H471 H 0.67974 0.14736 0.24384 0.0
C472 C 0.86982 0.24642 0.71017 0.0
C473 C 0.89036 0.24915 0.69652 0.0
C474 C 0.87003 0.23332 0.73121 0.0
C475 C 0.89135 0.22257 0.7388 0.0
C476 C 0.91139 0.22283 0.72363 0.0
C477 C 0.91072 0.23628 0.70257 0.0
C478 C 0.84813 0.23342 0.74657 0.0
C479 C 0.93416 0.21077 0.73066 0.0
C480 C 0.89914 0.23076 0.8045 0.0
C481 C 0.89066 0.20916 0.81371 0.0
C482 C 0.90065 0.2347 0.78015 0.0
C483 C 0.89384 0.21644 0.76432 0.0
C484 C 0.88664 0.19399 0.77338 0.0
C485 C 0.88489 0.19066 0.79805 0.0
C486 C 0.90827 0.25903 0.77146 0.0
C487 C 0.87984 0.17382 0.75715 0.0
H488 H 0.85385 0.2559 0.70519 0.0
H489 H 0.92656 0.23815 0.69191 0.0
H490 H 0.84451 0.21531 0.75351 0.0
H491 H 0.85096 0.24538 0.76194 0.0
H492 H 0.8323 0.23979 0.73683 0.0
H493 H 0.94583 0.20763 0.71513 0.0
H494 H 0.94374 0.22227 0.74336 0.0
H495 H 0.93061 0.19346 0.73952 0.0
H496 H 0.90395 0.24513 0.81636 0.0
H497 H 0.8786 0.17381 0.805 0.0
H498 H 0.89338 0.26782 0.76212 0.0
H499 H 0.92309 0.25727 0.7587 0.0
H500 H 0.914 0.2709 0.78608 0.0
H501 H 0.86116 0.17609 0.75169 0.0
H502 H 0.8815 0.15625 0.7661 0.0
H503 H 0.89093 0.17368 0.74093 0.0
C504 C 0.80056 0.34262 0.31128 0.0
C505 C 0.80734 0.36346 0.32318 0.0
C506 C 0.78998 0.34375 0.28882 0.0
C507 C 0.78551 0.36627 0.27835 0.0
C508 C 0.79231 0.38734 0.29034 0.0
C509 C 0.8034 0.38567 0.31242 0.0
C510 C 0.78364 0.32088 0.27629 0.0
C511 C 0.78759 0.41175 0.27999 0.0
C512 C 0.77911 0.37629 0.21252 0.0
C513 C 0.75464 0.37929 0.21016 0.0
C514 C 0.78921 0.37034 0.23431 0.0
C515 C 0.77454 0.36809 0.25447 0.0
C516 C 0.74964 0.37011 0.25199 0.0
C517 C 0.73993 0.37549 0.22971 0.0
C518 C 0.81574 0.3678 0.23595 0.0
C519 C 0.73341 0.36816 0.27311 0.0
H520 H 0.80352 0.32542 0.31953 0.0
H521 H 0.80828 0.40188 0.32163 0.0
H522 H 0.76436 0.3204 0.27283 0.0
H523 H 0.79273 0.32007 0.25889 0.0
H524 H 0.78857 0.3048 0.28667 0.0
H525 H 0.79298 0.42638 0.29205 0.0
H526 H 0.79734 0.41377 0.26307 0.0
H527 H 0.76849 0.41378 0.27606 0.0
H528 H 0.79049 0.37928 0.19739 0.0
H529 H 0.72103 0.3781 0.22787 0.0
H530 H 0.82053 0.3516 0.24616 0.0
H531 H 0.82314 0.38341 0.24541 0.0
H532 H 0.82423 0.36671 0.21824 0.0
H533 H 0.73751 0.35186 0.28343 0.0
H534 H 0.7145 0.36774 0.26792 0.0
H535 H 0.73621 0.3837 0.28494 0.0
C536 C 0.60905 0.26908 0.72329 0.0
C537 C 0.6105 0.28114 0.70158 0.0
C538 C 0.61027 0.28126 0.74484 0.0
C539 C 0.61263 0.3064 0.74499 0.0
C540 C 0.6137 0.3189 0.7232 0.0
C541 C 0.61278 0.3061 0.70169 0.0
C542 C 0.60912 0.26705 0.76754 0.0
C543 C 0.61588 0.34571 0.72265 0.0
C544 C 0.59179 0.32834 0.80455 0.0
C545 C 0.61296 0.32844 0.81735 0.0
C546 C 0.59166 0.324 0.78012 0.0
C547 C 0.6132 0.31904 0.76827 0.0
C548 C 0.63482 0.32138 0.78071 0.0
C549 C 0.63445 0.32624 0.80516 0.0
C550 C 0.56821 0.32223 0.76761 0.0
C551 C 0.6582 0.31617 0.76887 0.0
H552 H 0.6073 0.24983 0.72357 0.0
H553 H 0.614 0.31557 0.68504 0.0
H554 H 0.62496 0.27068 0.77847 0.0
H555 H 0.59338 0.2725 0.77799 0.0
H556 H 0.60813 0.24752 0.76434 0.0
H557 H 0.61597 0.35285 0.70434 0.0
H558 H 0.60099 0.35398 0.73254 0.0
H559 H 0.63242 0.35122 0.73155 0.0
H560 H 0.57513 0.33023 0.81393 0.0
H561 H 0.65085 0.32616 0.81502 0.0
H562 H 0.5635 0.30314 0.76541 0.0
H563 H 0.56923 0.3303 0.74974 0.0
H564 H 0.55382 0.33114 0.77773 0.0
H565 H 0.66041 0.29657 0.76702 0.0
H566 H 0.67328 0.32315 0.77929 0.0
H567 H 0.65883 0.324 0.75089 0.0
C568 C 0.30528 0.7387 0.15421 0.0
C569 C 0.32438 0.74481 0.13951 0.0
C570 C 0.28403 0.75167 0.15381 0.0
C571 C 0.28153 0.77109 0.13803 0.0
C572 C 0.3007 0.77735 0.12304 0.0
C573 C 0.32201 0.76426 0.12411 0.0
C574 C 0.26432 0.74468 0.17049 0.0
C575 C 0.29862 0.79778 0.1058 0.0
C576 C 0.21826 0.79163 0.12575 0.0
C577 C 0.21627 0.81152 0.14067 0.0
C578 C 0.2396 0.77863 0.12419 0.0
C579 C 0.25921 0.78545 0.1382 0.0
C580 C 0.25714 0.80539 0.15341 0.0
C581 C 0.23583 0.81823 0.15431 0.0
C582 C 0.24118 0.75762 0.10757 0.0
C583 C 0.27735 0.81299 0.16906 0.0
H584 H 0.30698 0.72376 0.16626 0.0
H585 H 0.3366 0.76892 0.11256 0.0
H586 H 0.25989 0.75989 0.18228 0.0
H587 H 0.24815 0.74033 0.16036 0.0
H588 H 0.26905 0.72906 0.18161 0.0
H589 H 0.31474 0.79981 0.09472 0.0
H590 H 0.28323 0.79495 0.09404 0.0
H591 H 0.29548 0.8147 0.11551 0.0
H592 H 0.20329 0.78646 0.11501 0.0
H593 H 0.23444 0.83351 0.166 0.0
H594 H 0.24446 0.74102 0.11775 0.0
H595 H 0.25632 0.75995 0.09527 0.0
H596 H 0.2248 0.75531 0.09706 0.0
H597 H 0.28208 0.79827 0.18129 0.0
H598 H 0.27299 0.82909 0.1797 0.0
H599 H 0.29322 0.81686 0.15817 0.0
C600 C 0.30265 0.80305 0.35886 0.0
C601 C 0.3201 0.78715 0.35096 0.0
C602 C 0.27855 0.7978 0.35574 0.0
C603 C 0.27195 0.77639 0.34413 0.0
C604 C 0.28962 0.76136 0.33444 0.0
C605 C 0.31347 0.76681 0.33818 0.0
C606 C 0.26022 0.81425 0.36639 0.0
C607 C 0.28341 0.73867 0.32151 0.0
C608 C 0.21526 0.74694 0.3649 0.0
C609 C 0.19906 0.75426 0.34765 0.0
C610 C 0.23904 0.75385 0.36375 0.0
C611 C 0.24694 0.76821 0.34471 0.0
C612 C 0.23096 0.77474 0.32663 0.0
C613 C 0.20717 0.76776 0.32834 0.0
C614 C 0.25553 0.74644 0.38339 0.0
C615 C 0.23879 0.78971 0.30586 0.0
H616 H 0.30775 0.81872 0.36883 0.0
H617 H 0.327 0.75462 0.33181 0.0
H618 H 0.24609 0.81818 0.3534 0.0
H619 H 0.25178 0.80534 0.38176 0.0
H620 H 0.268 0.83136 0.37245 0.0
H621 H 0.29891 0.73087 0.31215 0.0
H622 H 0.27668 0.72529 0.33431 0.0
H623 H 0.26918 0.74203 0.30847 0.0
H624 H 0.2092 0.73654 0.37989 0.0
H625 H 0.19479 0.77356 0.31494 0.0
H626 H 0.26265 0.76252 0.3923 0.0
H627 H 0.27078 0.73638 0.37604 0.0
H628 H 0.24664 0.73513 0.39686 0.0
H629 H 0.24374 0.80778 0.31208 0.0
H630 H 0.22471 0.79157 0.29234 0.0
H631 H 0.25468 0.78172 0.29743 0.0
C632 C 0.17981 0.798 0.87965 0.0
C633 C 0.19895 0.8124 0.87293 0.0
C634 C 0.18304 0.7734 0.88424 0.0
C635 C 0.2059 0.76307 0.88208 0.0
C636 C 0.22492 0.77739 0.87417 0.0
C637 C 0.2212 0.80171 0.8697 0.0
C638 C 0.16224 0.75872 0.89233 0.0
C639 C 0.24959 0.76729 0.87142 0.0
C640 C 0.22972 0.71192 0.91879 0.0
C641 C 0.23265 0.69396 0.90173 0.0
C642 C 0.21896 0.73382 0.91317 0.0
C643 C 0.2109 0.73801 0.88985 0.0
C644 C 0.21179 0.71914 0.87315 0.0
C645 C 0.22263 0.69733 0.87929 0.0
C646 C 0.21832 0.75327 0.93164 0.0
C647 C 0.2032 0.72265 0.84817 0.0
H648 H 0.16255 0.80608 0.88216 0.0
H649 H 0.23607 0.81255 0.8642 0.0
H650 H 0.1617 0.74147 0.88272 0.0
H651 H 0.1641 0.75459 0.91141 0.0
H652 H 0.1452 0.76824 0.88969 0.0
H653 H 0.26217 0.78048 0.86392 0.0
H654 H 0.25631 0.76145 0.8889 0.0
H655 H 0.24937 0.7514 0.85974 0.0
H656 H 0.23718 0.70943 0.93625 0.0
H657 H 0.22474 0.68361 0.86592 0.0
H658 H 0.20083 0.76225 0.93188 0.0
H659 H 0.23178 0.76696 0.92726 0.0
H660 H 0.22208 0.74628 0.94961 0.0
H661 H 0.18615 0.73248 0.84801 0.0
H662 H 0.20096 0.70538 0.8388 0.0
H663 H 0.21625 0.73348 0.8382 0.0
C664 C 0.30931 0.68089 0.65258 0.0
C665 C 0.29143 0.67999 0.63546 0.0
C666 C 0.32422 0.70086 0.6545 0.0
C667 C 0.32076 0.7207 0.63937 0.0
C668 C 0.30343 0.71943 0.62138 0.0
C669 C 0.28922 0.69899 0.61945 0.0
C670 C 0.34291 0.70112 0.67345 0.0
C671 C 0.29882 0.74029 0.60511 0.0
C672 C 0.33437 0.78348 0.66086 0.0
C673 C 0.35364 0.78983 0.6465 0.0
C674 C 0.32402 0.76077 0.65929 0.0
C675 C 0.33361 0.7436 0.64352 0.0
C676 C 0.35423 0.74923 0.63042 0.0
C677 C 0.36381 0.77236 0.63181 0.0
C678 C 0.30188 0.75571 0.67342 0.0
C679 C 0.36557 0.73117 0.61412 0.0
H680 H 0.31119 0.66628 0.665 0.0
H681 H 0.27536 0.69858 0.60628 0.0
H682 H 0.35977 0.70836 0.66642 0.0
H683 H 0.33712 0.71289 0.68815 0.0
H684 H 0.34623 0.68301 0.68074 0.0
H685 H 0.28547 0.73609 0.59139 0.0
H686 H 0.29237 0.75576 0.6156 0.0
H687 H 0.3154 0.74584 0.59621 0.0
H688 H 0.32645 0.79667 0.67242 0.0
H689 H 0.37883 0.77696 0.62079 0.0
H690 H 0.30414 0.73924 0.68404 0.0
H691 H 0.28687 0.75267 0.66121 0.0
H692 H 0.29715 0.77061 0.68552 0.0
H693 H 0.36735 0.71367 0.62312 0.0
H694 H 0.38331 0.737 0.60796 0.0
H695 H 0.3542 0.72848 0.59842 0.0
C696 C 0.90015 0.80965 0.2527 0.0
C697 C 0.89424 0.83286 0.25999 0.0
C698 C 0.90038 0.79053 0.26865 0.0
C699 C 0.89445 0.79454 0.29266 0.0
C700 C 0.88886 0.81799 0.30033 0.0
C701 C 0.88888 0.83693 0.2839 0.0
C702 C 0.90668 0.76591 0.25965 0.0
C703 C 0.88241 0.82295 0.32576 0.0
C704 C 0.87495 0.73664 0.32125 0.0
C705 C 0.89644 0.728 0.33024 0.0
C706 C 0.87347 0.75936 0.31078 0.0
C707 C 0.89394 0.7738 0.30925 0.0
C708 C 0.91503 0.76611 0.32033 0.0
C709 C 0.91601 0.74335 0.33073 0.0
C710 C 0.85052 0.76693 0.29946 0.0
C711 C 0.93724 0.78094 0.31931 0.0
H712 H 0.90449 0.8063 0.23432 0.0
H713 H 0.88421 0.85479 0.28966 0.0
H714 H 0.92189 0.75863 0.26969 0.0
H715 H 0.89158 0.75363 0.2624 0.0
H716 H 0.91133 0.7659 0.24056 0.0
H717 H 0.87982 0.84231 0.32921 0.0
H718 H 0.86585 0.81344 0.33035 0.0
H719 H 0.8964 0.8161 0.33767 0.0
H720 H 0.85964 0.72507 0.32094 0.0
H721 H 0.93265 0.73703 0.33785 0.0
H722 H 0.85209 0.76513 0.27998 0.0
H723 H 0.84658 0.78593 0.3034 0.0
H724 H 0.83543 0.75584 0.30553 0.0
H725 H 0.94492 0.77991 0.30126 0.0
H726 H 0.95075 0.77458 0.33207 0.0
H727 H 0.93327 0.79998 0.32302 0.0
C728 C 0.22417 0.38361 0.75746 0.0
C729 C 0.19988 0.38137 0.76197 0.0
C730 C 0.24103 0.3776 0.77457 0.0
C731 C 0.23355 0.36897 0.79688 0.0
C732 C 0.20904 0.36705 0.8018 0.0
C733 C 0.19245 0.37334 0.78429 0.0
C734 C 0.26696 0.38018 0.76856 0.0
C735 C 0.20037 0.3579 0.82535 0.0
C736 C 0.28261 0.33377 0.82655 0.0
C737 C 0.29364 0.35157 0.84 0.0
C738 C 0.26179 0.33862 0.81388 0.0
C739 C 0.25174 0.36182 0.81464 0.0
C740 C 0.26161 0.37918 0.82984 0.0
C741 C 0.28238 0.37385 0.84235 0.0
C742 C 0.25172 0.31947 0.79812 0.0
C743 C 0.25146 0.40409 0.83134 0.0
H744 H 0.23013 0.38992 0.74035 0.0
H745 H 0.17373 0.37145 0.78789 0.0
H746 H 0.27565 0.39207 0.78156 0.0
H747 H 0.27584 0.36253 0.76958 0.0
H748 H 0.26983 0.38761 0.75058 0.0
H749 H 0.1808 0.35863 0.82689 0.0
H750 H 0.20622 0.33915 0.82778 0.0
H751 H 0.20816 0.36849 0.83993 0.0
H752 H 0.29101 0.31645 0.8247 0.0
H753 H 0.29056 0.3877 0.85288 0.0
H754 H 0.25588 0.32371 0.77941 0.0
H755 H 0.2322 0.31876 0.79986 0.0
H756 H 0.25913 0.30157 0.80224 0.0
H757 H 0.25578 0.41396 0.81489 0.0
H758 H 0.2587 0.4142 0.84657 0.0
H759 H 0.23193 0.40355 0.83294 0.0
C760 C 0.68521 0.81162 0.29963 0.0
C761 C 0.66661 0.82299 0.31174 0.0
C762 C 0.68235 0.78882 0.28974 0.0
C763 C 0.6604 0.77695 0.29207 0.0
C764 C 0.64239 0.78728 0.30625 0.0
C765 C 0.64568 0.8102 0.31588 0.0
C766 C 0.70213 0.77847 0.27492 0.0
C767 C 0.61888 0.77508 0.30959 0.0
C768 C 0.64334 0.742 0.2374 0.0
C769 C 0.64951 0.71852 0.24347 0.0
C770 C 0.64599 0.76087 0.2534 0.0
C771 C 0.655 0.7563 0.27627 0.0
C772 C 0.66017 0.73246 0.28302 0.0
C773 C 0.6574 0.7138 0.2665 0.0
C774 C 0.64009 0.78592 0.24538 0.0
C775 C 0.66956 0.72679 0.3073 0.0
H776 H 0.70158 0.82115 0.29655 0.0
H777 H 0.63125 0.81865 0.3254 0.0
H778 H 0.70489 0.75934 0.27916 0.0
H779 H 0.69733 0.77964 0.25596 0.0
H780 H 0.71905 0.7881 0.27756 0.0
H781 H 0.60866 0.78293 0.32449 0.0
H782 H 0.60828 0.77701 0.29323 0.0
H783 H 0.62135 0.75571 0.31286 0.0
H784 H 0.63697 0.74584 0.21975 0.0
H785 H 0.66222 0.69572 0.27134 0.0
H786 H 0.65635 0.79695 0.24523 0.0
H787 H 0.62744 0.79438 0.25786 0.0
H788 H 0.63227 0.78631 0.2274 0.0
H789 H 0.68811 0.73299 0.30863 0.0
H790 H 0.66916 0.70734 0.31108 0.0
H791 H 0.65919 0.73631 0.32108 0.0
C792 C 0.30978 0.11811 0.76575 0.0
C793 C 0.31921 0.12894 0.74543 0.0
C794 C 0.28593 0.12096 0.77204 0.0
C795 C 0.27088 0.13481 0.75756 0.0
C796 C 0.28033 0.14626 0.73727 0.0
C797 C 0.30443 0.14328 0.73149 0.0
C798 C 0.2767 0.10849 0.79386 0.0
C799 C 0.26482 0.16104 0.72128 0.0
C800 C 0.20647 0.11618 0.75852 0.0
C801 C 0.19596 0.13344 0.77324 0.0
C802 C 0.23061 0.11684 0.75295 0.0
C803 C 0.2449 0.13512 0.76243 0.0
C804 C 0.23454 0.15261 0.77741 0.0
C805 C 0.21014 0.1516 0.78262 0.0
C806 C 0.24084 0.09777 0.73698 0.0
C807 C 0.24926 0.17226 0.78801 0.0
H808 H 0.32104 0.10721 0.77686 0.0
H809 H 0.31158 0.15184 0.71586 0.0
H810 H 0.26705 0.12131 0.80535 0.0
H811 H 0.264 0.0944 0.78867 0.0
H812 H 0.29107 0.10008 0.80433 0.0
H813 H 0.27514 0.17032 0.70731 0.0
H814 H 0.25159 0.14937 0.71266 0.0
H815 H 0.25492 0.17455 0.73173 0.0
H816 H 0.19578 0.10204 0.75111 0.0
H817 H 0.20218 0.16507 0.79388 0.0
H818 H 0.25429 0.08723 0.74669 0.0
H819 H 0.24985 0.10611 0.72163 0.0
H820 H 0.22714 0.08534 0.73028 0.0
H821 H 0.26323 0.16445 0.79938 0.0
H822 H 0.2385 0.18485 0.79878 0.0
H823 H 0.25829 0.18243 0.7738 0.0
C824 C 0.28222 0.89169 0.70269 0.0
C825 C 0.28323 0.86804 0.69451 0.0
C826 C 0.26957 0.89767 0.72332 0.0
C827 C 0.25754 0.8796 0.73605 0.0
C828 C 0.2579 0.85586 0.72746 0.0
C829 C 0.27071 0.85037 0.70685 0.0
C830 C 0.26953 0.92321 0.73183 0.0
C831 C 0.24511 0.83609 0.74032 0.0
C832 C 0.24213 0.88647 0.80139 0.0
C833 C 0.21784 0.89135 0.80036 0.0
C834 C 0.25552 0.8834 0.78056 0.0
C835 C 0.24435 0.88538 0.75823 0.0
C836 C 0.22007 0.89134 0.75715 0.0
C837 C 0.20715 0.8942 0.77817 0.0
C838 C 0.2814 0.87713 0.78244 0.0
C839 C 0.20747 0.89377 0.73378 0.0
H840 H 0.29195 0.90547 0.69339 0.0
H841 H 0.27135 0.83207 0.70071 0.0
H842 H 0.25111 0.92977 0.73384 0.0
H843 H 0.27794 0.92425 0.74948 0.0
H844 H 0.27913 0.93529 0.71956 0.0
H845 H 0.24685 0.81863 0.73117 0.0
H846 H 0.25224 0.83423 0.75847 0.0
H847 H 0.22605 0.84052 0.742 0.0
H848 H 0.25052 0.88423 0.81844 0.0
H849 H 0.18842 0.89821 0.77716 0.0
H850 H 0.29212 0.88942 0.77141 0.0
H851 H 0.2844 0.8588 0.77561 0.0
H852 H 0.28785 0.87799 0.80094 0.0
H853 H 0.2171 0.90631 0.72206 0.0
H854 H 0.189 0.90025 0.73593 0.0
H855 H 0.20708 0.87621 0.72472 0.0
C856 C 0.1405 0.81748 0.32938 0.0
C857 C 0.11792 0.80765 0.3328 0.0
C858 C 0.14704 0.82756 0.30753 0.0
C859 C 0.13062 0.82783 0.28866 0.0
C860 C 0.10715 0.82007 0.29282 0.0
C861 C 0.1011 0.81014 0.3148 0.0
C862 C 0.17216 0.83586 0.30409 0.0
C863 C 0.089 0.82002 0.27332 0.0
C864 C 0.14107 0.85634 0.22808 0.0
C865 C 0.14771 0.83631 0.21469 0.0
C866 C 0.13662 0.85431 0.25258 0.0
C867 C 0.13879 0.83175 0.2638 0.0
C868 C 0.14685 0.81189 0.25053 0.0
C869 C 0.15123 0.81445 0.22629 0.0
C870 C 0.12862 0.87601 0.26623 0.0
C871 C 0.14966 0.78751 0.26164 0.0
H872 H 0.15366 0.81578 0.34316 0.0
H873 H 0.08353 0.80287 0.31732 0.0
H874 H 0.18258 0.8215 0.29541 0.0
H875 H 0.17288 0.85186 0.29255 0.0
H876 H 0.18072 0.84009 0.32122 0.0
H877 H 0.0709 0.8165 0.28012 0.0
H878 H 0.08893 0.83734 0.26385 0.0
H879 H 0.09359 0.80594 0.26027 0.0
H880 H 0.13837 0.87331 0.21928 0.0
H881 H 0.15673 0.79893 0.2162 0.0
H882 H 0.13828 0.87732 0.28322 0.0
H883 H 0.10954 0.8744 0.27049 0.0
H884 H 0.13133 0.89274 0.25605 0.0
H885 H 0.16136 0.78853 0.27728 0.0
H886 H 0.15718 0.77419 0.24913 0.0
H887 H 0.1322 0.78097 0.26782 0.0
C888 C 0.27123 0.67219 0.80896 0.0
C889 C 0.28726 0.65306 0.81038 0.0
C890 C 0.25872 0.6768 0.788 0.0
C891 C 0.26257 0.66207 0.76799 0.0
C892 C 0.2802 0.64407 0.7688 0.0
C893 C 0.29221 0.6397 0.79001 0.0
C894 C 0.24017 0.69621 0.7879 0.0
C895 C 0.28523 0.62826 0.74774 0.0
C896 C 0.21418 0.64605 0.72469 0.0
C897 C 0.22119 0.65862 0.70446 0.0
C898 C 0.22658 0.64834 0.74602 0.0
C899 C 0.24662 0.66343 0.74711 0.0
C900 C 0.25276 0.67747 0.72724 0.0
C901 C 0.23989 0.675 0.70619 0.0
C902 C 0.21918 0.63334 0.76693 0.0
C903 C 0.27395 0.69378 0.72759 0.0
H904 H 0.26717 0.68252 0.82468 0.0
H905 H 0.30468 0.625 0.79097 0.0
H906 H 0.24095 0.70664 0.77125 0.0
H907 H 0.22239 0.688 0.789 0.0
H908 H 0.24219 0.70861 0.80309 0.0
H909 H 0.30109 0.61684 0.75042 0.0
H910 H 0.26983 0.6165 0.74449 0.0
H911 H 0.28795 0.6392 0.73162 0.0
H912 H 0.19966 0.63352 0.7236 0.0
H913 H 0.24547 0.68489 0.6907 0.0
H914 H 0.21806 0.64445 0.78312 0.0
H915 H 0.23264 0.61926 0.77011 0.0
H916 H 0.20182 0.62459 0.7641 0.0
H917 H 0.2744 0.7043 0.74419 0.0
H918 H 0.27406 0.70625 0.71233 0.0
H919 H 0.29035 0.68288 0.72686 0.0
C920 C 0.40272 0.73792 0.32035 0.0
C921 C 0.40921 0.76182 0.31689 0.0
C922 C 0.40227 0.72175 0.30123 0.0
C923 C 0.40838 0.72977 0.27823 0.0
C924 C 0.41607 0.75358 0.27501 0.0
C925 C 0.41643 0.7692 0.29432 0.0
C926 C 0.39423 0.69646 0.30545 0.0
C927 C 0.42293 0.76296 0.2509 0.0
C928 C 0.42447 0.69257 0.2246 0.0
C929 C 0.40429 0.69564 0.21051 0.0
C930 C 0.42533 0.70162 0.24776 0.0
C931 C 0.4056 0.71416 0.25702 0.0
C932 C 0.38444 0.71526 0.24374 0.0
C933 C 0.38401 0.70592 0.22068 0.0
C934 C 0.44808 0.69959 0.26146 0.0
C935 C 0.3629 0.72829 0.25296 0.0
H936 H 0.397 0.73211 0.33772 0.0
H937 H 0.42169 0.78758 0.29153 0.0
H938 H 0.37615 0.69417 0.2983 0.0
H939 H 0.40595 0.68361 0.29612 0.0
H940 H 0.39389 0.69194 0.32457 0.0
H941 H 0.42937 0.78165 0.25157 0.0
H942 H 0.437 0.75162 0.24302 0.0
H943 H 0.40745 0.76227 0.23893 0.0
H944 H 0.44016 0.68437 0.21707 0.0
H945 H 0.36823 0.7082 0.21009 0.0
H946 H 0.44449 0.69532 0.28027 0.0
H947 H 0.45747 0.71694 0.26092 0.0
H948 H 0.45999 0.68569 0.25396 0.0
H949 H 0.3592 0.72321 0.27154 0.0
H950 H 0.34696 0.72462 0.24216 0.0
H951 H 0.36626 0.7478 0.25264 0.0
C952 C 0.69997 0.26987 0.90117 0.0
C953 C 0.69674 0.2905 0.88752 0.0
C954 C 0.722 0.25798 0.90162 0.0
C955 C 0.74111 0.26673 0.88783 0.0
C956 C 0.73781 0.28744 0.87391 0.0
C957 C 0.71581 0.29909 0.87403 0.0
C958 C 0.72486 0.23606 0.91684 0.0
C959 C 0.75747 0.29719 0.85859 0.0
C960 C 0.8051 0.24821 0.89996 0.0
C961 C 0.80853 0.23006 0.8832 0.0
C962 C 0.78309 0.25998 0.90207 0.0
C963 C 0.76422 0.25368 0.88685 0.0
C964 C 0.76776 0.23555 0.86977 0.0
C965 C 0.78973 0.22393 0.86827 0.0
C966 C 0.77999 0.27908 0.92062 0.0
C967 C 0.74837 0.22855 0.85287 0.0
H968 H 0.68542 0.26322 0.91178 0.0
H969 H 0.71352 0.31496 0.86333 0.0
H970 H 0.72908 0.22038 0.9056 0.0
H971 H 0.73986 0.23849 0.92917 0.0
H972 H 0.70868 0.23209 0.92728 0.0
H973 H 0.75216 0.31368 0.84906 0.0
H974 H 0.77316 0.30123 0.86956 0.0
H975 H 0.76292 0.28359 0.84539 0.0
H976 H 0.81944 0.25292 0.9117 0.0
H977 H 0.79219 0.21 0.85518 0.0
H978 H 0.76485 0.27462 0.93232 0.0
H979 H 0.77585 0.2964 0.91206 0.0
H980 H 0.79604 0.28131 0.93166 0.0
H981 H 0.73251 0.22269 0.86286 0.0
H982 H 0.75386 0.21392 0.84076 0.0
H983 H 0.74307 0.2442 0.84208 0.0
C984 C 0.81473 0.25593 0.6456 0.0
C985 C 0.82266 0.27935 0.64189 0.0
C986 C 0.79069 0.25092 0.64887 0.0
C987 C 0.77399 0.26972 0.64797 0.0
C988 C 0.78187 0.2935 0.64453 0.0
C989 C 0.8062 0.29808 0.64177 0.0
C990 C 0.78316 0.22541 0.65303 0.0
C991 C 0.76455 0.31399 0.6432 0.0
C992 C 0.71099 0.25273 0.63187 0.0
C993 C 0.69955 0.25368 0.65389 0.0
C994 C 0.73513 0.25817 0.62968 0.0
C995 C 0.74827 0.26429 0.65005 0.0
C996 C 0.73698 0.26461 0.67242 0.0
C997 C 0.71272 0.25951 0.67404 0.0
C998 C 0.74648 0.25779 0.60548 0.0
C999 C 0.75048 0.27048 0.69463 0.0
H1000 H 0.82742 0.24139 0.64605 0.0
H1001 H 0.81226 0.31618 0.63887 0.0
H1002 H 0.77253 0.22417 0.6695 0.0
H1003 H 0.77179 0.21933 0.6383 0.0
H1004 H 0.79847 0.21304 0.65447 0.0
H1005 H 0.7735 0.33145 0.6408 0.0
H1006 H 0.75227 0.31117 0.62821 0.0
H1007 H 0.7537 0.31475 0.65954 0.0
H1008 H 0.70092 0.24848 0.61617 0.0
H1009 H 0.704 0.26027 0.69112 0.0
H1010 H 0.76118 0.24465 0.60511 0.0
H1011 H 0.75414 0.27554 0.60145 0.0
H1012 H 0.73372 0.25311 0.59135 0.0
H1013 H 0.76561 0.25801 0.69666 0.0
H1014 H 0.73923 0.26941 0.71073 0.0
H1015 H 0.75786 0.28876 0.69337 0.0
C1016 C 0.81463 0.34432 0.14159 0.0
C1017 C 0.79412 0.35004 0.12884 0.0
C1018 C 0.82385 0.32094 0.14165 0.0
C1019 C 0.81205 0.30272 0.12901 0.0
C1020 C 0.79213 0.30868 0.11507 0.0
C1021 C 0.78358 0.33226 0.11496 0.0
C1022 C 0.8455 0.31553 0.15622 0.0
C1023 C 0.77885 0.28983 0.10146 0.0
C1024 C 0.83832 0.24125 0.11637 0.0
C1025 C 0.82758 0.22727 0.13395 0.0
C1026 C 0.83449 0.26607 0.11527 0.0
C1027 C 0.81913 0.27713 0.13182 0.0
C1028 C 0.80901 0.26324 0.15017 0.0
C1029 C 0.81356 0.23858 0.15116 0.0
C1030 C 0.84614 0.28028 0.09582 0.0
C1031 C 0.79232 0.27419 0.16805 0.0
H1032 H 0.82299 0.3579 0.15231 0.0
H1033 H 0.76772 0.33637 0.10506 0.0
H1034 H 0.84031 0.30517 0.1721 0.0
H1035 H 0.8582 0.30444 0.14598 0.0
H1036 H 0.85456 0.33204 0.16211 0.0
H1037 H 0.76457 0.29756 0.0904 0.0
H1038 H 0.79111 0.27967 0.08987 0.0
H1039 H 0.77084 0.27692 0.11401 0.0
H1040 H 0.84928 0.23271 0.10307 0.0
H1041 H 0.80509 0.22797 0.16476 0.0
H1042 H 0.85442 0.29661 0.10313 0.0
H1043 H 0.83263 0.28609 0.08287 0.0
H1044 H 0.85986 0.26975 0.08631 0.0
H1045 H 0.80078 0.28961 0.17687 0.0
H1046 H 0.78671 0.26121 0.1818 0.0
H1047 H 0.77632 0.28099 0.15893 0.0
C1048 C 0.7961 0.30789 0.43961 0.0
C1049 C 0.78836 0.32735 0.42598 0.0
C1050 C 0.78391 0.2861 0.43961 0.0
C1051 C 0.76319 0.2837 0.4259 0.0
C1052 C 0.75465 0.30357 0.41292 0.0
C1053 C 0.7674 0.32511 0.41299 0.0
C1054 C 0.79374 0.26536 0.45355 0.0
C1055 C 0.73241 0.30185 0.39838 0.0
C1056 C 0.74501 0.22185 0.40477 0.0
C1057 C 0.72689 0.21605 0.42072 0.0
C1058 C 0.75718 0.24363 0.40646 0.0
C1059 C 0.75099 0.26014 0.42447 0.0
C1060 C 0.73313 0.25412 0.44099 0.0
C1061 C 0.72139 0.23215 0.439 0.0
C1062 C 0.77632 0.24921 0.38866 0.0
C1063 C 0.72592 0.2712 0.46039 0.0
H1064 H 0.81229 0.30931 0.44971 0.0
H1065 H 0.76128 0.33998 0.40239 0.0
H1066 H 0.78006 0.25816 0.46567 0.0
H1067 H 0.79888 0.25075 0.44131 0.0
H1068 H 0.80946 0.27043 0.46412 0.0
H1069 H 0.72722 0.3193 0.39063 0.0
H1070 H 0.7351 0.28887 0.3838 0.0
H1071 H 0.7176 0.29516 0.40942 0.0
H1072 H 0.74936 0.20958 0.39055 0.0
H1073 H 0.70734 0.22797 0.45136 0.0
H1074 H 0.79308 0.25336 0.3979 0.0
H1075 H 0.77132 0.26525 0.37829 0.0
H1076 H 0.77955 0.2342 0.37622 0.0
H1077 H 0.74146 0.27587 0.47133 0.0
H1078 H 0.71201 0.26367 0.47209 0.0
H1079 H 0.71917 0.28802 0.45253 0.0
C1080 C 0.22577 0.55543 0.66684 0.0
C1081 C 0.21662 0.5695 0.64845 0.0
C1082 C 0.21735 0.53222 0.6712 0.0
C1083 C 0.1993 0.52259 0.65678 0.0
C1084 C 0.19022 0.53652 0.63795 0.0
C1085 C 0.19892 0.55976 0.63403 0.0
C1086 C 0.22758 0.51811 0.69148 0.0
C1087 C 0.17106 0.52696 0.62208 0.0
C1088 C 0.19253 0.45471 0.65741 0.0
C1089 C 0.17388 0.45143 0.67355 0.0
C1090 C 0.20058 0.4777 0.65137 0.0
C1091 C 0.18983 0.49807 0.66172 0.0
C1092 C 0.17066 0.49492 0.67762 0.0
C1093 C 0.16292 0.47172 0.6833 0.0
C1094 C 0.22099 0.48015 0.63429 0.0
C1095 C 0.15866 0.51607 0.6891 0.0
H1096 H 0.2394 0.56268 0.67818 0.0
H1097 H 0.19167 0.57039 0.6198 0.0
H1098 H 0.21343 0.51373 0.70438 0.0
H1099 H 0.23497 0.50097 0.68492 0.0
H1100 H 0.24176 0.52796 0.70084 0.0
H1101 H 0.1663 0.5397 0.60782 0.0
H1102 H 0.1769 0.50993 0.61388 0.0
H1103 H 0.15499 0.52306 0.63266 0.0
H1104 H 0.20115 0.43924 0.6497 0.0
H1105 H 0.14851 0.4695 0.69577 0.0
H1106 H 0.23629 0.48832 0.64341 0.0
H1107 H 0.21605 0.49221 0.61955 0.0
H1108 H 0.22663 0.4627 0.62681 0.0
H1109 H 0.1715 0.52576 0.70032 0.0
H1110 H 0.14336 0.51074 0.70025 0.0
H1111 H 0.1524 0.52875 0.67541 0.0
C1112 C 0.48053 0.7167 0.14151 0.0
C1113 C 0.46946 0.69918 0.12774 0.0
C1114 C 0.50442 0.71432 0.14817 0.0
C1115 C 0.51752 0.69392 0.14097 0.0
C1116 C 0.50686 0.67711 0.1257 0.0
C1117 C 0.48306 0.67996 0.11927 0.0
C1118 C 0.51513 0.73283 0.16422 0.0
C1119 C 0.52002 0.6551 0.11754 0.0
C1120 C 0.58419 0.68777 0.15114 0.0
C1121 C 0.58477 0.67431 0.17207 0.0
C1122 C 0.56249 0.69489 0.14103 0.0
C1123 C 0.54089 0.68824 0.15199 0.0
C1124 C 0.54147 0.67485 0.17319 0.0
C1125 C 0.56327 0.66814 0.18293 0.0
C1126 C 0.56263 0.70934 0.11854 0.0
C1127 C 0.51897 0.66718 0.18547 0.0
H1128 H 0.47024 0.73165 0.1481 0.0
H1129 H 0.4748 0.66643 0.10841 0.0
H1130 H 0.5166 0.72545 0.18235 0.0
H1131 H 0.53321 0.73753 0.15821 0.0
H1132 H 0.50423 0.74935 0.16504 0.0
H1133 H 0.51034 0.64532 0.10353 0.0
H1134 H 0.53778 0.65989 0.11069 0.0
H1135 H 0.52263 0.64288 0.13275 0.0
H1136 H 0.60066 0.69277 0.14269 0.0
H1137 H 0.56339 0.65779 0.1991 0.0
H1138 H 0.55209 0.7259 0.12095 0.0
H1139 H 0.55424 0.69901 0.10412 0.0
H1140 H 0.58081 0.71426 0.11292 0.0
H1141 H 0.50788 0.683 0.18966 0.0
H1142 H 0.52244 0.6573 0.20213 0.0
H1143 H 0.50855 0.65553 0.17358 0.0
C1144 C 0.38829 0.94143 0.6791 0.0
C1145 C 0.36576 0.93976 0.66891 0.0
C1146 C 0.39663 0.96335 0.68817 0.0
C1147 C 0.38207 0.98401 0.68712 0.0
C1148 C 0.35912 0.98216 0.67743 0.0
C1149 C 0.35134 0.96022 0.66848 0.0
C1150 C 0.42119 0.96455 0.69837 0.0
C1151 C 0.34288 1.00358 0.67592 0.0
C1152 C 0.39037 0.04182 0.72181 0.0
C1153 C 0.39871 0.05713 0.70404 0.0
C1154 C 0.38641 1.0174 0.71714 0.0
C1155 C 0.39104 1.0081 0.69423 0.0
C1156 C 0.40114 0.02317 0.67687 0.0
C1157 C 0.40473 0.04742 0.68195 0.0
C1158 C 0.37572 1.00199 0.73621 0.0
C1159 C 0.40656 1.01415 0.65228 0.0
H1160 H 0.39953 0.92574 0.67965 0.0
H1161 H 0.33379 0.95922 0.66092 0.0
H1162 H 0.43251 0.97588 0.68694 0.0
H1163 H 0.4207 0.97296 0.71611 0.0
H1164 H 0.42951 0.94663 0.69986 0.0
H1165 H 0.32511 0.99889 0.66909 0.0
H1166 H 0.34074 1.01189 0.69359 0.0
H1167 H 0.35075 1.01719 0.66404 0.0
H1168 H 0.38566 0.04916 0.73893 0.0
H1169 H 0.41148 0.05903 0.66818 0.0
H1170 H 0.3847 0.98438 0.73692 0.0
H1171 H 0.35684 0.99872 0.73211 0.0
H1172 H 0.37677 1.01055 0.75388 0.0
H1173 H 0.41638 0.99701 0.65306 0.0
H1174 H 0.41711 0.02714 0.64185 0.0
H1175 H 0.38976 1.0108 0.64278 0.0
C1176 C 0.05935 0.83834 0.14967 0.0
C1177 C 0.07078 0.85725 0.13811 0.0
C1178 C 0.03582 0.84071 0.15773 0.0
C1179 C 0.0235 0.86253 0.15428 0.0
C1180 C 0.03449 0.88105 0.1413 0.0
C1181 C 0.05786 0.87815 0.13334 0.0
C1182 C 0.02467 0.82038 0.17117 0.0
C1183 C 0.02217 0.90464 0.13721 0.0
C1184 C 0.95735 0.87001 0.16703 0.0
C1185 C 0.95764 0.88002 0.18978 0.0
C1186 C 0.97856 0.86351 0.15543 0.0
C1187 C 1.00057 0.86734 0.16673 0.0
C1188 C 1.00086 0.87724 0.18975 0.0
C1189 C 0.97951 0.88334 0.20095 0.0
C1190 C 0.97745 0.85277 0.13101 0.0
C1191 C 0.02384 0.8819 0.20246 0.0
H1192 H 0.06909 0.82209 0.1534 0.0
H1193 H 0.06637 0.89282 0.12422 0.0
H1194 H 0.02375 0.82498 0.19023 0.0
H1195 H 1.00632 0.81732 0.16505 0.0
H1196 H 0.03491 0.80354 0.16922 0.0
H1197 H 0.03208 0.91625 0.12474 0.0
H1198 H 1.00415 0.90178 0.13014 0.0
H1199 H 0.02027 0.91424 0.15427 0.0
H1200 H 0.94056 0.86721 0.1583 0.0
H1201 H 0.98004 0.89103 0.21851 0.0
H1202 H 0.98734 0.83564 0.13055 0.0
H1203 H 0.98603 0.8649 0.11811 0.0
H1204 H 0.959 0.8495 0.12524 0.0
H1205 H 0.03427 0.86516 0.20384 0.0
H1206 H 0.02104 0.88915 0.22053 0.0
H1207 H 0.03461 0.89484 0.19224 0.0
C1208 C 0.13391 0.9568 0.83692 0.0
C1209 C 0.15563 0.9579 0.84881 0.0
C1210 C 0.12338 0.9776 0.82746 0.0
C1211 C 0.13478 0.99998 0.83003 0.0
C1212 C 0.15661 1.00109 0.84211 0.0
C1213 C 0.16669 0.98016 0.85127 0.0
C1214 C 0.10012 0.97566 0.81468 0.0
C1215 C 0.16939 0.02449 0.84549 0.0
C1216 C 0.12415 0.05538 0.79239 0.0
C1217 C 0.11156 0.06999 0.80821 0.0
C1218 C 0.13039 0.03179 0.79853 0.0
C1219 C 0.12388 0.02259 0.82098 0.0
C1220 C 0.1097 0.0367 0.83623 0.0
C1221 C 0.10374 0.06015 0.82968 0.0
C1222 C 0.14538 1.01735 0.78164 0.0
C1223 C 0.10227 0.02773 0.86029 0.0
H1224 H 0.12528 0.9397 0.83481 0.0
H1225 H 0.18344 0.98134 0.86043 0.0
H1226 H 0.08657 0.98679 0.82369 0.0
H1227 H 0.10199 0.9826 0.79641 0.0
H1228 H 0.09366 0.95698 0.81384 0.0
H1229 H 0.18638 0.02228 0.85504 0.0
H1230 H 0.17308 0.03282 0.82809 0.0
H1231 H 0.15806 0.03707 0.85563 0.0
H1232 H 0.13027 0.06276 0.77576 0.0
H1233 H 0.09379 0.07116 0.84196 0.0
H1234 H 0.13864 0.99883 0.78028 0.0
H1235 H 0.16373 1.01631 0.78843 0.0
H1236 H 0.14587 0.02538 0.7637 0.0
H1237 H 0.0951 1.00938 0.85904 0.0
H1238 H 0.08873 0.03944 0.86865 0.0
H1239 H 0.11792 0.02701 0.87205 0.0
C1240 C 0.98333 0.63846 0.34521 0.0
C1241 C 0.96801 0.64864 0.32853 0.0
C1242 C 1.00636 0.64722 0.34832 0.0
C1243 C 0.01424 0.66677 0.33455 0.0
C1244 C 0.99933 0.67626 0.3168 0.0
C1245 C 0.97644 0.66702 0.31393 0.0
C1246 C 0.02177 0.6364 0.36725 0.0
C1247 C 1.00699 0.69713 0.30178 0.0
C1248 C 0.05852 0.70874 0.36292 0.0
C1249 C 0.07979 0.70216 0.35177 0.0
C1250 C 0.03718 0.69737 0.35738 0.0
C1251 C 0.03697 0.67884 0.34038 0.0
C1252 C 0.05835 0.672 0.32912 0.0
C1253 C 0.07949 0.68379 0.33491 0.0
C1254 C 0.01477 0.7053 0.36975 0.0
C1255 C 0.05887 0.65225 0.31098 0.0
H1256 H 0.97705 0.62415 0.35646 0.0
H1257 H 0.96477 0.67504 0.301 0.0
H1258 H 0.03968 0.63251 0.36015 0.0
H1259 H 0.02385 0.64932 0.38195 0.0
H1260 H 0.01419 0.61966 0.37451 0.0
H1261 H 0.99444 0.70078 0.28715 0.0
H1262 H 1.0082 0.71336 0.31295 0.0
H1263 H 0.02479 0.69383 0.29415 0.0
H1264 H 0.05849 0.72291 0.3759 0.0
H1265 H 0.09584 0.67855 0.3262 0.0
H1266 H 1.00689 0.69008 0.3795 0.0
H1267 H 1.00159 0.71134 0.35655 0.0
H1268 H 0.0179 0.72008 0.38243 0.0
H1269 H 0.05209 0.63549 0.3189 0.0
H1270 H 0.07695 0.64891 0.30397 0.0
H1271 H 0.04709 0.65684 0.29601 0.0
C1272 C 0.30299 0.55257 0.87434 0.0
C1273 C 0.32009 0.57043 0.87708 0.0
C1274 C 0.30962 0.52849 0.87113 0.0
C1275 C 0.3339 0.52209 0.8708 0.0
C1276 C 0.35119 0.5401 0.87329 0.0
C1277 C 0.3441 0.56395 0.87634 0.0
C1278 C 0.29063 0.50985 0.86844 0.0
C1279 C 0.37725 0.53412 0.87324 0.0
C1280 C 0.35096 0.45898 0.88903 0.0
C1281 C 0.3557 0.44793 0.86723 0.0
C1282 C 0.34391 0.48299 0.89036 0.0
C1283 C 0.3413 0.49645 0.86936 0.0
C1284 C 0.34629 0.48554 0.84726 0.0
C1285 C 0.35354 0.46143 0.84646 0.0
C1286 C 0.33912 0.49393 0.91432 0.0
C1287 C 0.34369 0.49925 0.82447 0.0
H1288 H 0.28443 0.55737 0.87475 0.0
H1289 H 0.35752 0.57755 0.87841 0.0
H1290 H 0.29368 0.49935 0.85208 0.0
H1291 H 0.29137 0.49719 0.8835 0.0
H1292 H 0.27264 0.51781 0.86776 0.0
H1293 H 0.3885 0.5503 0.87438 0.0
H1294 H 0.3814 0.52235 0.88845 0.0
H1295 H 0.38201 0.52421 0.85693 0.0
H1296 H 0.35263 0.44878 0.90521 0.0
H1297 H 0.35698 0.45302 0.82954 0.0
H1298 H 0.3206 0.50041 0.91527 0.0
H1299 H 0.35076 0.50959 0.91704 0.0
H1300 H 0.34208 0.48109 0.92898 0.0
H1301 H 0.32524 0.50578 0.82268 0.0
H1302 H 0.34819 0.48824 0.80875 0.0
H1303 H 0.35531 0.51516 0.82466 0.0
C1304 C 0.48099 0.83032 0.36539 0.0
C1305 C 0.45839 0.84029 0.36243 0.0
C1306 C 0.5014 0.84249 0.35824 0.0
C1307 C 0.49937 0.86538 0.34786 0.0
C1308 C 0.47664 0.87557 0.34457 0.0
C1309 C 0.45638 0.86289 0.35188 0.0
C1310 C 0.52523 0.83087 0.3621 0.0
C1311 C 0.47377 0.89994 0.3336 0.0
C1312 C 0.55603 0.90036 0.3553 0.0
C1313 C 0.56799 0.89531 0.3341 0.0
C1314 C 0.53288 0.89232 0.35927 0.0
C1315 C 0.52135 0.87875 0.34167 0.0
C1316 C 0.53266 0.87511 0.31954 0.0
C1317 C 0.55586 0.88348 0.31598 0.0
C1318 C 0.52151 0.89681 0.38305 0.0
C1319 C 0.52098 0.86085 0.30024 0.0
H1320 H 0.48284 0.81285 0.37338 0.0
H1321 H 0.43901 0.8707 0.34942 0.0
H1322 H 0.53502 0.82963 0.34512 0.0
H1323 H 0.53594 0.84195 0.37426 0.0
H1324 H 0.52372 0.81267 0.36972 0.0
H1325 H 0.4549 0.90492 0.33125 0.0
H1326 H 0.48233 0.91356 0.34491 0.0
H1327 H 0.48273 0.90048 0.31613 0.0
H1328 H 0.56513 0.90977 0.36929 0.0
H1329 H 0.56493 0.87956 0.29952 0.0
H1330 H 0.52108 0.87991 0.39328 0.0
H1331 H 0.50298 0.90294 0.3809 0.0
H1332 H 0.53128 0.91032 0.39351 0.0
H1333 H 0.52106 0.84167 0.30514 0.0
H1334 H 0.53025 0.86285 0.28302 0.0
H1335 H 0.50226 0.86638 0.2981 0.0
C1336 C 0.65228 0.2232 0.54649 0.0
C1337 C 0.63296 0.23423 0.55769 0.0
C1338 C 0.65124 0.21609 0.52276 0.0
C1339 C 0.63025 0.21991 0.50973 0.0
C1340 C 0.61107 0.23222 0.52051 0.0
C1341 C 0.61266 0.23931 0.54441 0.0
C1342 C 0.67229 0.20337 0.51201 0.0
C1343 C 0.58852 0.2369 0.50715 0.0
C1344 C 0.63973 0.20904 0.44402 0.0
C1345 C 0.63459 0.18458 0.44225 0.0
C1346 C 0.63669 0.22143 0.46548 0.0
C1347 C 0.62813 0.20913 0.48563 0.0
C1348 C 0.62096 0.18503 0.48334 0.0
C1349 C 0.6243 0.17306 0.46174 0.0
C1350 C 0.64455 0.24709 0.46699 0.0
C1351 C 0.61159 0.17121 0.50426 0.0
H1352 H 0.66814 0.21945 0.55654 0.0
H1353 H 0.59764 0.24774 0.55298 0.0
H1354 H 0.66749 0.18466 0.50779 0.0
H1355 H 0.67759 0.21211 0.49523 0.0
H1356 H 0.68777 0.20311 0.52404 0.0
H1357 H 0.5765 0.2492 0.51687 0.0
H1358 H 0.59247 0.24463 0.48953 0.0
H1359 H 0.57915 0.2198 0.5042 0.0
H1360 H 0.64764 0.21821 0.42911 0.0
H1361 H 0.62005 0.15425 0.46055 0.0
H1362 H 0.66226 0.24785 0.47532 0.0
H1363 H 0.63224 0.25775 0.4781 0.0
H1364 H 0.64583 0.25547 0.44924 0.0
H1365 H 0.62619 0.16779 0.51687 0.0
H1366 H 0.60394 0.15379 0.49895 0.0
H1367 H 0.59785 0.18168 0.51374 0.0
C1368 C 0.83477 0.11732 0.05763 0.0
C1369 C 0.81962 0.13326 0.06949 0.0
C1370 C 0.84156 0.12126 0.03405 0.0
C1371 C 0.83294 0.14158 0.02194 0.0
C1372 C 0.81623 0.15671 0.03321 0.0
C1373 C 0.80979 0.1524 0.05685 0.0
C1374 C 0.85933 0.10462 0.02273 0.0
C1375 C 0.80642 0.17846 0.02088 0.0
C1376 C 0.87368 0.17228 0.97816 0.0
C1377 C 0.86399 0.16579 0.95631 0.0
C1378 C 0.86399 0.16409 0.99948 0.0
C1379 C 0.84398 0.14899 0.99909 0.0
C1380 C 0.83451 0.14168 0.97709 0.0
C1381 C 0.84467 0.15014 0.9559 0.0
C1382 C 0.87485 0.17217 0.02248 0.0
C1383 C 0.81323 0.12558 0.97596 0.0
H1384 H 0.84232 0.10234 0.06712 0.0
H1385 H 0.79796 0.16474 0.06575 0.0
H1386 H 0.8539 0.09997 1.00449 0.0
H1387 H 0.87671 0.11367 0.02152 0.0
H1388 H 0.86162 0.08789 0.03301 0.0
H1389 H 0.79129 0.18644 0.03067 0.0
H1390 H 0.82049 0.19213 0.01924 0.0
H1391 H 0.80058 0.17388 1.00275 0.0
H1392 H 0.8887 0.18423 0.97868 0.0
H1393 H 0.83701 0.14515 0.93909 0.0
H1394 H 0.8798 0.15647 0.03336 0.0
H1395 H 0.86177 0.18273 0.03277 0.0
H1396 H 0.89085 0.18328 0.01971 0.0
H1397 H 0.81614 0.10938 0.98684 0.0
H1398 H 0.80912 0.12003 0.95758 0.0
H1399 H 0.79761 0.135 0.9834 0.0
C1400 C 0.90948 0.31531 0.55036 0.0
C1401 C 0.88787 0.31463 0.56256 0.0
C1402 C 0.9106 0.32358 0.52682 0.0
C1403 C 0.88961 0.33112 0.51534 0.0
C1404 C 0.86762 0.32876 0.52714 0.0
C1405 C 0.86707 0.32069 0.55056 0.0
C1406 C 0.93434 0.32559 0.5148 0.0
C1407 C 0.84471 0.33617 0.51556 0.0
C1408 C 0.8853 0.38163 0.47129 0.0
C1409 C 0.87878 0.36947 0.45066 0.0
C1410 C 0.89107 0.36919 0.49202 0.0
C1411 C 0.89034 0.34392 0.49219 0.0
C1412 C 0.88613 0.33153 0.47079 0.0
C1413 C 0.88043 0.34446 0.45023 0.0
C1414 C 0.89571 0.38321 0.51431 0.0
C1415 C 0.8855 0.30463 0.47002 0.0
H1416 H 0.92562 0.31072 0.55959 0.0
H1417 H 0.85028 0.31993 0.55984 0.0
H1418 H 0.93336 0.31925 0.49626 0.0
H1419 H 0.93976 0.3446 0.51434 0.0
H1420 H 0.94819 0.31524 0.52421 0.0
H1421 H 0.82901 0.33141 0.52641 0.0
H1422 H 0.84463 0.35577 0.51274 0.0
H1423 H 0.84299 0.32757 0.49799 0.0
H1424 H 0.88443 0.40096 0.47172 0.0
H1425 H 0.87559 0.33485 0.43435 0.0
H1426 H 0.91119 0.37583 0.52383 0.0
H1427 H 0.88018 0.38181 0.52627 0.0
H1428 H 0.89894 0.40241 0.51061 0.0
H1429 H 0.8996 0.29679 0.48119 0.0
H1430 H 0.88752 0.29779 0.45169 0.0
H1431 H 0.86825 0.29837 0.47703 0.0
C1432 C 0.65956 0.36121 0.96659 0.0
C1433 C 0.63598 0.35386 0.96468 0.0
C1434 C 0.66898 0.36814 0.98854 0.0
C1435 C 0.65437 0.36811 1.00897 0.0
C1436 C 0.63031 0.36162 1.0069 0.0
C1437 C 0.62149 0.35439 0.98487 0.0
C1438 C 0.69477 0.37478 0.99001 0.0
C1439 C 0.61398 0.36183 0.02807 0.0
C1440 C 0.68379 0.36329 0.0694 0.0
C1441 C 0.68491 0.38729 0.07632 0.0
C1442 C 0.67377 0.35677 0.04759 0.0
C1443 C 0.66429 0.37462 0.03254 0.0
C1444 C 0.66455 0.39875 0.03992 0.0
C1445 C 0.675 0.40479 0.06158 0.0
C1446 C 0.67398 0.33084 0.04032 0.0
C1447 C 0.65422 0.41829 0.0247 0.0
H1448 H 0.67092 0.36062 0.95113 0.0
H1449 H 0.60321 0.34882 0.98352 0.0
H1450 H 0.69664 0.39297 0.99751 0.0
H1451 H 0.70406 0.36229 1.00207 0.0
H1452 H 0.70367 0.37427 0.97249 0.0
H1453 H 0.59546 0.35752 0.02327 0.0
H1454 H 0.62016 0.34862 0.04131 0.0
H1455 H 0.61426 0.37962 0.03669 0.0
H1456 H 0.6916 0.3497 0.08057 0.0
H1457 H 0.6757 0.42338 0.06685 0.0
H1458 H 0.68445 0.32866 0.02384 0.0
H1459 H 0.65574 0.32479 0.03649 0.0
H1460 H 0.68163 0.31909 0.05415 0.0
H1461 H 0.66422 0.4195 1.00785 0.0
H1462 H 0.65469 0.43599 0.03353 0.0
H1463 H 0.63563 0.41407 0.02019 0.0
C1464 C 0.86732 0.57702 0.36642 0.0
C1465 C 0.86791 0.57911 0.34169 0.0
C1466 C 0.86212 0.555 0.3774 0.0
C1467 C 0.85749 0.53457 0.36335 0.0
C1468 C 0.85734 0.53684 0.33843 0.0
C1469 C 0.86249 0.55896 0.32798 0.0
C1470 C 0.86229 0.55342 0.40401 0.0
C1471 C 0.85256 0.51564 0.32266 0.0
C1472 C 0.87225 0.47154 0.38337 0.0
C1473 C 0.84979 0.46165 0.38727 0.0
C1474 C 0.87501 0.49559 0.37694 0.0
C1475 C 0.85483 0.51033 0.37423 0.0
C1476 C 0.83216 0.50084 0.37942 0.0
C1477 C 0.8299 0.47662 0.38591 0.0
C1478 C 0.89954 0.50482 0.37173 0.0
C1479 C 0.81018 0.51593 0.37691 0.0
H1480 H 0.87136 0.59246 0.37721 0.0
H1481 H 0.8627 0.56029 0.30888 0.0
H1482 H 0.84596 0.54462 0.41048 0.0
H1483 H 0.87746 0.5423 0.40979 0.0
H1484 H 0.86374 0.57125 0.41246 0.0
H1485 H 0.8517 0.52064 0.30369 0.0
H1486 H 0.86675 0.50212 0.32491 0.0
H1487 H 0.83563 0.50708 0.32772 0.0
H1488 H 0.88779 0.46026 0.38462 0.0
H1489 H 0.81248 0.46919 0.38891 0.0
H1490 H 0.90266 0.5218 0.38127 0.0
H1491 H 0.90126 0.50859 0.35254 0.0
H1492 H 0.91352 0.49185 0.37678 0.0
H1493 H 0.8126 0.53351 0.38559 0.0
H1494 H 0.79439 0.50711 0.38464 0.0
H1495 H 0.80679 0.51935 0.35791 0.0
C1496 C 0.43617 0.31525 0.87908 0.0
C1497 C 0.42406 0.33528 0.88799 0.0
C1498 C 0.4605 0.31205 0.88294 0.0
C1499 C 0.47307 0.32905 0.89645 0.0
C1500 C 0.46057 0.34824 0.90711 0.0
C1501 C 0.43628 0.35128 0.90255 0.0
C1502 C 0.47302 0.29157 0.87082 0.0
C1503 C 0.47313 0.36644 0.92214 0.0
C1504 C 0.53734 0.31571 0.91316 0.0
C1505 C 0.5496 0.32932 0.89636 0.0
C1506 C 0.51239 0.31554 0.91366 0.0
C1507 C 0.49953 0.32872 0.89654 0.0
C1508 C 0.51198 0.34183 0.87912 0.0
C1509 C 0.53676 0.34222 0.87947 0.0
C1510 C 0.49978 0.3017 0.93275 0.0
C1511 C 0.49914 0.35556 0.86008 0.0
H1512 H 0.427 0.30274 0.86776 0.0
H1513 H 0.42709 0.36671 0.90965 0.0
H1514 H 0.48291 0.29847 0.8553 0.0
H1515 H 0.486 0.28301 0.88278 0.0
H1516 H 0.46044 0.27777 0.86457 0.0
H1517 H 0.46053 0.37792 0.93211 0.0
H1518 H 0.48512 0.35747 0.93486 0.0
H1519 H 0.48414 0.37804 0.91069 0.0
H1520 H 0.54724 0.30586 0.92633 0.0
H1521 H 0.54617 0.35257 0.86628 0.0
H1522 H 0.4877 0.28843 0.92474 0.0
H1523 H 0.48874 0.31403 0.94351 0.0
H1524 H 0.51226 0.29222 0.94463 0.0
H1525 H 0.48709 0.3435 0.85032 0.0
H1526 H 0.51146 0.36393 0.84721 0.0
H1527 H 0.48813 0.36981 0.86819 0.0
C1528 C 0.68373 0.07559 0.37123 0.0
C1529 C 0.6812 0.08293 0.39484 0.0
C1530 C 0.67932 0.05191 0.36441 0.0
C1531 C 0.67187 0.03504 0.38151 0.0
C1532 C 0.67008 0.04208 0.40552 0.0
C1533 C 0.6749 0.06589 0.41192 0.0
C1534 C 0.68177 0.04518 0.33866 0.0
C1535 C 0.66206 0.02474 0.42428 0.0
C1536 C 0.6336 0.98578 0.35598 0.0
C1537 C 0.64972 0.96686 0.35346 0.0
C1538 C 0.64033 1.00757 0.36614 0.0
C1539 C 0.66393 1.01081 0.37373 0.0
C1540 C 0.68011 0.99147 0.37208 0.0
C1541 C 0.67276 0.96964 0.36211 0.0
C1542 C 0.62235 0.02749 0.36786 0.0
C1543 C 0.70546 0.99419 0.37978 0.0
H1544 H 0.68882 0.08851 0.35791 0.0
H1545 H 0.67287 0.07135 0.4302 0.0
H1546 H 0.69288 0.02894 0.33678 0.0
H1547 H 0.66411 0.04099 0.3313 0.0
H1548 H 0.68973 0.05972 0.32795 0.0
H1549 H 0.66376 0.03224 0.44237 0.0
H1550 H 0.64326 0.02005 0.42129 0.0
H1551 H 0.67246 1.00796 0.42322 0.0
H1552 H 0.6157 0.98372 0.34953 0.0
H1553 H 0.68536 0.95515 0.36011 0.0
H1554 H 0.62746 0.04224 0.35581 0.0
H1555 H 0.62189 0.03485 0.38606 0.0
H1556 H 0.60429 0.02149 0.36311 0.0
H1557 H 0.71465 1.00676 0.36773 0.0
H1558 H 0.71516 0.97691 0.3796 0.0
H1559 H 0.7063 1.00187 0.39782 0.0
C1560 C 0.06942 0.17924 0.8665 0.0
C1561 C 0.07103 0.17311 0.84248 0.0
C1562 C 0.04738 0.18419 0.87721 0.0
C1563 C 0.0264 0.18287 0.86362 0.0
C1564 C 0.02804 0.17751 0.83922 0.0
C1565 C 0.05022 0.17277 0.82898 0.0
C1566 C 0.04645 0.19008 0.90321 0.0
C1567 C 1.00622 0.17581 0.824 0.0
C1568 C 0.96745 0.16499 0.89047 0.0
C1569 C 0.95446 0.18637 0.88946 0.0
C1570 C 0.99122 0.16394 0.88332 0.0
C1571 C 1.00254 0.18484 0.87504 0.0
C1572 C 0.99004 0.20683 0.8754 0.0
C1573 C 0.96611 0.20734 0.88255 0.0
C1574 C 1.00374 0.14008 0.88327 0.0
C1575 C 1.00152 0.22958 0.86702 0.0
H1576 H 0.08534 0.17969 0.87711 0.0
H1577 H 0.05114 0.16824 0.8104 0.0
H1578 H 0.03552 0.20628 0.90628 0.0
H1579 H 0.03798 0.1752 0.91298 0.0
H1580 H 0.06433 0.19305 0.9107 0.0
H1581 H 1.01057 0.17285 0.80507 0.0
H1582 H 0.99503 0.16082 0.83021 0.0
H1583 H 0.99554 0.19237 0.82555 0.0
H1584 H 0.95875 0.14869 0.89598 0.0
H1585 H 0.95628 0.22396 0.8817 0.0
H1586 H 0.02106 0.14148 0.89227 0.0
H1587 H 1.00724 0.13446 0.86478 0.0
H1588 H 0.9932 0.12595 0.89212 0.0
H1589 H 0.01938 0.23149 0.87481 0.0
H1590 H 0.99081 0.24559 0.87162 0.0
H1591 H 1.0037 0.22897 0.84754 0.0
C1592 C 0.85102 0.07577 0.16639 0.0
C1593 C 0.84845 0.09349 0.18376 0.0
C1594 C 0.8599 0.05301 0.17203 0.0
C1595 C 0.86693 0.0479 0.19551 0.0
C1596 C 0.86523 0.06601 0.21293 0.0
C1597 C 0.85576 0.08847 0.20692 0.0
C1598 C 0.86102 0.03415 0.15298 0.0
C1599 C 0.87305 0.06153 0.23802 0.0
C1600 C 0.8664 0.98247 0.21399 0.0
C1601 C 0.88993 0.9756 0.20988 0.0
C1602 C 0.85879 1.00602 0.20983 0.0
C1603 C 0.87521 0.02334 0.20189 0.0
C1604 C 0.89924 1.01677 0.19883 0.0
C1605 C 0.90624 0.99293 0.20256 0.0
C1606 C 0.83293 1.01208 0.21291 0.0
C1607 C 0.91744 0.03476 0.19097 0.0
H1608 H 0.84527 0.07938 0.1485 0.0
H1609 H 0.85393 0.10208 0.22042 0.0
H1610 H 0.87933 0.02726 0.15115 0.0
H1611 H 0.84964 0.01885 0.15797 0.0
H1612 H 0.85514 0.04103 0.13554 0.0
H1613 H 0.87225 0.07794 0.24902 0.0
H1614 H 0.86161 0.04779 0.24626 0.0
H1615 H 0.89141 0.05452 0.23819 0.0
H1616 H 0.85362 0.96917 0.21945 0.0
H1617 H 0.92447 0.98779 0.19943 0.0
H1618 H 0.82536 1.01753 0.19566 0.0
H1619 H 0.83082 0.02739 0.22517 0.0
H1620 H 0.82255 0.9968 0.21987 0.0
H1621 H 0.91369 0.04048 0.17259 0.0
H1622 H 0.93569 0.02743 0.19161 0.0
H1623 H 0.91652 0.05091 0.20229 0.0
C1624 C 0.05574 0.36828 0.70995 0.0
C1625 C 0.0619 0.39216 0.70576 0.0
C1626 C 0.03279 0.35994 0.70537 0.0
C1627 C 0.01533 0.37596 0.69687 0.0
C1628 C 0.02115 0.40034 0.69369 0.0
C1629 C 0.04441 0.40807 0.69789 0.0
C1630 C 0.02753 0.33374 0.70865 0.0
C1631 C 1.00297 0.41812 0.68521 0.0
C1632 C 0.96556 0.34875 0.66069 0.0
C1633 C 0.94776 0.34564 0.67775 0.0
C1634 C 0.98741 0.359 0.66659 0.0
C1635 C 0.99149 0.36683 0.69003 0.0
C1636 C 0.9732 0.36476 0.70707 0.0
C1637 C 0.95167 0.35397 0.7008 0.0
C1638 C 1.0065 0.36053 0.64792 0.0
C1639 C 0.97659 0.37338 0.7321 0.0
H1640 H 0.06915 0.35579 0.71583 0.0
H1641 H 0.049 0.42657 0.69468 0.0
H1642 H 1.01214 0.33142 0.72061 0.0
H1643 H 0.0228 0.32569 0.69139 0.0
H1644 H 0.0428 0.32376 0.71605 0.0
H1645 H 1.00961 0.43675 0.68583 0.0
H1646 H 0.99795 0.41393 0.66674 0.0
H1647 H 0.9867 0.41693 0.69615 0.0
H1648 H 0.96282 0.34225 0.64286 0.0
H1649 H 0.938 0.35175 0.71408 0.0
H1650 H 0.02189 0.34947 0.65326 0.0
H1651 H 0.01278 0.37918 0.64619 0.0
H1652 H 1.00032 0.35432 0.63036 0.0
H1653 H 0.99017 0.36226 0.74098 0.0
H1654 H 0.96 0.37254 0.74261 0.0
H1655 H 0.9831 0.39204 0.73211 0.0
C1656 C 0.7355 0.49398 0.15257 0.0
C1657 C 0.72268 0.47273 0.15008 0.0
C1658 C 0.72401 0.51573 0.15771 0.0
C1659 C 0.69909 0.51629 0.1605 0.0
C1660 C 0.68609 0.49489 0.15814 0.0
C1661 C 0.69799 0.47346 0.15292 0.0
C1662 C 0.73851 0.53819 0.15992 0.0
C1663 C 0.65954 0.49463 0.16099 0.0
C1664 C 0.67153 0.56979 0.19233 0.0
C1665 C 0.66392 0.58391 0.17332 0.0
C1666 C 0.68265 0.54757 0.18847 0.0
C1667 C 0.6865 0.53937 0.16506 0.0
C1668 C 0.67839 0.55331 0.14585 0.0
C1669 C 0.66709 0.57525 0.15021 0.0
C1670 C 0.6907 0.53308 0.20945 0.0
C1671 C 0.68221 0.54536 0.12061 0.0
H1672 H 0.75455 0.49366 0.15047 0.0
H1673 H 0.68784 0.4572 0.1511 0.0
H1674 H 0.73293 0.5513 0.14633 0.0
H1675 H 0.73543 0.54656 0.17744 0.0
H1676 H 0.75775 0.53472 0.15779 0.0
H1677 H 0.6521 0.47638 0.15943 0.0
H1678 H 0.65451 0.50207 0.17848 0.0
H1679 H 0.65128 0.50613 0.14734 0.0
H1680 H 0.66923 0.57629 0.21022 0.0
H1681 H 0.6614 0.58598 0.13533 0.0
H1682 H 0.71022 0.53116 0.20905 0.0
H1683 H 0.68314 0.51486 0.2086 0.0
H1684 H 0.68546 0.54138 0.22652 0.0
H1685 H 0.70141 0.54354 0.11696 0.0
H1686 H 0.67454 0.55808 0.10765 0.0
H1687 H 0.67414 0.52758 0.11777 0.0
C1688 C 0.4569 0.17032 0.67583 0.0
C1689 C 0.45645 0.14608 0.68189 0.0
C1690 C 0.47731 0.18063 0.66588 0.0
C1691 C 0.49752 0.16623 0.66146 0.0
C1692 C 0.49661 0.14148 0.66634 0.0
C1693 C 0.4762 0.13177 0.67672 0.0
C1694 C 0.47764 0.20715 0.6612 0.0
C1695 C 0.51748 0.12536 0.66138 0.0
C1696 C 0.54507 0.19145 0.62074 0.0
C1697 C 0.56188 0.19974 0.63695 0.0
C1698 C 0.52431 0.18003 0.62841 0.0
C1699 C 0.52001 0.17723 0.65291 0.0
C1700 C 0.53714 0.18515 0.66935 0.0
C1701 C 0.55797 0.1961 0.66116 0.0
C1702 C 0.50681 0.17134 0.61029 0.0
C1703 C 0.53316 0.18272 0.69563 0.0
H1704 H 0.44178 0.1815 0.68003 0.0
H1705 H 0.4759 0.11298 0.6813 0.0
H1706 H 0.49095 0.21576 0.67273 0.0
H1707 H 0.48292 0.21069 0.64264 0.0
H1708 H 0.46018 0.21566 0.66453 0.0
H1709 H 0.51317 0.10622 0.66409 0.0
H1710 H 0.52377 0.12783 0.64295 0.0
H1711 H 0.53231 0.1301 0.67324 0.0
H1712 H 0.548 0.19414 0.60199 0.0
H1713 H 0.57074 0.20266 0.67381 0.0
H1714 H 0.48992 0.18128 0.6122 0.0
H1715 H 0.50287 0.15218 0.61325 0.0
H1716 H 0.51339 0.17363 0.59191 0.0
H1717 H 0.51689 0.19254 0.70085 0.0
H1718 H 0.5482 0.18973 0.70609 0.0
H1719 H 0.53047 0.16371 0.70033 0.0
C1720 C 0.3506 0.84306 0.45556 0.0
C1721 C 0.36763 0.82615 0.4485 0.0
C1722 C 0.34546 0.84716 0.47953 0.0
C1723 C 0.35769 0.83415 0.49712 0.0
C1724 C 0.37491 0.81702 0.49019 0.0
C1725 C 0.37962 0.81316 0.46597 0.0
C1726 C 0.32686 0.86545 0.48601 0.0
C1727 C 0.38841 0.80284 0.50838 0.0
C1728 C 0.3583 0.86095 0.55921 0.0
C1729 C 0.34063 0.84776 0.57073 0.0
C1730 C 0.36428 0.85649 0.53542 0.0
C1731 C 0.35222 0.83847 0.5227 0.0
C1732 C 0.33426 0.82522 0.53418 0.0
C1733 C 0.32874 0.82995 0.558 0.0
C1734 C 0.38356 0.87102 0.52391 0.0
C1735 C 0.32076 0.80604 0.52127 0.0
H1736 H 0.34112 0.85319 0.44229 0.0
H1737 H 0.39282 0.80012 0.46075 0.0
H1738 H 0.3126 0.8569 0.4965 0.0
H1739 H 0.33472 0.87957 0.49722 0.0
H1740 H 0.31884 0.87399 0.47023 0.0
H1741 H 0.40132 0.79032 0.5002 0.0
H1742 H 0.39805 0.81513 0.52031 0.0
H1743 H 0.37594 0.79246 0.51949 0.0
H1744 H 0.36774 0.87463 0.56888 0.0
H1745 H 0.31512 0.81959 0.56667 0.0
H1746 H 0.37629 0.88103 0.50865 0.0
H1747 H 0.39761 0.85902 0.51697 0.0
H1748 H 0.39168 0.88394 0.53634 0.0
H1749 H 0.31145 0.81391 0.5059 0.0
H1750 H 0.30755 0.79708 0.53278 0.0
H1751 H 0.33318 0.79237 0.51431 0.0
C1752 C 0.1693 0.89031 0.063 0.0
C1753 C 0.15823 0.86812 0.06604 0.0
C1754 C 0.17467 0.89902 0.04017 0.0
C1755 C 0.16868 0.88531 0.01997 0.0
C1756 C 0.15753 0.86294 0.02306 0.0
C1757 C 0.15253 0.85468 0.04591 0.0
C1758 C 0.18668 0.92288 0.03762 0.0
C1759 C 0.15061 0.84773 1.00214 0.0
C1760 C 0.15644 0.91083 0.95912 0.0
C1761 C 0.17591 0.90247 0.94601 0.0
C1762 C 0.15469 0.90691 0.98358 0.0
C1763 C 0.17289 0.89437 0.99542 0.0
C1764 C 0.19343 0.88746 0.98264 0.0
C1765 C 0.19469 0.89155 0.95808 0.0
C1766 C 0.13246 0.91462 0.99636 0.0
C1767 C 0.21337 0.87428 0.99458 0.0
H1768 H 0.17389 0.90077 0.07841 0.0
H1769 H 0.14396 0.83753 0.04793 0.0
H1770 H 0.20325 0.92085 0.02725 0.0
H1771 H 0.1751 0.93536 0.02774 0.0
H1772 H 0.19096 0.93099 0.055 0.0
H1773 H 0.14238 0.8306 1.00756 0.0
H1774 H 0.13789 0.85761 0.99088 0.0
H1775 H 0.16638 0.8437 0.99113 0.0
H1776 H 0.14193 0.91954 0.95008 0.0
H1777 H 0.20987 0.88512 0.94819 0.0
H1778 H 0.13684 0.9237 0.0132 0.0
H1779 H 0.12178 0.89865 1.00081 0.0
H1780 H 0.12144 0.92683 0.9855 0.0
H1781 H 0.21782 0.88282 1.01168 0.0
H1782 H 0.22952 0.87361 0.98336 0.0
H1783 H 0.20779 0.85571 0.99842 0.0
C1784 C 0.20628 0.67698 0.53756 0.0
C1785 C 0.19583 0.67664 0.56011 0.0
C1786 C 0.19471 0.68725 0.51814 0.0
C1787 C 0.17203 0.6976 0.52116 0.0
C1788 C 0.16148 0.69772 0.54394 0.0
C1789 C 0.17348 0.6872 0.56314 0.0
C1790 C 0.20663 0.68658 0.4942 0.0
C1791 C 0.13738 0.70863 0.54793 0.0
C1792 C 0.15316 0.73812 0.47032 0.0
C1793 C 0.1404 0.72222 0.45609 0.0
C1794 C 0.16252 0.73078 0.49222 0.0
C1795 C 0.15909 0.70699 0.50007 0.0
C1796 C 0.14519 0.69131 0.48633 0.0
C1797 C 0.13603 0.6991 0.46461 0.0
C1798 C 0.17709 0.74813 0.50639 0.0
C1799 C 0.14102 0.66582 0.49393 0.0
H1800 H 0.22354 0.66897 0.53494 0.0
H1801 H 0.16528 0.68714 0.58049 0.0
H1802 H 0.19583 0.67599 0.48171 0.0
H1803 H 0.20805 0.7049 0.4869 0.0
H1804 H 0.22462 0.67862 0.49495 0.0
H1805 H 0.13219 0.70857 0.56688 0.0
H1806 H 0.13708 0.72729 0.54137 0.0
H1807 H 0.12395 0.69858 0.53777 0.0
H1808 H 0.1566 0.75602 0.46398 0.0
H1809 H 0.12604 0.68668 0.45391 0.0
H1810 H 0.19592 0.74257 0.50589 0.0
H1811 H 0.17141 0.74806 0.52518 0.0
H1812 H 0.17574 0.76663 0.49945 0.0
H1813 H 0.15795 0.65577 0.49329 0.0
H1814 H 0.12806 0.65657 0.48244 0.0
H1815 H 0.13451 0.66522 0.51243 0.0
C1816 C 0.3559 0.67117 0.06315 0.0
C1817 C 0.37889 0.6804 0.0637 0.0
C1818 C 0.34561 0.66395 0.0417 0.0
C1819 C 0.35883 0.66547 0.02042 0.0
C1820 C 0.38241 0.67382 0.0211 0.0
C1821 C 0.39203 0.68145 0.04265 0.0
C1822 C 0.3203 0.6555 0.04169 0.0
C1823 C 0.39735 0.67514 0.99897 0.0
C1824 C 0.33776 0.62876 0.96798 0.0
C1825 C 0.32652 0.64606 0.95402 0.0
C1826 C 0.3487 0.63488 0.98938 0.0
C1827 C 0.34789 0.65882 0.99736 0.0
C1828 C 0.33664 0.67641 0.98328 0.0
C1829 C 0.32634 0.66987 0.96162 0.0
C1830 C 0.36105 0.6157 1.0035 0.0
C1831 C 0.33504 0.70206 0.99132 0.0
H1832 H 0.34558 0.67058 0.07932 0.0
H1833 H 0.40985 0.68849 0.043 0.0
H1834 H 0.30942 0.66756 0.03057 0.0
H1835 H 0.31919 0.6374 0.03386 0.0
H1836 H 0.31254 0.655 0.05975 0.0
H1837 H 0.41584 0.68052 1.00274 0.0
H1838 H 0.39763 0.65756 0.98993 0.0
H1839 H 0.38957 0.68823 0.9865 0.0
H1840 H 0.33806 0.61033 0.96213 0.0
H1841 H 0.31747 0.68327 0.95102 0.0
H1842 H 0.35232 0.61365 0.02096 0.0
H1843 H 0.37965 0.6209 1.00682 0.0
H1844 H 0.36095 0.59814 0.99437 0.0
H1845 H 0.32583 0.70302 1.00865 0.0
H1846 H 0.32541 0.7135 0.97851 0.0
H1847 H 0.35302 0.70945 0.99383 0.0
loop_
_geom_bond_atom_site_label_1
_geom_bond_atom_site_label_2
_geom_bond_distance
_geom_bond_site_symmetry_2
_ccdc_geom_bond_type
Mg0 O7 2.141 . S
Mg0 O8 2.048 . S
Mg0 O9 2.048 . S
Mg0 O12 2.141 . S
C1 O2 1.313 . S
C1 O8 1.195 . S
O2 C1 1.313 . S
C3 O4 1.245 . S
C3 O12 1.289 . S
O4 C3 1.245 . S
C5 O6 1.245 . S
C5 O7 1.289 . S
O6 C5 1.245 . S
O7 Mg0 2.141 . S
O7 C5 1.289 . S
O8 Mg0 2.048 . S
O8 C1 1.195 . S
O9 Mg0 2.048 . S
O9 C10 1.195 . S
C10 O9 1.195 . S
C10 O11 1.313 . S
O11 C10 1.313 . S
O12 Mg0 2.141 . S
O12 C3 1.289 . S
Mg13 O20 2.141 . S
Mg13 O21 2.048 . S
Mg13 O22 2.048 . S
Mg13 O25 2.141 . S
C14 O15 1.313 . S
C14 O21 1.195 . S
O15 C14 1.313 . S
C16 O17 1.245 . S
C16 O25 1.289 . S
O17 C16 1.245 . S
C18 O19 1.245 . S
C18 O20 1.289 . S
O19 C18 1.245 . S
O20 Mg13 2.141 . S
O20 C18 1.289 . S
O21 Mg13 2.048 . S
O21 C14 1.195 . S
O22 Mg13 2.048 . S
O22 C23 1.195 . S
C23 O22 1.195 . S
C23 O24 1.313 . S
O24 C23 1.313 . S
O25 Mg13 2.141 . S
O25 C16 1.289 . S
Mg26 O33 2.141 . S
Mg26 O34 2.048 . S
Mg26 O35 2.048 . S
Mg26 O38 2.141 . S
C27 O28 1.313 . S
C27 O34 1.195 . S
O28 C27 1.313 . S
C29 O30 1.245 . S
C29 O38 1.289 . S
O30 C29 1.245 . S
C31 O32 1.245 . S
C31 O33 1.289 . S
O32 C31 1.245 . S
O33 Mg26 2.141 . S
O33 C31 1.289 . S
O34 Mg26 2.048 . S
O34 C27 1.195 . S
O35 Mg26 2.048 . S
O35 C36 1.195 . S
C36 O35 1.195 . S
C36 O37 1.313 . S
O37 C36 1.313 . S
O38 Mg26 2.141 . S
O38 C29 1.289 . S
Mg39 O46 2.141 . S
Mg39 O47 2.048 . S
Mg39 O48 2.048 . S
Mg39 O51 2.141 . S
C40 O41 1.313 . S
C40 O47 1.195 . S
O41 C40 1.313 . S
C42 O43 1.245 . S
C42 O51 1.289 . S
O43 C42 1.245 . S
C44 O45 1.245 . S
C44 O46 1.289 . S
O45 C44 1.245 . S
O46 Mg39 2.141 . S
O46 C44 1.289 . S
O47 Mg39 2.048 . S
O47 C40 1.195 . S
O48 Mg39 2.048 . S
O48 C49 1.195 . S
C49 O48 1.195 . S
C49 O50 1.313 . S
O50 C49 1.313 . S
O51 Mg39 2.141 . S
O51 C42 1.289 . S
Mg52 O59 2.141 . S
Mg52 O60 2.048 . S
Mg52 O61 2.048 . S
Mg52 O64 2.141 . S
C53 O54 1.313 . S
C53 O60 1.195 . S
O54 C53 1.313 . S
C55 O56 1.245 . S
C55 O64 1.289 . S
O56 C55 1.245 . S
C57 O58 1.245 . S
C57 O59 1.289 . S
O58 C57 1.245 . S
O59 Mg52 2.141 . S
O59 C57 1.289 . S
O60 Mg52 2.048 . S
O60 C53 1.195 . S
O61 Mg52 2.048 . S
O61 C62 1.195 . S
C62 O61 1.195 . S
C62 O63 1.313 . S
O63 C62 1.313 . S
O64 Mg52 2.141 . S
O64 C55 1.289 . S
Mg65 O72 2.141 . S
Mg65 O73 2.048 . S
Mg65 O74 2.048 . S
Mg65 O77 2.141 . S
C66 O67 1.313 . S
C66 O73 1.195 . S
O67 C66 1.313 . S
C68 O69 1.245 . S
C68 O77 1.289 . S
O69 C68 1.245 . S
C70 O71 1.245 . S
C70 O72 1.289 . S
O71 C70 1.245 . S
O72 Mg65 2.141 . S
O72 C70 1.289 . S
O73 Mg65 2.048 . S
O73 C66 1.195 . S
O74 Mg65 2.048 . S
O74 C75 1.195 . S
C75 O74 1.195 . S
C75 O76 1.313 . S
O76 C75 1.313 . S
O77 Mg65 2.141 . S
O77 C68 1.289 . S
Mg78 O85 2.141 . S
Mg78 O86 2.048 . S
Mg78 O87 2.048 . S
Mg78 O90 2.141 . S
C79 O80 1.313 . S
C79 O86 1.195 . S
O80 C79 1.313 . S
C81 O82 1.245 . S
C81 O90 1.289 . S
O82 C81 1.245 . S
C83 O84 1.245 . S
C83 O85 1.289 . S
O84 C83 1.245 . S
O85 Mg78 2.141 . S
O85 C83 1.289 . S
O86 Mg78 2.048 . S
O86 C79 1.195 . S
O87 Mg78 2.048 . S
O87 C88 1.195 . S
C88 O87 1.195 . S
C88 O89 1.313 . S
O89 C88 1.313 . S
O90 Mg78 2.141 . S
O90 C81 1.289 . S
Mg91 O98 2.141 . S
Mg91 O99 2.048 . S
Mg91 O100 2.048 . S
Mg91 O103 2.141 . S
C92 O93 1.313 . S
C92 O99 1.195 . S
O93 C92 1.313 . S
C94 O95 1.245 . S
C94 O103 1.289 . S
O95 C94 1.245 . S
C96 O97 1.245 . S
C96 O98 1.289 . S
O97 C96 1.245 . S
O98 Mg91 2.141 . S
O98 C96 1.289 . S
O99 Mg91 2.048 . S
O99 C92 1.195 . S
O100 Mg91 2.048 . S
O100 C101 1.195 . S
C101 O100 1.195 . S
C101 O102 1.313 . S
O102 C101 1.313 . S
O103 Mg91 2.141 . S
O103 C94 1.289 . S
Mg104 O111 2.141 . S
Mg104 O112 2.048 . S
Mg104 O113 2.048 . S
Mg104 O116 2.141 . S
C105 O106 1.313 . S
C105 O112 1.195 . S
O106 C105 1.313 . S
C107 O108 1.245 . S
C107 O116 1.289 . S
O108 C107 1.245 . S
C109 O110 1.245 . S
C109 O111 1.289 . S
O110 C109 1.245 . S
O111 Mg104 2.141 . S
O111 C109 1.289 . S
O112 Mg104 2.048 . S
O112 C105 1.195 . S
O113 Mg104 2.048 . S
O113 C114 1.195 . S
C114 O113 1.195 . S
C114 O115 1.313 . S
O115 C114 1.313 . S
O116 Mg104 2.141 . S
O116 C107 1.289 . S
Mg117 O124 2.141 . S
Mg117 O125 2.048 . S
Mg117 O126 2.048 . S
Mg117 O129 2.141 . S
C118 O119 1.313 . S
C118 O125 1.195 . S
O119 C118 1.313 . S
C120 O121 1.245 . S
C120 O129 1.289 . S
O121 C120 1.245 . S
C122 O123 1.245 . S
C122 O124 1.289 . S
O123 C122 1.245 . S
O124 Mg117 2.141 . S
O124 C122 1.289 . S
O125 Mg117 2.048 . S
O125 C118 1.195 . S
O126 Mg117 2.048 . S
O126 C127 1.195 . S
C127 O126 1.195 . S
C127 O128 1.313 . S
O128 C127 1.313 . S
O129 Mg117 2.141 . S
O129 C120 1.289 . S
Mg130 O137 2.141 . S
Mg130 O138 2.048 . S
Mg130 O139 2.048 . S
Mg130 O142 2.141 . S
C131 O132 1.313 . S
C131 O138 1.195 . S
O132 C131 1.313 . S
C133 O134 1.245 . S
C133 O142 1.289 . S
O134 C133 1.245 . S
C135 O136 1.245 . S
C135 O137 1.289 . S
O136 C135 1.245 . S
O137 Mg130 2.141 . S
O137 C135 1.289 . S
O138 Mg130 2.048 . S
O138 C131 1.195 . S
O139 Mg130 2.048 . S
O139 C140 1.195 . S
C140 O139 1.195 . S
C140 O141 1.313 . S
O141 C140 1.313 . S
O142 Mg130 2.141 . S
O142 C133 1.289 . S
Mg143 O150 2.141 . S
Mg143 O151 2.048 . S
Mg143 O152 2.048 . S
Mg143 O155 2.141 . S
C144 O145 1.313 . S
C144 O151 1.195 . S
O145 C144 1.313 . S
C146 O147 1.245 . S
C146 O155 1.289 . S
O147 C146 1.245 . S
C148 O149 1.245 . S
C148 O150 1.289 . S
O149 C148 1.245 . S
O150 Mg143 2.141 . S
O150 C148 1.289 . S
O151 Mg143 2.048 . S
O151 C144 1.195 . S
O152 Mg143 2.048 . S
O152 C153 1.195 . S
C153 O152 1.195 . S
C153 O154 1.313 . S
O154 C153 1.313 . S
O155 Mg143 2.141 . S
O155 C146 1.289 . S
Mg156 O163 2.141 . S
Mg156 O164 2.048 . S
Mg156 O165 2.048 . S
Mg156 O168 2.141 . S
C157 O158 1.313 . S
C157 O164 1.195 . S
O158 C157 1.313 . S
C159 O160 1.245 . S
C159 O168 1.289 . S
O160 C159 1.245 . S
C161 O162 1.245 . S
C161 O163 1.289 . S
O162 C161 1.245 . S
O163 Mg156 2.141 . S
O163 C161 1.289 . S
O164 Mg156 2.048 . S
O164 C157 1.195 . S
O165 Mg156 2.048 . S
O165 C166 1.195 . S
C166 O165 1.195 . S
C166 O167 1.313 . S
O167 C166 1.313 . S
O168 Mg156 2.141 . S
O168 C159 1.289 . S
Mg169 O176 2.141 . S
Mg169 O177 2.048 . S
Mg169 O178 2.048 . S
Mg169 O181 2.141 . S
C170 O171 1.313 . S
C170 O177 1.195 . S
O171 C170 1.313 . S
C172 O173 1.245 . S
C172 O181 1.289 . S
O173 C172 1.245 . S
C174 O175 1.245 . S
C174 O176 1.289 . S
O175 C174 1.245 . S
O176 Mg169 2.141 . S
O176 C174 1.289 . S
O177 Mg169 2.048 . S
O177 C170 1.195 . S
O178 Mg169 2.048 . S
O178 C179 1.195 . S
C179 O178 1.195 . S
C179 O180 1.313 . S
O180 C179 1.313 . S
O181 Mg169 2.141 . S
O181 C172 1.289 . S
Mg182 O189 2.141 . S
Mg182 O190 2.048 . S
Mg182 O191 2.048 . S
Mg182 O194 2.141 . S
C183 O184 1.313 . S
C183 O190 1.195 . S
O184 C183 1.313 . S
C185 O186 1.245 . S
C185 O194 1.289 . S
O186 C185 1.245 . S
C187 O188 1.245 . S
C187 O189 1.289 . S
O188 C187 1.245 . S
O189 Mg182 2.141 . S
O189 C187 1.289 . S
O190 Mg182 2.048 . S
O190 C183 1.195 . S
O191 Mg182 2.048 . S
O191 C192 1.195 . S
C192 O191 1.195 . S
C192 O193 1.313 . S
O193 C192 1.313 . S
O194 Mg182 2.141 . S
O194 C185 1.289 . S
Mg195 O202 2.141 . S
Mg195 O203 2.048 . S
Mg195 O204 2.048 . S
Mg195 O207 2.141 . S
C196 O197 1.313 . S
C196 O203 1.195 . S
O197 C196 1.313 . S
C198 O199 1.245 . S
C198 O207 1.289 . S
O199 C198 1.245 . S
C200 O201 1.245 . S
C200 O202 1.289 . S
O201 C200 1.245 . S
O202 Mg195 2.141 . S
O202 C200 1.289 . S
O203 Mg195 2.048 . S
O203 C196 1.195 . S
O204 Mg195 2.048 . S
O204 C205 1.195 . S
C205 O204 1.195 . S
C205 O206 1.313 . S
O206 C205 1.313 . S
O207 Mg195 2.141 . S
O207 C198 1.289 . S
Mg208 O215 2.141 . S
Mg208 O216 2.048 . S
Mg208 O217 2.048 . S
Mg208 O220 2.141 . S
C209 O210 1.313 . S
C209 O216 1.195 . S
O210 C209 1.313 . S
C211 O212 1.245 . S
C211 O220 1.289 . S
O212 C211 1.245 . S
C213 O214 1.245 . S
C213 O215 1.289 . S
O214 C213 1.245 . S
O215 Mg208 2.141 . S
O215 C213 1.289 . S
O216 Mg208 2.048 . S
O216 C209 1.195 . S
O217 Mg208 2.048 . S
O217 C218 1.195 . S
C218 O217 1.195 . S
C218 O219 1.313 . S
O219 C218 1.313 . S
O220 Mg208 2.141 . S
O220 C211 1.289 . S
Mg221 O228 2.141 . S
Mg221 O229 2.048 . S
Mg221 O230 2.048 . S
Mg221 O233 2.141 . S
C222 O223 1.313 . S
C222 O229 1.195 . S
O223 C222 1.313 . S
C224 O225 1.245 . S
C224 O233 1.289 . S
O225 C224 1.245 . S
C226 O227 1.245 . S
C226 O228 1.289 . S
O227 C226 1.245 . S
O228 Mg221 2.141 . S
O228 C226 1.289 . S
O229 Mg221 2.048 . S
O229 C222 1.195 . S
O230 Mg221 2.048 . S
O230 C231 1.195 . S
C231 O230 1.195 . S
C231 O232 1.313 . S
O232 C231 1.313 . S
O233 Mg221 2.141 . S
O233 C224 1.289 . S
Mg234 O241 2.141 . S
Mg234 O242 2.048 . S
Mg234 O243 2.048 . S
Mg234 O246 2.141 . S
C235 O236 1.313 . S
C235 O242 1.195 . S
O236 C235 1.313 . S
C237 O238 1.245 . S
C237 O246 1.289 . S
O238 C237 1.245 . S
C239 O240 1.245 . S
C239 O241 1.289 . S
O240 C239 1.245 . S
O241 Mg234 2.141 . S
O241 C239 1.289 . S
O242 Mg234 2.048 . S
O242 C235 1.195 . S
O243 Mg234 2.048 . S
O243 C244 1.195 . S
C244 O243 1.195 . S
C244 O245 1.313 . S
O245 C244 1.313 . S
O246 Mg234 2.141 . S
O246 C237 1.289 . S
Mg247 O254 2.141 . S
Mg247 O255 2.048 . S
Mg247 O256 2.048 . S
Mg247 O259 2.141 . S
C248 O249 1.313 . S
C248 O255 1.195 . S
O249 C248 1.313 . S
C250 O251 1.245 . S
C250 O259 1.289 . S
O251 C250 1.245 . S
C252 O253 1.245 . S
C252 O254 1.289 . S
O253 C252 1.245 . S
O254 Mg247 2.141 . S
O254 C252 1.289 . S
O255 Mg247 2.048 . S
O255 C248 1.195 . S
O256 Mg247 2.048 . S
O256 C257 1.195 . S
C257 O256 1.195 . S
C257 O258 1.313 . S
O258 C257 1.313 . S
O259 Mg247 2.141 . S
O259 C250 1.289 . S
Mg260 O267 2.141 . S
Mg260 O268 2.048 . S
Mg260 O269 2.048 . S
Mg260 O272 2.141 . S
C261 O262 1.313 . S
C261 O268 1.195 . S
O262 C261 1.313 . S
C263 O264 1.245 . S
C263 O272 1.289 . S
O264 C263 1.245 . S
C265 O266 1.245 . S
C265 O267 1.289 . S
O266 C265 1.245 . S
O267 Mg260 2.141 . S
O267 C265 1.289 . S
O268 Mg260 2.048 . S
O268 C261 1.195 . S
O269 Mg260 2.048 . S
O269 C270 1.195 . S
C270 O269 1.195 . S
C270 O271 1.313 . S
O271 C270 1.313 . S
O272 Mg260 2.141 . S
O272 C263 1.289 . S
Mg273 O280 2.141 . S
Mg273 O281 2.048 . S
Mg273 O282 2.048 . S
Mg273 O285 2.141 . S
C274 O275 1.313 . S
C274 O281 1.195 . S
O275 C274 1.313 . S
C276 O277 1.245 . S
C276 O285 1.289 . S
O277 C276 1.245 . S
C278 O279 1.245 . S
C278 O280 1.289 . S
O279 C278 1.245 . S
O280 Mg273 2.141 . S
O280 C278 1.289 . S
O281 Mg273 2.048 . S
O281 C274 1.195 . S
O282 Mg273 2.048 . S
O282 C283 1.195 . S
C283 O282 1.195 . S
C283 O284 1.313 . S
O284 C283 1.313 . S
O285 Mg273 2.141 . S
O285 C276 1.289 . S
Mg286 O293 2.141 . S
Mg286 O294 2.048 . S
Mg286 O295 2.048 . S
Mg286 O298 2.141 . S
C287 O288 1.313 . S
C287 O294 1.195 . S
O288 C287 1.313 . S
C289 O290 1.245 . S
C289 O298 1.289 . S
O290 C289 1.245 . S
C291 O292 1.245 . S
C291 O293 1.289 . S
O292 C291 1.245 . S
O293 Mg286 2.141 . S
O293 C291 1.289 . S
O294 Mg286 2.048 . S
O294 C287 1.195 . S
O295 Mg286 2.048 . S
O295 C296 1.195 . S
C296 O295 1.195 . S
C296 O297 1.313 . S
O297 C296 1.313 . S
O298 Mg286 2.141 . S
O298 C289 1.289 . S
Mg299 O306 2.141 . S
Mg299 O307 2.048 . S
Mg299 O308 2.048 . S
Mg299 O311 2.141 . S
C300 O301 1.313 . S
C300 O307 1.195 . S
O301 C300 1.313 . S
C302 O303 1.245 . S
C302 O311 1.289 . S
O303 C302 1.245 . S
C304 O305 1.245 . S
C304 O306 1.289 . S
O305 C304 1.245 . S
O306 Mg299 2.141 . S
O306 C304 1.289 . S
O307 Mg299 2.048 . S
O307 C300 1.195 . S
O308 Mg299 2.048 . S
O308 C309 1.195 . S
C309 O308 1.195 . S
C309 O310 1.313 . S
O310 C309 1.313 . S
O311 Mg299 2.141 . S
O311 C302 1.289 . S
C312 C313 1.391 . S
C312 C314 1.394 . S
C312 H328 0.931 . S
C313 C312 1.391 . S
C313 C317 1.376 . S
C314 C312 1.394 . S
C314 C315 1.369 . S
C314 C318 1.531 . S
C315 C314 1.369 . S
C315 C316 1.410 . S
C315 C323 1.503 . S
C316 C315 1.410 . S
C316 C317 1.392 . S
C316 C319 1.511 . S
C317 C313 1.376 . S
C317 C316 1.392 . S
C317 H329 0.929 . S
C318 C314 1.531 . S
C318 H330 0.960 . S
C318 H331 0.962 . S
C318 H332 0.960 . S
C319 C316 1.511 . S
C319 H333 0.961 . S
C319 H334 0.961 . S
C319 H335 0.961 . S
C320 C321 1.370 . S
C320 C322 1.363 . S
C320 H336 0.931 . S
C321 C320 1.370 . S
C321 C325 1.408 . S
C322 C320 1.363 . S
C322 C323 1.370 . S
C322 C326 1.524 . S
C323 C315 1.503 . S
C323 C322 1.370 . S
C323 C324 1.403 . S
C324 C323 1.403 . S
C324 C325 1.404 . S
C324 C327 1.539 . S
C325 C321 1.408 . S
C325 C324 1.404 . S
C325 H337 0.930 . S
C326 C322 1.524 . S
C326 H338 0.956 . S
C326 H339 0.961 . S
C326 H340 0.961 . S
C327 C324 1.539 . S
C327 H341 0.958 . S
C327 H342 0.961 . S
C327 H343 0.960 . S
H328 C312 0.931 . S
H329 C317 0.929 . S
H330 C318 0.960 . S
H331 C318 0.962 . S
H332 C318 0.960 . S
H333 C319 0.961 . S
H334 C319 0.961 . S
H335 C319 0.961 . S
H336 C320 0.931 . S
H337 C325 0.930 . S
H338 C326 0.956 . S
H339 C326 0.961 . S
H340 C326 0.961 . S
H341 C327 0.958 . S
H342 C327 0.961 . S
H343 C327 0.960 . S
C344 C345 1.391 . S
C344 C346 1.394 . S
C344 H360 0.931 . S
C345 C344 1.391 . S
C345 C349 1.376 . S
C346 C344 1.394 . S
C346 C347 1.369 . S
C346 C350 1.531 . S
C347 C346 1.369 . S
C347 C348 1.410 . S
C347 C355 1.503 . S
C348 C347 1.410 . S
C348 C349 1.392 . S
C348 C351 1.511 . S
C349 C345 1.376 . S
C349 C348 1.392 . S
C349 H361 0.929 . S
C350 C346 1.531 . S
C350 H362 0.960 . S
C350 H363 0.962 . S
C350 H364 0.960 . S
C351 C348 1.511 . S
C351 H365 0.961 . S
C351 H366 0.961 . S
C351 H367 0.961 . S
C352 C353 1.370 . S
C352 C354 1.363 . S
C352 H368 0.931 . S
C353 C352 1.370 . S
C353 C357 1.408 . S
C354 C352 1.363 . S
C354 C355 1.370 . S
C354 C358 1.524 . S
C355 C347 1.503 . S
C355 C354 1.370 . S
C355 C356 1.403 . S
C356 C355 1.403 . S
C356 C357 1.404 . S
C356 C359 1.539 . S
C357 C353 1.408 . S
C357 C356 1.404 . S
C357 H369 0.930 . S
C358 C354 1.524 . S
C358 H370 0.956 . S
C358 H371 0.961 . S
C358 H372 0.961 . S
C359 C356 1.539 . S
C359 H373 0.958 . S
C359 H374 0.961 . S
C359 H375 0.960 . S
H360 C344 0.931 . S
H361 C349 0.929 . S
H362 C350 0.960 . S
H363 C350 0.962 . S
H364 C350 0.960 . S
H365 C351 0.961 . S
H366 C351 0.961 . S
H367 C351 0.961 . S
H368 C352 0.931 . S
H369 C357 0.930 . S
H370 C358 0.956 . S
H371 C358 0.961 . S
H372 C358 0.961 . S
H373 C359 0.958 . S
H374 C359 0.961 . S
H375 C359 0.960 . S
C376 C377 1.391 . S
C376 C378 1.394 . S
C376 H392 0.931 . S
C377 C376 1.391 . S
C377 C381 1.376 . S
C378 C376 1.394 . S
C378 C379 1.369 . S
C378 C382 1.531 . S
C379 C378 1.369 . S
C379 C380 1.410 . S
C379 C387 1.503 . S
C380 C379 1.410 . S
C380 C381 1.392 . S
C380 C383 1.511 . S
C381 C377 1.376 . S
C381 C380 1.392 . S
C381 H393 0.929 . S
C382 C378 1.531 . S
C382 H394 0.960 . S
C382 H395 0.962 . S
C382 H396 0.960 . S
C383 C380 1.511 . S
C383 H397 0.961 . S
C383 H398 0.961 . S
C383 H399 0.961 . S
C384 C385 1.370 . S
C384 C386 1.363 . S
C384 H400 0.931 . S
C385 C384 1.370 . S
C385 C389 1.408 . S
C386 C384 1.363 . S
C386 C387 1.370 . S
C386 C390 1.524 . S
C387 C379 1.503 . S
C387 C386 1.370 . S
C387 C388 1.403 . S
C388 C387 1.403 . S
C388 C389 1.404 . S
C388 C391 1.539 . S
C389 C385 1.408 . S
C389 C388 1.404 . S
C389 H401 0.930 . S
C390 C386 1.524 . S
C390 H402 0.956 . S
C390 H403 0.961 . S
C390 H404 0.961 . S
C391 C388 1.539 . S
C391 H405 0.958 . S
C391 H406 0.961 . S
C391 H407 0.960 . S
H392 C376 0.931 . S
H393 C381 0.929 . S
H394 C382 0.960 . S
H395 C382 0.962 . S
H396 C382 0.960 . S
H397 C383 0.961 . S
H398 C383 0.961 . S
H399 C383 0.961 . S
H400 C384 0.931 . S
H401 C389 0.930 . S
H402 C390 0.956 . S
H403 C390 0.961 . S
H404 C390 0.961 . S
H405 C391 0.958 . S
H406 C391 0.961 . S
H407 C391 0.960 . S
C408 C409 1.391 . S
C408 C410 1.394 . S
C408 H424 0.931 . S
C409 C408 1.391 . S
C409 C413 1.376 . S
C410 C408 1.394 . S
C410 C411 1.369 . S
C410 C414 1.531 . S
C411 C410 1.369 . S
C411 C412 1.410 . S
C411 C419 1.503 . S
C412 C411 1.410 . S
C412 C413 1.392 . S
C412 C415 1.511 . S
C413 C409 1.376 . S
C413 C412 1.392 . S
C413 H425 0.929 . S
C414 C410 1.531 . S
C414 H426 0.960 . S
C414 H427 0.962 . S
C414 H428 0.960 . S
C415 C412 1.511 . S
C415 H429 0.961 . S
C415 H430 0.961 . S
C415 H431 0.961 . S
C416 C417 1.370 . S
C416 C418 1.363 . S
C416 H432 0.931 . S
C417 C416 1.370 . S
C417 C421 1.408 . S
C418 C416 1.363 . S
C418 C419 1.370 . S
C418 C422 1.524 . S
C419 C411 1.503 . S
C419 C418 1.370 . S
C419 C420 1.403 . S
C420 C419 1.403 . S
C420 C421 1.404 . S
C420 C423 1.539 . S
C421 C417 1.408 . S
C421 C420 1.404 . S
C421 H433 0.930 . S
C422 C418 1.524 . S
C422 H434 0.956 . S
C422 H435 0.961 . S
C422 H436 0.961 . S
C423 C420 1.539 . S
C423 H437 0.958 . S
C423 H438 0.961 . S
C423 H439 0.960 . S
H424 C408 0.931 . S
H425 C413 0.929 . S
H426 C414 0.960 . S
H427 C414 0.962 . S
H428 C414 0.960 . S
H429 C415 0.961 . S
H430 C415 0.961 . S
H431 C415 0.961 . S
H432 C416 0.931 . S
H433 C421 0.930 . S
H434 C422 0.956 . S
H435 C422 0.961 . S
H436 C422 0.961 . S
H437 C423 0.958 . S
H438 C423 0.961 . S
H439 C423 0.960 . S
C440 C441 1.391 . S
C440 C442 1.394 . S
C440 H456 0.931 . S
C441 C440 1.391 . S
C441 C445 1.376 . S
C442 C440 1.394 . S
C442 C443 1.369 . S
C442 C446 1.531 . S
C443 C442 1.369 . S
C443 C444 1.410 . S
C443 C451 1.503 . S
C444 C443 1.410 . S
C444 C445 1.392 . S
C444 C447 1.511 . S
C445 C441 1.376 . S
C445 C444 1.392 . S
C445 H457 0.929 . S
C446 C442 1.531 . S
C446 H458 0.960 . S
C446 H459 0.962 . S
C446 H460 0.960 . S
C447 C444 1.511 . S
C447 H461 0.961 . S
C447 H462 0.961 . S
C447 H463 0.961 . S
C448 C449 1.370 . S
C448 C450 1.363 . S
C448 H464 0.931 . S
C449 C448 1.370 . S
C449 C453 1.408 . S
C450 C448 1.363 . S
C450 C451 1.370 . S
C450 C454 1.524 . S
C451 C443 1.503 . S
C451 C450 1.370 . S
C451 C452 1.403 . S
C452 C451 1.403 . S
C452 C453 1.404 . S
C452 C455 1.539 . S
C453 C449 1.408 . S
C453 C452 1.404 . S
C453 H465 0.930 . S
C454 C450 1.524 . S
C454 H466 0.956 . S
C454 H467 0.961 . S
C454 H468 0.961 . S
C455 C452 1.539 . S
C455 H469 0.958 . S
C455 H470 0.961 . S
C455 H471 0.960 . S
H456 C440 0.931 . S
H457 C445 0.929 . S
H458 C446 0.960 . S
H459 C446 0.962 . S
H460 C446 0.960 . S
H461 C447 0.961 . S
H462 C447 0.961 . S
H463 C447 0.961 . S
H464 C448 0.931 . S
H465 C453 0.930 . S
H466 C454 0.956 . S
H467 C454 0.961 . S
H468 C454 0.961 . S
H469 C455 0.958 . S
H470 C455 0.961 . S
H471 C455 0.960 . S
C472 C473 1.391 . S
C472 C474 1.394 . S
C472 H488 0.931 . S
C473 C472 1.391 . S
C473 C477 1.376 . S
C474 C472 1.394 . S
C474 C475 1.369 . S
C474 C478 1.531 . S
C475 C474 1.369 . S
C475 C476 1.410 . S
C475 C483 1.503 . S
C476 C475 1.410 . S
C476 C477 1.392 . S
C476 C479 1.511 . S
C477 C473 1.376 . S
C477 C476 1.392 . S
C477 H489 0.929 . S
C478 C474 1.531 . S
C478 H490 0.960 . S
C478 H491 0.962 . S
C478 H492 0.960 . S
C479 C476 1.511 . S
C479 H493 0.961 . S
C479 H494 0.961 . S
C479 H495 0.961 . S
C480 C481 1.370 . S
C480 C482 1.363 . S
C480 H496 0.931 . S
C481 C480 1.370 . S
C481 C485 1.408 . S
C482 C480 1.363 . S
C482 C483 1.370 . S
C482 C486 1.524 . S
C483 C475 1.503 . S
C483 C482 1.370 . S
C483 C484 1.403 . S
C484 C483 1.403 . S
C484 C485 1.404 . S
C484 C487 1.539 . S
C485 C481 1.408 . S
C485 C484 1.404 . S
C485 H497 0.930 . S
C486 C482 1.524 . S
C486 H498 0.956 . S
C486 H499 0.961 . S
C486 H500 0.961 . S
C487 C484 1.539 . S
C487 H501 0.958 . S
C487 H502 0.961 . S
C487 H503 0.960 . S
H488 C472 0.931 . S
H489 C477 0.929 . S
H490 C478 0.960 . S
H491 C478 0.962 . S
H492 C478 0.960 . S
H493 C479 0.961 . S
H494 C479 0.961 . S
H495 C479 0.961 . S
H496 C480 0.931 . S
H497 C485 0.930 . S
H498 C486 0.956 . S
H499 C486 0.961 . S
H500 C486 0.961 . S
H501 C487 0.958 . S
H502 C487 0.961 . S
H503 C487 0.960 . S
C504 C505 1.391 . S
C504 C506 1.394 . S
C504 H520 0.931 . S
C505 C504 1.391 . S
C505 C509 1.376 . S
C506 C504 1.394 . S
C506 C507 1.369 . S
C506 C510 1.531 . S
C507 C506 1.369 . S
C507 C508 1.410 . S
C507 C515 1.503 . S
C508 C507 1.410 . S
C508 C509 1.392 . S
C508 C511 1.511 . S
C509 C505 1.376 . S
C509 C508 1.392 . S
C509 H521 0.929 . S
C510 C506 1.531 . S
C510 H522 0.960 . S
C510 H523 0.962 . S
C510 H524 0.960 . S
C511 C508 1.511 . S
C511 H525 0.961 . S
C511 H526 0.961 . S
C511 H527 0.961 . S
C512 C513 1.370 . S
C512 C514 1.363 . S
C512 H528 0.931 . S
C513 C512 1.370 . S
C513 C517 1.408 . S
C514 C512 1.363 . S
C514 C515 1.370 . S
C514 C518 1.524 . S
C515 C507 1.503 . S
C515 C514 1.370 . S
C515 C516 1.403 . S
C516 C515 1.403 . S
C516 C517 1.404 . S
C516 C519 1.539 . S
C517 C513 1.408 . S
C517 C516 1.404 . S
C517 H529 0.930 . S
C518 C514 1.524 . S
C518 H530 0.956 . S
C518 H531 0.961 . S
C518 H532 0.961 . S
C519 C516 1.539 . S
C519 H533 0.958 . S
C519 H534 0.961 . S
C519 H535 0.960 . S
H520 C504 0.931 . S
H521 C509 0.929 . S
H522 C510 0.960 . S
H523 C510 0.962 . S
H524 C510 0.960 . S
H525 C511 0.961 . S
H526 C511 0.961 . S
H527 C511 0.961 . S
H528 C512 0.931 . S
H529 C517 0.930 . S
H530 C518 0.956 . S
H531 C518 0.961 . S
H532 C518 0.961 . S
H533 C519 0.958 . S
H534 C519 0.961 . S
H535 C519 0.960 . S
C536 C537 1.391 . S
C536 C538 1.394 . S
C536 H552 0.931 . S
C537 C536 1.391 . S
C537 C541 1.376 . S
C538 C536 1.394 . S
C538 C539 1.369 . S
C538 C542 1.531 . S
C539 C538 1.369 . S
C539 C540 1.410 . S
C539 C547 1.503 . S
C540 C539 1.410 . S
C540 C541 1.392 . S
C540 C543 1.511 . S
C541 C537 1.376 . S
C541 C540 1.392 . S
C541 H553 0.929 . S
C542 C538 1.531 . S
C542 H554 0.960 . S
C542 H555 0.962 . S
C542 H556 0.960 . S
C543 C540 1.511 . S
C543 H557 0.961 . S
C543 H558 0.961 . S
C543 H559 0.961 . S
C544 C545 1.370 . S
C544 C546 1.363 . S
C544 H560 0.931 . S
C545 C544 1.370 . S
C545 C549 1.408 . S
C546 C544 1.363 . S
C546 C547 1.370 . S
C546 C550 1.524 . S
C547 C539 1.503 . S
C547 C546 1.370 . S
C547 C548 1.403 . S
C548 C547 1.403 . S
C548 C549 1.404 . S
C548 C551 1.539 . S
C549 C545 1.408 . S
C549 C548 1.404 . S
C549 H561 0.930 . S
C550 C546 1.524 . S
C550 H562 0.956 . S
C550 H563 0.961 . S
C550 H564 0.961 . S
C551 C548 1.539 . S
C551 H565 0.958 . S
C551 H566 0.961 . S
C551 H567 0.960 . S
H552 C536 0.931 . S
H553 C541 0.929 . S
H554 C542 0.960 . S
H555 C542 0.962 . S
H556 C542 0.960 . S
H557 C543 0.961 . S
H558 C543 0.961 . S
H559 C543 0.961 . S
H560 C544 0.931 . S
H561 C549 0.930 . S
H562 C550 0.956 . S
H563 C550 0.961 . S
H564 C550 0.961 . S
H565 C551 0.958 . S
H566 C551 0.961 . S
H567 C551 0.960 . S
C568 C569 1.391 . S
C568 C570 1.394 . S
C568 H584 0.931 . S
C569 C568 1.391 . S
C569 C573 1.376 . S
C570 C568 1.394 . S
C570 C571 1.369 . S
C570 C574 1.531 . S
C571 C570 1.369 . S
C571 C572 1.410 . S
C571 C579 1.503 . S
C572 C571 1.410 . S
C572 C573 1.392 . S
C572 C575 1.511 . S
C573 C569 1.376 . S
C573 C572 1.392 . S
C573 H585 0.929 . S
C574 C570 1.531 . S
C574 H586 0.960 . S
C574 H587 0.962 . S
C574 H588 0.960 . S
C575 C572 1.511 . S
C575 H589 0.961 . S
C575 H590 0.961 . S
C575 H591 0.961 . S
C576 C577 1.370 . S
C576 C578 1.363 . S
C576 H592 0.931 . S
C577 C576 1.370 . S
C577 C581 1.408 . S
C578 C576 1.363 . S
C578 C579 1.370 . S
C578 C582 1.524 . S
C579 C571 1.503 . S
C579 C578 1.370 . S
C579 C580 1.403 . S
C580 C579 1.403 . S
C580 C581 1.404 . S
C580 C583 1.539 . S
C581 C577 1.408 . S
C581 C580 1.404 . S
C581 H593 0.930 . S
C582 C578 1.524 . S
C582 H594 0.956 . S
C582 H595 0.961 . S
C582 H596 0.961 . S
C583 C580 1.539 . S
C583 H597 0.958 . S
C583 H598 0.961 . S
C583 H599 0.960 . S
H584 C568 0.931 . S
H585 C573 0.929 . S
H586 C574 0.960 . S
H587 C574 0.962 . S
H588 C574 0.960 . S
H589 C575 0.961 . S
H590 C575 0.961 . S
H591 C575 0.961 . S
H592 C576 0.931 . S
H593 C581 0.930 . S
H594 C582 0.956 . S
H595 C582 0.961 . S
H596 C582 0.961 . S
H597 C583 0.958 . S
H598 C583 0.961 . S
H599 C583 0.960 . S
C600 C601 1.391 . S
C600 C602 1.394 . S
C600 H616 0.931 . S
C601 C600 1.391 . S
C601 C605 1.376 . S
C602 C600 1.394 . S
C602 C603 1.369 . S
C602 C606 1.531 . S
C603 C602 1.369 . S
C603 C604 1.410 . S
C603 C611 1.503 . S
C604 C603 1.410 . S
C604 C605 1.392 . S
C604 C607 1.511 . S
C605 C601 1.376 . S
C605 C604 1.392 . S
C605 H617 0.929 . S
C606 C602 1.531 . S
C606 H618 0.960 . S
C606 H619 0.962 . S
C606 H620 0.960 . S
C607 C604 1.511 . S
C607 H621 0.961 . S
C607 H622 0.961 . S
C607 H623 0.961 . S
C608 C609 1.370 . S
C608 C610 1.363 . S
C608 H624 0.931 . S
C609 C608 1.370 . S
C609 C613 1.408 . S
C610 C608 1.363 . S
C610 C611 1.370 . S
C610 C614 1.524 . S
C611 C603 1.503 . S
C611 C610 1.370 . S
C611 C612 1.403 . S
C612 C611 1.403 . S
C612 C613 1.404 . S
C612 C615 1.539 . S
C613 C609 1.408 . S
C613 C612 1.404 . S
C613 H625 0.930 . S
C614 C610 1.524 . S
C614 H626 0.956 . S
C614 H627 0.961 . S
C614 H628 0.961 . S
C615 C612 1.539 . S
C615 H629 0.958 . S
C615 H630 0.961 . S
C615 H631 0.960 . S
H616 C600 0.931 . S
H617 C605 0.929 . S
H618 C606 0.960 . S
H619 C606 0.962 . S
H620 C606 0.960 . S
H621 C607 0.961 . S
H622 C607 0.961 . S
H623 C607 0.961 . S
H624 C608 0.931 . S
H625 C613 0.930 . S
H626 C614 0.956 . S
H627 C614 0.961 . S
H628 C614 0.961 . S
H629 C615 0.958 . S
H630 C615 0.961 . S
H631 C615 0.960 . S
C632 C633 1.391 . S
C632 C634 1.394 . S
C632 H648 0.931 . S
C633 C632 1.391 . S
C633 C637 1.376 . S
C634 C632 1.394 . S
C634 C635 1.369 . S
C634 C638 1.531 . S
C635 C634 1.369 . S
C635 C636 1.410 . S
C635 C643 1.503 . S
C636 C635 1.410 . S
C636 C637 1.392 . S
C636 C639 1.511 . S
C637 C633 1.376 . S
C637 C636 1.392 . S
C637 H649 0.929 . S
C638 C634 1.531 . S
C638 H650 0.960 . S
C638 H651 0.962 . S
C638 H652 0.960 . S
C639 C636 1.511 . S
C639 H653 0.961 . S
C639 H654 0.961 . S
C639 H655 0.961 . S
C640 C641 1.370 . S
C640 C642 1.363 . S
C640 H656 0.931 . S
C641 C640 1.370 . S
C641 C645 1.408 . S
C642 C640 1.363 . S
C642 C643 1.370 . S
C642 C646 1.524 . S
C643 C635 1.503 . S
C643 C642 1.370 . S
C643 C644 1.403 . S
C644 C643 1.403 . S
C644 C645 1.404 . S
C644 C647 1.539 . S
C645 C641 1.408 . S
C645 C644 1.404 . S
C645 H657 0.930 . S
C646 C642 1.524 . S
C646 H658 0.956 . S
C646 H659 0.961 . S
C646 H660 0.961 . S
C647 C644 1.539 . S
C647 H661 0.958 . S
C647 H662 0.961 . S
C647 H663 0.960 . S
H648 C632 0.931 . S
H649 C637 0.929 . S
H650 C638 0.960 . S
H651 C638 0.962 . S
H652 C638 0.960 . S
H653 C639 0.961 . S
H654 C639 0.961 . S
H655 C639 0.961 . S
H656 C640 0.931 . S
H657 C645 0.930 . S
H658 C646 0.956 . S
H659 C646 0.961 . S
H660 C646 0.961 . S
H661 C647 0.958 . S
H662 C647 0.961 . S
H663 C647 0.960 . S
C664 C665 1.391 . S
C664 C666 1.394 . S
C664 H680 0.931 . S
C665 C664 1.391 . S
C665 C669 1.376 . S
C666 C664 1.394 . S
C666 C667 1.369 . S
C666 C670 1.531 . S
C667 C666 1.369 . S
C667 C668 1.410 . S
C667 C675 1.503 . S
C668 C667 1.410 . S
C668 C669 1.392 . S
C668 C671 1.511 . S
C669 C665 1.376 . S
C669 C668 1.392 . S
C669 H681 0.929 . S
C670 C666 1.531 . S
C670 H682 0.960 . S
C670 H683 0.962 . S
C670 H684 0.960 . S
C671 C668 1.511 . S
C671 H685 0.961 . S
C671 H686 0.961 . S
C671 H687 0.961 . S
C672 C673 1.370 . S
C672 C674 1.363 . S
C672 H688 0.931 . S
C673 C672 1.370 . S
C673 C677 1.408 . S
C674 C672 1.363 . S
C674 C675 1.370 . S
C674 C678 1.524 . S
C675 C667 1.503 . S
C675 C674 1.370 . S
C675 C676 1.403 . S
C676 C675 1.403 . S
C676 C677 1.404 . S
C676 C679 1.539 . S
C677 C673 1.408 . S
C677 C676 1.404 . S
C677 H689 0.930 . S
C678 C674 1.524 . S
C678 H690 0.956 . S
C678 H691 0.961 . S
C678 H692 0.961 . S
C679 C676 1.539 . S
C679 H693 0.958 . S
C679 H694 0.961 . S
C679 H695 0.960 . S
H680 C664 0.931 . S
H681 C669 0.929 . S
H682 C670 0.960 . S
H683 C670 0.962 . S
H684 C670 0.960 . S
H685 C671 0.961 . S
H686 C671 0.961 . S
H687 C671 0.961 . S
H688 C672 0.931 . S
H689 C677 0.930 . S
H690 C678 0.956 . S
H691 C678 0.961 . S
H692 C678 0.961 . S
H693 C679 0.958 . S
H694 C679 0.961 . S
H695 C679 0.960 . S
C696 C697 1.391 . S
C696 C698 1.394 . S
C696 H712 0.931 . S
C697 C696 1.391 . S
C697 C701 1.376 . S
C698 C696 1.394 . S
C698 C699 1.369 . S
C698 C702 1.531 . S
C699 C698 1.369 . S
C699 C700 1.410 . S
C699 C707 1.503 . S
C700 C699 1.410 . S
C700 C701 1.392 . S
C700 C703 1.511 . S
C701 C697 1.376 . S
C701 C700 1.392 . S
C701 H713 0.929 . S
C702 C698 1.531 . S
C702 H714 0.960 . S
C702 H715 0.962 . S
C702 H716 0.960 . S
C703 C700 1.511 . S
C703 H717 0.961 . S
C703 H718 0.961 . S
C703 H719 0.961 . S
C704 C705 1.370 . S
C704 C706 1.363 . S
C704 H720 0.931 . S
C705 C704 1.370 . S
C705 C709 1.408 . S
C706 C704 1.363 . S
C706 C707 1.370 . S
C706 C710 1.524 . S
C707 C699 1.503 . S
C707 C706 1.370 . S
C707 C708 1.403 . S
C708 C707 1.403 . S
C708 C709 1.404 . S
C708 C711 1.539 . S
C709 C705 1.408 . S
C709 C708 1.404 . S
C709 H721 0.930 . S
C710 C706 1.524 . S
C710 H722 0.956 . S
C710 H723 0.961 . S
C710 H724 0.961 . S
C711 C708 1.539 . S
C711 H725 0.958 . S
C711 H726 0.961 . S
C711 H727 0.960 . S
H712 C696 0.931 . S
H713 C701 0.929 . S
H714 C702 0.960 . S
H715 C702 0.962 . S
H716 C702 0.960 . S
H717 C703 0.961 . S
H718 C703 0.961 . S
H719 C703 0.961 . S
H720 C704 0.931 . S
H721 C709 0.930 . S
H722 C710 0.956 . S
H723 C710 0.961 . S
H724 C710 0.961 . S
H725 C711 0.958 . S
H726 C711 0.961 . S
H727 C711 0.960 . S
C728 C729 1.391 . S
C728 C730 1.394 . S
C728 H744 0.931 . S
C729 C728 1.391 . S
C729 C733 1.376 . S
C730 C728 1.394 . S
C730 C731 1.369 . S
C730 C734 1.531 . S
C731 C730 1.369 . S
C731 C732 1.410 . S
C731 C739 1.503 . S
C732 C731 1.410 . S
C732 C733 1.392 . S
C732 C735 1.511 . S
C733 C729 1.376 . S
C733 C732 1.392 . S
C733 H745 0.929 . S
C734 C730 1.531 . S
C734 H746 0.960 . S
C734 H747 0.962 . S
C734 H748 0.960 . S
C735 C732 1.511 . S
C735 H749 0.961 . S
C735 H750 0.961 . S
C735 H751 0.961 . S
C736 C737 1.370 . S
C736 C738 1.363 . S
C736 H752 0.931 . S
C737 C736 1.370 . S
C737 C741 1.408 . S
C738 C736 1.363 . S
C738 C739 1.370 . S
C738 C742 1.524 . S
C739 C731 1.503 . S
C739 C738 1.370 . S
C739 C740 1.403 . S
C740 C739 1.403 . S
C740 C741 1.404 . S
C740 C743 1.539 . S
C741 C737 1.408 . S
C741 C740 1.404 . S
C741 H753 0.930 . S
C742 C738 1.524 . S
C742 H754 0.956 . S
C742 H755 0.961 . S
C742 H756 0.961 . S
C743 C740 1.539 . S
C743 H757 0.958 . S
C743 H758 0.961 . S
C743 H759 0.960 . S
H744 C728 0.931 . S
H745 C733 0.929 . S
H746 C734 0.960 . S
H747 C734 0.962 . S
H748 C734 0.960 . S
H749 C735 0.961 . S
H750 C735 0.961 . S
H751 C735 0.961 . S
H752 C736 0.931 . S
H753 C741 0.930 . S
H754 C742 0.956 . S
H755 C742 0.961 . S
H756 C742 0.961 . S
H757 C743 0.958 . S
H758 C743 0.961 . S
H759 C743 0.960 . S
C760 C761 1.391 . S
C760 C762 1.394 . S
C760 H776 0.931 . S
C761 C760 1.391 . S
C761 C765 1.376 . S
C762 C760 1.394 . S
C762 C763 1.369 . S
C762 C766 1.531 . S
C763 C762 1.369 . S
C763 C764 1.410 . S
C763 C771 1.503 . S
C764 C763 1.410 . S
C764 C765 1.392 . S
C764 C767 1.511 . S
C765 C761 1.376 . S
C765 C764 1.392 . S
C765 H777 0.929 . S
C766 C762 1.531 . S
C766 H778 0.960 . S
C766 H779 0.962 . S
C766 H780 0.960 . S
C767 C764 1.511 . S
C767 H781 0.961 . S
C767 H782 0.961 . S
C767 H783 0.961 . S
C768 C769 1.370 . S
C768 C770 1.363 . S
C768 H784 0.931 . S
C769 C768 1.370 . S
C769 C773 1.408 . S
C770 C768 1.363 . S
C770 C771 1.370 . S
C770 C774 1.524 . S
C771 C763 1.503 . S
C771 C770 1.370 . S
C771 C772 1.403 . S
C772 C771 1.403 . S
C772 C773 1.404 . S
C772 C775 1.539 . S
C773 C769 1.408 . S
C773 C772 1.404 . S
C773 H785 0.930 . S
C774 C770 1.524 . S
C774 H786 0.956 . S
C774 H787 0.961 . S
C774 H788 0.961 . S
C775 C772 1.539 . S
C775 H789 0.958 . S
C775 H790 0.961 . S
C775 H791 0.960 . S
H776 C760 0.931 . S
H777 C765 0.929 . S
H778 C766 0.960 . S
H779 C766 0.962 . S
H780 C766 0.960 . S
H781 C767 0.961 . S
H782 C767 0.961 . S
H783 C767 0.961 . S
H784 C768 0.931 . S
H785 C773 0.930 . S
H786 C774 0.956 . S
H787 C774 0.961 . S
H788 C774 0.961 . S
H789 C775 0.958 . S
H790 C775 0.961 . S
H791 C775 0.960 . S
C792 C793 1.391 . S
C792 C794 1.394 . S
C792 H808 0.931 . S
C793 C792 1.391 . S
C793 C797 1.376 . S
C794 C792 1.394 . S
C794 C795 1.369 . S
C794 C798 1.531 . S
C795 C794 1.369 . S
C795 C796 1.410 . S
C795 C803 1.503 . S
C796 C795 1.410 . S
C796 C797 1.392 . S
C796 C799 1.511 . S
C797 C793 1.376 . S
C797 C796 1.392 . S
C797 H809 0.929 . S
C798 C794 1.531 . S
C798 H810 0.960 . S
C798 H811 0.962 . S
C798 H812 0.960 . S
C799 C796 1.511 . S
C799 H813 0.961 . S
C799 H814 0.961 . S
C799 H815 0.961 . S
C800 C801 1.370 . S
C800 C802 1.363 . S
C800 H816 0.931 . S
C801 C800 1.370 . S
C801 C805 1.408 . S
C802 C800 1.363 . S
C802 C803 1.370 . S
C802 C806 1.524 . S
C803 C795 1.503 . S
C803 C802 1.370 . S
C803 C804 1.403 . S
C804 C803 1.403 . S
C804 C805 1.404 . S
C804 C807 1.539 . S
C805 C801 1.408 . S
C805 C804 1.404 . S
C805 H817 0.930 . S
C806 C802 1.524 . S
C806 H818 0.956 . S
C806 H819 0.961 . S
C806 H820 0.961 . S
C807 C804 1.539 . S
C807 H821 0.958 . S
C807 H822 0.961 . S
C807 H823 0.960 . S
H808 C792 0.931 . S
H809 C797 0.929 . S
H810 C798 0.960 . S
H811 C798 0.962 . S
H812 C798 0.960 . S
H813 C799 0.961 . S
H814 C799 0.961 . S
H815 C799 0.961 . S
H816 C800 0.931 . S
H817 C805 0.930 . S
H818 C806 0.956 . S
H819 C806 0.961 . S
H820 C806 0.961 . S
H821 C807 0.958 . S
H822 C807 0.961 . S
H823 C807 0.960 . S
C824 C825 1.391 . S
C824 C826 1.394 . S
C824 H840 0.931 . S
C825 C824 1.391 . S
C825 C829 1.376 . S
C826 C824 1.394 . S
C826 C827 1.369 . S
C826 C830 1.531 . S
C827 C826 1.369 . S
C827 C828 1.410 . S
C827 C835 1.503 . S
C828 C827 1.410 . S
C828 C829 1.392 . S
C828 C831 1.511 . S
C829 C825 1.376 . S
C829 C828 1.392 . S
C829 H841 0.929 . S
C830 C826 1.531 . S
C830 H842 0.960 . S
C830 H843 0.962 . S
C830 H844 0.960 . S
C831 C828 1.511 . S
C831 H845 0.961 . S
C831 H846 0.961 . S
C831 H847 0.961 . S
C832 C833 1.370 . S
C832 C834 1.363 . S
C832 H848 0.931 . S
C833 C832 1.370 . S
C833 C837 1.408 . S
C834 C832 1.363 . S
C834 C835 1.370 . S
C834 C838 1.524 . S
C835 C827 1.503 . S
C835 C834 1.370 . S
C835 C836 1.403 . S
C836 C835 1.403 . S
C836 C837 1.404 . S
C836 C839 1.539 . S
C837 C833 1.408 . S
C837 C836 1.404 . S
C837 H849 0.930 . S
C838 C834 1.524 . S
C838 H850 0.956 . S
C838 H851 0.961 . S
C838 H852 0.961 . S
C839 C836 1.539 . S
C839 H853 0.958 . S
C839 H854 0.961 . S
C839 H855 0.960 . S
H840 C824 0.931 . S
H841 C829 0.929 . S
H842 C830 0.960 . S
H843 C830 0.962 . S
H844 C830 0.960 . S
H845 C831 0.961 . S
H846 C831 0.961 . S
H847 C831 0.961 . S
H848 C832 0.931 . S
H849 C837 0.930 . S
H850 C838 0.956 . S
H851 C838 0.961 . S
H852 C838 0.961 . S
H853 C839 0.958 . S
H854 C839 0.961 . S
H855 C839 0.960 . S
C856 C857 1.391 . S
C856 C858 1.394 . S
C856 H872 0.931 . S
C857 C856 1.391 . S
C857 C861 1.376 . S
C858 C856 1.394 . S
C858 C859 1.369 . S
C858 C862 1.531 . S
C859 C858 1.369 . S
C859 C860 1.410 . S
C859 C867 1.503 . S
C860 C859 1.410 . S
C860 C861 1.392 . S
C860 C863 1.511 . S
C861 C857 1.376 . S
C861 C860 1.392 . S
C861 H873 0.929 . S
C862 C858 1.531 . S
C862 H874 0.960 . S
C862 H875 0.962 . S
C862 H876 0.960 . S
C863 C860 1.511 . S
C863 H877 0.961 . S
C863 H878 0.961 . S
C863 H879 0.961 . S
C864 C865 1.370 . S
C864 C866 1.363 . S
C864 H880 0.931 . S
C865 C864 1.370 . S
C865 C869 1.408 . S
C866 C864 1.363 . S
C866 C867 1.370 . S
C866 C870 1.524 . S
C867 C859 1.503 . S
C867 C866 1.370 . S
C867 C868 1.403 . S
C868 C867 1.403 . S
C868 C869 1.404 . S
C868 C871 1.539 . S
C869 C865 1.408 . S
C869 C868 1.404 . S
C869 H881 0.930 . S
C870 C866 1.524 . S
C870 H882 0.956 . S
C870 H883 0.961 . S
C870 H884 0.961 . S
C871 C868 1.539 . S
C871 H885 0.958 . S
C871 H886 0.961 . S
C871 H887 0.960 . S
H872 C856 0.931 . S
H873 C861 0.929 . S
H874 C862 0.960 . S
H875 C862 0.962 . S
H876 C862 0.960 . S
H877 C863 0.961 . S
H878 C863 0.961 . S
H879 C863 0.961 . S
H880 C864 0.931 . S
H881 C869 0.930 . S
H882 C870 0.956 . S
H883 C870 0.961 . S
H884 C870 0.961 . S
H885 C871 0.958 . S
H886 C871 0.961 . S
H887 C871 0.960 . S
C888 C889 1.391 . S
C888 C890 1.394 . S
C888 H904 0.931 . S
C889 C888 1.391 . S
C889 C893 1.376 . S
C890 C888 1.394 . S
C890 C891 1.369 . S
C890 C894 1.531 . S
C891 C890 1.369 . S
C891 C892 1.410 . S
C891 C899 1.503 . S
C892 C891 1.410 . S
C892 C893 1.392 . S
C892 C895 1.511 . S
C893 C889 1.376 . S
C893 C892 1.392 . S
C893 H905 0.929 . S
C894 C890 1.531 . S
C894 H906 0.960 . S
C894 H907 0.962 . S
C894 H908 0.960 . S
C895 C892 1.511 . S
C895 H909 0.961 . S
C895 H910 0.961 . S
C895 H911 0.961 . S
C896 C897 1.370 . S
C896 C898 1.363 . S
C896 H912 0.931 . S
C897 C896 1.370 . S
C897 C901 1.408 . S
C898 C896 1.363 . S
C898 C899 1.370 . S
C898 C902 1.524 . S
C899 C891 1.503 . S
C899 C898 1.370 . S
C899 C900 1.403 . S
C900 C899 1.403 . S
C900 C901 1.404 . S
C900 C903 1.539 . S
C901 C897 1.408 . S
C901 C900 1.404 . S
C901 H913 0.930 . S
C902 C898 1.524 . S
C902 H914 0.956 . S
C902 H915 0.961 . S
C902 H916 0.961 . S
C903 C900 1.539 . S
C903 H917 0.958 . S
C903 H918 0.961 . S
C903 H919 0.960 . S
H904 C888 0.931 . S
H905 C893 0.929 . S
H906 C894 0.960 . S
H907 C894 0.962 . S
H908 C894 0.960 . S
H909 C895 0.961 . S
H910 C895 0.961 . S
H911 C895 0.961 . S
H912 C896 0.931 . S
H913 C901 0.930 . S
H914 C902 0.956 . S
H915 C902 0.961 . S
H916 C902 0.961 . S
H917 C903 0.958 . S
H918 C903 0.961 . S
H919 C903 0.960 . S
C920 C921 1.391 . S
C920 C922 1.394 . S
C920 H936 0.931 . S
C921 C920 1.391 . S
C921 C925 1.376 . S
C922 C920 1.394 . S
C922 C923 1.369 . S
C922 C926 1.531 . S
C923 C922 1.369 . S
C923 C924 1.410 . S
C923 C931 1.503 . S
C924 C923 1.410 . S
C924 C925 1.392 . S
C924 C927 1.511 . S
C925 C921 1.376 . S
C925 C924 1.392 . S
C925 H937 0.929 . S
C926 C922 1.531 . S
C926 H938 0.960 . S
C926 H939 0.962 . S
C926 H940 0.960 . S
C927 C924 1.511 . S
C927 H941 0.961 . S
C927 H942 0.961 . S
C927 H943 0.961 . S
C928 C929 1.370 . S
C928 C930 1.363 . S
C928 H944 0.931 . S
C929 C928 1.370 . S
C929 C933 1.408 . S
C930 C928 1.363 . S
C930 C931 1.370 . S
C930 C934 1.524 . S
C931 C923 1.503 . S
C931 C930 1.370 . S
C931 C932 1.403 . S
C932 C931 1.403 . S
C932 C933 1.404 . S
C932 C935 1.539 . S
C933 C929 1.408 . S
C933 C932 1.404 . S
C933 H945 0.930 . S
C934 C930 1.524 . S
C934 H946 0.956 . S
C934 H947 0.961 . S
C934 H948 0.961 . S
C935 C932 1.539 . S
C935 H949 0.958 . S
C935 H950 0.961 . S
C935 H951 0.960 . S
H936 C920 0.931 . S
H937 C925 0.929 . S
H938 C926 0.960 . S
H939 C926 0.962 . S
H940 C926 0.960 . S
H941 C927 0.961 . S
H942 C927 0.961 . S
H943 C927 0.961 . S
H944 C928 0.931 . S
H945 C933 0.930 . S
H946 C934 0.956 . S
H947 C934 0.961 . S
H948 C934 0.961 . S
H949 C935 0.958 . S
H950 C935 0.961 . S
H951 C935 0.960 . S
C952 C953 1.391 . S
C952 C954 1.394 . S
C952 H968 0.931 . S
C953 C952 1.391 . S
C953 C957 1.376 . S
C954 C952 1.394 . S
C954 C955 1.369 . S
C954 C958 1.531 . S
C955 C954 1.369 . S
C955 C956 1.410 . S
C955 C963 1.503 . S
C956 C955 1.410 . S
C956 C957 1.392 . S
C956 C959 1.511 . S
C957 C953 1.376 . S
C957 C956 1.392 . S
C957 H969 0.929 . S
C958 C954 1.531 . S
C958 H970 0.960 . S
C958 H971 0.962 . S
C958 H972 0.960 . S
C959 C956 1.511 . S
C959 H973 0.961 . S
C959 H974 0.961 . S
C959 H975 0.961 . S
C960 C961 1.370 . S
C960 C962 1.363 . S
C960 H976 0.931 . S
C961 C960 1.370 . S
C961 C965 1.408 . S
C962 C960 1.363 . S
C962 C963 1.370 . S
C962 C966 1.524 . S
C963 C955 1.503 . S
C963 C962 1.370 . S
C963 C964 1.403 . S
C964 C963 1.403 . S
C964 C965 1.404 . S
C964 C967 1.539 . S
C965 C961 1.408 . S
C965 C964 1.404 . S
C965 H977 0.930 . S
C966 C962 1.524 . S
C966 H978 0.956 . S
C966 H979 0.961 . S
C966 H980 0.961 . S
C967 C964 1.539 . S
C967 H981 0.958 . S
C967 H982 0.961 . S
C967 H983 0.960 . S
H968 C952 0.931 . S
H969 C957 0.929 . S
H970 C958 0.960 . S
H971 C958 0.962 . S
H972 C958 0.960 . S
H973 C959 0.961 . S
H974 C959 0.961 . S
H975 C959 0.961 . S
H976 C960 0.931 . S
H977 C965 0.930 . S
H978 C966 0.956 . S
H979 C966 0.961 . S
H980 C966 0.961 . S
H981 C967 0.958 . S
H982 C967 0.961 . S
H983 C967 0.960 . S
C984 C985 1.391 . S
C984 C986 1.394 . S
C984 H1000 0.931 . S
C985 C984 1.391 . S
C985 C989 1.376 . S
C986 C984 1.394 . S
C986 C987 1.369 . S
C986 C990 1.531 . S
C987 C986 1.369 . S
C987 C988 1.410 . S
C987 C995 1.503 . S
C988 C987 1.410 . S
C988 C989 1.392 . S
C988 C991 1.511 . S
C989 C985 1.376 . S
C989 C988 1.392 . S
C989 H1001 0.929 . S
C990 C986 1.531 . S
C990 H1002 0.960 . S
C990 H1003 0.962 . S
C990 H1004 0.960 . S
C991 C988 1.511 . S
C991 H1005 0.961 . S
C991 H1006 0.961 . S
C991 H1007 0.961 . S
C992 C993 1.370 . S
C992 C994 1.363 . S
C992 H1008 0.931 . S
C993 C992 1.370 . S
C993 C997 1.408 . S
C994 C992 1.363 . S
C994 C995 1.370 . S
C994 C998 1.524 . S
C995 C987 1.503 . S
C995 C994 1.370 . S
C995 C996 1.403 . S
C996 C995 1.403 . S
C996 C997 1.404 . S
C996 C999 1.539 . S
C997 C993 1.408 . S
C997 C996 1.404 . S
C997 H1009 0.930 . S
C998 C994 1.524 . S
C998 H1010 0.956 . S
C998 H1011 0.961 . S
C998 H1012 0.961 . S
C999 C996 1.539 . S
C999 H1013 0.958 . S
C999 H1014 0.961 . S
C999 H1015 0.960 . S
H1000 C984 0.931 . S
H1001 C989 0.929 . S
H1002 C990 0.960 . S
H1003 C990 0.962 . S
H1004 C990 0.960 . S
H1005 C991 0.961 . S
H1006 C991 0.961 . S
H1007 C991 0.961 . S
H1008 C992 0.931 . S
H1009 C997 0.930 . S
H1010 C998 0.956 . S
H1011 C998 0.961 . S
H1012 C998 0.961 . S
H1013 C999 0.958 . S
H1014 C999 0.961 . S
H1015 C999 0.960 . S
C1016 C1017 1.391 . S
C1016 C1018 1.394 . S
C1016 H1032 0.931 . S
C1017 C1016 1.391 . S
C1017 C1021 1.376 . S
C1018 C1016 1.394 . S
C1018 C1019 1.369 . S
C1018 C1022 1.531 . S
C1019 C1018 1.369 . S
C1019 C1020 1.410 . S
C1019 C1027 1.503 . S
C1020 C1019 1.410 . S
C1020 C1021 1.392 . S
C1020 C1023 1.511 . S
C1021 C1017 1.376 . S
C1021 C1020 1.392 . S
C1021 H1033 0.929 . S
C1022 C1018 1.531 . S
C1022 H1034 0.960 . S
C1022 H1035 0.962 . S
C1022 H1036 0.960 . S
C1023 C1020 1.511 . S
C1023 H1037 0.961 . S
C1023 H1038 0.961 . S
C1023 H1039 0.961 . S
C1024 C1025 1.370 . S
C1024 C1026 1.363 . S
C1024 H1040 0.931 . S
C1025 C1024 1.370 . S
C1025 C1029 1.408 . S
C1026 C1024 1.363 . S
C1026 C1027 1.370 . S
C1026 C1030 1.524 . S
C1027 C1019 1.503 . S
C1027 C1026 1.370 . S
C1027 C1028 1.403 . S
C1028 C1027 1.403 . S
C1028 C1029 1.404 . S
C1028 C1031 1.539 . S
C1029 C1025 1.408 . S
C1029 C1028 1.404 . S
C1029 H1041 0.930 . S
C1030 C1026 1.524 . S
C1030 H1042 0.956 . S
C1030 H1043 0.961 . S
C1030 H1044 0.961 . S
C1031 C1028 1.539 . S
C1031 H1045 0.958 . S
C1031 H1046 0.961 . S
C1031 H1047 0.960 . S
H1032 C1016 0.931 . S
H1033 C1021 0.929 . S
H1034 C1022 0.960 . S
H1035 C1022 0.962 . S
H1036 C1022 0.960 . S
H1037 C1023 0.961 . S
H1038 C1023 0.961 . S
H1039 C1023 0.961 . S
H1040 C1024 0.931 . S
H1041 C1029 0.930 . S
H1042 C1030 0.956 . S
H1043 C1030 0.961 . S
H1044 C1030 0.961 . S
H1045 C1031 0.958 . S
H1046 C1031 0.961 . S
H1047 C1031 0.960 . S
C1048 C1049 1.391 . S
C1048 C1050 1.394 . S
C1048 H1064 0.931 . S
C1049 C1048 1.391 . S
C1049 C1053 1.376 . S
C1050 C1048 1.394 . S
C1050 C1051 1.369 . S
C1050 C1054 1.531 . S
C1051 C1050 1.369 . S
C1051 C1052 1.410 . S
C1051 C1059 1.503 . S
C1052 C1051 1.410 . S
C1052 C1053 1.392 . S
C1052 C1055 1.511 . S
C1053 C1049 1.376 . S
C1053 C1052 1.392 . S
C1053 H1065 0.929 . S
C1054 C1050 1.531 . S
C1054 H1066 0.960 . S
C1054 H1067 0.962 . S
C1054 H1068 0.960 . S
C1055 C1052 1.511 . S
C1055 H1069 0.961 . S
C1055 H1070 0.961 . S
C1055 H1071 0.961 . S
C1056 C1057 1.370 . S
C1056 C1058 1.363 . S
C1056 H1072 0.931 . S
C1057 C1056 1.370 . S
C1057 C1061 1.408 . S
C1058 C1056 1.363 . S
C1058 C1059 1.370 . S
C1058 C1062 1.524 . S
C1059 C1051 1.503 . S
C1059 C1058 1.370 . S
C1059 C1060 1.403 . S
C1060 C1059 1.403 . S
C1060 C1061 1.404 . S
C1060 C1063 1.539 . S
C1061 C1057 1.408 . S
C1061 C1060 1.404 . S
C1061 H1073 0.930 . S
C1062 C1058 1.524 . S
C1062 H1074 0.956 . S
C1062 H1075 0.961 . S
C1062 H1076 0.961 . S
C1063 C1060 1.539 . S
C1063 H1077 0.958 . S
C1063 H1078 0.961 . S
C1063 H1079 0.960 . S
H1064 C1048 0.931 . S
H1065 C1053 0.929 . S
H1066 C1054 0.960 . S
H1067 C1054 0.962 . S
H1068 C1054 0.960 . S
H1069 C1055 0.961 . S
H1070 C1055 0.961 . S
H1071 C1055 0.961 . S
H1072 C1056 0.931 . S
H1073 C1061 0.930 . S
H1074 C1062 0.956 . S
H1075 C1062 0.961 . S
H1076 C1062 0.961 . S
H1077 C1063 0.958 . S
H1078 C1063 0.961 . S
H1079 C1063 0.960 . S
C1080 C1081 1.391 . S
C1080 C1082 1.394 . S
C1080 H1096 0.931 . S
C1081 C1080 1.391 . S
C1081 C1085 1.376 . S
C1082 C1080 1.394 . S
C1082 C1083 1.369 . S
C1082 C1086 1.531 . S
C1083 C1082 1.369 . S
C1083 C1084 1.410 . S
C1083 C1091 1.503 . S
C1084 C1083 1.410 . S
C1084 C1085 1.392 . S
C1084 C1087 1.511 . S
C1085 C1081 1.376 . S
C1085 C1084 1.392 . S
C1085 H1097 0.929 . S
C1086 C1082 1.531 . S
C1086 H1098 0.960 . S
C1086 H1099 0.962 . S
C1086 H1100 0.960 . S
C1087 C1084 1.511 . S
C1087 H1101 0.961 . S
C1087 H1102 0.961 . S
C1087 H1103 0.961 . S
C1088 C1089 1.370 . S
C1088 C1090 1.363 . S
C1088 H1104 0.931 . S
C1089 C1088 1.370 . S
C1089 C1093 1.408 . S
C1090 C1088 1.363 . S
C1090 C1091 1.370 . S
C1090 C1094 1.524 . S
C1091 C1083 1.503 . S
C1091 C1090 1.370 . S
C1091 C1092 1.403 . S
C1092 C1091 1.403 . S
C1092 C1093 1.404 . S
C1092 C1095 1.539 . S
C1093 C1089 1.408 . S
C1093 C1092 1.404 . S
C1093 H1105 0.930 . S
C1094 C1090 1.524 . S
C1094 H1106 0.956 . S
C1094 H1107 0.961 . S
C1094 H1108 0.961 . S
C1095 C1092 1.539 . S
C1095 H1109 0.958 . S
C1095 H1110 0.961 . S
C1095 H1111 0.960 . S
H1096 C1080 0.931 . S
H1097 C1085 0.929 . S
H1098 C1086 0.960 . S
H1099 C1086 0.962 . S
H1100 C1086 0.960 . S
H1101 C1087 0.961 . S
H1102 C1087 0.961 . S
H1103 C1087 0.961 . S
H1104 C1088 0.931 . S
H1105 C1093 0.930 . S
H1106 C1094 0.956 . S
H1107 C1094 0.961 . S
H1108 C1094 0.961 . S
H1109 C1095 0.958 . S
H1110 C1095 0.961 . S
H1111 C1095 0.960 . S
C1112 C1113 1.391 . S
C1112 C1114 1.394 . S
C1112 H1128 0.931 . S
C1113 C1112 1.391 . S
C1113 C1117 1.376 . S
C1114 C1112 1.394 . S
C1114 C1115 1.369 . S
C1114 C1118 1.531 . S
C1115 C1114 1.369 . S
C1115 C1116 1.410 . S
C1115 C1123 1.503 . S
C1116 C1115 1.410 . S
C1116 C1117 1.392 . S
C1116 C1119 1.511 . S
C1117 C1113 1.376 . S
C1117 C1116 1.392 . S
C1117 H1129 0.929 . S
C1118 C1114 1.531 . S
C1118 H1130 0.960 . S
C1118 H1131 0.962 . S
C1118 H1132 0.960 . S
C1119 C1116 1.511 . S
C1119 H1133 0.961 . S
C1119 H1134 0.961 . S
C1119 H1135 0.961 . S
C1120 C1121 1.370 . S
C1120 C1122 1.363 . S
C1120 H1136 0.931 . S
C1121 C1120 1.370 . S
C1121 C1125 1.408 . S
C1122 C1120 1.363 . S
C1122 C1123 1.370 . S
C1122 C1126 1.524 . S
C1123 C1115 1.503 . S
C1123 C1122 1.370 . S
C1123 C1124 1.403 . S
C1124 C1123 1.403 . S
C1124 C1125 1.404 . S
C1124 C1127 1.539 . S
C1125 C1121 1.408 . S
C1125 C1124 1.404 . S
C1125 H1137 0.930 . S
C1126 C1122 1.524 . S
C1126 H1138 0.956 . S
C1126 H1139 0.961 . S
C1126 H1140 0.961 . S
C1127 C1124 1.539 . S
C1127 H1141 0.958 . S
C1127 H1142 0.961 . S
C1127 H1143 0.960 . S
H1128 C1112 0.931 . S
H1129 C1117 0.929 . S
H1130 C1118 0.960 . S
H1131 C1118 0.962 . S
H1132 C1118 0.960 . S
H1133 C1119 0.961 . S
H1134 C1119 0.961 . S
H1135 C1119 0.961 . S
H1136 C1120 0.931 . S
H1137 C1125 0.930 . S
H1138 C1126 0.956 . S
H1139 C1126 0.961 . S
H1140 C1126 0.961 . S
H1141 C1127 0.958 . S
H1142 C1127 0.961 . S
H1143 C1127 0.960 . S
C1144 C1145 1.391 . S
C1144 C1146 1.394 . S
C1144 H1160 0.931 . S
C1145 C1144 1.391 . S
C1145 C1149 1.376 . S
C1146 C1144 1.394 . S
C1146 C1147 1.369 . S
C1146 C1150 1.531 . S
C1147 C1146 1.369 . S
C1147 C1148 1.410 . S
C1147 C1155 1.503 1_565 S
C1148 C1147 1.410 . S
C1148 C1149 1.392 . S
C1148 C1151 1.511 . S
C1149 C1145 1.376 . S
C1149 C1148 1.392 . S
C1149 H1161 0.929 . S
C1150 C1146 1.531 . S
C1150 H1162 0.960 . S
C1150 H1163 0.962 . S
C1150 H1164 0.960 . S
C1151 C1148 1.511 . S
C1151 H1165 0.961 . S
C1151 H1166 0.961 1_565 S
C1151 H1167 0.961 . S
C1152 C1153 1.370 . S
C1152 C1154 1.363 . S
C1152 H1168 0.931 . S
C1153 C1152 1.370 . S
C1153 C1157 1.408 . S
C1154 C1152 1.363 . S
C1154 C1155 1.370 . S
C1154 C1158 1.524 . S
C1155 C1147 1.503 1_545 S
C1155 C1154 1.370 . S
C1155 C1156 1.403 . S
C1156 C1155 1.403 . S
C1156 C1157 1.404 . S
C1156 C1159 1.539 . S
C1157 C1153 1.408 . S
C1157 C1156 1.404 . S
C1157 H1169 0.930 . S
C1158 C1154 1.524 . S
C1158 H1170 0.956 . S
C1158 H1171 0.961 . S
C1158 H1172 0.961 . S
C1159 C1156 1.539 . S
C1159 H1173 0.958 . S
C1159 H1174 0.961 . S
C1159 H1175 0.960 1_545 S
H1160 C1144 0.931 . S
H1161 C1149 0.929 . S
H1162 C1150 0.960 . S
H1163 C1150 0.962 . S
H1164 C1150 0.960 . S
H1165 C1151 0.961 . S
H1166 C1151 0.961 1_545 S
H1167 C1151 0.961 . S
H1168 C1152 0.931 . S
H1169 C1157 0.930 . S
H1170 C1158 0.956 . S
H1171 C1158 0.961 . S
H1172 C1158 0.961 . S
H1173 C1159 0.958 . S
H1174 C1159 0.961 . S
H1175 C1159 0.960 1_565 S
C1176 C1177 1.391 . S
C1176 C1178 1.394 . S
C1176 H1192 0.931 . S
C1177 C1176 1.391 . S
C1177 C1181 1.376 . S
C1178 C1176 1.394 . S
C1178 C1179 1.369 . S
C1178 C1182 1.531 . S
C1179 C1178 1.369 . S
C1179 C1180 1.410 . S
C1179 C1187 1.503 1_455 S
C1180 C1179 1.410 . S
C1180 C1181 1.392 . S
C1180 C1183 1.511 . S
C1181 C1177 1.376 . S
C1181 C1180 1.392 . S
C1181 H1193 0.929 . S
C1182 C1178 1.531 . S
C1182 H1194 0.931 1_455 S
C1182 H1195 0.962 . S
C1182 H1196 0.960 . S
C1183 C1180 1.511 . S
C1183 H1197 0.961 . S
C1183 H1198 0.961 1_455 S
C1183 H1199 0.961 . S
C1184 C1185 1.370 . S
C1184 C1186 1.363 . S
C1184 H1200 0.931 . S
C1185 C1184 1.370 . S
C1185 C1189 1.408 . S
C1186 C1184 1.363 . S
C1186 C1187 1.370 . S
C1186 C1190 1.524 . S
C1187 C1179 1.503 1_655 S
C1187 C1186 1.370 . S
C1187 C1188 1.403 . S
C1188 C1187 1.403 . S
C1188 C1189 1.404 . S
C1188 C1191 1.539 . S
C1189 C1185 1.408 . S
C1189 C1188 1.404 . S
C1189 H1201 0.930 . S
C1190 C1186 1.524 . S
C1190 H1202 0.956 . S
C1190 H1203 0.961 . S
C1190 H1204 0.961 . S
C1191 C1188 1.539 . S
C1191 H1205 0.958 . S
C1191 H1206 0.961 . S
C1191 H1207 0.960 1_655 S
H1192 C1176 0.931 . S
H1193 C1181 0.929 . S
H1194 C1182 0.931 1_655 S
H1195 C1182 0.962 . S
H1196 C1182 0.960 . S
H1197 C1183 0.961 . S
H1198 C1183 0.961 1_655 S
H1199 C1183 0.961 . S
H1200 C1184 0.931 . S
H1201 C1189 0.930 . S
H1202 C1190 0.956 . S
H1203 C1190 0.961 . S
H1204 C1190 0.961 . S
H1205 C1191 0.958 . S
H1206 C1191 0.961 . S
H1207 C1191 0.960 1_455 S
C1208 C1209 1.391 . S
C1208 C1210 1.394 . S
C1208 H1224 0.931 . S
C1209 C1208 1.391 . S
C1209 C1213 1.376 . S
C1210 C1208 1.394 . S
C1210 C1211 1.369 . S
C1210 C1214 1.531 . S
C1211 C1210 1.369 . S
C1211 C1212 1.410 . S
C1211 C1219 1.503 1_565 S
C1212 C1211 1.410 . S
C1212 C1213 1.392 . S
C1212 C1215 1.511 . S
C1213 C1209 1.376 . S
C1213 C1212 1.392 . S
C1213 H1225 0.929 . S
C1214 C1210 1.531 . S
C1214 H1226 0.960 1_565 S
C1214 H1227 0.962 . S
C1214 H1228 0.960 . S
C1215 C1212 1.511 . S
C1215 H1229 0.961 . S
C1215 H1230 0.942 1_565 S
C1215 H1231 0.961 . S
C1216 C1217 1.370 . S
C1216 C1218 1.363 . S
C1216 H1232 0.931 . S
C1217 C1216 1.370 . S
C1217 C1221 1.408 . S
C1218 C1216 1.363 . S
C1218 C1219 1.370 . S
C1218 C1222 1.524 . S
C1219 C1211 1.503 1_545 S
C1219 C1218 1.370 . S
C1219 C1220 1.403 . S
C1220 C1219 1.403 . S
C1220 C1221 1.404 . S
C1220 C1223 1.539 . S
C1221 C1217 1.408 . S
C1221 C1220 1.404 . S
C1221 H1233 0.930 . S
C1222 C1218 1.524 . S
C1222 H1234 0.956 . S
C1222 H1235 0.961 . S
C1222 H1236 0.961 . S
C1223 C1220 1.539 . S
C1223 H1237 0.958 . S
C1223 H1238 0.961 . S
C1223 H1239 0.960 1_545 S
H1224 C1208 0.931 . S
H1225 C1213 0.929 . S
H1226 C1214 0.960 1_545 S
H1227 C1214 0.962 . S
H1228 C1214 0.960 . S
H1229 C1215 0.961 . S
H1230 C1215 0.942 1_545 S
H1231 C1215 0.961 . S
H1232 C1216 0.931 . S
H1233 C1221 0.930 . S
H1234 C1222 0.956 . S
H1235 C1222 0.961 . S
H1236 C1222 0.961 . S
H1237 C1223 0.958 . S
H1238 C1223 0.961 . S
H1239 C1223 0.960 1_565 S
C1240 C1241 1.391 . S
C1240 C1242 1.394 . S
C1240 H1256 0.931 . S
C1241 C1240 1.391 . S
C1241 C1245 1.376 . S
C1242 C1240 1.394 . S
C1242 C1243 1.369 . S
C1242 C1246 1.531 . S
C1243 C1242 1.369 . S
C1243 C1244 1.410 . S
C1243 C1251 1.503 1_655 S
C1244 C1243 1.410 . S
C1244 C1245 1.392 . S
C1244 C1247 1.511 . S
C1245 C1241 1.376 . S
C1245 C1244 1.392 . S
C1245 H1257 0.929 . S
C1246 C1242 1.531 . S
C1246 H1258 0.960 1_655 S
C1246 H1259 0.962 . S
C1246 H1260 0.960 . S
C1247 C1244 1.511 . S
C1247 H1261 0.961 . S
C1247 H1262 0.961 1_655 S
C1247 H1263 0.961 . S
C1248 C1249 1.370 . S
C1248 C1250 1.363 . S
C1248 H1264 0.931 . S
C1249 C1248 1.370 . S
C1249 C1253 1.408 . S
C1250 C1248 1.363 . S
C1250 C1251 1.370 . S
C1250 C1254 1.524 . S
C1251 C1243 1.503 1_455 S
C1251 C1250 1.370 . S
C1251 C1252 1.403 . S
C1252 C1251 1.403 . S
C1252 C1253 1.404 . S
C1252 C1255 1.539 . S
C1253 C1249 1.408 . S
C1253 C1252 1.404 . S
C1253 H1265 0.930 . S
C1254 C1250 1.524 . S
C1254 H1266 0.956 1_455 S
C1254 H1267 0.961 1_455 S
C1254 H1268 0.961 . S
C1255 C1252 1.539 . S
C1255 H1269 0.958 . S
C1255 H1270 0.961 . S
C1255 H1271 0.960 . S
H1256 C1240 0.931 . S
H1257 C1245 0.929 . S
H1258 C1246 0.960 1_455 S
H1259 C1246 0.962 . S
H1260 C1246 0.960 . S
H1261 C1247 0.961 . S
H1262 C1247 0.961 1_455 S
H1263 C1247 0.961 . S
H1264 C1248 0.931 . S
H1265 C1253 0.930 . S
H1266 C1254 0.956 1_655 S
H1267 C1254 0.961 1_655 S
H1268 C1254 0.961 . S
H1269 C1255 0.958 . S
H1270 C1255 0.961 . S
H1271 C1255 0.960 . S
C1272 C1273 1.391 . S
C1272 C1274 1.394 . S
C1272 H1288 0.931 . S
C1273 C1272 1.391 . S
C1273 C1277 1.376 . S
C1274 C1272 1.394 . S
C1274 C1275 1.369 . S
C1274 C1278 1.531 . S
C1275 C1274 1.369 . S
C1275 C1276 1.410 . S
C1275 C1283 1.503 . S
C1276 C1275 1.410 . S
C1276 C1277 1.392 . S
C1276 C1279 1.511 . S
C1277 C1273 1.376 . S
C1277 C1276 1.392 . S
C1277 H1289 0.929 . S
C1278 C1274 1.531 . S
C1278 H1290 0.960 . S
C1278 H1291 0.962 . S
C1278 H1292 0.960 . S
C1279 C1276 1.511 . S
C1279 H1293 0.961 . S
C1279 H1294 0.961 . S
C1279 H1295 0.961 . S
C1280 C1281 1.370 . S
C1280 C1282 1.363 . S
C1280 H1296 0.931 . S
C1281 C1280 1.370 . S
C1281 C1285 1.408 . S
C1282 C1280 1.363 . S
C1282 C1283 1.370 . S
C1282 C1286 1.524 . S
C1283 C1275 1.503 . S
C1283 C1282 1.370 . S
C1283 C1284 1.403 . S
C1284 C1283 1.403 . S
C1284 C1285 1.404 . S
C1284 C1287 1.539 . S
C1285 C1281 1.408 . S
C1285 C1284 1.404 . S
C1285 H1297 0.930 . S
C1286 C1282 1.524 . S
C1286 H1298 0.956 . S
C1286 H1299 0.961 . S
C1286 H1300 0.961 . S
C1287 C1284 1.539 . S
C1287 H1301 0.958 . S
C1287 H1302 0.961 . S
C1287 H1303 0.960 . S
H1288 C1272 0.931 . S
H1289 C1277 0.929 . S
H1290 C1278 0.960 . S
H1291 C1278 0.962 . S
H1292 C1278 0.960 . S
H1293 C1279 0.961 . S
H1294 C1279 0.961 . S
H1295 C1279 0.961 . S
H1296 C1280 0.931 . S
H1297 C1285 0.930 . S
H1298 C1286 0.956 . S
H1299 C1286 0.961 . S
H1300 C1286 0.961 . S
H1301 C1287 0.958 . S
H1302 C1287 0.961 . S
H1303 C1287 0.960 . S
C1304 C1305 1.391 . S
C1304 C1306 1.394 . S
C1304 H1320 0.931 . S
C1305 C1304 1.391 . S
C1305 C1309 1.376 . S
C1306 C1304 1.394 . S
C1306 C1307 1.369 . S
C1306 C1310 1.531 . S
C1307 C1306 1.369 . S
C1307 C1308 1.410 . S
C1307 C1315 1.503 . S
C1308 C1307 1.410 . S
C1308 C1309 1.392 . S
C1308 C1311 1.511 . S
C1309 C1305 1.376 . S
C1309 C1308 1.392 . S
C1309 H1321 0.929 . S
C1310 C1306 1.531 . S
C1310 H1322 0.960 . S
C1310 H1323 0.962 . S
C1310 H1324 0.960 . S
C1311 C1308 1.511 . S
C1311 H1325 0.961 . S
C1311 H1326 0.961 . S
C1311 H1327 0.961 . S
C1312 C1313 1.370 . S
C1312 C1314 1.363 . S
C1312 H1328 0.931 . S
C1313 C1312 1.370 . S
C1313 C1317 1.408 . S
C1314 C1312 1.363 . S
C1314 C1315 1.370 . S
C1314 C1318 1.524 . S
C1315 C1307 1.503 . S
C1315 C1314 1.370 . S
C1315 C1316 1.403 . S
C1316 C1315 1.403 . S
C1316 C1317 1.404 . S
C1316 C1319 1.539 . S
C1317 C1313 1.408 . S
C1317 C1316 1.404 . S
C1317 H1329 0.930 . S
C1318 C1314 1.524 . S
C1318 H1330 0.956 . S
C1318 H1331 0.961 . S
C1318 H1332 0.961 . S
C1319 C1316 1.539 . S
C1319 H1333 0.958 . S
C1319 H1334 0.961 . S
C1319 H1335 0.960 . S
H1320 C1304 0.931 . S
H1321 C1309 0.929 . S
H1322 C1310 0.960 . S
H1323 C1310 0.962 . S
H1324 C1310 0.960 . S
H1325 C1311 0.961 . S
H1326 C1311 0.961 . S
H1327 C1311 0.961 . S
H1328 C1312 0.931 . S
H1329 C1317 0.930 . S
H1330 C1318 0.956 . S
H1331 C1318 0.961 . S
H1332 C1318 0.961 . S
H1333 C1319 0.958 . S
H1334 C1319 0.961 . S
H1335 C1319 0.960 . S
C1336 C1337 1.391 . S
C1336 C1338 1.394 . S
C1336 H1352 0.931 . S
C1337 C1336 1.391 . S
C1337 C1341 1.376 . S
C1338 C1336 1.394 . S
C1338 C1339 1.369 . S
C1338 C1342 1.531 . S
C1339 C1338 1.369 . S
C1339 C1340 1.410 . S
C1339 C1347 1.503 . S
C1340 C1339 1.410 . S
C1340 C1341 1.392 . S
C1340 C1343 1.511 . S
C1341 C1337 1.376 . S
C1341 C1340 1.392 . S
C1341 H1353 0.929 . S
C1342 C1338 1.531 . S
C1342 H1354 0.960 . S
C1342 H1355 0.962 . S
C1342 H1356 0.960 . S
C1343 C1340 1.511 . S
C1343 H1357 0.961 . S
C1343 H1358 0.961 . S
C1343 H1359 0.961 . S
C1344 C1345 1.370 . S
C1344 C1346 1.363 . S
C1344 H1360 0.931 . S
C1345 C1344 1.370 . S
C1345 C1349 1.408 . S
C1346 C1344 1.363 . S
C1346 C1347 1.370 . S
C1346 C1350 1.524 . S
C1347 C1339 1.503 . S
C1347 C1346 1.370 . S
C1347 C1348 1.403 . S
C1348 C1347 1.403 . S
C1348 C1349 1.404 . S
C1348 C1351 1.539 . S
C1349 C1345 1.408 . S
C1349 C1348 1.404 . S
C1349 H1361 0.930 . S
C1350 C1346 1.524 . S
C1350 H1362 0.956 . S
C1350 H1363 0.961 . S
C1350 H1364 0.961 . S
C1351 C1348 1.539 . S
C1351 H1365 0.958 . S
C1351 H1366 0.961 . S
C1351 H1367 0.960 . S
H1352 C1336 0.931 . S
H1353 C1341 0.929 . S
H1354 C1342 0.960 . S
H1355 C1342 0.962 . S
H1356 C1342 0.960 . S
H1357 C1343 0.961 . S
H1358 C1343 0.961 . S
H1359 C1343 0.961 . S
H1360 C1344 0.931 . S
H1361 C1349 0.930 . S
H1362 C1350 0.956 . S
H1363 C1350 0.961 . S
H1364 C1350 0.961 . S
H1365 C1351 0.958 . S
H1366 C1351 0.961 . S
H1367 C1351 0.960 . S
C1368 C1369 1.391 . S
C1368 C1370 1.394 . S
C1368 H1384 0.931 . S
C1369 C1368 1.391 . S
C1369 C1373 1.376 . S
C1370 C1368 1.394 . S
C1370 C1371 1.369 . S
C1370 C1374 1.531 . S
C1371 C1370 1.369 . S
C1371 C1372 1.410 . S
C1371 C1379 1.503 1_554 S
C1372 C1371 1.410 . S
C1372 C1373 1.392 . S
C1372 C1375 1.511 . S
C1373 C1369 1.376 . S
C1373 C1372 1.392 . S
C1373 H1385 0.929 . S
C1374 C1370 1.531 . S
C1374 H1386 0.960 1_554 S
C1374 H1387 0.962 . S
C1374 H1388 0.960 . S
C1375 C1372 1.511 . S
C1375 H1389 0.961 . S
C1375 H1390 0.961 1_554 S
C1375 H1391 0.961 . S
C1376 C1377 1.370 . S
C1376 C1378 1.363 . S
C1376 H1392 0.931 . S
C1377 C1376 1.370 . S
C1377 C1381 1.408 . S
C1378 C1376 1.363 . S
C1378 C1379 1.370 . S
C1378 C1382 1.524 . S
C1379 C1371 1.503 1_556 S
C1379 C1378 1.370 . S
C1379 C1380 1.403 . S
C1380 C1379 1.403 . S
C1380 C1381 1.404 . S
C1380 C1383 1.539 . S
C1381 C1377 1.408 . S
C1381 C1380 1.404 . S
C1381 H1393 0.930 . S
C1382 C1378 1.524 . S
C1382 H1394 0.956 1_556 S
C1382 H1395 0.961 1_556 S
C1382 H1396 0.961 . S
C1383 C1380 1.539 . S
C1383 H1397 0.958 . S
C1383 H1398 0.961 . S
C1383 H1399 0.960 . S
H1384 C1368 0.931 . S
H1385 C1373 0.929 . S
H1386 C1374 0.960 1_556 S
H1387 C1374 0.962 . S
H1388 C1374 0.960 . S
H1389 C1375 0.961 . S
H1390 C1375 0.961 1_556 S
H1391 C1375 0.961 . S
H1392 C1376 0.931 . S
H1393 C1381 0.930 . S
H1394 C1382 0.956 1_554 S
H1395 C1382 0.961 1_554 S
H1396 C1382 0.961 . S
H1397 C1383 0.958 . S
H1398 C1383 0.961 . S
H1399 C1383 0.960 . S
C1400 C1401 1.391 . S
C1400 C1402 1.394 . S
C1400 H1416 0.931 . S
C1401 C1400 1.391 . S
C1401 C1405 1.376 . S
C1402 C1400 1.394 . S
C1402 C1403 1.369 . S
C1402 C1406 1.531 . S
C1403 C1402 1.369 . S
C1403 C1404 1.410 . S
C1403 C1411 1.503 . S
C1404 C1403 1.410 . S
C1404 C1405 1.392 . S
C1404 C1407 1.511 . S
C1405 C1401 1.376 . S
C1405 C1404 1.392 . S
C1405 H1417 0.929 . S
C1406 C1402 1.531 . S
C1406 H1418 0.960 . S
C1406 H1419 0.962 . S
C1406 H1420 0.960 . S
C1407 C1404 1.511 . S
C1407 H1421 0.961 . S
C1407 H1422 0.961 . S
C1407 H1423 0.961 . S
C1408 C1409 1.370 . S
C1408 C1410 1.363 . S
C1408 H1424 0.931 . S
C1409 C1408 1.370 . S
C1409 C1413 1.408 . S
C1410 C1408 1.363 . S
C1410 C1411 1.370 . S
C1410 C1414 1.524 . S
C1411 C1403 1.503 . S
C1411 C1410 1.370 . S
C1411 C1412 1.403 . S
C1412 C1411 1.403 . S
C1412 C1413 1.404 . S
C1412 C1415 1.539 . S
C1413 C1409 1.408 . S
C1413 C1412 1.404 . S
C1413 H1425 0.930 . S
C1414 C1410 1.524 . S
C1414 H1426 0.956 . S
C1414 H1427 0.961 . S
C1414 H1428 0.961 . S
C1415 C1412 1.539 . S
C1415 H1429 0.958 . S
C1415 H1430 0.961 . S
C1415 H1431 0.960 . S
H1416 C1400 0.931 . S
H1417 C1405 0.929 . S
H1418 C1406 0.960 . S
H1419 C1406 0.962 . S
H1420 C1406 0.960 . S
H1421 C1407 0.961 . S
H1422 C1407 0.961 . S
H1423 C1407 0.961 . S
H1424 C1408 0.931 . S
H1425 C1413 0.930 . S
H1426 C1414 0.956 . S
H1427 C1414 0.961 . S
H1428 C1414 0.961 . S
H1429 C1415 0.958 . S
H1430 C1415 0.961 . S
H1431 C1415 0.960 . S
C1432 C1433 1.391 . S
C1432 C1434 1.394 . S
C1432 H1448 0.931 . S
C1433 C1432 1.391 . S
C1433 C1437 1.376 . S
C1434 C1432 1.394 . S
C1434 C1435 1.369 . S
C1434 C1438 1.531 . S
C1435 C1434 1.369 . S
C1435 C1436 1.410 . S
C1435 C1443 1.503 1_556 S
C1436 C1435 1.410 . S
C1436 C1437 1.392 . S
C1436 C1439 1.511 . S
C1437 C1433 1.376 . S
C1437 C1436 1.392 . S
C1437 H1449 0.929 . S
C1438 C1434 1.531 . S
C1438 H1450 0.960 . S
C1438 H1451 0.962 . S
C1438 H1452 0.960 . S
C1439 C1436 1.511 . S
C1439 H1453 0.961 . S
C1439 H1454 0.961 1_556 S
C1439 H1455 0.961 . S
C1440 C1441 1.370 . S
C1440 C1442 1.363 . S
C1440 H1456 0.931 . S
C1441 C1440 1.370 . S
C1441 C1445 1.408 . S
C1442 C1440 1.363 . S
C1442 C1443 1.370 . S
C1442 C1446 1.524 . S
C1443 C1435 1.503 1_554 S
C1443 C1442 1.370 . S
C1443 C1444 1.403 . S
C1444 C1443 1.403 . S
C1444 C1445 1.404 . S
C1444 C1447 1.539 . S
C1445 C1441 1.408 . S
C1445 C1444 1.404 . S
C1445 H1457 0.930 . S
C1446 C1442 1.524 . S
C1446 H1458 0.956 . S
C1446 H1459 0.961 . S
C1446 H1460 0.961 . S
C1447 C1444 1.539 . S
C1447 H1461 0.958 . S
C1447 H1462 0.961 . S
C1447 H1463 0.960 1_554 S
H1448 C1432 0.931 . S
H1449 C1437 0.929 . S
H1450 C1438 0.960 . S
H1451 C1438 0.962 . S
H1452 C1438 0.960 . S
H1453 C1439 0.961 . S
H1454 C1439 0.961 1_554 S
H1455 C1439 0.961 . S
H1456 C1440 0.931 . S
H1457 C1445 0.930 . S
H1458 C1446 0.956 . S
H1459 C1446 0.961 . S
H1460 C1446 0.961 . S
H1461 C1447 0.958 . S
H1462 C1447 0.961 . S
H1463 C1447 0.960 1_556 S
C1464 C1465 1.391 . S
C1464 C1466 1.394 . S
C1464 H1480 0.931 . S
C1465 C1464 1.391 . S
C1465 C1469 1.376 . S
C1466 C1464 1.394 . S
C1466 C1467 1.369 . S
C1466 C1470 1.531 . S
C1467 C1466 1.369 . S
C1467 C1468 1.410 . S
C1467 C1475 1.503 . S
C1468 C1467 1.410 . S
C1468 C1469 1.392 . S
C1468 C1471 1.511 . S
C1469 C1465 1.376 . S
C1469 C1468 1.392 . S
C1469 H1481 0.929 . S
C1470 C1466 1.531 . S
C1470 H1482 0.960 . S
C1470 H1483 0.962 . S
C1470 H1484 0.960 . S
C1471 C1468 1.511 . S
C1471 H1485 0.961 . S
C1471 H1486 0.961 . S
C1471 H1487 0.961 . S
C1472 C1473 1.370 . S
C1472 C1474 1.363 . S
C1472 H1488 0.931 . S
C1473 C1472 1.370 . S
C1473 C1477 1.408 . S
C1474 C1472 1.363 . S
C1474 C1475 1.370 . S
C1474 C1478 1.524 . S
C1475 C1467 1.503 . S
C1475 C1474 1.370 . S
C1475 C1476 1.403 . S
C1476 C1475 1.403 . S
C1476 C1477 1.404 . S
C1476 C1479 1.539 . S
C1477 C1473 1.408 . S
C1477 C1476 1.404 . S
C1477 H1489 0.930 . S
C1478 C1474 1.524 . S
C1478 H1490 0.956 . S
C1478 H1491 0.961 . S
C1478 H1492 0.961 . S
C1479 C1476 1.539 . S
C1479 H1493 0.958 . S
C1479 H1494 0.961 . S
C1479 H1495 0.960 . S
H1480 C1464 0.931 . S
H1481 C1469 0.929 . S
H1482 C1470 0.960 . S
H1483 C1470 0.962 . S
H1484 C1470 0.960 . S
H1485 C1471 0.961 . S
H1486 C1471 0.961 . S
H1487 C1471 0.961 . S
H1488 C1472 0.931 . S
H1489 C1477 0.930 . S
H1490 C1478 0.956 . S
H1491 C1478 0.961 . S
H1492 C1478 0.961 . S
H1493 C1479 0.958 . S
H1494 C1479 0.961 . S
H1495 C1479 0.960 . S
C1496 C1497 1.391 . S
C1496 C1498 1.394 . S
C1496 H1512 0.931 . S
C1497 C1496 1.391 . S
C1497 C1501 1.376 . S
C1498 C1496 1.394 . S
C1498 C1499 1.369 . S
C1498 C1502 1.531 . S
C1499 C1498 1.369 . S
C1499 C1500 1.410 . S
C1499 C1507 1.503 . S
C1500 C1499 1.410 . S
C1500 C1501 1.392 . S
C1500 C1503 1.511 . S
C1501 C1497 1.376 . S
C1501 C1500 1.392 . S
C1501 H1513 0.929 . S
C1502 C1498 1.531 . S
C1502 H1514 0.960 . S
C1502 H1515 0.962 . S
C1502 H1516 0.960 . S
C1503 C1500 1.511 . S
C1503 H1517 0.961 . S
C1503 H1518 0.961 . S
C1503 H1519 0.961 . S
C1504 C1505 1.370 . S
C1504 C1506 1.363 . S
C1504 H1520 0.931 . S
C1505 C1504 1.370 . S
C1505 C1509 1.408 . S
C1506 C1504 1.363 . S
C1506 C1507 1.370 . S
C1506 C1510 1.524 . S
C1507 C1499 1.503 . S
C1507 C1506 1.370 . S
C1507 C1508 1.403 . S
C1508 C1507 1.403 . S
C1508 C1509 1.404 . S
C1508 C1511 1.539 . S
C1509 C1505 1.408 . S
C1509 C1508 1.404 . S
C1509 H1521 0.930 . S
C1510 C1506 1.524 . S
C1510 H1522 0.956 . S
C1510 H1523 0.961 . S
C1510 H1524 0.961 . S
C1511 C1508 1.539 . S
C1511 H1525 0.958 . S
C1511 H1526 0.961 . S
C1511 H1527 0.960 . S
H1512 C1496 0.931 . S
H1513 C1501 0.929 . S
H1514 C1502 0.960 . S
H1515 C1502 0.962 . S
H1516 C1502 0.960 . S
H1517 C1503 0.961 . S
H1518 C1503 0.961 . S
H1519 C1503 0.961 . S
H1520 C1504 0.931 . S
H1521 C1509 0.930 . S
H1522 C1510 0.956 . S
H1523 C1510 0.961 . S
H1524 C1510 0.961 . S
H1525 C1511 0.958 . S
H1526 C1511 0.961 . S
H1527 C1511 0.960 . S
C1528 C1529 1.391 . S
C1528 C1530 1.394 . S
C1528 H1544 0.931 . S
C1529 C1528 1.391 . S
C1529 C1533 1.376 . S
C1530 C1528 1.394 . S
C1530 C1531 1.369 . S
C1530 C1534 1.531 . S
C1531 C1530 1.369 . S
C1531 C1532 1.410 . S
C1531 C1539 1.503 1_545 S
C1532 C1531 1.410 . S
C1532 C1533 1.392 . S
C1532 C1535 1.511 . S
C1533 C1529 1.376 . S
C1533 C1532 1.392 . S
C1533 H1545 0.929 . S
C1534 C1530 1.531 . S
C1534 H1546 0.960 . S
C1534 H1547 0.962 . S
C1534 H1548 0.960 . S
C1535 C1532 1.511 . S
C1535 H1549 0.961 . S
C1535 H1550 0.961 1_545 S
C1535 H1551 0.961 . S
C1536 C1537 1.370 . S
C1536 C1538 1.363 . S
C1536 H1552 0.931 . S
C1537 C1536 1.370 . S
C1537 C1541 1.408 . S
C1538 C1536 1.363 . S
C1538 C1539 1.370 . S
C1538 C1542 1.524 . S
C1539 C1531 1.503 1_565 S
C1539 C1538 1.370 . S
C1539 C1540 1.403 . S
C1540 C1539 1.403 . S
C1540 C1541 1.404 . S
C1540 C1543 1.539 . S
C1541 C1537 1.408 . S
C1541 C1540 1.404 . S
C1541 H1553 0.930 . S
C1542 C1538 1.524 . S
C1542 H1554 0.951 1_565 S
C1542 H1555 0.961 . S
C1542 H1556 0.961 . S
C1543 C1540 1.539 . S
C1543 H1557 0.958 . S
C1543 H1558 0.961 . S
C1543 H1559 0.976 . S
H1544 C1528 0.931 . S
H1545 C1533 0.929 . S
H1546 C1534 0.960 . S
H1547 C1534 0.962 . S
H1548 C1534 0.960 . S
H1549 C1535 0.961 . S
H1550 C1535 0.961 1_565 S
H1551 C1535 0.961 . S
H1552 C1536 0.931 . S
H1553 C1541 0.930 . S
H1554 C1542 0.951 1_545 S
H1555 C1542 0.961 . S
H1556 C1542 0.961 . S
H1557 C1543 0.958 . S
H1558 C1543 0.961 . S
H1559 C1543 0.976 . S
C1560 C1561 1.391 . S
C1560 C1562 1.394 . S
C1560 H1576 0.931 . S
C1561 C1560 1.391 . S
C1561 C1565 1.376 . S
C1562 C1560 1.394 . S
C1562 C1563 1.369 . S
C1562 C1566 1.531 . S
C1563 C1562 1.369 . S
C1563 C1564 1.410 . S
C1563 C1571 1.503 1_455 S
C1564 C1563 1.410 . S
C1564 C1565 1.392 . S
C1564 C1567 1.511 . S
C1565 C1561 1.376 . S
C1565 C1564 1.392 . S
C1565 H1577 0.929 . S
C1566 C1562 1.531 . S
C1566 H1578 0.960 1_455 S
C1566 H1579 0.959 1_455 S
C1566 H1580 0.960 . S
C1567 C1564 1.511 . S
C1567 H1581 0.961 . S
C1567 H1582 0.961 . S
C1567 H1583 0.961 . S
C1568 C1569 1.370 . S
C1568 C1570 1.363 . S
C1568 H1584 0.931 . S
C1569 C1568 1.370 . S
C1569 C1573 1.408 . S
C1570 C1568 1.363 . S
C1570 C1571 1.370 . S
C1570 C1574 1.524 . S
C1571 C1563 1.503 1_655 S
C1571 C1570 1.370 . S
C1571 C1572 1.403 . S
C1572 C1571 1.403 . S
C1572 C1573 1.404 . S
C1572 C1575 1.539 . S
C1573 C1569 1.408 . S
C1573 C1572 1.404 . S
C1573 H1585 0.930 . S
C1574 C1570 1.524 . S
C1574 H1586 0.956 . S
C1574 H1587 0.961 1_655 S
C1574 H1588 0.961 . S
C1575 C1572 1.539 . S
C1575 H1589 0.958 . S
C1575 H1590 0.961 . S
C1575 H1591 0.960 1_655 S
H1576 C1560 0.931 . S
H1577 C1565 0.929 . S
H1578 C1566 0.960 1_655 S
H1579 C1566 0.959 1_655 S
H1580 C1566 0.960 . S
H1581 C1567 0.961 . S
H1582 C1567 0.961 . S
H1583 C1567 0.961 . S
H1584 C1568 0.931 . S
H1585 C1573 0.930 . S
H1586 C1574 0.956 . S
H1587 C1574 0.961 1_455 S
H1588 C1574 0.961 . S
H1589 C1575 0.958 . S
H1590 C1575 0.961 . S
H1591 C1575 0.960 1_455 S
C1592 C1593 1.391 . S
C1592 C1594 1.394 . S
C1592 H1608 0.931 . S
C1593 C1592 1.391 . S
C1593 C1597 1.376 . S
C1594 C1592 1.394 . S
C1594 C1595 1.369 . S
C1594 C1598 1.531 . S
C1595 C1594 1.369 . S
C1595 C1596 1.410 . S
C1595 C1603 1.503 1_545 S
C1596 C1595 1.410 . S
C1596 C1597 1.392 . S
C1596 C1599 1.511 . S
C1597 C1593 1.376 . S
C1597 C1596 1.392 . S
C1597 H1609 0.929 . S
C1598 C1594 1.531 . S
C1598 H1610 0.960 1_545 S
C1598 H1611 0.962 . S
C1598 H1612 0.960 . S
C1599 C1596 1.511 . S
C1599 H1613 0.961 . S
C1599 H1614 0.961 . S
C1599 H1615 0.961 . S
C1600 C1601 1.370 . S
C1600 C1602 1.363 . S
C1600 H1616 0.931 . S
C1601 C1600 1.370 . S
C1601 C1605 1.408 . S
C1602 C1600 1.363 . S
C1602 C1603 1.370 . S
C1602 C1606 1.524 . S
C1603 C1595 1.503 1_565 S
C1603 C1602 1.370 . S
C1603 C1604 1.403 . S
C1604 C1603 1.403 . S
C1604 C1605 1.404 . S
C1604 C1607 1.539 . S
C1605 C1601 1.408 . S
C1605 C1604 1.404 . S
C1605 H1617 0.930 . S
C1606 C1602 1.524 . S
C1606 H1618 0.956 . S
C1606 H1619 0.961 . S
C1606 H1620 0.961 . S
C1607 C1604 1.539 . S
C1607 H1621 0.958 . S
C1607 H1622 0.961 . S
C1607 H1623 0.960 1_565 S
H1608 C1592 0.931 . S
H1609 C1597 0.929 . S
H1610 C1598 0.960 1_565 S
H1611 C1598 0.962 . S
H1612 C1598 0.960 . S
H1613 C1599 0.961 . S
H1614 C1599 0.961 . S
H1615 C1599 0.961 . S
H1616 C1600 0.931 . S
H1617 C1605 0.930 . S
H1618 C1606 0.956 . S
H1619 C1606 0.961 . S
H1620 C1606 0.961 . S
H1621 C1607 0.958 . S
H1622 C1607 0.961 . S
H1623 C1607 0.960 1_545 S
C1624 C1625 1.391 . S
C1624 C1626 1.394 . S
C1624 H1640 0.931 . S
C1625 C1624 1.391 . S
C1625 C1629 1.376 . S
C1626 C1624 1.394 . S
C1626 C1627 1.369 . S
C1626 C1630 1.531 . S
C1627 C1626 1.369 . S
C1627 C1628 1.410 . S
C1627 C1635 1.503 1_455 S
C1628 C1627 1.410 . S
C1628 C1629 1.392 . S
C1628 C1631 1.511 . S
C1629 C1625 1.376 . S
C1629 C1628 1.392 . S
C1629 H1641 0.929 . S
C1630 C1626 1.531 . S
C1630 H1642 0.960 1_455 S
C1630 H1643 0.962 . S
C1630 H1644 0.960 . S
C1631 C1628 1.511 . S
C1631 H1645 0.961 . S
C1631 H1646 0.961 1_455 S
C1631 H1647 0.961 . S
C1632 C1633 1.370 . S
C1632 C1634 1.363 . S
C1632 H1648 0.931 . S
C1633 C1632 1.370 . S
C1633 C1637 1.408 . S
C1634 C1632 1.363 . S
C1634 C1635 1.370 . S
C1634 C1638 1.524 . S
C1635 C1627 1.503 1_655 S
C1635 C1634 1.370 . S
C1635 C1636 1.403 . S
C1636 C1635 1.403 . S
C1636 C1637 1.404 . S
C1636 C1639 1.539 . S
C1637 C1633 1.408 . S
C1637 C1636 1.404 . S
C1637 H1649 0.930 . S
C1638 C1634 1.524 . S
C1638 H1650 0.956 1_655 S
C1638 H1651 0.961 1_655 S
C1638 H1652 0.961 . S
C1639 C1636 1.539 . S
C1639 H1653 0.958 . S
C1639 H1654 0.961 . S
C1639 H1655 0.960 . S
H1640 C1624 0.931 . S
H1641 C1629 0.929 . S
H1642 C1630 0.960 1_655 S
H1643 C1630 0.962 . S
H1644 C1630 0.960 . S
H1645 C1631 0.961 . S
H1646 C1631 0.961 1_655 S
H1647 C1631 0.961 . S
H1648 C1632 0.931 . S
H1649 C1637 0.930 . S
H1650 C1638 0.956 1_455 S
H1651 C1638 0.961 1_455 S
H1652 C1638 0.961 . S
H1653 C1639 0.958 . S
H1654 C1639 0.961 . S
H1655 C1639 0.960 . S
C1656 C1657 1.391 . S
C1656 C1658 1.394 . S
C1656 H1672 0.931 . S
C1657 C1656 1.391 . S
C1657 C1661 1.376 . S
C1658 C1656 1.394 . S
C1658 C1659 1.369 . S
C1658 C1662 1.531 . S
C1659 C1658 1.369 . S
C1659 C1660 1.410 . S
C1659 C1667 1.503 . S
C1660 C1659 1.410 . S
C1660 C1661 1.392 . S
C1660 C1663 1.511 . S
C1661 C1657 1.376 . S
C1661 C1660 1.392 . S
C1661 H1673 0.929 . S
C1662 C1658 1.531 . S
C1662 H1674 0.960 . S
C1662 H1675 0.962 . S
C1662 H1676 0.960 . S
C1663 C1660 1.511 . S
C1663 H1677 0.961 . S
C1663 H1678 0.961 . S
C1663 H1679 0.961 . S
C1664 C1665 1.370 . S
C1664 C1666 1.363 . S
C1664 H1680 0.931 . S
C1665 C1664 1.370 . S
C1665 C1669 1.408 . S
C1666 C1664 1.363 . S
C1666 C1667 1.370 . S
C1666 C1670 1.524 . S
C1667 C1659 1.503 . S
C1667 C1666 1.370 . S
C1667 C1668 1.403 . S
C1668 C1667 1.403 . S
C1668 C1669 1.404 . S
C1668 C1671 1.539 . S
C1669 C1665 1.408 . S
C1669 C1668 1.404 . S
C1669 H1681 0.930 . S
C1670 C1666 1.524 . S
C1670 H1682 0.956 . S
C1670 H1683 0.961 . S
C1670 H1684 0.961 . S
C1671 C1668 1.539 . S
C1671 H1685 0.958 . S
C1671 H1686 0.961 . S
C1671 H1687 0.960 . S
H1672 C1656 0.931 . S
H1673 C1661 0.929 . S
H1674 C1662 0.960 . S
H1675 C1662 0.962 . S
H1676 C1662 0.960 . S
H1677 C1663 0.961 . S
H1678 C1663 0.961 . S
H1679 C1663 0.961 . S
H1680 C1664 0.931 . S
H1681 C1669 0.930 . S
H1682 C1670 0.956 . S
H1683 C1670 0.961 . S
H1684 C1670 0.961 . S
H1685 C1671 0.958 . S
H1686 C1671 0.961 . S
H1687 C1671 0.960 . S
C1688 C1689 1.391 . S
C1688 C1690 1.394 . S
C1688 H1704 0.931 . S
C1689 C1688 1.391 . S
C1689 C1693 1.376 . S
C1690 C1688 1.394 . S
C1690 C1691 1.369 . S
C1690 C1694 1.531 . S
C1691 C1690 1.369 . S
C1691 C1692 1.410 . S
C1691 C1699 1.503 . S
C1692 C1691 1.410 . S
C1692 C1693 1.392 . S
C1692 C1695 1.511 . S
C1693 C1689 1.376 . S
C1693 C1692 1.392 . S
C1693 H1705 0.929 . S
C1694 C1690 1.531 . S
C1694 H1706 0.960 . S
C1694 H1707 0.962 . S
C1694 H1708 0.960 . S
C1695 C1692 1.511 . S
C1695 H1709 0.961 . S
C1695 H1710 0.961 . S
C1695 H1711 0.961 . S
C1696 C1697 1.370 . S
C1696 C1698 1.363 . S
C1696 H1712 0.931 . S
C1697 C1696 1.370 . S
C1697 C1701 1.408 . S
C1698 C1696 1.363 . S
C1698 C1699 1.370 . S
C1698 C1702 1.524 . S
C1699 C1691 1.503 . S
C1699 C1698 1.370 . S
C1699 C1700 1.403 . S
C1700 C1699 1.403 . S
C1700 C1701 1.404 . S
C1700 C1703 1.539 . S
C1701 C1697 1.408 . S
C1701 C1700 1.404 . S
C1701 H1713 0.930 . S
C1702 C1698 1.524 . S
C1702 H1714 0.956 . S
C1702 H1715 0.961 . S
C1702 H1716 0.961 . S
C1703 C1700 1.539 . S
C1703 H1717 0.958 . S
C1703 H1718 0.961 . S
C1703 H1719 0.960 . S
H1704 C1688 0.931 . S
H1705 C1693 0.929 . S
H1706 C1694 0.960 . S
H1707 C1694 0.962 . S
H1708 C1694 0.960 . S
H1709 C1695 0.961 . S
H1710 C1695 0.961 . S
H1711 C1695 0.961 . S
H1712 C1696 0.931 . S
H1713 C1701 0.930 . S
H1714 C1702 0.956 . S
H1715 C1702 0.961 . S
H1716 C1702 0.961 . S
H1717 C1703 0.958 . S
H1718 C1703 0.961 . S
H1719 C1703 0.960 . S
C1720 C1721 1.391 . S
C1720 C1722 1.394 . S
C1720 H1736 0.931 . S
C1721 C1720 1.391 . S
C1721 C1725 1.376 . S
C1722 C1720 1.394 . S
C1722 C1723 1.369 . S
C1722 C1726 1.531 . S
C1723 C1722 1.369 . S
C1723 C1724 1.410 . S
C1723 C1731 1.503 . S
C1724 C1723 1.410 . S
C1724 C1725 1.392 . S
C1724 C1727 1.511 . S
C1725 C1721 1.376 . S
C1725 C1724 1.392 . S
C1725 H1737 0.929 . S
C1726 C1722 1.531 . S
C1726 H1738 0.960 . S
C1726 H1739 0.962 . S
C1726 H1740 0.960 . S
C1727 C1724 1.511 . S
C1727 H1741 0.961 . S
C1727 H1742 0.961 . S
C1727 H1743 0.961 . S
C1728 C1729 1.370 . S
C1728 C1730 1.363 . S
C1728 H1744 0.931 . S
C1729 C1728 1.370 . S
C1729 C1733 1.408 . S
C1730 C1728 1.363 . S
C1730 C1731 1.370 . S
C1730 C1734 1.524 . S
C1731 C1723 1.503 . S
C1731 C1730 1.370 . S
C1731 C1732 1.403 . S
C1732 C1731 1.403 . S
C1732 C1733 1.404 . S
C1732 C1735 1.539 . S
C1733 C1729 1.408 . S
C1733 C1732 1.404 . S
C1733 H1745 0.930 . S
C1734 C1730 1.524 . S
C1734 H1746 0.956 . S
C1734 H1747 0.961 . S
C1734 H1748 0.961 . S
C1735 C1732 1.539 . S
C1735 H1749 0.958 . S
C1735 H1750 0.961 . S
C1735 H1751 0.960 . S
H1736 C1720 0.931 . S
H1737 C1725 0.929 . S
H1738 C1726 0.960 . S
H1739 C1726 0.962 . S
H1740 C1726 0.960 . S
H1741 C1727 0.961 . S
H1742 C1727 0.961 . S
H1743 C1727 0.961 . S
H1744 C1728 0.931 . S
H1745 C1733 0.930 . S
H1746 C1734 0.956 . S
H1747 C1734 0.961 . S
H1748 C1734 0.961 . S
H1749 C1735 0.958 . S
H1750 C1735 0.961 . S
H1751 C1735 0.960 . S
C1752 C1753 1.391 . S
C1752 C1754 1.394 . S
C1752 H1768 0.931 . S
C1753 C1752 1.391 . S
C1753 C1757 1.376 . S
C1754 C1752 1.394 . S
C1754 C1755 1.369 . S
C1754 C1758 1.531 . S
C1755 C1754 1.369 . S
C1755 C1756 1.410 . S
C1755 C1763 1.503 1_554 S
C1756 C1755 1.410 . S
C1756 C1757 1.392 . S
C1756 C1759 1.511 . S
C1757 C1753 1.376 . S
C1757 C1756 1.392 . S
C1757 H1769 0.929 . S
C1758 C1754 1.531 . S
C1758 H1770 0.960 1_554 S
C1758 H1771 0.962 . S
C1758 H1772 0.960 . S
C1759 C1756 1.511 . S
C1759 H1773 0.961 . S
C1759 H1774 0.961 . S
C1759 H1775 0.961 . S
C1760 C1761 1.370 . S
C1760 C1762 1.363 . S
C1760 H1776 0.931 . S
C1761 C1760 1.370 . S
C1761 C1765 1.408 . S
C1762 C1760 1.363 . S
C1762 C1763 1.370 . S
C1762 C1766 1.524 . S
C1763 C1755 1.503 1_556 S
C1763 C1762 1.370 . S
C1763 C1764 1.403 . S
C1764 C1763 1.403 . S
C1764 C1765 1.404 . S
C1764 C1767 1.539 . S
C1765 C1761 1.408 . S
C1765 C1764 1.404 . S
C1765 H1777 0.930 . S
C1766 C1762 1.524 . S
C1766 H1778 0.956 . S
C1766 H1779 0.961 . S
C1766 H1780 0.961 . S
C1767 C1764 1.539 . S
C1767 H1781 0.958 . S
C1767 H1782 0.961 . S
C1767 H1783 0.960 1_556 S
H1768 C1752 0.931 . S
H1769 C1757 0.929 . S
H1770 C1758 0.960 1_556 S
H1771 C1758 0.962 . S
H1772 C1758 0.960 . S
H1773 C1759 0.961 . S
H1774 C1759 0.961 . S
H1775 C1759 0.961 . S
H1776 C1760 0.931 . S
H1777 C1765 0.930 . S
H1778 C1766 0.956 . S
H1779 C1766 0.961 . S
H1780 C1766 0.961 . S
H1781 C1767 0.958 . S
H1782 C1767 0.961 . S
H1783 C1767 0.960 1_554 S
C1784 C1785 1.391 . S
C1784 C1786 1.394 . S
C1784 H1800 0.931 . S
C1785 C1784 1.391 . S
C1785 C1789 1.376 . S
C1786 C1784 1.394 . S
C1786 C1787 1.369 . S
C1786 C1790 1.531 . S
C1787 C1786 1.369 . S
C1787 C1788 1.410 . S
C1787 C1795 1.503 . S
C1788 C1787 1.410 . S
C1788 C1789 1.392 . S
C1788 C1791 1.511 . S
C1789 C1785 1.376 . S
C1789 C1788 1.392 . S
C1789 H1801 0.929 . S
C1790 C1786 1.531 . S
C1790 H1802 0.960 . S
C1790 H1803 0.962 . S
C1790 H1804 0.960 . S
C1791 C1788 1.511 . S
C1791 H1805 0.961 . S
C1791 H1806 0.961 . S
C1791 H1807 0.961 . S
C1792 C1793 1.370 . S
C1792 C1794 1.363 . S
C1792 H1808 0.931 . S
C1793 C1792 1.370 . S
C1793 C1797 1.408 . S
C1794 C1792 1.363 . S
C1794 C1795 1.370 . S
C1794 C1798 1.524 . S
C1795 C1787 1.503 . S
C1795 C1794 1.370 . S
C1795 C1796 1.403 . S
C1796 C1795 1.403 . S
C1796 C1797 1.404 . S
C1796 C1799 1.539 . S
C1797 C1793 1.408 . S
C1797 C1796 1.404 . S
C1797 H1809 0.930 . S
C1798 C1794 1.524 . S
C1798 H1810 0.956 . S
C1798 H1811 0.961 . S
C1798 H1812 0.961 . S
C1799 C1796 1.539 . S
C1799 H1813 0.958 . S
C1799 H1814 0.961 . S
C1799 H1815 0.960 . S
H1800 C1784 0.931 . S
H1801 C1789 0.929 . S
H1802 C1790 0.960 . S
H1803 C1790 0.962 . S
H1804 C1790 0.960 . S
H1805 C1791 0.961 . S
H1806 C1791 0.961 . S
H1807 C1791 0.961 . S
H1808 C1792 0.931 . S
H1809 C1797 0.930 . S
H1810 C1798 0.956 . S
H1811 C1798 0.961 . S
H1812 C1798 0.961 . S
H1813 C1799 0.958 . S
H1814 C1799 0.961 . S
H1815 C1799 0.960 . S
C1816 C1817 1.391 . S
C1816 C1818 1.394 . S
C1816 H1832 0.931 . S
C1817 C1816 1.391 . S
C1817 C1821 1.376 . S
C1818 C1816 1.394 . S
C1818 C1819 1.369 . S
C1818 C1822 1.531 . S
C1819 C1818 1.369 . S
C1819 C1820 1.410 . S
C1819 C1827 1.503 1_554 S
C1820 C1819 1.410 . S
C1820 C1821 1.392 . S
C1820 C1823 1.511 . S
C1821 C1817 1.376 . S
C1821 C1820 1.392 . S
C1821 H1833 0.929 . S
C1822 C1818 1.531 . S
C1822 H1834 0.960 . S
C1822 H1835 0.962 . S
C1822 H1836 0.960 . S
C1823 C1820 1.511 . S
C1823 H1837 0.961 . S
C1823 H1838 0.961 1_554 S
C1823 H1839 0.961 . S
C1824 C1825 1.370 . S
C1824 C1826 1.363 . S
C1824 H1840 0.931 . S
C1825 C1824 1.370 . S
C1825 C1829 1.408 . S
C1826 C1824 1.363 . S
C1826 C1827 1.370 . S
C1826 C1830 1.524 . S
C1827 C1819 1.503 1_556 S
C1827 C1826 1.370 . S
C1827 C1828 1.403 . S
C1828 C1827 1.403 . S
C1828 C1829 1.404 . S
C1828 C1831 1.539 . S
C1829 C1825 1.408 . S
C1829 C1828 1.404 . S
C1829 H1841 0.930 . S
C1830 C1826 1.524 . S
C1830 H1842 0.956 . S
C1830 H1843 0.961 . S
C1830 H1844 0.961 . S
C1831 C1828 1.539 . S
C1831 H1845 0.958 . S
C1831 H1846 0.961 . S
C1831 H1847 0.960 1_556 S
H1832 C1816 0.931 . S
H1833 C1821 0.929 . S
H1834 C1822 0.960 . S
H1835 C1822 0.962 . S
H1836 C1822 0.960 . S
H1837 C1823 0.961 . S
H1838 C1823 0.961 1_556 S
H1839 C1823 0.961 . S
H1840 C1824 0.931 . S
H1841 C1829 0.930 . S
H1842 C1830 0.956 . S
H1843 C1830 0.961 . S
H1844 C1830 0.961 . S
H1845 C1831 0.958 . S
H1846 C1831 0.961 . S
H1847 C1831 0.960 1_554 S
C313 C53 1.524 . S
C321 C10 1.542 . S
C345 C23 1.542 . S
C353 C75 1.554 . S
C377 C88 1.535 . S
C385 C27 1.521 . S
C409 C101 1.531 . S
C417 C40 1.521 . S
C441 C192 1.544 . S
C449 C105 1.518 . S
C473 C205 1.538 . S
C481 C118 1.520 . S
C505 C140 1.529 . S
C513 C157 1.518 . S
C537 C179 1.529 . S
C545 C144 1.519 . S
C569 C209 1.478 . S
C577 C283 1.550 . S
C601 C231 1.535 . S
C609 C257 1.543 . S
C633 C244 1.554 . S
C641 C270 1.543 . S
C665 C287 1.499 . S
C673 C300 1.513 . S
C697 C49 1.476 . S
C705 C66 1.552 . S
C729 C1 1.558 . S
C737 C79 1.552 . S
C761 C92 1.559 . S
C769 C14 1.548 . S
C793 C36 1.496 . S
C801 C62 1.508 . S
C825 C309 1.494 . S
C833 C235 1.554 . S
C857 C248 1.530 . S
C865 C274 1.548 . S
C889 C261 1.547 . S
C897 C296 1.497 . S
C921 C222 1.531 . S
C929 C218 1.519 . S
C953 C153 1.527 . S
C961 C127 1.497 . S
C985 C196 1.541 . S
C993 C170 1.553 . S
C1017 C166 1.521 . S
C1025 C183 1.542 . S
C1049 C131 1.555 . S
C1057 C114 1.513 . S
C1081 C289 1.586 . S
C1089 C5 1.628 . S
C1113 C211 1.579 . S
C1121 C18 1.628 . S
C1145 C302 1.607 . S
C1153 C29 1.583 . S
C1177 C278 1.620 . S
C1185 C42 1.581 . S
C1209 C239 1.620 . S
C1217 C55 1.580 . S
C1241 C70 1.627 . S
C1249 C252 1.626 . S
C1273 C265 1.620 . S
C1281 C83 1.630 . S
C1305 C226 1.622 . S
C1313 C96 1.630 . S
C1337 C174 1.625 . S
C1345 C107 1.592 . S
C1369 C187 1.628 . S
C1377 C120 1.599 . S
C1401 C200 1.621 . S
C1409 C135 1.627 . S
C1433 C146 1.605 . S
C1441 C159 1.593 . S
C1465 C68 1.622 . S
C1473 C133 1.630 . S
C1497 C81 1.620 . S
C1505 C148 1.585 . S
C1529 C109 1.576 . S
C1537 C94 1.627 . S
C1561 C57 1.601 . S
C1569 C122 1.592 . S
C1593 C185 1.623 . S
C1601 C44 1.584 . S
C1625 C3 1.626 . S
C1633 C198 1.627 . S
C1657 C161 1.565 . S
C1665 C16 1.627 . S
C1689 C31 1.583 . S
C1697 C172 1.627 . S
C1721 C224 1.619 . S
C1729 C304 1.580 . S
C1753 C276 1.622 . S
C1761 C237 1.630 . S
C1785 C291 1.602 . S
C1793 C250 1.630 . S
C1817 C213 1.603 . S
C1825 C263 1.629 . S
