# Generated by pormake.
# Topology yfr, (5)-cn, num edge types: 1
# Building blocks:
#     Node 0, Type 0, BuildingBlock: BEQFEK_clean_sbu_0, # of connection points: 5
#     Node 1, Type 0, BuildingBlock: BEQFEK_clean_sbu_0, # of connection points: 5
#     Node 2, Type 0, BuildingBlock: BEQFEK_clean_sbu_0, # of connection points: 5
#     Node 3, Type 0, BuildingBlock: BEQFEK_clean_sbu_0, # of connection points: 5
#     Node 4, Type 0, BuildingBlock: BEQFEK_clean_sbu_0, # of connection points: 5
#     Node 5, Type 0, BuildingBlock: BEQFEK_clean_sbu_0, # of connection points: 5
#     Node 6, Type 0, BuildingBlock: BEQFEK_clean_sbu_0, # of connection points: 5
#     Node 7, Type 0, BuildingBlock: BEQFEK_clean_sbu_0, # of connection points: 5
#     Node 8, Type 0, BuildingBlock: BEQFEK_clean_sbu_0, # of connection points: 5
#     Node 9, Type 0, BuildingBlock: BEQFEK_clean_sbu_0, # of connection points: 5
#     Node 10, Type 0, BuildingBlock: BEQFEK_clean_sbu_0, # of connection points: 5
#     Node 11, Type 0, BuildingBlock: BEQFEK_clean_sbu_0, # of connection points: 5
#     Node 12, Type 0, BuildingBlock: BEQFEK_clean_sbu_0, # of connection points: 5
#     Node 13, Type 0, BuildingBlock: BEQFEK_clean_sbu_0, # of connection points: 5
#     Node 14, Type 0, BuildingBlock: BEQFEK_clean_sbu_0, # of connection points: 5
#     Node 15, Type 0, BuildingBlock: BEQFEK_clean_sbu_0, # of connection points: 5
#     Node 16, Type 0, BuildingBlock: BEQFEK_clean_sbu_0, # of connection points: 5
#     Node 17, Type 0, BuildingBlock: BEQFEK_clean_sbu_0, # of connection points: 5
#     Node 18, Type 0, BuildingBlock: BEQFEK_clean_sbu_0, # of connection points: 5
#     Node 19, Type 0, BuildingBlock: BEQFEK_clean_sbu_0, # of connection points: 5
#     Node 20, Type 0, BuildingBlock: BEQFEK_clean_sbu_0, # of connection points: 5
#     Node 21, Type 0, BuildingBlock: BEQFEK_clean_sbu_0, # of connection points: 5
#     Node 22, Type 0, BuildingBlock: BEQFEK_clean_sbu_0, # of connection points: 5
#     Node 23, Type 0, BuildingBlock: BEQFEK_clean_sbu_0, # of connection points: 5
#     Node 24, Type 0, BuildingBlock: BEQFEK_clean_sbu_0, # of connection points: 5
#     Node 25, Type 0, BuildingBlock: BEQFEK_clean_sbu_0, # of connection points: 5
#     Node 26, Type 0, BuildingBlock: BEQFEK_clean_sbu_0, # of connection points: 5
#     Node 27, Type 0, BuildingBlock: BEQFEK_clean_sbu_0, # of connection points: 5
#     Node 28, Type 0, BuildingBlock: BEQFEK_clean_sbu_0, # of connection points: 5
#     Node 29, Type 0, BuildingBlock: BEQFEK_clean_sbu_0, # of connection points: 5
#     Node 30, Type 0, BuildingBlock: BEQFEK_clean_sbu_0, # of connection points: 5
#     Node 31, Type 0, BuildingBlock: BEQFEK_clean_sbu_0, # of connection points: 5
#     Edge 32, Type (0, 0), BuildingBlock: UVAHIK_clean_linker_0, # of connection points: 2
#     Edge 33, Type (0, 0), BuildingBlock: UVAHIK_clean_linker_0, # of connection points: 2
#     Edge 34, Type (0, 0), BuildingBlock: UVAHIK_clean_linker_0, # of connection points: 2
#     Edge 35, Type (0, 0), BuildingBlock: UVAHIK_clean_linker_0, # of connection points: 2
#     Edge 36, Type (0, 0), BuildingBlock: UVAHIK_clean_linker_0, # of connection points: 2
#     Edge 37, Type (0, 0), BuildingBlock: UVAHIK_clean_linker_0, # of connection points: 2
#     Edge 38, Type (0, 0), BuildingBlock: UVAHIK_clean_linker_0, # of connection points: 2
#     Edge 39, Type (0, 0), BuildingBlock: UVAHIK_clean_linker_0, # of connection points: 2
#     Edge 40, Type (0, 0), BuildingBlock: UVAHIK_clean_linker_0, # of connection points: 2
#     Edge 41, Type (0, 0), BuildingBlock: UVAHIK_clean_linker_0, # of connection points: 2
#     Edge 42, Type (0, 0), BuildingBlock: UVAHIK_clean_linker_0, # of connection points: 2
#     Edge 43, Type (0, 0), BuildingBlock: UVAHIK_clean_linker_0, # of connection points: 2
#     Edge 44, Type (0, 0), BuildingBlock: UVAHIK_clean_linker_0, # of connection points: 2
#     Edge 45, Type (0, 0), BuildingBlock: UVAHIK_clean_linker_0, # of connection points: 2
#     Edge 46, Type (0, 0), BuildingBlock: UVAHIK_clean_linker_0, # of connection points: 2
#     Edge 47, Type (0, 0), BuildingBlock: UVAHIK_clean_linker_0, # of connection points: 2
#     Edge 48, Type (0, 0), BuildingBlock: UVAHIK_clean_linker_0, # of connection points: 2
#     Edge 49, Type (0, 0), BuildingBlock: UVAHIK_clean_linker_0, # of connection points: 2
#     Edge 50, Type (0, 0), BuildingBlock: UVAHIK_clean_linker_0, # of connection points: 2
#     Edge 51, Type (0, 0), BuildingBlock: UVAHIK_clean_linker_0, # of connection points: 2
#     Edge 52, Type (0, 0), BuildingBlock: UVAHIK_clean_linker_0, # of connection points: 2
#     Edge 53, Type (0, 0), BuildingBlock: UVAHIK_clean_linker_0, # of connection points: 2
#     Edge 54, Type (0, 0), BuildingBlock: UVAHIK_clean_linker_0, # of connection points: 2
#     Edge 55, Type (0, 0), BuildingBlock: UVAHIK_clean_linker_0, # of connection points: 2
#     Edge 56, Type (0, 0), BuildingBlock: UVAHIK_clean_linker_0, # of connection points: 2
#     Edge 57, Type (0, 0), BuildingBlock: UVAHIK_clean_linker_0, # of connection points: 2
#     Edge 58, Type (0, 0), BuildingBlock: UVAHIK_clean_linker_0, # of connection points: 2
#     Edge 59, Type (0, 0), BuildingBlock: UVAHIK_clean_linker_0, # of connection points: 2
#     Edge 60, Type (0, 0), BuildingBlock: UVAHIK_clean_linker_0, # of connection points: 2
#     Edge 61, Type (0, 0), BuildingBlock: UVAHIK_clean_linker_0, # of connection points: 2
#     Edge 62, Type (0, 0), BuildingBlock: UVAHIK_clean_linker_0, # of connection points: 2
#     Edge 63, Type (0, 0), BuildingBlock: UVAHIK_clean_linker_0, # of connection points: 2
#     Edge 64, Type (0, 0), BuildingBlock: UVAHIK_clean_linker_0, # of connection points: 2
#     Edge 65, Type (0, 0), BuildingBlock: UVAHIK_clean_linker_0, # of connection points: 2
#     Edge 66, Type (0, 0), BuildingBlock: UVAHIK_clean_linker_0, # of connection points: 2
#     Edge 67, Type (0, 0), BuildingBlock: UVAHIK_clean_linker_0, # of connection points: 2
#     Edge 68, Type (0, 0), BuildingBlock: UVAHIK_clean_linker_0, # of connection points: 2
#     Edge 69, Type (0, 0), BuildingBlock: UVAHIK_clean_linker_0, # of connection points: 2
#     Edge 70, Type (0, 0), BuildingBlock: UVAHIK_clean_linker_0, # of connection points: 2
#     Edge 71, Type (0, 0), BuildingBlock: UVAHIK_clean_linker_0, # of connection points: 2
#     Edge 72, Type (0, 0), BuildingBlock: UVAHIK_clean_linker_0, # of connection points: 2
#     Edge 73, Type (0, 0), BuildingBlock: UVAHIK_clean_linker_0, # of connection points: 2
#     Edge 74, Type (0, 0), BuildingBlock: UVAHIK_clean_linker_0, # of connection points: 2
#     Edge 75, Type (0, 0), BuildingBlock: UVAHIK_clean_linker_0, # of connection points: 2
#     Edge 76, Type (0, 0), BuildingBlock: UVAHIK_clean_linker_0, # of connection points: 2
#     Edge 77, Type (0, 0), BuildingBlock: UVAHIK_clean_linker_0, # of connection points: 2
#     Edge 78, Type (0, 0), BuildingBlock: UVAHIK_clean_linker_0, # of connection points: 2
#     Edge 79, Type (0, 0), BuildingBlock: UVAHIK_clean_linker_0, # of connection points: 2
#     Edge 80, Type (0, 0), BuildingBlock: UVAHIK_clean_linker_0, # of connection points: 2
#     Edge 81, Type (0, 0), BuildingBlock: UVAHIK_clean_linker_0, # of connection points: 2
#     Edge 82, Type (0, 0), BuildingBlock: UVAHIK_clean_linker_0, # of connection points: 2
#     Edge 83, Type (0, 0), BuildingBlock: UVAHIK_clean_linker_0, # of connection points: 2
#     Edge 84, Type (0, 0), BuildingBlock: UVAHIK_clean_linker_0, # of connection points: 2
#     Edge 85, Type (0, 0), BuildingBlock: UVAHIK_clean_linker_0, # of connection points: 2
#     Edge 86, Type (0, 0), BuildingBlock: UVAHIK_clean_linker_0, # of connection points: 2
#     Edge 87, Type (0, 0), BuildingBlock: UVAHIK_clean_linker_0, # of connection points: 2
#     Edge 88, Type (0, 0), BuildingBlock: UVAHIK_clean_linker_0, # of connection points: 2
#     Edge 89, Type (0, 0), BuildingBlock: UVAHIK_clean_linker_0, # of connection points: 2
#     Edge 90, Type (0, 0), BuildingBlock: UVAHIK_clean_linker_0, # of connection points: 2
#     Edge 91, Type (0, 0), BuildingBlock: UVAHIK_clean_linker_0, # of connection points: 2
#     Edge 92, Type (0, 0), BuildingBlock: UVAHIK_clean_linker_0, # of connection points: 2
#     Edge 93, Type (0, 0), BuildingBlock: UVAHIK_clean_linker_0, # of connection points: 2
#     Edge 94, Type (0, 0), BuildingBlock: UVAHIK_clean_linker_0, # of connection points: 2
#     Edge 95, Type (0, 0), BuildingBlock: UVAHIK_clean_linker_0, # of connection points: 2
#     Edge 96, Type (0, 0), BuildingBlock: UVAHIK_clean_linker_0, # of connection points: 2
#     Edge 97, Type (0, 0), BuildingBlock: UVAHIK_clean_linker_0, # of connection points: 2
#     Edge 98, Type (0, 0), BuildingBlock: UVAHIK_clean_linker_0, # of connection points: 2
#     Edge 99, Type (0, 0), BuildingBlock: UVAHIK_clean_linker_0, # of connection points: 2
#     Edge 100, Type (0, 0), BuildingBlock: UVAHIK_clean_linker_0, # of connection points: 2
#     Edge 101, Type (0, 0), BuildingBlock: UVAHIK_clean_linker_0, # of connection points: 2
#     Edge 102, Type (0, 0), BuildingBlock: UVAHIK_clean_linker_0, # of connection points: 2
#     Edge 103, Type (0, 0), BuildingBlock: UVAHIK_clean_linker_0, # of connection points: 2
#     Edge 104, Type (0, 0), BuildingBlock: UVAHIK_clean_linker_0, # of connection points: 2
#     Edge 105, Type (0, 0), BuildingBlock: UVAHIK_clean_linker_0, # of connection points: 2
#     Edge 106, Type (0, 0), BuildingBlock: UVAHIK_clean_linker_0, # of connection points: 2
#     Edge 107, Type (0, 0), BuildingBlock: UVAHIK_clean_linker_0, # of connection points: 2
#     Edge 108, Type (0, 0), BuildingBlock: UVAHIK_clean_linker_0, # of connection points: 2
#     Edge 109, Type (0, 0), BuildingBlock: UVAHIK_clean_linker_0, # of connection points: 2
#     Edge 110, Type (0, 0), BuildingBlock: UVAHIK_clean_linker_0, # of connection points: 2
#     Edge 111, Type (0, 0), BuildingBlock: UVAHIK_clean_linker_0, # of connection points: 2
# Relax obj value: 0.422
# Max RMSD: 0.208
# Mean RMSD: 0.200
data_MOF--net-yfr--node1-BEQFEK_clean_sbu_0--edge1-UVAHIK_clean_linker_0
_symmetry_space_group_name_H-M    P1
_symmetry_Int_Tables_number       1
_symmetry_cell_setting            triclinic
loop_
_symmetry_equiv_pos_as_xyz
'x, y, z'
_cell_length_a     77.090559
_cell_length_b     77.051729
_cell_length_c     70.482436
_cell_angle_alpha  89.953815
_cell_angle_beta   89.987166
_cell_angle_gamma 90.007892
loop_
_atom_site_label
_atom_site_type_symbol
_atom_site_fract_x
_atom_site_fract_y
_atom_site_fract_z
_atom_type_partial_charge
Co0 Co 0.04561 0.13958 0.30704 0.0
Co1 Co 0.07433 0.14923 0.27799 0.0
C2 C 0.04116 0.17003 0.28061 0.0
O3 O 0.03523 0.15986 0.29333 0.0
O4 O 0.05594 0.16719 0.2731 0.0
C5 C 0.01238 0.12677 0.31775 0.0
O6 O 0.00889 0.1289 0.29965 0.0
C7 C 0.08824 0.15546 0.24017 0.0
C8 C 0.11552 0.14703 0.24285 0.0
C9 C 0.10334 0.15292 0.22991 0.0
N10 N 0.09131 0.15131 0.25838 0.0
N11 N 0.10773 0.14657 0.25998 0.0
C12 C 0.07061 0.15946 0.23243 0.0
H13 H 0.06069 0.15152 0.23985 0.0
H14 H 0.0699 0.15699 0.21694 0.0
H15 H 0.06765 0.17334 0.23507 0.0
C16 C 0.0508 0.10425 0.29034 0.0
N17 N 0.05401 0.1215 0.29102 0.0
N18 N 0.0658 0.12547 0.27827 0.0
C19 C 0.07012 0.1108 0.2687 0.0
C20 C 0.06076 0.09675 0.27603 0.0
C21 C 0.03974 0.09479 0.30442 0.0
H22 H 0.04098 0.10084 0.31861 0.0
H23 H 0.02598 0.09551 0.29987 0.0
H24 H 0.04351 0.08093 0.30551 0.0
O25 O 0.06428 0.14911 0.3233 0.0
O26 O 0.08508 0.1564 0.30298 0.0
H27 H 0.09592 0.11229 0.25776 0.0
H28 H 0.0819 0.09781 0.24465 0.0
C29 C 0.08254 0.11031 0.2524 0.0
H30 H 0.07945 0.1209 0.24234 0.0
H31 H 0.11337 0.14219 0.27256 0.0
O32 O 0.02742 0.13048 0.32389 0.0
C33 C 0.07908 0.15579 0.31989 0.0
Co34 Co 0.12102 0.79378 0.55914 0.0
Co35 Co 0.11038 0.82199 0.53002 0.0
C36 C 0.09068 0.78774 0.53378 0.0
O37 O 0.10119 0.78195 0.54624 0.0
O38 O 0.09306 0.80264 0.5263 0.0
C39 C 0.12911 0.76215 0.5792 0.0
O40 O 0.12169 0.75413 0.5649 0.0
C41 C 0.10618 0.83336 0.49106 0.0
C42 C 0.10614 0.86197 0.49328 0.0
C43 C 0.10559 0.84845 0.48033 0.0
N44 N 0.1074 0.83776 0.50943 0.0
N45 N 0.10721 0.85487 0.51073 0.0
C46 C 0.10489 0.81496 0.48433 0.0
H47 H 0.09271 0.80922 0.48984 0.0
H48 H 0.1158 0.80727 0.49023 0.0
H49 H 0.1047 0.81393 0.46867 0.0
C50 C 0.15572 0.79864 0.54128 0.0
N51 N 0.13858 0.80208 0.54257 0.0
N52 N 0.13444 0.8143 0.53038 0.0
C53 C 0.149 0.81904 0.52085 0.0
C54 C 0.16309 0.80923 0.52738 0.0
C55 C 0.16498 0.78636 0.55427 0.0
H56 H 0.16161 0.78946 0.56918 0.0
H57 H 0.16053 0.77293 0.55135 0.0
H58 H 0.17926 0.7871 0.55262 0.0
O59 O 0.11063 0.81271 0.57416 0.0
O60 O 0.103 0.83368 0.55436 0.0
H61 H 0.14318 0.84448 0.51039 0.0
H62 H 0.16256 0.83504 0.50017 0.0
C63 C 0.14926 0.8323 0.50531 0.0
H64 H 0.14158 0.82743 0.49316 0.0
H65 H 0.10816 0.86169 0.52347 0.0
O66 O 0.13081 0.77851 0.57865 0.0
C67 C 0.10375 0.82745 0.57113 0.0
Co68 Co 0.45457 0.8654 0.80906 0.0
Co69 Co 0.42763 0.85513 0.77841 0.0
C70 C 0.46174 0.83587 0.78248 0.0
O71 O 0.46677 0.84601 0.79567 0.0
O72 O 0.44715 0.83827 0.77438 0.0
C73 C 0.48556 0.88087 0.82517 0.0
O74 O 0.49145 0.88208 0.80773 0.0
C75 C 0.41702 0.85128 0.73914 0.0
C76 C 0.3884 0.85201 0.74058 0.0
C77 C 0.4022 0.85119 0.728 0.0
N78 N 0.41224 0.85248 0.75741 0.0
N79 N 0.39511 0.85273 0.75824 0.0
C80 C 0.43553 0.84956 0.73289 0.0
H81 H 0.44059 0.83686 0.7378 0.0
H82 H 0.44351 0.85981 0.73967 0.0
H83 H 0.437 0.85008 0.71728 0.0
C84 C 0.44887 0.9009 0.79239 0.0
N85 N 0.44618 0.88354 0.79293 0.0
N86 N 0.43495 0.87929 0.77968 0.0
C87 C 0.43043 0.89388 0.77004 0.0
C88 C 0.43919 0.90814 0.77771 0.0
C89 C 0.4591 0.91077 0.80685 0.0
H90 H 0.45778 0.9046 0.82098 0.0
H91 H 0.47296 0.91085 0.80268 0.0
H92 H 0.45461 0.92443 0.80784 0.0
O93 O 0.43555 0.85448 0.82366 0.0
O94 O 0.41576 0.84685 0.80241 0.0
H95 H 0.40582 0.88818 0.75745 0.0
H96 H 0.41621 0.90732 0.74781 0.0
C97 C 0.41841 0.89405 0.75337 0.0
H98 H 0.4241 0.88617 0.74181 0.0
H99 H 0.38802 0.8538 0.7708 0.0
O100 O 0.47061 0.87454 0.82821 0.0
C101 C 0.42117 0.84729 0.81955 0.0
Co102 Co 0.38481 0.20943 0.05874 0.0
Co103 Co 0.39563 0.1814 0.02948 0.0
C104 C 0.41567 0.21526 0.0338 0.0
O105 O 0.40511 0.22091 0.04628 0.0
O106 O 0.4132 0.20053 0.02601 0.0
C107 C 0.37225 0.24176 0.07398 0.0
O108 O 0.37656 0.24846 0.05749 0.0
C109 C 0.40011 0.16997 0.99054 0.0
C110 C 0.39948 0.14137 0.99279 0.0
C111 C 0.40038 0.15487 0.97982 0.0
N112 N 0.39871 0.1656 0.00892 0.0
N113 N 0.39853 0.14849 0.01023 0.0
C114 C 0.40175 0.18834 0.98376 0.0
H115 H 0.41354 0.19419 0.99008 0.0
H116 H 0.39046 0.19601 0.98877 0.0
H117 H 0.40291 0.18927 0.96814 0.0
C118 C 0.35022 0.20463 0.04045 0.0
N119 N 0.3674 0.20132 0.0418 0.0
N120 N 0.37166 0.18927 0.02948 0.0
C121 C 0.35718 0.18456 0.01979 0.0
C122 C 0.34303 0.19423 0.02635 0.0
C123 C 0.34058 0.21641 0.05364 0.0
H124 H 0.34477 0.21398 0.06845 0.0
H125 H 0.34362 0.23009 0.05001 0.0
H126 H 0.32635 0.21445 0.05276 0.0
O127 O 0.39438 0.19029 0.07427 0.0
O128 O 0.40241 0.16972 0.05407 0.0
H129 H 0.36297 0.15911 0.0094 0.0
H130 H 0.34368 0.16864 0.99908 0.0
C131 C 0.35697 0.17132 0.00427 0.0
H132 H 0.36473 0.17618 0.99215 0.0
H133 H 0.39733 0.14168 0.02297 0.0
O134 O 0.37467 0.22571 0.077 0.0
C135 C 0.40124 0.17556 0.071 0.0
Co136 Co 0.04505 0.86939 0.19846 0.0
Co137 Co 0.07383 0.85937 0.22696 0.0
C138 C 0.03926 0.8398 0.22467 0.0
O139 O 0.03301 0.85021 0.21236 0.0
O140 O 0.05448 0.84218 0.23132 0.0
C141 C 0.01435 0.8837 0.17871 0.0
O142 O 0.00562 0.88397 0.19472 0.0
C143 C 0.08524 0.85462 0.26572 0.0
C144 C 0.11381 0.85574 0.26367 0.0
C145 C 0.10028 0.85405 0.27652 0.0
N146 N 0.08967 0.85649 0.24742 0.0
N147 N 0.10677 0.857 0.24621 0.0
C148 C 0.06689 0.85535 0.27264 0.0
H149 H 0.05858 0.86227 0.26223 0.0
H150 H 0.06611 0.86199 0.28658 0.0
H151 H 0.06187 0.84193 0.27426 0.0
C152 C 0.05074 0.90473 0.21511 0.0
N153 N 0.05391 0.88749 0.21413 0.0
N154 N 0.06625 0.88345 0.22621 0.0
C155 C 0.07122 0.8981 0.23542 0.0
C156 C 0.06148 0.91218 0.22876 0.0
C157 C 0.03865 0.91416 0.20207 0.0
H158 H 0.0403 0.90931 0.18739 0.0
H159 H 0.02509 0.9117 0.20659 0.0
H160 H 0.04106 0.92835 0.20215 0.0
O161 O 0.06358 0.8582 0.18353 0.0
O162 O 0.08528 0.85147 0.20271 0.0
H163 H 0.09688 0.89281 0.24542 0.0
H164 H 0.08701 0.91175 0.25614 0.0
C165 C 0.0846 0.89846 0.2508 0.0
H166 H 0.08008 0.89039 0.26284 0.0
H167 H 0.1136 0.85864 0.23355 0.0
O168 O 0.02995 0.87851 0.17852 0.0
C169 C 0.07848 0.85156 0.1862 0.0
Co170 Co 0.38946 0.79694 0.44343 0.0
Co171 Co 0.39908 0.82482 0.4733 0.0
C172 C 0.41906 0.7907 0.46968 0.0
O173 O 0.40886 0.78487 0.45695 0.0
O174 O 0.41644 0.80559 0.47704 0.0
C175 C 0.37643 0.76583 0.42455 0.0
O176 O 0.37669 0.75802 0.44112 0.0
C177 C 0.40248 0.83506 0.51271 0.0
C178 C 0.4016 0.8637 0.5116 0.0
C179 C 0.40233 0.84977 0.52404 0.0
N180 N 0.40149 0.84003 0.49448 0.0
N181 N 0.40117 0.85718 0.49386 0.0
C182 C 0.40411 0.81648 0.51877 0.0
H183 H 0.39361 0.80868 0.5122 0.0
H184 H 0.4039 0.81491 0.53439 0.0
H185 H 0.41663 0.81129 0.5135 0.0
C186 C 0.35402 0.80156 0.46029 0.0
N187 N 0.37121 0.80498 0.45947 0.0
N188 N 0.37509 0.81687 0.47215 0.0
C189 C 0.36037 0.82126 0.48159 0.0
C190 C 0.34642 0.81163 0.47446 0.0
C191 C 0.34476 0.78988 0.44669 0.0
H192 H 0.34994 0.79179 0.43217 0.0
H193 H 0.34696 0.77618 0.4509 0.0
H194 H 0.3306 0.79245 0.44651 0.0
O195 O 0.40017 0.81619 0.42912 0.0
O196 O 0.40693 0.83707 0.4494 0.0
H197 H 0.36577 0.84635 0.4932 0.0
H198 H 0.34651 0.83624 0.5029 0.0
C199 C 0.35985 0.8339 0.4977 0.0
H200 H 0.36753 0.82866 0.50968 0.0
H201 H 0.40022 0.8644 0.48137 0.0
O202 O 0.38078 0.78167 0.42333 0.0
C203 C 0.40673 0.83101 0.43253 0.0
Co204 Co 0.45626 0.13438 0.69528 0.0
Co205 Co 0.42898 0.14494 0.72546 0.0
C206 C 0.46312 0.16439 0.72118 0.0
O207 O 0.46832 0.15407 0.70825 0.0
O208 O 0.44846 0.16203 0.72918 0.0
C209 C 0.48786 0.12098 0.67889 0.0
O210 O 0.49435 0.12206 0.69609 0.0
C211 C 0.41852 0.14883 0.76476 0.0
C212 C 0.38989 0.14881 0.7634 0.0
C213 C 0.40372 0.14926 0.77595 0.0
N214 N 0.41367 0.14779 0.7465 0.0
N215 N 0.39654 0.14795 0.74572 0.0
C216 C 0.43708 0.15009 0.77094 0.0
H217 H 0.44253 0.16254 0.76577 0.0
H218 H 0.44472 0.13948 0.76434 0.0
H219 H 0.43856 0.14976 0.78656 0.0
C220 C 0.4511 0.09926 0.7127 0.0
N221 N 0.44811 0.11654 0.7118 0.0
N222 N 0.43644 0.12079 0.72458 0.0
C223 C 0.43172 0.10622 0.73413 0.0
C224 C 0.44093 0.09201 0.727 0.0
C225 C 0.46236 0.0896 0.69901 0.0
H226 H 0.46052 0.09482 0.68449 0.0
H227 H 0.47615 0.09135 0.70309 0.0
H228 H 0.45934 0.07553 0.69892 0.0
O229 O 0.43707 0.14476 0.68055 0.0
O230 O 0.41699 0.15268 0.70136 0.0
H231 H 0.40673 0.11225 0.74564 0.0
H232 H 0.41632 0.09272 0.75536 0.0
C233 C 0.41901 0.10602 0.75019 0.0
H234 H 0.42439 0.11358 0.76219 0.0
H235 H 0.3894 0.14711 0.73318 0.0
O236 O 0.47214 0.12511 0.67606 0.0
C237 C 0.42255 0.15184 0.6843 0.0
Co238 Co 0.11602 0.2106 0.94724 0.0
Co239 Co 0.10628 0.18239 0.97683 0.0
C240 C 0.08607 0.21599 0.97398 0.0
O241 O 0.0961 0.22168 0.96099 0.0
O242 O 0.08883 0.20125 0.98163 0.0
C243 C 0.12928 0.24288 0.93165 0.0
O244 O 0.1287 0.24908 0.949 0.0
C245 C 0.10044 0.16908 0.01504 0.0
C246 C 0.10818 0.14157 0.01255 0.0
C247 C 0.10282 0.15402 0.02545 0.0
N248 N 0.1042 0.16573 0.99679 0.0
N249 N 0.10853 0.14919 0.99532 0.0
C250 C 0.09696 0.18689 0.02262 0.0
H251 H 0.10475 0.1966 0.0147 0.0
H252 H 0.10002 0.18777 0.03797 0.0
H253 H 0.08304 0.19 0.02054 0.0
C254 C 0.15141 0.20543 0.96377 0.0
N255 N 0.13416 0.20228 0.96318 0.0
N256 N 0.13018 0.19056 0.97602 0.0
C257 C 0.14486 0.1862 0.98554 0.0
C258 C 0.15891 0.19546 0.97809 0.0
C259 C 0.16081 0.21651 0.94966 0.0
H260 H 0.15496 0.21494 0.93541 0.0
H261 H 0.15969 0.23031 0.95395 0.0
H262 H 0.17475 0.21304 0.94884 0.0
O263 O 0.10611 0.19178 0.93174 0.0
O264 O 0.09838 0.17134 0.95225 0.0
H265 H 0.14291 0.16052 0.99681 0.0
H266 H 0.15798 0.17428 0.00945 0.0
C267 C 0.14535 0.1739 1.00196 0.0
H268 H 0.13503 0.17736 0.0122 0.0
H269 H 0.11254 0.14331 0.98273 0.0
O270 O 0.12483 0.22728 0.92858 0.0
C271 C 0.09914 0.17718 0.93529 0.0
Co272 Co 0.95261 0.83727 0.74217 0.0
Co273 Co 0.94131 0.87271 0.72599 0.0
C274 C 0.97573 0.85608 0.71533 0.0
O275 O 0.97314 0.84304 0.72612 0.0
O276 O 0.9646 0.86829 0.71426 0.0
C277 C 0.96957 0.81094 0.76545 0.0
O278 O 0.98374 0.82039 0.76477 0.0
C279 C 0.9425 0.9098 0.72729 0.0
C280 C 0.91678 0.91699 0.71596 0.0
C281 C 0.9312 0.92361 0.72523 0.0
N282 N 0.9349 0.89564 0.72012 0.0
N283 N 0.91982 0.90007 0.71267 0.0
C284 C 0.95885 0.90932 0.73878 0.0
H285 H 0.96346 0.89579 0.74067 0.0
H286 H 0.9568 0.91545 0.75284 0.0
H287 H 0.96902 0.91689 0.73132 0.0
C288 C 0.94373 0.85414 0.77866 0.0
N289 N 0.94666 0.85491 0.7598 0.0
N290 N 0.94033 0.86953 0.75308 0.0
C291 C 0.93254 0.87821 0.76749 0.0
C292 C 0.93483 0.8689 0.78421 0.0
C293 C 0.94678 0.83838 0.79065 0.0
H294 H 0.93979 0.82719 0.78443 0.0
H295 H 0.96085 0.83555 0.79105 0.0
H296 H 0.94215 0.84005 0.80542 0.0
O297 O 0.93209 0.83222 0.72607 0.0
O298 O 0.92417 0.85759 0.71397 0.0
H299 H 0.91454 0.89352 0.75131 0.0
H300 H 0.91175 0.8951 0.7767 0.0
C301 C 0.9214 0.89397 0.7651 0.0
H302 H 0.92966 0.90571 0.76558 0.0
H303 H 0.91093 0.89128 0.70701 0.0
O304 O 0.95626 0.81567 0.75624 0.0
C305 C 0.92203 0.84134 0.71578 0.0
Co306 Co 0.91665 0.19434 0.48788 0.0
Co307 Co 0.8788 0.18594 0.47653 0.0
C308 C 0.89659 0.21951 0.46442 0.0
O309 O 0.91063 0.21535 0.47286 0.0
O310 O 0.88327 0.20966 0.46523 0.0
C311 C 0.95359 0.19073 0.49213 0.0
O312 O 0.95332 0.18498 0.4746 0.0
C313 C 0.84243 0.187 0.48531 0.0
C314 C 0.83327 0.16275 0.47192 0.0
C315 C 0.8285 0.17566 0.48457 0.0
N316 N 0.85502 0.18069 0.47417 0.0
N317 N 0.84927 0.16658 0.46561 0.0
C318 C 0.8449 0.20192 0.49865 0.0
H319 H 0.85844 0.20678 0.4981 0.0
H320 H 0.84154 0.19806 0.51337 0.0
H321 H 0.83604 0.21261 0.4945 0.0
C322 C 0.9035 0.186 0.52595 0.0
N323 N 0.90057 0.18947 0.50751 0.0
N324 N 0.88523 0.1835 0.50275 0.0
C325 C 0.87839 0.17503 0.51791 0.0
C326 C 0.88971 0.17659 0.53318 0.0
C327 C 0.92011 0.18965 0.53604 0.0
H328 H 0.92566 0.20215 0.53115 0.0
H329 H 0.91808 0.19019 0.55162 0.0
H330 H 0.92927 0.17894 0.53293 0.0
O331 O 0.91826 0.17411 0.47052 0.0
O332 O 0.89131 0.16856 0.46148 0.0
H333 H 0.86152 0.15794 0.50233 0.0
H334 H 0.86532 0.1516 0.52665 0.0
C335 C 0.86333 0.1628 0.51698 0.0
H336 H 0.85141 0.16959 0.52166 0.0
H337 H 0.85686 0.15863 0.45696 0.0
O338 O 0.93973 0.19638 0.49967 0.0
C339 C 0.90744 0.16525 0.46092 0.0
Co340 Co 0.54022 0.16359 0.25113 0.0
Co341 Co 0.55848 0.1325 0.23175 0.0
C342 C 0.52249 0.14265 0.22045 0.0
O343 O 0.5228 0.15493 0.2325 0.0
O344 O 0.53534 0.13239 0.21882 0.0
C345 C 0.51533 0.17335 0.27811 0.0
O346 O 0.511 0.15692 0.2766 0.0
C347 C 0.5673 0.09931 0.21393 0.0
C348 C 0.59567 0.09833 0.21832 0.0
C349 C 0.58181 0.08896 0.21113 0.0
N350 N 0.57231 0.11387 0.2228 0.0
N351 N 0.58933 0.1134 0.22498 0.0
C352 C 0.54922 0.09625 0.20692 0.0
H353 H 0.545 0.10764 0.19853 0.0
H354 H 0.54031 0.09482 0.21919 0.0
H355 H 0.54835 0.08472 0.19757 0.0
C356 C 0.55428 0.1467 0.2853 0.0
N357 N 0.55032 0.14623 0.26668 0.0
N358 N 0.55751 0.13248 0.25893 0.0
C359 C 0.56594 0.12349 0.27266 0.0
C360 C 0.56401 0.13217 0.28985 0.0
C361 C 0.55201 0.1624 0.29764 0.0
H362 H 0.55254 0.1744 0.28901 0.0
H363 H 0.53931 0.16161 0.30499 0.0
H364 H 0.56228 0.16321 0.30862 0.0
O365 O 0.55897 0.17622 0.2376 0.0
O366 O 0.57099 0.1534 0.2236 0.0
H367 H 0.58997 0.11194 0.26463 0.0
H368 H 0.57826 0.10008 0.28249 0.0
C369 C 0.57687 0.10778 0.26926 0.0
H370 H 0.57101 0.09962 0.25801 0.0
H371 H 0.59656 0.12321 0.23142 0.0
O372 O 0.52745 0.17937 0.26779 0.0
C373 C 0.57043 0.16964 0.22673 0.0
Co374 Co 0.5858 0.80699 0.98876 0.0
Co375 Co 0.62201 0.81711 0.97332 0.0
C376 C 0.60402 0.78404 0.96095 0.0
O377 O 0.59081 0.78688 0.97144 0.0
O378 O 0.61678 0.79457 0.96074 0.0
C379 C 0.5498 0.80939 0.99743 0.0
O380 O 0.54872 0.8161 0.98034 0.0
C381 C 0.65944 0.81465 0.97126 0.0
C382 C 0.6664 0.84069 0.96048 0.0
C383 C 0.67346 0.82538 0.96735 0.0
N384 N 0.64489 0.82347 0.96742 0.0
N385 N 0.64908 0.83886 0.96056 0.0
C386 C 0.65958 0.79633 0.97837 0.0
H387 H 0.64901 0.78884 0.97156 0.0
H388 H 0.65715 0.7962 0.99388 0.0
H389 H 0.6722 0.78996 0.97538 0.0
C390 C 0.6031 0.813 0.02546 0.0
N391 N 0.60385 0.81104 0.00649 0.0
N392 N 0.61886 0.81675 1.00026 0.0
C393 C 0.62795 0.82315 0.01514 0.0
C394 C 0.6183 0.82077 0.03166 0.0
C395 C 0.58694 0.81032 0.03683 0.0
H396 H 0.57741 0.82047 0.03282 0.0
H397 H 0.58137 0.7974 0.03354 0.0
H398 H 0.58926 0.81121 0.0523 0.0
O399 O 0.58175 0.8286 0.97391 0.0
O400 O 0.60752 0.8351 0.96194 0.0
H401 H 0.64397 0.84207 1.00132 0.0
H402 H 0.64798 0.83991 0.02656 0.0
C403 C 0.64471 0.83282 0.01335 0.0
H404 H 0.65531 0.8235 0.01041 0.0
H405 H 0.64013 0.8484 0.95677 0.0
O406 O 0.56419 0.80336 0.0032 0.0
C407 C 0.59149 0.83827 0.9639 0.0
Co408 Co 0.9471 0.16887 0.76257 0.0
Co409 Co 0.9392 0.13269 0.77942 0.0
C410 C 0.97215 0.15102 0.78932 0.0
O411 O 0.96764 0.16418 0.7795 0.0
O412 O 0.96268 0.1375 0.78989 0.0
C413 C 0.96604 0.19109 0.73804 0.0
O414 O 0.97842 0.17954 0.74021 0.0
C415 C 0.94095 0.09721 0.79421 0.0
C416 C 0.91326 0.08974 0.79363 0.0
C417 C 0.92963 0.08375 0.79835 0.0
N418 N 0.93167 0.11047 0.78719 0.0
N419 N 0.91512 0.10604 0.78713 0.0
C420 C 0.95993 0.09823 0.79852 0.0
H421 H 0.96217 0.10915 0.80845 0.0
H422 H 0.96723 0.10094 0.78527 0.0
H423 H 0.96489 0.08627 0.80536 0.0
C424 C 0.93753 0.15081 0.72697 0.0
N425 N 0.9415 0.15051 0.74561 0.0
N426 N 0.93813 0.13498 0.75244 0.0
C427 C 0.93218 0.12483 0.73818 0.0
C428 C 0.93159 0.1346 0.72161 0.0
C429 C 0.93773 0.16676 0.71481 0.0
H430 H 0.93128 0.17759 0.72236 0.0
H431 H 0.95135 0.17035 0.71176 0.0
H432 H 0.93112 0.16471 0.70102 0.0
O433 O 0.92651 0.17427 0.77812 0.0
O434 O 0.92245 0.14852 0.79152 0.0
H435 H 0.91246 0.1072 0.74704 0.0
H436 H 0.92478 0.09992 0.72682 0.0
C437 C 0.9256 0.10673 0.74067 0.0
H438 H 0.93425 0.09943 0.7504 0.0
H439 H 0.9051 0.11412 0.78254 0.0
O440 O 0.95197 0.18942 0.74718 0.0
C441 C 0.91833 0.16437 0.78945 0.0
Co442 Co 0.59172 0.20862 0.50898 0.0
Co443 Co 0.62548 0.19292 0.52542 0.0
C444 C 0.61362 0.22827 0.5373 0.0
O445 O 0.60052 0.22691 0.52642 0.0
O446 O 0.62485 0.21618 0.53816 0.0
C447 C 0.57814 0.23222 0.48275 0.0
O448 O 0.59433 0.23757 0.4826 0.0
C449 C 0.65905 0.18589 0.54338 0.0
C450 C 0.66268 0.1581 0.53673 0.0
C451 C 0.67033 0.17206 0.54584 0.0
N452 N 0.64553 0.18043 0.53298 0.0
N453 N 0.64761 0.16373 0.52936 0.0
C454 C 0.65993 0.20336 0.55261 0.0
H455 H 0.64784 0.2055 0.56075 0.0
H456 H 0.66089 0.21357 0.54154 0.0
H457 H 0.67094 0.20445 0.56265 0.0
C458 C 0.60711 0.19586 0.4733 0.0
N459 N 0.60852 0.19964 0.4919 0.0
N460 N 0.62343 0.19378 0.49832 0.0
C461 C 0.63223 0.18653 0.48367 0.0
C462 C 0.62219 0.18778 0.46731 0.0
C463 C 0.5905 0.19677 0.46226 0.0
H464 H 0.57918 0.19546 0.47183 0.0
H465 H 0.58984 0.20937 0.45467 0.0
H466 H 0.58979 0.1863 0.45149 0.0
O467 O 0.5816 0.18928 0.52388 0.0
O468 O 0.60626 0.17885 0.5354 0.0
H469 H 0.64718 0.16374 0.48895 0.0
H470 H 0.65648 0.17815 0.4717 0.0
C471 C 0.64936 0.17759 0.48538 0.0
H472 H 0.65725 0.18367 0.49672 0.0
H473 H 0.6387 0.15618 0.52187 0.0
O474 O 0.57376 0.21995 0.49383 0.0
C475 C 0.58983 0.17827 0.53393 0.0
Co476 Co 0.55526 0.84107 0.26027 0.0
Co477 Co 0.5687 0.87616 0.27596 0.0
C478 C 0.53358 0.86124 0.28739 0.0
O479 O 0.5355 0.848 0.27675 0.0
O480 O 0.54517 0.87307 0.2881 0.0
C481 C 0.55605 0.80516 0.25017 0.0
O482 O 0.56438 0.80335 0.2663 0.0
C483 C 0.57108 0.91323 0.2727 0.0
C484 C 0.59684 0.91834 0.28528 0.0
C485 C 0.58369 0.92593 0.27472 0.0
N486 N 0.57681 0.89874 0.28111 0.0
N487 N 0.59191 0.90199 0.28921 0.0
C488 C 0.55516 0.91383 0.26052 0.0
H489 H 0.5495 0.90068 0.25881 0.0
H490 H 0.55816 0.91946 0.2464 0.0
H491 H 0.54535 0.92228 0.26739 0.0
C492 C 0.5638 0.85723 0.22372 0.0
N493 N 0.56147 0.85844 0.24261 0.0
N494 N 0.56939 0.87236 0.24897 0.0
C495 C 0.57798 0.87987 0.2343 0.0
C496 C 0.5744 0.87068 0.21775 0.0
C497 C 0.55842 0.84188 0.21217 0.0
H498 H 0.56732 0.83094 0.21529 0.0
H499 H 0.54499 0.83809 0.21602 0.0
H500 H 0.55895 0.84457 0.19674 0.0
O501 O 0.57585 0.83533 0.27621 0.0
O502 O 0.58493 0.86029 0.28825 0.0
H503 H 0.59733 0.89349 0.25046 0.0
H504 H 0.60113 0.89341 0.22517 0.0
C505 C 0.59105 0.89414 0.23635 0.0
H506 H 0.58448 0.90684 0.2348 0.0
H507 H 0.59957 0.89264 0.2959 0.0
O508 O 0.54983 0.81987 0.24572 0.0
C509 C 0.58629 0.84396 0.28653 0.0
Co510 Co 0.91638 0.79618 0.00684 0.0
Co511 Co 0.88628 0.81622 0.02555 0.0
C512 C 0.89531 0.78086 0.03923 0.0
O513 O 0.90743 0.7805 0.027 0.0
O514 O 0.88529 0.79395 0.04038 0.0
C515 C 0.92227 0.76864 0.98273 0.0
O516 O 0.90563 0.76661 0.98613 0.0
C517 C 0.85174 0.82684 0.03626 0.0
C518 C 0.85477 0.85512 0.04039 0.0
C519 C 0.84264 0.84186 0.04039 0.0
N520 N 0.86845 0.83101 0.034 0.0
N521 N 0.87031 0.84785 0.0369 0.0
C522 C 0.84445 0.80931 0.03173 0.0
H523 H 0.85424 0.80118 0.02438 0.0
H524 H 0.83274 0.81058 0.02267 0.0
H525 H 0.84056 0.80279 0.04512 0.0
C526 C 0.89934 0.80885 0.97226 0.0
N527 N 0.89897 0.80584 0.99108 0.0
N528 N 0.88557 0.81383 0.99859 0.0
C529 C 0.87682 0.8221 0.98458 0.0
C530 C 0.88516 0.81897 0.96736 0.0
C531 C 0.9148 0.80528 0.95993 0.0
H532 H 0.92689 0.80568 0.96842 0.0
H533 H 0.91342 0.79226 0.95341 0.0
H534 H 0.91597 0.81496 0.94833 0.0
O535 O 0.93021 0.81532 0.01838 0.0
O536 O 0.90769 0.82863 0.0316 0.0
H537 H 0.8665 0.84556 0.99612 0.0
H538 H 0.8563 0.83877 0.97422 0.0
C539 C 0.86196 0.83421 0.98781 0.0
H540 H 0.85177 0.82752 0.99614 0.0
H541 H 0.88201 0.85452 0.03551 0.0
O542 O 0.93041 0.78097 0.99077 0.0
C543 C 0.92385 0.82774 0.0281 0.0
Co544 Co 0.54514 0.63529 0.80817 0.0
Co545 Co 0.57272 0.64564 0.77829 0.0
C546 C 0.53807 0.66469 0.78197 0.0
O547 O 0.53253 0.65427 0.79467 0.0
O548 O 0.55301 0.66253 0.77452 0.0
C549 C 0.51536 0.62087 0.82964 0.0
O550 O 0.5061 0.61983 0.81404 0.0
C551 C 0.58319 0.65042 0.73909 0.0
C552 C 0.61178 0.64894 0.74037 0.0
C553 C 0.59799 0.65075 0.72788 0.0
N554 N 0.58801 0.64854 0.75728 0.0
N555 N 0.60512 0.64784 0.75802 0.0
C556 C 0.56469 0.64984 0.73266 0.0
H557 H 0.55654 0.64304 0.74331 0.0
H558 H 0.56355 0.64315 0.71877 0.0
H559 H 0.55978 0.6633 0.73109 0.0
C560 C 0.55077 0.59999 0.79155 0.0
N561 N 0.55371 0.61728 0.79226 0.0
N562 N 0.56545 0.62146 0.77952 0.0
C563 C 0.57021 0.60684 0.77012 0.0
C564 C 0.561 0.59266 0.77737 0.0
C565 C 0.53942 0.59046 0.80529 0.0
H566 H 0.54139 0.59565 0.81978 0.0
H567 H 0.52565 0.59241 0.80126 0.0
H568 H 0.54227 0.57635 0.80542 0.0
O569 O 0.56396 0.64676 0.82218 0.0
O570 O 0.58481 0.65387 0.80209 0.0
H571 H 0.5954 0.61209 0.75874 0.0
H572 H 0.58486 0.59341 0.74824 0.0
C573 C 0.58282 0.60663 0.75398 0.0
H574 H 0.57781 0.61492 0.74237 0.0
H575 H 0.61221 0.64612 0.77048 0.0
O576 O 0.53086 0.62634 0.82893 0.0
C577 C 0.5786 0.65369 0.81888 0.0
Co578 Co 0.61737 0.29806 0.06153 0.0
Co579 Co 0.60661 0.32547 0.03159 0.0
C580 C 0.58739 0.29102 0.03591 0.0
O581 O 0.59781 0.28566 0.0487 0.0
O582 O 0.58965 0.30579 0.02809 0.0
C583 C 0.62995 0.267 0.0807 0.0
O584 O 0.62663 0.25848 0.06497 0.0
C585 C 0.60182 0.33568 0.99238 0.0
C586 C 0.60274 0.36431 0.99342 0.0
C587 C 0.60131 0.3504 0.98103 0.0
N588 N 0.60346 0.34066 0.01054 0.0
N589 N 0.60382 0.35779 0.01114 0.0
C590 C 0.60282 0.31713 0.98613 0.0
H591 H 0.60952 0.30916 0.997 0.0
H592 H 0.6098 0.31601 0.97241 0.0
H593 H 0.58948 0.312 0.9843 0.0
C594 C 0.65223 0.30312 0.04381 0.0
N595 N 0.63502 0.30629 0.04492 0.0
N596 N 0.63076 0.31814 0.03234 0.0
C597 C 0.64527 0.32285 0.02271 0.0
C598 C 0.65947 0.31342 0.02959 0.0
C599 C 0.66175 0.2914 0.05718 0.0
H600 H 0.65761 0.29412 0.07194 0.0
H601 H 0.65844 0.27772 0.05387 0.0
H602 H 0.676 0.29314 0.05621 0.0
O603 O 0.60664 0.31716 0.07605 0.0
O604 O 0.59885 0.33755 0.05559 0.0
H605 H 0.63948 0.34805 0.0116 0.0
H606 H 0.65864 0.33819 1.00134 0.0
C607 C 0.6454 0.33569 0.00677 0.0
H608 H 0.63749 0.33058 0.99492 0.0
H609 H 0.60532 0.365 0.02356 0.0
O610 O 0.62724 0.28322 0.08139 0.0
C611 C 0.59958 0.33173 0.07254 0.0
Co612 Co 0.95397 0.36867 0.31214 0.0
Co613 Co 0.92725 0.35889 0.28107 0.0
C614 C 0.96147 0.3397 0.28495 0.0
O615 O 0.96643 0.34948 0.2985 0.0
O616 O 0.94693 0.34231 0.27683 0.0
C617 C 0.9849 0.38226 0.33047 0.0
O618 O 0.99225 0.38229 0.31365 0.0
C619 C 0.91664 0.35546 0.24168 0.0
C620 C 0.88803 0.35641 0.24324 0.0
C621 C 0.90177 0.35555 0.2306 0.0
N622 N 0.91192 0.35659 0.25998 0.0
N623 N 0.8948 0.35698 0.26087 0.0
C624 C 0.9351 0.35359 0.23535 0.0
H625 H 0.94016 0.34095 0.24045 0.0
H626 H 0.94314 0.36392 0.2419 0.0
H627 H 0.93649 0.35389 0.21972 0.0
C628 C 0.94896 0.40429 0.29569 0.0
N629 N 0.94589 0.38701 0.29616 0.0
N630 N 0.93454 0.38303 0.28294 0.0
C631 C 0.9302 0.39776 0.27347 0.0
C632 C 0.93926 0.41183 0.28118 0.0
C633 C 0.95997 0.41368 0.30985 0.0
H634 H 0.95799 0.40807 0.32417 0.0
H635 H 0.97381 0.41219 0.3059 0.0
H636 H 0.95679 0.42772 0.31032 0.0
O637 O 0.93474 0.35766 0.3263 0.0
O638 O 0.91532 0.34993 0.30469 0.0
H639 H 0.90554 0.39247 0.26079 0.0
H640 H 0.91621 0.41152 0.25129 0.0
C641 C 0.91821 0.3982 0.25677 0.0
H642 H 0.92381 0.3903 0.24517 0.0
H643 H 0.88775 0.35802 0.27346 0.0
O644 O 0.96924 0.37746 0.33217 0.0
C645 C 0.92051 0.35036 0.3219 0.0
Co646 Co 0.88862 0.70587 0.56025 0.0
Co647 Co 0.89913 0.67846 0.53026 0.0
C648 C 0.91882 0.7124 0.53438 0.0
O649 O 0.90856 0.71766 0.54734 0.0
O650 O 0.91632 0.6978 0.52633 0.0
C651 C 0.87564 0.73816 0.57435 0.0
O652 O 0.87975 0.74416 0.55749 0.0
C653 C 0.90274 0.66756 0.49119 0.0
C654 C 0.90184 0.63894 0.49282 0.0
C655 C 0.90244 0.65269 0.48013 0.0
N656 N 0.90192 0.66286 0.50951 0.0
N657 N 0.90162 0.64573 0.51045 0.0
C658 C 0.90416 0.68606 0.48476 0.0
H659 H 0.8935 0.69382 0.49107 0.0
H660 H 0.90406 0.68734 0.46911 0.0
H661 H 0.91655 0.69153 0.49005 0.0
C662 C 0.85363 0.70076 0.5428 0.0
N663 N 0.87088 0.69765 0.54369 0.0
N664 N 0.87506 0.68597 0.53092 0.0
C665 C 0.86047 0.68137 0.52135 0.0
C666 C 0.84632 0.69068 0.52848 0.0
C667 C 0.84402 0.71203 0.55654 0.0
H668 H 0.84888 0.70974 0.57112 0.0
H669 H 0.84624 0.72585 0.55282 0.0
H670 H 0.82987 0.70941 0.5563 0.0
O671 O 0.89885 0.68683 0.57556 0.0
O672 O 0.90672 0.66683 0.55459 0.0
H673 H 0.86637 0.65636 0.50981 0.0
H674 H 0.84686 0.66602 0.50019 0.0
C675 C 0.86018 0.66867 0.50529 0.0
H676 H 0.86769 0.67404 0.49326 0.0
H677 H 0.9007 0.6387 0.52307 0.0
O678 O 0.8785 0.72235 0.57831 0.0
C679 C 0.90597 0.67233 0.57168 0.0
Co680 Co 0.54611 0.36633 0.69773 0.0
Co681 Co 0.57417 0.35574 0.72704 0.0
C682 C 0.54056 0.33543 0.72285 0.0
O683 O 0.53497 0.34589 0.71026 0.0
O684 O 0.55522 0.338 0.73075 0.0
C685 C 0.51317 0.3766 0.68321 0.0
O686 O 0.50736 0.3707 0.69951 0.0
C687 C 0.5853 0.35165 0.76599 0.0
C688 C 0.61391 0.35195 0.76418 0.0
C689 C 0.60024 0.3513 0.77694 0.0
N690 N 0.58991 0.35283 0.74767 0.0
N691 N 0.60703 0.35283 0.74661 0.0
C692 C 0.56684 0.35027 0.77247 0.0
H693 H 0.55905 0.36085 0.76603 0.0
H694 H 0.56557 0.35053 0.78812 0.0
H695 H 0.56138 0.3378 0.76735 0.0
C696 C 0.55066 0.40097 0.71576 0.0
N697 N 0.55406 0.3838 0.7146 0.0
N698 N 0.56613 0.37968 0.72695 0.0
C699 C 0.57078 0.39427 0.73649 0.0
C700 C 0.56106 0.40834 0.72977 0.0
C701 C 0.53882 0.41038 0.70242 0.0
H702 H 0.5415 0.40622 0.68766 0.0
H703 H 0.52519 0.40699 0.70584 0.0
H704 H 0.54046 0.42465 0.7033 0.0
O705 O 0.5653 0.35705 0.68214 0.0
O706 O 0.58583 0.34903 0.70242 0.0
H707 H 0.59623 0.38859 0.74696 0.0
H708 H 0.58668 0.40796 0.75709 0.0
C709 C 0.58402 0.39463 0.75202 0.0
H710 H 0.57917 0.38696 0.76421 0.0
H711 H 0.61399 0.35382 0.73396 0.0
O712 O 0.52932 0.37618 0.67979 0.0
C713 C 0.58004 0.35025 0.68547 0.0
Co714 Co 0.88589 0.30003 0.94687 0.0
Co715 Co 0.89567 0.32805 0.97652 0.0
C716 C 0.91568 0.29415 0.97325 0.0
O717 O 0.9055 0.28837 0.96049 0.0
O718 O 0.91307 0.30901 0.98064 0.0
C719 C 0.87147 0.26828 0.93127 0.0
O720 O 0.87086 0.26243 0.94877 0.0
C721 C 0.89942 0.33895 0.01562 0.0
C722 C 0.89839 0.36757 0.01405 0.0
C723 C 0.89934 0.35381 0.02669 0.0
N724 N 0.89818 0.34366 0.99733 0.0
N725 N 0.89777 0.36079 0.99642 0.0
C726 C 0.90123 0.32046 0.02196 0.0
H727 H 0.89112 0.31237 0.01507 0.0
H728 H 0.90054 0.31902 0.03757 0.0
H729 H 0.91402 0.3155 0.01724 0.0
C730 C 0.8504 0.30525 0.96363 0.0
N731 N 0.86767 0.30833 0.96289 0.0
N732 N 0.87171 0.32009 0.97566 0.0
C733 C 0.85706 0.32461 0.98517 0.0
C734 C 0.84298 0.31527 0.97793 0.0
C735 C 0.84078 0.29422 0.94968 0.0
H736 H 0.84667 0.29546 0.93541 0.0
H737 H 0.84145 0.28046 0.95424 0.0
H738 H 0.82692 0.29804 0.9488 0.0
O739 O 0.89628 0.31913 0.93182 0.0
O740 O 0.90327 0.33985 0.95228 0.0
H741 H 0.86242 0.3497 0.99679 0.0
H742 H 0.8434 0.33939 0.00679 0.0
C743 C 0.85669 0.33718 1.00135 0.0
H744 H 0.8646 0.33196 0.01315 0.0
H745 H 0.89663 0.36783 0.98383 0.0
O746 O 0.87702 0.28351 0.92803 0.0
C747 C 0.9029 0.33393 0.93535 0.0
Co748 Co 0.95775 0.63832 0.19923 0.0
Co749 Co 0.92883 0.64843 0.2277 0.0
C750 C 0.96272 0.66852 0.2254 0.0
O751 O 0.96883 0.65824 0.21292 0.0
O752 O 0.94771 0.66588 0.23243 0.0
C753 C 0.99042 0.62469 0.18689 0.0
O754 O 0.99496 0.62655 0.20474 0.0
C755 C 0.91651 0.65224 0.26622 0.0
C756 C 0.88799 0.65115 0.26346 0.0
C757 C 0.90128 0.65205 0.27667 0.0
N758 N 0.91246 0.65109 0.24775 0.0
N759 N 0.89538 0.65065 0.24612 0.0
C760 C 0.93475 0.65397 0.27334 0.0
H761 H 0.94006 0.6666 0.26853 0.0
H762 H 0.94295 0.64362 0.26708 0.0
H763 H 0.93558 0.65359 0.28902 0.0
C764 C 0.95198 0.60305 0.21623 0.0
N765 N 0.94891 0.62032 0.21522 0.0
N766 N 0.93667 0.62443 0.2274 0.0
C767 C 0.93172 0.60982 0.23674 0.0
C768 C 0.94133 0.59569 0.23004 0.0
C769 C 0.9637 0.59342 0.20298 0.0
H770 H 0.96261 0.59885 0.18847 0.0
H771 H 0.9773 0.59482 0.20788 0.0
H772 H 0.96045 0.5794 0.20248 0.0
O773 O 0.93925 0.64853 0.18313 0.0
O774 O 0.91808 0.6559 0.20291 0.0
H775 H 0.90618 0.61537 0.247 0.0
H776 H 0.91584 0.59621 0.25746 0.0
C777 C 0.91842 0.6095 0.25221 0.0
H778 H 0.92316 0.61732 0.26432 0.0
H779 H 0.88881 0.64953 0.23324 0.0
O780 O 0.97518 0.62884 0.18177 0.0
C781 C 0.92445 0.65535 0.18618 0.0
Co782 Co 0.6206 0.70809 0.44642 0.0
Co783 Co 0.60998 0.6793 0.47485 0.0
C784 C 0.58995 0.71328 0.47176 0.0
O785 O 0.60048 0.7194 0.45951 0.0
O786 O 0.59241 0.69827 0.47888 0.0
C787 C 0.63315 0.74081 0.43203 0.0
O788 O 0.62882 0.74714 0.44868 0.0
C789 C 0.60381 0.66733 0.51319 0.0
C790 C 0.60625 0.63884 0.51106 0.0
C791 C 0.60337 0.6522 0.52386 0.0
N792 N 0.60672 0.66312 0.49499 0.0
N793 N 0.60802 0.64606 0.49373 0.0
C794 C 0.60354 0.68564 0.52029 0.0
H795 H 0.61084 0.69424 0.5105 0.0
H796 H 0.60927 0.6865 0.5347 0.0
H797 H 0.58991 0.69023 0.52093 0.0
C798 C 0.65536 0.70267 0.46433 0.0
N799 N 0.63816 0.69944 0.46295 0.0
N800 N 0.63389 0.68721 0.47508 0.0
C801 C 0.64833 0.68239 0.48476 0.0
C802 C 0.66252 0.69207 0.47832 0.0
C803 C 0.66501 0.71458 0.45126 0.0
H804 H 0.66053 0.71259 0.43649 0.0
H805 H 0.6623 0.72822 0.45533 0.0
H806 H 0.6792 0.71231 0.4518 0.0
O807 O 0.61071 0.68941 0.43039 0.0
O808 O 0.60313 0.66821 0.45004 0.0
H809 H 0.64377 0.65652 0.49458 0.0
H810 H 0.66139 0.66746 0.50668 0.0
C811 C 0.64837 0.66912 0.50027 0.0
H812 H 0.63931 0.67323 0.51159 0.0
H813 H 0.61056 0.63939 0.48115 0.0
O814 O 0.63073 0.72483 0.4286 0.0
C815 C 0.60397 0.67455 0.4333 0.0
Co816 Co 0.45138 0.34269 0.24538 0.0
Co817 Co 0.43751 0.37713 0.22824 0.0
C818 C 0.47297 0.36237 0.21776 0.0
O819 O 0.47121 0.34941 0.22887 0.0
O820 O 0.46117 0.37395 0.21652 0.0
C821 C 0.44923 0.30769 0.25886 0.0
O822 O 0.43881 0.30556 0.24432 0.0
C823 C 0.43459 0.41409 0.23099 0.0
C824 C 0.40911 0.41884 0.2176 0.0
C825 C 0.42184 0.4266 0.22862 0.0
N826 N 0.42932 0.39954 0.22237 0.0
N827 N 0.41441 0.40259 0.21376 0.0
C828 C 0.45007 0.41484 0.24384 0.0
H829 H 0.45624 0.40189 0.24516 0.0
H830 H 0.44633 0.41972 0.25807 0.0
H831 H 0.45973 0.42399 0.23781 0.0
C832 C 0.44216 0.35981 0.28118 0.0
N833 N 0.44479 0.36053 0.2623 0.0
N834 N 0.43649 0.37396 0.25527 0.0
C835 C 0.42726 0.38148 0.26943 0.0
C836 C 0.43089 0.37296 0.28638 0.0
C837 C 0.44801 0.34518 0.29354 0.0
H838 H 0.43942 0.33384 0.29116 0.0
H839 H 0.46153 0.34161 0.28984 0.0
H840 H 0.44744 0.34867 0.30879 0.0
O841 O 0.43096 0.33632 0.22927 0.0
O842 O 0.42159 0.36084 0.21637 0.0
H843 H 0.4078 0.39367 0.25206 0.0
H844 H 0.40284 0.39334 0.27711 0.0
C845 C 0.41336 0.39479 0.2665 0.0
H846 H 0.41896 0.40793 0.26833 0.0
H847 H 0.40706 0.39313 0.20687 0.0
O848 O 0.45705 0.32207 0.26101 0.0
C849 C 0.42046 0.34454 0.21859 0.0
Co850 Co 0.4125 0.70908 1.00028 0.0
Co851 Co 0.385 0.68671 0.97999 0.0
C852 C 0.39225 0.72287 0.96668 0.0
O853 O 0.40361 0.72442 0.97966 0.0
O854 O 0.38346 0.70894 0.96518 0.0
C855 C 0.41785 0.73735 0.02437 0.0
O856 O 0.40144 0.74007 0.0203 0.0
C857 C 0.35156 0.67465 0.96712 0.0
C858 C 0.35616 0.64675 0.96181 0.0
C859 C 0.34347 0.65946 0.96155 0.0
N860 N 0.3683 0.67117 0.97033 0.0
N861 N 0.37111 0.65456 0.96678 0.0
C862 C 0.34319 0.69164 0.97182 0.0
H863 H 0.35209 0.69988 0.98029 0.0
H864 H 0.33098 0.68947 0.97985 0.0
H865 H 0.33988 0.6985 0.95846 0.0
C866 C 0.39541 0.69435 0.03388 0.0
N867 N 0.39503 0.69825 0.01523 0.0
N868 N 0.38305 0.68881 0.00688 0.0
C869 C 0.37548 0.67851 0.02006 0.0
C870 C 0.38303 0.68173 0.03765 0.0
C871 C 0.40947 0.70012 0.04715 0.0
H872 H 0.4223 0.69881 0.04018 0.0
H873 H 0.40739 0.71394 0.05082 0.0
H874 H 0.4095 0.69262 0.06059 0.0
O875 O 0.42793 0.69074 0.98933 0.0
O876 O 0.40718 0.67555 0.97511 0.0
H877 H 0.37123 0.65392 0.00688 0.0
H878 H 0.35895 0.65715 0.02845 0.0
C879 C 0.36389 0.66354 0.0154 0.0
H880 H 0.35277 0.66816 0.00681 0.0
H881 H 0.38305 0.6484 0.96854 0.0
O882 O 0.42567 0.72449 0.01698 0.0
C883 C 0.42301 0.67774 0.97951 0.0
Co884 Co 0.04024 0.6625 0.75493 0.0
Co885 Co 0.06482 0.6379 0.73306 0.0
C886 C 0.02781 0.64271 0.72062 0.0
O887 O 0.02526 0.6531 0.73438 0.0
O888 O 0.04253 0.63544 0.71839 0.0
C889 C 0.01184 0.66733 0.78047 0.0
O890 O 0.00728 0.65156 0.77548 0.0
C891 C 0.07978 0.60598 0.71891 0.0
C892 C 0.10725 0.61317 0.71445 0.0
C893 C 0.09576 0.59937 0.71361 0.0
N894 N 0.08168 0.62289 0.72262 0.0
N895 N 0.09802 0.62726 0.71953 0.0
C896 C 0.06355 0.596 0.72312 0.0
H897 H 0.05432 0.60403 0.73142 0.0
H898 H 0.06667 0.58399 0.73112 0.0
H899 H 0.05732 0.59217 0.70956 0.0
C900 C 0.05609 0.64458 0.78761 0.0
N901 N 0.05266 0.64537 0.76886 0.0
N902 N 0.06297 0.6346 0.7598 0.0
C903 C 0.07337 0.62664 0.7726 0.0
C904 C 0.06921 0.63259 0.79069 0.0
C905 C 0.04961 0.65758 0.80176 0.0
H906 H 0.04977 0.67076 0.79543 0.0
H907 H 0.03611 0.65425 0.80576 0.0
H908 H 0.05758 0.65779 0.81485 0.0
O909 O 0.05687 0.67971 0.74396 0.0
O910 O 0.07421 0.66109 0.72917 0.0
H911 H 0.09808 0.62324 0.75938 0.0
H912 H 0.09489 0.61003 0.78032 0.0
C913 C 0.08852 0.61546 0.7675 0.0
H914 H 0.08409 0.60462 0.75839 0.0
H915 H 0.10306 0.63965 0.72182 0.0
O916 O 0.02495 0.67447 0.77279 0.0
C917 C 0.07031 0.67645 0.73406 0.0
Co918 Co 0.09351 0.29609 0.49781 0.0
Co919 Co 0.12471 0.31519 0.47961 0.0
C920 C 0.1148 0.27991 0.4662 0.0
O921 O 0.10241 0.28007 0.47807 0.0
O922 O 0.12531 0.29263 0.46522 0.0
C923 C 0.08679 0.26847 0.52114 0.0
O924 O 0.10347 0.26651 0.51799 0.0
C925 C 0.15795 0.3256 0.46297 0.0
C926 C 0.1585 0.3536 0.46972 0.0
C927 C 0.16824 0.34036 0.46177 0.0
N928 N 0.14311 0.32985 0.47175 0.0
N929 N 0.1433 0.34669 0.47528 0.0
C930 C 0.16147 0.30801 0.45478 0.0
H931 H 0.15018 0.30388 0.44618 0.0
H932 H 0.16321 0.2985 0.46646 0.0
H933 H 0.17301 0.30802 0.44539 0.0
C934 C 0.11014 0.30827 0.53269 0.0
N935 N 0.11077 0.30539 0.51388 0.0
N936 N 0.12462 0.31289 0.50671 0.0
C937 C 0.13346 0.32057 0.52105 0.0
C938 C 0.12461 0.31775 0.53802 0.0
C939 C 0.09437 0.30503 0.54467 0.0
H940 H 0.08245 0.30586 0.53592 0.0
H941 H 0.09525 0.29189 0.55103 0.0
H942 H 0.0933 0.3146 0.55636 0.0
O943 O 0.08056 0.31534 0.48554 0.0
O944 O 0.1036 0.32788 0.47246 0.0
H945 H 0.14515 0.345 0.5148 0.0
H946 H 0.15685 0.33219 0.53185 0.0
C947 C 0.14922 0.33162 0.51851 0.0
H948 H 0.15742 0.32643 0.5069 0.0
H949 H 0.13327 0.35334 0.48205 0.0
O950 O 0.07883 0.28111 0.51345 0.0
C951 C 0.08733 0.32734 0.47549 0.0
Co952 Co 0.46337 0.6602 0.25341 0.0
Co953 Co 0.44546 0.62933 0.27363 0.0
C954 C 0.48114 0.64047 0.28507 0.0
O955 O 0.4807 0.6524 0.27258 0.0
O956 O 0.46845 0.63003 0.28692 0.0
C957 C 0.48887 0.66919 0.22708 0.0
O958 O 0.49314 0.65285 0.22967 0.0
C959 C 0.43679 0.59652 0.29253 0.0
C960 C 0.40838 0.59552 0.28842 0.0
C961 C 0.42225 0.58629 0.29579 0.0
N962 N 0.43175 0.61085 0.28322 0.0
N963 N 0.41472 0.61039 0.28122 0.0
C964 C 0.4549 0.59361 0.29951 0.0
H965 H 0.45925 0.60525 0.30737 0.0
H966 H 0.46372 0.59173 0.28723 0.0
H967 H 0.45578 0.58241 0.30933 0.0
C968 C 0.45 0.64201 0.21967 0.0
N969 N 0.45387 0.64212 0.23833 0.0
N970 N 0.44676 0.62853 0.24653 0.0
C971 C 0.43833 0.61918 0.23312 0.0
C972 C 0.44024 0.62738 0.21565 0.0
C973 C 0.45249 0.65727 0.20671 0.0
H974 H 0.45132 0.66956 0.21474 0.0
H975 H 0.46555 0.65653 0.20018 0.0
H976 H 0.44279 0.65739 0.19508 0.0
O977 O 0.44423 0.67297 0.26629 0.0
O978 O 0.43237 0.65014 0.28046 0.0
H979 H 0.41407 0.60843 0.2417 0.0
H980 H 0.42537 0.59584 0.22415 0.0
C981 C 0.42704 0.60384 0.23711 0.0
H982 H 0.43278 0.59583 0.24858 0.0
H983 H 0.40747 0.62007 0.27456 0.0
O984 O 0.47627 0.67557 0.2364 0.0
C985 C 0.43258 0.66631 0.27688 0.0
Co986 Co 0.08761 0.69781 0.01734 0.0
Co987 Co 0.12418 0.68799 0.03199 0.0
C988 C 0.10637 0.72172 0.04335 0.0
O989 O 0.09306 0.71857 0.03315 0.0
O990 O 0.1191 0.71114 0.04389 0.0
C991 C 0.05134 0.69448 0.00902 0.0
O992 O 0.0503 0.68783 0.02614 0.0
C993 C 0.16149 0.68954 0.02962 0.0
C994 C 0.1691 0.66502 0.04362 0.0
C995 C 0.17562 0.67883 0.03317 0.0
N996 N 0.14736 0.68203 0.03701 0.0
N997 N 0.15199 0.66761 0.04578 0.0
C998 C 0.16106 0.70663 0.01949 0.0
H999 H 0.15094 0.71507 0.02582 0.0
H1000 H 0.15754 0.70458 0.00441 0.0
H1001 H 0.17385 0.7132 0.02028 0.0
C1002 C 0.10366 0.68981 0.98053 0.0
N1003 N 0.10515 0.6929 0.99925 0.0
N1004 N 0.12016 0.68698 0.00522 0.0
C1005 C 0.12831 0.67909 0.99051 0.0
C1006 C 0.1181 0.68077 0.97433 0.0
C1007 C 0.0878 0.69354 0.9691 0.0
H1008 H 0.07807 0.68328 0.972 0.0
H1009 H 0.08241 0.70636 0.97312 0.0
H1010 H 0.09073 0.69356 0.95368 0.0
O1011 O 0.08398 0.67719 0.03405 0.0
O1012 O 0.11015 0.67029 0.04451 0.0
H1013 H 0.14368 0.66102 0.00656 0.0
H1014 H 0.1441 0.65754 0.98117 0.0
C1015 C 0.14379 0.66751 0.99252 0.0
H1016 H 0.15576 0.6754 0.99133 0.0
H1017 H 0.14335 0.65904 0.05226 0.0
O1018 O 0.06565 0.7007 0.00325 0.0
C1019 C 0.09394 0.66753 0.04386 0.0
Co1020 Co 0.04456 0.34645 0.76038 0.0
Co1021 Co 0.0613 0.38028 0.77511 0.0
C1022 C 0.0259 0.36988 0.78815 0.0
O1023 O 0.02695 0.35647 0.77772 0.0
O1024 O 0.03819 0.38094 0.78848 0.0
C1025 C 0.01933 0.33401 0.73621 0.0
O1026 O 0.01439 0.35027 0.73768 0.0
C1027 C 0.06842 0.41708 0.77702 0.0
C1028 C 0.09641 0.41744 0.78379 0.0
C1029 C 0.08269 0.42799 0.77847 0.0
N1030 N 0.07367 0.40083 0.78053 0.0
N1031 N 0.09028 0.40114 0.78512 0.0
C1032 C 0.05012 0.4217 0.77196 0.0
H1033 H 0.04102 0.4144 0.78117 0.0
H1034 H 0.04742 0.41783 0.7571 0.0
H1035 H 0.04772 0.43582 0.77367 0.0
C1036 C 0.05778 0.3595 0.72394 0.0
N1037 N 0.05383 0.36212 0.74236 0.0
N1038 N 0.06075 0.37681 0.74808 0.0
C1039 C 0.06931 0.38406 0.73322 0.0
C1040 C 0.0674 0.37344 0.71737 0.0
C1041 C 0.05562 0.34249 0.71387 0.0
H1042 H 0.05688 0.33156 0.72399 0.0
H1043 H 0.04265 0.34208 0.7071 0.0
H1044 H 0.0655 0.34075 0.70258 0.0
O1045 O 0.06388 0.33651 0.77555 0.0
O1046 O 0.075 0.36129 0.78617 0.0
H1047 H 0.09074 0.39765 0.74548 0.0
H1048 H 0.08696 0.40279 0.72078 0.0
C1049 C 0.08065 0.39976 0.73453 0.0
H1050 H 0.0727 0.41105 0.73873 0.0
H1051 H 0.09769 0.3901 0.78795 0.0
O1052 O 0.03216 0.3287 0.74596 0.0
C1053 C 0.07511 0.34479 0.7853 0.0
Co1054 Co 0.4099 0.29538 0.50827 0.0
Co1055 Co 0.37806 0.31279 0.52715 0.0
C1056 C 0.38998 0.27585 0.53703 0.0
O1057 O 0.40212 0.27605 0.52475 0.0
O1058 O 0.37996 0.28894 0.53914 0.0
C1059 C 0.43951 0.30033 0.48605 0.0
O1060 O 0.43738 0.31624 0.49227 0.0
C1061 C 0.34143 0.31942 0.52678 0.0
C1062 C 0.33991 0.34486 0.54116 0.0
C1063 C 0.33033 0.3332 0.53045 0.0
N1064 N 0.35688 0.32307 0.53446 0.0
N1065 N 0.35578 0.33798 0.54362 0.0
C1066 C 0.33846 0.30441 0.51367 0.0
H1067 H 0.35063 0.29705 0.51133 0.0
H1068 H 0.33321 0.30898 0.49989 0.0
H1069 H 0.3288 0.2955 0.52008 0.0
C1070 C 0.39186 0.30646 0.47338 0.0
N1071 N 0.39195 0.30382 0.49229 0.0
N1072 N 0.37982 0.31341 0.50008 0.0
C1073 C 0.37262 0.32351 0.48645 0.0
C1074 C 0.37987 0.31919 0.46902 0.0
C1075 C 0.40402 0.29816 0.4596 0.0
H1076 H 0.41563 0.3065 0.45782 0.0
H1077 H 0.40786 0.28511 0.46468 0.0
H1078 H 0.39775 0.29694 0.44548 0.0
O1079 O 0.41925 0.31439 0.52492 0.0
O1080 O 0.39625 0.32743 0.53727 0.0
H1081 H 0.36413 0.34419 0.50475 0.0
H1082 H 0.36412 0.3495 0.47975 0.0
C1083 C 0.36159 0.33911 0.49031 0.0
H1084 H 0.34773 0.33547 0.48915 0.0
H1085 H 0.36627 0.34422 0.55002 0.0
O1086 O 0.42932 0.28838 0.49163 0.0
C1087 C 0.41254 0.32627 0.53512 0.0
C1088 C 0.11793 0.14753 0.05583 0.0
C1089 C 0.10275 0.1523 0.04625 0.0
C1090 C 0.11837 0.14732 0.07566 0.0
C1091 C 0.09375 0.16348 0.11791 0.0
H1092 H 0.12491 0.13251 0.14459 0.0
C1093 C 0.10205 0.16849 0.19894 0.0
C1094 C 0.1052 0.15321 0.20913 0.0
C1095 C 0.10263 0.16845 0.17912 0.0
C1096 C 0.11592 0.14111 0.13747 0.0
H1097 H 0.07596 0.16 0.04949 0.0
H1098 H 0.07622 0.15855 0.08407 0.0
H1099 H 0.12307 0.13109 0.11036 0.0
H1100 H 0.11129 0.12591 0.20698 0.0
H1101 H 0.11141 0.12545 0.17242 0.0
H1102 H 0.08569 0.17265 0.14504 0.0
C1103 C 0.0881 0.1557 0.07651 0.0
C1104 C 0.1151 0.14052 0.11766 0.0
C1105 C 0.08783 0.15634 0.05669 0.0
C1106 C 0.10905 0.13789 0.19932 0.0
C1107 C 0.1092 0.13771 0.17949 0.0
C1108 C 0.09426 0.16377 0.13772 0.0
C1109 C 0.10348 0.15148 0.08634 0.0
C1110 C 0.10407 0.15177 0.10754 0.0
C1111 C 0.10589 0.15298 0.16905 0.0
C1112 C 0.10543 0.15267 0.14784 0.0
H1113 H 0.12965 0.14458 0.04798 0.0
H1114 H 0.13057 0.14435 0.08253 0.0
H1115 H 0.08533 0.17263 0.11077 0.0
H1116 H 0.09908 0.18046 0.20634 0.0
H1117 H 0.10046 0.18058 0.17175 0.0
C1118 C 0.11768 0.84066 0.4486 0.0
C1119 C 0.10582 0.85021 0.4595 0.0
C1120 C 0.11771 0.84203 0.42886 0.0
C1121 C 0.12095 0.85381 0.38793 0.0
H1122 H 0.07656 0.85461 0.36209 0.0
C1123 C 0.11454 0.86329 0.3067 0.0
C1124 C 0.10186 0.85335 0.29741 0.0
C1125 C 0.11551 0.86339 0.32651 0.0
C1126 C 0.08907 0.85428 0.36909 0.0
H1127 H 0.08541 0.86947 0.45857 0.0
H1128 H 0.08548 0.87204 0.42392 0.0
H1129 H 0.07743 0.85427 0.39664 0.0
H1130 H 0.08112 0.83472 0.30145 0.0
H1131 H 0.08274 0.8349 0.33597 0.0
H1132 H 0.13257 0.85336 0.36034 0.0
C1133 C 0.09446 0.86313 0.4306 0.0
C1134 C 0.08956 0.85432 0.3889 0.0
C1135 C 0.09447 0.86175 0.45039 0.0
C1136 C 0.09061 0.84299 0.30824 0.0
C1137 C 0.09158 0.84307 0.32802 0.0
C1138 C 0.12046 0.85379 0.36811 0.0
C1139 C 0.10598 0.85315 0.4196 0.0
C1140 C 0.10551 0.85396 0.39855 0.0
C1141 C 0.10389 0.85343 0.3374 0.0
C1142 C 0.1045 0.85388 0.35846 0.0
H1143 H 0.12697 0.83211 0.45537 0.0
H1144 H 0.1267 0.83412 0.42083 0.0
H1145 H 0.13345 0.85371 0.39494 0.0
H1146 H 0.12341 0.87136 0.29867 0.0
H1147 H 0.12509 0.87158 0.3333 0.0
C1148 C 0.41101 0.86364 0.69671 0.0
C1149 C 0.40094 0.85181 0.70711 0.0
C1150 C 0.41008 0.86406 0.67694 0.0
C1151 C 0.39754 0.83707 0.636 0.0
H1152 H 0.40026 0.8806 0.60847 0.0
C1153 C 0.38935 0.84043 0.55487 0.0
C1154 C 0.40125 0.85079 0.54492 0.0
C1155 C 0.38849 0.84113 0.57463 0.0
C1156 C 0.39964 0.86833 0.61596 0.0
H1157 H 0.3812 0.83192 0.70525 0.0
H1158 H 0.37936 0.83272 0.67057 0.0
H1159 H 0.39985 0.88078 0.64309 0.0
H1160 H 0.42085 0.87075 0.54757 0.0
H1161 H 0.41947 0.87196 0.58227 0.0
H1162 H 0.39739 0.82461 0.60888 0.0
C1163 C 0.38837 0.84134 0.67766 0.0
C1164 C 0.3994 0.86843 0.63579 0.0
C1165 C 0.38932 0.84093 0.69748 0.0
C1166 C 0.41174 0.86246 0.55499 0.0
C1167 C 0.41087 0.8632 0.57481 0.0
C1168 C 0.39774 0.83697 0.61618 0.0
C1169 C 0.39887 0.8528 0.66714 0.0
C1170 C 0.39844 0.85279 0.64605 0.0
C1171 C 0.39937 0.85238 0.58486 0.0
C1172 C 0.39886 0.85259 0.60593 0.0
H1173 H 0.41961 0.87261 0.70388 0.0
H1174 H 0.41838 0.87301 0.66932 0.0
H1175 H 0.39709 0.82477 0.64344 0.0
H1176 H 0.3806 0.83185 0.54735 0.0
H1177 H 0.37918 0.83296 0.58191 0.0
C1178 C 0.41239 0.13678 0.80727 0.0
C1179 C 0.4025 0.14874 0.79684 0.0
C1180 C 0.41151 0.13647 0.82705 0.0
C1181 C 0.38435 0.1496 0.86772 0.0
H1182 H 0.42755 0.14656 0.89572 0.0
C1183 C 0.38861 0.16323 0.94806 0.0
C1184 C 0.4 0.1531 0.95896 0.0
C1185 C 0.38839 0.16174 0.92832 0.0
C1186 C 0.41534 0.14715 0.88814 0.0
H1187 H 0.38317 0.16903 0.79868 0.0
H1188 H 0.38163 0.16861 0.83339 0.0
H1189 H 0.42801 0.14581 0.86117 0.0
H1190 H 0.41931 0.13274 0.95803 0.0
H1191 H 0.41884 0.12993 0.92343 0.0
H1192 H 0.37168 0.151 0.8947 0.0
C1193 C 0.39017 0.15954 0.82629 0.0
C1194 C 0.41561 0.14675 0.86833 0.0
C1195 C 0.39109 0.15985 0.80647 0.0
C1196 C 0.41064 0.14091 0.94986 0.0
C1197 C 0.41043 0.1394 0.93008 0.0
C1198 C 0.38407 0.14996 0.88755 0.0
C1199 C 0.40053 0.14797 0.83681 0.0
C1200 C 0.40013 0.14805 0.85789 0.0
C1201 C 0.3994 0.14992 0.91906 0.0
C1202 C 0.39958 0.14884 0.898 0.0
H1203 H 0.42074 0.12756 0.80011 0.0
H1204 H 0.41932 0.12711 0.8347 0.0
H1205 H 0.37218 0.15036 0.86009 0.0
H1206 H 0.37981 0.17228 0.9548 0.0
H1207 H 0.37977 0.17008 0.9203 0.0
C1208 C 0.88342 0.84525 0.94626 0.0
C1209 C 0.88259 0.82714 0.9485 0.0
C1210 C 0.88578 0.85255 0.92818 0.0
C1211 C 0.90873 0.84169 0.88546 0.0
H1212 H 0.88451 0.87912 0.85988 0.0
C1213 C 0.93758 0.87279 0.81911 0.0
C1214 C 0.92684 0.87158 0.80311 0.0
C1215 C 0.93071 0.87063 0.83732 0.0
C1216 C 0.8914 0.86872 0.86695 0.0
H1217 H 0.88233 0.80257 0.93368 0.0
H1218 H 0.88658 0.81524 0.90222 0.0
H1219 H 0.87377 0.86833 0.89067 0.0
H1220 H 0.90041 0.86814 0.7935 0.0
H1221 H 0.88823 0.86484 0.8255 0.0
H1222 H 0.92645 0.84206 0.86212 0.0
C1223 C 0.8854 0.8238 0.91434 0.0
C1224 C 0.88529 0.86258 0.88451 0.0
C1225 C 0.88286 0.81657 0.9323 0.0
C1226 C 0.90889 0.86947 0.80566 0.0
C1227 C 0.90196 0.86749 0.82395 0.0
C1228 C 0.915 0.84802 0.86822 0.0
C1229 C 0.88754 0.8418 0.91218 0.0
C1230 C 0.89381 0.84885 0.89379 0.0
C1231 C 0.91293 0.86734 0.83989 0.0
C1232 C 0.90639 0.86152 0.8587 0.0
H1233 H 0.88354 0.85366 0.95857 0.0
H1234 H 0.88747 0.86645 0.92689 0.0
H1235 H 0.91565 0.83122 0.89239 0.0
H1236 H 0.95148 0.87422 0.81744 0.0
H1237 H 0.93945 0.8707 0.84935 0.0
C1238 C 0.93338 0.12297 0.68866 0.0
C1239 C 0.92346 0.13049 0.70314 0.0
C1240 C 0.92762 0.12355 0.66981 0.0
C1241 C 0.88999 0.13566 0.63852 0.0
H1242 H 0.9267 0.14898 0.60387 0.0
C1243 C 0.87848 0.17043 0.56596 0.0
C1244 C 0.88996 0.16654 0.55113 0.0
C1245 C 0.88085 0.16299 0.58398 0.0
C1246 C 0.91627 0.14499 0.61321 0.0
H1247 H 0.89949 0.14374 0.70966 0.0
H1248 H 0.8894 0.14494 0.67686 0.0
H1249 H 0.93388 0.14069 0.6361 0.0
H1250 H 0.91208 0.151 0.5429 0.0
H1251 H 0.91609 0.1378 0.57407 0.0
H1252 H 0.87235 0.14062 0.61555 0.0
C1253 C 0.90146 0.13829 0.67987 0.0
C1254 C 0.92041 0.14016 0.63178 0.0
C1255 C 0.90719 0.13758 0.69871 0.0
C1256 C 0.90316 0.15433 0.55421 0.0
C1257 C 0.90552 0.14688 0.5721 0.0
C1258 C 0.88583 0.14059 0.61988 0.0
C1259 C 0.91191 0.13189 0.66505 0.0
C1260 C 0.90735 0.13552 0.64478 0.0
C1261 C 0.89475 0.15151 0.5874 0.0
C1262 C 0.89893 0.14542 0.60701 0.0
H1263 H 0.94607 0.11762 0.69175 0.0
H1264 H 0.93585 0.11814 0.65887 0.0
H1265 H 0.87958 0.13203 0.64804 0.0
H1266 H 0.86824 0.17988 0.56388 0.0
H1267 H 0.87235 0.1669 0.59543 0.0
C1268 C 0.56325 0.12976 0.32498 0.0
C1269 C 0.57304 0.12951 0.3082 0.0
C1270 C 0.57128 0.1326 0.34247 0.0
C1271 C 0.61256 0.1355 0.36903 0.0
H1272 H 0.58938 0.17394 0.3939 0.0
C1273 C 0.62562 0.16172 0.44623 0.0
C1274 C 0.62466 0.17982 0.44835 0.0
C1275 C 0.62264 0.15405 0.42844 0.0
C1276 C 0.59609 0.16327 0.38711 0.0
H1277 H 0.599 0.13075 0.29661 0.0
H1278 H 0.61318 0.13549 0.32739 0.0
H1279 H 0.57714 0.16176 0.36507 0.0
H1280 H 0.62129 0.20415 0.4335 0.0
H1281 H 0.61632 0.1909 0.40253 0.0
H1282 H 0.63151 0.13712 0.39143 0.0
C1283 C 0.59929 0.13344 0.32699 0.0
C1284 C 0.58895 0.15613 0.37069 0.0
C1285 C 0.5912 0.13063 0.30939 0.0
C1286 C 0.62215 0.19017 0.43219 0.0
C1287 C 0.61915 0.18256 0.41452 0.0
C1288 C 0.61962 0.14253 0.38576 0.0
C1289 C 0.58929 0.13527 0.34359 0.0
C1290 C 0.59705 0.14218 0.36141 0.0
C1291 C 0.61856 0.16442 0.41259 0.0
C1292 C 0.61151 0.15661 0.39486 0.0
H1293 H 0.54923 0.12902 0.3244 0.0
H1294 H 0.56325 0.13367 0.35504 0.0
H1295 H 0.61911 0.12477 0.36216 0.0
H1296 H 0.62727 0.15346 0.45855 0.0
H1297 H 0.62223 0.14003 0.4274 0.0
C1298 C 0.62118 0.84643 0.05327 0.0
C1299 C 0.62104 0.82837 0.05076 0.0
C1300 C 0.62016 0.8536 0.07151 0.0
C1301 C 0.62148 0.84227 0.12339 0.0
H1302 H 0.59036 0.88156 0.1278 0.0
C1303 C 0.60063 0.86756 0.19703 0.0
C1304 C 0.583 0.87173 0.19897 0.0
C1305 C 0.60794 0.86523 0.179 0.0
C1306 C 0.59903 0.87054 0.12689 0.0
H1307 H 0.62048 0.80363 0.06518 0.0
H1308 H 0.61834 0.81594 0.09693 0.0
H1309 H 0.59869 0.87118 0.09658 0.0
H1310 H 0.55928 0.8772 0.18378 0.0
H1311 H 0.57177 0.87283 0.15237 0.0
H1312 H 0.62092 0.84091 0.15367 0.0
C1313 C 0.61959 0.82473 0.08502 0.0
C1314 C 0.60406 0.86472 0.10889 0.0
C1315 C 0.62077 0.81761 0.06681 0.0
C1316 C 0.57298 0.87422 0.18259 0.0
C1317 C 0.58021 0.87175 0.16458 0.0
C1318 C 0.61632 0.84798 0.14138 0.0
C1319 C 0.61878 0.84284 0.08763 0.0
C1320 C 0.6151 0.85028 0.10684 0.0
C1321 C 0.5977 0.8668 0.16251 0.0
C1322 C 0.60474 0.862 0.14341 0.0
H1323 H 0.62119 0.85501 0.04108 0.0
H1324 H 0.61992 0.86759 0.07291 0.0
H1325 H 0.63023 0.83131 0.12247 0.0
H1326 H 0.60856 0.86528 0.20947 0.0
H1327 H 0.62151 0.86173 0.17803 0.0
C1328 C 0.61235 0.63872 0.55458 0.0
C1329 C 0.60184 0.65053 0.54468 0.0
C1330 C 0.61179 0.63794 0.57439 0.0
C1331 C 0.58474 0.64935 0.61578 0.0
H1332 H 0.62837 0.6488 0.64315 0.0
C1333 C 0.58788 0.66162 0.69625 0.0
C1334 C 0.59911 0.65114 0.70695 0.0
C1335 C 0.58842 0.66127 0.67645 0.0
C1336 C 0.61607 0.64873 0.63574 0.0
H1337 H 0.58167 0.66992 0.54758 0.0
H1338 H 0.58082 0.66875 0.58214 0.0
H1339 H 0.62845 0.64788 0.60856 0.0
H1340 H 0.62014 0.63255 0.70541 0.0
H1341 H 0.621 0.63177 0.67078 0.0
H1342 H 0.57233 0.65019 0.64291 0.0
C1343 C 0.5896 0.66018 0.57465 0.0
C1344 C 0.61612 0.6482 0.61592 0.0
C1345 C 0.59023 0.66101 0.55487 0.0
C1346 C 0.6113 0.64074 0.69748 0.0
C1347 C 0.61181 0.64033 0.67766 0.0
C1348 C 0.58468 0.64983 0.63559 0.0
C1349 C 0.60054 0.6488 0.58465 0.0
C1350 C 0.60045 0.64861 0.60572 0.0
C1351 C 0.60024 0.65046 0.6669 0.0
C1352 C 0.60035 0.64965 0.64582 0.0
H1353 H 0.62134 0.63041 0.54703 0.0
H1354 H 0.62019 0.62886 0.58169 0.0
H1355 H 0.57245 0.64944 0.60834 0.0
H1356 H 0.57873 0.67019 0.70316 0.0
H1357 H 0.57963 0.66957 0.66861 0.0
C1358 C 0.61122 0.3639 0.95066 0.0
C1359 C 0.60115 0.35139 0.96007 0.0
C1360 C 0.61184 0.36436 0.93084 0.0
C1361 C 0.60388 0.33688 0.88873 0.0
H1362 H 0.60383 0.38075 0.86175 0.0
C1363 C 0.61299 0.3407 0.80742 0.0
C1364 C 0.60167 0.35191 0.7978 0.0
C1365 C 0.61398 0.34105 0.82724 0.0
C1366 C 0.60378 0.36838 0.86907 0.0
H1367 H 0.58286 0.33033 0.95614 0.0
H1368 H 0.58392 0.33107 0.9216 0.0
H1369 H 0.60266 0.38057 0.89632 0.0
H1370 H 0.58356 0.37318 0.80106 0.0
H1371 H 0.58488 0.37353 0.83561 0.0
H1372 H 0.60451 0.32468 0.86148 0.0
C1373 C 0.5918 0.34019 0.9295 0.0
C1374 C 0.60329 0.36829 0.88889 0.0
C1375 C 0.59121 0.33974 0.9493 0.0
C1376 C 0.59195 0.364 0.80821 0.0
C1377 C 0.59293 0.36438 0.82798 0.0
C1378 C 0.60437 0.33697 0.86892 0.0
C1379 C 0.60227 0.35238 0.92002 0.0
C1380 C 0.6032 0.35253 0.89896 0.0
C1381 C 0.60381 0.35278 0.83776 0.0
C1382 C 0.60419 0.35272 0.85884 0.0
H1383 H 0.61899 0.37307 0.95863 0.0
H1384 H 0.62012 0.37384 0.924 0.0
H1385 H 0.60406 0.32452 0.89605 0.0
H1386 H 0.62083 0.33147 0.79962 0.0
H1387 H 0.62272 0.33215 0.83433 0.0
C1388 C 0.91062 0.36781 0.19922 0.0
C1389 C 0.90041 0.35618 0.20972 0.0
C1390 C 0.90951 0.36826 0.17945 0.0
C1391 C 0.89603 0.34154 0.13866 0.0
H1392 H 0.8991 0.38504 0.11111 0.0
C1393 C 0.88656 0.34498 0.05777 0.0
C1394 C 0.89851 0.35507 0.04756 0.0
C1395 C 0.88601 0.34578 0.07754 0.0
C1396 C 0.89838 0.37278 0.1186 0.0
H1397 H 0.88028 0.33666 0.20806 0.0
H1398 H 0.87815 0.33752 0.17341 0.0
H1399 H 0.89922 0.38521 0.14574 0.0
H1400 H 0.9185 0.37467 0.04973 0.0
H1401 H 0.91767 0.37606 0.08447 0.0
H1402 H 0.89524 0.32911 0.11155 0.0
C1403 C 0.88738 0.34595 0.1804 0.0
C1404 C 0.89845 0.37287 0.13844 0.0
C1405 C 0.88851 0.34552 0.2002 0.0
C1406 C 0.90934 0.3666 0.05737 0.0
C1407 C 0.9088 0.36743 0.0772 0.0
C1408 C 0.89593 0.34146 0.11884 0.0
C1409 C 0.898 0.35722 0.16978 0.0
C1410 C 0.89735 0.35724 0.1487 0.0
C1411 C 0.89727 0.35685 0.08751 0.0
C1412 C 0.89715 0.35707 0.10858 0.0
H1413 H 0.91943 0.37663 0.2063 0.0
H1414 H 0.91791 0.37706 0.17174 0.0
H1415 H 0.89547 0.32925 0.1461 0.0
H1416 H 0.87757 0.33651 0.05045 0.0
H1417 H 0.87668 0.3378 0.08503 0.0
C1418 C 0.90913 0.63892 0.30786 0.0
C1419 C 0.89932 0.65095 0.29745 0.0
C1420 C 0.90781 0.63822 0.32759 0.0
C1421 C 0.89512 0.66502 0.36849 0.0
H1422 H 0.89803 0.62141 0.39585 0.0
C1423 C 0.8885 0.66168 0.44972 0.0
C1424 C 0.90072 0.65143 0.45934 0.0
C1425 C 0.88709 0.66086 0.43001 0.0
C1426 C 0.89734 0.63369 0.38841 0.0
H1427 H 0.87958 0.67083 0.29915 0.0
H1428 H 0.87706 0.66955 0.33379 0.0
H1429 H 0.89724 0.62131 0.36123 0.0
H1430 H 0.92026 0.63149 0.45619 0.0
H1431 H 0.91793 0.63007 0.42154 0.0
H1432 H 0.89534 0.6774 0.39563 0.0
C1433 C 0.88615 0.66099 0.32676 0.0
C1434 C 0.89688 0.63364 0.36858 0.0
C1435 C 0.8875 0.66167 0.30697 0.0
C1436 C 0.91093 0.6397 0.44901 0.0
C1437 C 0.90951 0.63884 0.42924 0.0
C1438 C 0.89554 0.66506 0.3883 0.0
C1439 C 0.89647 0.6494 0.33731 0.0
C1440 C 0.89591 0.64932 0.35839 0.0
C1441 C 0.89773 0.64959 0.41951 0.0
C1442 C 0.89677 0.64941 0.39848 0.0
H1443 H 0.91791 0.63009 0.30075 0.0
H1444 H 0.91599 0.62919 0.33524 0.0
H1445 H 0.89468 0.67733 0.36109 0.0
H1446 H 0.87997 0.67031 0.45746 0.0
H1447 H 0.87759 0.66899 0.42299 0.0
C1448 C 0.39461 0.34045 0.44794 0.0
C1449 C 0.38026 0.32974 0.45148 0.0
C1450 C 0.39676 0.34838 0.43026 0.0
C1451 C 0.38503 0.34208 0.38013 0.0
H1452 H 0.40728 0.38687 0.37389 0.0
C1453 C 0.40448 0.36712 0.30594 0.0
C1454 C 0.42139 0.37374 0.30462 0.0
C1455 C 0.39673 0.36455 0.3237 0.0
C1456 C 0.4011 0.37432 0.37538 0.0
H1457 H 0.35663 0.3192 0.43974 0.0
H1458 H 0.36017 0.33326 0.40866 0.0
H1459 H 0.39828 0.37734 0.40544 0.0
H1460 H 0.44336 0.38324 0.32055 0.0
H1461 H 0.42993 0.37884 0.35162 0.0
H1462 H 0.38826 0.33882 0.35019 0.0
C1463 C 0.36987 0.33546 0.41951 0.0
C1464 C 0.39593 0.36884 0.39348 0.0
C1465 C 0.36771 0.32755 0.4373 0.0
C1466 C 0.43018 0.37841 0.32127 0.0
C1467 C 0.42245 0.37587 0.33903 0.0
C1468 C 0.39018 0.34755 0.36204 0.0
C1469 C 0.38462 0.3457 0.41564 0.0
C1470 C 0.38815 0.35249 0.39616 0.0
C1471 C 0.40579 0.36847 0.34051 0.0
C1472 C 0.39859 0.3636 0.35946 0.0
H1473 H 0.40455 0.34212 0.45866 0.0
H1474 H 0.4084 0.35592 0.42778 0.0
H1475 H 0.37932 0.32931 0.38164 0.0
H1476 H 0.39759 0.36315 0.29327 0.0
H1477 H 0.38383 0.35902 0.32428 0.0
C1478 C 0.37165 0.67239 0.06938 0.0
C1479 C 0.38335 0.67008 0.05438 0.0
C1480 C 0.37415 0.66366 0.08664 0.0
C1481 C 0.4014 0.62919 0.1103 0.0
H1482 H 0.39349 0.65728 0.15507 0.0
C1483 C 0.43929 0.62229 0.18076 0.0
C1484 C 0.43033 0.62469 0.19789 0.0
C1485 C 0.43069 0.62406 0.16337 0.0
C1486 C 0.39551 0.64911 0.14276 0.0
H1487 H 0.40641 0.65654 0.04518 0.0
H1488 H 0.41113 0.64165 0.07521 0.0
H1489 H 0.38348 0.66755 0.12434 0.0
H1490 H 0.40537 0.63035 0.21044 0.0
H1491 H 0.39026 0.63357 0.17998 0.0
H1492 H 0.41439 0.61126 0.12881 0.0
C1493 C 0.39974 0.64977 0.0738 0.0
C1494 C 0.3897 0.65498 0.12506 0.0
C1495 C 0.39711 0.65833 0.05654 0.0
C1496 C 0.41245 0.6281 0.19739 0.0
C1497 C 0.40389 0.63014 0.17998 0.0
C1498 C 0.40742 0.62345 0.12799 0.0
C1499 C 0.38857 0.65262 0.08932 0.0
C1500 C 0.39285 0.64528 0.10847 0.0
C1501 C 0.41303 0.62861 0.16277 0.0
C1502 C 0.4048 0.63348 0.14438 0.0
H1503 H 0.36101 0.68148 0.06801 0.0
H1504 H 0.36505 0.66596 0.09806 0.0
H1505 H 0.40376 0.62111 0.09801 0.0
H1506 H 0.45315 0.62 0.18083 0.0
H1507 H 0.43815 0.62297 0.1504 0.0
C1508 C 0.10623 0.65849 0.9523 0.0
C1509 C 0.1191 0.67082 0.95637 0.0
C1510 C 0.10501 0.65111 0.93426 0.0
C1511 C 0.11585 0.66097 0.88445 0.0
H1512 H 0.09693 0.61498 0.87606 0.0
C1513 C 0.09628 0.6379 0.80944 0.0
C1514 C 0.07942 0.63106 0.80843 0.0
C1515 C 0.1045 0.63996 0.82703 0.0
C1516 C 0.10224 0.62785 0.87815 0.0
H1517 H 0.14137 0.68447 0.94524 0.0
H1518 H 0.13952 0.67132 0.91354 0.0
H1519 H 0.10586 0.62358 0.90791 0.0
H1520 H 0.05816 0.62045 0.82471 0.0
H1521 H 0.07253 0.62373 0.85543 0.0
H1522 H 0.11187 0.66534 0.85475 0.0
C1523 C 0.13016 0.66755 0.92423 0.0
C1524 C 0.10733 0.63282 0.89643 0.0
C1525 C 0.13136 0.67495 0.94239 0.0
C1526 C 0.07128 0.62549 0.82515 0.0
C1527 C 0.07952 0.6274 0.84271 0.0
C1528 C 0.11085 0.65596 0.86615 0.0
C1529 C 0.11668 0.65584 0.91979 0.0
C1530 C 0.11377 0.64962 0.89994 0.0
C1531 C 0.09603 0.63513 0.84394 0.0
C1532 C 0.10356 0.63949 0.86285 0.0
H1533 H 0.09662 0.65511 0.96289 0.0
H1534 H 0.09433 0.64236 0.93143 0.0
H1535 H 0.12052 0.67408 0.88657 0.0
H1536 H 0.1027 0.64254 0.79674 0.0
H1537 H 0.11726 0.64582 0.82746 0.0
C1538 C 0.09413 0.37411 0.69682 0.0
C1539 C 0.07596 0.37432 0.69852 0.0
C1540 C 0.10196 0.37087 0.67918 0.0
C1541 C 0.09264 0.3461 0.63652 0.0
H1542 H 0.13208 0.36913 0.61336 0.0
C1543 C 0.1263 0.31527 0.57312 0.0
C1544 C 0.12704 0.32584 0.55692 0.0
C1545 C 0.12332 0.32252 0.59099 0.0
C1546 C 0.12109 0.36258 0.61972 0.0
H1547 H 0.05179 0.37225 0.68312 0.0
H1548 H 0.06537 0.36663 0.65241 0.0
H1549 H 0.11967 0.38058 0.64304 0.0
H1550 H 0.12655 0.35235 0.54679 0.0
H1551 H 0.12161 0.36516 0.57824 0.0
H1552 H 0.09396 0.32809 0.61353 0.0
C1553 C 0.0736 0.3689 0.66462 0.0
C1554 C 0.11403 0.36909 0.63669 0.0
C1555 C 0.06582 0.37225 0.68215 0.0
C1556 C 0.12628 0.34395 0.55911 0.0
C1557 C 0.12335 0.35125 0.57709 0.0
C1558 C 0.09982 0.33948 0.61986 0.0
C1559 C 0.09173 0.36758 0.66304 0.0
C1560 C 0.09961 0.36098 0.64515 0.0
C1561 C 0.12103 0.34052 0.59306 0.0
C1562 C 0.1141 0.34761 0.61121 0.0
H1563 H 0.10223 0.37532 0.70931 0.0
H1564 H 0.11596 0.36983 0.67841 0.0
H1565 H 0.08168 0.33943 0.64279 0.0
H1566 H 0.12678 0.30127 0.57177 0.0
H1567 H 0.12187 0.31393 0.60307 0.0
C1568 C 0.04675 0.93987 0.23904 0.0
C1569 C 0.06212 0.93091 0.2346 0.0
C1570 C 0.04704 0.95761 0.24366 0.0
C1571 C 0.07482 0.99763 0.24019 0.0
H1572 H 0.04161 0.01587 0.27631 0.0
C1573 C 0.07729 0.06922 0.26794 0.0
C1574 C 0.0614 0.07792 0.27048 0.0
C1575 C 0.07773 0.05141 0.26347 0.0
C1576 C 0.05088 0.01109 0.26603 0.0
H1577 H 0.08988 0.93378 0.2314 0.0
H1578 H 0.09056 0.96451 0.24008 0.0
H1579 H 0.04189 0.98495 0.26928 0.0
H1580 H 0.03353 0.07462 0.26995 0.0
H1581 H 0.03425 0.0437 0.26236 0.0
H1582 H 0.0839 0.02385 0.23717 0.0
C1583 C 0.07815 0.95795 0.23974 0.0
C1584 C 0.05104 0.99323 0.26193 0.0
C1585 C 0.07783 0.94019 0.23502 0.0
C1586 C 0.046 0.06833 0.26832 0.0
C1587 C 0.04643 0.05053 0.264 0.0
C1588 C 0.07473 0.0155 0.24439 0.0
C1589 C 0.06274 0.96702 0.24409 0.0
C1590 C 0.06293 0.98616 0.24884 0.0
C1591 C 0.0623 0.04172 0.26158 0.0
C1592 C 0.06268 0.02255 0.25729 0.0
H1593 H 0.03442 0.93315 0.23882 0.0
H1594 H 0.03481 0.96399 0.24655 0.0
H1595 H 0.08403 0.99291 0.22981 0.0
H1596 H 0.08942 0.07609 0.26981 0.0
H1597 H 0.09023 0.04514 0.26196 0.0
C1598 C 0.19093 0.82569 0.52069 0.0
C1599 C 0.18177 0.80991 0.52131 0.0
C1600 C 0.20854 0.82618 0.51542 0.0
C1601 C 0.24365 0.79919 0.49244 0.0
H1602 H 0.27413 0.83353 0.51482 0.0
C1603 C 0.31878 0.7962 0.4838 0.0
C1604 C 0.32768 0.81183 0.48035 0.0
C1605 C 0.30109 0.79617 0.48868 0.0
C1606 C 0.2658 0.82393 0.50828 0.0
H1607 H 0.18411 0.78223 0.51696 0.0
H1608 H 0.21478 0.78287 0.50848 0.0
H1609 H 0.24352 0.83302 0.5235 0.0
H1610 H 0.32467 0.83974 0.47897 0.0
H1611 H 0.29396 0.83978 0.48797 0.0
H1612 H 0.26609 0.78992 0.47753 0.0
C1613 C 0.20838 0.79505 0.51153 0.0
C1614 C 0.24811 0.82366 0.51322 0.0
C1615 C 0.19075 0.79462 0.51663 0.0
C1616 C 0.31837 0.82747 0.48198 0.0
C1617 C 0.30071 0.82748 0.48707 0.0
C1618 C 0.26136 0.79936 0.48766 0.0
C1619 C 0.21765 0.81085 0.5108 0.0
C1620 C 0.23666 0.81127 0.5054 0.0
C1621 C 0.29174 0.81181 0.4904 0.0
C1622 C 0.27275 0.81173 0.4955 0.0
H1623 H 0.18452 0.8377 0.5245 0.0
H1624 H 0.21494 0.83867 0.51486 0.0
H1625 H 0.2354 0.78965 0.48569 0.0
H1626 H 0.32554 0.78392 0.48276 0.0
H1627 H 0.29478 0.78385 0.49133 0.0
C1628 C 0.45554 0.06401 0.73655 0.0
C1629 C 0.44018 0.07328 0.73285 0.0
C1630 C 0.45508 0.04629 0.74128 0.0
C1631 C 0.4258 0.01109 0.75901 0.0
H1632 H 0.4612 0.98072 0.73853 0.0
C1633 C 0.42303 0.93585 0.76942 0.0
C1634 C 0.43877 0.92686 0.77177 0.0
C1635 C 0.42287 0.95356 0.76443 0.0
C1636 C 0.45131 0.98897 0.74464 0.0
H1637 H 0.41227 0.07092 0.73089 0.0
H1638 H 0.41138 0.0401 0.73939 0.0
H1639 H 0.46159 0.01149 0.73072 0.0
H1640 H 0.46668 0.92961 0.77089 0.0
H1641 H 0.46651 0.96037 0.76267 0.0
H1642 H 0.41561 0.9886 0.77308 0.0
C1643 C 0.42383 0.04658 0.7389 0.0
C1644 C 0.45153 0.00674 0.74011 0.0
C1645 C 0.42432 0.06431 0.73407 0.0
C1646 C 0.45432 0.9361 0.76913 0.0
C1647 C 0.45419 0.95377 0.76422 0.0
C1648 C 0.42563 0.99331 0.76362 0.0
C1649 C 0.43922 0.03723 0.74248 0.0
C1650 C 0.43882 0.01814 0.74725 0.0
C1651 C 0.43846 0.96287 0.76175 0.0
C1652 C 0.43841 0.98191 0.75657 0.0
H1653 H 0.46798 0.07052 0.73581 0.0
H1654 H 0.46721 0.03973 0.74417 0.0
H1655 H 0.4159 0.0194 0.76501 0.0
H1656 H 0.4108 0.92925 0.7717 0.0
H1657 H 0.41046 0.9599 0.76254 0.0
C1658 C 0.31509 0.17794 0.01975 0.0
C1659 C 0.32439 0.19364 0.02025 0.0
C1660 C 0.29738 0.17767 0.01488 0.0
C1661 C 0.26232 0.2049 0.99248 0.0
H1662 H 0.23152 0.17215 0.01716 0.0
C1663 C 0.18731 0.21017 0.98587 0.0
C1664 C 0.17771 0.19478 0.98362 0.0
C1665 C 0.20508 0.2097 0.99024 0.0
C1666 C 0.23993 0.18129 0.00997 0.0
H1667 H 0.32228 0.22136 0.01606 0.0
H1668 H 0.29149 0.22106 0.00805 0.0
H1669 H 0.26241 0.17193 0.02468 0.0
H1670 H 0.17948 0.16675 0.98417 0.0
H1671 H 0.2104 0.16586 0.99212 0.0
H1672 H 0.23977 0.2144 0.97798 0.0
C1673 C 0.29783 0.20881 0.01097 0.0
C1674 C 0.25776 0.18114 0.01425 0.0
C1675 C 0.31552 0.20904 0.01574 0.0
C1676 C 0.18637 0.17886 0.98611 0.0
C1677 C 0.20415 0.17837 0.99063 0.0
C1678 C 0.24449 0.20511 0.9883 0.0
C1679 C 0.28839 0.19313 0.01048 0.0
C1680 C 0.26929 0.19299 0.00563 0.0
C1681 C 0.21384 0.19379 0.99263 0.0
C1682 C 0.23297 0.19335 0.99701 0.0
H1683 H 0.32144 0.16587 0.02345 0.0
H1684 H 0.29078 0.16528 0.0145 0.0
H1685 H 0.27065 0.21401 0.98516 0.0
H1686 H 0.18104 0.22267 0.98426 0.0
H1687 H 0.21194 0.22186 0.99195 0.0
C1688 C 0.94746 0.05719 0.79393 0.0
C1689 C 0.93368 0.06562 0.80309 0.0
C1690 C 0.9489 0.03921 0.79472 0.0
C1691 C 0.91857 0.00496 0.79224 0.0
H1692 H 0.95999 0.97703 0.78589 0.0
C1693 C 0.9171 0.94142 0.75 0.0
C1694 C 0.93103 0.93896 0.73749 0.0
C1695 C 0.91781 0.95436 0.76373 0.0
C1696 C 0.9483 0.98467 0.78763 0.0
H1697 H 0.91128 0.06215 0.82125 0.0
H1698 H 0.91357 0.03047 0.82226 0.0
H1699 H 0.96164 0.0044 0.80329 0.0
H1700 H 0.95645 0.94802 0.7291 0.0
H1701 H 0.95739 0.97141 0.75247 0.0
H1702 H 0.90549 0.98619 0.77534 0.0
C1703 C 0.92339 0.03784 0.81477 0.0
C1704 C 0.94922 1.00018 0.79777 0.0
C1705 C 0.92205 0.05589 0.81413 0.0
C1706 C 0.94555 0.94982 0.7386 0.0
C1707 C 0.94617 0.96296 0.75217 0.0
C1708 C 0.91769 0.98958 0.78199 0.0
C1709 C 0.93634 0.02934 0.80429 0.0
C1710 C 0.93453 0.01083 0.79938 0.0
C1711 C 0.93237 0.96526 0.76501 0.0
C1712 C 0.93271 0.97968 0.77884 0.0
H1713 H 0.95622 0.06422 0.7847 0.0
H1714 H 0.9588 0.03301 0.78616 0.0
H1715 H 0.90708 0.01302 0.79301 0.0
H1716 H 0.90594 0.93286 0.74968 0.0
H1717 H 0.90705 0.95566 0.77351 0.0
C1718 C 0.8049 0.18808 0.50459 0.0
C1719 C 0.81498 0.17384 0.49911 0.0
C1720 C 0.79259 0.18629 0.51897 0.0
C1721 C 0.76491 0.15317 0.53975 0.0
H1722 H 0.75024 0.19213 0.57061 0.0
C1723 C 0.6951 0.15728 0.56191 0.0
C1724 C 0.68812 0.17223 0.55345 0.0
C1725 C 0.71288 0.15618 0.56555 0.0
C1726 C 0.75437 0.18096 0.56244 0.0
H1727 H 0.82083 0.14679 0.50471 0.0
H1728 H 0.79933 0.14362 0.52985 0.0
H1729 H 0.77895 0.19244 0.55596 0.0
H1730 H 0.69421 0.19786 0.54253 0.0
H1731 H 0.72481 0.19616 0.54924 0.0
H1732 H 0.73997 0.14226 0.54498 0.0
C1733 C 0.80071 0.1561 0.52292 0.0
C1734 C 0.77071 0.1812 0.55393 0.0
C1735 C 0.81288 0.15787 0.50844 0.0
C1736 C 0.69899 0.18645 0.5498 0.0
C1737 C 0.71664 0.18544 0.55362 0.0
C1738 C 0.74863 0.15291 0.54829 0.0
C1739 C 0.79028 0.17023 0.52819 0.0
C1740 C 0.77563 0.16782 0.54151 0.0
C1741 C 0.7239 0.17002 0.56071 0.0
C1742 C 0.74277 0.16735 0.5586 0.0
H1743 H 0.80629 0.20049 0.49753 0.0
H1744 H 0.78447 0.19732 0.52237 0.0
H1745 H 0.76829 0.14263 0.53029 0.0
H1746 H 0.68696 0.14611 0.56476 0.0
H1747 H 0.71817 0.14413 0.57097 0.0
C1748 C 0.59754 0.06357 0.19739 0.0
C1749 C 0.58251 0.07049 0.20576 0.0
C1750 C 0.59955 0.04561 0.19565 0.0
C1751 C 0.57662 0.0036 0.20169 0.0
H1752 H 0.61556 0.99164 0.23398 0.0
C1753 C 0.57169 0.95236 0.25907 0.0
C1754 C 0.58577 0.94136 0.26265 0.0
C1755 C 0.57325 0.96578 0.24591 0.0
C1756 C 0.60486 0.99457 0.22454 0.0
H1757 H 0.55793 0.06394 0.21902 0.0
H1758 H 0.56101 0.03307 0.21517 0.0
H1759 H 0.61478 0.01988 0.21858 0.0
H1760 H 0.61261 0.93579 0.25563 0.0
H1761 H 0.61543 0.95954 0.23287 0.0
H1762 H 0.56611 0.97875 0.20883 0.0
C1763 C 0.57107 0.0414 0.20946 0.0
C1764 C 0.60447 0.01072 0.21561 0.0
C1765 C 0.56923 0.05922 0.21153 0.0
C1766 C 0.60159 0.94425 0.25326 0.0
C1767 C 0.60317 0.9577 0.24012 0.0
C1768 C 0.57701 0.98747 0.21061 0.0
C1769 C 0.58647 0.03439 0.20214 0.0
C1770 C 0.58983 0.01575 0.2051 0.0
C1771 C 0.58895 0.96846 0.23618 0.0
C1772 C 0.59064 0.98327 0.22301 0.0
H1773 H 0.60807 0.072 0.19305 0.0
H1774 H 0.61162 0.04046 0.19015 0.0
H1775 H 0.5653 0.00715 0.19345 0.0
H1776 H 0.55947 0.95057 0.26638 0.0
H1777 H 0.56222 0.97423 0.24358 0.0
C1778 C 0.81261 0.83257 0.048 0.0
C1779 C 0.82385 0.84399 0.03862 0.0
C1780 C 0.79527 0.83155 0.04256 0.0
C1781 C 0.76175 0.85163 0.01152 0.0
H1782 H 0.74718 0.80376 0.0051 0.0
C1783 C 0.70463 0.83284 0.96394 0.0
C1784 C 0.69159 0.82366 0.97359 0.0
C1785 C 0.72109 0.83452 0.97189 0.0
C1786 C 0.75113 0.81716 0.00687 0.0
H1787 H 0.82586 0.86427 0.01744 0.0
H1788 H 0.79573 0.86229 0.0076 0.0
H1789 H 0.77426 0.81009 0.02154 0.0
H1790 H 0.68574 0.80893 0.99913 0.0
H1791 H 0.71462 0.81112 0.01239 0.0
H1792 H 0.73879 0.85855 0.99623 0.0
C1793 C 0.80004 0.85429 0.01932 0.0
C1794 C 0.76648 0.82083 0.01647 0.0
C1795 C 0.81731 0.85545 0.02494 0.0
C1796 C 0.69557 0.81543 0.99085 0.0
C1797 C 0.71209 0.81689 0.99864 0.0
C1798 C 0.74652 0.84792 1.0017 0.0
C1799 C 0.78905 0.84179 0.0275 0.0
C1800 C 0.77198 0.83811 0.01885 0.0
C1801 C 0.72476 0.82692 0.98952 0.0
C1802 C 0.74117 0.83067 0.99925 0.0
H1803 H 0.81746 0.82378 0.05875 0.0
H1804 H 0.78696 0.82213 0.04947 0.0
H1805 H 0.76554 0.86506 0.01331 0.0
H1806 H 0.70185 0.83941 0.95069 0.0
H1807 H 0.73078 0.84222 0.96459 0.0
C1808 C 0.5775 0.43626 0.73608 0.0
C1809 C 0.56173 0.42707 0.73555 0.0
C1810 C 0.57786 0.45404 0.74065 0.0
C1811 C 0.54994 0.49348 0.74129 0.0
H1812 H 0.58535 0.51247 0.7743 0.0
C1813 C 0.54623 0.56464 0.76833 0.0
C1814 C 0.56165 0.57392 0.77158 0.0
C1815 C 0.54658 0.54691 0.76373 0.0
C1816 C 0.57549 0.50753 0.7648 0.0
H1817 H 0.53401 0.42943 0.73954 0.0
H1818 H 0.53456 0.46037 0.74728 0.0
H1819 H 0.58543 0.48155 0.76685 0.0
H1820 H 0.5896 0.57163 0.77269 0.0
H1821 H 0.59036 0.54094 0.76393 0.0
H1822 H 0.54012 0.51937 0.73889 0.0
C1823 C 0.54669 0.45391 0.74411 0.0
C1824 C 0.57552 0.48968 0.76058 0.0
C1825 C 0.54636 0.43613 0.73973 0.0
C1826 C 0.57748 0.56497 0.76998 0.0
C1827 C 0.57787 0.54723 0.76523 0.0
C1828 C 0.54999 0.51133 0.74536 0.0
C1829 C 0.56243 0.4632 0.74457 0.0
C1830 C 0.56267 0.48234 0.74886 0.0
C1831 C 0.5624 0.53783 0.76209 0.0
C1832 C 0.56269 0.51871 0.75731 0.0
H1833 H 0.58954 0.4298 0.73253 0.0
H1834 H 0.59022 0.46073 0.74062 0.0
H1835 H 0.54 0.48844 0.73194 0.0
H1836 H 0.5338 0.57111 0.76944 0.0
H1837 H 0.53433 0.54028 0.76181 0.0
C1838 C 0.81522 0.30004 0.98704 0.0
C1839 C 0.82426 0.31562 0.98382 0.0
C1840 C 0.79755 0.30012 0.99195 0.0
C1841 C 0.75777 0.32848 0.99194 0.0
H1842 H 0.73986 0.29281 0.02542 0.0
C1843 C 0.68715 0.32997 0.02242 0.0
C1844 C 0.67813 0.31413 0.02355 0.0
C1845 C 0.70483 0.33043 0.01739 0.0
C1846 C 0.74455 0.30279 0.01589 0.0
H1847 H 0.82153 0.34356 0.98286 0.0
H1848 H 0.79096 0.34383 0.99213 0.0
H1849 H 0.77059 0.29323 0.01752 0.0
H1850 H 0.68072 0.28634 0.02015 0.0
H1851 H 0.71146 0.28706 0.01157 0.0
H1852 H 0.73166 0.33814 0.9906 0.0
C1853 C 0.79741 0.33143 0.99065 0.0
C1854 C 0.76229 0.30303 0.01128 0.0
C1855 C 0.81509 0.33132 0.98561 0.0
C1856 C 0.68728 0.29876 0.01952 0.0
C1857 C 0.70496 0.29919 0.01466 0.0
C1858 C 0.74003 0.32832 0.99668 0.0
C1859 C 0.78828 0.31581 0.99389 0.0
C1860 C 0.76925 0.31581 0.99912 0.0
C1861 C 0.71407 0.31503 0.01356 0.0
C1862 C 0.7331 0.31541 0.00865 0.0
H1863 H 0.82184 0.28771 0.98572 0.0
H1864 H 0.79111 0.28776 0.99391 0.0
H1865 H 0.76238 0.3384 0.9823 0.0
H1866 H 0.68062 0.34202 0.0258 0.0
H1867 H 0.71136 0.34287 0.01696 0.0
C1868 C 0.95589 0.56779 0.24005 0.0
C1869 C 0.94056 0.57694 0.2359 0.0
C1870 C 0.95545 0.55007 0.24481 0.0
C1871 C 0.92615 0.51484 0.26218 0.0
H1872 H 0.96178 0.48444 0.24223 0.0
C1873 C 0.9233 0.4397 0.27315 0.0
C1874 C 0.93899 0.4306 0.27538 0.0
C1875 C 0.92321 0.45739 0.26812 0.0
C1876 C 0.95182 0.49269 0.24821 0.0
H1877 H 0.91272 0.57437 0.23314 0.0
H1878 H 0.91185 0.54358 0.24179 0.0
H1879 H 0.96218 0.5152 0.2343 0.0
H1880 H 0.96691 0.43316 0.27421 0.0
H1881 H 0.96688 0.46392 0.26602 0.0
H1882 H 0.91589 0.49241 0.27632 0.0
C1883 C 0.92426 0.55015 0.2416 0.0
C1884 C 0.95205 0.51045 0.24359 0.0
C1885 C 0.92474 0.56786 0.23669 0.0
C1886 C 0.95458 0.43973 0.27258 0.0
C1887 C 0.95452 0.45741 0.26766 0.0
C1888 C 0.92598 0.49708 0.26692 0.0
C1889 C 0.93963 0.54091 0.24564 0.0
C1890 C 0.93924 0.52185 0.25052 0.0
C1891 C 0.93884 0.46661 0.2653 0.0
C1892 C 0.93884 0.48566 0.26006 0.0
H1893 H 0.9683 0.57437 0.23965 0.0
H1894 H 0.96755 0.54359 0.24805 0.0
H1895 H 0.91616 0.52315 0.26802 0.0
H1896 H 0.91104 0.43318 0.27552 0.0
H1897 H 0.91082 0.46378 0.26629 0.0
C1898 C 0.69035 0.70661 0.48851 0.0
C1899 C 0.68117 0.69129 0.48444 0.0
C1900 C 0.70802 0.70615 0.49339 0.0
C1901 C 0.74749 0.67737 0.49171 0.0
H1902 H 0.76611 0.71172 0.52629 0.0
C1903 C 0.81846 0.67442 0.52121 0.0
C1904 C 0.82761 0.69018 0.52257 0.0
C1905 C 0.80072 0.6742 0.51644 0.0
C1906 C 0.76121 0.7021 0.51646 0.0
H1907 H 0.68358 0.66339 0.48222 0.0
H1908 H 0.71414 0.6624 0.49144 0.0
H1909 H 0.73528 0.71181 0.51885 0.0
H1910 H 0.82518 0.71805 0.5199 0.0
H1911 H 0.79433 0.71774 0.5118 0.0
H1912 H 0.7735 0.66752 0.48964 0.0
C1913 C 0.70782 0.67492 0.49056 0.0
C1914 C 0.74341 0.70217 0.51211 0.0
C1915 C 0.69015 0.67543 0.48554 0.0
C1916 C 0.81853 0.70569 0.51905 0.0
C1917 C 0.80079 0.7055 0.51447 0.0
C1918 C 0.76528 0.67721 0.49621 0.0
C1919 C 0.71714 0.6903 0.4945 0.0
C1920 C 0.7362 0.68988 0.49954 0.0
C1921 C 0.79156 0.68976 0.51313 0.0
C1922 C 0.77246 0.68965 0.50856 0.0
H1923 H 0.68385 0.71906 0.48781 0.0
H1924 H 0.71458 0.71834 0.49593 0.0
H1925 H 0.74269 0.66783 0.48174 0.0
H1926 H 0.82492 0.66226 0.52426 0.0
H1927 H 0.79408 0.66183 0.51581 0.0
C1928 C 0.40632 0.56118 0.30991 0.0
C1929 C 0.42149 0.56793 0.30164 0.0
C1930 C 0.40411 0.54324 0.31173 0.0
C1931 C 0.42649 0.50095 0.30537 0.0
H1932 H 0.38824 0.49054 0.2715 0.0
C1933 C 0.43285 0.45289 0.24528 0.0
C1934 C 0.41909 0.44172 0.24097 0.0
C1935 C 0.43083 0.46568 0.25907 0.0
C1936 C 0.39872 0.49302 0.28137 0.0
H1937 H 0.44619 0.56106 0.28885 0.0
H1938 H 0.44278 0.53029 0.29288 0.0
H1939 H 0.38886 0.51815 0.28817 0.0
H1940 H 0.39227 0.43532 0.24719 0.0
H1941 H 0.3886 0.45807 0.271 0.0
H1942 H 0.43705 0.47637 0.2973 0.0
C1943 C 0.43274 0.53872 0.29843 0.0
C1944 C 0.39902 0.5088 0.29104 0.0
C1945 C 0.43477 0.55651 0.29625 0.0
C1946 C 0.40304 0.44393 0.25014 0.0
C1947 C 0.40099 0.45677 0.26389 0.0
C1948 C 0.42621 0.48519 0.29569 0.0
C1949 C 0.41713 0.53187 0.30545 0.0
C1950 C 0.41349 0.51334 0.30208 0.0
C1951 C 0.41496 0.46757 0.26868 0.0
C1952 C 0.41287 0.48163 0.2827 0.0
H1953 H 0.3958 0.56971 0.314 0.0
H1954 H 0.3919 0.53823 0.31701 0.0
H1955 H 0.43768 0.50411 0.31401 0.0
H1956 H 0.44522 0.45166 0.23814 0.0
H1957 H 0.44165 0.47423 0.26205 0.0
C1958 C 0.31407 0.66762 0.95041 0.0
C1959 C 0.32471 0.65662 0.96111 0.0
C1960 C 0.29626 0.66807 0.95379 0.0
C1961 C 0.26091 0.64795 0.98278 0.0
H1962 H 0.24573 0.69581 0.98718 0.0
C1963 C 0.2066 0.66992 0.03303 0.0
C1964 C 0.1929 0.67883 0.02419 0.0
C1965 C 0.22209 0.66701 0.02335 0.0
C1966 C 0.24979 0.6824 0.98586 0.0
H1967 H 0.32535 0.63648 0.98251 0.0
H1968 H 0.29443 0.63759 0.98898 0.0
H1969 H 0.2731 0.68934 0.97153 0.0
H1970 H 0.18486 0.69148 0.99801 0.0
H1971 H 0.21222 0.68732 0.98173 0.0
H1972 H 0.23791 0.64129 0.99823 0.0
C1973 C 0.29953 0.64563 0.97767 0.0
C1974 C 0.26534 0.67862 0.97671 0.0
C1975 C 0.31727 0.64498 0.97402 0.0
C1976 C 0.19526 0.68529 0.0057 0.0
C1977 C 0.21086 0.68265 0.99616 0.0
C1978 C 0.2455 0.65179 0.99224 0.0
C1979 C 0.28896 0.65777 0.96822 0.0
C1980 C 0.27124 0.66137 0.97533 0.0
C1981 C 0.22418 0.67313 0.00476 0.0
C1982 C 0.24002 0.66905 0.99408 0.0
H1983 H 0.31966 0.67658 0.94024 0.0
H1984 H 0.2884 0.6772 0.94589 0.0
H1985 H 0.26492 0.63452 0.98169 0.0
H1986 H 0.20511 0.66467 0.0472 0.0
H1987 H 0.23234 0.65975 0.03025 0.0
C1988 C 0.0762 0.45037 0.75393 0.0
C1989 C 0.0847 0.44565 0.77077 0.0
C1990 C 0.07938 0.46638 0.74553 0.0
C1991 C 0.11134 0.50128 0.74209 0.0
H1992 H 0.07178 0.52839 0.7255 0.0
C1993 C 0.11269 0.57445 0.72577 0.0
C1994 C 0.10036 0.58094 0.713 0.0
C1995 C 0.11361 0.55666 0.72932 0.0
C1996 C 0.08302 0.52083 0.72961 0.0
H1997 H 0.10366 0.45367 0.79168 0.0
H1998 H 0.10914 0.482 0.77699 0.0
H1999 H 0.06712 0.5003 0.74015 0.0
H2000 H 0.08091 0.57424 0.69213 0.0
H2001 H 0.08286 0.54303 0.69782 0.0
H2002 H 0.12723 0.52206 0.73174 0.0
C2003 C 0.09995 0.47324 0.77041 0.0
C2004 C 0.08031 0.50479 0.73815 0.0
C2005 C 0.09671 0.45716 0.77888 0.0
C2006 C 0.09034 0.56942 0.70224 0.0
C2007 C 0.0914 0.55163 0.7056 0.0
C2008 C 0.11407 0.51737 0.73344 0.0
C2009 C 0.09128 0.47795 0.75364 0.0
C2010 C 0.09442 0.49492 0.74457 0.0
C2011 C 0.1023 0.5452 0.71997 0.0
C2012 C 0.0999 0.52734 0.72721 0.0
H2013 H 0.06756 0.44152 0.74673 0.0
H2014 H 0.07281 0.46954 0.73238 0.0
H2015 H 0.12244 0.49377 0.74673 0.0
H2016 H 0.12049 0.58319 0.73426 0.0
H2017 H 0.1221 0.55213 0.74051 0.0
C2018 C 0.31279 0.35409 0.51151 0.0
C2019 C 0.31457 0.33752 0.51967 0.0
C2020 C 0.29929 0.35751 0.49885 0.0
C2021 C 0.26956 0.3352 0.46653 0.0
H2022 H 0.23711 0.37239 0.4771 0.0
C2023 C 0.19799 0.3278 0.46267 0.0
C2024 C 0.18696 0.34153 0.45764 0.0
C2025 C 0.21586 0.32983 0.46198 0.0
C2026 C 0.24633 0.36232 0.47344 0.0
H2027 H 0.303 0.31202 0.52223 0.0
H2028 H 0.27953 0.31789 0.49997 0.0
H2029 H 0.26479 0.37143 0.49383 0.0
H2030 H 0.18602 0.36816 0.44774 0.0
H2031 H 0.21764 0.37198 0.44734 0.0
H2032 H 0.25061 0.3254 0.44716 0.0
C2033 C 0.28885 0.32806 0.50294 0.0
C2034 C 0.26211 0.36171 0.48313 0.0
C2035 C 0.3022 0.32471 0.51571 0.0
C2036 C 0.19425 0.35728 0.45145 0.0
C2037 C 0.21227 0.35946 0.45115 0.0
C2038 C 0.25386 0.33585 0.4568 0.0
C2039 C 0.2875 0.34436 0.49411 0.0
C2040 C 0.27331 0.34756 0.48056 0.0
C2041 C 0.22318 0.34583 0.45685 0.0
C2042 C 0.24167 0.34879 0.4611 0.0
H2043 H 0.32223 0.36419 0.51428 0.0
H2044 H 0.29836 0.37022 0.49236 0.0
H2045 H 0.27824 0.32438 0.46404 0.0
H2046 H 0.19297 0.31586 0.46859 0.0
H2047 H 0.22391 0.31929 0.46708 0.0
C2048 C 0.96507 0.31156 0.26705 0.0
C2049 C 0.97153 0.32362 0.28031 0.0
C2050 C 0.97297 0.29529 0.26469 0.0
C2051 C 0.01319 0.26984 0.27494 0.0
H2052 H 0.98236 0.23026 0.27079 0.0
C2053 C 0.01591 0.19046 0.28536 0.0
C2054 C 0.03185 0.18667 0.27651 0.0
C2055 C 0.00839 0.207 0.2838 0.0
C2056 C 0.99119 0.24113 0.27199 0.0
H2057 H 0.99194 0.32803 0.30092 0.0
H2058 H 0.00569 0.29977 0.29678 0.0
H2059 H 0.97032 0.25949 0.27202 0.0
H2060 H 0.05197 0.19739 0.25844 0.0
H2061 H 0.03878 0.22608 0.25558 0.0
H2062 H 0.03404 0.25143 0.27541 0.0
C2063 C 0.99453 0.30291 0.28812 0.0
C2064 C 0.98428 0.25798 0.27248 0.0
C2065 C 0.98659 0.31918 0.29052 0.0
C2066 C 0.03969 0.19974 0.26546 0.0
C2067 C 0.0322 0.21631 0.26397 0.0
C2068 C 0.02012 0.25299 0.27436 0.0
C2069 C 0.98761 0.29056 0.27546 0.0
C2070 C 0.99515 0.27261 0.2741 0.0
C2071 C 0.01659 0.22029 0.2734 0.0
C2072 C 0.00922 0.23835 0.27304 0.0
H2073 H 0.95353 0.31442 0.25888 0.0
H2074 H 0.96743 0.28631 0.25455 0.0
H2075 H 0.02202 0.28073 0.27603 0.0
H2076 H 0.00948 0.18082 0.29406 0.0
H2077 H 0.99645 0.20953 0.29139 0.0
C2078 C 0.062 0.78442 0.51667 0.0
C2079 C 0.07412 0.77818 0.53001 0.0
C2080 C 0.04538 0.77702 0.51523 0.0
C2081 C 0.01339 0.75301 0.54424 0.0
H2082 H 0.98935 0.74548 0.49664 0.0
C2083 C 0.94027 0.73604 0.54238 0.0
C2084 C 0.93528 0.72214 0.53061 0.0
C2085 C 0.95687 0.74341 0.54093 0.0
C2086 C 0.99589 0.74747 0.51006 0.0
H2087 H 0.07821 0.75867 0.55177 0.0
H2088 H 0.04938 0.74586 0.54923 0.0
H2089 H 0.01929 0.75621 0.49648 0.0
H2090 H 0.94384 0.70575 0.50741 0.0
H2091 H 0.97264 0.71878 0.50473 0.0
H2092 H 0.9901 0.7443 0.55786 0.0
C2093 C 0.05267 0.7566 0.53999 0.0
C2094 C 0.01303 0.75373 0.50998 0.0
C2095 C 0.06932 0.76387 0.54132 0.0
C2096 C 0.94713 0.71644 0.51671 0.0
C2097 C 0.96369 0.72394 0.51515 0.0
C2098 C 0.99623 0.74696 0.54433 0.0
C2099 C 0.04032 0.76329 0.52721 0.0
C2100 C 0.02207 0.75651 0.52708 0.0
C2101 C 0.96897 0.73724 0.52757 0.0
C2102 C 0.98721 0.74407 0.52726 0.0
H2103 H 0.06513 0.79543 0.50774 0.0
H2104 H 0.03624 0.78257 0.50526 0.0
H2105 H 0.0198 0.75517 0.55771 0.0
H2106 H 0.93159 0.74083 0.55326 0.0
H2107 H 0.96034 0.75382 0.55053 0.0
C2108 C 0.48565 0.81466 0.79026 0.0
C2109 C 0.47169 0.81958 0.77855 0.0
C2110 C 0.49314 0.79812 0.78874 0.0
C2111 C 0.49722 0.75913 0.75783 0.0
H2112 H 0.50516 0.73523 0.80547 0.0
C2113 C 0.53429 0.69309 0.76444 0.0
C2114 C 0.52824 0.68104 0.77797 0.0
C2115 C 0.52679 0.70966 0.76291 0.0
C2116 C 0.50292 0.74164 0.79201 0.0
H2117 H 0.45532 0.81098 0.75534 0.0
H2118 H 0.46855 0.78229 0.75254 0.0
H2119 H 0.49426 0.76492 0.80563 0.0
H2120 H 0.5089 0.67694 0.79989 0.0
H2121 H 0.49589 0.70567 0.79717 0.0
H2122 H 0.50589 0.73572 0.74424 0.0
C2123 C 0.47367 0.79125 0.76297 0.0
C2124 C 0.49687 0.75879 0.79211 0.0
C2125 C 0.46606 0.80775 0.7646 0.0
C2126 C 0.51397 0.68579 0.7893 0.0
C2127 C 0.50658 0.70238 0.78788 0.0
C2128 C 0.50348 0.74198 0.75774 0.0
C2129 C 0.48701 0.78603 0.77536 0.0
C2130 C 0.49389 0.76781 0.77504 0.0
C2131 C 0.51313 0.71471 0.77498 0.0
C2132 C 0.50633 0.73296 0.77484 0.0
H2133 H 0.49039 0.82333 0.80118 0.0
H2134 H 0.50359 0.7947 0.79831 0.0
H2135 H 0.49517 0.76566 0.74441 0.0
H2136 H 0.54526 0.68998 0.75547 0.0
H2137 H 0.53223 0.71879 0.75284 0.0
C2138 C 0.43707 0.23894 0.04181 0.0
C2139 C 0.43232 0.22477 0.03032 0.0
C2140 C 0.45374 0.2462 0.04067 0.0
C2141 C 0.49354 0.2493 0.01088 0.0
H2142 H 0.51617 0.25857 0.05893 0.0
C2143 C 0.55925 0.28679 0.01804 0.0
C2144 C 0.57103 0.28116 0.03205 0.0
C2145 C 0.54273 0.27921 0.01638 0.0
C2146 C 0.51013 0.25596 0.04536 0.0
H2147 H 0.44141 0.20772 0.00795 0.0
H2148 H 0.47035 0.22054 0.0058 0.0
H2149 H 0.48651 0.24761 0.05856 0.0
H2150 H 0.57467 0.26251 0.05478 0.0
H2151 H 0.54602 0.24935 0.05186 0.0
H2152 H 0.51726 0.25767 0.99771 0.0
C2153 C 0.46115 0.226 0.01576 0.0
C2154 C 0.49299 0.24986 0.04514 0.0
C2155 C 0.44451 0.21863 0.01701 0.0
C2156 C 0.56604 0.26724 0.04381 0.0
C2157 C 0.54949 0.25978 0.04226 0.0
C2158 C 0.51066 0.2556 0.01109 0.0
C2159 C 0.46615 0.23962 0.0279 0.0
C2160 C 0.48441 0.24642 0.02791 0.0
C2161 C 0.53744 0.26588 0.02879 0.0
C2162 C 0.51924 0.25896 0.02836 0.0
H2163 H 0.42812 0.24408 0.05224 0.0
H2164 H 0.45699 0.25686 0.05002 0.0
H2165 H 0.48736 0.24688 0.99734 0.0
H2166 H 0.56255 0.29748 0.00873 0.0
H2167 H 0.53383 0.28431 0.00588 0.0
C2168 C 0.98763 0.68941 0.22046 0.0
C2169 C 0.97204 0.6851 0.22978 0.0
C2170 C 0.99501 0.70599 0.22238 0.0
C2171 C 0.98298 0.75145 0.23455 0.0
H2172 H 0.0327 0.75881 0.23424 0.0
C2173 C 0.03736 0.8108 0.2413 0.0
C2174 C 0.02983 0.82333 0.22928 0.0
C2175 C 0.02994 0.79426 0.24334 0.0
C2176 C 0.01877 0.75706 0.23455 0.0
H2177 H 0.95248 0.69493 0.24913 0.0
H2178 H 0.96544 0.72361 0.25267 0.0
H2179 H 0.02122 0.72933 0.23468 0.0
H2180 H 0.00804 0.82822 0.21056 0.0
H2181 H 0.99515 0.7995 0.21411 0.0
H2182 H 0.98053 0.77918 0.23452 0.0
C2183 C 0.97182 0.71426 0.24357 0.0
C2184 C 0.01216 0.74007 0.23457 0.0
C2185 C 0.96446 0.69768 0.24169 0.0
C2186 C 0.01422 0.81902 0.22002 0.0
C2187 C 0.00678 0.80248 0.22208 0.0
C2188 C 0.98959 0.76844 0.23448 0.0
C2189 C 0.98703 0.71881 0.23366 0.0
C2190 C 0.99415 0.73697 0.23446 0.0
C2191 C 0.01473 0.78969 0.23345 0.0
C2192 C 0.00759 0.77154 0.23437 0.0
H2193 H 0.99384 0.68017 0.21109 0.0
H2194 H 0.00663 0.70895 0.21438 0.0
H2195 H 0.96905 0.74969 0.23425 0.0
H2196 H 0.04934 0.81356 0.24873 0.0
H2197 H 0.03629 0.78494 0.25252 0.0
C2198 C 0.56058 0.71513 0.48755 0.0
C2199 C 0.57334 0.72266 0.47583 0.0
C2200 C 0.54402 0.72257 0.48919 0.0
C2201 C 0.5186 0.76306 0.48001 0.0
H2202 H 0.47932 0.73164 0.47908 0.0
C2203 C 0.43986 0.76575 0.46454 0.0
C2204 C 0.43552 0.7812 0.47411 0.0
C2205 C 0.45635 0.75822 0.46662 0.0
C2206 C 0.4901 0.74064 0.47928 0.0
H2207 H 0.57864 0.74446 0.45722 0.0
H2208 H 0.54989 0.7574 0.4601 0.0
H2209 H 0.50873 0.71999 0.47914 0.0
H2210 H 0.44517 0.80035 0.49404 0.0
H2211 H 0.47369 0.78714 0.49784 0.0
H2212 H 0.49998 0.78372 0.47964 0.0
C2213 C 0.55269 0.74574 0.46813 0.0
C2214 C 0.50704 0.73393 0.47955 0.0
C2215 C 0.56924 0.73828 0.46645 0.0
C2216 C 0.44796 0.78849 0.4864 0.0
C2217 C 0.46445 0.78098 0.48844 0.0
C2218 C 0.50166 0.76977 0.47982 0.0
C2219 C 0.53969 0.73782 0.47921 0.0
C2220 C 0.52158 0.74503 0.47978 0.0
C2221 C 0.46904 0.76592 0.4783 0.0
C2222 C 0.48713 0.75867 0.47932 0.0
H2223 H 0.56318 0.70313 0.49506 0.0
H2224 H 0.53453 0.71623 0.49815 0.0
H2225 H 0.52938 0.77206 0.48036 0.0
H2226 H 0.43073 0.75977 0.45488 0.0
H2227 H 0.45936 0.74671 0.45846 0.0
C2228 C 0.48716 0.18548 0.71342 0.0
C2229 C 0.47307 0.18071 0.72504 0.0
C2230 C 0.49481 0.20195 0.71497 0.0
C2231 C 0.49931 0.24082 0.74595 0.0
H2232 H 0.50778 0.26472 0.69841 0.0
C2233 C 0.53711 0.30659 0.73972 0.0
C2234 C 0.53101 0.31881 0.7264 0.0
C2235 C 0.52959 0.29 0.74106 0.0
C2236 C 0.50542 0.25831 0.71184 0.0
H2237 H 0.45662 0.18951 0.74808 0.0
H2238 H 0.47015 0.21808 0.75095 0.0
H2239 H 0.49644 0.23519 0.69812 0.0
H2240 H 0.51164 0.32312 0.70456 0.0
H2241 H 0.49865 0.29436 0.70691 0.0
H2242 H 0.50832 0.26407 0.75963 0.0
C2243 C 0.47523 0.20906 0.74056 0.0
C2244 C 0.49909 0.24125 0.71167 0.0
C2245 C 0.46745 0.19263 0.7389 0.0
C2246 C 0.51676 0.31414 0.71499 0.0
C2247 C 0.50937 0.29754 0.71621 0.0
C2248 C 0.50586 0.25787 0.74611 0.0
C2249 C 0.48874 0.21412 0.72829 0.0
C2250 C 0.49589 0.23224 0.7287 0.0
C2251 C 0.51588 0.28509 0.72899 0.0
C2252 C 0.50891 0.2669 0.72905 0.0
H2253 H 0.4919 0.17674 0.70257 0.0
H2254 H 0.50537 0.20524 0.70548 0.0
H2255 H 0.49709 0.23429 0.75934 0.0
H2256 H 0.54807 0.30963 0.74873 0.0
H2257 H 0.535 0.28077 0.75103 0.0
C2258 C 0.05701 0.21814 0.99039 0.0
C2259 C 0.0696 0.2255 0.97833 0.0
C2260 C 0.0405 0.22566 0.99225 0.0
C2261 C 0.00343 0.23705 0.98301 0.0
H2262 H 0.99656 0.28686 0.98269 0.0
C2263 C 0.93633 0.26906 0.96821 0.0
C2264 C 0.93211 0.2846 0.97768 0.0
C2265 C 0.95278 0.26146 0.97027 0.0
C2266 C 0.99818 0.27291 0.98299 0.0
H2267 H 0.07466 0.24707 0.95933 0.0
H2268 H 0.04603 0.26015 0.96261 0.0
H2269 H 0.02592 0.2751 0.98317 0.0
H2270 H 0.94194 0.30382 0.99742 0.0
H2271 H 0.97041 0.29049 1.00116 0.0
H2272 H 0.97569 0.23486 0.98288 0.0
C2273 C 0.04891 0.24858 0.97073 0.0
C2274 C 0.01509 0.26614 0.98304 0.0
C2275 C 0.0654 0.24103 0.96882 0.0
C2276 C 0.94463 0.2919 0.98985 0.0
C2277 C 0.96109 0.28432 0.99187 0.0
C2278 C 0.98651 0.24382 0.98288 0.0
C2279 C 0.03607 0.24081 0.98217 0.0
C2280 C 0.018 0.2481 0.98295 0.0
C2281 C 0.96556 0.26917 0.98182 0.0
C2282 C 0.98361 0.26186 0.98276 0.0
H2283 H 0.05967 0.2062 0.99797 0.0
H2284 H 0.03112 0.21944 1.00146 0.0
H2285 H 0.00506 0.22309 0.98272 0.0
H2286 H 0.92712 0.26306 0.95864 0.0
H2287 H 0.9557 0.24988 0.96218 0.0
C2288 C 0.98231 0.78995 0.78878 0.0
C2289 C 0.96785 0.79646 0.77904 0.0
C2290 C 0.9805 0.77584 0.80108 0.0
C2291 C 0.95406 0.73743 0.80375 0.0
H2292 H 0.98757 0.72629 0.84283 0.0
C2293 C 0.98451 0.67344 0.79853 0.0
C2294 C 0.00207 0.67697 0.79496 0.0
C2295 C 0.9746 0.68509 0.80924 0.0
C2296 C 0.97781 0.72917 0.83223 0.0
H2297 H 0.93989 0.79419 0.77572 0.0
H2298 H 0.93681 0.76972 0.79718 0.0
H2299 H 0.98042 0.75658 0.83641 0.0
H2300 H 0.02373 0.69363 0.8022 0.0
H2301 H 0.00671 0.71396 0.82021 0.0
H2302 H 0.95279 0.71044 0.79797 0.0
C2303 C 0.94957 0.7753 0.79511 0.0
C2304 C 0.97379 0.74652 0.82851 0.0
C2305 C 0.9514 0.78925 0.78269 0.0
C2306 C 0.01006 0.69092 0.80424 0.0
C2307 C 1.00027 0.70244 0.81494 0.0
C2308 C 0.95821 0.72016 0.80733 0.0
C2309 C 0.96416 0.76807 0.80398 0.0
C2310 C 0.96305 0.75078 0.8131 0.0
C2311 C 0.98218 0.70037 0.81643 0.0
C2312 C 0.97149 0.71601 0.82023 0.0
H2313 H 0.9951 0.79536 0.78642 0.0
H2314 H 0.99208 0.7704 0.80743 0.0
H2315 H 0.94552 0.74022 0.79194 0.0
H2316 H 0.97814 0.6625 0.79186 0.0
H2317 H 0.96077 0.68292 0.81047 0.0
C2318 C 0.98587 0.18912 0.49472 0.0
C2319 C 0.96959 0.18975 0.50351 0.0
C2320 C 1.00097 0.18946 0.50565 0.0
C2321 C 0.03238 0.18999 0.53032 0.0
H2322 H 0.02713 0.22578 0.56846 0.0
C2323 C 0.08478 0.23943 0.53681 0.0
C2324 C 0.07721 0.25552 0.53234 0.0
C2325 C 0.07463 0.22602 0.5442 0.0
C2326 C 0.0289 0.21553 0.55813 0.0
H2327 H 0.95639 0.18975 0.53065 0.0
H2328 H 0.98244 0.18917 0.54964 0.0
H2329 H 0.00197 0.20988 0.55799 0.0
H2330 H 0.05381 0.27099 0.53434 0.0
H2331 H 0.03609 0.24777 0.54668 0.0
H2332 H 0.05893 0.19749 0.52862 0.0
C2333 C 0.98372 0.18922 0.53434 0.0
C2334 C 0.01442 0.20622 0.55214 0.0
C2335 C 0.96869 0.18948 0.5234 0.0
C2336 C 0.05989 0.2586 0.53727 0.0
C2337 C 0.04979 0.24527 0.54468 0.0
C2338 C 0.04679 0.19963 0.53598 0.0
C2339 C 1.00009 0.18999 0.52564 0.0
C2340 C 0.01577 0.19444 0.53693 0.0
C2341 C 0.0568 0.22856 0.54725 0.0
C2342 C 0.04476 0.21362 0.5486 0.0
H2343 H 0.98696 0.18921 0.47939 0.0
H2344 H 0.01326 0.19035 0.49828 0.0
H2345 H 0.03404 0.18034 0.51931 0.0
H2346 H 0.09825 0.23682 0.53347 0.0
H2347 H 0.08044 0.21336 0.54629 0.0
C2348 C 0.45735 0.29766 0.29151 0.0
C2349 C 0.45062 0.29401 0.27342 0.0
C2350 C 0.45844 0.28466 0.30528 0.0
C2351 C 0.47431 0.25331 0.3235 0.0
H2352 H 0.4528 0.20931 0.31145 0.0
C2353 C 0.51309 0.20148 0.29505 0.0
C2354 C 0.50677 0.18466 0.29211 0.0
C2355 C 0.504 0.21307 0.30639 0.0
C2356 C 0.4588 0.22138 0.31576 0.0
H2357 H 0.43934 0.274 0.25573 0.0
H2358 H 0.44257 0.25113 0.2788 0.0
H2359 H 0.43705 0.2359 0.30585 0.0
H2360 H 0.4871 0.16603 0.30049 0.0
H2361 H 0.47104 0.18643 0.3204 0.0
H2362 H 0.49597 0.23874 0.33358 0.0
C2363 C 0.44621 0.26412 0.28303 0.0
C2364 C 0.44984 0.23675 0.31213 0.0
C2365 C 0.44466 0.27722 0.26951 0.0
C2366 C 0.49204 0.1791 0.30217 0.0
C2367 C 0.48289 0.19076 0.31363 0.0
C2368 C 0.48294 0.23793 0.3279 0.0
C2369 C 0.45342 0.26754 0.30104 0.0
C2370 C 0.45845 0.2528 0.3136 0.0
C2371 C 0.48831 0.20815 0.31513 0.0
C2372 C 0.47624 0.22199 0.32158 0.0
H2373 H 0.46192 0.31051 0.29505 0.0
H2374 H 0.46375 0.28799 0.31902 0.0
H2375 H 0.48124 0.26534 0.3257 0.0
H2376 H 0.52464 0.20605 0.28785 0.0
H2377 H 0.50866 0.22632 0.30688 0.0
C2378 C 0.53706 0.80855 0.03007 0.0
C2379 C 0.53478 0.81005 0.01036 0.0
C2380 C 0.52283 0.80904 0.04229 0.0
C2381 C 0.49154 0.79387 0.06135 0.0
H2382 H 0.44707 0.80728 0.04055 0.0
C2383 C 0.44423 0.74511 0.0427 0.0
C2384 C 0.42733 0.74927 0.03698 0.0
C2385 C 0.45447 0.75743 0.05173 0.0
C2386 C 0.45921 0.80375 0.04724 0.0
H2387 H 0.51589 0.81384 0.98801 0.0
H2388 H 0.49102 0.81327 0.0089 0.0
H2389 H 0.47269 0.82353 0.03201 0.0
H2390 H 0.40703 0.76871 0.03844 0.0
H2391 H 0.42503 0.7904 0.05429 0.0
H2392 H 0.47803 0.77407 0.07654 0.0
C2393 C 0.50377 0.81256 0.01527 0.0
C2394 C 0.47405 0.81291 0.04197 0.0
C2395 C 0.51805 0.81256 0.00313 0.0
C2396 C 0.4202 0.76532 0.04231 0.0
C2397 C 0.43049 0.77772 0.05143 0.0
C2398 C 0.47663 0.78512 0.06715 0.0
C2399 C 0.5059 0.81045 0.03503 0.0
C2400 C 0.49053 0.80672 0.04717 0.0
C2401 C 0.44807 0.77425 0.05524 0.0
C2402 C 0.46069 0.78857 0.05823 0.0
H2403 H 0.54981 0.80685 0.03612 0.0
H2404 H 0.52511 0.80773 0.05737 0.0
H2405 H 0.50389 0.78897 0.0663 0.0
H2406 H 0.44995 0.73268 0.0392 0.0
H2407 H 0.46792 0.75413 0.05425 0.0
C2408 C 0.95253 0.21313 0.71674 0.0
C2409 C 0.96751 0.20482 0.7236 0.0
C2410 C 0.95387 0.22697 0.70409 0.0
C2411 C 0.98645 0.25486 0.67876 0.0
H2412 H 0.96179 0.29105 0.7057 0.0
C2413 C 0.01948 0.30696 0.71702 0.0
C2414 C 0.0113 0.32255 0.72202 0.0
C2415 C 0.01149 0.29548 0.70458 0.0
C2416 C 0.96845 0.28132 0.69734 0.0
H2417 H 0.99549 0.2035 0.72149 0.0
H2418 H 0.99801 0.22833 0.70044 0.0
H2419 H 0.95101 0.26182 0.70677 0.0
H2420 H 0.98909 0.33913 0.71668 0.0
H2421 H 0.97475 0.31864 0.69529 0.0
H2422 H 0.00498 0.27437 0.67123 0.0
C2423 C 0.98514 0.22391 0.70425 0.0
C2424 C 0.96225 0.26437 0.69798 0.0
C2425 C 0.98376 0.20983 0.71662 0.0
C2426 C 0.99553 0.32702 0.71331 0.0
C2427 C 0.98741 0.31541 0.70094 0.0
C2428 C 0.99271 0.27185 0.67821 0.0
C2429 C 0.97024 0.23308 0.69842 0.0
C2430 C 0.97214 0.25074 0.69029 0.0
C2431 C 0.99505 0.29925 0.69699 0.0
C2432 C 0.98467 0.28481 0.68913 0.0
H2433 H 0.93975 0.20923 0.72151 0.0
H2434 H 0.94213 0.2335 0.6996 0.0
H2435 H 0.99395 0.24471 0.67201 0.0
H2436 H 0.03184 0.30334 0.72317 0.0
H2437 H 0.01765 0.28305 0.70213 0.0
C2438 C 0.44991 0.28481 0.45714 0.0
C2439 C 0.45288 0.29678 0.47175 0.0
C2440 C 0.46291 0.28117 0.44393 0.0
C2441 C 0.49507 0.26328 0.43119 0.0
H2442 H 0.53819 0.28828 0.43768 0.0
C2443 C 0.54845 0.23284 0.46914 0.0
C2444 C 0.5655 0.23913 0.46902 0.0
C2445 C 0.53612 0.23975 0.45694 0.0
C2446 C 0.52637 0.2811 0.43504 0.0
H2447 H 0.4712 0.31504 0.48357 0.0
H2448 H 0.49441 0.30752 0.46222 0.0
H2449 H 0.51116 0.30412 0.43691 0.0
H2450 H 0.58339 0.25671 0.45503 0.0
H2451 H 0.56166 0.26895 0.43357 0.0
H2452 H 0.51039 0.24035 0.4287 0.0
C2453 C 0.48196 0.30144 0.45987 0.0
C2454 C 0.51071 0.29019 0.43508 0.0
C2455 C 0.46871 0.3056 0.47251 0.0
C2456 C 0.57023 0.25184 0.45566 0.0
C2457 C 0.55782 0.25877 0.44331 0.0
C2458 C 0.51074 0.25433 0.43024 0.0
C2459 C 0.4795 0.28871 0.4457 0.0
C2460 C 0.49486 0.28109 0.43577 0.0
C2461 C 0.54049 0.25311 0.44415 0.0
C2462 C 0.5263 0.26286 0.43471 0.0
H2463 H 0.43759 0.27817 0.45597 0.0
H2464 H 0.46006 0.27188 0.43288 0.0
H2465 H 0.48335 0.25561 0.43069 0.0
H2466 H 0.54441 0.22292 0.47911 0.0
H2467 H 0.52289 0.23526 0.45847 0.0
C2468 C 0.55971 0.77384 0.24233 0.0
C2469 C 0.55535 0.79067 0.23653 0.0
C2470 C 0.55886 0.76007 0.22955 0.0
C2471 C 0.55768 0.73157 0.2014 0.0
H2472 H 0.5145 0.73395 0.17353 0.0
C2473 C 0.5142 0.6744 0.20553 0.0
C2474 C 0.49856 0.68013 0.21362 0.0
C2475 C 0.5246 0.68592 0.19523 0.0
C2476 C 0.52675 0.73303 0.181 0.0
H2477 H 0.54753 0.80642 0.21249 0.0
H2478 H 0.54695 0.78268 0.18998 0.0
H2479 H 0.52878 0.76046 0.18279 0.0
H2480 H 0.48043 0.70158 0.21526 0.0
H2481 H 0.4985 0.72165 0.1982 0.0
H2482 H 0.55414 0.7042 0.20218 0.0
C2483 C 0.55049 0.77991 0.20452 0.0
C2484 C 0.53512 0.74833 0.18622 0.0
C2485 C 0.55088 0.7936 0.21747 0.0
C2486 C 0.49264 0.69692 0.20961 0.0
C2487 C 0.50297 0.70838 0.19941 0.0
C2488 C 0.54895 0.71629 0.1968 0.0
C2489 C 0.55397 0.76285 0.21049 0.0
C2490 C 0.54973 0.74773 0.19818 0.0
C2491 C 0.51952 0.70334 0.19296 0.0
C2492 C 0.53241 0.71706 0.18841 0.0
H2493 H 0.56327 0.77117 0.25691 0.0
H2494 H 0.5612 0.74716 0.23501 0.0
H2495 H 0.56958 0.73063 0.2095 0.0
H2496 H 0.51889 0.66135 0.20804 0.0
H2497 H 0.5371 0.6815 0.19014 0.0
C2498 C 0.01961 0.69093 0.00313 0.0
C2499 C 0.03637 0.6936 0.99603 0.0
C2500 C 0.00539 0.69092 0.99089 0.0
C2501 C 0.97573 0.69148 0.96409 0.0
H2502 H 0.98092 0.73037 0.92976 0.0
C2503 C 0.92367 0.74099 0.96417 0.0
C2504 C 0.93148 0.75656 0.9701 0.0
C2505 C 0.93349 0.72835 0.95485 0.0
C2506 C 0.97917 0.71927 0.93902 0.0
H2507 H 0.05146 0.69707 0.97036 0.0
H2508 H 0.02701 0.69584 0.94896 0.0
H2509 H 0.00626 0.71459 0.93977 0.0
H2510 H 0.95488 0.7721 0.96882 0.0
H2511 H 0.97203 0.7502 0.95331 0.0
H2512 H 0.94895 0.69801 0.96559 0.0
C2513 C 0.02461 0.69453 0.96402 0.0
C2514 C 0.9938 0.71002 0.94474 0.0
C2515 C 0.03874 0.69514 0.97634 0.0
C2516 C 0.94864 0.76004 0.96483 0.0
C2517 C 0.9584 0.74749 0.95555 0.0
C2518 C 0.96119 0.70114 0.95889 0.0
C2519 C 0.00764 0.69313 0.97115 0.0
C2520 C 0.9924 0.6972 0.95892 0.0
C2521 C 0.95124 0.73111 0.95137 0.0
C2522 C 0.96319 0.71633 0.94801 0.0
H2523 H 0.01738 0.6896 0.01824 0.0
H2524 H 0.99261 0.69018 0.99719 0.0
H2525 H 0.97404 0.68088 0.97401 0.0
H2526 H 0.9103 0.73813 0.96771 0.0
H2527 H 0.9275 0.716 0.95155 0.0
C2528 C 0.10633 0.24994 0.45595 0.0
C2529 C 0.1158 0.26523 0.45246 0.0
C2530 C 0.10509 0.23695 0.44217 0.0
C2531 C 0.12313 0.22073 0.39629 0.0
H2532 H 0.07715 0.20084 0.39151 0.0
C2533 C 0.10011 0.17844 0.33187 0.0
C2534 C 0.08802 0.16516 0.33561 0.0
C2535 C 0.10574 0.18955 0.34645 0.0
C2536 C 0.09017 0.206 0.39278 0.0
H2537 H 0.13203 0.27841 0.43189 0.0
H2538 H 0.12967 0.25576 0.40765 0.0
H2539 H 0.08278 0.22215 0.41601 0.0
H2540 H 0.0735 0.15238 0.35796 0.0
H2541 H 0.08355 0.17133 0.38324 0.0
H2542 H 0.13032 0.20461 0.37268 0.0
C2543 C 0.12333 0.25377 0.42118 0.0
C2544 C 0.09342 0.2183 0.4069 0.0
C2545 C 0.12468 0.26679 0.43509 0.0
C2546 C 0.08265 0.16256 0.35447 0.0
C2547 C 0.08832 0.17356 0.36899 0.0
C2548 C 0.11985 0.20837 0.38205 0.0
C2549 C 0.11312 0.23887 0.42436 0.0
C2550 C 0.10996 0.22578 0.40901 0.0
C2551 C 0.09944 0.18761 0.3651 0.0
C2552 C 0.10332 0.20073 0.3802 0.0
H2553 H 0.09949 0.24815 0.46924 0.0
H2554 H 0.09752 0.22549 0.44541 0.0
H2555 H 0.13605 0.22612 0.39751 0.0
H2556 H 0.10447 0.18091 0.31751 0.0
H2557 H 0.11429 0.20022 0.34289 0.0
C2558 C 0.08095 0.84789 0.58408 0.0
C2559 C 0.09431 0.83577 0.5872 0.0
C2560 C 0.06967 0.85262 0.5989 0.0
C2561 C 0.05199 0.83369 0.64267 0.0
H2562 H 0.03406 0.87963 0.65327 0.0
C2563 C 0.0048 0.84446 0.70505 0.0
C2564 C 0.99114 0.85633 0.70254 0.0
C2565 C 0.01846 0.8436 0.69195 0.0
C2566 C 0.03876 0.86666 0.65039 0.0
H2567 H 0.10709 0.82027 0.60881 0.0
H2568 H 0.08764 0.82853 0.63438 0.0
H2569 H 0.05586 0.87574 0.62839 0.0
H2570 H 0.98145 0.8769 0.68438 0.0
H2571 H 0.00487 0.87505 0.66134 0.0
H2572 H 0.03466 0.82438 0.66399 0.0
C2573 C 0.08561 0.83413 0.62046 0.0
C2574 C 0.05132 0.86447 0.63613 0.0
C2575 C 0.09685 0.82949 0.60576 0.0
C2576 C 0.99178 0.86764 0.68686 0.0
C2577 C 0.00532 0.86663 0.67362 0.0
C2578 C 0.03934 0.83583 0.6567 0.0
C2579 C 0.07151 0.84526 0.6171 0.0
C2580 C 0.05816 0.84795 0.63219 0.0
C2581 C 0.01875 0.85439 0.67578 0.0
C2582 C 0.03255 0.85235 0.66089 0.0
H2583 H 0.07854 0.85293 0.56997 0.0
H2584 H 0.05894 0.86125 0.59585 0.0
H2585 H 0.05669 0.82072 0.63974 0.0
H2586 H 0.00485 0.83564 0.71702 0.0
H2587 H 0.02874 0.8343 0.69447 0.0
C2588 C 0.40039 0.8239 0.83049 0.0
C2589 C 0.41214 0.83731 0.83481 0.0
C2590 C 0.39454 0.8125 0.84472 0.0
C2591 C 0.3928 0.8063 0.89752 0.0
H2592 H 0.39348 0.75732 0.88506 0.0
C2593 C 0.39923 0.75285 0.9547 0.0
C2594 C 0.39039 0.73701 0.95231 0.0
C2595 C 0.39897 0.76558 0.9405 0.0
C2596 C 0.39294 0.77095 0.88877 0.0
H2597 H 0.42613 0.84974 0.85779 0.0
H2598 H 0.41606 0.83009 0.88233 0.0
H2599 H 0.39772 0.77882 0.86006 0.0
H2600 H 0.37393 0.72245 0.9331 0.0
H2601 H 0.37345 0.74472 0.90833 0.0
H2602 H 0.38847 0.79841 0.9263 0.0
C2603 C 0.41123 0.8283 0.86804 0.0
C2604 C 0.39535 0.78333 0.87438 0.0
C2605 C 0.4171 0.83959 0.85387 0.0
C2606 C 0.38089 0.73447 0.93548 0.0
C2607 C 0.38072 0.7472 0.92119 0.0
C2608 C 0.39043 0.79394 0.91189 0.0
C2609 C 0.4002 0.81431 0.86365 0.0
C2610 C 0.39565 0.80119 0.87859 0.0
C2611 C 0.38992 0.76287 0.92341 0.0
C2612 C 0.39079 0.77607 0.9078 0.0
H2613 H 0.39634 0.82168 0.81598 0.0
H2614 H 0.38586 0.80205 0.84082 0.0
H2615 H 0.39258 0.81992 0.90131 0.0
H2616 H 0.40671 0.75532 0.96742 0.0
H2617 H 0.40638 0.77735 0.9427 0.0
C2618 C 0.49246 0.15118 0.21011 0.0
C2619 C 0.50768 0.14157 0.20687 0.0
C2620 C 0.47944 0.15212 0.1963 0.0
C2621 C 0.46378 0.1329 0.15052 0.0
H2622 H 0.44311 0.17841 0.14443 0.0
C2623 C 0.42382 0.15495 0.08397 0.0
C2624 C 0.41005 0.1666 0.08708 0.0
C2625 C 0.43441 0.14953 0.09912 0.0
C2626 C 0.44852 0.16552 0.14606 0.0
H2627 H 0.52077 0.12493 0.18663 0.0
H2628 H 0.49823 0.12677 0.16245 0.0
H2629 H 0.46385 0.17349 0.16972 0.0
H2630 H 0.39579 0.1805 0.10882 0.0
H2631 H 0.41388 0.17086 0.13503 0.0
H2632 H 0.44859 0.12516 0.12638 0.0
C2633 C 0.4962 0.1334 0.17581 0.0
C2634 C 0.46045 0.16267 0.16066 0.0
C2635 C 0.50919 0.13235 0.18972 0.0
C2636 C 0.40639 0.17169 0.10583 0.0
C2637 C 0.41688 0.16626 0.12088 0.0
C2638 C 0.45183 0.13579 0.13579 0.0
C2639 C 0.4813 0.14364 0.17872 0.0
C2640 C 0.46825 0.14632 0.16321 0.0
C2641 C 0.43141 0.15564 0.11768 0.0
C2642 C 0.44398 0.15214 0.13341 0.0
H2643 H 0.49074 0.15834 0.2232 0.0
H2644 H 0.46799 0.15977 0.19933 0.0
H2645 H 0.46937 0.12009 0.15207 0.0
H2646 H 0.42708 0.15083 0.06972 0.0
H2647 H 0.44548 0.14135 0.0961 0.0
C2648 C 0.11824 0.73841 0.07121 0.0
C2649 C 0.10642 0.7372 0.05604 0.0
C2650 C 0.11716 0.75202 0.08436 0.0
C2651 C 0.08573 0.78509 0.10224 0.0
H2652 H 0.12599 0.80355 0.12834 0.0
C2653 C 0.07936 0.8436 0.15179 0.0
C2654 C 0.08638 0.84176 0.17013 0.0
C2655 C 0.08378 0.83208 0.13728 0.0
C2656 C 0.11463 0.79846 0.12122 0.0
H2657 H 0.0847 0.74996 0.04238 0.0
H2658 H 0.08321 0.77397 0.06475 0.0
H2659 H 0.12977 0.78147 0.10374 0.0
H2660 H 0.10457 0.82693 0.1871 0.0
H2661 H 0.1125 0.80684 0.16151 0.0
H2662 H 0.07064 0.80219 0.11952 0.0
C2663 C 0.09298 0.76409 0.06696 0.0
C2664 C 0.11676 0.78574 0.10713 0.0
C2665 C 0.09393 0.75036 0.05396 0.0
C2666 C 0.09895 0.82879 0.17316 0.0
C2667 C 0.10346 0.81724 0.15851 0.0
C2668 C 0.08365 0.79789 0.1161 0.0
C2669 C 0.10433 0.76495 0.08262 0.0
C2670 C 0.10232 0.77884 0.09741 0.0
C2671 C 0.09543 0.81839 0.14059 0.0
C2672 C 0.09804 0.80478 0.12578 0.0
H2673 H 0.12799 0.72848 0.07335 0.0
H2674 H 0.12603 0.75202 0.09626 0.0
H2675 H 0.07421 0.77987 0.09558 0.0
H2676 H 0.06978 0.85352 0.14881 0.0
H2677 H 0.07765 0.83358 0.12355 0.0
C2678 C 0.42984 0.85155 0.42032 0.0
C2679 C 0.41629 0.83973 0.41678 0.0
C2680 C 0.44117 0.8566 0.40564 0.0
C2681 C 0.45825 0.83889 0.36091 0.0
H2682 H 0.47722 0.88476 0.35208 0.0
C2683 C 0.50415 0.85081 0.29784 0.0
C2684 C 0.51837 0.86198 0.30047 0.0
C2685 C 0.49077 0.84998 0.31127 0.0
C2686 C 0.47221 0.87181 0.35446 0.0
H2687 H 0.40325 0.82514 0.39465 0.0
H2688 H 0.42273 0.834 0.36933 0.0
H2689 H 0.45562 0.88041 0.37715 0.0
H2690 H 0.52932 0.88144 0.31917 0.0
H2691 H 0.50628 0.87966 0.34282 0.0
H2692 H 0.47501 0.83003 0.33885 0.0
C2693 C 0.4249 0.83909 0.38345 0.0
C2694 C 0.45978 0.86935 0.36882 0.0
C2695 C 0.41363 0.8341 0.39801 0.0
C2696 C 0.51854 0.87274 0.3166 0.0
C2697 C 0.50524 0.87175 0.33019 0.0
C2698 C 0.47073 0.84129 0.34675 0.0
C2699 C 0.43918 0.84988 0.38717 0.0
C2700 C 0.45253 0.85286 0.37211 0.0
C2701 C 0.49131 0.86009 0.32792 0.0
C2702 C 0.47785 0.8578 0.34314 0.0
H2703 H 0.43234 0.85608 0.4346 0.0
H2704 H 0.45203 0.86496 0.40899 0.0
H2705 H 0.45327 0.82593 0.36331 0.0
H2706 H 0.50347 0.84245 0.28552 0.0
H2707 H 0.48008 0.84119 0.30864 0.0
C2708 C 0.39835 0.24565 0.54707 0.0
C2709 C 0.38882 0.2609 0.55045 0.0
C2710 C 0.39926 0.23251 0.56078 0.0
C2711 C 0.38014 0.21662 0.6066 0.0
H2712 H 0.42541 0.19531 0.61194 0.0
C2713 C 0.40228 0.17518 0.67221 0.0
C2714 C 0.41356 0.1612 0.6686 0.0
C2715 C 0.3969 0.18619 0.65739 0.0
C2716 C 0.41259 0.20091 0.61053 0.0
H2717 H 0.3722 0.27389 0.57081 0.0
H2718 H 0.37406 0.25117 0.59486 0.0
H2719 H 0.42057 0.21645 0.58701 0.0
H2720 H 0.42683 0.14707 0.64628 0.0
H2721 H 0.41728 0.16591 0.62067 0.0
H2722 H 0.37241 0.20121 0.63062 0.0
C2723 C 0.38065 0.24921 0.58147 0.0
C2724 C 0.40978 0.21307 0.59612 0.0
C2725 C 0.37961 0.26231 0.56764 0.0
C2726 C 0.41831 0.15781 0.64968 0.0
C2727 C 0.41294 0.16872 0.63496 0.0
C2728 C 0.383 0.20445 0.62116 0.0
C2729 C 0.39084 0.23429 0.57842 0.0
C2730 C 0.3935 0.22108 0.59382 0.0
C2731 C 0.40268 0.18343 0.63866 0.0
C2732 C 0.39926 0.19635 0.62324 0.0
H2733 H 0.40548 0.24399 0.53395 0.0
H2734 H 0.40685 0.22105 0.55763 0.0
H2735 H 0.36739 0.22237 0.60525 0.0
H2736 H 0.39843 0.17825 0.6866 0.0
H2737 H 0.389 0.19738 0.66078 0.0
C2738 C 0.99468 0.16802 0.80727 0.0
C2739 C 0.9878 0.15192 0.8017 0.0
C2740 C 0.00811 0.16894 0.82066 0.0
C2741 C 0.02948 0.14277 0.85884 0.0
H2742 H 0.06275 0.1804 0.85741 0.0
C2743 C 0.09451 0.1715 0.90072 0.0
C2744 C 0.08948 0.16862 0.91963 0.0
C2745 C 0.08353 0.16706 0.88567 0.0
C2746 C 0.0538 0.16959 0.85797 0.0
H2747 H 0.99035 0.12409 0.80521 0.0
H2748 H 0.01402 0.12562 0.82802 0.0
H2749 H 0.04176 0.17748 0.83204 0.0
H2750 H 0.06922 0.15805 0.93751 0.0
H2751 H 0.04982 0.15067 0.91138 0.0
H2752 H 0.04189 0.1346 0.88453 0.0
C2753 C 0.0087 0.13763 0.82257 0.0
C2754 C 0.04147 0.1681 0.84348 0.0
C2755 C 0.99515 0.13673 0.80934 0.0
C2756 C 0.07359 0.16024 0.9231 0.0
C2757 C 0.06243 0.15605 0.90803 0.0
C2758 C 0.04195 0.14416 0.87327 0.0
C2759 C 0.0152 0.15376 0.82871 0.0
C2760 C 0.02896 0.15479 0.84376 0.0
C2761 C 0.06699 0.15992 0.88909 0.0
C2762 C 0.05424 0.15768 0.87317 0.0
H2763 H 0.98926 0.18 0.80183 0.0
H2764 H 0.01249 0.18164 0.82512 0.0
H2765 H 0.02 0.13245 0.85979 0.0
H2766 H 0.10671 0.17786 0.89755 0.0
H2767 H 0.08784 0.16974 0.87135 0.0
C2768 C 0.90085 0.81717 0.7118 0.0
C2769 C 0.90805 0.83274 0.70515 0.0
C2770 C 0.88894 0.80806 0.70072 0.0
C2771 C 0.86466 0.80937 0.65447 0.0
H2772 H 0.87812 0.76094 0.65341 0.0
C2773 C 0.87116 0.76786 0.58774 0.0
C2774 C 0.86911 0.74982 0.58929 0.0
C2775 C 0.86807 0.77851 0.60341 0.0
C2776 C 0.87377 0.7743 0.65373 0.0
H2777 H 0.90773 0.85163 0.68235 0.0
H2778 H 0.88786 0.83529 0.66249 0.0
H2779 H 0.88751 0.77895 0.67933 0.0
H2780 H 0.86013 0.72897 0.60754 0.0
H2781 H 0.85469 0.74757 0.63482 0.0
H2782 H 0.85213 0.80471 0.62777 0.0
C2783 C 0.89084 0.83027 0.67647 0.0
C2784 C 0.87915 0.78472 0.66871 0.0
C2785 C 0.90242 0.83958 0.68776 0.0
C2786 C 0.86223 0.74281 0.6061 0.0
C2787 C 0.85904 0.75345 0.62168 0.0
C2788 C 0.85944 0.79894 0.63928 0.0
C2789 C 0.8844 0.81409 0.68254 0.0
C2790 C 0.87527 0.80254 0.66892 0.0
C2791 C 0.86279 0.77126 0.62079 0.0
C2792 C 0.86451 0.78145 0.63846 0.0
H2793 H 0.90471 0.81183 0.72538 0.0
H2794 H 0.88387 0.79591 0.70611 0.0
H2795 H 0.86108 0.82296 0.6544 0.0
H2796 H 0.87629 0.77363 0.57489 0.0
H2797 H 0.87116 0.79219 0.60232 0.0
C2798 C 0.90322 0.14506 0.43348 0.0
C2799 C 0.91394 0.15175 0.44786 0.0
C2800 C 0.91015 0.13436 0.41938 0.0
C2801 C 0.94951 0.10986 0.40485 0.0
H2802 H 0.9418 0.13208 0.35621 0.0
C2803 C 0.00273 0.11912 0.35047 0.0
C2804 C 0.99881 0.121 0.33113 0.0
C2805 C 0.98963 0.11578 0.36359 0.0
C2806 C 0.94381 0.12526 0.36947 0.0
H2807 H 0.9399 0.15123 0.45974 0.0
H2808 H 0.95196 0.13273 0.43517 0.0
H2809 H 0.92281 0.13872 0.38262 0.0
H2810 H 0.9783 0.11946 0.31013 0.0
H2811 H 0.95533 0.11352 0.33313 0.0
H2812 H 0.97113 0.09711 0.39189 0.0
C2813 C 0.93822 0.13568 0.43474 0.0
C2814 C 0.93289 0.12911 0.38467 0.0
C2815 C 0.93135 0.14646 0.44872 0.0
C2816 C 0.98168 0.11831 0.32499 0.0
C2817 C 0.96853 0.11492 0.33815 0.0
C2818 C 0.96038 0.10592 0.3896 0.0
C2819 C 0.92785 0.13003 0.41956 0.0
C2820 C 0.93619 0.12215 0.40273 0.0
C2821 C 0.97229 0.11417 0.35767 0.0
C2822 C 0.95822 0.11432 0.37204 0.0
H2823 H 0.8897 0.14878 0.43252 0.0
H2824 H 0.90185 0.13009 0.4079 0.0
H2825 H 0.95215 0.1041 0.41857 0.0
H2826 H 0.01583 0.12095 0.35565 0.0
H2827 H 0.99301 0.11554 0.3785 0.0
C2828 C 0.63332 0.23955 0.09942 0.0
C2829 C 0.634 0.25774 0.0985 0.0
C2830 C 0.6335 0.23115 0.117 0.0
C2831 C 0.61616 0.23953 0.16297 0.0
H2832 H 0.63603 0.195 0.17636 0.0
C2833 C 0.58517 0.19839 0.22165 0.0
C2834 C 0.58308 0.18084 0.21682 0.0
C2835 C 0.59653 0.20893 0.21128 0.0
C2836 C 0.63033 0.20744 0.17283 0.0
H2837 H 0.63739 0.28126 0.1151 0.0
H2838 H 0.63738 0.26657 0.14568 0.0
H2839 H 0.64778 0.2112 0.14945 0.0
H2840 H 0.59172 0.16044 0.19777 0.0
H2841 H 0.61068 0.17877 0.17937 0.0
H2842 H 0.59776 0.23531 0.18505 0.0
C2843 C 0.63657 0.25886 0.13286 0.0
C2844 C 0.63716 0.21672 0.15752 0.0
C2845 C 0.63652 0.26723 0.11533 0.0
C2846 C 0.59299 0.17392 0.2019 0.0
C2847 C 0.6041 0.18444 0.19143 0.0
C2848 C 0.60913 0.23014 0.17802 0.0
C2849 C 0.6343 0.24084 0.13387 0.0
C2850 C 0.62976 0.23258 0.15212 0.0
C2851 C 0.60582 0.20216 0.19575 0.0
C2852 C 0.61569 0.21366 0.18268 0.0
H2853 H 0.63153 0.23187 0.0867 0.0
H2854 H 0.63166 0.21721 0.11744 0.0
H2855 H 0.61008 0.25167 0.15896 0.0
H2856 H 0.57788 0.20403 0.23325 0.0
H2857 H 0.59774 0.22246 0.2152 0.0
C2858 C 0.57085 0.86308 0.96107 0.0
C2859 C 0.58381 0.85263 0.95312 0.0
C2860 C 0.56244 0.87556 0.95 0.0
C2861 C 0.53676 0.88876 0.92165 0.0
H2862 H 0.55332 0.89812 0.8708 0.0
C2863 C 0.49269 0.87917 0.85941 0.0
C2864 C 0.49632 0.88609 0.84145 0.0
C2865 C 0.50336 0.88284 0.87477 0.0
C2866 C 0.54839 0.89613 0.88501 0.0
H2867 H 0.59879 0.84734 0.92784 0.0
H2868 H 0.5833 0.86764 0.90809 0.0
H2869 H 0.57394 0.89243 0.89578 0.0
H2870 H 0.5133 0.90321 0.82564 0.0
H2871 H 0.53172 0.9103 0.85279 0.0
H2872 H 0.5113 0.89359 0.91115 0.0
C2873 C 0.57996 0.86723 0.92298 0.0
C2874 C 0.56029 0.89241 0.89937 0.0
C2875 C 0.58879 0.8553 0.93425 0.0
C2876 C 0.51038 0.8975 0.83933 0.0
C2877 C 0.52094 0.90152 0.85489 0.0
C2878 C 0.52494 0.89325 0.90751 0.0
C2879 C 0.56626 0.87724 0.9305 0.0
C2880 C 0.55454 0.88711 0.91746 0.0
C2881 C 0.51781 0.89389 0.87275 0.0
C2882 C 0.53047 0.89541 0.88864 0.0
H2883 H 0.56707 0.86143 0.97577 0.0
H2884 H 0.55251 0.88338 0.95666 0.0
H2885 H 0.53153 0.8852 0.93534 0.0
H2886 H 0.48197 0.87027 0.86149 0.0
H2887 H 0.50066 0.87622 0.88798 0.0
C2888 C 0.90384 0.167 0.82066 0.0
C2889 C 0.90456 0.17158 0.80146 0.0
C2890 C 0.89209 0.17511 0.83276 0.0
C2891 C 0.86624 0.19236 0.85776 0.0
H2892 H 0.85927 0.24085 0.84572 0.0
C2893 C 0.85705 0.24186 0.91763 0.0
C2894 C 0.86681 0.25708 0.91512 0.0
C2895 C 0.85387 0.23082 0.90223 0.0
C2896 C 0.86123 0.22735 0.84942 0.0
H2897 H 0.89268 0.1869 0.77928 0.0
H2898 H 0.87114 0.20019 0.80001 0.0
H2899 H 0.86892 0.22139 0.82129 0.0
H2900 H 0.8804 0.27299 0.89453 0.0
H2901 H 0.87588 0.25361 0.86831 0.0
H2902 H 0.86078 0.19893 0.8865 0.0
C2903 C 0.88028 0.19114 0.80616 0.0
C2904 C 0.86646 0.21596 0.83517 0.0
C2905 C 0.89253 0.18347 0.79418 0.0
C2906 C 0.87278 0.26137 0.89693 0.0
C2907 C 0.86994 0.25026 0.88173 0.0
C2908 C 0.86172 0.20392 0.87219 0.0
C2909 C 0.88033 0.18763 0.82582 0.0
C2910 C 0.87011 0.19848 0.83939 0.0
C2911 C 0.86068 0.23467 0.88415 0.0
C2912 C 0.86025 0.22178 0.86839 0.0
H2913 H 0.91305 0.15784 0.82656 0.0
H2914 H 0.89305 0.17215 0.84772 0.0
H2915 H 0.86786 0.17882 0.86144 0.0
H2916 H 0.85208 0.23837 0.93149 0.0
H2917 H 0.84642 0.21912 0.90464 0.0
C2918 C 0.56216 0.16437 0.54509 0.0
C2919 C 0.58038 0.16496 0.54496 0.0
C2920 C 0.55346 0.15295 0.55724 0.0
C2921 C 0.55949 0.1344 0.60357 0.0
H2922 H 0.51706 0.10929 0.59282 0.0
C2923 C 0.51661 0.11278 0.66488 0.0
C2924 C 0.49911 0.11725 0.66244 0.0
C2925 C 0.52775 0.11204 0.64924 0.0
C2926 C 0.5289 0.11624 0.59607 0.0
H2927 H 0.60373 0.15312 0.55649 0.0
H2928 H 0.5885 0.13349 0.57774 0.0
H2929 H 0.53423 0.1211 0.56665 0.0
H2930 H 0.47921 0.12302 0.64156 0.0
H2931 H 0.49855 0.12251 0.61465 0.0
H2932 H 0.55371 0.13091 0.63285 0.0
C2933 C 0.581 0.14192 0.56856 0.0
C2934 C 0.53872 0.12293 0.58108 0.0
C2935 C 0.58968 0.15321 0.55639 0.0
C2936 C 0.49268 0.11969 0.64398 0.0
C2937 C 0.5038 0.1192 0.62843 0.0
C2938 C 0.54957 0.12799 0.61853 0.0
C2939 C 0.56284 0.14202 0.56947 0.0
C2940 C 0.55383 0.13248 0.58476 0.0
C2941 C 0.52161 0.11601 0.63092 0.0
C2942 C 0.53383 0.11934 0.61501 0.0
H2943 H 0.55463 0.17316 0.53637 0.0
H2944 H 0.53942 0.15336 0.5578 0.0
H2945 H 0.57102 0.14187 0.60681 0.0
H2946 H 0.52187 0.11054 0.67892 0.0
H2947 H 0.54131 0.1091 0.65162 0.0
C2948 C 0.60545 0.81829 0.29191 0.0
C2949 C 0.59958 0.83471 0.29763 0.0
C2950 C 0.61658 0.80875 0.30354 0.0
C2951 C 0.64157 0.81055 0.34933 0.0
H2952 H 0.6259 0.76288 0.35294 0.0
C2953 C 0.63675 0.77036 0.41777 0.0
C2954 C 0.6389 0.7523 0.41651 0.0
C2955 C 0.63896 0.78076 0.40169 0.0
C2956 C 0.63079 0.77603 0.3519 0.0
H2957 H 0.60143 0.85447 0.3194 0.0
H2958 H 0.61996 0.83754 0.34016 0.0
H2959 H 0.61647 0.78053 0.32661 0.0
H2960 H 0.64703 0.73121 0.39814 0.0
H2961 H 0.6508 0.74936 0.37015 0.0
H2962 H 0.65474 0.80613 0.37572 0.0
C2963 C 0.61654 0.83213 0.3265 0.0
C2964 C 0.62541 0.78621 0.33669 0.0
C2965 C 0.60574 0.84181 0.31467 0.0
C2966 C 0.64491 0.74505 0.39944 0.0
C2967 C 0.64713 0.75543 0.38342 0.0
C2968 C 0.64675 0.80038 0.36477 0.0
C2969 C 0.62168 0.81525 0.32135 0.0
C2970 C 0.63025 0.80377 0.3355 0.0
C2971 C 0.64337 0.77323 0.38418 0.0
C2972 C 0.64098 0.78317 0.36643 0.0
H2973 H 0.60115 0.81267 0.27863 0.0
H2974 H 0.62066 0.79602 0.29885 0.0
H2975 H 0.64588 0.82391 0.34865 0.0
H2976 H 0.63226 0.77632 0.43079 0.0
H2977 H 0.63589 0.79445 0.40265 0.0
C2978 C 0.01446 0.88318 0.14346 0.0
C2979 C 0.00587 0.88747 0.1604 0.0
C2980 C 0.0059 0.88413 0.12615 0.0
C2981 C 0.96127 0.88127 0.10839 0.0
H2982 H 0.98541 0.88077 0.06006 0.0
C2983 C 0.92733 0.85689 0.04259 0.0
C2984 C 0.935 0.84133 0.03638 0.0
C2985 C 0.93656 0.86845 0.05385 0.0
C2986 C 0.9785 0.88109 0.07344 0.0
H2987 H 0.98213 0.89786 0.1723 0.0
H2988 H 0.96726 0.90026 0.14181 0.0
H2989 H 0.99988 0.89254 0.08811 0.0
H2990 H 0.95891 0.82656 0.03536 0.0
H2991 H 0.9752 0.84697 0.05528 0.0
H2992 H 0.93995 0.86981 0.09369 0.0
C2993 C 0.98044 0.89544 0.14202 0.0
C2994 C 0.98676 0.8877 0.08954 0.0
C2995 C 0.98896 0.89415 0.1595 0.0
C2996 C 0.95266 0.83839 0.04007 0.0
C2997 C 0.96197 0.85008 0.05136 0.0
C2998 C 0.95291 0.8751 0.09225 0.0
C2999 C 0.98857 0.88972 0.12522 0.0
C3000 C 0.97854 0.88708 0.10742 0.0
C3001 C 0.9537 0.86477 0.059 0.0
C3002 C 0.96169 0.87433 0.07484 0.0
H3003 H 0.02757 0.8781 0.1436 0.0
H3004 H 0.01262 0.87936 0.11372 0.0
H3005 H 0.95451 0.88028 0.12181 0.0
H3006 H 0.91385 0.85974 0.0396 0.0
H3007 H 0.93 0.87978 0.05947 0.0
C3008 C 0.59956 0.67637 0.83114 0.0
C3009 C 0.58682 0.66369 0.8346 0.0
C3010 C 0.60451 0.688 0.84553 0.0
C3011 C 0.59966 0.69685 0.89795 0.0
H3012 H 0.60582 0.74472 0.88245 0.0
C3013 C 0.59176 0.75564 0.94904 0.0
C3014 C 0.60427 0.7689 0.94779 0.0
C3015 C 0.59162 0.74195 0.9359 0.0
C3016 C 0.60429 0.73138 0.88701 0.0
H3017 H 0.57015 0.6527 0.85636 0.0
H3018 H 0.57836 0.67291 0.88091 0.0
H3019 H 0.60294 0.72218 0.85842 0.0
H3020 H 0.62655 0.77794 0.93172 0.0
H3021 H 0.62608 0.75429 0.90877 0.0
H3022 H 0.60027 0.70631 0.92658 0.0
C3023 C 0.58481 0.67392 0.86731 0.0
C3024 C 0.60275 0.71837 0.87321 0.0
C3025 C 0.57998 0.6623 0.85306 0.0
C3026 C 0.61672 0.76798 0.93319 0.0
C3027 C 0.61642 0.75446 0.91993 0.0
C3028 C 0.60094 0.70989 0.91173 0.0
C3029 C 0.59681 0.68726 0.86369 0.0
C3030 C 0.6002 0.70091 0.87844 0.0
C3031 C 0.60382 0.74133 0.92104 0.0
C3032 C 0.60311 0.72733 0.90643 0.0
H3033 H 0.6051 0.67785 0.81711 0.0
H3034 H 0.61408 0.69784 0.84224 0.0
H3035 H 0.59811 0.68356 0.90266 0.0
H3036 H 0.58198 0.7559 0.96006 0.0
H3037 H 0.58167 0.73208 0.93708 0.0
C3038 C 0.5025 0.35199 0.20758 0.0
C3039 C 0.4882 0.36301 0.20472 0.0
C3040 C 0.51591 0.35109 0.1942 0.0
C3041 C 0.53436 0.37258 0.15071 0.0
H3042 H 0.55359 0.32674 0.14243 0.0
C3043 C 0.5764 0.3521 0.08484 0.0
C3044 C 0.59005 0.34039 0.08834 0.0
C3045 C 0.56516 0.35715 0.09957 0.0
C3046 C 0.54854 0.3397 0.14468 0.0
H3047 H 0.47716 0.38214 0.18563 0.0
H3048 H 0.50025 0.38024 0.1621 0.0
H3049 H 0.53191 0.33095 0.16693 0.0
H3050 H 0.60334 0.32597 0.11046 0.0
H3051 H 0.584 0.33484 0.13589 0.0
H3052 H 0.5508 0.38106 0.12783 0.0
C3053 C 0.50133 0.3725 0.17487 0.0
C3054 C 0.53609 0.34215 0.15886 0.0
C3055 C 0.48799 0.37356 0.18839 0.0
C3056 C 0.59288 0.33485 0.10713 0.0
C3057 C 0.58169 0.33984 0.12174 0.0
C3058 C 0.54676 0.37006 0.13633 0.0
C3059 C 0.51534 0.36099 0.17738 0.0
C3060 C 0.52884 0.35864 0.16222 0.0
C3061 C 0.56733 0.35055 0.11807 0.0
C3062 C 0.55409 0.35359 0.13323 0.0
H3063 H 0.50321 0.34379 0.22005 0.0
H3064 H 0.52666 0.34241 0.197 0.0
H3065 H 0.52927 0.38551 0.15291 0.0
H3066 H 0.57377 0.35656 0.07055 0.0
H3067 H 0.55423 0.36544 0.09626 0.0
C3068 C 0.88095 0.24097 0.44327 0.0
C3069 C 0.89636 0.23523 0.45198 0.0
C3070 C 0.88117 0.25482 0.43027 0.0
C3071 C 0.90942 0.29114 0.41245 0.0
H3072 H 0.87892 0.28946 0.36881 0.0
C3073 C 0.91312 0.34494 0.35599 0.0
C3074 C 0.91164 0.34001 0.33686 0.0
C3075 C 0.90838 0.33353 0.37057 0.0
C3076 C 0.88765 0.29013 0.38081 0.0
H3077 H 0.92408 0.23979 0.45378 0.0
H3078 H 0.92455 0.26336 0.43099 0.0
H3079 H 0.87702 0.26696 0.39298 0.0
H3080 H 0.90334 0.31942 0.31807 0.0
H3081 H 0.8956 0.29926 0.34341 0.0
H3082 H 0.9208 0.3136 0.39987 0.0
C3083 C 0.91215 0.25758 0.43446 0.0
C3084 C 0.88638 0.27729 0.39491 0.0
C3085 C 0.9119 0.24391 0.44756 0.0
C3086 C 0.90442 0.32371 0.33266 0.0
C3087 C 0.89999 0.31211 0.34728 0.0
C3088 C 0.91084 0.30381 0.39829 0.0
C3089 C 0.89682 0.26322 0.42547 0.0
C3090 C 0.89738 0.27748 0.41089 0.0
C3091 C 0.90244 0.31663 0.36651 0.0
C3092 C 0.90006 0.30351 0.38213 0.0
H3093 H 0.86872 0.23465 0.44632 0.0
H3094 H 0.86903 0.25889 0.42398 0.0
H3095 H 0.91794 0.29205 0.42462 0.0
H3096 H 0.91858 0.35744 0.35971 0.0
H3097 H 0.90992 0.33784 0.38508 0.0
C3098 C 0.017 0.63169 0.68895 0.0
C3099 C 0.01386 0.64049 0.70611 0.0
C3100 C 0.00445 0.63145 0.67449 0.0
C3101 C 0.95751 0.6403 0.6647 0.0
H3102 H 0.97344 0.64899 0.61341 0.0
C3103 C 0.91301 0.66814 0.60617 0.0
C3104 C 0.91556 0.66321 0.58714 0.0
C3105 C 0.92399 0.66208 0.62053 0.0
C3106 C 0.96873 0.64625 0.62757 0.0
H3107 H 0.99465 0.65539 0.72164 0.0
H3108 H 0.97301 0.65505 0.69661 0.0
H3109 H 0.99454 0.64448 0.6387 0.0
H3110 H 0.93134 0.64731 0.56855 0.0
H3111 H 0.95047 0.6366 0.59369 0.0
H3112 H 0.93171 0.64251 0.65365 0.0
C3113 C 0.98508 0.64818 0.69428 0.0
C3114 C 0.98087 0.64366 0.64213 0.0
C3115 C 0.9976 0.64846 0.70867 0.0
C3116 C 0.92891 0.65134 0.58303 0.0
C3117 C 0.94002 0.64535 0.59743 0.0
C3118 C 0.94538 0.64291 0.65016 0.0
C3119 C 0.98839 0.63993 0.67684 0.0
C3120 C 0.97545 0.64097 0.66099 0.0
C3121 C 0.93795 0.65095 0.61633 0.0
C3122 C 0.95081 0.64625 0.63143 0.0
H3123 H 0.02935 0.62539 0.68644 0.0
H3124 H 0.00741 0.62475 0.66139 0.0
H3125 H 0.95279 0.63792 0.67894 0.0
H3126 H 0.90289 0.67726 0.60992 0.0
H3127 H 0.92202 0.66683 0.63483 0.0
C3128 C 0.58383 0.345 0.65066 0.0
C3129 C 0.5891 0.34154 0.6694 0.0
C3130 C 0.58934 0.33452 0.63565 0.0
C3131 C 0.62036 0.30029 0.62053 0.0
H3132 H 0.58226 0.28655 0.58794 0.0
C3133 C 0.62458 0.24253 0.5672 0.0
C3134 C 0.61463 0.24335 0.55048 0.0
C3135 C 0.62346 0.25567 0.58093 0.0
C3136 C 0.59319 0.29044 0.59659 0.0
H3137 H 0.60532 0.32492 0.68677 0.0
H3138 H 0.61502 0.30656 0.66043 0.0
H3139 H 0.57729 0.30745 0.61304 0.0
H3140 H 0.59655 0.25927 0.53462 0.0
H3141 H 0.59505 0.28236 0.55809 0.0
H3142 H 0.63626 0.28315 0.60398 0.0
C3143 C 0.60658 0.31746 0.65741 0.0
C3144 C 0.5903 0.30245 0.6111 0.0
C3145 C 0.60105 0.32802 0.67252 0.0
C3146 C 0.60426 0.25809 0.5474 0.0
C3147 C 0.60329 0.2713 0.56099 0.0
C3148 C 0.6233 0.2883 0.60585 0.0
C3149 C 0.60027 0.32022 0.6389 0.0
C3150 C 0.60382 0.30759 0.62327 0.0
C3151 C 0.61247 0.27007 0.57823 0.0
C3152 C 0.60973 0.2832 0.59364 0.0
H3153 H 0.57479 0.3554 0.64764 0.0
H3154 H 0.58456 0.3373 0.62152 0.0
H3155 H 0.63108 0.304 0.62958 0.0
H3156 H 0.63261 0.23134 0.57015 0.0
H3157 H 0.63065 0.25413 0.59401 0.0
C3158 C 0.90949 0.33769 0.90077 0.0
C3159 C 0.91223 0.34297 0.91964 0.0
C3160 C 0.92035 0.34344 0.88616 0.0
C3161 C 0.95457 0.37523 0.87247 0.0
H3162 H 0.96869 0.33805 0.83882 0.0
C3163 C 0.01221 0.38077 0.81849 0.0
C3164 C 0.01096 0.37126 0.80149 0.0
C3165 C 0.99924 0.37944 0.83247 0.0
C3166 C 0.96471 0.34873 0.84781 0.0
H3167 H 0.92807 0.35935 0.93766 0.0
H3168 H 0.94713 0.3694 0.91205 0.0
H3169 H 0.94778 0.33228 0.86371 0.0
H3170 H 0.99444 0.35392 0.78537 0.0
H3171 H 0.97177 0.35208 0.80923 0.0
H3172 H 0.97172 0.39165 0.85646 0.0
C3173 C 0.93647 0.36081 0.9086 0.0
C3174 C 0.95268 0.34538 0.86219 0.0
C3175 C 0.92551 0.35507 0.92329 0.0
C3176 C 0.99596 0.36128 0.79836 0.0
C3177 C 0.98299 0.36009 0.81218 0.0
C3178 C 0.96664 0.37862 0.85794 0.0
C3179 C 0.93437 0.35459 0.88994 0.0
C3180 C 0.94731 0.35857 0.87467 0.0
C3181 C 0.98468 0.36866 0.82972 0.0
C3182 C 0.9718 0.36542 0.84531 0.0
H3183 H 0.8993 0.32854 0.89733 0.0
H3184 H 0.91802 0.33872 0.87192 0.0
H3185 H 0.95071 0.38572 0.88178 0.0
H3186 H 0.02362 0.38851 0.82142 0.0
H3187 H 1.00107 0.38622 0.84577 0.0
C3188 C 0.90325 0.75082 0.04989 0.0
C3189 C 0.89398 0.76627 0.05309 0.0
C3190 C 0.90389 0.7378 0.0637 0.0
C3191 C 0.88413 0.72181 0.10885 0.0
H3192 H 0.92938 0.70063 0.11506 0.0
C3193 C 0.90427 0.67857 0.17375 0.0
C3194 C 0.91605 0.66496 0.17028 0.0
C3195 C 0.89931 0.6899 0.15907 0.0
C3196 C 0.91655 0.70616 0.11339 0.0
H3197 H 0.87748 0.77973 0.07318 0.0
H3198 H 0.87881 0.75702 0.09747 0.0
H3199 H 0.92505 0.72225 0.09053 0.0
H3200 H 0.93068 0.65184 0.14826 0.0
H3201 H 0.92178 0.67119 0.12281 0.0
H3202 H 0.87582 0.70575 0.13211 0.0
C3203 C 0.88547 0.75494 0.08414 0.0
C3204 C 0.91405 0.71863 0.09924 0.0
C3205 C 0.88473 0.768 0.07021 0.0
C3206 C 0.92175 0.66227 0.15155 0.0
C3207 C 0.91675 0.67349 0.13693 0.0
C3208 C 0.88666 0.70928 0.12312 0.0
C3209 C 0.89542 0.73982 0.08124 0.0
C3210 C 0.89779 0.72658 0.09662 0.0
C3211 C 0.90598 0.68785 0.14059 0.0
C3212 C 0.9029 0.70118 0.12548 0.0
H3213 H 0.91036 0.7489 0.0368 0.0
H3214 H 0.9113 0.72618 0.06067 0.0
H3215 H 0.8714 0.72756 0.10723 0.0
H3216 H 0.89969 0.6811 0.188 0.0
H3217 H 0.891 0.7008 0.16244 0.0
C3218 C 0.58161 0.65375 0.42024 0.0
C3219 C 0.5949 0.66597 0.41715 0.0
C3220 C 0.5708 0.64845 0.40525 0.0
C3221 C 0.55505 0.66507 0.35907 0.0
H3222 H 0.53556 0.61909 0.35261 0.0
C3223 C 0.51086 0.65004 0.29539 0.0
C3224 C 0.49596 0.63994 0.29868 0.0
C3225 C 0.52393 0.65132 0.30911 0.0
C3226 C 0.54076 0.63205 0.3543 0.0
H3227 H 0.60802 0.6811 0.39551 0.0
H3228 H 0.58957 0.67165 0.36954 0.0
H3229 H 0.55668 0.62438 0.37789 0.0
H3230 H 0.48352 0.62279 0.31894 0.0
H3231 H 0.50618 0.62518 0.34295 0.0
H3232 H 0.53902 0.67294 0.33589 0.0
C3233 C 0.58711 0.66651 0.38359 0.0
C3234 C 0.55291 0.63507 0.3688 0.0
C3235 C 0.59782 0.67183 0.3985 0.0
C3236 C 0.49483 0.6306 0.31582 0.0
C3237 C 0.50789 0.63196 0.32962 0.0
C3238 C 0.54293 0.66209 0.34468 0.0
C3239 C 0.57307 0.65523 0.38683 0.0
C3240 C 0.56028 0.65163 0.37133 0.0
C3241 C 0.52246 0.64265 0.32664 0.0
C3242 C 0.53562 0.64553 0.34198 0.0
H3243 H 0.57891 0.64903 0.43441 0.0
H3244 H 0.56012 0.63976 0.40831 0.0
H3245 H 0.56006 0.67811 0.36084 0.0
H3246 H 0.5123 0.65731 0.28231 0.0
H3247 H 0.53512 0.65934 0.30604 0.0
C3248 C 0.40167 0.31846 0.21381 0.0
C3249 C 0.40725 0.3349 0.20779 0.0
C3250 C 0.39039 0.30872 0.20256 0.0
C3251 C 0.36408 0.31024 0.15768 0.0
H3252 H 0.38025 0.26279 0.15333 0.0
C3253 C 0.36833 0.27101 0.0888 0.0
C3254 C 0.36653 0.2529 0.0898 0.0
C3255 C 0.36616 0.28112 0.10507 0.0
C3256 C 0.37521 0.27587 0.1546 0.0
H3257 H 0.40473 0.35448 0.18585 0.0
H3258 H 0.3859 0.33725 0.16578 0.0
H3259 H 0.39008 0.28041 0.17951 0.0
H3260 H 0.35904 0.23139 0.10796 0.0
H3261 H 0.35536 0.24906 0.13631 0.0
H3262 H 0.35034 0.30582 0.13164 0.0
C3263 C 0.38969 0.33195 0.17939 0.0
C3264 C 0.38083 0.28602 0.16971 0.0
C3265 C 0.40068 0.3418 0.19082 0.0
C3266 C 0.36088 0.24529 0.10685 0.0
C3267 C 0.35872 0.25538 0.12307 0.0
C3268 C 0.35865 0.3001 0.14234 0.0
C3269 C 0.38477 0.31509 0.18486 0.0
C3270 C 0.37585 0.30353 0.1711 0.0
C3271 C 0.36214 0.27326 0.12253 0.0
C3272 C 0.36463 0.28299 0.14038 0.0
H3273 H 0.40626 0.31299 0.22705 0.0
H3274 H 0.38652 0.29598 0.20746 0.0
H3275 H 0.35965 0.32355 0.15854 0.0
H3276 H 0.37252 0.27725 0.0758 0.0
H3277 H 0.36897 0.29488 0.10428 0.0
C3278 C 0.49103 0.61045 0.85045 0.0
C3279 C 0.50752 0.61793 0.84846 0.0
C3280 C 0.48302 0.60986 0.86826 0.0
C3281 C 0.49022 0.6211 0.91984 0.0
H3282 H 0.44204 0.63503 0.91639 0.0
C3283 C 0.45266 0.66945 0.96784 0.0
C3284 C 0.43549 0.66489 0.97219 0.0
C3285 C 0.46292 0.65823 0.95694 0.0
C3286 C 0.45542 0.63087 0.91763 0.0
H3287 H 0.52903 0.62962 0.86376 0.0
H3288 H 0.51488 0.62954 0.89414 0.0
H3289 H 0.45669 0.62445 0.88835 0.0
H3290 H 0.41631 0.64428 0.97075 0.0
H3291 H 0.43407 0.62501 0.95158 0.0
H3292 H 0.48903 0.62924 0.94898 0.0
C3293 C 0.50815 0.62359 0.88235 0.0
C3294 C 0.46384 0.62463 0.90156 0.0
C3295 C 0.51624 0.62384 0.86473 0.0
C3296 C 0.42938 0.64831 0.96721 0.0
C3297 C 0.43954 0.63721 0.95635 0.0
C3298 C 0.48186 0.62779 0.93586 0.0
C3299 C 0.49121 0.6171 0.8843 0.0
C3300 C 0.48151 0.62017 0.90226 0.0
C3301 C 0.45605 0.64242 0.95039 0.0
C3302 C 0.46452 0.63307 0.9347 0.0
H3303 H 0.48413 0.60552 0.8382 0.0
H3304 H 0.47015 0.60431 0.86928 0.0
H3305 H 0.50369 0.61734 0.9211 0.0
H3306 H 0.45769 0.68212 0.97159 0.0
H3307 H 0.47564 0.66251 0.95238 0.0
C3308 C 0.07434 0.70515 0.71827 0.0
C3309 C 0.0815 0.69042 0.72691 0.0
C3310 C 0.08467 0.71561 0.7066 0.0
C3311 C 0.12152 0.70862 0.6753 0.0
H3312 H 0.11459 0.75708 0.66273 0.0
C3313 C 0.12611 0.73604 0.60002 0.0
C3314 C 0.13186 0.75316 0.59746 0.0
C3315 C 0.12515 0.72892 0.61821 0.0
C3316 C 0.11697 0.7436 0.66626 0.0
H3317 H 0.10522 0.67615 0.73225 0.0
H3318 H 0.12333 0.69469 0.71246 0.0
H3319 H 0.10296 0.74563 0.69243 0.0
H3320 H 0.14277 0.77565 0.61172 0.0
H3321 H 0.14104 0.76318 0.64343 0.0
H3322 H 0.13497 0.70644 0.64885 0.0
C3323 C 0.10973 0.69791 0.7141 0.0
C3324 C 0.11016 0.73703 0.68317 0.0
C3325 C 0.0994 0.68738 0.7255 0.0
C3326 C 0.13804 0.76248 0.61324 0.0
C3327 C 0.137 0.7554 0.63142 0.0
C3328 C 0.12826 0.71517 0.6584 0.0
C3329 C 0.10228 0.7115 0.70364 0.0
C3330 C 0.11195 0.71936 0.68761 0.0
C3331 C 0.12992 0.73881 0.63414 0.0
C3332 C 0.1256 0.73259 0.65344 0.0
H3333 H 0.06053 0.70766 0.71911 0.0
H3334 H 0.07852 0.72598 0.69869 0.0
H3335 H 0.12296 0.69488 0.67815 0.0
H3336 H 0.12134 0.7285 0.58815 0.0
H3337 H 0.11956 0.71611 0.61988 0.0
C3338 C 0.08438 0.35459 0.45674 0.0
C3339 C 0.07641 0.34057 0.46612 0.0
C3340 C 0.0747 0.3657 0.44532 0.0
C3341 C 0.03104 0.37962 0.43113 0.0
H3342 H 0.04957 0.37662 0.38009 0.0
C3343 C 0.98811 0.38158 0.3656 0.0
C3344 C 0.99509 0.38578 0.34776 0.0
C3345 C 0.99837 0.38225 0.38182 0.0
C3346 C 0.04435 0.37817 0.39424 0.0
H3347 H 0.05179 0.32814 0.47222 0.0
H3348 H 0.03479 0.34765 0.45206 0.0
H3349 H 0.06676 0.36642 0.40654 0.0
H3350 H 0.01778 0.39567 0.33318 0.0
H3351 H 0.03564 0.39749 0.36172 0.0
H3352 H 0.0085 0.39121 0.4188 0.0
C3353 C 0.04857 0.34996 0.45363 0.0
C3354 C 0.05422 0.37218 0.40944 0.0
C3355 C 0.05831 0.33874 0.46506 0.0
C3356 C 0.01215 0.39205 0.3467 0.0
C3357 C 0.02238 0.39301 0.36305 0.0
C3358 C 0.02125 0.38594 0.41593 0.0
C3359 C 0.05683 0.3631 0.44313 0.0
C3360 C 0.04741 0.37229 0.4279 0.0
C3361 C 0.01582 0.38742 0.38069 0.0
C3362 C 0.0275 0.38461 0.39719 0.0
H3363 H 0.09827 0.3566 0.45753 0.0
H3364 H 0.08131 0.37586 0.43752 0.0
H3365 H 0.02563 0.38 0.44531 0.0
H3366 H 0.97495 0.37679 0.36696 0.0
H3367 H 0.99283 0.37762 0.395 0.0
C3368 C 0.40528 0.66926 0.29545 0.0
C3369 C 0.4194 0.67725 0.28626 0.0
C3370 C 0.39431 0.67884 0.30709 0.0
C3371 C 0.38076 0.72222 0.32249 0.0
H3372 H 0.3838 0.70246 0.37301 0.0
C3373 C 0.37755 0.76353 0.38936 0.0
C3374 C 0.37331 0.756 0.40692 0.0
C3375 C 0.3773 0.75366 0.37283 0.0
C3376 C 0.38225 0.70802 0.359 0.0
H3377 H 0.4321 0.70185 0.28071 0.0
H3378 H 0.41279 0.71869 0.30129 0.0
H3379 H 0.3941 0.68596 0.34609 0.0
H3380 H 0.36381 0.73272 0.42069 0.0
H3381 H 0.36267 0.71556 0.39161 0.0
H3382 H 0.369 0.74438 0.33543 0.0
C3383 C 0.41032 0.70496 0.29938 0.0
C3384 C 0.3883 0.69855 0.34355 0.0
C3385 C 0.42141 0.69532 0.2877 0.0
C3386 C 0.36744 0.73877 0.40739 0.0
C3387 C 0.36688 0.72894 0.39073 0.0
C3388 C 0.37437 0.7316 0.33796 0.0
C3389 C 0.39713 0.69662 0.30974 0.0
C3390 C 0.38813 0.70578 0.32527 0.0
C3391 C 0.37251 0.73607 0.37336 0.0
C3392 C 0.37566 0.72488 0.35652 0.0
H3393 H 0.40313 0.6554 0.29434 0.0
H3394 H 0.38409 0.67218 0.31476 0.0
H3395 H 0.38035 0.72795 0.30846 0.0
H3396 H 0.38205 0.77682 0.38845 0.0
H3397 H 0.38194 0.75964 0.35989 0.0
C3398 C 0.99828 0.61833 0.15332 0.0
C3399 C 0.00307 0.61885 0.17253 0.0
C3400 C 0.01064 0.61513 0.13935 0.0
C3401 C 0.05678 0.62249 0.13219 0.0
H3402 H 0.04522 0.60657 0.08156 0.0
C3403 C 0.09689 0.64471 0.06893 0.0
C3404 C 0.08646 0.65359 0.05573 0.0
C3405 C 0.08943 0.63337 0.08205 0.0
C3406 C 0.04874 0.61085 0.09568 0.0
H3407 H 0.02423 0.61483 0.19232 0.0
H3408 H 0.04587 0.60898 0.16783 0.0
H3409 H 0.02684 0.59831 0.10832 0.0
H3410 H 0.06027 0.65634 0.04486 0.0
H3411 H 0.04726 0.63671 0.06788 0.0
H3412 H 0.07819 0.63566 0.11949 0.0
C3413 C 0.0326 0.61146 0.16357 0.0
C3414 C 0.03821 0.60619 0.11099 0.0
C3415 C 0.02022 0.61479 0.1776 0.0
C3416 C 0.06863 0.64988 0.05499 0.0
C3417 C 0.0612 0.63847 0.06805 0.0
C3418 C 0.06739 0.62698 0.11694 0.0
C3419 C 0.02808 0.61223 0.14425 0.0
C3420 C 0.04159 0.61277 0.12924 0.0
C3421 C 0.07144 0.6306 0.08214 0.0
C3422 C 0.06296 0.62195 0.09842 0.0
H3423 H 0.98513 0.62123 0.14893 0.0
H3424 H 0.00665 0.61608 0.12465 0.0
H3425 H 0.05976 0.62794 0.14597 0.0
H3426 H 0.11071 0.64711 0.06974 0.0
H3427 H 0.09763 0.62736 0.09267 0.0
C3428 C 0.08855 0.3171 0.79709 0.0
C3429 C 0.08817 0.33533 0.79666 0.0
C3430 C 0.09975 0.30843 0.80948 0.0
C3431 C 0.11772 0.31471 0.85594 0.0
H3432 H 0.14277 0.27209 0.84597 0.0
C3433 C 0.13773 0.27171 0.91789 0.0
C3434 C 0.13319 0.25423 0.91532 0.0
C3435 C 0.13885 0.28287 0.90227 0.0
C3436 C 0.13583 0.28398 0.849 0.0
H3437 H 0.10013 0.35871 0.80798 0.0
H3438 H 0.11935 0.34353 0.8297 0.0
H3439 H 0.13153 0.28919 0.81946 0.0
H3440 H 0.12765 0.2344 0.89428 0.0
H3441 H 0.12882 0.25378 0.86744 0.0
H3442 H 0.12062 0.30904 0.88532 0.0
C3443 C 0.11096 0.33601 0.82052 0.0
C3444 C 0.12948 0.29376 0.83382 0.0
C3445 C 0.09989 0.34466 0.80809 0.0
C3446 C 0.13101 0.24786 0.8968 0.0
C3447 C 0.1319 0.25899 0.88129 0.0
C3448 C 0.12379 0.30482 0.87109 0.0
C3449 C 0.11066 0.31786 0.82169 0.0
C3450 C 0.11993 0.30894 0.83722 0.0
C3451 C 0.13522 0.27677 0.88386 0.0
C3452 C 0.13238 0.28901 0.86785 0.0
H3453 H 0.07979 0.30955 0.78837 0.0
H3454 H 0.0992 0.2944 0.81026 0.0
H3455 H 0.11025 0.32631 0.85894 0.0
H3456 H 0.13977 0.27693 0.93198 0.0
H3457 H 0.14185 0.29641 0.90473 0.0
C3458 C 0.41678 0.35421 0.55232 0.0
C3459 C 0.42372 0.33857 0.54543 0.0
C3460 C 0.4266 0.36494 0.56408 0.0
C3461 C 0.4709 0.37107 0.58446 0.0
H3462 H 0.44508 0.38552 0.62895 0.0
C3463 C 0.48396 0.37509 0.66814 0.0
C3464 C 0.5011 0.38117 0.6678 0.0
C3465 C 0.47363 0.37628 0.65195 0.0
C3466 C 0.45249 0.38165 0.6166 0.0
H3467 H 0.44667 0.32237 0.5445 0.0
H3468 H 0.46361 0.34067 0.56562 0.0
H3469 H 0.4296 0.37475 0.60141 0.0
H3470 H 0.52029 0.395 0.65111 0.0
H3471 H 0.50206 0.39755 0.62299 0.0
H3472 H 0.49383 0.37648 0.60027 0.0
C3473 C 0.45073 0.34494 0.56164 0.0
C3474 C 0.4436 0.37568 0.60066 0.0
C3475 C 0.44099 0.33433 0.54964 0.0
C3476 C 0.50719 0.38991 0.65162 0.0
C3477 C 0.49678 0.39131 0.6355 0.0
C3478 C 0.47979 0.37683 0.60049 0.0
C3479 C 0.44347 0.36012 0.56944 0.0
C3480 C 0.45273 0.36967 0.58467 0.0
C3481 C 0.48017 0.38379 0.63519 0.0
C3482 C 0.4707 0.38152 0.61702 0.0
H3483 H 0.40358 0.35797 0.54901 0.0
H3484 H 0.42075 0.37673 0.56946 0.0
H3485 H 0.47831 0.36693 0.57222 0.0
H3486 H 0.47891 0.36833 0.68044 0.0
H3487 H 0.46097 0.3702 0.65224 0.0
loop_
_geom_bond_atom_site_label_1
_geom_bond_atom_site_label_2
_geom_bond_distance
_geom_bond_site_symmetry_2
_ccdc_geom_bond_type
Co0 O3 1.970 . S
Co0 N17 1.989 . S
Co0 O25 1.967 . S
Co0 O32 1.920 . S
Co1 O4 1.966 . S
Co1 N10 2.022 . S
Co1 N18 1.993 . S
Co1 O26 1.941 . S
C2 O3 1.258 . S
C2 O4 1.263 . S
O3 Co0 1.970 . S
O3 C2 1.258 . S
O4 Co1 1.966 . S
O4 C2 1.263 . S
C5 O6 1.235 . S
C5 O32 1.289 . S
O6 C5 1.235 . S
C7 C9 1.400 . S
C7 N10 1.351 . S
C7 C12 1.501 . S
C8 C9 1.387 . S
C8 N11 1.341 . S
C9 C7 1.400 . S
C9 C8 1.387 . S
N10 Co1 2.022 . S
N10 C7 1.351 . S
N10 N11 1.365 . S
N11 C8 1.341 . S
N11 N10 1.365 . S
N11 H31 0.862 . S
C12 C7 1.501 . S
C12 H13 0.961 . S
C12 H14 0.961 . S
C12 H15 0.960 . S
H13 C12 0.961 . S
H14 C12 0.961 . S
H15 C12 0.960 . S
C16 N17 1.342 . S
C16 C20 1.401 . S
C16 C21 1.499 . S
N17 Co0 1.989 . S
N17 C16 1.342 . S
N17 N18 1.388 . S
N18 Co1 1.993 . S
N18 N17 1.388 . S
N18 C19 1.346 . S
C19 N18 1.346 . S
C19 C20 1.396 . S
C19 C29 1.510 . S
C20 C16 1.401 . S
C20 C19 1.396 . S
C21 C16 1.499 . S
C21 H22 0.959 . S
C21 H23 0.960 . S
C21 H24 0.961 . S
H22 C21 0.959 . S
H23 C21 0.960 . S
H24 C21 0.961 . S
O25 Co0 1.967 . S
O25 C33 1.258 . S
O26 Co1 1.941 . S
O26 C33 1.266 . S
H27 C29 0.959 . S
H28 C29 0.961 . S
C29 C19 1.510 . S
C29 H27 0.959 . S
C29 H28 0.961 . S
C29 H30 0.960 . S
H30 C29 0.960 . S
H31 N11 0.862 . S
O32 Co0 1.920 . S
O32 C5 1.289 . S
C33 O25 1.258 . S
C33 O26 1.266 . S
Co34 O37 1.970 . S
Co34 N51 1.989 . S
Co34 O59 1.967 . S
Co34 O66 1.920 . S
Co35 O38 1.966 . S
Co35 N44 2.022 . S
Co35 N52 1.993 . S
Co35 O60 1.941 . S
C36 O37 1.258 . S
C36 O38 1.263 . S
O37 Co34 1.970 . S
O37 C36 1.258 . S
O38 Co35 1.966 . S
O38 C36 1.263 . S
C39 O40 1.235 . S
C39 O66 1.289 . S
O40 C39 1.235 . S
C41 C43 1.400 . S
C41 N44 1.351 . S
C41 C46 1.501 . S
C42 C43 1.387 . S
C42 N45 1.341 . S
C43 C41 1.400 . S
C43 C42 1.387 . S
N44 Co35 2.022 . S
N44 C41 1.351 . S
N44 N45 1.365 . S
N45 C42 1.341 . S
N45 N44 1.365 . S
N45 H65 0.862 . S
C46 C41 1.501 . S
C46 H47 0.961 . S
C46 H48 0.961 . S
C46 H49 0.960 . S
H47 C46 0.961 . S
H48 C46 0.961 . S
H49 C46 0.960 . S
C50 N51 1.342 . S
C50 C54 1.401 . S
C50 C55 1.499 . S
N51 Co34 1.989 . S
N51 C50 1.342 . S
N51 N52 1.388 . S
N52 Co35 1.993 . S
N52 N51 1.388 . S
N52 C53 1.346 . S
C53 N52 1.346 . S
C53 C54 1.396 . S
C53 C63 1.510 . S
C54 C50 1.401 . S
C54 C53 1.396 . S
C55 C50 1.499 . S
C55 H56 0.959 . S
C55 H57 0.960 . S
C55 H58 0.961 . S
H56 C55 0.959 . S
H57 C55 0.960 . S
H58 C55 0.961 . S
O59 Co34 1.967 . S
O59 C67 1.258 . S
O60 Co35 1.941 . S
O60 C67 1.266 . S
H61 C63 0.959 . S
H62 C63 0.961 . S
C63 C53 1.510 . S
C63 H61 0.959 . S
C63 H62 0.961 . S
C63 H64 0.960 . S
H64 C63 0.960 . S
H65 N45 0.862 . S
O66 Co34 1.920 . S
O66 C39 1.289 . S
C67 O59 1.258 . S
C67 O60 1.266 . S
Co68 O71 1.970 . S
Co68 N85 1.989 . S
Co68 O93 1.967 . S
Co68 O100 1.920 . S
Co69 O72 1.966 . S
Co69 N78 2.022 . S
Co69 N86 1.993 . S
Co69 O94 1.941 . S
C70 O71 1.258 . S
C70 O72 1.263 . S
O71 Co68 1.970 . S
O71 C70 1.258 . S
O72 Co69 1.966 . S
O72 C70 1.263 . S
C73 O74 1.235 . S
C73 O100 1.289 . S
O74 C73 1.235 . S
C75 C77 1.400 . S
C75 N78 1.351 . S
C75 C80 1.501 . S
C76 C77 1.387 . S
C76 N79 1.341 . S
C77 C75 1.400 . S
C77 C76 1.387 . S
N78 Co69 2.022 . S
N78 C75 1.351 . S
N78 N79 1.365 . S
N79 C76 1.341 . S
N79 N78 1.365 . S
N79 H99 0.862 . S
C80 C75 1.501 . S
C80 H81 0.961 . S
C80 H82 0.961 . S
C80 H83 0.960 . S
H81 C80 0.961 . S
H82 C80 0.961 . S
H83 C80 0.960 . S
C84 N85 1.342 . S
C84 C88 1.401 . S
C84 C89 1.499 . S
N85 Co68 1.989 . S
N85 C84 1.342 . S
N85 N86 1.388 . S
N86 Co69 1.993 . S
N86 N85 1.388 . S
N86 C87 1.346 . S
C87 N86 1.346 . S
C87 C88 1.396 . S
C87 C97 1.510 . S
C88 C84 1.401 . S
C88 C87 1.396 . S
C89 C84 1.499 . S
C89 H90 0.959 . S
C89 H91 0.960 . S
C89 H92 0.961 . S
H90 C89 0.959 . S
H91 C89 0.960 . S
H92 C89 0.961 . S
O93 Co68 1.967 . S
O93 C101 1.258 . S
O94 Co69 1.941 . S
O94 C101 1.266 . S
H95 C97 0.959 . S
H96 C97 0.961 . S
C97 C87 1.510 . S
C97 H95 0.959 . S
C97 H96 0.961 . S
C97 H98 0.960 . S
H98 C97 0.960 . S
H99 N79 0.862 . S
O100 Co68 1.920 . S
O100 C73 1.289 . S
C101 O93 1.258 . S
C101 O94 1.266 . S
Co102 O105 1.970 . S
Co102 N119 1.989 . S
Co102 O127 1.967 . S
Co102 O134 1.920 . S
Co103 O106 1.966 . S
Co103 N112 2.054 . S
Co103 N120 1.993 . S
Co103 O128 1.941 . S
C104 O105 1.258 . S
C104 O106 1.263 . S
O105 Co102 1.970 . S
O105 C104 1.258 . S
O106 Co103 1.966 . S
O106 C104 1.263 . S
C107 O108 1.235 . S
C107 O134 1.289 . S
O108 C107 1.235 . S
C109 C111 1.400 . S
C109 N112 1.317 1_556 S
C109 C114 1.501 . S
C110 C111 1.387 . S
C110 N113 1.341 . S
C111 C109 1.400 . S
C111 C110 1.387 . S
N112 Co103 2.054 . S
N112 C109 1.317 1_554 S
N112 N113 1.361 1_554 S
N113 C110 1.341 . S
N113 N112 1.361 1_556 S
N113 H133 0.862 1_556 S
C114 C109 1.501 . S
C114 H115 0.961 . S
C114 H116 0.961 . S
C114 H117 0.960 . S
H115 C114 0.961 . S
H116 C114 0.961 . S
H117 C114 0.960 . S
C118 N119 1.342 . S
C118 C122 1.401 . S
C118 C123 1.499 . S
N119 Co102 1.989 . S
N119 C118 1.342 . S
N119 N120 1.388 . S
N120 Co103 1.993 . S
N120 N119 1.388 . S
N120 C121 1.346 . S
C121 N120 1.346 . S
C121 C122 1.396 . S
C121 C131 1.553 . S
C122 C118 1.401 . S
C122 C121 1.396 . S
C123 C118 1.499 . S
C123 H124 0.959 . S
C123 H125 0.960 . S
C123 H126 0.961 . S
H124 C123 0.959 . S
H125 C123 0.960 . S
H126 C123 0.961 . S
O127 Co102 1.967 . S
O127 C135 1.258 . S
O128 Co103 1.941 . S
O128 C135 1.266 . S
H129 C131 0.966 . S
H130 C131 0.929 1_556 S
C131 C121 1.553 . S
C131 H129 0.966 . S
C131 H130 0.929 1_554 S
C131 H132 0.946 1_554 S
H132 C131 0.946 1_556 S
H133 N113 0.862 1_554 S
O134 Co102 1.920 . S
O134 C107 1.289 . S
C135 O127 1.258 . S
C135 O128 1.266 . S
Co136 O139 1.970 . S
Co136 N153 1.989 . S
Co136 O161 1.967 . S
Co136 O168 1.920 . S
Co137 O140 1.966 . S
Co137 N146 2.022 . S
Co137 N154 1.993 . S
Co137 O162 1.941 . S
C138 O139 1.258 . S
C138 O140 1.263 . S
O139 Co136 1.970 . S
O139 C138 1.258 . S
O140 Co137 1.966 . S
O140 C138 1.263 . S
C141 O142 1.235 . S
C141 O168 1.289 . S
O142 C141 1.235 . S
C143 C145 1.400 . S
C143 N146 1.351 . S
C143 C148 1.501 . S
C144 C145 1.387 . S
C144 N147 1.341 . S
C145 C143 1.400 . S
C145 C144 1.387 . S
N146 Co137 2.022 . S
N146 C143 1.351 . S
N146 N147 1.365 . S
N147 C144 1.341 . S
N147 N146 1.365 . S
N147 H167 0.862 . S
C148 C143 1.501 . S
C148 H149 0.961 . S
C148 H150 0.961 . S
C148 H151 0.960 . S
H149 C148 0.961 . S
H150 C148 0.961 . S
H151 C148 0.960 . S
C152 N153 1.342 . S
C152 C156 1.401 . S
C152 C157 1.499 . S
N153 Co136 1.989 . S
N153 C152 1.342 . S
N153 N154 1.388 . S
N154 Co137 1.993 . S
N154 N153 1.388 . S
N154 C155 1.346 . S
C155 N154 1.346 . S
C155 C156 1.396 . S
C155 C165 1.510 . S
C156 C152 1.401 . S
C156 C155 1.396 . S
C157 C152 1.499 . S
C157 H158 0.959 . S
C157 H159 0.960 . S
C157 H160 0.961 . S
H158 C157 0.959 . S
H159 C157 0.960 . S
H160 C157 0.961 . S
O161 Co136 1.967 . S
O161 C169 1.258 . S
O162 Co137 1.941 . S
O162 C169 1.266 . S
H163 C165 0.959 . S
H164 C165 0.961 . S
C165 C155 1.510 . S
C165 H163 0.959 . S
C165 H164 0.961 . S
C165 H166 0.960 . S
H166 C165 0.960 . S
H167 N147 0.862 . S
O168 Co136 1.920 . S
O168 C141 1.289 . S
C169 O161 1.258 . S
C169 O162 1.266 . S
Co170 O173 1.970 . S
Co170 N187 1.989 . S
Co170 O195 1.967 . S
Co170 O202 1.920 . S
Co171 O174 1.966 . S
Co171 N180 2.022 . S
Co171 N188 1.993 . S
Co171 O196 1.941 . S
C172 O173 1.258 . S
C172 O174 1.263 . S
O173 Co170 1.970 . S
O173 C172 1.258 . S
O174 Co171 1.966 . S
O174 C172 1.263 . S
C175 O176 1.235 . S
C175 O202 1.289 . S
O176 C175 1.235 . S
C177 C179 1.400 . S
C177 N180 1.351 . S
C177 C182 1.501 . S
C178 C179 1.387 . S
C178 N181 1.341 . S
C179 C177 1.400 . S
C179 C178 1.387 . S
N180 Co171 2.022 . S
N180 C177 1.351 . S
N180 N181 1.365 . S
N181 C178 1.341 . S
N181 N180 1.365 . S
N181 H201 0.862 . S
C182 C177 1.501 . S
C182 H183 0.961 . S
C182 H184 0.961 . S
C182 H185 0.960 . S
H183 C182 0.961 . S
H184 C182 0.961 . S
H185 C182 0.960 . S
C186 N187 1.342 . S
C186 C190 1.401 . S
C186 C191 1.499 . S
N187 Co170 1.989 . S
N187 C186 1.342 . S
N187 N188 1.388 . S
N188 Co171 1.993 . S
N188 N187 1.388 . S
N188 C189 1.346 . S
C189 N188 1.346 . S
C189 C190 1.396 . S
C189 C199 1.510 . S
C190 C186 1.401 . S
C190 C189 1.396 . S
C191 C186 1.499 . S
C191 H192 0.959 . S
C191 H193 0.960 . S
C191 H194 0.961 . S
H192 C191 0.959 . S
H193 C191 0.960 . S
H194 C191 0.961 . S
O195 Co170 1.967 . S
O195 C203 1.258 . S
O196 Co171 1.941 . S
O196 C203 1.266 . S
H197 C199 0.959 . S
H198 C199 0.961 . S
C199 C189 1.510 . S
C199 H197 0.959 . S
C199 H198 0.961 . S
C199 H200 0.960 . S
H200 C199 0.960 . S
H201 N181 0.862 . S
O202 Co170 1.920 . S
O202 C175 1.289 . S
C203 O195 1.258 . S
C203 O196 1.266 . S
Co204 O207 1.970 . S
Co204 N221 1.989 . S
Co204 O229 1.967 . S
Co204 O236 1.920 . S
Co205 O208 1.966 . S
Co205 N214 2.022 . S
Co205 N222 1.993 . S
Co205 O230 1.941 . S
C206 O207 1.258 . S
C206 O208 1.263 . S
O207 Co204 1.970 . S
O207 C206 1.258 . S
O208 Co205 1.966 . S
O208 C206 1.263 . S
C209 O210 1.235 . S
C209 O236 1.289 . S
O210 C209 1.235 . S
C211 C213 1.400 . S
C211 N214 1.351 . S
C211 C216 1.501 . S
C212 C213 1.387 . S
C212 N215 1.341 . S
C213 C211 1.400 . S
C213 C212 1.387 . S
N214 Co205 2.022 . S
N214 C211 1.351 . S
N214 N215 1.365 . S
N215 C212 1.341 . S
N215 N214 1.365 . S
N215 H235 0.862 . S
C216 C211 1.501 . S
C216 H217 0.961 . S
C216 H218 0.961 . S
C216 H219 0.960 . S
H217 C216 0.961 . S
H218 C216 0.961 . S
H219 C216 0.960 . S
C220 N221 1.342 . S
C220 C224 1.401 . S
C220 C225 1.499 . S
N221 Co204 1.989 . S
N221 C220 1.342 . S
N221 N222 1.388 . S
N222 Co205 1.993 . S
N222 N221 1.388 . S
N222 C223 1.346 . S
C223 N222 1.346 . S
C223 C224 1.396 . S
C223 C233 1.510 . S
C224 C220 1.401 . S
C224 C223 1.396 . S
C225 C220 1.499 . S
C225 H226 0.959 . S
C225 H227 0.960 . S
C225 H228 0.961 . S
H226 C225 0.959 . S
H227 C225 0.960 . S
H228 C225 0.961 . S
O229 Co204 1.967 . S
O229 C237 1.258 . S
O230 Co205 1.941 . S
O230 C237 1.266 . S
H231 C233 0.959 . S
H232 C233 0.961 . S
C233 C223 1.510 . S
C233 H231 0.959 . S
C233 H232 0.961 . S
C233 H234 0.960 . S
H234 C233 0.960 . S
H235 N215 0.862 . S
O236 Co204 1.920 . S
O236 C209 1.289 . S
C237 O229 1.258 . S
C237 O230 1.266 . S
Co238 O241 1.970 . S
Co238 N255 1.989 . S
Co238 O263 1.967 . S
Co238 O270 1.920 . S
Co239 O242 1.966 . S
Co239 N248 2.054 . S
Co239 N256 1.993 . S
Co239 O264 1.941 . S
C240 O241 1.258 . S
C240 O242 1.263 . S
O241 Co238 1.970 . S
O241 C240 1.258 . S
O242 Co239 1.966 . S
O242 C240 1.263 . S
C243 O244 1.235 . S
C243 O270 1.289 . S
O244 C243 1.235 . S
C245 C247 1.400 . S
C245 N248 1.317 1_554 S
C245 C250 1.501 . S
C246 C247 1.387 . S
C246 N249 1.341 . S
C247 C245 1.400 . S
C247 C246 1.387 . S
N248 Co239 2.054 . S
N248 C245 1.317 1_556 S
N248 N249 1.361 1_556 S
N249 C246 1.341 . S
N249 N248 1.361 1_554 S
N249 H269 0.862 1_554 S
C250 C245 1.501 . S
C250 H251 0.961 . S
C250 H252 0.961 . S
C250 H253 0.960 . S
H251 C250 0.961 . S
H252 C250 0.961 . S
H253 C250 0.960 . S
C254 N255 1.342 . S
C254 C258 1.401 . S
C254 C259 1.499 . S
N255 Co238 1.989 . S
N255 C254 1.342 . S
N255 N256 1.388 . S
N256 Co239 1.993 . S
N256 N255 1.388 . S
N256 C257 1.346 . S
C257 N256 1.346 . S
C257 C258 1.396 . S
C257 C267 1.553 . S
C258 C254 1.401 . S
C258 C257 1.396 . S
C259 C254 1.499 . S
C259 H260 0.959 . S
C259 H261 0.960 . S
C259 H262 0.961 . S
H260 C259 0.959 . S
H261 C259 0.960 . S
H262 C259 0.961 . S
O263 Co238 1.967 . S
O263 C271 1.258 . S
O264 Co239 1.941 . S
O264 C271 1.266 . S
H265 C267 0.966 . S
H266 C267 0.929 1_554 S
C267 C257 1.553 . S
C267 H265 0.966 . S
C267 H266 0.929 1_556 S
C267 H268 0.946 1_556 S
H268 C267 0.946 1_554 S
H269 N249 0.862 1_556 S
O270 Co238 1.920 . S
O270 C243 1.289 . S
C271 O263 1.258 . S
C271 O264 1.266 . S
Co272 O275 1.970 . S
Co272 N289 1.989 . S
Co272 O297 1.967 . S
Co272 O304 1.920 . S
Co273 O276 1.966 . S
Co273 N282 2.022 . S
Co273 N290 1.993 . S
Co273 O298 1.941 . S
C274 O275 1.258 . S
C274 O276 1.263 . S
O275 Co272 1.970 . S
O275 C274 1.258 . S
O276 Co273 1.966 . S
O276 C274 1.263 . S
C277 O278 1.235 . S
C277 O304 1.289 . S
O278 C277 1.235 . S
C279 C281 1.400 . S
C279 N282 1.351 . S
C279 C284 1.501 . S
C280 C281 1.387 . S
C280 N283 1.341 . S
C281 C279 1.400 . S
C281 C280 1.387 . S
N282 Co273 2.022 . S
N282 C279 1.351 . S
N282 N283 1.365 . S
N283 C280 1.341 . S
N283 N282 1.365 . S
N283 H303 0.862 . S
C284 C279 1.501 . S
C284 H285 0.961 . S
C284 H286 0.961 . S
C284 H287 0.960 . S
H285 C284 0.961 . S
H286 C284 0.961 . S
H287 C284 0.960 . S
C288 N289 1.342 . S
C288 C292 1.401 . S
C288 C293 1.499 . S
N289 Co272 1.989 . S
N289 C288 1.342 . S
N289 N290 1.388 . S
N290 Co273 1.993 . S
N290 N289 1.388 . S
N290 C291 1.346 . S
C291 N290 1.346 . S
C291 C292 1.396 . S
C291 C301 1.510 . S
C292 C288 1.401 . S
C292 C291 1.396 . S
C293 C288 1.499 . S
C293 H294 0.959 . S
C293 H295 0.960 . S
C293 H296 0.961 . S
H294 C293 0.959 . S
H295 C293 0.960 . S
H296 C293 0.961 . S
O297 Co272 1.967 . S
O297 C305 1.258 . S
O298 Co273 1.941 . S
O298 C305 1.266 . S
H299 C301 0.959 . S
H300 C301 0.961 . S
C301 C291 1.510 . S
C301 H299 0.959 . S
C301 H300 0.961 . S
C301 H302 0.960 . S
H302 C301 0.960 . S
H303 N283 0.862 . S
O304 Co272 1.920 . S
O304 C277 1.289 . S
C305 O297 1.258 . S
C305 O298 1.266 . S
Co306 O309 1.970 . S
Co306 N323 1.989 . S
Co306 O331 1.967 . S
Co306 O338 1.920 . S
Co307 O310 1.966 . S
Co307 N316 2.022 . S
Co307 N324 1.993 . S
Co307 O332 1.941 . S
C308 O309 1.258 . S
C308 O310 1.263 . S
O309 Co306 1.970 . S
O309 C308 1.258 . S
O310 Co307 1.966 . S
O310 C308 1.263 . S
C311 O312 1.235 . S
C311 O338 1.289 . S
O312 C311 1.235 . S
C313 C315 1.400 . S
C313 N316 1.351 . S
C313 C318 1.501 . S
C314 C315 1.387 . S
C314 N317 1.341 . S
C315 C313 1.400 . S
C315 C314 1.387 . S
N316 Co307 2.022 . S
N316 C313 1.351 . S
N316 N317 1.365 . S
N317 C314 1.341 . S
N317 N316 1.365 . S
N317 H337 0.862 . S
C318 C313 1.501 . S
C318 H319 0.961 . S
C318 H320 0.961 . S
C318 H321 0.960 . S
H319 C318 0.961 . S
H320 C318 0.961 . S
H321 C318 0.960 . S
C322 N323 1.342 . S
C322 C326 1.401 . S
C322 C327 1.499 . S
N323 Co306 1.989 . S
N323 C322 1.342 . S
N323 N324 1.388 . S
N324 Co307 1.993 . S
N324 N323 1.388 . S
N324 C325 1.346 . S
C325 N324 1.346 . S
C325 C326 1.396 . S
C325 C335 1.510 . S
C326 C322 1.401 . S
C326 C325 1.396 . S
C327 C322 1.499 . S
C327 H328 0.959 . S
C327 H329 0.960 . S
C327 H330 0.961 . S
H328 C327 0.959 . S
H329 C327 0.960 . S
H330 C327 0.961 . S
O331 Co306 1.967 . S
O331 C339 1.258 . S
O332 Co307 1.941 . S
O332 C339 1.266 . S
H333 C335 0.959 . S
H334 C335 0.961 . S
C335 C325 1.510 . S
C335 H333 0.959 . S
C335 H334 0.961 . S
C335 H336 0.960 . S
H336 C335 0.960 . S
H337 N317 0.862 . S
O338 Co306 1.920 . S
O338 C311 1.289 . S
C339 O331 1.258 . S
C339 O332 1.266 . S
Co340 O343 1.970 . S
Co340 N357 1.989 . S
Co340 O365 1.967 . S
Co340 O372 1.920 . S
Co341 O344 1.966 . S
Co341 N350 2.022 . S
Co341 N358 1.993 . S
Co341 O366 1.941 . S
C342 O343 1.258 . S
C342 O344 1.263 . S
O343 Co340 1.970 . S
O343 C342 1.258 . S
O344 Co341 1.966 . S
O344 C342 1.263 . S
C345 O346 1.235 . S
C345 O372 1.289 . S
O346 C345 1.235 . S
C347 C349 1.400 . S
C347 N350 1.351 . S
C347 C352 1.501 . S
C348 C349 1.387 . S
C348 N351 1.341 . S
C349 C347 1.400 . S
C349 C348 1.387 . S
N350 Co341 2.022 . S
N350 C347 1.351 . S
N350 N351 1.365 . S
N351 C348 1.341 . S
N351 N350 1.365 . S
N351 H371 0.862 . S
C352 C347 1.501 . S
C352 H353 0.961 . S
C352 H354 0.961 . S
C352 H355 0.960 . S
H353 C352 0.961 . S
H354 C352 0.961 . S
H355 C352 0.960 . S
C356 N357 1.342 . S
C356 C360 1.401 . S
C356 C361 1.499 . S
N357 Co340 1.989 . S
N357 C356 1.342 . S
N357 N358 1.388 . S
N358 Co341 1.993 . S
N358 N357 1.388 . S
N358 C359 1.346 . S
C359 N358 1.346 . S
C359 C360 1.396 . S
C359 C369 1.510 . S
C360 C356 1.401 . S
C360 C359 1.396 . S
C361 C356 1.499 . S
C361 H362 0.959 . S
C361 H363 0.960 . S
C361 H364 0.961 . S
H362 C361 0.959 . S
H363 C361 0.960 . S
H364 C361 0.961 . S
O365 Co340 1.967 . S
O365 C373 1.258 . S
O366 Co341 1.941 . S
O366 C373 1.266 . S
H367 C369 0.959 . S
H368 C369 0.961 . S
C369 C359 1.510 . S
C369 H367 0.959 . S
C369 H368 0.961 . S
C369 H370 0.960 . S
H370 C369 0.960 . S
H371 N351 0.862 . S
O372 Co340 1.920 . S
O372 C345 1.289 . S
C373 O365 1.258 . S
C373 O366 1.266 . S
Co374 O377 1.970 . S
Co374 N391 1.989 1_556 S
Co374 O399 1.967 . S
Co374 O406 1.920 . S
Co375 O378 1.966 . S
Co375 N384 2.022 . S
Co375 N392 1.993 . S
Co375 O400 1.941 . S
C376 O377 1.258 . S
C376 O378 1.263 . S
O377 Co374 1.970 . S
O377 C376 1.258 . S
O378 Co375 1.966 . S
O378 C376 1.263 . S
C379 O380 1.235 . S
C379 O406 1.289 . S
O380 C379 1.235 . S
C381 C383 1.400 . S
C381 N384 1.351 . S
C381 C386 1.501 . S
C382 C383 1.387 . S
C382 N385 1.341 . S
C383 C381 1.400 . S
C383 C382 1.387 . S
N384 Co375 2.022 . S
N384 C381 1.351 . S
N384 N385 1.365 . S
N385 C382 1.341 . S
N385 N384 1.365 . S
N385 H405 0.862 . S
C386 C381 1.501 . S
C386 H387 0.961 . S
C386 H388 0.961 . S
C386 H389 0.960 . S
H387 C386 0.961 . S
H388 C386 0.961 . S
H389 C386 0.960 . S
C390 N391 1.342 . S
C390 C394 1.401 . S
C390 C395 1.499 . S
N391 Co374 1.989 1_554 S
N391 C390 1.342 . S
N391 N392 1.388 1_554 S
N392 Co375 1.993 . S
N392 N391 1.388 1_556 S
N392 C393 1.346 1_556 S
C393 N392 1.346 1_554 S
C393 C394 1.396 . S
C393 C403 1.510 . S
C394 C390 1.401 . S
C394 C393 1.396 . S
C395 C390 1.499 . S
C395 H396 0.959 . S
C395 H397 0.960 . S
C395 H398 0.961 . S
H396 C395 0.959 . S
H397 C395 0.960 . S
H398 C395 0.961 . S
O399 Co374 1.967 . S
O399 C407 1.258 . S
O400 Co375 1.941 . S
O400 C407 1.266 . S
H401 C403 0.959 . S
H402 C403 0.961 . S
C403 C393 1.510 . S
C403 H401 0.959 . S
C403 H402 0.961 . S
C403 H404 0.960 . S
H404 C403 0.960 . S
H405 N385 0.862 . S
O406 Co374 1.920 . S
O406 C379 1.289 . S
C407 O399 1.258 . S
C407 O400 1.266 . S
Co408 O411 1.970 . S
Co408 N425 1.989 . S
Co408 O433 1.967 . S
Co408 O440 1.920 . S
Co409 O412 1.966 . S
Co409 N418 2.022 . S
Co409 N426 1.993 . S
Co409 O434 1.941 . S
C410 O411 1.258 . S
C410 O412 1.263 . S
O411 Co408 1.970 . S
O411 C410 1.258 . S
O412 Co409 1.966 . S
O412 C410 1.263 . S
C413 O414 1.235 . S
C413 O440 1.289 . S
O414 C413 1.235 . S
C415 C417 1.400 . S
C415 N418 1.351 . S
C415 C420 1.501 . S
C416 C417 1.387 . S
C416 N419 1.341 . S
C417 C415 1.400 . S
C417 C416 1.387 . S
N418 Co409 2.022 . S
N418 C415 1.351 . S
N418 N419 1.365 . S
N419 C416 1.341 . S
N419 N418 1.365 . S
N419 H439 0.862 . S
C420 C415 1.501 . S
C420 H421 0.961 . S
C420 H422 0.961 . S
C420 H423 0.960 . S
H421 C420 0.961 . S
H422 C420 0.961 . S
H423 C420 0.960 . S
C424 N425 1.342 . S
C424 C428 1.401 . S
C424 C429 1.499 . S
N425 Co408 1.989 . S
N425 C424 1.342 . S
N425 N426 1.388 . S
N426 Co409 1.993 . S
N426 N425 1.388 . S
N426 C427 1.346 . S
C427 N426 1.346 . S
C427 C428 1.396 . S
C427 C437 1.510 . S
C428 C424 1.401 . S
C428 C427 1.396 . S
C429 C424 1.499 . S
C429 H430 0.959 . S
C429 H431 0.960 . S
C429 H432 0.961 . S
H430 C429 0.959 . S
H431 C429 0.960 . S
H432 C429 0.961 . S
O433 Co408 1.967 . S
O433 C441 1.258 . S
O434 Co409 1.941 . S
O434 C441 1.266 . S
H435 C437 0.959 . S
H436 C437 0.961 . S
C437 C427 1.510 . S
C437 H435 0.959 . S
C437 H436 0.961 . S
C437 H438 0.960 . S
H438 C437 0.960 . S
H439 N419 0.862 . S
O440 Co408 1.920 . S
O440 C413 1.289 . S
C441 O433 1.258 . S
C441 O434 1.266 . S
Co442 O445 1.970 . S
Co442 N459 1.989 . S
Co442 O467 1.967 . S
Co442 O474 1.920 . S
Co443 O446 1.966 . S
Co443 N452 2.022 . S
Co443 N460 1.993 . S
Co443 O468 1.941 . S
C444 O445 1.258 . S
C444 O446 1.263 . S
O445 Co442 1.970 . S
O445 C444 1.258 . S
O446 Co443 1.966 . S
O446 C444 1.263 . S
C447 O448 1.235 . S
C447 O474 1.289 . S
O448 C447 1.235 . S
C449 C451 1.400 . S
C449 N452 1.351 . S
C449 C454 1.501 . S
C450 C451 1.387 . S
C450 N453 1.341 . S
C451 C449 1.400 . S
C451 C450 1.387 . S
N452 Co443 2.022 . S
N452 C449 1.351 . S
N452 N453 1.365 . S
N453 C450 1.341 . S
N453 N452 1.365 . S
N453 H473 0.862 . S
C454 C449 1.501 . S
C454 H455 0.961 . S
C454 H456 0.961 . S
C454 H457 0.960 . S
H455 C454 0.961 . S
H456 C454 0.961 . S
H457 C454 0.960 . S
C458 N459 1.342 . S
C458 C462 1.401 . S
C458 C463 1.499 . S
N459 Co442 1.989 . S
N459 C458 1.342 . S
N459 N460 1.388 . S
N460 Co443 1.993 . S
N460 N459 1.388 . S
N460 C461 1.346 . S
C461 N460 1.346 . S
C461 C462 1.396 . S
C461 C471 1.510 . S
C462 C458 1.401 . S
C462 C461 1.396 . S
C463 C458 1.499 . S
C463 H464 0.959 . S
C463 H465 0.960 . S
C463 H466 0.961 . S
H464 C463 0.959 . S
H465 C463 0.960 . S
H466 C463 0.961 . S
O467 Co442 1.967 . S
O467 C475 1.258 . S
O468 Co443 1.941 . S
O468 C475 1.266 . S
H469 C471 0.959 . S
H470 C471 0.961 . S
C471 C461 1.510 . S
C471 H469 0.959 . S
C471 H470 0.961 . S
C471 H472 0.960 . S
H472 C471 0.960 . S
H473 N453 0.862 . S
O474 Co442 1.920 . S
O474 C447 1.289 . S
C475 O467 1.258 . S
C475 O468 1.266 . S
Co476 O479 1.970 . S
Co476 N493 1.989 . S
Co476 O501 1.967 . S
Co476 O508 1.920 . S
Co477 O480 1.966 . S
Co477 N486 2.022 . S
Co477 N494 1.993 . S
Co477 O502 1.941 . S
C478 O479 1.258 . S
C478 O480 1.263 . S
O479 Co476 1.970 . S
O479 C478 1.258 . S
O480 Co477 1.966 . S
O480 C478 1.263 . S
C481 O482 1.235 . S
C481 O508 1.289 . S
O482 C481 1.235 . S
C483 C485 1.400 . S
C483 N486 1.351 . S
C483 C488 1.501 . S
C484 C485 1.387 . S
C484 N487 1.341 . S
C485 C483 1.400 . S
C485 C484 1.387 . S
N486 Co477 2.022 . S
N486 C483 1.351 . S
N486 N487 1.365 . S
N487 C484 1.341 . S
N487 N486 1.365 . S
N487 H507 0.862 . S
C488 C483 1.501 . S
C488 H489 0.961 . S
C488 H490 0.961 . S
C488 H491 0.960 . S
H489 C488 0.961 . S
H490 C488 0.961 . S
H491 C488 0.960 . S
C492 N493 1.342 . S
C492 C496 1.401 . S
C492 C497 1.499 . S
N493 Co476 1.989 . S
N493 C492 1.342 . S
N493 N494 1.388 . S
N494 Co477 1.993 . S
N494 N493 1.388 . S
N494 C495 1.346 . S
C495 N494 1.346 . S
C495 C496 1.396 . S
C495 C505 1.510 . S
C496 C492 1.401 . S
C496 C495 1.396 . S
C497 C492 1.499 . S
C497 H498 0.959 . S
C497 H499 0.960 . S
C497 H500 0.961 . S
H498 C497 0.959 . S
H499 C497 0.960 . S
H500 C497 0.961 . S
O501 Co476 1.967 . S
O501 C509 1.258 . S
O502 Co477 1.941 . S
O502 C509 1.266 . S
H503 C505 0.959 . S
H504 C505 0.961 . S
C505 C495 1.510 . S
C505 H503 0.959 . S
C505 H504 0.961 . S
C505 H506 0.960 . S
H506 C505 0.960 . S
H507 N487 0.862 . S
O508 Co476 1.920 . S
O508 C481 1.289 . S
C509 O501 1.258 . S
C509 O502 1.266 . S
Co510 O513 1.970 . S
Co510 N527 1.989 1_554 S
Co510 O535 1.967 . S
Co510 O542 1.920 . S
Co511 O514 1.966 . S
Co511 N520 2.022 . S
Co511 N528 1.993 . S
Co511 O536 1.941 . S
C512 O513 1.258 . S
C512 O514 1.263 . S
O513 Co510 1.970 . S
O513 C512 1.258 . S
O514 Co511 1.966 . S
O514 C512 1.263 . S
C515 O516 1.235 . S
C515 O542 1.289 . S
O516 C515 1.235 . S
C517 C519 1.400 . S
C517 N520 1.351 . S
C517 C522 1.501 . S
C518 C519 1.387 . S
C518 N521 1.341 . S
C519 C517 1.400 . S
C519 C518 1.387 . S
N520 Co511 2.022 . S
N520 C517 1.351 . S
N520 N521 1.365 . S
N521 C518 1.341 . S
N521 N520 1.365 . S
N521 H541 0.862 . S
C522 C517 1.501 . S
C522 H523 0.961 . S
C522 H524 0.961 . S
C522 H525 0.960 . S
H523 C522 0.961 . S
H524 C522 0.961 . S
H525 C522 0.960 . S
C526 N527 1.342 . S
C526 C530 1.401 . S
C526 C531 1.499 . S
N527 Co510 1.989 1_556 S
N527 C526 1.342 . S
N527 N528 1.388 1_556 S
N528 Co511 1.993 . S
N528 N527 1.388 1_554 S
N528 C529 1.346 1_554 S
C529 N528 1.346 1_556 S
C529 C530 1.396 . S
C529 C539 1.510 . S
C530 C526 1.401 . S
C530 C529 1.396 . S
C531 C526 1.499 . S
C531 H532 0.959 . S
C531 H533 0.960 . S
C531 H534 0.961 . S
H532 C531 0.959 . S
H533 C531 0.960 . S
H534 C531 0.961 . S
O535 Co510 1.967 . S
O535 C543 1.258 . S
O536 Co511 1.941 . S
O536 C543 1.266 . S
H537 C539 0.959 . S
H538 C539 0.961 . S
C539 C529 1.510 . S
C539 H537 0.959 . S
C539 H538 0.961 . S
C539 H540 0.960 . S
H540 C539 0.960 . S
H541 N521 0.862 . S
O542 Co510 1.920 . S
O542 C515 1.289 . S
C543 O535 1.258 . S
C543 O536 1.266 . S
Co544 O547 1.970 . S
Co544 N561 1.989 . S
Co544 O569 1.967 . S
Co544 O576 1.920 . S
Co545 O548 1.966 . S
Co545 N554 2.022 . S
Co545 N562 1.993 . S
Co545 O570 1.941 . S
C546 O547 1.258 . S
C546 O548 1.263 . S
O547 Co544 1.970 . S
O547 C546 1.258 . S
O548 Co545 1.966 . S
O548 C546 1.263 . S
C549 O550 1.235 . S
C549 O576 1.289 . S
O550 C549 1.235 . S
C551 C553 1.400 . S
C551 N554 1.351 . S
C551 C556 1.501 . S
C552 C553 1.387 . S
C552 N555 1.341 . S
C553 C551 1.400 . S
C553 C552 1.387 . S
N554 Co545 2.022 . S
N554 C551 1.351 . S
N554 N555 1.365 . S
N555 C552 1.341 . S
N555 N554 1.365 . S
N555 H575 0.862 . S
C556 C551 1.501 . S
C556 H557 0.961 . S
C556 H558 0.961 . S
C556 H559 0.960 . S
H557 C556 0.961 . S
H558 C556 0.961 . S
H559 C556 0.960 . S
C560 N561 1.342 . S
C560 C564 1.401 . S
C560 C565 1.499 . S
N561 Co544 1.989 . S
N561 C560 1.342 . S
N561 N562 1.388 . S
N562 Co545 1.993 . S
N562 N561 1.388 . S
N562 C563 1.346 . S
C563 N562 1.346 . S
C563 C564 1.396 . S
C563 C573 1.510 . S
C564 C560 1.401 . S
C564 C563 1.396 . S
C565 C560 1.499 . S
C565 H566 0.959 . S
C565 H567 0.960 . S
C565 H568 0.961 . S
H566 C565 0.959 . S
H567 C565 0.960 . S
H568 C565 0.961 . S
O569 Co544 1.967 . S
O569 C577 1.258 . S
O570 Co545 1.941 . S
O570 C577 1.266 . S
H571 C573 0.959 . S
H572 C573 0.961 . S
C573 C563 1.510 . S
C573 H571 0.959 . S
C573 H572 0.961 . S
C573 H574 0.960 . S
H574 C573 0.960 . S
H575 N555 0.862 . S
O576 Co544 1.920 . S
O576 C549 1.289 . S
C577 O569 1.258 . S
C577 O570 1.266 . S
Co578 O581 1.970 . S
Co578 N595 1.989 . S
Co578 O603 1.967 . S
Co578 O610 1.920 . S
Co579 O582 1.966 . S
Co579 N588 2.054 . S
Co579 N596 1.993 . S
Co579 O604 1.941 . S
C580 O581 1.258 . S
C580 O582 1.263 . S
O581 Co578 1.970 . S
O581 C580 1.258 . S
O582 Co579 1.966 . S
O582 C580 1.263 . S
C583 O584 1.235 . S
C583 O610 1.289 . S
O584 C583 1.235 . S
C585 C587 1.400 . S
C585 N588 1.317 1_556 S
C585 C590 1.501 . S
C586 C587 1.387 . S
C586 N589 1.341 . S
C587 C585 1.400 . S
C587 C586 1.387 . S
N588 Co579 2.054 . S
N588 C585 1.317 1_554 S
N588 N589 1.361 1_554 S
N589 C586 1.341 . S
N589 N588 1.361 1_556 S
N589 H609 0.862 1_556 S
C590 C585 1.501 . S
C590 H591 0.961 . S
C590 H592 0.961 . S
C590 H593 0.960 . S
H591 C590 0.961 . S
H592 C590 0.961 . S
H593 C590 0.960 . S
C594 N595 1.342 . S
C594 C598 1.401 . S
C594 C599 1.499 . S
N595 Co578 1.989 . S
N595 C594 1.342 . S
N595 N596 1.388 . S
N596 Co579 1.993 . S
N596 N595 1.388 . S
N596 C597 1.346 . S
C597 N596 1.346 . S
C597 C598 1.396 . S
C597 C607 1.553 . S
C598 C594 1.401 . S
C598 C597 1.396 . S
C599 C594 1.499 . S
C599 H600 0.959 . S
C599 H601 0.960 . S
C599 H602 0.961 . S
H600 C599 0.959 . S
H601 C599 0.960 . S
H602 C599 0.961 . S
O603 Co578 1.967 . S
O603 C611 1.258 . S
O604 Co579 1.941 . S
O604 C611 1.266 . S
H605 C607 0.966 . S
H606 C607 0.929 1_556 S
C607 C597 1.553 . S
C607 H605 0.966 . S
C607 H606 0.929 1_554 S
C607 H608 0.946 1_554 S
H608 C607 0.946 1_556 S
H609 N589 0.862 1_554 S
O610 Co578 1.920 . S
O610 C583 1.289 . S
C611 O603 1.258 . S
C611 O604 1.266 . S
Co612 O615 1.970 . S
Co612 N629 1.989 . S
Co612 O637 1.967 . S
Co612 O644 1.920 . S
Co613 O616 1.966 . S
Co613 N622 2.022 . S
Co613 N630 1.993 . S
Co613 O638 1.941 . S
C614 O615 1.258 . S
C614 O616 1.263 . S
O615 Co612 1.970 . S
O615 C614 1.258 . S
O616 Co613 1.966 . S
O616 C614 1.263 . S
C617 O618 1.235 . S
C617 O644 1.289 . S
O618 C617 1.235 . S
C619 C621 1.400 . S
C619 N622 1.351 . S
C619 C624 1.501 . S
C620 C621 1.387 . S
C620 N623 1.341 . S
C621 C619 1.400 . S
C621 C620 1.387 . S
N622 Co613 2.022 . S
N622 C619 1.351 . S
N622 N623 1.365 . S
N623 C620 1.341 . S
N623 N622 1.365 . S
N623 H643 0.862 . S
C624 C619 1.501 . S
C624 H625 0.961 . S
C624 H626 0.961 . S
C624 H627 0.960 . S
H625 C624 0.961 . S
H626 C624 0.961 . S
H627 C624 0.960 . S
C628 N629 1.342 . S
C628 C632 1.401 . S
C628 C633 1.499 . S
N629 Co612 1.989 . S
N629 C628 1.342 . S
N629 N630 1.388 . S
N630 Co613 1.993 . S
N630 N629 1.388 . S
N630 C631 1.346 . S
C631 N630 1.346 . S
C631 C632 1.396 . S
C631 C641 1.510 . S
C632 C628 1.401 . S
C632 C631 1.396 . S
C633 C628 1.499 . S
C633 H634 0.959 . S
C633 H635 0.960 . S
C633 H636 0.961 . S
H634 C633 0.959 . S
H635 C633 0.960 . S
H636 C633 0.961 . S
O637 Co612 1.967 . S
O637 C645 1.258 . S
O638 Co613 1.941 . S
O638 C645 1.266 . S
H639 C641 0.959 . S
H640 C641 0.961 . S
C641 C631 1.510 . S
C641 H639 0.959 . S
C641 H640 0.961 . S
C641 H642 0.960 . S
H642 C641 0.960 . S
H643 N623 0.862 . S
O644 Co612 1.920 . S
O644 C617 1.289 . S
C645 O637 1.258 . S
C645 O638 1.266 . S
Co646 O649 1.970 . S
Co646 N663 1.989 . S
Co646 O671 1.967 . S
Co646 O678 1.920 . S
Co647 O650 1.966 . S
Co647 N656 2.022 . S
Co647 N664 1.993 . S
Co647 O672 1.941 . S
C648 O649 1.258 . S
C648 O650 1.263 . S
O649 Co646 1.970 . S
O649 C648 1.258 . S
O650 Co647 1.966 . S
O650 C648 1.263 . S
C651 O652 1.235 . S
C651 O678 1.289 . S
O652 C651 1.235 . S
C653 C655 1.400 . S
C653 N656 1.351 . S
C653 C658 1.501 . S
C654 C655 1.387 . S
C654 N657 1.341 . S
C655 C653 1.400 . S
C655 C654 1.387 . S
N656 Co647 2.022 . S
N656 C653 1.351 . S
N656 N657 1.365 . S
N657 C654 1.341 . S
N657 N656 1.365 . S
N657 H677 0.862 . S
C658 C653 1.501 . S
C658 H659 0.961 . S
C658 H660 0.961 . S
C658 H661 0.960 . S
H659 C658 0.961 . S
H660 C658 0.961 . S
H661 C658 0.960 . S
C662 N663 1.342 . S
C662 C666 1.401 . S
C662 C667 1.499 . S
N663 Co646 1.989 . S
N663 C662 1.342 . S
N663 N664 1.388 . S
N664 Co647 1.993 . S
N664 N663 1.388 . S
N664 C665 1.346 . S
C665 N664 1.346 . S
C665 C666 1.396 . S
C665 C675 1.510 . S
C666 C662 1.401 . S
C666 C665 1.396 . S
C667 C662 1.499 . S
C667 H668 0.959 . S
C667 H669 0.960 . S
C667 H670 0.961 . S
H668 C667 0.959 . S
H669 C667 0.960 . S
H670 C667 0.961 . S
O671 Co646 1.967 . S
O671 C679 1.258 . S
O672 Co647 1.941 . S
O672 C679 1.266 . S
H673 C675 0.959 . S
H674 C675 0.961 . S
C675 C665 1.510 . S
C675 H673 0.959 . S
C675 H674 0.961 . S
C675 H676 0.960 . S
H676 C675 0.960 . S
H677 N657 0.862 . S
O678 Co646 1.920 . S
O678 C651 1.289 . S
C679 O671 1.258 . S
C679 O672 1.266 . S
Co680 O683 1.970 . S
Co680 N697 1.989 . S
Co680 O705 1.967 . S
Co680 O712 1.920 . S
Co681 O684 1.966 . S
Co681 N690 2.022 . S
Co681 N698 1.993 . S
Co681 O706 1.941 . S
C682 O683 1.258 . S
C682 O684 1.263 . S
O683 Co680 1.970 . S
O683 C682 1.258 . S
O684 Co681 1.966 . S
O684 C682 1.263 . S
C685 O686 1.235 . S
C685 O712 1.289 . S
O686 C685 1.235 . S
C687 C689 1.400 . S
C687 N690 1.351 . S
C687 C692 1.501 . S
C688 C689 1.387 . S
C688 N691 1.341 . S
C689 C687 1.400 . S
C689 C688 1.387 . S
N690 Co681 2.022 . S
N690 C687 1.351 . S
N690 N691 1.365 . S
N691 C688 1.341 . S
N691 N690 1.365 . S
N691 H711 0.862 . S
C692 C687 1.501 . S
C692 H693 0.961 . S
C692 H694 0.961 . S
C692 H695 0.960 . S
H693 C692 0.961 . S
H694 C692 0.961 . S
H695 C692 0.960 . S
C696 N697 1.342 . S
C696 C700 1.401 . S
C696 C701 1.499 . S
N697 Co680 1.989 . S
N697 C696 1.342 . S
N697 N698 1.388 . S
N698 Co681 1.993 . S
N698 N697 1.388 . S
N698 C699 1.346 . S
C699 N698 1.346 . S
C699 C700 1.396 . S
C699 C709 1.510 . S
C700 C696 1.401 . S
C700 C699 1.396 . S
C701 C696 1.499 . S
C701 H702 0.959 . S
C701 H703 0.960 . S
C701 H704 0.961 . S
H702 C701 0.959 . S
H703 C701 0.960 . S
H704 C701 0.961 . S
O705 Co680 1.967 . S
O705 C713 1.258 . S
O706 Co681 1.941 . S
O706 C713 1.266 . S
H707 C709 0.959 . S
H708 C709 0.961 . S
C709 C699 1.510 . S
C709 H707 0.959 . S
C709 H708 0.961 . S
C709 H710 0.960 . S
H710 C709 0.960 . S
H711 N691 0.862 . S
O712 Co680 1.920 . S
O712 C685 1.289 . S
C713 O705 1.258 . S
C713 O706 1.266 . S
Co714 O717 1.970 . S
Co714 N731 1.989 . S
Co714 O739 1.967 . S
Co714 O746 1.920 . S
Co715 O718 1.966 . S
Co715 N724 2.054 . S
Co715 N732 1.993 . S
Co715 O740 1.941 . S
C716 O717 1.258 . S
C716 O718 1.263 . S
O717 Co714 1.970 . S
O717 C716 1.258 . S
O718 Co715 1.966 . S
O718 C716 1.263 . S
C719 O720 1.235 . S
C719 O746 1.289 . S
O720 C719 1.235 . S
C721 C723 1.400 . S
C721 N724 1.317 1_554 S
C721 C726 1.501 . S
C722 C723 1.387 . S
C722 N725 1.341 . S
C723 C721 1.400 . S
C723 C722 1.387 . S
N724 Co715 2.054 . S
N724 C721 1.317 1_556 S
N724 N725 1.361 1_556 S
N725 C722 1.341 . S
N725 N724 1.361 1_554 S
N725 H745 0.862 1_554 S
C726 C721 1.501 . S
C726 H727 0.961 . S
C726 H728 0.961 . S
C726 H729 0.960 . S
H727 C726 0.961 . S
H728 C726 0.961 . S
H729 C726 0.960 . S
C730 N731 1.342 . S
C730 C734 1.401 . S
C730 C735 1.499 . S
N731 Co714 1.989 . S
N731 C730 1.342 . S
N731 N732 1.388 . S
N732 Co715 1.993 . S
N732 N731 1.388 . S
N732 C733 1.346 . S
C733 N732 1.346 . S
C733 C734 1.396 . S
C733 C743 1.553 . S
C734 C730 1.401 . S
C734 C733 1.396 . S
C735 C730 1.499 . S
C735 H736 0.959 . S
C735 H737 0.960 . S
C735 H738 0.961 . S
H736 C735 0.959 . S
H737 C735 0.960 . S
H738 C735 0.961 . S
O739 Co714 1.967 . S
O739 C747 1.258 . S
O740 Co715 1.941 . S
O740 C747 1.266 . S
H741 C743 0.966 . S
H742 C743 0.929 1_554 S
C743 C733 1.553 . S
C743 H741 0.966 . S
C743 H742 0.929 1_556 S
C743 H744 0.946 1_556 S
H744 C743 0.946 1_554 S
H745 N725 0.862 1_556 S
O746 Co714 1.920 . S
O746 C719 1.289 . S
C747 O739 1.258 . S
C747 O740 1.266 . S
Co748 O751 1.970 . S
Co748 N765 1.989 . S
Co748 O773 1.967 . S
Co748 O780 1.920 . S
Co749 O752 1.966 . S
Co749 N758 2.022 . S
Co749 N766 1.993 . S
Co749 O774 1.941 . S
C750 O751 1.258 . S
C750 O752 1.263 . S
O751 Co748 1.970 . S
O751 C750 1.258 . S
O752 Co749 1.966 . S
O752 C750 1.263 . S
C753 O754 1.235 . S
C753 O780 1.289 . S
O754 C753 1.235 . S
C755 C757 1.400 . S
C755 N758 1.351 . S
C755 C760 1.501 . S
C756 C757 1.387 . S
C756 N759 1.341 . S
C757 C755 1.400 . S
C757 C756 1.387 . S
N758 Co749 2.022 . S
N758 C755 1.351 . S
N758 N759 1.365 . S
N759 C756 1.341 . S
N759 N758 1.365 . S
N759 H779 0.862 . S
C760 C755 1.501 . S
C760 H761 0.961 . S
C760 H762 0.961 . S
C760 H763 0.960 . S
H761 C760 0.961 . S
H762 C760 0.961 . S
H763 C760 0.960 . S
C764 N765 1.342 . S
C764 C768 1.401 . S
C764 C769 1.499 . S
N765 Co748 1.989 . S
N765 C764 1.342 . S
N765 N766 1.388 . S
N766 Co749 1.993 . S
N766 N765 1.388 . S
N766 C767 1.346 . S
C767 N766 1.346 . S
C767 C768 1.396 . S
C767 C777 1.510 . S
C768 C764 1.401 . S
C768 C767 1.396 . S
C769 C764 1.499 . S
C769 H770 0.959 . S
C769 H771 0.960 . S
C769 H772 0.961 . S
H770 C769 0.959 . S
H771 C769 0.960 . S
H772 C769 0.961 . S
O773 Co748 1.967 . S
O773 C781 1.258 . S
O774 Co749 1.941 . S
O774 C781 1.266 . S
H775 C777 0.959 . S
H776 C777 0.961 . S
C777 C767 1.510 . S
C777 H775 0.959 . S
C777 H776 0.961 . S
C777 H778 0.960 . S
H778 C777 0.960 . S
H779 N759 0.862 . S
O780 Co748 1.920 . S
O780 C753 1.289 . S
C781 O773 1.258 . S
C781 O774 1.266 . S
Co782 O785 1.970 . S
Co782 N799 1.989 . S
Co782 O807 1.967 . S
Co782 O814 1.920 . S
Co783 O786 1.966 . S
Co783 N792 2.022 . S
Co783 N800 1.993 . S
Co783 O808 1.941 . S
C784 O785 1.258 . S
C784 O786 1.263 . S
O785 Co782 1.970 . S
O785 C784 1.258 . S
O786 Co783 1.966 . S
O786 C784 1.263 . S
C787 O788 1.235 . S
C787 O814 1.289 . S
O788 C787 1.235 . S
C789 C791 1.400 . S
C789 N792 1.351 . S
C789 C794 1.501 . S
C790 C791 1.387 . S
C790 N793 1.341 . S
C791 C789 1.400 . S
C791 C790 1.387 . S
N792 Co783 2.022 . S
N792 C789 1.351 . S
N792 N793 1.365 . S
N793 C790 1.341 . S
N793 N792 1.365 . S
N793 H813 0.862 . S
C794 C789 1.501 . S
C794 H795 0.961 . S
C794 H796 0.961 . S
C794 H797 0.960 . S
H795 C794 0.961 . S
H796 C794 0.961 . S
H797 C794 0.960 . S
C798 N799 1.342 . S
C798 C802 1.401 . S
C798 C803 1.499 . S
N799 Co782 1.989 . S
N799 C798 1.342 . S
N799 N800 1.388 . S
N800 Co783 1.993 . S
N800 N799 1.388 . S
N800 C801 1.346 . S
C801 N800 1.346 . S
C801 C802 1.396 . S
C801 C811 1.510 . S
C802 C798 1.401 . S
C802 C801 1.396 . S
C803 C798 1.499 . S
C803 H804 0.959 . S
C803 H805 0.960 . S
C803 H806 0.961 . S
H804 C803 0.959 . S
H805 C803 0.960 . S
H806 C803 0.961 . S
O807 Co782 1.967 . S
O807 C815 1.258 . S
O808 Co783 1.941 . S
O808 C815 1.266 . S
H809 C811 0.959 . S
H810 C811 0.961 . S
C811 C801 1.510 . S
C811 H809 0.959 . S
C811 H810 0.961 . S
C811 H812 0.960 . S
H812 C811 0.960 . S
H813 N793 0.862 . S
O814 Co782 1.920 . S
O814 C787 1.289 . S
C815 O807 1.258 . S
C815 O808 1.266 . S
Co816 O819 1.970 . S
Co816 N833 1.989 . S
Co816 O841 1.967 . S
Co816 O848 1.920 . S
Co817 O820 1.966 . S
Co817 N826 2.022 . S
Co817 N834 1.993 . S
Co817 O842 1.941 . S
C818 O819 1.258 . S
C818 O820 1.263 . S
O819 Co816 1.970 . S
O819 C818 1.258 . S
O820 Co817 1.966 . S
O820 C818 1.263 . S
C821 O822 1.235 . S
C821 O848 1.289 . S
O822 C821 1.235 . S
C823 C825 1.400 . S
C823 N826 1.351 . S
C823 C828 1.501 . S
C824 C825 1.387 . S
C824 N827 1.341 . S
C825 C823 1.400 . S
C825 C824 1.387 . S
N826 Co817 2.022 . S
N826 C823 1.351 . S
N826 N827 1.365 . S
N827 C824 1.341 . S
N827 N826 1.365 . S
N827 H847 0.862 . S
C828 C823 1.501 . S
C828 H829 0.961 . S
C828 H830 0.961 . S
C828 H831 0.960 . S
H829 C828 0.961 . S
H830 C828 0.961 . S
H831 C828 0.960 . S
C832 N833 1.342 . S
C832 C836 1.401 . S
C832 C837 1.499 . S
N833 Co816 1.989 . S
N833 C832 1.342 . S
N833 N834 1.388 . S
N834 Co817 1.993 . S
N834 N833 1.388 . S
N834 C835 1.346 . S
C835 N834 1.346 . S
C835 C836 1.396 . S
C835 C845 1.510 . S
C836 C832 1.401 . S
C836 C835 1.396 . S
C837 C832 1.499 . S
C837 H838 0.959 . S
C837 H839 0.960 . S
C837 H840 0.961 . S
H838 C837 0.959 . S
H839 C837 0.960 . S
H840 C837 0.961 . S
O841 Co816 1.967 . S
O841 C849 1.258 . S
O842 Co817 1.941 . S
O842 C849 1.266 . S
H843 C845 0.959 . S
H844 C845 0.961 . S
C845 C835 1.510 . S
C845 H843 0.959 . S
C845 H844 0.961 . S
C845 H846 0.960 . S
H846 C845 0.960 . S
H847 N827 0.862 . S
O848 Co816 1.920 . S
O848 C821 1.289 . S
C849 O841 1.258 . S
C849 O842 1.266 . S
Co850 O853 1.970 . S
Co850 N867 1.989 1_556 S
Co850 O875 1.967 . S
Co850 O882 1.920 . S
Co851 O854 1.966 . S
Co851 N860 2.022 . S
Co851 N868 1.993 . S
Co851 O876 1.941 . S
C852 O853 1.258 . S
C852 O854 1.263 . S
O853 Co850 1.970 . S
O853 C852 1.258 . S
O854 Co851 1.966 . S
O854 C852 1.263 . S
C855 O856 1.235 . S
C855 O882 1.289 . S
O856 C855 1.235 . S
C857 C859 1.400 . S
C857 N860 1.351 . S
C857 C862 1.501 . S
C858 C859 1.387 . S
C858 N861 1.341 . S
C859 C857 1.400 . S
C859 C858 1.387 . S
N860 Co851 2.022 . S
N860 C857 1.351 . S
N860 N861 1.365 . S
N861 C858 1.341 . S
N861 N860 1.365 . S
N861 H881 0.862 . S
C862 C857 1.501 . S
C862 H863 0.961 . S
C862 H864 0.961 . S
C862 H865 0.960 . S
H863 C862 0.961 . S
H864 C862 0.961 . S
H865 C862 0.960 . S
C866 N867 1.342 . S
C866 C870 1.401 . S
C866 C871 1.499 . S
N867 Co850 1.989 1_554 S
N867 C866 1.342 . S
N867 N868 1.388 1_554 S
N868 Co851 1.993 . S
N868 N867 1.388 1_556 S
N868 C869 1.346 1_556 S
C869 N868 1.346 1_554 S
C869 C870 1.396 . S
C869 C879 1.510 . S
C870 C866 1.401 . S
C870 C869 1.396 . S
C871 C866 1.499 . S
C871 H872 0.959 . S
C871 H873 0.960 . S
C871 H874 0.961 . S
H872 C871 0.959 . S
H873 C871 0.960 . S
H874 C871 0.961 . S
O875 Co850 1.967 . S
O875 C883 1.258 . S
O876 Co851 1.941 . S
O876 C883 1.266 . S
H877 C879 0.959 . S
H878 C879 0.961 . S
C879 C869 1.510 . S
C879 H877 0.959 . S
C879 H878 0.961 . S
C879 H880 0.960 . S
H880 C879 0.960 . S
H881 N861 0.862 . S
O882 Co850 1.920 . S
O882 C855 1.289 . S
C883 O875 1.258 . S
C883 O876 1.266 . S
Co884 O887 1.970 . S
Co884 N901 1.989 . S
Co884 O909 1.967 . S
Co884 O916 1.920 . S
Co885 O888 1.966 . S
Co885 N894 2.022 . S
Co885 N902 1.993 . S
Co885 O910 1.941 . S
C886 O887 1.258 . S
C886 O888 1.263 . S
O887 Co884 1.970 . S
O887 C886 1.258 . S
O888 Co885 1.966 . S
O888 C886 1.263 . S
C889 O890 1.235 . S
C889 O916 1.289 . S
O890 C889 1.235 . S
C891 C893 1.400 . S
C891 N894 1.351 . S
C891 C896 1.501 . S
C892 C893 1.387 . S
C892 N895 1.341 . S
C893 C891 1.400 . S
C893 C892 1.387 . S
N894 Co885 2.022 . S
N894 C891 1.351 . S
N894 N895 1.365 . S
N895 C892 1.341 . S
N895 N894 1.365 . S
N895 H915 0.862 . S
C896 C891 1.501 . S
C896 H897 0.961 . S
C896 H898 0.961 . S
C896 H899 0.960 . S
H897 C896 0.961 . S
H898 C896 0.961 . S
H899 C896 0.960 . S
C900 N901 1.342 . S
C900 C904 1.401 . S
C900 C905 1.499 . S
N901 Co884 1.989 . S
N901 C900 1.342 . S
N901 N902 1.388 . S
N902 Co885 1.993 . S
N902 N901 1.388 . S
N902 C903 1.346 . S
C903 N902 1.346 . S
C903 C904 1.396 . S
C903 C913 1.510 . S
C904 C900 1.401 . S
C904 C903 1.396 . S
C905 C900 1.499 . S
C905 H906 0.959 . S
C905 H907 0.960 . S
C905 H908 0.961 . S
H906 C905 0.959 . S
H907 C905 0.960 . S
H908 C905 0.961 . S
O909 Co884 1.967 . S
O909 C917 1.258 . S
O910 Co885 1.941 . S
O910 C917 1.266 . S
H911 C913 0.959 . S
H912 C913 0.961 . S
C913 C903 1.510 . S
C913 H911 0.959 . S
C913 H912 0.961 . S
C913 H914 0.960 . S
H914 C913 0.960 . S
H915 N895 0.862 . S
O916 Co884 1.920 . S
O916 C889 1.289 . S
C917 O909 1.258 . S
C917 O910 1.266 . S
Co918 O921 1.970 . S
Co918 N935 1.989 . S
Co918 O943 1.967 . S
Co918 O950 1.920 . S
Co919 O922 1.966 . S
Co919 N928 2.022 . S
Co919 N936 1.993 . S
Co919 O944 1.941 . S
C920 O921 1.258 . S
C920 O922 1.263 . S
O921 Co918 1.970 . S
O921 C920 1.258 . S
O922 Co919 1.966 . S
O922 C920 1.263 . S
C923 O924 1.235 . S
C923 O950 1.289 . S
O924 C923 1.235 . S
C925 C927 1.400 . S
C925 N928 1.351 . S
C925 C930 1.501 . S
C926 C927 1.387 . S
C926 N929 1.341 . S
C927 C925 1.400 . S
C927 C926 1.387 . S
N928 Co919 2.022 . S
N928 C925 1.351 . S
N928 N929 1.365 . S
N929 C926 1.341 . S
N929 N928 1.365 . S
N929 H949 0.862 . S
C930 C925 1.501 . S
C930 H931 0.961 . S
C930 H932 0.961 . S
C930 H933 0.960 . S
H931 C930 0.961 . S
H932 C930 0.961 . S
H933 C930 0.960 . S
C934 N935 1.342 . S
C934 C938 1.401 . S
C934 C939 1.499 . S
N935 Co918 1.989 . S
N935 C934 1.342 . S
N935 N936 1.388 . S
N936 Co919 1.993 . S
N936 N935 1.388 . S
N936 C937 1.346 . S
C937 N936 1.346 . S
C937 C938 1.396 . S
C937 C947 1.510 . S
C938 C934 1.401 . S
C938 C937 1.396 . S
C939 C934 1.499 . S
C939 H940 0.959 . S
C939 H941 0.960 . S
C939 H942 0.961 . S
H940 C939 0.959 . S
H941 C939 0.960 . S
H942 C939 0.961 . S
O943 Co918 1.967 . S
O943 C951 1.258 . S
O944 Co919 1.941 . S
O944 C951 1.266 . S
H945 C947 0.959 . S
H946 C947 0.961 . S
C947 C937 1.510 . S
C947 H945 0.959 . S
C947 H946 0.961 . S
C947 H948 0.960 . S
H948 C947 0.960 . S
H949 N929 0.862 . S
O950 Co918 1.920 . S
O950 C923 1.289 . S
C951 O943 1.258 . S
C951 O944 1.266 . S
Co952 O955 1.970 . S
Co952 N969 1.989 . S
Co952 O977 1.967 . S
Co952 O984 1.920 . S
Co953 O956 1.966 . S
Co953 N962 2.022 . S
Co953 N970 1.993 . S
Co953 O978 1.941 . S
C954 O955 1.258 . S
C954 O956 1.263 . S
O955 Co952 1.970 . S
O955 C954 1.258 . S
O956 Co953 1.966 . S
O956 C954 1.263 . S
C957 O958 1.235 . S
C957 O984 1.289 . S
O958 C957 1.235 . S
C959 C961 1.400 . S
C959 N962 1.351 . S
C959 C964 1.501 . S
C960 C961 1.387 . S
C960 N963 1.341 . S
C961 C959 1.400 . S
C961 C960 1.387 . S
N962 Co953 2.022 . S
N962 C959 1.351 . S
N962 N963 1.365 . S
N963 C960 1.341 . S
N963 N962 1.365 . S
N963 H983 0.862 . S
C964 C959 1.501 . S
C964 H965 0.961 . S
C964 H966 0.961 . S
C964 H967 0.960 . S
H965 C964 0.961 . S
H966 C964 0.961 . S
H967 C964 0.960 . S
C968 N969 1.342 . S
C968 C972 1.401 . S
C968 C973 1.499 . S
N969 Co952 1.989 . S
N969 C968 1.342 . S
N969 N970 1.388 . S
N970 Co953 1.993 . S
N970 N969 1.388 . S
N970 C971 1.346 . S
C971 N970 1.346 . S
C971 C972 1.396 . S
C971 C981 1.510 . S
C972 C968 1.401 . S
C972 C971 1.396 . S
C973 C968 1.499 . S
C973 H974 0.959 . S
C973 H975 0.960 . S
C973 H976 0.961 . S
H974 C973 0.959 . S
H975 C973 0.960 . S
H976 C973 0.961 . S
O977 Co952 1.967 . S
O977 C985 1.258 . S
O978 Co953 1.941 . S
O978 C985 1.266 . S
H979 C981 0.959 . S
H980 C981 0.961 . S
C981 C971 1.510 . S
C981 H979 0.959 . S
C981 H980 0.961 . S
C981 H982 0.960 . S
H982 C981 0.960 . S
H983 N963 0.862 . S
O984 Co952 1.920 . S
O984 C957 1.289 . S
C985 O977 1.258 . S
C985 O978 1.266 . S
Co986 O989 1.970 . S
Co986 N1003 1.989 1_554 S
Co986 O1011 1.967 . S
Co986 O1018 1.920 . S
Co987 O990 1.966 . S
Co987 N996 2.022 . S
Co987 N1004 1.993 . S
Co987 O1012 1.941 . S
C988 O989 1.258 . S
C988 O990 1.263 . S
O989 Co986 1.970 . S
O989 C988 1.258 . S
O990 Co987 1.966 . S
O990 C988 1.263 . S
C991 O992 1.235 . S
C991 O1018 1.289 . S
O992 C991 1.235 . S
C993 C995 1.400 . S
C993 N996 1.351 . S
C993 C998 1.501 . S
C994 C995 1.387 . S
C994 N997 1.341 . S
C995 C993 1.400 . S
C995 C994 1.387 . S
N996 Co987 2.022 . S
N996 C993 1.351 . S
N996 N997 1.365 . S
N997 C994 1.341 . S
N997 N996 1.365 . S
N997 H1017 0.862 . S
C998 C993 1.501 . S
C998 H999 0.961 . S
C998 H1000 0.961 . S
C998 H1001 0.960 . S
H999 C998 0.961 . S
H1000 C998 0.961 . S
H1001 C998 0.960 . S
C1002 N1003 1.342 . S
C1002 C1006 1.401 . S
C1002 C1007 1.499 . S
N1003 Co986 1.989 1_556 S
N1003 C1002 1.342 . S
N1003 N1004 1.388 1_556 S
N1004 Co987 1.993 . S
N1004 N1003 1.388 1_554 S
N1004 C1005 1.346 1_554 S
C1005 N1004 1.346 1_556 S
C1005 C1006 1.396 . S
C1005 C1015 1.510 . S
C1006 C1002 1.401 . S
C1006 C1005 1.396 . S
C1007 C1002 1.499 . S
C1007 H1008 0.959 . S
C1007 H1009 0.960 . S
C1007 H1010 0.961 . S
H1008 C1007 0.959 . S
H1009 C1007 0.960 . S
H1010 C1007 0.961 . S
O1011 Co986 1.967 . S
O1011 C1019 1.258 . S
O1012 Co987 1.941 . S
O1012 C1019 1.266 . S
H1013 C1015 0.959 . S
H1014 C1015 0.961 . S
C1015 C1005 1.510 . S
C1015 H1013 0.959 . S
C1015 H1014 0.961 . S
C1015 H1016 0.960 . S
H1016 C1015 0.960 . S
H1017 N997 0.862 . S
O1018 Co986 1.920 . S
O1018 C991 1.289 . S
C1019 O1011 1.258 . S
C1019 O1012 1.266 . S
Co1020 O1023 1.970 . S
Co1020 N1037 1.989 . S
Co1020 O1045 1.967 . S
Co1020 O1052 1.920 . S
Co1021 O1024 1.966 . S
Co1021 N1030 2.022 . S
Co1021 N1038 1.993 . S
Co1021 O1046 1.941 . S
C1022 O1023 1.258 . S
C1022 O1024 1.263 . S
O1023 Co1020 1.970 . S
O1023 C1022 1.258 . S
O1024 Co1021 1.966 . S
O1024 C1022 1.263 . S
C1025 O1026 1.235 . S
C1025 O1052 1.289 . S
O1026 C1025 1.235 . S
C1027 C1029 1.400 . S
C1027 N1030 1.351 . S
C1027 C1032 1.501 . S
C1028 C1029 1.387 . S
C1028 N1031 1.341 . S
C1029 C1027 1.400 . S
C1029 C1028 1.387 . S
N1030 Co1021 2.022 . S
N1030 C1027 1.351 . S
N1030 N1031 1.365 . S
N1031 C1028 1.341 . S
N1031 N1030 1.365 . S
N1031 H1051 0.862 . S
C1032 C1027 1.501 . S
C1032 H1033 0.961 . S
C1032 H1034 0.961 . S
C1032 H1035 0.960 . S
H1033 C1032 0.961 . S
H1034 C1032 0.961 . S
H1035 C1032 0.960 . S
C1036 N1037 1.342 . S
C1036 C1040 1.401 . S
C1036 C1041 1.499 . S
N1037 Co1020 1.989 . S
N1037 C1036 1.342 . S
N1037 N1038 1.388 . S
N1038 Co1021 1.993 . S
N1038 N1037 1.388 . S
N1038 C1039 1.346 . S
C1039 N1038 1.346 . S
C1039 C1040 1.396 . S
C1039 C1049 1.510 . S
C1040 C1036 1.401 . S
C1040 C1039 1.396 . S
C1041 C1036 1.499 . S
C1041 H1042 0.959 . S
C1041 H1043 0.960 . S
C1041 H1044 0.961 . S
H1042 C1041 0.959 . S
H1043 C1041 0.960 . S
H1044 C1041 0.961 . S
O1045 Co1020 1.967 . S
O1045 C1053 1.258 . S
O1046 Co1021 1.941 . S
O1046 C1053 1.266 . S
H1047 C1049 0.959 . S
H1048 C1049 0.961 . S
C1049 C1039 1.510 . S
C1049 H1047 0.959 . S
C1049 H1048 0.961 . S
C1049 H1050 0.960 . S
H1050 C1049 0.960 . S
H1051 N1031 0.862 . S
O1052 Co1020 1.920 . S
O1052 C1025 1.289 . S
C1053 O1045 1.258 . S
C1053 O1046 1.266 . S
Co1054 O1057 1.970 . S
Co1054 N1071 1.989 . S
Co1054 O1079 1.967 . S
Co1054 O1086 1.920 . S
Co1055 O1058 1.966 . S
Co1055 N1064 2.022 . S
Co1055 N1072 1.993 . S
Co1055 O1080 1.941 . S
C1056 O1057 1.258 . S
C1056 O1058 1.263 . S
O1057 Co1054 1.970 . S
O1057 C1056 1.258 . S
O1058 Co1055 1.966 . S
O1058 C1056 1.263 . S
C1059 O1060 1.235 . S
C1059 O1086 1.289 . S
O1060 C1059 1.235 . S
C1061 C1063 1.400 . S
C1061 N1064 1.351 . S
C1061 C1066 1.501 . S
C1062 C1063 1.387 . S
C1062 N1065 1.341 . S
C1063 C1061 1.400 . S
C1063 C1062 1.387 . S
N1064 Co1055 2.022 . S
N1064 C1061 1.351 . S
N1064 N1065 1.365 . S
N1065 C1062 1.341 . S
N1065 N1064 1.365 . S
N1065 H1085 0.862 . S
C1066 C1061 1.501 . S
C1066 H1067 0.961 . S
C1066 H1068 0.961 . S
C1066 H1069 0.960 . S
H1067 C1066 0.961 . S
H1068 C1066 0.961 . S
H1069 C1066 0.960 . S
C1070 N1071 1.342 . S
C1070 C1074 1.401 . S
C1070 C1075 1.499 . S
N1071 Co1054 1.989 . S
N1071 C1070 1.342 . S
N1071 N1072 1.388 . S
N1072 Co1055 1.993 . S
N1072 N1071 1.388 . S
N1072 C1073 1.346 . S
C1073 N1072 1.346 . S
C1073 C1074 1.396 . S
C1073 C1083 1.510 . S
C1074 C1070 1.401 . S
C1074 C1073 1.396 . S
C1075 C1070 1.499 . S
C1075 H1076 0.959 . S
C1075 H1077 0.960 . S
C1075 H1078 0.961 . S
H1076 C1075 0.959 . S
H1077 C1075 0.960 . S
H1078 C1075 0.961 . S
O1079 Co1054 1.967 . S
O1079 C1087 1.258 . S
O1080 Co1055 1.941 . S
O1080 C1087 1.266 . S
H1081 C1083 0.959 . S
H1082 C1083 0.961 . S
C1083 C1073 1.510 . S
C1083 H1081 0.959 . S
C1083 H1082 0.961 . S
C1083 H1084 0.960 . S
H1084 C1083 0.960 . S
H1085 N1065 0.862 . S
O1086 Co1054 1.920 . S
O1086 C1059 1.289 . S
C1087 O1079 1.258 . S
C1087 O1080 1.266 . S
C1088 C1089 1.349 . S
C1088 C1090 1.327 . S
C1088 H1113 0.950 . S
C1089 C1088 1.349 . S
C1089 C1105 1.349 . S
C1090 C1088 1.327 . S
C1090 C1109 1.429 . S
C1090 H1114 0.950 . S
C1091 C1108 1.574 . S
C1091 C1110 1.368 . S
C1091 H1115 0.949 . S
H1092 C1096 0.949 . S
C1093 C1094 1.349 . S
C1093 C1095 1.327 . S
C1093 H1116 0.950 . S
C1094 C1093 1.349 . S
C1094 C1106 1.349 . S
C1095 C1093 1.327 . S
C1095 C1111 1.429 . S
C1095 H1117 0.950 . S
C1096 H1092 0.949 . S
C1096 C1104 1.574 . S
C1096 C1112 1.368 . S
H1097 C1105 0.950 . S
H1098 C1103 0.950 . S
H1099 C1104 0.949 . S
H1100 C1106 0.950 . S
H1101 C1107 0.950 . S
H1102 C1108 0.949 . S
C1103 H1098 0.950 . S
C1103 C1105 1.327 . S
C1103 C1109 1.429 . S
C1104 C1096 1.574 . S
C1104 H1099 0.949 . S
C1104 C1110 1.368 . S
C1105 C1089 1.349 . S
C1105 H1097 0.950 . S
C1105 C1103 1.327 . S
C1106 C1094 1.349 . S
C1106 H1100 0.950 . S
C1106 C1107 1.327 . S
C1107 H1101 0.950 . S
C1107 C1106 1.327 . S
C1107 C1111 1.429 . S
C1108 C1091 1.574 . S
C1108 H1102 0.949 . S
C1108 C1112 1.368 . S
C1109 C1090 1.429 . S
C1109 C1103 1.429 . S
C1109 C1110 1.523 . S
C1110 C1091 1.368 . S
C1110 C1104 1.368 . S
C1110 C1109 1.523 . S
C1111 C1095 1.429 . S
C1111 C1107 1.429 . S
C1111 C1112 1.523 . S
C1112 C1096 1.368 . S
C1112 C1108 1.368 . S
C1112 C1111 1.523 . S
H1113 C1088 0.950 . S
H1114 C1090 0.950 . S
H1115 C1091 0.949 . S
H1116 C1093 0.950 . S
H1117 C1095 0.950 . S
C1118 C1119 1.349 . S
C1118 C1120 1.327 . S
C1118 H1143 0.950 . S
C1119 C1118 1.349 . S
C1119 C1135 1.349 . S
C1120 C1118 1.327 . S
C1120 C1139 1.429 . S
C1120 H1144 0.950 . S
C1121 C1138 1.574 . S
C1121 C1140 1.368 . S
C1121 H1145 0.949 . S
H1122 C1126 0.949 . S
C1123 C1124 1.349 . S
C1123 C1125 1.327 . S
C1123 H1146 0.950 . S
C1124 C1123 1.349 . S
C1124 C1136 1.349 . S
C1125 C1123 1.327 . S
C1125 C1141 1.429 . S
C1125 H1147 0.950 . S
C1126 H1122 0.949 . S
C1126 C1134 1.574 . S
C1126 C1142 1.368 . S
H1127 C1135 0.950 . S
H1128 C1133 0.950 . S
H1129 C1134 0.949 . S
H1130 C1136 0.950 . S
H1131 C1137 0.950 . S
H1132 C1138 0.949 . S
C1133 H1128 0.950 . S
C1133 C1135 1.327 . S
C1133 C1139 1.429 . S
C1134 C1126 1.574 . S
C1134 H1129 0.949 . S
C1134 C1140 1.368 . S
C1135 C1119 1.349 . S
C1135 H1127 0.950 . S
C1135 C1133 1.327 . S
C1136 C1124 1.349 . S
C1136 H1130 0.950 . S
C1136 C1137 1.327 . S
C1137 H1131 0.950 . S
C1137 C1136 1.327 . S
C1137 C1141 1.429 . S
C1138 C1121 1.574 . S
C1138 H1132 0.949 . S
C1138 C1142 1.368 . S
C1139 C1120 1.429 . S
C1139 C1133 1.429 . S
C1139 C1140 1.523 . S
C1140 C1121 1.368 . S
C1140 C1134 1.368 . S
C1140 C1139 1.523 . S
C1141 C1125 1.429 . S
C1141 C1137 1.429 . S
C1141 C1142 1.523 . S
C1142 C1126 1.368 . S
C1142 C1138 1.368 . S
C1142 C1141 1.523 . S
H1143 C1118 0.950 . S
H1144 C1120 0.950 . S
H1145 C1121 0.949 . S
H1146 C1123 0.950 . S
H1147 C1125 0.950 . S
C1148 C1149 1.349 . S
C1148 C1150 1.327 . S
C1148 H1173 0.950 . S
C1149 C1148 1.349 . S
C1149 C1165 1.349 . S
C1150 C1148 1.327 . S
C1150 C1169 1.429 . S
C1150 H1174 0.950 . S
C1151 C1168 1.574 . S
C1151 C1170 1.368 . S
C1151 H1175 0.949 . S
H1152 C1156 0.949 . S
C1153 C1154 1.349 . S
C1153 C1155 1.327 . S
C1153 H1176 0.950 . S
C1154 C1153 1.349 . S
C1154 C1166 1.349 . S
C1155 C1153 1.327 . S
C1155 C1171 1.429 . S
C1155 H1177 0.950 . S
C1156 H1152 0.949 . S
C1156 C1164 1.574 . S
C1156 C1172 1.368 . S
H1157 C1165 0.950 . S
H1158 C1163 0.950 . S
H1159 C1164 0.949 . S
H1160 C1166 0.950 . S
H1161 C1167 0.950 . S
H1162 C1168 0.949 . S
C1163 H1158 0.950 . S
C1163 C1165 1.327 . S
C1163 C1169 1.429 . S
C1164 C1156 1.574 . S
C1164 H1159 0.949 . S
C1164 C1170 1.368 . S
C1165 C1149 1.349 . S
C1165 H1157 0.950 . S
C1165 C1163 1.327 . S
C1166 C1154 1.349 . S
C1166 H1160 0.950 . S
C1166 C1167 1.327 . S
C1167 H1161 0.950 . S
C1167 C1166 1.327 . S
C1167 C1171 1.429 . S
C1168 C1151 1.574 . S
C1168 H1162 0.949 . S
C1168 C1172 1.368 . S
C1169 C1150 1.429 . S
C1169 C1163 1.429 . S
C1169 C1170 1.523 . S
C1170 C1151 1.368 . S
C1170 C1164 1.368 . S
C1170 C1169 1.523 . S
C1171 C1155 1.429 . S
C1171 C1167 1.429 . S
C1171 C1172 1.523 . S
C1172 C1156 1.368 . S
C1172 C1168 1.368 . S
C1172 C1171 1.523 . S
H1173 C1148 0.950 . S
H1174 C1150 0.950 . S
H1175 C1151 0.949 . S
H1176 C1153 0.950 . S
H1177 C1155 0.950 . S
C1178 C1179 1.349 . S
C1178 C1180 1.327 . S
C1178 H1203 0.950 . S
C1179 C1178 1.349 . S
C1179 C1195 1.349 . S
C1180 C1178 1.327 . S
C1180 C1199 1.429 . S
C1180 H1204 0.950 . S
C1181 C1198 1.574 . S
C1181 C1200 1.368 . S
C1181 H1205 0.949 . S
H1182 C1186 0.949 . S
C1183 C1184 1.349 . S
C1183 C1185 1.327 . S
C1183 H1206 0.950 . S
C1184 C1183 1.349 . S
C1184 C1196 1.349 . S
C1185 C1183 1.327 . S
C1185 C1201 1.429 . S
C1185 H1207 0.950 . S
C1186 H1182 0.949 . S
C1186 C1194 1.574 . S
C1186 C1202 1.368 . S
H1187 C1195 0.950 . S
H1188 C1193 0.950 . S
H1189 C1194 0.949 . S
H1190 C1196 0.950 . S
H1191 C1197 0.950 . S
H1192 C1198 0.949 . S
C1193 H1188 0.950 . S
C1193 C1195 1.327 . S
C1193 C1199 1.429 . S
C1194 C1186 1.574 . S
C1194 H1189 0.949 . S
C1194 C1200 1.368 . S
C1195 C1179 1.349 . S
C1195 H1187 0.950 . S
C1195 C1193 1.327 . S
C1196 C1184 1.349 . S
C1196 H1190 0.950 . S
C1196 C1197 1.327 . S
C1197 H1191 0.950 . S
C1197 C1196 1.327 . S
C1197 C1201 1.429 . S
C1198 C1181 1.574 . S
C1198 H1192 0.949 . S
C1198 C1202 1.368 . S
C1199 C1180 1.429 . S
C1199 C1193 1.429 . S
C1199 C1200 1.523 . S
C1200 C1181 1.368 . S
C1200 C1194 1.368 . S
C1200 C1199 1.523 . S
C1201 C1185 1.429 . S
C1201 C1197 1.429 . S
C1201 C1202 1.523 . S
C1202 C1186 1.368 . S
C1202 C1198 1.368 . S
C1202 C1201 1.523 . S
H1203 C1178 0.950 . S
H1204 C1180 0.950 . S
H1205 C1181 0.949 . S
H1206 C1183 0.950 . S
H1207 C1185 0.950 . S
C1208 C1209 1.349 . S
C1208 C1210 1.327 . S
C1208 H1233 0.950 . S
C1209 C1208 1.349 . S
C1209 C1225 1.349 . S
C1210 C1208 1.327 . S
C1210 C1229 1.429 . S
C1210 H1234 0.950 . S
C1211 C1228 1.574 . S
C1211 C1230 1.368 . S
C1211 H1235 0.949 . S
H1212 C1216 0.949 . S
C1213 C1214 1.349 . S
C1213 C1215 1.327 . S
C1213 H1236 0.950 . S
C1214 C1213 1.349 . S
C1214 C1226 1.349 . S
C1215 C1213 1.327 . S
C1215 C1231 1.429 . S
C1215 H1237 0.950 . S
C1216 H1212 0.949 . S
C1216 C1224 1.574 . S
C1216 C1232 1.368 . S
H1217 C1225 0.950 . S
H1218 C1223 0.950 . S
H1219 C1224 0.949 . S
H1220 C1226 0.950 . S
H1221 C1227 0.950 . S
H1222 C1228 0.949 . S
C1223 H1218 0.950 . S
C1223 C1225 1.327 . S
C1223 C1229 1.429 . S
C1224 C1216 1.574 . S
C1224 H1219 0.949 . S
C1224 C1230 1.368 . S
C1225 C1209 1.349 . S
C1225 H1217 0.950 . S
C1225 C1223 1.327 . S
C1226 C1214 1.349 . S
C1226 H1220 0.950 . S
C1226 C1227 1.327 . S
C1227 H1221 0.950 . S
C1227 C1226 1.327 . S
C1227 C1231 1.429 . S
C1228 C1211 1.574 . S
C1228 H1222 0.949 . S
C1228 C1232 1.368 . S
C1229 C1210 1.429 . S
C1229 C1223 1.429 . S
C1229 C1230 1.523 . S
C1230 C1211 1.368 . S
C1230 C1224 1.368 . S
C1230 C1229 1.523 . S
C1231 C1215 1.429 . S
C1231 C1227 1.429 . S
C1231 C1232 1.523 . S
C1232 C1216 1.368 . S
C1232 C1228 1.368 . S
C1232 C1231 1.523 . S
H1233 C1208 0.950 . S
H1234 C1210 0.950 . S
H1235 C1211 0.949 . S
H1236 C1213 0.950 . S
H1237 C1215 0.950 . S
C1238 C1239 1.349 . S
C1238 C1240 1.327 . S
C1238 H1263 0.950 . S
C1239 C1238 1.349 . S
C1239 C1255 1.349 . S
C1240 C1238 1.327 . S
C1240 C1259 1.429 . S
C1240 H1264 0.950 . S
C1241 C1258 1.574 . S
C1241 C1260 1.368 . S
C1241 H1265 0.949 . S
H1242 C1246 0.949 . S
C1243 C1244 1.349 . S
C1243 C1245 1.327 . S
C1243 H1266 0.950 . S
C1244 C1243 1.349 . S
C1244 C1256 1.349 . S
C1245 C1243 1.327 . S
C1245 C1261 1.429 . S
C1245 H1267 0.950 . S
C1246 H1242 0.949 . S
C1246 C1254 1.574 . S
C1246 C1262 1.368 . S
H1247 C1255 0.950 . S
H1248 C1253 0.950 . S
H1249 C1254 0.949 . S
H1250 C1256 0.950 . S
H1251 C1257 0.950 . S
H1252 C1258 0.949 . S
C1253 H1248 0.950 . S
C1253 C1255 1.327 . S
C1253 C1259 1.429 . S
C1254 C1246 1.574 . S
C1254 H1249 0.949 . S
C1254 C1260 1.368 . S
C1255 C1239 1.349 . S
C1255 H1247 0.950 . S
C1255 C1253 1.327 . S
C1256 C1244 1.349 . S
C1256 H1250 0.950 . S
C1256 C1257 1.327 . S
C1257 H1251 0.950 . S
C1257 C1256 1.327 . S
C1257 C1261 1.429 . S
C1258 C1241 1.574 . S
C1258 H1252 0.949 . S
C1258 C1262 1.368 . S
C1259 C1240 1.429 . S
C1259 C1253 1.429 . S
C1259 C1260 1.523 . S
C1260 C1241 1.368 . S
C1260 C1254 1.368 . S
C1260 C1259 1.523 . S
C1261 C1245 1.429 . S
C1261 C1257 1.429 . S
C1261 C1262 1.523 . S
C1262 C1246 1.368 . S
C1262 C1258 1.368 . S
C1262 C1261 1.523 . S
H1263 C1238 0.950 . S
H1264 C1240 0.950 . S
H1265 C1241 0.949 . S
H1266 C1243 0.950 . S
H1267 C1245 0.950 . S
C1268 C1269 1.349 . S
C1268 C1270 1.327 . S
C1268 H1293 0.950 . S
C1269 C1268 1.349 . S
C1269 C1285 1.349 . S
C1270 C1268 1.327 . S
C1270 C1289 1.429 . S
C1270 H1294 0.950 . S
C1271 C1288 1.574 . S
C1271 C1290 1.368 . S
C1271 H1295 0.949 . S
H1272 C1276 0.949 . S
C1273 C1274 1.349 . S
C1273 C1275 1.327 . S
C1273 H1296 0.950 . S
C1274 C1273 1.349 . S
C1274 C1286 1.349 . S
C1275 C1273 1.327 . S
C1275 C1291 1.429 . S
C1275 H1297 0.950 . S
C1276 H1272 0.949 . S
C1276 C1284 1.574 . S
C1276 C1292 1.368 . S
H1277 C1285 0.950 . S
H1278 C1283 0.950 . S
H1279 C1284 0.949 . S
H1280 C1286 0.950 . S
H1281 C1287 0.950 . S
H1282 C1288 0.949 . S
C1283 H1278 0.950 . S
C1283 C1285 1.327 . S
C1283 C1289 1.429 . S
C1284 C1276 1.574 . S
C1284 H1279 0.949 . S
C1284 C1290 1.368 . S
C1285 C1269 1.349 . S
C1285 H1277 0.950 . S
C1285 C1283 1.327 . S
C1286 C1274 1.349 . S
C1286 H1280 0.950 . S
C1286 C1287 1.327 . S
C1287 H1281 0.950 . S
C1287 C1286 1.327 . S
C1287 C1291 1.429 . S
C1288 C1271 1.574 . S
C1288 H1282 0.949 . S
C1288 C1292 1.368 . S
C1289 C1270 1.429 . S
C1289 C1283 1.429 . S
C1289 C1290 1.523 . S
C1290 C1271 1.368 . S
C1290 C1284 1.368 . S
C1290 C1289 1.523 . S
C1291 C1275 1.429 . S
C1291 C1287 1.429 . S
C1291 C1292 1.523 . S
C1292 C1276 1.368 . S
C1292 C1288 1.368 . S
C1292 C1291 1.523 . S
H1293 C1268 0.950 . S
H1294 C1270 0.950 . S
H1295 C1271 0.949 . S
H1296 C1273 0.950 . S
H1297 C1275 0.950 . S
C1298 C1299 1.349 . S
C1298 C1300 1.327 . S
C1298 H1323 0.950 . S
C1299 C1298 1.349 . S
C1299 C1315 1.349 . S
C1300 C1298 1.327 . S
C1300 C1319 1.429 . S
C1300 H1324 0.950 . S
C1301 C1318 1.574 . S
C1301 C1320 1.368 . S
C1301 H1325 0.949 . S
H1302 C1306 0.949 . S
C1303 C1304 1.349 . S
C1303 C1305 1.327 . S
C1303 H1326 0.950 . S
C1304 C1303 1.349 . S
C1304 C1316 1.349 . S
C1305 C1303 1.327 . S
C1305 C1321 1.429 . S
C1305 H1327 0.950 . S
C1306 H1302 0.949 . S
C1306 C1314 1.574 . S
C1306 C1322 1.368 . S
H1307 C1315 0.950 . S
H1308 C1313 0.950 . S
H1309 C1314 0.949 . S
H1310 C1316 0.950 . S
H1311 C1317 0.950 . S
H1312 C1318 0.949 . S
C1313 H1308 0.950 . S
C1313 C1315 1.327 . S
C1313 C1319 1.429 . S
C1314 C1306 1.574 . S
C1314 H1309 0.949 . S
C1314 C1320 1.368 . S
C1315 C1299 1.349 . S
C1315 H1307 0.950 . S
C1315 C1313 1.327 . S
C1316 C1304 1.349 . S
C1316 H1310 0.950 . S
C1316 C1317 1.327 . S
C1317 H1311 0.950 . S
C1317 C1316 1.327 . S
C1317 C1321 1.429 . S
C1318 C1301 1.574 . S
C1318 H1312 0.949 . S
C1318 C1322 1.368 . S
C1319 C1300 1.429 . S
C1319 C1313 1.429 . S
C1319 C1320 1.523 . S
C1320 C1301 1.368 . S
C1320 C1314 1.368 . S
C1320 C1319 1.523 . S
C1321 C1305 1.429 . S
C1321 C1317 1.429 . S
C1321 C1322 1.523 . S
C1322 C1306 1.368 . S
C1322 C1318 1.368 . S
C1322 C1321 1.523 . S
H1323 C1298 0.950 . S
H1324 C1300 0.950 . S
H1325 C1301 0.949 . S
H1326 C1303 0.950 . S
H1327 C1305 0.950 . S
C1328 C1329 1.349 . S
C1328 C1330 1.327 . S
C1328 H1353 0.950 . S
C1329 C1328 1.349 . S
C1329 C1345 1.349 . S
C1330 C1328 1.327 . S
C1330 C1349 1.429 . S
C1330 H1354 0.950 . S
C1331 C1348 1.574 . S
C1331 C1350 1.368 . S
C1331 H1355 0.949 . S
H1332 C1336 0.949 . S
C1333 C1334 1.349 . S
C1333 C1335 1.327 . S
C1333 H1356 0.950 . S
C1334 C1333 1.349 . S
C1334 C1346 1.349 . S
C1335 C1333 1.327 . S
C1335 C1351 1.429 . S
C1335 H1357 0.950 . S
C1336 H1332 0.949 . S
C1336 C1344 1.574 . S
C1336 C1352 1.368 . S
H1337 C1345 0.950 . S
H1338 C1343 0.950 . S
H1339 C1344 0.949 . S
H1340 C1346 0.950 . S
H1341 C1347 0.950 . S
H1342 C1348 0.949 . S
C1343 H1338 0.950 . S
C1343 C1345 1.327 . S
C1343 C1349 1.429 . S
C1344 C1336 1.574 . S
C1344 H1339 0.949 . S
C1344 C1350 1.368 . S
C1345 C1329 1.349 . S
C1345 H1337 0.950 . S
C1345 C1343 1.327 . S
C1346 C1334 1.349 . S
C1346 H1340 0.950 . S
C1346 C1347 1.327 . S
C1347 H1341 0.950 . S
C1347 C1346 1.327 . S
C1347 C1351 1.429 . S
C1348 C1331 1.574 . S
C1348 H1342 0.949 . S
C1348 C1352 1.368 . S
C1349 C1330 1.429 . S
C1349 C1343 1.429 . S
C1349 C1350 1.523 . S
C1350 C1331 1.368 . S
C1350 C1344 1.368 . S
C1350 C1349 1.523 . S
C1351 C1335 1.429 . S
C1351 C1347 1.429 . S
C1351 C1352 1.523 . S
C1352 C1336 1.368 . S
C1352 C1348 1.368 . S
C1352 C1351 1.523 . S
H1353 C1328 0.950 . S
H1354 C1330 0.950 . S
H1355 C1331 0.949 . S
H1356 C1333 0.950 . S
H1357 C1335 0.950 . S
C1358 C1359 1.349 . S
C1358 C1360 1.327 . S
C1358 H1383 0.950 . S
C1359 C1358 1.349 . S
C1359 C1375 1.349 . S
C1360 C1358 1.327 . S
C1360 C1379 1.429 . S
C1360 H1384 0.950 . S
C1361 C1378 1.574 . S
C1361 C1380 1.368 . S
C1361 H1385 0.949 . S
H1362 C1366 0.949 . S
C1363 C1364 1.349 . S
C1363 C1365 1.327 . S
C1363 H1386 0.950 . S
C1364 C1363 1.349 . S
C1364 C1376 1.349 . S
C1365 C1363 1.327 . S
C1365 C1381 1.429 . S
C1365 H1387 0.950 . S
C1366 H1362 0.949 . S
C1366 C1374 1.574 . S
C1366 C1382 1.368 . S
H1367 C1375 0.950 . S
H1368 C1373 0.950 . S
H1369 C1374 0.949 . S
H1370 C1376 0.950 . S
H1371 C1377 0.950 . S
H1372 C1378 0.949 . S
C1373 H1368 0.950 . S
C1373 C1375 1.327 . S
C1373 C1379 1.429 . S
C1374 C1366 1.574 . S
C1374 H1369 0.949 . S
C1374 C1380 1.368 . S
C1375 C1359 1.349 . S
C1375 H1367 0.950 . S
C1375 C1373 1.327 . S
C1376 C1364 1.349 . S
C1376 H1370 0.950 . S
C1376 C1377 1.327 . S
C1377 H1371 0.950 . S
C1377 C1376 1.327 . S
C1377 C1381 1.429 . S
C1378 C1361 1.574 . S
C1378 H1372 0.949 . S
C1378 C1382 1.368 . S
C1379 C1360 1.429 . S
C1379 C1373 1.429 . S
C1379 C1380 1.523 . S
C1380 C1361 1.368 . S
C1380 C1374 1.368 . S
C1380 C1379 1.523 . S
C1381 C1365 1.429 . S
C1381 C1377 1.429 . S
C1381 C1382 1.523 . S
C1382 C1366 1.368 . S
C1382 C1378 1.368 . S
C1382 C1381 1.523 . S
H1383 C1358 0.950 . S
H1384 C1360 0.950 . S
H1385 C1361 0.949 . S
H1386 C1363 0.950 . S
H1387 C1365 0.950 . S
C1388 C1389 1.349 . S
C1388 C1390 1.327 . S
C1388 H1413 0.950 . S
C1389 C1388 1.349 . S
C1389 C1405 1.349 . S
C1390 C1388 1.327 . S
C1390 C1409 1.429 . S
C1390 H1414 0.950 . S
C1391 C1408 1.574 . S
C1391 C1410 1.368 . S
C1391 H1415 0.949 . S
H1392 C1396 0.949 . S
C1393 C1394 1.349 . S
C1393 C1395 1.327 . S
C1393 H1416 0.950 . S
C1394 C1393 1.349 . S
C1394 C1406 1.349 . S
C1395 C1393 1.327 . S
C1395 C1411 1.429 . S
C1395 H1417 0.950 . S
C1396 H1392 0.949 . S
C1396 C1404 1.574 . S
C1396 C1412 1.368 . S
H1397 C1405 0.950 . S
H1398 C1403 0.950 . S
H1399 C1404 0.949 . S
H1400 C1406 0.950 . S
H1401 C1407 0.950 . S
H1402 C1408 0.949 . S
C1403 H1398 0.950 . S
C1403 C1405 1.327 . S
C1403 C1409 1.429 . S
C1404 C1396 1.574 . S
C1404 H1399 0.949 . S
C1404 C1410 1.368 . S
C1405 C1389 1.349 . S
C1405 H1397 0.950 . S
C1405 C1403 1.327 . S
C1406 C1394 1.349 . S
C1406 H1400 0.950 . S
C1406 C1407 1.327 . S
C1407 H1401 0.950 . S
C1407 C1406 1.327 . S
C1407 C1411 1.429 . S
C1408 C1391 1.574 . S
C1408 H1402 0.949 . S
C1408 C1412 1.368 . S
C1409 C1390 1.429 . S
C1409 C1403 1.429 . S
C1409 C1410 1.523 . S
C1410 C1391 1.368 . S
C1410 C1404 1.368 . S
C1410 C1409 1.523 . S
C1411 C1395 1.429 . S
C1411 C1407 1.429 . S
C1411 C1412 1.523 . S
C1412 C1396 1.368 . S
C1412 C1408 1.368 . S
C1412 C1411 1.523 . S
H1413 C1388 0.950 . S
H1414 C1390 0.950 . S
H1415 C1391 0.949 . S
H1416 C1393 0.950 . S
H1417 C1395 0.950 . S
C1418 C1419 1.349 . S
C1418 C1420 1.327 . S
C1418 H1443 0.950 . S
C1419 C1418 1.349 . S
C1419 C1435 1.349 . S
C1420 C1418 1.327 . S
C1420 C1439 1.429 . S
C1420 H1444 0.950 . S
C1421 C1438 1.574 . S
C1421 C1440 1.368 . S
C1421 H1445 0.949 . S
H1422 C1426 0.949 . S
C1423 C1424 1.349 . S
C1423 C1425 1.327 . S
C1423 H1446 0.950 . S
C1424 C1423 1.349 . S
C1424 C1436 1.349 . S
C1425 C1423 1.327 . S
C1425 C1441 1.429 . S
C1425 H1447 0.950 . S
C1426 H1422 0.949 . S
C1426 C1434 1.574 . S
C1426 C1442 1.368 . S
H1427 C1435 0.950 . S
H1428 C1433 0.950 . S
H1429 C1434 0.949 . S
H1430 C1436 0.950 . S
H1431 C1437 0.950 . S
H1432 C1438 0.949 . S
C1433 H1428 0.950 . S
C1433 C1435 1.327 . S
C1433 C1439 1.429 . S
C1434 C1426 1.574 . S
C1434 H1429 0.949 . S
C1434 C1440 1.368 . S
C1435 C1419 1.349 . S
C1435 H1427 0.950 . S
C1435 C1433 1.327 . S
C1436 C1424 1.349 . S
C1436 H1430 0.950 . S
C1436 C1437 1.327 . S
C1437 H1431 0.950 . S
C1437 C1436 1.327 . S
C1437 C1441 1.429 . S
C1438 C1421 1.574 . S
C1438 H1432 0.949 . S
C1438 C1442 1.368 . S
C1439 C1420 1.429 . S
C1439 C1433 1.429 . S
C1439 C1440 1.523 . S
C1440 C1421 1.368 . S
C1440 C1434 1.368 . S
C1440 C1439 1.523 . S
C1441 C1425 1.429 . S
C1441 C1437 1.429 . S
C1441 C1442 1.523 . S
C1442 C1426 1.368 . S
C1442 C1438 1.368 . S
C1442 C1441 1.523 . S
H1443 C1418 0.950 . S
H1444 C1420 0.950 . S
H1445 C1421 0.949 . S
H1446 C1423 0.950 . S
H1447 C1425 0.950 . S
C1448 C1449 1.349 . S
C1448 C1450 1.327 . S
C1448 H1473 0.950 . S
C1449 C1448 1.349 . S
C1449 C1465 1.349 . S
C1450 C1448 1.327 . S
C1450 C1469 1.429 . S
C1450 H1474 0.950 . S
C1451 C1468 1.574 . S
C1451 C1470 1.368 . S
C1451 H1475 0.949 . S
H1452 C1456 0.949 . S
C1453 C1454 1.349 . S
C1453 C1455 1.327 . S
C1453 H1476 0.950 . S
C1454 C1453 1.349 . S
C1454 C1466 1.349 . S
C1455 C1453 1.327 . S
C1455 C1471 1.429 . S
C1455 H1477 0.950 . S
C1456 H1452 0.949 . S
C1456 C1464 1.574 . S
C1456 C1472 1.368 . S
H1457 C1465 0.950 . S
H1458 C1463 0.950 . S
H1459 C1464 0.949 . S
H1460 C1466 0.950 . S
H1461 C1467 0.950 . S
H1462 C1468 0.949 . S
C1463 H1458 0.950 . S
C1463 C1465 1.327 . S
C1463 C1469 1.429 . S
C1464 C1456 1.574 . S
C1464 H1459 0.949 . S
C1464 C1470 1.368 . S
C1465 C1449 1.349 . S
C1465 H1457 0.950 . S
C1465 C1463 1.327 . S
C1466 C1454 1.349 . S
C1466 H1460 0.950 . S
C1466 C1467 1.327 . S
C1467 H1461 0.950 . S
C1467 C1466 1.327 . S
C1467 C1471 1.429 . S
C1468 C1451 1.574 . S
C1468 H1462 0.949 . S
C1468 C1472 1.368 . S
C1469 C1450 1.429 . S
C1469 C1463 1.429 . S
C1469 C1470 1.523 . S
C1470 C1451 1.368 . S
C1470 C1464 1.368 . S
C1470 C1469 1.523 . S
C1471 C1455 1.429 . S
C1471 C1467 1.429 . S
C1471 C1472 1.523 . S
C1472 C1456 1.368 . S
C1472 C1468 1.368 . S
C1472 C1471 1.523 . S
H1473 C1448 0.950 . S
H1474 C1450 0.950 . S
H1475 C1451 0.949 . S
H1476 C1453 0.950 . S
H1477 C1455 0.950 . S
C1478 C1479 1.349 . S
C1478 C1480 1.327 . S
C1478 H1503 0.950 . S
C1479 C1478 1.349 . S
C1479 C1495 1.349 . S
C1480 C1478 1.327 . S
C1480 C1499 1.429 . S
C1480 H1504 0.950 . S
C1481 C1498 1.574 . S
C1481 C1500 1.368 . S
C1481 H1505 0.949 . S
H1482 C1486 0.949 . S
C1483 C1484 1.349 . S
C1483 C1485 1.327 . S
C1483 H1506 0.950 . S
C1484 C1483 1.349 . S
C1484 C1496 1.349 . S
C1485 C1483 1.327 . S
C1485 C1501 1.429 . S
C1485 H1507 0.950 . S
C1486 H1482 0.949 . S
C1486 C1494 1.574 . S
C1486 C1502 1.368 . S
H1487 C1495 0.950 . S
H1488 C1493 0.950 . S
H1489 C1494 0.949 . S
H1490 C1496 0.950 . S
H1491 C1497 0.950 . S
H1492 C1498 0.949 . S
C1493 H1488 0.950 . S
C1493 C1495 1.327 . S
C1493 C1499 1.429 . S
C1494 C1486 1.574 . S
C1494 H1489 0.949 . S
C1494 C1500 1.368 . S
C1495 C1479 1.349 . S
C1495 H1487 0.950 . S
C1495 C1493 1.327 . S
C1496 C1484 1.349 . S
C1496 H1490 0.950 . S
C1496 C1497 1.327 . S
C1497 H1491 0.950 . S
C1497 C1496 1.327 . S
C1497 C1501 1.429 . S
C1498 C1481 1.574 . S
C1498 H1492 0.949 . S
C1498 C1502 1.368 . S
C1499 C1480 1.429 . S
C1499 C1493 1.429 . S
C1499 C1500 1.523 . S
C1500 C1481 1.368 . S
C1500 C1494 1.368 . S
C1500 C1499 1.523 . S
C1501 C1485 1.429 . S
C1501 C1497 1.429 . S
C1501 C1502 1.523 . S
C1502 C1486 1.368 . S
C1502 C1498 1.368 . S
C1502 C1501 1.523 . S
H1503 C1478 0.950 . S
H1504 C1480 0.950 . S
H1505 C1481 0.949 . S
H1506 C1483 0.950 . S
H1507 C1485 0.950 . S
C1508 C1509 1.349 . S
C1508 C1510 1.327 . S
C1508 H1533 0.950 . S
C1509 C1508 1.349 . S
C1509 C1525 1.349 . S
C1510 C1508 1.327 . S
C1510 C1529 1.429 . S
C1510 H1534 0.950 . S
C1511 C1528 1.574 . S
C1511 C1530 1.368 . S
C1511 H1535 0.949 . S
H1512 C1516 0.949 . S
C1513 C1514 1.349 . S
C1513 C1515 1.327 . S
C1513 H1536 0.950 . S
C1514 C1513 1.349 . S
C1514 C1526 1.349 . S
C1515 C1513 1.327 . S
C1515 C1531 1.429 . S
C1515 H1537 0.950 . S
C1516 H1512 0.949 . S
C1516 C1524 1.574 . S
C1516 C1532 1.368 . S
H1517 C1525 0.950 . S
H1518 C1523 0.950 . S
H1519 C1524 0.949 . S
H1520 C1526 0.950 . S
H1521 C1527 0.950 . S
H1522 C1528 0.949 . S
C1523 H1518 0.950 . S
C1523 C1525 1.327 . S
C1523 C1529 1.429 . S
C1524 C1516 1.574 . S
C1524 H1519 0.949 . S
C1524 C1530 1.368 . S
C1525 C1509 1.349 . S
C1525 H1517 0.950 . S
C1525 C1523 1.327 . S
C1526 C1514 1.349 . S
C1526 H1520 0.950 . S
C1526 C1527 1.327 . S
C1527 H1521 0.950 . S
C1527 C1526 1.327 . S
C1527 C1531 1.429 . S
C1528 C1511 1.574 . S
C1528 H1522 0.949 . S
C1528 C1532 1.368 . S
C1529 C1510 1.429 . S
C1529 C1523 1.429 . S
C1529 C1530 1.523 . S
C1530 C1511 1.368 . S
C1530 C1524 1.368 . S
C1530 C1529 1.523 . S
C1531 C1515 1.429 . S
C1531 C1527 1.429 . S
C1531 C1532 1.523 . S
C1532 C1516 1.368 . S
C1532 C1528 1.368 . S
C1532 C1531 1.523 . S
H1533 C1508 0.950 . S
H1534 C1510 0.950 . S
H1535 C1511 0.949 . S
H1536 C1513 0.950 . S
H1537 C1515 0.950 . S
C1538 C1539 1.349 . S
C1538 C1540 1.327 . S
C1538 H1563 0.950 . S
C1539 C1538 1.349 . S
C1539 C1555 1.349 . S
C1540 C1538 1.327 . S
C1540 C1559 1.429 . S
C1540 H1564 0.950 . S
C1541 C1558 1.574 . S
C1541 C1560 1.368 . S
C1541 H1565 0.949 . S
H1542 C1546 0.949 . S
C1543 C1544 1.349 . S
C1543 C1545 1.327 . S
C1543 H1566 0.950 . S
C1544 C1543 1.349 . S
C1544 C1556 1.349 . S
C1545 C1543 1.327 . S
C1545 C1561 1.429 . S
C1545 H1567 0.950 . S
C1546 H1542 0.949 . S
C1546 C1554 1.574 . S
C1546 C1562 1.368 . S
H1547 C1555 0.950 . S
H1548 C1553 0.950 . S
H1549 C1554 0.949 . S
H1550 C1556 0.950 . S
H1551 C1557 0.950 . S
H1552 C1558 0.949 . S
C1553 H1548 0.950 . S
C1553 C1555 1.327 . S
C1553 C1559 1.429 . S
C1554 C1546 1.574 . S
C1554 H1549 0.949 . S
C1554 C1560 1.368 . S
C1555 C1539 1.349 . S
C1555 H1547 0.950 . S
C1555 C1553 1.327 . S
C1556 C1544 1.349 . S
C1556 H1550 0.950 . S
C1556 C1557 1.327 . S
C1557 H1551 0.950 . S
C1557 C1556 1.327 . S
C1557 C1561 1.429 . S
C1558 C1541 1.574 . S
C1558 H1552 0.949 . S
C1558 C1562 1.368 . S
C1559 C1540 1.429 . S
C1559 C1553 1.429 . S
C1559 C1560 1.523 . S
C1560 C1541 1.368 . S
C1560 C1554 1.368 . S
C1560 C1559 1.523 . S
C1561 C1545 1.429 . S
C1561 C1557 1.429 . S
C1561 C1562 1.523 . S
C1562 C1546 1.368 . S
C1562 C1558 1.368 . S
C1562 C1561 1.523 . S
H1563 C1538 0.950 . S
H1564 C1540 0.950 . S
H1565 C1541 0.949 . S
H1566 C1543 0.950 . S
H1567 C1545 0.950 . S
C1568 C1569 1.349 . S
C1568 C1570 1.327 . S
C1568 H1593 0.950 . S
C1569 C1568 1.349 . S
C1569 C1585 1.349 . S
C1570 C1568 1.327 . S
C1570 C1589 1.429 . S
C1570 H1594 0.950 . S
C1571 C1588 1.574 1_565 S
C1571 C1590 1.368 . S
C1571 H1595 0.949 . S
H1572 C1576 0.949 . S
C1573 C1574 1.349 . S
C1573 C1575 1.327 . S
C1573 H1596 0.950 . S
C1574 C1573 1.349 . S
C1574 C1586 1.349 . S
C1575 C1573 1.327 . S
C1575 C1591 1.429 . S
C1575 H1597 0.950 . S
C1576 H1572 0.949 . S
C1576 C1584 1.574 1_545 S
C1576 C1592 1.368 . S
H1577 C1585 0.950 . S
H1578 C1583 0.950 . S
H1579 C1584 0.949 . S
H1580 C1586 0.950 . S
H1581 C1587 0.950 . S
H1582 C1588 0.949 . S
C1583 H1578 0.950 . S
C1583 C1585 1.327 . S
C1583 C1589 1.429 . S
C1584 C1576 1.574 1_565 S
C1584 H1579 0.949 . S
C1584 C1590 1.368 . S
C1585 C1569 1.349 . S
C1585 H1577 0.950 . S
C1585 C1583 1.327 . S
C1586 C1574 1.349 . S
C1586 H1580 0.950 . S
C1586 C1587 1.327 . S
C1587 H1581 0.950 . S
C1587 C1586 1.327 . S
C1587 C1591 1.429 . S
C1588 C1571 1.574 1_545 S
C1588 H1582 0.949 . S
C1588 C1592 1.368 . S
C1589 C1570 1.429 . S
C1589 C1583 1.429 . S
C1589 C1590 1.523 . S
C1590 C1571 1.368 . S
C1590 C1584 1.368 . S
C1590 C1589 1.523 . S
C1591 C1575 1.429 . S
C1591 C1587 1.429 . S
C1591 C1592 1.523 . S
C1592 C1576 1.368 . S
C1592 C1588 1.368 . S
C1592 C1591 1.523 . S
H1593 C1568 0.950 . S
H1594 C1570 0.950 . S
H1595 C1571 0.949 . S
H1596 C1573 0.950 . S
H1597 C1575 0.950 . S
C1598 C1599 1.349 . S
C1598 C1600 1.327 . S
C1598 H1623 0.950 . S
C1599 C1598 1.349 . S
C1599 C1615 1.349 . S
C1600 C1598 1.327 . S
C1600 C1619 1.429 . S
C1600 H1624 0.950 . S
C1601 C1618 1.574 . S
C1601 C1620 1.368 . S
C1601 H1625 0.949 . S
H1602 C1606 0.949 . S
C1603 C1604 1.349 . S
C1603 C1605 1.327 . S
C1603 H1626 0.950 . S
C1604 C1603 1.349 . S
C1604 C1616 1.349 . S
C1605 C1603 1.327 . S
C1605 C1621 1.429 . S
C1605 H1627 0.950 . S
C1606 H1602 0.949 . S
C1606 C1614 1.574 . S
C1606 C1622 1.368 . S
H1607 C1615 0.950 . S
H1608 C1613 0.950 . S
H1609 C1614 0.949 . S
H1610 C1616 0.950 . S
H1611 C1617 0.950 . S
H1612 C1618 0.949 . S
C1613 H1608 0.950 . S
C1613 C1615 1.327 . S
C1613 C1619 1.429 . S
C1614 C1606 1.574 . S
C1614 H1609 0.949 . S
C1614 C1620 1.368 . S
C1615 C1599 1.349 . S
C1615 H1607 0.950 . S
C1615 C1613 1.327 . S
C1616 C1604 1.349 . S
C1616 H1610 0.950 . S
C1616 C1617 1.327 . S
C1617 H1611 0.950 . S
C1617 C1616 1.327 . S
C1617 C1621 1.429 . S
C1618 C1601 1.574 . S
C1618 H1612 0.949 . S
C1618 C1622 1.368 . S
C1619 C1600 1.429 . S
C1619 C1613 1.429 . S
C1619 C1620 1.523 . S
C1620 C1601 1.368 . S
C1620 C1614 1.368 . S
C1620 C1619 1.523 . S
C1621 C1605 1.429 . S
C1621 C1617 1.429 . S
C1621 C1622 1.523 . S
C1622 C1606 1.368 . S
C1622 C1618 1.368 . S
C1622 C1621 1.523 . S
H1623 C1598 0.950 . S
H1624 C1600 0.950 . S
H1625 C1601 0.949 . S
H1626 C1603 0.950 . S
H1627 C1605 0.950 . S
C1628 C1629 1.349 . S
C1628 C1630 1.327 . S
C1628 H1653 0.950 . S
C1629 C1628 1.349 . S
C1629 C1645 1.349 . S
C1630 C1628 1.327 . S
C1630 C1649 1.429 . S
C1630 H1654 0.950 . S
C1631 C1648 1.574 1_545 S
C1631 C1650 1.368 . S
C1631 H1655 0.949 . S
H1632 C1636 0.949 . S
C1633 C1634 1.349 . S
C1633 C1635 1.327 . S
C1633 H1656 0.950 . S
C1634 C1633 1.349 . S
C1634 C1646 1.349 . S
C1635 C1633 1.327 . S
C1635 C1651 1.429 . S
C1635 H1657 0.950 . S
C1636 H1632 0.949 . S
C1636 C1644 1.574 1_565 S
C1636 C1652 1.368 . S
H1637 C1645 0.950 . S
H1638 C1643 0.950 . S
H1639 C1644 0.949 . S
H1640 C1646 0.950 . S
H1641 C1647 0.950 . S
H1642 C1648 0.949 . S
C1643 H1638 0.950 . S
C1643 C1645 1.327 . S
C1643 C1649 1.429 . S
C1644 C1636 1.574 1_545 S
C1644 H1639 0.949 . S
C1644 C1650 1.368 . S
C1645 C1629 1.349 . S
C1645 H1637 0.950 . S
C1645 C1643 1.327 . S
C1646 C1634 1.349 . S
C1646 H1640 0.950 . S
C1646 C1647 1.327 . S
C1647 H1641 0.950 . S
C1647 C1646 1.327 . S
C1647 C1651 1.429 . S
C1648 C1631 1.574 1_565 S
C1648 H1642 0.949 . S
C1648 C1652 1.368 . S
C1649 C1630 1.429 . S
C1649 C1643 1.429 . S
C1649 C1650 1.523 . S
C1650 C1631 1.368 . S
C1650 C1644 1.368 . S
C1650 C1649 1.523 . S
C1651 C1635 1.429 . S
C1651 C1647 1.429 . S
C1651 C1652 1.523 . S
C1652 C1636 1.368 . S
C1652 C1648 1.368 . S
C1652 C1651 1.523 . S
H1653 C1628 0.950 . S
H1654 C1630 0.950 . S
H1655 C1631 0.949 . S
H1656 C1633 0.950 . S
H1657 C1635 0.950 . S
C1658 C1659 1.349 . S
C1658 C1660 1.327 . S
C1658 H1683 0.950 . S
C1659 C1658 1.349 . S
C1659 C1675 1.349 . S
C1660 C1658 1.327 . S
C1660 C1679 1.429 . S
C1660 H1684 0.950 . S
C1661 C1678 1.574 . S
C1661 C1680 1.368 1_556 S
C1661 H1685 0.949 . S
H1662 C1666 0.949 . S
C1663 C1664 1.349 . S
C1663 C1665 1.327 . S
C1663 H1686 0.950 . S
C1664 C1663 1.349 . S
C1664 C1676 1.349 . S
C1665 C1663 1.327 . S
C1665 C1681 1.429 . S
C1665 H1687 0.950 . S
C1666 H1662 0.949 . S
C1666 C1674 1.574 . S
C1666 C1682 1.368 1_554 S
H1667 C1675 0.950 . S
H1668 C1673 0.950 1_556 S
H1669 C1674 0.949 . S
H1670 C1676 0.950 . S
H1671 C1677 0.950 1_554 S
H1672 C1678 0.949 . S
C1673 H1668 0.950 1_554 S
C1673 C1675 1.327 . S
C1673 C1679 1.429 . S
C1674 C1666 1.574 . S
C1674 H1669 0.949 . S
C1674 C1680 1.368 . S
C1675 C1659 1.349 . S
C1675 H1667 0.950 . S
C1675 C1673 1.327 . S
C1676 C1664 1.349 . S
C1676 H1670 0.950 . S
C1676 C1677 1.327 . S
C1677 H1671 0.950 1_556 S
C1677 C1676 1.327 . S
C1677 C1681 1.429 . S
C1678 C1661 1.574 . S
C1678 H1672 0.949 . S
C1678 C1682 1.368 . S
C1679 C1660 1.429 . S
C1679 C1673 1.429 . S
C1679 C1680 1.523 . S
C1680 C1661 1.368 1_554 S
C1680 C1674 1.368 . S
C1680 C1679 1.523 . S
C1681 C1665 1.429 . S
C1681 C1677 1.429 . S
C1681 C1682 1.523 . S
C1682 C1666 1.368 1_556 S
C1682 C1678 1.368 . S
C1682 C1681 1.523 . S
H1683 C1658 0.950 . S
H1684 C1660 0.950 . S
H1685 C1661 0.949 . S
H1686 C1663 0.950 . S
H1687 C1665 0.950 . S
C1688 C1689 1.349 . S
C1688 C1690 1.327 . S
C1688 H1713 0.950 . S
C1689 C1688 1.349 . S
C1689 C1705 1.349 . S
C1690 C1688 1.327 . S
C1690 C1709 1.429 . S
C1690 H1714 0.950 . S
C1691 C1708 1.574 1_545 S
C1691 C1710 1.368 . S
C1691 H1715 0.949 . S
H1692 C1696 0.949 . S
C1693 C1694 1.349 . S
C1693 C1695 1.327 . S
C1693 H1716 0.950 . S
C1694 C1693 1.349 . S
C1694 C1706 1.349 . S
C1695 C1693 1.327 . S
C1695 C1711 1.429 . S
C1695 H1717 0.950 . S
C1696 H1692 0.949 . S
C1696 C1704 1.574 1_565 S
C1696 C1712 1.368 . S
H1697 C1705 0.950 . S
H1698 C1703 0.950 . S
H1699 C1704 0.949 . S
H1700 C1706 0.950 . S
H1701 C1707 0.950 . S
H1702 C1708 0.949 . S
C1703 H1698 0.950 . S
C1703 C1705 1.327 . S
C1703 C1709 1.429 . S
C1704 C1696 1.574 1_545 S
C1704 H1699 0.949 . S
C1704 C1710 1.368 . S
C1705 C1689 1.349 . S
C1705 H1697 0.950 . S
C1705 C1703 1.327 . S
C1706 C1694 1.349 . S
C1706 H1700 0.950 . S
C1706 C1707 1.327 . S
C1707 H1701 0.950 . S
C1707 C1706 1.327 . S
C1707 C1711 1.429 . S
C1708 C1691 1.574 1_565 S
C1708 H1702 0.949 . S
C1708 C1712 1.368 . S
C1709 C1690 1.429 . S
C1709 C1703 1.429 . S
C1709 C1710 1.523 . S
C1710 C1691 1.368 . S
C1710 C1704 1.368 . S
C1710 C1709 1.523 . S
C1711 C1695 1.429 . S
C1711 C1707 1.429 . S
C1711 C1712 1.523 . S
C1712 C1696 1.368 . S
C1712 C1708 1.368 . S
C1712 C1711 1.523 . S
H1713 C1688 0.950 . S
H1714 C1690 0.950 . S
H1715 C1691 0.949 . S
H1716 C1693 0.950 . S
H1717 C1695 0.950 . S
C1718 C1719 1.349 . S
C1718 C1720 1.327 . S
C1718 H1743 0.950 . S
C1719 C1718 1.349 . S
C1719 C1735 1.349 . S
C1720 C1718 1.327 . S
C1720 C1739 1.429 . S
C1720 H1744 0.950 . S
C1721 C1738 1.574 . S
C1721 C1740 1.368 . S
C1721 H1745 0.949 . S
H1722 C1726 0.949 . S
C1723 C1724 1.349 . S
C1723 C1725 1.327 . S
C1723 H1746 0.950 . S
C1724 C1723 1.349 . S
C1724 C1736 1.349 . S
C1725 C1723 1.327 . S
C1725 C1741 1.429 . S
C1725 H1747 0.950 . S
C1726 H1722 0.949 . S
C1726 C1734 1.574 . S
C1726 C1742 1.368 . S
H1727 C1735 0.950 . S
H1728 C1733 0.950 . S
H1729 C1734 0.949 . S
H1730 C1736 0.950 . S
H1731 C1737 0.950 . S
H1732 C1738 0.949 . S
C1733 H1728 0.950 . S
C1733 C1735 1.327 . S
C1733 C1739 1.429 . S
C1734 C1726 1.574 . S
C1734 H1729 0.949 . S
C1734 C1740 1.368 . S
C1735 C1719 1.349 . S
C1735 H1727 0.950 . S
C1735 C1733 1.327 . S
C1736 C1724 1.349 . S
C1736 H1730 0.950 . S
C1736 C1737 1.327 . S
C1737 H1731 0.950 . S
C1737 C1736 1.327 . S
C1737 C1741 1.429 . S
C1738 C1721 1.574 . S
C1738 H1732 0.949 . S
C1738 C1742 1.368 . S
C1739 C1720 1.429 . S
C1739 C1733 1.429 . S
C1739 C1740 1.523 . S
C1740 C1721 1.368 . S
C1740 C1734 1.368 . S
C1740 C1739 1.523 . S
C1741 C1725 1.429 . S
C1741 C1737 1.429 . S
C1741 C1742 1.523 . S
C1742 C1726 1.368 . S
C1742 C1738 1.368 . S
C1742 C1741 1.523 . S
H1743 C1718 0.950 . S
H1744 C1720 0.950 . S
H1745 C1721 0.949 . S
H1746 C1723 0.950 . S
H1747 C1725 0.950 . S
C1748 C1749 1.349 . S
C1748 C1750 1.327 . S
C1748 H1773 0.950 . S
C1749 C1748 1.349 . S
C1749 C1765 1.349 . S
C1750 C1748 1.327 . S
C1750 C1769 1.429 . S
C1750 H1774 0.950 . S
C1751 C1768 1.574 1_545 S
C1751 C1770 1.368 . S
C1751 H1775 0.949 . S
H1752 C1756 0.949 . S
C1753 C1754 1.349 . S
C1753 C1755 1.327 . S
C1753 H1776 0.950 . S
C1754 C1753 1.349 . S
C1754 C1766 1.349 . S
C1755 C1753 1.327 . S
C1755 C1771 1.429 . S
C1755 H1777 0.950 . S
C1756 H1752 0.949 . S
C1756 C1764 1.574 1_565 S
C1756 C1772 1.368 . S
H1757 C1765 0.950 . S
H1758 C1763 0.950 . S
H1759 C1764 0.949 . S
H1760 C1766 0.950 . S
H1761 C1767 0.950 . S
H1762 C1768 0.949 . S
C1763 H1758 0.950 . S
C1763 C1765 1.327 . S
C1763 C1769 1.429 . S
C1764 C1756 1.574 1_545 S
C1764 H1759 0.949 . S
C1764 C1770 1.368 . S
C1765 C1749 1.349 . S
C1765 H1757 0.950 . S
C1765 C1763 1.327 . S
C1766 C1754 1.349 . S
C1766 H1760 0.950 . S
C1766 C1767 1.327 . S
C1767 H1761 0.950 . S
C1767 C1766 1.327 . S
C1767 C1771 1.429 . S
C1768 C1751 1.574 1_565 S
C1768 H1762 0.949 . S
C1768 C1772 1.368 . S
C1769 C1750 1.429 . S
C1769 C1763 1.429 . S
C1769 C1770 1.523 . S
C1770 C1751 1.368 . S
C1770 C1764 1.368 . S
C1770 C1769 1.523 . S
C1771 C1755 1.429 . S
C1771 C1767 1.429 . S
C1771 C1772 1.523 . S
C1772 C1756 1.368 . S
C1772 C1768 1.368 . S
C1772 C1771 1.523 . S
H1773 C1748 0.950 . S
H1774 C1750 0.950 . S
H1775 C1751 0.949 . S
H1776 C1753 0.950 . S
H1777 C1755 0.950 . S
C1778 C1779 1.349 . S
C1778 C1780 1.327 . S
C1778 H1803 0.950 . S
C1779 C1778 1.349 . S
C1779 C1795 1.349 . S
C1780 C1778 1.327 . S
C1780 C1799 1.429 . S
C1780 H1804 0.950 . S
C1781 C1798 1.574 . S
C1781 C1800 1.368 1_556 S
C1781 H1805 0.949 . S
H1782 C1786 0.949 . S
C1783 C1784 1.349 . S
C1783 C1785 1.327 . S
C1783 H1806 0.950 . S
C1784 C1783 1.349 . S
C1784 C1796 1.349 . S
C1785 C1783 1.327 . S
C1785 C1801 1.429 . S
C1785 H1807 0.950 . S
C1786 H1782 0.949 . S
C1786 C1794 1.574 . S
C1786 C1802 1.368 1_554 S
H1787 C1795 0.950 . S
H1788 C1793 0.950 1_556 S
H1789 C1794 0.949 . S
H1790 C1796 0.950 . S
H1791 C1797 0.950 1_554 S
H1792 C1798 0.949 . S
C1793 H1788 0.950 1_554 S
C1793 C1795 1.327 . S
C1793 C1799 1.429 . S
C1794 C1786 1.574 . S
C1794 H1789 0.949 . S
C1794 C1800 1.368 . S
C1795 C1779 1.349 . S
C1795 H1787 0.950 . S
C1795 C1793 1.327 . S
C1796 C1784 1.349 . S
C1796 H1790 0.950 . S
C1796 C1797 1.327 . S
C1797 H1791 0.950 1_556 S
C1797 C1796 1.327 . S
C1797 C1801 1.429 . S
C1798 C1781 1.574 . S
C1798 H1792 0.949 . S
C1798 C1802 1.368 . S
C1799 C1780 1.429 . S
C1799 C1793 1.429 . S
C1799 C1800 1.523 . S
C1800 C1781 1.368 1_554 S
C1800 C1794 1.368 . S
C1800 C1799 1.523 . S
C1801 C1785 1.429 . S
C1801 C1797 1.429 . S
C1801 C1802 1.523 . S
C1802 C1786 1.368 1_556 S
C1802 C1798 1.368 . S
C1802 C1801 1.523 . S
H1803 C1778 0.950 . S
H1804 C1780 0.950 . S
H1805 C1781 0.949 . S
H1806 C1783 0.950 . S
H1807 C1785 0.950 . S
C1808 C1809 1.349 . S
C1808 C1810 1.327 . S
C1808 H1833 0.950 . S
C1809 C1808 1.349 . S
C1809 C1825 1.349 . S
C1810 C1808 1.327 . S
C1810 C1829 1.429 . S
C1810 H1834 0.950 . S
C1811 C1828 1.574 . S
C1811 C1830 1.368 . S
C1811 H1835 0.949 . S
H1812 C1816 0.949 . S
C1813 C1814 1.349 . S
C1813 C1815 1.327 . S
C1813 H1836 0.950 . S
C1814 C1813 1.349 . S
C1814 C1826 1.349 . S
C1815 C1813 1.327 . S
C1815 C1831 1.429 . S
C1815 H1837 0.950 . S
C1816 H1812 0.949 . S
C1816 C1824 1.574 . S
C1816 C1832 1.368 . S
H1817 C1825 0.950 . S
H1818 C1823 0.950 . S
H1819 C1824 0.949 . S
H1820 C1826 0.950 . S
H1821 C1827 0.950 . S
H1822 C1828 0.949 . S
C1823 H1818 0.950 . S
C1823 C1825 1.327 . S
C1823 C1829 1.429 . S
C1824 C1816 1.574 . S
C1824 H1819 0.949 . S
C1824 C1830 1.368 . S
C1825 C1809 1.349 . S
C1825 H1817 0.950 . S
C1825 C1823 1.327 . S
C1826 C1814 1.349 . S
C1826 H1820 0.950 . S
C1826 C1827 1.327 . S
C1827 H1821 0.950 . S
C1827 C1826 1.327 . S
C1827 C1831 1.429 . S
C1828 C1811 1.574 . S
C1828 H1822 0.949 . S
C1828 C1832 1.368 . S
C1829 C1810 1.429 . S
C1829 C1823 1.429 . S
C1829 C1830 1.523 . S
C1830 C1811 1.368 . S
C1830 C1824 1.368 . S
C1830 C1829 1.523 . S
C1831 C1815 1.429 . S
C1831 C1827 1.429 . S
C1831 C1832 1.523 . S
C1832 C1816 1.368 . S
C1832 C1828 1.368 . S
C1832 C1831 1.523 . S
H1833 C1808 0.950 . S
H1834 C1810 0.950 . S
H1835 C1811 0.949 . S
H1836 C1813 0.950 . S
H1837 C1815 0.950 . S
C1838 C1839 1.349 . S
C1838 C1840 1.327 . S
C1838 H1863 0.950 . S
C1839 C1838 1.349 . S
C1839 C1855 1.349 . S
C1840 C1838 1.327 . S
C1840 C1859 1.429 . S
C1840 H1864 0.950 1_556 S
C1841 C1858 1.574 . S
C1841 C1860 1.368 . S
C1841 H1865 0.949 . S
H1842 C1846 0.949 . S
C1843 C1844 1.349 . S
C1843 C1845 1.327 . S
C1843 H1866 0.950 . S
C1844 C1843 1.349 . S
C1844 C1856 1.349 . S
C1845 C1843 1.327 . S
C1845 C1861 1.429 . S
C1845 H1867 0.950 1_554 S
C1846 H1842 0.949 . S
C1846 C1854 1.574 . S
C1846 C1862 1.368 . S
H1847 C1855 0.950 . S
H1848 C1853 0.950 . S
H1849 C1854 0.949 . S
H1850 C1856 0.950 . S
H1851 C1857 0.950 . S
H1852 C1858 0.949 . S
C1853 H1848 0.950 . S
C1853 C1855 1.327 . S
C1853 C1859 1.429 . S
C1854 C1846 1.574 . S
C1854 H1849 0.949 . S
C1854 C1860 1.368 1_554 S
C1855 C1839 1.349 . S
C1855 H1847 0.950 . S
C1855 C1853 1.327 . S
C1856 C1844 1.349 . S
C1856 H1850 0.950 . S
C1856 C1857 1.327 . S
C1857 H1851 0.950 . S
C1857 C1856 1.327 . S
C1857 C1861 1.429 . S
C1858 C1841 1.574 . S
C1858 H1852 0.949 . S
C1858 C1862 1.368 1_556 S
C1859 C1840 1.429 . S
C1859 C1853 1.429 . S
C1859 C1860 1.523 . S
C1860 C1841 1.368 . S
C1860 C1854 1.368 1_556 S
C1860 C1859 1.523 . S
C1861 C1845 1.429 . S
C1861 C1857 1.429 . S
C1861 C1862 1.523 . S
C1862 C1846 1.368 . S
C1862 C1858 1.368 1_554 S
C1862 C1861 1.523 . S
H1863 C1838 0.950 . S
H1864 C1840 0.950 1_554 S
H1865 C1841 0.949 . S
H1866 C1843 0.950 . S
H1867 C1845 0.950 1_556 S
C1868 C1869 1.349 . S
C1868 C1870 1.327 . S
C1868 H1893 0.950 . S
C1869 C1868 1.349 . S
C1869 C1885 1.349 . S
C1870 C1868 1.327 . S
C1870 C1889 1.429 . S
C1870 H1894 0.950 . S
C1871 C1888 1.574 . S
C1871 C1890 1.368 . S
C1871 H1895 0.949 . S
H1872 C1876 0.949 . S
C1873 C1874 1.349 . S
C1873 C1875 1.327 . S
C1873 H1896 0.950 . S
C1874 C1873 1.349 . S
C1874 C1886 1.349 . S
C1875 C1873 1.327 . S
C1875 C1891 1.429 . S
C1875 H1897 0.950 . S
C1876 H1872 0.949 . S
C1876 C1884 1.574 . S
C1876 C1892 1.368 . S
H1877 C1885 0.950 . S
H1878 C1883 0.950 . S
H1879 C1884 0.949 . S
H1880 C1886 0.950 . S
H1881 C1887 0.950 . S
H1882 C1888 0.949 . S
C1883 H1878 0.950 . S
C1883 C1885 1.327 . S
C1883 C1889 1.429 . S
C1884 C1876 1.574 . S
C1884 H1879 0.949 . S
C1884 C1890 1.368 . S
C1885 C1869 1.349 . S
C1885 H1877 0.950 . S
C1885 C1883 1.327 . S
C1886 C1874 1.349 . S
C1886 H1880 0.950 . S
C1886 C1887 1.327 . S
C1887 H1881 0.950 . S
C1887 C1886 1.327 . S
C1887 C1891 1.429 . S
C1888 C1871 1.574 . S
C1888 H1882 0.949 . S
C1888 C1892 1.368 . S
C1889 C1870 1.429 . S
C1889 C1883 1.429 . S
C1889 C1890 1.523 . S
C1890 C1871 1.368 . S
C1890 C1884 1.368 . S
C1890 C1889 1.523 . S
C1891 C1875 1.429 . S
C1891 C1887 1.429 . S
C1891 C1892 1.523 . S
C1892 C1876 1.368 . S
C1892 C1888 1.368 . S
C1892 C1891 1.523 . S
H1893 C1868 0.950 . S
H1894 C1870 0.950 . S
H1895 C1871 0.949 . S
H1896 C1873 0.950 . S
H1897 C1875 0.950 . S
C1898 C1899 1.349 . S
C1898 C1900 1.327 . S
C1898 H1923 0.950 . S
C1899 C1898 1.349 . S
C1899 C1915 1.349 . S
C1900 C1898 1.327 . S
C1900 C1919 1.429 . S
C1900 H1924 0.950 . S
C1901 C1918 1.574 . S
C1901 C1920 1.368 . S
C1901 H1925 0.949 . S
H1902 C1906 0.949 . S
C1903 C1904 1.349 . S
C1903 C1905 1.327 . S
C1903 H1926 0.950 . S
C1904 C1903 1.349 . S
C1904 C1916 1.349 . S
C1905 C1903 1.327 . S
C1905 C1921 1.429 . S
C1905 H1927 0.950 . S
C1906 H1902 0.949 . S
C1906 C1914 1.574 . S
C1906 C1922 1.368 . S
H1907 C1915 0.950 . S
H1908 C1913 0.950 . S
H1909 C1914 0.949 . S
H1910 C1916 0.950 . S
H1911 C1917 0.950 . S
H1912 C1918 0.949 . S
C1913 H1908 0.950 . S
C1913 C1915 1.327 . S
C1913 C1919 1.429 . S
C1914 C1906 1.574 . S
C1914 H1909 0.949 . S
C1914 C1920 1.368 . S
C1915 C1899 1.349 . S
C1915 H1907 0.950 . S
C1915 C1913 1.327 . S
C1916 C1904 1.349 . S
C1916 H1910 0.950 . S
C1916 C1917 1.327 . S
C1917 H1911 0.950 . S
C1917 C1916 1.327 . S
C1917 C1921 1.429 . S
C1918 C1901 1.574 . S
C1918 H1912 0.949 . S
C1918 C1922 1.368 . S
C1919 C1900 1.429 . S
C1919 C1913 1.429 . S
C1919 C1920 1.523 . S
C1920 C1901 1.368 . S
C1920 C1914 1.368 . S
C1920 C1919 1.523 . S
C1921 C1905 1.429 . S
C1921 C1917 1.429 . S
C1921 C1922 1.523 . S
C1922 C1906 1.368 . S
C1922 C1918 1.368 . S
C1922 C1921 1.523 . S
H1923 C1898 0.950 . S
H1924 C1900 0.950 . S
H1925 C1901 0.949 . S
H1926 C1903 0.950 . S
H1927 C1905 0.950 . S
C1928 C1929 1.349 . S
C1928 C1930 1.327 . S
C1928 H1953 0.950 . S
C1929 C1928 1.349 . S
C1929 C1945 1.349 . S
C1930 C1928 1.327 . S
C1930 C1949 1.429 . S
C1930 H1954 0.950 . S
C1931 C1948 1.574 . S
C1931 C1950 1.368 . S
C1931 H1955 0.949 . S
H1932 C1936 0.949 . S
C1933 C1934 1.349 . S
C1933 C1935 1.327 . S
C1933 H1956 0.950 . S
C1934 C1933 1.349 . S
C1934 C1946 1.349 . S
C1935 C1933 1.327 . S
C1935 C1951 1.429 . S
C1935 H1957 0.950 . S
C1936 H1932 0.949 . S
C1936 C1944 1.574 . S
C1936 C1952 1.368 . S
H1937 C1945 0.950 . S
H1938 C1943 0.950 . S
H1939 C1944 0.949 . S
H1940 C1946 0.950 . S
H1941 C1947 0.950 . S
H1942 C1948 0.949 . S
C1943 H1938 0.950 . S
C1943 C1945 1.327 . S
C1943 C1949 1.429 . S
C1944 C1936 1.574 . S
C1944 H1939 0.949 . S
C1944 C1950 1.368 . S
C1945 C1929 1.349 . S
C1945 H1937 0.950 . S
C1945 C1943 1.327 . S
C1946 C1934 1.349 . S
C1946 H1940 0.950 . S
C1946 C1947 1.327 . S
C1947 H1941 0.950 . S
C1947 C1946 1.327 . S
C1947 C1951 1.429 . S
C1948 C1931 1.574 . S
C1948 H1942 0.949 . S
C1948 C1952 1.368 . S
C1949 C1930 1.429 . S
C1949 C1943 1.429 . S
C1949 C1950 1.523 . S
C1950 C1931 1.368 . S
C1950 C1944 1.368 . S
C1950 C1949 1.523 . S
C1951 C1935 1.429 . S
C1951 C1947 1.429 . S
C1951 C1952 1.523 . S
C1952 C1936 1.368 . S
C1952 C1948 1.368 . S
C1952 C1951 1.523 . S
H1953 C1928 0.950 . S
H1954 C1930 0.950 . S
H1955 C1931 0.949 . S
H1956 C1933 0.950 . S
H1957 C1935 0.950 . S
C1958 C1959 1.349 . S
C1958 C1960 1.327 . S
C1958 H1983 0.950 . S
C1959 C1958 1.349 . S
C1959 C1975 1.349 . S
C1960 C1958 1.327 . S
C1960 C1979 1.429 . S
C1960 H1984 0.950 . S
C1961 C1978 1.574 . S
C1961 C1980 1.368 1_554 S
C1961 H1985 0.949 . S
H1962 C1966 0.949 . S
C1963 C1964 1.349 . S
C1963 C1965 1.327 . S
C1963 H1986 0.950 . S
C1964 C1963 1.349 . S
C1964 C1976 1.349 . S
C1965 C1963 1.327 . S
C1965 C1981 1.429 . S
C1965 H1987 0.950 . S
C1966 H1962 0.949 . S
C1966 C1974 1.574 . S
C1966 C1982 1.368 1_556 S
H1967 C1975 0.950 . S
H1968 C1973 0.950 1_554 S
H1969 C1974 0.949 . S
H1970 C1976 0.950 . S
H1971 C1977 0.950 1_556 S
H1972 C1978 0.949 . S
C1973 H1968 0.950 1_556 S
C1973 C1975 1.327 . S
C1973 C1979 1.429 . S
C1974 C1966 1.574 . S
C1974 H1969 0.949 . S
C1974 C1980 1.368 . S
C1975 C1959 1.349 . S
C1975 H1967 0.950 . S
C1975 C1973 1.327 . S
C1976 C1964 1.349 . S
C1976 H1970 0.950 . S
C1976 C1977 1.327 . S
C1977 H1971 0.950 1_554 S
C1977 C1976 1.327 . S
C1977 C1981 1.429 . S
C1978 C1961 1.574 . S
C1978 H1972 0.949 . S
C1978 C1982 1.368 . S
C1979 C1960 1.429 . S
C1979 C1973 1.429 . S
C1979 C1980 1.523 . S
C1980 C1961 1.368 1_556 S
C1980 C1974 1.368 . S
C1980 C1979 1.523 . S
C1981 C1965 1.429 . S
C1981 C1977 1.429 . S
C1981 C1982 1.523 . S
C1982 C1966 1.368 1_554 S
C1982 C1978 1.368 . S
C1982 C1981 1.523 . S
H1983 C1958 0.950 . S
H1984 C1960 0.950 . S
H1985 C1961 0.949 . S
H1986 C1963 0.950 . S
H1987 C1965 0.950 . S
C1988 C1989 1.349 . S
C1988 C1990 1.327 . S
C1988 H2013 0.950 . S
C1989 C1988 1.349 . S
C1989 C2005 1.349 . S
C1990 C1988 1.327 . S
C1990 C2009 1.429 . S
C1990 H2014 0.950 . S
C1991 C2008 1.574 . S
C1991 C2010 1.368 . S
C1991 H2015 0.949 . S
H1992 C1996 0.949 . S
C1993 C1994 1.349 . S
C1993 C1995 1.327 . S
C1993 H2016 0.950 . S
C1994 C1993 1.349 . S
C1994 C2006 1.349 . S
C1995 C1993 1.327 . S
C1995 C2011 1.429 . S
C1995 H2017 0.950 . S
C1996 H1992 0.949 . S
C1996 C2004 1.574 . S
C1996 C2012 1.368 . S
H1997 C2005 0.950 . S
H1998 C2003 0.950 . S
H1999 C2004 0.949 . S
H2000 C2006 0.950 . S
H2001 C2007 0.950 . S
H2002 C2008 0.949 . S
C2003 H1998 0.950 . S
C2003 C2005 1.327 . S
C2003 C2009 1.429 . S
C2004 C1996 1.574 . S
C2004 H1999 0.949 . S
C2004 C2010 1.368 . S
C2005 C1989 1.349 . S
C2005 H1997 0.950 . S
C2005 C2003 1.327 . S
C2006 C1994 1.349 . S
C2006 H2000 0.950 . S
C2006 C2007 1.327 . S
C2007 H2001 0.950 . S
C2007 C2006 1.327 . S
C2007 C2011 1.429 . S
C2008 C1991 1.574 . S
C2008 H2002 0.949 . S
C2008 C2012 1.368 . S
C2009 C1990 1.429 . S
C2009 C2003 1.429 . S
C2009 C2010 1.523 . S
C2010 C1991 1.368 . S
C2010 C2004 1.368 . S
C2010 C2009 1.523 . S
C2011 C1995 1.429 . S
C2011 C2007 1.429 . S
C2011 C2012 1.523 . S
C2012 C1996 1.368 . S
C2012 C2008 1.368 . S
C2012 C2011 1.523 . S
H2013 C1988 0.950 . S
H2014 C1990 0.950 . S
H2015 C1991 0.949 . S
H2016 C1993 0.950 . S
H2017 C1995 0.950 . S
C2018 C2019 1.349 . S
C2018 C2020 1.327 . S
C2018 H2043 0.950 . S
C2019 C2018 1.349 . S
C2019 C2035 1.349 . S
C2020 C2018 1.327 . S
C2020 C2039 1.429 . S
C2020 H2044 0.950 . S
C2021 C2038 1.574 . S
C2021 C2040 1.368 . S
C2021 H2045 0.949 . S
H2022 C2026 0.949 . S
C2023 C2024 1.349 . S
C2023 C2025 1.327 . S
C2023 H2046 0.950 . S
C2024 C2023 1.349 . S
C2024 C2036 1.349 . S
C2025 C2023 1.327 . S
C2025 C2041 1.429 . S
C2025 H2047 0.950 . S
C2026 H2022 0.949 . S
C2026 C2034 1.574 . S
C2026 C2042 1.368 . S
H2027 C2035 0.950 . S
H2028 C2033 0.950 . S
H2029 C2034 0.949 . S
H2030 C2036 0.950 . S
H2031 C2037 0.950 . S
H2032 C2038 0.949 . S
C2033 H2028 0.950 . S
C2033 C2035 1.327 . S
C2033 C2039 1.429 . S
C2034 C2026 1.574 . S
C2034 H2029 0.949 . S
C2034 C2040 1.368 . S
C2035 C2019 1.349 . S
C2035 H2027 0.950 . S
C2035 C2033 1.327 . S
C2036 C2024 1.349 . S
C2036 H2030 0.950 . S
C2036 C2037 1.327 . S
C2037 H2031 0.950 . S
C2037 C2036 1.327 . S
C2037 C2041 1.429 . S
C2038 C2021 1.574 . S
C2038 H2032 0.949 . S
C2038 C2042 1.368 . S
C2039 C2020 1.429 . S
C2039 C2033 1.429 . S
C2039 C2040 1.523 . S
C2040 C2021 1.368 . S
C2040 C2034 1.368 . S
C2040 C2039 1.523 . S
C2041 C2025 1.429 . S
C2041 C2037 1.429 . S
C2041 C2042 1.523 . S
C2042 C2026 1.368 . S
C2042 C2038 1.368 . S
C2042 C2041 1.523 . S
H2043 C2018 0.950 . S
H2044 C2020 0.950 . S
H2045 C2021 0.949 . S
H2046 C2023 0.950 . S
H2047 C2025 0.950 . S
C2048 C2049 1.349 . S
C2048 C2050 1.327 . S
C2048 H2073 0.950 . S
C2049 C2048 1.349 . S
C2049 C2065 1.349 . S
C2050 C2048 1.327 . S
C2050 C2069 1.429 . S
C2050 H2074 0.966 . S
C2051 C2068 1.574 . S
C2051 C2070 1.368 . S
C2051 H2075 0.949 . S
H2052 C2056 0.949 . S
C2053 C2054 1.349 . S
C2053 C2055 1.327 . S
C2053 H2076 0.950 . S
C2054 C2053 1.349 . S
C2054 C2066 1.349 . S
C2055 C2053 1.327 . S
C2055 C2071 1.429 . S
C2055 H2077 0.966 . S
C2056 H2052 0.949 . S
C2056 C2064 1.574 . S
C2056 C2072 1.368 . S
H2057 C2065 0.950 . S
H2058 C2063 0.950 . S
H2059 C2064 0.949 . S
H2060 C2066 0.950 . S
H2061 C2067 0.950 . S
H2062 C2068 0.949 . S
C2063 H2058 0.950 . S
C2063 C2065 1.327 . S
C2063 C2069 1.429 . S
C2064 C2056 1.574 . S
C2064 H2059 0.949 . S
C2064 C2070 1.368 1_455 S
C2065 C2049 1.349 . S
C2065 H2057 0.950 . S
C2065 C2063 1.327 . S
C2066 C2054 1.349 . S
C2066 H2060 0.950 . S
C2066 C2067 1.327 . S
C2067 H2061 0.950 . S
C2067 C2066 1.327 . S
C2067 C2071 1.429 . S
C2068 C2051 1.574 . S
C2068 H2062 0.949 . S
C2068 C2072 1.368 1_655 S
C2069 C2050 1.429 . S
C2069 C2063 1.429 . S
C2069 C2070 1.523 . S
C2070 C2051 1.368 . S
C2070 C2064 1.368 1_655 S
C2070 C2069 1.523 . S
C2071 C2055 1.429 . S
C2071 C2067 1.429 . S
C2071 C2072 1.523 . S
C2072 C2056 1.368 . S
C2072 C2068 1.368 1_455 S
C2072 C2071 1.523 . S
H2073 C2048 0.950 . S
H2074 C2050 0.966 . S
H2075 C2051 0.949 . S
H2076 C2053 0.950 . S
H2077 C2055 0.966 . S
C2078 C2079 1.349 . S
C2078 C2080 1.327 . S
C2078 H2103 0.950 . S
C2079 C2078 1.349 . S
C2079 C2095 1.349 . S
C2080 C2078 1.327 . S
C2080 C2099 1.429 . S
C2080 H2104 0.950 . S
C2081 C2098 1.574 1_455 S
C2081 C2100 1.368 . S
C2081 H2105 0.949 . S
H2082 C2086 0.949 . S
C2083 C2084 1.349 . S
C2083 C2085 1.327 . S
C2083 H2106 0.950 . S
C2084 C2083 1.349 . S
C2084 C2096 1.349 . S
C2085 C2083 1.327 . S
C2085 C2101 1.429 . S
C2085 H2107 0.950 . S
C2086 H2082 0.949 . S
C2086 C2094 1.574 1_655 S
C2086 C2102 1.368 . S
H2087 C2095 0.950 . S
H2088 C2093 0.950 . S
H2089 C2094 0.949 . S
H2090 C2096 0.950 . S
H2091 C2097 0.950 . S
H2092 C2098 0.949 . S
C2093 H2088 0.950 . S
C2093 C2095 1.327 . S
C2093 C2099 1.429 . S
C2094 C2086 1.574 1_455 S
C2094 H2089 0.949 . S
C2094 C2100 1.368 . S
C2095 C2079 1.349 . S
C2095 H2087 0.950 . S
C2095 C2093 1.327 . S
C2096 C2084 1.349 . S
C2096 H2090 0.950 . S
C2096 C2097 1.327 . S
C2097 H2091 0.950 . S
C2097 C2096 1.327 . S
C2097 C2101 1.429 . S
C2098 C2081 1.574 1_655 S
C2098 H2092 0.949 . S
C2098 C2102 1.368 . S
C2099 C2080 1.429 . S
C2099 C2093 1.429 . S
C2099 C2100 1.523 . S
C2100 C2081 1.368 . S
C2100 C2094 1.368 . S
C2100 C2099 1.523 . S
C2101 C2085 1.429 . S
C2101 C2097 1.429 . S
C2101 C2102 1.523 . S
C2102 C2086 1.368 . S
C2102 C2098 1.368 . S
C2102 C2101 1.523 . S
H2103 C2078 0.950 . S
H2104 C2080 0.950 . S
H2105 C2081 0.949 . S
H2106 C2083 0.950 . S
H2107 C2085 0.950 . S
C2108 C2109 1.349 . S
C2108 C2110 1.327 . S
C2108 H2133 0.950 . S
C2109 C2108 1.349 . S
C2109 C2125 1.349 . S
C2110 C2108 1.327 . S
C2110 C2129 1.429 . S
C2110 H2134 0.950 . S
C2111 C2128 1.574 . S
C2111 C2130 1.368 . S
C2111 H2135 0.949 . S
H2112 C2116 0.949 . S
C2113 C2114 1.349 . S
C2113 C2115 1.327 . S
C2113 H2136 0.950 . S
C2114 C2113 1.349 . S
C2114 C2126 1.349 . S
C2115 C2113 1.327 . S
C2115 C2131 1.429 . S
C2115 H2137 0.950 . S
C2116 H2112 0.949 . S
C2116 C2124 1.574 . S
C2116 C2132 1.368 . S
H2117 C2125 0.950 . S
H2118 C2123 0.950 . S
H2119 C2124 0.949 . S
H2120 C2126 0.950 . S
H2121 C2127 0.950 . S
H2122 C2128 0.949 . S
C2123 H2118 0.950 . S
C2123 C2125 1.327 . S
C2123 C2129 1.429 . S
C2124 C2116 1.574 . S
C2124 H2119 0.949 . S
C2124 C2130 1.368 . S
C2125 C2109 1.349 . S
C2125 H2117 0.950 . S
C2125 C2123 1.327 . S
C2126 C2114 1.349 . S
C2126 H2120 0.950 . S
C2126 C2127 1.327 . S
C2127 H2121 0.950 . S
C2127 C2126 1.327 . S
C2127 C2131 1.429 . S
C2128 C2111 1.574 . S
C2128 H2122 0.949 . S
C2128 C2132 1.368 . S
C2129 C2110 1.429 . S
C2129 C2123 1.429 . S
C2129 C2130 1.523 . S
C2130 C2111 1.368 . S
C2130 C2124 1.368 . S
C2130 C2129 1.523 . S
C2131 C2115 1.429 . S
C2131 C2127 1.429 . S
C2131 C2132 1.523 . S
C2132 C2116 1.368 . S
C2132 C2128 1.368 . S
C2132 C2131 1.523 . S
H2133 C2108 0.950 . S
H2134 C2110 0.950 . S
H2135 C2111 0.949 . S
H2136 C2113 0.950 . S
H2137 C2115 0.950 . S
C2138 C2139 1.349 . S
C2138 C2140 1.327 . S
C2138 H2163 0.950 . S
C2139 C2138 1.349 . S
C2139 C2155 1.349 . S
C2140 C2138 1.327 . S
C2140 C2159 1.429 . S
C2140 H2164 0.950 . S
C2141 C2158 1.574 . S
C2141 C2160 1.368 . S
C2141 H2165 0.949 . S
H2142 C2146 0.949 . S
C2143 C2144 1.349 . S
C2143 C2145 1.327 . S
C2143 H2166 0.950 . S
C2144 C2143 1.349 . S
C2144 C2156 1.349 . S
C2145 C2143 1.327 . S
C2145 C2161 1.429 . S
C2145 H2167 0.950 . S
C2146 H2142 0.949 . S
C2146 C2154 1.574 . S
C2146 C2162 1.368 . S
H2147 C2155 0.950 . S
H2148 C2153 0.950 . S
H2149 C2154 0.949 . S
H2150 C2156 0.950 . S
H2151 C2157 0.950 . S
H2152 C2158 0.949 . S
C2153 H2148 0.950 . S
C2153 C2155 1.327 . S
C2153 C2159 1.429 . S
C2154 C2146 1.574 . S
C2154 H2149 0.949 . S
C2154 C2160 1.368 . S
C2155 C2139 1.349 . S
C2155 H2147 0.950 . S
C2155 C2153 1.327 . S
C2156 C2144 1.349 . S
C2156 H2150 0.950 . S
C2156 C2157 1.327 . S
C2157 H2151 0.950 . S
C2157 C2156 1.327 . S
C2157 C2161 1.429 . S
C2158 C2141 1.574 . S
C2158 H2152 0.949 . S
C2158 C2162 1.368 . S
C2159 C2140 1.429 . S
C2159 C2153 1.429 . S
C2159 C2160 1.523 . S
C2160 C2141 1.368 . S
C2160 C2154 1.368 . S
C2160 C2159 1.523 . S
C2161 C2145 1.429 . S
C2161 C2157 1.429 . S
C2161 C2162 1.523 . S
C2162 C2146 1.368 . S
C2162 C2158 1.368 . S
C2162 C2161 1.523 . S
H2163 C2138 0.950 . S
H2164 C2140 0.950 . S
H2165 C2141 0.949 . S
H2166 C2143 0.950 . S
H2167 C2145 0.950 . S
C2168 C2169 1.349 . S
C2168 C2170 1.327 . S
C2168 H2193 0.950 . S
C2169 C2168 1.349 . S
C2169 C2185 1.349 . S
C2170 C2168 1.327 . S
C2170 C2189 1.429 . S
C2170 H2194 0.950 . S
C2171 C2188 1.574 . S
C2171 C2190 1.368 1_455 S
C2171 H2195 0.949 . S
H2172 C2176 0.949 . S
C2173 C2174 1.349 . S
C2173 C2175 1.327 . S
C2173 H2196 0.950 . S
C2174 C2173 1.349 . S
C2174 C2186 1.349 . S
C2175 C2173 1.327 . S
C2175 C2191 1.429 . S
C2175 H2197 0.950 . S
C2176 H2172 0.949 . S
C2176 C2184 1.574 . S
C2176 C2192 1.368 1_655 S
H2177 C2185 0.950 . S
H2178 C2183 0.966 . S
H2179 C2184 0.949 . S
H2180 C2186 0.950 . S
H2181 C2187 0.966 . S
H2182 C2188 0.949 . S
C2183 H2178 0.966 . S
C2183 C2185 1.327 . S
C2183 C2189 1.429 . S
C2184 C2176 1.574 . S
C2184 H2179 0.949 . S
C2184 C2190 1.368 . S
C2185 C2169 1.349 . S
C2185 H2177 0.950 . S
C2185 C2183 1.327 . S
C2186 C2174 1.349 . S
C2186 H2180 0.950 . S
C2186 C2187 1.327 . S
C2187 H2181 0.966 . S
C2187 C2186 1.327 . S
C2187 C2191 1.429 . S
C2188 C2171 1.574 . S
C2188 H2182 0.949 . S
C2188 C2192 1.368 . S
C2189 C2170 1.429 . S
C2189 C2183 1.429 . S
C2189 C2190 1.523 . S
C2190 C2171 1.368 1_655 S
C2190 C2184 1.368 . S
C2190 C2189 1.523 . S
C2191 C2175 1.429 . S
C2191 C2187 1.429 . S
C2191 C2192 1.523 . S
C2192 C2176 1.368 1_455 S
C2192 C2188 1.368 . S
C2192 C2191 1.523 . S
H2193 C2168 0.950 . S
H2194 C2170 0.950 . S
H2195 C2171 0.949 . S
H2196 C2173 0.950 . S
H2197 C2175 0.950 . S
C2198 C2199 1.349 . S
C2198 C2200 1.327 . S
C2198 H2223 0.950 . S
C2199 C2198 1.349 . S
C2199 C2215 1.349 . S
C2200 C2198 1.327 . S
C2200 C2219 1.429 . S
C2200 H2224 0.950 . S
C2201 C2218 1.574 . S
C2201 C2220 1.368 . S
C2201 H2225 0.949 . S
H2202 C2206 0.949 . S
C2203 C2204 1.349 . S
C2203 C2205 1.327 . S
C2203 H2226 0.950 . S
C2204 C2203 1.349 . S
C2204 C2216 1.349 . S
C2205 C2203 1.327 . S
C2205 C2221 1.429 . S
C2205 H2227 0.950 . S
C2206 H2202 0.949 . S
C2206 C2214 1.574 . S
C2206 C2222 1.368 . S
H2207 C2215 0.950 . S
H2208 C2213 0.950 . S
H2209 C2214 0.949 . S
H2210 C2216 0.950 . S
H2211 C2217 0.950 . S
H2212 C2218 0.949 . S
C2213 H2208 0.950 . S
C2213 C2215 1.327 . S
C2213 C2219 1.429 . S
C2214 C2206 1.574 . S
C2214 H2209 0.949 . S
C2214 C2220 1.368 . S
C2215 C2199 1.349 . S
C2215 H2207 0.950 . S
C2215 C2213 1.327 . S
C2216 C2204 1.349 . S
C2216 H2210 0.950 . S
C2216 C2217 1.327 . S
C2217 H2211 0.950 . S
C2217 C2216 1.327 . S
C2217 C2221 1.429 . S
C2218 C2201 1.574 . S
C2218 H2212 0.949 . S
C2218 C2222 1.368 . S
C2219 C2200 1.429 . S
C2219 C2213 1.429 . S
C2219 C2220 1.523 . S
C2220 C2201 1.368 . S
C2220 C2214 1.368 . S
C2220 C2219 1.523 . S
C2221 C2205 1.429 . S
C2221 C2217 1.429 . S
C2221 C2222 1.523 . S
C2222 C2206 1.368 . S
C2222 C2218 1.368 . S
C2222 C2221 1.523 . S
H2223 C2198 0.950 . S
H2224 C2200 0.950 . S
H2225 C2201 0.949 . S
H2226 C2203 0.950 . S
H2227 C2205 0.950 . S
C2228 C2229 1.349 . S
C2228 C2230 1.327 . S
C2228 H2253 0.950 . S
C2229 C2228 1.349 . S
C2229 C2245 1.349 . S
C2230 C2228 1.327 . S
C2230 C2249 1.429 . S
C2230 H2254 0.950 . S
C2231 C2248 1.574 . S
C2231 C2250 1.368 . S
C2231 H2255 0.949 . S
H2232 C2236 0.949 . S
C2233 C2234 1.349 . S
C2233 C2235 1.327 . S
C2233 H2256 0.950 . S
C2234 C2233 1.349 . S
C2234 C2246 1.349 . S
C2235 C2233 1.327 . S
C2235 C2251 1.429 . S
C2235 H2257 0.950 . S
C2236 H2232 0.949 . S
C2236 C2244 1.574 . S
C2236 C2252 1.368 . S
H2237 C2245 0.950 . S
H2238 C2243 0.950 . S
H2239 C2244 0.949 . S
H2240 C2246 0.950 . S
H2241 C2247 0.950 . S
H2242 C2248 0.949 . S
C2243 H2238 0.950 . S
C2243 C2245 1.327 . S
C2243 C2249 1.429 . S
C2244 C2236 1.574 . S
C2244 H2239 0.949 . S
C2244 C2250 1.368 . S
C2245 C2229 1.349 . S
C2245 H2237 0.950 . S
C2245 C2243 1.327 . S
C2246 C2234 1.349 . S
C2246 H2240 0.950 . S
C2246 C2247 1.327 . S
C2247 H2241 0.950 . S
C2247 C2246 1.327 . S
C2247 C2251 1.429 . S
C2248 C2231 1.574 . S
C2248 H2242 0.949 . S
C2248 C2252 1.368 . S
C2249 C2230 1.429 . S
C2249 C2243 1.429 . S
C2249 C2250 1.523 . S
C2250 C2231 1.368 . S
C2250 C2244 1.368 . S
C2250 C2249 1.523 . S
C2251 C2235 1.429 . S
C2251 C2247 1.429 . S
C2251 C2252 1.523 . S
C2252 C2236 1.368 . S
C2252 C2248 1.368 . S
C2252 C2251 1.523 . S
H2253 C2228 0.950 . S
H2254 C2230 0.950 . S
H2255 C2231 0.949 . S
H2256 C2233 0.950 . S
H2257 C2235 0.950 . S
C2258 C2259 1.349 . S
C2258 C2260 1.327 . S
C2258 H2283 0.950 . S
C2259 C2258 1.349 . S
C2259 C2275 1.349 . S
C2260 C2258 1.327 . S
C2260 C2279 1.429 . S
C2260 H2284 0.950 . S
C2261 C2278 1.574 1_455 S
C2261 C2280 1.368 . S
C2261 H2285 0.949 . S
H2262 C2266 0.949 . S
C2263 C2264 1.349 . S
C2263 C2265 1.327 . S
C2263 H2286 0.950 . S
C2264 C2263 1.349 . S
C2264 C2276 1.349 . S
C2265 C2263 1.327 . S
C2265 C2281 1.429 . S
C2265 H2287 0.950 . S
C2266 H2262 0.949 . S
C2266 C2274 1.574 1_655 S
C2266 C2282 1.368 . S
H2267 C2275 0.950 . S
H2268 C2273 0.950 . S
H2269 C2274 0.949 . S
H2270 C2276 0.950 . S
H2271 C2277 0.950 . S
H2272 C2278 0.949 . S
C2273 H2268 0.950 . S
C2273 C2275 1.327 . S
C2273 C2279 1.429 . S
C2274 C2266 1.574 1_455 S
C2274 H2269 0.949 . S
C2274 C2280 1.368 . S
C2275 C2259 1.349 . S
C2275 H2267 0.950 . S
C2275 C2273 1.327 . S
C2276 C2264 1.349 . S
C2276 H2270 0.950 . S
C2276 C2277 1.327 . S
C2277 H2271 0.950 . S
C2277 C2276 1.327 . S
C2277 C2281 1.429 . S
C2278 C2261 1.574 1_655 S
C2278 H2272 0.949 . S
C2278 C2282 1.368 . S
C2279 C2260 1.429 . S
C2279 C2273 1.429 . S
C2279 C2280 1.523 . S
C2280 C2261 1.368 . S
C2280 C2274 1.368 . S
C2280 C2279 1.523 . S
C2281 C2265 1.429 . S
C2281 C2277 1.429 . S
C2281 C2282 1.523 . S
C2282 C2266 1.368 . S
C2282 C2278 1.368 . S
C2282 C2281 1.523 . S
H2283 C2258 0.950 . S
H2284 C2260 0.950 . S
H2285 C2261 0.949 . S
H2286 C2263 0.950 . S
H2287 C2265 0.950 . S
C2288 C2289 1.349 . S
C2288 C2290 1.327 . S
C2288 H2313 0.950 . S
C2289 C2288 1.349 . S
C2289 C2305 1.349 . S
C2290 C2288 1.327 . S
C2290 C2309 1.429 . S
C2290 H2314 0.950 . S
C2291 C2308 1.574 . S
C2291 C2310 1.368 . S
C2291 H2315 0.949 . S
H2292 C2296 0.949 . S
C2293 C2294 1.349 . S
C2293 C2295 1.327 . S
C2293 H2316 0.950 . S
C2294 C2293 1.349 . S
C2294 C2306 1.349 . S
C2295 C2293 1.327 . S
C2295 C2311 1.429 . S
C2295 H2317 0.950 . S
C2296 H2292 0.949 . S
C2296 C2304 1.574 . S
C2296 C2312 1.368 . S
H2297 C2305 0.950 . S
H2298 C2303 0.950 . S
H2299 C2304 0.949 . S
H2300 C2306 0.950 . S
H2301 C2307 0.950 . S
H2302 C2308 0.949 . S
C2303 H2298 0.950 . S
C2303 C2305 1.327 . S
C2303 C2309 1.429 . S
C2304 C2296 1.574 . S
C2304 H2299 0.949 . S
C2304 C2310 1.368 1_455 S
C2305 C2289 1.349 . S
C2305 H2297 0.950 . S
C2305 C2303 1.327 . S
C2306 C2294 1.349 . S
C2306 H2300 0.950 . S
C2306 C2307 1.327 . S
C2307 H2301 0.950 . S
C2307 C2306 1.327 . S
C2307 C2311 1.429 . S
C2308 C2291 1.574 . S
C2308 H2302 0.949 . S
C2308 C2312 1.368 1_655 S
C2309 C2290 1.429 . S
C2309 C2303 1.429 . S
C2309 C2310 1.523 . S
C2310 C2291 1.368 . S
C2310 C2304 1.368 1_655 S
C2310 C2309 1.523 . S
C2311 C2295 1.429 . S
C2311 C2307 1.429 . S
C2311 C2312 1.523 . S
C2312 C2296 1.368 . S
C2312 C2308 1.368 1_455 S
C2312 C2311 1.523 . S
H2313 C2288 0.950 . S
H2314 C2290 0.950 . S
H2315 C2291 0.949 . S
H2316 C2293 0.950 . S
H2317 C2295 0.950 . S
C2318 C2319 1.349 . S
C2318 C2320 1.327 . S
C2318 H2343 0.950 . S
C2319 C2318 1.349 . S
C2319 C2335 1.349 . S
C2320 C2318 1.327 . S
C2320 C2339 1.429 . S
C2320 H2344 0.950 . S
C2321 C2338 1.574 1_655 S
C2321 C2340 1.368 . S
C2321 H2345 0.949 . S
H2322 C2326 0.949 . S
C2323 C2324 1.349 . S
C2323 C2325 1.327 . S
C2323 H2346 0.950 . S
C2324 C2323 1.349 . S
C2324 C2336 1.349 . S
C2325 C2323 1.327 . S
C2325 C2341 1.429 . S
C2325 H2347 0.950 . S
C2326 H2322 0.949 . S
C2326 C2334 1.574 1_455 S
C2326 C2342 1.368 . S
H2327 C2335 0.950 . S
H2328 C2333 0.950 . S
H2329 C2334 0.949 . S
H2330 C2336 0.950 . S
H2331 C2337 0.950 . S
H2332 C2338 0.949 . S
C2333 H2328 0.950 . S
C2333 C2335 1.327 . S
C2333 C2339 1.429 . S
C2334 C2326 1.574 1_655 S
C2334 H2329 0.949 . S
C2334 C2340 1.368 . S
C2335 C2319 1.349 . S
C2335 H2327 0.950 . S
C2335 C2333 1.327 . S
C2336 C2324 1.349 . S
C2336 H2330 0.950 . S
C2336 C2337 1.327 . S
C2337 H2331 0.950 . S
C2337 C2336 1.327 . S
C2337 C2341 1.429 . S
C2338 C2321 1.574 1_455 S
C2338 H2332 0.949 . S
C2338 C2342 1.368 . S
C2339 C2320 1.429 . S
C2339 C2333 1.429 . S
C2339 C2340 1.523 . S
C2340 C2321 1.368 . S
C2340 C2334 1.368 . S
C2340 C2339 1.523 . S
C2341 C2325 1.429 . S
C2341 C2337 1.429 . S
C2341 C2342 1.523 . S
C2342 C2326 1.368 . S
C2342 C2338 1.368 . S
C2342 C2341 1.523 . S
H2343 C2318 0.950 . S
H2344 C2320 0.950 . S
H2345 C2321 0.949 . S
H2346 C2323 0.950 . S
H2347 C2325 0.950 . S
C2348 C2349 1.349 . S
C2348 C2350 1.327 . S
C2348 H2373 0.950 . S
C2349 C2348 1.349 . S
C2349 C2365 1.349 . S
C2350 C2348 1.327 . S
C2350 C2369 1.429 . S
C2350 H2374 0.950 . S
C2351 C2368 1.574 . S
C2351 C2370 1.368 . S
C2351 H2375 0.949 . S
H2352 C2356 0.949 . S
C2353 C2354 1.349 . S
C2353 C2355 1.327 . S
C2353 H2376 0.950 . S
C2354 C2353 1.349 . S
C2354 C2366 1.349 . S
C2355 C2353 1.327 . S
C2355 C2371 1.429 . S
C2355 H2377 0.950 . S
C2356 H2352 0.949 . S
C2356 C2364 1.574 . S
C2356 C2372 1.368 . S
H2357 C2365 0.950 . S
H2358 C2363 0.950 . S
H2359 C2364 0.949 . S
H2360 C2366 0.950 . S
H2361 C2367 0.950 . S
H2362 C2368 0.949 . S
C2363 H2358 0.950 . S
C2363 C2365 1.327 . S
C2363 C2369 1.429 . S
C2364 C2356 1.574 . S
C2364 H2359 0.949 . S
C2364 C2370 1.368 . S
C2365 C2349 1.349 . S
C2365 H2357 0.950 . S
C2365 C2363 1.327 . S
C2366 C2354 1.349 . S
C2366 H2360 0.950 . S
C2366 C2367 1.327 . S
C2367 H2361 0.950 . S
C2367 C2366 1.327 . S
C2367 C2371 1.429 . S
C2368 C2351 1.574 . S
C2368 H2362 0.949 . S
C2368 C2372 1.368 . S
C2369 C2350 1.429 . S
C2369 C2363 1.429 . S
C2369 C2370 1.523 . S
C2370 C2351 1.368 . S
C2370 C2364 1.368 . S
C2370 C2369 1.523 . S
C2371 C2355 1.429 . S
C2371 C2367 1.429 . S
C2371 C2372 1.523 . S
C2372 C2356 1.368 . S
C2372 C2368 1.368 . S
C2372 C2371 1.523 . S
H2373 C2348 0.950 . S
H2374 C2350 0.950 . S
H2375 C2351 0.949 . S
H2376 C2353 0.950 . S
H2377 C2355 0.950 . S
C2378 C2379 1.349 1_554 S
C2378 C2380 1.327 . S
C2378 H2403 0.950 . S
C2379 C2378 1.349 1_556 S
C2379 C2395 1.349 . S
C2380 C2378 1.327 . S
C2380 C2399 1.429 1_554 S
C2380 H2404 0.950 . S
C2381 C2398 1.574 . S
C2381 C2400 1.368 . S
C2381 H2405 0.949 . S
H2382 C2386 0.949 . S
C2383 C2384 1.349 . S
C2383 C2385 1.327 . S
C2383 H2406 0.950 . S
C2384 C2383 1.349 . S
C2384 C2396 1.349 1_556 S
C2385 C2383 1.327 . S
C2385 C2401 1.429 . S
C2385 H2407 0.950 . S
C2386 H2382 0.949 . S
C2386 C2394 1.574 . S
C2386 C2402 1.368 1_554 S
H2387 C2395 0.950 . S
H2388 C2393 0.950 . S
H2389 C2394 0.949 . S
H2390 C2396 0.950 . S
H2391 C2397 0.950 . S
H2392 C2398 0.949 . S
C2393 H2388 0.950 . S
C2393 C2395 1.327 . S
C2393 C2399 1.429 . S
C2394 C2386 1.574 . S
C2394 H2389 0.949 . S
C2394 C2400 1.368 1_554 S
C2395 C2379 1.349 . S
C2395 H2387 0.950 . S
C2395 C2393 1.327 . S
C2396 C2384 1.349 1_554 S
C2396 H2390 0.950 . S
C2396 C2397 1.327 . S
C2397 H2391 0.950 . S
C2397 C2396 1.327 . S
C2397 C2401 1.429 1_554 S
C2398 C2381 1.574 . S
C2398 H2392 0.949 . S
C2398 C2402 1.368 . S
C2399 C2380 1.429 1_556 S
C2399 C2393 1.429 . S
C2399 C2400 1.523 . S
C2400 C2381 1.368 . S
C2400 C2394 1.368 1_556 S
C2400 C2399 1.523 . S
C2401 C2385 1.429 . S
C2401 C2397 1.429 1_556 S
C2401 C2402 1.523 . S
C2402 C2386 1.368 1_556 S
C2402 C2398 1.368 . S
C2402 C2401 1.523 . S
H2403 C2378 0.950 . S
H2404 C2380 0.950 . S
H2405 C2381 0.949 . S
H2406 C2383 0.950 . S
H2407 C2385 0.950 . S
C2408 C2409 1.349 . S
C2408 C2410 1.327 . S
C2408 H2433 0.950 . S
C2409 C2408 1.349 . S
C2409 C2425 1.349 . S
C2410 C2408 1.327 . S
C2410 C2429 1.429 . S
C2410 H2434 0.950 . S
C2411 C2428 1.574 . S
C2411 C2430 1.368 1_455 S
C2411 H2435 0.949 . S
H2412 C2416 0.949 . S
C2413 C2414 1.349 . S
C2413 C2415 1.327 . S
C2413 H2436 0.950 . S
C2414 C2413 1.349 . S
C2414 C2426 1.349 . S
C2415 C2413 1.327 . S
C2415 C2431 1.429 . S
C2415 H2437 0.950 . S
C2416 H2412 0.949 . S
C2416 C2424 1.574 . S
C2416 C2432 1.368 1_655 S
H2417 C2425 0.950 . S
H2418 C2423 0.950 . S
H2419 C2424 0.949 . S
H2420 C2426 0.950 . S
H2421 C2427 0.950 . S
H2422 C2428 0.949 . S
C2423 H2418 0.950 . S
C2423 C2425 1.327 . S
C2423 C2429 1.429 . S
C2424 C2416 1.574 . S
C2424 H2419 0.949 . S
C2424 C2430 1.368 . S
C2425 C2409 1.349 . S
C2425 H2417 0.950 . S
C2425 C2423 1.327 . S
C2426 C2414 1.349 . S
C2426 H2420 0.950 . S
C2426 C2427 1.327 . S
C2427 H2421 0.950 . S
C2427 C2426 1.327 . S
C2427 C2431 1.429 . S
C2428 C2411 1.574 . S
C2428 H2422 0.949 . S
C2428 C2432 1.368 . S
C2429 C2410 1.429 . S
C2429 C2423 1.429 . S
C2429 C2430 1.523 . S
C2430 C2411 1.368 1_655 S
C2430 C2424 1.368 . S
C2430 C2429 1.523 . S
C2431 C2415 1.429 . S
C2431 C2427 1.429 . S
C2431 C2432 1.523 . S
C2432 C2416 1.368 1_455 S
C2432 C2428 1.368 . S
C2432 C2431 1.523 . S
H2433 C2408 0.950 . S
H2434 C2410 0.950 . S
H2435 C2411 0.949 . S
H2436 C2413 0.950 . S
H2437 C2415 0.950 . S
C2438 C2439 1.349 . S
C2438 C2440 1.327 . S
C2438 H2463 0.950 . S
C2439 C2438 1.349 . S
C2439 C2455 1.349 . S
C2440 C2438 1.327 . S
C2440 C2459 1.429 . S
C2440 H2464 0.950 . S
C2441 C2458 1.574 . S
C2441 C2460 1.368 . S
C2441 H2465 0.949 . S
H2442 C2446 0.949 . S
C2443 C2444 1.349 . S
C2443 C2445 1.327 . S
C2443 H2466 0.950 . S
C2444 C2443 1.349 . S
C2444 C2456 1.349 . S
C2445 C2443 1.327 . S
C2445 C2461 1.429 . S
C2445 H2467 0.950 . S
C2446 H2442 0.949 . S
C2446 C2454 1.574 . S
C2446 C2462 1.368 . S
H2447 C2455 0.950 . S
H2448 C2453 0.950 . S
H2449 C2454 0.949 . S
H2450 C2456 0.950 . S
H2451 C2457 0.950 . S
H2452 C2458 0.949 . S
C2453 H2448 0.950 . S
C2453 C2455 1.327 . S
C2453 C2459 1.429 . S
C2454 C2446 1.574 . S
C2454 H2449 0.949 . S
C2454 C2460 1.368 . S
C2455 C2439 1.349 . S
C2455 H2447 0.950 . S
C2455 C2453 1.327 . S
C2456 C2444 1.349 . S
C2456 H2450 0.950 . S
C2456 C2457 1.327 . S
C2457 H2451 0.950 . S
C2457 C2456 1.327 . S
C2457 C2461 1.429 . S
C2458 C2441 1.574 . S
C2458 H2452 0.949 . S
C2458 C2462 1.368 . S
C2459 C2440 1.429 . S
C2459 C2453 1.429 . S
C2459 C2460 1.523 . S
C2460 C2441 1.368 . S
C2460 C2454 1.368 . S
C2460 C2459 1.523 . S
C2461 C2445 1.429 . S
C2461 C2457 1.429 . S
C2461 C2462 1.523 . S
C2462 C2446 1.368 . S
C2462 C2458 1.368 . S
C2462 C2461 1.523 . S
H2463 C2438 0.950 . S
H2464 C2440 0.950 . S
H2465 C2441 0.949 . S
H2466 C2443 0.950 . S
H2467 C2445 0.950 . S
C2468 C2469 1.349 . S
C2468 C2470 1.327 . S
C2468 H2493 0.950 . S
C2469 C2468 1.349 . S
C2469 C2485 1.349 . S
C2470 C2468 1.327 . S
C2470 C2489 1.429 . S
C2470 H2494 0.950 . S
C2471 C2488 1.574 . S
C2471 C2490 1.368 . S
C2471 H2495 0.949 . S
H2472 C2476 0.949 . S
C2473 C2474 1.349 . S
C2473 C2475 1.327 . S
C2473 H2496 0.950 . S
C2474 C2473 1.349 . S
C2474 C2486 1.349 . S
C2475 C2473 1.327 . S
C2475 C2491 1.429 . S
C2475 H2497 0.950 . S
C2476 H2472 0.949 . S
C2476 C2484 1.574 . S
C2476 C2492 1.368 . S
H2477 C2485 0.950 . S
H2478 C2483 0.950 . S
H2479 C2484 0.949 . S
H2480 C2486 0.950 . S
H2481 C2487 0.950 . S
H2482 C2488 0.949 . S
C2483 H2478 0.950 . S
C2483 C2485 1.327 . S
C2483 C2489 1.429 . S
C2484 C2476 1.574 . S
C2484 H2479 0.949 . S
C2484 C2490 1.368 . S
C2485 C2469 1.349 . S
C2485 H2477 0.950 . S
C2485 C2483 1.327 . S
C2486 C2474 1.349 . S
C2486 H2480 0.950 . S
C2486 C2487 1.327 . S
C2487 H2481 0.950 . S
C2487 C2486 1.327 . S
C2487 C2491 1.429 . S
C2488 C2471 1.574 . S
C2488 H2482 0.949 . S
C2488 C2492 1.368 . S
C2489 C2470 1.429 . S
C2489 C2483 1.429 . S
C2489 C2490 1.523 . S
C2490 C2471 1.368 . S
C2490 C2484 1.368 . S
C2490 C2489 1.523 . S
C2491 C2475 1.429 . S
C2491 C2487 1.429 . S
C2491 C2492 1.523 . S
C2492 C2476 1.368 . S
C2492 C2488 1.368 . S
C2492 C2491 1.523 . S
H2493 C2468 0.950 . S
H2494 C2470 0.950 . S
H2495 C2471 0.949 . S
H2496 C2473 0.950 . S
H2497 C2475 0.950 . S
C2498 C2499 1.349 . S
C2498 C2500 1.327 . S
C2498 H2523 0.950 . S
C2499 C2498 1.349 . S
C2499 C2515 1.349 1_554 S
C2500 C2498 1.327 . S
C2500 C2519 1.429 . S
C2500 H2524 0.950 . S
C2501 C2518 1.574 1_455 S
C2501 C2520 1.368 1_556 S
C2501 H2525 0.949 . S
H2502 C2506 0.949 . S
C2503 C2504 1.349 1_556 S
C2503 C2505 1.327 . S
C2503 H2526 0.950 . S
C2504 C2503 1.349 1_554 S
C2504 C2516 1.349 . S
C2505 C2503 1.327 . S
C2505 C2521 1.429 1_556 S
C2505 H2527 0.950 . S
C2506 H2502 0.949 . S
C2506 C2514 1.574 1_655 S
C2506 C2522 1.368 . S
H2507 C2515 0.950 . S
H2508 C2513 0.950 . S
H2509 C2514 0.949 . S
H2510 C2516 0.950 . S
H2511 C2517 0.950 . S
H2512 C2518 0.949 . S
C2513 H2508 0.950 . S
C2513 C2515 1.327 . S
C2513 C2519 1.429 1_556 S
C2514 C2506 1.574 1_455 S
C2514 H2509 0.949 . S
C2514 C2520 1.368 . S
C2515 C2499 1.349 1_556 S
C2515 H2507 0.950 . S
C2515 C2513 1.327 . S
C2516 C2504 1.349 . S
C2516 H2510 0.950 . S
C2516 C2517 1.327 . S
C2517 H2511 0.950 . S
C2517 C2516 1.327 . S
C2517 C2521 1.429 . S
C2518 C2501 1.574 1_655 S
C2518 H2512 0.949 . S
C2518 C2522 1.368 1_556 S
C2519 C2500 1.429 . S
C2519 C2513 1.429 1_554 S
C2519 C2520 1.523 . S
C2520 C2501 1.368 1_554 S
C2520 C2514 1.368 . S
C2520 C2519 1.523 . S
C2521 C2505 1.429 1_554 S
C2521 C2517 1.429 . S
C2521 C2522 1.523 . S
C2522 C2506 1.368 . S
C2522 C2518 1.368 1_554 S
C2522 C2521 1.523 . S
H2523 C2498 0.950 . S
H2524 C2500 0.950 . S
H2525 C2501 0.949 . S
H2526 C2503 0.950 . S
H2527 C2505 0.950 . S
C2528 C2529 1.349 . S
C2528 C2530 1.327 . S
C2528 H2553 0.950 . S
C2529 C2528 1.349 . S
C2529 C2545 1.349 . S
C2530 C2528 1.327 . S
C2530 C2549 1.429 . S
C2530 H2554 0.950 . S
C2531 C2548 1.574 . S
C2531 C2550 1.368 . S
C2531 H2555 0.949 . S
H2532 C2536 0.949 . S
C2533 C2534 1.349 . S
C2533 C2535 1.327 . S
C2533 H2556 0.950 . S
C2534 C2533 1.349 . S
C2534 C2546 1.349 . S
C2535 C2533 1.327 . S
C2535 C2551 1.429 . S
C2535 H2557 0.950 . S
C2536 H2532 0.949 . S
C2536 C2544 1.574 . S
C2536 C2552 1.368 . S
H2537 C2545 0.950 . S
H2538 C2543 0.950 . S
H2539 C2544 0.949 . S
H2540 C2546 0.950 . S
H2541 C2547 0.950 . S
H2542 C2548 0.949 . S
C2543 H2538 0.950 . S
C2543 C2545 1.327 . S
C2543 C2549 1.429 . S
C2544 C2536 1.574 . S
C2544 H2539 0.949 . S
C2544 C2550 1.368 . S
C2545 C2529 1.349 . S
C2545 H2537 0.950 . S
C2545 C2543 1.327 . S
C2546 C2534 1.349 . S
C2546 H2540 0.950 . S
C2546 C2547 1.327 . S
C2547 H2541 0.950 . S
C2547 C2546 1.327 . S
C2547 C2551 1.429 . S
C2548 C2531 1.574 . S
C2548 H2542 0.949 . S
C2548 C2552 1.368 . S
C2549 C2530 1.429 . S
C2549 C2543 1.429 . S
C2549 C2550 1.523 . S
C2550 C2531 1.368 . S
C2550 C2544 1.368 . S
C2550 C2549 1.523 . S
C2551 C2535 1.429 . S
C2551 C2547 1.429 . S
C2551 C2552 1.523 . S
C2552 C2536 1.368 . S
C2552 C2548 1.368 . S
C2552 C2551 1.523 . S
H2553 C2528 0.950 . S
H2554 C2530 0.950 . S
H2555 C2531 0.949 . S
H2556 C2533 0.950 . S
H2557 C2535 0.950 . S
C2558 C2559 1.349 . S
C2558 C2560 1.327 . S
C2558 H2583 0.950 . S
C2559 C2558 1.349 . S
C2559 C2575 1.349 . S
C2560 C2558 1.327 . S
C2560 C2579 1.429 . S
C2560 H2584 0.950 . S
C2561 C2578 1.574 . S
C2561 C2580 1.368 . S
C2561 H2585 0.949 . S
H2562 C2566 0.949 . S
C2563 C2564 1.349 . S
C2563 C2565 1.327 1_655 S
C2563 H2586 0.950 . S
C2564 C2563 1.349 . S
C2564 C2576 1.349 . S
C2565 C2563 1.327 1_455 S
C2565 C2581 1.429 . S
C2565 H2587 0.950 . S
C2566 H2562 0.949 . S
C2566 C2574 1.574 . S
C2566 C2582 1.368 . S
H2567 C2575 0.950 . S
H2568 C2573 0.950 . S
H2569 C2574 0.949 . S
H2570 C2576 0.950 . S
H2571 C2577 0.950 . S
H2572 C2578 0.949 . S
C2573 H2568 0.950 . S
C2573 C2575 1.327 . S
C2573 C2579 1.429 . S
C2574 C2566 1.574 . S
C2574 H2569 0.949 . S
C2574 C2580 1.368 . S
C2575 C2559 1.349 . S
C2575 H2567 0.950 . S
C2575 C2573 1.327 . S
C2576 C2564 1.349 . S
C2576 H2570 0.950 . S
C2576 C2577 1.327 . S
C2577 H2571 0.950 . S
C2577 C2576 1.327 . S
C2577 C2581 1.429 1_655 S
C2578 C2561 1.574 . S
C2578 H2572 0.949 . S
C2578 C2582 1.368 . S
C2579 C2560 1.429 . S
C2579 C2573 1.429 . S
C2579 C2580 1.523 . S
C2580 C2561 1.368 . S
C2580 C2574 1.368 . S
C2580 C2579 1.523 . S
C2581 C2565 1.429 . S
C2581 C2577 1.429 1_455 S
C2581 C2582 1.523 . S
C2582 C2566 1.368 . S
C2582 C2578 1.368 . S
C2582 C2581 1.523 . S
H2583 C2558 0.950 . S
H2584 C2560 0.950 . S
H2585 C2561 0.949 . S
H2586 C2563 0.950 . S
H2587 C2565 0.950 . S
C2588 C2589 1.349 . S
C2588 C2590 1.327 . S
C2588 H2613 0.950 . S
C2589 C2588 1.349 . S
C2589 C2605 1.349 . S
C2590 C2588 1.327 . S
C2590 C2609 1.429 . S
C2590 H2614 0.950 . S
C2591 C2608 1.574 . S
C2591 C2610 1.368 . S
C2591 H2615 0.949 . S
H2592 C2596 0.949 . S
C2593 C2594 1.349 . S
C2593 C2595 1.327 . S
C2593 H2616 0.950 . S
C2594 C2593 1.349 . S
C2594 C2606 1.349 . S
C2595 C2593 1.327 . S
C2595 C2611 1.429 . S
C2595 H2617 0.950 . S
C2596 H2592 0.949 . S
C2596 C2604 1.574 . S
C2596 C2612 1.368 . S
H2597 C2605 0.950 . S
H2598 C2603 0.950 . S
H2599 C2604 0.949 . S
H2600 C2606 0.950 . S
H2601 C2607 0.950 . S
H2602 C2608 0.949 . S
C2603 H2598 0.950 . S
C2603 C2605 1.327 . S
C2603 C2609 1.429 . S
C2604 C2596 1.574 . S
C2604 H2599 0.949 . S
C2604 C2610 1.368 . S
C2605 C2589 1.349 . S
C2605 H2597 0.950 . S
C2605 C2603 1.327 . S
C2606 C2594 1.349 . S
C2606 H2600 0.950 . S
C2606 C2607 1.327 . S
C2607 H2601 0.950 . S
C2607 C2606 1.327 . S
C2607 C2611 1.429 . S
C2608 C2591 1.574 . S
C2608 H2602 0.949 . S
C2608 C2612 1.368 . S
C2609 C2590 1.429 . S
C2609 C2603 1.429 . S
C2609 C2610 1.523 . S
C2610 C2591 1.368 . S
C2610 C2604 1.368 . S
C2610 C2609 1.523 . S
C2611 C2595 1.429 . S
C2611 C2607 1.429 . S
C2611 C2612 1.523 . S
C2612 C2596 1.368 . S
C2612 C2608 1.368 . S
C2612 C2611 1.523 . S
H2613 C2588 0.950 . S
H2614 C2590 0.950 . S
H2615 C2591 0.949 . S
H2616 C2593 0.950 . S
H2617 C2595 0.950 . S
C2618 C2619 1.349 . S
C2618 C2620 1.327 . S
C2618 H2643 0.950 . S
C2619 C2618 1.349 . S
C2619 C2635 1.349 . S
C2620 C2618 1.327 . S
C2620 C2639 1.429 . S
C2620 H2644 0.950 . S
C2621 C2638 1.574 . S
C2621 C2640 1.368 . S
C2621 H2645 0.949 . S
H2622 C2626 0.949 . S
C2623 C2624 1.349 . S
C2623 C2625 1.327 . S
C2623 H2646 0.950 . S
C2624 C2623 1.349 . S
C2624 C2636 1.349 . S
C2625 C2623 1.327 . S
C2625 C2641 1.429 . S
C2625 H2647 0.950 . S
C2626 H2622 0.949 . S
C2626 C2634 1.574 . S
C2626 C2642 1.368 . S
H2627 C2635 0.950 . S
H2628 C2633 0.950 . S
H2629 C2634 0.949 . S
H2630 C2636 0.950 . S
H2631 C2637 0.950 . S
H2632 C2638 0.949 . S
C2633 H2628 0.950 . S
C2633 C2635 1.327 . S
C2633 C2639 1.429 . S
C2634 C2626 1.574 . S
C2634 H2629 0.949 . S
C2634 C2640 1.368 . S
C2635 C2619 1.349 . S
C2635 H2627 0.950 . S
C2635 C2633 1.327 . S
C2636 C2624 1.349 . S
C2636 H2630 0.950 . S
C2636 C2637 1.327 . S
C2637 H2631 0.950 . S
C2637 C2636 1.327 . S
C2637 C2641 1.429 . S
C2638 C2621 1.574 . S
C2638 H2632 0.949 . S
C2638 C2642 1.368 . S
C2639 C2620 1.429 . S
C2639 C2633 1.429 . S
C2639 C2640 1.523 . S
C2640 C2621 1.368 . S
C2640 C2634 1.368 . S
C2640 C2639 1.523 . S
C2641 C2625 1.429 . S
C2641 C2637 1.429 . S
C2641 C2642 1.523 . S
C2642 C2626 1.368 . S
C2642 C2638 1.368 . S
C2642 C2641 1.523 . S
H2643 C2618 0.950 . S
H2644 C2620 0.950 . S
H2645 C2621 0.949 . S
H2646 C2623 0.950 . S
H2647 C2625 0.950 . S
C2648 C2649 1.349 . S
C2648 C2650 1.327 . S
C2648 H2673 0.950 . S
C2649 C2648 1.349 . S
C2649 C2665 1.349 . S
C2650 C2648 1.327 . S
C2650 C2669 1.429 . S
C2650 H2674 0.950 . S
C2651 C2668 1.574 . S
C2651 C2670 1.368 . S
C2651 H2675 0.949 . S
H2652 C2656 0.949 . S
C2653 C2654 1.349 . S
C2653 C2655 1.327 . S
C2653 H2676 0.950 . S
C2654 C2653 1.349 . S
C2654 C2666 1.349 . S
C2655 C2653 1.327 . S
C2655 C2671 1.429 . S
C2655 H2677 0.950 . S
C2656 H2652 0.949 . S
C2656 C2664 1.574 . S
C2656 C2672 1.368 . S
H2657 C2665 0.950 . S
H2658 C2663 0.950 . S
H2659 C2664 0.949 . S
H2660 C2666 0.950 . S
H2661 C2667 0.950 . S
H2662 C2668 0.949 . S
C2663 H2658 0.950 . S
C2663 C2665 1.327 . S
C2663 C2669 1.429 . S
C2664 C2656 1.574 . S
C2664 H2659 0.949 . S
C2664 C2670 1.368 . S
C2665 C2649 1.349 . S
C2665 H2657 0.950 . S
C2665 C2663 1.327 . S
C2666 C2654 1.349 . S
C2666 H2660 0.950 . S
C2666 C2667 1.327 . S
C2667 H2661 0.950 . S
C2667 C2666 1.327 . S
C2667 C2671 1.429 . S
C2668 C2651 1.574 . S
C2668 H2662 0.949 . S
C2668 C2672 1.368 . S
C2669 C2650 1.429 . S
C2669 C2663 1.429 . S
C2669 C2670 1.523 . S
C2670 C2651 1.368 . S
C2670 C2664 1.368 . S
C2670 C2669 1.523 . S
C2671 C2655 1.429 . S
C2671 C2667 1.429 . S
C2671 C2672 1.523 . S
C2672 C2656 1.368 . S
C2672 C2668 1.368 . S
C2672 C2671 1.523 . S
H2673 C2648 0.950 . S
H2674 C2650 0.950 . S
H2675 C2651 0.949 . S
H2676 C2653 0.950 . S
H2677 C2655 0.950 . S
C2678 C2679 1.349 . S
C2678 C2680 1.327 . S
C2678 H2703 0.950 . S
C2679 C2678 1.349 . S
C2679 C2695 1.349 . S
C2680 C2678 1.327 . S
C2680 C2699 1.429 . S
C2680 H2704 0.950 . S
C2681 C2698 1.574 . S
C2681 C2700 1.368 . S
C2681 H2705 0.949 . S
H2682 C2686 0.949 . S
C2683 C2684 1.349 . S
C2683 C2685 1.327 . S
C2683 H2706 0.950 . S
C2684 C2683 1.349 . S
C2684 C2696 1.349 . S
C2685 C2683 1.327 . S
C2685 C2701 1.429 . S
C2685 H2707 0.950 . S
C2686 H2682 0.949 . S
C2686 C2694 1.574 . S
C2686 C2702 1.368 . S
H2687 C2695 0.950 . S
H2688 C2693 0.950 . S
H2689 C2694 0.949 . S
H2690 C2696 0.950 . S
H2691 C2697 0.950 . S
H2692 C2698 0.949 . S
C2693 H2688 0.950 . S
C2693 C2695 1.327 . S
C2693 C2699 1.429 . S
C2694 C2686 1.574 . S
C2694 H2689 0.949 . S
C2694 C2700 1.368 . S
C2695 C2679 1.349 . S
C2695 H2687 0.950 . S
C2695 C2693 1.327 . S
C2696 C2684 1.349 . S
C2696 H2690 0.950 . S
C2696 C2697 1.327 . S
C2697 H2691 0.950 . S
C2697 C2696 1.327 . S
C2697 C2701 1.429 . S
C2698 C2681 1.574 . S
C2698 H2692 0.949 . S
C2698 C2702 1.368 . S
C2699 C2680 1.429 . S
C2699 C2693 1.429 . S
C2699 C2700 1.523 . S
C2700 C2681 1.368 . S
C2700 C2694 1.368 . S
C2700 C2699 1.523 . S
C2701 C2685 1.429 . S
C2701 C2697 1.429 . S
C2701 C2702 1.523 . S
C2702 C2686 1.368 . S
C2702 C2698 1.368 . S
C2702 C2701 1.523 . S
H2703 C2678 0.950 . S
H2704 C2680 0.950 . S
H2705 C2681 0.949 . S
H2706 C2683 0.950 . S
H2707 C2685 0.950 . S
C2708 C2709 1.349 . S
C2708 C2710 1.327 . S
C2708 H2733 0.950 . S
C2709 C2708 1.349 . S
C2709 C2725 1.349 . S
C2710 C2708 1.327 . S
C2710 C2729 1.429 . S
C2710 H2734 0.950 . S
C2711 C2728 1.574 . S
C2711 C2730 1.368 . S
C2711 H2735 0.949 . S
H2712 C2716 0.949 . S
C2713 C2714 1.349 . S
C2713 C2715 1.327 . S
C2713 H2736 0.950 . S
C2714 C2713 1.349 . S
C2714 C2726 1.349 . S
C2715 C2713 1.327 . S
C2715 C2731 1.429 . S
C2715 H2737 0.950 . S
C2716 H2712 0.949 . S
C2716 C2724 1.574 . S
C2716 C2732 1.368 . S
H2717 C2725 0.950 . S
H2718 C2723 0.950 . S
H2719 C2724 0.949 . S
H2720 C2726 0.950 . S
H2721 C2727 0.950 . S
H2722 C2728 0.949 . S
C2723 H2718 0.950 . S
C2723 C2725 1.327 . S
C2723 C2729 1.429 . S
C2724 C2716 1.574 . S
C2724 H2719 0.949 . S
C2724 C2730 1.368 . S
C2725 C2709 1.349 . S
C2725 H2717 0.950 . S
C2725 C2723 1.327 . S
C2726 C2714 1.349 . S
C2726 H2720 0.950 . S
C2726 C2727 1.327 . S
C2727 H2721 0.950 . S
C2727 C2726 1.327 . S
C2727 C2731 1.429 . S
C2728 C2711 1.574 . S
C2728 H2722 0.949 . S
C2728 C2732 1.368 . S
C2729 C2710 1.429 . S
C2729 C2723 1.429 . S
C2729 C2730 1.523 . S
C2730 C2711 1.368 . S
C2730 C2724 1.368 . S
C2730 C2729 1.523 . S
C2731 C2715 1.429 . S
C2731 C2727 1.429 . S
C2731 C2732 1.523 . S
C2732 C2716 1.368 . S
C2732 C2728 1.368 . S
C2732 C2731 1.523 . S
H2733 C2708 0.950 . S
H2734 C2710 0.950 . S
H2735 C2711 0.949 . S
H2736 C2713 0.950 . S
H2737 C2715 0.950 . S
C2738 C2739 1.349 . S
C2738 C2740 1.327 . S
C2738 H2763 0.950 . S
C2739 C2738 1.349 . S
C2739 C2755 1.349 . S
C2740 C2738 1.327 . S
C2740 C2759 1.429 1_655 S
C2740 H2764 0.950 . S
C2741 C2758 1.574 . S
C2741 C2760 1.368 . S
C2741 H2765 0.949 . S
H2742 C2746 0.949 . S
C2743 C2744 1.349 . S
C2743 C2745 1.327 . S
C2743 H2766 0.950 . S
C2744 C2743 1.349 . S
C2744 C2756 1.349 . S
C2745 C2743 1.327 . S
C2745 C2761 1.429 . S
C2745 H2767 0.950 . S
C2746 H2742 0.949 . S
C2746 C2754 1.574 . S
C2746 C2762 1.368 . S
H2747 C2755 0.950 . S
H2748 C2753 0.950 . S
H2749 C2754 0.949 . S
H2750 C2756 0.950 . S
H2751 C2757 0.950 . S
H2752 C2758 0.949 . S
C2753 H2748 0.950 . S
C2753 C2755 1.327 1_455 S
C2753 C2759 1.429 . S
C2754 C2746 1.574 . S
C2754 H2749 0.949 . S
C2754 C2760 1.368 . S
C2755 C2739 1.349 . S
C2755 H2747 0.950 . S
C2755 C2753 1.327 1_655 S
C2756 C2744 1.349 . S
C2756 H2750 0.950 . S
C2756 C2757 1.327 . S
C2757 H2751 0.950 . S
C2757 C2756 1.327 . S
C2757 C2761 1.429 . S
C2758 C2741 1.574 . S
C2758 H2752 0.949 . S
C2758 C2762 1.368 . S
C2759 C2740 1.429 1_455 S
C2759 C2753 1.429 . S
C2759 C2760 1.523 . S
C2760 C2741 1.368 . S
C2760 C2754 1.368 . S
C2760 C2759 1.523 . S
C2761 C2745 1.429 . S
C2761 C2757 1.429 . S
C2761 C2762 1.523 . S
C2762 C2746 1.368 . S
C2762 C2758 1.368 . S
C2762 C2761 1.523 . S
H2763 C2738 0.950 . S
H2764 C2740 0.950 . S
H2765 C2741 0.949 . S
H2766 C2743 0.950 . S
H2767 C2745 0.950 . S
C2768 C2769 1.349 . S
C2768 C2770 1.327 . S
C2768 H2793 0.950 . S
C2769 C2768 1.349 . S
C2769 C2785 1.349 . S
C2770 C2768 1.327 . S
C2770 C2789 1.429 . S
C2770 H2794 0.950 . S
C2771 C2788 1.574 . S
C2771 C2790 1.368 . S
C2771 H2795 0.949 . S
H2772 C2776 0.949 . S
C2773 C2774 1.349 . S
C2773 C2775 1.327 . S
C2773 H2796 0.950 . S
C2774 C2773 1.349 . S
C2774 C2786 1.349 . S
C2775 C2773 1.327 . S
C2775 C2791 1.429 . S
C2775 H2797 0.950 . S
C2776 H2772 0.949 . S
C2776 C2784 1.574 . S
C2776 C2792 1.368 . S
H2777 C2785 0.950 . S
H2778 C2783 0.950 . S
H2779 C2784 0.949 . S
H2780 C2786 0.950 . S
H2781 C2787 0.950 . S
H2782 C2788 0.949 . S
C2783 H2778 0.950 . S
C2783 C2785 1.327 . S
C2783 C2789 1.429 . S
C2784 C2776 1.574 . S
C2784 H2779 0.949 . S
C2784 C2790 1.368 . S
C2785 C2769 1.349 . S
C2785 H2777 0.950 . S
C2785 C2783 1.327 . S
C2786 C2774 1.349 . S
C2786 H2780 0.950 . S
C2786 C2787 1.327 . S
C2787 H2781 0.950 . S
C2787 C2786 1.327 . S
C2787 C2791 1.429 . S
C2788 C2771 1.574 . S
C2788 H2782 0.949 . S
C2788 C2792 1.368 . S
C2789 C2770 1.429 . S
C2789 C2783 1.429 . S
C2789 C2790 1.523 . S
C2790 C2771 1.368 . S
C2790 C2784 1.368 . S
C2790 C2789 1.523 . S
C2791 C2775 1.429 . S
C2791 C2787 1.429 . S
C2791 C2792 1.523 . S
C2792 C2776 1.368 . S
C2792 C2788 1.368 . S
C2792 C2791 1.523 . S
H2793 C2768 0.950 . S
H2794 C2770 0.950 . S
H2795 C2771 0.949 . S
H2796 C2773 0.950 . S
H2797 C2775 0.950 . S
C2798 C2799 1.349 . S
C2798 C2800 1.327 . S
C2798 H2823 0.950 . S
C2799 C2798 1.349 . S
C2799 C2815 1.349 . S
C2800 C2798 1.327 . S
C2800 C2819 1.429 . S
C2800 H2824 0.950 . S
C2801 C2818 1.574 . S
C2801 C2820 1.368 . S
C2801 H2825 0.949 . S
H2802 C2806 0.949 . S
C2803 C2804 1.349 . S
C2803 C2805 1.318 1_455 S
C2803 H2826 0.950 . S
C2804 C2803 1.349 . S
C2804 C2816 1.349 1_455 S
C2805 C2803 1.318 1_655 S
C2805 C2821 1.439 . S
C2805 H2827 0.948 1_655 S
C2806 H2802 0.949 . S
C2806 C2814 1.574 . S
C2806 C2822 1.368 . S
H2807 C2815 0.950 . S
H2808 C2813 0.950 . S
H2809 C2814 0.949 . S
H2810 C2816 0.950 . S
H2811 C2817 0.950 . S
H2812 C2818 0.949 . S
C2813 H2808 0.950 . S
C2813 C2815 1.327 . S
C2813 C2819 1.429 . S
C2814 C2806 1.574 . S
C2814 H2809 0.949 . S
C2814 C2820 1.368 . S
C2815 C2799 1.349 . S
C2815 H2807 0.950 . S
C2815 C2813 1.327 . S
C2816 C2804 1.349 1_655 S
C2816 H2810 0.950 . S
C2816 C2817 1.327 . S
C2817 H2811 0.950 . S
C2817 C2816 1.327 . S
C2817 C2821 1.429 . S
C2818 C2801 1.574 . S
C2818 H2812 0.949 . S
C2818 C2822 1.368 . S
C2819 C2800 1.429 . S
C2819 C2813 1.429 . S
C2819 C2820 1.523 . S
C2820 C2801 1.368 . S
C2820 C2814 1.368 . S
C2820 C2819 1.523 . S
C2821 C2805 1.439 . S
C2821 C2817 1.429 . S
C2821 C2822 1.523 . S
C2822 C2806 1.368 . S
C2822 C2818 1.368 . S
C2822 C2821 1.523 . S
H2823 C2798 0.950 . S
H2824 C2800 0.950 . S
H2825 C2801 0.949 . S
H2826 C2803 0.950 . S
H2827 C2805 0.948 1_455 S
C2828 C2829 1.349 . S
C2828 C2830 1.327 . S
C2828 H2853 0.950 . S
C2829 C2828 1.349 . S
C2829 C2845 1.349 . S
C2830 C2828 1.327 . S
C2830 C2849 1.429 . S
C2830 H2854 0.950 . S
C2831 C2848 1.574 . S
C2831 C2850 1.368 . S
C2831 H2855 0.949 . S
H2832 C2836 0.949 . S
C2833 C2834 1.349 . S
C2833 C2835 1.327 . S
C2833 H2856 0.950 . S
C2834 C2833 1.349 . S
C2834 C2846 1.349 . S
C2835 C2833 1.327 . S
C2835 C2851 1.429 . S
C2835 H2857 0.950 . S
C2836 H2832 0.949 . S
C2836 C2844 1.574 . S
C2836 C2852 1.368 . S
H2837 C2845 0.950 . S
H2838 C2843 0.950 . S
H2839 C2844 0.949 . S
H2840 C2846 0.950 . S
H2841 C2847 0.950 . S
H2842 C2848 0.949 . S
C2843 H2838 0.950 . S
C2843 C2845 1.327 . S
C2843 C2849 1.429 . S
C2844 C2836 1.574 . S
C2844 H2839 0.949 . S
C2844 C2850 1.368 . S
C2845 C2829 1.349 . S
C2845 H2837 0.950 . S
C2845 C2843 1.327 . S
C2846 C2834 1.349 . S
C2846 H2840 0.950 . S
C2846 C2847 1.327 . S
C2847 H2841 0.950 . S
C2847 C2846 1.327 . S
C2847 C2851 1.429 . S
C2848 C2831 1.574 . S
C2848 H2842 0.949 . S
C2848 C2852 1.368 . S
C2849 C2830 1.429 . S
C2849 C2843 1.429 . S
C2849 C2850 1.523 . S
C2850 C2831 1.368 . S
C2850 C2844 1.368 . S
C2850 C2849 1.523 . S
C2851 C2835 1.429 . S
C2851 C2847 1.429 . S
C2851 C2852 1.523 . S
C2852 C2836 1.368 . S
C2852 C2848 1.368 . S
C2852 C2851 1.523 . S
H2853 C2828 0.950 . S
H2854 C2830 0.950 . S
H2855 C2831 0.949 . S
H2856 C2833 0.950 . S
H2857 C2835 0.950 . S
C2858 C2859 1.349 . S
C2858 C2860 1.327 . S
C2858 H2883 0.950 . S
C2859 C2858 1.349 . S
C2859 C2875 1.349 . S
C2860 C2858 1.327 . S
C2860 C2879 1.429 . S
C2860 H2884 0.950 . S
C2861 C2878 1.574 . S
C2861 C2880 1.368 . S
C2861 H2885 0.949 . S
H2862 C2866 0.949 . S
C2863 C2864 1.349 . S
C2863 C2865 1.327 . S
C2863 H2886 0.950 . S
C2864 C2863 1.349 . S
C2864 C2876 1.349 . S
C2865 C2863 1.327 . S
C2865 C2881 1.429 . S
C2865 H2887 0.950 . S
C2866 H2862 0.949 . S
C2866 C2874 1.574 . S
C2866 C2882 1.368 . S
H2867 C2875 0.950 . S
H2868 C2873 0.950 . S
H2869 C2874 0.949 . S
H2870 C2876 0.950 . S
H2871 C2877 0.950 . S
H2872 C2878 0.949 . S
C2873 H2868 0.950 . S
C2873 C2875 1.327 . S
C2873 C2879 1.429 . S
C2874 C2866 1.574 . S
C2874 H2869 0.949 . S
C2874 C2880 1.368 . S
C2875 C2859 1.349 . S
C2875 H2867 0.950 . S
C2875 C2873 1.327 . S
C2876 C2864 1.349 . S
C2876 H2870 0.950 . S
C2876 C2877 1.327 . S
C2877 H2871 0.950 . S
C2877 C2876 1.327 . S
C2877 C2881 1.429 . S
C2878 C2861 1.574 . S
C2878 H2872 0.949 . S
C2878 C2882 1.368 . S
C2879 C2860 1.429 . S
C2879 C2873 1.429 . S
C2879 C2880 1.523 . S
C2880 C2861 1.368 . S
C2880 C2874 1.368 . S
C2880 C2879 1.523 . S
C2881 C2865 1.429 . S
C2881 C2877 1.429 . S
C2881 C2882 1.523 . S
C2882 C2866 1.368 . S
C2882 C2878 1.368 . S
C2882 C2881 1.523 . S
H2883 C2858 0.950 . S
H2884 C2860 0.950 . S
H2885 C2861 0.949 . S
H2886 C2863 0.950 . S
H2887 C2865 0.950 . S
C2888 C2889 1.349 . S
C2888 C2890 1.327 . S
C2888 H2913 0.950 . S
C2889 C2888 1.349 . S
C2889 C2905 1.349 . S
C2890 C2888 1.327 . S
C2890 C2909 1.429 . S
C2890 H2914 0.950 . S
C2891 C2908 1.574 . S
C2891 C2910 1.368 . S
C2891 H2915 0.949 . S
H2892 C2896 0.949 . S
C2893 C2894 1.349 . S
C2893 C2895 1.327 . S
C2893 H2916 0.950 . S
C2894 C2893 1.349 . S
C2894 C2906 1.349 . S
C2895 C2893 1.327 . S
C2895 C2911 1.429 . S
C2895 H2917 0.950 . S
C2896 H2892 0.949 . S
C2896 C2904 1.574 . S
C2896 C2912 1.368 . S
H2897 C2905 0.950 . S
H2898 C2903 0.950 . S
H2899 C2904 0.949 . S
H2900 C2906 0.950 . S
H2901 C2907 0.950 . S
H2902 C2908 0.949 . S
C2903 H2898 0.950 . S
C2903 C2905 1.327 . S
C2903 C2909 1.429 . S
C2904 C2896 1.574 . S
C2904 H2899 0.949 . S
C2904 C2910 1.368 . S
C2905 C2889 1.349 . S
C2905 H2897 0.950 . S
C2905 C2903 1.327 . S
C2906 C2894 1.349 . S
C2906 H2900 0.950 . S
C2906 C2907 1.327 . S
C2907 H2901 0.950 . S
C2907 C2906 1.327 . S
C2907 C2911 1.429 . S
C2908 C2891 1.574 . S
C2908 H2902 0.949 . S
C2908 C2912 1.368 . S
C2909 C2890 1.429 . S
C2909 C2903 1.429 . S
C2909 C2910 1.523 . S
C2910 C2891 1.368 . S
C2910 C2904 1.368 . S
C2910 C2909 1.523 . S
C2911 C2895 1.429 . S
C2911 C2907 1.429 . S
C2911 C2912 1.523 . S
C2912 C2896 1.368 . S
C2912 C2908 1.368 . S
C2912 C2911 1.523 . S
H2913 C2888 0.950 . S
H2914 C2890 0.950 . S
H2915 C2891 0.949 . S
H2916 C2893 0.950 . S
H2917 C2895 0.950 . S
C2918 C2919 1.349 . S
C2918 C2920 1.327 . S
C2918 H2943 0.950 . S
C2919 C2918 1.349 . S
C2919 C2935 1.349 . S
C2920 C2918 1.327 . S
C2920 C2939 1.429 . S
C2920 H2944 0.950 . S
C2921 C2938 1.574 . S
C2921 C2940 1.368 . S
C2921 H2945 0.949 . S
H2922 C2926 0.949 . S
C2923 C2924 1.349 . S
C2923 C2925 1.327 . S
C2923 H2946 0.950 . S
C2924 C2923 1.349 . S
C2924 C2936 1.349 . S
C2925 C2923 1.327 . S
C2925 C2941 1.429 . S
C2925 H2947 0.950 . S
C2926 H2922 0.949 . S
C2926 C2934 1.574 . S
C2926 C2942 1.368 . S
H2927 C2935 0.950 . S
H2928 C2933 0.950 . S
H2929 C2934 0.949 . S
H2930 C2936 0.950 . S
H2931 C2937 0.950 . S
H2932 C2938 0.949 . S
C2933 H2928 0.950 . S
C2933 C2935 1.327 . S
C2933 C2939 1.429 . S
C2934 C2926 1.574 . S
C2934 H2929 0.949 . S
C2934 C2940 1.368 . S
C2935 C2919 1.349 . S
C2935 H2927 0.950 . S
C2935 C2933 1.327 . S
C2936 C2924 1.349 . S
C2936 H2930 0.950 . S
C2936 C2937 1.327 . S
C2937 H2931 0.950 . S
C2937 C2936 1.327 . S
C2937 C2941 1.429 . S
C2938 C2921 1.574 . S
C2938 H2932 0.949 . S
C2938 C2942 1.368 . S
C2939 C2920 1.429 . S
C2939 C2933 1.429 . S
C2939 C2940 1.523 . S
C2940 C2921 1.368 . S
C2940 C2934 1.368 . S
C2940 C2939 1.523 . S
C2941 C2925 1.429 . S
C2941 C2937 1.429 . S
C2941 C2942 1.523 . S
C2942 C2926 1.368 . S
C2942 C2938 1.368 . S
C2942 C2941 1.523 . S
H2943 C2918 0.950 . S
H2944 C2920 0.950 . S
H2945 C2921 0.949 . S
H2946 C2923 0.950 . S
H2947 C2925 0.950 . S
C2948 C2949 1.349 . S
C2948 C2950 1.327 . S
C2948 H2973 0.950 . S
C2949 C2948 1.349 . S
C2949 C2965 1.349 . S
C2950 C2948 1.327 . S
C2950 C2969 1.429 . S
C2950 H2974 0.950 . S
C2951 C2968 1.574 . S
C2951 C2970 1.368 . S
C2951 H2975 0.949 . S
H2952 C2956 0.949 . S
C2953 C2954 1.349 . S
C2953 C2955 1.327 . S
C2953 H2976 0.950 . S
C2954 C2953 1.349 . S
C2954 C2966 1.349 . S
C2955 C2953 1.327 . S
C2955 C2971 1.429 . S
C2955 H2977 0.950 . S
C2956 H2952 0.949 . S
C2956 C2964 1.574 . S
C2956 C2972 1.368 . S
H2957 C2965 0.950 . S
H2958 C2963 0.950 . S
H2959 C2964 0.949 . S
H2960 C2966 0.950 . S
H2961 C2967 0.950 . S
H2962 C2968 0.949 . S
C2963 H2958 0.950 . S
C2963 C2965 1.327 . S
C2963 C2969 1.429 . S
C2964 C2956 1.574 . S
C2964 H2959 0.949 . S
C2964 C2970 1.368 . S
C2965 C2949 1.349 . S
C2965 H2957 0.950 . S
C2965 C2963 1.327 . S
C2966 C2954 1.349 . S
C2966 H2960 0.950 . S
C2966 C2967 1.327 . S
C2967 H2961 0.950 . S
C2967 C2966 1.327 . S
C2967 C2971 1.429 . S
C2968 C2951 1.574 . S
C2968 H2962 0.949 . S
C2968 C2972 1.368 . S
C2969 C2950 1.429 . S
C2969 C2963 1.429 . S
C2969 C2970 1.523 . S
C2970 C2951 1.368 . S
C2970 C2964 1.368 . S
C2970 C2969 1.523 . S
C2971 C2955 1.429 . S
C2971 C2967 1.429 . S
C2971 C2972 1.523 . S
C2972 C2956 1.368 . S
C2972 C2968 1.368 . S
C2972 C2971 1.523 . S
H2973 C2948 0.950 . S
H2974 C2950 0.950 . S
H2975 C2951 0.949 . S
H2976 C2953 0.950 . S
H2977 C2955 0.950 . S
C2978 C2979 1.349 . S
C2978 C2980 1.327 1_455 S
C2978 H3003 0.950 . S
C2979 C2978 1.349 . S
C2979 C2995 1.349 1_455 S
C2980 C2978 1.327 1_655 S
C2980 C2999 1.429 . S
C2980 H3004 0.955 . S
C2981 C2998 1.574 . S
C2981 C3000 1.368 . S
C2981 H3005 0.949 . S
H2982 C2986 0.949 . S
C2983 C2984 1.349 . S
C2983 C2985 1.327 . S
C2983 H3006 0.950 . S
C2984 C2983 1.349 . S
C2984 C2996 1.349 . S
C2985 C2983 1.327 . S
C2985 C3001 1.429 . S
C2985 H3007 0.950 . S
C2986 H2982 0.949 . S
C2986 C2994 1.574 . S
C2986 C3002 1.368 . S
H2987 C2995 0.950 . S
H2988 C2993 0.950 . S
H2989 C2994 0.949 . S
H2990 C2996 0.950 . S
H2991 C2997 0.950 . S
H2992 C2998 0.949 . S
C2993 H2988 0.950 . S
C2993 C2995 1.327 . S
C2993 C2999 1.429 . S
C2994 C2986 1.574 . S
C2994 H2989 0.949 . S
C2994 C3000 1.368 . S
C2995 C2979 1.349 1_655 S
C2995 H2987 0.950 . S
C2995 C2993 1.327 . S
C2996 C2984 1.349 . S
C2996 H2990 0.950 . S
C2996 C2997 1.327 . S
C2997 H2991 0.950 . S
C2997 C2996 1.327 . S
C2997 C3001 1.429 . S
C2998 C2981 1.574 . S
C2998 H2992 0.949 . S
C2998 C3002 1.368 . S
C2999 C2980 1.429 . S
C2999 C2993 1.429 . S
C2999 C3000 1.523 . S
C3000 C2981 1.368 . S
C3000 C2994 1.368 . S
C3000 C2999 1.523 . S
C3001 C2985 1.429 . S
C3001 C2997 1.429 . S
C3001 C3002 1.523 . S
C3002 C2986 1.368 . S
C3002 C2998 1.368 . S
C3002 C3001 1.523 . S
H3003 C2978 0.950 . S
H3004 C2980 0.955 . S
H3005 C2981 0.949 . S
H3006 C2983 0.950 . S
H3007 C2985 0.950 . S
C3008 C3009 1.349 . S
C3008 C3010 1.327 . S
C3008 H3033 0.950 . S
C3009 C3008 1.349 . S
C3009 C3025 1.349 . S
C3010 C3008 1.327 . S
C3010 C3029 1.429 . S
C3010 H3034 0.950 . S
C3011 C3028 1.574 . S
C3011 C3030 1.368 . S
C3011 H3035 0.949 . S
H3012 C3016 0.949 . S
C3013 C3014 1.349 . S
C3013 C3015 1.327 . S
C3013 H3036 0.950 . S
C3014 C3013 1.349 . S
C3014 C3026 1.349 . S
C3015 C3013 1.327 . S
C3015 C3031 1.429 . S
C3015 H3037 0.950 . S
C3016 H3012 0.949 . S
C3016 C3024 1.574 . S
C3016 C3032 1.368 . S
H3017 C3025 0.950 . S
H3018 C3023 0.950 . S
H3019 C3024 0.949 . S
H3020 C3026 0.950 . S
H3021 C3027 0.950 . S
H3022 C3028 0.949 . S
C3023 H3018 0.950 . S
C3023 C3025 1.327 . S
C3023 C3029 1.429 . S
C3024 C3016 1.574 . S
C3024 H3019 0.949 . S
C3024 C3030 1.368 . S
C3025 C3009 1.349 . S
C3025 H3017 0.950 . S
C3025 C3023 1.327 . S
C3026 C3014 1.349 . S
C3026 H3020 0.950 . S
C3026 C3027 1.327 . S
C3027 H3021 0.950 . S
C3027 C3026 1.327 . S
C3027 C3031 1.429 . S
C3028 C3011 1.574 . S
C3028 H3022 0.949 . S
C3028 C3032 1.368 . S
C3029 C3010 1.429 . S
C3029 C3023 1.429 . S
C3029 C3030 1.523 . S
C3030 C3011 1.368 . S
C3030 C3024 1.368 . S
C3030 C3029 1.523 . S
C3031 C3015 1.429 . S
C3031 C3027 1.429 . S
C3031 C3032 1.523 . S
C3032 C3016 1.368 . S
C3032 C3028 1.368 . S
C3032 C3031 1.523 . S
H3033 C3008 0.950 . S
H3034 C3010 0.950 . S
H3035 C3011 0.949 . S
H3036 C3013 0.950 . S
H3037 C3015 0.950 . S
C3038 C3039 1.349 . S
C3038 C3040 1.327 . S
C3038 H3063 0.950 . S
C3039 C3038 1.349 . S
C3039 C3055 1.349 . S
C3040 C3038 1.327 . S
C3040 C3059 1.429 . S
C3040 H3064 0.950 . S
C3041 C3058 1.574 . S
C3041 C3060 1.368 . S
C3041 H3065 0.949 . S
H3042 C3046 0.949 . S
C3043 C3044 1.349 . S
C3043 C3045 1.327 . S
C3043 H3066 0.950 . S
C3044 C3043 1.349 . S
C3044 C3056 1.349 . S
C3045 C3043 1.327 . S
C3045 C3061 1.429 . S
C3045 H3067 0.950 . S
C3046 H3042 0.949 . S
C3046 C3054 1.574 . S
C3046 C3062 1.368 . S
H3047 C3055 0.950 . S
H3048 C3053 0.950 . S
H3049 C3054 0.949 . S
H3050 C3056 0.950 . S
H3051 C3057 0.950 . S
H3052 C3058 0.949 . S
C3053 H3048 0.950 . S
C3053 C3055 1.327 . S
C3053 C3059 1.429 . S
C3054 C3046 1.574 . S
C3054 H3049 0.949 . S
C3054 C3060 1.368 . S
C3055 C3039 1.349 . S
C3055 H3047 0.950 . S
C3055 C3053 1.327 . S
C3056 C3044 1.349 . S
C3056 H3050 0.950 . S
C3056 C3057 1.327 . S
C3057 H3051 0.950 . S
C3057 C3056 1.327 . S
C3057 C3061 1.429 . S
C3058 C3041 1.574 . S
C3058 H3052 0.949 . S
C3058 C3062 1.368 . S
C3059 C3040 1.429 . S
C3059 C3053 1.429 . S
C3059 C3060 1.523 . S
C3060 C3041 1.368 . S
C3060 C3054 1.368 . S
C3060 C3059 1.523 . S
C3061 C3045 1.429 . S
C3061 C3057 1.429 . S
C3061 C3062 1.523 . S
C3062 C3046 1.368 . S
C3062 C3058 1.368 . S
C3062 C3061 1.523 . S
H3063 C3038 0.950 . S
H3064 C3040 0.950 . S
H3065 C3041 0.949 . S
H3066 C3043 0.950 . S
H3067 C3045 0.950 . S
C3068 C3069 1.349 . S
C3068 C3070 1.327 . S
C3068 H3093 0.950 . S
C3069 C3068 1.349 . S
C3069 C3085 1.349 . S
C3070 C3068 1.327 . S
C3070 C3089 1.429 . S
C3070 H3094 0.950 . S
C3071 C3088 1.574 . S
C3071 C3090 1.368 . S
C3071 H3095 0.949 . S
H3072 C3076 0.949 . S
C3073 C3074 1.349 . S
C3073 C3075 1.327 . S
C3073 H3096 0.950 . S
C3074 C3073 1.349 . S
C3074 C3086 1.349 . S
C3075 C3073 1.327 . S
C3075 C3091 1.429 . S
C3075 H3097 0.950 . S
C3076 H3072 0.949 . S
C3076 C3084 1.574 . S
C3076 C3092 1.368 . S
H3077 C3085 0.950 . S
H3078 C3083 0.950 . S
H3079 C3084 0.949 . S
H3080 C3086 0.950 . S
H3081 C3087 0.950 . S
H3082 C3088 0.949 . S
C3083 H3078 0.950 . S
C3083 C3085 1.327 . S
C3083 C3089 1.429 . S
C3084 C3076 1.574 . S
C3084 H3079 0.949 . S
C3084 C3090 1.368 . S
C3085 C3069 1.349 . S
C3085 H3077 0.950 . S
C3085 C3083 1.327 . S
C3086 C3074 1.349 . S
C3086 H3080 0.950 . S
C3086 C3087 1.327 . S
C3087 H3081 0.950 . S
C3087 C3086 1.327 . S
C3087 C3091 1.429 . S
C3088 C3071 1.574 . S
C3088 H3082 0.949 . S
C3088 C3092 1.368 . S
C3089 C3070 1.429 . S
C3089 C3083 1.429 . S
C3089 C3090 1.523 . S
C3090 C3071 1.368 . S
C3090 C3084 1.368 . S
C3090 C3089 1.523 . S
C3091 C3075 1.429 . S
C3091 C3087 1.429 . S
C3091 C3092 1.523 . S
C3092 C3076 1.368 . S
C3092 C3088 1.368 . S
C3092 C3091 1.523 . S
H3093 C3068 0.950 . S
H3094 C3070 0.950 . S
H3095 C3071 0.949 . S
H3096 C3073 0.950 . S
H3097 C3075 0.950 . S
C3098 C3099 1.349 . S
C3098 C3100 1.327 . S
C3098 H3123 0.950 . S
C3099 C3098 1.349 . S
C3099 C3115 1.349 . S
C3100 C3098 1.327 . S
C3100 C3119 1.429 1_455 S
C3100 H3124 0.950 . S
C3101 C3118 1.574 . S
C3101 C3120 1.368 . S
C3101 H3125 0.949 . S
H3102 C3106 0.949 . S
C3103 C3104 1.349 . S
C3103 C3105 1.327 . S
C3103 H3126 0.950 . S
C3104 C3103 1.349 . S
C3104 C3116 1.349 . S
C3105 C3103 1.327 . S
C3105 C3121 1.429 . S
C3105 H3127 0.950 . S
C3106 H3102 0.949 . S
C3106 C3114 1.574 . S
C3106 C3122 1.368 . S
H3107 C3115 0.950 . S
H3108 C3113 0.950 . S
H3109 C3114 0.949 . S
H3110 C3116 0.950 . S
H3111 C3117 0.950 . S
H3112 C3118 0.949 . S
C3113 H3108 0.950 . S
C3113 C3115 1.327 1_655 S
C3113 C3119 1.429 . S
C3114 C3106 1.574 . S
C3114 H3109 0.949 . S
C3114 C3120 1.368 . S
C3115 C3099 1.349 . S
C3115 H3107 0.950 . S
C3115 C3113 1.327 1_455 S
C3116 C3104 1.349 . S
C3116 H3110 0.950 . S
C3116 C3117 1.327 . S
C3117 H3111 0.950 . S
C3117 C3116 1.327 . S
C3117 C3121 1.429 . S
C3118 C3101 1.574 . S
C3118 H3112 0.949 . S
C3118 C3122 1.368 . S
C3119 C3100 1.429 1_655 S
C3119 C3113 1.429 . S
C3119 C3120 1.523 . S
C3120 C3101 1.368 . S
C3120 C3114 1.368 . S
C3120 C3119 1.523 . S
C3121 C3105 1.429 . S
C3121 C3117 1.429 . S
C3121 C3122 1.523 . S
C3122 C3106 1.368 . S
C3122 C3118 1.368 . S
C3122 C3121 1.523 . S
H3123 C3098 0.950 . S
H3124 C3100 0.950 . S
H3125 C3101 0.949 . S
H3126 C3103 0.950 . S
H3127 C3105 0.950 . S
C3128 C3129 1.349 . S
C3128 C3130 1.327 . S
C3128 H3153 0.950 . S
C3129 C3128 1.349 . S
C3129 C3145 1.349 . S
C3130 C3128 1.327 . S
C3130 C3149 1.429 . S
C3130 H3154 0.950 . S
C3131 C3148 1.574 . S
C3131 C3150 1.368 . S
C3131 H3155 0.949 . S
H3132 C3136 0.949 . S
C3133 C3134 1.349 . S
C3133 C3135 1.327 . S
C3133 H3156 0.950 . S
C3134 C3133 1.349 . S
C3134 C3146 1.349 . S
C3135 C3133 1.327 . S
C3135 C3151 1.429 . S
C3135 H3157 0.950 . S
C3136 H3132 0.949 . S
C3136 C3144 1.574 . S
C3136 C3152 1.368 . S
H3137 C3145 0.950 . S
H3138 C3143 0.950 . S
H3139 C3144 0.949 . S
H3140 C3146 0.950 . S
H3141 C3147 0.950 . S
H3142 C3148 0.949 . S
C3143 H3138 0.950 . S
C3143 C3145 1.327 . S
C3143 C3149 1.429 . S
C3144 C3136 1.574 . S
C3144 H3139 0.949 . S
C3144 C3150 1.368 . S
C3145 C3129 1.349 . S
C3145 H3137 0.950 . S
C3145 C3143 1.327 . S
C3146 C3134 1.349 . S
C3146 H3140 0.950 . S
C3146 C3147 1.327 . S
C3147 H3141 0.950 . S
C3147 C3146 1.327 . S
C3147 C3151 1.429 . S
C3148 C3131 1.574 . S
C3148 H3142 0.949 . S
C3148 C3152 1.368 . S
C3149 C3130 1.429 . S
C3149 C3143 1.429 . S
C3149 C3150 1.523 . S
C3150 C3131 1.368 . S
C3150 C3144 1.368 . S
C3150 C3149 1.523 . S
C3151 C3135 1.429 . S
C3151 C3147 1.429 . S
C3151 C3152 1.523 . S
C3152 C3136 1.368 . S
C3152 C3148 1.368 . S
C3152 C3151 1.523 . S
H3153 C3128 0.950 . S
H3154 C3130 0.950 . S
H3155 C3131 0.949 . S
H3156 C3133 0.950 . S
H3157 C3135 0.950 . S
C3158 C3159 1.349 . S
C3158 C3160 1.327 . S
C3158 H3183 0.950 . S
C3159 C3158 1.349 . S
C3159 C3175 1.349 . S
C3160 C3158 1.327 . S
C3160 C3179 1.429 . S
C3160 H3184 0.950 . S
C3161 C3178 1.574 . S
C3161 C3180 1.368 . S
C3161 H3185 0.949 . S
H3162 C3166 0.949 . S
C3163 C3164 1.349 . S
C3163 C3165 1.327 . S
C3163 H3186 0.950 . S
C3164 C3163 1.349 . S
C3164 C3176 1.349 . S
C3165 C3163 1.327 . S
C3165 C3181 1.429 1_455 S
C3165 H3187 0.950 . S
C3166 H3162 0.949 . S
C3166 C3174 1.574 . S
C3166 C3182 1.368 . S
H3167 C3175 0.950 . S
H3168 C3173 0.950 . S
H3169 C3174 0.949 . S
H3170 C3176 0.950 . S
H3171 C3177 0.950 . S
H3172 C3178 0.949 . S
C3173 H3168 0.950 . S
C3173 C3175 1.327 . S
C3173 C3179 1.429 . S
C3174 C3166 1.574 . S
C3174 H3169 0.949 . S
C3174 C3180 1.368 . S
C3175 C3159 1.349 . S
C3175 H3167 0.950 . S
C3175 C3173 1.327 . S
C3176 C3164 1.349 . S
C3176 H3170 0.950 . S
C3176 C3177 1.327 1_455 S
C3177 H3171 0.950 . S
C3177 C3176 1.327 1_655 S
C3177 C3181 1.429 . S
C3178 C3161 1.574 . S
C3178 H3172 0.949 . S
C3178 C3182 1.368 . S
C3179 C3160 1.429 . S
C3179 C3173 1.429 . S
C3179 C3180 1.523 . S
C3180 C3161 1.368 . S
C3180 C3174 1.368 . S
C3180 C3179 1.523 . S
C3181 C3165 1.429 1_655 S
C3181 C3177 1.429 . S
C3181 C3182 1.523 . S
C3182 C3166 1.368 . S
C3182 C3178 1.368 . S
C3182 C3181 1.523 . S
H3183 C3158 0.950 . S
H3184 C3160 0.950 . S
H3185 C3161 0.949 . S
H3186 C3163 0.950 . S
H3187 C3165 0.950 . S
C3188 C3189 1.349 . S
C3188 C3190 1.327 . S
C3188 H3213 0.950 . S
C3189 C3188 1.349 . S
C3189 C3205 1.349 . S
C3190 C3188 1.327 . S
C3190 C3209 1.429 . S
C3190 H3214 0.950 . S
C3191 C3208 1.574 . S
C3191 C3210 1.368 . S
C3191 H3215 0.949 . S
H3192 C3196 0.949 . S
C3193 C3194 1.349 . S
C3193 C3195 1.327 . S
C3193 H3216 0.950 . S
C3194 C3193 1.349 . S
C3194 C3206 1.349 . S
C3195 C3193 1.327 . S
C3195 C3211 1.429 . S
C3195 H3217 0.950 . S
C3196 H3192 0.949 . S
C3196 C3204 1.574 . S
C3196 C3212 1.368 . S
H3197 C3205 0.950 . S
H3198 C3203 0.950 . S
H3199 C3204 0.949 . S
H3200 C3206 0.950 . S
H3201 C3207 0.950 . S
H3202 C3208 0.949 . S
C3203 H3198 0.950 . S
C3203 C3205 1.327 . S
C3203 C3209 1.429 . S
C3204 C3196 1.574 . S
C3204 H3199 0.949 . S
C3204 C3210 1.368 . S
C3205 C3189 1.349 . S
C3205 H3197 0.950 . S
C3205 C3203 1.327 . S
C3206 C3194 1.349 . S
C3206 H3200 0.950 . S
C3206 C3207 1.327 . S
C3207 H3201 0.950 . S
C3207 C3206 1.327 . S
C3207 C3211 1.429 . S
C3208 C3191 1.574 . S
C3208 H3202 0.949 . S
C3208 C3212 1.368 . S
C3209 C3190 1.429 . S
C3209 C3203 1.429 . S
C3209 C3210 1.523 . S
C3210 C3191 1.368 . S
C3210 C3204 1.368 . S
C3210 C3209 1.523 . S
C3211 C3195 1.429 . S
C3211 C3207 1.429 . S
C3211 C3212 1.523 . S
C3212 C3196 1.368 . S
C3212 C3208 1.368 . S
C3212 C3211 1.523 . S
H3213 C3188 0.950 . S
H3214 C3190 0.950 . S
H3215 C3191 0.949 . S
H3216 C3193 0.950 . S
H3217 C3195 0.950 . S
C3218 C3219 1.349 . S
C3218 C3220 1.327 . S
C3218 H3243 0.950 . S
C3219 C3218 1.349 . S
C3219 C3235 1.349 . S
C3220 C3218 1.327 . S
C3220 C3239 1.429 . S
C3220 H3244 0.950 . S
C3221 C3238 1.574 . S
C3221 C3240 1.368 . S
C3221 H3245 0.949 . S
H3222 C3226 0.949 . S
C3223 C3224 1.349 . S
C3223 C3225 1.327 . S
C3223 H3246 0.950 . S
C3224 C3223 1.349 . S
C3224 C3236 1.349 . S
C3225 C3223 1.327 . S
C3225 C3241 1.429 . S
C3225 H3247 0.950 . S
C3226 H3222 0.949 . S
C3226 C3234 1.574 . S
C3226 C3242 1.368 . S
H3227 C3235 0.950 . S
H3228 C3233 0.950 . S
H3229 C3234 0.949 . S
H3230 C3236 0.950 . S
H3231 C3237 0.950 . S
H3232 C3238 0.949 . S
C3233 H3228 0.950 . S
C3233 C3235 1.327 . S
C3233 C3239 1.429 . S
C3234 C3226 1.574 . S
C3234 H3229 0.949 . S
C3234 C3240 1.368 . S
C3235 C3219 1.349 . S
C3235 H3227 0.950 . S
C3235 C3233 1.327 . S
C3236 C3224 1.349 . S
C3236 H3230 0.950 . S
C3236 C3237 1.327 . S
C3237 H3231 0.950 . S
C3237 C3236 1.327 . S
C3237 C3241 1.429 . S
C3238 C3221 1.574 . S
C3238 H3232 0.949 . S
C3238 C3242 1.368 . S
C3239 C3220 1.429 . S
C3239 C3233 1.429 . S
C3239 C3240 1.523 . S
C3240 C3221 1.368 . S
C3240 C3234 1.368 . S
C3240 C3239 1.523 . S
C3241 C3225 1.429 . S
C3241 C3237 1.429 . S
C3241 C3242 1.523 . S
C3242 C3226 1.368 . S
C3242 C3238 1.368 . S
C3242 C3241 1.523 . S
H3243 C3218 0.950 . S
H3244 C3220 0.950 . S
H3245 C3221 0.949 . S
H3246 C3223 0.950 . S
H3247 C3225 0.950 . S
C3248 C3249 1.349 . S
C3248 C3250 1.327 . S
C3248 H3273 0.950 . S
C3249 C3248 1.349 . S
C3249 C3265 1.349 . S
C3250 C3248 1.327 . S
C3250 C3269 1.429 . S
C3250 H3274 0.950 . S
C3251 C3268 1.574 . S
C3251 C3270 1.368 . S
C3251 H3275 0.949 . S
H3252 C3256 0.949 . S
C3253 C3254 1.349 . S
C3253 C3255 1.327 . S
C3253 H3276 0.950 . S
C3254 C3253 1.349 . S
C3254 C3266 1.349 . S
C3255 C3253 1.327 . S
C3255 C3271 1.429 . S
C3255 H3277 0.950 . S
C3256 H3252 0.949 . S
C3256 C3264 1.574 . S
C3256 C3272 1.368 . S
H3257 C3265 0.950 . S
H3258 C3263 0.950 . S
H3259 C3264 0.949 . S
H3260 C3266 0.950 . S
H3261 C3267 0.950 . S
H3262 C3268 0.949 . S
C3263 H3258 0.950 . S
C3263 C3265 1.327 . S
C3263 C3269 1.429 . S
C3264 C3256 1.574 . S
C3264 H3259 0.949 . S
C3264 C3270 1.368 . S
C3265 C3249 1.349 . S
C3265 H3257 0.950 . S
C3265 C3263 1.327 . S
C3266 C3254 1.349 . S
C3266 H3260 0.950 . S
C3266 C3267 1.327 . S
C3267 H3261 0.950 . S
C3267 C3266 1.327 . S
C3267 C3271 1.429 . S
C3268 C3251 1.574 . S
C3268 H3262 0.949 . S
C3268 C3272 1.368 . S
C3269 C3250 1.429 . S
C3269 C3263 1.429 . S
C3269 C3270 1.523 . S
C3270 C3251 1.368 . S
C3270 C3264 1.368 . S
C3270 C3269 1.523 . S
C3271 C3255 1.429 . S
C3271 C3267 1.429 . S
C3271 C3272 1.523 . S
C3272 C3256 1.368 . S
C3272 C3268 1.368 . S
C3272 C3271 1.523 . S
H3273 C3248 0.950 . S
H3274 C3250 0.950 . S
H3275 C3251 0.949 . S
H3276 C3253 0.950 . S
H3277 C3255 0.950 . S
C3278 C3279 1.349 . S
C3278 C3280 1.327 . S
C3278 H3303 0.950 . S
C3279 C3278 1.349 . S
C3279 C3295 1.349 . S
C3280 C3278 1.327 . S
C3280 C3299 1.429 . S
C3280 H3304 0.950 . S
C3281 C3298 1.574 . S
C3281 C3300 1.368 . S
C3281 H3305 0.949 . S
H3282 C3286 0.949 . S
C3283 C3284 1.349 . S
C3283 C3285 1.327 . S
C3283 H3306 0.950 . S
C3284 C3283 1.349 . S
C3284 C3296 1.349 . S
C3285 C3283 1.327 . S
C3285 C3301 1.429 . S
C3285 H3307 0.950 . S
C3286 H3282 0.949 . S
C3286 C3294 1.574 . S
C3286 C3302 1.368 . S
H3287 C3295 0.950 . S
H3288 C3293 0.950 . S
H3289 C3294 0.949 . S
H3290 C3296 0.950 . S
H3291 C3297 0.950 . S
H3292 C3298 0.949 . S
C3293 H3288 0.950 . S
C3293 C3295 1.327 . S
C3293 C3299 1.429 . S
C3294 C3286 1.574 . S
C3294 H3289 0.949 . S
C3294 C3300 1.368 . S
C3295 C3279 1.349 . S
C3295 H3287 0.950 . S
C3295 C3293 1.327 . S
C3296 C3284 1.349 . S
C3296 H3290 0.950 . S
C3296 C3297 1.327 . S
C3297 H3291 0.950 . S
C3297 C3296 1.327 . S
C3297 C3301 1.429 . S
C3298 C3281 1.574 . S
C3298 H3292 0.949 . S
C3298 C3302 1.368 . S
C3299 C3280 1.429 . S
C3299 C3293 1.429 . S
C3299 C3300 1.523 . S
C3300 C3281 1.368 . S
C3300 C3294 1.368 . S
C3300 C3299 1.523 . S
C3301 C3285 1.429 . S
C3301 C3297 1.429 . S
C3301 C3302 1.523 . S
C3302 C3286 1.368 . S
C3302 C3298 1.368 . S
C3302 C3301 1.523 . S
H3303 C3278 0.950 . S
H3304 C3280 0.950 . S
H3305 C3281 0.949 . S
H3306 C3283 0.950 . S
H3307 C3285 0.950 . S
C3308 C3309 1.349 . S
C3308 C3310 1.327 . S
C3308 H3333 0.950 . S
C3309 C3308 1.349 . S
C3309 C3325 1.349 . S
C3310 C3308 1.327 . S
C3310 C3329 1.429 . S
C3310 H3334 0.950 . S
C3311 C3328 1.574 . S
C3311 C3330 1.368 . S
C3311 H3335 0.949 . S
H3312 C3316 0.949 . S
C3313 C3314 1.349 . S
C3313 C3315 1.327 . S
C3313 H3336 0.950 . S
C3314 C3313 1.349 . S
C3314 C3326 1.349 . S
C3315 C3313 1.327 . S
C3315 C3331 1.429 . S
C3315 H3337 0.950 . S
C3316 H3312 0.949 . S
C3316 C3324 1.574 . S
C3316 C3332 1.368 . S
H3317 C3325 0.950 . S
H3318 C3323 0.950 . S
H3319 C3324 0.949 . S
H3320 C3326 0.950 . S
H3321 C3327 0.950 . S
H3322 C3328 0.949 . S
C3323 H3318 0.950 . S
C3323 C3325 1.327 . S
C3323 C3329 1.429 . S
C3324 C3316 1.574 . S
C3324 H3319 0.949 . S
C3324 C3330 1.368 . S
C3325 C3309 1.349 . S
C3325 H3317 0.950 . S
C3325 C3323 1.327 . S
C3326 C3314 1.349 . S
C3326 H3320 0.950 . S
C3326 C3327 1.327 . S
C3327 H3321 0.950 . S
C3327 C3326 1.327 . S
C3327 C3331 1.429 . S
C3328 C3311 1.574 . S
C3328 H3322 0.949 . S
C3328 C3332 1.368 . S
C3329 C3310 1.429 . S
C3329 C3323 1.429 . S
C3329 C3330 1.523 . S
C3330 C3311 1.368 . S
C3330 C3324 1.368 . S
C3330 C3329 1.523 . S
C3331 C3315 1.429 . S
C3331 C3327 1.429 . S
C3331 C3332 1.523 . S
C3332 C3316 1.368 . S
C3332 C3328 1.368 . S
C3332 C3331 1.523 . S
H3333 C3308 0.950 . S
H3334 C3310 0.950 . S
H3335 C3311 0.949 . S
H3336 C3313 0.950 . S
H3337 C3315 0.950 . S
C3338 C3339 1.349 . S
C3338 C3340 1.327 . S
C3338 H3363 0.950 . S
C3339 C3338 1.349 . S
C3339 C3355 1.349 . S
C3340 C3338 1.327 . S
C3340 C3359 1.429 . S
C3340 H3364 0.950 . S
C3341 C3358 1.574 . S
C3341 C3360 1.368 . S
C3341 H3365 0.949 . S
H3342 C3346 0.949 . S
C3343 C3344 1.357 . S
C3343 C3345 1.317 1_655 S
C3343 H3366 0.952 . S
C3344 C3343 1.357 . S
C3344 C3356 1.349 . S
C3345 C3343 1.317 1_455 S
C3345 C3361 1.429 . S
C3345 H3367 0.950 . S
C3346 H3342 0.949 . S
C3346 C3354 1.574 . S
C3346 C3362 1.368 . S
H3347 C3355 0.950 . S
H3348 C3353 0.950 . S
H3349 C3354 0.949 . S
H3350 C3356 0.950 . S
H3351 C3357 0.950 . S
H3352 C3358 0.949 . S
C3353 H3348 0.950 . S
C3353 C3355 1.327 . S
C3353 C3359 1.429 . S
C3354 C3346 1.574 . S
C3354 H3349 0.949 . S
C3354 C3360 1.368 . S
C3355 C3339 1.349 . S
C3355 H3347 0.950 . S
C3355 C3353 1.327 . S
C3356 C3344 1.349 . S
C3356 H3350 0.950 . S
C3356 C3357 1.327 1_655 S
C3357 H3351 0.950 . S
C3357 C3356 1.327 1_455 S
C3357 C3361 1.429 . S
C3358 C3341 1.574 . S
C3358 H3352 0.949 . S
C3358 C3362 1.368 . S
C3359 C3340 1.429 . S
C3359 C3353 1.429 . S
C3359 C3360 1.523 . S
C3360 C3341 1.368 . S
C3360 C3354 1.368 . S
C3360 C3359 1.523 . S
C3361 C3345 1.429 . S
C3361 C3357 1.429 . S
C3361 C3362 1.523 . S
C3362 C3346 1.368 . S
C3362 C3358 1.368 . S
C3362 C3361 1.523 . S
H3363 C3338 0.950 . S
H3364 C3340 0.950 . S
H3365 C3341 0.949 . S
H3366 C3343 0.952 . S
H3367 C3345 0.950 . S
C3368 C3369 1.349 . S
C3368 C3370 1.327 . S
C3368 H3393 0.950 . S
C3369 C3368 1.349 . S
C3369 C3385 1.349 . S
C3370 C3368 1.327 . S
C3370 C3389 1.429 . S
C3370 H3394 0.950 . S
C3371 C3388 1.574 . S
C3371 C3390 1.368 . S
C3371 H3395 0.949 . S
H3372 C3376 0.949 . S
C3373 C3374 1.349 . S
C3373 C3375 1.327 . S
C3373 H3396 0.950 . S
C3374 C3373 1.349 . S
C3374 C3386 1.349 . S
C3375 C3373 1.327 . S
C3375 C3391 1.429 . S
C3375 H3397 0.950 . S
C3376 H3372 0.949 . S
C3376 C3384 1.574 . S
C3376 C3392 1.368 . S
H3377 C3385 0.950 . S
H3378 C3383 0.950 . S
H3379 C3384 0.949 . S
H3380 C3386 0.950 . S
H3381 C3387 0.950 . S
H3382 C3388 0.949 . S
C3383 H3378 0.950 . S
C3383 C3385 1.327 . S
C3383 C3389 1.429 . S
C3384 C3376 1.574 . S
C3384 H3379 0.949 . S
C3384 C3390 1.368 . S
C3385 C3369 1.349 . S
C3385 H3377 0.950 . S
C3385 C3383 1.327 . S
C3386 C3374 1.349 . S
C3386 H3380 0.950 . S
C3386 C3387 1.327 . S
C3387 H3381 0.950 . S
C3387 C3386 1.327 . S
C3387 C3391 1.429 . S
C3388 C3371 1.574 . S
C3388 H3382 0.949 . S
C3388 C3392 1.368 . S
C3389 C3370 1.429 . S
C3389 C3383 1.429 . S
C3389 C3390 1.523 . S
C3390 C3371 1.368 . S
C3390 C3384 1.368 . S
C3390 C3389 1.523 . S
C3391 C3375 1.429 . S
C3391 C3387 1.429 . S
C3391 C3392 1.523 . S
C3392 C3376 1.368 . S
C3392 C3388 1.368 . S
C3392 C3391 1.523 . S
H3393 C3368 0.950 . S
H3394 C3370 0.950 . S
H3395 C3371 0.949 . S
H3396 C3373 0.950 . S
H3397 C3375 0.950 . S
C3398 C3399 1.349 . S
C3398 C3400 1.327 1_655 S
C3398 H3423 0.950 . S
C3399 C3398 1.349 . S
C3399 C3415 1.332 1_655 S
C3400 C3398 1.327 1_455 S
C3400 C3419 1.429 . S
C3400 H3424 0.950 . S
C3401 C3418 1.574 . S
C3401 C3420 1.368 . S
C3401 H3425 0.949 . S
H3402 C3406 0.949 . S
C3403 C3404 1.349 . S
C3403 C3405 1.327 . S
C3403 H3426 0.950 . S
C3404 C3403 1.349 . S
C3404 C3416 1.349 . S
C3405 C3403 1.327 . S
C3405 C3421 1.429 . S
C3405 H3427 0.950 . S
C3406 H3402 0.949 . S
C3406 C3414 1.574 . S
C3406 C3422 1.368 . S
H3407 C3415 0.944 1_655 S
H3408 C3413 0.950 . S
H3409 C3414 0.949 . S
H3410 C3416 0.950 . S
H3411 C3417 0.950 . S
H3412 C3418 0.949 . S
C3413 H3408 0.950 . S
C3413 C3415 1.348 . S
C3413 C3419 1.429 . S
C3414 C3406 1.574 . S
C3414 H3409 0.949 . S
C3414 C3420 1.368 . S
C3415 C3399 1.332 1_455 S
C3415 H3407 0.944 1_455 S
C3415 C3413 1.348 . S
C3416 C3404 1.349 . S
C3416 H3410 0.950 . S
C3416 C3417 1.327 . S
C3417 H3411 0.950 . S
C3417 C3416 1.327 . S
C3417 C3421 1.429 . S
C3418 C3401 1.574 . S
C3418 H3412 0.949 . S
C3418 C3422 1.368 . S
C3419 C3400 1.429 . S
C3419 C3413 1.429 . S
C3419 C3420 1.523 . S
C3420 C3401 1.368 . S
C3420 C3414 1.368 . S
C3420 C3419 1.523 . S
C3421 C3405 1.429 . S
C3421 C3417 1.429 . S
C3421 C3422 1.523 . S
C3422 C3406 1.368 . S
C3422 C3418 1.368 . S
C3422 C3421 1.523 . S
H3423 C3398 0.950 . S
H3424 C3400 0.950 . S
H3425 C3401 0.949 . S
H3426 C3403 0.950 . S
H3427 C3405 0.950 . S
C3428 C3429 1.349 . S
C3428 C3430 1.327 . S
C3428 H3453 0.950 . S
C3429 C3428 1.349 . S
C3429 C3445 1.349 . S
C3430 C3428 1.327 . S
C3430 C3449 1.429 . S
C3430 H3454 0.950 . S
C3431 C3448 1.574 . S
C3431 C3450 1.368 . S
C3431 H3455 0.949 . S
H3432 C3436 0.949 . S
C3433 C3434 1.349 . S
C3433 C3435 1.327 . S
C3433 H3456 0.950 . S
C3434 C3433 1.349 . S
C3434 C3446 1.349 . S
C3435 C3433 1.327 . S
C3435 C3451 1.429 . S
C3435 H3457 0.950 . S
C3436 H3432 0.949 . S
C3436 C3444 1.574 . S
C3436 C3452 1.368 . S
H3437 C3445 0.950 . S
H3438 C3443 0.950 . S
H3439 C3444 0.949 . S
H3440 C3446 0.950 . S
H3441 C3447 0.950 . S
H3442 C3448 0.949 . S
C3443 H3438 0.950 . S
C3443 C3445 1.327 . S
C3443 C3449 1.429 . S
C3444 C3436 1.574 . S
C3444 H3439 0.949 . S
C3444 C3450 1.368 . S
C3445 C3429 1.349 . S
C3445 H3437 0.950 . S
C3445 C3443 1.327 . S
C3446 C3434 1.349 . S
C3446 H3440 0.950 . S
C3446 C3447 1.327 . S
C3447 H3441 0.950 . S
C3447 C3446 1.327 . S
C3447 C3451 1.429 . S
C3448 C3431 1.574 . S
C3448 H3442 0.949 . S
C3448 C3452 1.368 . S
C3449 C3430 1.429 . S
C3449 C3443 1.429 . S
C3449 C3450 1.523 . S
C3450 C3431 1.368 . S
C3450 C3444 1.368 . S
C3450 C3449 1.523 . S
C3451 C3435 1.429 . S
C3451 C3447 1.429 . S
C3451 C3452 1.523 . S
C3452 C3436 1.368 . S
C3452 C3448 1.368 . S
C3452 C3451 1.523 . S
H3453 C3428 0.950 . S
H3454 C3430 0.950 . S
H3455 C3431 0.949 . S
H3456 C3433 0.950 . S
H3457 C3435 0.950 . S
C3458 C3459 1.349 . S
C3458 C3460 1.327 . S
C3458 H3483 0.950 . S
C3459 C3458 1.349 . S
C3459 C3475 1.349 . S
C3460 C3458 1.327 . S
C3460 C3479 1.429 . S
C3460 H3484 0.950 . S
C3461 C3478 1.574 . S
C3461 C3480 1.368 . S
C3461 H3485 0.949 . S
H3462 C3466 0.949 . S
C3463 C3464 1.349 . S
C3463 C3465 1.327 . S
C3463 H3486 0.950 . S
C3464 C3463 1.349 . S
C3464 C3476 1.349 . S
C3465 C3463 1.327 . S
C3465 C3481 1.429 . S
C3465 H3487 0.950 . S
C3466 H3462 0.949 . S
C3466 C3474 1.574 . S
C3466 C3482 1.368 . S
H3467 C3475 0.950 . S
H3468 C3473 0.950 . S
H3469 C3474 0.949 . S
H3470 C3476 0.950 . S
H3471 C3477 0.950 . S
H3472 C3478 0.949 . S
C3473 H3468 0.950 . S
C3473 C3475 1.327 . S
C3473 C3479 1.429 . S
C3474 C3466 1.574 . S
C3474 H3469 0.949 . S
C3474 C3480 1.368 . S
C3475 C3459 1.349 . S
C3475 H3467 0.950 . S
C3475 C3473 1.327 . S
C3476 C3464 1.349 . S
C3476 H3470 0.950 . S
C3476 C3477 1.327 . S
C3477 H3471 0.950 . S
C3477 C3476 1.327 . S
C3477 C3481 1.429 . S
C3478 C3461 1.574 . S
C3478 H3472 0.949 . S
C3478 C3482 1.368 . S
C3479 C3460 1.429 . S
C3479 C3473 1.429 . S
C3479 C3480 1.523 . S
C3480 C3461 1.368 . S
C3480 C3474 1.368 . S
C3480 C3479 1.523 . S
C3481 C3465 1.429 . S
C3481 C3477 1.429 . S
C3481 C3482 1.523 . S
C3482 C3466 1.368 . S
C3482 C3478 1.368 . S
C3482 C3481 1.523 . S
H3483 C3458 0.950 . S
H3484 C3460 0.950 . S
H3485 C3461 0.949 . S
H3486 C3463 0.950 . S
H3487 C3465 0.950 . S
C1089 C247 1.189 . S
C1094 C9 1.189 . S
C1119 C43 1.189 . S
C1124 C145 1.189 . S
C1149 C77 1.189 . S
C1154 C179 1.189 . S
C1179 C213 1.189 . S
C1184 C111 1.189 . S
C1209 C530 1.503 . S
C1214 C292 1.503 . S
C1239 C428 1.503 . S
C1244 C326 1.503 . S
C1269 C360 1.503 . S
C1274 C462 1.503 . S
C1299 C394 1.503 . S
C1304 C496 1.503 . S
C1329 C791 1.189 . S
C1334 C553 1.189 . S
C1359 C587 1.189 . S
C1364 C689 1.189 . S
C1389 C621 1.189 . S
C1394 C723 1.189 . S
C1419 C757 1.189 . S
C1424 C655 1.189 . S
C1449 C1074 1.503 . S
C1454 C836 1.503 . S
C1479 C870 1.503 . S
C1484 C972 1.503 . S
C1509 C1006 1.503 . S
C1514 C904 1.503 . S
C1539 C1040 1.503 . S
C1544 C938 1.503 . S
C1569 C156 2.181 . S
C1574 C20 2.181 . S
C1599 C54 2.181 . S
C1604 C190 2.181 . S
C1629 C224 2.181 . S
C1634 C88 2.181 . S
C1659 C122 2.181 . S
C1664 C258 2.181 . S
C1689 C417 0.553 . S
C1694 C281 0.553 . S
C1719 C315 0.553 . S
C1724 C451 0.553 . S
C1749 C349 0.553 . S
C1754 C485 0.553 . S
C1779 C519 0.553 . S
C1784 C383 0.553 . S
C1809 C700 2.181 . S
C1814 C564 2.181 . S
C1839 C734 2.181 . S
C1844 C598 2.181 . S
C1869 C768 2.181 . S
C1874 C632 2.181 . S
C1899 C802 2.181 . S
C1904 C666 2.181 . S
C1929 C961 0.553 . S
C1934 C825 0.553 . S
C1959 C859 0.553 . S
C1964 C995 0.553 . S
C1989 C1029 0.553 . S
C1994 C893 0.553 . S
C2019 C1063 0.553 . S
C2024 C927 0.553 . S
C2049 C614 1.064 . S
C2054 C2 1.064 . S
C2079 C36 1.064 . S
C2084 C648 1.064 . S
C2109 C70 1.064 . S
C2114 C546 1.064 . S
C2139 C104 1.064 . S
C2144 C580 1.064 . S
C2169 C750 1.064 . S
C2174 C138 1.064 . S
C2199 C784 1.064 . S
C2204 C172 1.064 . S
C2229 C206 1.064 . S
C2234 C682 1.064 . S
C2259 C240 1.064 . S
C2264 C716 1.064 . S
C2289 C277 0.724 . S
C2294 C889 0.724 . S
C2319 C311 0.724 . S
C2324 C923 0.724 . S
C2349 C821 0.724 . S
C2354 C345 0.724 . S
C2379 C379 0.724 . S
C2384 C855 0.724 . S
C2409 C413 0.724 . S
C2414 C1025 0.724 . S
C2439 C1059 0.724 . S
C2444 C447 0.724 . S
C2469 C481 0.724 . S
C2474 C957 0.724 . S
C2499 C991 0.724 . S
C2504 C515 0.724 . S
C2529 C920 1.675 . S
C2534 C33 1.642 . S
C2559 C67 1.642 . S
C2564 C274 1.675 . S
C2589 C101 1.642 . S
C2594 C852 1.675 . S
C2619 C342 1.675 . S
C2624 C135 1.642 . S
C2649 C988 1.675 . S
C2654 C169 1.642 . S
C2679 C203 1.642 . S
C2684 C478 1.675 . S
C2709 C1056 1.675 . S
C2714 C237 1.642 . S
C2739 C410 1.675 . S
C2744 C271 1.642 . S
C2769 C305 0.477 . S
C2774 C651 0.470 . S
C2799 C339 0.477 . S
C2804 C5 0.470 . S
C2829 C583 0.470 . S
C2834 C373 0.477 . S
C2859 C407 0.477 . S
C2864 C73 0.470 . S
C2889 C441 0.477 . S
C2894 C719 0.470 . S
C2919 C475 0.477 . S
C2924 C209 0.470 . S
C2949 C509 0.477 . S
C2954 C787 0.470 . S
C2979 C141 0.470 . S
C2984 C543 0.477 . S
C3009 C577 1.642 . S
C3014 C376 1.675 . S
C3039 C818 1.675 . S
C3044 C611 1.642 . S
C3069 C308 1.675 . S
C3074 C645 1.642 . S
C3099 C886 1.675 . S
C3104 C679 1.642 . S
C3129 C713 1.642 . S
C3134 C444 1.675 . S
C3159 C747 1.642 . S
C3164 C1022 1.675 . S
C3189 C512 1.675 . S
C3194 C781 1.642 . S
C3219 C815 1.642 . S
C3224 C954 1.675 . S
C3249 C849 0.477 . S
C3254 C107 0.470 . S
C3279 C549 0.470 . S
C3284 C883 0.477 . S
C3309 C917 0.477 . S
C3314 C39 0.470 . S
C3339 C951 0.477 . S
C3344 C617 0.470 . S
C3369 C985 0.477 . S
C3374 C175 0.470 . S
C3399 C753 0.470 . S
C3404 C1019 0.477 . S
C3429 C1053 0.477 . S
C3434 C243 0.470 . S
C3459 C1087 0.477 . S
C3464 C685 0.470 . S
